# Generated by pormake.
# Topology rkf, (6)-cn, num edge types: 1
# Building blocks:
#     Node 0, Type 0, BuildingBlock: BETFEN_clean_sbu_0, # of connection points: 6
#     Node 1, Type 0, BuildingBlock: BETFEN_clean_sbu_0, # of connection points: 6
#     Node 2, Type 0, BuildingBlock: BETFEN_clean_sbu_0, # of connection points: 6
#     Node 3, Type 0, BuildingBlock: BETFEN_clean_sbu_0, # of connection points: 6
#     Node 4, Type 0, BuildingBlock: BETFEN_clean_sbu_0, # of connection points: 6
#     Node 5, Type 0, BuildingBlock: BETFEN_clean_sbu_0, # of connection points: 6
#     Edge 6, Type (0, 0), BuildingBlock: TEMPAE_clean_linker_10, # of connection points: 2
#     Edge 7, Type (0, 0), BuildingBlock: TEMPAE_clean_linker_10, # of connection points: 2
#     Edge 8, Type (0, 0), BuildingBlock: TEMPAE_clean_linker_10, # of connection points: 2
#     Edge 9, Type (0, 0), BuildingBlock: TEMPAE_clean_linker_10, # of connection points: 2
#     Edge 10, Type (0, 0), BuildingBlock: TEMPAE_clean_linker_10, # of connection points: 2
#     Edge 11, Type (0, 0), BuildingBlock: TEMPAE_clean_linker_10, # of connection points: 2
#     Edge 12, Type (0, 0), BuildingBlock: TEMPAE_clean_linker_10, # of connection points: 2
#     Edge 13, Type (0, 0), BuildingBlock: TEMPAE_clean_linker_10, # of connection points: 2
#     Edge 14, Type (0, 0), BuildingBlock: TEMPAE_clean_linker_10, # of connection points: 2
#     Edge 15, Type (0, 0), BuildingBlock: TEMPAE_clean_linker_10, # of connection points: 2
#     Edge 16, Type (0, 0), BuildingBlock: TEMPAE_clean_linker_10, # of connection points: 2
#     Edge 17, Type (0, 0), BuildingBlock: TEMPAE_clean_linker_10, # of connection points: 2
#     Edge 18, Type (0, 0), BuildingBlock: TEMPAE_clean_linker_10, # of connection points: 2
#     Edge 19, Type (0, 0), BuildingBlock: TEMPAE_clean_linker_10, # of connection points: 2
#     Edge 20, Type (0, 0), BuildingBlock: TEMPAE_clean_linker_10, # of connection points: 2
#     Edge 21, Type (0, 0), BuildingBlock: TEMPAE_clean_linker_10, # of connection points: 2
#     Edge 22, Type (0, 0), BuildingBlock: TEMPAE_clean_linker_10, # of connection points: 2
#     Edge 23, Type (0, 0), BuildingBlock: TEMPAE_clean_linker_10, # of connection points: 2
# Relax obj value: 0.712
# Max RMSD: 0.249
# Mean RMSD: 0.249
data_MOF--net-rkf--node1-BETFEN_clean_sbu_0--edge1-TEMPAE_clean_linker_10
_symmetry_space_group_name_H-M    P1
_symmetry_Int_Tables_number       1
_symmetry_cell_setting            triclinic
loop_
_symmetry_equiv_pos_as_xyz
'x, y, z'
_cell_length_a     26.069311
_cell_length_b     26.241021
_cell_length_c     44.57776
_cell_angle_alpha  90.362442
_cell_angle_beta   89.593645
_cell_angle_gamma 119.73294
loop_
_atom_site_label
_atom_site_type_symbol
_atom_site_fract_x
_atom_site_fract_y
_atom_site_fract_z
_atom_type_partial_charge
Pr0 Pr 0.24703 -0.00909 0.16218 0.0
Pr1 Pr 0.32852 0.1136 1.13845 0.0
C2 C 0.20364 0.88573 0.18892 0.0
C3 C 0.2117 0.86537 0.21808 0.0
C4 C 0.17062 0.8093 0.22834 0.0
C5 C 0.17505 0.79218 0.2574 0.0
C6 C 0.22061 0.83112 0.27652 0.0
C7 C 0.26361 0.88601 0.2654 0.0
C8 C 0.25909 0.90305 0.23642 0.0
C9 C 0.19282 0.05541 1.14669 0.0
C10 C 0.30335 0.10399 0.21147 0.0
C11 C 0.38143 0.21869 1.11104 0.0
C12 C 0.36051 0.25644 1.09837 0.0
C13 C 0.39848 0.31713 1.09709 0.0
C14 C 0.37812 0.35373 1.08633 0.0
C15 C 0.31909 0.33021 1.07705 0.0
C16 C 0.28099 0.26916 1.07881 0.0
C17 C 0.30173 0.23259 1.08909 0.0
C18 C 0.38766 0.05446 1.15567 0.0
C19 C 0.24051 0.00486 1.08994 0.0
O20 O 0.24993 0.90797 0.17126 0.0
O21 O 0.17618 0.91613 0.18934 0.0
O22 O 0.23987 0.07316 0.16068 0.0
O23 O 0.16716 -0.00092 1.14165 0.0
O24 O 0.31626 0.13846 0.18779 0.0
O25 O 0.28368 0.04686 0.20774 0.0
O26 O 0.37663 0.21275 1.14013 0.0
O27 O 0.36594 0.16936 1.09691 0.0
O28 O 0.34019 0.03192 1.141 0.0
O29 O 0.40751 0.10985 0.16014 0.0
O30 O 0.2333 0.96701 1.11116 0.0
O31 O 0.26867 0.06217 1.09578 0.0
H32 H 0.134 0.77963 0.21431 0.0
H33 H 0.14138 0.74962 0.26541 0.0
H34 H 0.29854 0.91742 0.27973 0.0
H35 H 0.29127 0.94655 0.22876 0.0
H36 H 0.44396 0.33618 1.10431 0.0
H37 H 0.40909 0.4003 1.08467 0.0
H38 H 0.23508 0.24954 1.07232 0.0
H39 H 0.27174 0.1857 1.09 0.0
Pr40 Pr 0.35066 0.28739 0.48929 0.0
Pr41 Pr 0.29932 0.36407 0.47208 0.0
C42 C 0.41982 0.2442 0.50756 0.0
C43 C 0.43191 0.21573 0.53241 0.0
C44 C 0.39569 0.1977 0.5579 0.0
C45 C 0.4053 0.16678 0.58043 0.0
C46 C 0.45142 0.15361 0.57784 0.0
C47 C 0.48849 0.17318 0.55251 0.0
C48 C 0.47875 0.20409 0.52995 0.0
C49 C 0.2294 0.22816 0.47758 0.0
C50 C 0.29266 0.33271 0.54451 0.0
C51 C 0.23857 0.41436 0.451 0.0
C52 C 0.17913 0.39426 0.43893 0.0
C53 C 0.15839 0.35685 0.41393 0.0
C54 C 0.10202 0.33844 0.4028 0.0
C55 C 0.06469 0.35618 0.4167 0.0
C56 C 0.08519 0.39258 0.44218 0.0
C57 C 0.14201 0.41168 0.45307 0.0
C58 C 0.41931 0.4271 0.48556 0.0
C59 C 0.32754 0.29063 0.41839 0.0
O60 O 0.43368 0.29904 0.51142 0.0
O61 O 0.36972 0.21278 0.49358 0.0
O62 O 0.25788 0.27427 0.4923 0.0
O63 O 0.26268 0.20618 0.46989 0.0
O64 O 0.26914 0.34826 0.52268 0.0
O65 O 0.32968 0.31294 0.53802 0.0
O66 O 0.24083 0.40406 0.4794 0.0
O67 O 0.27542 0.40589 0.43449 0.0
O68 O 0.39546 0.38099 0.46982 0.0
O69 O 0.38157 0.44317 0.49333 0.0
O70 O 0.3663 0.29138 0.43747 0.0
O71 O 0.29015 0.30831 0.42741 0.0
H72 H 0.3592 0.20626 0.56001 0.0
H73 H 0.37516 0.15132 0.59937 0.0
H74 H 0.52447 0.16399 0.54997 0.0
H75 H 0.5071 0.21794 0.51029 0.0
H76 H 0.18581 0.3422 0.40272 0.0
H77 H 0.08842 0.31143 0.38277 0.0
H78 H 0.05742 0.40638 0.45373 0.0
H79 H 0.15697 0.44002 0.47263 0.0
Pr80 Pr 0.13364 0.38695 0.82416 0.0
Pr81 Pr 0.04363 0.25677 0.8135 0.0
C82 C 0.18421 0.50018 0.84104 0.0
C83 C 0.19517 0.52633 0.87127 0.0
C84 C 0.15253 0.49916 0.89394 0.0
C85 C 0.16871 0.51 0.92401 0.0
C86 C 0.22787 0.54825 0.932 0.0
C87 C 0.26818 0.58199 0.90928 0.0
C88 C 0.25208 0.57057 0.87908 0.0
C89 C 0.17825 0.31259 0.83455 0.0
C90 C 0.0509 0.30055 0.8825 0.0
C91 C -0.02032 0.14081 0.80217 0.0
C92 C 0.9318 0.0984 0.78316 0.0
C93 C 0.92009 0.11461 0.75523 0.0
C94 C 0.87133 0.07442 0.73858 0.0
C95 C 0.83338 0.01784 0.74982 0.0
C96 C 0.84564 0.00181 0.77772 0.0
C97 C 0.89461 0.04181 0.79422 0.0
C98 C 0.00162 0.33484 0.80309 0.0
C99 C 0.13842 0.3329 0.75749 0.0
O100 O 0.12886 0.46952 0.83293 0.0
O101 O 0.21478 0.47441 0.83423 0.0
O102 O 0.12767 0.30324 0.84196 0.0
O103 O 0.20939 0.36293 0.82137 0.0
O104 O 0.04187 0.25556 0.8656 0.0
O105 O 0.07988 0.35471 0.87131 0.0
O106 O 0.03099 0.17491 0.78954 0.0
O107 O -0.03547 0.16774 0.82204 0.0
O108 O 0.05098 0.34165 0.79539 0.0
O109 O -0.03052 0.28386 0.81529 0.0
O110 O 0.15226 0.38218 0.7723 0.0
O111 O 0.10258 0.28095 0.76955 0.0
H112 H 0.10793 0.46542 0.88859 0.0
H113 H 0.13602 0.48346 0.94064 0.0
H114 H 0.31361 0.61339 0.91466 0.0
H115 H 0.28544 0.59263 0.86191 0.0
H116 H 0.94805 0.15845 0.74656 0.0
H117 H 0.86263 0.08789 0.71717 0.0
H118 H 0.81756 0.95823 0.78667 0.0
H119 H 0.90304 0.02884 0.81585 0.0
Pr120 Pr 0.81906 0.15137 1.15767 0.0
Pr121 Pr 0.86463 0.06517 1.14711 0.0
C122 C 0.75236 0.19875 0.17388 0.0
C123 C 0.74253 0.21658 0.20386 0.0
C124 C 0.72606 0.17752 0.22819 0.0
C125 C 0.73693 0.19893 0.25756 0.0
C126 C 0.7648 0.25959 0.26295 0.0
C127 C 0.77383 0.29761 0.23892 0.0
C128 C 0.76254 0.27616 0.20954 0.0
C129 C 0.93921 0.20023 0.16683 0.0
C130 C 0.82429 0.06883 0.21613 0.0
C131 C 0.91426 -0.00081 1.13352 0.0
C132 C 0.89342 0.93619 1.13173 0.0
C133 C 0.93391 0.91633 1.12786 0.0
C134 C 0.91389 0.85756 1.12055 0.0
C135 C 0.85311 0.81824 1.11656 0.0
C136 C 0.81265 0.83754 1.12317 0.0
C137 C 0.83269 0.89605 1.13074 0.0
C138 C 0.74341 0.01986 1.13815 0.0
C139 C 0.88755 0.16343 1.09403 0.0
O140 O 0.73019 0.14235 0.16916 0.0
O141 O 0.80633 0.23001 0.16355 0.0
O142 O 0.89977 0.1498 0.17481 0.0
O143 O 0.91668 0.22977 1.15487 0.0
O144 O 0.85425 0.05254 0.19849 0.0
O145 O 0.80394 0.1031 0.20583 0.0
O146 O 0.89248 0.01919 1.11341 0.0
O147 O 0.91713 0.02104 0.16026 0.0
O148 O 0.78423 0.06851 1.12932 0.0
O149 O 0.76453 -0.009 1.15194 0.0
O150 O 0.8428 0.16746 1.10591 0.0
O151 O 0.91015 0.13514 1.10844 0.0
H152 H 0.71015 0.1312 0.22459 0.0
H153 H 0.72973 0.16873 0.27569 0.0
H154 H 0.795 0.34456 0.24262 0.0
H155 H 0.77517 0.30701 0.19118 0.0
H156 H -0.01902 0.94681 1.12888 0.0
H157 H 0.94613 0.84382 1.1161 0.0
H158 H 0.76566 0.80888 1.12004 0.0
H159 H 0.80085 0.91077 1.13388 0.0
Pr160 Pr 0.74795 0.86 0.49411 0.0
Pr161 Pr 0.88158 0.9045 0.48738 0.0
C162 C 0.63195 0.79646 0.50655 0.0
C163 C 0.60217 0.77284 0.53541 0.0
C164 C 0.62825 0.75295 0.55627 0.0
C165 C 0.61392 0.74988 0.58657 0.0
C166 C 0.57328 0.7669 0.59666 0.0
C167 C 0.54126 0.77877 0.57517 0.0
C168 C 0.55604 0.78224 0.54472 0.0
C169 C 0.82146 -0.01976 0.50254 0.0
C170 C 0.82866 0.86175 0.55468 0.0
C171 C -0.00084 0.95792 0.47845 0.0
C172 C 0.04575 0.94224 0.47846 0.0
C173 C 0.10505 -0.01347 0.47894 0.0
C174 C 0.14956 -0.02703 0.47273 0.0
C175 C 0.13503 0.91503 0.46545 0.0
C176 C 0.07579 0.87009 0.46816 0.0
C177 C 0.0315 0.88364 0.47466 0.0
C178 C 0.80746 0.78422 0.47787 0.0
C179 C 0.80821 0.92356 0.43051 0.0
O180 O 0.66239 0.77325 0.49543 0.0
O181 O 0.66016 0.85381 0.50499 0.0
O182 O 0.82902 0.93969 0.51232 0.0
O183 O 0.77127 0.95884 0.48856 0.0
O184 O 0.87661 0.89664 0.5393 0.0
O185 O 0.77563 0.83712 0.54181 0.0
O186 O -0.03954 0.93487 0.45686 0.0
O187 O -0.02441 0.95813 0.50433 0.0
O188 O 0.79982 0.82485 0.46842 0.0
O189 O 0.85684 0.80498 0.4924 0.0
O190 O 0.75854 0.88158 0.44251 0.0
O191 O 0.85882 0.9456 0.44542 0.0
H192 H 0.66383 0.74509 0.5497 0.0
H193 H 0.63993 0.74067 0.60215 0.0
H194 H 0.50862 0.79061 0.58208 0.0
H195 H 0.53516 0.79735 0.5289 0.0
H196 H 0.11668 0.03196 0.48226 0.0
H197 H 0.19484 0.00842 0.47132 0.0
H198 H 0.06273 0.8251 0.46248 0.0
H199 H -0.01421 0.84885 0.47454 0.0
Pr200 Pr 0.9341 0.77882 0.83866 0.0
Pr201 Pr 0.05643 0.82871 0.8119 0.0
C202 C 0.82133 0.70206 0.85349 0.0
C203 C 0.79266 0.66592 0.87995 0.0
C204 C 0.73405 0.64963 0.88697 0.0
C205 C 0.71042 0.62539 0.91501 0.0
C206 C 0.74542 0.61764 0.9364 0.0
C207 C 0.80243 0.62937 0.92812 0.0
C208 C 0.82593 0.65355 0.90018 0.0
C209 C -0.0048 0.89968 0.83818 0.0
C210 C 0.04184 0.83592 0.88701 0.0
C211 C 0.17286 0.88187 0.79924 0.0
C212 C 0.21558 0.87905 0.7789 0.0
C213 C 0.19737 0.83629 0.7563 0.0
C214 C 0.23762 0.83994 0.73435 0.0
C215 C 0.29627 0.88674 0.73466 0.0
C216 C 0.3151 0.92641 0.75891 0.0
C217 C 0.27495 0.92259 0.78082 0.0
C218 C -0.00874 0.70679 0.81226 0.0
C219 C 0.95277 0.80704 0.76346 0.0
O220 O 0.85469 0.68752 0.83771 0.0
O221 O 0.84537 0.75871 0.8577 0.0
O222 O -0.00391 0.8674 0.81738 0.0
O223 O -0.04346 0.87008 0.85895 0.0
O224 O 0.07465 0.85951 0.86278 0.0
O225 O -0.01455 0.79539 0.8844 0.0
O226 O 0.1372 0.89782 0.78744 0.0
O227 O 0.14704 0.83937 0.81864 0.0
O228 O -0.00461 0.73937 0.83416 0.0
O229 O 0.02158 0.73719 0.78934 0.0
O230 O 0.91597 0.78423 0.78659 0.0
O231 O 0.01048 0.82985 0.76684 0.0
H232 H 0.70779 0.65882 0.87152 0.0
H233 H 0.6663 0.61655 0.92073 0.0
H234 H 0.831 0.62495 0.94415 0.0
H235 H 0.87142 0.66611 0.89516 0.0
H236 H 0.15157 0.80202 0.75479 0.0
H237 H 0.22197 0.80853 0.71606 0.0
H238 H 0.35961 0.96345 0.75965 0.0
H239 H 0.28957 0.95568 0.79832 0.0
C240 C 0.03021 0.23974 1.13534 0.0
C241 C -0.00029 0.21268 0.16181 0.0
C242 C 0.07719 0.232 1.1254 0.0
C243 C 0.09297 0.19676 1.14259 0.0
C244 C 0.06676 0.17597 0.17119 0.0
C245 C 0.02061 0.18465 0.18044 0.0
C246 C 0.10762 0.25867 1.09604 0.0
C247 C 0.08292 0.13928 0.19087 0.0
C248 C 0.12159 0.07784 1.12063 0.0
C249 C 0.17359 0.09646 1.13677 0.0
C250 C 0.09932 0.11626 1.11653 0.0
C251 C 0.12916 0.17292 1.12983 0.0
C252 C 0.18668 0.1948 1.14093 0.0
C253 C 0.20797 0.15593 1.14477 0.0
C254 C 0.04187 0.09498 1.10008 0.0
C255 C 0.22231 0.25682 1.15252 0.0
H256 H 0.01412 0.26219 1.12117 0.0
H257 H -0.0028 0.16477 0.20114 0.0
H258 H 0.08519 0.2786 1.08361 0.0
H259 H 0.15377 0.29339 1.10047 0.0
H260 H 0.10982 0.22534 1.08153 0.0
H261 H 0.07238 0.09776 0.1792 0.0
H262 H 0.13089 0.16321 0.19571 0.0
H263 H 0.0588 0.12792 0.21263 0.0
H264 H 0.09691 0.03286 1.11275 0.0
H265 H 0.25019 0.17171 1.1557 0.0
H266 H 0.0507 0.11938 1.07869 0.0
H267 H 0.0109 0.10385 1.11324 0.0
H268 H 0.02022 0.04739 1.09474 0.0
H269 H 0.21492 0.28749 1.13863 0.0
H270 H 0.27029 0.27153 1.15269 0.0
H271 H 0.20838 0.25909 0.17584 0.0
C272 C 0.92254 0.05561 0.51432 0.0
C273 C 0.87304 0.03771 0.49619 0.0
C274 C -0.02149 0.09755 0.5044 0.0
C275 C -0.01513 0.1234 0.47578 0.0
C276 C 0.9341 0.11009 0.45869 0.0
C277 C 0.87823 0.0671 0.4692 0.0
C278 C 0.03115 0.11047 0.52372 0.0
C279 C 0.93889 0.13952 0.42907 0.0
C280 C 0.14101 0.24007 0.47735 0.0
C281 C 0.16775 0.20701 0.46882 0.0
C282 C 0.08012 0.21707 0.47459 0.0
C283 C 0.04546 0.15945 0.4636 0.0
C284 C 0.0735 0.13063 0.44989 0.0
C285 C 0.1348 0.15449 0.45309 0.0
C286 C 0.05223 0.25148 0.4867 0.0
C287 C 0.0388 0.07386 0.43283 0.0
H288 H 0.91808 0.03311 0.53535 0.0
H289 H 0.83962 0.05337 0.45527 0.0
H290 H 0.05714 0.1581 0.52872 0.0
H291 H 0.01802 0.08647 0.54537 0.0
H292 H 0.06048 0.09775 0.51162 0.0
H293 H 0.89729 0.11669 0.416 0.0
H294 H 0.94858 0.18507 0.43342 0.0
H295 H -0.02438 0.14194 0.41529 0.0
H296 H 0.16693 0.28251 0.488 0.0
H297 H 0.15616 0.13082 0.44462 0.0
H298 H 0.03135 0.2334 0.50878 0.0
H299 H 0.01717 0.24762 0.47135 0.0
H300 H 0.08525 0.29864 0.48974 0.0
H301 H -0.00574 0.04587 0.44255 0.0
H302 H 0.06262 0.04863 0.43167 0.0
H303 H 0.03254 0.08431 0.40952 0.0
C304 C 0.09661 -0.01698 0.832 0.0
C305 C 0.03775 0.96232 0.84031 0.0
C306 C 0.13802 0.04287 0.83316 0.0
C307 C 0.11898 0.0829 0.84148 0.0
C308 C 0.05959 0.06174 0.85093 0.0
C309 C 0.01995 0.00128 0.8508 0.0
C310 C 0.20139 0.06219 0.82506 0.0
C311 C 0.03707 0.1023 0.86096 0.0
C312 C 0.19609 0.24177 0.86146 0.0
C313 C 0.19178 0.26512 0.83412 0.0
C314 C 0.18153 0.18289 0.86332 0.0
C315 C 0.1584 0.14671 0.83769 0.0
C316 C 0.16146 0.17222 0.80934 0.0
C317 C 0.18006 0.23212 0.80784 0.0
C318 C 0.18452 0.15827 0.89332 0.0
C319 C 0.13793 0.13531 0.78131 0.0
H320 H 0.1106 0.9523 0.82503 0.0
H321 H -0.02554 -0.01533 0.85777 0.0
H322 H 0.20536 0.05963 0.80037 0.0
H323 H 0.23265 0.10751 0.83266 0.0
H324 H 0.21474 0.03189 0.8351 0.0
H325 H -0.01165 0.08122 0.85861 0.0
H326 H 0.04759 0.11318 0.88502 0.0
H327 H 0.05781 0.144 0.84823 0.0
H328 H 0.20576 0.26792 0.88175 0.0
H329 H 0.17798 0.25111 0.7867 0.0
H330 H 0.19186 0.12027 0.89061 0.0
H331 H 0.14236 0.14337 0.90562 0.0
H332 H 0.22053 0.19233 0.90724 0.0
H333 H 0.14266 0.16215 0.7612 0.0
H334 H 0.09042 0.10261 0.78433 0.0
H335 H 0.16178 0.11087 0.77704 0.0
C336 C 0.26192 0.34962 1.03839 0.0
C337 C 0.29883 0.36881 1.06356 0.0
C338 C 0.2491 0.38789 1.02266 0.0
C339 C 0.27432 0.44712 1.03212 0.0
C340 C 0.30814 0.4658 1.05868 0.0
C341 C 0.3199 0.42631 1.07416 0.0
C342 C 0.21204 0.36588 0.9946 0.0
C343 C 0.33547 0.52835 1.06967 0.0
C344 C 0.30165 0.53903 0.96341 0.0
C345 C 0.24914 0.54153 0.96186 0.0
C346 C 0.31358 0.5139 0.98805 0.0
C347 C 0.27173 0.4901 1.01161 0.0
C348 C 0.22235 0.49876 1.012 0.0
C349 C 0.21194 0.52509 0.98719 0.0
C350 C 0.36758 0.50668 0.98707 0.0
C351 C 0.17798 0.47564 1.03735 0.0
H352 H 0.24566 0.30553 1.02982 0.0
H353 H 0.34721 0.44112 1.09405 0.0
H354 H 0.17695 0.37806 0.99488 0.0
H355 H 0.24024 0.38671 0.97461 0.0
H356 H 0.19094 0.31749 0.99204 0.0
H357 H 0.34643 0.53191 1.09391 0.0
H358 H 0.37699 0.55587 1.05704 0.0
H359 H 0.30575 0.54662 1.06591 0.0
H360 H 0.33098 0.5513 0.94418 0.0
H361 H 0.17231 0.5287 0.9867 0.0
H362 H 0.35398 0.4603 0.98177 0.0
H363 H 0.38987 0.51728 1.00917 0.0
H364 H 0.39991 0.53505 0.96978 0.0
H365 H 0.15703 0.42714 1.03843 0.0
H366 H 0.14277 0.4874 1.03474 0.0
H367 H 0.20058 0.49325 1.05906 0.0
C368 C -0.01447 0.37948 0.40214 0.0
C369 C 0.0062 0.33922 0.40339 0.0
C370 C 0.93569 0.36739 0.38506 0.0
C371 C 0.90704 0.31469 0.3683 0.0
C372 C 0.92422 0.27172 0.37182 0.0
C373 C -0.02669 0.28436 0.38947 0.0
C374 C 0.91643 0.41283 0.38316 0.0
C375 C 0.89386 0.21421 0.35506 0.0
C376 C 0.77134 0.26227 0.31922 0.0
C377 C 0.7979 0.28311 0.29116 0.0
C378 C 0.80586 0.27616 0.3453 0.0
C379 C 0.86824 0.30933 0.34282 0.0
C380 C 0.89479 0.33245 0.31464 0.0
C381 C 0.85921 0.31973 0.2893 0.0
C382 C 0.77541 0.25242 0.37499 0.0
C383 C -0.03884 0.3668 0.3107 0.0
H384 H 0.01018 0.42194 0.41294 0.0
H385 H -0.0123 0.2522 0.39109 0.0
H386 H 0.93251 0.43733 0.3618 0.0
H387 H 0.8675 0.39153 0.38335 0.0
H388 H 0.93431 0.44481 0.40199 0.0
H389 H 0.90815 0.18313 0.36289 0.0
H390 H 0.84544 0.19344 0.35802 0.0
H391 H 0.9037 0.22213 0.33071 0.0
H392 H 0.7239 0.23371 0.32063 0.0
H393 H 0.87992 0.3349 0.26753 0.0
H394 H 0.80167 0.28036 0.39407 0.0
H395 H 0.76883 0.2077 0.37826 0.0
H396 H 0.73114 0.24888 0.3754 0.0
H397 H -0.01925 0.40516 0.32605 0.0
H398 H -0.02547 0.38282 0.28738 0.0
H399 H -0.01967 0.33864 0.31647 0.0
C400 C 0.72599 0.94272 0.74584 0.0
C401 C 0.78172 -0.02476 0.73224 0.0
C402 C 0.67703 0.90179 0.72924 0.0
C403 C 0.68456 0.89246 0.69865 0.0
C404 C 0.74107 0.92454 0.68502 0.0
C405 C 0.78862 0.96637 0.70186 0.0
C406 C 0.6175 0.86829 0.74437 0.0
C407 C 0.75174 0.91409 0.65274 0.0
C408 C 0.59231 0.75989 0.65111 0.0
C409 C 0.57667 0.78637 0.62839 0.0
C410 C 0.6221 0.79167 0.67677 0.0
C411 C 0.63401 0.85025 0.68013 0.0
C412 C 0.60739 0.87226 0.66042 0.0
C413 C 0.57963 0.84037 0.63448 0.0
C414 C 0.64532 0.76357 0.69815 0.0
C415 C 0.61509 0.93282 0.66449 0.0
H416 H 0.72059 0.9499 0.76934 0.0
H417 H 0.83188 -0.00917 0.69149 0.0
H418 H 0.58419 0.8742 0.73183 0.0
H419 H 0.6028 0.8207 0.74415 0.0
H420 H 0.61843 0.88254 0.76798 0.0
H421 H 0.79928 0.9389 0.64647 0.0
H422 H 0.73545 0.86668 0.64883 0.0
H423 H 0.72702 0.92752 0.63758 0.0
H424 H 0.58714 0.71671 0.64741 0.0
H425 H 0.56657 0.86119 0.61761 0.0
H426 H 0.67253 0.793 0.71652 0.0
H427 H 0.67187 0.74799 0.68556 0.0
H428 H 0.60742 0.72423 0.70824 0.0
H429 H 0.61326 0.94272 0.68859 0.0
H430 H 0.58066 0.93749 0.65226 0.0
H431 H 0.65895 0.96589 0.65558 0.0
C432 C 0.77738 0.71302 1.10573 0.0
C433 C 0.83263 0.76245 1.09973 0.0
C434 C 0.7503 0.66737 1.08461 0.0
C435 C 0.77893 0.67206 1.05686 0.0
C436 C 0.83768 0.7182 1.05241 0.0
C437 C 0.86375 0.76269 1.07391 0.0
C438 C 0.68915 0.61728 1.09113 0.0
C439 C 0.87068 0.72484 1.02334 0.0
C440 C 0.74551 0.57958 0.9879 0.0
C441 C 0.72957 0.61162 0.96871 0.0
C442 C 0.75272 0.59204 1.01877 0.0
C443 C 0.74518 0.63832 1.03015 0.0
C444 C 0.71955 0.66349 1.01178 0.0
C445 C 0.71176 0.64955 0.98121 0.0
C446 C 0.77551 0.56093 1.03826 0.0
C447 C 0.70874 0.71169 1.02322 0.0
H448 H 0.75365 0.7117 1.12605 0.0
H449 H 0.90634 0.80056 1.06892 0.0
H450 H 0.65615 0.63084 1.0858 0.0
H451 H 0.67884 0.5776 1.07771 0.0
H452 H 0.68428 0.60586 1.11533 0.0
H453 H 0.91797 0.75897 1.02496 0.0
H454 H 0.86833 0.68292 1.01683 0.0
H455 H 0.85025 0.73731 1.00512 0.0
H456 H 0.75749 0.54872 0.97846 0.0
H457 H 0.69868 0.67402 0.96667 0.0
H458 H 0.76151 0.5162 1.02951 0.0
H459 H 0.75972 0.55759 1.06174 0.0
H460 H 0.8245 0.58599 1.03841 0.0
H461 H 0.68535 0.69942 1.04509 0.0
H462 H 0.6822 0.72146 1.00728 0.0
H463 H 0.75173 0.7524 1.02664 0.0
C464 C 0.20852 0.94068 0.42442 0.0
C465 C 0.17703 0.90322 0.44822 0.0
C466 C 0.22966 0.92111 0.40069 0.0
C467 C 0.21941 0.86281 0.40097 0.0
C468 C 0.1971 0.8287 0.42725 0.0
C469 C 0.1755 0.84913 0.45062 0.0
C470 C 0.25486 0.95996 0.37345 0.0
C471 C 0.18972 0.76811 0.42937 0.0
C472 C 0.16419 0.80354 0.32428 0.0
C473 C 0.21744 0.82013 0.30921 0.0
C474 C 0.16307 0.81069 0.35533 0.0
C475 C 0.21654 0.83433 0.37169 0.0
C476 C 0.26867 0.84286 0.35722 0.0
C477 C 0.26878 0.83648 0.32592 0.0
C478 C 0.10595 0.79998 0.36982 0.0
C479 C 0.32565 0.86408 0.37409 0.0
H480 H 0.21057 -0.01723 0.42236 0.0
H481 H 0.15302 0.82069 0.46949 0.0
H482 H 0.29524 0.96017 0.36537 0.0
H483 H 0.22202 0.94277 0.35503 0.0
H484 H 0.26612 0.00594 0.37821 0.0
H485 H 0.19294 0.75698 0.45303 0.0
H486 H 0.14538 0.73537 0.421 0.0
H487 H 0.22339 0.76426 0.41569 0.0
H488 H 0.12433 0.79072 0.31153 0.0
H489 H 0.30983 0.84794 0.31437 0.0
H490 H 0.1098 0.84252 0.3766 0.0
H491 H 0.09666 0.77302 0.3903 0.0
H492 H 0.06765 0.77724 0.35448 0.0
H493 H 0.35222 0.91258 0.37258 0.0
H494 H 0.35225 0.84585 0.36398 0.0
H495 H 0.3177 0.85173 0.39814 0.0
C496 C 0.30764 0.90445 0.6799 0.0
C497 C 0.33325 0.90287 0.70715 0.0
C498 C 0.34253 0.93953 0.65628 0.0
C499 C 0.40456 -0.02687 0.65997 0.0
C500 C 0.43114 0.96371 0.6853 0.0
C501 C 0.39499 0.92907 0.70893 0.0
C502 C 0.31211 0.94698 0.62929 0.0
C503 C 0.49728 -0.00499 0.68903 0.0
C504 C 0.46478 0.06838 0.59173 0.0
C505 C 0.45711 0.11568 0.60055 0.0
C506 C 0.45582 0.0243 0.61226 0.0
C507 C 0.43725 0.02715 0.64178 0.0
C508 C 0.43688 0.07846 0.65161 0.0
C509 C 0.44738 0.12235 0.63087 0.0
C510 C 0.46089 -0.02763 0.60148 0.0
C511 C 0.41891 0.08429 0.6832 0.0
H512 H 0.26003 0.88403 0.67817 0.0
H513 H 0.41508 0.92648 0.72966 0.0
H514 H 0.31594 -0.00895 0.63002 0.0
H515 H 0.33335 0.94396 0.60826 0.0
H516 H 0.26447 0.91344 0.62849 0.0
H517 H 0.51084 0.9677 0.70204 0.0
H518 H 0.52054 0.006 0.66706 0.0
H519 H 0.51166 0.0364 0.70171 0.0
H520 H 0.47339 0.06332 0.56839 0.0
H521 H 0.44387 0.1601 0.63798 0.0
H522 H 0.4181 0.9389 0.59185 0.0
H523 H 0.47223 0.95181 0.62006 0.0
H524 H 0.49496 -0.01438 0.58356 0.0
H525 H 0.3716 0.05163 0.68684 0.0
H526 H 0.42523 0.12871 0.68777 0.0
H527 H 0.44497 0.07532 0.69974 0.0
C528 C 0.41813 -0.01874 1.14043 0.0
C529 C 0.42645 0.02881 1.15834 0.0
C530 C 0.46233 0.96553 1.13834 0.0
C531 C 0.51544 -0.0019 1.15464 0.0
C532 C 0.5211 0.04218 0.17502 0.0
C533 C 0.47653 0.05707 0.17653 0.0
C534 C 0.45431 0.91762 1.11677 0.0
C535 C 0.57669 0.07788 0.19304 0.0
C536 C 0.641 0.96448 0.15933 0.0
C537 C 0.6812 0.00548 1.13892 0.0
C538 C 0.58471 0.95842 0.16346 0.0
C539 C 0.56883 -0.00581 1.14675 0.0
C540 C 0.60801 0.03263 1.12467 0.0
C541 C 0.66369 0.03775 1.12105 0.0
C542 C 0.54405 0.91686 0.18711 0.0
C543 C 0.59289 0.07151 1.10626 0.0
H544 H 0.37905 0.95896 1.12656 0.0
H545 H 0.48249 0.09324 0.19079 0.0
H546 H 0.47988 0.93773 1.09597 0.0
H547 H 0.47126 0.89004 1.12649 0.0
H548 H 0.40719 0.88909 1.11062 0.0
H549 H 0.56963 0.10187 0.21178 0.0
H550 H 0.59321 0.04969 0.2024 0.0
H551 H 0.61159 0.11062 0.17814 0.0
H552 H 0.65456 0.93943 0.17315 0.0
H553 H 0.69466 0.06911 1.10508 0.0
H554 H 0.49791 0.89245 0.17888 0.0
H555 H 0.54449 0.94236 0.20715 0.0
H556 H 0.55785 0.88489 0.19409 0.0
H557 H 0.54864 0.04531 1.09599 0.0
H558 H 0.6257 0.09463 1.08814 0.0
H559 H 0.59139 0.10495 1.12105 0.0
C560 C 0.52412 0.46011 0.47041 0.0
C561 C 0.48348 0.46722 0.48814 0.0
C562 C 0.58389 0.50425 0.46944 0.0
C563 C 0.60279 0.55624 0.48652 0.0
C564 C 0.56266 0.56102 0.5063 0.0
C565 C 0.50358 0.51642 0.50687 0.0
C566 C 0.62567 0.49706 0.44857 0.0
C567 C 0.5807 0.61553 0.52495 0.0
C568 C 0.76005 0.68083 0.49674 0.0
C569 C 0.7608 0.72213 0.47671 0.0
C570 C 0.71031 0.62433 0.49876 0.0
C571 C 0.66065 0.60946 0.48038 0.0
C572 C 0.66332 0.64986 0.45867 0.0
C573 C 0.71342 0.7056 0.45709 0.0
C574 C 0.70939 0.58225 0.52193 0.0
C575 C 0.61146 0.63606 0.43863 0.0
H576 H 0.50874 0.42168 0.45616 0.0
H577 H 0.47238 0.52152 0.52101 0.0
H578 H 0.63296 0.52383 0.42816 0.0
H579 H 0.66925 0.51287 0.45935 0.0
H580 H 0.60784 0.4506 0.44158 0.0
H581 H 0.54667 0.60924 0.54194 0.0
H582 H 0.62293 0.62898 0.53666 0.0
H583 H 0.58761 0.65206 0.51 0.0
H584 H 0.79685 0.69357 0.51187 0.0
H585 H 0.71429 0.73737 0.44134 0.0
H586 H 0.68848 0.5369 0.51283 0.0
H587 H 0.68281 0.58185 0.54156 0.0
H588 H 0.75455 0.59509 0.52982 0.0
H589 H 0.59515 0.59277 0.4276 0.0
H590 H 0.62286 0.66979 0.421 0.0
H591 H 0.57469 0.63372 0.45238 0.0
C592 C 0.93644 0.37626 0.81741 0.0
C593 C -0.01237 0.38288 0.80333 0.0
C594 C 0.92638 0.42406 0.82011 0.0
C595 C -0.03078 0.4797 0.80904 0.0
C596 C 0.02023 0.48599 0.79418 0.0
C597 C 0.02812 0.43723 0.79098 0.0
C598 C 0.87062 0.41534 0.83521 0.0
C599 C 0.06757 0.5447 0.78246 0.0
C600 C 0.94642 0.60716 0.79024 0.0
C601 C -0.02693 0.6443 0.8148 0.0
C602 C 0.9395 0.55067 0.78939 0.0
C603 C -0.03791 0.53213 0.81314 0.0
C604 C -0.014 0.56838 0.83882 0.0
C605 C -0.00969 0.62391 0.83954 0.0
C606 C 0.91196 0.51265 0.76209 0.0
C607 C 0.01196 0.55092 0.86427 0.0
H608 H 0.9048 0.33408 0.82678 0.0
H609 H 0.06737 0.44226 0.77972 0.0
H610 H 0.88176 0.44051 0.85653 0.0
H611 H 0.84801 0.43236 0.82076 0.0
H612 H 0.83946 0.36842 0.84022 0.0
H613 H 0.10525 0.54231 0.77215 0.0
H614 H 0.04875 0.56131 0.76541 0.0
H615 H 0.08468 0.57724 0.80103 0.0
H616 H 0.933 0.62318 0.77117 0.0
H617 H 0.01148 0.6531 0.85838 0.0
H618 H 0.88149 0.46652 0.76873 0.0
H619 H 0.94708 0.51292 0.74778 0.0
H620 H 0.88719 0.52852 0.74847 0.0
H621 H -0.01905 0.50543 0.87159 0.0
H622 H 0.02287 0.58077 0.8839 0.0
H623 H 0.05304 0.55202 0.85645 0.0
C624 C 0.33269 0.19118 0.24592 0.0
C625 C 0.30708 0.13 0.24228 0.0
C626 C 0.33508 0.21708 0.27418 0.0
C627 C 0.31079 0.18141 0.29996 0.0
C628 C 0.28479 0.11954 0.29651 0.0
C629 C 0.28347 0.09474 0.26793 0.0
C630 C 0.36404 0.28304 0.27642 0.0
C631 C 0.25796 0.07938 0.32308 0.0
C632 C 0.36743 0.2522 0.37746 0.0
C633 C 0.32354 0.26478 0.38753 0.0
C634 C 0.36362 0.22512 0.3494 0.0
C635 C 0.31436 0.20919 0.33047 0.0
C636 C 0.26976 0.22163 0.34047 0.0
C637 C 0.27495 0.24933 0.36863 0.0
C638 C 0.4127 0.21362 0.33996 0.0
C639 C 0.21614 0.20527 0.32143 0.0
H640 H 0.35122 0.21933 0.22653 0.0
H641 H 0.2632 0.04752 0.26565 0.0
H642 H 0.33204 0.29565 0.28534 0.0
H643 H 0.40149 0.29997 0.29235 0.0
H644 H 0.38083 0.30485 0.25441 0.0
H645 H 0.23935 0.03241 0.31692 0.0
H646 H 0.29184 0.09065 0.34067 0.0
H647 H 0.22228 0.08555 0.33304 0.0
H648 H 0.40523 0.26354 0.39163 0.0
H649 H 0.24032 0.25799 0.37605 0.0
H650 H 0.43261 0.23654 0.31856 0.0
H651 H 0.39472 0.16601 0.3359 0.0
H652 H 0.44808 0.22849 0.35707 0.0
H653 H 0.18474 0.21665 0.33242 0.0
H654 H 0.19278 0.15743 0.31669 0.0
H655 H 0.2299 0.22816 0.29954 0.0
C656 C 0.30014 0.3242 0.60121 0.0
C657 C 0.27327 0.33415 0.57639 0.0
C658 C 0.28115 0.32547 0.63101 0.0
C659 C 0.23352 0.33627 0.63646 0.0
C660 C 0.20628 0.34618 0.61145 0.0
C661 C 0.22649 0.34532 0.58205 0.0
C662 C 0.31207 0.3151 0.65674 0.0
C663 C 0.15497 0.35702 0.61569 0.0
C664 C 0.14305 0.28271 0.7096 0.0
C665 C 0.16347 0.33461 0.72659 0.0
C666 C 0.16569 0.28261 0.68069 0.0
C667 C 0.21081 0.33561 0.66802 0.0
C668 C 0.23221 0.38811 0.68515 0.0
C669 C 0.20822 0.38707 0.71397 0.0
C670 C 0.14056 0.22556 0.66348 0.0
C671 C 0.28051 0.44565 0.67297 0.0
H672 H 0.33626 0.31561 0.5974 0.0
H673 H 0.20479 0.35282 0.56333 0.0
H674 H 0.3292 0.3527 0.6726 0.0
H675 H 0.28027 0.27546 0.66935 0.0
H676 H 0.3494 0.30913 0.64907 0.0
H677 H 0.13861 0.36427 0.59409 0.0
H678 H 0.11802 0.31896 0.62714 0.0
H679 H 0.16821 0.39598 0.63026 0.0
H680 H 0.10863 0.24168 0.71881 0.0
H681 H 0.22493 0.42748 0.7267 0.0
H682 H 0.17632 0.21612 0.65733 0.0
H683 H 0.12057 0.22919 0.64227 0.0
H684 H 0.10634 0.1879 0.67648 0.0
H685 H 0.31964 0.44157 0.6668 0.0
H686 H 0.29426 0.48216 0.68935 0.0
H687 H 0.2652 0.4571 0.65225 0.0
C688 C 0.04905 0.3305 0.93713 0.0
C689 C 0.0282 0.28775 0.91432 0.0
C690 C 0.02849 0.31587 0.96718 0.0
C691 C -0.01486 0.25732 0.97467 0.0
C692 C -0.03662 0.21456 0.95152 0.0
C693 C -0.01482 0.23009 0.92202 0.0
C694 C 0.05334 0.36307 0.99092 0.0
C695 C 0.9174 0.15166 0.95798 0.0
C696 C -0.03423 0.19246 1.05366 0.0
C697 C 0.91417 0.1913 1.06425 0.0
C698 C -0.00937 0.21613 1.02536 0.0
C699 C -0.03655 0.23929 1.00658 0.0
C700 C 0.9122 0.23963 1.01741 0.0
C701 C 0.88841 0.21597 1.04599 0.0
C702 C 0.04586 0.21566 1.01537 0.0
C703 C 0.8813 0.26339 0.99834 0.0
H704 H 0.08229 0.37502 0.93166 0.0
H705 H -0.03191 0.19641 0.90479 0.0
H706 H 0.06742 0.3478 1.01074 0.0
H707 H 0.09158 0.40427 0.98253 0.0
H708 H 0.01857 0.37287 0.99859 0.0
H709 H 0.90325 0.12404 0.93741 0.0
H710 H 0.93533 0.13236 0.97404 0.0
H711 H 0.87795 0.14991 0.96862 0.0
H712 H -0.01322 0.17427 1.06745 0.0
H713 H 0.84879 0.21571 1.05374 0.0
H714 H 0.08236 0.26145 1.01261 0.0
H715 H 0.0388 0.19348 0.99329 0.0
H716 H 0.05982 0.19308 1.03165 0.0
H717 H 0.91314 0.30854 0.99083 0.0
H718 H 0.84438 0.26422 1.01051 0.0
H719 H 0.86341 0.23585 0.97793 0.0
C720 C 0.79674 0.07232 0.27106 0.0
C721 C 0.81593 0.04838 0.24824 0.0
C722 C 0.79281 0.0543 0.30138 0.0
C723 C 0.80761 0.01061 0.30923 0.0
C724 C 0.82531 -0.01466 0.28607 0.0
C725 C 0.82949 0.00454 0.25626 0.0
C726 C 0.77218 0.08184 0.32482 0.0
C727 C 0.84015 0.93776 0.29276 0.0
C728 C 0.85823 -0.00463 0.38786 0.0
C729 C 0.80718 0.94757 0.40002 0.0
C730 C 0.85822 0.01777 0.35908 0.0
C731 C 0.80614 -0.00842 0.34141 0.0
C732 C 0.75425 0.94396 0.35374 0.0
C733 C 0.7553 0.92285 0.38275 0.0
C734 C 0.91474 0.06854 0.3472 0.0
C735 C 0.6978 0.91416 0.33592 0.0
H736 H 0.78573 0.10583 0.26537 0.0
H737 H 0.84367 -0.01522 0.23906 0.0
H738 H 0.72428 0.05259 0.32893 0.0
H739 H 0.79539 0.08765 0.34641 0.0
H740 H 0.77878 0.12502 0.31734 0.0
H741 H 0.85036 0.92043 0.27214 0.0
H742 H 0.87889 0.95511 0.30786 0.0
H743 H 0.80263 0.90083 0.30457 0.0
H744 H 0.89869 0.0153 0.40077 0.0
H745 H 0.71541 0.88611 0.39169 0.0
H746 H 0.90587 0.10095 0.33594 0.0
H747 H 0.93445 0.05216 0.33024 0.0
H748 H 0.9477 0.09108 0.36522 0.0
H749 H 0.68458 0.9467 0.32936 0.0
H750 H 0.66091 0.87834 0.34867 0.0
H751 H 0.705 0.89551 0.31494 0.0
C752 C 0.80375 0.79684 0.60087 0.0
C753 C 0.83671 0.85182 0.58706 0.0
C754 C 0.81831 0.78631 0.62996 0.0
C755 C 0.86602 0.83212 0.6461 0.0
C756 C 0.89687 0.8885 0.6328 0.0
C757 C 0.88257 0.89729 0.60353 0.0
C758 C 0.78392 0.72553 0.64302 0.0
C759 C 0.94598 0.93967 0.64931 0.0
C760 C 0.88075 0.82042 0.73142 0.0
C761 C 0.92868 0.81021 0.73343 0.0
C762 C 0.85958 0.82696 0.70339 0.0
C763 C 0.88534 0.82128 0.67631 0.0
C764 C 0.93251 0.80893 0.67827 0.0
C765 C -0.04576 0.80472 0.70663 0.0
C766 C 0.81212 0.84374 0.7029 0.0
C767 C -0.0394 0.80079 0.65029 0.0
H768 H 0.76842 0.76132 0.5884 0.0
H769 H 0.90797 0.94017 0.5933 0.0
H770 H 0.81409 0.70778 0.64695 0.0
H771 H 0.7648 0.72725 0.66506 0.0
H772 H 0.74759 0.69486 0.62808 0.0
H773 H -0.03737 -0.01839 0.63694 0.0
H774 H 0.93031 0.94463 0.67177 0.0
H775 H -0.01665 0.93148 0.65283 0.0
H776 H 0.86115 0.82567 0.75191 0.0
H777 H -0.00898 0.7965 0.70784 0.0
H778 H 0.77822 0.81798 0.68585 0.0
H779 H 0.83273 0.89051 0.69649 0.0
H780 H 0.79027 0.83798 0.72509 0.0
H781 H 0.92607 0.76803 0.63525 0.0
H782 H -0.00717 0.78604 0.65542 0.0
H783 H -0.01613 0.84276 0.63783 0.0
C784 C 0.03519 0.85222 0.94304 0.0
C785 C 0.06944 0.85883 0.9173 0.0
C786 C 0.06177 0.87712 0.97102 0.0
C787 C 0.12435 0.90844 0.97383 0.0
C788 C 0.15896 0.91448 0.94796 0.0
C789 C 0.13134 0.89036 0.92022 0.0
C790 C 0.02272 0.87022 0.9976 0.0
C791 C 0.22554 0.9463 0.94959 0.0
C792 C 0.20137 0.01586 1.03959 0.0
C793 C 0.2124 -0.01855 1.05978 0.0
C794 C 0.17206 -0.00738 1.01197 0.0
C795 C 0.15382 0.93359 1.00377 0.0
C796 C 0.16538 0.89896 1.02398 0.0
C797 C 0.19382 0.92295 1.05159 0.0
C798 C 0.16008 0.03123 0.99161 0.0
C799 C 0.14798 0.83633 1.01635 0.0
H800 H -0.01253 0.82862 0.94122 0.0
H801 H 0.15862 0.89595 0.90069 0.0
H802 H 0.02774 0.84288 1.01493 0.0
H803 H 0.03627 0.91365 1.00791 0.0
H804 H -0.02462 0.84938 0.99133 0.0
H805 H 0.24632 0.94678 0.92767 0.0
H806 H 0.24229 -0.00773 0.95701 0.0
H807 H 0.23988 0.92504 0.96644 0.0
H808 H 0.21467 0.06079 1.04562 0.0
H809 H 0.20187 0.89562 1.06678 0.0
H810 H 0.11206 0.01017 0.98696 0.0
H811 H 0.18286 0.03662 0.96978 0.0
H812 H 0.17509 0.07537 1.00147 0.0
H813 H 0.09955 0.81011 1.01295 0.0
H814 H 0.16056 0.81522 1.03417 0.0
H815 H 0.16945 0.83494 0.99502 0.0
loop_
_geom_bond_atom_site_label_1
_geom_bond_atom_site_label_2
_geom_bond_distance
_geom_bond_site_symmetry_2
_ccdc_geom_bond_type
Pr0 C2 2.880 . S
Pr0 O20 2.562 . S
Pr0 O21 2.490 . S
Pr0 O22 2.695 1_554 S
Pr0 O23 2.512 . S
Pr0 O25 2.437 . S
Pr0 O28 2.436 . S
Pr0 O30 2.438 1_554 S
Pr1 C11 2.880 . S
Pr1 O22 2.436 . S
Pr1 O24 2.438 1_556 S
Pr1 O26 2.562 . S
Pr1 O27 2.490 . S
Pr1 O28 2.695 1_556 S
Pr1 O29 2.512 . S
Pr1 O31 2.437 . S
C2 Pr0 2.880 . S
C2 C3 1.491 . S
C2 O20 1.254 . S
C2 O21 1.225 . S
C3 C2 1.491 . S
C3 C4 1.392 . S
C3 C8 1.356 . S
C4 C3 1.392 . S
C4 C5 1.368 1_545 S
C4 H32 0.929 . S
C5 C4 1.368 1_565 S
C5 C6 1.386 1_565 S
C5 H33 0.929 . S
C6 C5 1.386 1_545 S
C6 C7 1.373 . S
C7 C6 1.373 . S
C7 C8 1.409 . S
C7 H34 0.931 . S
C8 C3 1.356 . S
C8 C7 1.409 . S
C8 H35 0.930 . S
C9 O22 1.270 1_554 S
C9 O23 1.248 . S
C10 O24 1.267 . S
C10 O25 1.278 . S
C11 Pr1 2.880 . S
C11 C12 1.491 . S
C11 O26 1.254 . S
C11 O27 1.225 . S
C12 C11 1.491 . S
C12 C13 1.392 . S
C12 C17 1.356 . S
C13 C12 1.392 . S
C13 C14 1.368 . S
C13 H36 0.929 . S
C14 C13 1.368 . S
C14 C15 1.386 . S
C14 H37 0.929 . S
C15 C14 1.386 . S
C15 C16 1.373 . S
C16 C15 1.373 . S
C16 C17 1.409 . S
C16 H38 0.931 . S
C17 C12 1.356 . S
C17 C16 1.409 . S
C17 H39 0.930 . S
C18 O28 1.270 . S
C18 O29 1.248 1_554 S
C19 O30 1.267 . S
C19 O31 1.278 . S
O20 Pr0 2.562 . S
O20 C2 1.254 . S
O21 Pr0 2.490 . S
O21 C2 1.225 . S
O22 Pr0 2.695 1_556 S
O22 Pr1 2.436 . S
O22 C9 1.270 1_556 S
O23 Pr0 2.512 . S
O23 C9 1.248 . S
O24 Pr1 2.438 1_554 S
O24 C10 1.267 . S
O25 Pr0 2.437 . S
O25 C10 1.278 . S
O26 Pr1 2.562 . S
O26 C11 1.254 . S
O27 Pr1 2.490 . S
O27 C11 1.225 . S
O28 Pr0 2.436 . S
O28 Pr1 2.695 1_554 S
O28 C18 1.270 . S
O29 Pr1 2.512 . S
O29 C18 1.248 1_556 S
O30 Pr0 2.438 1_556 S
O30 C19 1.267 . S
O31 Pr1 2.437 . S
O31 C19 1.278 . S
H32 C4 0.929 . S
H33 C5 0.929 . S
H34 C7 0.931 . S
H35 C8 0.930 . S
H36 C13 0.929 . S
H37 C14 0.929 . S
H38 C16 0.931 . S
H39 C17 0.930 . S
Pr40 C42 2.880 . S
Pr40 O60 2.562 . S
Pr40 O61 2.490 . S
Pr40 O62 2.695 . S
Pr40 O63 2.512 . S
Pr40 O65 2.437 . S
Pr40 O68 2.436 . S
Pr40 O70 2.438 . S
Pr41 C51 2.880 . S
Pr41 O62 2.436 . S
Pr41 O64 2.438 . S
Pr41 O66 2.562 . S
Pr41 O67 2.490 . S
Pr41 O68 2.695 . S
Pr41 O69 2.512 . S
Pr41 O71 2.437 . S
C42 Pr40 2.880 . S
C42 C43 1.491 . S
C42 O60 1.254 . S
C42 O61 1.225 . S
C43 C42 1.491 . S
C43 C44 1.392 . S
C43 C48 1.356 . S
C44 C43 1.392 . S
C44 C45 1.368 . S
C44 H72 0.929 . S
C45 C44 1.368 . S
C45 C46 1.386 . S
C45 H73 0.929 . S
C46 C45 1.386 . S
C46 C47 1.373 . S
C47 C46 1.373 . S
C47 C48 1.409 . S
C47 H74 0.931 . S
C48 C43 1.356 . S
C48 C47 1.409 . S
C48 H75 0.930 . S
C49 O62 1.270 . S
C49 O63 1.248 . S
C50 O64 1.267 . S
C50 O65 1.278 . S
C51 Pr41 2.880 . S
C51 C52 1.491 . S
C51 O66 1.254 . S
C51 O67 1.225 . S
C52 C51 1.491 . S
C52 C53 1.392 . S
C52 C57 1.356 . S
C53 C52 1.392 . S
C53 C54 1.368 . S
C53 H76 0.929 . S
C54 C53 1.368 . S
C54 C55 1.386 . S
C54 H77 0.929 . S
C55 C54 1.386 . S
C55 C56 1.373 . S
C56 C55 1.373 . S
C56 C57 1.409 . S
C56 H78 0.931 . S
C57 C52 1.356 . S
C57 C56 1.409 . S
C57 H79 0.930 . S
C58 O68 1.270 . S
C58 O69 1.248 . S
C59 O70 1.267 . S
C59 O71 1.278 . S
O60 Pr40 2.562 . S
O60 C42 1.254 . S
O61 Pr40 2.490 . S
O61 C42 1.225 . S
O62 Pr40 2.695 . S
O62 Pr41 2.436 . S
O62 C49 1.270 . S
O63 Pr40 2.512 . S
O63 C49 1.248 . S
O64 Pr41 2.438 . S
O64 C50 1.267 . S
O65 Pr40 2.437 . S
O65 C50 1.278 . S
O66 Pr41 2.562 . S
O66 C51 1.254 . S
O67 Pr41 2.490 . S
O67 C51 1.225 . S
O68 Pr40 2.436 . S
O68 Pr41 2.695 . S
O68 C58 1.270 . S
O69 Pr41 2.512 . S
O69 C58 1.248 . S
O70 Pr40 2.438 . S
O70 C59 1.267 . S
O71 Pr41 2.437 . S
O71 C59 1.278 . S
H72 C44 0.929 . S
H73 C45 0.929 . S
H74 C47 0.931 . S
H75 C48 0.930 . S
H76 C53 0.929 . S
H77 C54 0.929 . S
H78 C56 0.931 . S
H79 C57 0.930 . S
Pr80 C82 2.880 . S
Pr80 O100 2.562 . S
Pr80 O101 2.490 . S
Pr80 O102 2.700 . S
Pr80 O103 2.512 . S
Pr80 O105 2.437 1_455 S
Pr80 O108 2.438 . S
Pr80 O110 2.438 . S
Pr81 C91 2.880 . S
Pr81 O102 2.419 1_655 S
Pr81 O104 2.438 . S
Pr81 O106 2.562 . S
Pr81 O107 2.490 . S
Pr81 O108 2.694 1_655 S
Pr81 O109 2.512 . S
Pr81 O111 2.437 1_655 S
C82 Pr80 2.880 . S
C82 C83 1.491 . S
C82 O100 1.254 . S
C82 O101 1.225 . S
C83 C82 1.491 . S
C83 C84 1.392 . S
C83 C88 1.356 . S
C84 C83 1.392 . S
C84 C85 1.368 . S
C84 H112 0.929 . S
C85 C84 1.368 . S
C85 C86 1.386 . S
C85 H113 0.929 . S
C86 C85 1.386 . S
C86 C87 1.373 . S
C87 C86 1.373 . S
C87 C88 1.409 . S
C87 H114 0.931 . S
C88 C83 1.356 . S
C88 C87 1.409 . S
C88 H115 0.930 . S
C89 O102 1.284 . S
C89 O103 1.248 . S
C90 O104 1.267 . S
C90 O105 1.278 . S
C91 Pr81 2.880 . S
C91 C92 1.491 . S
C91 O106 1.254 . S
C91 O107 1.225 . S
C92 C91 1.491 . S
C92 C93 1.392 . S
C92 C97 1.356 . S
C93 C92 1.392 . S
C93 C94 1.368 . S
C93 H116 0.929 . S
C94 C93 1.368 . S
C94 C95 1.386 . S
C94 H117 0.929 . S
C95 C94 1.386 . S
C95 C96 1.373 . S
C96 C95 1.373 . S
C96 C97 1.409 . S
C96 H118 0.931 . S
C97 C92 1.356 . S
C97 C96 1.409 . S
C97 H119 0.930 . S
C98 O108 1.269 1_655 S
C98 O109 1.248 . S
C99 O110 1.267 . S
C99 O111 1.278 . S
O100 Pr80 2.562 . S
O100 C82 1.254 . S
O101 Pr80 2.490 . S
O101 C82 1.225 . S
O102 Pr80 2.700 . S
O102 Pr81 2.419 1_455 S
O102 C89 1.284 . S
O103 Pr80 2.512 . S
O103 C89 1.248 . S
O104 Pr81 2.438 . S
O104 C90 1.267 . S
O105 Pr80 2.437 1_655 S
O105 C90 1.278 . S
O106 Pr81 2.562 . S
O106 C91 1.254 . S
O107 Pr81 2.490 . S
O107 C91 1.225 . S
O108 Pr80 2.438 . S
O108 Pr81 2.694 1_455 S
O108 C98 1.269 1_455 S
O109 Pr81 2.512 . S
O109 C98 1.248 . S
O110 Pr80 2.438 . S
O110 C99 1.267 . S
O111 Pr81 2.437 1_455 S
O111 C99 1.278 . S
H112 C84 0.929 . S
H113 C85 0.929 . S
H114 C87 0.931 . S
H115 C88 0.930 . S
H116 C93 0.929 . S
H117 C94 0.929 . S
H118 C96 0.931 . S
H119 C97 0.930 . S
Pr120 C122 2.880 . S
Pr120 O140 2.562 . S
Pr120 O141 2.490 . S
Pr120 O142 2.695 1_554 S
Pr120 O143 2.512 . S
Pr120 O145 2.437 1_545 S
Pr120 O148 2.441 . S
Pr120 O150 2.438 1_554 S
Pr121 C131 2.880 . S
Pr121 O142 2.436 1_565 S
Pr121 O144 2.438 1_556 S
Pr121 O146 2.562 . S
Pr121 O147 2.490 . S
Pr121 O148 2.681 1_566 S
Pr121 O149 2.512 . S
Pr121 O151 2.437 1_565 S
C122 Pr120 2.880 . S
C122 C123 1.491 . S
C122 O140 1.254 . S
C122 O141 1.225 . S
C123 C122 1.491 . S
C123 C124 1.392 . S
C123 C128 1.356 . S
C124 C123 1.392 . S
C124 C125 1.368 . S
C124 H152 0.929 . S
C125 C124 1.368 . S
C125 C126 1.386 . S
C125 H153 0.929 . S
C126 C125 1.386 . S
C126 C127 1.373 . S
C127 C126 1.373 . S
C127 C128 1.409 . S
C127 H154 0.931 . S
C128 C123 1.356 . S
C128 C127 1.409 . S
C128 H155 0.930 . S
C129 O142 1.270 1_554 S
C129 O143 1.248 . S
C130 O144 1.267 . S
C130 O145 1.278 . S
C131 Pr121 2.880 . S
C131 C132 1.491 . S
C131 O146 1.254 . S
C131 O147 1.225 . S
C132 C131 1.491 . S
C132 C133 1.392 . S
C132 C137 1.356 . S
C133 C132 1.392 . S
C133 C134 1.368 . S
C133 H156 0.929 . S
C134 C133 1.368 . S
C134 C135 1.386 . S
C134 H157 0.929 . S
C135 C134 1.386 . S
C135 C136 1.373 . S
C136 C135 1.373 . S
C136 C137 1.409 . S
C136 H158 0.931 . S
C137 C132 1.356 . S
C137 C136 1.409 . S
C137 H159 0.930 . S
C138 O148 1.271 1_565 S
C138 O149 1.248 1_554 S
C139 O150 1.267 . S
C139 O151 1.278 . S
O140 Pr120 2.562 . S
O140 C122 1.254 . S
O141 Pr120 2.490 . S
O141 C122 1.225 . S
O142 Pr120 2.695 1_556 S
O142 Pr121 2.436 1_545 S
O142 C129 1.270 1_556 S
O143 Pr120 2.512 . S
O143 C129 1.248 . S
O144 Pr121 2.438 1_554 S
O144 C130 1.267 . S
O145 Pr120 2.437 1_565 S
O145 C130 1.278 . S
O146 Pr121 2.562 . S
O146 C131 1.254 . S
O147 Pr121 2.490 . S
O147 C131 1.225 . S
O148 Pr120 2.441 . S
O148 Pr121 2.681 1_544 S
O148 C138 1.271 1_545 S
O149 Pr121 2.512 . S
O149 C138 1.248 1_556 S
O150 Pr120 2.438 1_556 S
O150 C139 1.267 . S
O151 Pr121 2.437 1_545 S
O151 C139 1.278 . S
H152 C124 0.929 . S
H153 C125 0.929 . S
H154 C127 0.931 . S
H155 C128 0.930 . S
H156 C133 0.929 . S
H157 C134 0.929 . S
H158 C136 0.931 . S
H159 C137 0.930 . S
Pr160 C162 2.880 . S
Pr160 O180 2.562 . S
Pr160 O181 2.490 . S
Pr160 O182 2.695 . S
Pr160 O183 2.512 . S
Pr160 O185 2.437 . S
Pr160 O188 2.436 . S
Pr160 O190 2.438 . S
Pr161 C171 2.880 . S
Pr161 O182 2.436 . S
Pr161 O184 2.438 . S
Pr161 O186 2.562 1_655 S
Pr161 O187 2.490 . S
Pr161 O188 2.695 . S
Pr161 O189 2.512 . S
Pr161 O191 2.437 . S
C162 Pr160 2.880 . S
C162 C163 1.491 . S
C162 O180 1.254 . S
C162 O181 1.225 . S
C163 C162 1.491 . S
C163 C164 1.392 . S
C163 C168 1.356 . S
C164 C163 1.392 . S
C164 C165 1.368 . S
C164 H192 0.929 . S
C165 C164 1.368 . S
C165 C166 1.386 . S
C165 H193 0.929 . S
C166 C165 1.386 . S
C166 C167 1.373 . S
C167 C166 1.373 . S
C167 C168 1.409 . S
C167 H194 0.931 . S
C168 C163 1.356 . S
C168 C167 1.409 . S
C168 H195 0.930 . S
C169 O182 1.270 1_455 S
C169 O183 1.248 1_455 S
C170 O184 1.267 . S
C170 O185 1.278 . S
C171 Pr161 2.880 . S
C171 C172 1.491 1_655 S
C171 O186 1.254 1_655 S
C171 O187 1.225 . S
C172 C171 1.491 1_455 S
C172 C173 1.392 1_455 S
C172 C177 1.356 . S
C173 C172 1.392 1_655 S
C173 C174 1.368 . S
C173 H196 0.929 . S
C174 C173 1.368 . S
C174 C175 1.386 1_655 S
C174 H197 0.929 . S
C175 C174 1.386 1_455 S
C175 C176 1.373 . S
C176 C175 1.373 . S
C176 C177 1.409 . S
C176 H198 0.931 . S
C177 C172 1.356 . S
C177 C176 1.409 . S
C177 H199 0.930 . S
C178 O188 1.270 . S
C178 O189 1.248 . S
C179 O190 1.267 . S
C179 O191 1.278 . S
O180 Pr160 2.562 . S
O180 C162 1.254 . S
O181 Pr160 2.490 . S
O181 C162 1.225 . S
O182 Pr160 2.695 . S
O182 Pr161 2.436 . S
O182 C169 1.270 1_655 S
O183 Pr160 2.512 . S
O183 C169 1.248 1_655 S
O184 Pr161 2.438 . S
O184 C170 1.267 . S
O185 Pr160 2.437 . S
O185 C170 1.278 . S
O186 Pr161 2.562 1_455 S
O186 C171 1.254 1_455 S
O187 Pr161 2.490 . S
O187 C171 1.225 . S
O188 Pr160 2.436 . S
O188 Pr161 2.695 . S
O188 C178 1.270 . S
O189 Pr161 2.512 . S
O189 C178 1.248 . S
O190 Pr160 2.438 . S
O190 C179 1.267 . S
O191 Pr161 2.437 . S
O191 C179 1.278 . S
H192 C164 0.929 . S
H193 C165 0.929 . S
H194 C167 0.931 . S
H195 C168 0.930 . S
H196 C173 0.929 . S
H197 C174 0.929 . S
H198 C176 0.931 . S
H199 C177 0.930 . S
Pr200 C202 2.880 . S
Pr200 O220 2.562 . S
Pr200 O221 2.490 . S
Pr200 O222 2.695 . S
Pr200 O223 2.512 . S
Pr200 O225 2.437 . S
Pr200 O228 2.436 . S
Pr200 O230 2.438 . S
Pr201 C211 2.880 . S
Pr201 O222 2.436 . S
Pr201 O224 2.438 . S
Pr201 O226 2.562 1_565 S
Pr201 O227 2.490 . S
Pr201 O228 2.695 . S
Pr201 O229 2.512 . S
Pr201 O231 2.437 . S
C202 Pr200 2.880 . S
C202 C203 1.491 . S
C202 O220 1.254 . S
C202 O221 1.225 . S
C203 C202 1.491 . S
C203 C204 1.392 . S
C203 C208 1.356 . S
C204 C203 1.392 . S
C204 C205 1.368 1_455 S
C204 H232 0.929 . S
C205 C204 1.368 1_655 S
C205 C206 1.386 1_655 S
C205 H233 0.929 . S
C206 C205 1.386 1_455 S
C206 C207 1.373 . S
C207 C206 1.373 . S
C207 C208 1.409 . S
C207 H234 0.931 . S
C208 C203 1.356 . S
C208 C207 1.409 . S
C208 H235 0.930 . S
C209 O222 1.270 1_545 S
C209 O223 1.248 1_545 S
C210 O224 1.267 . S
C210 O225 1.278 . S
C211 Pr201 2.880 . S
C211 C212 1.491 1_565 S
C211 O226 1.254 1_565 S
C211 O227 1.225 . S
C212 C211 1.491 1_545 S
C212 C213 1.392 1_545 S
C212 C217 1.356 . S
C213 C212 1.392 1_565 S
C213 C214 1.367 1_565 S
C213 H236 0.929 . S
C214 C213 1.367 1_545 S
C214 C215 1.392 . S
C214 H237 0.923 1_545 S
C215 C214 1.392 . S
C215 C216 1.373 . S
C216 C215 1.373 . S
C216 C217 1.409 . S
C216 H238 0.931 . S
C217 C212 1.356 . S
C217 C216 1.409 . S
C217 H239 0.930 . S
C218 O228 1.270 . S
C218 O229 1.248 . S
C219 O230 1.267 . S
C219 O231 1.278 . S
O220 Pr200 2.562 . S
O220 C202 1.254 . S
O221 Pr200 2.490 . S
O221 C202 1.225 . S
O222 Pr200 2.695 . S
O222 Pr201 2.436 . S
O222 C209 1.270 1_565 S
O223 Pr200 2.512 . S
O223 C209 1.248 1_565 S
O224 Pr201 2.438 . S
O224 C210 1.267 . S
O225 Pr200 2.437 . S
O225 C210 1.278 . S
O226 Pr201 2.562 1_545 S
O226 C211 1.254 1_545 S
O227 Pr201 2.490 . S
O227 C211 1.225 . S
O228 Pr200 2.436 . S
O228 Pr201 2.695 . S
O228 C218 1.270 . S
O229 Pr201 2.512 . S
O229 C218 1.248 . S
O230 Pr200 2.438 . S
O230 C219 1.267 . S
O231 Pr201 2.437 . S
O231 C219 1.278 . S
H232 C204 0.929 . S
H233 C205 0.929 . S
H234 C207 0.931 . S
H235 C208 0.930 . S
H236 C213 0.929 . S
H237 C214 0.923 1_565 S
H238 C216 0.931 . S
H239 C217 0.930 . S
C240 C241 1.391 . S
C240 C242 1.394 1_655 S
C240 H256 0.931 . S
C241 C240 1.391 . S
C241 C245 1.376 1_544 S
C242 C240 1.394 1_455 S
C242 C243 1.369 . S
C242 C246 1.531 . S
C243 C242 1.369 . S
C243 C244 1.410 1_554 S
C243 C251 1.503 . S
C244 C243 1.410 1_556 S
C244 C245 1.392 1_445 S
C244 C247 1.511 1_545 S
C245 C241 1.376 1_566 S
C245 C244 1.392 1_665 S
C245 H257 0.929 . S
C246 C242 1.531 . S
C246 H258 0.960 . S
C246 H259 0.962 . S
C246 H260 0.960 . S
C247 C244 1.511 1_565 S
C247 H261 0.961 . S
C247 H262 0.961 1_565 S
C247 H263 0.961 . S
C248 C249 1.370 1_556 S
C248 C250 1.363 . S
C248 H264 0.931 . S
C249 C248 1.370 1_554 S
C249 C253 1.408 . S
C250 C248 1.363 . S
C250 C251 1.370 1_556 S
C250 C254 1.524 . S
C251 C243 1.503 . S
C251 C250 1.370 1_554 S
C251 C252 1.403 . S
C252 C251 1.403 . S
C252 C253 1.404 . S
C252 C255 1.539 . S
C253 C249 1.408 . S
C253 C252 1.404 . S
C253 H265 0.930 . S
C254 C250 1.524 . S
C254 H266 0.956 . S
C254 H267 0.961 . S
C254 H268 0.961 . S
C255 C252 1.539 . S
C255 H269 0.958 . S
C255 H270 0.961 . S
C255 H271 0.960 . S
H256 C240 0.931 . S
H257 C245 0.929 . S
H258 C246 0.960 . S
H259 C246 0.962 . S
H260 C246 0.960 . S
H261 C247 0.961 . S
H262 C247 0.961 1_545 S
H263 C247 0.961 . S
H264 C248 0.931 . S
H265 C253 0.930 . S
H266 C254 0.956 . S
H267 C254 0.961 . S
H268 C254 0.961 . S
H269 C255 0.958 . S
H270 C255 0.961 . S
H271 C255 0.960 . S
C272 C273 1.391 . S
C272 C274 1.394 1_565 S
C272 H288 0.931 . S
C273 C272 1.391 . S
C273 C277 1.376 1_455 S
C274 C272 1.394 1_545 S
C274 C275 1.369 . S
C274 C278 1.531 . S
C275 C274 1.369 . S
C275 C276 1.410 . S
C275 C283 1.503 . S
C276 C275 1.410 . S
C276 C277 1.392 1_445 S
C276 C279 1.511 1_455 S
C277 C273 1.376 1_655 S
C277 C276 1.392 1_665 S
C277 H289 0.929 . S
C278 C274 1.531 . S
C278 H290 0.960 . S
C278 H291 0.962 . S
C278 H292 0.960 . S
C279 C276 1.511 1_655 S
C279 H293 0.961 . S
C279 H294 0.961 1_655 S
C279 H295 0.961 . S
C280 C281 1.370 . S
C280 C282 1.363 . S
C280 H296 0.931 . S
C281 C280 1.370 . S
C281 C285 1.408 . S
C282 C280 1.363 . S
C282 C283 1.370 . S
C282 C286 1.524 . S
C283 C275 1.503 . S
C283 C282 1.370 . S
C283 C284 1.403 . S
C284 C283 1.403 . S
C284 C285 1.404 . S
C284 C287 1.539 . S
C285 C281 1.408 . S
C285 C284 1.404 . S
C285 H297 0.930 . S
C286 C282 1.524 . S
C286 H298 0.956 . S
C286 H299 0.961 . S
C286 H300 0.961 . S
C287 C284 1.539 . S
C287 H301 0.958 . S
C287 H302 0.961 . S
C287 H303 0.960 . S
H288 C272 0.931 . S
H289 C277 0.929 . S
H290 C278 0.960 . S
H291 C278 0.962 . S
H292 C278 0.960 . S
H293 C279 0.961 . S
H294 C279 0.961 1_455 S
H295 C279 0.961 . S
H296 C280 0.931 . S
H297 C285 0.930 . S
H298 C286 0.956 . S
H299 C286 0.961 . S
H300 C286 0.961 . S
H301 C287 0.958 . S
H302 C287 0.961 . S
H303 C287 0.960 . S
C304 C305 1.391 1_565 S
C304 C306 1.394 1_565 S
C304 H320 0.931 . S
C305 C304 1.391 1_545 S
C305 C309 1.376 . S
C306 C304 1.394 1_545 S
C306 C307 1.369 . S
C306 C310 1.531 1_545 S
C307 C306 1.369 . S
C307 C308 1.410 . S
C307 C315 1.503 . S
C308 C307 1.410 . S
C308 C309 1.392 . S
C308 C311 1.511 . S
C309 C305 1.376 . S
C309 C308 1.392 . S
C309 H321 0.929 . S
C310 C306 1.531 1_565 S
C310 H322 0.960 1_565 S
C310 H323 0.962 . S
C310 H324 0.960 . S
C311 C308 1.511 . S
C311 H325 0.961 . S
C311 H326 0.961 . S
C311 H327 0.961 . S
C312 C313 1.370 . S
C312 C314 1.363 . S
C312 H328 0.931 . S
C313 C312 1.370 . S
C313 C317 1.408 . S
C314 C312 1.363 . S
C314 C315 1.370 . S
C314 C318 1.524 . S
C315 C307 1.503 . S
C315 C314 1.370 . S
C315 C316 1.403 . S
C316 C315 1.403 . S
C316 C317 1.404 . S
C316 C319 1.539 . S
C317 C313 1.408 . S
C317 C316 1.404 . S
C317 H329 0.930 . S
C318 C314 1.524 . S
C318 H330 0.956 . S
C318 H331 0.961 . S
C318 H332 0.961 . S
C319 C316 1.539 . S
C319 H333 0.958 . S
C319 H334 0.961 . S
C319 H335 0.960 . S
H320 C304 0.931 . S
H321 C309 0.929 . S
H322 C310 0.960 1_545 S
H323 C310 0.962 . S
H324 C310 0.960 . S
H325 C311 0.961 . S
H326 C311 0.961 . S
H327 C311 0.961 . S
H328 C312 0.931 . S
H329 C317 0.930 . S
H330 C318 0.956 . S
H331 C318 0.961 . S
H332 C318 0.961 . S
H333 C319 0.958 . S
H334 C319 0.961 . S
H335 C319 0.960 . S
C336 C337 1.391 . S
C336 C338 1.394 . S
C336 H352 0.931 . S
C337 C336 1.391 . S
C337 C341 1.376 . S
C338 C336 1.394 . S
C338 C339 1.369 . S
C338 C342 1.531 . S
C339 C338 1.369 . S
C339 C340 1.410 . S
C339 C347 1.503 . S
C340 C339 1.410 . S
C340 C341 1.392 . S
C340 C343 1.511 . S
C341 C337 1.376 . S
C341 C340 1.392 . S
C341 H353 0.929 . S
C342 C338 1.531 . S
C342 H354 0.960 . S
C342 H355 0.962 . S
C342 H356 0.960 . S
C343 C340 1.511 . S
C343 H357 0.961 . S
C343 H358 0.961 . S
C343 H359 0.961 . S
C344 C345 1.370 . S
C344 C346 1.363 . S
C344 H360 0.931 . S
C345 C344 1.370 . S
C345 C349 1.408 . S
C346 C344 1.363 . S
C346 C347 1.370 . S
C346 C350 1.524 . S
C347 C339 1.503 . S
C347 C346 1.370 . S
C347 C348 1.403 . S
C348 C347 1.403 . S
C348 C349 1.404 . S
C348 C351 1.539 . S
C349 C345 1.408 . S
C349 C348 1.404 . S
C349 H361 0.930 . S
C350 C346 1.524 . S
C350 H362 0.956 . S
C350 H363 0.961 . S
C350 H364 0.961 . S
C351 C348 1.539 . S
C351 H365 0.958 . S
C351 H366 0.961 . S
C351 H367 0.960 . S
H352 C336 0.931 . S
H353 C341 0.929 . S
H354 C342 0.960 . S
H355 C342 0.962 . S
H356 C342 0.960 . S
H357 C343 0.961 . S
H358 C343 0.961 . S
H359 C343 0.961 . S
H360 C344 0.931 . S
H361 C349 0.930 . S
H362 C350 0.956 . S
H363 C350 0.961 . S
H364 C350 0.961 . S
H365 C351 0.958 . S
H366 C351 0.961 . S
H367 C351 0.960 . S
C368 C369 1.391 . S
C368 C370 1.394 . S
C368 H384 0.931 . S
C369 C368 1.391 . S
C369 C373 1.376 . S
C370 C368 1.394 . S
C370 C371 1.369 . S
C370 C374 1.531 . S
C371 C370 1.369 . S
C371 C372 1.410 . S
C371 C379 1.503 1_455 S
C372 C371 1.410 . S
C372 C373 1.392 . S
C372 C375 1.511 . S
C373 C369 1.376 . S
C373 C372 1.392 . S
C373 H385 0.929 . S
C374 C370 1.531 . S
C374 H386 0.960 . S
C374 H387 0.962 1_455 S
C374 H388 0.960 . S
C375 C372 1.511 . S
C375 H389 0.961 . S
C375 H390 0.961 . S
C375 H391 0.961 . S
C376 C377 1.370 . S
C376 C378 1.363 . S
C376 H392 0.931 . S
C377 C376 1.370 . S
C377 C381 1.408 . S
C378 C376 1.363 . S
C378 C379 1.370 . S
C378 C382 1.524 . S
C379 C371 1.503 1_655 S
C379 C378 1.370 . S
C379 C380 1.403 . S
C380 C379 1.403 . S
C380 C381 1.404 . S
C380 C383 1.539 1_655 S
C381 C377 1.408 . S
C381 C380 1.404 . S
C381 H393 0.930 . S
C382 C378 1.524 . S
C382 H394 0.956 . S
C382 H395 0.961 . S
C382 H396 0.961 . S
C383 C380 1.539 1_455 S
C383 H397 0.958 . S
C383 H398 0.961 . S
C383 H399 0.960 . S
H384 C368 0.931 . S
H385 C373 0.929 . S
H386 C374 0.960 . S
H387 C374 0.962 1_655 S
H388 C374 0.960 . S
H389 C375 0.961 . S
H390 C375 0.961 . S
H391 C375 0.961 . S
H392 C376 0.931 . S
H393 C381 0.930 . S
H394 C382 0.956 . S
H395 C382 0.961 . S
H396 C382 0.961 . S
H397 C383 0.958 . S
H398 C383 0.961 . S
H399 C383 0.960 . S
C400 C401 1.391 . S
C400 C402 1.394 . S
C400 H416 0.931 . S
C401 C400 1.391 . S
C401 C405 1.376 . S
C402 C400 1.394 . S
C402 C403 1.369 . S
C402 C406 1.531 . S
C403 C402 1.369 . S
C403 C404 1.410 . S
C403 C411 1.503 1_545 S
C404 C403 1.410 . S
C404 C405 1.392 . S
C404 C407 1.511 . S
C405 C401 1.376 . S
C405 C404 1.392 . S
C405 H417 0.929 . S
C406 C402 1.531 . S
C406 H418 0.960 1_545 S
C406 H419 0.962 1_545 S
C406 H420 0.960 . S
C407 C404 1.511 . S
C407 H421 0.961 . S
C407 H422 0.961 . S
C407 H423 0.961 . S
C408 C409 1.370 . S
C408 C410 1.363 . S
C408 H424 0.931 . S
C409 C408 1.370 . S
C409 C413 1.408 . S
C410 C408 1.363 . S
C410 C411 1.370 . S
C410 C414 1.524 . S
C411 C403 1.503 1_565 S
C411 C410 1.370 . S
C411 C412 1.403 . S
C412 C411 1.403 . S
C412 C413 1.404 . S
C412 C415 1.539 1_565 S
C413 C409 1.408 . S
C413 C412 1.404 . S
C413 H425 0.930 . S
C414 C410 1.524 . S
C414 H426 0.956 . S
C414 H427 0.961 . S
C414 H428 0.961 . S
C415 C412 1.539 1_545 S
C415 H429 0.958 . S
C415 H430 0.961 . S
C415 H431 0.960 . S
H416 C400 0.931 . S
H417 C405 0.929 . S
H418 C406 0.960 1_565 S
H419 C406 0.962 1_565 S
H420 C406 0.960 . S
H421 C407 0.961 . S
H422 C407 0.961 . S
H423 C407 0.961 . S
H424 C408 0.931 . S
H425 C413 0.930 . S
H426 C414 0.956 . S
H427 C414 0.961 . S
H428 C414 0.961 . S
H429 C415 0.958 . S
H430 C415 0.961 . S
H431 C415 0.960 . S
C432 C433 1.391 . S
C432 C434 1.394 . S
C432 H448 0.931 . S
C433 C432 1.391 . S
C433 C437 1.376 . S
C434 C432 1.394 . S
C434 C435 1.369 . S
C434 C438 1.531 . S
C435 C434 1.369 . S
C435 C436 1.410 . S
C435 C443 1.503 . S
C436 C435 1.410 . S
C436 C437 1.392 . S
C436 C439 1.511 . S
C437 C433 1.376 . S
C437 C436 1.392 . S
C437 H449 0.929 . S
C438 C434 1.531 . S
C438 H450 0.960 . S
C438 H451 0.962 . S
C438 H452 0.960 . S
C439 C436 1.511 . S
C439 H453 0.961 . S
C439 H454 0.961 . S
C439 H455 0.961 . S
C440 C441 1.370 . S
C440 C442 1.363 . S
C440 H456 0.931 . S
C441 C440 1.370 . S
C441 C445 1.408 1_655 S
C442 C440 1.363 . S
C442 C443 1.370 . S
C442 C446 1.524 . S
C443 C435 1.503 . S
C443 C442 1.370 . S
C443 C444 1.403 . S
C444 C443 1.403 . S
C444 C445 1.404 1_655 S
C444 C447 1.539 . S
C445 C441 1.408 1_455 S
C445 C444 1.404 1_455 S
C445 H457 0.930 . S
C446 C442 1.524 . S
C446 H458 0.956 . S
C446 H459 0.961 . S
C446 H460 0.961 . S
C447 C444 1.539 . S
C447 H461 0.958 . S
C447 H462 0.961 1_655 S
C447 H463 0.960 . S
H448 C432 0.931 . S
H449 C437 0.929 . S
H450 C438 0.960 . S
H451 C438 0.962 . S
H452 C438 0.960 . S
H453 C439 0.961 . S
H454 C439 0.961 . S
H455 C439 0.961 . S
H456 C440 0.931 . S
H457 C445 0.930 . S
H458 C446 0.956 . S
H459 C446 0.961 . S
H460 C446 0.961 . S
H461 C447 0.958 . S
H462 C447 0.961 1_455 S
H463 C447 0.960 . S
C464 C465 1.391 . S
C464 C466 1.394 . S
C464 H480 0.931 . S
C465 C464 1.391 . S
C465 C469 1.376 . S
C466 C464 1.394 . S
C466 C467 1.369 . S
C466 C470 1.531 . S
C467 C466 1.369 . S
C467 C468 1.410 . S
C467 C475 1.503 . S
C468 C467 1.410 . S
C468 C469 1.392 . S
C468 C471 1.511 . S
C469 C465 1.376 . S
C469 C468 1.392 . S
C469 H481 0.929 . S
C470 C466 1.531 . S
C470 H482 0.960 . S
C470 H483 0.962 . S
C470 H484 0.960 . S
C471 C468 1.511 . S
C471 H485 0.961 . S
C471 H486 0.961 . S
C471 H487 0.961 . S
C472 C473 1.370 . S
C472 C474 1.363 . S
C472 H488 0.931 1_565 S
C473 C472 1.370 . S
C473 C477 1.408 . S
C474 C472 1.363 . S
C474 C475 1.370 . S
C474 C478 1.524 . S
C475 C467 1.503 . S
C475 C474 1.370 . S
C475 C476 1.403 . S
C476 C475 1.403 . S
C476 C477 1.404 . S
C476 C479 1.539 . S
C477 C473 1.408 . S
C477 C476 1.404 . S
C477 H489 0.930 . S
C478 C474 1.524 . S
C478 H490 0.956 . S
C478 H491 0.961 . S
C478 H492 0.961 . S
C479 C476 1.539 . S
C479 H493 0.958 . S
C479 H494 0.961 . S
C479 H495 0.960 . S
H480 C464 0.931 . S
H481 C469 0.929 . S
H482 C470 0.960 . S
H483 C470 0.962 . S
H484 C470 0.960 . S
H485 C471 0.961 . S
H486 C471 0.961 . S
H487 C471 0.961 . S
H488 C472 0.931 1_545 S
H489 C477 0.930 . S
H490 C478 0.956 . S
H491 C478 0.961 . S
H492 C478 0.961 . S
H493 C479 0.958 . S
H494 C479 0.961 . S
H495 C479 0.960 . S
C496 C497 1.391 . S
C496 C498 1.394 . S
C496 H512 0.931 . S
C497 C496 1.391 . S
C497 C501 1.376 . S
C498 C496 1.394 . S
C498 C499 1.369 . S
C498 C502 1.531 . S
C499 C498 1.369 . S
C499 C500 1.410 . S
C499 C507 1.503 . S
C500 C499 1.410 . S
C500 C501 1.392 . S
C500 C503 1.511 . S
C501 C497 1.376 . S
C501 C500 1.392 . S
C501 H513 0.929 . S
C502 C498 1.531 . S
C502 H514 0.960 . S
C502 H515 0.962 . S
C502 H516 0.960 . S
C503 C500 1.511 . S
C503 H517 0.961 . S
C503 H518 0.961 . S
C503 H519 0.961 . S
C504 C505 1.370 . S
C504 C506 1.363 . S
C504 H520 0.931 . S
C505 C504 1.370 . S
C505 C509 1.408 . S
C506 C504 1.363 . S
C506 C507 1.370 . S
C506 C510 1.524 . S
C507 C499 1.503 . S
C507 C506 1.370 . S
C507 C508 1.403 . S
C508 C507 1.403 . S
C508 C509 1.404 . S
C508 C511 1.539 . S
C509 C505 1.408 . S
C509 C508 1.404 . S
C509 H521 0.930 . S
C510 C506 1.524 . S
C510 H522 0.956 . S
C510 H523 0.961 . S
C510 H524 0.961 . S
C511 C508 1.539 . S
C511 H525 0.958 . S
C511 H526 0.961 . S
C511 H527 0.960 . S
H512 C496 0.931 . S
H513 C501 0.929 . S
H514 C502 0.960 . S
H515 C502 0.962 . S
H516 C502 0.960 . S
H517 C503 0.961 . S
H518 C503 0.961 . S
H519 C503 0.961 . S
H520 C504 0.931 . S
H521 C509 0.930 . S
H522 C510 0.956 . S
H523 C510 0.961 . S
H524 C510 0.961 . S
H525 C511 0.958 . S
H526 C511 0.961 . S
H527 C511 0.960 . S
C528 C529 1.391 1_556 S
C528 C530 1.394 . S
C528 H544 0.931 . S
C529 C528 1.391 1_554 S
C529 C533 1.376 . S
C530 C528 1.394 . S
C530 C531 1.369 1_556 S
C530 C534 1.531 . S
C531 C530 1.369 1_554 S
C531 C532 1.410 . S
C531 C539 1.503 . S
C532 C531 1.410 . S
C532 C533 1.392 . S
C532 C535 1.511 . S
C533 C529 1.376 . S
C533 C532 1.392 . S
C533 H545 0.929 . S
C534 C530 1.531 . S
C534 H546 0.960 . S
C534 H547 0.962 . S
C534 H548 0.960 . S
C535 C532 1.511 . S
C535 H549 0.961 . S
C535 H550 0.961 . S
C535 H551 0.961 . S
C536 C537 1.370 1_565 S
C536 C538 1.363 1_565 S
C536 H552 0.931 . S
C537 C536 1.370 1_545 S
C537 C541 1.408 1_554 S
C538 C536 1.363 1_545 S
C538 C539 1.370 . S
C538 C542 1.524 . S
C539 C531 1.503 . S
C539 C538 1.370 . S
C539 C540 1.403 1_554 S
C540 C539 1.403 1_556 S
C540 C541 1.404 . S
C540 C543 1.539 . S
C541 C537 1.408 1_556 S
C541 C540 1.404 . S
C541 H553 0.930 . S
C542 C538 1.524 . S
C542 H554 0.956 . S
C542 H555 0.961 . S
C542 H556 0.961 1_545 S
C543 C540 1.539 . S
C543 H557 0.958 . S
C543 H558 0.961 . S
C543 H559 0.960 . S
H544 C528 0.931 . S
H545 C533 0.929 . S
H546 C534 0.960 . S
H547 C534 0.962 . S
H548 C534 0.960 . S
H549 C535 0.961 . S
H550 C535 0.961 . S
H551 C535 0.961 . S
H552 C536 0.931 . S
H553 C541 0.930 . S
H554 C542 0.956 . S
H555 C542 0.961 . S
H556 C542 0.961 1_565 S
H557 C543 0.958 . S
H558 C543 0.961 . S
H559 C543 0.960 . S
C560 C561 1.391 . S
C560 C562 1.394 . S
C560 H576 0.931 . S
C561 C560 1.391 . S
C561 C565 1.376 . S
C562 C560 1.394 . S
C562 C563 1.369 . S
C562 C566 1.531 . S
C563 C562 1.369 . S
C563 C564 1.410 . S
C563 C571 1.503 . S
C564 C563 1.410 . S
C564 C565 1.392 . S
C564 C567 1.511 . S
C565 C561 1.376 . S
C565 C564 1.392 . S
C565 H577 0.929 . S
C566 C562 1.531 . S
C566 H578 0.960 . S
C566 H579 0.962 . S
C566 H580 0.960 . S
C567 C564 1.511 . S
C567 H581 0.961 . S
C567 H582 0.961 . S
C567 H583 0.961 . S
C568 C569 1.370 . S
C568 C570 1.363 . S
C568 H584 0.931 . S
C569 C568 1.370 . S
C569 C573 1.408 . S
C570 C568 1.363 . S
C570 C571 1.370 . S
C570 C574 1.524 . S
C571 C563 1.503 . S
C571 C570 1.370 . S
C571 C572 1.403 . S
C572 C571 1.403 . S
C572 C573 1.404 . S
C572 C575 1.539 . S
C573 C569 1.408 . S
C573 C572 1.404 . S
C573 H585 0.930 . S
C574 C570 1.524 . S
C574 H586 0.956 . S
C574 H587 0.961 . S
C574 H588 0.961 . S
C575 C572 1.539 . S
C575 H589 0.958 . S
C575 H590 0.961 . S
C575 H591 0.960 . S
H576 C560 0.931 . S
H577 C565 0.929 . S
H578 C566 0.960 . S
H579 C566 0.962 . S
H580 C566 0.960 . S
H581 C567 0.961 . S
H582 C567 0.961 . S
H583 C567 0.961 . S
H584 C568 0.931 . S
H585 C573 0.930 . S
H586 C574 0.956 . S
H587 C574 0.961 . S
H588 C574 0.961 . S
H589 C575 0.958 . S
H590 C575 0.961 . S
H591 C575 0.960 . S
C592 C593 1.391 1_655 S
C592 C594 1.394 1_655 S
C592 H608 0.931 . S
C593 C592 1.391 1_455 S
C593 C597 1.376 . S
C594 C592 1.394 1_455 S
C594 C595 1.369 . S
C594 C598 1.531 . S
C595 C594 1.369 . S
C595 C596 1.410 . S
C595 C603 1.503 . S
C596 C595 1.410 . S
C596 C597 1.392 . S
C596 C599 1.511 . S
C597 C593 1.376 . S
C597 C596 1.392 . S
C597 H609 0.929 . S
C598 C594 1.531 . S
C598 H610 0.960 . S
C598 H611 0.962 1_455 S
C598 H612 0.960 1_455 S
C599 C596 1.511 . S
C599 H613 0.961 . S
C599 H614 0.961 . S
C599 H615 0.961 . S
C600 C601 1.370 . S
C600 C602 1.363 . S
C600 H616 0.931 . S
C601 C600 1.370 . S
C601 C605 1.408 . S
C602 C600 1.363 . S
C602 C603 1.370 . S
C602 C606 1.524 . S
C603 C595 1.503 . S
C603 C602 1.370 . S
C603 C604 1.403 . S
C604 C603 1.403 . S
C604 C605 1.404 . S
C604 C607 1.539 . S
C605 C601 1.408 . S
C605 C604 1.404 . S
C605 H617 0.930 . S
C606 C602 1.524 . S
C606 H618 0.956 . S
C606 H619 0.961 . S
C606 H620 0.961 . S
C607 C604 1.539 . S
C607 H621 0.958 . S
C607 H622 0.961 . S
C607 H623 0.960 . S
H608 C592 0.931 . S
H609 C597 0.929 . S
H610 C598 0.960 . S
H611 C598 0.962 1_655 S
H612 C598 0.960 1_655 S
H613 C599 0.961 . S
H614 C599 0.961 . S
H615 C599 0.961 . S
H616 C600 0.931 . S
H617 C605 0.930 . S
H618 C606 0.956 . S
H619 C606 0.961 . S
H620 C606 0.961 . S
H621 C607 0.958 . S
H622 C607 0.961 . S
H623 C607 0.960 . S
C624 C625 1.391 . S
C624 C626 1.394 . S
C624 H640 0.931 . S
C625 C624 1.391 . S
C625 C629 1.376 . S
C626 C624 1.394 . S
C626 C627 1.369 . S
C626 C630 1.531 . S
C627 C626 1.369 . S
C627 C628 1.410 . S
C627 C635 1.503 . S
C628 C627 1.410 . S
C628 C629 1.392 . S
C628 C631 1.511 . S
C629 C625 1.376 . S
C629 C628 1.392 . S
C629 H641 0.929 . S
C630 C626 1.531 . S
C630 H642 0.960 . S
C630 H643 0.962 . S
C630 H644 0.960 . S
C631 C628 1.511 . S
C631 H645 0.961 . S
C631 H646 0.961 . S
C631 H647 0.961 . S
C632 C633 1.370 . S
C632 C634 1.363 . S
C632 H648 0.931 . S
C633 C632 1.370 . S
C633 C637 1.408 . S
C634 C632 1.363 . S
C634 C635 1.370 . S
C634 C638 1.524 . S
C635 C627 1.503 . S
C635 C634 1.370 . S
C635 C636 1.403 . S
C636 C635 1.403 . S
C636 C637 1.404 . S
C636 C639 1.539 . S
C637 C633 1.408 . S
C637 C636 1.404 . S
C637 H649 0.930 . S
C638 C634 1.524 . S
C638 H650 0.956 . S
C638 H651 0.961 . S
C638 H652 0.961 . S
C639 C636 1.539 . S
C639 H653 0.958 . S
C639 H654 0.961 . S
C639 H655 0.960 . S
H640 C624 0.931 . S
H641 C629 0.929 . S
H642 C630 0.960 . S
H643 C630 0.962 . S
H644 C630 0.960 . S
H645 C631 0.961 . S
H646 C631 0.961 . S
H647 C631 0.961 . S
H648 C632 0.931 . S
H649 C637 0.930 . S
H650 C638 0.956 . S
H651 C638 0.961 . S
H652 C638 0.961 . S
H653 C639 0.958 . S
H654 C639 0.961 . S
H655 C639 0.960 . S
C656 C657 1.391 . S
C656 C658 1.394 . S
C656 H672 0.931 . S
C657 C656 1.391 . S
C657 C661 1.376 . S
C658 C656 1.394 . S
C658 C659 1.369 . S
C658 C662 1.531 . S
C659 C658 1.369 . S
C659 C660 1.410 . S
C659 C667 1.503 . S
C660 C659 1.410 . S
C660 C661 1.392 . S
C660 C663 1.511 . S
C661 C657 1.376 . S
C661 C660 1.392 . S
C661 H673 0.929 . S
C662 C658 1.531 . S
C662 H674 0.960 . S
C662 H675 0.962 . S
C662 H676 0.960 . S
C663 C660 1.511 . S
C663 H677 0.961 . S
C663 H678 0.961 . S
C663 H679 0.961 . S
C664 C665 1.370 . S
C664 C666 1.363 . S
C664 H680 0.931 . S
C665 C664 1.370 . S
C665 C669 1.408 . S
C666 C664 1.363 . S
C666 C667 1.370 . S
C666 C670 1.524 . S
C667 C659 1.503 . S
C667 C666 1.370 . S
C667 C668 1.403 . S
C668 C667 1.403 . S
C668 C669 1.404 . S
C668 C671 1.539 . S
C669 C665 1.408 . S
C669 C668 1.404 . S
C669 H681 0.930 . S
C670 C666 1.524 . S
C670 H682 0.956 . S
C670 H683 0.961 . S
C670 H684 0.961 . S
C671 C668 1.539 . S
C671 H685 0.958 . S
C671 H686 0.961 . S
C671 H687 0.960 . S
H672 C656 0.931 . S
H673 C661 0.929 . S
H674 C662 0.960 . S
H675 C662 0.962 . S
H676 C662 0.960 . S
H677 C663 0.961 . S
H678 C663 0.961 . S
H679 C663 0.961 . S
H680 C664 0.931 . S
H681 C669 0.930 . S
H682 C670 0.956 . S
H683 C670 0.961 . S
H684 C670 0.961 . S
H685 C671 0.958 . S
H686 C671 0.961 . S
H687 C671 0.960 . S
C688 C689 1.391 . S
C688 C690 1.394 . S
C688 H704 0.944 . S
C689 C688 1.391 . S
C689 C693 1.376 . S
C690 C688 1.394 . S
C690 C691 1.369 . S
C690 C694 1.531 1_655 S
C691 C690 1.369 . S
C691 C692 1.410 . S
C691 C699 1.503 . S
C692 C691 1.410 . S
C692 C693 1.392 . S
C692 C695 1.511 . S
C693 C689 1.376 . S
C693 C692 1.392 . S
C693 H705 0.929 . S
C694 C690 1.531 1_455 S
C694 H706 0.960 1_455 S
C694 H707 0.962 . S
C694 H708 0.960 . S
C695 C692 1.511 . S
C695 H709 0.961 . S
C695 H710 0.961 . S
C695 H711 0.961 . S
C696 C697 1.370 . S
C696 C698 1.363 . S
C696 H712 0.931 . S
C697 C696 1.370 . S
C697 C701 1.408 . S
C698 C696 1.363 . S
C698 C699 1.370 . S
C698 C702 1.524 . S
C699 C691 1.503 . S
C699 C698 1.370 . S
C699 C700 1.403 . S
C700 C699 1.403 . S
C700 C701 1.404 . S
C700 C703 1.539 . S
C701 C697 1.408 . S
C701 C700 1.404 . S
C701 H713 0.930 . S
C702 C698 1.524 . S
C702 H714 0.956 . S
C702 H715 0.961 . S
C702 H716 0.961 . S
C703 C700 1.539 . S
C703 H717 0.958 . S
C703 H718 0.961 . S
C703 H719 0.960 . S
H704 C688 0.944 . S
H705 C693 0.929 . S
H706 C694 0.960 1_655 S
H707 C694 0.962 . S
H708 C694 0.960 . S
H709 C695 0.961 . S
H710 C695 0.961 . S
H711 C695 0.961 . S
H712 C696 0.931 . S
H713 C701 0.930 . S
H714 C702 0.956 . S
H715 C702 0.961 . S
H716 C702 0.961 . S
H717 C703 0.958 . S
H718 C703 0.961 . S
H719 C703 0.960 . S
C720 C721 1.391 . S
C720 C722 1.394 . S
C720 H736 0.931 . S
C721 C720 1.391 . S
C721 C725 1.376 . S
C722 C720 1.394 . S
C722 C723 1.369 . S
C722 C726 1.531 . S
C723 C722 1.369 . S
C723 C724 1.410 . S
C723 C731 1.503 . S
C724 C723 1.410 . S
C724 C725 1.392 . S
C724 C727 1.511 . S
C725 C721 1.376 . S
C725 C724 1.392 . S
C725 H737 0.929 . S
C726 C722 1.531 . S
C726 H738 0.960 . S
C726 H739 0.962 . S
C726 H740 0.960 . S
C727 C724 1.511 . S
C727 H741 0.961 . S
C727 H742 0.961 . S
C727 H743 0.961 . S
C728 C729 1.370 . S
C728 C730 1.363 . S
C728 H744 0.931 . S
C729 C728 1.370 . S
C729 C733 1.408 . S
C730 C728 1.363 . S
C730 C731 1.370 . S
C730 C734 1.524 . S
C731 C723 1.503 . S
C731 C730 1.370 . S
C731 C732 1.403 . S
C732 C731 1.403 . S
C732 C733 1.404 . S
C732 C735 1.539 1_565 S
C733 C729 1.408 . S
C733 C732 1.404 . S
C733 H745 0.930 . S
C734 C730 1.524 . S
C734 H746 0.956 . S
C734 H747 0.961 . S
C734 H748 0.961 . S
C735 C732 1.539 1_545 S
C735 H749 0.958 . S
C735 H750 0.961 . S
C735 H751 0.960 . S
H736 C720 0.931 . S
H737 C725 0.929 . S
H738 C726 0.960 . S
H739 C726 0.962 . S
H740 C726 0.960 . S
H741 C727 0.961 . S
H742 C727 0.961 . S
H743 C727 0.961 . S
H744 C728 0.931 . S
H745 C733 0.930 . S
H746 C734 0.956 . S
H747 C734 0.961 . S
H748 C734 0.961 . S
H749 C735 0.958 . S
H750 C735 0.961 . S
H751 C735 0.960 . S
C752 C753 1.391 1_455 S
C752 C754 1.394 . S
C752 H768 0.931 . S
C753 C752 1.391 1_655 S
C753 C757 1.376 . S
C754 C752 1.394 . S
C754 C755 1.369 . S
C754 C758 1.531 . S
C755 C754 1.369 . S
C755 C756 1.410 1_455 S
C755 C763 1.503 . S
C756 C755 1.410 1_655 S
C756 C757 1.392 . S
C756 C759 1.511 . S
C757 C753 1.376 . S
C757 C756 1.392 . S
C757 H769 0.929 . S
C758 C754 1.531 . S
C758 H770 0.960 . S
C758 H771 0.962 . S
C758 H772 0.960 . S
C759 C756 1.511 . S
C759 H773 0.961 . S
C759 H774 0.961 . S
C759 H775 0.961 . S
C760 C761 1.370 . S
C760 C762 1.363 . S
C760 H776 0.931 . S
C761 C760 1.370 . S
C761 C765 1.408 . S
C762 C760 1.363 . S
C762 C763 1.370 . S
C762 C766 1.524 . S
C763 C755 1.503 . S
C763 C762 1.370 . S
C763 C764 1.403 . S
C764 C763 1.403 . S
C764 C765 1.404 . S
C764 C767 1.539 . S
C765 C761 1.408 . S
C765 C764 1.404 . S
C765 H777 0.930 . S
C766 C762 1.524 . S
C766 H778 0.956 . S
C766 H779 0.961 . S
C766 H780 0.961 . S
C767 C764 1.539 . S
C767 H781 0.958 . S
C767 H782 0.961 . S
C767 H783 0.960 . S
H768 C752 0.931 . S
H769 C757 0.929 . S
H770 C758 0.960 . S
H771 C758 0.962 . S
H772 C758 0.960 . S
H773 C759 0.961 . S
H774 C759 0.961 . S
H775 C759 0.961 . S
H776 C760 0.931 . S
H777 C765 0.930 . S
H778 C766 0.956 . S
H779 C766 0.961 . S
H780 C766 0.961 . S
H781 C767 0.958 . S
H782 C767 0.961 . S
H783 C767 0.960 . S
C784 C785 1.391 . S
C784 C786 1.394 . S
C784 H800 0.931 . S
C785 C784 1.391 . S
C785 C789 1.376 1_565 S
C786 C784 1.394 . S
C786 C787 1.369 1_565 S
C786 C790 1.531 . S
C787 C786 1.369 1_545 S
C787 C788 1.410 . S
C787 C795 1.503 . S
C788 C787 1.410 . S
C788 C789 1.392 . S
C788 C791 1.511 . S
C789 C785 1.376 1_545 S
C789 C788 1.392 . S
C789 H801 0.929 . S
C790 C786 1.531 . S
C790 H802 0.960 . S
C790 H803 0.962 . S
C790 H804 0.960 . S
C791 C788 1.511 . S
C791 H805 0.961 . S
C791 H806 0.961 . S
C791 H807 0.961 . S
C792 C793 1.370 . S
C792 C794 1.363 . S
C792 H808 0.931 . S
C793 C792 1.370 . S
C793 C797 1.408 . S
C794 C792 1.363 . S
C794 C795 1.370 . S
C794 C798 1.524 . S
C795 C787 1.503 . S
C795 C794 1.370 . S
C795 C796 1.403 . S
C796 C795 1.403 . S
C796 C797 1.404 . S
C796 C799 1.539 1_545 S
C797 C793 1.408 . S
C797 C796 1.404 . S
C797 H809 0.930 . S
C798 C794 1.524 . S
C798 H810 0.956 . S
C798 H811 0.961 . S
C798 H812 0.961 . S
C799 C796 1.539 1_565 S
C799 H813 0.958 . S
C799 H814 0.961 . S
C799 H815 0.960 . S
H800 C784 0.931 . S
H801 C789 0.929 . S
H802 C790 0.960 . S
H803 C790 0.962 . S
H804 C790 0.960 . S
H805 C791 0.961 . S
H806 C791 0.961 . S
H807 C791 0.961 . S
H808 C792 0.931 . S
H809 C797 0.930 . S
H810 C798 0.956 . S
H811 C798 0.961 . S
H812 C798 0.961 . S
H813 C799 0.958 . S
H814 C799 0.961 . S
H815 C799 0.960 . S
C241 C129 0.663 . S
C249 C9 0.593 . S
C273 C169 0.600 . S
C281 C49 0.680 . S
C305 C209 0.613 . S
C313 C89 0.609 . S
C337 C15 0.695 . S
C345 C86 0.750 . S
C369 C55 0.820 . S
C377 C126 0.714 . S
C401 C95 0.825 . S
C409 C166 0.714 . S
C433 C135 0.685 . S
C441 C206 0.754 1_655 S
C465 C175 0.812 . S
C473 C6 0.758 1_565 S
C497 C215 0.695 . S
C505 C46 0.791 . S
C529 C18 1.218 . S
C537 C138 1.211 1_545 S
C561 C58 1.223 . S
C569 C178 1.213 . S
C593 C98 1.228 1_455 S
C601 C218 1.235 . S
C625 C10 4.039 . S
C633 C59 4.110 . S
C657 C50 4.050 . S
C665 C99 4.111 . S
C689 C90 4.056 . S
C697 C139 4.109 . S
C721 C130 4.045 . S
C729 C179 4.111 . S
C753 C170 4.039 . S
C761 C219 4.111 . S
C785 C210 4.057 . S
C793 C19 4.109 . S
