# Generated by pormake.
# Topology smd, (6)-cn, num edge types: 1
# Building blocks:
#     Node 0, Type 0, BuildingBlock: JUFBIX_clean_sbu_0, # of connection points: 6
#     Node 1, Type 0, BuildingBlock: JUFBIX_clean_sbu_0, # of connection points: 6
#     Node 2, Type 0, BuildingBlock: JUFBIX_clean_sbu_0, # of connection points: 6
#     Node 3, Type 0, BuildingBlock: JUFBIX_clean_sbu_0, # of connection points: 6
#     Node 4, Type 0, BuildingBlock: JUFBIX_clean_sbu_0, # of connection points: 6
#     Node 5, Type 0, BuildingBlock: JUFBIX_clean_sbu_0, # of connection points: 6
#     Node 6, Type 0, BuildingBlock: JUFBIX_clean_sbu_0, # of connection points: 6
#     Node 7, Type 0, BuildingBlock: JUFBIX_clean_sbu_0, # of connection points: 6
#     Node 8, Type 0, BuildingBlock: JUFBIX_clean_sbu_0, # of connection points: 6
#     Node 9, Type 0, BuildingBlock: JUFBIX_clean_sbu_0, # of connection points: 6
#     Node 10, Type 0, BuildingBlock: JUFBIX_clean_sbu_0, # of connection points: 6
#     Node 11, Type 0, BuildingBlock: JUFBIX_clean_sbu_0, # of connection points: 6
#     Node 12, Type 0, BuildingBlock: JUFBIX_clean_sbu_0, # of connection points: 6
#     Node 13, Type 0, BuildingBlock: JUFBIX_clean_sbu_0, # of connection points: 6
#     Node 14, Type 0, BuildingBlock: JUFBIX_clean_sbu_0, # of connection points: 6
#     Node 15, Type 0, BuildingBlock: JUFBIX_clean_sbu_0, # of connection points: 6
#     Node 16, Type 0, BuildingBlock: JUFBIX_clean_sbu_0, # of connection points: 6
#     Node 17, Type 0, BuildingBlock: JUFBIX_clean_sbu_0, # of connection points: 6
#     Edge 18, Type (0, 0), None
#     Edge 19, Type (0, 0), None
#     Edge 20, Type (0, 0), None
#     Edge 21, Type (0, 0), None
#     Edge 22, Type (0, 0), None
#     Edge 23, Type (0, 0), None
#     Edge 24, Type (0, 0), None
#     Edge 25, Type (0, 0), None
#     Edge 26, Type (0, 0), None
#     Edge 27, Type (0, 0), None
#     Edge 28, Type (0, 0), None
#     Edge 29, Type (0, 0), None
#     Edge 30, Type (0, 0), None
#     Edge 31, Type (0, 0), None
#     Edge 32, Type (0, 0), None
#     Edge 33, Type (0, 0), None
#     Edge 34, Type (0, 0), None
#     Edge 35, Type (0, 0), None
#     Edge 36, Type (0, 0), None
#     Edge 37, Type (0, 0), None
#     Edge 38, Type (0, 0), None
#     Edge 39, Type (0, 0), None
#     Edge 40, Type (0, 0), None
#     Edge 41, Type (0, 0), None
#     Edge 42, Type (0, 0), None
#     Edge 43, Type (0, 0), None
#     Edge 44, Type (0, 0), None
#     Edge 45, Type (0, 0), None
#     Edge 46, Type (0, 0), None
#     Edge 47, Type (0, 0), None
#     Edge 48, Type (0, 0), None
#     Edge 49, Type (0, 0), None
#     Edge 50, Type (0, 0), None
#     Edge 51, Type (0, 0), None
#     Edge 52, Type (0, 0), None
#     Edge 53, Type (0, 0), None
#     Edge 54, Type (0, 0), None
#     Edge 55, Type (0, 0), None
#     Edge 56, Type (0, 0), None
#     Edge 57, Type (0, 0), None
#     Edge 58, Type (0, 0), None
#     Edge 59, Type (0, 0), None
#     Edge 60, Type (0, 0), None
#     Edge 61, Type (0, 0), None
#     Edge 62, Type (0, 0), None
#     Edge 63, Type (0, 0), None
#     Edge 64, Type (0, 0), None
#     Edge 65, Type (0, 0), None
#     Edge 66, Type (0, 0), None
#     Edge 67, Type (0, 0), None
#     Edge 68, Type (0, 0), None
#     Edge 69, Type (0, 0), None
#     Edge 70, Type (0, 0), None
#     Edge 71, Type (0, 0), None
# Relax obj value: 0.497
# Max RMSD: 0.312
# Mean RMSD: 0.230
data_MOF--net-smd--node1-JUFBIX_clean_sbu_0--edge1-none
_symmetry_space_group_name_H-M    P1
_symmetry_Int_Tables_number       1
_symmetry_cell_setting            triclinic
loop_
_symmetry_equiv_pos_as_xyz
'x, y, z'
_cell_length_a     36.60252
_cell_length_b     43.256486
_cell_length_c     6.5465834
_cell_angle_alpha  92.694608
_cell_angle_beta   91.884846
_cell_angle_gamma 121.01654
loop_
_atom_site_label
_atom_site_type_symbol
_atom_site_fract_x
_atom_site_fract_y
_atom_site_fract_z
_atom_type_partial_charge
Co0 Co 0.1396 0.3632 0.51487 0.0
C1 C 1.06433 0.36626 0.5147 0.0
Co2 Co 1.08544 0.30603 0.49114 0.0
C3 C 0.21815 0.41668 0.38504 0.0
C4 C 0.18231 0.43931 0.49722 0.0
N5 N 0.18532 0.40958 0.50291 0.0
N6 N 0.23588 0.44951 0.31286 0.0
C7 C 0.21353 0.46393 0.38439 0.0
H8 H 0.22328 0.39599 0.31862 0.0
H9 H 0.15776 0.44279 0.56131 0.0
C10 C 0.17251 0.31619 0.50556 0.0
N11 N 1.03985 0.25364 0.4763 0.0
C12 C 1.00112 0.23172 0.55656 0.0
C13 C 1.04855 0.22902 0.39254 0.0
N14 N 0.98698 0.19528 0.53062 0.0
C15 C 1.0175 0.19414 0.42883 0.0
C16 C 0.11139 0.33381 0.11352 0.0
O17 O 0.17793 0.34738 0.52034 0.0
O18 O 0.13298 0.29012 0.48965 0.0
O19 O 1.08414 0.30552 0.19574 0.0
O20 O 0.13773 0.36145 0.22579 0.0
O21 O 1.04439 0.33052 0.5008 0.0
H22 H 1.07624 0.2357 0.30815 0.0
H23 H 0.98403 0.24227 0.6373 0.0
O24 O 0.10408 0.38186 0.51579 0.0
O25 O 0.14014 0.36383 0.80967 0.0
O26 O 0.08696 0.3068 0.77878 0.0
C27 C 0.11302 0.33498 0.89089 0.0
H28 H 0.21612 0.48857 0.33653 0.0
H29 H 1.01645 0.16966 0.37376 0.0
Co30 Co 0.88341 0.80409 0.60793 0.0
C31 C 0.82282 0.82043 0.5529 0.0
Co32 Co 0.90841 0.86725 0.61814 0.0
C33 C 0.8198 0.72114 0.63176 0.0
C34 C 0.88404 0.73499 0.60426 0.0
N35 N 0.85991 0.75037 0.60437 0.0
N36 N 0.8185 0.68885 0.64614 0.0
C37 C 0.85938 0.69812 0.62819 0.0
H38 H 0.79204 0.72363 0.64671 0.0
H39 H 0.91813 0.74991 0.59529 0.0
C40 C 0.9717 0.84684 0.63585 0.0
N41 N 0.9229 0.92074 0.63993 0.0
C42 C 0.90733 0.93888 0.52942 0.0
C43 C 0.94326 0.94472 0.80499 0.0
N44 N 0.91715 0.9723 0.61971 0.0
C45 C 0.93992 0.97548 0.79347 0.0
C46 C 0.89507 0.83545 0.00088 0.0
O47 O 0.93899 0.81509 0.62731 0.0
O48 O 0.96767 0.87515 0.64043 0.0
O49 O 0.90576 0.86457 0.91271 0.0
O50 O 0.88316 0.80587 0.89609 0.0
O51 O 0.85113 0.85382 0.58407 0.0
H52 H 0.95836 0.93965 0.93327 0.0
H53 H 0.88738 0.92694 0.38873 0.0
O54 O 0.83058 0.79566 0.58267 0.0
O55 O 0.88529 0.80632 0.31243 0.0
O56 O 0.90937 0.86577 0.32956 0.0
C57 C 0.8968 0.83584 0.22486 0.0
H58 H 0.87101 0.67964 0.63357 0.0
H59 H 0.95301 0.99825 0.90677 0.0
Co60 Co 0.322 1.0552 0.65616 0.0
C61 C 0.38991 0.12934 0.71532 0.0
Co62 Co 0.30069 0.09635 0.6702 0.0
C63 C 0.37986 1.02777 0.55335 0.0
C64 C 0.32097 0.98682 0.66029 0.0
N65 N 0.3433 1.02264 0.63348 0.0
N66 N 0.3809 0.99675 0.52949 0.0
C67 C 0.34355 0.97097 0.59555 0.0
H68 H 0.40457 1.05355 0.50562 0.0
H69 H 0.28957 0.9726 0.71885 0.0
C70 C 0.23266 1.01971 0.63569 0.0
N71 N 0.28162 0.1308 0.6756 0.0
C72 C 0.29592 0.16081 0.568 0.0
C73 C 0.25434 0.13293 0.80204 0.0
N74 N 0.27879 0.1813 0.62288 0.0
C75 C 0.25257 0.16373 0.77049 0.0
C76 C 0.31159 0.07602 0.27495 0.0
O77 O 0.26423 1.01502 0.63055 0.0
O78 O 0.2404 1.05257 0.64623 0.0
O79 O 0.30136 0.09602 0.37658 0.0
O80 O 0.32218 1.0564 0.36736 0.0
O81 O 0.36097 0.1375 0.70326 0.0
H82 H 0.2374 0.1137 0.91412 0.0
H83 H 0.31937 0.16793 0.45501 0.0
O84 O 0.37872 0.09604 0.68845 0.0
O85 O 0.3212 1.05515 0.94967 0.0
O86 O 0.3007 0.09535 0.95945 0.0
C87 C 0.31111 0.07541 0.05125 0.0
H88 H 0.33357 0.94272 0.60132 0.0
H89 H 0.23373 0.1725 0.85074 0.0
Co90 Co 0.10052 0.87773 0.62773 0.0
C91 C 1.01301 0.84804 0.63131 0.0
Co92 Co 1.06331 0.81421 0.60978 0.0
C93 C 0.17905 0.954 0.63197 0.0
C94 C 0.12144 0.9544 0.65662 0.0
N95 N 0.13586 0.93119 0.6434 0.0
N96 N 0.19163 0.9899 0.63749 0.0
C97 C 0.15505 0.98988 0.65314 0.0
H98 H 0.20109 0.94448 0.61886 0.0
H99 H 0.08831 0.94631 0.66681 0.0
C100 C 0.14846 0.8452 0.57524 0.0
N101 N 1.03177 0.75906 0.59474 0.0
C102 C 1.04397 0.73461 0.64398 0.0
C103 C 0.99044 0.73671 0.52802 0.0
N104 N 1.01174 0.69859 0.6148 0.0
C105 C 0.97812 0.70062 0.54305 0.0
C106 C 1.08051 0.84588 0.22994 0.0
O107 O 0.14987 0.87503 0.60961 0.0
O108 O 0.11445 0.81527 0.59972 0.0
O109 O 1.06247 0.81578 0.31518 0.0
O110 O 0.09699 0.87599 0.33726 0.0
O111 O 1.01243 0.81782 0.61685 0.0
H112 H 0.97054 0.74599 0.46483 0.0
H113 H 1.07617 0.74312 0.70043 0.0
O114 O 1.04844 0.87809 0.63711 0.0
O115 O 0.10201 0.87615 0.92195 0.0
O116 O 1.06611 0.81595 0.89967 0.0
C117 C 1.08321 0.84606 0.00703 0.0
H118 H 0.15261 1.0138 0.66253 0.0
H119 H 0.94685 0.6775 0.49598 0.0
Co120 Co 0.29418 0.31468 0.51206 0.0
C121 C 0.21598 0.31754 0.50505 0.0
Co122 Co 0.30554 0.37062 0.53332 0.0
C123 C 0.27597 0.23858 0.61126 0.0
C124 C 0.31213 0.26105 0.35194 0.0
N125 N 0.29104 0.26799 0.49597 0.0
N126 N 0.28699 0.21427 0.54154 0.0
C127 C 0.30958 0.2286 0.37828 0.0
H128 H 0.25866 0.23571 0.74685 0.0
H129 H 0.3299 0.27917 0.23674 0.0
C130 C 0.3854 0.37773 0.54199 0.0
N131 N 0.31155 0.41602 0.53568 0.0
C132 C 0.3133 0.43141 0.35912 0.0
C133 C 0.33966 0.44366 0.66723 0.0
N134 N 0.34581 0.46556 0.36513 0.0
C135 C 0.36155 0.4741 0.56145 0.0
C136 C 0.30001 0.34256 0.91056 0.0
O137 O 0.36241 0.34251 0.52352 0.0
O138 O 0.36531 0.39406 0.55351 0.0
O139 O 0.30457 0.3702 0.82571 0.0
O140 O 0.29578 0.31566 0.80207 0.0
O141 O 0.24688 0.34996 0.51326 0.0
H142 H 0.35018 0.43986 0.81357 0.0
H143 H 0.29702 0.41654 0.21526 0.0
O144 O 0.22622 0.29275 0.50258 0.0
O145 O 0.29213 0.31346 0.21873 0.0
O146 O 0.30656 0.369 0.24238 0.0
C147 C 0.29952 0.34154 0.13312 0.0
H148 H 0.32398 0.21687 0.28575 0.0
H149 H 0.39174 0.49797 0.61372 0.0
Co150 Co 0.87905 0.08763 0.5403 0.0
C151 C 0.94752 0.16563 0.56627 0.0
Co152 Co 0.85897 0.1324 0.56304 0.0
C153 C 0.90775 1.02828 0.64639 0.0
C154 C 0.88674 1.02742 0.33957 0.0
N155 N 0.89531 1.04722 0.52148 0.0
N156 N 0.90684 0.99853 0.5468 0.0
C157 C 0.89354 0.99878 0.35386 0.0
H158 H 0.91578 1.03533 0.80914 0.0
H159 H 0.87441 1.0323 0.20059 0.0
C160 C 0.79048 1.05938 0.49684 0.0
N161 N 0.83843 0.16783 0.58921 0.0
C162 C 0.8023 0.16596 0.66176 0.0
C163 C 0.86334 0.20357 0.56209 0.0
N164 N 0.80423 0.19875 0.68023 0.0
C165 C 0.84314 0.22219 0.61813 0.0
C166 C 0.86913 0.11059 0.16351 0.0
O167 O 0.81756 1.04896 0.51086 0.0
O168 O 0.80319 0.09296 0.52856 0.0
O169 O 0.86053 0.13201 0.26617 0.0
O170 O 0.87783 0.08941 0.2532 0.0
O171 O 0.91663 0.1708 0.59061 0.0
H172 H 0.89508 0.21599 0.50737 0.0
H173 H 0.77537 0.14104 0.70626 0.0
O174 O 0.93982 0.13241 0.55207 0.0
O175 O 0.87886 0.08933 0.83756 0.0
O176 O 0.8587 0.13003 0.84894 0.0
C177 C 0.86893 0.10989 0.93949 0.0
H178 H 0.8886 0.97933 0.22958 0.0
H179 H 0.85601 0.25089 0.60867 0.0
Co180 Co 0.69729 0.59979 0.65945 0.0
C181 C 0.78363 0.65416 0.66653 0.0
Co182 Co 0.73488 0.57401 0.66047 0.0
C183 C 0.63995 0.61287 0.85632 0.0
C184 C 0.66583 0.64529 0.60797 0.0
N185 N 0.65919 0.61501 0.68152 0.0
N186 N 0.64398 0.64448 0.91692 0.0
C187 C 0.65485 0.66302 0.74808 0.0
H188 H 0.63383 0.59274 0.96394 0.0
H189 H 0.68872 0.65764 0.49995 0.0
C190 C 0.64646 0.5237 0.63295 0.0
N191 N 0.76743 0.55288 0.6637 0.0
C192 C 0.80641 0.56369 0.59755 0.0
C193 C 0.75461 0.52059 0.74136 0.0
N194 N 0.81723 0.5388 0.62762 0.0
C195 C 0.78509 0.51163 0.71677 0.0
C196 C 0.71806 0.58721 0.0499 0.0
O197 O 0.64904 0.55383 0.64725 0.0
O198 O 0.68138 0.52389 0.63484 0.0
O199 O 0.7362 0.5735 0.95356 0.0
O200 O 0.70145 0.60142 0.95067 0.0
O201 O 0.78727 0.62592 0.67525 0.0
H202 H 0.72514 0.5046 0.81458 0.0
H203 H 0.82608 0.58881 0.5275 0.0
O204 O 0.74613 0.64893 0.66741 0.0
O205 O 0.69476 0.59839 0.36553 0.0
O206 O 0.73464 0.57383 0.37182 0.0
C207 C 0.7156 0.58644 0.27194 0.0
H208 H 0.66639 0.69142 0.751 0.0
H209 H 0.78441 0.48774 0.76479 0.0
Co210 Co 0.51664 0.16845 0.79318 0.0
C211 C 0.43685 0.15569 0.76231 0.0
Co212 Co 0.52322 0.22029 0.82002 0.0
C213 C 0.54952 0.13189 0.96805 0.0
C214 C 0.4841 0.09515 0.8627 0.0
N215 N 0.51859 0.12786 0.83015 0.0
N216 N 0.53531 0.10438 0.08501 0.0
C217 C 0.49424 0.08085 0.02191 0.0
H218 H 0.57886 0.15681 0.01159 0.0
H219 H 0.45225 0.08417 0.7943 0.0
C220 C 0.60403 0.22832 0.81361 0.0
N221 N 0.52085 0.26026 0.83311 0.0
C222 C 0.53821 0.28727 0.70965 0.0
C223 C 0.4962 0.26686 0.95483 0.0
N224 N 0.52469 0.31018 0.74806 0.0
C225 C 0.49859 0.29798 0.90268 0.0
C226 C 0.51974 0.19542 0.19717 0.0
O227 O 0.57623 0.19514 0.8007 0.0
O228 O 0.58987 0.24983 0.83433 0.0
O229 O 0.52425 0.22266 0.11407 0.0
O230 O 0.51548 0.16962 0.08436 0.0
O231 O 0.45667 0.19033 0.79194 0.0
H232 H 0.47625 0.24928 0.06739 0.0
H233 H 0.55835 0.28899 0.58808 0.0
O234 O 0.45891 0.14136 0.77 0.0
O235 O 0.51638 0.16608 0.50116 0.0
O236 O 0.52269 0.21952 0.53007 0.0
C237 C 0.51953 0.19344 0.41873 0.0
H238 H 0.47274 1.05635 0.09273 0.0
H239 H 0.48131 0.30974 0.9677 0.0
Co240 Co 1.07063 0.47194 0.57368 0.0
C241 C 1.0493 0.39485 0.53469 0.0
Co242 Co 1.00165 0.43305 0.55347 0.0
C243 C 0.15614 0.51382 0.76021 0.0
C244 C 0.1454 0.53778 0.50523 0.0
N245 N 0.12843 0.50643 0.59873 0.0
N246 N 0.18847 0.54875 0.77584 0.0
C247 C 0.18188 0.56397 0.61558 0.0
H248 H 0.15178 0.4944 0.87004 0.0
H249 H 0.13035 0.54223 0.37415 0.0
C250 C 1.02612 0.51084 0.59439 0.0
N251 N 0.94287 0.40171 0.52668 0.0
C252 C 0.913 0.3948 0.66292 0.0
C253 C 0.92115 0.37854 0.36148 0.0
N254 N 0.8739 0.36823 0.58765 0.0
C255 C 0.87881 0.35803 0.39829 0.0
C256 C 1.03596 0.45196 0.95189 0.0
O257 O 1.06236 0.51375 0.59252 0.0
O258 O 0.99374 0.47799 0.57704 0.0
O259 O 1.00135 0.43177 0.8442 0.0
O260 O 1.07009 0.4713 0.86467 0.0
O261 O 1.01074 0.38852 0.53051 0.0
H262 H 0.93526 0.37556 0.22513 0.0
H263 H 0.92001 0.40752 0.81696 0.0
O264 O 1.07893 0.42886 0.55549 0.0
O265 O 1.07136 0.47262 0.2829 0.0
O266 O 1.00234 0.43464 0.26271 0.0
C267 C 1.03662 0.4532 0.17528 0.0
H268 H 0.2029 0.59147 0.57574 0.0
H269 H 0.85395 0.33629 0.29712 0.0
Co270 Co 0.73425 0.25397 0.78782 0.0
C271 C 0.64936 0.23558 0.79595 0.0
Co272 Co 0.69268 0.19558 0.75503 0.0
C273 C 0.80664 0.31439 0.65457 0.0
C274 C 0.78933 0.33099 0.92922 0.0
N275 N 0.77675 0.30228 0.79299 0.0
N276 N 0.83707 0.34918 0.69697 0.0
C277 C 0.827 0.36013 0.87068 0.0
H278 H 0.80744 0.29735 0.53067 0.0
H279 H 0.77324 0.3304 0.06596 0.0
C280 C 0.7729 0.20658 0.73214 0.0
N281 N 0.64919 0.14849 0.76004 0.0
C282 C 0.63382 0.13408 0.93753 0.0
C283 C 0.64886 0.12211 0.64724 0.0
N284 N 0.63373 0.10366 0.95722 0.0
C285 C 0.63957 0.09429 0.76829 0.0
C286 C 0.71162 0.22443 0.38226 0.0
O287 O 0.78028 0.23934 0.7567 0.0
O288 O 0.73457 0.18121 0.74146 0.0
O289 O 0.68957 0.19416 0.45995 0.0
O290 O 0.7298 0.2532 0.4979 0.0
O291 O 0.64999 0.2068 0.76614 0.0
H292 H 0.66403 0.12727 0.50793 0.0
H293 H 0.63351 0.14938 0.07169 0.0
O294 O 0.68583 0.26531 0.81119 0.0
O295 O 0.73938 0.25632 0.08259 0.0
O296 O 0.69783 0.19825 0.04557 0.0
C297 C 0.7169 0.2266 0.16152 0.0
H298 H 0.84575 0.38666 0.95082 0.0
H299 H 0.6455 0.07294 0.73401 0.0
Co300 Co 0.98286 0.58959 0.61887 0.0
C301 C 1.02363 0.54595 0.61498 0.0
Co302 Co 1.05312 0.62326 0.65002 0.0
C303 C 0.89497 0.56874 0.63574 0.0
C304 C 0.90217 0.52624 0.49976 0.0
N305 N 0.92457 0.56048 0.58731 0.0
N306 N 0.85545 0.54091 0.5823 0.0
C307 C 0.85929 0.51385 0.49985 0.0
H308 H 0.90198 0.59408 0.71255 0.0
H309 H 0.91592 0.51118 0.43797 0.0
C310 C 1.01245 0.66665 0.63577 0.0
N311 N 0.11332 0.65628 0.69478 0.0
C312 C 0.13229 0.66503 0.88895 0.0
C313 C 0.12686 0.68902 0.62268 0.0
N314 N 0.1481 0.70018 0.95201 0.0
C315 C 0.14469 0.71527 0.783 0.0
C316 C 1.01813 0.60638 0.24638 0.0
O317 O 0.97865 0.63499 0.61244 0.0
O318 O 1.04722 0.66734 0.6681 0.0
O319 O 1.05364 0.6244 0.35428 0.0
O320 O 0.98368 0.58848 0.33286 0.0
O321 O 1.05761 0.57795 0.62943 0.0
H322 H 0.11574 0.69282 0.47625 0.0
H323 H 0.12873 0.64502 0.99292 0.0
O324 O 0.98792 0.54478 0.61648 0.0
O325 O 0.9812 0.59039 0.91447 0.0
O326 O 1.05081 0.62115 0.93585 0.0
C327 C 1.01642 0.60591 0.02284 0.0
H328 H 0.83309 0.48735 0.44405 0.0
H329 H 0.15426 0.74338 0.77501 0.0
Co330 Co 0.52601 0.42519 0.57292 0.0
C331 C 0.60178 0.4916 0.61096 0.0
Co332 Co 0.51335 0.46897 0.58146 0.0
C333 C 0.5163 0.36014 0.66584 0.0
C334 C 0.56079 0.38352 0.43326 0.0
N335 N 0.53358 0.38788 0.54821 0.0
N336 N 0.53245 0.33904 0.63345 0.0
C337 C 0.56019 0.35297 0.48637 0.0
H338 H 0.49391 0.35659 0.77933 0.0
H339 H 0.58108 0.40221 0.32569 0.0
C340 C 0.43454 0.40254 0.54968 0.0
N341 N 0.51742 0.51451 0.62319 0.0
C342 C 0.52886 0.53263 0.81121 0.0
C343 C 0.53025 0.54169 0.49707 0.0
N344 N 0.54374 0.56825 0.81183 0.0
C345 C 0.54592 0.57459 0.61173 0.0
C346 C 0.5195 0.44743 0.18894 0.0
O347 O 0.46081 0.39113 0.55629 0.0
O348 O 0.45084 0.43715 0.55453 0.0
O349 O 0.51475 0.47108 0.28825 0.0
O350 O 0.52455 0.42516 0.28475 0.0
O351 O 0.57275 0.49898 0.60977 0.0
H352 H 0.53116 0.53829 0.33357 0.0
H353 H 0.52698 0.52079 0.95425 0.0
O354 O 0.59011 0.45837 0.59091 0.0
O355 O 0.52799 0.42442 0.86736 0.0
O356 O 0.5106 0.4652 0.86715 0.0
C357 C 0.51931 0.44545 0.96547 0.0
H358 H 0.57969 0.34283 0.42851 0.0
H359 H 0.55628 0.60057 0.55212 0.0
Co360 Co 0.49413 1.00795 0.44798 0.0
C361 C 0.41398 0.99253 0.47152 0.0
Co362 Co 0.45594 0.94992 0.41541 0.0
C363 C 0.55369 0.06913 0.2643 0.0
C364 C 0.54386 0.08308 0.56081 0.0
N365 N 0.53721 1.05501 0.44031 0.0
N366 N 0.55823 0.10134 0.24981 0.0
C367 C 0.55608 0.11195 0.44298 0.0
H368 H 0.55277 1.05359 0.12823 0.0
H369 H 0.53681 0.08047 0.71632 0.0
C370 C 0.53845 0.97099 0.40483 0.0
N371 N 0.41807 0.90236 0.40706 0.0
C372 C 0.3763 0.88616 0.35092 0.0
C373 C 0.42479 0.87582 0.45935 0.0
N374 N 0.35674 0.85055 0.36593 0.0
C375 C 0.38686 0.84357 0.43164 0.0
C376 C 0.47126 0.97686 0.0412 0.0
O377 O 0.53714 0.99913 0.43716 0.0
O378 O 0.50354 0.94081 0.39063 0.0
O379 O 0.4506 0.94708 0.12099 0.0
O380 O 0.48861 1.00525 0.15682 0.0
O381 O 0.4093 0.961 0.4459 0.0
H382 H 0.45501 0.87963 0.51618 0.0
H383 H 0.36055 0.8999 0.29667 0.0
O384 O 0.45111 1.01993 0.46209 0.0
O385 O 0.49751 1.00945 0.74256 0.0
O386 O 0.45949 0.95017 0.70501 0.0
C387 C 0.47655 0.97903 0.82046 0.0
H388 H 0.55834 0.13712 0.48838 0.0
H389 H 0.38159 0.81718 0.46127 0.0
Co390 Co 0.292 0.55403 0.95258 0.0
C391 C 0.22558 0.56222 0.89044 0.0
Co392 Co 0.31364 0.61075 0.95105 0.0
C393 C 0.2867 0.49168 0.10444 0.0
C394 C 0.24301 0.48057 0.85178 0.0
N395 N 0.27905 0.50699 0.94692 0.0
N396 N 0.25415 0.45795 0.12376 0.0
C397 C 0.22831 0.4499 0.9539 0.0
H398 H 0.30847 0.50751 0.23432 0.0
H399 H 0.2232 0.48681 0.76129 0.0
C400 C 0.37738 0.60027 0.99122 0.0
N401 N 0.33173 0.65786 0.95817 0.0
C402 C 0.32804 0.67532 0.1198 0.0
C403 C 0.3594 0.68397 0.84172 0.0
N404 N 0.35214 0.71106 0.11277 0.0
C405 C 0.37101 0.71722 0.93499 0.0
C406 C 0.30136 0.58209 0.341 0.0
O407 O 0.34693 0.56799 0.96058 0.0
O408 O 0.37075 0.62588 0.99796 0.0
O409 O 0.30878 0.60973 0.24899 0.0
O410 O 0.29305 0.55409 0.23707 0.0
O411 O 0.2545 0.5957 0.89426 0.0
H412 H 0.37087 0.67927 0.70036 0.0
H413 H 0.30546 0.66235 0.23505 0.0
O414 O 0.23538 0.5399 0.94803 0.0
O415 O 0.29019 0.55321 0.65391 0.0
O416 O 0.31856 0.61187 0.66856 0.0
C417 C 0.30342 0.5823 0.56365 0.0
H418 H 0.1953 0.42815 0.94071 0.0
H419 H 0.39003 0.74345 0.87511 0.0
Co420 Co 0.70114 0.75461 0.39151 0.0
C421 C 0.78173 0.80883 0.46052 0.0
Co422 Co 0.70901 0.80637 0.3881 0.0
C423 C 0.65961 0.68345 0.22184 0.0
C424 C 0.72681 0.70503 0.27034 0.0
N425 N 0.6951 0.71019 0.33003 0.0
N426 N 0.66757 0.66214 0.10228 0.0
C427 C 0.70992 0.67557 0.13139 0.0
H428 H 0.63062 0.68336 0.19612 0.0
H429 H 0.76062 0.72357 0.30365 0.0
C430 C 0.62536 0.74924 0.32817 0.0
N431 N 0.71465 0.84921 0.42755 0.0
C432 C 0.68495 0.85531 0.35504 0.0
C433 C 0.73349 0.87189 0.5982 0.0
N434 N 0.68133 0.87786 0.48483 0.0
C435 C 0.71242 0.88975 0.63499 0.0
C436 C 0.70687 0.78259 0.00175 0.0
O437 O 0.643 0.73322 0.39823 0.0
O438 O 0.64814 0.7829 0.31285 0.0
O439 O 0.718 0.81234 0.10153 0.0
O440 O 0.69762 0.75542 0.09958 0.0
O441 O 0.7671 0.82933 0.45764 0.0
H442 H 0.75682 0.87179 0.70364 0.0
H443 H 0.66422 0.84143 0.2186 0.0
O444 O 0.75864 0.77605 0.39848 0.0
O445 O 0.70508 0.75314 0.68082 0.0
O446 O 0.69989 0.80116 0.67616 0.0
C447 C 0.70371 0.77867 0.77716 0.0
H448 H 0.7283 0.66818 0.03707 0.0
H449 H 0.71791 0.90841 0.76484 0.0
Co450 Co 0.49909 0.62791 0.02522 0.0
C451 C 0.4185 0.60525 0.01376 0.0
Co452 Co 0.46105 0.57036 0.02975 0.0
C453 C 0.56509 0.69257 0.21682 0.0
C454 C 0.53737 0.70544 0.96898 0.0
N455 N 0.53566 0.67729 0.05937 0.0
N456 N 0.58661 0.72881 0.22624 0.0
C457 C 0.56919 0.7375 0.0715 0.0
H458 H 0.57224 0.6773 0.31997 0.0
H459 H 0.51719 0.70286 0.83684 0.0
C460 C 0.53705 0.58575 0.97241 0.0
N461 N 0.42241 0.52092 0.02588 0.0
C462 C 0.38655 0.50999 0.12704 0.0
C463 C 0.42936 0.49318 0.03301 0.0
N464 N 0.37202 0.47782 0.2004 0.0
C465 C 0.39884 0.4669 0.14446 0.0
C466 C 0.47898 0.59946 0.63919 0.0
O467 O 0.5452 0.61826 0.96499 0.0
O468 O 0.50644 0.56503 0.07528 0.0
O469 O 0.46499 0.57026 0.73172 0.0
O470 O 0.49356 0.62956 0.74157 0.0
O471 O 0.41854 0.57655 0.98806 0.0
H472 H 0.45744 0.49367 0.98716 0.0
H473 H 0.37632 0.52798 0.1824 0.0
O474 O 0.45283 0.63509 0.05835 0.0
O475 O 0.50419 0.62619 0.32395 0.0
O476 O 0.45525 0.56978 0.31238 0.0
C477 C 0.47956 0.5986 0.41653 0.0
H478 H 0.58054 0.76462 0.02674 0.0
H479 H 0.39868 0.44347 0.19696 0.0
Co480 Co 0.65563 0.97824 0.37221 0.0
C481 C 0.58195 0.97798 0.38602 0.0
Co482 Co 0.66913 1.03192 0.39975 0.0
C483 C 0.66689 0.92491 0.49148 0.0
C484 C 0.61766 0.90498 0.24825 0.0
N485 N 0.64626 0.93475 0.36624 0.0
N486 N 0.65389 0.89037 0.45162 0.0
C487 C 0.6224 0.8771 0.30128 0.0
H488 H 0.69382 0.94354 0.59552 0.0
H489 H 0.5963 0.90415 0.12692 0.0
C490 C 0.74412 1.03601 0.43146 0.0
N491 N 0.67292 0.07533 0.3668 0.0
C492 C 0.64144 0.07398 0.24421 0.0
C493 C 0.70866 0.10645 0.3246 0.0
N494 N 0.65595 0.10191 0.12989 0.0
C495 C 0.69825 0.12273 0.17682 0.0
C496 C 0.66314 1.00607 0.77453 0.0
O497 O 0.72083 1.00136 0.41747 0.0
O498 O 0.72608 1.05351 0.40117 0.0
O499 O 0.67368 1.03557 0.69369 0.0
O500 O 0.65239 0.97798 0.6608 0.0
O501 O 0.61101 1.01056 0.41422 0.0
H502 H 0.74092 0.11416 0.37201 0.0
H503 H 0.61088 1.05006 0.20432 0.0
O504 O 0.59273 0.95531 0.34118 0.0
O505 O 0.65869 0.97664 0.07938 0.0
O506 O 0.66581 1.02926 0.10852 0.0
C507 C 0.66264 1.0038 0.99608 0.0
H508 H 0.60694 0.85033 0.22342 0.0
H509 H 0.72028 0.14583 0.09683 0.0
Co510 Co 0.24972 0.75298 0.2658 0.0
C511 C 0.31519 0.82614 0.32354 0.0
Co512 Co 0.23293 0.7941 0.24426 0.0
C513 C 0.30772 0.73466 0.13813 0.0
C514 C 0.29609 0.72541 0.45184 0.0
N515 N 0.27916 0.72969 0.27599 0.0
N516 N 0.34081 0.733 0.21799 0.0
C517 C 0.33457 0.72917 0.41816 0.0
H518 H 0.30315 0.73668 0.97654 0.0
H519 H 0.28237 0.72062 0.59892 0.0
C520 C 0.17064 0.71872 0.13155 0.0
N521 N 0.2101 0.8228 0.27017 0.0
C522 C 0.17836 0.81492 0.39425 0.0
C523 C 0.23003 0.85892 0.2561 0.0
N524 N 0.17886 0.84471 0.46637 0.0
C525 C 0.21086 0.87255 0.37784 0.0
C526 C 0.24417 0.77668 0.86758 0.0
O527 O 0.19699 0.71085 0.20661 0.0
O528 O 0.17692 0.75047 0.17692 0.0
O529 O 0.23558 0.79816 0.96144 0.0
O530 O 0.25399 0.7572 0.96915 0.0
O531 O 0.28804 0.83526 0.28955 0.0
H532 H 0.25878 0.87475 0.17704 0.0
H533 H 0.1573 0.78808 0.44346 0.0
O534 O 0.30311 0.79333 0.32041 0.0
O535 O 0.24427 0.74892 0.54944 0.0
O536 O 0.23086 0.79189 0.54064 0.0
C537 C 0.23952 0.7723 0.64364 0.0
H538 H 0.35286 0.72302 0.52323 0.0
H539 H 0.21968 0.9006 0.39931 0.0
loop_
_geom_bond_atom_site_label_1
_geom_bond_atom_site_label_2
_geom_bond_distance
_geom_bond_site_symmetry_2
_ccdc_geom_bond_type
Co0 N5 2.057 . S
Co0 O17 2.021 . S
Co0 O20 2.062 . S
Co0 O24 2.117 . S
Co0 O25 2.020 . S
C1 O21 1.259 . S
C1 O24 1.258 1_655 S
Co2 N11 2.057 . S
Co2 O18 2.117 1_655 S
Co2 O19 2.020 1_655 S
Co2 O21 2.021 . S
Co2 O26 2.062 1_655 S
C3 N5 1.316 . S
C3 N6 1.347 . S
C3 H8 0.931 . S
C4 N5 1.375 . S
C4 C7 1.350 . S
C4 H9 0.930 . S
N5 Co0 2.057 . S
N5 C3 1.316 . S
N5 C4 1.375 . S
N6 C3 1.347 . S
N6 C7 1.373 . S
C7 C4 1.350 . S
C7 N6 1.373 . S
C7 H28 0.931 . S
H8 C3 0.931 . S
H9 C4 0.930 . S
C10 O17 1.259 . S
C10 O18 1.258 . S
N11 Co2 2.057 . S
N11 C12 1.316 . S
N11 C13 1.375 . S
C12 N11 1.316 . S
C12 N14 1.347 . S
C12 H23 0.931 . S
C13 N11 1.375 . S
C13 C15 1.350 . S
C13 H22 0.930 . S
N14 C12 1.347 . S
N14 C15 1.373 . S
C15 C13 1.350 . S
C15 N14 1.373 . S
C15 H29 0.931 . S
C16 O19 1.256 . S
C16 O20 1.255 . S
O17 Co0 2.021 . S
O17 C10 1.259 . S
O18 Co2 2.117 1_455 S
O18 C10 1.258 . S
O19 Co2 2.020 1_455 S
O19 C16 1.256 . S
O20 Co0 2.062 . S
O20 C16 1.255 . S
O21 C1 1.259 . S
O21 Co2 2.021 . S
H22 C13 0.930 . S
H23 C12 0.931 . S
O24 Co0 2.117 . S
O24 C1 1.258 1_455 S
O25 Co0 2.020 . S
O25 C27 1.256 . S
O26 Co2 2.062 1_455 S
O26 C27 1.255 . S
C27 O25 1.256 . S
C27 O26 1.255 . S
H28 C7 0.931 . S
H29 C15 0.931 . S
Co30 N35 2.057 . S
Co30 O47 2.021 . S
Co30 O50 2.062 . S
Co30 O54 2.117 . S
Co30 O55 2.020 . S
C31 O51 1.259 . S
C31 O54 1.258 . S
Co32 N41 2.057 . S
Co32 O48 2.117 . S
Co32 O49 2.020 . S
Co32 O51 2.021 . S
Co32 O56 2.062 . S
C33 N35 1.316 . S
C33 N36 1.347 . S
C33 H38 0.931 . S
C34 N35 1.375 . S
C34 C37 1.350 . S
C34 H39 0.930 . S
N35 Co30 2.057 . S
N35 C33 1.316 . S
N35 C34 1.375 . S
N36 C33 1.347 . S
N36 C37 1.373 . S
C37 C34 1.350 . S
C37 N36 1.373 . S
C37 H58 0.931 . S
H38 C33 0.931 . S
H39 C34 0.930 . S
C40 O47 1.259 . S
C40 O48 1.258 . S
N41 Co32 2.057 . S
N41 C42 1.316 . S
N41 C43 1.375 . S
C42 N41 1.316 . S
C42 N44 1.347 . S
C42 H53 0.931 . S
C43 N41 1.375 . S
C43 C45 1.350 . S
C43 H52 0.930 . S
N44 C42 1.347 . S
N44 C45 1.373 . S
C45 C43 1.350 . S
C45 N44 1.373 . S
C45 H59 0.931 . S
C46 O49 1.256 . S
C46 O50 1.255 . S
O47 Co30 2.021 . S
O47 C40 1.259 . S
O48 Co32 2.117 . S
O48 C40 1.258 . S
O49 Co32 2.020 . S
O49 C46 1.256 . S
O50 Co30 2.062 . S
O50 C46 1.255 . S
O51 C31 1.259 . S
O51 Co32 2.021 . S
H52 C43 0.930 . S
H53 C42 0.931 . S
O54 Co30 2.117 . S
O54 C31 1.258 . S
O55 Co30 2.020 . S
O55 C57 1.256 . S
O56 Co32 2.062 . S
O56 C57 1.255 . S
C57 O55 1.256 . S
C57 O56 1.255 . S
H58 C37 0.931 . S
H59 C45 0.931 . S
Co60 N65 2.057 . S
Co60 O77 2.021 . S
Co60 O80 2.062 . S
Co60 O84 2.117 1_565 S
Co60 O85 2.020 1_565 S
C61 O81 1.259 . S
C61 O84 1.258 . S
Co62 N71 2.057 . S
Co62 O78 2.117 1_545 S
Co62 O79 2.020 . S
Co62 O81 2.021 . S
Co62 O86 2.062 . S
C63 N65 1.316 . S
C63 N66 1.347 . S
C63 H68 0.931 . S
C64 N65 1.375 . S
C64 C67 1.350 . S
C64 H69 0.930 1_565 S
N65 Co60 2.057 . S
N65 C63 1.316 . S
N65 C64 1.375 . S
N66 C63 1.347 . S
N66 C67 1.373 . S
C67 C64 1.350 . S
C67 N66 1.373 . S
C67 H88 0.931 . S
H68 C63 0.931 . S
H69 C64 0.930 1_545 S
C70 O77 1.259 . S
C70 O78 1.258 . S
N71 Co62 2.057 . S
N71 C72 1.316 . S
N71 C73 1.375 . S
C72 N71 1.316 . S
C72 N74 1.347 . S
C72 H83 0.931 . S
C73 N71 1.375 . S
C73 C75 1.350 . S
C73 H82 0.930 . S
N74 C72 1.347 . S
N74 C75 1.373 . S
C75 C73 1.350 . S
C75 N74 1.373 . S
C75 H89 0.931 . S
C76 O79 1.256 . S
C76 O80 1.255 1_545 S
O77 Co60 2.021 . S
O77 C70 1.259 . S
O78 Co62 2.117 1_565 S
O78 C70 1.258 . S
O79 Co62 2.020 . S
O79 C76 1.256 . S
O80 Co60 2.062 . S
O80 C76 1.255 1_565 S
O81 C61 1.259 . S
O81 Co62 2.021 . S
H82 C73 0.930 . S
H83 C72 0.931 . S
O84 Co60 2.117 1_545 S
O84 C61 1.258 . S
O85 Co60 2.020 1_545 S
O85 C87 1.256 . S
O86 Co62 2.062 . S
O86 C87 1.255 . S
C87 O85 1.256 . S
C87 O86 1.255 . S
H88 C67 0.931 . S
H89 C75 0.931 . S
Co90 N95 2.057 . S
Co90 O107 2.021 . S
Co90 O110 2.062 . S
Co90 O114 2.117 1_455 S
Co90 O115 2.020 . S
C91 O111 1.259 . S
C91 O114 1.258 . S
Co92 N101 2.057 . S
Co92 O108 2.117 1_655 S
Co92 O109 2.020 . S
Co92 O111 2.021 . S
Co92 O116 2.062 . S
C93 N95 1.316 . S
C93 N96 1.347 . S
C93 H98 0.931 . S
C94 N95 1.375 . S
C94 C97 1.350 . S
C94 H99 0.930 . S
N95 Co90 2.057 . S
N95 C93 1.316 . S
N95 C94 1.375 . S
N96 C93 1.347 . S
N96 C97 1.373 . S
C97 C94 1.350 . S
C97 N96 1.373 . S
C97 H118 0.931 . S
H98 C93 0.931 . S
H99 C94 0.930 . S
C100 O107 1.259 . S
C100 O108 1.258 . S
N101 Co92 2.057 . S
N101 C102 1.316 . S
N101 C103 1.375 . S
C102 N101 1.316 . S
C102 N104 1.347 . S
C102 H113 0.931 . S
C103 N101 1.375 . S
C103 C105 1.350 . S
C103 H112 0.930 1_655 S
N104 C102 1.347 . S
N104 C105 1.373 . S
C105 C103 1.350 . S
C105 N104 1.373 . S
C105 H119 0.931 . S
C106 O109 1.256 1_455 S
C106 O110 1.255 . S
O107 Co90 2.021 . S
O107 C100 1.259 . S
O108 Co92 2.117 1_455 S
O108 C100 1.258 . S
O109 Co92 2.020 . S
O109 C106 1.256 1_655 S
O110 Co90 2.062 . S
O110 C106 1.255 . S
O111 C91 1.259 . S
O111 Co92 2.021 . S
H112 C103 0.930 1_455 S
H113 C102 0.931 . S
O114 Co90 2.117 1_655 S
O114 C91 1.258 . S
O115 Co90 2.020 . S
O115 C117 1.256 . S
O116 Co92 2.062 . S
O116 C117 1.255 1_655 S
C117 O115 1.256 . S
C117 O116 1.255 1_455 S
H118 C97 0.931 . S
H119 C105 0.931 . S
Co120 N125 2.057 . S
Co120 O137 2.021 . S
Co120 O140 2.062 . S
Co120 O144 2.117 . S
Co120 O145 2.020 . S
C121 O141 1.259 . S
C121 O144 1.258 . S
Co122 N131 2.057 . S
Co122 O138 2.117 . S
Co122 O139 2.020 . S
Co122 O141 2.021 . S
Co122 O146 2.062 . S
C123 N125 1.316 . S
C123 N126 1.347 . S
C123 H128 0.931 . S
C124 N125 1.375 . S
C124 C127 1.350 . S
C124 H129 0.930 . S
N125 Co120 2.057 . S
N125 C123 1.316 . S
N125 C124 1.375 . S
N126 C123 1.347 . S
N126 C127 1.373 . S
C127 C124 1.350 . S
C127 N126 1.373 . S
C127 H148 0.931 . S
H128 C123 0.931 . S
H129 C124 0.930 . S
C130 O137 1.259 . S
C130 O138 1.258 . S
N131 Co122 2.057 . S
N131 C132 1.316 . S
N131 C133 1.375 . S
C132 N131 1.316 . S
C132 N134 1.347 . S
C132 H143 0.931 . S
C133 N131 1.375 . S
C133 C135 1.350 . S
C133 H142 0.930 . S
N134 C132 1.347 . S
N134 C135 1.373 . S
C135 C133 1.350 . S
C135 N134 1.373 . S
C135 H149 0.931 . S
C136 O139 1.256 . S
C136 O140 1.255 . S
O137 Co120 2.021 . S
O137 C130 1.259 . S
O138 Co122 2.117 . S
O138 C130 1.258 . S
O139 Co122 2.020 . S
O139 C136 1.256 . S
O140 Co120 2.062 . S
O140 C136 1.255 . S
O141 C121 1.259 . S
O141 Co122 2.021 . S
H142 C133 0.930 . S
H143 C132 0.931 . S
O144 Co120 2.117 . S
O144 C121 1.258 . S
O145 Co120 2.020 . S
O145 C147 1.256 . S
O146 Co122 2.062 . S
O146 C147 1.255 . S
C147 O145 1.256 . S
C147 O146 1.255 . S
H148 C127 0.931 . S
H149 C135 0.931 . S
Co150 N155 2.057 1_545 S
Co150 O167 2.021 1_545 S
Co150 O170 2.062 . S
Co150 O174 2.117 . S
Co150 O175 2.020 . S
C151 O171 1.259 . S
C151 O174 1.258 . S
Co152 N161 2.057 . S
Co152 O168 2.117 . S
Co152 O169 2.020 . S
Co152 O171 2.021 . S
Co152 O176 2.062 . S
C153 N155 1.316 . S
C153 N156 1.347 . S
C153 H158 0.931 . S
C154 N155 1.375 . S
C154 C157 1.350 . S
C154 H159 0.930 1_565 S
N155 Co150 2.057 1_565 S
N155 C153 1.316 . S
N155 C154 1.375 . S
N156 C153 1.347 . S
N156 C157 1.373 . S
C157 C154 1.350 . S
C157 N156 1.373 . S
C157 H178 0.931 . S
H158 C153 0.931 . S
H159 C154 0.930 1_545 S
C160 O167 1.259 . S
C160 O168 1.258 1_565 S
N161 Co152 2.057 . S
N161 C162 1.316 . S
N161 C163 1.375 . S
C162 N161 1.316 . S
C162 N164 1.347 . S
C162 H173 0.931 . S
C163 N161 1.375 . S
C163 C165 1.350 . S
C163 H172 0.930 . S
N164 C162 1.347 . S
N164 C165 1.373 . S
C165 C163 1.350 . S
C165 N164 1.373 . S
C165 H179 0.931 . S
C166 O169 1.256 . S
C166 O170 1.255 . S
O167 Co150 2.021 1_565 S
O167 C160 1.259 . S
O168 Co152 2.117 . S
O168 C160 1.258 1_545 S
O169 Co152 2.020 . S
O169 C166 1.256 . S
O170 Co150 2.062 . S
O170 C166 1.255 . S
O171 C151 1.259 . S
O171 Co152 2.021 . S
H172 C163 0.930 . S
H173 C162 0.931 . S
O174 Co150 2.117 . S
O174 C151 1.258 . S
O175 Co150 2.020 . S
O175 C177 1.256 . S
O176 Co152 2.062 . S
O176 C177 1.255 . S
C177 O175 1.256 . S
C177 O176 1.255 . S
H178 C157 0.931 . S
H179 C165 0.931 . S
Co180 N185 2.057 . S
Co180 O197 2.021 . S
Co180 O200 2.062 . S
Co180 O204 2.117 . S
Co180 O205 2.020 . S
C181 O201 1.259 . S
C181 O204 1.258 . S
Co182 N191 2.057 . S
Co182 O198 2.117 . S
Co182 O199 2.020 . S
Co182 O201 2.021 . S
Co182 O206 2.062 . S
C183 N185 1.316 . S
C183 N186 1.347 . S
C183 H188 0.931 . S
C184 N185 1.375 . S
C184 C187 1.350 . S
C184 H189 0.930 . S
N185 Co180 2.057 . S
N185 C183 1.316 . S
N185 C184 1.375 . S
N186 C183 1.347 . S
N186 C187 1.373 . S
C187 C184 1.350 . S
C187 N186 1.373 . S
C187 H208 0.931 . S
H188 C183 0.931 . S
H189 C184 0.930 . S
C190 O197 1.259 . S
C190 O198 1.258 . S
N191 Co182 2.057 . S
N191 C192 1.316 . S
N191 C193 1.375 . S
C192 N191 1.316 . S
C192 N194 1.347 . S
C192 H203 0.931 . S
C193 N191 1.375 . S
C193 C195 1.350 . S
C193 H202 0.930 . S
N194 C192 1.347 . S
N194 C195 1.373 . S
C195 C193 1.350 . S
C195 N194 1.373 . S
C195 H209 0.931 . S
C196 O199 1.256 1_554 S
C196 O200 1.255 1_554 S
O197 Co180 2.021 . S
O197 C190 1.259 . S
O198 Co182 2.117 . S
O198 C190 1.258 . S
O199 Co182 2.020 . S
O199 C196 1.256 1_556 S
O200 Co180 2.062 . S
O200 C196 1.255 1_556 S
O201 C181 1.259 . S
O201 Co182 2.021 . S
H202 C193 0.930 . S
H203 C192 0.931 . S
O204 Co180 2.117 . S
O204 C181 1.258 . S
O205 Co180 2.020 . S
O205 C207 1.256 . S
O206 Co182 2.062 . S
O206 C207 1.255 . S
C207 O205 1.256 . S
C207 O206 1.255 . S
H208 C187 0.931 . S
H209 C195 0.931 . S
Co210 N215 2.057 . S
Co210 O227 2.021 . S
Co210 O230 2.062 1_556 S
Co210 O234 2.117 . S
Co210 O235 2.020 . S
C211 O231 1.259 . S
C211 O234 1.258 . S
Co212 N221 2.057 . S
Co212 O228 2.117 . S
Co212 O229 2.020 1_556 S
Co212 O231 2.021 . S
Co212 O236 2.062 . S
C213 N215 1.316 . S
C213 N216 1.347 . S
C213 H218 0.931 . S
C214 N215 1.375 . S
C214 C217 1.350 . S
C214 H219 0.930 . S
N215 Co210 2.057 . S
N215 C213 1.316 . S
N215 C214 1.375 . S
N216 C213 1.347 . S
N216 C217 1.373 . S
C217 C214 1.350 . S
C217 N216 1.373 . S
C217 H238 0.931 . S
H218 C213 0.931 . S
H219 C214 0.930 . S
C220 O227 1.259 . S
C220 O228 1.258 . S
N221 Co212 2.057 . S
N221 C222 1.316 . S
N221 C223 1.375 . S
C222 N221 1.316 . S
C222 N224 1.347 . S
C222 H233 0.931 . S
C223 N221 1.375 . S
C223 C225 1.350 . S
C223 H232 0.930 . S
N224 C222 1.347 . S
N224 C225 1.373 . S
C225 C223 1.350 . S
C225 N224 1.373 . S
C225 H239 0.931 . S
C226 O229 1.256 . S
C226 O230 1.255 . S
O227 Co210 2.021 . S
O227 C220 1.259 . S
O228 Co212 2.117 . S
O228 C220 1.258 . S
O229 Co212 2.020 1_554 S
O229 C226 1.256 . S
O230 Co210 2.062 1_554 S
O230 C226 1.255 . S
O231 C211 1.259 . S
O231 Co212 2.021 . S
H232 C223 0.930 . S
H233 C222 0.931 . S
O234 Co210 2.117 . S
O234 C211 1.258 . S
O235 Co210 2.020 . S
O235 C237 1.256 . S
O236 Co212 2.062 . S
O236 C237 1.255 . S
C237 O235 1.256 . S
C237 O236 1.255 . S
H238 C217 0.931 . S
H239 C225 0.931 . S
Co240 N245 2.057 . S
Co240 O257 2.021 1_455 S
Co240 O260 2.062 1_556 S
Co240 O264 2.117 . S
Co240 O265 2.022 . S
C241 O261 1.259 . S
C241 O264 1.258 1_655 S
Co242 N251 2.057 . S
Co242 O258 2.117 . S
Co242 O259 2.020 . S
Co242 O261 2.021 . S
Co242 O266 2.062 . S
C243 N245 1.316 . S
C243 N246 1.347 . S
C243 H248 0.931 . S
C244 N245 1.375 . S
C244 C247 1.350 . S
C244 H249 0.930 . S
N245 Co240 2.057 . S
N245 C243 1.316 . S
N245 C244 1.375 . S
N246 C243 1.347 . S
N246 C247 1.373 . S
C247 C244 1.350 . S
C247 N246 1.373 . S
C247 H268 0.931 . S
H248 C243 0.931 . S
H249 C244 0.930 . S
C250 O257 1.259 . S
C250 O258 1.258 . S
N251 Co242 2.057 . S
N251 C252 1.316 . S
N251 C253 1.375 . S
C252 N251 1.316 . S
C252 N254 1.347 . S
C252 H263 0.931 . S
C253 N251 1.375 . S
C253 C255 1.350 . S
C253 H262 0.930 . S
N254 C252 1.347 . S
N254 C255 1.373 . S
C255 C253 1.350 . S
C255 N254 1.373 . S
C255 H269 0.931 . S
C256 O259 1.256 1_554 S
C256 O260 1.255 1_655 S
O257 Co240 2.021 1_655 S
O257 C250 1.259 . S
O258 Co242 2.117 . S
O258 C250 1.258 . S
O259 Co242 2.020 . S
O259 C256 1.256 1_556 S
O260 Co240 2.062 1_554 S
O260 C256 1.255 1_455 S
O261 C241 1.259 . S
O261 Co242 2.021 . S
H262 C253 0.930 . S
H263 C252 0.931 . S
O264 Co240 2.117 . S
O264 C241 1.258 1_455 S
O265 Co240 2.022 . S
O265 C267 1.241 1_455 S
O266 Co242 2.062 . S
O266 C267 1.255 . S
C267 O265 1.241 1_655 S
C267 O266 1.255 . S
H268 C247 0.931 . S
H269 C255 0.931 . S
Co270 N275 2.057 . S
Co270 O287 2.021 . S
Co270 O290 2.062 . S
Co270 O294 2.117 . S
Co270 O295 2.020 1_556 S
C271 O291 1.259 . S
C271 O294 1.258 . S
Co272 N281 2.057 . S
Co272 O288 2.117 . S
Co272 O289 2.020 . S
Co272 O291 2.021 . S
Co272 O296 2.062 1_556 S
C273 N275 1.316 . S
C273 N276 1.347 . S
C273 H278 0.931 . S
C274 N275 1.375 . S
C274 C277 1.350 . S
C274 H279 0.930 . S
N275 Co270 2.057 . S
N275 C273 1.316 . S
N275 C274 1.375 . S
N276 C273 1.347 . S
N276 C277 1.373 . S
C277 C274 1.350 . S
C277 N276 1.373 . S
C277 H298 0.931 . S
H278 C273 0.931 . S
H279 C274 0.930 . S
C280 O287 1.259 . S
C280 O288 1.258 . S
N281 Co272 2.057 . S
N281 C282 1.316 . S
N281 C283 1.375 . S
C282 N281 1.316 . S
C282 N284 1.347 . S
C282 H293 0.931 . S
C283 N281 1.375 . S
C283 C285 1.350 . S
C283 H292 0.930 . S
N284 C282 1.347 . S
N284 C285 1.373 . S
C285 C283 1.350 . S
C285 N284 1.373 . S
C285 H299 0.931 . S
C286 O289 1.256 . S
C286 O290 1.255 . S
O287 Co270 2.021 . S
O287 C280 1.259 . S
O288 Co272 2.117 . S
O288 C280 1.258 . S
O289 Co272 2.020 . S
O289 C286 1.256 . S
O290 Co270 2.062 . S
O290 C286 1.255 . S
O291 C271 1.259 . S
O291 Co272 2.021 . S
H292 C283 0.930 . S
H293 C282 0.931 . S
O294 Co270 2.117 . S
O294 C271 1.258 . S
O295 Co270 2.020 1_554 S
O295 C297 1.256 . S
O296 Co272 2.062 1_554 S
O296 C297 1.255 . S
C297 O295 1.256 . S
C297 O296 1.255 . S
H298 C277 0.931 . S
H299 C285 0.931 . S
Co300 N305 2.057 . S
Co300 O317 2.021 . S
Co300 O320 2.062 . S
Co300 O324 2.117 . S
Co300 O325 2.020 . S
C301 O321 1.259 . S
C301 O324 1.258 . S
Co302 N311 2.057 1_655 S
Co302 O318 2.117 . S
Co302 O319 2.020 . S
Co302 O321 2.021 . S
Co302 O326 2.062 . S
C303 N305 1.316 . S
C303 N306 1.347 . S
C303 H308 0.931 . S
C304 N305 1.375 . S
C304 C307 1.350 . S
C304 H309 0.930 . S
N305 Co300 2.057 . S
N305 C303 1.316 . S
N305 C304 1.375 . S
N306 C303 1.347 . S
N306 C307 1.373 . S
C307 C304 1.350 . S
C307 N306 1.373 . S
C307 H328 0.931 . S
H308 C303 0.931 . S
H309 C304 0.930 . S
C310 O317 1.259 . S
C310 O318 1.258 . S
N311 Co302 2.057 1_455 S
N311 C312 1.316 . S
N311 C313 1.375 . S
C312 N311 1.316 . S
C312 N314 1.347 . S
C312 H323 0.931 . S
C313 N311 1.375 . S
C313 C315 1.350 . S
C313 H322 0.930 . S
N314 C312 1.347 . S
N314 C315 1.373 . S
C315 C313 1.350 . S
C315 N314 1.373 . S
C315 H329 0.931 . S
C316 O319 1.256 . S
C316 O320 1.255 . S
O317 Co300 2.021 . S
O317 C310 1.259 . S
O318 Co302 2.117 . S
O318 C310 1.258 . S
O319 Co302 2.020 . S
O319 C316 1.256 . S
O320 Co300 2.062 . S
O320 C316 1.255 . S
O321 C301 1.259 . S
O321 Co302 2.021 . S
H322 C313 0.930 . S
H323 C312 0.931 . S
O324 Co300 2.117 . S
O324 C301 1.258 . S
O325 Co300 2.020 . S
O325 C327 1.256 1_556 S
O326 Co302 2.062 . S
O326 C327 1.255 1_556 S
C327 O325 1.256 1_554 S
C327 O326 1.255 1_554 S
H328 C307 0.931 . S
H329 C315 0.931 . S
Co330 N335 2.057 . S
Co330 O347 2.021 . S
Co330 O350 2.062 . S
Co330 O354 2.117 . S
Co330 O355 2.020 1_556 S
C331 O351 1.259 . S
C331 O354 1.258 . S
Co332 N341 2.057 . S
Co332 O348 2.117 . S
Co332 O349 2.020 . S
Co332 O351 2.021 . S
Co332 O356 2.062 1_556 S
C333 N335 1.316 . S
C333 N336 1.347 . S
C333 H338 0.931 . S
C334 N335 1.375 . S
C334 C337 1.350 . S
C334 H339 0.930 . S
N335 Co330 2.057 . S
N335 C333 1.316 . S
N335 C334 1.375 . S
N336 C333 1.347 . S
N336 C337 1.373 . S
C337 C334 1.350 . S
C337 N336 1.373 . S
C337 H358 0.931 . S
H338 C333 0.931 . S
H339 C334 0.930 . S
C340 O347 1.259 . S
C340 O348 1.258 . S
N341 Co332 2.057 . S
N341 C342 1.316 . S
N341 C343 1.375 . S
C342 N341 1.316 . S
C342 N344 1.347 . S
C342 H353 0.931 . S
C343 N341 1.375 . S
C343 C345 1.350 . S
C343 H352 0.930 . S
N344 C342 1.347 . S
N344 C345 1.373 . S
C345 C343 1.350 . S
C345 N344 1.373 . S
C345 H359 0.931 . S
C346 O349 1.256 . S
C346 O350 1.255 . S
O347 Co330 2.021 . S
O347 C340 1.259 . S
O348 Co332 2.117 . S
O348 C340 1.258 . S
O349 Co332 2.020 . S
O349 C346 1.256 . S
O350 Co330 2.062 . S
O350 C346 1.255 . S
O351 C331 1.259 . S
O351 Co332 2.021 . S
H352 C343 0.930 . S
H353 C342 0.931 . S
O354 Co330 2.117 . S
O354 C331 1.258 . S
O355 Co330 2.020 1_554 S
O355 C357 1.256 . S
O356 Co332 2.062 1_554 S
O356 C357 1.255 . S
C357 O355 1.256 . S
C357 O356 1.255 . S
H358 C337 0.931 . S
H359 C345 0.931 . S
Co360 N365 2.057 . S
Co360 O377 2.021 . S
Co360 O380 2.062 1_554 S
Co360 O384 2.117 . S
Co360 O385 2.020 . S
C361 O381 1.259 . S
C361 O384 1.258 . S
Co362 N371 2.057 . S
Co362 O378 2.117 . S
Co362 O379 2.020 1_554 S
Co362 O381 2.021 . S
Co362 O386 2.062 . S
C363 N365 1.316 1_545 S
C363 N366 1.347 . S
C363 H368 0.931 . S
C364 N365 1.375 1_545 S
C364 C367 1.350 . S
C364 H369 0.930 . S
N365 Co360 2.057 . S
N365 C363 1.316 1_565 S
N365 C364 1.375 1_565 S
N366 C363 1.347 . S
N366 C367 1.373 . S
C367 C364 1.350 . S
C367 N366 1.373 . S
C367 H388 0.931 . S
H368 C363 0.931 . S
H369 C364 0.930 . S
C370 O377 1.259 . S
C370 O378 1.258 . S
N371 Co362 2.057 . S
N371 C372 1.316 . S
N371 C373 1.375 . S
C372 N371 1.316 . S
C372 N374 1.347 . S
C372 H383 0.931 . S
C373 N371 1.375 . S
C373 C375 1.350 . S
C373 H382 0.930 . S
N374 C372 1.347 . S
N374 C375 1.373 . S
C375 C373 1.350 . S
C375 N374 1.373 . S
C375 H389 0.931 . S
C376 O379 1.256 . S
C376 O380 1.255 . S
O377 Co360 2.021 . S
O377 C370 1.259 . S
O378 Co362 2.117 . S
O378 C370 1.258 . S
O379 Co362 2.020 1_556 S
O379 C376 1.256 . S
O380 Co360 2.062 1_556 S
O380 C376 1.255 . S
O381 C361 1.259 . S
O381 Co362 2.021 . S
H382 C373 0.930 . S
H383 C372 0.931 . S
O384 Co360 2.117 . S
O384 C361 1.258 . S
O385 Co360 2.020 . S
O385 C387 1.256 . S
O386 Co362 2.062 . S
O386 C387 1.255 . S
C387 O385 1.256 . S
C387 O386 1.255 . S
H388 C367 0.931 . S
H389 C375 0.931 . S
Co390 N395 2.057 . S
Co390 O407 2.021 . S
Co390 O410 2.062 . S
Co390 O414 2.117 . S
Co390 O415 2.020 1_554 S
C391 O411 1.259 . S
C391 O414 1.258 . S
Co392 N401 2.057 . S
Co392 O408 2.117 . S
Co392 O409 2.020 . S
Co392 O411 2.021 . S
Co392 O416 2.062 1_554 S
C393 N395 1.316 . S
C393 N396 1.347 . S
C393 H398 0.931 . S
C394 N395 1.375 . S
C394 C397 1.350 . S
C394 H399 0.930 . S
N395 Co390 2.057 . S
N395 C393 1.316 . S
N395 C394 1.375 . S
N396 C393 1.347 . S
N396 C397 1.373 . S
C397 C394 1.350 . S
C397 N396 1.373 . S
C397 H418 0.931 . S
H398 C393 0.931 . S
H399 C394 0.930 . S
C400 O407 1.259 . S
C400 O408 1.258 . S
N401 Co392 2.057 . S
N401 C402 1.316 . S
N401 C403 1.375 . S
C402 N401 1.316 . S
C402 N404 1.347 . S
C402 H413 0.931 . S
C403 N401 1.375 . S
C403 C405 1.350 . S
C403 H412 0.930 . S
N404 C402 1.347 . S
N404 C405 1.373 . S
C405 C403 1.350 . S
C405 N404 1.373 . S
C405 H419 0.931 . S
C406 O409 1.256 . S
C406 O410 1.255 . S
O407 Co390 2.021 . S
O407 C400 1.259 . S
O408 Co392 2.117 . S
O408 C400 1.258 . S
O409 Co392 2.020 . S
O409 C406 1.256 . S
O410 Co390 2.062 . S
O410 C406 1.255 . S
O411 C391 1.259 . S
O411 Co392 2.021 . S
H412 C403 0.930 . S
H413 C402 0.931 . S
O414 Co390 2.117 . S
O414 C391 1.258 . S
O415 Co390 2.020 1_556 S
O415 C417 1.256 . S
O416 Co392 2.062 1_556 S
O416 C417 1.255 . S
C417 O415 1.256 . S
C417 O416 1.255 . S
H418 C397 0.931 . S
H419 C405 0.931 . S
Co420 N425 2.057 . S
Co420 O437 2.021 . S
Co420 O440 2.059 1_554 S
Co420 O444 2.117 . S
Co420 O445 2.020 . S
C421 O441 1.259 . S
C421 O444 1.258 . S
Co422 N431 2.057 . S
Co422 O438 2.117 . S
Co422 O439 2.020 . S
Co422 O441 2.021 . S
Co422 O446 2.062 . S
C423 N425 1.316 . S
C423 N426 1.347 . S
C423 H428 0.931 . S
C424 N425 1.375 . S
C424 C427 1.350 . S
C424 H429 0.930 . S
N425 Co420 2.057 . S
N425 C423 1.316 . S
N425 C424 1.375 . S
N426 C423 1.347 . S
N426 C427 1.373 . S
C427 C424 1.350 . S
C427 N426 1.373 . S
C427 H448 0.931 . S
H428 C423 0.931 . S
H429 C424 0.930 . S
C430 O437 1.259 . S
C430 O438 1.258 . S
N431 Co422 2.057 . S
N431 C432 1.316 . S
N431 C433 1.375 . S
C432 N431 1.316 . S
C432 N434 1.347 . S
C432 H443 0.931 . S
C433 N431 1.375 . S
C433 C435 1.350 . S
C433 H442 0.930 . S
N434 C432 1.347 . S
N434 C435 1.373 . S
C435 C433 1.350 . S
C435 N434 1.373 . S
C435 H449 0.931 . S
C436 O439 1.256 1_556 S
C436 O440 1.256 . S
O437 Co420 2.021 . S
O437 C430 1.259 . S
O438 Co422 2.117 . S
O438 C430 1.258 . S
O439 Co422 2.020 . S
O439 C436 1.256 1_554 S
O440 Co420 2.059 1_556 S
O440 C436 1.256 . S
O441 C421 1.259 . S
O441 Co422 2.021 . S
H442 C433 0.930 . S
H443 C432 0.931 . S
O444 Co420 2.117 . S
O444 C421 1.258 . S
O445 Co420 2.020 . S
O445 C447 1.256 . S
O446 Co422 2.062 . S
O446 C447 1.255 . S
C447 O445 1.256 . S
C447 O446 1.255 . S
H448 C427 0.931 . S
H449 C435 0.931 . S
Co450 N455 2.057 . S
Co450 O467 2.021 . S
Co450 O470 2.062 1_554 S
Co450 O474 2.117 . S
Co450 O475 2.020 . S
C451 O471 1.259 . S
C451 O474 1.258 . S
Co452 N461 2.057 . S
Co452 O468 2.117 . S
Co452 O469 2.020 1_554 S
Co452 O471 2.021 . S
Co452 O476 2.062 . S
C453 N455 1.316 . S
C453 N456 1.347 . S
C453 H458 0.931 . S
C454 N455 1.375 . S
C454 C457 1.350 . S
C454 H459 0.930 . S
N455 Co450 2.057 . S
N455 C453 1.316 . S
N455 C454 1.375 . S
N456 C453 1.347 . S
N456 C457 1.373 . S
C457 C454 1.350 . S
C457 N456 1.373 . S
C457 H478 0.931 . S
H458 C453 0.931 . S
H459 C454 0.930 . S
C460 O467 1.259 . S
C460 O468 1.258 . S
N461 Co452 2.057 . S
N461 C462 1.316 . S
N461 C463 1.375 . S
C462 N461 1.316 . S
C462 N464 1.347 . S
C462 H473 0.931 . S
C463 N461 1.375 . S
C463 C465 1.350 . S
C463 H472 0.930 . S
N464 C462 1.347 . S
N464 C465 1.373 . S
C465 C463 1.350 . S
C465 N464 1.373 . S
C465 H479 0.931 . S
C466 O469 1.256 . S
C466 O470 1.255 . S
O467 Co450 2.021 . S
O467 C460 1.259 . S
O468 Co452 2.117 . S
O468 C460 1.258 . S
O469 Co452 2.020 1_556 S
O469 C466 1.256 . S
O470 Co450 2.062 1_556 S
O470 C466 1.255 . S
O471 C451 1.259 . S
O471 Co452 2.021 . S
H472 C463 0.930 . S
H473 C462 0.931 . S
O474 Co450 2.117 . S
O474 C451 1.258 . S
O475 Co450 2.020 . S
O475 C477 1.256 . S
O476 Co452 2.062 . S
O476 C477 1.255 . S
C477 O475 1.256 . S
C477 O476 1.255 . S
H478 C457 0.931 . S
H479 C465 0.931 . S
Co480 N485 2.057 . S
Co480 O497 2.021 . S
Co480 O500 2.062 . S
Co480 O504 2.117 . S
Co480 O505 2.020 . S
C481 O501 1.259 . S
C481 O504 1.258 . S
Co482 N491 2.057 1_565 S
Co482 O498 2.117 . S
Co482 O499 2.020 . S
Co482 O501 2.021 . S
Co482 O506 2.062 . S
C483 N485 1.316 . S
C483 N486 1.347 . S
C483 H488 0.931 . S
C484 N485 1.375 . S
C484 C487 1.350 . S
C484 H489 0.930 . S
N485 Co480 2.057 . S
N485 C483 1.316 . S
N485 C484 1.375 . S
N486 C483 1.347 . S
N486 C487 1.373 . S
C487 C484 1.350 . S
C487 N486 1.373 . S
C487 H508 0.931 . S
H488 C483 0.931 . S
H489 C484 0.930 . S
C490 O497 1.259 . S
C490 O498 1.258 . S
N491 Co482 2.057 1_545 S
N491 C492 1.316 . S
N491 C493 1.375 . S
C492 N491 1.316 . S
C492 N494 1.347 . S
C492 H503 0.931 . S
C493 N491 1.375 . S
C493 C495 1.350 . S
C493 H502 0.930 . S
N494 C492 1.347 . S
N494 C495 1.373 . S
C495 C493 1.350 . S
C495 N494 1.373 . S
C495 H509 0.931 . S
C496 O499 1.256 . S
C496 O500 1.255 . S
O497 Co480 2.021 . S
O497 C490 1.259 . S
O498 Co482 2.117 . S
O498 C490 1.258 . S
O499 Co482 2.020 . S
O499 C496 1.256 . S
O500 Co480 2.062 . S
O500 C496 1.255 . S
O501 C481 1.259 . S
O501 Co482 2.021 . S
H502 C493 0.930 . S
H503 C492 0.931 . S
O504 Co480 2.117 . S
O504 C481 1.258 . S
O505 Co480 2.020 . S
O505 C507 1.256 1_554 S
O506 Co482 2.062 . S
O506 C507 1.255 1_554 S
C507 O505 1.256 1_556 S
C507 O506 1.255 1_556 S
H508 C487 0.931 . S
H509 C495 0.931 . S
Co510 N515 2.057 . S
Co510 O527 2.021 . S
Co510 O530 2.062 1_554 S
Co510 O534 2.117 . S
Co510 O535 2.020 . S
C511 O531 1.259 . S
C511 O534 1.258 . S
Co512 N521 2.057 . S
Co512 O528 2.117 . S
Co512 O529 2.020 1_554 S
Co512 O531 2.021 . S
Co512 O536 2.062 . S
C513 N515 1.316 . S
C513 N516 1.347 . S
C513 H518 0.931 . S
C514 N515 1.375 . S
C514 C517 1.350 . S
C514 H519 0.930 . S
N515 Co510 2.057 . S
N515 C513 1.316 . S
N515 C514 1.375 . S
N516 C513 1.347 . S
N516 C517 1.373 . S
C517 C514 1.350 . S
C517 N516 1.373 . S
C517 H538 0.931 . S
H518 C513 0.931 . S
H519 C514 0.930 . S
C520 O527 1.259 . S
C520 O528 1.258 . S
N521 Co512 2.057 . S
N521 C522 1.316 . S
N521 C523 1.375 . S
C522 N521 1.316 . S
C522 N524 1.347 . S
C522 H533 0.931 . S
C523 N521 1.375 . S
C523 C525 1.350 . S
C523 H532 0.930 . S
N524 C522 1.347 . S
N524 C525 1.373 . S
C525 C523 1.350 . S
C525 N524 1.373 . S
C525 H539 0.931 . S
C526 O529 1.256 . S
C526 O530 1.255 . S
O527 Co510 2.021 . S
O527 C520 1.259 . S
O528 Co512 2.117 . S
O528 C520 1.258 . S
O529 Co512 2.020 1_556 S
O529 C526 1.256 . S
O530 Co510 2.062 1_556 S
O530 C526 1.255 . S
O531 C511 1.259 . S
O531 Co512 2.021 . S
H532 C523 0.930 . S
H533 C522 0.931 . S
O534 Co510 2.117 . S
O534 C511 1.258 . S
O535 Co510 2.020 . S
O535 C537 1.256 . S
O536 Co512 2.062 . S
O536 C537 1.255 . S
C537 O535 1.256 . S
C537 O536 1.255 . S
H538 C517 0.931 . S
H539 C525 0.931 . S
N396 N6 2.310 . S
C31 C421 2.676 . S
N66 C361 1.862 . S
C61 C211 3.090 . S
C241 C1 4.282 . S
N36 C181 2.696 . S
N104 C310 3.356 . S
C130 C340 3.349 . S
C280 N164 1.973 . S
C490 C160 2.742 . S
C100 N524 1.899 . S
N464 N134 2.155 . S
N246 C391 1.817 1_556 S
N186 N426 3.173 1_556 S
N216 N366 2.598 1_556 S
N284 N494 2.899 1_556 S
C520 N314 2.806 1_554 S
C460 N344 2.248 1_554 S
C10 C121 1.866 . S
N156 N44 2.595 . S
N96 C70 3.127 . S
N126 N74 1.940 . S
C151 N14 2.427 . S
C91 C40 3.227 . S
N306 N194 1.525 . S
N336 N224 1.588 . S
N276 N254 1.848 . S
C301 C250 3.089 . S
C331 C190 2.500 . S
C271 C220 1.129 . S
C481 C370 0.491 . S
N516 N404 1.311 . S
C430 N456 1.612 . S
N434 N486 1.221 . S
N374 C511 1.923 . S
C451 C400 1.041 . S
C16 C27 1.424 1_554 S
C57 C46 1.408 1_554 S
C76 C87 1.427 1_554 S
C117 C106 1.426 1_556 S
C147 C136 1.416 1_554 S
C166 C177 1.440 1_554 S
C196 C207 1.493 . S
C237 C226 1.433 . S
C256 C267 1.441 . S
C297 C286 1.508 . S
C327 C316 1.408 . S
C357 C346 1.466 . S
C387 C376 1.456 . S
C417 C406 1.429 . S
C436 C447 1.409 . S
C466 C477 1.469 . S
C507 C496 1.431 . S
C537 C526 1.415 . S
