# Generated by pormake.
# Topology upb, (4)-cn, num edge types: 1
# Building blocks:
#     Node 0, Type 0, BuildingBlock: GALJAG_clean_sbu_0, # of connection points: 4
#     Node 1, Type 0, BuildingBlock: GALJAG_clean_sbu_0, # of connection points: 4
#     Node 2, Type 0, BuildingBlock: GALJAG_clean_sbu_0, # of connection points: 4
#     Node 3, Type 0, BuildingBlock: GALJAG_clean_sbu_0, # of connection points: 4
#     Node 4, Type 0, BuildingBlock: GALJAG_clean_sbu_0, # of connection points: 4
#     Node 5, Type 0, BuildingBlock: GALJAG_clean_sbu_0, # of connection points: 4
#     Node 6, Type 0, BuildingBlock: GALJAG_clean_sbu_0, # of connection points: 4
#     Node 7, Type 0, BuildingBlock: GALJAG_clean_sbu_0, # of connection points: 4
#     Node 8, Type 0, BuildingBlock: GALJAG_clean_sbu_0, # of connection points: 4
#     Node 9, Type 0, BuildingBlock: GALJAG_clean_sbu_0, # of connection points: 4
#     Node 10, Type 0, BuildingBlock: GALJAG_clean_sbu_0, # of connection points: 4
#     Node 11, Type 0, BuildingBlock: GALJAG_clean_sbu_0, # of connection points: 4
#     Node 12, Type 0, BuildingBlock: GALJAG_clean_sbu_0, # of connection points: 4
#     Node 13, Type 0, BuildingBlock: GALJAG_clean_sbu_0, # of connection points: 4
#     Node 14, Type 0, BuildingBlock: GALJAG_clean_sbu_0, # of connection points: 4
#     Node 15, Type 0, BuildingBlock: GALJAG_clean_sbu_0, # of connection points: 4
#     Edge 16, Type (0, 0), BuildingBlock: XUDNAN_clean_linker_2, # of connection points: 2
#     Edge 17, Type (0, 0), BuildingBlock: XUDNAN_clean_linker_2, # of connection points: 2
#     Edge 18, Type (0, 0), BuildingBlock: XUDNAN_clean_linker_2, # of connection points: 2
#     Edge 19, Type (0, 0), BuildingBlock: XUDNAN_clean_linker_2, # of connection points: 2
#     Edge 20, Type (0, 0), BuildingBlock: XUDNAN_clean_linker_2, # of connection points: 2
#     Edge 21, Type (0, 0), BuildingBlock: XUDNAN_clean_linker_2, # of connection points: 2
#     Edge 22, Type (0, 0), BuildingBlock: XUDNAN_clean_linker_2, # of connection points: 2
#     Edge 23, Type (0, 0), BuildingBlock: XUDNAN_clean_linker_2, # of connection points: 2
#     Edge 24, Type (0, 0), BuildingBlock: XUDNAN_clean_linker_2, # of connection points: 2
#     Edge 25, Type (0, 0), BuildingBlock: XUDNAN_clean_linker_2, # of connection points: 2
#     Edge 26, Type (0, 0), BuildingBlock: XUDNAN_clean_linker_2, # of connection points: 2
#     Edge 27, Type (0, 0), BuildingBlock: XUDNAN_clean_linker_2, # of connection points: 2
#     Edge 28, Type (0, 0), BuildingBlock: XUDNAN_clean_linker_2, # of connection points: 2
#     Edge 29, Type (0, 0), BuildingBlock: XUDNAN_clean_linker_2, # of connection points: 2
#     Edge 30, Type (0, 0), BuildingBlock: XUDNAN_clean_linker_2, # of connection points: 2
#     Edge 31, Type (0, 0), BuildingBlock: XUDNAN_clean_linker_2, # of connection points: 2
#     Edge 32, Type (0, 0), BuildingBlock: XUDNAN_clean_linker_2, # of connection points: 2
#     Edge 33, Type (0, 0), BuildingBlock: XUDNAN_clean_linker_2, # of connection points: 2
#     Edge 34, Type (0, 0), BuildingBlock: XUDNAN_clean_linker_2, # of connection points: 2
#     Edge 35, Type (0, 0), BuildingBlock: XUDNAN_clean_linker_2, # of connection points: 2
#     Edge 36, Type (0, 0), BuildingBlock: XUDNAN_clean_linker_2, # of connection points: 2
#     Edge 37, Type (0, 0), BuildingBlock: XUDNAN_clean_linker_2, # of connection points: 2
#     Edge 38, Type (0, 0), BuildingBlock: XUDNAN_clean_linker_2, # of connection points: 2
#     Edge 39, Type (0, 0), BuildingBlock: XUDNAN_clean_linker_2, # of connection points: 2
#     Edge 40, Type (0, 0), BuildingBlock: XUDNAN_clean_linker_2, # of connection points: 2
#     Edge 41, Type (0, 0), BuildingBlock: XUDNAN_clean_linker_2, # of connection points: 2
#     Edge 42, Type (0, 0), BuildingBlock: XUDNAN_clean_linker_2, # of connection points: 2
#     Edge 43, Type (0, 0), BuildingBlock: XUDNAN_clean_linker_2, # of connection points: 2
#     Edge 44, Type (0, 0), BuildingBlock: XUDNAN_clean_linker_2, # of connection points: 2
#     Edge 45, Type (0, 0), BuildingBlock: XUDNAN_clean_linker_2, # of connection points: 2
#     Edge 46, Type (0, 0), BuildingBlock: XUDNAN_clean_linker_2, # of connection points: 2
#     Edge 47, Type (0, 0), BuildingBlock: XUDNAN_clean_linker_2, # of connection points: 2
# Relax obj value: 0.253
# Max RMSD: 0.089
# Mean RMSD: 0.089
data_MOF--net-upb--node1-GALJAG_clean_sbu_0--edge1-XUDNAN_clean_linker_2
_symmetry_space_group_name_H-M    P1
_symmetry_Int_Tables_number       1
_symmetry_cell_setting            triclinic
loop_
_symmetry_equiv_pos_as_xyz
'x, y, z'
_cell_length_a     44.155995
_cell_length_b     44.125554
_cell_length_c     36.356293
_cell_angle_alpha  90.015659
_cell_angle_beta   90.029649
_cell_angle_gamma 89.980517
loop_
_atom_site_label
_atom_site_type_symbol
_atom_site_fract_x
_atom_site_fract_y
_atom_site_fract_z
_atom_type_partial_charge
In0 In 0.04834 0.22344 0.30294 0.0
O1 O 0.0945 0.20448 0.31984 0.0
O2 O 0.07645 0.19073 0.26831 0.0
C3 C 0.02222 0.22895 0.36918 0.0
C4 C 0.06776 0.27966 0.28588 0.0
C5 C 0.99979 0.19431 0.27593 0.0
O6 O 0.04511 0.2122 0.36405 0.0
O7 O 0.0132 0.24324 0.34116 0.0
O8 O 0.00781 0.21981 0.26323 0.0
O9 O 0.01705 0.1835 0.30023 0.0
C10 C 0.0979 0.18887 0.29107 0.0
O11 O 0.05968 0.26107 0.26126 0.0
O12 O 0.06556 0.26992 0.31826 0.0
In13 In 0.76253 0.04534 0.30037 0.0
O14 O 0.80333 0.07412 0.3153 0.0
O15 O 0.78938 0.07433 0.25938 0.0
C16 C 0.74632 0.02851 0.3686 0.0
C17 C 0.71046 0.07221 0.27979 0.0
C18 C 0.78789 0.99266 0.2791 0.0
O19 O 0.76232 0.05174 0.36259 0.0
O20 O 0.73763 0.01459 0.34013 0.0
O21 O 0.76895 0.0062 0.25877 0.0
O22 O 0.79396 0.00599 0.3088 0.0
C23 C 0.80804 0.08362 0.28311 0.0
O24 O 0.71955 0.04786 0.26515 0.0
O25 O 0.72775 0.08285 0.30418 0.0
In26 In 0.95626 0.77015 0.29754 0.0
O27 O 0.93322 0.73749 0.25751 0.0
O28 O 0.95827 0.71848 0.30146 0.0
C29 C 0.00829 0.79706 0.27591 0.0
C30 C 0.91242 0.81025 0.2799 0.0
C31 C 0.95938 0.76353 0.37102 0.0
O32 O 0.0015 0.77059 0.26553 0.0
O33 O 0.98882 0.80949 0.29615 0.0
O34 O 0.93455 0.76305 0.35376 0.0
O35 O 0.98255 0.76717 0.35118 0.0
C36 C 0.94122 0.71383 0.27429 0.0
O37 O 0.91863 0.80288 0.31255 0.0
O38 O 0.92805 0.79698 0.25571 0.0
In39 In 0.23887 0.95663 0.29832 0.0
O40 O 0.27716 0.95081 0.25606 0.0
O41 O 0.28074 0.92763 0.30695 0.0
C42 C 0.22715 0.01321 0.274 0.0
C43 C 0.19247 0.91998 0.27887 0.0
C44 C 0.24052 0.96208 0.3723 0.0
O45 O 0.25153 0.0063 0.29013 0.0
O46 O 0.20956 0.99118 0.26817 0.0
O47 O 0.24025 0.9367 0.35635 0.0
O48 O 0.23993 0.98459 0.35103 0.0
C49 C 0.29227 0.93288 0.27596 0.0
O50 O 0.19144 0.93766 0.30607 0.0
O51 O 0.21691 0.9209 0.26095 0.0
In52 In 0.03462 0.76957 0.70077 0.0
O53 O 0.06875 0.80501 0.68271 0.0
O54 O 0.07022 0.7909 0.73857 0.0
C55 C 0.0113 0.76251 0.63312 0.0
C56 C 0.05805 0.71429 0.71475 0.0
C57 C 0.9869 0.79872 0.73047 0.0
O58 O 0.03726 0.77378 0.63856 0.0
O59 O 0.99733 0.75445 0.66183 0.0
O60 O 0.9915 0.77089 0.73683 0.0
O61 O 0.00675 0.81123 0.71086 0.0
C62 C 0.08077 0.80808 0.71398 0.0
O63 O 0.04854 0.73122 0.74031 0.0
O64 O 0.05523 0.72506 0.68292 0.0
In65 In 0.22792 0.04519 0.69959 0.0
O66 O 0.21131 0.09194 0.68117 0.0
O67 O 0.18989 0.07163 0.7273 0.0
C68 C 0.23733 0.02305 0.63166 0.0
C69 C 0.28203 0.06316 0.72703 0.0
C70 C 0.19809 0.99578 0.7234 0.0
O71 O 0.22437 0.04829 0.63684 0.0
O72 O 0.24605 0.00978 0.6605 0.0
O73 O 0.22219 0.00459 0.73897 0.0
O74 O 0.18883 0.01268 0.69785 0.0
C75 C 0.19134 0.09405 0.70589 0.0
O76 O 0.25821 0.06354 0.74617 0.0
O77 O 0.27859 0.05293 0.69505 0.0
In78 In 0.95715 0.23687 0.69905 0.0
O79 O 0.9428 0.26807 0.74641 0.0
O80 O 0.95545 0.28821 0.69574 0.0
C81 C 0.01525 0.22541 0.71778 0.0
C82 C 0.9123 0.19809 0.7182 0.0
C83 C 0.9553 0.23079 0.62512 0.0
O84 O 0.00779 0.24586 0.69532 0.0
O85 O 0.99323 0.21189 0.73266 0.0
O86 O 0.97151 0.21424 0.64531 0.0
O87 O 0.93935 0.24976 0.64225 0.0
C88 C 0.9454 0.29209 0.72779 0.0
O89 O 0.90726 0.22411 0.70535 0.0
O90 O 0.93997 0.19163 0.72174 0.0
In91 In 0.76376 0.96589 0.70198 0.0
O92 O 0.8088 0.9422 0.69394 0.0
O93 O 0.78325 0.93021 0.74134 0.0
C94 C 0.7573 0.97296 0.62859 0.0
C95 C 0.71032 0.94228 0.72372 0.0
C96 C 0.78366 0.0199 0.7272 0.0
O97 O 0.7631 0.94777 0.6433 0.0
O98 O 0.75526 0.99483 0.65073 0.0
O99 O 0.75599 0.01513 0.72034 0.0
O100 O 0.80062 0.99724 0.72269 0.0
C101 C 0.80704 0.92628 0.72268 0.0
O102 O 0.72449 0.96113 0.74347 0.0
O103 O 0.72285 0.93621 0.69354 0.0
In104 In 0.54717 0.72789 0.80002 0.0
O105 O 0.57284 0.76133 0.76343 0.0
O106 O 0.54816 0.7792 0.80838 0.0
C107 C 0.48964 0.72323 0.77577 0.0
C108 C 0.58101 0.68003 0.77741 0.0
C109 C 0.54846 0.71889 0.87327 0.0
O110 O 0.51199 0.72314 0.75409 0.0
O111 O 0.49638 0.72718 0.80913 0.0
O112 O 0.56816 0.73443 0.85668 0.0
O113 O 0.52849 0.70733 0.8528 0.0
C114 C 0.56553 0.78446 0.78173 0.0
O115 O 0.55429 0.68458 0.7667 0.0
O116 O 0.591 0.69985 0.79919 0.0
In117 In 0.27562 0.55155 0.78544 0.0
O118 O 0.30381 0.59274 0.8009 0.0
O119 O 0.30132 0.58096 0.74426 0.0
C120 C 0.26473 0.53073 0.85377 0.0
C121 C 0.22193 0.575 0.76509 0.0
C122 C 0.30379 0.50165 0.75947 0.0
O123 O 0.28717 0.54738 0.84649 0.0
O124 O 0.24787 0.52478 0.82673 0.0
O125 O 0.2768 0.50797 0.75083 0.0
O126 O 0.3164 0.52078 0.78014 0.0
C127 C 0.31177 0.59871 0.76836 0.0
O128 O 0.23543 0.55522 0.74599 0.0
O129 O 0.23568 0.58293 0.79394 0.0
In130 In 0.45682 0.27124 0.7974 0.0
O131 O 0.45377 0.22593 0.76699 0.0
O132 O 0.42106 0.23527 0.80829 0.0
C133 C 0.51386 0.27849 0.7718 0.0
C134 C 0.42264 0.31647 0.76932 0.0
C135 C 0.46073 0.27923 0.87085 0.0
O136 O 0.50781 0.26925 0.80368 0.0
O137 O 0.49099 0.28271 0.75162 0.0
O138 O 0.4464 0.29718 0.85022 0.0
O139 O 0.47212 0.25668 0.85464 0.0
C140 C 0.43079 0.21692 0.78449 0.0
O141 O 0.44624 0.32103 0.78804 0.0
O142 O 0.41634 0.2889 0.76412 0.0
In143 In 0.72883 0.4456 0.80756 0.0
O144 O 0.77226 0.44908 0.77216 0.0
O145 O 0.77254 0.42029 0.81857 0.0
C146 C 0.70109 0.49528 0.78019 0.0
C147 C 0.69337 0.39994 0.78372 0.0
C148 C 0.72591 0.45414 0.88101 0.0
O149 O 0.72627 0.49679 0.79663 0.0
O150 O 0.69046 0.46891 0.77707 0.0
O151 O 0.72451 0.42836 0.8662 0.0
O152 O 0.72832 0.47593 0.85877 0.0
C153 C 0.78695 0.4305 0.79157 0.0
O154 O 0.69334 0.40927 0.81653 0.0
O155 O 0.71134 0.41373 0.76249 0.0
In156 In 0.53399 0.27446 0.20031 0.0
O157 O 0.58345 0.28978 0.19752 0.0
O158 O 0.55287 0.31614 0.22934 0.0
C159 C 0.52409 0.28848 0.12888 0.0
C160 C 0.55396 0.21953 0.22206 0.0
C161 C 0.47718 0.27961 0.22721 0.0
O162 O 0.51722 0.30597 0.15492 0.0
O163 O 0.53717 0.26442 0.1387 0.0
O164 O 0.48471 0.25957 0.20428 0.0
O165 O 0.49886 0.29559 0.23875 0.0
C166 C 0.57958 0.31258 0.21791 0.0
O167 O 0.55402 0.24221 0.24327 0.0
O168 O 0.54279 0.22439 0.19073 0.0
In169 In 0.73154 0.54124 0.20789 0.0
O170 O 0.70815 0.58674 0.19856 0.0
O171 O 0.69855 0.56315 0.24828 0.0
C172 C 0.7338 0.51909 0.13881 0.0
C173 C 0.78597 0.56476 0.22609 0.0
C174 C 0.70788 0.48985 0.23503 0.0
O175 O 0.71745 0.54158 0.14696 0.0
O176 O 0.74935 0.50872 0.16495 0.0
O177 O 0.73586 0.49576 0.23749 0.0
O178 O 0.69199 0.51039 0.22044 0.0
C179 C 0.69388 0.58621 0.2286 0.0
O180 O 0.77164 0.54752 0.24767 0.0
O181 O 0.77296 0.56968 0.19588 0.0
In182 In 0.46337 0.72299 0.19894 0.0
O183 O 0.41598 0.70667 0.18341 0.0
O184 O 0.43837 0.68433 0.22753 0.0
C185 C 0.48985 0.7198 0.13202 0.0
C186 C 0.44047 0.77844 0.21398 0.0
C187 C 0.51188 0.70419 0.23772 0.0
O188 O 0.46547 0.70608 0.13911 0.0
O189 O 0.50029 0.73516 0.15824 0.0
O190 O 0.50466 0.73185 0.23544 0.0
O191 O 0.49365 0.68619 0.22236 0.0
C192 C 0.41505 0.68618 0.20758 0.0
O193 O 0.44363 0.75848 0.23859 0.0
O194 O 0.44936 0.77053 0.18252 0.0
In195 In 0.26567 0.45351 0.18372 0.0
O196 O 0.28913 0.40917 0.16914 0.0
O197 O 0.29849 0.42825 0.22163 0.0
C198 C 0.25939 0.4661 0.11161 0.0
C199 C 0.21444 0.4304 0.21264 0.0
C200 C 0.28474 0.50878 0.2057 0.0
O201 O 0.23735 0.46399 0.1334 0.0
O202 O 0.28505 0.46191 0.12608 0.0
O203 O 0.25745 0.50346 0.19761 0.0
O204 O 0.30199 0.48605 0.20403 0.0
C205 C 0.30292 0.40677 0.19937 0.0
O206 O 0.22996 0.44994 0.22974 0.0
O207 O 0.22478 0.42307 0.18168 0.0
H208 H 0.09981 0.1371 0.25035 0.0
H209 H 0.15461 0.19489 0.32011 0.0
H210 H 0.19759 0.15926 0.31375 0.0
H211 H 0.12291 0.07005 0.29052 0.0
H212 H 0.1222 0.04781 0.24893 0.0
H213 H 0.09808 0.08043 0.2532 0.0
H214 H 0.12104 0.10278 0.19346 0.0
H215 H 0.14543 0.07019 0.18915 0.0
H216 H 0.16146 0.10775 0.18995 0.0
H217 H 0.23271 0.11532 0.3046 0.0
H218 H 0.25498 0.06416 0.3 0.0
H219 H 0.17612 0.03359 0.23923 0.0
C220 C 0.12116 0.14261 0.26342 0.0
C221 C 0.1242 0.16888 0.28525 0.0
C222 C 0.15203 0.17493 0.30304 0.0
C223 C 0.17658 0.15496 0.29935 0.0
C224 C 0.17276 0.12895 0.27803 0.0
C225 C 0.14563 0.1226 0.26064 0.0
C226 C 0.14595 0.09126 0.24363 0.0
C227 C 0.12081 0.07122 0.26007 0.0
C228 C 0.14332 0.09312 0.20154 0.0
C229 C 0.17711 0.08056 0.2552 0.0
C230 C 0.19254 0.10294 0.27411 0.0
C231 C 0.22101 0.09775 0.28946 0.0
C232 C 0.23352 0.06863 0.28659 0.0
C233 C 0.21731 0.04496 0.26914 0.0
C234 C 0.18919 0.05134 0.25231 0.0
H235 H 0.97128 0.15219 0.31704 0.0
H236 H 0.96201 0.20419 0.21646 0.0
H237 H 0.91161 0.18061 0.20574 0.0
H238 H 0.93421 0.08384 0.28727 0.0
H239 H 0.91633 0.07783 0.33122 0.0
H240 H 0.95212 0.09726 0.32876 0.0
H241 H 0.92896 0.14299 0.36366 0.0
H242 H 0.89305 0.12381 0.36604 0.0
H243 H 0.89539 0.16102 0.34579 0.0
H244 H 0.86177 0.15023 0.20696 0.0
H245 H 0.81672 0.11881 0.2216 0.0
H246 H 0.859 0.09088 0.32378 0.0
C247 C 0.95894 0.15833 0.29238 0.0
C248 C 0.97065 0.17962 0.26722 0.0
C249 C 0.95345 0.18765 0.23585 0.0
C250 C 0.92488 0.1744 0.22961 0.0
C251 C 0.91388 0.15361 0.25534 0.0
C252 C 0.93042 0.14589 0.28623 0.0
C253 C 0.91326 0.12449 0.31099 0.0
C254 C 0.92997 0.09405 0.31476 0.0
C255 C 0.90731 0.13896 0.34885 0.0
C256 C 0.88436 0.12111 0.28926 0.0
C257 C 0.88509 0.13773 0.25703 0.0
C258 C 0.86095 0.13731 0.23224 0.0
C259 C 0.83551 0.11945 0.24074 0.0
C260 C 0.83436 0.10274 0.27397 0.0
C261 C 0.8591 0.10375 0.29841 0.0
H262 H 0.81288 0.9537 0.32751 0.0
H263 H 0.79446 0.9653 0.21123 0.0
H264 H 0.8219 0.91726 0.19811 0.0
H265 H 0.8865 0.92637 0.31953 0.0
H266 H 0.88332 0.89983 0.357 0.0
H267 H 0.86046 0.93355 0.35671 0.0
H268 H 0.81185 0.90092 0.3624 0.0
H269 H 0.8346 0.86702 0.36283 0.0
H270 H 0.80479 0.87129 0.32934 0.0
H271 H 0.85605 0.87005 0.19834 0.0
H272 H 0.891 0.82746 0.21194 0.0
H273 H 0.88408 0.84736 0.32845 0.0
C274 C 0.81434 0.94604 0.29925 0.0
C275 C 0.80178 0.96316 0.27029 0.0
C276 C 0.80394 0.95234 0.23376 0.0
C277 C 0.81947 0.92517 0.22613 0.0
C278 C 0.8321 0.90906 0.25547 0.0
C279 C 0.82927 0.91903 0.29134 0.0
C280 C 0.84538 0.89843 0.31809 0.0
C281 C 0.87039 0.91557 0.33904 0.0
C282 C 0.8228 0.88353 0.34473 0.0
C283 C 0.85853 0.87557 0.29172 0.0
C284 C 0.85068 0.88188 0.25568 0.0
C285 C 0.86191 0.86468 0.2265 0.0
C286 C 0.88176 0.8406 0.23445 0.0
C287 C 0.89 0.83402 0.27125 0.0
C288 C 0.87787 0.85157 0.30008 0.0
H289 H 0.02875 0.84984 0.30478 0.0
H290 H 0.05354 0.77813 0.22891 0.0
H291 H 0.10301 0.80338 0.21815 0.0
H292 H 0.06495 0.9121 0.25682 0.0
H293 H 0.07669 0.9302 0.29894 0.0
H294 H 0.04278 0.90752 0.29808 0.0
H295 H 0.06372 0.87468 0.35149 0.0
H296 H 0.09767 0.89719 0.35249 0.0
H297 H 0.10017 0.8567 0.34664 0.0
H298 H 0.1507 0.83645 0.21782 0.0
H299 H 0.19253 0.87261 0.22983 0.0
H300 H 0.13562 0.92073 0.30757 0.0
C301 C 0.04436 0.83957 0.28549 0.0
C302 C 0.03729 0.81216 0.26743 0.0
C303 C 0.05854 0.79924 0.24286 0.0
C304 C 0.0866 0.81344 0.23658 0.0
C305 C 0.09293 0.84039 0.2552 0.0
C306 C 0.07234 0.8532 0.27923 0.0
C307 C 0.0849 0.88126 0.29751 0.0
C308 C 0.06622 0.90943 0.2872 0.0
C309 C 0.08673 0.87719 0.33951 0.0
C310 C 0.116 0.88223 0.28036 0.0
C311 C 0.12023 0.85872 0.25572 0.0
C312 C 0.14754 0.85496 0.23697 0.0
C313 C 0.17113 0.87559 0.24392 0.0
C314 C 0.16726 0.89938 0.26966 0.0
C315 C 0.13925 0.90275 0.28777 0.0
H316 H 0.09491 0.85584 0.67025 0.0
H317 H 0.11573 0.81538 0.77596 0.0
H318 H 0.14949 0.85871 0.79045 0.0
H319 H 0.16887 0.88859 0.65203 0.0
H320 H 0.15289 0.92213 0.63146 0.0
H321 H 0.13283 0.88667 0.62883 0.0
H322 H 0.0858 0.912 0.65856 0.0
H323 H 0.10581 0.94743 0.66165 0.0
H324 H 0.08962 0.93074 0.70239 0.0
H325 H 0.18067 0.90795 0.79301 0.0
H326 H 0.20459 0.95842 0.78389 0.0
H327 H 0.15941 0.96629 0.67837 0.0
C328 C 0.10697 0.85577 0.6962 0.0
C329 C 0.10302 0.83217 0.72184 0.0
C330 C 0.11868 0.83322 0.75583 0.0
C331 C 0.13785 0.85771 0.76428 0.0
C332 C 0.1408 0.88098 0.73854 0.0
C333 C 0.12568 0.88011 0.70522 0.0
C334 C 0.1311 0.90846 0.68298 0.0
C335 C 0.1474 0.90101 0.64669 0.0
C336 C 0.10131 0.92566 0.67601 0.0
C337 C 0.15148 0.92561 0.70899 0.0
C338 C 0.15725 0.90942 0.74075 0.0
C339 C 0.17616 0.92084 0.76829 0.0
C340 C 0.18958 0.94947 0.76298 0.0
C341 C 0.18349 0.96634 0.73071 0.0
C342 C 0.16411 0.95416 0.70364 0.0
H343 H 0.13867 0.09728 0.74508 0.0
H344 H 0.1968 0.14942 0.67274 0.0
H345 H 0.16063 0.19219 0.67543 0.0
H346 H 0.0708 0.11899 0.70392 0.0
H347 H 0.04918 0.12013 0.74594 0.0
H348 H 0.08153 0.09556 0.7424 0.0
H349 H 0.10488 0.12065 0.80032 0.0
H350 H 0.07259 0.14549 0.80388 0.0
H351 H 0.11023 0.16115 0.8014 0.0
H352 H 0.11631 0.22732 0.68167 0.0
H353 H 0.06566 0.25056 0.68686 0.0
H354 H 0.03582 0.17506 0.75413 0.0
C355 C 0.14408 0.11795 0.73043 0.0
C356 C 0.17063 0.12022 0.70896 0.0
C357 C 0.17662 0.14731 0.68946 0.0
C358 C 0.15631 0.17175 0.69102 0.0
C359 C 0.13014 0.16868 0.71215 0.0
C360 C 0.12391 0.1424 0.73138 0.0
C361 C 0.09285 0.14367 0.749 0.0
C362 C 0.07239 0.11808 0.73443 0.0
C363 C 0.0953 0.14269 0.79115 0.0
C364 C 0.0822 0.17445 0.73586 0.0
C365 C 0.10427 0.18875 0.71522 0.0
C366 C 0.09901 0.21653 0.69817 0.0
C367 C 0.07017 0.22958 0.70134 0.0
C368 C 0.04687 0.21472 0.72111 0.0
C369 C 0.05332 0.18722 0.73939 0.0
H370 H 0.91798 0.13805 0.73535 0.0
H371 H 0.85129 0.20891 0.71853 0.0
H372 H 0.81019 0.17154 0.72719 0.0
H373 H 0.88079 0.08298 0.68466 0.0
H374 H 0.89121 0.05168 0.7139 0.0
H375 H 0.91502 0.08467 0.71165 0.0
H376 H 0.91121 0.0909 0.78242 0.0
H377 H 0.88729 0.05786 0.78486 0.0
H378 H 0.87446 0.09337 0.8038 0.0
H379 H 0.77655 0.12543 0.73139 0.0
H380 H 0.75354 0.07434 0.7283 0.0
H381 H 0.84245 0.03401 0.74195 0.0
C382 C 0.89473 0.14583 0.73433 0.0
C383 C 0.88778 0.17638 0.72653 0.0
C384 C 0.85709 0.1856 0.72465 0.0
C385 C 0.8336 0.16457 0.72968 0.0
C386 C 0.84122 0.13446 0.7367 0.0
C387 C 0.87107 0.12513 0.73908 0.0
C388 C 0.87331 0.09112 0.74354 0.0
C389 C 0.89112 0.07679 0.71153 0.0
C390 C 0.8874 0.08283 0.78088 0.0
C391 C 0.84014 0.08263 0.74213 0.0
C392 C 0.8219 0.10793 0.73877 0.0
C393 C 0.79057 0.10549 0.73457 0.0
C394 C 0.77769 0.0764 0.7329 0.0
C395 C 0.79618 0.05026 0.7351 0.0
C396 C 0.82767 0.05358 0.74063 0.0
H397 H 0.86525 0.92693 0.69922 0.0
H398 H 0.80339 0.87785 0.77002 0.0
H399 H 0.84404 0.84078 0.78432 0.0
H400 H 0.90183 0.86428 0.66088 0.0
H401 H 0.93868 0.88182 0.65978 0.0
H402 H 0.90517 0.9049 0.6574 0.0
H403 H 0.92348 0.93566 0.71403 0.0
H404 H 0.95708 0.91259 0.71661 0.0
H405 H 0.93267 0.9161 0.7561 0.0
H406 H 0.89103 0.80625 0.78529 0.0
H407 H 0.93992 0.77961 0.77511 0.0
H408 H 0.97023 0.85433 0.70696 0.0
C409 C 0.8603 0.90853 0.718 0.0
C410 C 0.83126 0.90505 0.7334 0.0
C411 C 0.82563 0.88084 0.75801 0.0
C412 C 0.84854 0.85974 0.76626 0.0
C413 C 0.87697 0.86364 0.75017 0.0
C414 C 0.8829 0.88773 0.72693 0.0
C415 C 0.91487 0.88679 0.71238 0.0
C416 C 0.91513 0.88428 0.67012 0.0
C417 C 0.93309 0.91442 0.72559 0.0
C418 C 0.92592 0.85798 0.73027 0.0
C419 C 0.90391 0.84477 0.75199 0.0
C420 C 0.9086 0.81671 0.76889 0.0
C421 C 0.93636 0.80175 0.76301 0.0
C422 C 0.95895 0.81507 0.74064 0.0
C423 C 0.95366 0.84375 0.72476 0.0
H424 H 0.63672 0.66222 0.8029 0.0
H425 H 0.56384 0.63563 0.72957 0.0
H426 H 0.59017 0.58746 0.71672 0.0
H427 H 0.69926 0.62583 0.75005 0.0
H428 H 0.71881 0.61443 0.79133 0.0
H429 H 0.69622 0.64847 0.79117 0.0
H430 H 0.6654 0.62822 0.8466 0.0
H431 H 0.6878 0.59418 0.84689 0.0
H432 H 0.64716 0.59177 0.84323 0.0
H433 H 0.62083 0.54014 0.71759 0.0
H434 H 0.6542 0.49679 0.73168 0.0
H435 H 0.70802 0.55397 0.80345 0.0
C436 C 0.62667 0.64654 0.7835 0.0
C437 C 0.59832 0.65268 0.76707 0.0
C438 C 0.58561 0.63142 0.74232 0.0
C439 C 0.60044 0.60404 0.73477 0.0
C440 C 0.62807 0.59838 0.75196 0.0
C441 C 0.6412 0.61908 0.77563 0.0
C442 C 0.66991 0.60644 0.79262 0.0
C443 C 0.6977 0.62489 0.78056 0.0
C444 C 0.66739 0.60506 0.83482 0.0
C445 C 0.67026 0.57502 0.7758 0.0
C446 C 0.64608 0.57099 0.75212 0.0
C447 C 0.64018 0.54317 0.7355 0.0
C448 C 0.6592 0.51868 0.74374 0.0
C449 C 0.68383 0.52218 0.7683 0.0
C450 C 0.68975 0.55087 0.78393 0.0
H451 H 0.44094 0.71394 0.82004 0.0
H452 H 0.46978 0.70983 0.70616 0.0
H453 H 0.42201 0.6839 0.68981 0.0
H454 H 0.41462 0.64284 0.82472 0.0
H455 H 0.38272 0.65021 0.85433 0.0
H456 H 0.4151 0.67478 0.85568 0.0
H457 H 0.38104 0.72121 0.84181 0.0
H458 H 0.34831 0.6968 0.84092 0.0
H459 H 0.35661 0.72077 0.80207 0.0
H460 H 0.37598 0.65052 0.68813 0.0
H461 H 0.33539 0.61344 0.70103 0.0
H462 H 0.33749 0.63865 0.81632 0.0
C463 C 0.43669 0.70869 0.7914 0.0
C464 C 0.4589 0.71409 0.76429 0.0
C465 C 0.45288 0.70618 0.72728 0.0
C466 C 0.4258 0.69146 0.71776 0.0
C467 C 0.40496 0.6851 0.74554 0.0
C468 C 0.40996 0.69383 0.78158 0.0
C469 C 0.38614 0.68099 0.80711 0.0
C470 C 0.40052 0.66102 0.8372 0.0
C471 C 0.36688 0.70647 0.82396 0.0
C472 C 0.36789 0.66233 0.78018 0.0
C473 C 0.37864 0.66548 0.74467 0.0
C474 C 0.36695 0.6484 0.71567 0.0
C475 C 0.34399 0.62732 0.72328 0.0
C476 C 0.33328 0.62329 0.75964 0.0
C477 C 0.34501 0.6415 0.78818 0.0
H478 H 0.36138 0.48471 0.77616 0.0
H479 H 0.27992 0.45348 0.72126 0.0
H480 H 0.30376 0.40325 0.71167 0.0
H481 H 0.41642 0.44134 0.71999 0.0
H482 H 0.44025 0.43408 0.75928 0.0
H483 H 0.41821 0.46842 0.75707 0.0
H484 H 0.39371 0.45536 0.81988 0.0
H485 H 0.41546 0.42098 0.8222 0.0
H486 H 0.37476 0.41948 0.82555 0.0
H487 H 0.33461 0.35475 0.71484 0.0
H488 H 0.36979 0.31277 0.72972 0.0
H489 H 0.43055 0.37671 0.78236 0.0
C490 C 0.34877 0.46756 0.76133 0.0
C491 C 0.31887 0.47297 0.74928 0.0
C492 C 0.30297 0.44982 0.73047 0.0
C493 C 0.31633 0.42127 0.7249 0.0
C494 C 0.34564 0.41644 0.73805 0.0
C495 C 0.36172 0.4391 0.7556 0.0
C496 C 0.39185 0.42771 0.76973 0.0
C497 C 0.41824 0.44384 0.75034 0.0
C498 C 0.39405 0.43108 0.81182 0.0
C499 C 0.38991 0.39482 0.75842 0.0
C500 C 0.36328 0.38872 0.73983 0.0
C501 C 0.35574 0.35938 0.72884 0.0
C502 C 0.37581 0.33569 0.73745 0.0
C503 C 0.40293 0.34155 0.757 0.0
C504 C 0.41016 0.37157 0.76701 0.0
H505 H 0.66602 0.35717 0.82568 0.0
H506 H 0.67243 0.39023 0.71374 0.0
H507 H 0.63108 0.35548 0.69518 0.0
H508 H 0.64596 0.27659 0.80103 0.0
H509 H 0.62093 0.27369 0.84002 0.0
H510 H 0.65417 0.29732 0.8426 0.0
H511 H 0.62064 0.34322 0.86069 0.0
H512 H 0.58745 0.31984 0.85812 0.0
H513 H 0.58965 0.35405 0.83116 0.0
H514 H 0.58288 0.32448 0.6922 0.0
H515 H 0.53424 0.29843 0.70451 0.0
H516 H 0.56214 0.28333 0.81738 0.0
C517 C 0.65926 0.35647 0.79704 0.0
C518 C 0.67227 0.37627 0.77109 0.0
C519 C 0.66282 0.37498 0.73393 0.0
C520 C 0.6394 0.35531 0.72318 0.0
C521 C 0.62633 0.33664 0.74978 0.0
C522 C 0.63639 0.33668 0.78583 0.0
C523 C 0.61717 0.31646 0.8099 0.0
C524 C 0.63567 0.28941 0.82422 0.0
C525 C 0.60288 0.33448 0.84181 0.0
C526 C 0.59363 0.30638 0.78232 0.0
C527 C 0.59938 0.3179 0.74765 0.0
C528 C 0.57862 0.3146 0.71894 0.0
C529 C 0.55105 0.29981 0.72614 0.0
C530 C 0.54464 0.28854 0.76174 0.0
C531 C 0.56669 0.29106 0.78966 0.0
H532 H 0.64878 0.47605 0.24797 0.0
H533 H 0.738 0.43583 0.23826 0.0
H534 H 0.715 0.38472 0.23883 0.0
H535 H 0.61578 0.41485 0.3081 0.0
H536 H 0.57941 0.41808 0.2859 0.0
H537 H 0.60342 0.45092 0.29028 0.0
H538 H 0.60049 0.45909 0.2198 0.0
H539 H 0.57694 0.42611 0.21506 0.0
H540 H 0.61173 0.42885 0.18936 0.0
H541 H 0.68157 0.33912 0.22883 0.0
H542 H 0.64061 0.30204 0.21692 0.0
H543 H 0.57358 0.37185 0.23731 0.0
C544 C 0.66351 0.45643 0.24717 0.0
C545 C 0.69511 0.45975 0.24322 0.0
C546 C 0.71374 0.43368 0.24178 0.0
C547 C 0.70086 0.4046 0.24193 0.0
C548 C 0.66944 0.4021 0.24439 0.0
C549 C 0.65107 0.42732 0.24793 0.0
C550 C 0.6179 0.4187 0.24799 0.0
C551 C 0.60327 0.42607 0.28529 0.0
C552 C 0.60079 0.4341 0.21615 0.0
C553 C 0.62039 0.38485 0.24218 0.0
C554 C 0.65028 0.37565 0.24023 0.0
C555 C 0.6581 0.34591 0.23131 0.0
C556 C 0.63476 0.32508 0.22436 0.0
C557 C 0.60406 0.33408 0.22671 0.0
C558 C 0.59689 0.36424 0.23617 0.0
H559 H 0.52829 0.64716 0.25859 0.0
H560 H 0.56355 0.73779 0.24196 0.0
H561 H 0.61573 0.71794 0.24609 0.0
H562 H 0.59164 0.62088 0.32279 0.0
H563 H 0.59044 0.5833 0.30339 0.0
H564 H 0.55629 0.60559 0.30633 0.0
H565 H 0.54794 0.59849 0.23634 0.0
H566 H 0.58222 0.57675 0.23297 0.0
H567 H 0.57725 0.60997 0.20476 0.0
H568 H 0.66247 0.68678 0.23642 0.0
H569 H 0.70119 0.64736 0.22418 0.0
H570 H 0.63659 0.57757 0.25322 0.0
C571 C 0.54703 0.66297 0.25741 0.0
C572 C 0.54199 0.69398 0.25014 0.0
C573 C 0.56696 0.714 0.24806 0.0
C574 C 0.59668 0.7029 0.2502 0.0
C575 C 0.60094 0.67189 0.25548 0.0
C576 C 0.57679 0.65232 0.26026 0.0
C577 C 0.58736 0.61972 0.2627 0.0
C578 C 0.58106 0.6066 0.3011 0.0
C579 C 0.57284 0.60011 0.23238 0.0
C580 C 0.62098 0.62381 0.25635 0.0
C581 C 0.6284 0.65408 0.25225 0.0
C582 C 0.65722 0.66313 0.24099 0.0
C583 C 0.67897 0.64068 0.23386 0.0
C584 C 0.67186 0.60972 0.23869 0.0
C585 C 0.64272 0.60124 0.25063 0.0
H586 H 0.41614 0.62878 0.23523 0.0
H587 H 0.35651 0.69557 0.18618 0.0
H588 H 0.31422 0.65878 0.18823 0.0
H589 H 0.38975 0.56817 0.183 0.0
H590 H 0.39346 0.54022 0.21888 0.0
H591 H 0.41744 0.57314 0.21897 0.0
H592 H 0.39943 0.58632 0.28492 0.0
H593 H 0.37528 0.55339 0.28498 0.0
H594 H 0.35951 0.59032 0.29407 0.0
H595 H 0.2795 0.61365 0.19184 0.0
H596 H 0.25657 0.56254 0.19066 0.0
H597 H 0.33997 0.52451 0.23366 0.0
C598 C 0.39397 0.63584 0.22576 0.0
C599 C 0.38935 0.66506 0.21103 0.0
C600 C 0.36036 0.67329 0.1978 0.0
C601 C 0.33622 0.65263 0.19906 0.0
C602 C 0.34159 0.62378 0.21331 0.0
C603 C 0.36985 0.61531 0.22614 0.0
C604 C 0.37064 0.58201 0.23614 0.0
C605 C 0.3942 0.56489 0.21285 0.0
C606 C 0.37656 0.57778 0.27749 0.0
C607 C 0.33865 0.57288 0.22608 0.0
C608 C 0.32202 0.59743 0.21381 0.0
C609 C 0.29222 0.59431 0.20168 0.0
C610 C 0.27935 0.56523 0.20121 0.0
C611 C 0.2965 0.53965 0.21213 0.0
C612 C 0.32629 0.54371 0.22538 0.0
H613 H 0.35286 0.40606 0.24376 0.0
H614 H 0.29796 0.34943 0.17274 0.0
H615 H 0.33267 0.30641 0.18355 0.0
H616 H 0.42113 0.38145 0.20921 0.0
H617 H 0.44165 0.38314 0.25205 0.0
H618 H 0.40938 0.40723 0.24495 0.0
H619 H 0.38468 0.38577 0.30415 0.0
H620 H 0.41689 0.3613 0.31116 0.0
H621 H 0.37933 0.34544 0.30877 0.0
H622 H 0.37578 0.2718 0.19577 0.0
H623 H 0.42704 0.25023 0.20175 0.0
H624 H 0.45555 0.32973 0.26282 0.0
C625 C 0.34779 0.38431 0.2314 0.0
C626 C 0.32264 0.38078 0.20784 0.0
C627 C 0.31711 0.35242 0.19103 0.0
C628 C 0.33651 0.32782 0.1973 0.0
C629 C 0.36145 0.33207 0.22025 0.0
C630 C 0.36732 0.3597 0.23678 0.0
C631 C 0.39796 0.35962 0.25558 0.0
C632 C 0.41874 0.3843 0.23946 0.0
C633 C 0.39449 0.36324 0.29741 0.0
C634 C 0.4089 0.32808 0.24575 0.0
C635 C 0.38711 0.31227 0.22631 0.0
C636 C 0.39286 0.28373 0.21146 0.0
C637 C 0.42205 0.27161 0.21507 0.0
C638 C 0.44521 0.28825 0.23289 0.0
C639 C 0.43814 0.31625 0.2497 0.0
H640 H 0.09297 0.29906 0.22127 0.0
H641 H 0.07532 0.32634 0.33383 0.0
H642 H 0.1061 0.37236 0.32472 0.0
H643 H 0.16786 0.31781 0.22137 0.0
H644 H 0.16968 0.3314 0.17468 0.0
H645 H 0.14158 0.30388 0.18737 0.0
H646 H 0.09902 0.3393 0.16358 0.0
H647 H 0.12709 0.3669 0.15043 0.0
H648 H 0.09655 0.37757 0.18067 0.0
H649 H 0.14481 0.41106 0.30658 0.0
H650 H 0.18774 0.43978 0.27999 0.0
H651 H 0.18021 0.38705 0.17965 0.0
C652 C 0.0947 0.3153 0.2435 0.0
C653 C 0.08161 0.30936 0.2781 0.0
C654 C 0.08508 0.33062 0.307 0.0
C655 C 0.10244 0.35687 0.30207 0.0
C656 C 0.11608 0.36156 0.26804 0.0
C657 C 0.11218 0.34152 0.23911 0.0
C658 C 0.13192 0.35002 0.20673 0.0
C659 C 0.15406 0.32425 0.197 0.0
C660 C 0.11248 0.35899 0.17338 0.0
C661 C 0.14835 0.37716 0.2225 0.0
C662 C 0.13862 0.3838 0.25768 0.0
C663 C 0.15223 0.40648 0.27876 0.0
C664 C 0.17662 0.4226 0.26355 0.0
C665 C 0.18715 0.41571 0.22778 0.0
C666 C 0.17243 0.39306 0.20694 0.0
H667 H 0.6871 0.12392 0.30935 0.0
H668 H 0.66998 0.05546 0.22622 0.0
H669 H 0.62374 0.08304 0.20709 0.0
H670 H 0.60735 0.13892 0.33318 0.0
H671 H 0.614 0.17892 0.33911 0.0
H672 H 0.64384 0.15215 0.34858 0.0
H673 H 0.67909 0.18024 0.30291 0.0
H674 H 0.64948 0.20711 0.29345 0.0
H675 H 0.66661 0.18625 0.25625 0.0
H676 H 0.58252 0.12075 0.19323 0.0
H677 H 0.55025 0.16596 0.18477 0.0
H678 H 0.59392 0.20904 0.27799 0.0
C679 C 0.6734 0.11446 0.28746 0.0
C680 C 0.68204 0.08754 0.26926 0.0
C681 C 0.66368 0.07603 0.24056 0.0
C682 C 0.63735 0.09146 0.22964 0.0
C683 C 0.62965 0.11816 0.24797 0.0
C684 C 0.64711 0.12948 0.27636 0.0
C685 C 0.63515 0.15961 0.28997 0.0
C686 C 0.62444 0.15724 0.33009 0.0
C687 C 0.65899 0.18478 0.28534 0.0
C688 C 0.60871 0.16399 0.26406 0.0
C689 C 0.60569 0.13968 0.24029 0.0
C690 C 0.58434 0.13965 0.21207 0.0
C691 C 0.56612 0.16542 0.20748 0.0
C692 C 0.56941 0.19081 0.23098 0.0
C693 C 0.59046 0.18969 0.26014 0.0
H694 H 0.81278 0.61143 0.19 0.0
H695 H 0.82376 0.55218 0.28423 0.0
H696 H 0.87055 0.57977 0.30149 0.0
H697 H 0.89412 0.62322 0.16933 0.0
H698 H 0.88813 0.66248 0.15776 0.0
H699 H 0.85853 0.63512 0.14977 0.0
H700 H 0.82144 0.66729 0.18895 0.0
H701 H 0.85079 0.69473 0.19685 0.0
H702 H 0.83178 0.6774 0.23534 0.0
H703 H 0.91332 0.61684 0.31128 0.0
H704 H 0.94517 0.66266 0.3164 0.0
H705 H 0.90455 0.6984 0.2168 0.0
C706 C 0.8254 0.60377 0.21381 0.0
C707 C 0.81491 0.5795 0.23562 0.0
C708 C 0.83159 0.57064 0.26706 0.0
C709 C 0.85824 0.58604 0.2769 0.0
C710 C 0.86777 0.6102 0.25498 0.0
C711 C 0.85171 0.61907 0.22417 0.0
C712 C 0.86453 0.64776 0.20757 0.0
C713 C 0.87708 0.64177 0.16881 0.0
C714 C 0.84073 0.67329 0.20719 0.0
C715 C 0.88976 0.65431 0.23453 0.0
C716 C 0.89177 0.63203 0.26118 0.0
C717 C 0.9122 0.6342 0.2903 0.0
C718 C 0.93026 0.66027 0.29291 0.0
C719 C 0.92737 0.684 0.26689 0.0
C720 C 0.9075 0.68047 0.23682 0.0
H721 H 0.32274 0.88773 0.31124 0.0
H722 H 0.32326 0.94169 0.21151 0.0
H723 H 0.36624 0.91137 0.18795 0.0
H724 H 0.40575 0.87437 0.31698 0.0
H725 H 0.40057 0.83609 0.33306 0.0
H726 H 0.37301 0.86481 0.3442 0.0
H727 H 0.33062 0.83159 0.31578 0.0
H728 H 0.35798 0.80288 0.30448 0.0
H729 H 0.33429 0.81868 0.26893 0.0
H730 H 0.40498 0.87182 0.17261 0.0
H731 H 0.43584 0.82555 0.16584 0.0
H732 H 0.40962 0.79699 0.27548 0.0
C733 C 0.33238 0.89367 0.28482 0.0
C734 C 0.31988 0.91719 0.26326 0.0
C735 C 0.33267 0.92387 0.22853 0.0
C736 C 0.35711 0.90684 0.21501 0.0
C737 C 0.36848 0.88334 0.23667 0.0
C738 C 0.35659 0.87682 0.2709 0.0
C739 C 0.37094 0.8487 0.28728 0.0
C740 C 0.38862 0.85647 0.32246 0.0
C741 C 0.34703 0.82401 0.29452 0.0
C742 C 0.39209 0.83979 0.25639 0.0
C743 C 0.39066 0.86032 0.22769 0.0
C744 C 0.40662 0.85585 0.19511 0.0
C745 C 0.42404 0.82946 0.19151 0.0
C746 C 0.42523 0.80779 0.22023 0.0
C747 C 0.4095 0.81339 0.25332 0.0
H748 H 0.18972 0.61778 0.80259 0.0
H749 H 0.18835 0.56305 0.70342 0.0
H750 H 0.14094 0.58828 0.68407 0.0
H751 H 0.10629 0.62114 0.8164 0.0
H752 H 0.10786 0.65985 0.83214 0.0
H753 H 0.13932 0.63472 0.84047 0.0
H754 H 0.1755 0.67256 0.80824 0.0
H755 H 0.14426 0.69778 0.79996 0.0
H756 H 0.16716 0.68486 0.76204 0.0
H757 H 0.09809 0.6237 0.67187 0.0
H758 H 0.0632 0.66723 0.66711 0.0
H759 H 0.09132 0.6981 0.77505 0.0
C760 C 0.17913 0.61069 0.77712 0.0
C761 C 0.1926 0.58843 0.75448 0.0
C762 C 0.17831 0.58 0.72119 0.0
C763 C 0.15133 0.59409 0.71009 0.0
C764 C 0.13886 0.61629 0.73283 0.0
C765 C 0.15221 0.62444 0.76575 0.0
C766 C 0.13571 0.65069 0.78362 0.0
C767 C 0.12144 0.64101 0.82033 0.0
C768 C 0.15692 0.67808 0.78874 0.0
C769 C 0.11168 0.65687 0.7549 0.0
C770 C 0.11365 0.63649 0.72606 0.0
C771 C 0.09587 0.63937 0.69461 0.0
C772 C 0.07616 0.66415 0.69214 0.0
C773 C 0.07435 0.68564 0.72097 0.0
C774 C 0.09168 0.68146 0.75314 0.0
H775 H 0.37763 0.19637 0.81364 0.0
H776 H 0.44917 0.17226 0.73728 0.0
H777 H 0.42157 0.1254 0.72107 0.0
H778 H 0.35834 0.11786 0.84326 0.0
H779 H 0.31843 0.12633 0.84513 0.0
H780 H 0.34581 0.1556 0.85467 0.0
H781 H 0.32185 0.18939 0.8041 0.0
H782 H 0.29443 0.16034 0.79453 0.0
H783 H 0.31804 0.17469 0.75805 0.0
H784 H 0.38369 0.08497 0.70768 0.0
H785 H 0.33762 0.05471 0.69651 0.0
H786 H 0.2907 0.10464 0.782 0.0
C787 C 0.38781 0.18088 0.79412 0.0
C788 C 0.4156 0.1878 0.77683 0.0
C789 C 0.42796 0.1673 0.75093 0.0
C790 C 0.41252 0.14057 0.74172 0.0
C791 C 0.3849 0.13465 0.75884 0.0
C792 C 0.37267 0.15419 0.78457 0.0
C793 C 0.34136 0.14408 0.79633 0.0
C794 C 0.34097 0.13545 0.83728 0.0
C795 C 0.31753 0.16858 0.78772 0.0
C796 C 0.33736 0.11644 0.77215 0.0
C797 C 0.36295 0.11112 0.75117 0.0
C798 C 0.36376 0.08853 0.72444 0.0
C799 C 0.33749 0.07148 0.71828 0.0
C800 C 0.31079 0.07716 0.7387 0.0
C801 C 0.31104 0.09934 0.76666 0.0
H802 H 0.91176 0.30352 0.78927 0.0
H803 H 0.94797 0.34605 0.69121 0.0
H804 H 0.91619 0.39105 0.70259 0.0
H805 H 0.83945 0.32293 0.77526 0.0
H806 H 0.82924 0.33003 0.82248 0.0
H807 H 0.85973 0.30452 0.81208 0.0
H808 H 0.89627 0.33606 0.85267 0.0
H809 H 0.86568 0.36156 0.86372 0.0
H810 H 0.90033 0.37614 0.84443 0.0
H811 H 0.87313 0.42616 0.71705 0.0
H812 H 0.82468 0.44973 0.7361 0.0
H813 H 0.81743 0.38484 0.82523 0.0
C814 C 0.91399 0.32285 0.77113 0.0
C815 C 0.93243 0.32139 0.73952 0.0
C816 C 0.93413 0.34679 0.71579 0.0
C817 C 0.91617 0.37249 0.72203 0.0
C818 C 0.89694 0.37259 0.7524 0.0
C819 C 0.89617 0.34864 0.77698 0.0
C820 C 0.87107 0.35263 0.80487 0.0
C821 C 0.84856 0.32596 0.80355 0.0
C822 C 0.88413 0.35686 0.84373 0.0
C823 C 0.85681 0.38162 0.79092 0.0
C824 C 0.87226 0.3931 0.76098 0.0
C825 C 0.86132 0.41788 0.74111 0.0
C826 C 0.83375 0.43105 0.75197 0.0
C827 C 0.8175 0.41927 0.78228 0.0
C828 C 0.82962 0.39469 0.80233 0.0
H829 H 0.68347 0.89491 0.68925 0.0
H830 H 0.6756 0.95255 0.78543 0.0
H831 H 0.63214 0.9217 0.80699 0.0
H832 H 0.602 0.87796 0.67693 0.0
H833 H 0.60979 0.83935 0.66381 0.0
H834 H 0.63675 0.86878 0.65343 0.0
H835 H 0.67857 0.8387 0.68772 0.0
H836 H 0.65182 0.80927 0.69821 0.0
H837 H 0.67245 0.82752 0.73483 0.0
H838 H 0.59271 0.88146 0.82042 0.0
H839 H 0.56339 0.83403 0.82682 0.0
H840 H 0.59934 0.8022 0.72275 0.0
C841 C 0.67217 0.90157 0.71442 0.0
C842 C 0.68264 0.92628 0.73555 0.0
C843 C 0.66771 0.93381 0.76874 0.0
C844 C 0.64299 0.91649 0.78106 0.0
C845 C 0.63363 0.89183 0.75982 0.0
C846 C 0.64786 0.88441 0.7272 0.0
C847 C 0.63586 0.85511 0.71132 0.0
C848 C 0.62016 0.86064 0.67417 0.0
C849 C 0.66118 0.83126 0.70785 0.0
C850 C 0.61323 0.84655 0.74066 0.0
C851 C 0.61174 0.86829 0.76804 0.0
C852 C 0.59346 0.8645 0.79893 0.0
C853 C 0.57686 0.83751 0.8023 0.0
C854 C 0.5791 0.81453 0.77521 0.0
C855 C 0.59703 0.81948 0.74372 0.0
H856 H 0.03691 0.2006 0.43388 0.0
H857 H 0.97192 0.26237 0.38473 0.0
H858 H 0.94515 0.26627 0.44408 0.0
H859 H 0.9835 0.16142 0.49388 0.0
H860 H 0.01025 0.15816 0.53115 0.0
H861 H 0.02347 0.15889 0.48427 0.0
H862 H 0.05835 0.20445 0.49956 0.0
H863 H 0.04539 0.20372 0.54647 0.0
H864 H 0.0422 0.23804 0.51988 0.0
H865 H 0.92706 0.26565 0.50915 0.0
H866 H 0.91982 0.26166 0.57635 0.0
H867 H 0.99606 0.19978 0.58296 0.0
C868 C 0.01695 0.21481 0.43559 0.0
C869 C 0.00646 0.23119 0.40479 0.0
C870 C 0.98035 0.24964 0.40806 0.0
C871 C 0.96491 0.25191 0.44158 0.0
C872 C 0.97582 0.23547 0.47145 0.0
C873 C 0.00125 0.21731 0.46884 0.0
C874 C 0.00895 0.20302 0.50551 0.0
C875 C 0.00638 0.16831 0.50357 0.0
C876 C 0.04059 0.21291 0.51862 0.0
C877 C 0.98423 0.21647 0.52927 0.0
C878 C 0.96521 0.23493 0.50902 0.0
C879 C 0.94159 0.25102 0.52527 0.0
C880 C 0.93764 0.2486 0.56339 0.0
C881 C 0.95725 0.23027 0.5847 0.0
C882 C 0.98046 0.21362 0.56725 0.0
H883 H 0.76343 0.02417 0.58683 0.0
H884 H 0.73964 0.92893 0.58082 0.0
H885 H 0.72993 0.93415 0.51417 0.0
H886 H 0.70986 0.05211 0.51868 0.0
H887 H 0.73614 0.07903 0.49946 0.0
H888 H 0.73896 0.06851 0.54723 0.0
H889 H 0.7949 0.05257 0.53754 0.0
H890 H 0.7923 0.06325 0.48987 0.0
H891 H 0.80404 0.02545 0.50215 0.0
H892 H 0.72317 0.94951 0.44854 0.0
H893 H 0.72546 0.97239 0.38669 0.0
H894 H 0.75671 0.05694 0.43449 0.0
C895 C 0.75592 0.00453 0.57145 0.0
C896 C 0.75202 0.9762 0.58881 0.0
C897 C 0.74273 0.95082 0.56788 0.0
C898 C 0.73698 0.95361 0.53013 0.0
C899 C 0.74099 0.98187 0.51377 0.0
C900 C 0.75065 0.00679 0.5336 0.0
C901 C 0.75539 0.03397 0.50881 0.0
C902 C 0.73379 0.05994 0.51917 0.0
C903 C 0.78863 0.04441 0.50964 0.0
C904 C 0.7471 0.02034 0.47193 0.0
C905 C 0.73834 0.99042 0.47554 0.0
C906 C 0.72995 0.97293 0.44533 0.0
C907 C 0.73121 0.98616 0.41035 0.0
C908 C 0.74124 0.01641 0.40588 0.0
C909 C 0.74886 0.0338 0.43715 0.0
H910 H 0.03926 0.77243 0.56713 0.0
H911 H 0.95348 0.74583 0.61556 0.0
H912 H 0.93085 0.74227 0.5535 0.0
H913 H 0.00901 0.81837 0.49551 0.0
H914 H 0.03675 0.80697 0.4619 0.0
H915 H 0.04628 0.80674 0.51005 0.0
H916 H 0.06144 0.75011 0.50547 0.0
H917 H 0.05201 0.75017 0.45726 0.0
H918 H 0.03458 0.72305 0.48767 0.0
H919 H 0.91714 0.74366 0.48625 0.0
H920 H 0.91391 0.7481 0.41853 0.0
H921 H 0.00907 0.77241 0.41443 0.0
C922 C 0.01575 0.76574 0.56466 0.0
C923 C 0.99807 0.75943 0.59606 0.0
C924 C 0.96742 0.7507 0.59178 0.0
C925 C 0.95437 0.74865 0.55669 0.0
C926 C 0.97238 0.75519 0.52626 0.0
C927 C 0.00246 0.76337 0.52989 0.0
C928 C 0.01687 0.76932 0.49285 0.0
C929 C 0.02786 0.80231 0.48992 0.0
C930 C 0.04275 0.74681 0.48538 0.0
C931 C 0.99012 0.7635 0.46782 0.0
C932 C 0.96465 0.75544 0.48759 0.0
C933 C 0.93699 0.74975 0.47045 0.0
C934 C 0.93535 0.75237 0.43204 0.0
C935 C 0.96126 0.76045 0.41133 0.0
C936 C 0.98895 0.76596 0.42955 0.0
H937 H 0.22783 0.04922 0.56404 0.0
H938 H 0.25416 0.96502 0.61688 0.0
H939 H 0.25777 0.94022 0.55626 0.0
H940 H 0.18241 0.01644 0.49298 0.0
H941 H 0.19429 0.04285 0.45803 0.0
H942 H 0.19399 0.05422 0.5056 0.0
H943 H 0.25068 0.069 0.50124 0.0
H944 H 0.25112 0.05779 0.4536 0.0
H945 H 0.27782 0.0414 0.4854 0.0
H946 H 0.25649 0.92393 0.49038 0.0
H947 H 0.25355 0.91817 0.42281 0.0
H948 H 0.23011 0.01333 0.41257 0.0
C949 C 0.23448 0.02562 0.56277 0.0
C950 C 0.24071 0.00902 0.59508 0.0
C951 C 0.2494 0.97819 0.59241 0.0
C952 C 0.25144 0.96387 0.55814 0.0
C953 C 0.24497 0.98077 0.5268 0.0
C954 C 0.23695 0.01103 0.52871 0.0
C955 C 0.23148 0.02404 0.49075 0.0
C956 C 0.19859 0.03503 0.48661 0.0
C957 C 0.25413 0.04956 0.48225 0.0
C958 C 0.23747 0.99631 0.46731 0.0
C959 C 0.24503 0.97155 0.48866 0.0
C960 C 0.25081 0.94319 0.4733 0.0
C961 C 0.24901 0.94012 0.43498 0.0
C962 C 0.24176 0.96532 0.4126 0.0
C963 C 0.23593 0.99373 0.42905 0.0
H964 H 0.50265 0.69587 0.91543 0.0
H965 H 0.59147 0.73761 0.92215 0.0
H966 H 0.58751 0.73859 0.98988 0.0
H967 H 0.46906 0.7394 0.98426 0.0
H968 H 0.44593 0.70942 0.0028 0.0
H969 H 0.45709 0.70851 0.95522 0.0
H970 H 0.48077 0.65533 0.96445 0.0
H971 H 0.46948 0.65595 0.01208 0.0
H972 H 0.5086 0.6497 0.00011 0.0
H973 H 0.57206 0.73962 0.05567 0.0
H974 H 0.54658 0.73967 0.11599 0.0
H975 H 0.46762 0.6972 0.06697 0.0
C976 C 0.52155 0.70457 0.93122 0.0
C977 C 0.54747 0.7165 0.91367 0.0
C978 C 0.57149 0.72825 0.93514 0.0
C979 C 0.56946 0.72886 0.97358 0.0
C980 C 0.5433 0.71756 0.99002 0.0
C981 C 0.51983 0.70547 0.96961 0.0
C982 C 0.49337 0.69674 0.99392 0.0
C983 C 0.46468 0.71459 0.98342 0.0
C984 C 0.48774 0.66238 0.99256 0.0
C985 C 0.50539 0.70643 0.03111 0.0
C986 C 0.53432 0.71818 0.02821 0.0
C987 C 0.54959 0.73013 0.0584 0.0
C988 C 0.53487 0.73017 0.09248 0.0
C989 C 0.5052 0.71835 0.09608 0.0
C990 C 0.49043 0.70607 0.06504 0.0
H991 H 0.3034 0.5289 0.91273 0.0
H992 H 0.21205 0.50603 0.87842 0.0
H993 H 0.20112 0.48649 0.94063 0.0
H994 H 0.31462 0.46273 0.96979 0.0
H995 H 0.33618 0.48274 0.00418 0.0
H996 H 0.33681 0.49537 0.95707 0.0
H997 H 0.31936 0.54883 0.97765 0.0
H998 H 0.31872 0.53638 0.02482 0.0
H999 H 0.28525 0.55273 0.00448 0.0
H1000 H 0.1994 0.4714 0.00657 0.0
H1001 H 0.20774 0.45906 0.072 0.0
H1002 H 0.30105 0.489 0.06302 0.0
C1003 C 0.2811 0.51983 0.9184 0.0
C1004 C 0.25848 0.51907 0.89095 0.0
C1005 C 0.22966 0.50679 0.89915 0.0
C1006 C 0.22324 0.49568 0.93436 0.0
C1007 C 0.24601 0.49673 0.96084 0.0
C1008 C 0.27443 0.50825 0.95329 0.0
C1009 C 0.29495 0.50623 0.98662 0.0
C1010 C 0.32225 0.48553 0.97895 0.0
C1011 C 0.30516 0.53793 -0.00088 0.0
C1012 C 0.2735 0.49202 0.01414 0.0
C1013 C 0.24535 0.48693 0.9987 0.0
C1014 C 0.2214 0.47502 0.01893 0.0
C1015 C 0.22633 0.46816 0.05603 0.0
C1016 C 0.25506 0.47291 0.07233 0.0
C1017 C 0.27898 0.48481 0.05104 0.0
H1018 H 0.53306 0.25202 0.06896 0.0
H1019 H 0.49265 0.33727 0.1028 0.0
H1020 H 0.47172 0.34413 0.04032 0.0
H1021 H 0.55279 0.2756 0.97562 0.0
H1022 H 0.54407 0.23902 0.95625 0.0
H1023 H 0.55715 0.24185 0.00307 0.0
H1024 H 0.5094 0.21289 0.02504 0.0
H1025 H 0.49598 0.21033 0.97838 0.0
H1026 H 0.4724 0.22721 0.01328 0.0
H1027 H 0.45306 0.34038 0.97517 0.0
H1028 H 0.44078 0.3279 0.91058 0.0
H1029 H 0.49334 0.24508 0.91959 0.0
C1030 C 0.52021 0.27236 0.06306 0.0
C1031 C 0.51455 0.29418 0.09062 0.0
C1032 C 0.49738 0.32035 0.08198 0.0
C1033 C 0.48532 0.3244 0.04665 0.0
C1034 C 0.49074 0.30211 0.02032 0.0
C1035 C 0.50802 0.27676 0.02797 0.0
C1036 C 0.51003 0.25594 0.99496 0.0
C1037 C 0.54297 0.25294 0.98169 0.0
C1038 C 0.49612 0.22475 0.00344 0.0
C1039 C 0.49092 0.27339 0.96767 0.0
C1040 C 0.47998 0.29995 0.98282 0.0
C1041 C 0.4616 0.31972 0.96294 0.0
C1042 C 0.45464 0.31238 0.92637 0.0
C1043 C 0.46606 0.28551 0.91017 0.0
C1044 C 0.4842 0.26572 0.93129 0.0
H1045 H 0.71587 0.50634 0.92036 0.0
H1046 H 0.73742 0.41085 0.93224 0.0
H1047 H 0.74139 0.41738 -0.00056 0.0
H1048 H 0.765 0.53427 0.99029 0.0
H1049 H 0.73904 0.56268 0.00689 0.0
H1050 H 0.73742 0.55066 0.95958 0.0
H1051 H 0.68075 0.53687 0.96723 0.0
H1052 H 0.68214 0.549 0.01453 0.0
H1053 H 0.66952 0.51125 0.00336 0.0
H1054 H 0.74655 0.43462 0.06407 0.0
H1055 H 0.74771 0.4606 0.1241 0.0
H1056 H 0.71931 0.54435 0.07184 0.0
C1057 C 0.72126 0.48683 0.93721 0.0
C1058 C 0.72647 0.45811 0.92123 0.0
C1059 C 0.73328 0.43302 0.94402 0.0
C1060 C 0.73567 0.43652 0.98216 0.0
C1061 C 0.73071 0.46515 0.99707 0.0
C1062 C 0.72321 0.4898 0.97548 0.0
C1063 C 0.7186 0.51796 0.99875 0.0
C1064 C 0.74138 0.54286 0.98824 0.0
C1065 C 0.6858 0.52944 0.99579 0.0
C1066 C 0.72515 0.50532 0.03669 0.0
C1067 C 0.73235 0.47486 0.03491 0.0
C1068 C 0.74062 0.45837 0.06594 0.0
C1069 C 0.74136 0.47335 0.09983 0.0
C1070 C 0.73347 0.50437 0.10248 0.0
C1071 C 0.72514 0.52053 0.07052 0.0
loop_
_geom_bond_atom_site_label_1
_geom_bond_atom_site_label_2
_geom_bond_distance
_geom_bond_site_symmetry_2
_ccdc_geom_bond_type
In0 O1 2.294 . S
In0 O2 2.326 . S
In0 O6 2.266 . S
In0 O7 2.326 . S
In0 O8 2.266 1_455 S
In0 O9 2.326 . S
In0 O11 2.294 . S
In0 O12 2.326 . S
O1 In0 2.294 . S
O1 C10 1.240 . S
O2 In0 2.326 . S
O2 C10 1.252 . S
C3 O6 1.252 . S
C3 O7 1.260 . S
C4 O11 1.240 . S
C4 O12 1.252 . S
C5 O8 1.252 . S
C5 O9 1.260 1_655 S
O6 In0 2.266 . S
O6 C3 1.252 . S
O7 In0 2.326 . S
O7 C3 1.260 . S
O8 In0 2.266 1_655 S
O8 C5 1.252 . S
O9 In0 2.326 . S
O9 C5 1.260 1_455 S
C10 O1 1.240 . S
C10 O2 1.252 . S
O11 In0 2.294 . S
O11 C4 1.240 . S
O12 In0 2.326 . S
O12 C4 1.252 . S
In13 O14 2.294 . S
In13 O15 2.326 . S
In13 O19 2.266 . S
In13 O20 2.326 . S
In13 O21 2.266 1_545 S
In13 O22 2.326 . S
In13 O24 2.294 . S
In13 O25 2.326 . S
O14 In13 2.294 . S
O14 C23 1.240 . S
O15 In13 2.326 . S
O15 C23 1.252 . S
C16 O19 1.252 . S
C16 O20 1.260 . S
C17 O24 1.240 . S
C17 O25 1.252 . S
C18 O21 1.252 . S
C18 O22 1.260 1_565 S
O19 In13 2.266 . S
O19 C16 1.252 . S
O20 In13 2.326 . S
O20 C16 1.260 . S
O21 In13 2.266 1_565 S
O21 C18 1.252 . S
O22 In13 2.326 . S
O22 C18 1.260 1_545 S
C23 O14 1.240 . S
C23 O15 1.252 . S
O24 In13 2.294 . S
O24 C17 1.240 . S
O25 In13 2.326 . S
O25 C17 1.252 . S
In26 O27 2.294 . S
In26 O28 2.326 . S
In26 O32 2.266 1_655 S
In26 O33 2.326 . S
In26 O34 2.266 . S
In26 O35 2.326 . S
In26 O37 2.294 . S
In26 O38 2.326 . S
O27 In26 2.294 . S
O27 C36 1.240 . S
O28 In26 2.326 . S
O28 C36 1.252 . S
C29 O32 1.252 . S
C29 O33 1.260 1_455 S
C30 O37 1.240 . S
C30 O38 1.252 . S
C31 O34 1.252 . S
C31 O35 1.260 . S
O32 In26 2.266 1_455 S
O32 C29 1.252 . S
O33 In26 2.326 . S
O33 C29 1.260 1_655 S
O34 In26 2.266 . S
O34 C31 1.252 . S
O35 In26 2.326 . S
O35 C31 1.260 . S
C36 O27 1.240 . S
C36 O28 1.252 . S
O37 In26 2.294 . S
O37 C30 1.240 . S
O38 In26 2.326 . S
O38 C30 1.252 . S
In39 O40 2.294 . S
In39 O41 2.326 . S
In39 O45 2.266 1_565 S
In39 O46 2.326 . S
In39 O47 2.266 . S
In39 O48 2.326 . S
In39 O50 2.294 . S
In39 O51 2.326 . S
O40 In39 2.294 . S
O40 C49 1.240 . S
O41 In39 2.326 . S
O41 C49 1.252 . S
C42 O45 1.252 . S
C42 O46 1.260 1_545 S
C43 O50 1.240 . S
C43 O51 1.252 . S
C44 O47 1.252 . S
C44 O48 1.260 . S
O45 In39 2.266 1_545 S
O45 C42 1.252 . S
O46 In39 2.326 . S
O46 C42 1.260 1_565 S
O47 In39 2.266 . S
O47 C44 1.252 . S
O48 In39 2.326 . S
O48 C44 1.260 . S
C49 O40 1.240 . S
C49 O41 1.252 . S
O50 In39 2.294 . S
O50 C43 1.240 . S
O51 In39 2.326 . S
O51 C43 1.252 . S
In52 O53 2.294 . S
In52 O54 2.326 . S
In52 O58 2.266 . S
In52 O59 2.326 . S
In52 O60 2.266 1_455 S
In52 O61 2.326 . S
In52 O63 2.294 . S
In52 O64 2.326 . S
O53 In52 2.294 . S
O53 C62 1.240 . S
O54 In52 2.326 . S
O54 C62 1.252 . S
C55 O58 1.252 . S
C55 O59 1.260 . S
C56 O63 1.240 . S
C56 O64 1.252 . S
C57 O60 1.252 . S
C57 O61 1.260 1_655 S
O58 In52 2.266 . S
O58 C55 1.252 . S
O59 In52 2.326 . S
O59 C55 1.260 . S
O60 In52 2.266 1_655 S
O60 C57 1.252 . S
O61 In52 2.326 . S
O61 C57 1.260 1_455 S
C62 O53 1.240 . S
C62 O54 1.252 . S
O63 In52 2.294 . S
O63 C56 1.240 . S
O64 In52 2.326 . S
O64 C56 1.252 . S
In65 O66 2.294 . S
In65 O67 2.326 . S
In65 O71 2.266 . S
In65 O72 2.326 . S
In65 O73 2.266 1_545 S
In65 O74 2.326 . S
In65 O76 2.294 . S
In65 O77 2.326 . S
O66 In65 2.294 . S
O66 C75 1.240 . S
O67 In65 2.326 . S
O67 C75 1.252 . S
C68 O71 1.252 . S
C68 O72 1.260 . S
C69 O76 1.240 . S
C69 O77 1.252 . S
C70 O73 1.252 . S
C70 O74 1.260 1_565 S
O71 In65 2.266 . S
O71 C68 1.252 . S
O72 In65 2.326 . S
O72 C68 1.260 . S
O73 In65 2.266 1_565 S
O73 C70 1.252 . S
O74 In65 2.326 . S
O74 C70 1.260 1_545 S
C75 O66 1.240 . S
C75 O67 1.252 . S
O76 In65 2.294 . S
O76 C69 1.240 . S
O77 In65 2.326 . S
O77 C69 1.252 . S
In78 O79 2.294 . S
In78 O80 2.326 . S
In78 O84 2.266 1_655 S
In78 O85 2.326 . S
In78 O86 2.266 . S
In78 O87 2.326 . S
In78 O89 2.294 . S
In78 O90 2.326 . S
O79 In78 2.294 . S
O79 C88 1.240 . S
O80 In78 2.326 . S
O80 C88 1.252 . S
C81 O84 1.252 . S
C81 O85 1.260 1_455 S
C82 O89 1.240 . S
C82 O90 1.252 . S
C83 O86 1.252 . S
C83 O87 1.260 . S
O84 In78 2.266 1_455 S
O84 C81 1.252 . S
O85 In78 2.326 . S
O85 C81 1.260 1_655 S
O86 In78 2.266 . S
O86 C83 1.252 . S
O87 In78 2.326 . S
O87 C83 1.260 . S
C88 O79 1.240 . S
C88 O80 1.252 . S
O89 In78 2.294 . S
O89 C82 1.240 . S
O90 In78 2.326 . S
O90 C82 1.252 . S
In91 O92 2.294 . S
In91 O93 2.326 . S
In91 O97 2.266 . S
In91 O98 2.326 . S
In91 O99 2.266 1_565 S
In91 O100 2.326 . S
In91 O102 2.294 . S
In91 O103 2.326 . S
O92 In91 2.294 . S
O92 C101 1.240 . S
O93 In91 2.326 . S
O93 C101 1.252 . S
C94 O97 1.252 . S
C94 O98 1.260 . S
C95 O102 1.240 . S
C95 O103 1.252 . S
C96 O99 1.252 . S
C96 O100 1.260 1_545 S
O97 In91 2.266 . S
O97 C94 1.252 . S
O98 In91 2.326 . S
O98 C94 1.260 . S
O99 In91 2.266 1_545 S
O99 C96 1.252 . S
O100 In91 2.326 . S
O100 C96 1.260 1_565 S
C101 O92 1.240 . S
C101 O93 1.252 . S
O102 In91 2.294 . S
O102 C95 1.240 . S
O103 In91 2.326 . S
O103 C95 1.252 . S
In104 O105 2.294 . S
In104 O106 2.326 . S
In104 O110 2.266 . S
In104 O111 2.326 . S
In104 O112 2.266 . S
In104 O113 2.326 . S
In104 O115 2.294 . S
In104 O116 2.326 . S
O105 In104 2.294 . S
O105 C114 1.240 . S
O106 In104 2.326 . S
O106 C114 1.252 . S
C107 O110 1.252 . S
C107 O111 1.260 . S
C108 O115 1.240 . S
C108 O116 1.252 . S
C109 O112 1.252 . S
C109 O113 1.260 . S
O110 In104 2.266 . S
O110 C107 1.252 . S
O111 In104 2.326 . S
O111 C107 1.260 . S
O112 In104 2.266 . S
O112 C109 1.252 . S
O113 In104 2.326 . S
O113 C109 1.260 . S
C114 O105 1.240 . S
C114 O106 1.252 . S
O115 In104 2.294 . S
O115 C108 1.240 . S
O116 In104 2.326 . S
O116 C108 1.252 . S
In117 O118 2.294 . S
In117 O119 2.326 . S
In117 O123 2.266 . S
In117 O124 2.326 . S
In117 O125 2.266 . S
In117 O126 2.326 . S
In117 O128 2.294 . S
In117 O129 2.326 . S
O118 In117 2.294 . S
O118 C127 1.240 . S
O119 In117 2.326 . S
O119 C127 1.252 . S
C120 O123 1.252 . S
C120 O124 1.260 . S
C121 O128 1.240 . S
C121 O129 1.252 . S
C122 O125 1.252 . S
C122 O126 1.260 . S
O123 In117 2.266 . S
O123 C120 1.252 . S
O124 In117 2.326 . S
O124 C120 1.260 . S
O125 In117 2.266 . S
O125 C122 1.252 . S
O126 In117 2.326 . S
O126 C122 1.260 . S
C127 O118 1.240 . S
C127 O119 1.252 . S
O128 In117 2.294 . S
O128 C121 1.240 . S
O129 In117 2.326 . S
O129 C121 1.252 . S
In130 O131 2.294 . S
In130 O132 2.326 . S
In130 O136 2.266 . S
In130 O137 2.326 . S
In130 O138 2.266 . S
In130 O139 2.326 . S
In130 O141 2.294 . S
In130 O142 2.326 . S
O131 In130 2.294 . S
O131 C140 1.240 . S
O132 In130 2.326 . S
O132 C140 1.252 . S
C133 O136 1.252 . S
C133 O137 1.260 . S
C134 O141 1.240 . S
C134 O142 1.252 . S
C135 O138 1.252 . S
C135 O139 1.260 . S
O136 In130 2.266 . S
O136 C133 1.252 . S
O137 In130 2.326 . S
O137 C133 1.260 . S
O138 In130 2.266 . S
O138 C135 1.252 . S
O139 In130 2.326 . S
O139 C135 1.260 . S
C140 O131 1.240 . S
C140 O132 1.252 . S
O141 In130 2.294 . S
O141 C134 1.240 . S
O142 In130 2.326 . S
O142 C134 1.252 . S
In143 O144 2.294 . S
In143 O145 2.326 . S
In143 O149 2.266 . S
In143 O150 2.326 . S
In143 O151 2.266 . S
In143 O152 2.326 . S
In143 O154 2.294 . S
In143 O155 2.326 . S
O144 In143 2.294 . S
O144 C153 1.240 . S
O145 In143 2.326 . S
O145 C153 1.252 . S
C146 O149 1.252 . S
C146 O150 1.260 . S
C147 O154 1.240 . S
C147 O155 1.252 . S
C148 O151 1.252 . S
C148 O152 1.260 . S
O149 In143 2.266 . S
O149 C146 1.252 . S
O150 In143 2.326 . S
O150 C146 1.260 . S
O151 In143 2.266 . S
O151 C148 1.252 . S
O152 In143 2.326 . S
O152 C148 1.260 . S
C153 O144 1.240 . S
C153 O145 1.252 . S
O154 In143 2.294 . S
O154 C147 1.240 . S
O155 In143 2.326 . S
O155 C147 1.252 . S
In156 O157 2.294 . S
In156 O158 2.326 . S
In156 O162 2.266 . S
In156 O163 2.326 . S
In156 O164 2.266 . S
In156 O165 2.326 . S
In156 O167 2.294 . S
In156 O168 2.326 . S
O157 In156 2.294 . S
O157 C166 1.240 . S
O158 In156 2.326 . S
O158 C166 1.252 . S
C159 O162 1.252 . S
C159 O163 1.260 . S
C160 O167 1.240 . S
C160 O168 1.252 . S
C161 O164 1.252 . S
C161 O165 1.260 . S
O162 In156 2.266 . S
O162 C159 1.252 . S
O163 In156 2.326 . S
O163 C159 1.260 . S
O164 In156 2.266 . S
O164 C161 1.252 . S
O165 In156 2.326 . S
O165 C161 1.260 . S
C166 O157 1.240 . S
C166 O158 1.252 . S
O167 In156 2.294 . S
O167 C160 1.240 . S
O168 In156 2.326 . S
O168 C160 1.252 . S
In169 O170 2.294 . S
In169 O171 2.326 . S
In169 O175 2.266 . S
In169 O176 2.326 . S
In169 O177 2.266 . S
In169 O178 2.326 . S
In169 O180 2.294 . S
In169 O181 2.326 . S
O170 In169 2.294 . S
O170 C179 1.240 . S
O171 In169 2.326 . S
O171 C179 1.252 . S
C172 O175 1.252 . S
C172 O176 1.260 . S
C173 O180 1.240 . S
C173 O181 1.252 . S
C174 O177 1.252 . S
C174 O178 1.260 . S
O175 In169 2.266 . S
O175 C172 1.252 . S
O176 In169 2.326 . S
O176 C172 1.260 . S
O177 In169 2.266 . S
O177 C174 1.252 . S
O178 In169 2.326 . S
O178 C174 1.260 . S
C179 O170 1.240 . S
C179 O171 1.252 . S
O180 In169 2.294 . S
O180 C173 1.240 . S
O181 In169 2.326 . S
O181 C173 1.252 . S
In182 O183 2.294 . S
In182 O184 2.326 . S
In182 O188 2.266 . S
In182 O189 2.326 . S
In182 O190 2.266 . S
In182 O191 2.326 . S
In182 O193 2.294 . S
In182 O194 2.326 . S
O183 In182 2.294 . S
O183 C192 1.240 . S
O184 In182 2.326 . S
O184 C192 1.252 . S
C185 O188 1.252 . S
C185 O189 1.260 . S
C186 O193 1.240 . S
C186 O194 1.252 . S
C187 O190 1.252 . S
C187 O191 1.260 . S
O188 In182 2.266 . S
O188 C185 1.252 . S
O189 In182 2.326 . S
O189 C185 1.260 . S
O190 In182 2.266 . S
O190 C187 1.252 . S
O191 In182 2.326 . S
O191 C187 1.260 . S
C192 O183 1.240 . S
C192 O184 1.252 . S
O193 In182 2.294 . S
O193 C186 1.240 . S
O194 In182 2.326 . S
O194 C186 1.252 . S
In195 O196 2.294 . S
In195 O197 2.326 . S
In195 O201 2.266 . S
In195 O202 2.326 . S
In195 O203 2.266 . S
In195 O204 2.326 . S
In195 O206 2.294 . S
In195 O207 2.326 . S
O196 In195 2.294 . S
O196 C205 1.240 . S
O197 In195 2.326 . S
O197 C205 1.252 . S
C198 O201 1.252 . S
C198 O202 1.260 . S
C199 O206 1.240 . S
C199 O207 1.252 . S
C200 O203 1.252 . S
C200 O204 1.260 . S
O201 In195 2.266 . S
O201 C198 1.252 . S
O202 In195 2.326 . S
O202 C198 1.260 . S
O203 In195 2.266 . S
O203 C200 1.252 . S
O204 In195 2.326 . S
O204 C200 1.260 . S
C205 O196 1.240 . S
C205 O197 1.252 . S
O206 In195 2.294 . S
O206 C199 1.240 . S
O207 In195 2.326 . S
O207 C199 1.252 . S
H208 C220 0.930 . S
H209 C222 0.930 . S
H210 C223 0.930 . S
H211 C227 0.959 . S
H212 C227 0.959 . S
H213 C227 0.961 . S
H214 C228 0.960 . S
H215 C228 0.961 . S
H216 C228 0.959 . S
H217 C231 0.929 . S
H218 C232 0.931 . S
H219 C234 0.930 . S
C220 H208 0.930 . S
C220 C221 1.399 . S
C220 C225 1.399 . S
C221 C220 1.399 . S
C221 C222 1.376 . S
C222 H209 0.930 . S
C222 C221 1.376 . S
C222 C223 1.388 . S
C223 H210 0.930 . S
C223 C222 1.388 . S
C223 C224 1.390 . S
C224 C223 1.390 . S
C224 C225 1.394 . S
C224 C230 1.465 . S
C225 C220 1.399 . S
C225 C224 1.394 . S
C225 C226 1.516 . S
C226 C225 1.516 . S
C226 C227 1.502 . S
C226 C228 1.561 . S
C226 C229 1.526 . S
C227 H211 0.959 . S
C227 H212 0.959 . S
C227 H213 0.961 . S
C227 C226 1.502 . S
C228 H214 0.960 . S
C228 H215 0.961 . S
C228 H216 0.959 . S
C228 C226 1.561 . S
C229 C226 1.526 . S
C229 C230 1.396 . S
C229 C234 1.390 . S
C230 C224 1.465 . S
C230 C229 1.396 . S
C230 C231 1.399 . S
C231 H217 0.929 . S
C231 C230 1.399 . S
C231 C232 1.385 . S
C232 H218 0.931 . S
C232 C231 1.385 . S
C232 C233 1.389 . S
C233 C232 1.389 . S
C233 C234 1.387 . S
C234 H219 0.930 . S
C234 C229 1.390 . S
C234 C233 1.387 . S
H235 C247 0.930 . S
H236 C249 0.930 . S
H237 C250 0.930 . S
H238 C254 0.959 . S
H239 C254 0.959 . S
H240 C254 0.961 . S
H241 C255 0.960 . S
H242 C255 0.961 . S
H243 C255 0.959 . S
H244 C258 0.929 . S
H245 C259 0.931 . S
H246 C261 0.930 . S
C247 H235 0.930 . S
C247 C248 1.399 . S
C247 C252 1.399 . S
C248 C247 1.399 . S
C248 C249 1.376 . S
C249 H236 0.930 . S
C249 C248 1.376 . S
C249 C250 1.388 . S
C250 H237 0.930 . S
C250 C249 1.388 . S
C250 C251 1.390 . S
C251 C250 1.390 . S
C251 C252 1.394 . S
C251 C257 1.465 . S
C252 C247 1.399 . S
C252 C251 1.394 . S
C252 C253 1.516 . S
C253 C252 1.516 . S
C253 C254 1.502 . S
C253 C255 1.561 . S
C253 C256 1.526 . S
C254 H238 0.959 . S
C254 H239 0.959 . S
C254 H240 0.961 . S
C254 C253 1.502 . S
C255 H241 0.960 . S
C255 H242 0.961 . S
C255 H243 0.959 . S
C255 C253 1.561 . S
C256 C253 1.526 . S
C256 C257 1.396 . S
C256 C261 1.390 . S
C257 C251 1.465 . S
C257 C256 1.396 . S
C257 C258 1.399 . S
C258 H244 0.929 . S
C258 C257 1.399 . S
C258 C259 1.385 . S
C259 H245 0.931 . S
C259 C258 1.385 . S
C259 C260 1.389 . S
C260 C259 1.389 . S
C260 C261 1.387 . S
C261 H246 0.930 . S
C261 C256 1.390 . S
C261 C260 1.387 . S
H262 C274 0.930 . S
H263 C276 0.930 . S
H264 C277 0.930 . S
H265 C281 0.959 . S
H266 C281 0.959 . S
H267 C281 0.961 . S
H268 C282 0.960 . S
H269 C282 0.961 . S
H270 C282 0.959 . S
H271 C285 0.929 . S
H272 C286 0.931 . S
H273 C288 0.930 . S
C274 H262 0.930 . S
C274 C275 1.399 . S
C274 C279 1.399 . S
C275 C274 1.399 . S
C275 C276 1.376 . S
C276 H263 0.930 . S
C276 C275 1.376 . S
C276 C277 1.388 . S
C277 H264 0.930 . S
C277 C276 1.388 . S
C277 C278 1.390 . S
C278 C277 1.390 . S
C278 C279 1.394 . S
C278 C284 1.465 . S
C279 C274 1.399 . S
C279 C278 1.394 . S
C279 C280 1.516 . S
C280 C279 1.516 . S
C280 C281 1.502 . S
C280 C282 1.561 . S
C280 C283 1.526 . S
C281 H265 0.959 . S
C281 H266 0.959 . S
C281 H267 0.961 . S
C281 C280 1.502 . S
C282 H268 0.960 . S
C282 H269 0.961 . S
C282 H270 0.959 . S
C282 C280 1.561 . S
C283 C280 1.526 . S
C283 C284 1.396 . S
C283 C288 1.390 . S
C284 C278 1.465 . S
C284 C283 1.396 . S
C284 C285 1.399 . S
C285 H271 0.929 . S
C285 C284 1.399 . S
C285 C286 1.385 . S
C286 H272 0.931 . S
C286 C285 1.385 . S
C286 C287 1.389 . S
C287 C286 1.389 . S
C287 C288 1.387 . S
C288 H273 0.930 . S
C288 C283 1.390 . S
C288 C287 1.387 . S
H289 C301 0.930 . S
H290 C303 0.930 . S
H291 C304 0.930 . S
H292 C308 0.959 . S
H293 C308 0.959 . S
H294 C308 0.961 . S
H295 C309 0.960 . S
H296 C309 0.961 . S
H297 C309 0.959 . S
H298 C312 0.929 . S
H299 C313 0.931 . S
H300 C315 0.930 . S
C301 H289 0.930 . S
C301 C302 1.399 . S
C301 C306 1.399 . S
C302 C301 1.399 . S
C302 C303 1.376 . S
C303 H290 0.930 . S
C303 C302 1.376 . S
C303 C304 1.388 . S
C304 H291 0.930 . S
C304 C303 1.388 . S
C304 C305 1.390 . S
C305 C304 1.390 . S
C305 C306 1.394 . S
C305 C311 1.465 . S
C306 C301 1.399 . S
C306 C305 1.394 . S
C306 C307 1.516 . S
C307 C306 1.516 . S
C307 C308 1.502 . S
C307 C309 1.561 . S
C307 C310 1.526 . S
C308 H292 0.959 . S
C308 H293 0.959 . S
C308 H294 0.961 . S
C308 C307 1.502 . S
C309 H295 0.960 . S
C309 H296 0.961 . S
C309 H297 0.959 . S
C309 C307 1.561 . S
C310 C307 1.526 . S
C310 C311 1.396 . S
C310 C315 1.390 . S
C311 C305 1.465 . S
C311 C310 1.396 . S
C311 C312 1.399 . S
C312 H298 0.929 . S
C312 C311 1.399 . S
C312 C313 1.385 . S
C313 H299 0.931 . S
C313 C312 1.385 . S
C313 C314 1.389 . S
C314 C313 1.389 . S
C314 C315 1.387 . S
C315 H300 0.930 . S
C315 C310 1.390 . S
C315 C314 1.387 . S
H316 C328 0.930 . S
H317 C330 0.930 . S
H318 C331 0.930 . S
H319 C335 0.959 . S
H320 C335 0.959 . S
H321 C335 0.961 . S
H322 C336 0.960 . S
H323 C336 0.961 . S
H324 C336 0.959 . S
H325 C339 0.929 . S
H326 C340 0.931 . S
H327 C342 0.930 . S
C328 H316 0.930 . S
C328 C329 1.399 . S
C328 C333 1.399 . S
C329 C328 1.399 . S
C329 C330 1.376 . S
C330 H317 0.930 . S
C330 C329 1.376 . S
C330 C331 1.388 . S
C331 H318 0.930 . S
C331 C330 1.388 . S
C331 C332 1.390 . S
C332 C331 1.390 . S
C332 C333 1.394 . S
C332 C338 1.465 . S
C333 C328 1.399 . S
C333 C332 1.394 . S
C333 C334 1.516 . S
C334 C333 1.516 . S
C334 C335 1.502 . S
C334 C336 1.561 . S
C334 C337 1.526 . S
C335 H319 0.959 . S
C335 H320 0.959 . S
C335 H321 0.961 . S
C335 C334 1.502 . S
C336 H322 0.960 . S
C336 H323 0.961 . S
C336 H324 0.959 . S
C336 C334 1.561 . S
C337 C334 1.526 . S
C337 C338 1.396 . S
C337 C342 1.390 . S
C338 C332 1.465 . S
C338 C337 1.396 . S
C338 C339 1.399 . S
C339 H325 0.929 . S
C339 C338 1.399 . S
C339 C340 1.385 . S
C340 H326 0.931 . S
C340 C339 1.385 . S
C340 C341 1.389 . S
C341 C340 1.389 . S
C341 C342 1.387 . S
C342 H327 0.930 . S
C342 C337 1.390 . S
C342 C341 1.387 . S
H343 C355 0.930 . S
H344 C357 0.930 . S
H345 C358 0.930 . S
H346 C362 0.959 . S
H347 C362 0.959 . S
H348 C362 0.961 . S
H349 C363 0.960 . S
H350 C363 0.961 . S
H351 C363 0.959 . S
H352 C366 0.929 . S
H353 C367 0.931 . S
H354 C369 0.930 . S
C355 H343 0.930 . S
C355 C356 1.399 . S
C355 C360 1.399 . S
C356 C355 1.399 . S
C356 C357 1.376 . S
C357 H344 0.930 . S
C357 C356 1.376 . S
C357 C358 1.388 . S
C358 H345 0.930 . S
C358 C357 1.388 . S
C358 C359 1.390 . S
C359 C358 1.390 . S
C359 C360 1.394 . S
C359 C365 1.465 . S
C360 C355 1.399 . S
C360 C359 1.394 . S
C360 C361 1.516 . S
C361 C360 1.516 . S
C361 C362 1.502 . S
C361 C363 1.561 . S
C361 C364 1.526 . S
C362 H346 0.959 . S
C362 H347 0.959 . S
C362 H348 0.961 . S
C362 C361 1.502 . S
C363 H349 0.960 . S
C363 H350 0.961 . S
C363 H351 0.959 . S
C363 C361 1.561 . S
C364 C361 1.526 . S
C364 C365 1.396 . S
C364 C369 1.390 . S
C365 C359 1.465 . S
C365 C364 1.396 . S
C365 C366 1.399 . S
C366 H352 0.929 . S
C366 C365 1.399 . S
C366 C367 1.385 . S
C367 H353 0.931 . S
C367 C366 1.385 . S
C367 C368 1.389 . S
C368 C367 1.389 . S
C368 C369 1.387 . S
C369 H354 0.930 . S
C369 C364 1.390 . S
C369 C368 1.387 . S
H370 C382 0.930 . S
H371 C384 0.930 . S
H372 C385 0.930 . S
H373 C389 0.959 . S
H374 C389 0.959 . S
H375 C389 0.961 . S
H376 C390 0.960 . S
H377 C390 0.961 . S
H378 C390 0.959 . S
H379 C393 0.929 . S
H380 C394 0.931 . S
H381 C396 0.930 . S
C382 H370 0.930 . S
C382 C383 1.399 . S
C382 C387 1.399 . S
C383 C382 1.399 . S
C383 C384 1.376 . S
C384 H371 0.930 . S
C384 C383 1.376 . S
C384 C385 1.388 . S
C385 H372 0.930 . S
C385 C384 1.388 . S
C385 C386 1.390 . S
C386 C385 1.390 . S
C386 C387 1.394 . S
C386 C392 1.465 . S
C387 C382 1.399 . S
C387 C386 1.394 . S
C387 C388 1.516 . S
C388 C387 1.516 . S
C388 C389 1.502 . S
C388 C390 1.561 . S
C388 C391 1.526 . S
C389 H373 0.959 . S
C389 H374 0.959 . S
C389 H375 0.961 . S
C389 C388 1.502 . S
C390 H376 0.960 . S
C390 H377 0.961 . S
C390 H378 0.959 . S
C390 C388 1.561 . S
C391 C388 1.526 . S
C391 C392 1.396 . S
C391 C396 1.390 . S
C392 C386 1.465 . S
C392 C391 1.396 . S
C392 C393 1.399 . S
C393 H379 0.929 . S
C393 C392 1.399 . S
C393 C394 1.385 . S
C394 H380 0.931 . S
C394 C393 1.385 . S
C394 C395 1.389 . S
C395 C394 1.389 . S
C395 C396 1.387 . S
C396 H381 0.930 . S
C396 C391 1.390 . S
C396 C395 1.387 . S
H397 C409 0.930 . S
H398 C411 0.930 . S
H399 C412 0.930 . S
H400 C416 0.959 . S
H401 C416 0.959 . S
H402 C416 0.961 . S
H403 C417 0.960 . S
H404 C417 0.961 . S
H405 C417 0.959 . S
H406 C420 0.929 . S
H407 C421 0.931 . S
H408 C423 0.930 . S
C409 H397 0.930 . S
C409 C410 1.399 . S
C409 C414 1.399 . S
C410 C409 1.399 . S
C410 C411 1.376 . S
C411 H398 0.930 . S
C411 C410 1.376 . S
C411 C412 1.388 . S
C412 H399 0.930 . S
C412 C411 1.388 . S
C412 C413 1.390 . S
C413 C412 1.390 . S
C413 C414 1.394 . S
C413 C419 1.465 . S
C414 C409 1.399 . S
C414 C413 1.394 . S
C414 C415 1.516 . S
C415 C414 1.516 . S
C415 C416 1.502 . S
C415 C417 1.561 . S
C415 C418 1.526 . S
C416 H400 0.959 . S
C416 H401 0.959 . S
C416 H402 0.961 . S
C416 C415 1.502 . S
C417 H403 0.960 . S
C417 H404 0.961 . S
C417 H405 0.959 . S
C417 C415 1.561 . S
C418 C415 1.526 . S
C418 C419 1.396 . S
C418 C423 1.390 . S
C419 C413 1.465 . S
C419 C418 1.396 . S
C419 C420 1.399 . S
C420 H406 0.929 . S
C420 C419 1.399 . S
C420 C421 1.385 . S
C421 H407 0.931 . S
C421 C420 1.385 . S
C421 C422 1.389 . S
C422 C421 1.389 . S
C422 C423 1.387 . S
C423 H408 0.930 . S
C423 C418 1.390 . S
C423 C422 1.387 . S
H424 C436 0.930 . S
H425 C438 0.930 . S
H426 C439 0.930 . S
H427 C443 0.959 . S
H428 C443 0.959 . S
H429 C443 0.961 . S
H430 C444 0.960 . S
H431 C444 0.961 . S
H432 C444 0.959 . S
H433 C447 0.929 . S
H434 C448 0.931 . S
H435 C450 0.930 . S
C436 H424 0.930 . S
C436 C437 1.399 . S
C436 C441 1.399 . S
C437 C436 1.399 . S
C437 C438 1.376 . S
C438 H425 0.930 . S
C438 C437 1.376 . S
C438 C439 1.388 . S
C439 H426 0.930 . S
C439 C438 1.388 . S
C439 C440 1.390 . S
C440 C439 1.390 . S
C440 C441 1.394 . S
C440 C446 1.465 . S
C441 C436 1.399 . S
C441 C440 1.394 . S
C441 C442 1.516 . S
C442 C441 1.516 . S
C442 C443 1.502 . S
C442 C444 1.561 . S
C442 C445 1.526 . S
C443 H427 0.959 . S
C443 H428 0.959 . S
C443 H429 0.961 . S
C443 C442 1.502 . S
C444 H430 0.960 . S
C444 H431 0.961 . S
C444 H432 0.959 . S
C444 C442 1.561 . S
C445 C442 1.526 . S
C445 C446 1.396 . S
C445 C450 1.390 . S
C446 C440 1.465 . S
C446 C445 1.396 . S
C446 C447 1.399 . S
C447 H433 0.929 . S
C447 C446 1.399 . S
C447 C448 1.385 . S
C448 H434 0.931 . S
C448 C447 1.385 . S
C448 C449 1.389 . S
C449 C448 1.389 . S
C449 C450 1.387 . S
C450 H435 0.930 . S
C450 C445 1.390 . S
C450 C449 1.387 . S
H451 C463 0.930 . S
H452 C465 0.930 . S
H453 C466 0.930 . S
H454 C470 0.959 . S
H455 C470 0.959 . S
H456 C470 0.961 . S
H457 C471 0.960 . S
H458 C471 0.961 . S
H459 C471 0.959 . S
H460 C474 0.929 . S
H461 C475 0.931 . S
H462 C477 0.930 . S
C463 H451 0.930 . S
C463 C464 1.399 . S
C463 C468 1.399 . S
C464 C463 1.399 . S
C464 C465 1.376 . S
C465 H452 0.930 . S
C465 C464 1.376 . S
C465 C466 1.388 . S
C466 H453 0.930 . S
C466 C465 1.388 . S
C466 C467 1.390 . S
C467 C466 1.390 . S
C467 C468 1.394 . S
C467 C473 1.465 . S
C468 C463 1.399 . S
C468 C467 1.394 . S
C468 C469 1.516 . S
C469 C468 1.516 . S
C469 C470 1.502 . S
C469 C471 1.561 . S
C469 C472 1.526 . S
C470 H454 0.959 . S
C470 H455 0.959 . S
C470 H456 0.961 . S
C470 C469 1.502 . S
C471 H457 0.960 . S
C471 H458 0.961 . S
C471 H459 0.959 . S
C471 C469 1.561 . S
C472 C469 1.526 . S
C472 C473 1.396 . S
C472 C477 1.390 . S
C473 C467 1.465 . S
C473 C472 1.396 . S
C473 C474 1.399 . S
C474 H460 0.929 . S
C474 C473 1.399 . S
C474 C475 1.385 . S
C475 H461 0.931 . S
C475 C474 1.385 . S
C475 C476 1.389 . S
C476 C475 1.389 . S
C476 C477 1.387 . S
C477 H462 0.930 . S
C477 C472 1.390 . S
C477 C476 1.387 . S
H478 C490 0.930 . S
H479 C492 0.930 . S
H480 C493 0.930 . S
H481 C497 0.959 . S
H482 C497 0.959 . S
H483 C497 0.961 . S
H484 C498 0.960 . S
H485 C498 0.961 . S
H486 C498 0.959 . S
H487 C501 0.929 . S
H488 C502 0.931 . S
H489 C504 0.930 . S
C490 H478 0.930 . S
C490 C491 1.399 . S
C490 C495 1.399 . S
C491 C490 1.399 . S
C491 C492 1.376 . S
C492 H479 0.930 . S
C492 C491 1.376 . S
C492 C493 1.388 . S
C493 H480 0.930 . S
C493 C492 1.388 . S
C493 C494 1.390 . S
C494 C493 1.390 . S
C494 C495 1.394 . S
C494 C500 1.465 . S
C495 C490 1.399 . S
C495 C494 1.394 . S
C495 C496 1.516 . S
C496 C495 1.516 . S
C496 C497 1.502 . S
C496 C498 1.561 . S
C496 C499 1.526 . S
C497 H481 0.959 . S
C497 H482 0.959 . S
C497 H483 0.961 . S
C497 C496 1.502 . S
C498 H484 0.960 . S
C498 H485 0.961 . S
C498 H486 0.959 . S
C498 C496 1.561 . S
C499 C496 1.526 . S
C499 C500 1.396 . S
C499 C504 1.390 . S
C500 C494 1.465 . S
C500 C499 1.396 . S
C500 C501 1.399 . S
C501 H487 0.929 . S
C501 C500 1.399 . S
C501 C502 1.385 . S
C502 H488 0.931 . S
C502 C501 1.385 . S
C502 C503 1.389 . S
C503 C502 1.389 . S
C503 C504 1.387 . S
C504 H489 0.930 . S
C504 C499 1.390 . S
C504 C503 1.387 . S
H505 C517 0.930 . S
H506 C519 0.930 . S
H507 C520 0.930 . S
H508 C524 0.959 . S
H509 C524 0.959 . S
H510 C524 0.961 . S
H511 C525 0.960 . S
H512 C525 0.961 . S
H513 C525 0.959 . S
H514 C528 0.929 . S
H515 C529 0.931 . S
H516 C531 0.930 . S
C517 H505 0.930 . S
C517 C518 1.399 . S
C517 C522 1.399 . S
C518 C517 1.399 . S
C518 C519 1.376 . S
C519 H506 0.930 . S
C519 C518 1.376 . S
C519 C520 1.388 . S
C520 H507 0.930 . S
C520 C519 1.388 . S
C520 C521 1.390 . S
C521 C520 1.390 . S
C521 C522 1.394 . S
C521 C527 1.465 . S
C522 C517 1.399 . S
C522 C521 1.394 . S
C522 C523 1.516 . S
C523 C522 1.516 . S
C523 C524 1.502 . S
C523 C525 1.561 . S
C523 C526 1.526 . S
C524 H508 0.959 . S
C524 H509 0.959 . S
C524 H510 0.961 . S
C524 C523 1.502 . S
C525 H511 0.960 . S
C525 H512 0.961 . S
C525 H513 0.959 . S
C525 C523 1.561 . S
C526 C523 1.526 . S
C526 C527 1.396 . S
C526 C531 1.390 . S
C527 C521 1.465 . S
C527 C526 1.396 . S
C527 C528 1.399 . S
C528 H514 0.929 . S
C528 C527 1.399 . S
C528 C529 1.385 . S
C529 H515 0.931 . S
C529 C528 1.385 . S
C529 C530 1.389 . S
C530 C529 1.389 . S
C530 C531 1.387 . S
C531 H516 0.930 . S
C531 C526 1.390 . S
C531 C530 1.387 . S
H532 C544 0.930 . S
H533 C546 0.930 . S
H534 C547 0.930 . S
H535 C551 0.959 . S
H536 C551 0.959 . S
H537 C551 0.961 . S
H538 C552 0.960 . S
H539 C552 0.961 . S
H540 C552 0.959 . S
H541 C555 0.929 . S
H542 C556 0.931 . S
H543 C558 0.930 . S
C544 H532 0.930 . S
C544 C545 1.399 . S
C544 C549 1.399 . S
C545 C544 1.399 . S
C545 C546 1.376 . S
C546 H533 0.930 . S
C546 C545 1.376 . S
C546 C547 1.388 . S
C547 H534 0.930 . S
C547 C546 1.388 . S
C547 C548 1.390 . S
C548 C547 1.390 . S
C548 C549 1.394 . S
C548 C554 1.465 . S
C549 C544 1.399 . S
C549 C548 1.394 . S
C549 C550 1.516 . S
C550 C549 1.516 . S
C550 C551 1.502 . S
C550 C552 1.561 . S
C550 C553 1.526 . S
C551 H535 0.959 . S
C551 H536 0.959 . S
C551 H537 0.961 . S
C551 C550 1.502 . S
C552 H538 0.960 . S
C552 H539 0.961 . S
C552 H540 0.959 . S
C552 C550 1.561 . S
C553 C550 1.526 . S
C553 C554 1.396 . S
C553 C558 1.390 . S
C554 C548 1.465 . S
C554 C553 1.396 . S
C554 C555 1.399 . S
C555 H541 0.929 . S
C555 C554 1.399 . S
C555 C556 1.385 . S
C556 H542 0.931 . S
C556 C555 1.385 . S
C556 C557 1.389 . S
C557 C556 1.389 . S
C557 C558 1.387 . S
C558 H543 0.930 . S
C558 C553 1.390 . S
C558 C557 1.387 . S
H559 C571 0.930 . S
H560 C573 0.930 . S
H561 C574 0.930 . S
H562 C578 0.959 . S
H563 C578 0.959 . S
H564 C578 0.961 . S
H565 C579 0.960 . S
H566 C579 0.961 . S
H567 C579 0.959 . S
H568 C582 0.929 . S
H569 C583 0.931 . S
H570 C585 0.930 . S
C571 H559 0.930 . S
C571 C572 1.399 . S
C571 C576 1.399 . S
C572 C571 1.399 . S
C572 C573 1.376 . S
C573 H560 0.930 . S
C573 C572 1.376 . S
C573 C574 1.388 . S
C574 H561 0.930 . S
C574 C573 1.388 . S
C574 C575 1.390 . S
C575 C574 1.390 . S
C575 C576 1.394 . S
C575 C581 1.465 . S
C576 C571 1.399 . S
C576 C575 1.394 . S
C576 C577 1.516 . S
C577 C576 1.516 . S
C577 C578 1.502 . S
C577 C579 1.561 . S
C577 C580 1.526 . S
C578 H562 0.959 . S
C578 H563 0.959 . S
C578 H564 0.961 . S
C578 C577 1.502 . S
C579 H565 0.960 . S
C579 H566 0.961 . S
C579 H567 0.959 . S
C579 C577 1.561 . S
C580 C577 1.526 . S
C580 C581 1.396 . S
C580 C585 1.390 . S
C581 C575 1.465 . S
C581 C580 1.396 . S
C581 C582 1.399 . S
C582 H568 0.929 . S
C582 C581 1.399 . S
C582 C583 1.385 . S
C583 H569 0.931 . S
C583 C582 1.385 . S
C583 C584 1.389 . S
C584 C583 1.389 . S
C584 C585 1.387 . S
C585 H570 0.930 . S
C585 C580 1.390 . S
C585 C584 1.387 . S
H586 C598 0.930 . S
H587 C600 0.930 . S
H588 C601 0.930 . S
H589 C605 0.959 . S
H590 C605 0.959 . S
H591 C605 0.961 . S
H592 C606 0.960 . S
H593 C606 0.961 . S
H594 C606 0.959 . S
H595 C609 0.929 . S
H596 C610 0.931 . S
H597 C612 0.930 . S
C598 H586 0.930 . S
C598 C599 1.399 . S
C598 C603 1.399 . S
C599 C598 1.399 . S
C599 C600 1.376 . S
C600 H587 0.930 . S
C600 C599 1.376 . S
C600 C601 1.388 . S
C601 H588 0.930 . S
C601 C600 1.388 . S
C601 C602 1.390 . S
C602 C601 1.390 . S
C602 C603 1.394 . S
C602 C608 1.465 . S
C603 C598 1.399 . S
C603 C602 1.394 . S
C603 C604 1.516 . S
C604 C603 1.516 . S
C604 C605 1.502 . S
C604 C606 1.561 . S
C604 C607 1.526 . S
C605 H589 0.959 . S
C605 H590 0.959 . S
C605 H591 0.961 . S
C605 C604 1.502 . S
C606 H592 0.960 . S
C606 H593 0.961 . S
C606 H594 0.959 . S
C606 C604 1.561 . S
C607 C604 1.526 . S
C607 C608 1.396 . S
C607 C612 1.390 . S
C608 C602 1.465 . S
C608 C607 1.396 . S
C608 C609 1.399 . S
C609 H595 0.929 . S
C609 C608 1.399 . S
C609 C610 1.385 . S
C610 H596 0.931 . S
C610 C609 1.385 . S
C610 C611 1.389 . S
C611 C610 1.389 . S
C611 C612 1.387 . S
C612 H597 0.930 . S
C612 C607 1.390 . S
C612 C611 1.387 . S
H613 C625 0.930 . S
H614 C627 0.930 . S
H615 C628 0.930 . S
H616 C632 0.959 . S
H617 C632 0.959 . S
H618 C632 0.961 . S
H619 C633 0.960 . S
H620 C633 0.961 . S
H621 C633 0.959 . S
H622 C636 0.929 . S
H623 C637 0.931 . S
H624 C639 0.930 . S
C625 H613 0.930 . S
C625 C626 1.399 . S
C625 C630 1.399 . S
C626 C625 1.399 . S
C626 C627 1.376 . S
C627 H614 0.930 . S
C627 C626 1.376 . S
C627 C628 1.388 . S
C628 H615 0.930 . S
C628 C627 1.388 . S
C628 C629 1.390 . S
C629 C628 1.390 . S
C629 C630 1.394 . S
C629 C635 1.465 . S
C630 C625 1.399 . S
C630 C629 1.394 . S
C630 C631 1.516 . S
C631 C630 1.516 . S
C631 C632 1.502 . S
C631 C633 1.561 . S
C631 C634 1.526 . S
C632 H616 0.959 . S
C632 H617 0.959 . S
C632 H618 0.961 . S
C632 C631 1.502 . S
C633 H619 0.960 . S
C633 H620 0.961 . S
C633 H621 0.959 . S
C633 C631 1.561 . S
C634 C631 1.526 . S
C634 C635 1.396 . S
C634 C639 1.390 . S
C635 C629 1.465 . S
C635 C634 1.396 . S
C635 C636 1.399 . S
C636 H622 0.929 . S
C636 C635 1.399 . S
C636 C637 1.385 . S
C637 H623 0.931 . S
C637 C636 1.385 . S
C637 C638 1.389 . S
C638 C637 1.389 . S
C638 C639 1.387 . S
C639 H624 0.930 . S
C639 C634 1.390 . S
C639 C638 1.387 . S
H640 C652 0.930 . S
H641 C654 0.930 . S
H642 C655 0.930 . S
H643 C659 0.959 . S
H644 C659 0.959 . S
H645 C659 0.961 . S
H646 C660 0.960 . S
H647 C660 0.961 . S
H648 C660 0.959 . S
H649 C663 0.929 . S
H650 C664 0.931 . S
H651 C666 0.930 . S
C652 H640 0.930 . S
C652 C653 1.399 . S
C652 C657 1.399 . S
C653 C652 1.399 . S
C653 C654 1.376 . S
C654 H641 0.930 . S
C654 C653 1.376 . S
C654 C655 1.388 . S
C655 H642 0.930 . S
C655 C654 1.388 . S
C655 C656 1.390 . S
C656 C655 1.390 . S
C656 C657 1.394 . S
C656 C662 1.465 . S
C657 C652 1.399 . S
C657 C656 1.394 . S
C657 C658 1.516 . S
C658 C657 1.516 . S
C658 C659 1.502 . S
C658 C660 1.561 . S
C658 C661 1.526 . S
C659 H643 0.959 . S
C659 H644 0.959 . S
C659 H645 0.961 . S
C659 C658 1.502 . S
C660 H646 0.960 . S
C660 H647 0.961 . S
C660 H648 0.959 . S
C660 C658 1.561 . S
C661 C658 1.526 . S
C661 C662 1.396 . S
C661 C666 1.390 . S
C662 C656 1.465 . S
C662 C661 1.396 . S
C662 C663 1.399 . S
C663 H649 0.929 . S
C663 C662 1.399 . S
C663 C664 1.385 . S
C664 H650 0.931 . S
C664 C663 1.385 . S
C664 C665 1.389 . S
C665 C664 1.389 . S
C665 C666 1.387 . S
C666 H651 0.930 . S
C666 C661 1.390 . S
C666 C665 1.387 . S
H667 C679 0.930 . S
H668 C681 0.930 . S
H669 C682 0.930 . S
H670 C686 0.959 . S
H671 C686 0.959 . S
H672 C686 0.961 . S
H673 C687 0.960 . S
H674 C687 0.961 . S
H675 C687 0.959 . S
H676 C690 0.929 . S
H677 C691 0.931 . S
H678 C693 0.930 . S
C679 H667 0.930 . S
C679 C680 1.399 . S
C679 C684 1.399 . S
C680 C679 1.399 . S
C680 C681 1.376 . S
C681 H668 0.930 . S
C681 C680 1.376 . S
C681 C682 1.388 . S
C682 H669 0.930 . S
C682 C681 1.388 . S
C682 C683 1.390 . S
C683 C682 1.390 . S
C683 C684 1.394 . S
C683 C689 1.465 . S
C684 C679 1.399 . S
C684 C683 1.394 . S
C684 C685 1.516 . S
C685 C684 1.516 . S
C685 C686 1.502 . S
C685 C687 1.561 . S
C685 C688 1.526 . S
C686 H670 0.959 . S
C686 H671 0.959 . S
C686 H672 0.961 . S
C686 C685 1.502 . S
C687 H673 0.960 . S
C687 H674 0.961 . S
C687 H675 0.959 . S
C687 C685 1.561 . S
C688 C685 1.526 . S
C688 C689 1.396 . S
C688 C693 1.390 . S
C689 C683 1.465 . S
C689 C688 1.396 . S
C689 C690 1.399 . S
C690 H676 0.929 . S
C690 C689 1.399 . S
C690 C691 1.385 . S
C691 H677 0.931 . S
C691 C690 1.385 . S
C691 C692 1.389 . S
C692 C691 1.389 . S
C692 C693 1.387 . S
C693 H678 0.930 . S
C693 C688 1.390 . S
C693 C692 1.387 . S
H694 C706 0.930 . S
H695 C708 0.930 . S
H696 C709 0.930 . S
H697 C713 0.959 . S
H698 C713 0.959 . S
H699 C713 0.961 . S
H700 C714 0.960 . S
H701 C714 0.961 . S
H702 C714 0.959 . S
H703 C717 0.929 . S
H704 C718 0.931 . S
H705 C720 0.930 . S
C706 H694 0.930 . S
C706 C707 1.399 . S
C706 C711 1.399 . S
C707 C706 1.399 . S
C707 C708 1.376 . S
C708 H695 0.930 . S
C708 C707 1.376 . S
C708 C709 1.388 . S
C709 H696 0.930 . S
C709 C708 1.388 . S
C709 C710 1.390 . S
C710 C709 1.390 . S
C710 C711 1.394 . S
C710 C716 1.465 . S
C711 C706 1.399 . S
C711 C710 1.394 . S
C711 C712 1.516 . S
C712 C711 1.516 . S
C712 C713 1.502 . S
C712 C714 1.561 . S
C712 C715 1.526 . S
C713 H697 0.959 . S
C713 H698 0.959 . S
C713 H699 0.961 . S
C713 C712 1.502 . S
C714 H700 0.960 . S
C714 H701 0.961 . S
C714 H702 0.959 . S
C714 C712 1.561 . S
C715 C712 1.526 . S
C715 C716 1.396 . S
C715 C720 1.390 . S
C716 C710 1.465 . S
C716 C715 1.396 . S
C716 C717 1.399 . S
C717 H703 0.929 . S
C717 C716 1.399 . S
C717 C718 1.385 . S
C718 H704 0.931 . S
C718 C717 1.385 . S
C718 C719 1.389 . S
C719 C718 1.389 . S
C719 C720 1.387 . S
C720 H705 0.930 . S
C720 C715 1.390 . S
C720 C719 1.387 . S
H721 C733 0.930 . S
H722 C735 0.930 . S
H723 C736 0.930 . S
H724 C740 0.959 . S
H725 C740 0.959 . S
H726 C740 0.961 . S
H727 C741 0.960 . S
H728 C741 0.961 . S
H729 C741 0.959 . S
H730 C744 0.929 . S
H731 C745 0.931 . S
H732 C747 0.930 . S
C733 H721 0.930 . S
C733 C734 1.399 . S
C733 C738 1.399 . S
C734 C733 1.399 . S
C734 C735 1.376 . S
C735 H722 0.930 . S
C735 C734 1.376 . S
C735 C736 1.388 . S
C736 H723 0.930 . S
C736 C735 1.388 . S
C736 C737 1.390 . S
C737 C736 1.390 . S
C737 C738 1.394 . S
C737 C743 1.465 . S
C738 C733 1.399 . S
C738 C737 1.394 . S
C738 C739 1.516 . S
C739 C738 1.516 . S
C739 C740 1.502 . S
C739 C741 1.561 . S
C739 C742 1.526 . S
C740 H724 0.959 . S
C740 H725 0.959 . S
C740 H726 0.961 . S
C740 C739 1.502 . S
C741 H727 0.960 . S
C741 H728 0.961 . S
C741 H729 0.959 . S
C741 C739 1.561 . S
C742 C739 1.526 . S
C742 C743 1.396 . S
C742 C747 1.390 . S
C743 C737 1.465 . S
C743 C742 1.396 . S
C743 C744 1.399 . S
C744 H730 0.929 . S
C744 C743 1.399 . S
C744 C745 1.385 . S
C745 H731 0.931 . S
C745 C744 1.385 . S
C745 C746 1.389 . S
C746 C745 1.389 . S
C746 C747 1.387 . S
C747 H732 0.930 . S
C747 C742 1.390 . S
C747 C746 1.387 . S
H748 C760 0.930 . S
H749 C762 0.930 . S
H750 C763 0.930 . S
H751 C767 0.959 . S
H752 C767 0.959 . S
H753 C767 0.961 . S
H754 C768 0.960 . S
H755 C768 0.961 . S
H756 C768 0.959 . S
H757 C771 0.929 . S
H758 C772 0.931 . S
H759 C774 0.930 . S
C760 H748 0.930 . S
C760 C761 1.399 . S
C760 C765 1.399 . S
C761 C760 1.399 . S
C761 C762 1.376 . S
C762 H749 0.930 . S
C762 C761 1.376 . S
C762 C763 1.388 . S
C763 H750 0.930 . S
C763 C762 1.388 . S
C763 C764 1.390 . S
C764 C763 1.390 . S
C764 C765 1.394 . S
C764 C770 1.465 . S
C765 C760 1.399 . S
C765 C764 1.394 . S
C765 C766 1.516 . S
C766 C765 1.516 . S
C766 C767 1.502 . S
C766 C768 1.561 . S
C766 C769 1.526 . S
C767 H751 0.959 . S
C767 H752 0.959 . S
C767 H753 0.961 . S
C767 C766 1.502 . S
C768 H754 0.960 . S
C768 H755 0.961 . S
C768 H756 0.959 . S
C768 C766 1.561 . S
C769 C766 1.526 . S
C769 C770 1.396 . S
C769 C774 1.390 . S
C770 C764 1.465 . S
C770 C769 1.396 . S
C770 C771 1.399 . S
C771 H757 0.929 . S
C771 C770 1.399 . S
C771 C772 1.385 . S
C772 H758 0.931 . S
C772 C771 1.385 . S
C772 C773 1.389 . S
C773 C772 1.389 . S
C773 C774 1.387 . S
C774 H759 0.930 . S
C774 C769 1.390 . S
C774 C773 1.387 . S
H775 C787 0.930 . S
H776 C789 0.930 . S
H777 C790 0.930 . S
H778 C794 0.959 . S
H779 C794 0.959 . S
H780 C794 0.961 . S
H781 C795 0.960 . S
H782 C795 0.961 . S
H783 C795 0.959 . S
H784 C798 0.929 . S
H785 C799 0.931 . S
H786 C801 0.930 . S
C787 H775 0.930 . S
C787 C788 1.399 . S
C787 C792 1.399 . S
C788 C787 1.399 . S
C788 C789 1.376 . S
C789 H776 0.930 . S
C789 C788 1.376 . S
C789 C790 1.388 . S
C790 H777 0.930 . S
C790 C789 1.388 . S
C790 C791 1.390 . S
C791 C790 1.390 . S
C791 C792 1.394 . S
C791 C797 1.465 . S
C792 C787 1.399 . S
C792 C791 1.394 . S
C792 C793 1.516 . S
C793 C792 1.516 . S
C793 C794 1.502 . S
C793 C795 1.561 . S
C793 C796 1.526 . S
C794 H778 0.959 . S
C794 H779 0.959 . S
C794 H780 0.961 . S
C794 C793 1.502 . S
C795 H781 0.960 . S
C795 H782 0.961 . S
C795 H783 0.959 . S
C795 C793 1.561 . S
C796 C793 1.526 . S
C796 C797 1.396 . S
C796 C801 1.390 . S
C797 C791 1.465 . S
C797 C796 1.396 . S
C797 C798 1.399 . S
C798 H784 0.929 . S
C798 C797 1.399 . S
C798 C799 1.385 . S
C799 H785 0.931 . S
C799 C798 1.385 . S
C799 C800 1.389 . S
C800 C799 1.389 . S
C800 C801 1.387 . S
C801 H786 0.930 . S
C801 C796 1.390 . S
C801 C800 1.387 . S
H802 C814 0.930 . S
H803 C816 0.930 . S
H804 C817 0.930 . S
H805 C821 0.959 . S
H806 C821 0.959 . S
H807 C821 0.961 . S
H808 C822 0.960 . S
H809 C822 0.961 . S
H810 C822 0.959 . S
H811 C825 0.929 . S
H812 C826 0.931 . S
H813 C828 0.930 . S
C814 H802 0.930 . S
C814 C815 1.399 . S
C814 C819 1.399 . S
C815 C814 1.399 . S
C815 C816 1.376 . S
C816 H803 0.930 . S
C816 C815 1.376 . S
C816 C817 1.388 . S
C817 H804 0.930 . S
C817 C816 1.388 . S
C817 C818 1.390 . S
C818 C817 1.390 . S
C818 C819 1.394 . S
C818 C824 1.465 . S
C819 C814 1.399 . S
C819 C818 1.394 . S
C819 C820 1.516 . S
C820 C819 1.516 . S
C820 C821 1.502 . S
C820 C822 1.561 . S
C820 C823 1.526 . S
C821 H805 0.959 . S
C821 H806 0.959 . S
C821 H807 0.961 . S
C821 C820 1.502 . S
C822 H808 0.960 . S
C822 H809 0.961 . S
C822 H810 0.959 . S
C822 C820 1.561 . S
C823 C820 1.526 . S
C823 C824 1.396 . S
C823 C828 1.390 . S
C824 C818 1.465 . S
C824 C823 1.396 . S
C824 C825 1.399 . S
C825 H811 0.929 . S
C825 C824 1.399 . S
C825 C826 1.385 . S
C826 H812 0.931 . S
C826 C825 1.385 . S
C826 C827 1.389 . S
C827 C826 1.389 . S
C827 C828 1.387 . S
C828 H813 0.930 . S
C828 C823 1.390 . S
C828 C827 1.387 . S
H829 C841 0.930 . S
H830 C843 0.930 . S
H831 C844 0.930 . S
H832 C848 0.959 . S
H833 C848 0.959 . S
H834 C848 0.961 . S
H835 C849 0.960 . S
H836 C849 0.961 . S
H837 C849 0.959 . S
H838 C852 0.929 . S
H839 C853 0.931 . S
H840 C855 0.930 . S
C841 H829 0.930 . S
C841 C842 1.399 . S
C841 C846 1.399 . S
C842 C841 1.399 . S
C842 C843 1.376 . S
C843 H830 0.930 . S
C843 C842 1.376 . S
C843 C844 1.388 . S
C844 H831 0.930 . S
C844 C843 1.388 . S
C844 C845 1.390 . S
C845 C844 1.390 . S
C845 C846 1.394 . S
C845 C851 1.465 . S
C846 C841 1.399 . S
C846 C845 1.394 . S
C846 C847 1.516 . S
C847 C846 1.516 . S
C847 C848 1.502 . S
C847 C849 1.561 . S
C847 C850 1.526 . S
C848 H832 0.959 . S
C848 H833 0.959 . S
C848 H834 0.961 . S
C848 C847 1.502 . S
C849 H835 0.960 . S
C849 H836 0.961 . S
C849 H837 0.959 . S
C849 C847 1.561 . S
C850 C847 1.526 . S
C850 C851 1.396 . S
C850 C855 1.390 . S
C851 C845 1.465 . S
C851 C850 1.396 . S
C851 C852 1.399 . S
C852 H838 0.929 . S
C852 C851 1.399 . S
C852 C853 1.385 . S
C853 H839 0.931 . S
C853 C852 1.385 . S
C853 C854 1.389 . S
C854 C853 1.389 . S
C854 C855 1.387 . S
C855 H840 0.930 . S
C855 C850 1.390 . S
C855 C854 1.387 . S
H856 C868 0.930 . S
H857 C870 0.930 . S
H858 C871 0.930 . S
H859 C875 0.959 . S
H860 C875 0.959 . S
H861 C875 0.961 . S
H862 C876 0.960 . S
H863 C876 0.961 . S
H864 C876 0.959 . S
H865 C879 0.929 1_455 S
H866 C880 0.931 . S
H867 C882 0.930 . S
C868 H856 0.930 . S
C868 C869 1.399 . S
C868 C873 1.399 . S
C869 C868 1.399 . S
C869 C870 1.376 . S
C870 H857 0.930 . S
C870 C869 1.376 . S
C870 C871 1.388 . S
C871 H858 0.930 . S
C871 C870 1.388 . S
C871 C872 1.390 . S
C872 C871 1.390 . S
C872 C873 1.394 . S
C872 C878 1.465 . S
C873 C868 1.399 . S
C873 C872 1.394 . S
C873 C874 1.516 . S
C874 C873 1.516 . S
C874 C875 1.502 1_455 S
C874 C876 1.561 . S
C874 C877 1.526 1_455 S
C875 H859 0.959 . S
C875 H860 0.959 . S
C875 H861 0.961 . S
C875 C874 1.502 1_655 S
C876 H862 0.960 . S
C876 H863 0.961 . S
C876 H864 0.959 . S
C876 C874 1.561 . S
C877 C874 1.526 1_655 S
C877 C878 1.396 1_655 S
C877 C882 1.390 . S
C878 C872 1.465 . S
C878 C877 1.396 1_455 S
C878 C879 1.399 1_455 S
C879 H865 0.929 1_655 S
C879 C878 1.399 1_655 S
C879 C880 1.386 . S
C880 H866 0.931 . S
C880 C879 1.386 . S
C880 C881 1.389 . S
C881 C880 1.389 . S
C881 C882 1.387 . S
C882 H867 0.930 . S
C882 C877 1.390 . S
C882 C881 1.387 . S
H883 C895 0.930 . S
H884 C897 0.930 . S
H885 C898 0.930 . S
H886 C902 0.959 . S
H887 C902 0.959 . S
H888 C902 0.961 . S
H889 C903 0.960 . S
H890 C903 0.961 . S
H891 C903 0.959 . S
H892 C906 0.929 . S
H893 C907 0.931 . S
H894 C909 0.930 . S
C895 H883 0.930 . S
C895 C896 1.399 1_545 S
C895 C900 1.399 . S
C896 C895 1.399 1_565 S
C896 C897 1.376 . S
C897 H884 0.930 . S
C897 C896 1.376 . S
C897 C898 1.388 . S
C898 H885 0.930 . S
C898 C897 1.388 . S
C898 C899 1.390 . S
C899 C898 1.390 . S
C899 C900 1.394 1_565 S
C899 C905 1.465 . S
C900 C895 1.399 . S
C900 C899 1.394 1_545 S
C900 C901 1.516 . S
C901 C900 1.516 . S
C901 C902 1.502 . S
C901 C903 1.561 . S
C901 C904 1.526 . S
C902 H886 0.959 . S
C902 H887 0.959 . S
C902 H888 0.961 . S
C902 C901 1.502 . S
C903 H889 0.960 . S
C903 H890 0.961 . S
C903 H891 0.959 . S
C903 C901 1.561 . S
C904 C901 1.526 . S
C904 C905 1.396 1_545 S
C904 C909 1.390 . S
C905 C899 1.465 . S
C905 C904 1.396 1_565 S
C905 C906 1.399 . S
C906 H892 0.929 . S
C906 C905 1.399 . S
C906 C907 1.385 . S
C907 H893 0.931 . S
C907 C906 1.385 . S
C907 C908 1.389 1_565 S
C908 C907 1.389 1_545 S
C908 C909 1.387 . S
C909 H894 0.930 . S
C909 C904 1.390 . S
C909 C908 1.387 . S
H910 C922 0.930 . S
H911 C924 0.930 . S
H912 C925 0.930 . S
H913 C929 0.959 . S
H914 C929 0.959 . S
H915 C929 0.961 . S
H916 C930 0.960 . S
H917 C930 0.961 . S
H918 C930 0.959 1_655 S
H919 C933 0.929 . S
H920 C934 0.931 . S
H921 C936 0.930 . S
C922 H910 0.930 . S
C922 C923 1.399 . S
C922 C927 1.399 . S
C923 C922 1.399 . S
C923 C924 1.376 1_455 S
C924 H911 0.930 . S
C924 C923 1.376 1_655 S
C924 C925 1.388 . S
C925 H912 0.930 . S
C925 C924 1.388 . S
C925 C926 1.390 . S
C926 C925 1.390 . S
C926 C927 1.394 1_655 S
C926 C932 1.465 . S
C927 C922 1.399 . S
C927 C926 1.394 1_455 S
C927 C928 1.516 . S
C928 C927 1.516 . S
C928 C929 1.502 . S
C928 C930 1.561 . S
C928 C931 1.526 . S
C929 H913 0.959 . S
C929 H914 0.959 . S
C929 H915 0.961 . S
C929 C928 1.502 . S
C930 H916 0.960 . S
C930 H917 0.961 . S
C930 H918 0.959 1_455 S
C930 C928 1.561 . S
C931 C928 1.526 . S
C931 C932 1.396 1_455 S
C931 C936 1.390 . S
C932 C926 1.465 . S
C932 C931 1.396 1_655 S
C932 C933 1.399 . S
C933 H919 0.929 . S
C933 C932 1.399 . S
C933 C934 1.385 . S
C934 H920 0.931 . S
C934 C933 1.385 . S
C934 C935 1.389 . S
C935 C934 1.389 . S
C935 C936 1.387 1_655 S
C936 H921 0.930 . S
C936 C931 1.390 . S
C936 C935 1.387 1_455 S
H937 C949 0.930 . S
H938 C951 0.930 . S
H939 C952 0.930 . S
H940 C956 0.959 . S
H941 C956 0.959 . S
H942 C956 0.961 . S
H943 C957 0.960 . S
H944 C957 0.961 . S
H945 C957 0.959 . S
H946 C960 0.929 . S
H947 C961 0.931 . S
H948 C963 0.930 . S
C949 H937 0.930 . S
C949 C950 1.399 . S
C949 C954 1.399 . S
C950 C949 1.399 . S
C950 C951 1.376 1_545 S
C951 H938 0.930 . S
C951 C950 1.376 1_565 S
C951 C952 1.388 . S
C952 H939 0.930 . S
C952 C951 1.388 . S
C952 C953 1.390 . S
C953 C952 1.390 . S
C953 C954 1.394 1_565 S
C953 C959 1.465 . S
C954 C949 1.399 . S
C954 C953 1.394 1_545 S
C954 C955 1.516 . S
C955 C954 1.516 . S
C955 C956 1.502 . S
C955 C957 1.561 . S
C955 C958 1.526 . S
C956 H940 0.959 . S
C956 H941 0.959 . S
C956 H942 0.961 . S
C956 C955 1.502 . S
C957 H943 0.960 . S
C957 H944 0.961 . S
C957 H945 0.959 . S
C957 C955 1.561 . S
C958 C955 1.526 . S
C958 C959 1.396 1_545 S
C958 C963 1.390 . S
C959 C953 1.465 . S
C959 C958 1.396 1_565 S
C959 C960 1.399 . S
C960 H946 0.929 . S
C960 C959 1.399 . S
C960 C961 1.385 . S
C961 H947 0.931 . S
C961 C960 1.385 . S
C961 C962 1.389 . S
C962 C961 1.389 . S
C962 C963 1.387 1_565 S
C963 H948 0.930 . S
C963 C958 1.390 . S
C963 C962 1.387 1_545 S
H964 C976 0.930 . S
H965 C978 0.930 . S
H966 C979 0.930 . S
H967 C983 0.959 . S
H968 C983 0.959 1_554 S
H969 C983 0.961 . S
H970 C984 0.960 . S
H971 C984 0.961 1_554 S
H972 C984 0.961 . S
H973 C987 0.929 . S
H974 C988 0.931 . S
H975 C990 0.930 . S
C976 H964 0.930 . S
C976 C977 1.399 . S
C976 C981 1.399 . S
C977 C976 1.399 . S
C977 C978 1.376 . S
C978 H965 0.930 . S
C978 C977 1.376 . S
C978 C979 1.388 . S
C979 H966 0.930 . S
C979 C978 1.388 . S
C979 C980 1.390 . S
C980 C979 1.390 . S
C980 C981 1.394 . S
C980 C986 1.465 1_556 S
C981 C976 1.399 . S
C981 C980 1.394 . S
C981 C982 1.516 . S
C982 C981 1.516 . S
C982 C983 1.502 . S
C982 C984 1.561 . S
C982 C985 1.526 1_556 S
C983 H967 0.959 . S
C983 H968 0.959 1_556 S
C983 H969 0.961 . S
C983 C982 1.502 . S
C984 H970 0.960 . S
C984 H971 0.961 1_556 S
C984 H972 0.961 . S
C984 C982 1.561 . S
C985 C982 1.526 1_554 S
C985 C986 1.396 . S
C985 C990 1.390 . S
C986 C980 1.465 1_554 S
C986 C985 1.396 . S
C986 C987 1.399 . S
C987 H973 0.929 . S
C987 C986 1.399 . S
C987 C988 1.385 . S
C988 H974 0.931 . S
C988 C987 1.385 . S
C988 C989 1.389 . S
C989 C988 1.389 . S
C989 C990 1.387 . S
C990 H975 0.930 . S
C990 C985 1.390 . S
C990 C989 1.387 . S
H991 C1003 0.930 . S
H992 C1005 0.930 . S
H993 C1006 0.930 . S
H994 C1010 0.959 . S
H995 C1010 0.959 . S
H996 C1010 0.961 1_556 S
H997 C1011 0.960 1_556 S
H998 C1011 0.961 . S
H999 C1011 0.959 . S
H1000 C1014 0.929 . S
H1001 C1015 0.931 . S
H1002 C1017 0.930 . S
C1003 H991 0.930 . S
C1003 C1004 1.399 . S
C1003 C1008 1.399 . S
C1004 C1003 1.399 . S
C1004 C1005 1.376 . S
C1005 H992 0.930 . S
C1005 C1004 1.376 . S
C1005 C1006 1.388 . S
C1006 H993 0.930 . S
C1006 C1005 1.388 . S
C1006 C1007 1.390 . S
C1007 C1006 1.390 . S
C1007 C1008 1.394 . S
C1007 C1013 1.465 1_556 S
C1008 C1003 1.399 . S
C1008 C1007 1.394 . S
C1008 C1009 1.516 1_556 S
C1009 C1008 1.516 1_554 S
C1009 C1010 1.502 . S
C1009 C1011 1.561 . S
C1009 C1012 1.526 . S
C1010 H994 0.959 . S
C1010 H995 0.959 . S
C1010 H996 0.961 1_554 S
C1010 C1009 1.502 . S
C1011 H997 0.960 1_554 S
C1011 H998 0.961 . S
C1011 H999 0.959 . S
C1011 C1009 1.561 . S
C1012 C1009 1.526 . S
C1012 C1013 1.396 . S
C1012 C1017 1.390 . S
C1013 C1007 1.465 1_554 S
C1013 C1012 1.396 . S
C1013 C1014 1.399 . S
C1014 H1000 0.929 . S
C1014 C1013 1.399 . S
C1014 C1015 1.385 . S
C1015 H1001 0.931 . S
C1015 C1014 1.385 . S
C1015 C1016 1.389 . S
C1016 C1015 1.389 . S
C1016 C1017 1.387 . S
C1017 H1002 0.930 . S
C1017 C1012 1.390 . S
C1017 C1016 1.387 . S
H1018 C1030 0.930 . S
H1019 C1032 0.930 . S
H1020 C1033 0.930 . S
H1021 C1037 0.959 . S
H1022 C1037 0.959 . S
H1023 C1037 0.961 1_554 S
H1024 C1038 0.960 . S
H1025 C1038 0.961 1_556 S
H1026 C1038 0.959 . S
H1027 C1041 0.929 . S
H1028 C1042 0.931 . S
H1029 C1044 0.930 . S
C1030 H1018 0.930 . S
C1030 C1031 1.399 . S
C1030 C1035 1.399 . S
C1031 C1030 1.399 . S
C1031 C1032 1.376 . S
C1032 H1019 0.930 . S
C1032 C1031 1.376 . S
C1032 C1033 1.388 . S
C1033 H1020 0.930 . S
C1033 C1032 1.388 . S
C1033 C1034 1.390 . S
C1034 C1033 1.390 . S
C1034 C1035 1.394 . S
C1034 C1040 1.465 1_554 S
C1035 C1030 1.399 . S
C1035 C1034 1.394 . S
C1035 C1036 1.516 1_554 S
C1036 C1035 1.516 1_556 S
C1036 C1037 1.502 . S
C1036 C1038 1.561 1_556 S
C1036 C1039 1.526 . S
C1037 H1021 0.959 . S
C1037 H1022 0.959 . S
C1037 H1023 0.961 1_556 S
C1037 C1036 1.502 . S
C1038 H1024 0.960 . S
C1038 H1025 0.961 1_554 S
C1038 H1026 0.959 . S
C1038 C1036 1.561 1_554 S
C1039 C1036 1.526 . S
C1039 C1040 1.396 . S
C1039 C1044 1.390 . S
C1040 C1034 1.465 1_556 S
C1040 C1039 1.396 . S
C1040 C1041 1.399 . S
C1041 H1027 0.929 . S
C1041 C1040 1.399 . S
C1041 C1042 1.385 . S
C1042 H1028 0.931 . S
C1042 C1041 1.385 . S
C1042 C1043 1.389 . S
C1043 C1042 1.389 . S
C1043 C1044 1.387 . S
C1044 H1029 0.930 . S
C1044 C1039 1.390 . S
C1044 C1043 1.387 . S
H1045 C1057 0.930 . S
H1046 C1059 0.930 . S
H1047 C1060 0.930 . S
H1048 C1064 0.959 . S
H1049 C1064 0.959 1_554 S
H1050 C1064 0.961 . S
H1051 C1065 0.960 . S
H1052 C1065 0.961 1_554 S
H1053 C1065 0.959 . S
H1054 C1068 0.929 . S
H1055 C1069 0.931 . S
H1056 C1071 0.930 . S
C1057 H1045 0.930 . S
C1057 C1058 1.399 . S
C1057 C1062 1.399 . S
C1058 C1057 1.399 . S
C1058 C1059 1.376 . S
C1059 H1046 0.930 . S
C1059 C1058 1.376 . S
C1059 C1060 1.388 . S
C1060 H1047 0.930 . S
C1060 C1059 1.388 . S
C1060 C1061 1.390 . S
C1061 C1060 1.390 . S
C1061 C1062 1.394 . S
C1061 C1067 1.465 1_556 S
C1062 C1057 1.399 . S
C1062 C1061 1.394 . S
C1062 C1063 1.516 . S
C1063 C1062 1.516 . S
C1063 C1064 1.502 . S
C1063 C1065 1.561 . S
C1063 C1066 1.526 1_556 S
C1064 H1048 0.959 . S
C1064 H1049 0.959 1_556 S
C1064 H1050 0.961 . S
C1064 C1063 1.502 . S
C1065 H1051 0.960 . S
C1065 H1052 0.961 1_556 S
C1065 H1053 0.959 . S
C1065 C1063 1.561 . S
C1066 C1063 1.526 1_554 S
C1066 C1067 1.396 . S
C1066 C1071 1.390 . S
C1067 C1061 1.465 1_554 S
C1067 C1066 1.396 . S
C1067 C1068 1.399 . S
C1068 H1054 0.929 . S
C1068 C1067 1.399 . S
C1068 C1069 1.385 . S
C1069 H1055 0.931 . S
C1069 C1068 1.385 . S
C1069 C1070 1.389 . S
C1070 C1069 1.389 . S
C1070 C1071 1.387 . S
C1071 H1056 0.930 . S
C1071 C1066 1.390 . S
C1071 C1070 1.387 . S
C221 C10 1.571 . S
C233 C42 1.586 . S
C248 C5 1.607 . S
C260 C23 1.602 . S
C275 C18 1.602 . S
C287 C30 1.602 . S
C302 C29 1.607 . S
C314 C43 1.602 . S
C329 C62 1.596 . S
C341 C70 1.594 . S
C356 C75 1.557 . S
C368 C81 1.571 . S
C383 C82 1.568 . S
C395 C96 1.583 . S
C410 C101 1.593 . S
C422 C57 1.591 . S
C437 C108 1.554 . S
C449 C146 1.564 . S
C464 C107 1.602 . S
C476 C127 1.602 . S
C491 C122 1.607 . S
C503 C134 1.601 . S
C518 C147 1.586 . S
C530 C133 1.585 . S
C545 C174 1.564 . S
C557 C166 1.555 . S
C572 C187 1.572 . S
C584 C179 1.558 . S
C599 C192 1.565 . S
C611 C200 1.581 . S
C626 C205 1.571 . S
C638 C161 1.586 . S
C653 C4 1.129 . S
C665 C199 1.160 . S
C680 C17 1.149 . S
C692 C160 1.108 . S
C707 C173 1.119 . S
C719 C36 1.107 . S
C734 C49 1.151 . S
C746 C186 1.110 . S
C761 C121 1.130 . S
C773 C56 1.104 . S
C788 C140 1.135 . S
C800 C69 1.104 . S
C815 C88 1.137 . S
C827 C153 1.159 . S
C842 C95 1.138 . S
C854 C114 1.104 . S
C869 C3 1.672 . S
C881 C83 1.683 . S
C896 C94 1.639 . S
C908 C16 1.662 . S
C923 C55 1.669 . S
C935 C31 1.640 . S
C950 C68 1.685 . S
C962 C44 1.658 . S
C977 C109 1.646 . S
C989 C185 1.679 . S
C1004 C120 1.685 . S
C1016 C198 1.660 . S
C1031 C159 1.660 . S
C1043 C135 1.640 . S
C1058 C148 1.640 . S
C1070 C172 1.670 . S
