# Generated by pormake.
# Topology wkj, (6)-cn, num edge types: 1
# Building blocks:
#     Node 0, Type 0, BuildingBlock: BETFAJ_clean_sbu_0, # of connection points: 6
#     Node 1, Type 0, BuildingBlock: BETFAJ_clean_sbu_0, # of connection points: 6
#     Node 2, Type 0, BuildingBlock: BETFAJ_clean_sbu_0, # of connection points: 6
#     Node 3, Type 0, BuildingBlock: BETFAJ_clean_sbu_0, # of connection points: 6
#     Node 4, Type 0, BuildingBlock: BETFAJ_clean_sbu_0, # of connection points: 6
#     Node 5, Type 0, BuildingBlock: BETFAJ_clean_sbu_0, # of connection points: 6
#     Node 6, Type 0, BuildingBlock: BETFAJ_clean_sbu_0, # of connection points: 6
#     Node 7, Type 0, BuildingBlock: BETFAJ_clean_sbu_0, # of connection points: 6
#     Node 8, Type 0, BuildingBlock: BETFAJ_clean_sbu_0, # of connection points: 6
#     Node 9, Type 0, BuildingBlock: BETFAJ_clean_sbu_0, # of connection points: 6
#     Node 10, Type 0, BuildingBlock: BETFAJ_clean_sbu_0, # of connection points: 6
#     Node 11, Type 0, BuildingBlock: BETFAJ_clean_sbu_0, # of connection points: 6
#     Edge 12, Type (0, 0), BuildingBlock: ZUJKAS_clean_linker_0, # of connection points: 2
#     Edge 13, Type (0, 0), BuildingBlock: ZUJKAS_clean_linker_0, # of connection points: 2
#     Edge 14, Type (0, 0), BuildingBlock: ZUJKAS_clean_linker_0, # of connection points: 2
#     Edge 15, Type (0, 0), BuildingBlock: ZUJKAS_clean_linker_0, # of connection points: 2
#     Edge 16, Type (0, 0), BuildingBlock: ZUJKAS_clean_linker_0, # of connection points: 2
#     Edge 17, Type (0, 0), BuildingBlock: ZUJKAS_clean_linker_0, # of connection points: 2
#     Edge 18, Type (0, 0), BuildingBlock: ZUJKAS_clean_linker_0, # of connection points: 2
#     Edge 19, Type (0, 0), BuildingBlock: ZUJKAS_clean_linker_0, # of connection points: 2
#     Edge 20, Type (0, 0), BuildingBlock: ZUJKAS_clean_linker_0, # of connection points: 2
#     Edge 21, Type (0, 0), BuildingBlock: ZUJKAS_clean_linker_0, # of connection points: 2
#     Edge 22, Type (0, 0), BuildingBlock: ZUJKAS_clean_linker_0, # of connection points: 2
#     Edge 23, Type (0, 0), BuildingBlock: ZUJKAS_clean_linker_0, # of connection points: 2
#     Edge 24, Type (0, 0), BuildingBlock: ZUJKAS_clean_linker_0, # of connection points: 2
#     Edge 25, Type (0, 0), BuildingBlock: ZUJKAS_clean_linker_0, # of connection points: 2
#     Edge 26, Type (0, 0), BuildingBlock: ZUJKAS_clean_linker_0, # of connection points: 2
#     Edge 27, Type (0, 0), BuildingBlock: ZUJKAS_clean_linker_0, # of connection points: 2
#     Edge 28, Type (0, 0), BuildingBlock: ZUJKAS_clean_linker_0, # of connection points: 2
#     Edge 29, Type (0, 0), BuildingBlock: ZUJKAS_clean_linker_0, # of connection points: 2
#     Edge 30, Type (0, 0), BuildingBlock: ZUJKAS_clean_linker_0, # of connection points: 2
#     Edge 31, Type (0, 0), BuildingBlock: ZUJKAS_clean_linker_0, # of connection points: 2
#     Edge 32, Type (0, 0), BuildingBlock: ZUJKAS_clean_linker_0, # of connection points: 2
#     Edge 33, Type (0, 0), BuildingBlock: ZUJKAS_clean_linker_0, # of connection points: 2
#     Edge 34, Type (0, 0), BuildingBlock: ZUJKAS_clean_linker_0, # of connection points: 2
#     Edge 35, Type (0, 0), BuildingBlock: ZUJKAS_clean_linker_0, # of connection points: 2
#     Edge 36, Type (0, 0), BuildingBlock: ZUJKAS_clean_linker_0, # of connection points: 2
#     Edge 37, Type (0, 0), BuildingBlock: ZUJKAS_clean_linker_0, # of connection points: 2
#     Edge 38, Type (0, 0), BuildingBlock: ZUJKAS_clean_linker_0, # of connection points: 2
#     Edge 39, Type (0, 0), BuildingBlock: ZUJKAS_clean_linker_0, # of connection points: 2
#     Edge 40, Type (0, 0), BuildingBlock: ZUJKAS_clean_linker_0, # of connection points: 2
#     Edge 41, Type (0, 0), BuildingBlock: ZUJKAS_clean_linker_0, # of connection points: 2
#     Edge 42, Type (0, 0), BuildingBlock: ZUJKAS_clean_linker_0, # of connection points: 2
#     Edge 43, Type (0, 0), BuildingBlock: ZUJKAS_clean_linker_0, # of connection points: 2
#     Edge 44, Type (0, 0), BuildingBlock: ZUJKAS_clean_linker_0, # of connection points: 2
#     Edge 45, Type (0, 0), BuildingBlock: ZUJKAS_clean_linker_0, # of connection points: 2
#     Edge 46, Type (0, 0), BuildingBlock: ZUJKAS_clean_linker_0, # of connection points: 2
#     Edge 47, Type (0, 0), BuildingBlock: ZUJKAS_clean_linker_0, # of connection points: 2
# Relax obj value: 0.574
# Max RMSD: 0.174
# Mean RMSD: 0.174
data_MOF--net-wkj--node1-BETFAJ_clean_sbu_0--edge1-ZUJKAS_clean_linker_0
_symmetry_space_group_name_H-M    P1
_symmetry_Int_Tables_number       1
_symmetry_cell_setting            triclinic
loop_
_symmetry_equiv_pos_as_xyz
'x, y, z'
_cell_length_a     61.354891
_cell_length_b     61.191994
_cell_length_c     38.858854
_cell_angle_alpha  89.846626
_cell_angle_beta   89.918953
_cell_angle_gamma 119.78335
loop_
_atom_site_label
_atom_site_type_symbol
_atom_site_fract_x
_atom_site_fract_y
_atom_site_fract_z
_atom_type_partial_charge
Sm0 Sm 0.47605 0.09848 0.33766 0.0
Sm1 Sm 0.52293 0.10328 0.3219 0.0
C2 C 0.4284 0.08575 0.3477 0.0
C3 C 0.41185 0.07914 0.37765 0.0
C4 C 0.42212 0.0851 0.41075 0.0
C5 C 0.40642 0.07801 0.43942 0.0
C6 C 0.38018 0.06471 0.43548 0.0
C7 C 0.36994 0.05888 0.40221 0.0
C8 C 0.38574 0.06614 0.37342 0.0
C9 C 0.50963 0.14811 0.32086 0.0
C10 C 0.51368 0.10838 0.40593 0.0
C11 C 0.57211 0.12544 0.31175 0.0
C12 C 0.58877 0.15019 0.29623 0.0
C13 C 0.58072 0.16799 0.2944 0.0
C14 C 0.59489 0.19057 0.27667 0.0
C15 C 0.61735 0.19574 0.26024 0.0
C16 C 0.62608 0.17846 0.26357 0.0
C17 C 0.61179 0.15574 0.28141 0.0
C18 C 0.48782 0.05557 0.34549 0.0
C19 C 0.48359 0.0763 0.25963 0.0
O20 O 0.43554 0.06958 0.33956 0.0
O21 O 0.44674 0.109 0.34641 0.0
O22 O 0.50733 0.1291 0.30413 0.0
O23 O 0.49587 0.14066 0.34834 0.0
O24 O 0.48978 0.09942 0.39614 0.0
O25 O 0.53056 0.11391 0.38111 0.0
O26 O 0.56196 0.12616 0.34088 0.0
O27 O 0.55586 0.10844 0.29098 0.0
O28 O 0.49226 0.07632 0.35673 0.0
O29 O 0.50519 0.05904 0.32335 0.0
O30 O 0.50748 0.08648 0.26805 0.0
O31 O 0.46805 0.07835 0.28194 0.0
H32 H 0.44228 0.09489 0.41443 0.0
H33 H 0.41486 0.08223 0.46476 0.0
H34 H 0.34979 0.04859 0.39851 0.0
H35 H 0.3776 0.06134 0.34793 0.0
H36 H 0.56299 0.16407 0.30572 0.0
H37 H 0.58775 0.20355 0.2746 0.0
H38 H 0.64316 0.18184 0.25072 0.0
H39 H 0.61825 0.14218 0.28255 0.0
Sm40 Sm 0.39675 0.48022 0.67327 0.0
Sm41 Sm 0.43566 0.52822 0.65674 0.0
C42 C 0.36431 0.43169 0.68295 0.0
C43 C 0.35731 0.41254 0.71009 0.0
C44 C 0.37508 0.40714 0.72452 0.0
C45 C 0.36842 0.39033 0.75204 0.0
C46 C 0.34401 0.37888 0.76596 0.0
C47 C 0.32601 0.38352 0.7505 0.0
C48 C 0.33261 0.40015 0.72272 0.0
C49 C 0.37717 0.51095 0.6551 0.0
C50 C 0.42277 0.51831 0.74102 0.0
C51 C 0.45814 0.5773 0.64602 0.0
C52 C 0.44814 0.59135 0.62727 0.0
C53 C 0.42258 0.58409 0.63062 0.0
C54 C 0.41173 0.59416 0.60898 0.0
C55 C 0.42614 0.61155 0.58331 0.0
C56 C 0.45206 0.62004 0.58133 0.0
C57 C 0.46297 0.60993 0.60315 0.0
C58 C 0.45362 0.49717 0.6815 0.0
C59 C 0.4248 0.48946 0.59432 0.0
O60 O 0.38617 0.44004 0.66814 0.0
O61 O 0.35905 0.44951 0.68911 0.0
O62 O 0.39451 0.50966 0.63878 0.0
O63 O 0.37147 0.49732 0.68264 0.0
O64 O 0.40961 0.49419 0.73132 0.0
O65 O 0.43235 0.53543 0.71608 0.0
O66 O 0.44632 0.56659 0.67448 0.0
O67 O 0.46305 0.56246 0.62747 0.0
O68 O 0.43539 0.49889 0.69209 0.0
O69 O 0.4652 0.51449 0.65814 0.0
O70 O 0.43536 0.51364 0.60152 0.0
O71 O 0.41026 0.47301 0.61837 0.0
H72 H 0.39426 0.41631 0.71516 0.0
H73 H 0.3826 0.38677 0.76298 0.0
H74 H 0.30712 0.37523 0.76078 0.0
H75 H 0.31859 0.40397 0.71179 0.0
H76 H 0.41058 0.56968 0.64889 0.0
H77 H 0.39177 0.58738 0.61117 0.0
H78 H 0.46353 0.63321 0.56145 0.0
H79 H 0.48265 0.61565 0.60002 0.0
Sm80 Sm 0.91319 0.38619 1.00101 0.0
Sm81 Sm 0.90531 0.42639 0.98362 0.0
C82 C 0.92706 0.35205 1.01262 0.0
C83 C 0.94107 0.34865 1.04066 0.0
C84 C 0.94373 0.36094 1.07204 0.0
C85 C 0.9559 0.35698 0.09948 0.0
C86 C 0.96564 0.34061 0.09612 0.0
C87 C 0.96377 0.32897 1.06425 0.0
C88 C 0.95146 0.33294 1.03665 0.0
C89 C 0.86329 0.36836 0.98222 0.0
C90 C 0.90422 0.41388 1.06889 0.0
C91 C 0.8813 0.45202 0.97523 0.0
C92 C 0.85872 0.44678 0.95601 0.0
C93 C 0.84398 0.42299 0.9412 0.0
C94 C 0.82142 0.417 0.92511 0.0
C95 C 0.81324 0.43474 0.92339 0.0
C96 C 0.82811 0.45862 0.9382 0.0
C97 C 0.85067 0.46455 0.95459 0.0
C98 C 0.95447 0.44223 1.00259 0.0
C99 C 0.93326 0.4139 0.92163 0.0
O100 O 0.93974 0.37173 0.99303 0.0
O101 O 0.90517 0.34899 1.02121 0.0
O102 O 0.88235 0.38508 0.96604 0.0
O103 O 0.87056 0.36246 1.0101 0.0
O104 O 0.91379 0.39958 1.05874 0.0
O105 O 0.89766 0.42468 1.04429 0.0
O106 O 0.87708 0.43645 1.00063 0.0
O107 O 0.90112 0.45654 0.9572 0.0
O108 O 0.93481 0.42605 1.01702 0.0
O109 O 0.94845 0.45344 0.97907 0.0
O110 O 0.91968 0.42482 0.92818 0.0
O111 O 0.93439 0.39904 0.94608 0.0
H112 H 0.93611 0.37339 1.07548 0.0
H113 H 0.95759 0.36667 0.12347 0.0
H114 H 0.97122 0.31634 1.06097 0.0
H115 H 0.94972 0.32348 1.01244 0.0
H116 H 0.84987 0.40898 0.94232 0.0
H117 H 0.81069 0.39867 0.91326 0.0
H118 H 0.82227 0.47265 0.93714 0.0
H119 H 0.86173 0.48288 0.96633 0.0
Sm120 Sm 0.53255 0.91682 0.34071 0.0
Sm121 Sm 0.48569 0.91074 0.32647 0.0
C122 C 0.58093 0.93114 0.34694 0.0
C123 C 0.60289 0.94668 0.3688 0.0
C124 C 0.61564 0.97311 0.36667 0.0
C125 C 0.63613 0.9875 0.38796 0.0
C126 C 0.64425 0.97578 0.41184 0.0
C127 C 0.63203 0.94934 0.41302 0.0
C128 C 0.61165 0.93495 0.39158 0.0
C129 C 0.5007 0.86702 0.32248 0.0
C130 C 0.4957 0.9072 0.41035 0.0
C131 C 0.43652 0.88737 0.31742 0.0
C132 C 0.42108 0.86498 0.29645 0.0
C133 C 0.42951 0.84778 0.29049 0.0
C134 C 0.41662 0.82768 0.26819 0.0
C135 C 0.39508 0.82439 0.25101 0.0
C136 C 0.38609 0.84113 0.25792 0.0
C137 C 0.39904 0.86133 0.28056 0.0
C138 C 0.51964 0.95917 0.34971 0.0
C139 C 0.52309 0.93714 0.26221 0.0
O140 O 0.57249 0.94284 0.32775 0.0
O141 O 0.56294 0.91042 0.3604 0.0
O142 O 0.50215 0.88604 0.30674 0.0
O143 O 0.51455 0.8744 0.34964 0.0
O144 O 0.51957 0.91703 0.39961 0.0
O145 O 0.47845 0.90054 0.38598 0.0
O146 O 0.44721 0.88332 0.34378 0.0
O147 O 0.45191 0.9078 0.30048 0.0
O148 O 0.51631 0.9387 0.36078 0.0
O149 O 0.50206 0.95472 0.32753 0.0
O150 O 0.49915 0.92504 0.27089 0.0
O151 O 0.53953 0.93751 0.28515 0.0
H152 H 0.60965 0.98274 0.34889 0.0
H153 H 0.64536 0.00783 0.38613 0.0
H154 H 0.63755 0.93969 0.43144 0.0
H155 H 0.60242 0.91461 0.39333 0.0
H156 H 0.44665 0.85037 0.30219 0.0
H157 H 0.42448 0.81562 0.26288 0.0
H158 H 0.36955 0.83906 0.245 0.0
H159 H 0.39232 0.87446 0.28481 0.0
Sm160 Sm 0.63082 0.54063 0.67121 0.0
Sm161 Sm 0.58806 0.49466 0.6548 0.0
C162 C 0.66648 0.58816 0.67976 0.0
C163 C 0.67357 0.60683 0.70714 0.0
C164 C 0.66654 0.59904 0.74128 0.0
C165 C 0.67333 0.61682 0.76732 0.0
C166 C 0.68706 0.64269 0.75961 0.0
C167 C 0.69371 0.65046 0.7253 0.0
C168 C 0.68708 0.63258 0.6992 0.0
C169 C 0.64546 0.50615 0.65145 0.0
C170 C 0.6008 0.50396 0.73958 0.0
C171 C 0.55923 0.44555 0.64646 0.0
C172 C 0.56207 0.42756 0.6245 0.0
C173 C 0.5859 0.42998 0.61994 0.0
C174 C 0.58928 0.4145 0.59699 0.0
C175 C 0.56899 0.39645 0.57772 0.0
C176 C 0.54493 0.39335 0.58324 0.0
C177 C 0.54149 0.40879 0.60658 0.0
C178 C 0.57747 0.53189 0.67395 0.0
C179 C 0.6037 0.53281 0.59122 0.0
O180 O 0.64523 0.58169 0.66448 0.0
O181 O 0.66947 0.56893 0.68659 0.0
O182 O 0.6291 0.50971 0.63617 0.0
O183 O 0.65232 0.51922 0.67939 0.0
O184 O 0.61757 0.52743 0.72975 0.0
O185 O 0.58845 0.48751 0.71481 0.0
O186 O 0.57591 0.45564 0.67087 0.0
O187 O 0.55487 0.46195 0.63075 0.0
O188 O 0.59226 0.52634 0.68817 0.0
O189 O 0.5642 0.51506 0.65104 0.0
O190 O 0.59197 0.50859 0.59861 0.0
O191 O 0.61835 0.54887 0.61556 0.0
H192 H 0.65575 0.57921 0.74777 0.0
H193 H 0.66749 0.61035 0.79348 0.0
H194 H 0.70423 0.67029 0.71876 0.0
H195 H 0.69246 0.63883 0.67287 0.0
H196 H 0.6022 0.44448 0.63316 0.0
H197 H 0.60814 0.41781 0.59278 0.0
H198 H 0.52898 0.37963 0.56861 0.0
H199 H 0.52298 0.40664 0.60978 0.0
Sm200 Sm 0.08617 0.59196 0.99823 0.0
Sm201 Sm 0.12019 0.57911 0.98429 0.0
C202 C 0.05368 0.60509 1.02158 0.0
C203 C 0.05343 0.62071 1.05024 0.0
C204 C 0.05377 0.61358 1.08451 0.0
C205 C 0.05456 0.62891 0.11141 0.0
C206 C 0.05524 0.65186 0.10478 0.0
C207 C 0.05455 0.65886 1.07051 0.0
C208 C 0.05362 0.64338 1.04346 0.0
C209 C 0.13234 0.63371 0.97702 0.0
C210 C 0.1093 0.57836 1.06798 0.0
C211 C 0.15993 0.57683 0.96113 0.0
C212 C 0.18231 0.59314 0.94059 0.0
C213 C 0.19244 0.61933 0.94104 0.0
C214 C 0.21261 0.63474 0.91976 0.0
C215 C 0.22276 0.62418 0.89732 0.0
C216 C 0.21345 0.59805 0.89811 0.0
C217 C 0.19329 0.5826 0.91967 0.0
C218 C 0.07801 0.5353 1.00045 0.0
C219 C 0.07831 0.57282 0.92064 0.0
O220 O 0.05278 0.58392 1.02963 0.0
O221 O 0.06953 0.61702 0.99675 0.0
O222 O 0.12931 0.61786 0.99991 0.0
O223 O 0.11093 0.62677 0.96255 0.0
O224 O 0.09236 0.58386 1.05618 0.0
O225 O 0.12424 0.57652 1.04484 0.0
O226 O 0.15876 0.58552 0.99113 0.0
O227 O 0.1385 0.56675 0.94513 0.0
O228 O 0.07841 0.55252 0.98182 0.0
O229 O 0.09934 0.54332 1.01549 0.0
O230 O 0.10171 0.57716 0.92717 0.0
O231 O 0.06589 0.57425 0.94727 0.0
H232 H 0.05352 0.59619 1.0907 0.0
H233 H 0.05431 0.62255 0.13752 0.0
H234 H 0.05502 0.6764 1.06459 0.0
H235 H 0.05333 0.64924 1.01721 0.0
H236 H 0.18429 0.62777 0.95717 0.0
H237 H 0.21969 0.65483 0.9199 0.0
H238 H 0.22078 0.58946 0.88068 0.0
H239 H 0.18574 0.5624 0.91914 0.0
Sm240 Sm 0.92138 0.51672 0.51182 0.0
Sm241 Sm 0.88664 0.46911 0.52513 0.0
C242 C 0.95282 0.56448 0.49552 0.0
C243 C 0.96733 0.58377 0.46974 0.0
C244 C 0.97583 0.57822 0.43931 0.0
C245 C 0.98864 0.59714 0.41476 0.0
C246 C 0.99287 0.62169 0.42031 0.0
C247 C 0.98463 0.62713 0.4511 0.0
C248 C 0.97201 0.60831 0.47564 0.0
C249 C 0.8759 0.51133 0.53819 0.0
C250 C 0.89918 0.48153 0.44152 0.0
C251 C 0.84597 0.42863 0.54899 0.0
C252 C 0.82728 0.4247 0.57532 0.0
C253 C 0.82678 0.44548 0.58932 0.0
C254 C 0.80845 0.44208 0.61325 0.0
C255 C 0.79082 0.41777 0.62482 0.0
C256 C 0.79143 0.39691 0.6106 0.0
C257 C 0.80943 0.40037 0.5858 0.0
C258 C 0.92594 0.4659 0.49983 0.0
C259 C 0.92933 0.5031 0.58874 0.0
O260 O 0.96029 0.5487 0.50456 0.0
O261 O 0.92848 0.55419 0.49414 0.0
O262 O 0.87848 0.49977 0.51335 0.0
O263 O 0.89756 0.52459 0.55268 0.0
O264 O 0.91745 0.50297 0.45405 0.0
O265 O 0.8826 0.46522 0.46399 0.0
O266 O 0.84598 0.44163 0.5224 0.0
O267 O 0.86859 0.43565 0.55992 0.0
O268 O 0.92846 0.48313 0.52072 0.0
O269 O 0.90282 0.45181 0.49074 0.0
O270 O 0.90684 0.48304 0.58148 0.0
O271 O 0.94066 0.51921 0.56364 0.0
H272 H 0.97219 0.55929 0.43432 0.0
H273 H 0.99451 0.59238 0.39097 0.0
H274 H 0.98777 0.64589 0.45606 0.0
H275 H 0.96555 0.61283 0.49911 0.0
H276 H 0.84069 0.46437 0.5818 0.0
H277 H 0.8084 0.4586 0.62304 0.0
H278 H 0.77852 0.37795 0.61932 0.0
H279 H 0.80961 0.38411 0.57515 0.0
Sm280 Sm 0.3799 0.9104 0.84751 0.0
Sm281 Sm 0.42093 0.90489 0.86343 0.0
C282 C 0.34484 0.92342 0.83964 0.0
C283 C 0.33876 0.93803 0.81513 0.0
C284 C 0.35157 0.96449 0.8159 0.0
C285 C 0.34721 0.97804 0.79055 0.0
C286 C 0.32994 0.96541 0.76403 0.0
C287 C 0.31609 0.93896 0.76452 0.0
C288 C 0.32038 0.92543 0.78992 0.0
C289 C 0.36229 0.86049 0.86516 0.0
C290 C 0.40927 0.90334 0.77854 0.0
C291 C 0.44881 0.88341 0.87228 0.0
C292 C 0.4459 0.86301 0.89524 0.0
C293 C 0.42173 0.8438 0.90438 0.0
C294 C 0.41861 0.82511 0.9276 0.0
C295 C 0.43956 0.82537 0.94256 0.0
C296 C 0.4638 0.84431 0.93284 0.0
C297 C 0.46694 0.86298 0.90918 0.0
C298 C 0.43336 0.95323 0.84358 0.0
C299 C 0.40821 0.93031 0.92666 0.0
O300 O 0.3647 0.93587 0.85882 0.0
O301 O 0.34263 0.90237 0.82827 0.0
O302 O 0.3794 0.87922 0.88168 0.0
O303 O 0.35747 0.86842 0.83698 0.0
O304 O 0.39387 0.91174 0.78887 0.0
O305 O 0.42048 0.89748 0.80321 0.0
O306 O 0.43159 0.87663 0.84858 0.0
O307 O 0.45397 0.90463 0.887 0.0
O308 O 0.41819 0.93312 0.8298 0.0
O309 O 0.44616 0.9492 0.86683 0.0
O310 O 0.4196 0.91747 0.91917 0.0
O311 O 0.39292 0.93124 0.90284 0.0
H312 H 0.36551 0.97477 0.83543 0.0
H313 H 0.35788 0.99842 0.79115 0.0
H314 H 0.30285 0.92861 0.74429 0.0
H315 H 0.30992 0.90504 0.78907 0.0
H316 H 0.40517 0.84359 0.89428 0.0
H317 H 0.3997 0.81121 0.9352 0.0
H318 H 0.48026 0.84502 0.94417 0.0
H319 H 0.48572 0.87769 0.90245 0.0
Sm320 Sm 0.48459 0.39217 0.17671 0.0
Sm321 Sm 0.53107 0.43417 0.19297 0.0
C322 C 0.43696 0.35668 0.16849 0.0
C323 C 0.41916 0.34764 0.13998 0.0
C324 C 0.42678 0.35866 0.10739 0.0
C325 C 0.4101 0.34972 1.07992 0.0
C326 C 0.38553 0.3295 1.08452 0.0
C327 C 0.37786 0.31867 0.11739 0.0
C328 C 0.39465 0.32768 0.14498 0.0
C329 C 0.51839 0.37636 0.19386 0.0
C330 C 0.52111 0.422 0.10818 0.0
C331 C 0.5802 0.46108 0.20139 0.0
C332 C 0.5968 0.4558 0.22278 0.0
C333 C 0.59118 0.43076 0.22757 0.0
C334 C 0.60492 0.42502 0.25063 0.0
C335 C 0.62442 0.44414 0.2698 0.0
C336 C 0.63083 0.46936 0.26383 0.0
C337 C 0.61709 0.47514 0.2404 0.0
C338 C 0.49502 0.44642 0.17364 0.0
C339 C 0.49306 0.41947 0.25661 0.0
O340 O 0.44378 0.37932 0.17936 0.0
O341 O 0.45582 0.35264 0.16553 0.0
O342 O 0.51554 0.39273 0.2105 0.0
O343 O 0.5053 0.37048 0.16592 0.0
O344 O 0.49775 0.40507 0.11809 0.0
O345 O 0.53763 0.43445 0.13281 0.0
O346 O 0.56962 0.44546 0.17591 0.0
O347 O 0.56452 0.46599 0.21789 0.0
O348 O 0.49984 0.431 0.15983 0.0
O349 O 0.51217 0.45951 0.19631 0.0
O350 O 0.51716 0.43142 0.2489 0.0
O351 O 0.47692 0.4044 0.23269 0.0
H352 H 0.44566 0.37414 0.10319 0.0
H353 H 0.41639 0.35885 1.05509 0.0
H354 H 0.35907 0.30308 0.12163 0.0
H355 H 0.38859 0.319 0.1701 0.0
H356 H 0.57542 0.41541 0.21456 0.0
H357 H 0.59906 0.40538 0.25515 0.0
H358 H 0.64575 0.48446 0.27832 0.0
H359 H 0.62167 0.49455 0.23704 0.0
Sm360 Sm 0.10614 0.48101 0.5143 0.0
Sm361 Sm 0.11321 0.52915 0.53003 0.0
C362 C 0.09452 0.43347 0.50487 0.0
C363 C 0.08646 0.41646 0.47509 0.0
C364 C 0.09874 0.42471 0.44323 0.0
C365 C 0.09046 0.40886 0.41477 0.0
C366 C 0.06958 0.38452 0.41743 0.0
C367 C 0.05727 0.37624 0.44933 0.0
C368 C 0.06575 0.39208 0.478 0.0
C369 C 0.15621 0.51453 0.52907 0.0
C370 C 0.1123 0.51549 0.44482 0.0
C371 C 0.13604 0.5788 0.53628 0.0
C372 C 0.15781 0.59686 0.5562 0.0
C373 C 0.17381 0.58918 0.57082 0.0
C374 C 0.19531 0.60639 0.58833 0.0
C375 C 0.20114 0.63159 0.59178 0.0
C376 C 0.185 0.63923 0.57721 0.0
C377 C 0.16351 0.62195 0.55932 0.0
C378 C 0.06389 0.49447 0.5151 0.0
C379 C 0.08824 0.48995 0.59431 0.0
O380 O 0.07855 0.43992 0.51623 0.0
O381 O 0.11743 0.45236 0.50405 0.0
O382 O 0.13763 0.51212 0.54667 0.0
O383 O 0.14819 0.50129 0.50133 0.0
O384 O 0.10459 0.49212 0.45593 0.0
O385 O 0.11813 0.53321 0.46864 0.0
O386 O 0.14135 0.56725 0.51237 0.0
O387 O 0.11585 0.56359 0.55371 0.0
O388 O 0.08318 0.49819 0.49917 0.0
O389 O 0.0702 0.51197 0.53808 0.0
O390 O 0.10084 0.51429 0.58647 0.0
O391 O 0.08711 0.47365 0.57054 0.0
H392 H 0.11452 0.44358 0.44009 0.0
H393 H 0.09994 0.41599 0.39035 0.0
H394 H 0.04107 0.35759 0.45204 0.0
H395 H 0.05595 0.38546 0.50234 0.0
H396 H 0.16967 0.56983 0.56863 0.0
H397 H 0.20701 0.59977 0.60001 0.0
H398 H 0.18899 0.65849 0.5797 0.0
H399 H 0.15139 0.62816 0.54793 0.0
Sm400 Sm 0.61815 0.08986 0.84152 0.0
Sm401 Sm 0.5847 0.10804 0.85706 0.0
C402 C 0.6465 0.07119 0.81948 0.0
C403 C 0.65692 0.06735 0.78771 0.0
C404 C 0.64508 0.06478 0.756 0.0
C405 C 0.6559 0.06198 0.72593 0.0
C406 C 0.67883 0.06195 0.72712 0.0
C407 C 0.69058 0.06456 0.75905 0.0
C408 C 0.67967 0.06723 0.78911 0.0
C409 C 0.6427 0.1357 0.87584 0.0
C410 C 0.59585 0.10979 0.77423 0.0
C411 C 0.56915 0.13732 0.88447 0.0
C412 C 0.58175 0.15535 0.91226 0.0
C413 C 0.60199 0.15519 0.92868 0.0
C414 C 0.61613 0.17343 0.95286 0.0
C415 C 0.61021 0.19216 0.96143 0.0
C416 C 0.59012 0.1926 0.94461 0.0
C417 C 0.57596 0.17426 0.92001 0.0
C418 C 0.56009 0.06215 0.82527 0.0
C419 C 0.59139 0.07298 0.91893 0.0
O420 O 0.62225 0.05754 0.82405 0.0
O421 O 0.65546 0.09456 0.82869 0.0
O422 O 0.62736 0.13056 0.85113 0.0
O423 O 0.64383 0.11581 0.88418 0.0
O424 O 0.60976 0.09965 0.78445 0.0
O425 O 0.58493 0.11644 0.7982 0.0
O426 O 0.58242 0.14305 0.85625 0.0
O427 O 0.55945 0.11354 0.89285 0.0
O428 O 0.57671 0.06799 0.84798 0.0
O429 O 0.55391 0.07949 0.82169 0.0
O430 O 0.5834 0.08904 0.91121 0.0
O431 O 0.60442 0.06864 0.89515 0.0
H432 H 0.62755 0.06499 0.75449 0.0
H433 H 0.64615 0.05957 0.7018 0.0
H434 H 0.70835 0.06487 0.76078 0.0
H435 H 0.68913 0.06944 0.81346 0.0
H436 H 0.60714 0.14112 0.92234 0.0
H437 H 0.63178 0.17289 0.96489 0.0
H438 H 0.58513 0.20679 0.95092 0.0
H439 H 0.56071 0.17492 0.90696 0.0
Sm440 Sm 0.54314 0.6313 0.17369 0.0
Sm441 Sm 0.49591 0.59103 0.18949 0.0
C442 C 0.59119 0.66513 0.16417 0.0
C443 C 0.60953 0.67336 0.136 0.0
C444 C 0.60906 0.65602 0.11208 0.0
C445 C 0.62531 0.66438 1.08389 0.0
C446 C 0.64214 0.69022 1.07901 0.0
C447 C 0.64287 0.70749 0.10336 0.0
C448 C 0.6267 0.69908 0.13174 0.0
C449 C 0.51128 0.64943 0.19201 0.0
C450 C 0.50564 0.60468 0.1053 0.0
C451 C 0.44675 0.56557 0.19941 0.0
C452 C 0.43117 0.5713 0.22211 0.0
C453 C 0.44143 0.5956 0.23578 0.0
C454 C 0.42712 0.60184 0.25703 0.0
C455 C 0.40225 0.58383 0.26536 0.0
C456 C 0.39189 0.55945 0.25152 0.0
C457 C 0.40627 0.55326 0.22979 0.0
C458 C 0.52846 0.57517 0.1638 0.0
C459 C 0.53429 0.60293 0.25251 0.0
O460 O 0.58352 0.64265 0.17679 0.0
O461 O 0.573 0.67009 0.16022 0.0
O462 O 0.51305 0.6322 0.20822 0.0
O463 O 0.5248 0.65546 0.16438 0.0
O464 O 0.52956 0.6189 0.11528 0.0
O465 O 0.48859 0.59395 0.13006 0.0
O466 O 0.45757 0.58191 0.1746 0.0
O467 O 0.46209 0.55956 0.21457 0.0
O468 O 0.52575 0.59299 0.15381 0.0
O469 O 0.51151 0.56285 0.18725 0.0
O470 O 0.51018 0.59214 0.24518 0.0
O471 O 0.55063 0.61761 0.22844 0.0
H472 H 0.59575 0.6361 0.11469 0.0
H473 H 0.62402 0.65068 1.0652 0.0
H474 H 0.65571 0.72748 0.10023 0.0
H475 H 0.6272 0.7127 0.14995 0.0
H476 H 0.46069 0.60975 0.23023 0.0
H477 H 0.43592 0.62056 0.26801 0.0
H478 H 0.37283 0.54517 0.25779 0.0
H479 H 0.39808 0.53444 0.2193 0.0
H480 H 0.51442 0.18861 0.35588 0.0
H481 H 0.52044 0.22855 0.33379 0.0
H482 H 0.52884 0.20719 0.23116 0.0
H483 H 0.52212 0.16647 0.25334 0.0
H484 H 0.55619 0.26876 0.30169 0.0
H485 H 0.4742 0.22393 0.21446 0.0
H486 H 0.48062 0.20612 0.24585 0.0
H487 H 0.49764 0.21527 0.20577 0.0
C488 C 0.51773 0.19234 0.32854 0.0
C489 C 0.51747 0.17393 0.30646 0.0
C490 C 0.52121 0.21542 0.31587 0.0
C491 C 0.52451 0.22109 0.28052 0.0
C492 C 0.5256 0.20328 0.25844 0.0
H493 H 0.52881 0.34431 0.1589 0.0
H494 H 0.53236 0.30874 0.18059 0.0
C495 C 0.52206 0.17999 0.2712 0.0
C496 C 0.52609 0.24526 0.26737 0.0
H497 H 0.49827 0.26821 0.21258 0.0
C498 C 0.5435 0.26854 0.28213 0.0
C499 C 0.50951 0.24545 0.24204 0.0
C500 C 0.48927 0.22138 0.2263 0.0
C501 C 0.54507 0.2916 0.27204 0.0
C502 C 0.52848 0.29175 0.24668 0.0
C503 C 0.51114 0.26849 0.2319 0.0
C504 C 0.52891 0.31556 0.23436 0.0
C505 C 0.56493 0.31568 0.28823 0.0
C506 C 0.52636 0.33221 0.25706 0.0
C507 C 0.5246 0.35307 0.24452 0.0
C508 C 0.52506 0.3577 0.20889 0.0
C509 C 0.52844 0.34152 0.18649 0.0
C510 C 0.53032 0.32092 0.19893 0.0
H511 H 0.58042 0.31347 0.29928 0.0
H512 H 0.573 0.33135 0.26925 0.0
H513 H 0.55635 0.32094 0.30948 0.0
H514 H 0.52467 0.32855 0.28447 0.0
H515 H 0.52162 0.36477 0.26261 0.0
H516 H 0.34025 0.51408 0.68944 0.0
H517 H 0.30633 0.51968 0.66661 0.0
H518 H 0.33783 0.52975 0.56474 0.0
H519 H 0.372 0.52375 0.58768 0.0
H520 H 0.30317 0.55713 0.63213 0.0
H521 H 0.26642 0.47241 0.54934 0.0
H522 H 0.28993 0.47931 0.58182 0.0
H523 H 0.29856 0.49581 0.54135 0.0
C524 C 0.34019 0.51768 0.66214 0.0
C525 C 0.35887 0.51813 0.64044 0.0
C526 C 0.32064 0.52092 0.64907 0.0
C527 C 0.31887 0.52459 0.61371 0.0
C528 C 0.33819 0.5263 0.59201 0.0
H529 H 0.19727 0.52265 0.49228 0.0
H530 H 0.23695 0.52736 0.51289 0.0
C531 C 0.35795 0.52311 0.6052 0.0
C532 C 0.29635 0.52575 0.60007 0.0
H533 H 0.24519 0.49551 0.54716 0.0
C534 C 0.29057 0.54368 0.61343 0.0
C535 C 0.27955 0.50821 0.57578 0.0
C536 C 0.28369 0.48768 0.56138 0.0
C537 C 0.26898 0.54477 0.60301 0.0
C538 C 0.25201 0.52701 0.57901 0.0
C539 C 0.25793 0.50921 0.56551 0.0
C540 C 0.22827 0.52658 0.56701 0.0
C541 C 0.26496 0.56538 0.61733 0.0
C542 C 0.20978 0.52502 0.59023 0.0
C543 C 0.1869 0.52263 0.57832 0.0
C544 C 0.18173 0.52137 0.54283 0.0
C545 C 0.2005 0.5236 0.51978 0.0
C546 C 0.22329 0.52616 0.53161 0.0
H547 H 0.28285 0.58159 0.62643 0.0
H548 H 0.25658 0.57228 0.59781 0.0
H549 H 0.25199 0.55793 0.63968 0.0
H550 H 0.21256 0.52468 0.61768 0.0
H551 H 0.17283 0.52061 0.59689 0.0
H552 H 0.85294 0.34788 0.91677 0.0
H553 H 0.81396 0.31116 0.89714 0.0
H554 H 0.77833 0.30984 0.99353 0.0
H555 H 0.81774 0.34529 1.01377 0.0
H556 H 0.76588 0.26588 0.9826 0.0
H557 H 0.75037 0.29767 0.85692 0.0
H558 H 0.78052 0.29975 0.85761 0.0
H559 H 0.77406 0.31901 0.8863 0.0
C560 C 0.83657 0.34015 0.93337 0.0
C561 C 0.83846 0.34986 0.96673 0.0
C562 C 0.81405 0.31902 0.92207 0.0
C563 C 0.79248 0.30738 0.9434 0.0
C564 C 0.79431 0.31796 0.97622 0.0
H565 H 0.64566 0.18237 0.86646 0.0
H566 H 0.68017 0.22415 0.88362 0.0
C567 C 0.81691 0.33856 0.98777 0.0
C568 C 0.76883 0.28323 0.93316 0.0
H569 H 0.72763 0.25293 0.86693 0.0
C570 C 0.75754 0.2634 0.95732 0.0
C571 C 0.757 0.27943 0.9005 0.0
C572 C 0.76595 0.30021 0.87404 0.0
C573 C 0.73571 0.24029 0.94979 0.0
C574 C 0.72505 0.23578 0.91631 0.0
C575 C 0.73578 0.2558 0.8924 0.0
C576 C 0.70349 0.2103 0.9056 0.0
C577 C 0.72398 0.22122 0.97849 0.0
C578 C 0.70472 0.18824 0.91153 0.0
C579 C 0.68486 0.16443 0.90239 0.0
C580 C 0.66316 0.16164 0.88593 0.0
C581 C 0.66199 0.18368 0.87909 0.0
C582 C 0.68185 0.20766 0.88888 0.0
H583 H 0.72793 0.23058 1.004 0.0
H584 H 0.7033 0.2096 0.9755 0.0
H585 H 0.73218 0.20864 0.97854 0.0
H586 H 0.72128 0.18935 0.92307 0.0
H587 H 0.6868 0.14811 0.90777 0.0
H588 H 0.50714 0.68588 0.15758 0.0
H589 H 0.50089 0.71953 0.18008 0.0
H590 H 0.49194 0.68864 0.28227 0.0
H591 H 0.49878 0.65486 0.25967 0.0
H592 H 0.4643 0.72311 0.21255 0.0
H593 H 0.54645 0.76003 0.29957 0.0
H594 H 0.54034 0.73629 0.26773 0.0
H595 H 0.52327 0.72781 0.30775 0.0
C596 C 0.50368 0.68602 0.1849 0.0
C597 C 0.50375 0.66756 0.20672 0.0
C598 C 0.50006 0.70544 0.19781 0.0
C599 C 0.49647 0.70737 0.23316 0.0
C600 C 0.49534 0.68827 0.255 0.0
H601 H 0.4915 0.82468 0.35675 0.0
H602 H 0.48834 0.786 0.33441 0.0
C603 C 0.49898 0.66866 0.24199 0.0
C604 C 0.49461 0.72971 0.24659 0.0
H605 H 0.52208 0.77999 0.30173 0.0
C606 C 0.47695 0.73548 0.23212 0.0
C607 C 0.51112 0.74633 0.27197 0.0
C608 C 0.53153 0.74254 0.28748 0.0
C609 C 0.47506 0.75671 0.24259 0.0
C610 C 0.49162 0.77333 0.26796 0.0
C611 C 0.50923 0.76751 0.2824 0.0
C612 C 0.49088 0.79644 0.28073 0.0
C613 C 0.45485 0.7607 0.22683 0.0
C614 C 0.49276 0.81561 0.25835 0.0
C615 C 0.49426 0.83798 0.2713 0.0
C616 C 0.49423 0.84193 0.30702 0.0
C617 C 0.49152 0.82241 0.32911 0.0
C618 C 0.48987 0.80018 0.31628 0.0
H619 H 0.43937 0.74294 0.2161 0.0
H620 H 0.44682 0.7682 0.24599 0.0
H621 H 0.46304 0.77447 0.20539 0.0
H622 H 0.49412 0.81382 0.23085 0.0
H623 H 0.49672 0.85265 0.25343 0.0
H624 H 0.67184 0.52669 0.59149 0.0
H625 H 0.70925 0.52595 0.57106 0.0
H626 H 0.69998 0.47368 0.65213 0.0
H627 H 0.6637 0.47603 0.67386 0.0
H628 H 0.74516 0.50342 0.65064 0.0
H629 H 0.72318 0.48282 0.51324 0.0
H630 H 0.72263 0.51091 0.52424 0.0
H631 H 0.70018 0.48121 0.5435 0.0
C632 C 0.67732 0.51443 0.60428 0.0
C633 C 0.66422 0.50089 0.63385 0.0
C634 C 0.69891 0.51395 0.59251 0.0
C635 C 0.70778 0.49934 0.6093 0.0
C636 C 0.69403 0.48519 0.63828 0.0
H637 H 0.82823 0.47882 0.51492 0.0
H638 H 0.78827 0.47497 0.53327 0.0
C639 C 0.67289 0.48622 0.65055 0.0
C640 C 0.73206 0.50003 0.59844 0.0
H641 H 0.76644 0.49985 0.5286 0.0
C642 C 0.74951 0.50236 0.62386 0.0
C643 C 0.73825 0.49817 0.56364 0.0
C644 C 0.71993 0.49284 0.53469 0.0
C645 C 0.77249 0.50325 0.61576 0.0
C646 C 0.77947 0.50324 0.58081 0.0
C647 C 0.76184 0.50043 0.55541 0.0
C648 C 0.80445 0.50552 0.57004 0.0
C649 C 0.78848 0.5032 0.64519 0.0
C650 C 0.82759 0.52406 0.58394 0.0
C651 C 0.8506 0.52585 0.57398 0.0
C652 C 0.85144 0.50967 0.54896 0.0
C653 C 0.82848 0.49166 0.53425 0.0
C654 C 0.80544 0.48948 0.54479 0.0
H655 H 0.77689 0.49394 0.6684 0.0
H656 H 0.79887 0.49327 0.63835 0.0
H657 H 0.80219 0.5229 0.6522 0.0
H658 H 0.82802 0.53748 0.60237 0.0
H659 H 0.86782 0.54016 0.58563 0.0
H660 H 0.31777 0.82804 0.8356 0.0
H661 H 0.28195 0.7911 0.85888 0.0
H662 H 0.3231 0.79809 0.95199 0.0
H663 H 0.35912 0.83706 0.92922 0.0
H664 H 0.27115 0.74823 0.87281 0.0
H665 H 0.26131 0.7852 0.99829 0.0
H666 H 0.28323 0.80534 0.96597 0.0
H667 H 0.29092 0.78635 0.99344 0.0
C668 C 0.31948 0.82206 0.86123 0.0
C669 C 0.34168 0.83611 0.88046 0.0
C670 C 0.29865 0.8005 0.87463 0.0
C671 C 0.29896 0.79137 0.90777 0.0
C672 C 0.3215 0.80479 0.92686 0.0
H673 H 0.17777 0.65428 1.01112 0.0
H674 H 0.21793 0.69151 0.99532 0.0
C675 C 0.34244 0.82704 0.91359 0.0
C676 C 0.27569 0.76765 0.92076 0.0
H677 H 0.23355 0.74199 0.9878 0.0
C678 C 0.26307 0.74718 0.89802 0.0
C679 C 0.26453 0.76549 0.95368 0.0
C680 C 0.27552 0.78683 0.97915 0.0
C681 C 0.24005 0.72545 0.90655 0.0
C682 C 0.22891 0.72327 0.93937 0.0
C683 C 0.24181 0.74329 0.96266 0.0
C684 C 0.20389 0.70068 0.94968 0.0
C685 C 0.22794 0.70516 0.87973 0.0
C686 C 0.18201 0.69319 0.92997 0.0
C687 C 0.15895 0.67177 0.93899 0.0
C688 C 0.15686 0.65709 0.96815 0.0
C689 C 0.17855 0.66493 0.9884 0.0
C690 C 0.20164 0.68636 0.97935 0.0
H691 H 0.24227 0.70479 0.86261 0.0
H692 H 0.21644 0.68629 0.8914 0.0
H693 H 0.21552 0.70922 0.86345 0.0
H694 H 0.18272 0.70393 0.90739 0.0
H695 H 0.14274 0.66658 0.92284 0.0
H696 H 0.6296 0.24363 0.96331 0.0
H697 H 0.65271 0.27212 1.01122 0.0
H698 H 0.64415 0.20843 1.07026 0.0
H699 H 0.62169 0.18052 1.02326 0.0
H700 H 0.63787 0.27413 1.07416 0.0
H701 H 0.71572 0.25663 0.0913 0.0
H702 H 0.6992 0.25028 1.05079 0.0
H703 H 0.68914 0.22624 1.08375 0.0
C704 C 0.63297 0.23593 0.98653 0.0
C705 C 0.62418 0.20994 0.98947 0.0
C706 C 0.64633 0.2522 1.01364 0.0
C707 C 0.65111 0.2426 1.04383 0.0
C708 C 0.64193 0.21659 1.04667 0.0
H709 H 0.59403 0.20751 0.21088 0.0
H710 H 0.61281 0.23575 0.16295 0.0
C711 C 0.6288 0.20052 1.01985 0.0
C712 C 0.66242 0.25828 1.07477 0.0
H713 H 0.68958 0.25041 0.14603 0.0
C714 C 0.65012 0.27007 1.08968 0.0
C715 C 0.67988 0.2551 0.09474 0.0
C716 C 0.69695 0.24668 1.07896 0.0
C717 C 0.65054 0.27324 0.12546 0.0
C718 C 0.66221 0.26296 0.14627 0.0
C719 C 0.67918 0.25688 0.13059 0.0
C720 C 0.65137 0.25113 0.18021 0.0
C721 C 0.63645 0.28526 0.1407 0.0
C722 C 0.66644 0.24972 0.20646 0.0
C723 C 0.6555 0.23253 0.23368 0.0
C724 C 0.6293 0.21689 0.23542 0.0
C725 C 0.61425 0.21963 0.21063 0.0
C726 C 0.62511 0.23625 0.18323 0.0
H727 H 0.64175 0.30316 0.12696 0.0
H728 H 0.61597 0.27276 0.13689 0.0
H729 H 0.64041 0.28926 0.16855 0.0
H730 H 0.68672 0.2608 0.20484 0.0
H731 H 0.6675 0.23081 0.25262 0.0
H732 H 0.39879 0.62664 0.27035 0.0
H733 H 0.38972 0.64243 0.32318 0.0
H734 H 0.36711 0.5713 0.37313 0.0
H735 H 0.37624 0.55549 0.32075 0.0
H736 H 0.34248 0.60106 0.3982 0.0
H737 H 0.44733 0.65331 0.39158 0.0
H738 H 0.42977 0.65673 0.35704 0.0
H739 H 0.42903 0.62729 0.36321 0.0
C740 C 0.39099 0.61408 0.29225 0.0
C741 C 0.38883 0.59007 0.29181 0.0
C742 C 0.38569 0.62308 0.32228 0.0
C743 C 0.37823 0.60816 0.3521 0.0
C744 C 0.37285 0.58307 0.35028 0.0
H745 H 0.38429 0.5787 0.54884 0.0
H746 H 0.36857 0.58603 0.4956 0.0
C747 C 0.37811 0.57405 0.3203 0.0
C748 C 0.38199 0.61979 0.38638 0.0
H749 H 0.42884 0.64833 0.44508 0.0
C750 C 0.36132 0.61209 0.40841 0.0
C751 C 0.40659 0.63457 0.39943 0.0
C752 C 0.42954 0.64349 0.37679 0.0
C753 C 0.36471 0.61695 0.44388 0.0
C754 C 0.38935 0.62888 0.45753 0.0
C755 C 0.40992 0.63899 0.43485 0.0
C756 C 0.39444 0.62629 0.49423 0.0
C757 C 0.34183 0.60819 0.46643 0.0
C758 C 0.41426 0.64644 0.51177 0.0
C759 C 0.42386 0.64208 0.54204 0.0
C760 C 0.4135 0.61758 0.55548 0.0
C761 C 0.39243 0.59787 0.53943 0.0
C762 C 0.38318 0.60213 0.50899 0.0
H763 H 0.32756 0.61136 0.45328 0.0
H764 H 0.33316 0.58763 0.47105 0.0
H765 H 0.3465 0.61808 0.49155 0.0
H766 H 0.42338 0.66523 0.50083 0.0
H767 H 0.44002 0.65761 0.55409 0.0
H768 H 0.80804 0.46459 0.87611 0.0
H769 H 0.77568 0.45141 0.83272 0.0
H770 H 0.73453 0.37823 0.88091 0.0
H771 H 0.7675 0.39139 0.9244 0.0
H772 H 0.74578 0.37304 0.81987 0.0
H773 H 0.70737 0.43599 0.80652 0.0
H774 H 0.74029 0.45601 0.81337 0.0
H775 H 0.72128 0.43381 0.84647 0.0
C776 C 0.79159 0.44607 0.87842 0.0
C777 C 0.7905 0.42889 0.90327 0.0
C778 C 0.77282 0.43856 0.85368 0.0
C779 C 0.75239 0.41381 0.85354 0.0
C780 C 0.75002 0.39743 0.8805 0.0
H781 H 0.74212 0.37942 0.636 0.0
H782 H 0.71746 0.37119 0.68908 0.0
C783 C 0.76896 0.40489 0.90515 0.0
C784 C 0.73816 0.40385 0.82109 0.0
H785 H 0.72438 0.42781 0.75061 0.0
C786 C 0.73979 0.38415 0.80507 0.0
C787 C 0.72952 0.41766 0.8018 0.0
C788 C 0.72427 0.43683 0.81827 0.0
C789 C 0.7379 0.38129 0.76926 0.0
C790 C 0.73415 0.39852 0.74935 0.0
C791 C 0.72789 0.41502 0.76591 0.0
C792 C 0.74497 0.40523 0.71438 0.0
C793 C 0.74365 0.3624 0.7528 0.0
C794 C 0.76807 0.42747 0.71068 0.0
C795 C 0.78231 0.432 0.68095 0.0
C796 C 0.77367 0.41448 0.65393 0.0
C797 C 0.74959 0.39303 0.65663 0.0
C798 C 0.73534 0.3884 0.68674 0.0
H799 H 0.74545 0.34996 0.77209 0.0
H800 H 0.72847 0.35043 0.7346 0.0
H801 H 0.76149 0.37237 0.73801 0.0
H802 H 0.77598 0.44057 0.73189 0.0
H803 H 0.80082 0.44852 0.68031 0.0
H804 H 0.46324 0.83744 1.00429 0.0
H805 H 0.44819 0.81331 1.0571 0.0
H806 H 0.39114 0.75026 1.00044 0.0
H807 H 0.40608 0.77476 0.94712 0.0
H808 H 0.37011 0.76436 1.04567 0.0
H809 H 0.44443 0.75806 0.11461 0.0
H810 H 0.45795 0.78972 0.09916 0.0
H811 H 0.44648 0.76405 1.06879 0.0
C812 C 0.44829 0.81804 1.00274 0.0
C813 C 0.43562 0.80811 0.97167 0.0
C814 C 0.43971 0.80409 1.03308 0.0
C815 C 0.41854 0.77982 1.03287 0.0
C816 C 0.40751 0.7689 1.00126 0.0
H817 H 0.38706 0.77606 0.24909 0.0
H818 H 0.38277 0.75179 0.19704 0.0
C819 C 0.416 0.78295 0.97086 0.0
C820 C 0.40502 0.76904 1.0657 0.0
H821 H 0.4184 0.77062 0.15086 0.0
C822 C 0.38033 0.7647 1.06859 0.0
C823 C 0.41773 0.76849 0.0957 0.0
C824 C 0.44301 0.77004 0.0942 0.0
C825 C 0.3697 0.76383 0.10085 0.0
C826 C 0.38436 0.76795 0.13068 0.0
C827 C 0.40734 0.76823 0.12796 0.0
C828 C 0.37939 0.77784 0.16271 0.0
C829 C 0.34366 0.76047 0.10244 0.0
C830 C 0.37783 0.79996 0.1609 0.0
C831 C 0.38037 0.81387 0.19045 0.0
C832 C 0.38481 0.80607 0.22239 0.0
C833 C 0.38399 0.78269 0.22469 0.0
C834 C 0.38143 0.76875 0.19503 0.0
H835 H 0.33143 0.74677 1.0827 0.0
H836 H 0.33491 0.75383 0.12818 0.0
H837 H 0.34463 0.7787 0.09658 0.0
H838 H 0.37699 0.80782 0.13626 0.0
H839 H 0.38126 0.83191 0.18763 0.0
H840 H 0.63881 0.40817 0.27356 0.0
H841 H 0.64181 0.38794 0.32653 0.0
H842 H 0.63409 0.44296 0.38656 0.0
H843 H 0.63145 0.46322 0.33433 0.0
H844 H 0.66321 0.42665 0.41896 0.0
H845 H 0.5739 0.34526 0.37161 0.0
H846 H 0.60232 0.35511 0.34755 0.0
H847 H 0.5884 0.37491 0.34895 0.0
C848 C 0.63859 0.41637 0.29814 0.0
C849 C 0.6344 0.43699 0.29984 0.0
C850 C 0.6402 0.40473 0.32832 0.0
C851 C 0.63739 0.41348 0.36042 0.0
C852 C 0.6362 0.43579 0.36204 0.0
H853 H 0.55134 0.39172 0.51262 0.0
H854 H 0.56963 0.38483 0.46128 0.0
C855 C 0.63477 0.44748 0.33204 0.0
C856 C 0.63133 0.39792 0.392 0.0
H857 H 0.5796 0.35011 0.43073 0.0
C858 C 0.64538 0.40935 0.42163 0.0
C859 C 0.60814 0.37517 0.39518 0.0
C860 C 0.59219 0.36181 0.36427 0.0
C861 C 0.63523 0.40088 0.45455 0.0
C862 C 0.61067 0.3799 0.45764 0.0
C863 C 0.5983 0.36628 0.42812 0.0
C864 C 0.59534 0.37645 0.48877 0.0
C865 C 0.64961 0.41632 0.48532 0.0
C866 C 0.60245 0.37229 0.52133 0.0
C867 C 0.59201 0.37638 0.55095 0.0
C868 C 0.57416 0.38439 0.54824 0.0
C869 C 0.56495 0.38548 0.51564 0.0
C870 C 0.5755 0.3816 0.48617 0.0
H871 H 0.6677 0.43313 0.47795 0.0
H872 H 0.6382 0.4228 0.49966 0.0
H873 H 0.65378 0.4046 0.50295 0.0
H874 H 0.61727 0.36766 0.52387 0.0
H875 H 0.59912 0.37499 0.57588 0.0
H876 H 0.21464 0.65291 0.85257 0.0
H877 H 0.23712 0.67162 0.79945 0.0
H878 H 0.29136 0.64868 0.82459 0.0
H879 H 0.26812 0.62908 0.87801 0.0
H880 H 0.28381 0.70546 0.77468 0.0
H881 H 0.25893 0.60699 0.74094 0.0
H882 H 0.24749 0.61345 0.78008 0.0
H883 H 0.28002 0.62215 0.77609 0.0
C884 C 0.23184 0.6526 0.84741 0.0
C885 C 0.23966 0.63956 0.86923 0.0
C886 C 0.24473 0.66333 0.81699 0.0
C887 C 0.2657 0.66119 0.8077 0.0
C888 C 0.27492 0.65009 0.83093 0.0
H889 H 0.24878 0.63853 0.59157 0.0
H890 H 0.27935 0.65679 0.63817 0.0
C891 C 0.26172 0.63897 0.86137 0.0
C892 C 0.27425 0.66652 0.77144 0.0
H893 H 0.26286 0.63382 0.69668 0.0
C894 C 0.28014 0.69006 0.7575 0.0
C895 C 0.26999 0.6466 0.74895 0.0
C896 C 0.26369 0.62084 0.76205 0.0
C897 C 0.27835 0.69311 0.722 0.0
C898 C 0.27049 0.6721 0.70019 0.0
C899 C 0.26854 0.64985 0.71352 0.0
C900 C 0.25801 0.67013 0.6668 0.0
C901 C 0.28295 0.71819 0.70861 0.0
C902 C 0.23654 0.67281 0.66642 0.0
C903 C 0.21905 0.66234 0.63992 0.0
C904 C 0.22263 0.6488 0.61356 0.0
C905 C 0.2454 0.64854 0.61195 0.0
C906 C 0.26299 0.65916 0.63838 0.0
H907 H 0.29868 0.73381 0.72274 0.0
H908 H 0.28736 0.72041 0.68066 0.0
H909 H 0.26595 0.71983 0.71308 0.0
H910 H 0.23186 0.68059 0.68835 0.0
H911 H 0.20163 0.66272 0.64195 0.0
H912 H 0.38693 0.95734 0.95763 0.0
H913 H 0.39846 0.98136 1.01194 0.0
H914 H 0.45574 0.9616 1.02929 0.0
H915 H 0.44424 0.93761 0.97565 0.0
H916 H 0.39931 0.96971 1.08185 0.0
H917 H 0.49746 0.03647 1.04505 0.0
H918 H 0.47464 0.01581 1.01414 0.0
H919 H 0.48972 1.00414 1.04255 0.0
C920 C 0.40197 0.95796 0.97289 0.0
C921 C 0.4144 0.94504 0.96117 0.0
C922 C 0.40869 0.97193 1.00443 0.0
C923 C 0.42856 0.97423 1.02569 0.0
C924 C 0.44078 0.96114 1.01403 0.0
H925 H 0.50762 0.05819 0.2172 0.0
H926 H 0.49381 0.0341 0.16385 0.0
C927 C 0.43389 0.94698 0.98288 0.0
C928 C 0.43626 0.98974 1.05976 0.0
H929 H 0.48656 0.03743 0.10322 0.0
C930 C 0.41843 0.98462 1.08619 0.0
C931 C 0.46125 0.00931 1.06702 0.0
C932 C 0.48186 0.01698 1.04064 0.0
C933 C 0.42468 0.99744 0.11872 0.0
C934 C 0.44962 0.01743 0.12585 0.0
C935 C 0.4674 0.02255 0.09918 0.0
C936 C 0.45789 0.03268 0.16038 0.0
C937 C 0.40432 0.98816 0.14572 0.0
C938 C 0.44314 0.04112 0.17822 0.0
C939 C 0.45098 0.05476 0.20995 0.0
C940 C 0.47444 0.06153 0.22527 0.0
C941 C 0.48945 0.05373 0.20703 0.0
C942 C 0.48142 0.03971 0.1758 0.0
H943 H 0.38989 0.96816 0.14139 0.0
H944 H 0.41206 0.98975 0.17198 0.0
H945 H 0.3947 0.99943 0.1443 0.0
H946 H 0.42546 0.03758 0.16747 0.0
H947 H 0.43868 0.06036 0.22224 0.0
H948 H 0.52212 0.44631 0.31262 0.0
H949 H 0.50986 0.4569 0.36736 0.0
H950 H 0.43228 0.41563 0.33706 0.0
H951 H 0.44458 0.40509 0.28188 0.0
H952 H 0.48345 0.43257 0.42294 0.0
H953 H 0.4336 0.47871 0.36771 0.0
H954 H 0.42097 0.44679 0.35361 0.0
H955 H 0.45248 0.47007 0.34167 0.0
C956 C 0.50234 0.4393 0.31731 0.0
C957 C 0.48455 0.42463 0.29178 0.0
C958 C 0.49524 0.44548 0.34919 0.0
C959 C 0.46994 0.43772 0.3574 0.0
C960 C 0.45203 0.42272 0.33212 0.0
H961 H 0.44772 0.51804 0.53556 0.0
H962 H 0.45801 0.50558 0.48055 0.0
C963 C 0.45913 0.41635 0.3002 0.0
C964 C 0.46264 0.44511 0.3921 0.0
H965 H 0.43003 0.47215 0.42817 0.0
C966 C 0.47165 0.44112 0.42371 0.0
C967 C 0.44762 0.45693 0.39457 0.0
C968 C 0.43829 0.46365 0.36263 0.0
C969 C 0.46582 0.44777 0.45644 0.0
C970 C 0.45015 0.45882 0.45895 0.0
C971 C 0.44163 0.46339 0.42734 0.0
C972 C 0.44309 0.46633 0.49366 0.0
C973 C 0.47723 0.44349 0.48826 0.0
C974 C 0.43068 0.44881 0.52071 0.0
C975 C 0.42436 0.45594 0.5526 0.0
C976 C 0.43031 0.48106 0.55934 0.0
C977 C 0.44261 0.49851 0.53217 0.0
C978 C 0.44858 0.49131 0.50018 0.0
H979 H 0.49354 0.44102 0.48197 0.0
H980 H 0.48348 0.45949 0.50639 0.0
H981 H 0.46292 0.42617 0.50152 0.0
H982 H 0.42558 0.4293 0.51715 0.0
H983 H 0.415 0.44167 0.57224 0.0
H984 H 0.08579 0.5179 0.64994 0.0
H985 H 0.06074 0.50377 0.70306 0.0
H986 H 0.03093 0.42669 0.67212 0.0
H987 H 0.05599 0.44082 0.619 0.0
H988 H 0.0568 0.47875 0.75996 0.0
H989 H 0.96544 0.42084 0.69628 0.0
H990 H 0.98759 0.41079 0.6859 0.0
H991 H 0.99349 0.44144 0.67239 0.0
C992 C 0.07403 0.49785 0.65421 0.0
C993 C 0.07345 0.48081 0.62898 0.0
C994 C 0.0594 0.48962 0.68518 0.0
C995 C 0.04283 0.4638 0.69279 0.0
C996 C 0.04256 0.44672 0.66779 0.0
H997 H 0.93242 0.44015 0.86269 0.0
H998 H 0.95782 0.45113 0.8097 0.0
C999 C 0.05739 0.45495 0.63694 0.0
C1000 C 0.02631 0.45509 0.72633 0.0
H1001 H 0.96541 0.41831 0.75715 0.0
C1002 C 0.03688 0.46532 0.75892 0.0
C1003 C 0.99977 0.43794 0.72662 0.0
C1004 C 0.98577 0.42729 0.69347 0.0
C1005 C 0.02247 0.45881 0.7903 0.0
C1006 C 0.99615 0.44127 0.79065 0.0
C1007 C 0.98544 0.43135 0.75812 0.0
C1008 C 0.97968 0.43368 0.82407 0.0
C1009 C 0.03552 0.47141 0.82322 0.0
C1010 C 0.98236 0.41961 0.85123 0.0
C1011 C 0.96716 0.41267 0.88177 0.0
C1012 C 0.94869 0.41985 0.88746 0.0
C1013 C 0.94607 0.43393 0.86023 0.0
C1014 C 0.96087 0.44038 0.82938 0.0
H1015 H 0.05508 0.48681 0.81873 0.0
H1016 H 0.02493 0.47925 0.83663 0.0
H1017 H 0.03598 0.45721 0.84049 0.0
H1018 H 0.99626 0.41371 0.84882 0.0
H1019 H 0.97017 0.4018 0.90127 0.0
H1020 H 0.56997 0.96033 0.22728 0.0
H1021 H 0.5814 0.98248 0.17124 0.0
H1022 H 0.50587 0.96854 0.15974 0.0
H1023 H 0.49439 0.94633 0.21508 0.0
H1024 H 0.56393 0.96802 0.10212 0.0
H1025 H 0.54367 0.0435 0.13833 0.0
H1026 H 0.54648 0.02344 0.17007 0.0
H1027 H 0.51819 0.01211 0.14532 0.0
C1028 C 0.55567 0.9619 0.213 0.0
C1029 C 0.53103 0.95111 0.22689 0.0
C1030 C 0.5623 0.97476 0.18042 0.0
C1031 C 0.54486 0.97808 0.16017 0.0
C1032 C 0.52028 0.96721 0.17407 0.0
H1033 H 0.55236 0.06283 0.96534 0.0
H1034 H 0.54143 0.03993 1.0203 0.0
C1035 C 0.51358 0.95409 0.20624 0.0
C1036 C 0.55202 0.99229 0.12486 0.0
H1037 H 0.55318 0.04183 1.07992 0.0
C1038 C 0.56167 0.98427 0.09759 0.0
C1039 C 0.54891 0.01344 0.11724 0.0
C1040 C 0.53895 0.02386 0.14427 0.0
C1041 C 0.56749 0.99586 1.06406 0.0
C1042 C 0.5652 0.01764 1.05662 0.0
C1043 C 0.55549 0.02558 1.0841 0.0
C1044 C 0.57221 0.03204 1.02113 0.0
C1045 C 0.57474 0.98334 1.03652 0.0
C1046 C 0.59354 0.03649 1.00124 0.0
C1047 C 0.59943 0.04916 0.96865 0.0
C1048 C 0.58501 0.05919 0.95435 0.0
C1049 C 0.56423 0.05565 0.97464 0.0
C1050 C 0.55792 0.04235 1.00679 0.0
H1051 H 0.56676 0.96292 1.04193 0.0
H1052 H 0.56812 0.98533 1.01077 0.0
H1053 H 0.59547 0.99191 1.03599 0.0
H1054 H 0.60623 0.03051 1.01097 0.0
H1055 H 0.61582 0.05152 0.95485 0.0
H1056 H 0.612 0.58039 0.56909 0.0
H1057 H 0.6005 0.59219 0.51421 0.0
H1058 H 0.57307 0.51685 0.47681 0.0
H1059 H 0.58326 0.50486 0.53186 0.0
H1060 H 0.61117 0.59868 0.45166 0.0
H1061 H 0.51467 0.5189 0.44495 0.0
H1062 H 0.53379 0.52434 0.48251 0.0
H1063 H 0.53645 0.50752 0.44608 0.0
C1064 C 0.60348 0.56623 0.54928 0.0
C1065 C 0.59865 0.54143 0.556 0.0
C1066 C 0.59674 0.57304 0.51735 0.0
C1067 C 0.58485 0.55551 0.49021 0.0
C1068 C 0.58095 0.53099 0.49669 0.0
H1069 H 0.50611 0.581 0.31189 0.0
H1070 H 0.51853 0.5711 0.36704 0.0
C1071 C 0.58729 0.5241 0.52866 0.0
C1072 C 0.57721 0.56287 0.45551 0.0
H1073 H 0.53096 0.54235 0.39309 0.0
C1074 C 0.59348 0.58619 0.43924 0.0
C1075 C 0.5539 0.54749 0.43815 0.0
C1076 C 0.53361 0.52334 0.454 0.0
C1077 C 0.58767 0.5941 0.40738 0.0
C1078 C 0.56501 0.57811 0.38906 0.0
C1079 C 0.54855 0.55496 0.40563 0.0
C1080 C 0.55759 0.58509 0.35386 0.0
C1081 C 0.60581 0.62027 0.39465 0.0
C1082 C 0.57472 0.59643 0.32601 0.0
C1083 C 0.56759 0.60273 0.29405 0.0
C1084 C 0.54272 0.59748 0.2876 0.0
C1085 C 0.52549 0.5857 0.31508 0.0
C1086 C 0.5327 0.5798 0.34717 0.0
H1087 H 0.61683 0.63283 0.41615 0.0
H1088 H 0.61934 0.61937 0.37653 0.0
H1089 H 0.59594 0.62888 0.38127 0.0
H1090 H 0.59378 0.6001 0.32849 0.0
H1091 H 0.58161 0.61126 0.27396 0.0
H1092 H 0.09175 0.56113 0.85499 0.0
H1093 H 0.06744 0.54914 0.80067 0.0
H1094 H 1.00798 0.55474 0.85103 0.0
H1095 H 0.0319 0.56687 0.90419 0.0
H1096 H 0.02341 0.51174 0.77528 0.0
H1097 H 0.01187 0.59533 0.76977 0.0
H1098 H 0.03271 0.59287 0.80018 0.0
H1099 H 0.99955 0.57838 0.80924 0.0
C1100 C 0.07363 0.56011 0.85459 0.0
C1101 C 0.06452 0.5656 0.88513 0.0
C1102 C 0.0594 0.55303 0.82304 0.0
C1103 C 0.03544 0.55136 0.82005 0.0
C1104 C 0.02638 0.55643 0.8508 0.0
H1105 H 0.96868 0.54806 0.61238 0.0
H1106 H 0.9926 0.55853 0.66587 0.0
C1107 C 0.04038 0.56333 0.88202 0.0
C1108 C 0.0198 0.5443 0.78583 0.0
H1109 H 0.98549 0.56164 0.73252 0.0
C1110 C 0.01526 0.52288 0.7663 0.0
C1111 C 1.00884 0.5584 0.7721 0.0
C1112 C 0.01368 0.58265 0.78866 0.0
C1113 C 1.00037 0.51529 0.73536 0.0
C1114 C 0.98854 0.52873 0.72255 0.0
C1115 C 0.99358 0.55047 0.74161 0.0
C1116 C 0.97228 0.52152 0.68894 0.0
C1117 C 0.99842 0.49325 0.71583 0.0
C1118 C 0.95171 0.49698 0.68222 0.0
C1119 C 0.93736 0.49082 0.65091 0.0
C1120 C 0.94289 0.5088 0.62431 0.0
C1121 C 0.96328 0.53327 0.63138 0.0
C1122 C 0.97728 0.53946 0.66264 0.0
H1123 H 0.01557 0.49194 0.71975 0.0
H1124 H 0.98204 0.4757 0.72556 0.0
H1125 H 0.99619 0.49481 0.68776 0.0
H1126 H 0.94656 0.48234 0.70139 0.0
H1127 H 0.92214 0.47174 0.64736 0.0
H1128 H 0.48417 0.00884 0.34245 0.0
H1129 H 0.47355 0.98127 0.39243 0.0
H1130 H 0.44314 0.02286 0.44345 0.0
H1131 H 0.45298 0.04967 0.39311 0.0
H1132 H 0.48859 0.03958 0.46658 0.0
H1133 H 0.451 0.93976 0.47874 0.0
H1134 H 0.45349 0.944 0.43306 0.0
H1135 H 0.4332 0.95211 0.4571 0.0
C1136 C 0.47424 0.01129 0.36375 0.0
C1137 C 0.47149 0.03256 0.36544 0.0
C1138 C 0.46765 0.99526 0.39236 0.0
C1139 C 0.45925 1.00123 0.42299 0.0
C1140 C 0.45051 0.01843 0.42082 0.0
H1141 H 0.55085 0.9658 0.40308 0.0
H1142 H 0.551 0.98752 0.45532 0.0
C1143 C 0.45672 0.03415 0.3921 0.0
C1144 C 0.47088 0.99965 0.45581 0.0
H1145 H 0.49977 0.96526 0.4628 0.0
C1146 C 0.49071 0.02302 0.46705 0.0
C1147 C 0.47321 0.97821 0.46206 0.0
C1148 C 0.4513 0.95209 0.45751 0.0
C1149 C 0.51511 0.02658 0.46824 0.0
C1150 C 0.51839 1.00593 0.46058 0.0
C1151 C 0.49749 0.98163 0.46516 0.0
C1152 C 0.53484 0.00803 0.43128 0.0
C1153 C 0.53715 0.05283 0.47009 0.0
C1154 C 0.5294 0.01521 0.39924 0.0
C1155 C 0.52748 1.00134 0.3697 0.0
C1156 C 0.53253 0.98154 0.37199 0.0
C1157 C 0.54511 0.97984 0.40139 0.0
C1158 C 0.54586 0.99277 0.43127 0.0
H1159 H 0.53501 0.06246 0.49291 0.0
H1160 H 0.55522 0.05284 0.47189 0.0
H1161 H 0.53746 0.06369 0.44695 0.0
H1162 H 0.52208 0.02805 0.39814 0.0
H1163 H 0.51924 1.00405 0.34656 0.0
H1164 H 0.50088 0.50244 0.6776 0.0
H1165 H 0.52686 0.51126 0.72887 0.0
H1166 H 0.4612 0.48437 0.79319 0.0
H1167 H 0.43501 0.47191 0.74209 0.0
H1168 H 0.4855 0.53719 0.78182 0.0
H1169 H 0.55582 0.51444 0.82461 0.0
H1170 H 0.55261 0.50752 0.77956 0.0
H1171 H 0.52597 0.49011 0.80758 0.0
C1172 C 0.49195 0.49701 0.70258 0.0
C1173 C 0.46645 0.48905 0.70628 0.0
C1174 C 0.50669 0.50193 0.73204 0.0
C1175 C 0.49606 0.50052 0.76477 0.0
C1176 C 0.46995 0.4866 0.76821 0.0
H1177 H 0.61034 0.57172 0.7121 0.0
H1178 H 0.59849 0.59316 0.75404 0.0
C1179 C 0.45508 0.48006 0.73876 0.0
C1180 C 0.51056 0.52206 0.78803 0.0
H1181 H 0.57365 0.55767 0.79278 0.0
C1182 C 0.50482 0.54165 0.78522 0.0
C1183 C 0.53538 0.52863 0.7964 0.0
C1184 C 0.54263 0.50885 0.8026 0.0
C1185 C 0.52407 0.56606 0.77686 0.0
C1186 C 0.54853 0.56983 0.77234 0.0
C1187 C 0.55435 0.55362 0.79113 0.0
C1188 C 0.55993 0.57602 0.73709 0.0
C1189 C 0.51741 0.58544 0.76503 0.0
C1190 C 0.54397 0.56385 0.70874 0.0
C1191 C 0.551 0.55199 0.68383 0.0
C1192 C 0.57384 0.55239 0.6874 0.0
C1193 C 0.59195 0.57001 0.70993 0.0
C1194 C 0.58528 0.58266 0.73382 0.0
H1195 H 0.50622 0.58822 0.78522 0.0
H1196 H 0.53445 0.60374 0.75917 0.0
H1197 H 0.50539 0.5786 0.74177 0.0
H1198 H 0.52456 0.55933 0.70889 0.0
H1199 H 0.53742 0.53988 0.66514 0.0
H1200 H 0.96789 0.41614 1.04584 0.0
H1201 H 0.99173 0.39577 1.03076 0.0
H1202 H 0.01136 0.43613 0.93337 0.0
H1203 H 0.98692 0.45532 0.94852 0.0
H1204 H 0.01596 0.39995 0.91553 0.0
H1205 H 0.04424 0.38209 1.03276 0.0
H1206 H 0.01125 0.37098 1.02526 0.0
H1207 H 0.03029 0.39929 1.05009 0.0
C1208 C 0.97789 0.42092 1.02151 0.0
C1209 C 0.97526 0.43699 0.9981 0.0
C1210 C 0.99146 0.40896 1.01258 0.0
C1211 C 1.00313 0.41306 0.98016 0.0
C1212 C 1.00197 0.43101 0.95806 0.0
H1213 H 0.08837 0.52339 0.9384 0.0
H1214 H 0.08848 0.48469 0.92518 0.0
C1215 C 0.98843 0.44287 0.96703 0.0
C1216 C 0.01917 0.40156 0.97091 0.0
H1217 H 0.07464 0.42998 1.01269 0.0
C1218 C 0.02877 0.40669 0.93715 0.0
C1219 C 0.03711 0.40388 0.99566 0.0
C1220 C 0.03009 0.38798 1.02767 0.0
C1221 C 0.05291 0.42773 0.93263 0.0
C1222 C 0.06638 0.44005 0.96281 0.0
C1223 C 0.06181 0.42385 0.99109 0.0
C1224 C 0.06833 0.46486 0.97133 0.0
C1225 C 0.06144 0.43863 0.89728 0.0
C1226 C 0.05691 0.46735 1.00173 0.0
C1227 C 0.05713 0.48966 1.00939 0.0
C1228 C 0.06829 0.50999 0.98671 0.0
C1229 C 0.07858 0.50743 0.95562 0.0
C1230 C 0.07899 0.48528 0.94828 0.0
H1231 H 0.05351 0.42362 0.87746 0.0
H1232 H 0.05463 0.452 0.89173 0.0
H1233 H 0.08225 0.44874 0.89548 0.0
H1234 H 0.04789 0.4522 1.02025 0.0
H1235 H 0.04992 0.49153 1.03402 0.0
H1236 H 0.04795 0.45623 0.4702 0.0
H1237 H 0.02349 0.41199 0.48263 0.0
H1238 H 0.01168 0.42953 0.5869 0.0
H1239 H 0.03613 0.47377 0.57345 0.0
H1240 H 0.9863 0.38535 0.59581 0.0
H1241 H 0.97505 0.34377 0.48469 0.0
H1242 H 1.00765 0.36506 0.49463 0.0
H1243 H 0.9919 0.37221 0.46043 0.0
C1244 C 0.03941 0.45044 0.49545 0.0
C1245 C 0.0437 0.46839 0.52072 0.0
C1246 C 0.02559 0.42481 0.50301 0.0
C1247 C 0.0148 0.41614 0.5359 0.0
C1248 C 0.01924 0.43463 0.56111 0.0
H1249 H 0.9603 0.47043 0.54869 0.0
H1250 H 0.97028 0.43757 0.56254 0.0
C1251 C 0.03293 0.46029 0.55333 0.0
C1252 C 0.99526 0.3887 0.54151 0.0
H1253 H 0.95529 0.37961 0.47759 0.0
C1254 C 0.97944 0.38461 0.56991 0.0
C1255 C 0.98132 0.37674 0.51177 0.0
C1256 C 0.98975 0.36389 0.48651 0.0
C1257 C 0.95906 0.38871 0.5644 0.0
C1258 C 0.9538 0.39221 0.52982 0.0
C1259 C 0.96181 0.38159 0.50387 0.0
C1260 C 0.94869 0.41281 0.5204 0.0
C1261 C 0.94529 0.39141 0.59469 0.0
C1262 C 0.93647 0.41188 0.48954 0.0
C1263 C 0.93291 0.43181 0.48003 0.0
C1264 C 0.94019 0.45251 0.50207 0.0
C1265 C 0.95434 0.45465 0.53134 0.0
C1266 C 0.95899 0.43518 0.54002 0.0
H1267 H 0.93882 0.37479 0.61189 0.0
H1268 H 0.95829 0.40819 0.60995 0.0
H1269 H 0.92882 0.39306 0.58656 0.0
H1270 H 0.92888 0.39545 0.47317 0.0
H1271 H 0.92211 0.42981 0.45701 0.0
H1272 H 0.39865 0.95982 0.80994 0.0
H1273 H 0.40797 0.99207 0.76697 0.0
H1274 H 0.48405 0.03331 0.8044 0.0
H1275 H 0.47449 1.001 0.8479 0.0
H1276 H 0.47798 0.06078 0.75233 0.0
H1277 H 0.43457 0.96814 0.69314 0.0
H1278 H 0.41663 0.98042 0.71398 0.0
H1279 H 0.42919 0.9641 0.73876 0.0
C1280 C 0.41712 0.97636 0.81001 0.0
C1281 C 0.43651 0.97721 0.83045 0.0
C1282 C 0.42241 0.99487 0.78527 0.0
C1283 C 0.44733 0.01364 0.77991 0.0
C1284 C 0.46489 0.01795 0.80635 0.0
H1285 H 0.51847 0.01603 0.83138 0.0
H1286 H 0.49189 0.99647 0.78141 0.0
C1287 C 0.45962 0.99941 0.83131 0.0
C1288 C 0.4571 0.02086 0.74407 0.0
H1289 H 0.47994 0.98637 0.70668 0.0
C1290 C 0.47803 0.04489 0.74011 0.0
C1291 C 0.45661 1.00148 0.72348 0.0
C1292 C 0.4328 0.97719 0.71691 0.0
C1293 C 0.50098 0.04709 0.72983 0.0
C1294 C 0.50202 0.02475 0.7236 0.0
C1295 C 0.47959 1.00316 0.71469 0.0
C1296 C 0.52004 0.02086 0.74452 0.0
C1297 C 0.52436 0.07223 0.7332 0.0
C1298 C 0.5459 0.03609 0.73941 0.0
C1299 C 0.56162 0.04545 0.76807 0.0
C1300 C 0.55118 0.04081 0.80136 0.0
C1301 C 0.52679 0.02077 0.80594 0.0
C1302 C 0.51154 0.00991 0.77723 0.0
H1303 H 0.52026 0.08791 0.73052 0.0
H1304 H 0.53278 0.07372 0.75891 0.0
H1305 H 0.53807 0.07416 0.71321 0.0
H1306 H 0.55331 0.04362 0.71413 0.0
H1307 H 0.58104 0.05897 0.76384 0.0
H1308 H 0.52456 0.52826 0.16533 0.0
H1309 H 0.5192 0.5042 0.11296 0.0
H1310 H 0.54548 0.57166 1.0521 0.0
H1311 H 0.55441 0.5961 0.10453 0.0
H1312 H 0.49204 0.54424 1.05989 0.0
H1313 H 0.51867 0.4763 1.01644 0.0
H1314 H 0.53248 0.48718 1.05803 0.0
H1315 H 0.5415 0.50932 1.02285 0.0
C1316 C 0.53066 0.53809 0.14099 0.0
C1317 C 0.53759 0.5635 0.13854 0.0
C1318 C 0.52774 0.52445 0.11085 0.0
C1319 C 0.52995 0.53592 1.07845 0.0
C1320 C 0.54271 0.56221 1.07666 0.0
H1321 H 0.4566 0.41608 0.13197 0.0
H1322 H 0.43954 0.43082 1.0872 0.0
C1323 C 0.5472 0.57606 0.10687 0.0
C1324 C 0.50966 0.52146 1.05337 0.0
H1325 H 0.47878 0.45804 1.05282 0.0
C1326 C 0.48892 0.5253 1.05687 0.0
C1327 C 0.50466 0.49711 1.04466 0.0
C1328 C 0.52559 0.49232 1.03469 0.0
C1329 C 0.46571 0.50508 1.06738 0.0
C1330 C 0.46391 0.48135 1.07193 0.0
C1331 C 0.48104 0.47677 1.0533 0.0
C1332 C 0.45681 0.46892 0.10636 0.0
C1333 C 0.44564 0.51021 1.08065 0.0
C1334 C 0.46836 0.48408 0.13556 0.0
C1335 C 0.47844 0.47568 0.16129 0.0
C1336 C 0.47643 0.45204 0.15813 0.0
C1337 C 0.45945 0.43496 0.13399 0.0
C1338 C 0.44926 0.44325 0.10852 0.0
H1339 H 0.44205 0.52159 1.0616 0.0
H1340 H 0.42786 0.49248 1.08608 0.0
H1341 H 0.45219 0.52155 0.10455 0.0
H1342 H 0.47375 0.5038 0.1357 0.0
H1343 H 0.49038 0.4887 0.1808 0.0
H1344 H 0.36873 1.00493 0.73112 0.0
H1345 H 0.36765 0.02287 0.67562 0.0
H1346 H 0.28733 0.97444 0.67129 0.0
H1347 H 0.28803 0.95692 0.72779 0.0
H1348 H 0.34863 0.98844 0.61912 0.0
H1349 H 0.3002 0.04446 0.63408 0.0
H1350 H 0.31531 0.03827 0.6697 0.0
H1351 H 0.28595 0.01367 0.65366 0.0
C1352 C 0.35067 0.99874 0.71914 0.0
C1353 C 0.32846 0.97939 0.7338 0.0
C1354 C 0.35013 0.00892 0.68729 0.0
C1355 C 0.32742 0.99995 0.66953 0.0
C1356 C 0.30498 0.98175 0.68487 0.0
H1357 H 0.34025 0.01769 0.44652 0.0
H1358 H 0.32 0.99985 0.50187 0.0
C1359 C 0.30547 0.9716 0.71692 0.0
C1360 C 0.32805 0.0071 0.63317 0.0
H1361 H 0.31382 0.04172 0.57816 0.0
C1362 C 0.3408 0.99987 0.61 0.0
C1363 C 0.3177 0.02189 0.62167 0.0
C1364 C 0.3041 0.03023 0.64597 0.0
C1365 C 0.34444 0.0079 0.57574 0.0
C1366 C 0.33452 0.02312 0.56422 0.0
C1367 C 0.32106 0.02976 0.58712 0.0
C1368 C 0.34094 0.03477 0.52975 0.0
C1369 C 0.36003 1.00112 0.55266 0.0
C1370 C 0.35814 0.06058 0.52695 0.0
C1371 C 0.36957 0.07083 0.49544 0.0
C1372 C 0.36396 0.05537 0.46635 0.0
C1373 C 0.34492 0.03003 0.46853 0.0
C1374 C 0.33343 0.0198 0.5001 0.0
H1375 H 0.36979 0.99289 0.56729 0.0
H1376 H 0.34765 0.98706 0.53343 0.0
H1377 H 0.37435 0.01798 0.53852 0.0
H1378 H 0.36409 0.07241 0.54961 0.0
H1379 H 0.38386 0.09053 0.49426 0.0
H1380 H 0.39583 0.32132 1.01933 0.0
H1381 H 0.37062 0.31513 0.96824 0.0
H1382 H 0.31003 0.30932 1.03141 0.0
H1383 H 0.33591 0.31693 1.08287 0.0
H1384 H 0.32475 0.28167 0.94165 0.0
H1385 H 0.32917 0.37234 0.97618 0.0
H1386 H 0.3467 0.36085 0.99976 0.0
H1387 H 0.31327 0.34626 1.00536 0.0
C1388 C 0.37706 0.31853 1.02241 0.0
C1389 C 0.36812 0.32039 1.05492 0.0
C1390 C 0.36252 0.31465 0.99323 0.0
C1391 C 0.33866 0.31234 0.99597 0.0
C1392 C 0.32862 0.31161 1.02871 0.0
H1393 H 0.30043 0.33552 0.78373 0.0
H1394 H 0.29016 0.31391 0.83979 0.0
C1395 C 0.34334 0.31578 1.05807 0.0
C1396 C 0.32674 0.31471 0.96421 0.0
H1397 H 0.32143 0.35974 0.91921 0.0
C1398 C 0.32315 0.29829 0.93685 0.0
C1399 C 0.32465 0.33644 0.95815 0.0
C1400 C 0.32873 0.35511 0.98625 0.0
C1401 C 0.32039 0.30449 0.90296 0.0
C1402 C 0.32077 0.3274 0.89669 0.0
C1403 C 0.32131 0.34225 0.9244 0.0
C1404 C 0.32634 0.33909 0.86223 0.0
C1405 C 0.31963 0.28791 0.87381 0.0
C1406 C 0.35001 0.36024 0.85654 0.0
C1407 C 0.35581 0.37268 0.82504 0.0
C1408 C 0.33808 0.36415 0.79836 0.0
C1409 C 0.31443 0.34261 0.80387 0.0
C1410 C 0.30858 0.33016 0.8357 0.0
H1411 H 0.31986 0.27084 0.8831 0.0
H1412 H 0.30237 0.28191 0.8584 0.0
H1413 H 0.336 0.29866 0.8565 0.0
H1414 H 0.36395 0.36739 0.87682 0.0
H1415 H 0.37397 0.38948 0.82202 0.0
H1416 H 0.94735 0.33017 0.16138 0.0
H1417 H 0.96853 0.32747 0.21291 0.0
H1418 H 0.03071 0.33604 0.15092 0.0
H1419 H 0.00982 0.33958 0.099 0.0
H1420 H 0.98796 0.29662 0.23463 0.0
H1421 H 0.06255 0.39672 0.21582 0.0
H1422 H 0.03387 0.38267 0.19129 0.0
H1423 H 0.05806 0.37523 0.18156 0.0
C1424 C 0.96551 0.33139 0.15868 0.0
C1425 C 0.9772 0.33559 0.12632 0.0
C1426 C 0.97746 0.32958 0.18809 0.0
C1427 C 1.00131 0.33191 0.18575 0.0
C1428 C 0.01243 0.33454 0.15325 0.0
H1429 H 0.09638 0.37629 0.36802 0.0
H1430 H 0.0814 0.35732 0.31142 0.0
C1431 C 1.00044 0.3364 0.12366 0.0
C1432 C 0.01513 0.33404 0.21786 0.0
H1433 H 0.06203 0.37766 0.26801 0.0
C1434 C 1.00447 0.31415 0.24176 0.0
C1435 C 0.03665 0.35694 0.22704 0.0
C1436 C 0.04846 0.37922 0.20279 0.0
C1437 C 0.0141 0.317 0.27522 0.0
C1438 C 0.03466 0.34041 0.28499 0.0
C1439 C 0.04627 0.3597 0.26041 0.0
C1440 C 0.04264 0.34666 0.32125 0.0
C1441 C 1.00175 0.29517 0.30002 0.0
C1442 C 0.02569 0.34636 0.34583 0.0
C1443 C 0.0342 0.35721 0.37813 0.0
C1444 C 0.05986 0.36881 0.38618 0.0
C1445 C 0.07654 0.36773 0.3623 0.0
C1446 C 0.068 0.35679 0.33008 0.0
H1447 H 0.99289 0.2769 0.28619 0.0
H1448 H 0.01545 0.2954 0.31887 0.0
H1449 H 0.98674 0.29638 0.31436 0.0
H1450 H 1.00616 0.33923 0.3393 0.0
H1451 H 0.02098 0.35804 0.39585 0.0
H1452 H 0.70166 0.03362 0.71786 0.0
H1453 H 0.71614 0.02492 0.66367 0.0
H1454 H 0.69459 0.07308 0.61001 0.0
H1455 H 0.68139 0.08286 0.66407 0.0
H1456 H 0.68509 1.0007 0.61412 0.0
H1457 H 0.75758 0.09038 0.55906 0.0
H1458 H 0.74912 0.08713 0.60411 0.0
H1459 H 0.73168 0.09401 0.57269 0.0
C1460 C 0.70081 0.04302 0.69467 0.0
C1461 C 0.69014 0.05874 0.69517 0.0
C1462 C 0.70908 0.03801 0.66374 0.0
C1463 C 0.70687 0.04866 0.63284 0.0
C1464 C 0.69722 0.0652 0.63359 0.0
H1465 H 0.6494 0.01668 0.44649 0.0
H1466 H 0.67496 0.03611 0.49706 0.0
C1467 C 0.68914 0.07035 0.66446 0.0
C1468 C 0.7101 0.03923 0.59929 0.0
H1469 H 0.72835 0.0591 0.5168 0.0
C1470 C 0.69536 0.01332 0.59304 0.0
C1471 C 0.72371 0.05565 0.57188 0.0
C1472 C 0.74162 0.0833 0.57748 0.0
C1473 C 0.69138 1.00383 0.5595 0.0
C1474 C 0.70268 0.02076 0.53169 0.0
C1475 C 0.71956 0.04623 0.53823 0.0
C1476 C 0.69285 0.01328 0.49652 0.0
C1477 C 0.67306 0.97622 0.55385 0.0
C1478 C 0.69538 0.99481 0.4786 0.0
C1479 C 0.68075 0.98362 0.44945 0.0
C1480 C 0.66347 0.99082 0.43794 0.0
C1481 C 0.66264 0.01081 0.4544 0.0
C1482 C 0.67725 0.02196 0.48339 0.0
H1483 H 0.66462 0.96602 0.57829 0.0
H1484 H 0.65768 0.97394 0.53655 0.0
H1485 H 0.68286 0.96724 0.5413 0.0
H1486 H 0.70753 0.98807 0.48828 0.0
H1487 H 0.68214 0.96859 0.43685 0.0
H1488 H 0.64896 0.72884 1.03672 0.0
H1489 H 0.66781 0.73821 0.9791 0.0
H1490 H 0.68757 0.68014 0.99149 0.0
H1491 H 0.66928 0.67103 1.04926 0.0
H1492 H 0.72438 0.72581 0.95393 0.0
H1493 H 0.62576 0.68296 0.90653 0.0
H1494 H 0.63696 0.70921 0.93549 0.0
H1495 H 0.63272 0.67963 0.95067 0.0
C1496 C 0.65802 0.71862 1.02755 0.0
C1497 C 0.65739 0.69897 1.04719 0.0
C1498 C 0.66865 0.72392 0.99463 0.0
C1499 C 0.67874 0.70964 0.98105 0.0
C1500 C 0.67982 0.69134 1.00161 0.0
H1501 H 0.70767 0.6429 0.82149 0.0
H1502 H 0.71142 0.66858 0.87135 0.0
C1503 C 0.6692 0.68601 1.03443 0.0
C1504 C 0.68497 0.71094 0.94418 0.0
H1505 H 0.65655 0.68838 0.86693 0.0
C1506 C 0.70972 0.71823 0.93462 0.0
C1507 C 0.66576 0.70119 0.91913 0.0
C1508 C 0.63875 0.69265 0.92825 0.0
C1509 C 0.71548 0.71449 0.90098 0.0
C1510 C 0.69588 0.70272 0.87674 0.0
C1511 C 0.67155 0.69741 0.88559 0.0
C1512 C 0.69886 0.69148 0.84471 0.0
C1513 C 0.74228 0.72216 0.89213 0.0
C1514 C 0.69068 0.69588 0.81305 0.0
C1515 C 0.68823 0.68094 0.78455 0.0
C1516 C 0.69364 0.66123 0.78753 0.0
C1517 C 0.70317 0.65785 0.81866 0.0
C1518 C 0.70569 0.67278 0.84701 0.0
H1519 H 0.7556 0.73892 0.90722 0.0
H1520 H 0.74581 0.70656 0.89883 0.0
H1521 H 0.74619 0.72648 0.86429 0.0
H1522 H 0.685 0.71 0.81091 0.0
H1523 H 0.68069 0.68381 0.76085 0.0
H1524 H 0.08216 0.66182 0.16403 0.0
H1525 H 0.07476 0.6778 0.21725 0.0
H1526 H 0.02373 0.69584 0.16471 0.0
H1527 H 0.02955 0.67785 0.11162 0.0
H1528 H 0.07609 0.71809 0.24578 0.0
H1529 H 0.97624 0.64242 0.2289 0.0
H1530 H 1.00037 0.64565 0.19957 0.0
H1531 H 0.98895 0.66763 0.19806 0.0
C1532 C 0.06943 0.66928 0.16369 0.0
C1533 C 0.05563 0.66757 0.13402 0.0
C1534 C 0.0655 0.67881 0.19406 0.0
C1535 C 0.04801 0.68723 0.19526 0.0
C1536 C 0.03667 0.68865 0.1646 0.0
H1537 H 0.97645 0.65288 0.39629 0.0
H1538 H 0.99163 0.68016 0.34541 0.0
C1539 C 0.04022 0.67858 0.13419 0.0
C1540 C 0.03902 0.69007 0.22946 0.0
H1541 H 0.98971 0.65667 0.28392 0.0
C1542 C 0.05699 0.70522 0.25401 0.0
C1543 C 0.01399 0.67345 0.24021 0.0
C1544 C 0.99374 0.65625 0.21547 0.0
C1545 C 0.05133 0.70204 0.28929 0.0
C1546 C 0.02712 0.68348 0.30001 0.0
C1547 C 1.00834 0.67077 0.27542 0.0
C1548 C 0.02209 0.67288 0.33518 0.0
C1549 C 0.07174 0.71723 0.31485 0.0
C1550 C 0.03448 0.6601 0.34649 0.0
C1551 C 0.02569 0.6443 0.37519 0.0
C1552 C 1.00441 0.64109 0.39309 0.0
C1553 C 0.99301 0.65515 0.38306 0.0
C1554 C 1.00168 0.6708 0.35413 0.0
H1555 H 0.08553 0.73587 0.30393 0.0
H1556 H 0.06382 0.7201 0.33903 0.0
H1557 H 0.08197 0.70704 0.32117 0.0
H1558 H 0.04988 0.66095 0.33174 0.0
H1559 H 0.03492 0.63383 0.38261 0.0
H1560 H 0.48518 0.08367 0.4653 0.0
H1561 H 0.4994 0.08378 0.52456 0.0
H1562 H 0.57514 0.13717 0.49424 0.0
H1563 H 0.56119 0.13569 0.43505 0.0
H1564 H 0.51585 0.10864 0.57706 0.0
H1565 H 0.59766 0.09869 0.54486 0.0
H1566 H 0.60148 0.12713 0.52617 0.0
H1567 H 0.57625 0.09704 0.51212 0.0
C1568 C 0.50493 0.09547 0.47108 0.0
C1569 C 0.52177 0.10961 0.44418 0.0
C1570 C 0.51327 0.09556 0.50562 0.0
C1571 C 0.53896 0.10992 0.51556 0.0
C1572 C 0.5555 0.12474 0.4887 0.0
H1573 H 0.60266 0.08696 0.71494 0.0
H1574 H 0.58874 0.08649 0.65553 0.0
C1575 C 0.54728 0.12424 0.45416 0.0
C1576 C 0.5481 0.10978 0.55336 0.0
H1577 H 0.59624 0.11144 0.60229 0.0
C1578 C 0.53346 0.10913 0.58206 0.0
C1579 C 0.57087 0.10981 0.56204 0.0
C1580 C 0.5873 0.10791 0.53469 0.0
C1581 C 0.54063 0.10898 0.61726 0.0
C1582 C 0.56412 0.11059 0.62592 0.0
C1583 C 0.57853 0.11071 0.59725 0.0
C1584 C 0.5737 0.11152 0.66374 0.0
C1585 C 0.52196 0.10589 0.64476 0.0
C1586 C 0.5713 0.12624 0.69013 0.0
C1587 C 0.57891 0.12606 0.72487 0.0
C1588 C 0.59016 0.11174 0.73556 0.0
C1589 C 0.594 0.09818 0.70888 0.0
C1590 C 0.5859 0.09796 0.67417 0.0
H1591 H 0.50246 0.09627 0.63464 0.0
H1592 H 0.52268 0.09477 0.66682 0.0
H1593 H 0.52613 0.12473 0.65395 0.0
H1594 H 0.56342 0.13813 0.68411 0.0
H1595 H 0.57566 0.13716 0.74367 0.0
H1596 H 0.42018 0.48966 0.79941 0.0
H1597 H 0.43529 0.50376 0.85824 0.0
H1598 H 0.45687 0.5798 0.82904 0.0
H1599 H 0.44338 0.56598 0.77013 0.0
H1600 H 0.42695 0.52018 0.9112 0.0
H1601 H 0.51861 0.60099 0.87762 0.0
H1602 H 0.49439 0.6047 0.85765 0.0
H1603 H 0.49882 0.57858 0.84591 0.0
C1604 C 0.42821 0.50945 0.80534 0.0
C1605 C 0.43031 0.52643 0.77892 0.0
C1606 C 0.43703 0.5177 0.83958 0.0
C1607 C 0.44831 0.5434 0.84959 0.0
C1608 C 0.44961 0.56013 0.82324 0.0
H1609 H 0.53517 0.60932 1.0471 0.0
H1610 H 0.52186 0.59378 0.98821 0.0
C1611 C 0.44128 0.55198 0.78896 0.0
C1612 C 0.45785 0.55239 0.8871 0.0
H1613 H 0.50456 0.60061 0.93496 0.0
C1614 C 0.44404 0.5378 0.91592 0.0
C1615 C 0.4807 0.57497 0.89525 0.0
C1616 C 0.49914 0.59055 0.8675 0.0
C1617 C 0.45167 0.54503 0.95091 0.0
C1618 C 0.47339 0.56865 0.95906 0.0
C1619 C 0.48757 0.5829 0.93024 0.0
C1620 C 0.48192 0.57854 0.99657 0.0
C1621 C 0.43677 0.52621 0.97868 0.0
C1622 C 0.46472 0.5762 1.02277 0.0
C1623 C 0.47244 0.58477 1.05708 0.0
C1624 C 0.49796 0.59706 1.06731 0.0
C1625 C 0.51537 0.60025 1.04102 0.0
C1626 C 0.50757 0.59118 1.00674 0.0
H1627 H 0.42733 0.50665 0.96864 0.0
H1628 H 0.449 0.52731 1.00038 0.0
H1629 H 0.4219 0.52991 0.98835 0.0
H1630 H 0.44499 0.56788 1.01683 0.0
H1631 H 0.45812 0.5818 1.07579 0.0
H1632 H 0.8838 0.44108 0.09961 0.0
H1633 H 0.88251 0.45135 0.16033 0.0
H1634 H 0.92227 0.41246 0.18794 0.0
H1635 H 0.92273 0.40142 0.1274 0.0
H1636 H 0.91149 0.47786 0.20788 0.0
H1637 H 0.87354 0.38257 0.26227 0.0
H1638 H 0.90256 0.39224 0.24014 0.0
H1639 H 0.87543 0.38799 0.21652 0.0
C1640 C 0.89209 0.43436 0.11849 0.0
C1641 C 0.90311 0.41994 0.10746 0.0
C1642 C 0.89143 0.44044 0.15385 0.0
C1643 C 0.90173 0.43248 0.18054 0.0
C1644 C 0.91316 0.41841 0.16935 0.0
H1645 H 0.86426 0.43911 0.4043 0.0
H1646 H 0.86486 0.42829 0.34351 0.0
C1647 C 0.91365 0.41217 0.13399 0.0
C1648 C 0.90098 0.43943 0.21914 0.0
H1649 H 0.88942 0.41608 0.30261 0.0
C1650 C 0.90656 0.46409 0.22831 0.0
C1651 C 0.89418 0.42204 0.24726 0.0
C1652 C 0.88583 0.39469 0.24111 0.0
C1653 C 0.90597 0.47168 0.2631 0.0
C1654 C 0.90022 0.45459 0.29137 0.0
C1655 C 0.89423 0.4298 0.28216 0.0
C1656 C 0.89983 0.4617 0.32997 0.0
C1657 C 0.91068 0.49805 0.26872 0.0
C1658 C 0.91921 0.48412 0.34489 0.0
C1659 C 0.91869 0.49055 0.38011 0.0
C1660 C 0.89896 0.47481 0.40292 0.0
C1661 C 0.87979 0.45216 0.38831 0.0
C1662 C 0.88022 0.44581 0.35295 0.0
H1663 H 0.90616 0.50551 0.24535 0.0
H1664 H 0.89935 0.49881 0.29048 0.0
H1665 H 0.93087 0.51065 0.27441 0.0
H1666 H 0.93529 0.49675 0.32946 0.0
H1667 H 0.93421 0.50795 0.38961 0.0
H1668 H 0.44885 0.87874 0.44171 0.0
H1669 H 0.43554 0.87811 0.50124 0.0
H1670 H 0.51056 0.936 0.52669 0.0
H1671 H 0.5242 0.93496 0.4677 0.0
H1672 H 0.42627 0.90037 0.54346 0.0
H1673 H 0.50611 0.90291 0.61124 0.0
H1674 H 0.51677 0.92994 0.58401 0.0
H1675 H 0.50276 0.89881 0.56541 0.0
C1676 C 0.46283 0.89104 0.46003 0.0
C1677 C 0.48802 0.90648 0.4488 0.0
C1678 C 0.45502 0.89086 0.49481 0.0
C1679 C 0.4717 0.90648 0.52087 0.0
C1680 C 0.49683 0.9225 0.50924 0.0
H1681 H 0.43899 0.88525 0.74968 0.0
H1682 H 0.45212 0.88558 0.69017 0.0
C1683 C 0.50482 0.92214 0.47458 0.0
C1684 C 0.46246 0.90623 0.55892 0.0
H1685 H 0.47902 0.91122 0.64512 0.0
C1686 C 0.43804 0.90253 0.5654 0.0
C1687 C 0.47669 0.90859 0.58935 0.0
C1688 C 0.50189 0.91 0.58725 0.0
C1689 C 0.42791 0.90114 0.59933 0.0
C1690 C 0.44265 0.90488 0.6297 0.0
C1691 C 0.46706 0.90855 0.62322 0.0
C1692 C 0.43325 0.90419 0.66779 0.0
C1693 C 0.40074 0.89436 0.60171 0.0
C1694 C 0.41767 0.91429 0.6779 0.0
C1695 C 0.40926 0.9133 0.71269 0.0
C1696 C 0.41667 0.90309 0.74009 0.0
C1697 C 0.4325 0.89337 0.73023 0.0
C1698 C 0.44037 0.89376 0.6954 0.0
H1699 H 0.39002 0.88364 0.57875 0.0
H1700 H 0.3915 0.88276 0.62488 0.0
H1701 H 0.39957 0.91187 0.6027 0.0
H1702 H 0.41221 0.92364 0.65904 0.0
H1703 H 0.39727 0.92117 0.71819 0.0
H1704 H 0.56347 0.45826 0.76631 0.0
H1705 H 0.55047 0.44482 0.82574 0.0
H1706 H 0.60755 0.51719 0.86182 0.0
H1707 H 0.62077 0.53083 0.8018 0.0
H1708 H 0.60523 0.47894 0.90446 0.0
H1709 H 0.50634 0.45674 0.89099 0.0
H1710 H 0.51826 0.44552 0.85727 0.0
H1711 H 0.53092 0.47878 0.86315 0.0
C1712 C 0.57344 0.4716 0.78661 0.0
C1713 C 0.59346 0.49595 0.77791 0.0
C1714 C 0.5656 0.46382 0.8213 0.0
C1715 C 0.57724 0.47982 0.84981 0.0
C1716 C 0.59765 0.50403 0.84131 0.0
H1717 H 0.49566 0.39978 1.04589 0.0
H1718 H 0.50938 0.41286 0.98599 0.0
C1719 C 0.60537 0.51197 0.8064 0.0
C1720 C 0.5687 0.47107 0.88781 0.0
H1721 H 0.51751 0.44654 0.94326 0.0
C1722 C 0.58599 0.47198 0.91265 0.0
C1723 C 0.54351 0.46137 0.90004 0.0
C1724 C 0.52358 0.46055 0.8767 0.0
C1725 C 0.57908 0.46334 0.94755 0.0
C1726 C 0.55397 0.45413 0.96003 0.0
C1727 C 0.53671 0.45326 0.9351 0.0
C1728 C 0.54528 0.44554 0.99811 0.0
C1729 C 0.599 0.4632 0.97009 0.0
C1730 C 0.55991 0.4591 1.02689 0.0
C1731 C 0.55216 0.45121 1.06152 0.0
C1732 C 0.52891 0.42959 1.06997 0.0
C1733 C 0.51377 0.41634 1.0414 0.0
C1734 C 0.52175 0.42406 1.00654 0.0
H1735 H 0.6133 0.46154 0.95451 0.0
H1736 H 0.60888 0.48127 0.98426 0.0
H1737 H 0.59082 0.44742 0.98887 0.0
H1738 H 0.57743 0.47639 1.02288 0.0
H1739 H 0.56451 0.46262 1.08197 0.0
H1740 H 0.13115 0.56218 0.41153 0.0
H1741 H 0.13125 0.57214 0.35029 0.0
H1742 H 0.09236 0.493 0.32686 0.0
H1743 H 0.09334 0.48316 0.38784 0.0
H1744 H 0.10267 0.56907 0.30287 0.0
H1745 H 0.13835 0.50932 0.25051 0.0
H1746 H 0.10975 0.49072 0.27387 0.0
H1747 H 0.13743 0.51392 0.2961 0.0
C1748 C 0.12282 0.54674 0.39346 0.0
C1749 C 0.11253 0.52168 0.40585 0.0
C1750 C 0.12278 0.55253 0.35774 0.0
C1751 C 0.11237 0.53367 0.33196 0.0
C1752 C 0.10159 0.50854 0.34456 0.0
H1753 H 0.14376 0.56935 0.10448 0.0
H1754 H 0.14455 0.55972 0.1658 0.0
C1755 C 0.1019 0.50275 0.38025 0.0
C1756 C 0.11232 0.54034 0.29288 0.0
H1757 H 0.12139 0.52578 0.20973 0.0
C1758 C 0.1069 0.55944 0.28282 0.0
C1759 C 0.11821 0.52877 0.26509 0.0
C1760 C 0.12653 0.50976 0.27188 0.0
C1761 C 0.10681 0.56674 0.24762 0.0
C1762 C 0.1115 0.55432 0.21974 0.0
C1763 C 0.11733 0.5355 0.22981 0.0
C1764 C 0.11102 0.56075 0.18067 0.0
C1765 C 0.10261 0.58867 0.24116 0.0
C1766 C 0.09192 0.5646 0.16615 0.0
C1767 C 0.0917 0.57059 0.13058 0.0
C1768 C 0.11025 0.57264 0.10687 0.0
C1769 C 0.12907 0.56829 0.12107 0.0
C1770 C 0.12945 0.56255 0.15679 0.0
H1771 H 0.10814 0.60137 0.26379 0.0
H1772 H 0.11344 0.59992 0.2185 0.0
H1773 H 0.08233 0.5815 0.23657 0.0
H1774 H 0.07661 0.56254 0.1822 0.0
H1775 H 0.07649 0.57325 0.12152 0.0
loop_
_geom_bond_atom_site_label_1
_geom_bond_atom_site_label_2
_geom_bond_distance
_geom_bond_site_symmetry_2
_ccdc_geom_bond_type
Sm0 C2 2.846 . S
Sm0 O20 2.543 . S
Sm0 O21 2.450 . S
Sm0 O22 2.681 . S
Sm0 O23 2.464 . S
Sm0 O24 2.396 . S
Sm0 O28 2.386 . S
Sm0 O31 2.408 . S
Sm1 C11 2.846 . S
Sm1 O22 2.386 . S
Sm1 O25 2.408 . S
Sm1 O26 2.543 . S
Sm1 O27 2.450 . S
Sm1 O28 2.681 . S
Sm1 O29 2.464 . S
Sm1 O30 2.396 . S
C2 Sm0 2.846 . S
C2 C3 1.506 . S
C2 O20 1.261 . S
C2 O21 1.242 . S
C3 C2 1.506 . S
C3 C4 1.358 . S
C3 C8 1.382 . S
C4 C3 1.358 . S
C4 C5 1.385 . S
C4 H32 0.930 . S
C5 C4 1.385 . S
C5 C6 1.395 . S
C5 H33 0.929 . S
C6 C5 1.395 . S
C6 C7 1.335 . S
C7 C6 1.335 . S
C7 C8 1.398 . S
C7 H34 0.930 . S
C8 C3 1.382 . S
C8 C7 1.398 . S
C8 H35 0.929 . S
C9 O22 1.271 . S
C9 O23 1.251 . S
C10 O24 1.252 . S
C10 O25 1.272 . S
C11 Sm1 2.846 . S
C11 C12 1.506 . S
C11 O26 1.261 . S
C11 O27 1.242 . S
C12 C11 1.506 . S
C12 C13 1.358 . S
C12 C17 1.382 . S
C13 C12 1.358 . S
C13 C14 1.385 . S
C13 H36 0.930 . S
C14 C13 1.385 . S
C14 C15 1.395 . S
C14 H37 0.929 . S
C15 C14 1.395 . S
C15 C16 1.335 . S
C16 C15 1.335 . S
C16 C17 1.398 . S
C16 H38 0.930 . S
C17 C12 1.382 . S
C17 C16 1.398 . S
C17 H39 0.929 . S
C18 O28 1.271 . S
C18 O29 1.251 . S
C19 O30 1.252 . S
C19 O31 1.272 . S
O20 Sm0 2.543 . S
O20 C2 1.261 . S
O21 Sm0 2.450 . S
O21 C2 1.242 . S
O22 Sm0 2.681 . S
O22 Sm1 2.386 . S
O22 C9 1.271 . S
O23 Sm0 2.464 . S
O23 C9 1.251 . S
O24 Sm0 2.396 . S
O24 C10 1.252 . S
O25 Sm1 2.408 . S
O25 C10 1.272 . S
O26 Sm1 2.543 . S
O26 C11 1.261 . S
O27 Sm1 2.450 . S
O27 C11 1.242 . S
O28 Sm0 2.386 . S
O28 Sm1 2.681 . S
O28 C18 1.271 . S
O29 Sm1 2.464 . S
O29 C18 1.251 . S
O30 Sm1 2.396 . S
O30 C19 1.252 . S
O31 Sm0 2.408 . S
O31 C19 1.272 . S
H32 C4 0.930 . S
H33 C5 0.929 . S
H34 C7 0.930 . S
H35 C8 0.929 . S
H36 C13 0.930 . S
H37 C14 0.929 . S
H38 C16 0.930 . S
H39 C17 0.929 . S
Sm40 C42 2.846 . S
Sm40 O60 2.543 . S
Sm40 O61 2.450 . S
Sm40 O62 2.681 . S
Sm40 O63 2.464 . S
Sm40 O64 2.396 . S
Sm40 O68 2.386 . S
Sm40 O71 2.408 . S
Sm41 C51 2.846 . S
Sm41 O62 2.386 . S
Sm41 O65 2.408 . S
Sm41 O66 2.543 . S
Sm41 O67 2.450 . S
Sm41 O68 2.681 . S
Sm41 O69 2.464 . S
Sm41 O70 2.396 . S
C42 Sm40 2.846 . S
C42 C43 1.506 . S
C42 O60 1.261 . S
C42 O61 1.242 . S
C43 C42 1.506 . S
C43 C44 1.358 . S
C43 C48 1.382 . S
C44 C43 1.358 . S
C44 C45 1.385 . S
C44 H72 0.930 . S
C45 C44 1.385 . S
C45 C46 1.395 . S
C45 H73 0.929 . S
C46 C45 1.395 . S
C46 C47 1.335 . S
C47 C46 1.335 . S
C47 C48 1.398 . S
C47 H74 0.930 . S
C48 C43 1.382 . S
C48 C47 1.398 . S
C48 H75 0.929 . S
C49 O62 1.271 . S
C49 O63 1.251 . S
C50 O64 1.252 . S
C50 O65 1.272 . S
C51 Sm41 2.846 . S
C51 C52 1.506 . S
C51 O66 1.261 . S
C51 O67 1.242 . S
C52 C51 1.506 . S
C52 C53 1.358 . S
C52 C57 1.382 . S
C53 C52 1.358 . S
C53 C54 1.385 . S
C53 H76 0.930 . S
C54 C53 1.385 . S
C54 C55 1.395 . S
C54 H77 0.929 . S
C55 C54 1.395 . S
C55 C56 1.335 . S
C56 C55 1.335 . S
C56 C57 1.398 . S
C56 H78 0.930 . S
C57 C52 1.382 . S
C57 C56 1.398 . S
C57 H79 0.929 . S
C58 O68 1.271 . S
C58 O69 1.251 . S
C59 O70 1.252 . S
C59 O71 1.272 . S
O60 Sm40 2.543 . S
O60 C42 1.261 . S
O61 Sm40 2.450 . S
O61 C42 1.242 . S
O62 Sm40 2.681 . S
O62 Sm41 2.386 . S
O62 C49 1.271 . S
O63 Sm40 2.464 . S
O63 C49 1.251 . S
O64 Sm40 2.396 . S
O64 C50 1.252 . S
O65 Sm41 2.408 . S
O65 C50 1.272 . S
O66 Sm41 2.543 . S
O66 C51 1.261 . S
O67 Sm41 2.450 . S
O67 C51 1.242 . S
O68 Sm40 2.386 . S
O68 Sm41 2.681 . S
O68 C58 1.271 . S
O69 Sm41 2.464 . S
O69 C58 1.251 . S
O70 Sm41 2.396 . S
O70 C59 1.252 . S
O71 Sm40 2.408 . S
O71 C59 1.272 . S
H72 C44 0.930 . S
H73 C45 0.929 . S
H74 C47 0.930 . S
H75 C48 0.929 . S
H76 C53 0.930 . S
H77 C54 0.929 . S
H78 C56 0.930 . S
H79 C57 0.929 . S
Sm80 C82 2.846 . S
Sm80 O100 2.543 . S
Sm80 O101 2.450 . S
Sm80 O102 2.681 . S
Sm80 O103 2.464 . S
Sm80 O104 2.396 . S
Sm80 O108 2.386 . S
Sm80 O111 2.408 . S
Sm81 C91 2.846 . S
Sm81 O102 2.386 . S
Sm81 O105 2.408 . S
Sm81 O106 2.543 . S
Sm81 O107 2.450 . S
Sm81 O108 2.681 . S
Sm81 O109 2.464 . S
Sm81 O110 2.396 . S
C82 Sm80 2.846 . S
C82 C83 1.506 1_556 S
C82 O100 1.261 . S
C82 O101 1.242 . S
C83 C82 1.506 1_554 S
C83 C84 1.358 . S
C83 C88 1.382 . S
C84 C83 1.358 . S
C84 C85 1.385 . S
C84 H112 0.930 . S
C85 C84 1.385 . S
C85 C86 1.395 . S
C85 H113 0.929 . S
C86 C85 1.395 . S
C86 C87 1.335 . S
C87 C86 1.335 . S
C87 C88 1.398 . S
C87 H114 0.930 . S
C88 C83 1.382 . S
C88 C87 1.398 . S
C88 H115 0.929 . S
C89 O102 1.271 . S
C89 O103 1.251 . S
C90 O104 1.252 . S
C90 O105 1.272 . S
C91 Sm81 2.846 . S
C91 C92 1.506 . S
C91 O106 1.261 . S
C91 O107 1.242 . S
C92 C91 1.506 . S
C92 C93 1.358 . S
C92 C97 1.382 . S
C93 C92 1.358 . S
C93 C94 1.385 . S
C93 H116 0.930 . S
C94 C93 1.385 . S
C94 C95 1.395 . S
C94 H117 0.929 . S
C95 C94 1.395 . S
C95 C96 1.335 . S
C96 C95 1.335 . S
C96 C97 1.398 . S
C96 H118 0.930 . S
C97 C92 1.382 . S
C97 C96 1.398 . S
C97 H119 0.929 . S
C98 O108 1.271 . S
C98 O109 1.251 . S
C99 O110 1.252 . S
C99 O111 1.272 . S
O100 Sm80 2.543 . S
O100 C82 1.261 . S
O101 Sm80 2.450 . S
O101 C82 1.242 . S
O102 Sm80 2.681 . S
O102 Sm81 2.386 . S
O102 C89 1.271 . S
O103 Sm80 2.464 . S
O103 C89 1.251 . S
O104 Sm80 2.396 . S
O104 C90 1.252 . S
O105 Sm81 2.408 . S
O105 C90 1.272 . S
O106 Sm81 2.543 . S
O106 C91 1.261 . S
O107 Sm81 2.450 . S
O107 C91 1.242 . S
O108 Sm80 2.386 . S
O108 Sm81 2.681 . S
O108 C98 1.271 . S
O109 Sm81 2.464 . S
O109 C98 1.251 . S
O110 Sm81 2.396 . S
O110 C99 1.252 . S
O111 Sm80 2.408 . S
O111 C99 1.272 . S
H112 C84 0.930 . S
H113 C85 0.929 . S
H114 C87 0.930 . S
H115 C88 0.929 . S
H116 C93 0.930 . S
H117 C94 0.929 . S
H118 C96 0.930 . S
H119 C97 0.929 . S
Sm120 C122 2.846 . S
Sm120 O140 2.543 . S
Sm120 O141 2.450 . S
Sm120 O142 2.681 . S
Sm120 O143 2.464 . S
Sm120 O144 2.396 . S
Sm120 O148 2.386 . S
Sm120 O151 2.408 . S
Sm121 C131 2.846 . S
Sm121 O142 2.386 . S
Sm121 O145 2.408 . S
Sm121 O146 2.543 . S
Sm121 O147 2.450 . S
Sm121 O148 2.681 . S
Sm121 O149 2.464 . S
Sm121 O150 2.396 . S
C122 Sm120 2.846 . S
C122 C123 1.506 . S
C122 O140 1.261 . S
C122 O141 1.242 . S
C123 C122 1.506 . S
C123 C124 1.358 . S
C123 C128 1.382 . S
C124 C123 1.358 . S
C124 C125 1.385 . S
C124 H152 0.930 . S
C125 C124 1.385 . S
C125 C126 1.395 . S
C125 H153 0.929 . S
C126 C125 1.395 . S
C126 C127 1.335 . S
C127 C126 1.335 . S
C127 C128 1.398 . S
C127 H154 0.930 . S
C128 C123 1.382 . S
C128 C127 1.398 . S
C128 H155 0.929 . S
C129 O142 1.271 . S
C129 O143 1.251 . S
C130 O144 1.252 . S
C130 O145 1.272 . S
C131 Sm121 2.846 . S
C131 C132 1.506 . S
C131 O146 1.261 . S
C131 O147 1.242 . S
C132 C131 1.506 . S
C132 C133 1.358 . S
C132 C137 1.382 . S
C133 C132 1.358 . S
C133 C134 1.385 . S
C133 H156 0.930 . S
C134 C133 1.385 . S
C134 C135 1.395 . S
C134 H157 0.929 . S
C135 C134 1.395 . S
C135 C136 1.335 . S
C136 C135 1.335 . S
C136 C137 1.398 . S
C136 H158 0.930 . S
C137 C132 1.382 . S
C137 C136 1.398 . S
C137 H159 0.929 . S
C138 O148 1.271 . S
C138 O149 1.251 . S
C139 O150 1.252 . S
C139 O151 1.272 . S
O140 Sm120 2.543 . S
O140 C122 1.261 . S
O141 Sm120 2.450 . S
O141 C122 1.242 . S
O142 Sm120 2.681 . S
O142 Sm121 2.386 . S
O142 C129 1.271 . S
O143 Sm120 2.464 . S
O143 C129 1.251 . S
O144 Sm120 2.396 . S
O144 C130 1.252 . S
O145 Sm121 2.408 . S
O145 C130 1.272 . S
O146 Sm121 2.543 . S
O146 C131 1.261 . S
O147 Sm121 2.450 . S
O147 C131 1.242 . S
O148 Sm120 2.386 . S
O148 Sm121 2.681 . S
O148 C138 1.271 . S
O149 Sm121 2.464 . S
O149 C138 1.251 . S
O150 Sm121 2.396 . S
O150 C139 1.252 . S
O151 Sm120 2.408 . S
O151 C139 1.272 . S
H152 C124 0.930 . S
H153 C125 0.929 . S
H154 C127 0.930 . S
H155 C128 0.929 . S
H156 C133 0.930 . S
H157 C134 0.929 . S
H158 C136 0.930 . S
H159 C137 0.929 . S
Sm160 C162 2.846 . S
Sm160 O180 2.543 . S
Sm160 O181 2.450 . S
Sm160 O182 2.681 . S
Sm160 O183 2.464 . S
Sm160 O184 2.396 . S
Sm160 O188 2.386 . S
Sm160 O191 2.408 . S
Sm161 C171 2.846 . S
Sm161 O182 2.386 . S
Sm161 O185 2.408 . S
Sm161 O186 2.543 . S
Sm161 O187 2.450 . S
Sm161 O188 2.681 . S
Sm161 O189 2.464 . S
Sm161 O190 2.396 . S
C162 Sm160 2.846 . S
C162 C163 1.506 . S
C162 O180 1.261 . S
C162 O181 1.242 . S
C163 C162 1.506 . S
C163 C164 1.358 . S
C163 C168 1.382 . S
C164 C163 1.358 . S
C164 C165 1.385 . S
C164 H192 0.930 . S
C165 C164 1.385 . S
C165 C166 1.395 . S
C165 H193 0.929 . S
C166 C165 1.395 . S
C166 C167 1.335 . S
C167 C166 1.335 . S
C167 C168 1.398 . S
C167 H194 0.930 . S
C168 C163 1.382 . S
C168 C167 1.398 . S
C168 H195 0.929 . S
C169 O182 1.271 . S
C169 O183 1.251 . S
C170 O184 1.252 . S
C170 O185 1.272 . S
C171 Sm161 2.846 . S
C171 C172 1.506 . S
C171 O186 1.261 . S
C171 O187 1.242 . S
C172 C171 1.506 . S
C172 C173 1.358 . S
C172 C177 1.382 . S
C173 C172 1.358 . S
C173 C174 1.385 . S
C173 H196 0.930 . S
C174 C173 1.385 . S
C174 C175 1.395 . S
C174 H197 0.929 . S
C175 C174 1.395 . S
C175 C176 1.335 . S
C176 C175 1.335 . S
C176 C177 1.398 . S
C176 H198 0.930 . S
C177 C172 1.382 . S
C177 C176 1.398 . S
C177 H199 0.929 . S
C178 O188 1.271 . S
C178 O189 1.251 . S
C179 O190 1.252 . S
C179 O191 1.272 . S
O180 Sm160 2.543 . S
O180 C162 1.261 . S
O181 Sm160 2.450 . S
O181 C162 1.242 . S
O182 Sm160 2.681 . S
O182 Sm161 2.386 . S
O182 C169 1.271 . S
O183 Sm160 2.464 . S
O183 C169 1.251 . S
O184 Sm160 2.396 . S
O184 C170 1.252 . S
O185 Sm161 2.408 . S
O185 C170 1.272 . S
O186 Sm161 2.543 . S
O186 C171 1.261 . S
O187 Sm161 2.450 . S
O187 C171 1.242 . S
O188 Sm160 2.386 . S
O188 Sm161 2.681 . S
O188 C178 1.271 . S
O189 Sm161 2.464 . S
O189 C178 1.251 . S
O190 Sm161 2.396 . S
O190 C179 1.252 . S
O191 Sm160 2.408 . S
O191 C179 1.272 . S
H192 C164 0.930 . S
H193 C165 0.929 . S
H194 C167 0.930 . S
H195 C168 0.929 . S
H196 C173 0.930 . S
H197 C174 0.929 . S
H198 C176 0.930 . S
H199 C177 0.929 . S
Sm200 C202 2.846 . S
Sm200 O220 2.543 . S
Sm200 O221 2.450 . S
Sm200 O222 2.681 . S
Sm200 O223 2.464 . S
Sm200 O224 2.396 . S
Sm200 O228 2.386 . S
Sm200 O231 2.408 . S
Sm201 C211 2.846 . S
Sm201 O222 2.386 . S
Sm201 O225 2.408 . S
Sm201 O226 2.543 . S
Sm201 O227 2.450 . S
Sm201 O228 2.681 . S
Sm201 O229 2.464 . S
Sm201 O230 2.396 . S
C202 Sm200 2.846 . S
C202 C203 1.506 1_556 S
C202 O220 1.261 . S
C202 O221 1.242 . S
C203 C202 1.506 1_554 S
C203 C204 1.358 . S
C203 C208 1.382 . S
C204 C203 1.358 . S
C204 C205 1.385 . S
C204 H232 0.930 . S
C205 C204 1.385 . S
C205 C206 1.395 . S
C205 H233 0.929 . S
C206 C205 1.395 . S
C206 C207 1.335 . S
C207 C206 1.335 . S
C207 C208 1.398 . S
C207 H234 0.930 . S
C208 C203 1.382 . S
C208 C207 1.398 . S
C208 H235 0.929 . S
C209 O222 1.271 . S
C209 O223 1.251 . S
C210 O224 1.252 . S
C210 O225 1.272 . S
C211 Sm201 2.846 . S
C211 C212 1.506 . S
C211 O226 1.261 . S
C211 O227 1.242 . S
C212 C211 1.506 . S
C212 C213 1.358 . S
C212 C217 1.382 . S
C213 C212 1.358 . S
C213 C214 1.385 . S
C213 H236 0.930 . S
C214 C213 1.385 . S
C214 C215 1.395 . S
C214 H237 0.929 . S
C215 C214 1.395 . S
C215 C216 1.335 . S
C216 C215 1.335 . S
C216 C217 1.398 . S
C216 H238 0.930 . S
C217 C212 1.382 . S
C217 C216 1.398 . S
C217 H239 0.929 . S
C218 O228 1.271 . S
C218 O229 1.251 . S
C219 O230 1.252 . S
C219 O231 1.272 . S
O220 Sm200 2.543 . S
O220 C202 1.261 . S
O221 Sm200 2.450 . S
O221 C202 1.242 . S
O222 Sm200 2.681 . S
O222 Sm201 2.386 . S
O222 C209 1.271 . S
O223 Sm200 2.464 . S
O223 C209 1.251 . S
O224 Sm200 2.396 . S
O224 C210 1.252 . S
O225 Sm201 2.408 . S
O225 C210 1.272 . S
O226 Sm201 2.543 . S
O226 C211 1.261 . S
O227 Sm201 2.450 . S
O227 C211 1.242 . S
O228 Sm200 2.386 . S
O228 Sm201 2.681 . S
O228 C218 1.271 . S
O229 Sm201 2.464 . S
O229 C218 1.251 . S
O230 Sm201 2.396 . S
O230 C219 1.252 . S
O231 Sm200 2.408 . S
O231 C219 1.272 . S
H232 C204 0.930 . S
H233 C205 0.929 . S
H234 C207 0.930 . S
H235 C208 0.929 . S
H236 C213 0.930 . S
H237 C214 0.929 . S
H238 C216 0.930 . S
H239 C217 0.929 . S
Sm240 C242 2.846 . S
Sm240 O260 2.543 . S
Sm240 O261 2.450 . S
Sm240 O262 2.681 . S
Sm240 O263 2.464 . S
Sm240 O264 2.396 . S
Sm240 O268 2.386 . S
Sm240 O271 2.408 . S
Sm241 C251 2.846 . S
Sm241 O262 2.386 . S
Sm241 O265 2.408 . S
Sm241 O266 2.543 . S
Sm241 O267 2.450 . S
Sm241 O268 2.681 . S
Sm241 O269 2.464 . S
Sm241 O270 2.396 . S
C242 Sm240 2.846 . S
C242 C243 1.506 . S
C242 O260 1.261 . S
C242 O261 1.242 . S
C243 C242 1.506 . S
C243 C244 1.358 . S
C243 C248 1.382 . S
C244 C243 1.358 . S
C244 C245 1.385 . S
C244 H272 0.930 . S
C245 C244 1.385 . S
C245 C246 1.395 . S
C245 H273 0.929 . S
C246 C245 1.395 . S
C246 C247 1.335 . S
C247 C246 1.335 . S
C247 C248 1.398 . S
C247 H274 0.930 . S
C248 C243 1.382 . S
C248 C247 1.398 . S
C248 H275 0.929 . S
C249 O262 1.271 . S
C249 O263 1.251 . S
C250 O264 1.252 . S
C250 O265 1.272 . S
C251 Sm241 2.846 . S
C251 C252 1.506 . S
C251 O266 1.261 . S
C251 O267 1.242 . S
C252 C251 1.506 . S
C252 C253 1.358 . S
C252 C257 1.382 . S
C253 C252 1.358 . S
C253 C254 1.385 . S
C253 H276 0.930 . S
C254 C253 1.385 . S
C254 C255 1.395 . S
C254 H277 0.929 . S
C255 C254 1.395 . S
C255 C256 1.335 . S
C256 C255 1.335 . S
C256 C257 1.398 . S
C256 H278 0.930 . S
C257 C252 1.382 . S
C257 C256 1.398 . S
C257 H279 0.929 . S
C258 O268 1.271 . S
C258 O269 1.251 . S
C259 O270 1.252 . S
C259 O271 1.272 . S
O260 Sm240 2.543 . S
O260 C242 1.261 . S
O261 Sm240 2.450 . S
O261 C242 1.242 . S
O262 Sm240 2.681 . S
O262 Sm241 2.386 . S
O262 C249 1.271 . S
O263 Sm240 2.464 . S
O263 C249 1.251 . S
O264 Sm240 2.396 . S
O264 C250 1.252 . S
O265 Sm241 2.408 . S
O265 C250 1.272 . S
O266 Sm241 2.543 . S
O266 C251 1.261 . S
O267 Sm241 2.450 . S
O267 C251 1.242 . S
O268 Sm240 2.386 . S
O268 Sm241 2.681 . S
O268 C258 1.271 . S
O269 Sm241 2.464 . S
O269 C258 1.251 . S
O270 Sm241 2.396 . S
O270 C259 1.252 . S
O271 Sm240 2.408 . S
O271 C259 1.272 . S
H272 C244 0.930 . S
H273 C245 0.929 . S
H274 C247 0.930 . S
H275 C248 0.929 . S
H276 C253 0.930 . S
H277 C254 0.929 . S
H278 C256 0.930 . S
H279 C257 0.929 . S
Sm280 C282 2.846 . S
Sm280 O300 2.543 . S
Sm280 O301 2.450 . S
Sm280 O302 2.681 . S
Sm280 O303 2.464 . S
Sm280 O304 2.396 . S
Sm280 O308 2.386 . S
Sm280 O311 2.408 . S
Sm281 C291 2.846 . S
Sm281 O302 2.386 . S
Sm281 O305 2.408 . S
Sm281 O306 2.543 . S
Sm281 O307 2.450 . S
Sm281 O308 2.681 . S
Sm281 O309 2.464 . S
Sm281 O310 2.396 . S
C282 Sm280 2.846 . S
C282 C283 1.506 . S
C282 O300 1.261 . S
C282 O301 1.242 . S
C283 C282 1.506 . S
C283 C284 1.358 . S
C283 C288 1.382 . S
C284 C283 1.358 . S
C284 C285 1.385 . S
C284 H312 0.930 . S
C285 C284 1.385 . S
C285 C286 1.395 . S
C285 H313 0.929 . S
C286 C285 1.395 . S
C286 C287 1.335 . S
C287 C286 1.335 . S
C287 C288 1.398 . S
C287 H314 0.930 . S
C288 C283 1.382 . S
C288 C287 1.398 . S
C288 H315 0.929 . S
C289 O302 1.271 . S
C289 O303 1.251 . S
C290 O304 1.252 . S
C290 O305 1.272 . S
C291 Sm281 2.846 . S
C291 C292 1.506 . S
C291 O306 1.261 . S
C291 O307 1.242 . S
C292 C291 1.506 . S
C292 C293 1.358 . S
C292 C297 1.382 . S
C293 C292 1.358 . S
C293 C294 1.385 . S
C293 H316 0.930 . S
C294 C293 1.385 . S
C294 C295 1.395 . S
C294 H317 0.929 . S
C295 C294 1.395 . S
C295 C296 1.335 . S
C296 C295 1.335 . S
C296 C297 1.398 . S
C296 H318 0.930 . S
C297 C292 1.382 . S
C297 C296 1.398 . S
C297 H319 0.929 . S
C298 O308 1.271 . S
C298 O309 1.251 . S
C299 O310 1.252 . S
C299 O311 1.272 . S
O300 Sm280 2.543 . S
O300 C282 1.261 . S
O301 Sm280 2.450 . S
O301 C282 1.242 . S
O302 Sm280 2.681 . S
O302 Sm281 2.386 . S
O302 C289 1.271 . S
O303 Sm280 2.464 . S
O303 C289 1.251 . S
O304 Sm280 2.396 . S
O304 C290 1.252 . S
O305 Sm281 2.408 . S
O305 C290 1.272 . S
O306 Sm281 2.543 . S
O306 C291 1.261 . S
O307 Sm281 2.450 . S
O307 C291 1.242 . S
O308 Sm280 2.386 . S
O308 Sm281 2.681 . S
O308 C298 1.271 . S
O309 Sm281 2.464 . S
O309 C298 1.251 . S
O310 Sm281 2.396 . S
O310 C299 1.252 . S
O311 Sm280 2.408 . S
O311 C299 1.272 . S
H312 C284 0.930 . S
H313 C285 0.929 . S
H314 C287 0.930 . S
H315 C288 0.929 . S
H316 C293 0.930 . S
H317 C294 0.929 . S
H318 C296 0.930 . S
H319 C297 0.929 . S
Sm320 C322 2.846 . S
Sm320 O340 2.543 . S
Sm320 O341 2.450 . S
Sm320 O342 2.681 . S
Sm320 O343 2.464 . S
Sm320 O344 2.396 . S
Sm320 O348 2.386 . S
Sm320 O351 2.408 . S
Sm321 C331 2.846 . S
Sm321 O342 2.386 . S
Sm321 O345 2.408 . S
Sm321 O346 2.543 . S
Sm321 O347 2.450 . S
Sm321 O348 2.681 . S
Sm321 O349 2.464 . S
Sm321 O350 2.396 . S
C322 Sm320 2.846 . S
C322 C323 1.506 1_554 S
C322 O340 1.261 . S
C322 O341 1.242 . S
C323 C322 1.506 1_556 S
C323 C324 1.358 . S
C323 C328 1.382 . S
C324 C323 1.358 . S
C324 C325 1.385 . S
C324 H352 0.930 . S
C325 C324 1.385 . S
C325 C326 1.395 . S
C325 H353 0.929 . S
C326 C325 1.395 . S
C326 C327 1.335 . S
C327 C326 1.335 . S
C327 C328 1.398 . S
C327 H354 0.930 . S
C328 C323 1.382 . S
C328 C327 1.398 . S
C328 H355 0.929 . S
C329 O342 1.271 . S
C329 O343 1.251 . S
C330 O344 1.252 . S
C330 O345 1.272 . S
C331 Sm321 2.846 . S
C331 C332 1.506 . S
C331 O346 1.261 . S
C331 O347 1.242 . S
C332 C331 1.506 . S
C332 C333 1.358 . S
C332 C337 1.382 . S
C333 C332 1.358 . S
C333 C334 1.385 . S
C333 H356 0.930 . S
C334 C333 1.385 . S
C334 C335 1.395 . S
C334 H357 0.929 . S
C335 C334 1.395 . S
C335 C336 1.335 . S
C336 C335 1.335 . S
C336 C337 1.398 . S
C336 H358 0.930 . S
C337 C332 1.382 . S
C337 C336 1.398 . S
C337 H359 0.929 . S
C338 O348 1.271 . S
C338 O349 1.251 . S
C339 O350 1.252 . S
C339 O351 1.272 . S
O340 Sm320 2.543 . S
O340 C322 1.261 . S
O341 Sm320 2.450 . S
O341 C322 1.242 . S
O342 Sm320 2.681 . S
O342 Sm321 2.386 . S
O342 C329 1.271 . S
O343 Sm320 2.464 . S
O343 C329 1.251 . S
O344 Sm320 2.396 . S
O344 C330 1.252 . S
O345 Sm321 2.408 . S
O345 C330 1.272 . S
O346 Sm321 2.543 . S
O346 C331 1.261 . S
O347 Sm321 2.450 . S
O347 C331 1.242 . S
O348 Sm320 2.386 . S
O348 Sm321 2.681 . S
O348 C338 1.271 . S
O349 Sm321 2.464 . S
O349 C338 1.251 . S
O350 Sm321 2.396 . S
O350 C339 1.252 . S
O351 Sm320 2.408 . S
O351 C339 1.272 . S
H352 C324 0.930 . S
H353 C325 0.929 . S
H354 C327 0.930 . S
H355 C328 0.929 . S
H356 C333 0.930 . S
H357 C334 0.929 . S
H358 C336 0.930 . S
H359 C337 0.929 . S
Sm360 C362 2.846 . S
Sm360 O380 2.543 . S
Sm360 O381 2.450 . S
Sm360 O382 2.681 . S
Sm360 O383 2.464 . S
Sm360 O384 2.396 . S
Sm360 O388 2.386 . S
Sm360 O391 2.408 . S
Sm361 C371 2.846 . S
Sm361 O382 2.386 . S
Sm361 O385 2.408 . S
Sm361 O386 2.543 . S
Sm361 O387 2.450 . S
Sm361 O388 2.681 . S
Sm361 O389 2.464 . S
Sm361 O390 2.396 . S
C362 Sm360 2.846 . S
C362 C363 1.506 . S
C362 O380 1.261 . S
C362 O381 1.242 . S
C363 C362 1.506 . S
C363 C364 1.358 . S
C363 C368 1.382 . S
C364 C363 1.358 . S
C364 C365 1.385 . S
C364 H392 0.930 . S
C365 C364 1.385 . S
C365 C366 1.395 . S
C365 H393 0.929 . S
C366 C365 1.395 . S
C366 C367 1.335 . S
C367 C366 1.335 . S
C367 C368 1.398 . S
C367 H394 0.930 . S
C368 C363 1.382 . S
C368 C367 1.398 . S
C368 H395 0.929 . S
C369 O382 1.271 . S
C369 O383 1.251 . S
C370 O384 1.252 . S
C370 O385 1.272 . S
C371 Sm361 2.846 . S
C371 C372 1.506 . S
C371 O386 1.261 . S
C371 O387 1.242 . S
C372 C371 1.506 . S
C372 C373 1.358 . S
C372 C377 1.382 . S
C373 C372 1.358 . S
C373 C374 1.385 . S
C373 H396 0.930 . S
C374 C373 1.385 . S
C374 C375 1.395 . S
C374 H397 0.929 . S
C375 C374 1.395 . S
C375 C376 1.335 . S
C376 C375 1.335 . S
C376 C377 1.398 . S
C376 H398 0.930 . S
C377 C372 1.382 . S
C377 C376 1.398 . S
C377 H399 0.929 . S
C378 O388 1.271 . S
C378 O389 1.251 . S
C379 O390 1.252 . S
C379 O391 1.272 . S
O380 Sm360 2.543 . S
O380 C362 1.261 . S
O381 Sm360 2.450 . S
O381 C362 1.242 . S
O382 Sm360 2.681 . S
O382 Sm361 2.386 . S
O382 C369 1.271 . S
O383 Sm360 2.464 . S
O383 C369 1.251 . S
O384 Sm360 2.396 . S
O384 C370 1.252 . S
O385 Sm361 2.408 . S
O385 C370 1.272 . S
O386 Sm361 2.543 . S
O386 C371 1.261 . S
O387 Sm361 2.450 . S
O387 C371 1.242 . S
O388 Sm360 2.386 . S
O388 Sm361 2.681 . S
O388 C378 1.271 . S
O389 Sm361 2.464 . S
O389 C378 1.251 . S
O390 Sm361 2.396 . S
O390 C379 1.252 . S
O391 Sm360 2.408 . S
O391 C379 1.272 . S
H392 C364 0.930 . S
H393 C365 0.929 . S
H394 C367 0.930 . S
H395 C368 0.929 . S
H396 C373 0.930 . S
H397 C374 0.929 . S
H398 C376 0.930 . S
H399 C377 0.929 . S
Sm400 C402 2.846 . S
Sm400 O420 2.543 . S
Sm400 O421 2.450 . S
Sm400 O422 2.681 . S
Sm400 O423 2.464 . S
Sm400 O424 2.396 . S
Sm400 O428 2.386 . S
Sm400 O431 2.408 . S
Sm401 C411 2.846 . S
Sm401 O422 2.386 . S
Sm401 O425 2.408 . S
Sm401 O426 2.543 . S
Sm401 O427 2.450 . S
Sm401 O428 2.681 . S
Sm401 O429 2.464 . S
Sm401 O430 2.396 . S
C402 Sm400 2.846 . S
C402 C403 1.506 . S
C402 O420 1.261 . S
C402 O421 1.242 . S
C403 C402 1.506 . S
C403 C404 1.358 . S
C403 C408 1.382 . S
C404 C403 1.358 . S
C404 C405 1.385 . S
C404 H432 0.930 . S
C405 C404 1.385 . S
C405 C406 1.395 . S
C405 H433 0.929 . S
C406 C405 1.395 . S
C406 C407 1.335 . S
C407 C406 1.335 . S
C407 C408 1.398 . S
C407 H434 0.930 . S
C408 C403 1.382 . S
C408 C407 1.398 . S
C408 H435 0.929 . S
C409 O422 1.271 . S
C409 O423 1.251 . S
C410 O424 1.252 . S
C410 O425 1.272 . S
C411 Sm401 2.846 . S
C411 C412 1.506 . S
C411 O426 1.261 . S
C411 O427 1.242 . S
C412 C411 1.506 . S
C412 C413 1.358 . S
C412 C417 1.382 . S
C413 C412 1.358 . S
C413 C414 1.385 . S
C413 H436 0.930 . S
C414 C413 1.385 . S
C414 C415 1.395 . S
C414 H437 0.929 . S
C415 C414 1.395 . S
C415 C416 1.335 . S
C416 C415 1.335 . S
C416 C417 1.398 . S
C416 H438 0.930 . S
C417 C412 1.382 . S
C417 C416 1.398 . S
C417 H439 0.929 . S
C418 O428 1.271 . S
C418 O429 1.251 . S
C419 O430 1.252 . S
C419 O431 1.272 . S
O420 Sm400 2.543 . S
O420 C402 1.261 . S
O421 Sm400 2.450 . S
O421 C402 1.242 . S
O422 Sm400 2.681 . S
O422 Sm401 2.386 . S
O422 C409 1.271 . S
O423 Sm400 2.464 . S
O423 C409 1.251 . S
O424 Sm400 2.396 . S
O424 C410 1.252 . S
O425 Sm401 2.408 . S
O425 C410 1.272 . S
O426 Sm401 2.543 . S
O426 C411 1.261 . S
O427 Sm401 2.450 . S
O427 C411 1.242 . S
O428 Sm400 2.386 . S
O428 Sm401 2.681 . S
O428 C418 1.271 . S
O429 Sm401 2.464 . S
O429 C418 1.251 . S
O430 Sm401 2.396 . S
O430 C419 1.252 . S
O431 Sm400 2.408 . S
O431 C419 1.272 . S
H432 C404 0.930 . S
H433 C405 0.929 . S
H434 C407 0.930 . S
H435 C408 0.929 . S
H436 C413 0.930 . S
H437 C414 0.929 . S
H438 C416 0.930 . S
H439 C417 0.929 . S
Sm440 C442 2.846 . S
Sm440 O460 2.543 . S
Sm440 O461 2.450 . S
Sm440 O462 2.681 . S
Sm440 O463 2.464 . S
Sm440 O464 2.396 . S
Sm440 O468 2.386 . S
Sm440 O471 2.408 . S
Sm441 C451 2.846 . S
Sm441 O462 2.386 . S
Sm441 O465 2.408 . S
Sm441 O466 2.543 . S
Sm441 O467 2.450 . S
Sm441 O468 2.681 . S
Sm441 O469 2.464 . S
Sm441 O470 2.396 . S
C442 Sm440 2.846 . S
C442 C443 1.506 1_554 S
C442 O460 1.261 . S
C442 O461 1.242 . S
C443 C442 1.506 1_556 S
C443 C444 1.358 . S
C443 C448 1.382 . S
C444 C443 1.358 . S
C444 C445 1.385 . S
C444 H472 0.930 . S
C445 C444 1.385 . S
C445 C446 1.395 . S
C445 H473 0.929 . S
C446 C445 1.395 . S
C446 C447 1.335 . S
C447 C446 1.335 . S
C447 C448 1.398 . S
C447 H474 0.930 . S
C448 C443 1.382 . S
C448 C447 1.398 . S
C448 H475 0.929 . S
C449 O462 1.271 . S
C449 O463 1.251 . S
C450 O464 1.252 . S
C450 O465 1.272 . S
C451 Sm441 2.846 . S
C451 C452 1.506 . S
C451 O466 1.261 . S
C451 O467 1.242 . S
C452 C451 1.506 . S
C452 C453 1.358 . S
C452 C457 1.382 . S
C453 C452 1.358 . S
C453 C454 1.385 . S
C453 H476 0.930 . S
C454 C453 1.385 . S
C454 C455 1.395 . S
C454 H477 0.929 . S
C455 C454 1.395 . S
C455 C456 1.335 . S
C456 C455 1.335 . S
C456 C457 1.398 . S
C456 H478 0.930 . S
C457 C452 1.382 . S
C457 C456 1.398 . S
C457 H479 0.929 . S
C458 O468 1.271 . S
C458 O469 1.251 . S
C459 O470 1.252 . S
C459 O471 1.272 . S
O460 Sm440 2.543 . S
O460 C442 1.261 . S
O461 Sm440 2.450 . S
O461 C442 1.242 . S
O462 Sm440 2.681 . S
O462 Sm441 2.386 . S
O462 C449 1.271 . S
O463 Sm440 2.464 . S
O463 C449 1.251 . S
O464 Sm440 2.396 . S
O464 C450 1.252 . S
O465 Sm441 2.408 . S
O465 C450 1.272 . S
O466 Sm441 2.543 . S
O466 C451 1.261 . S
O467 Sm441 2.450 . S
O467 C451 1.242 . S
O468 Sm440 2.386 . S
O468 Sm441 2.681 . S
O468 C458 1.271 . S
O469 Sm441 2.464 . S
O469 C458 1.251 . S
O470 Sm441 2.396 . S
O470 C459 1.252 . S
O471 Sm440 2.408 . S
O471 C459 1.272 . S
H472 C444 0.930 . S
H473 C445 0.929 . S
H474 C447 0.930 . S
H475 C448 0.929 . S
H476 C453 0.930 . S
H477 C454 0.929 . S
H478 C456 0.930 . S
H479 C457 0.929 . S
H480 C488 0.929 . S
H481 C490 0.930 . S
H482 C492 0.930 . S
H483 C495 0.929 . S
H484 C498 0.930 . S
H485 C500 0.960 . S
H486 C500 0.960 . S
H487 C500 0.960 . S
C488 H480 0.929 . S
C488 C489 1.377 . S
C488 C490 1.384 . S
C489 C488 1.377 . S
C489 C495 1.390 . S
C490 H481 0.930 . S
C490 C488 1.384 . S
C490 C491 1.372 . S
C491 C490 1.372 . S
C491 C492 1.400 . S
C491 C496 1.490 . S
C492 H482 0.930 . S
C492 C491 1.400 . S
C492 C495 1.386 . S
H493 C509 0.930 . S
H494 C510 0.931 . S
C495 H483 0.929 . S
C495 C489 1.390 . S
C495 C492 1.386 . S
C496 C491 1.490 . S
C496 C498 1.395 . S
C496 C499 1.403 . S
H497 C503 0.930 . S
C498 H484 0.930 . S
C498 C496 1.395 . S
C498 C501 1.403 . S
C499 C496 1.403 . S
C499 C500 1.524 . S
C499 C503 1.400 . S
C500 H485 0.960 . S
C500 H486 0.960 . S
C500 H487 0.960 . S
C500 C499 1.524 . S
C501 C498 1.403 . S
C501 C502 1.392 . S
C501 C505 1.495 . S
C502 C501 1.392 . S
C502 C503 1.385 . S
C502 C504 1.478 . S
C503 H497 0.930 . S
C503 C499 1.400 . S
C503 C502 1.385 . S
C504 C502 1.478 . S
C504 C506 1.381 . S
C504 C510 1.383 . S
C505 C501 1.495 . S
C505 H511 0.959 . S
C505 H512 0.961 . S
C505 H513 0.960 . S
C506 C504 1.381 . S
C506 C507 1.394 . S
C506 H514 0.930 . S
C507 C506 1.394 . S
C507 C508 1.383 . S
C507 H515 0.929 . S
C508 C507 1.383 . S
C508 C509 1.377 . S
C509 H493 0.930 . S
C509 C508 1.377 . S
C509 C510 1.379 . S
C510 H494 0.931 . S
C510 C504 1.383 . S
C510 C509 1.379 . S
H511 C505 0.959 . S
H512 C505 0.961 . S
H513 C505 0.960 . S
H514 C506 0.930 . S
H515 C507 0.929 . S
H516 C524 0.929 . S
H517 C526 0.930 . S
H518 C528 0.930 . S
H519 C531 0.929 . S
H520 C534 0.930 . S
H521 C536 0.960 . S
H522 C536 0.960 . S
H523 C536 0.960 . S
C524 H516 0.929 . S
C524 C525 1.377 . S
C524 C526 1.384 . S
C525 C524 1.377 . S
C525 C531 1.390 . S
C526 H517 0.930 . S
C526 C524 1.384 . S
C526 C527 1.372 . S
C527 C526 1.372 . S
C527 C528 1.400 . S
C527 C532 1.490 . S
C528 H518 0.930 . S
C528 C527 1.400 . S
C528 C531 1.386 . S
H529 C545 0.930 . S
H530 C546 0.931 . S
C531 H519 0.929 . S
C531 C525 1.390 . S
C531 C528 1.386 . S
C532 C527 1.490 . S
C532 C534 1.395 . S
C532 C535 1.403 . S
H533 C539 0.930 . S
C534 H520 0.930 . S
C534 C532 1.395 . S
C534 C537 1.403 . S
C535 C532 1.403 . S
C535 C536 1.524 . S
C535 C539 1.400 . S
C536 H521 0.960 . S
C536 H522 0.960 . S
C536 H523 0.960 . S
C536 C535 1.524 . S
C537 C534 1.403 . S
C537 C538 1.392 . S
C537 C541 1.495 . S
C538 C537 1.392 . S
C538 C539 1.385 . S
C538 C540 1.478 . S
C539 H533 0.930 . S
C539 C535 1.400 . S
C539 C538 1.385 . S
C540 C538 1.478 . S
C540 C542 1.381 . S
C540 C546 1.383 . S
C541 C537 1.495 . S
C541 H547 0.959 . S
C541 H548 0.961 . S
C541 H549 0.960 . S
C542 C540 1.381 . S
C542 C543 1.394 . S
C542 H550 0.930 . S
C543 C542 1.394 . S
C543 C544 1.383 . S
C543 H551 0.929 . S
C544 C543 1.383 . S
C544 C545 1.377 . S
C545 H529 0.930 . S
C545 C544 1.377 . S
C545 C546 1.379 . S
C546 H530 0.931 . S
C546 C540 1.383 . S
C546 C545 1.379 . S
H547 C541 0.959 . S
H548 C541 0.961 . S
H549 C541 0.960 . S
H550 C542 0.930 . S
H551 C543 0.929 . S
H552 C560 0.929 . S
H553 C562 0.930 . S
H554 C564 0.930 . S
H555 C567 0.929 . S
H556 C570 0.930 . S
H557 C572 0.960 . S
H558 C572 0.960 . S
H559 C572 0.960 . S
C560 H552 0.929 . S
C560 C561 1.377 . S
C560 C562 1.384 . S
C561 C560 1.377 . S
C561 C567 1.390 . S
C562 H553 0.930 . S
C562 C560 1.384 . S
C562 C563 1.372 . S
C563 C562 1.372 . S
C563 C564 1.400 . S
C563 C568 1.490 . S
C564 H554 0.930 . S
C564 C563 1.400 . S
C564 C567 1.386 . S
H565 C581 0.930 . S
H566 C582 0.931 . S
C567 H555 0.929 . S
C567 C561 1.390 . S
C567 C564 1.386 . S
C568 C563 1.490 . S
C568 C570 1.395 . S
C568 C571 1.403 . S
H569 C575 0.930 . S
C570 H556 0.930 . S
C570 C568 1.395 . S
C570 C573 1.403 . S
C571 C568 1.403 . S
C571 C572 1.524 . S
C571 C575 1.400 . S
C572 H557 0.960 . S
C572 H558 0.960 . S
C572 H559 0.960 . S
C572 C571 1.524 . S
C573 C570 1.403 . S
C573 C574 1.392 . S
C573 C577 1.495 . S
C574 C573 1.392 . S
C574 C575 1.385 . S
C574 C576 1.478 . S
C575 H569 0.930 . S
C575 C571 1.400 . S
C575 C574 1.385 . S
C576 C574 1.478 . S
C576 C578 1.381 . S
C576 C582 1.383 . S
C577 C573 1.495 . S
C577 H583 0.959 . S
C577 H584 0.961 . S
C577 H585 0.960 . S
C578 C576 1.381 . S
C578 C579 1.394 . S
C578 H586 0.930 . S
C579 C578 1.394 . S
C579 C580 1.383 . S
C579 H587 0.929 . S
C580 C579 1.383 . S
C580 C581 1.377 . S
C581 H565 0.930 . S
C581 C580 1.377 . S
C581 C582 1.379 . S
C582 H566 0.931 . S
C582 C576 1.383 . S
C582 C581 1.379 . S
H583 C577 0.959 . S
H584 C577 0.961 . S
H585 C577 0.960 . S
H586 C578 0.930 . S
H587 C579 0.929 . S
H588 C596 0.929 . S
H589 C598 0.930 . S
H590 C600 0.930 . S
H591 C603 0.929 . S
H592 C606 0.930 . S
H593 C608 0.960 . S
H594 C608 0.960 . S
H595 C608 0.960 . S
C596 H588 0.929 . S
C596 C597 1.377 . S
C596 C598 1.384 . S
C597 C596 1.377 . S
C597 C603 1.390 . S
C598 H589 0.930 . S
C598 C596 1.384 . S
C598 C599 1.372 . S
C599 C598 1.372 . S
C599 C600 1.400 . S
C599 C604 1.490 . S
C600 H590 0.930 . S
C600 C599 1.400 . S
C600 C603 1.386 . S
H601 C617 0.930 . S
H602 C618 0.931 . S
C603 H591 0.929 . S
C603 C597 1.390 . S
C603 C600 1.386 . S
C604 C599 1.490 . S
C604 C606 1.395 . S
C604 C607 1.403 . S
H605 C611 0.930 . S
C606 H592 0.930 . S
C606 C604 1.395 . S
C606 C609 1.403 . S
C607 C604 1.403 . S
C607 C608 1.524 . S
C607 C611 1.400 . S
C608 H593 0.960 . S
C608 H594 0.960 . S
C608 H595 0.960 . S
C608 C607 1.524 . S
C609 C606 1.403 . S
C609 C610 1.392 . S
C609 C613 1.495 . S
C610 C609 1.392 . S
C610 C611 1.385 . S
C610 C612 1.478 . S
C611 H605 0.930 . S
C611 C607 1.400 . S
C611 C610 1.385 . S
C612 C610 1.478 . S
C612 C614 1.381 . S
C612 C618 1.383 . S
C613 C609 1.495 . S
C613 H619 0.959 . S
C613 H620 0.961 . S
C613 H621 0.960 . S
C614 C612 1.381 . S
C614 C615 1.394 . S
C614 H622 0.930 . S
C615 C614 1.394 . S
C615 C616 1.383 . S
C615 H623 0.929 . S
C616 C615 1.383 . S
C616 C617 1.377 . S
C617 H601 0.930 . S
C617 C616 1.377 . S
C617 C618 1.379 . S
C618 H602 0.931 . S
C618 C612 1.383 . S
C618 C617 1.379 . S
H619 C613 0.959 . S
H620 C613 0.961 . S
H621 C613 0.960 . S
H622 C614 0.930 . S
H623 C615 0.929 . S
H624 C632 0.929 . S
H625 C634 0.930 . S
H626 C636 0.930 . S
H627 C639 0.929 . S
H628 C642 0.930 . S
H629 C644 0.960 . S
H630 C644 0.960 . S
H631 C644 0.960 . S
C632 H624 0.929 . S
C632 C633 1.377 . S
C632 C634 1.384 . S
C633 C632 1.377 . S
C633 C639 1.390 . S
C634 H625 0.930 . S
C634 C632 1.384 . S
C634 C635 1.372 . S
C635 C634 1.372 . S
C635 C636 1.400 . S
C635 C640 1.490 . S
C636 H626 0.930 . S
C636 C635 1.400 . S
C636 C639 1.386 . S
H637 C653 0.930 . S
H638 C654 0.931 . S
C639 H627 0.929 . S
C639 C633 1.390 . S
C639 C636 1.386 . S
C640 C635 1.490 . S
C640 C642 1.395 . S
C640 C643 1.403 . S
H641 C647 0.930 . S
C642 H628 0.930 . S
C642 C640 1.395 . S
C642 C645 1.403 . S
C643 C640 1.403 . S
C643 C644 1.524 . S
C643 C647 1.400 . S
C644 H629 0.960 . S
C644 H630 0.960 . S
C644 H631 0.960 . S
C644 C643 1.524 . S
C645 C642 1.403 . S
C645 C646 1.392 . S
C645 C649 1.495 . S
C646 C645 1.392 . S
C646 C647 1.385 . S
C646 C648 1.478 . S
C647 H641 0.930 . S
C647 C643 1.400 . S
C647 C646 1.385 . S
C648 C646 1.478 . S
C648 C650 1.381 . S
C648 C654 1.383 . S
C649 C645 1.495 . S
C649 H655 0.959 . S
C649 H656 0.961 . S
C649 H657 0.960 . S
C650 C648 1.381 . S
C650 C651 1.394 . S
C650 H658 0.930 . S
C651 C650 1.394 . S
C651 C652 1.383 . S
C651 H659 0.929 . S
C652 C651 1.383 . S
C652 C653 1.377 . S
C653 H637 0.930 . S
C653 C652 1.377 . S
C653 C654 1.379 . S
C654 H638 0.931 . S
C654 C648 1.383 . S
C654 C653 1.379 . S
H655 C649 0.959 . S
H656 C649 0.961 . S
H657 C649 0.960 . S
H658 C650 0.930 . S
H659 C651 0.929 . S
H660 C668 0.929 . S
H661 C670 0.930 . S
H662 C672 0.930 . S
H663 C675 0.929 . S
H664 C678 0.930 . S
H665 C680 0.960 . S
H666 C680 0.960 . S
H667 C680 0.960 . S
C668 H660 0.929 . S
C668 C669 1.377 . S
C668 C670 1.384 . S
C669 C668 1.377 . S
C669 C675 1.390 . S
C670 H661 0.930 . S
C670 C668 1.384 . S
C670 C671 1.372 . S
C671 C670 1.372 . S
C671 C672 1.400 . S
C671 C676 1.490 . S
C672 H662 0.930 . S
C672 C671 1.400 . S
C672 C675 1.386 . S
H673 C689 0.930 . S
H674 C690 0.931 . S
C675 H663 0.929 . S
C675 C669 1.390 . S
C675 C672 1.386 . S
C676 C671 1.490 . S
C676 C678 1.395 . S
C676 C679 1.403 . S
H677 C683 0.930 . S
C678 H664 0.930 . S
C678 C676 1.395 . S
C678 C681 1.403 . S
C679 C676 1.403 . S
C679 C680 1.524 . S
C679 C683 1.400 . S
C680 H665 0.960 . S
C680 H666 0.960 . S
C680 H667 0.960 . S
C680 C679 1.524 . S
C681 C678 1.403 . S
C681 C682 1.392 . S
C681 C685 1.495 . S
C682 C681 1.392 . S
C682 C683 1.385 . S
C682 C684 1.478 . S
C683 H677 0.930 . S
C683 C679 1.400 . S
C683 C682 1.385 . S
C684 C682 1.478 . S
C684 C686 1.381 . S
C684 C690 1.383 . S
C685 C681 1.495 . S
C685 H691 0.959 . S
C685 H692 0.961 . S
C685 H693 0.960 . S
C686 C684 1.381 . S
C686 C687 1.394 . S
C686 H694 0.930 . S
C687 C686 1.394 . S
C687 C688 1.383 . S
C687 H695 0.929 . S
C688 C687 1.383 . S
C688 C689 1.377 . S
C689 H673 0.930 . S
C689 C688 1.377 . S
C689 C690 1.379 . S
C690 H674 0.931 . S
C690 C684 1.383 . S
C690 C689 1.379 . S
H691 C685 0.959 . S
H692 C685 0.961 . S
H693 C685 0.960 . S
H694 C686 0.930 . S
H695 C687 0.929 . S
H696 C704 0.929 . S
H697 C706 0.930 . S
H698 C708 0.930 . S
H699 C711 0.929 . S
H700 C714 0.930 . S
H701 C716 0.960 . S
H702 C716 0.960 . S
H703 C716 0.960 1_556 S
C704 H696 0.929 . S
C704 C705 1.377 . S
C704 C706 1.384 . S
C705 C704 1.377 . S
C705 C711 1.390 . S
C706 H697 0.930 . S
C706 C704 1.384 . S
C706 C707 1.372 . S
C707 C706 1.372 . S
C707 C708 1.400 . S
C707 C712 1.490 . S
C708 H698 0.930 . S
C708 C707 1.400 . S
C708 C711 1.386 . S
H709 C725 0.930 . S
H710 C726 0.931 . S
C711 H699 0.929 . S
C711 C705 1.390 . S
C711 C708 1.386 . S
C712 C707 1.490 . S
C712 C714 1.395 . S
C712 C715 1.403 1_556 S
H713 C719 0.930 . S
C714 H700 0.930 . S
C714 C712 1.395 . S
C714 C717 1.403 . S
C715 C712 1.403 1_554 S
C715 C716 1.524 . S
C715 C719 1.400 . S
C716 H701 0.960 . S
C716 H702 0.960 . S
C716 H703 0.960 1_554 S
C716 C715 1.524 . S
C717 C714 1.403 . S
C717 C718 1.392 1_556 S
C717 C721 1.495 . S
C718 C717 1.392 1_554 S
C718 C719 1.385 . S
C718 C720 1.478 . S
C719 H713 0.930 . S
C719 C715 1.400 . S
C719 C718 1.385 . S
C720 C718 1.478 . S
C720 C722 1.381 . S
C720 C726 1.383 . S
C721 C717 1.495 . S
C721 H727 0.959 . S
C721 H728 0.961 . S
C721 H729 0.960 1_556 S
C722 C720 1.381 . S
C722 C723 1.394 . S
C722 H730 0.930 . S
C723 C722 1.394 . S
C723 C724 1.383 . S
C723 H731 0.929 . S
C724 C723 1.383 . S
C724 C725 1.377 . S
C725 H709 0.930 . S
C725 C724 1.377 . S
C725 C726 1.379 . S
C726 H710 0.931 . S
C726 C720 1.383 . S
C726 C725 1.379 . S
H727 C721 0.959 . S
H728 C721 0.961 . S
H729 C721 0.960 1_554 S
H730 C722 0.930 . S
H731 C723 0.929 . S
H732 C740 0.929 . S
H733 C742 0.930 . S
H734 C744 0.930 . S
H735 C747 0.929 . S
H736 C750 0.930 . S
H737 C752 0.960 . S
H738 C752 0.960 . S
H739 C752 0.960 . S
C740 H732 0.929 . S
C740 C741 1.377 . S
C740 C742 1.384 . S
C741 C740 1.377 . S
C741 C747 1.390 . S
C742 H733 0.930 . S
C742 C740 1.384 . S
C742 C743 1.372 . S
C743 C742 1.372 . S
C743 C744 1.400 . S
C743 C748 1.490 . S
C744 H734 0.930 . S
C744 C743 1.400 . S
C744 C747 1.386 . S
H745 C761 0.930 . S
H746 C762 0.931 . S
C747 H735 0.929 . S
C747 C741 1.390 . S
C747 C744 1.386 . S
C748 C743 1.490 . S
C748 C750 1.395 . S
C748 C751 1.403 . S
H749 C755 0.930 . S
C750 H736 0.930 . S
C750 C748 1.395 . S
C750 C753 1.403 . S
C751 C748 1.403 . S
C751 C752 1.524 . S
C751 C755 1.400 . S
C752 H737 0.960 . S
C752 H738 0.960 . S
C752 H739 0.960 . S
C752 C751 1.524 . S
C753 C750 1.403 . S
C753 C754 1.392 . S
C753 C757 1.495 . S
C754 C753 1.392 . S
C754 C755 1.385 . S
C754 C756 1.478 . S
C755 H749 0.930 . S
C755 C751 1.400 . S
C755 C754 1.385 . S
C756 C754 1.478 . S
C756 C758 1.381 . S
C756 C762 1.383 . S
C757 C753 1.495 . S
C757 H763 0.959 . S
C757 H764 0.961 . S
C757 H765 0.960 . S
C758 C756 1.381 . S
C758 C759 1.394 . S
C758 H766 0.930 . S
C759 C758 1.394 . S
C759 C760 1.383 . S
C759 H767 0.929 . S
C760 C759 1.383 . S
C760 C761 1.377 . S
C761 H745 0.930 . S
C761 C760 1.377 . S
C761 C762 1.379 . S
C762 H746 0.931 . S
C762 C756 1.383 . S
C762 C761 1.379 . S
H763 C757 0.959 . S
H764 C757 0.961 . S
H765 C757 0.960 . S
H766 C758 0.930 . S
H767 C759 0.929 . S
H768 C776 0.929 . S
H769 C778 0.930 . S
H770 C780 0.930 . S
H771 C783 0.929 . S
H772 C786 0.930 . S
H773 C788 0.960 . S
H774 C788 0.960 . S
H775 C788 0.960 . S
C776 H768 0.929 . S
C776 C777 1.377 . S
C776 C778 1.384 . S
C777 C776 1.377 . S
C777 C783 1.390 . S
C778 H769 0.930 . S
C778 C776 1.384 . S
C778 C779 1.372 . S
C779 C778 1.372 . S
C779 C780 1.400 . S
C779 C784 1.490 . S
C780 H770 0.930 . S
C780 C779 1.400 . S
C780 C783 1.386 . S
H781 C797 0.930 . S
H782 C798 0.931 . S
C783 H771 0.929 . S
C783 C777 1.390 . S
C783 C780 1.386 . S
C784 C779 1.490 . S
C784 C786 1.395 . S
C784 C787 1.403 . S
H785 C791 0.930 . S
C786 H772 0.930 . S
C786 C784 1.395 . S
C786 C789 1.403 . S
C787 C784 1.403 . S
C787 C788 1.524 . S
C787 C791 1.400 . S
C788 H773 0.960 . S
C788 H774 0.960 . S
C788 H775 0.960 . S
C788 C787 1.524 . S
C789 C786 1.403 . S
C789 C790 1.392 . S
C789 C793 1.495 . S
C790 C789 1.392 . S
C790 C791 1.385 . S
C790 C792 1.478 . S
C791 H785 0.930 . S
C791 C787 1.400 . S
C791 C790 1.385 . S
C792 C790 1.478 . S
C792 C794 1.381 . S
C792 C798 1.383 . S
C793 C789 1.495 . S
C793 H799 0.959 . S
C793 H800 0.961 . S
C793 H801 0.960 . S
C794 C792 1.381 . S
C794 C795 1.394 . S
C794 H802 0.930 . S
C795 C794 1.394 . S
C795 C796 1.383 . S
C795 H803 0.929 . S
C796 C795 1.383 . S
C796 C797 1.377 . S
C797 H781 0.930 . S
C797 C796 1.377 . S
C797 C798 1.379 . S
C798 H782 0.931 . S
C798 C792 1.383 . S
C798 C797 1.379 . S
H799 C793 0.959 . S
H800 C793 0.961 . S
H801 C793 0.960 . S
H802 C794 0.930 . S
H803 C795 0.929 . S
H804 C812 0.929 . S
H805 C814 0.930 . S
H806 C816 0.930 . S
H807 C819 0.929 . S
H808 C822 0.930 . S
H809 C824 0.960 . S
H810 C824 0.960 . S
H811 C824 0.960 . S
C812 H804 0.929 . S
C812 C813 1.377 . S
C812 C814 1.384 . S
C813 C812 1.377 . S
C813 C819 1.390 . S
C814 H805 0.930 . S
C814 C812 1.384 . S
C814 C815 1.372 . S
C815 C814 1.372 . S
C815 C816 1.400 . S
C815 C820 1.490 . S
C816 H806 0.930 . S
C816 C815 1.400 . S
C816 C819 1.386 . S
H817 C833 0.930 . S
H818 C834 0.931 . S
C819 H807 0.929 . S
C819 C813 1.390 . S
C819 C816 1.386 . S
C820 C815 1.490 . S
C820 C822 1.395 1_556 S
C820 C823 1.403 . S
H821 C827 0.930 . S
C822 H808 0.930 . S
C822 C820 1.395 1_554 S
C822 C825 1.403 . S
C823 C820 1.403 . S
C823 C824 1.524 . S
C823 C827 1.400 1_556 S
C824 H809 0.960 . S
C824 H810 0.960 . S
C824 H811 0.960 . S
C824 C823 1.524 . S
C825 C822 1.403 . S
C825 C826 1.392 . S
C825 C829 1.495 . S
C826 C825 1.392 . S
C826 C827 1.385 . S
C826 C828 1.478 . S
C827 H821 0.930 . S
C827 C823 1.400 1_554 S
C827 C826 1.385 . S
C828 C826 1.478 . S
C828 C830 1.381 . S
C828 C834 1.383 . S
C829 C825 1.495 . S
C829 H835 0.959 . S
C829 H836 0.961 . S
C829 H837 0.960 . S
C830 C828 1.381 . S
C830 C831 1.394 . S
C830 H838 0.930 . S
C831 C830 1.394 . S
C831 C832 1.383 . S
C831 H839 0.929 . S
C832 C831 1.383 . S
C832 C833 1.377 . S
C833 H817 0.930 . S
C833 C832 1.377 . S
C833 C834 1.379 . S
C834 H818 0.931 . S
C834 C828 1.383 . S
C834 C833 1.379 . S
H835 C829 0.959 . S
H836 C829 0.961 . S
H837 C829 0.960 . S
H838 C830 0.930 . S
H839 C831 0.929 . S
H840 C848 0.929 . S
H841 C850 0.930 . S
H842 C852 0.930 . S
H843 C855 0.929 . S
H844 C858 0.930 . S
H845 C860 0.960 . S
H846 C860 0.960 . S
H847 C860 0.960 . S
C848 H840 0.929 . S
C848 C849 1.377 . S
C848 C850 1.384 . S
C849 C848 1.377 . S
C849 C855 1.390 . S
C850 H841 0.930 . S
C850 C848 1.384 . S
C850 C851 1.372 . S
C851 C850 1.372 . S
C851 C852 1.400 . S
C851 C856 1.490 . S
C852 H842 0.930 . S
C852 C851 1.400 . S
C852 C855 1.386 . S
H853 C869 0.930 . S
H854 C870 0.931 . S
C855 H843 0.929 . S
C855 C849 1.390 . S
C855 C852 1.386 . S
C856 C851 1.490 . S
C856 C858 1.395 . S
C856 C859 1.403 . S
H857 C863 0.930 . S
C858 H844 0.930 . S
C858 C856 1.395 . S
C858 C861 1.403 . S
C859 C856 1.403 . S
C859 C860 1.524 . S
C859 C863 1.400 . S
C860 H845 0.960 . S
C860 H846 0.960 . S
C860 H847 0.960 . S
C860 C859 1.524 . S
C861 C858 1.403 . S
C861 C862 1.392 . S
C861 C865 1.495 . S
C862 C861 1.392 . S
C862 C863 1.385 . S
C862 C864 1.478 . S
C863 H857 0.930 . S
C863 C859 1.400 . S
C863 C862 1.385 . S
C864 C862 1.478 . S
C864 C866 1.381 . S
C864 C870 1.383 . S
C865 C861 1.495 . S
C865 H871 0.959 . S
C865 H872 0.961 . S
C865 H873 0.960 . S
C866 C864 1.381 . S
C866 C867 1.394 . S
C866 H874 0.930 . S
C867 C866 1.394 . S
C867 C868 1.383 . S
C867 H875 0.929 . S
C868 C867 1.383 . S
C868 C869 1.377 . S
C869 H853 0.930 . S
C869 C868 1.377 . S
C869 C870 1.379 . S
C870 H854 0.931 . S
C870 C864 1.383 . S
C870 C869 1.379 . S
H871 C865 0.959 . S
H872 C865 0.961 . S
H873 C865 0.960 . S
H874 C866 0.930 . S
H875 C867 0.929 . S
H876 C884 0.929 . S
H877 C886 0.930 . S
H878 C888 0.930 . S
H879 C891 0.929 . S
H880 C894 0.930 . S
H881 C896 0.960 . S
H882 C896 0.960 . S
H883 C896 0.960 . S
C884 H876 0.929 . S
C884 C885 1.377 . S
C884 C886 1.384 . S
C885 C884 1.377 . S
C885 C891 1.390 . S
C886 H877 0.930 . S
C886 C884 1.384 . S
C886 C887 1.372 . S
C887 C886 1.372 . S
C887 C888 1.400 . S
C887 C892 1.490 . S
C888 H878 0.930 . S
C888 C887 1.400 . S
C888 C891 1.386 . S
H889 C905 0.930 . S
H890 C906 0.931 . S
C891 H879 0.929 . S
C891 C885 1.390 . S
C891 C888 1.386 . S
C892 C887 1.490 . S
C892 C894 1.395 . S
C892 C895 1.403 . S
H893 C899 0.930 . S
C894 H880 0.930 . S
C894 C892 1.395 . S
C894 C897 1.403 . S
C895 C892 1.403 . S
C895 C896 1.524 . S
C895 C899 1.400 . S
C896 H881 0.960 . S
C896 H882 0.960 . S
C896 H883 0.960 . S
C896 C895 1.524 . S
C897 C894 1.403 . S
C897 C898 1.392 . S
C897 C901 1.495 . S
C898 C897 1.392 . S
C898 C899 1.385 . S
C898 C900 1.478 . S
C899 H893 0.930 . S
C899 C895 1.400 . S
C899 C898 1.385 . S
C900 C898 1.478 . S
C900 C902 1.381 . S
C900 C906 1.383 . S
C901 C897 1.495 . S
C901 H907 0.959 . S
C901 H908 0.961 . S
C901 H909 0.960 . S
C902 C900 1.381 . S
C902 C903 1.394 . S
C902 H910 0.930 . S
C903 C902 1.394 . S
C903 C904 1.383 . S
C903 H911 0.929 . S
C904 C903 1.383 . S
C904 C905 1.377 . S
C905 H889 0.930 . S
C905 C904 1.377 . S
C905 C906 1.379 . S
C906 H890 0.931 . S
C906 C900 1.383 . S
C906 C905 1.379 . S
H907 C901 0.959 . S
H908 C901 0.961 . S
H909 C901 0.960 . S
H910 C902 0.930 . S
H911 C903 0.929 . S
H912 C920 0.929 . S
H913 C922 0.930 . S
H914 C924 0.930 . S
H915 C927 0.929 . S
H916 C930 0.930 . S
H917 C932 0.960 . S
H918 C932 0.960 . S
H919 C932 0.960 . S
C920 H912 0.929 . S
C920 C921 1.377 . S
C920 C922 1.384 . S
C921 C920 1.377 . S
C921 C927 1.390 . S
C922 H913 0.930 . S
C922 C920 1.384 . S
C922 C923 1.372 . S
C923 C922 1.372 . S
C923 C924 1.400 . S
C923 C928 1.490 . S
C924 H914 0.930 . S
C924 C923 1.400 . S
C924 C927 1.386 . S
H925 C941 0.930 . S
H926 C942 0.931 . S
C927 H915 0.929 . S
C927 C921 1.390 . S
C927 C924 1.386 . S
C928 C923 1.490 . S
C928 C930 1.395 . S
C928 C931 1.403 1_565 S
H929 C935 0.930 . S
C930 H916 0.930 . S
C930 C928 1.395 . S
C930 C933 1.403 1_556 S
C931 C928 1.403 1_545 S
C931 C932 1.524 . S
C931 C935 1.400 1_556 S
C932 H917 0.960 . S
C932 H918 0.960 . S
C932 H919 0.960 . S
C932 C931 1.524 . S
C933 C930 1.403 1_554 S
C933 C934 1.392 1_565 S
C933 C937 1.495 . S
C934 C933 1.392 1_545 S
C934 C935 1.385 . S
C934 C936 1.478 . S
C935 H929 0.930 . S
C935 C931 1.400 1_554 S
C935 C934 1.385 . S
C936 C934 1.478 . S
C936 C938 1.381 . S
C936 C942 1.383 . S
C937 C933 1.495 . S
C937 H943 0.959 . S
C937 H944 0.961 . S
C937 H945 0.960 . S
C938 C936 1.381 . S
C938 C939 1.394 . S
C938 H946 0.930 . S
C939 C938 1.394 . S
C939 C940 1.383 . S
C939 H947 0.929 . S
C940 C939 1.383 . S
C940 C941 1.377 . S
C941 H925 0.930 . S
C941 C940 1.377 . S
C941 C942 1.379 . S
C942 H926 0.931 . S
C942 C936 1.383 . S
C942 C941 1.379 . S
H943 C937 0.959 . S
H944 C937 0.961 . S
H945 C937 0.960 . S
H946 C938 0.930 . S
H947 C939 0.929 . S
H948 C956 0.929 . S
H949 C958 0.930 . S
H950 C960 0.930 . S
H951 C963 0.929 . S
H952 C966 0.930 . S
H953 C968 0.960 . S
H954 C968 0.960 . S
H955 C968 0.960 . S
C956 H948 0.929 . S
C956 C957 1.377 . S
C956 C958 1.384 . S
C957 C956 1.377 . S
C957 C963 1.390 . S
C958 H949 0.930 . S
C958 C956 1.384 . S
C958 C959 1.372 . S
C959 C958 1.372 . S
C959 C960 1.400 . S
C959 C964 1.490 . S
C960 H950 0.930 . S
C960 C959 1.400 . S
C960 C963 1.386 . S
H961 C977 0.930 . S
H962 C978 0.931 . S
C963 H951 0.929 . S
C963 C957 1.390 . S
C963 C960 1.386 . S
C964 C959 1.490 . S
C964 C966 1.395 . S
C964 C967 1.403 . S
H965 C971 0.930 . S
C966 H952 0.930 . S
C966 C964 1.395 . S
C966 C969 1.403 . S
C967 C964 1.403 . S
C967 C968 1.524 . S
C967 C971 1.400 . S
C968 H953 0.960 . S
C968 H954 0.960 . S
C968 H955 0.960 . S
C968 C967 1.524 . S
C969 C966 1.403 . S
C969 C970 1.392 . S
C969 C973 1.495 . S
C970 C969 1.392 . S
C970 C971 1.385 . S
C970 C972 1.478 . S
C971 H965 0.930 . S
C971 C967 1.400 . S
C971 C970 1.385 . S
C972 C970 1.478 . S
C972 C974 1.381 . S
C972 C978 1.383 . S
C973 C969 1.495 . S
C973 H979 0.959 . S
C973 H980 0.961 . S
C973 H981 0.960 . S
C974 C972 1.381 . S
C974 C975 1.394 . S
C974 H982 0.930 . S
C975 C974 1.394 . S
C975 C976 1.383 . S
C975 H983 0.929 . S
C976 C975 1.383 . S
C976 C977 1.377 . S
C977 H961 0.930 . S
C977 C976 1.377 . S
C977 C978 1.379 . S
C978 H962 0.931 . S
C978 C972 1.383 . S
C978 C977 1.379 . S
H979 C973 0.959 . S
H980 C973 0.961 . S
H981 C973 0.960 . S
H982 C974 0.930 . S
H983 C975 0.929 . S
H984 C992 0.929 . S
H985 C994 0.930 . S
H986 C996 0.930 1_655 S
H987 C999 0.929 . S
H988 C1002 0.930 . S
H989 C1004 0.960 . S
H990 C1004 0.960 . S
H991 C1004 0.960 . S
C992 H984 0.929 . S
C992 C993 1.377 . S
C992 C994 1.384 . S
C993 C992 1.377 . S
C993 C999 1.390 . S
C994 H985 0.930 . S
C994 C992 1.384 . S
C994 C995 1.372 . S
C995 C994 1.372 . S
C995 C996 1.400 . S
C995 C1000 1.490 . S
C996 H986 0.930 1_455 S
C996 C995 1.400 . S
C996 C999 1.386 . S
H997 C1013 0.930 . S
H998 C1014 0.931 . S
C999 H987 0.929 . S
C999 C993 1.390 . S
C999 C996 1.386 . S
C1000 C995 1.490 . S
C1000 C1002 1.395 . S
C1000 C1003 1.403 1_455 S
H1001 C1007 0.930 . S
C1002 H988 0.930 . S
C1002 C1000 1.395 . S
C1002 C1005 1.403 . S
C1003 C1000 1.403 1_655 S
C1003 C1004 1.524 . S
C1003 C1007 1.400 . S
C1004 H989 0.960 . S
C1004 H990 0.960 . S
C1004 H991 0.960 . S
C1004 C1003 1.524 . S
C1005 C1002 1.403 . S
C1005 C1006 1.392 1_455 S
C1005 C1009 1.495 . S
C1006 C1005 1.392 1_655 S
C1006 C1007 1.385 . S
C1006 C1008 1.478 . S
C1007 H1001 0.930 . S
C1007 C1003 1.400 . S
C1007 C1006 1.385 . S
C1008 C1006 1.478 . S
C1008 C1010 1.381 . S
C1008 C1014 1.383 . S
C1009 C1005 1.495 . S
C1009 H1015 0.959 . S
C1009 H1016 0.961 . S
C1009 H1017 0.960 . S
C1010 C1008 1.381 . S
C1010 C1011 1.394 . S
C1010 H1018 0.930 1_655 S
C1011 C1010 1.394 . S
C1011 C1012 1.383 . S
C1011 H1019 0.929 . S
C1012 C1011 1.383 . S
C1012 C1013 1.377 . S
C1013 H997 0.930 . S
C1013 C1012 1.377 . S
C1013 C1014 1.379 . S
C1014 H998 0.931 . S
C1014 C1008 1.383 . S
C1014 C1013 1.379 . S
H1015 C1009 0.959 . S
H1016 C1009 0.961 . S
H1017 C1009 0.960 . S
H1018 C1010 0.930 1_455 S
H1019 C1011 0.929 . S
H1020 C1028 0.929 . S
H1021 C1030 0.930 . S
H1022 C1032 0.930 . S
H1023 C1035 0.929 . S
H1024 C1038 0.930 . S
H1025 C1040 0.960 . S
H1026 C1040 0.960 . S
H1027 C1040 0.960 . S
C1028 H1020 0.929 . S
C1028 C1029 1.377 . S
C1028 C1030 1.384 . S
C1029 C1028 1.377 . S
C1029 C1035 1.390 . S
C1030 H1021 0.930 . S
C1030 C1028 1.384 . S
C1030 C1031 1.372 . S
C1031 C1030 1.372 . S
C1031 C1032 1.400 . S
C1031 C1036 1.490 . S
C1032 H1022 0.930 . S
C1032 C1031 1.400 . S
C1032 C1035 1.386 . S
H1033 C1049 0.930 . S
H1034 C1050 0.931 . S
C1035 H1023 0.929 . S
C1035 C1029 1.390 . S
C1035 C1032 1.386 . S
C1036 C1031 1.490 . S
C1036 C1038 1.395 . S
C1036 C1039 1.403 1_565 S
H1037 C1043 0.930 . S
C1038 H1024 0.930 . S
C1038 C1036 1.395 . S
C1038 C1041 1.403 1_554 S
C1039 C1036 1.403 1_545 S
C1039 C1040 1.524 . S
C1039 C1043 1.400 1_554 S
C1040 H1025 0.960 . S
C1040 H1026 0.960 . S
C1040 H1027 0.960 . S
C1040 C1039 1.524 . S
C1041 C1038 1.403 1_556 S
C1041 C1042 1.392 1_565 S
C1041 C1045 1.495 . S
C1042 C1041 1.392 1_545 S
C1042 C1043 1.385 . S
C1042 C1044 1.478 . S
C1043 H1037 0.930 . S
C1043 C1039 1.400 1_556 S
C1043 C1042 1.385 . S
C1044 C1042 1.478 . S
C1044 C1046 1.381 . S
C1044 C1050 1.383 . S
C1045 C1041 1.495 . S
C1045 H1051 0.959 . S
C1045 H1052 0.961 . S
C1045 H1053 0.960 . S
C1046 C1044 1.381 . S
C1046 C1047 1.394 . S
C1046 H1054 0.930 . S
C1047 C1046 1.394 . S
C1047 C1048 1.383 . S
C1047 H1055 0.929 . S
C1048 C1047 1.383 . S
C1048 C1049 1.377 . S
C1049 H1033 0.930 . S
C1049 C1048 1.377 . S
C1049 C1050 1.379 . S
C1050 H1034 0.931 . S
C1050 C1044 1.383 . S
C1050 C1049 1.379 . S
H1051 C1045 0.959 . S
H1052 C1045 0.961 . S
H1053 C1045 0.960 . S
H1054 C1046 0.930 . S
H1055 C1047 0.929 . S
H1056 C1064 0.929 . S
H1057 C1066 0.930 . S
H1058 C1068 0.930 . S
H1059 C1071 0.929 . S
H1060 C1074 0.930 . S
H1061 C1076 0.960 . S
H1062 C1076 0.960 . S
H1063 C1076 0.960 . S
C1064 H1056 0.929 . S
C1064 C1065 1.377 . S
C1064 C1066 1.384 . S
C1065 C1064 1.377 . S
C1065 C1071 1.390 . S
C1066 H1057 0.930 . S
C1066 C1064 1.384 . S
C1066 C1067 1.372 . S
C1067 C1066 1.372 . S
C1067 C1068 1.400 . S
C1067 C1072 1.490 . S
C1068 H1058 0.930 . S
C1068 C1067 1.400 . S
C1068 C1071 1.386 . S
H1069 C1085 0.930 . S
H1070 C1086 0.931 . S
C1071 H1059 0.929 . S
C1071 C1065 1.390 . S
C1071 C1068 1.386 . S
C1072 C1067 1.490 . S
C1072 C1074 1.395 . S
C1072 C1075 1.403 . S
H1073 C1079 0.930 . S
C1074 H1060 0.930 . S
C1074 C1072 1.395 . S
C1074 C1077 1.403 . S
C1075 C1072 1.403 . S
C1075 C1076 1.524 . S
C1075 C1079 1.400 . S
C1076 H1061 0.960 . S
C1076 H1062 0.960 . S
C1076 H1063 0.960 . S
C1076 C1075 1.524 . S
C1077 C1074 1.403 . S
C1077 C1078 1.392 . S
C1077 C1081 1.495 . S
C1078 C1077 1.392 . S
C1078 C1079 1.385 . S
C1078 C1080 1.478 . S
C1079 H1073 0.930 . S
C1079 C1075 1.400 . S
C1079 C1078 1.385 . S
C1080 C1078 1.478 . S
C1080 C1082 1.381 . S
C1080 C1086 1.383 . S
C1081 C1077 1.495 . S
C1081 H1087 0.959 . S
C1081 H1088 0.961 . S
C1081 H1089 0.960 . S
C1082 C1080 1.381 . S
C1082 C1083 1.394 . S
C1082 H1090 0.930 . S
C1083 C1082 1.394 . S
C1083 C1084 1.383 . S
C1083 H1091 0.929 . S
C1084 C1083 1.383 . S
C1084 C1085 1.377 . S
C1085 H1069 0.930 . S
C1085 C1084 1.377 . S
C1085 C1086 1.379 . S
C1086 H1070 0.931 . S
C1086 C1080 1.383 . S
C1086 C1085 1.379 . S
H1087 C1081 0.959 . S
H1088 C1081 0.961 . S
H1089 C1081 0.960 . S
H1090 C1082 0.930 . S
H1091 C1083 0.929 . S
H1092 C1100 0.929 . S
H1093 C1102 0.930 . S
H1094 C1104 0.930 . S
H1095 C1107 0.929 . S
H1096 C1110 0.930 . S
H1097 C1112 0.960 . S
H1098 C1112 0.960 . S
H1099 C1112 0.960 . S
C1100 H1092 0.929 . S
C1100 C1101 1.377 . S
C1100 C1102 1.384 . S
C1101 C1100 1.377 . S
C1101 C1107 1.390 . S
C1102 H1093 0.930 . S
C1102 C1100 1.384 . S
C1102 C1103 1.372 . S
C1103 C1102 1.372 . S
C1103 C1104 1.400 . S
C1103 C1108 1.490 . S
C1104 H1094 0.930 . S
C1104 C1103 1.400 . S
C1104 C1107 1.386 . S
H1105 C1121 0.930 . S
H1106 C1122 0.931 . S
C1107 H1095 0.929 . S
C1107 C1101 1.390 . S
C1107 C1104 1.386 . S
C1108 C1103 1.490 . S
C1108 C1110 1.395 1_455 S
C1108 C1111 1.403 . S
H1109 C1115 0.930 . S
C1110 H1096 0.930 . S
C1110 C1108 1.395 1_655 S
C1110 C1113 1.403 . S
C1111 C1108 1.403 . S
C1111 C1112 1.524 . S
C1111 C1115 1.400 . S
C1112 H1097 0.960 . S
C1112 H1098 0.960 . S
C1112 H1099 0.960 . S
C1112 C1111 1.524 . S
C1113 C1110 1.403 . S
C1113 C1114 1.392 . S
C1113 C1117 1.495 . S
C1114 C1113 1.392 . S
C1114 C1115 1.385 1_655 S
C1114 C1116 1.478 . S
C1115 H1109 0.930 . S
C1115 C1111 1.400 . S
C1115 C1114 1.385 1_455 S
C1116 C1114 1.478 . S
C1116 C1118 1.381 . S
C1116 C1122 1.383 . S
C1117 C1113 1.495 . S
C1117 H1123 0.959 . S
C1117 H1124 0.961 . S
C1117 H1125 0.960 . S
C1118 C1116 1.381 . S
C1118 C1119 1.394 . S
C1118 H1126 0.930 . S
C1119 C1118 1.394 . S
C1119 C1120 1.383 . S
C1119 H1127 0.929 . S
C1120 C1119 1.383 . S
C1120 C1121 1.377 . S
C1121 H1105 0.930 . S
C1121 C1120 1.377 . S
C1121 C1122 1.379 . S
C1122 H1106 0.931 . S
C1122 C1116 1.383 . S
C1122 C1121 1.379 . S
H1123 C1117 0.959 . S
H1124 C1117 0.961 . S
H1125 C1117 0.960 . S
H1126 C1118 0.930 . S
H1127 C1119 0.929 . S
H1128 C1136 0.929 . S
H1129 C1138 0.930 . S
H1130 C1140 0.930 . S
H1131 C1143 0.929 . S
H1132 C1146 0.930 . S
H1133 C1148 0.960 . S
H1134 C1148 0.960 . S
H1135 C1148 0.960 . S
C1136 H1128 0.929 . S
C1136 C1137 1.377 . S
C1136 C1138 1.384 . S
C1137 C1136 1.377 . S
C1137 C1143 1.390 . S
C1138 H1129 0.930 . S
C1138 C1136 1.384 . S
C1138 C1139 1.372 . S
C1139 C1138 1.372 . S
C1139 C1140 1.400 . S
C1139 C1144 1.490 . S
C1140 H1130 0.930 . S
C1140 C1139 1.400 . S
C1140 C1143 1.386 . S
H1141 C1157 0.930 . S
H1142 C1158 0.931 . S
C1143 H1131 0.929 . S
C1143 C1137 1.390 . S
C1143 C1140 1.386 . S
C1144 C1139 1.490 . S
C1144 C1146 1.395 . S
C1144 C1147 1.403 1_545 S
H1145 C1151 0.930 . S
C1146 H1132 0.930 . S
C1146 C1144 1.395 . S
C1146 C1149 1.403 . S
C1147 C1144 1.403 1_565 S
C1147 C1148 1.524 . S
C1147 C1151 1.400 . S
C1148 H1133 0.960 . S
C1148 H1134 0.960 . S
C1148 H1135 0.960 . S
C1148 C1147 1.524 . S
C1149 C1146 1.403 . S
C1149 C1150 1.392 1_545 S
C1149 C1153 1.495 . S
C1150 C1149 1.392 1_565 S
C1150 C1151 1.385 . S
C1150 C1152 1.478 . S
C1151 H1145 0.930 . S
C1151 C1147 1.400 . S
C1151 C1150 1.385 . S
C1152 C1150 1.478 . S
C1152 C1154 1.381 . S
C1152 C1158 1.383 . S
C1153 C1149 1.495 . S
C1153 H1159 0.959 . S
C1153 H1160 0.961 . S
C1153 H1161 0.960 . S
C1154 C1152 1.381 . S
C1154 C1155 1.394 . S
C1154 H1162 0.930 . S
C1155 C1154 1.394 . S
C1155 C1156 1.383 . S
C1155 H1163 0.929 . S
C1156 C1155 1.383 . S
C1156 C1157 1.377 . S
C1157 H1141 0.930 . S
C1157 C1156 1.377 . S
C1157 C1158 1.379 . S
C1158 H1142 0.931 . S
C1158 C1152 1.383 . S
C1158 C1157 1.379 . S
H1159 C1153 0.959 . S
H1160 C1153 0.961 . S
H1161 C1153 0.960 . S
H1162 C1154 0.930 . S
H1163 C1155 0.929 . S
H1164 C1172 0.929 . S
H1165 C1174 0.930 . S
H1166 C1176 0.930 . S
H1167 C1179 0.929 . S
H1168 C1182 0.930 . S
H1169 C1184 0.960 . S
H1170 C1184 0.960 . S
H1171 C1184 0.960 . S
C1172 H1164 0.929 . S
C1172 C1173 1.377 . S
C1172 C1174 1.384 . S
C1173 C1172 1.377 . S
C1173 C1179 1.390 . S
C1174 H1165 0.930 . S
C1174 C1172 1.384 . S
C1174 C1175 1.372 . S
C1175 C1174 1.372 . S
C1175 C1176 1.400 . S
C1175 C1180 1.490 . S
C1176 H1166 0.930 . S
C1176 C1175 1.400 . S
C1176 C1179 1.386 . S
H1177 C1193 0.930 . S
H1178 C1194 0.931 . S
C1179 H1167 0.929 . S
C1179 C1173 1.390 . S
C1179 C1176 1.386 . S
C1180 C1175 1.490 . S
C1180 C1182 1.395 . S
C1180 C1183 1.403 . S
H1181 C1187 0.930 . S
C1182 H1168 0.930 . S
C1182 C1180 1.395 . S
C1182 C1185 1.403 . S
C1183 C1180 1.403 . S
C1183 C1184 1.524 . S
C1183 C1187 1.400 . S
C1184 H1169 0.960 . S
C1184 H1170 0.960 . S
C1184 H1171 0.960 . S
C1184 C1183 1.524 . S
C1185 C1182 1.403 . S
C1185 C1186 1.392 . S
C1185 C1189 1.495 . S
C1186 C1185 1.392 . S
C1186 C1187 1.385 . S
C1186 C1188 1.478 . S
C1187 H1181 0.930 . S
C1187 C1183 1.400 . S
C1187 C1186 1.385 . S
C1188 C1186 1.478 . S
C1188 C1190 1.381 . S
C1188 C1194 1.383 . S
C1189 C1185 1.495 . S
C1189 H1195 0.959 . S
C1189 H1196 0.961 . S
C1189 H1197 0.960 . S
C1190 C1188 1.381 . S
C1190 C1191 1.394 . S
C1190 H1198 0.930 . S
C1191 C1190 1.394 . S
C1191 C1192 1.383 . S
C1191 H1199 0.929 . S
C1192 C1191 1.383 . S
C1192 C1193 1.377 . S
C1193 H1177 0.930 . S
C1193 C1192 1.377 . S
C1193 C1194 1.379 . S
C1194 H1178 0.931 . S
C1194 C1188 1.383 . S
C1194 C1193 1.379 . S
H1195 C1189 0.959 . S
H1196 C1189 0.961 . S
H1197 C1189 0.960 . S
H1198 C1190 0.930 . S
H1199 C1191 0.929 . S
H1200 C1208 0.929 . S
H1201 C1210 0.930 . S
H1202 C1212 0.930 . S
H1203 C1215 0.929 . S
H1204 C1218 0.930 . S
H1205 C1220 0.960 . S
H1206 C1220 0.960 . S
H1207 C1220 0.960 . S
C1208 H1200 0.929 . S
C1208 C1209 1.377 . S
C1208 C1210 1.384 . S
C1209 C1208 1.377 . S
C1209 C1215 1.390 . S
C1210 H1201 0.930 . S
C1210 C1208 1.384 . S
C1210 C1211 1.372 . S
C1211 C1210 1.372 . S
C1211 C1212 1.400 . S
C1211 C1216 1.490 . S
C1212 H1202 0.930 . S
C1212 C1211 1.400 . S
C1212 C1215 1.386 . S
H1213 C1229 0.930 . S
H1214 C1230 0.931 . S
C1215 H1203 0.929 . S
C1215 C1209 1.390 . S
C1215 C1212 1.386 . S
C1216 C1211 1.490 . S
C1216 C1218 1.395 1_655 S
C1216 C1219 1.403 . S
H1217 C1223 0.930 . S
C1218 H1204 0.930 . S
C1218 C1216 1.395 1_455 S
C1218 C1221 1.403 . S
C1219 C1216 1.403 . S
C1219 C1220 1.524 . S
C1219 C1223 1.400 . S
C1220 H1205 0.960 . S
C1220 H1206 0.960 . S
C1220 H1207 0.960 . S
C1220 C1219 1.524 . S
C1221 C1218 1.403 . S
C1221 C1222 1.392 . S
C1221 C1225 1.495 . S
C1222 C1221 1.392 . S
C1222 C1223 1.385 1_455 S
C1222 C1224 1.478 . S
C1223 H1217 0.930 . S
C1223 C1219 1.400 . S
C1223 C1222 1.385 1_655 S
C1224 C1222 1.478 . S
C1224 C1226 1.381 . S
C1224 C1230 1.383 . S
C1225 C1221 1.495 . S
C1225 H1231 0.959 . S
C1225 H1232 0.961 . S
C1225 H1233 0.960 . S
C1226 C1224 1.381 . S
C1226 C1227 1.394 . S
C1226 H1234 0.930 . S
C1227 C1226 1.394 . S
C1227 C1228 1.383 . S
C1227 H1235 0.929 . S
C1228 C1227 1.383 . S
C1228 C1229 1.377 . S
C1229 H1213 0.930 . S
C1229 C1228 1.377 . S
C1229 C1230 1.379 . S
C1230 H1214 0.931 . S
C1230 C1224 1.383 . S
C1230 C1229 1.379 . S
H1231 C1225 0.959 . S
H1232 C1225 0.961 . S
H1233 C1225 0.960 . S
H1234 C1226 0.930 . S
H1235 C1227 0.929 . S
H1236 C1244 0.929 . S
H1237 C1246 0.930 . S
H1238 C1248 0.930 . S
H1239 C1251 0.929 . S
H1240 C1254 0.930 . S
H1241 C1256 0.960 . S
H1242 C1256 0.960 . S
H1243 C1256 0.960 . S
C1244 H1236 0.929 . S
C1244 C1245 1.377 . S
C1244 C1246 1.384 . S
C1245 C1244 1.377 . S
C1245 C1251 1.390 . S
C1246 H1237 0.930 . S
C1246 C1244 1.384 . S
C1246 C1247 1.372 . S
C1247 C1246 1.372 . S
C1247 C1248 1.400 . S
C1247 C1252 1.490 . S
C1248 H1238 0.930 . S
C1248 C1247 1.400 . S
C1248 C1251 1.386 . S
H1249 C1265 0.930 . S
H1250 C1266 0.931 . S
C1251 H1239 0.929 . S
C1251 C1245 1.390 . S
C1251 C1248 1.386 . S
C1252 C1247 1.490 . S
C1252 C1254 1.395 1_455 S
C1252 C1255 1.403 . S
H1253 C1259 0.930 . S
C1254 H1240 0.930 . S
C1254 C1252 1.395 1_655 S
C1254 C1257 1.403 . S
C1255 C1252 1.403 . S
C1255 C1256 1.524 . S
C1255 C1259 1.400 . S
C1256 H1241 0.960 . S
C1256 H1242 0.960 . S
C1256 H1243 0.960 . S
C1256 C1255 1.524 . S
C1257 C1254 1.403 . S
C1257 C1258 1.392 . S
C1257 C1261 1.495 . S
C1258 C1257 1.392 . S
C1258 C1259 1.385 1_655 S
C1258 C1260 1.478 . S
C1259 H1253 0.930 . S
C1259 C1255 1.400 . S
C1259 C1258 1.385 1_455 S
C1260 C1258 1.478 . S
C1260 C1262 1.381 . S
C1260 C1266 1.383 . S
C1261 C1257 1.495 . S
C1261 H1267 0.959 . S
C1261 H1268 0.961 . S
C1261 H1269 0.960 . S
C1262 C1260 1.381 . S
C1262 C1263 1.394 . S
C1262 H1270 0.930 . S
C1263 C1262 1.394 . S
C1263 C1264 1.383 . S
C1263 H1271 0.929 . S
C1264 C1263 1.383 . S
C1264 C1265 1.377 . S
C1265 H1249 0.930 . S
C1265 C1264 1.377 . S
C1265 C1266 1.379 . S
C1266 H1250 0.931 . S
C1266 C1260 1.383 . S
C1266 C1265 1.379 . S
H1267 C1261 0.959 . S
H1268 C1261 0.961 . S
H1269 C1261 0.960 . S
H1270 C1262 0.930 . S
H1271 C1263 0.929 . S
H1272 C1280 0.929 . S
H1273 C1282 0.930 . S
H1274 C1284 0.930 . S
H1275 C1287 0.929 . S
H1276 C1290 0.930 . S
H1277 C1292 0.960 . S
H1278 C1292 0.960 . S
H1279 C1292 0.960 . S
C1280 H1272 0.929 . S
C1280 C1281 1.377 . S
C1280 C1282 1.384 . S
C1281 C1280 1.377 . S
C1281 C1287 1.390 . S
C1282 H1273 0.930 . S
C1282 C1280 1.384 . S
C1282 C1283 1.372 . S
C1283 C1282 1.372 . S
C1283 C1284 1.400 . S
C1283 C1288 1.490 . S
C1284 H1274 0.930 . S
C1284 C1283 1.400 . S
C1284 C1287 1.386 . S
H1285 C1301 0.930 . S
H1286 C1302 0.931 . S
C1287 H1275 0.929 . S
C1287 C1281 1.390 . S
C1287 C1284 1.386 . S
C1288 C1283 1.490 . S
C1288 C1290 1.395 1_565 S
C1288 C1291 1.403 . S
H1289 C1295 0.930 . S
C1290 H1276 0.930 . S
C1290 C1288 1.395 1_545 S
C1290 C1293 1.403 . S
C1291 C1288 1.403 . S
C1291 C1292 1.524 . S
C1291 C1295 1.400 . S
C1292 H1277 0.960 . S
C1292 H1278 0.960 . S
C1292 H1279 0.960 . S
C1292 C1291 1.524 . S
C1293 C1290 1.403 . S
C1293 C1294 1.392 . S
C1293 C1297 1.495 . S
C1294 C1293 1.392 . S
C1294 C1295 1.385 1_545 S
C1294 C1296 1.478 . S
C1295 H1289 0.930 . S
C1295 C1291 1.400 . S
C1295 C1294 1.385 1_565 S
C1296 C1294 1.478 . S
C1296 C1298 1.381 . S
C1296 C1302 1.383 . S
C1297 C1293 1.495 . S
C1297 H1303 0.959 . S
C1297 H1304 0.961 . S
C1297 H1305 0.960 . S
C1298 C1296 1.381 . S
C1298 C1299 1.394 . S
C1298 H1306 0.930 . S
C1299 C1298 1.394 . S
C1299 C1300 1.383 . S
C1299 H1307 0.929 . S
C1300 C1299 1.383 . S
C1300 C1301 1.377 . S
C1301 H1285 0.930 . S
C1301 C1300 1.377 . S
C1301 C1302 1.379 . S
C1302 H1286 0.931 . S
C1302 C1296 1.383 . S
C1302 C1301 1.379 . S
H1303 C1297 0.959 . S
H1304 C1297 0.961 . S
H1305 C1297 0.960 . S
H1306 C1298 0.930 . S
H1307 C1299 0.929 . S
H1308 C1316 0.929 . S
H1309 C1318 0.930 . S
H1310 C1320 0.930 . S
H1311 C1323 0.929 . S
H1312 C1326 0.930 . S
H1313 C1328 0.960 . S
H1314 C1328 0.960 . S
H1315 C1328 0.960 . S
C1316 H1308 0.929 . S
C1316 C1317 1.377 . S
C1316 C1318 1.384 . S
C1317 C1316 1.377 . S
C1317 C1323 1.390 . S
C1318 H1309 0.930 . S
C1318 C1316 1.384 . S
C1318 C1319 1.372 . S
C1319 C1318 1.372 . S
C1319 C1320 1.400 . S
C1319 C1324 1.490 . S
C1320 H1310 0.930 . S
C1320 C1319 1.400 . S
C1320 C1323 1.386 . S
H1321 C1337 0.930 . S
H1322 C1338 0.931 . S
C1323 H1311 0.929 . S
C1323 C1317 1.390 . S
C1323 C1320 1.386 . S
C1324 C1319 1.490 . S
C1324 C1326 1.395 . S
C1324 C1327 1.403 . S
H1325 C1331 0.930 . S
C1326 H1312 0.930 . S
C1326 C1324 1.395 . S
C1326 C1329 1.403 . S
C1327 C1324 1.403 . S
C1327 C1328 1.524 . S
C1327 C1331 1.400 . S
C1328 H1313 0.960 . S
C1328 H1314 0.960 . S
C1328 H1315 0.960 . S
C1328 C1327 1.524 . S
C1329 C1326 1.403 . S
C1329 C1330 1.392 . S
C1329 C1333 1.495 . S
C1330 C1329 1.392 . S
C1330 C1331 1.385 . S
C1330 C1332 1.478 . S
C1331 H1325 0.930 . S
C1331 C1327 1.400 . S
C1331 C1330 1.385 . S
C1332 C1330 1.478 . S
C1332 C1334 1.381 . S
C1332 C1338 1.383 . S
C1333 C1329 1.495 . S
C1333 H1339 0.959 . S
C1333 H1340 0.961 . S
C1333 H1341 0.960 . S
C1334 C1332 1.381 . S
C1334 C1335 1.394 . S
C1334 H1342 0.930 . S
C1335 C1334 1.394 . S
C1335 C1336 1.383 . S
C1335 H1343 0.929 . S
C1336 C1335 1.383 . S
C1336 C1337 1.377 . S
C1337 H1321 0.930 . S
C1337 C1336 1.377 . S
C1337 C1338 1.379 . S
C1338 H1322 0.931 . S
C1338 C1332 1.383 . S
C1338 C1337 1.379 . S
H1339 C1333 0.959 . S
H1340 C1333 0.961 . S
H1341 C1333 0.960 . S
H1342 C1334 0.930 . S
H1343 C1335 0.929 . S
H1344 C1352 0.929 . S
H1345 C1354 0.930 . S
H1346 C1356 0.930 . S
H1347 C1359 0.929 . S
H1348 C1362 0.930 . S
H1349 C1364 0.960 . S
H1350 C1364 0.960 . S
H1351 C1364 0.960 1_565 S
C1352 H1344 0.929 . S
C1352 C1353 1.377 . S
C1352 C1354 1.384 . S
C1353 C1352 1.377 . S
C1353 C1359 1.390 . S
C1354 H1345 0.930 . S
C1354 C1352 1.384 . S
C1354 C1355 1.372 . S
C1355 C1354 1.372 . S
C1355 C1356 1.400 . S
C1355 C1360 1.490 . S
C1356 H1346 0.930 . S
C1356 C1355 1.400 . S
C1356 C1359 1.386 . S
H1357 C1373 0.930 . S
H1358 C1374 0.931 . S
C1359 H1347 0.929 . S
C1359 C1353 1.390 . S
C1359 C1356 1.386 . S
C1360 C1355 1.490 . S
C1360 C1362 1.395 . S
C1360 C1363 1.403 1_565 S
H1361 C1367 0.930 . S
C1362 H1348 0.930 . S
C1362 C1360 1.395 . S
C1362 C1365 1.403 . S
C1363 C1360 1.403 1_545 S
C1363 C1364 1.524 . S
C1363 C1367 1.400 . S
C1364 H1349 0.960 . S
C1364 H1350 0.960 . S
C1364 H1351 0.960 1_545 S
C1364 C1363 1.524 . S
C1365 C1362 1.403 . S
C1365 C1366 1.392 1_565 S
C1365 C1369 1.495 . S
C1366 C1365 1.392 1_545 S
C1366 C1367 1.385 . S
C1366 C1368 1.478 . S
C1367 H1361 0.930 . S
C1367 C1363 1.400 . S
C1367 C1366 1.385 . S
C1368 C1366 1.478 . S
C1368 C1370 1.381 . S
C1368 C1374 1.383 . S
C1369 C1365 1.495 . S
C1369 H1375 0.959 . S
C1369 H1376 0.961 . S
C1369 H1377 0.960 1_565 S
C1370 C1368 1.381 . S
C1370 C1371 1.394 . S
C1370 H1378 0.930 . S
C1371 C1370 1.394 . S
C1371 C1372 1.383 . S
C1371 H1379 0.929 . S
C1372 C1371 1.383 . S
C1372 C1373 1.377 . S
C1373 H1357 0.930 . S
C1373 C1372 1.377 . S
C1373 C1374 1.379 . S
C1374 H1358 0.931 . S
C1374 C1368 1.383 . S
C1374 C1373 1.379 . S
H1375 C1369 0.959 . S
H1376 C1369 0.961 . S
H1377 C1369 0.960 1_545 S
H1378 C1370 0.930 . S
H1379 C1371 0.929 . S
H1380 C1388 0.929 . S
H1381 C1390 0.930 . S
H1382 C1392 0.930 . S
H1383 C1395 0.929 . S
H1384 C1398 0.930 . S
H1385 C1400 0.960 . S
H1386 C1400 0.960 . S
H1387 C1400 0.960 . S
C1388 H1380 0.929 . S
C1388 C1389 1.377 . S
C1388 C1390 1.384 . S
C1389 C1388 1.377 . S
C1389 C1395 1.390 . S
C1390 H1381 0.930 . S
C1390 C1388 1.384 . S
C1390 C1391 1.372 . S
C1391 C1390 1.372 . S
C1391 C1392 1.400 . S
C1391 C1396 1.490 . S
C1392 H1382 0.930 . S
C1392 C1391 1.400 . S
C1392 C1395 1.386 . S
H1393 C1409 0.930 . S
H1394 C1410 0.931 . S
C1395 H1383 0.929 . S
C1395 C1389 1.390 . S
C1395 C1392 1.386 . S
C1396 C1391 1.490 . S
C1396 C1398 1.395 . S
C1396 C1399 1.403 . S
H1397 C1403 0.930 . S
C1398 H1384 0.930 . S
C1398 C1396 1.395 . S
C1398 C1401 1.403 . S
C1399 C1396 1.403 . S
C1399 C1400 1.524 . S
C1399 C1403 1.400 . S
C1400 H1385 0.960 . S
C1400 H1386 0.960 . S
C1400 H1387 0.960 . S
C1400 C1399 1.524 . S
C1401 C1398 1.403 . S
C1401 C1402 1.392 . S
C1401 C1405 1.495 . S
C1402 C1401 1.392 . S
C1402 C1403 1.385 . S
C1402 C1404 1.478 . S
C1403 H1397 0.930 . S
C1403 C1399 1.400 . S
C1403 C1402 1.385 . S
C1404 C1402 1.478 . S
C1404 C1406 1.381 . S
C1404 C1410 1.383 . S
C1405 C1401 1.495 . S
C1405 H1411 0.959 . S
C1405 H1412 0.961 . S
C1405 H1413 0.960 . S
C1406 C1404 1.381 . S
C1406 C1407 1.394 . S
C1406 H1414 0.930 . S
C1407 C1406 1.394 . S
C1407 C1408 1.383 . S
C1407 H1415 0.929 . S
C1408 C1407 1.383 . S
C1408 C1409 1.377 . S
C1409 H1393 0.930 . S
C1409 C1408 1.377 . S
C1409 C1410 1.379 . S
C1410 H1394 0.931 . S
C1410 C1404 1.383 . S
C1410 C1409 1.379 . S
H1411 C1405 0.959 . S
H1412 C1405 0.961 . S
H1413 C1405 0.960 . S
H1414 C1406 0.930 . S
H1415 C1407 0.929 . S
H1416 C1424 0.929 . S
H1417 C1426 0.930 . S
H1418 C1428 0.930 . S
H1419 C1431 0.929 . S
H1420 C1434 0.930 . S
H1421 C1436 0.960 . S
H1422 C1436 0.960 1_655 S
H1423 C1436 0.960 . S
C1424 H1416 0.929 . S
C1424 C1425 1.377 . S
C1424 C1426 1.384 . S
C1425 C1424 1.377 . S
C1425 C1431 1.390 . S
C1426 H1417 0.930 . S
C1426 C1424 1.384 . S
C1426 C1427 1.372 . S
C1427 C1426 1.372 . S
C1427 C1428 1.400 . S
C1427 C1432 1.490 . S
C1428 H1418 0.930 . S
C1428 C1427 1.400 . S
C1428 C1431 1.386 . S
H1429 C1445 0.930 . S
H1430 C1446 0.931 . S
C1431 H1419 0.929 . S
C1431 C1425 1.390 . S
C1431 C1428 1.386 . S
C1432 C1427 1.490 . S
C1432 C1434 1.395 . S
C1432 C1435 1.390 1_655 S
H1433 C1439 0.930 . S
C1434 H1420 0.930 . S
C1434 C1432 1.395 . S
C1434 C1437 1.403 . S
C1435 C1432 1.390 1_455 S
C1435 C1436 1.511 . S
C1435 C1439 1.428 . S
C1436 H1421 0.960 . S
C1436 H1422 0.960 1_455 S
C1436 H1423 0.960 . S
C1436 C1435 1.511 . S
C1437 C1434 1.403 . S
C1437 C1438 1.392 1_655 S
C1437 C1441 1.495 . S
C1438 C1437 1.392 1_455 S
C1438 C1439 1.385 . S
C1438 C1440 1.478 . S
C1439 H1433 0.930 . S
C1439 C1435 1.428 . S
C1439 C1438 1.385 . S
C1440 C1438 1.478 . S
C1440 C1442 1.381 . S
C1440 C1446 1.383 . S
C1441 C1437 1.495 . S
C1441 H1447 0.959 . S
C1441 H1448 0.961 1_655 S
C1441 H1449 0.960 . S
C1442 C1440 1.381 . S
C1442 C1443 1.394 . S
C1442 H1450 0.930 . S
C1443 C1442 1.394 . S
C1443 C1444 1.383 . S
C1443 H1451 0.929 . S
C1444 C1443 1.383 . S
C1444 C1445 1.377 . S
C1445 H1429 0.930 . S
C1445 C1444 1.377 . S
C1445 C1446 1.379 . S
C1446 H1430 0.931 . S
C1446 C1440 1.383 . S
C1446 C1445 1.379 . S
H1447 C1441 0.959 . S
H1448 C1441 0.961 1_455 S
H1449 C1441 0.960 . S
H1450 C1442 0.930 . S
H1451 C1443 0.929 . S
H1452 C1460 0.929 . S
H1453 C1462 0.930 . S
H1454 C1464 0.930 . S
H1455 C1467 0.929 . S
H1456 C1470 0.930 . S
H1457 C1472 0.960 . S
H1458 C1472 0.960 . S
H1459 C1472 0.960 . S
C1460 H1452 0.929 . S
C1460 C1461 1.377 . S
C1460 C1462 1.384 . S
C1461 C1460 1.377 . S
C1461 C1467 1.390 . S
C1462 H1453 0.930 . S
C1462 C1460 1.384 . S
C1462 C1463 1.372 . S
C1463 C1462 1.372 . S
C1463 C1464 1.400 . S
C1463 C1468 1.490 . S
C1464 H1454 0.930 . S
C1464 C1463 1.400 . S
C1464 C1467 1.386 . S
H1465 C1481 0.930 . S
H1466 C1482 0.931 . S
C1467 H1455 0.929 . S
C1467 C1461 1.390 . S
C1467 C1464 1.386 . S
C1468 C1463 1.490 . S
C1468 C1470 1.395 1_545 S
C1468 C1471 1.403 . S
H1469 C1475 0.930 . S
C1470 H1456 0.930 . S
C1470 C1468 1.395 1_565 S
C1470 C1473 1.403 . S
C1471 C1468 1.403 . S
C1471 C1472 1.524 . S
C1471 C1475 1.400 . S
C1472 H1457 0.960 . S
C1472 H1458 0.960 . S
C1472 H1459 0.960 . S
C1472 C1471 1.524 . S
C1473 C1470 1.403 . S
C1473 C1474 1.392 . S
C1473 C1477 1.495 . S
C1474 C1473 1.392 . S
C1474 C1475 1.385 1_565 S
C1474 C1476 1.478 . S
C1475 H1469 0.930 . S
C1475 C1471 1.400 . S
C1475 C1474 1.385 1_545 S
C1476 C1474 1.478 . S
C1476 C1478 1.381 . S
C1476 C1482 1.383 . S
C1477 C1473 1.495 . S
C1477 H1483 0.959 . S
C1477 H1484 0.961 . S
C1477 H1485 0.960 . S
C1478 C1476 1.381 . S
C1478 C1479 1.394 . S
C1478 H1486 0.930 . S
C1479 C1478 1.394 . S
C1479 C1480 1.383 . S
C1479 H1487 0.929 . S
C1480 C1479 1.383 . S
C1480 C1481 1.377 . S
C1481 H1465 0.930 . S
C1481 C1480 1.377 . S
C1481 C1482 1.379 . S
C1482 H1466 0.931 . S
C1482 C1476 1.383 . S
C1482 C1481 1.379 . S
H1483 C1477 0.959 . S
H1484 C1477 0.961 . S
H1485 C1477 0.960 . S
H1486 C1478 0.930 . S
H1487 C1479 0.929 . S
H1488 C1496 0.929 . S
H1489 C1498 0.930 . S
H1490 C1500 0.930 . S
H1491 C1503 0.929 . S
H1492 C1506 0.930 . S
H1493 C1508 0.960 . S
H1494 C1508 0.960 . S
H1495 C1508 0.960 . S
C1496 H1488 0.929 . S
C1496 C1497 1.377 . S
C1496 C1498 1.384 . S
C1497 C1496 1.377 . S
C1497 C1503 1.390 . S
C1498 H1489 0.930 . S
C1498 C1496 1.384 . S
C1498 C1499 1.372 . S
C1499 C1498 1.372 . S
C1499 C1500 1.400 . S
C1499 C1504 1.490 . S
C1500 H1490 0.930 . S
C1500 C1499 1.400 . S
C1500 C1503 1.386 . S
H1501 C1517 0.930 . S
H1502 C1518 0.931 . S
C1503 H1491 0.929 . S
C1503 C1497 1.390 . S
C1503 C1500 1.386 . S
C1504 C1499 1.490 . S
C1504 C1506 1.395 . S
C1504 C1507 1.403 . S
H1505 C1511 0.930 . S
C1506 H1492 0.930 . S
C1506 C1504 1.395 . S
C1506 C1509 1.403 . S
C1507 C1504 1.403 . S
C1507 C1508 1.524 . S
C1507 C1511 1.400 . S
C1508 H1493 0.960 . S
C1508 H1494 0.960 . S
C1508 H1495 0.960 . S
C1508 C1507 1.524 . S
C1509 C1506 1.403 . S
C1509 C1510 1.392 . S
C1509 C1513 1.495 . S
C1510 C1509 1.392 . S
C1510 C1511 1.385 . S
C1510 C1512 1.478 . S
C1511 H1505 0.930 . S
C1511 C1507 1.400 . S
C1511 C1510 1.385 . S
C1512 C1510 1.478 . S
C1512 C1514 1.381 . S
C1512 C1518 1.383 . S
C1513 C1509 1.495 . S
C1513 H1519 0.959 . S
C1513 H1520 0.961 . S
C1513 H1521 0.960 . S
C1514 C1512 1.381 . S
C1514 C1515 1.394 . S
C1514 H1522 0.930 . S
C1515 C1514 1.394 . S
C1515 C1516 1.383 . S
C1515 H1523 0.929 . S
C1516 C1515 1.383 . S
C1516 C1517 1.377 . S
C1517 H1501 0.930 . S
C1517 C1516 1.377 . S
C1517 C1518 1.379 . S
C1518 H1502 0.931 . S
C1518 C1512 1.383 . S
C1518 C1517 1.379 . S
H1519 C1513 0.959 . S
H1520 C1513 0.961 . S
H1521 C1513 0.960 . S
H1522 C1514 0.930 . S
H1523 C1515 0.929 . S
H1524 C1532 0.929 . S
H1525 C1534 0.930 . S
H1526 C1536 0.930 . S
H1527 C1539 0.929 . S
H1528 C1542 0.930 . S
H1529 C1544 0.960 . S
H1530 C1544 0.960 . S
H1531 C1544 0.960 . S
C1532 H1524 0.929 . S
C1532 C1533 1.377 . S
C1532 C1534 1.384 . S
C1533 C1532 1.377 . S
C1533 C1539 1.390 . S
C1534 H1525 0.930 . S
C1534 C1532 1.384 . S
C1534 C1535 1.372 . S
C1535 C1534 1.372 . S
C1535 C1536 1.400 . S
C1535 C1540 1.490 . S
C1536 H1526 0.930 . S
C1536 C1535 1.400 . S
C1536 C1539 1.386 . S
H1537 C1553 0.930 . S
H1538 C1554 0.931 . S
C1539 H1527 0.929 . S
C1539 C1533 1.390 . S
C1539 C1536 1.386 . S
C1540 C1535 1.490 . S
C1540 C1542 1.395 . S
C1540 C1543 1.403 1_455 S
H1541 C1547 0.930 . S
C1542 H1528 0.930 . S
C1542 C1540 1.395 . S
C1542 C1545 1.403 . S
C1543 C1540 1.403 1_655 S
C1543 C1544 1.524 . S
C1543 C1547 1.400 . S
C1544 H1529 0.960 . S
C1544 H1530 0.960 . S
C1544 H1531 0.960 . S
C1544 C1543 1.524 . S
C1545 C1542 1.403 . S
C1545 C1546 1.392 1_455 S
C1545 C1549 1.495 . S
C1546 C1545 1.392 1_655 S
C1546 C1547 1.385 . S
C1546 C1548 1.478 . S
C1547 H1541 0.930 . S
C1547 C1543 1.400 . S
C1547 C1546 1.385 . S
C1548 C1546 1.478 . S
C1548 C1550 1.381 . S
C1548 C1554 1.383 . S
C1549 C1545 1.495 . S
C1549 H1555 0.959 . S
C1549 H1556 0.961 . S
C1549 H1557 0.960 . S
C1550 C1548 1.381 . S
C1550 C1551 1.394 . S
C1550 H1558 0.930 . S
C1551 C1550 1.394 . S
C1551 C1552 1.383 . S
C1551 H1559 0.929 . S
C1552 C1551 1.383 . S
C1552 C1553 1.377 . S
C1553 H1537 0.930 . S
C1553 C1552 1.377 . S
C1553 C1554 1.379 . S
C1554 H1538 0.931 . S
C1554 C1548 1.383 . S
C1554 C1553 1.379 . S
H1555 C1549 0.959 . S
H1556 C1549 0.961 . S
H1557 C1549 0.960 . S
H1558 C1550 0.930 . S
H1559 C1551 0.929 . S
H1560 C1568 0.929 . S
H1561 C1570 0.930 . S
H1562 C1572 0.930 . S
H1563 C1575 0.929 . S
H1564 C1578 0.930 . S
H1565 C1580 0.960 . S
H1566 C1580 0.960 . S
H1567 C1580 0.960 . S
C1568 H1560 0.929 . S
C1568 C1569 1.377 . S
C1568 C1570 1.384 . S
C1569 C1568 1.377 . S
C1569 C1575 1.390 . S
C1570 H1561 0.930 . S
C1570 C1568 1.384 . S
C1570 C1571 1.372 . S
C1571 C1570 1.372 . S
C1571 C1572 1.400 . S
C1571 C1576 1.490 . S
C1572 H1562 0.930 . S
C1572 C1571 1.400 . S
C1572 C1575 1.386 . S
H1573 C1589 0.930 . S
H1574 C1590 0.931 . S
C1575 H1563 0.929 . S
C1575 C1569 1.390 . S
C1575 C1572 1.386 . S
C1576 C1571 1.490 . S
C1576 C1578 1.395 . S
C1576 C1579 1.403 . S
H1577 C1583 0.930 . S
C1578 H1564 0.930 . S
C1578 C1576 1.395 . S
C1578 C1581 1.403 . S
C1579 C1576 1.403 . S
C1579 C1580 1.524 . S
C1579 C1583 1.400 . S
C1580 H1565 0.960 . S
C1580 H1566 0.960 . S
C1580 H1567 0.960 . S
C1580 C1579 1.524 . S
C1581 C1578 1.403 . S
C1581 C1582 1.392 . S
C1581 C1585 1.495 . S
C1582 C1581 1.392 . S
C1582 C1583 1.385 . S
C1582 C1584 1.478 . S
C1583 H1577 0.930 . S
C1583 C1579 1.400 . S
C1583 C1582 1.385 . S
C1584 C1582 1.478 . S
C1584 C1586 1.381 . S
C1584 C1590 1.383 . S
C1585 C1581 1.495 . S
C1585 H1591 0.959 . S
C1585 H1592 0.961 . S
C1585 H1593 0.960 . S
C1586 C1584 1.381 . S
C1586 C1587 1.394 . S
C1586 H1594 0.930 . S
C1587 C1586 1.394 . S
C1587 C1588 1.383 . S
C1587 H1595 0.929 . S
C1588 C1587 1.383 . S
C1588 C1589 1.377 . S
C1589 H1573 0.930 . S
C1589 C1588 1.377 . S
C1589 C1590 1.379 . S
C1590 H1574 0.931 . S
C1590 C1584 1.383 . S
C1590 C1589 1.379 . S
H1591 C1585 0.959 . S
H1592 C1585 0.961 . S
H1593 C1585 0.960 . S
H1594 C1586 0.930 . S
H1595 C1587 0.929 . S
H1596 C1604 0.929 . S
H1597 C1606 0.930 . S
H1598 C1608 0.930 . S
H1599 C1611 0.929 . S
H1600 C1614 0.930 . S
H1601 C1616 0.960 . S
H1602 C1616 0.960 . S
H1603 C1616 0.960 . S
C1604 H1596 0.929 . S
C1604 C1605 1.377 . S
C1604 C1606 1.384 . S
C1605 C1604 1.377 . S
C1605 C1611 1.390 . S
C1606 H1597 0.930 . S
C1606 C1604 1.384 . S
C1606 C1607 1.372 . S
C1607 C1606 1.372 . S
C1607 C1608 1.400 . S
C1607 C1612 1.490 . S
C1608 H1598 0.930 . S
C1608 C1607 1.400 . S
C1608 C1611 1.386 . S
H1609 C1625 0.930 . S
H1610 C1626 0.931 . S
C1611 H1599 0.929 . S
C1611 C1605 1.390 . S
C1611 C1608 1.386 . S
C1612 C1607 1.490 . S
C1612 C1614 1.395 . S
C1612 C1615 1.403 . S
H1613 C1619 0.930 . S
C1614 H1600 0.930 . S
C1614 C1612 1.395 . S
C1614 C1617 1.403 . S
C1615 C1612 1.403 . S
C1615 C1616 1.524 . S
C1615 C1619 1.400 . S
C1616 H1601 0.960 . S
C1616 H1602 0.960 . S
C1616 H1603 0.960 . S
C1616 C1615 1.524 . S
C1617 C1614 1.403 . S
C1617 C1618 1.392 . S
C1617 C1621 1.495 . S
C1618 C1617 1.392 . S
C1618 C1619 1.385 . S
C1618 C1620 1.478 . S
C1619 H1613 0.930 . S
C1619 C1615 1.400 . S
C1619 C1618 1.385 . S
C1620 C1618 1.478 . S
C1620 C1622 1.381 . S
C1620 C1626 1.383 . S
C1621 C1617 1.495 . S
C1621 H1627 0.959 . S
C1621 H1628 0.961 . S
C1621 H1629 0.960 . S
C1622 C1620 1.381 . S
C1622 C1623 1.394 . S
C1622 H1630 0.930 . S
C1623 C1622 1.394 . S
C1623 C1624 1.383 . S
C1623 H1631 0.929 . S
C1624 C1623 1.383 . S
C1624 C1625 1.377 . S
C1625 H1609 0.930 . S
C1625 C1624 1.377 . S
C1625 C1626 1.379 . S
C1626 H1610 0.931 . S
C1626 C1620 1.383 . S
C1626 C1625 1.379 . S
H1627 C1621 0.959 . S
H1628 C1621 0.961 . S
H1629 C1621 0.960 . S
H1630 C1622 0.930 . S
H1631 C1623 0.929 . S
H1632 C1640 0.929 . S
H1633 C1642 0.930 . S
H1634 C1644 0.930 . S
H1635 C1647 0.929 . S
H1636 C1650 0.930 . S
H1637 C1652 0.960 . S
H1638 C1652 0.960 . S
H1639 C1652 0.960 . S
C1640 H1632 0.929 . S
C1640 C1641 1.377 . S
C1640 C1642 1.384 . S
C1641 C1640 1.377 . S
C1641 C1647 1.390 . S
C1642 H1633 0.930 . S
C1642 C1640 1.384 . S
C1642 C1643 1.372 . S
C1643 C1642 1.372 . S
C1643 C1644 1.400 . S
C1643 C1648 1.490 . S
C1644 H1634 0.930 . S
C1644 C1643 1.400 . S
C1644 C1647 1.386 . S
H1645 C1661 0.930 . S
H1646 C1662 0.931 . S
C1647 H1635 0.929 . S
C1647 C1641 1.390 . S
C1647 C1644 1.386 . S
C1648 C1643 1.490 . S
C1648 C1650 1.395 . S
C1648 C1651 1.403 . S
H1649 C1655 0.930 . S
C1650 H1636 0.930 . S
C1650 C1648 1.395 . S
C1650 C1653 1.403 . S
C1651 C1648 1.403 . S
C1651 C1652 1.524 . S
C1651 C1655 1.400 . S
C1652 H1637 0.960 . S
C1652 H1638 0.960 . S
C1652 H1639 0.960 . S
C1652 C1651 1.524 . S
C1653 C1650 1.403 . S
C1653 C1654 1.392 . S
C1653 C1657 1.495 . S
C1654 C1653 1.392 . S
C1654 C1655 1.385 . S
C1654 C1656 1.478 . S
C1655 H1649 0.930 . S
C1655 C1651 1.400 . S
C1655 C1654 1.385 . S
C1656 C1654 1.478 . S
C1656 C1658 1.381 . S
C1656 C1662 1.383 . S
C1657 C1653 1.495 . S
C1657 H1663 0.959 . S
C1657 H1664 0.961 . S
C1657 H1665 0.960 . S
C1658 C1656 1.381 . S
C1658 C1659 1.394 . S
C1658 H1666 0.930 . S
C1659 C1658 1.394 . S
C1659 C1660 1.383 . S
C1659 H1667 0.929 . S
C1660 C1659 1.383 . S
C1660 C1661 1.377 . S
C1661 H1645 0.930 . S
C1661 C1660 1.377 . S
C1661 C1662 1.379 . S
C1662 H1646 0.931 . S
C1662 C1656 1.383 . S
C1662 C1661 1.379 . S
H1663 C1657 0.959 . S
H1664 C1657 0.961 . S
H1665 C1657 0.960 . S
H1666 C1658 0.930 . S
H1667 C1659 0.929 . S
H1668 C1676 0.929 . S
H1669 C1678 0.930 . S
H1670 C1680 0.930 . S
H1671 C1683 0.929 . S
H1672 C1686 0.930 . S
H1673 C1688 0.960 . S
H1674 C1688 0.960 . S
H1675 C1688 0.960 . S
C1676 H1668 0.929 . S
C1676 C1677 1.377 . S
C1676 C1678 1.384 . S
C1677 C1676 1.377 . S
C1677 C1683 1.390 . S
C1678 H1669 0.930 . S
C1678 C1676 1.384 . S
C1678 C1679 1.372 . S
C1679 C1678 1.372 . S
C1679 C1680 1.400 . S
C1679 C1684 1.490 . S
C1680 H1670 0.930 . S
C1680 C1679 1.400 . S
C1680 C1683 1.386 . S
H1681 C1697 0.930 . S
H1682 C1698 0.931 . S
C1683 H1671 0.929 . S
C1683 C1677 1.390 . S
C1683 C1680 1.386 . S
C1684 C1679 1.490 . S
C1684 C1686 1.395 . S
C1684 C1687 1.403 . S
H1685 C1691 0.930 . S
C1686 H1672 0.930 . S
C1686 C1684 1.395 . S
C1686 C1689 1.403 . S
C1687 C1684 1.403 . S
C1687 C1688 1.524 . S
C1687 C1691 1.400 . S
C1688 H1673 0.960 . S
C1688 H1674 0.960 . S
C1688 H1675 0.960 . S
C1688 C1687 1.524 . S
C1689 C1686 1.403 . S
C1689 C1690 1.392 . S
C1689 C1693 1.495 . S
C1690 C1689 1.392 . S
C1690 C1691 1.385 . S
C1690 C1692 1.478 . S
C1691 H1685 0.930 . S
C1691 C1687 1.400 . S
C1691 C1690 1.385 . S
C1692 C1690 1.478 . S
C1692 C1694 1.381 . S
C1692 C1698 1.383 . S
C1693 C1689 1.495 . S
C1693 H1699 0.959 . S
C1693 H1700 0.961 . S
C1693 H1701 0.960 . S
C1694 C1692 1.381 . S
C1694 C1695 1.394 . S
C1694 H1702 0.930 . S
C1695 C1694 1.394 . S
C1695 C1696 1.383 . S
C1695 H1703 0.929 . S
C1696 C1695 1.383 . S
C1696 C1697 1.377 . S
C1697 H1681 0.930 . S
C1697 C1696 1.377 . S
C1697 C1698 1.379 . S
C1698 H1682 0.931 . S
C1698 C1692 1.383 . S
C1698 C1697 1.379 . S
H1699 C1693 0.959 . S
H1700 C1693 0.961 . S
H1701 C1693 0.960 . S
H1702 C1694 0.930 . S
H1703 C1695 0.929 . S
H1704 C1712 0.929 . S
H1705 C1714 0.930 . S
H1706 C1716 0.930 . S
H1707 C1719 0.929 . S
H1708 C1722 0.930 . S
H1709 C1724 0.960 . S
H1710 C1724 0.960 . S
H1711 C1724 0.960 . S
C1712 H1704 0.929 . S
C1712 C1713 1.377 . S
C1712 C1714 1.384 . S
C1713 C1712 1.377 . S
C1713 C1719 1.390 . S
C1714 H1705 0.930 . S
C1714 C1712 1.384 . S
C1714 C1715 1.372 . S
C1715 C1714 1.372 . S
C1715 C1716 1.400 . S
C1715 C1720 1.490 . S
C1716 H1706 0.930 . S
C1716 C1715 1.400 . S
C1716 C1719 1.386 . S
H1717 C1733 0.930 . S
H1718 C1734 0.931 . S
C1719 H1707 0.929 . S
C1719 C1713 1.390 . S
C1719 C1716 1.386 . S
C1720 C1715 1.490 . S
C1720 C1722 1.395 . S
C1720 C1723 1.403 . S
H1721 C1727 0.930 . S
C1722 H1708 0.930 . S
C1722 C1720 1.395 . S
C1722 C1725 1.403 . S
C1723 C1720 1.403 . S
C1723 C1724 1.524 . S
C1723 C1727 1.400 . S
C1724 H1709 0.960 . S
C1724 H1710 0.960 . S
C1724 H1711 0.960 . S
C1724 C1723 1.524 . S
C1725 C1722 1.403 . S
C1725 C1726 1.392 . S
C1725 C1729 1.495 . S
C1726 C1725 1.392 . S
C1726 C1727 1.385 . S
C1726 C1728 1.478 . S
C1727 H1721 0.930 . S
C1727 C1723 1.400 . S
C1727 C1726 1.385 . S
C1728 C1726 1.478 . S
C1728 C1730 1.381 . S
C1728 C1734 1.383 . S
C1729 C1725 1.495 . S
C1729 H1735 0.959 . S
C1729 H1736 0.961 . S
C1729 H1737 0.960 . S
C1730 C1728 1.381 . S
C1730 C1731 1.394 . S
C1730 H1738 0.930 . S
C1731 C1730 1.394 . S
C1731 C1732 1.383 . S
C1731 H1739 0.929 . S
C1732 C1731 1.383 . S
C1732 C1733 1.377 . S
C1733 H1717 0.930 . S
C1733 C1732 1.377 . S
C1733 C1734 1.379 . S
C1734 H1718 0.931 . S
C1734 C1728 1.383 . S
C1734 C1733 1.379 . S
H1735 C1729 0.959 . S
H1736 C1729 0.961 . S
H1737 C1729 0.960 . S
H1738 C1730 0.930 . S
H1739 C1731 0.929 . S
H1740 C1748 0.929 . S
H1741 C1750 0.930 . S
H1742 C1752 0.930 . S
H1743 C1755 0.929 . S
H1744 C1758 0.930 . S
H1745 C1760 0.960 . S
H1746 C1760 0.960 . S
H1747 C1760 0.960 . S
C1748 H1740 0.929 . S
C1748 C1749 1.377 . S
C1748 C1750 1.384 . S
C1749 C1748 1.377 . S
C1749 C1755 1.390 . S
C1750 H1741 0.930 . S
C1750 C1748 1.384 . S
C1750 C1751 1.372 . S
C1751 C1750 1.372 . S
C1751 C1752 1.400 . S
C1751 C1756 1.490 . S
C1752 H1742 0.930 . S
C1752 C1751 1.400 . S
C1752 C1755 1.386 . S
H1753 C1769 0.930 . S
H1754 C1770 0.931 . S
C1755 H1743 0.929 . S
C1755 C1749 1.390 . S
C1755 C1752 1.386 . S
C1756 C1751 1.490 . S
C1756 C1758 1.395 . S
C1756 C1759 1.403 . S
H1757 C1763 0.930 . S
C1758 H1744 0.930 . S
C1758 C1756 1.395 . S
C1758 C1761 1.403 . S
C1759 C1756 1.403 . S
C1759 C1760 1.524 . S
C1759 C1763 1.400 . S
C1760 H1745 0.960 . S
C1760 H1746 0.960 . S
C1760 H1747 0.960 . S
C1760 C1759 1.524 . S
C1761 C1758 1.403 . S
C1761 C1762 1.392 . S
C1761 C1765 1.495 . S
C1762 C1761 1.392 . S
C1762 C1763 1.385 . S
C1762 C1764 1.478 . S
C1763 H1757 0.930 . S
C1763 C1759 1.400 . S
C1763 C1762 1.385 . S
C1764 C1762 1.478 . S
C1764 C1766 1.381 . S
C1764 C1770 1.383 . S
C1765 C1761 1.495 . S
C1765 H1771 0.959 . S
C1765 H1772 0.961 . S
C1765 H1773 0.960 . S
C1766 C1764 1.381 . S
C1766 C1767 1.394 . S
C1766 H1774 0.930 . S
C1767 C1766 1.394 . S
C1767 C1768 1.383 . S
C1767 H1775 0.929 . S
C1768 C1767 1.383 . S
C1768 C1769 1.377 . S
C1769 H1753 0.930 . S
C1769 C1768 1.377 . S
C1769 C1770 1.379 . S
C1770 H1754 0.931 . S
C1770 C1764 1.383 . S
C1770 C1769 1.379 . S
H1771 C1765 0.959 . S
H1772 C1765 0.961 . S
H1773 C1765 0.960 . S
H1774 C1766 0.930 . S
H1775 C1767 0.929 . S
C489 C9 0.978 . S
C508 C329 0.976 . S
C525 C49 0.979 . S
C544 C369 0.981 . S
C561 C89 0.982 . S
C580 C409 0.958 . S
C597 C449 0.978 . S
C616 C129 0.969 . S
C633 C169 0.979 . S
C652 C249 0.956 . S
C669 C289 0.979 . S
C688 C209 0.958 . S
C705 C415 1.576 . S
C724 C15 1.598 . S
C741 C455 1.575 . S
C760 C55 1.593 . S
C777 C95 1.568 . S
C796 C255 1.566 . S
C813 C295 1.569 . S
C832 C135 1.574 . S
C849 C335 1.574 . S
C868 C175 1.585 . S
C885 C215 1.568 . S
C904 C375 1.567 . S
C921 C299 4.144 . S
C940 C19 4.135 . S
C957 C339 4.145 . S
C976 C59 4.130 . S
C993 C379 4.146 . S
C1012 C99 4.129 . S
C1029 C139 4.143 . S
C1048 C419 4.137 . S
C1065 C179 4.142 . S
C1084 C459 4.143 . S
C1101 C219 4.143 . S
C1120 C259 4.146 . S
C1137 C18 0.857 . S
C1156 C138 0.921 . S
C1173 C58 0.865 . S
C1192 C178 0.893 . S
C1209 C98 0.863 . S
C1228 C218 0.813 . S
C1245 C378 0.864 . S
C1264 C258 0.812 . S
C1281 C298 0.858 . S
C1300 C418 0.825 . S
C1317 C458 0.866 . S
C1336 C338 0.892 . S
C1353 C286 0.717 . S
C1372 C6 0.688 . S
C1389 C326 0.717 . S
C1408 C46 0.695 . S
C1425 C86 0.726 . S
C1444 C366 0.746 . S
C1461 C406 0.738 . S
C1480 C126 0.785 . S
C1497 C446 0.736 . S
C1516 C166 0.785 . S
C1533 C206 0.720 . S
C1552 C246 0.714 . S
C1569 C10 4.717 . S
C1588 C410 4.709 . S
C1605 C50 4.717 . S
C1624 C450 4.710 1_556 S
C1641 C90 4.717 1_554 S
C1660 C250 4.713 . S
C1677 C130 4.716 . S
C1696 C290 4.713 . S
C1713 C170 4.717 . S
C1732 C330 4.711 1_556 S
C1749 C370 4.717 . S
C1768 C210 4.713 1_554 S
