# Generated by pormake.
# Topology xbj, (5)-cn, num edge types: 1
# Building blocks:
#     Node 0, Type 0, BuildingBlock: XOMCOT_clean_sbu_1, # of connection points: 5
#     Node 1, Type 0, BuildingBlock: XOMCOT_clean_sbu_1, # of connection points: 5
#     Node 2, Type 0, BuildingBlock: XOMCOT_clean_sbu_1, # of connection points: 5
#     Node 3, Type 0, BuildingBlock: XOMCOT_clean_sbu_1, # of connection points: 5
#     Node 4, Type 0, BuildingBlock: XOMCOT_clean_sbu_1, # of connection points: 5
#     Node 5, Type 0, BuildingBlock: XOMCOT_clean_sbu_1, # of connection points: 5
#     Node 6, Type 0, BuildingBlock: XOMCOT_clean_sbu_1, # of connection points: 5
#     Node 7, Type 0, BuildingBlock: XOMCOT_clean_sbu_1, # of connection points: 5
#     Edge 8, Type (0, 0), BuildingBlock: KIFKEQ_clean_linker_1, # of connection points: 2
#     Edge 9, Type (0, 0), BuildingBlock: KIFKEQ_clean_linker_1, # of connection points: 2
#     Edge 10, Type (0, 0), BuildingBlock: KIFKEQ_clean_linker_1, # of connection points: 2
#     Edge 11, Type (0, 0), BuildingBlock: KIFKEQ_clean_linker_1, # of connection points: 2
#     Edge 12, Type (0, 0), BuildingBlock: KIFKEQ_clean_linker_1, # of connection points: 2
#     Edge 13, Type (0, 0), BuildingBlock: KIFKEQ_clean_linker_1, # of connection points: 2
#     Edge 14, Type (0, 0), BuildingBlock: KIFKEQ_clean_linker_1, # of connection points: 2
#     Edge 15, Type (0, 0), BuildingBlock: KIFKEQ_clean_linker_1, # of connection points: 2
#     Edge 16, Type (0, 0), BuildingBlock: KIFKEQ_clean_linker_1, # of connection points: 2
#     Edge 17, Type (0, 0), BuildingBlock: KIFKEQ_clean_linker_1, # of connection points: 2
#     Edge 18, Type (0, 0), BuildingBlock: KIFKEQ_clean_linker_1, # of connection points: 2
#     Edge 19, Type (0, 0), BuildingBlock: KIFKEQ_clean_linker_1, # of connection points: 2
#     Edge 20, Type (0, 0), BuildingBlock: KIFKEQ_clean_linker_1, # of connection points: 2
#     Edge 21, Type (0, 0), BuildingBlock: KIFKEQ_clean_linker_1, # of connection points: 2
#     Edge 22, Type (0, 0), BuildingBlock: KIFKEQ_clean_linker_1, # of connection points: 2
#     Edge 23, Type (0, 0), BuildingBlock: KIFKEQ_clean_linker_1, # of connection points: 2
#     Edge 24, Type (0, 0), BuildingBlock: KIFKEQ_clean_linker_1, # of connection points: 2
#     Edge 25, Type (0, 0), BuildingBlock: KIFKEQ_clean_linker_1, # of connection points: 2
#     Edge 26, Type (0, 0), BuildingBlock: KIFKEQ_clean_linker_1, # of connection points: 2
#     Edge 27, Type (0, 0), BuildingBlock: KIFKEQ_clean_linker_1, # of connection points: 2
# Relax obj value: 0.190
# Max RMSD: 0.169
# Mean RMSD: 0.162
data_MOF--net-xbj--node1-XOMCOT_clean_sbu_1--edge1-KIFKEQ_clean_linker_1
_symmetry_space_group_name_H-M    P1
_symmetry_Int_Tables_number       1
_symmetry_cell_setting            triclinic
loop_
_symmetry_equiv_pos_as_xyz
'x, y, z'
_cell_length_a     17.784924
_cell_length_b     17.790917
_cell_length_c     110.14024
_cell_angle_alpha  96.018317
_cell_angle_beta   96.087967
_cell_angle_gamma 89.976282
loop_
_atom_site_label
_atom_site_type_symbol
_atom_site_fract_x
_atom_site_fract_y
_atom_site_fract_z
_atom_type_partial_charge
C0 C 0.16251 0.95493 0.04784 0.0
C1 C 0.23969 0.96478 0.04836 0.0
N2 N 0.26711 0.91029 0.04062 0.0
N3 N 0.14085 0.89415 0.03988 0.0
C4 C 0.20573 0.86886 0.03552 0.0
H5 H 0.12489 0.98988 0.05303 0.0
Co6 Co 0.04233 0.85426 0.03585 0.0
C7 C 0.07936 0.69276 0.03861 0.0
O8 O 0.03026 0.68496 0.04651 0.0
N9 N 0.94308 0.81535 0.03176 0.0
C10 C 0.84202 0.74472 0.0243 0.0
C11 C 0.91968 0.74908 0.02536 0.0
C12 C 0.87815 0.85052 0.03434 0.0
N13 N 0.81564 0.80863 0.02996 0.0
O14 O 0.03424 0.84401 0.05275 0.0
H15 H 0.95621 0.70625 0.02159 0.0
H16 H 0.87662 0.90664 0.03911 0.0
O17 O 0.08547 0.75525 0.03411 0.0
C18 C 1.00529 0.89556 0.05963 0.0
O19 O 0.98344 0.9585 0.05512 0.0
N20 N 0.04919 0.86576 0.01929 0.0
C21 C 0.06033 0.89563 -0.00484 0.0
C22 C 0.06427 0.82141 -0.00164 0.0
C23 C 0.05858 0.80759 0.01045 0.0
C24 C 0.04361 0.93812 0.01635 0.0
C25 C 0.04926 0.95445 0.00433 0.0
H26 H 0.06181 0.74981 0.01257 0.0
H27 H 0.03578 0.98348 0.02343 0.0
H28 H 0.20759 0.82171 0.02855 0.0
H29 H 0.27302 1.00796 0.05419 0.0
H30 H 0.80781 0.69749 0.0198 0.0
H31 H 0.07149 0.77415 -0.00845 0.0
H32 H 0.04676 1.01276 0.00233 0.0
C33 C 0.46046 0.88011 0.29969 0.0
C34 C 0.45005 0.95719 0.30054 0.0
N35 N 0.51496 0.99048 0.29852 0.0
N36 N 0.53141 0.8644 0.29706 0.0
C37 C 0.56346 0.93303 0.29648 0.0
H38 H 0.41814 0.8378 0.3005 0.0
Co39 Co 0.56519 0.76525 0.29333 0.0
C40 C 0.72736 0.79171 0.29009 0.0
O41 O 0.75263 0.74081 0.29729 0.0
N42 N 0.59702 0.66506 0.28957 0.0
C43 C 0.63448 0.56058 0.27907 0.0
C44 C 0.63147 0.63811 0.27968 0.0
C45 C 0.58015 0.60263 0.29489 0.0
N46 N 0.60214 0.53817 0.28862 0.0
O47 O 0.61013 0.7628 0.30983 0.0
H48 H 0.64963 0.67233 0.27295 0.0
H49 H 0.54826 0.6041 0.30275 0.0
O50 O 0.65679 0.80407 0.28835 0.0
C51 C 0.65029 0.80565 0.318 0.0
O52 O 0.67246 0.87251 0.31565 0.0
N53 N 0.51792 0.7648 0.27729 0.0
C54 C 0.4535 0.74696 0.25295 0.0
C55 C 0.50567 0.80557 0.25713 0.0
C56 C 0.53694 0.81377 0.26934 0.0
C57 C 0.46413 0.71024 0.27361 0.0
C58 C 0.43174 0.69972 0.26143 0.0
H59 H 0.57674 0.85927 0.27235 0.0
H60 H 0.4482 0.67293 0.28007 0.0
H61 H 0.62011 0.94086 0.29408 0.0
H62 H 0.3983 0.98643 0.3023 0.0
H63 H 0.65669 0.52324 0.27193 0.0
H64 H 0.52191 0.84528 0.25104 0.0
H65 H 0.3913 0.65407 0.25865 0.0
C66 C 0.70856 0.43847 0.54781 0.0
C67 C 0.78593 0.44815 0.54918 0.0
N68 N 0.81781 0.38027 0.54675 0.0
N69 N 0.69135 0.36486 0.54452 0.0
C70 C 0.75919 0.33081 0.54403 0.0
H71 H 0.66719 0.48242 0.54905 0.0
Co72 Co 0.59229 0.32564 0.5416 0.0
C73 C 0.65627 0.18682 0.52735 0.0
O74 O 0.68772 0.15106 0.5364 0.0
N75 N 0.49249 0.28711 0.53893 0.0
C76 C 0.38974 0.21637 0.53263 0.0
C77 C 0.46588 0.22395 0.53189 0.0
C78 C 0.43114 0.31624 0.54398 0.0
N79 N 0.36769 0.27462 0.54019 0.0
O80 O 0.61243 0.26187 0.55432 0.0
H81 H 0.49886 0.18515 0.52649 0.0
H82 H 0.43308 0.3668 0.55039 0.0
O83 O 0.62244 0.24899 0.52951 0.0
C84 C 0.61673 0.2947 0.5652 0.0
O85 O 0.61378 0.36884 0.5668 0.0
N86 N 0.57084 0.39 0.52924 0.0
C87 C 0.52969 0.48023 0.5105 0.0
C88 C 0.58857 0.42838 0.50953 0.0
C89 C 0.60899 0.3846 0.51906 0.0
C90 C 0.51688 0.44372 0.53072 0.0
C91 C 0.49486 0.48924 0.52139 0.0
H92 H 0.65599 0.34669 0.5182 0.0
H93 H 0.49045 0.45127 0.53914 0.0
H94 H 0.76594 0.27086 0.54191 0.0
H95 H 0.81618 0.50134 0.55152 0.0
H96 H 0.35306 0.17221 0.52772 0.0
H97 H 0.6194 0.4223 0.50152 0.0
H98 H 0.45046 0.53016 0.5226 0.0
C99 C 0.94345 0.373 0.80601 0.0
C100 C 0.93653 0.45043 0.80748 0.0
N101 N 0.98952 0.4809 0.80154 0.0
N102 N 1.00033 0.3545 0.79914 0.0
C103 C 1.02723 0.42144 0.79652 0.0
H104 H 0.90931 0.33249 0.80972 0.0
Co105 Co 1.02809 0.25489 0.79487 0.0
C106 C 0.17941 0.26606 0.7865 0.0
O107 O 0.20603 0.21824 0.79418 0.0
N108 N 0.05389 0.15365 0.79061 0.0
C109 C 0.08137 0.04793 0.77943 0.0
C110 C 0.07399 0.12468 0.7796 0.0
C111 C 0.0484 0.09293 0.79692 0.0
N112 N 0.0652 1.02755 0.79031 0.0
O113 O 0.0913 0.25603 0.8103 0.0
H114 H 0.08001 0.157 0.77197 0.0
H115 H 0.03077 0.09662 0.80607 0.0
O116 O 0.1111 0.28786 0.78652 0.0
C117 C 0.14145 0.30299 0.81567 0.0
O118 O 0.16081 0.36108 0.8102 0.0
N119 N 0.9633 0.25232 0.78027 0.0
C120 C 0.87889 0.22153 0.75759 0.0
C121 C 0.93093 0.28175 0.75962 0.0
C122 C 0.97282 0.29633 0.77109 0.0
C123 C 0.90769 0.19847 0.77879 0.0
C124 C 0.86564 0.18113 0.76742 0.0
H125 H 1.01475 0.34104 0.77239 0.0
H126 H 0.89934 0.1655 0.78626 0.0
H127 H 0.07324 0.42662 0.79097 0.0
H128 H 0.89638 0.48184 0.8127 0.0
H129 H 0.09409 1.00975 0.77162 0.0
H130 H 0.94191 0.31468 0.75225 0.0
H131 H 0.82468 0.13518 0.76622 0.0
C132 C 0.14704 0.38979 0.92519 0.0
C133 C 0.07032 0.40109 0.92473 0.0
N134 N 0.03678 0.33499 0.92598 0.0
N135 N 0.16229 0.31691 0.92671 0.0
C136 C 0.09357 0.28495 0.92721 0.0
H137 H 0.18948 0.43294 0.92496 0.0
Co138 Co 0.26209 0.28316 0.92962 0.0
C139 C 0.19141 0.12884 0.92351 0.0
O140 O 0.15819 0.14047 0.91264 0.0
N141 N 0.36233 0.25161 0.93273 0.0
C142 C 0.46449 0.19963 0.94174 0.0
C143 C 0.38696 0.20331 0.94093 0.0
C144 C 0.42608 0.27612 0.92859 0.0
N145 N 0.48899 0.24531 0.93396 0.0
O146 O 0.2671 0.26378 0.91239 0.0
H147 H 0.35101 0.17465 0.94634 0.0
H148 H 0.42687 0.31816 0.92219 0.0
O149 O 0.2298 0.18118 0.93011 0.0
C150 C 0.28384 0.31801 0.90647 0.0
O151 O 0.30187 0.38415 0.91256 0.0
N152 N 0.2562 0.30445 0.94652 0.0
C153 C 0.24129 0.35262 0.97105 0.0
C154 C 0.20139 0.28899 0.96509 0.0
C155 C 0.20921 0.26606 0.95282 0.0
C156 C 0.29711 0.36524 0.95221 0.0
C157 C 0.29082 0.39017 0.96453 0.0
H158 H 0.17508 0.21893 0.94837 0.0
H159 H 0.33312 0.39576 0.94705 0.0
H160 H 0.08502 0.2277 0.92923 0.0
H161 H 0.04151 0.45413 0.92382 0.0
H162 H 0.5003 0.16676 0.94771 0.0
H163 H 0.16285 0.2582 0.9698 0.0
H164 H 0.32179 0.44032 0.96872 0.0
C165 C 0.87556 0.74773 0.17556 0.0
C166 C 0.86596 0.67152 0.17609 0.0
N167 N 0.93242 0.63736 0.17455 0.0
N168 N 0.9477 0.76162 0.17374 0.0
C169 C 0.98098 0.69329 0.17307 0.0
H170 H 0.83281 0.79059 0.1765 0.0
Co171 Co 0.98456 0.85725 0.17238 0.0
C172 C 0.14932 0.85735 0.18033 0.0
O173 O 0.14598 0.92963 0.18413 0.0
N174 N 1.0189 0.95549 0.17042 0.0
C175 C 0.07544 0.0457 0.16196 0.0
C176 C 0.06712 0.96931 0.16218 0.0
C177 C 0.99766 1.0252 0.17491 0.0
N178 N 0.03164 0.08108 0.16997 0.0
O179 O 0.98661 0.83126 0.15524 0.0
H180 H 0.09427 0.92626 0.15653 0.0
H181 H 0.95724 0.03544 0.1815 0.0
O182 O 0.08949 0.82212 0.17522 0.0
C183 C 0.9306 0.84728 0.14784 0.0
O184 O 0.87025 0.87681 0.1523 0.0
N185 N 0.97913 0.88057 0.1895 0.0
C186 C 0.94728 0.89023 0.21397 0.0
C187 C 1.0091 0.84921 0.21016 0.0
C188 C 1.02268 0.84335 0.19791 0.0
C189 C 0.91838 0.92089 0.19305 0.0
C190 C 0.90219 0.92772 0.20531 0.0
H191 H 0.06446 0.80327 0.19522 0.0
H192 H 0.87941 0.94391 0.18621 0.0
H193 H 0.03909 0.68441 0.17129 0.0
H194 H 0.81432 0.64362 0.17765 0.0
H195 H 0.10904 0.07281 0.156 0.0
H196 H 0.04449 0.81807 0.21648 0.0
H197 H 0.85219 0.95782 0.20779 0.0
C198 C 0.46335 0.83886 0.39983 0.0
C199 C 0.38566 0.84064 0.39802 0.0
N200 N 0.35743 0.79145 0.40495 0.0
N201 N 0.48461 0.78896 0.4079 0.0
C202 C 0.41894 0.76039 0.41076 0.0
H203 H 0.50202 0.87248 0.39564 0.0
Co204 Co 0.58478 0.7666 0.41345 0.0
C205 C 0.57969 0.7609 0.43997 0.0
O206 O 0.64029 0.80454 0.44208 0.0
N207 N 0.68637 0.73924 0.4183 0.0
C208 C 0.7851 0.6759 0.42612 0.0
C209 C 0.70882 0.68764 0.42608 0.0
C210 C 0.7499 0.75312 0.41303 0.0
N211 N 0.81149 0.71777 0.41797 0.0
O212 O 0.56707 0.66406 0.40685 0.0
H213 H 0.67178 0.65695 0.43102 0.0
H214 H 0.75051 0.78697 0.40545 0.0
O215 O 0.55242 0.73983 0.42892 0.0
C216 C 0.58815 0.62452 0.39753 0.0
O217 O 0.57094 0.55208 0.39601 0.0
N218 N 0.60071 0.8701 0.42066 0.0
C219 C 0.63681 0.9897 0.4387 0.0
C220 C 0.56281 0.96183 0.43643 0.0
C221 C 0.54575 0.902 0.42734 0.0
C222 C 0.66822 0.90763 0.42112 0.0
C223 C 0.68886 0.96569 0.43048 0.0
H224 H 0.49102 0.87535 0.427 0.0
H225 H 0.70891 0.89008 0.41492 0.0
H226 H 0.41654 0.7189 0.41722 0.0
H227 H 0.35282 0.87549 0.39199 0.0
H228 H 0.81779 0.63701 0.43143 0.0
H229 H 0.52091 0.97971 0.44257 0.0
H230 H 0.74609 0.98811 0.43175 0.0
C231 C 0.33063 1.02084 0.66518 0.0
C232 C 0.32017 0.9441 0.66273 0.0
N233 N 0.38172 0.91414 0.65799 0.0
N234 N 0.39949 0.0404 0.66237 0.0
C235 C 0.42767 0.97443 0.65745 0.0
H236 H 0.2908 0.05978 0.66909 0.0
Co237 Co 0.43793 0.14131 0.66491 0.0
C238 C 0.57268 0.0586 0.67759 0.0
O239 O 0.54825 0.98864 0.67507 0.0
N240 N 0.47349 0.24245 0.66714 0.0
C241 C 0.52612 0.35017 0.67614 0.0
C242 C 0.51768 0.27441 0.67705 0.0
C243 C 0.45519 0.30061 0.66037 0.0
N244 N 0.48682 0.36728 0.66565 0.0
O245 O 0.48278 0.12656 0.64998 0.0
H246 H 0.53897 0.24553 0.68484 0.0
H247 H 0.41775 0.2943 0.65191 0.0
O248 O 0.53294 0.11306 0.67384 0.0
C249 C 0.44316 0.12181 0.63962 0.0
O250 O 0.36907 0.12271 0.63925 0.0
N251 N 0.39395 0.1581 0.67982 0.0
C252 C 0.34738 0.20145 0.70287 0.0
C253 C 0.39084 0.13655 0.70088 0.0
C254 C 0.41279 0.11535 0.68927 0.0
C255 C 0.34652 0.21791 0.68132 0.0
C256 C 0.32277 0.24092 0.69283 0.0
H257 H 0.44572 0.06492 0.68795 0.0
H258 H 0.32988 0.2501 0.67369 0.0
H259 H 0.48174 0.97063 0.65378 0.0
H260 H 0.27194 0.9128 0.66484 0.0
H261 H 0.55573 0.39017 0.68309 0.0
H262 H 0.4084 0.10275 0.70829 0.0
H263 H 0.28815 0.29074 0.69396 0.0
H264 H 0.93711 0.9907 0.07606 0.0
H265 H 0.04721 0.7742 0.0721 0.0
H266 H 0.91662 0.97182 0.09703 0.0
H267 H 1.02562 0.75489 0.0931 0.0
H268 H 0.05218 0.80035 0.13585 0.0
H269 H 0.06878 0.8076 0.11431 0.0
H270 H 0.84165 0.89197 0.10814 0.0
H271 H 0.8253 0.88581 0.1297 0.0
C272 C 0.95683 0.93897 0.07965 0.0
C273 C 0.99389 0.88402 0.07241 0.0
C274 C 0.94449 0.92787 0.09165 0.0
C275 C 0.96904 0.86163 0.0967 0.0
C276 C 1.00647 0.80674 0.08949 0.0
C277 C 1.01861 0.81772 0.07745 0.0
C278 C 1.00544 0.8196 0.12987 0.0
C279 C 0.93758 0.84304 0.13452 0.0
C280 C 1.01491 0.8235 0.11751 0.0
C281 C 0.9568 0.85107 0.10955 0.0
C282 C 0.88796 0.87175 0.1141 0.0
C283 C 0.87843 0.86772 0.12644 0.0
H284 H 0.59585 0.77339 0.39299 0.0
H285 H 0.67117 0.5504 0.38085 0.0
H286 H 0.63194 0.81983 0.37442 0.0
H287 H 0.71225 0.59742 0.36267 0.0
H288 H 0.62805 0.66535 0.3246 0.0
H289 H 0.6362 0.62645 0.34501 0.0
H290 H 0.71848 0.84895 0.36018 0.0
H291 H 0.70774 0.88908 0.33946 0.0
C292 C 0.62143 0.73468 0.38649 0.0
C293 C 0.62729 0.65764 0.38812 0.0
C294 C 0.6433 0.76149 0.37588 0.0
C295 C 0.67286 0.71176 0.36682 0.0
C296 C 0.68703 0.63668 0.36923 0.0
C297 C 0.66376 0.60976 0.37968 0.0
C298 C 0.64872 0.70603 0.33224 0.0
C299 C 0.66622 0.78068 0.3304 0.0
C300 C 0.65433 0.68335 0.344 0.0
C301 C 0.67812 0.73448 0.35431 0.0
C302 C 0.69922 0.80836 0.35246 0.0
C303 C 0.69348 0.83123 0.34059 0.0
H304 H 0.65869 0.34175 0.58918 0.0
H305 H 0.5621 0.15089 0.56512 0.0
H306 H 0.62827 0.28166 0.60694 0.0
H307 H 0.5313 0.09051 0.58299 0.0
H308 H 0.5928 0.1468 0.63765 0.0
H309 H 0.64988 0.17134 0.61924 0.0
H310 H 0.4342 0.12975 0.59758 0.0
H311 H 0.37698 0.10496 0.61594 0.0
C312 C 0.6325 0.2861 0.58772 0.0
C313 C 0.61213 0.25129 0.57579 0.0
C314 C 0.61548 0.25145 0.59789 0.0
C315 C 0.57694 0.18162 0.59634 0.0
C316 C 0.56055 0.14463 0.58443 0.0
C317 C 0.57859 0.17893 0.57423 0.0
C318 C 0.55782 0.14143 0.62892 0.0
C319 C 0.48007 0.125 0.62827 0.0
C320 C 0.59057 0.15562 0.6184 0.0
C321 C 0.5464 0.15293 0.607 0.0
C322 C 0.46982 0.1316 0.60622 0.0
C323 C 0.4369 0.11801 0.61676 0.0
H324 H 0.25448 0.18842 0.89088 0.0
H325 H 0.29412 0.42836 0.89135 0.0
H326 H 0.23128 0.17714 0.86851 0.0
H327 H 0.26822 0.4178 0.86917 0.0
H328 H 0.26378 0.37752 0.82853 0.0
H329 H 0.30973 0.37351 0.85008 0.0
H330 H 0.13549 0.2095 0.85328 0.0
H331 H 0.09172 0.2113 0.83163 0.0
C332 C 0.2586 0.23866 0.88621 0.0
C333 C 0.27588 0.30932 0.89289 0.0
C334 C 0.24482 0.23231 0.87339 0.0
C335 C 0.24748 0.29659 0.867 0.0
C336 C 0.26685 0.3668 0.87371 0.0
C337 C 0.28122 0.37299 0.88648 0.0
C338 C 0.2359 0.33994 0.83381 0.0
C339 C 0.17371 0.29525 0.8284 0.0
C340 C 0.26196 0.33793 0.84619 0.0
C341 C 0.22582 0.29187 0.8535 0.0
C342 C 0.16536 0.24503 0.84794 0.0
C343 C 0.13987 0.2464 0.83552 0.0
H344 H 0.21305 0.69225 0.02896 0.0
H345 H 0.03172 0.54478 0.03518 0.0
H346 H 0.26041 0.59412 0.01494 0.0
H347 H 0.08082 0.44416 0.02135 0.0
H348 H 0.10427 0.3678 0.97991 0.0
H349 H 0.07586 0.43317 -0.0007 0.0
H350 H 0.31452 0.47355 0.01001 0.0
H351 H 0.34289 0.4086 -0.00963 0.0
C352 C 0.18446 0.63798 0.02756 0.0
C353 C 0.11778 0.62676 0.03292 0.0
C354 C 0.21216 0.58113 0.01961 0.0
C355 C 0.17377 0.51145 0.01685 0.0
C356 C 0.11088 0.49777 0.02312 0.0
C357 C 0.08314 0.55502 0.03112 0.0
C358 C 0.15091 0.38886 -0.01348 0.0
C359 C 0.22583 0.38366 -0.01644 0.0
C360 C 0.13461 0.42612 -0.0023 0.0
C361 C 0.19285 0.45899 0.00622 0.0
C362 C 0.26823 0.44984 0.00357 0.0
C363 C 0.28452 0.41286 -0.00768 0.0
H364 H 0.86691 0.74276 0.2844 0.0
H365 H 0.69942 0.91256 0.27704 0.0
H366 H 0.93313 0.77777 0.26748 0.0
H367 H 0.76258 0.94453 0.25981 0.0
H368 H 0.90303 1.00457 0.2304 0.0
H369 H 0.86577 0.99351 0.25095 0.0
H370 H 0.90294 0.75255 0.24591 0.0
H371 H 0.94115 0.76409 0.22573 0.0
C372 C 0.8449 0.78838 0.27932 0.0
C373 C 0.77677 0.82343 0.28185 0.0
C374 C 0.88234 0.80794 0.26953 0.0
C375 C 0.85213 0.86262 0.26205 0.0
C376 C 0.78764 0.90214 0.26531 0.0
C377 C 0.75073 0.88305 0.27514 0.0
C378 C 0.90351 0.94952 0.23378 0.0
C379 C 0.92554 0.88538 0.22651 0.0
C380 C 0.88232 0.94307 0.24553 0.0
C381 C 0.88204 0.87218 0.25017 0.0
C382 C 0.90452 0.80837 0.24285 0.0
C383 C 0.92604 0.81491 0.23121 0.0
H384 H 0.46682 0.65514 0.43927 0.0
H385 H 0.62111 0.8003 0.46427 0.0
H386 H 0.42822 0.59475 0.45659 0.0
H387 H 0.58429 0.73905 0.4814 0.0
H388 H 0.50689 0.4312 0.48618 0.0
H389 H 0.49638 0.50806 0.46912 0.0
H390 H 0.49029 0.70976 0.49456 0.0
H391 H 0.50377 0.63238 0.51172 0.0
C392 C 0.49173 0.6748 0.44846 0.0
C393 C 0.5482 0.73124 0.4504 0.0
C394 C 0.46972 0.64019 0.45837 0.0
C395 C 0.50374 0.66154 0.47036 0.0
C396 C 0.55633 0.72163 0.47232 0.0
C397 C 0.57821 0.75616 0.46246 0.0
C398 C 0.50225 0.49192 0.48811 0.0
C399 C 0.50785 0.52604 0.50026 0.0
C400 C 0.49518 0.53597 0.47832 0.0
C401 C 0.49338 0.61515 0.48049 0.0
C402 C 0.49271 0.6489 0.49262 0.0
C403 C 0.49986 0.60466 0.50244 0.0
H404 H 0.87806 0.08127 0.74535 0.0
H405 H 0.79922 0.30793 0.74172 0.0
H406 H 0.81807 0.0396 0.72484 0.0
H407 H 0.73551 0.26602 0.72138 0.0
H408 H 0.66376 0.18434 0.682 0.0
H409 H 0.74734 0.22333 0.70065 0.0
H410 H 0.69731 1.0136 0.71492 0.0
H411 H 0.61676 0.97412 0.6962 0.0
C412 C 0.84705 0.12193 0.74016 0.0
C413 C 0.84231 0.19749 0.74511 0.0
C414 C 0.81253 0.09815 0.72841 0.0
C415 C 0.77125 0.14917 0.72144 0.0
C416 C 0.76772 0.22529 0.72637 0.0
C417 C 0.80351 0.24932 0.73806 0.0
C418 C 0.67187 0.14628 0.68907 0.0
C419 C 0.63339 0.07651 0.68769 0.0
C420 C 0.71924 0.16877 0.6998 0.0
C421 C 0.72844 0.12217 0.70941 0.0
C422 C 0.69266 0.05074 0.7077 0.0
C423 C 0.64621 1.02796 0.69694 0.0
H424 H 0.30209 0.19001 0.77888 0.0
H425 H 0.14655 0.36694 0.76961 0.0
H426 H 0.34862 0.18773 0.75891 0.0
H427 H 0.19422 0.36567 0.74963 0.0
H428 H 0.2108 0.24685 0.71024 0.0
H429 H 0.18006 0.27833 0.73124 0.0
H430 H 0.41418 0.24877 0.74482 0.0
H431 H 0.44415 0.21565 0.72385 0.0
C432 C 0.27929 0.23001 0.77272 0.0
C433 C 0.21966 0.27771 0.77576 0.0
C434 C 0.3061 0.22879 0.76124 0.0
C435 C 0.2743 0.2757 0.75257 0.0
C436 C 0.21866 0.32753 0.75598 0.0
C437 C 0.19166 0.32856 0.76746 0.0
C438 C 0.2557 0.24815 0.71772 0.0
C439 C 0.32953 0.22772 0.71545 0.0
C440 C 0.23831 0.26657 0.72975 0.0
C441 C 0.29462 0.26557 0.73975 0.0
C442 C 0.36919 0.24863 0.73737 0.0
C443 C 0.38637 0.22966 0.72537 0.0
H444 H 0.29116 0.91055 0.18799 0.0
H445 H 0.15238 0.70907 0.18524 0.0
H446 H 0.37857 0.85978 0.20345 0.0
H447 H 0.24001 0.65822 0.20082 0.0
H448 H 0.30712 0.71108 0.24392 0.0
H449 H 0.24953 0.71205 0.22293 0.0
H450 H 0.46666 0.76339 0.21138 0.0
H451 H 0.52497 0.76114 0.23244 0.0
C452 C 0.28091 0.85407 0.19034 0.0
C453 C 0.21377 0.81485 0.18568 0.0
C454 C 0.33121 0.82477 0.19919 0.0
C455 C 0.31501 0.75585 0.20357 0.0
C456 C 0.25303 0.71217 0.19775 0.0
C457 C 0.20312 0.74115 0.18876 0.0
C458 C 0.34315 0.72031 0.23687 0.0
C459 C 0.42042 0.73736 0.23991 0.0
C460 C 0.31015 0.72049 0.2248 0.0
C461 C 0.35361 0.73801 0.21551 0.0
C462 C 0.43174 0.75033 0.21838 0.0
C463 C 0.46486 0.74973 0.23045 0.0
H464 H 0.60644 0.13439 0.44757 0.0
H465 H 0.71742 0.93073 0.45739 0.0
H466 H 0.62343 0.18763 0.46906 0.0
H467 H 0.72949 0.98027 0.47894 0.0
H468 H 0.7661 0.09787 0.51763 0.0
H469 H 0.77716 0.06008 0.49589 0.0
H470 H 0.56639 0.17218 0.48631 0.0
H471 H 0.55868 0.2134 0.50773 0.0
C472 C 0.63583 0.10186 0.45436 0.0
C473 C 0.6615 0.02918 0.4509 0.0
C474 C 0.64446 0.13147 0.46671 0.0
C475 C 0.67633 0.08773 0.4759 0.0
C476 C 0.70546 1.01631 0.47224 0.0
C477 C 0.69858 0.98769 0.45986 0.0
C478 C 0.72229 0.11401 0.51081 0.0
C479 C 0.66142 0.15819 0.51438 0.0
C480 C 0.72847 0.09246 0.49834 0.0
C481 C 0.67303 0.11346 0.4892 0.0
C482 C 0.61162 0.15665 0.49292 0.0
C483 C 0.60644 0.1794 0.50529 0.0
H484 H 0.16009 0.83023 0.98006 0.0
H485 H 0.9841 0.99748 -0.01849 0.0
H486 H 0.18404 0.86314 0.9599 0.0
H487 H 1.01023 0.03246 0.96154 0.0
H488 H 0.04988 0.06998 0.9236 0.0
H489 H 1.00964 0.99496 0.93925 0.0
H490 H 0.24294 0.97554 0.95407 0.0
H491 H 0.2824 0.04931 0.93845 0.0
C492 C 0.12564 0.8732 0.976 0.0
C493 C 0.07058 0.91173 -0.01754 0.0
C494 C 0.13975 0.89235 0.96447 0.0
C495 C 0.09925 0.95054 0.95913 0.0
C496 C 0.04185 0.98673 0.96533 0.0
C497 C 1.02771 0.96756 0.97687 0.0
C498 C 0.09248 0.04659 0.92987 0.0
C499 C 0.16917 0.06507 0.92986 0.0
C500 C 0.06949 1.00468 0.93893 0.0
C501 C 0.12302 0.98015 0.94799 0.0
C502 C 0.20023 0.99296 0.9472 0.0
C503 C 0.22297 0.03527 0.93826 0.0
H504 H 0.75948 0.90332 0.0478 0.0
H505 H 0.69255 0.75576 0.01475 0.0
H506 H 0.62671 0.92939 0.05016 0.0
H507 H 0.56032 0.78191 0.01706 0.0
H508 H 0.33114 0.77816 0.03241 0.0
H509 H 0.46359 0.75586 0.02969 0.0
H510 H 0.51535 0.99091 0.04159 0.0
H511 H 0.38277 1.01316 0.04435 0.0
C512 C 0.71664 0.87708 0.04095 0.0
C513 C 0.73713 0.82702 0.03112 0.0
C514 C 0.64029 0.89204 0.04231 0.0
C515 C 0.58232 0.85744 0.03385 0.0
C516 C 0.60303 0.80842 0.02391 0.0
C517 C 0.67918 0.79344 0.02257 0.0
C518 C 0.37037 0.82539 0.03432 0.0
C519 C 0.34563 0.89754 0.03861 0.0
C520 C 0.44669 0.81258 0.03276 0.0
C521 C 0.50067 0.87152 0.03542 0.0
C522 C 0.47588 0.94379 0.03964 0.0
C523 C 0.39953 0.9566 0.0412 0.0
H524 H 0.55203 0.42496 0.27148 0.0
H525 H 0.61832 0.47636 0.31025 0.0
H526 H 0.53033 0.29265 0.27448 0.0
H527 H 0.59847 0.34259 0.31326 0.0
H528 H 0.64269 0.07318 0.30615 0.0
H529 H 0.66257 0.20862 0.30458 0.0
H530 H 0.4351 0.22245 0.28704 0.0
H531 H 0.41482 0.08817 0.28886 0.0
C532 C 0.56215 0.40773 0.28065 0.0
C533 C 0.58693 0.46089 0.29063 0.0
C534 C 0.5495 0.33211 0.28237 0.0
C535 C 0.56295 0.3072 0.29409 0.0
C536 C 0.58802 0.36018 0.30411 0.0
C537 C 0.59888 0.43659 0.30242 0.0
C538 C 0.59704 0.10539 0.302 0.0
C539 C 0.52717 0.07007 0.29766 0.0
C540 C 0.60818 0.18286 0.30118 0.0
C541 C 0.5503 0.22611 0.29571 0.0
C542 C 0.4807 0.19061 0.29131 0.0
C543 C 0.46901 0.11382 0.29239 0.0
H544 H 0.30406 0.41215 0.54459 0.0
H545 H 0.25725 0.1727 0.54166 0.0
H546 H 0.17096 0.43801 0.54684 0.0
H547 H 0.12489 0.198 0.54413 0.0
H548 H 0.88178 0.26624 0.5332 0.0
H549 H 1.01588 0.2414 0.5326 0.0
H550 H 0.06998 0.43328 0.55956 0.0
H551 H 0.93543 0.45859 0.56002 0.0
C552 C 0.26559 0.3651 0.54466 0.0
C553 C 0.29109 0.29039 0.54284 0.0
C554 C 0.18919 0.37981 0.54594 0.0
C555 C 0.1366 0.32009 0.54552 0.0
C556 C 0.16307 0.24546 0.54419 0.0
C557 C 0.23912 0.23086 0.54282 0.0
C558 C 0.92213 0.30266 0.53911 0.0
C559 C 0.89755 0.36439 0.54667 0.0
C560 C 0.99931 0.28838 0.53878 0.0
C561 C 0.05422 0.33515 0.54606 0.0
C562 C 0.02958 0.39666 0.55369 0.0
C563 C 0.95229 0.41115 0.55397 0.0
H564 H 0.97972 0.9739 0.80672 0.0
H565 H 0.14047 0.90609 0.78101 0.0
H566 H 0.96526 0.8423 0.8106 0.0
H567 H 0.12317 0.77503 0.78435 0.0
H568 H 0.12321 0.54876 0.79938 0.0
H569 H 0.14618 0.68264 0.79811 0.0
H570 H 0.90909 0.72713 0.80063 0.0
H571 H 0.88686 0.59351 0.80216 0.0
C572 C 1.01239 0.9312 0.80196 0.0
C573 C 0.06072 0.95085 0.79346 0.0
C574 C 1.00338 0.85545 0.80406 0.0
C575 C 0.0425 0.79751 0.79771 0.0
C576 C 0.09253 0.81773 0.78951 0.0
C577 C 0.10172 0.89318 0.78746 0.0
C578 C 0.07601 0.58711 0.79961 0.0
C579 C 1.00316 0.56028 0.80082 0.0
C580 C 0.08909 0.66403 0.79889 0.0
C581 C 0.0295 0.71615 0.79924 0.0
C582 C 0.95672 0.68921 0.80055 0.0
C583 C 0.94381 0.61238 0.80137 0.0
H584 H 0.95228 0.21225 0.9164 0.0
H585 H 0.94225 0.42932 0.93761 0.0
H586 H 0.81652 0.19221 0.91772 0.0
H587 H 0.80758 0.40845 0.93921 0.0
H588 H 0.60387 0.26948 0.95196 0.0
H589 H 0.73724 0.29236 0.94963 0.0
H590 H 0.68426 0.2771 0.91031 0.0
H591 H 0.54979 0.2564 0.9127 0.0
C592 C 0.92104 0.25538 0.92137 0.0
C593 C 0.95753 0.32242 0.92686 0.0
C594 C 0.84358 0.2442 0.92205 0.0
C595 C 0.80186 0.29901 0.92852 0.0
C596 C 0.83855 0.36552 0.93414 0.0
C597 C 0.91536 0.3775 0.9332 0.0
C598 C 0.62078 0.27129 0.94283 0.0
C599 C 0.56677 0.26122 0.9325 0.0
C600 C 0.69683 0.28451 0.94151 0.0
C601 C 0.72081 0.2861 0.9298 0.0
C602 C 0.66703 0.27575 0.91943 0.0
C603 C 0.59038 0.26444 0.92079 0.0
H604 H 0.90848 0.15298 0.17811 0.0
H605 H 0.12803 0.19274 0.1664 0.0
H606 H 0.88633 0.28852 0.18029 0.0
H607 H 0.10427 0.32762 0.16795 0.0
H608 H 0.06568 0.57296 0.18171 0.0
H609 H 0.09122 0.43824 0.18182 0.0
H610 H 0.85952 0.38688 0.16725 0.0
H611 H 0.83406 0.52133 0.16735 0.0
C612 C 0.95229 0.19044 0.17607 0.0
C613 C 1.01988 0.16156 0.17199 0.0
C614 C 0.93916 0.26827 0.17717 0.0
C615 C 0.9932 0.31914 0.17419 0.0
C616 C 0.06157 0.29036 0.17042 0.0
C617 C 0.0748 0.21269 0.16938 0.0
C618 C 1.02043 0.53279 0.17847 0.0
C619 C 0.94788 0.55781 0.17451 0.0
C620 C 0.03497 0.45555 0.17854 0.0
C621 C 0.97739 0.40152 0.17457 0.0
C622 C 0.90485 0.42677 0.17061 0.0
C623 C 0.89025 0.50393 0.17062 0.0
H624 H 0.864 0.76529 0.39758 0.0
H625 H 0.93763 0.6859 0.43263 0.0
H626 H 0.99575 0.78017 0.39387 0.0
H627 H 0.06846 0.69992 0.42883 0.0
H628 H 0.29562 0.66892 0.41329 0.0
H629 H 0.16307 0.64771 0.4158 0.0
H630 H 0.10593 0.86076 0.40189 0.0
H631 H 0.23807 0.88257 0.39949 0.0
C632 C 0.90786 0.75107 0.40451 0.0
C633 C 0.88941 0.72415 0.41541 0.0
C634 C 0.9836 0.75956 0.40237 0.0
C635 C 0.04287 0.74108 0.41104 0.0
C636 C 1.02443 0.71346 0.42185 0.0
C637 C 0.94896 0.70532 0.42402 0.0
C638 C 0.25513 0.71158 0.41082 0.0
C639 C 0.27838 0.7776 0.40619 0.0
C640 C 0.17887 0.69929 0.41225 0.0
C641 C 0.12365 0.75249 0.40904 0.0
C642 C 0.14663 0.81798 0.40427 0.0
C643 C 0.22283 0.83046 0.4029 0.0
H644 H 0.28137 0.79603 0.65475 0.0
H645 H 0.51972 0.84804 0.65645 0.0
H646 H 0.30962 0.66303 0.65484 0.0
H647 H 0.54778 0.71396 0.65566 0.0
H648 H 0.5785 0.48986 0.67246 0.0
H649 H 0.5539 0.6193 0.66864 0.0
H650 H 0.34901 0.54778 0.64565 0.0
H651 H 0.37147 0.41782 0.65021 0.0
C652 C 0.33993 0.77936 0.655 0.0
C653 C 0.39819 0.83403 0.6559 0.0
C654 C 0.35618 0.70222 0.65486 0.0
C655 C 0.43127 0.67673 0.65543 0.0
C656 C 0.48928 0.73098 0.65553 0.0
C657 C 0.47306 0.80838 0.65581 0.0
C658 C 0.52783 0.50133 0.66664 0.0
C659 C 0.47626 0.44278 0.66189 0.0
C660 C 0.51424 0.57612 0.66426 0.0
C661 C 0.44903 0.59522 0.65687 0.0
C662 C 0.39916 0.53609 0.65159 0.0
C663 C 0.4125 0.46099 0.65408 0.0
loop_
_geom_bond_atom_site_label_1
_geom_bond_atom_site_label_2
_geom_bond_distance
_geom_bond_site_symmetry_2
_ccdc_geom_bond_type
C0 C1 1.351 . S
C0 N3 1.368 . S
C0 H5 0.931 . S
C1 C0 1.351 . S
C1 N2 1.373 . S
C1 H29 0.930 . S
N2 C1 1.373 . S
N2 C4 1.340 . S
N3 C0 1.368 . S
N3 C4 1.321 . S
N3 Co6 2.135 . S
C4 N2 1.340 . S
C4 N3 1.321 . S
C4 H28 0.930 . S
H5 C0 0.931 . S
Co6 N3 2.135 . S
Co6 N9 2.121 1_455 S
Co6 O14 2.055 . S
Co6 O17 2.039 . S
Co6 N20 2.140 . S
C7 O8 1.227 . S
C7 O17 1.265 . S
O8 C7 1.227 . S
N9 Co6 2.121 1_655 S
N9 C11 1.375 . S
N9 C12 1.313 . S
C10 C11 1.338 . S
C10 N13 1.377 . S
C10 H30 0.930 . S
C11 N9 1.375 . S
C11 C10 1.338 . S
C11 H15 0.931 . S
C12 N9 1.313 . S
C12 N13 1.344 . S
C12 H16 0.930 . S
N13 C10 1.377 . S
N13 C12 1.344 . S
O14 Co6 2.055 . S
O14 C18 1.253 . S
H15 C11 0.931 . S
H16 C12 0.930 . S
O17 Co6 2.039 . S
O17 C7 1.265 . S
C18 O14 1.253 . S
C18 O19 1.227 . S
O19 C18 1.227 . S
N20 Co6 2.140 . S
N20 C23 1.346 . S
N20 C24 1.345 1_455 S
C21 C22 1.387 . S
C21 C25 1.391 1_455 S
C22 C21 1.387 . S
C22 C23 1.369 . S
C22 H31 0.929 . S
C23 N20 1.346 . S
C23 C22 1.369 . S
C23 H26 0.928 . S
C24 N20 1.345 1_655 S
C24 C25 1.371 . S
C24 H27 0.931 . S
C25 C21 1.391 1_655 S
C25 C24 1.371 . S
C25 H32 0.930 . S
H26 C23 0.928 . S
H27 C24 0.931 . S
H28 C4 0.930 . S
H29 C1 0.930 . S
H30 C10 0.930 . S
H31 C22 0.929 . S
H32 C25 0.930 . S
C33 C34 1.351 . S
C33 N36 1.368 . S
C33 H38 0.931 . S
C34 C33 1.351 . S
C34 N35 1.373 . S
C34 H62 0.930 . S
N35 C34 1.373 . S
N35 C37 1.340 . S
N36 C33 1.368 . S
N36 C37 1.321 . S
N36 Co39 2.135 . S
C37 N35 1.340 . S
C37 N36 1.321 . S
C37 H61 0.930 . S
H38 C33 0.931 . S
Co39 N36 2.135 . S
Co39 N42 2.121 . S
Co39 O47 2.055 . S
Co39 O50 2.039 . S
Co39 N53 2.140 . S
C40 O41 1.227 . S
C40 O50 1.265 . S
O41 C40 1.227 . S
N42 Co39 2.121 . S
N42 C44 1.375 . S
N42 C45 1.313 . S
C43 C44 1.338 . S
C43 N46 1.377 . S
C43 H63 0.930 . S
C44 N42 1.375 . S
C44 C43 1.338 . S
C44 H48 0.931 . S
C45 N42 1.313 . S
C45 N46 1.344 . S
C45 H49 0.930 . S
N46 C43 1.377 . S
N46 C45 1.344 . S
O47 Co39 2.055 . S
O47 C51 1.253 . S
H48 C44 0.931 . S
H49 C45 0.930 . S
O50 Co39 2.039 . S
O50 C40 1.265 . S
C51 O47 1.253 . S
C51 O52 1.227 . S
O52 C51 1.227 . S
N53 Co39 2.140 . S
N53 C56 1.346 . S
N53 C57 1.345 . S
C54 C55 1.387 . S
C54 C58 1.391 . S
C55 C54 1.387 . S
C55 C56 1.369 . S
C55 H64 0.929 . S
C56 N53 1.346 . S
C56 C55 1.369 . S
C56 H59 0.928 . S
C57 N53 1.345 . S
C57 C58 1.371 . S
C57 H60 0.931 . S
C58 C54 1.391 . S
C58 C57 1.371 . S
C58 H65 0.930 . S
H59 C56 0.928 . S
H60 C57 0.931 . S
H61 C37 0.930 . S
H62 C34 0.930 . S
H63 C43 0.930 . S
H64 C55 0.929 . S
H65 C58 0.930 . S
C66 C67 1.351 . S
C66 N69 1.368 . S
C66 H71 0.931 . S
C67 C66 1.351 . S
C67 N68 1.373 . S
C67 H95 0.930 . S
N68 C67 1.373 . S
N68 C70 1.340 . S
N69 C66 1.368 . S
N69 C70 1.321 . S
N69 Co72 2.135 . S
C70 N68 1.340 . S
C70 N69 1.321 . S
C70 H94 0.930 . S
H71 C66 0.931 . S
Co72 N69 2.135 . S
Co72 N75 2.121 . S
Co72 O80 2.055 . S
Co72 O83 2.039 . S
Co72 N86 2.140 . S
C73 O74 1.227 . S
C73 O83 1.265 . S
O74 C73 1.227 . S
N75 Co72 2.121 . S
N75 C77 1.375 . S
N75 C78 1.313 . S
C76 C77 1.338 . S
C76 N79 1.377 . S
C76 H96 0.930 . S
C77 N75 1.375 . S
C77 C76 1.338 . S
C77 H81 0.931 . S
C78 N75 1.313 . S
C78 N79 1.344 . S
C78 H82 0.930 . S
N79 C76 1.377 . S
N79 C78 1.344 . S
O80 Co72 2.055 . S
O80 C84 1.253 . S
H81 C77 0.931 . S
H82 C78 0.930 . S
O83 Co72 2.039 . S
O83 C73 1.265 . S
C84 O80 1.253 . S
C84 O85 1.227 . S
O85 C84 1.227 . S
N86 Co72 2.140 . S
N86 C89 1.346 . S
N86 C90 1.345 . S
C87 C88 1.387 . S
C87 C91 1.391 . S
C88 C87 1.387 . S
C88 C89 1.369 . S
C88 H97 0.929 . S
C89 N86 1.346 . S
C89 C88 1.369 . S
C89 H92 0.928 . S
C90 N86 1.345 . S
C90 C91 1.371 . S
C90 H93 0.931 . S
C91 C87 1.391 . S
C91 C90 1.371 . S
C91 H98 0.930 . S
H92 C89 0.928 . S
H93 C90 0.931 . S
H94 C70 0.930 . S
H95 C67 0.930 . S
H96 C76 0.930 . S
H97 C88 0.929 . S
H98 C91 0.930 . S
C99 C100 1.351 . S
C99 N102 1.368 . S
C99 H104 0.931 . S
C100 C99 1.351 . S
C100 N101 1.373 . S
C100 H128 0.930 . S
N101 C100 1.373 . S
N101 C103 1.340 . S
N102 C99 1.368 . S
N102 C103 1.321 . S
N102 Co105 2.135 . S
C103 N101 1.340 . S
C103 N102 1.321 . S
C103 H127 0.930 . S
H104 C99 0.931 . S
Co105 N102 2.135 . S
Co105 N108 2.121 . S
Co105 O113 2.055 . S
Co105 O116 2.039 . S
Co105 N119 2.140 . S
C106 O107 1.227 . S
C106 O116 1.265 . S
O107 C106 1.227 . S
N108 Co105 2.121 . S
N108 C110 1.375 . S
N108 C111 1.313 . S
C109 C110 1.338 . S
C109 N112 1.377 . S
C109 H129 0.930 1_545 S
C110 N108 1.375 . S
C110 C109 1.338 . S
C110 H114 0.931 . S
C111 N108 1.313 . S
C111 N112 1.344 . S
C111 H115 0.930 . S
N112 C109 1.377 . S
N112 C111 1.344 . S
O113 Co105 2.055 . S
O113 C117 1.253 . S
H114 C110 0.931 . S
H115 C111 0.930 . S
O116 Co105 2.039 . S
O116 C106 1.265 . S
C117 O113 1.253 . S
C117 O118 1.227 . S
O118 C117 1.227 . S
N119 Co105 2.140 . S
N119 C122 1.346 . S
N119 C123 1.345 1_455 S
C120 C121 1.387 . S
C120 C124 1.391 . S
C121 C120 1.387 . S
C121 C122 1.370 1_655 S
C121 H130 0.929 . S
C122 N119 1.346 . S
C122 C121 1.370 1_455 S
C122 H125 0.928 . S
C123 N119 1.345 1_655 S
C123 C124 1.371 . S
C123 H126 0.931 . S
C124 C120 1.391 . S
C124 C123 1.371 . S
C124 H131 0.930 . S
H125 C122 0.928 . S
H126 C123 0.931 . S
H127 C103 0.930 . S
H128 C100 0.930 . S
H129 C109 0.930 1_565 S
H130 C121 0.929 . S
H131 C124 0.930 . S
C132 C133 1.351 . S
C132 N135 1.368 . S
C132 H137 0.931 . S
C133 C132 1.351 . S
C133 N134 1.373 . S
C133 H161 0.930 . S
N134 C133 1.373 . S
N134 C136 1.340 . S
N135 C132 1.368 . S
N135 C136 1.321 . S
N135 Co138 2.135 1_655 S
C136 N134 1.340 . S
C136 N135 1.321 . S
C136 H160 0.930 . S
H137 C132 0.931 . S
Co138 N135 2.135 1_455 S
Co138 N141 2.121 . S
Co138 O146 2.055 . S
Co138 O149 2.039 . S
Co138 N152 2.140 . S
C139 O140 1.227 . S
C139 O149 1.265 . S
O140 C139 1.227 . S
N141 Co138 2.121 . S
N141 C143 1.375 . S
N141 C144 1.313 . S
C142 C143 1.338 . S
C142 N145 1.377 . S
C142 H162 0.930 . S
C143 N141 1.375 . S
C143 C142 1.338 . S
C143 H147 0.931 . S
C144 N141 1.313 . S
C144 N145 1.344 . S
C144 H148 0.930 . S
N145 C142 1.377 . S
N145 C144 1.344 . S
O146 Co138 2.055 . S
O146 C150 1.253 . S
H147 C143 0.931 . S
H148 C144 0.930 . S
O149 Co138 2.039 . S
O149 C139 1.265 . S
C150 O146 1.253 . S
C150 O151 1.227 . S
O151 C150 1.227 . S
N152 Co138 2.140 . S
N152 C155 1.346 . S
N152 C156 1.345 . S
C153 C154 1.387 . S
C153 C157 1.391 . S
C154 C153 1.387 . S
C154 C155 1.369 . S
C154 H163 0.929 1_455 S
C155 N152 1.346 . S
C155 C154 1.369 . S
C155 H158 0.928 1_455 S
C156 N152 1.345 . S
C156 C157 1.371 . S
C156 H159 0.931 . S
C157 C153 1.391 . S
C157 C156 1.371 . S
C157 H164 0.930 . S
H158 C155 0.928 1_655 S
H159 C156 0.931 . S
H160 C136 0.930 . S
H161 C133 0.930 . S
H162 C142 0.930 . S
H163 C154 0.929 1_655 S
H164 C157 0.930 . S
C165 C166 1.351 . S
C165 N168 1.368 1_655 S
C165 H170 0.931 . S
C166 C165 1.351 . S
C166 N167 1.373 1_655 S
C166 H194 0.930 . S
N167 C166 1.373 1_455 S
N167 C169 1.340 . S
N168 C165 1.368 1_455 S
N168 C169 1.321 . S
N168 Co171 2.135 . S
C169 N167 1.340 . S
C169 N168 1.321 . S
C169 H193 0.930 . S
H170 C165 0.931 . S
Co171 N168 2.135 . S
Co171 N174 2.121 . S
Co171 O179 2.055 . S
Co171 O182 2.039 . S
Co171 N185 2.140 1_455 S
C172 O173 1.227 . S
C172 O182 1.265 . S
O173 C172 1.227 . S
N174 Co171 2.121 . S
N174 C176 1.375 . S
N174 C177 1.313 . S
C175 C176 1.338 . S
C175 N178 1.377 . S
C175 H195 0.930 1_565 S
C176 N174 1.375 . S
C176 C175 1.338 . S
C176 H180 0.931 . S
C177 N174 1.313 . S
C177 N178 1.344 . S
C177 H181 0.930 . S
N178 C175 1.377 . S
N178 C177 1.344 . S
O179 Co171 2.055 . S
O179 C183 1.267 . S
H180 C176 0.931 . S
H181 C177 0.930 . S
O182 Co171 2.039 . S
O182 C172 1.265 . S
C183 O179 1.267 . S
C183 O184 1.212 1_455 S
O184 C183 1.212 1_655 S
N185 Co171 2.140 1_655 S
N185 C188 1.346 . S
N185 C189 1.345 . S
C186 C187 1.387 . S
C186 C190 1.391 . S
C187 C186 1.387 . S
C187 C188 1.369 . S
C187 H196 0.929 . S
C188 N185 1.346 . S
C188 C187 1.369 . S
C188 H191 0.928 . S
C189 N185 1.345 . S
C189 C190 1.371 . S
C189 H192 0.931 . S
C190 C186 1.391 . S
C190 C189 1.371 . S
C190 H197 0.930 . S
H191 C188 0.928 . S
H192 C189 0.931 . S
H193 C169 0.930 . S
H194 C166 0.930 . S
H195 C175 0.930 1_545 S
H196 C187 0.929 . S
H197 C190 0.930 . S
C198 C199 1.351 . S
C198 N201 1.368 . S
C198 H203 0.931 . S
C199 C198 1.351 . S
C199 N200 1.373 . S
C199 H227 0.930 . S
N200 C199 1.373 . S
N200 C202 1.340 . S
N201 C198 1.368 . S
N201 C202 1.321 . S
N201 Co204 2.135 . S
C202 N200 1.340 . S
C202 N201 1.321 . S
C202 H226 0.930 . S
H203 C198 0.931 . S
Co204 N201 2.135 . S
Co204 N207 2.121 . S
Co204 O212 2.055 . S
Co204 O215 2.039 . S
Co204 N218 2.140 . S
C205 O206 1.227 . S
C205 O215 1.265 . S
O206 C205 1.227 . S
N207 Co204 2.121 . S
N207 C209 1.375 . S
N207 C210 1.313 . S
C208 C209 1.338 . S
C208 N211 1.377 . S
C208 H228 0.930 . S
C209 N207 1.375 . S
C209 C208 1.338 . S
C209 H213 0.931 . S
C210 N207 1.313 . S
C210 N211 1.344 . S
C210 H214 0.930 . S
N211 C208 1.377 . S
N211 C210 1.344 . S
O212 Co204 2.055 . S
O212 C216 1.253 . S
H213 C209 0.931 . S
H214 C210 0.930 . S
O215 Co204 2.039 . S
O215 C205 1.265 . S
C216 O212 1.253 . S
C216 O217 1.227 . S
O217 C216 1.227 . S
N218 Co204 2.140 . S
N218 C221 1.346 . S
N218 C222 1.345 . S
C219 C220 1.387 . S
C219 C223 1.391 . S
C220 C219 1.387 . S
C220 C221 1.369 . S
C220 H229 0.929 . S
C221 N218 1.346 . S
C221 C220 1.369 . S
C221 H224 0.928 . S
C222 N218 1.345 . S
C222 C223 1.371 . S
C222 H225 0.931 . S
C223 C219 1.391 . S
C223 C222 1.371 . S
C223 H230 0.930 . S
H224 C221 0.928 . S
H225 C222 0.931 . S
H226 C202 0.930 . S
H227 C199 0.930 . S
H228 C208 0.930 . S
H229 C220 0.929 . S
H230 C223 0.930 . S
C231 C232 1.351 . S
C231 N234 1.368 . S
C231 H236 0.931 . S
C232 C231 1.351 . S
C232 N233 1.373 . S
C232 H260 0.930 . S
N233 C232 1.373 . S
N233 C235 1.340 . S
N234 C231 1.368 . S
N234 C235 1.321 . S
N234 Co237 2.135 . S
C235 N233 1.340 . S
C235 N234 1.321 . S
C235 H259 0.930 . S
H236 C231 0.931 . S
Co237 N234 2.135 . S
Co237 N240 2.121 . S
Co237 O245 2.055 . S
Co237 O248 2.039 . S
Co237 N251 2.140 . S
C238 O239 1.227 . S
C238 O248 1.265 . S
O239 C238 1.227 . S
N240 Co237 2.121 . S
N240 C242 1.375 . S
N240 C243 1.313 . S
C241 C242 1.338 . S
C241 N244 1.377 . S
C241 H261 0.930 . S
C242 N240 1.375 . S
C242 C241 1.338 . S
C242 H246 0.931 . S
C243 N240 1.313 . S
C243 N244 1.344 . S
C243 H247 0.930 . S
N244 C241 1.377 . S
N244 C243 1.344 . S
O245 Co237 2.055 . S
O245 C249 1.253 . S
H246 C242 0.931 . S
H247 C243 0.930 . S
O248 Co237 2.039 . S
O248 C238 1.265 . S
C249 O245 1.253 . S
C249 O250 1.227 . S
O250 C249 1.227 . S
N251 Co237 2.140 . S
N251 C254 1.346 . S
N251 C255 1.345 . S
C252 C253 1.387 . S
C252 C256 1.391 . S
C253 C252 1.387 . S
C253 C254 1.369 . S
C253 H262 0.929 . S
C254 N251 1.346 . S
C254 C253 1.369 . S
C254 H257 0.928 . S
C255 N251 1.345 . S
C255 C256 1.371 . S
C255 H258 0.931 . S
C256 C252 1.391 . S
C256 C255 1.371 . S
C256 H263 0.930 . S
H257 C254 0.928 . S
H258 C255 0.931 . S
H259 C235 0.930 . S
H260 C232 0.930 . S
H261 C241 0.930 . S
H262 C253 0.929 . S
H263 C256 0.930 . S
H264 C272 0.950 . S
H265 C277 0.950 . S
H266 C274 0.950 . S
H267 C276 0.950 . S
H268 C278 0.950 . S
H269 C280 0.950 . S
H270 C282 0.950 . S
H271 C283 0.950 . S
C272 H264 0.950 . S
C272 C273 1.386 1_655 S
C272 C274 1.391 . S
C273 C272 1.386 1_455 S
C273 C277 1.393 . S
C274 H266 0.950 . S
C274 C272 1.391 . S
C274 C275 1.400 1_655 S
C275 C274 1.400 1_455 S
C275 C276 1.398 . S
C275 C281 1.491 . S
C276 H267 0.950 . S
C276 C275 1.398 . S
C276 C277 1.391 . S
C277 H265 0.950 . S
C277 C273 1.393 . S
C277 C276 1.391 . S
C278 H268 0.950 . S
C278 C279 1.386 . S
C278 C280 1.391 . S
C279 C278 1.386 . S
C279 C283 1.393 1_455 S
C280 H269 0.950 . S
C280 C278 1.391 . S
C280 C281 1.400 . S
C281 C275 1.491 . S
C281 C280 1.400 . S
C281 C282 1.398 1_455 S
C282 H270 0.950 . S
C282 C281 1.398 1_655 S
C282 C283 1.391 . S
C283 H271 0.950 . S
C283 C279 1.393 1_655 S
C283 C282 1.391 . S
H284 C292 0.950 . S
H285 C297 0.950 . S
H286 C294 0.950 . S
H287 C296 0.950 . S
H288 C298 0.950 . S
H289 C300 0.950 . S
H290 C302 0.950 . S
H291 C303 0.950 . S
C292 H284 0.950 . S
C292 C293 1.386 . S
C292 C294 1.391 . S
C293 C292 1.386 . S
C293 C297 1.393 . S
C294 H286 0.950 . S
C294 C292 1.391 . S
C294 C295 1.400 . S
C295 C294 1.400 . S
C295 C296 1.398 . S
C295 C301 1.491 . S
C296 H287 0.950 . S
C296 C295 1.398 . S
C296 C297 1.391 . S
C297 H285 0.950 . S
C297 C293 1.393 . S
C297 C296 1.391 . S
C298 H288 0.950 . S
C298 C299 1.386 . S
C298 C300 1.391 . S
C299 C298 1.386 . S
C299 C303 1.393 . S
C300 H289 0.950 . S
C300 C298 1.391 . S
C300 C301 1.400 . S
C301 C295 1.491 . S
C301 C300 1.400 . S
C301 C302 1.398 . S
C302 H290 0.950 . S
C302 C301 1.398 . S
C302 C303 1.391 . S
C303 H291 0.950 . S
C303 C299 1.393 . S
C303 C302 1.391 . S
H304 C312 0.950 . S
H305 C317 0.950 . S
H306 C314 0.950 . S
H307 C316 0.950 . S
H308 C318 0.950 . S
H309 C320 0.950 . S
H310 C322 0.950 . S
H311 C323 0.950 . S
C312 H304 0.950 . S
C312 C313 1.386 . S
C312 C314 1.391 . S
C313 C312 1.386 . S
C313 C317 1.393 . S
C314 H306 0.950 . S
C314 C312 1.391 . S
C314 C315 1.400 . S
C315 C314 1.400 . S
C315 C316 1.398 . S
C315 C321 1.491 . S
C316 H307 0.950 . S
C316 C315 1.398 . S
C316 C317 1.391 . S
C317 H305 0.950 . S
C317 C313 1.393 . S
C317 C316 1.391 . S
C318 H308 0.950 . S
C318 C319 1.386 . S
C318 C320 1.391 . S
C319 C318 1.386 . S
C319 C323 1.393 . S
C320 H309 0.950 . S
C320 C318 1.391 . S
C320 C321 1.400 . S
C321 C315 1.491 . S
C321 C320 1.400 . S
C321 C322 1.398 . S
C322 H310 0.950 . S
C322 C321 1.398 . S
C322 C323 1.391 . S
C323 H311 0.950 . S
C323 C319 1.393 . S
C323 C322 1.391 . S
H324 C332 0.950 1_655 S
H325 C337 0.950 . S
H326 C334 0.950 . S
H327 C336 0.950 . S
H328 C338 0.950 . S
H329 C340 0.950 . S
H330 C342 0.950 . S
H331 C343 0.950 . S
C332 H324 0.950 1_455 S
C332 C333 1.386 . S
C332 C334 1.391 . S
C333 C332 1.386 . S
C333 C337 1.393 . S
C334 H326 0.950 . S
C334 C332 1.391 . S
C334 C335 1.400 . S
C335 C334 1.400 . S
C335 C336 1.398 . S
C335 C341 1.491 . S
C336 H327 0.950 . S
C336 C335 1.398 . S
C336 C337 1.391 . S
C337 H325 0.950 . S
C337 C333 1.393 . S
C337 C336 1.391 . S
C338 H328 0.950 . S
C338 C339 1.386 . S
C338 C340 1.391 . S
C339 C338 1.386 . S
C339 C343 1.393 . S
C340 H329 0.950 . S
C340 C338 1.391 . S
C340 C341 1.400 . S
C341 C335 1.491 . S
C341 C340 1.400 . S
C341 C342 1.398 . S
C342 H330 0.950 . S
C342 C341 1.398 . S
C342 C343 1.391 . S
C343 H331 0.950 . S
C343 C339 1.393 . S
C343 C342 1.391 . S
H344 C352 0.950 . S
H345 C357 0.950 . S
H346 C354 0.950 . S
H347 C356 0.950 . S
H348 C358 0.950 . S
H349 C360 0.950 . S
H350 C362 0.950 . S
H351 C363 0.950 . S
C352 H344 0.950 . S
C352 C353 1.386 . S
C352 C354 1.391 . S
C353 C352 1.386 . S
C353 C357 1.393 1_455 S
C354 H346 0.950 . S
C354 C352 1.391 . S
C354 C355 1.400 . S
C355 C354 1.400 . S
C355 C356 1.398 1_455 S
C355 C361 1.491 1_554 S
C356 H347 0.950 . S
C356 C355 1.398 1_655 S
C356 C357 1.391 . S
C357 H345 0.950 . S
C357 C353 1.393 1_655 S
C357 C356 1.391 . S
C358 H348 0.950 . S
C358 C359 1.386 1_655 S
C358 C360 1.391 . S
C359 C358 1.386 1_455 S
C359 C363 1.393 . S
C360 H349 0.950 . S
C360 C358 1.391 . S
C360 C361 1.400 1_655 S
C361 C355 1.491 1_556 S
C361 C360 1.400 1_455 S
C361 C362 1.398 . S
C362 H350 0.950 . S
C362 C361 1.398 . S
C362 C363 1.391 . S
C363 H351 0.950 . S
C363 C359 1.393 . S
C363 C362 1.391 . S
H364 C372 0.950 . S
H365 C377 0.950 . S
H366 C374 0.950 . S
H367 C376 0.950 . S
H368 C378 0.950 . S
H369 C380 0.950 . S
H370 C382 0.950 . S
H371 C383 0.950 . S
C372 H364 0.950 . S
C372 C373 1.386 . S
C372 C374 1.391 . S
C373 C372 1.386 . S
C373 C377 1.393 . S
C374 H366 0.950 . S
C374 C372 1.391 . S
C374 C375 1.400 . S
C375 C374 1.400 . S
C375 C376 1.398 . S
C375 C381 1.491 . S
C376 H367 0.950 . S
C376 C375 1.398 . S
C376 C377 1.391 . S
C377 H365 0.950 . S
C377 C373 1.393 . S
C377 C376 1.391 . S
C378 H368 0.950 . S
C378 C379 1.386 . S
C378 C380 1.391 . S
C379 C378 1.386 . S
C379 C383 1.393 . S
C380 H369 0.950 . S
C380 C378 1.391 . S
C380 C381 1.400 . S
C381 C375 1.491 . S
C381 C380 1.400 . S
C381 C382 1.398 . S
C382 H370 0.950 . S
C382 C381 1.398 . S
C382 C383 1.391 . S
C383 H371 0.950 . S
C383 C379 1.393 . S
C383 C382 1.391 . S
H384 C392 0.950 . S
H385 C397 0.950 . S
H386 C394 0.950 . S
H387 C396 0.950 . S
H388 C398 0.950 . S
H389 C400 0.950 . S
H390 C402 0.950 . S
H391 C403 0.950 . S
C392 H384 0.950 . S
C392 C393 1.386 . S
C392 C394 1.391 . S
C393 C392 1.386 . S
C393 C397 1.393 . S
C394 H386 0.950 . S
C394 C392 1.391 . S
C394 C395 1.400 . S
C395 C394 1.400 . S
C395 C396 1.398 . S
C395 C401 1.491 . S
C396 H387 0.950 . S
C396 C395 1.398 . S
C396 C397 1.391 . S
C397 H385 0.950 . S
C397 C393 1.393 . S
C397 C396 1.391 . S
C398 H388 0.950 . S
C398 C399 1.386 . S
C398 C400 1.391 . S
C399 C398 1.386 . S
C399 C403 1.393 . S
C400 H389 0.950 . S
C400 C398 1.391 . S
C400 C401 1.400 . S
C401 C395 1.491 . S
C401 C400 1.400 . S
C401 C402 1.398 . S
C402 H390 0.950 . S
C402 C401 1.398 . S
C402 C403 1.391 . S
C403 H391 0.950 . S
C403 C399 1.393 . S
C403 C402 1.391 . S
H404 C412 0.950 . S
H405 C417 0.950 . S
H406 C414 0.950 . S
H407 C416 0.950 . S
H408 C418 0.950 . S
H409 C420 0.950 . S
H410 C422 0.950 . S
H411 C423 0.950 . S
C412 H404 0.950 . S
C412 C413 1.386 . S
C412 C414 1.391 . S
C413 C412 1.386 . S
C413 C417 1.393 . S
C414 H406 0.950 . S
C414 C412 1.391 . S
C414 C415 1.400 . S
C415 C414 1.400 . S
C415 C416 1.398 . S
C415 C421 1.491 . S
C416 H407 0.950 . S
C416 C415 1.398 . S
C416 C417 1.391 . S
C417 H405 0.950 . S
C417 C413 1.393 . S
C417 C416 1.391 . S
C418 H408 0.950 . S
C418 C419 1.386 . S
C418 C420 1.391 . S
C419 C418 1.386 . S
C419 C423 1.393 . S
C420 H409 0.950 . S
C420 C418 1.391 . S
C420 C421 1.400 . S
C421 C415 1.491 . S
C421 C420 1.400 . S
C421 C422 1.398 . S
C422 H410 0.950 . S
C422 C421 1.398 . S
C422 C423 1.391 . S
C423 H411 0.950 . S
C423 C419 1.393 . S
C423 C422 1.391 . S
H424 C432 0.950 . S
H425 C437 0.950 . S
H426 C434 0.950 . S
H427 C436 0.950 . S
H428 C438 0.950 . S
H429 C440 0.950 . S
H430 C442 0.950 . S
H431 C443 0.950 . S
C432 H424 0.950 . S
C432 C433 1.386 . S
C432 C434 1.391 . S
C433 C432 1.386 . S
C433 C437 1.393 . S
C434 H426 0.950 . S
C434 C432 1.391 . S
C434 C435 1.400 . S
C435 C434 1.400 . S
C435 C436 1.398 . S
C435 C441 1.491 . S
C436 H427 0.950 . S
C436 C435 1.398 . S
C436 C437 1.391 . S
C437 H425 0.950 . S
C437 C433 1.393 . S
C437 C436 1.391 . S
C438 H428 0.950 . S
C438 C439 1.386 . S
C438 C440 1.391 . S
C439 C438 1.386 . S
C439 C443 1.393 . S
C440 H429 0.950 . S
C440 C438 1.391 . S
C440 C441 1.400 . S
C441 C435 1.491 . S
C441 C440 1.400 . S
C441 C442 1.398 . S
C442 H430 0.950 . S
C442 C441 1.398 . S
C442 C443 1.391 . S
C443 H431 0.950 . S
C443 C439 1.393 . S
C443 C442 1.391 . S
H444 C452 0.950 . S
H445 C457 0.950 . S
H446 C454 0.950 . S
H447 C456 0.950 . S
H448 C458 0.950 . S
H449 C460 0.950 . S
H450 C462 0.950 . S
H451 C463 0.950 . S
C452 H444 0.950 . S
C452 C453 1.386 . S
C452 C454 1.391 . S
C453 C452 1.386 . S
C453 C457 1.393 . S
C454 H446 0.950 . S
C454 C452 1.391 . S
C454 C455 1.400 . S
C455 C454 1.400 . S
C455 C456 1.398 . S
C455 C461 1.491 . S
C456 H447 0.950 . S
C456 C455 1.398 . S
C456 C457 1.391 . S
C457 H445 0.950 . S
C457 C453 1.393 . S
C457 C456 1.391 . S
C458 H448 0.950 . S
C458 C459 1.386 . S
C458 C460 1.391 . S
C459 C458 1.386 . S
C459 C463 1.393 . S
C460 H449 0.950 . S
C460 C458 1.391 . S
C460 C461 1.400 . S
C461 C455 1.491 . S
C461 C460 1.400 . S
C461 C462 1.398 . S
C462 H450 0.950 . S
C462 C461 1.398 . S
C462 C463 1.391 . S
C463 H451 0.950 . S
C463 C459 1.393 . S
C463 C462 1.391 . S
H464 C472 0.947 1_545 S
H465 C477 0.950 . S
H466 C474 0.950 . S
H467 C476 0.950 . S
H468 C478 0.950 . S
H469 C480 0.950 1_565 S
H470 C482 0.950 . S
H471 C483 0.950 . S
C472 H464 0.947 1_565 S
C472 C473 1.391 . S
C472 C474 1.389 1_565 S
C473 C472 1.391 . S
C473 C477 1.393 . S
C474 H466 0.950 . S
C474 C472 1.389 1_545 S
C474 C475 1.400 . S
C475 C474 1.400 . S
C475 C476 1.398 1_545 S
C475 C481 1.491 . S
C476 H467 0.950 . S
C476 C475 1.398 1_565 S
C476 C477 1.391 . S
C477 H465 0.950 . S
C477 C473 1.393 . S
C477 C476 1.391 . S
C478 H468 0.950 . S
C478 C479 1.386 . S
C478 C480 1.391 . S
C479 C478 1.386 . S
C479 C483 1.393 . S
C480 H469 0.950 1_545 S
C480 C478 1.391 . S
C480 C481 1.400 . S
C481 C475 1.491 . S
C481 C480 1.400 . S
C481 C482 1.398 . S
C482 H470 0.950 . S
C482 C481 1.398 . S
C482 C483 1.391 . S
C483 H471 0.950 . S
C483 C479 1.393 . S
C483 C482 1.391 . S
H484 C492 0.950 . S
H485 C497 0.950 . S
H486 C494 0.950 . S
H487 C496 0.975 . S
H488 C498 0.950 1_565 S
H489 C500 0.950 1_565 S
H490 C502 0.950 . S
H491 C503 0.950 . S
C492 H484 0.950 . S
C492 C493 1.386 1_545 S
C492 C494 1.391 . S
C493 C492 1.386 1_565 S
C493 C497 1.393 1_455 S
C494 H486 0.950 . S
C494 C492 1.391 . S
C494 C495 1.400 . S
C495 C494 1.400 . S
C495 C496 1.398 1_445 S
C495 C501 1.491 1_554 S
C496 H487 0.975 . S
C496 C495 1.398 1_665 S
C496 C497 1.391 . S
C497 H485 0.950 . S
C497 C493 1.393 1_655 S
C497 C496 1.391 . S
C498 H488 0.950 1_545 S
C498 C499 1.386 1_655 S
C498 C500 1.391 . S
C499 C498 1.386 1_455 S
C499 C503 1.393 . S
C500 H489 0.950 1_545 S
C500 C498 1.391 . S
C500 C501 1.400 1_655 S
C501 C495 1.491 1_556 S
C501 C500 1.400 1_455 S
C501 C502 1.398 . S
C502 H490 0.950 . S
C502 C501 1.398 . S
C502 C503 1.391 . S
C503 H491 0.950 . S
C503 C499 1.393 . S
C503 C502 1.391 . S
H504 C512 0.950 . S
H505 C517 0.950 . S
H506 C514 0.950 . S
H507 C516 0.950 . S
H508 C518 0.950 . S
H509 C520 0.950 . S
H510 C522 0.950 . S
H511 C523 0.950 . S
C512 H504 0.950 . S
C512 C513 1.386 . S
C512 C514 1.391 . S
C513 C512 1.386 . S
C513 C517 1.393 . S
C514 H506 0.950 . S
C514 C512 1.391 . S
C514 C515 1.400 . S
C515 C514 1.400 . S
C515 C516 1.398 . S
C515 C521 1.491 . S
C516 H507 0.950 . S
C516 C515 1.398 . S
C516 C517 1.391 . S
C517 H505 0.950 . S
C517 C513 1.393 . S
C517 C516 1.391 . S
C518 H508 0.950 . S
C518 C519 1.386 . S
C518 C520 1.391 . S
C519 C518 1.386 . S
C519 C523 1.393 . S
C520 H509 0.950 . S
C520 C518 1.391 . S
C520 C521 1.400 . S
C521 C515 1.491 . S
C521 C520 1.400 . S
C521 C522 1.398 . S
C522 H510 0.950 . S
C522 C521 1.398 . S
C522 C523 1.391 . S
C523 H511 0.950 . S
C523 C519 1.393 . S
C523 C522 1.391 . S
H524 C532 0.950 . S
H525 C537 0.950 . S
H526 C534 0.950 . S
H527 C536 0.950 . S
H528 C538 0.950 . S
H529 C540 0.950 . S
H530 C542 0.950 . S
H531 C543 0.950 . S
C532 H524 0.950 . S
C532 C533 1.386 . S
C532 C534 1.391 . S
C533 C532 1.386 . S
C533 C537 1.393 . S
C534 H526 0.950 . S
C534 C532 1.391 . S
C534 C535 1.400 . S
C535 C534 1.400 . S
C535 C536 1.398 . S
C535 C541 1.491 . S
C536 H527 0.950 . S
C536 C535 1.398 . S
C536 C537 1.391 . S
C537 H525 0.950 . S
C537 C533 1.393 . S
C537 C536 1.391 . S
C538 H528 0.950 . S
C538 C539 1.386 . S
C538 C540 1.391 . S
C539 C538 1.386 . S
C539 C543 1.393 . S
C540 H529 0.950 . S
C540 C538 1.391 . S
C540 C541 1.400 . S
C541 C535 1.491 . S
C541 C540 1.400 . S
C541 C542 1.398 . S
C542 H530 0.950 . S
C542 C541 1.398 . S
C542 C543 1.391 . S
C543 H531 0.950 . S
C543 C539 1.393 . S
C543 C542 1.391 . S
H544 C552 0.950 . S
H545 C557 0.950 . S
H546 C554 0.950 . S
H547 C556 0.950 . S
H548 C558 0.950 . S
H549 C560 0.950 . S
H550 C562 0.950 . S
H551 C563 0.950 . S
C552 H544 0.950 . S
C552 C553 1.386 . S
C552 C554 1.391 . S
C553 C552 1.386 . S
C553 C557 1.393 . S
C554 H546 0.950 . S
C554 C552 1.391 . S
C554 C555 1.400 . S
C555 C554 1.400 . S
C555 C556 1.398 . S
C555 C561 1.490 1_455 S
C556 H547 0.950 . S
C556 C555 1.398 . S
C556 C557 1.391 . S
C557 H545 0.950 . S
C557 C553 1.393 . S
C557 C556 1.391 . S
C558 H548 0.950 . S
C558 C559 1.386 . S
C558 C560 1.391 . S
C559 C558 1.386 . S
C559 C563 1.393 . S
C560 H549 0.950 . S
C560 C558 1.391 . S
C560 C561 1.400 . S
C561 C555 1.490 1_655 S
C561 C560 1.400 . S
C561 C562 1.398 . S
C562 H550 0.950 . S
C562 C561 1.398 . S
C562 C563 1.391 . S
C563 H551 0.950 . S
C563 C559 1.393 . S
C563 C562 1.391 . S
H564 C572 0.950 . S
H565 C577 0.950 . S
H566 C574 0.950 . S
H567 C576 0.950 . S
H568 C578 0.950 . S
H569 C580 0.950 . S
H570 C582 0.950 . S
H571 C583 0.950 . S
C572 H564 0.950 . S
C572 C573 1.386 . S
C572 C574 1.391 . S
C573 C572 1.386 . S
C573 C577 1.393 . S
C574 H566 0.950 . S
C574 C572 1.391 . S
C574 C575 1.400 . S
C575 C574 1.400 . S
C575 C576 1.398 . S
C575 C581 1.491 . S
C576 H567 0.950 . S
C576 C575 1.398 . S
C576 C577 1.391 . S
C577 H565 0.950 . S
C577 C573 1.393 . S
C577 C576 1.391 . S
C578 H568 0.950 . S
C578 C579 1.386 . S
C578 C580 1.391 . S
C579 C578 1.386 . S
C579 C583 1.393 . S
C580 H569 0.950 . S
C580 C578 1.391 . S
C580 C581 1.400 . S
C581 C575 1.491 . S
C581 C580 1.400 . S
C581 C582 1.398 . S
C582 H570 0.950 . S
C582 C581 1.398 . S
C582 C583 1.391 . S
C583 H571 0.950 . S
C583 C579 1.393 . S
C583 C582 1.391 . S
H584 C592 0.950 . S
H585 C597 0.950 . S
H586 C594 0.950 . S
H587 C596 0.950 . S
H588 C598 0.950 . S
H589 C600 0.950 . S
H590 C602 0.950 . S
H591 C603 0.950 . S
C592 H584 0.950 . S
C592 C593 1.386 . S
C592 C594 1.391 . S
C593 C592 1.386 . S
C593 C597 1.393 . S
C594 H586 0.950 . S
C594 C592 1.391 . S
C594 C595 1.400 . S
C595 C594 1.400 . S
C595 C596 1.398 . S
C595 C601 1.491 . S
C596 H587 0.950 . S
C596 C595 1.398 . S
C596 C597 1.391 . S
C597 H585 0.950 . S
C597 C593 1.393 . S
C597 C596 1.391 . S
C598 H588 0.950 . S
C598 C599 1.386 . S
C598 C600 1.391 . S
C599 C598 1.386 . S
C599 C603 1.393 . S
C600 H589 0.950 . S
C600 C598 1.391 . S
C600 C601 1.400 . S
C601 C595 1.491 . S
C601 C600 1.400 . S
C601 C602 1.398 . S
C602 H590 0.950 . S
C602 C601 1.398 . S
C602 C603 1.391 . S
C603 H591 0.950 . S
C603 C599 1.393 . S
C603 C602 1.391 . S
H604 C612 0.950 1_655 S
H605 C617 0.950 . S
H606 C614 0.950 1_655 S
H607 C616 0.950 . S
H608 C618 0.950 . S
H609 C620 0.950 . S
H610 C622 0.950 . S
H611 C623 0.950 . S
C612 H604 0.950 1_455 S
C612 C613 1.386 . S
C612 C614 1.391 . S
C613 C612 1.386 . S
C613 C617 1.393 . S
C614 H606 0.950 1_455 S
C614 C612 1.391 . S
C614 C615 1.400 . S
C615 C614 1.400 . S
C615 C616 1.398 . S
C615 C621 1.491 . S
C616 H607 0.950 . S
C616 C615 1.398 . S
C616 C617 1.391 . S
C617 H605 0.950 . S
C617 C613 1.393 . S
C617 C616 1.391 . S
C618 H608 0.950 . S
C618 C619 1.386 . S
C618 C620 1.391 . S
C619 C618 1.386 . S
C619 C623 1.393 . S
C620 H609 0.950 . S
C620 C618 1.391 . S
C620 C621 1.400 . S
C621 C615 1.491 . S
C621 C620 1.400 . S
C621 C622 1.398 . S
C622 H610 0.950 . S
C622 C621 1.398 . S
C622 C623 1.391 . S
C623 H611 0.950 . S
C623 C619 1.393 . S
C623 C622 1.391 . S
H624 C632 0.950 . S
H625 C637 0.950 . S
H626 C634 0.950 . S
H627 C636 0.950 . S
H628 C638 0.950 . S
H629 C640 0.950 . S
H630 C642 0.950 . S
H631 C643 0.950 . S
C632 H624 0.950 . S
C632 C633 1.386 . S
C632 C634 1.391 . S
C633 C632 1.386 . S
C633 C637 1.393 . S
C634 H626 0.950 . S
C634 C632 1.391 . S
C634 C635 1.400 1_655 S
C635 C634 1.400 1_455 S
C635 C636 1.398 1_455 S
C635 C641 1.491 . S
C636 H627 0.950 . S
C636 C635 1.398 1_655 S
C636 C637 1.391 . S
C637 H625 0.950 . S
C637 C633 1.393 . S
C637 C636 1.391 . S
C638 H628 0.950 . S
C638 C639 1.386 . S
C638 C640 1.391 . S
C639 C638 1.386 . S
C639 C643 1.393 . S
C640 H629 0.950 . S
C640 C638 1.391 . S
C640 C641 1.400 . S
C641 C635 1.491 . S
C641 C640 1.400 . S
C641 C642 1.398 . S
C642 H630 0.950 . S
C642 C641 1.398 . S
C642 C643 1.391 . S
C643 H631 0.950 . S
C643 C639 1.393 . S
C643 C642 1.391 . S
H644 C652 0.950 . S
H645 C657 0.950 . S
H646 C654 0.950 . S
H647 C656 0.950 . S
H648 C658 0.950 . S
H649 C660 0.950 . S
H650 C662 0.950 . S
H651 C663 0.950 . S
C652 H644 0.950 . S
C652 C653 1.386 . S
C652 C654 1.391 . S
C653 C652 1.386 . S
C653 C657 1.393 . S
C654 H646 0.950 . S
C654 C652 1.391 . S
C654 C655 1.400 . S
C655 C654 1.400 . S
C655 C656 1.398 . S
C655 C661 1.491 . S
C656 H647 0.950 . S
C656 C655 1.398 . S
C656 C657 1.391 . S
C657 H645 0.950 . S
C657 C653 1.393 . S
C657 C656 1.391 . S
C658 H648 0.950 . S
C658 C659 1.386 . S
C658 C660 1.391 . S
C659 C658 1.386 . S
C659 C663 1.393 . S
C660 H649 0.950 . S
C660 C658 1.391 . S
C660 C661 1.400 . S
C661 C655 1.491 . S
C661 C660 1.400 . S
C661 C662 1.398 . S
C662 H650 0.950 . S
C662 C661 1.398 . S
C662 C663 1.391 . S
C663 H651 0.950 . S
C663 C659 1.393 . S
C663 C662 1.391 . S
C273 C18 1.313 . S
C279 C183 1.316 . S
C293 C216 1.310 . S
C299 C51 1.311 . S
C313 C84 1.314 . S
C319 C249 1.313 . S
C333 C150 1.313 . S
C339 C117 1.315 . S
C353 C7 0.548 . S
C359 C153 0.517 . S
C373 C40 0.608 . S
C379 C186 0.598 . S
C393 C205 0.668 . S
C399 C87 0.658 . S
C413 C120 0.511 . S
C419 C238 0.545 . S
C433 C106 0.657 . S
C439 C252 0.639 . S
C453 C172 0.492 . S
C459 C54 0.459 . S
C473 C219 0.457 . S
C479 C73 0.479 . S
C493 C21 0.603 . S
C499 C139 0.611 . S
C513 N13 1.817 . S
C519 N2 1.814 . S
C533 N46 1.801 . S
C539 N35 1.798 1_545 S
C553 N79 1.801 . S
C559 N68 1.797 . S
C573 N112 1.806 1_565 S
C579 N101 1.803 . S
C593 N134 1.816 . S
C599 N145 1.819 . S
C613 N178 1.809 1_545 S
C619 N167 1.806 . S
C633 N211 1.802 . S
C639 N200 1.798 . S
C653 N233 1.809 1_565 S
C659 N244 1.812 . S
