# Generated by pormake.
# Topology unj, (4)-cn, num edge types: 1
# Building blocks:
#     Node 0, Type 0, BuildingBlock: AZAVOO_clean_sbu_0, # of connection points: 4
#     Node 1, Type 0, BuildingBlock: AZAVOO_clean_sbu_0, # of connection points: 4
#     Node 2, Type 0, BuildingBlock: AZAVOO_clean_sbu_0, # of connection points: 4
#     Node 3, Type 0, BuildingBlock: AZAVOO_clean_sbu_0, # of connection points: 4
#     Node 4, Type 0, BuildingBlock: AZAVOO_clean_sbu_0, # of connection points: 4
#     Node 5, Type 0, BuildingBlock: AZAVOO_clean_sbu_0, # of connection points: 4
#     Edge 6, Type (0, 0), BuildingBlock: UKIBUN_clean_linker_0, # of connection points: 2
#     Edge 7, Type (0, 0), BuildingBlock: UKIBUN_clean_linker_0, # of connection points: 2
#     Edge 8, Type (0, 0), BuildingBlock: UKIBUN_clean_linker_0, # of connection points: 2
#     Edge 9, Type (0, 0), BuildingBlock: UKIBUN_clean_linker_0, # of connection points: 2
#     Edge 10, Type (0, 0), BuildingBlock: UKIBUN_clean_linker_0, # of connection points: 2
#     Edge 11, Type (0, 0), BuildingBlock: UKIBUN_clean_linker_0, # of connection points: 2
#     Edge 12, Type (0, 0), BuildingBlock: UKIBUN_clean_linker_0, # of connection points: 2
#     Edge 13, Type (0, 0), BuildingBlock: UKIBUN_clean_linker_0, # of connection points: 2
#     Edge 14, Type (0, 0), BuildingBlock: UKIBUN_clean_linker_0, # of connection points: 2
#     Edge 15, Type (0, 0), BuildingBlock: UKIBUN_clean_linker_0, # of connection points: 2
#     Edge 16, Type (0, 0), BuildingBlock: UKIBUN_clean_linker_0, # of connection points: 2
#     Edge 17, Type (0, 0), BuildingBlock: UKIBUN_clean_linker_0, # of connection points: 2
# Relax obj value: 0.027
# Max RMSD: 0.067
# Mean RMSD: 0.065
data_MOF--net-unj--node1-AZAVOO_clean_sbu_0--edge1-UKIBUN_clean_linker_0
_symmetry_space_group_name_H-M    P1
_symmetry_Int_Tables_number       1
_symmetry_cell_setting            triclinic
loop_
_symmetry_equiv_pos_as_xyz
'x, y, z'
_cell_length_a     57.981325
_cell_length_b     57.371866
_cell_length_c     54.230123
_cell_angle_alpha  90.068754
_cell_angle_beta   89.933202
_cell_angle_gamma 120.02959
loop_
_atom_site_label
_atom_site_type_symbol
_atom_site_fract_x
_atom_site_fract_y
_atom_site_fract_z
_atom_type_partial_charge
Mg0 Mg 0.45218 0.22738 0.57294 0.0
O1 O 0.47721 0.22994 0.60745 0.0
O2 O 0.50423 0.21485 0.59579 0.0
Mg3 Mg 0.49493 0.20024 0.55577 0.0
C4 C 0.49581 0.22484 0.61202 0.0
C5 C 0.41729 0.24901 0.59457 0.0
O6 O 0.39947 0.23138 0.57935 0.0
O7 O 0.48681 0.26291 0.55327 0.0
O8 O 0.50965 0.24278 0.54141 0.0
O9 O 0.4206 0.18478 0.58145 0.0
O10 O 0.45501 0.19599 0.55701 0.0
C11 C 0.50592 0.26289 0.54153 0.0
C12 C 0.4333 0.17744 0.56658 0.0
O13 O 0.44105 0.25375 0.59422 0.0
Mg14 Mg 0.20488 0.44017 0.74028 0.0
O15 O 0.22706 0.46523 0.77361 0.0
O16 O 0.26931 0.49031 0.76165 0.0
Mg17 Mg 0.27526 0.48065 0.72263 0.0
C18 C 0.25098 0.48335 0.77765 0.0
C19 C 0.1516 0.40565 0.76216 0.0
O20 O 0.15637 0.38882 0.7498 0.0
O21 O 0.20524 0.47554 0.72185 0.0
O22 O 0.24777 0.49495 0.70961 0.0
O23 O 0.21474 0.40773 0.74904 0.0
O24 O 0.23851 0.44179 0.72425 0.0
C25 C 0.22503 0.4933 0.70967 0.0
C26 C 0.23456 0.41976 0.73391 0.0
O27 O 0.16822 0.43052 0.76152 0.0
Mg28 Mg 0.74901 0.21234 0.92424 0.0
O29 O 0.72677 0.21717 0.89046 0.0
O30 O 0.68621 0.20224 0.90572 0.0
Mg31 Mg 0.68099 0.18669 0.94489 0.0
C32 C 0.70292 0.21242 0.88819 0.0
C33 C 0.80409 0.23291 0.90229 0.0
O34 O 0.80249 0.21283 0.91527 0.0
O35 O 0.751 0.24748 0.94406 0.0
O36 O 0.70919 0.2294 0.95836 0.0
O37 O 0.7378 0.17044 0.91436 0.0
O38 O 0.71551 0.18076 0.94115 0.0
C39 C 0.73313 0.24877 0.95663 0.0
C40 C 0.71829 0.16263 0.92985 0.0
O41 O 0.78592 0.23886 0.9034 0.0
Mg42 Mg 0.51671 0.7507 0.07341 0.0
O43 O 0.49129 0.74806 0.10749 0.0
O44 O 0.46535 0.76439 0.09585 0.0
Mg45 Mg 0.47488 0.77855 0.05572 0.0
C46 C 0.47313 0.7538 0.11203 0.0
C47 C 0.55176 0.73071 0.09633 0.0
O48 O 0.56975 0.75077 0.08311 0.0
O49 O 0.48254 0.71477 0.05355 0.0
O50 O 0.46077 0.7359 0.04207 0.0
O51 O 0.54806 0.7931 0.08237 0.0
O52 O 0.51473 0.78276 0.05694 0.0
C53 C 0.46383 0.71536 0.04164 0.0
C54 C 0.53639 0.80099 0.06687 0.0
O55 O 0.52753 0.72426 0.09501 0.0
Mg56 Mg 0.76438 0.53965 0.24104 0.0
O57 O 0.74243 0.51483 0.27529 0.0
O58 O 0.70234 0.4912 0.2589 0.0
Mg59 Mg 0.69525 0.49955 0.2204 0.0
C60 C 0.71817 0.49655 0.27689 0.0
C61 C 0.82293 0.56911 0.25792 0.0
O62 O 0.82742 0.57947 0.23564 0.0
O63 O 0.76417 0.50387 0.22276 0.0
O64 O 0.72251 0.48442 0.20791 0.0
O65 O 0.75373 0.57128 0.24962 0.0
O66 O 0.73154 0.53815 0.22329 0.0
C67 C 0.74529 0.48622 0.20948 0.0
C68 C 0.73461 0.55951 0.23378 0.0
O69 O 0.80002 0.55051 0.26392 0.0
Mg70 Mg 0.21975 0.76581 0.42487 0.0
O71 O 0.24203 0.7611 0.39081 0.0
O72 O 0.28306 0.77675 0.40526 0.0
Mg73 Mg 0.28873 0.79246 0.4443 0.0
C74 C 0.26598 0.76617 0.38809 0.0
C75 C 0.1629 0.74308 0.4051 0.0
O76 O 0.16104 0.75829 0.42223 0.0
O77 O 0.21801 0.73041 0.44446 0.0
O78 O 0.26044 0.7501 0.45734 0.0
O79 O 0.2313 0.80858 0.41597 0.0
O80 O 0.25356 0.79677 0.44112 0.0
C81 C 0.23678 0.73015 0.45641 0.0
C82 C 0.25104 0.81549 0.43098 0.0
O83 O 0.18289 0.73994 0.40394 0.0
C84 C 0.43072 0.14379 0.53599 0.0
C85 C 0.42226 0.14922 0.55853 0.0
C86 C 0.4199 0.11737 0.52744 0.0
C87 C 0.37794 0.01299 0.49453 0.0
C88 C 0.26058 0.84716 0.46527 0.0
C89 C 0.26623 0.84274 0.44111 0.0
C90 C 0.27633 0.87201 0.47674 0.0
C91 C 0.3372 0.97065 0.52123 0.0
H92 H 0.44551 0.16 0.52474 0.0
H93 H 0.42673 0.11373 0.51002 0.0
H94 H 0.39343 0.02926 0.48386 0.0
H95 H 0.24414 0.83119 0.47541 0.0
H96 H 0.27167 0.87496 0.49544 0.0
H97 H 0.3212 0.9545 0.5316 0.0
C98 C 0.40238 0.12772 0.57213 0.0
C99 C 0.39176 0.1012 0.56367 0.0
C100 C 0.35024 -0.00325 0.53106 0.0
C101 C 0.28787 0.8634 0.42846 0.0
C102 C 0.30379 0.88832 0.44004 0.0
C103 C 0.3649 0.98689 0.4847 0.0
C104 C 0.40066 0.09592 0.54141 0.0
C105 C 0.39038 0.06851 0.5331 0.0
C106 C 0.38166 0.04552 0.52631 0.0
C107 C 0.37027 0.01814 0.5175 0.0
H108 H 0.39523 0.13137 0.58936 0.0
H109 H 0.37672 0.08481 0.57457 0.0
H110 H 0.34412 0.00035 0.54888 0.0
H111 H 0.29282 0.86006 0.41002 0.0
H112 H 0.32065 0.90409 0.4302 0.0
H113 H 0.37051 0.98343 0.46658 0.0
C114 C 0.29816 0.89264 0.46427 0.0
C115 C 0.31471 0.91817 0.47635 0.0
C116 C 0.32859 0.93954 0.48643 0.0
C117 C 0.34409 0.96572 0.49778 0.0
C118 C 0.41387 0.28913 0.6024 0.0
C119 C 0.40994 0.26438 0.61072 0.0
C120 C 0.39842 0.29927 0.61203 0.0
C121 C 0.33052 0.33357 0.6366 0.0
C122 C 0.24487 0.38224 0.73432 0.0
C123 C 0.24918 0.40668 0.72437 0.0
C124 C 0.25534 0.3678 0.72266 0.0
C125 C 0.29705 0.3117 0.67757 0.0
H126 H 0.42679 0.29912 0.58681 0.0
H127 H 0.39983 0.3172 0.60395 0.0
H128 H 0.34387 0.34249 0.62105 0.0
H129 H 0.23277 0.3739 0.7507 0.0
H130 H 0.25148 0.34877 0.73039 0.0
H131 H 0.28455 0.30334 0.69372 0.0
C132 C 0.39359 0.25177 0.63118 0.0
C133 C 0.37835 0.26214 0.64109 0.0
C134 C 0.31074 0.29931 0.66833 0.0
C135 C 0.26487 0.4168 0.70291 0.0
C136 C 0.27513 0.40224 0.69119 0.0
C137 C 0.3168 0.34596 0.64584 0.0
C138 C 0.37963 0.28498 0.6304 0.0
C139 C 0.36041 0.2927 0.63666 0.0
C140 C 0.3448 0.30008 0.64119 0.0
C141 C 0.3279 0.31054 0.64818 0.0
H142 H 0.39088 0.23281 0.63802 0.0
H143 H 0.36429 0.2513 0.65573 0.0
H144 H 0.30871 0.28158 0.67748 0.0
H145 H 0.26835 0.43544 0.69456 0.0
H146 H 0.28658 0.41006 0.67437 0.0
H147 H 0.31964 0.36427 0.63727 0.0
C148 C 0.27013 0.37756 0.70088 0.0
C149 C 0.2802 0.36229 0.68848 0.0
C150 C 0.28872 0.34965 0.67795 0.0
C151 C 0.30043 0.33533 0.66665 0.0
C152 C 0.8504 0.26893 0.90119 0.0
C153 C 0.82798 0.24983 0.88839 0.0
C154 C 0.87544 0.27895 0.8907 0.0
C155 C 0.9735 0.30977 0.86264 0.0
C156 C 0.10299 0.37861 0.7626 0.0
C157 C 0.12651 0.39563 0.77522 0.0
C158 C 0.07914 0.36487 0.77536 0.0
C159 C -0.01456 0.30387 0.81378 0.0
H160 H 0.84874 0.27427 0.92002 0.0
H161 H 0.89293 0.29213 0.90148 0.0
H162 H 0.969 0.31267 0.88141 0.0
H163 H 0.10326 0.37523 0.74296 0.0
H164 H 0.06121 0.35106 0.76543 0.0
H165 H -0.01016 0.30196 0.7947 0.0
C166 C 0.83005 0.24335 0.86387 0.0
C167 C 0.85519 0.25358 0.85326 0.0
C168 C 0.95904 0.29058 0.82176 0.0
C169 C 0.12589 0.40038 0.80057 0.0
C170 C 0.10185 0.38631 0.81349 0.0
C171 C -0.00012 0.32299 0.85468 0.0
C172 C 0.87785 0.27018 0.86729 0.0
C173 C 0.90364 0.27683 0.85877 0.0
C174 C 0.92602 0.2834 0.85313 0.0
C175 C 0.9531 0.29391 0.84605 0.0
H176 H 0.81258 0.22881 0.85379 0.0
H177 H 0.85699 0.24719 0.83489 0.0
H178 H 0.94324 0.27854 0.80882 0.0
H179 H 0.14404 0.41364 0.81049 0.0
H180 H 0.10152 0.38905 0.83324 0.0
H181 H 0.01554 0.33595 0.86736 0.0
C182 C 0.07867 0.368 0.80085 0.0
C183 C 0.05422 0.35157 0.81352 0.0
C184 C 0.03247 0.33659 0.82157 0.0
C185 C 0.0058 0.32037 0.8302 0.0
C186 C 0.57362 0.84894 0.06782 0.0
C187 C 0.55021 0.82868 0.05675 0.0
C188 C 0.58911 0.87373 0.056 0.0
C189 C 0.64951 0.97173 0.01023 0.0
C190 C 0.68395 0.1139 0.92659 0.0
C191 C 0.705 0.13504 0.93937 0.0
C192 C 0.67329 0.08738 0.93498 0.0
C193 C 0.63163 0.98289 0.96631 0.0
H194 H 0.58036 0.84538 0.08528 0.0
H195 H 0.60728 0.88891 0.06471 0.0
H196 H 0.65639 0.96778 0.02745 0.0
H197 H 0.6761 0.11785 0.90999 0.0
H198 H 0.65721 0.07116 0.92477 0.0
H199 H 0.62425 0.98702 0.94948 0.0
C200 C 0.54223 0.83404 0.03392 0.0
C201 C 0.55786 0.85875 0.02203 0.0
C202 C 0.61849 0.95674 0.97603 0.0
C203 C 0.71481 0.1296 0.96095 0.0
C204 C 0.70434 0.10312 0.9692 0.0
C205 C 0.66264 -0.00213 0.00051 0.0
C206 C 0.58154 0.87859 0.03289 0.0
C207 C 0.598 0.90393 0.02042 0.0
C208 C 0.61167 0.92508 0.00989 0.0
C209 C 0.62704 0.95117 0.99832 0.0
H210 H 0.52449 0.81876 0.02469 0.0
H211 H 0.55167 0.86216 0.00419 0.0
H212 H 0.60119 0.9411 0.96656 0.0
H213 H 0.73111 0.14579 0.97102 0.0
H214 H 0.7126 0.09925 0.98558 0.0
H215 H 0.67947 0.01368 0.01036 0.0
C216 C 0.68377 0.08183 0.95605 0.0
C217 C 0.67366 0.05432 0.96394 0.0
C218 C 0.66501 0.03121 0.97033 0.0
C219 C 0.65342 0.00369 0.97878 0.0
C220 C 0.7156 0.58982 0.23943 0.0
C221 C 0.72006 0.57252 0.22446 0.0
C222 C 0.70524 0.60503 0.2292 0.0
C223 C 0.66509 0.6649 0.1901 0.0
C224 C 0.56503 0.69649 0.09798 0.0
C225 C 0.5596 0.71443 0.11061 0.0
C226 C 0.58068 0.68738 0.109 0.0
C227 C 0.65004 0.65897 0.14043 0.0
H228 H 0.7206 0.59194 0.25886 0.0
H229 H 0.70214 0.61853 0.24092 0.0
H230 H 0.67037 0.66693 0.20946 0.0
H231 H 0.559 0.6913 0.07892 0.0
H232 H 0.58635 0.67502 0.09838 0.0
H233 H 0.6438 0.6561 0.1213 0.0
C234 C 0.71333 0.57006 0.1993 0.0
C235 C 0.70345 0.5856 0.18903 0.0
C236 C 0.66372 0.64647 0.14948 0.0
C237 C 0.5671 0.72075 0.13539 0.0
C238 C 0.58271 0.71144 0.14654 0.0
C239 C 0.65148 0.67741 0.18106 0.0
C240 C 0.69965 0.60333 0.20391 0.0
C241 C 0.69013 0.61985 0.19319 0.0
C242 C 0.68216 0.63377 0.18441 0.0
C243 C 0.67083 0.64901 0.17444 0.0
H244 H 0.71692 0.5571 0.18727 0.0
H245 H 0.69922 0.58409 0.16945 0.0
H246 H 0.66797 0.63415 0.13723 0.0
H247 H 0.56272 0.73447 0.14537 0.0
H248 H 0.58987 0.71768 0.16519 0.0
H249 H 0.64634 0.68889 0.19353 0.0
C250 C 0.5906 0.69589 0.13279 0.0
C251 C 0.6101 0.68982 0.14209 0.0
C252 C 0.62628 0.68374 0.14827 0.0
C253 C 0.64348 0.67404 0.15637 0.0
C254 C 0.12412 0.70104 0.39205 0.0
C255 C 0.14114 0.72854 0.38817 0.0
C256 C 0.09807 0.68911 0.38355 0.0
C257 C -0.00616 0.64637 0.36464 0.0
C258 C 0.85831 0.61013 0.27748 0.0
C259 C 0.84278 0.58203 0.2772 0.0
C260 C 0.88032 0.62261 0.29286 0.0
C261 C 0.97616 0.67352 0.334 0.0
H262 H 0.12994 0.68973 0.404 0.0
H263 H 0.08403 0.66854 0.38878 0.0
H264 H 0.00071 0.63556 0.37605 0.0
H265 H 0.85418 0.62231 0.26498 0.0
H266 H 0.89324 0.64425 0.29177 0.0
H267 H 0.96957 0.68401 0.32185 0.0
C268 C 0.13398 0.74298 0.37217 0.0
C269 C 0.10804 0.73092 0.3633 0.0
C270 C 0.00225 0.68684 0.34279 0.0
C271 C 0.84705 0.56665 0.29479 0.0
C272 C 0.8693 0.5792 0.31014 0.0
C273 C 0.96779 0.63308 0.35589 0.0
C274 C 0.08973 0.70459 0.37049 0.0
C275 C 0.06206 0.69431 0.36659 0.0
C276 C 0.0387 0.68522 0.36352 0.0
C277 C 0.01115 0.67307 0.35772 0.0
H278 H 0.14755 0.76414 0.36853 0.0
H279 H 0.10178 0.74275 0.35264 0.0
H280 H 0.01568 0.70747 0.33726 0.0
H281 H 0.83439 0.54496 0.29543 0.0
H282 H 0.87376 0.5671 0.32245 0.0
H283 H 0.95467 0.61215 0.36073 0.0
C284 C 0.88651 0.60705 0.30828 0.0
C285 C 0.91162 0.61974 0.32046 0.0
C286 C 0.93307 0.63206 0.32994 0.0
C287 C 0.95911 0.64651 0.3403 0.0
C288 C 0.54765 0.30277 0.5273 0.0
C289 C 0.52089 0.28363 0.52307 0.0
C290 C 0.56424 0.31703 0.50753 0.0
C291 C 0.63157 0.37122 0.43218 0.0
C292 C 0.68143 0.45669 0.29666 0.0
C293 C 0.70716 0.47919 0.29891 0.0
C294 C 0.66938 0.43914 0.31605 0.0
C295 C 0.6127 0.36617 0.38384 0.0
H296 H 0.55602 0.30561 0.54564 0.0
H297 H 0.58508 0.33123 0.51099 0.0
H298 H 0.63899 0.37372 0.45089 0.0
H299 H 0.67024 0.45221 0.27965 0.0
H300 H 0.64954 0.42206 0.31347 0.0
H301 H 0.60505 0.3643 0.36528 0.0
C302 C 0.51063 0.27954 0.49899 0.0
C303 C 0.52728 0.29358 0.47921 0.0
C304 C 0.59598 0.34887 0.4023 0.0
C305 C 0.72081 0.48364 0.32148 0.0
C306 C 0.70843 0.46566 0.34126 0.0
C307 C 0.64824 0.38841 0.41378 0.0
C308 C 0.55428 0.31195 0.48339 0.0
C309 C 0.57196 0.32513 0.46296 0.0
C310 C 0.58719 0.33644 0.44619 0.0
C311 C 0.60523 0.35177 0.42662 0.0
H312 H 0.49019 0.26418 0.49531 0.0
H313 H 0.51932 0.28939 0.46063 0.0
H314 H 0.57564 0.33388 0.39779 0.0
H315 H 0.74069 0.50072 0.32384 0.0
H316 H 0.71887 0.46909 0.35863 0.0
H317 H 0.66831 0.40391 0.4185 0.0
C318 C 0.68266 0.44331 0.33834 0.0
C319 C 0.6691 0.42396 0.35759 0.0
C320 C 0.65534 0.40628 0.37185 0.0
C321 C 0.63874 0.38636 0.38972 0.0
C322 C 0.24254 0.693 0.47094 0.0
C323 C 0.23069 0.70887 0.47396 0.0
C324 C 0.24465 0.67906 0.49097 0.0
C325 C 0.25577 0.62508 0.56677 0.0
C326 C 0.21104 0.52589 0.69608 0.0
C327 C 0.22122 0.5089 0.69075 0.0
C328 C 0.21419 0.54533 0.6788 0.0
C329 C 0.23292 0.62421 0.61254 0.0
H330 H 0.25154 0.69269 0.4535 0.0
H331 H 0.25455 0.66742 0.48863 0.0
H332 H 0.26415 0.62494 0.54893 0.0
H333 H 0.20242 0.52535 0.71395 0.0
H334 H 0.20752 0.55942 0.68328 0.0
H335 H 0.22356 0.62359 0.63002 0.0
C336 C 0.22013 0.71009 0.49691 0.0
C337 C 0.22252 0.69637 0.51704 0.0
C338 C 0.23395 0.64162 0.59417 0.0
C339 C 0.23215 0.50965 0.66745 0.0
C340 C 0.23545 0.52903 0.65045 0.0
C341 C 0.25476 0.60764 0.58519 0.0
C342 C 0.23525 0.68128 0.5141 0.0
C343 C 0.23915 0.66832 0.53476 0.0
C344 C 0.24286 0.6571 0.55158 0.0
C345 C 0.24494 0.64173 0.57119 0.0
H346 H 0.21189 0.72321 0.49966 0.0
H347 H 0.21533 0.6983 0.53496 0.0
H348 H 0.22536 0.65432 0.59761 0.0
H349 H 0.23964 0.4962 0.66297 0.0
H350 H 0.24529 0.53029 0.63309 0.0
H351 H 0.26237 0.59416 0.58145 0.0
C352 C 0.22728 0.54743 0.65644 0.0
C353 C 0.23333 0.56898 0.63988 0.0
C354 C 0.2387 0.58685 0.62559 0.0
C355 C 0.2429 0.60692 0.60788 0.0
C356 C 0.66676 0.19446 0.85771 0.0
C357 C 0.69211 0.21547 0.86437 0.0
C358 C 0.65138 0.19829 0.84022 0.0
C359 C 0.58378 0.20813 0.77686 0.0
C360 C 0.53124 0.25184 0.64312 0.0
C361 C 0.50711 0.22856 0.63714 0.0
C362 C 0.54495 0.25293 0.66486 0.0
C363 C 0.60203 0.25413 0.74749 0.0
H364 H 0.65804 0.17535 0.86731 0.0
H365 H 0.63135 0.18202 0.83662 0.0
H366 H 0.57655 0.19004 0.78786 0.0
H367 H 0.54001 0.26874 0.63051 0.0
H368 H 0.56383 0.27083 0.6688 0.0
H369 H 0.60955 0.27199 0.73614 0.0
C370 C 0.70298 0.23995 0.8513 0.0
C371 C 0.68746 0.24371 0.83335 0.0
C372 C 0.61809 0.25344 0.76652 0.0
C373 C 0.49661 0.2067 0.65355 0.0
C374 C 0.51034 0.20775 0.67521 0.0
C375 C 0.56767 0.20883 0.75781 0.0
C376 C 0.66115 0.22312 0.82843 0.0
C377 C 0.64354 0.22702 0.81193 0.0
C378 C 0.62762 0.22864 0.79847 0.0
C379 C 0.60941 0.23025 0.78095 0.0
H380 H 0.72247 0.25658 0.85604 0.0
H381 H 0.69555 0.26297 0.82412 0.0
H382 H 0.63769 0.27077 0.76943 0.0
H383 H 0.47835 0.18834 0.64905 0.0
H384 H 0.50218 0.19032 0.68721 0.0
H385 H 0.5483 0.19129 0.7545 0.0
C386 C 0.53476 0.23076 0.68092 0.0
C387 C 0.5495 0.23132 0.70289 0.0
C388 C 0.5616 0.23153 0.72129 0.0
C389 C 0.57696 0.23163 0.74261 0.0
C390 C 0.2503 0.50962 0.81428 0.0
C391 C 0.25927 0.49378 0.80254 0.0
C392 C 0.26269 0.52331 0.83608 0.0
C393 C 0.31944 0.58114 0.91822 0.0
C394 C 0.45254 0.67407 0.016 0.0
C395 C 0.44588 0.69293 0.02521 0.0
C396 C 0.43563 0.65434 0.99906 0.0
C397 C 0.36362 0.57738 0.93333 0.0
H398 H 0.23481 0.5124 0.80607 0.0
H399 H 0.25638 0.53625 0.84472 0.0
H400 H 0.30257 0.58296 0.91227 0.0
H401 H 0.47082 0.67479 0.02156 0.0
H402 H 0.44088 0.63988 0.99213 0.0
H403 H 0.38086 0.576 0.93883 0.0
C404 C 0.27951 0.49067 0.81324 0.0
C405 C 0.29173 0.50419 0.83485 0.0
C406 C 0.34703 0.56054 0.91465 0.0
C407 C 0.42243 0.69189 0.01682 0.0
C408 C 0.40574 0.67234 6e-05 0.0
C409 C 0.33605 0.59801 0.93688 0.0
C410 C 0.28366 0.52083 0.84616 0.0
C411 C 0.29747 0.53559 0.86781 0.0
C412 C 0.30973 0.54749 0.8859 0.0
C413 C 0.32522 0.56277 0.90674 0.0
H414 H 0.28651 0.47843 0.80433 0.0
H415 H 0.30789 0.50209 0.84242 0.0
H416 H 0.35168 0.54637 0.90595 0.0
H417 H 0.41683 0.70626 0.02323 0.0
H418 H 0.38772 0.67198 0.9941 0.0
H419 H 0.3318 0.61267 0.94512 0.0
C420 C 0.41203 0.65331 0.99133 0.0
C421 C 0.39365 0.63254 0.97495 0.0
C422 C 0.37735 0.61579 0.96131 0.0
C423 C 0.35852 0.59655 0.94411 0.0
C424 C 0.75492 0.27294 0.99472 0.0
C425 C 0.74112 0.27149 0.97302 0.0
C426 C 0.75999 0.2928 0.01214 0.0
C427 C 0.77637 0.37006 0.08018 0.0
C428 C 0.74299 0.47419 0.16599 0.0
C429 C 0.75142 0.47273 0.18993 0.0
C430 C 0.74706 0.4609 0.14663 0.0
C431 C 0.75566 0.40413 0.0713 0.0
H432 H 0.76107 0.25828 0.99845 0.0
H433 H 0.77031 0.29357 0.02904 0.0
H434 H 0.78406 0.35665 0.08388 0.0
H435 H 0.73312 0.48564 0.16223 0.0
H436 H 0.74011 0.46201 0.12835 0.0
H437 H 0.74725 0.41697 0.06789 0.0
C438 C 0.73252 0.28993 0.96869 0.0
C439 C 0.73787 0.30999 0.98597 0.0
C440 C 0.75459 0.38664 0.05288 0.0
C441 C 0.76488 0.45856 0.19423 0.0
C442 C 0.7688 0.44498 0.17469 0.0
C443 C 0.77744 0.38752 0.09858 0.0
C444 C 0.75154 0.31138 0.00767 0.0
C445 C 0.75682 0.33193 0.02529 0.0
C446 C 0.76094 0.34941 0.03973 0.0
C447 C 0.76452 0.36929 0.05751 0.0
H448 H 0.72148 0.28861 0.95214 0.0
H449 H 0.73115 0.32423 0.98252 0.0
H450 H 0.74535 0.3861 0.03536 0.0
H451 H 0.77166 0.45745 0.21256 0.0
H452 H 0.77865 0.43346 0.17805 0.0
H453 H 0.78593 0.38745 0.11636 0.0
C454 C 0.75972 0.44609 0.151 0.0
C455 C 0.76291 0.43174 0.13108 0.0
C456 C 0.76531 0.41989 0.114 0.0
C457 C 0.76669 0.4042 0.09427 0.0
C458 C 0.30105 0.78481 0.35656 0.0
C459 C 0.27649 0.76309 0.36411 0.0
C460 C 0.31691 0.78136 0.33929 0.0
C461 C 0.38578 0.77287 0.2761 0.0
C462 C 0.43911 0.72666 0.14427 0.0
C463 C 0.46209 0.75058 0.13719 0.0
C464 C 0.42559 0.72572 0.16612 0.0
C465 C 0.36916 0.72552 0.24907 0.0
H466 H 0.30891 0.80427 0.36543 0.0
H467 H 0.33639 0.79826 0.33501 0.0
H468 H 0.39235 0.79147 0.28617 0.0
H469 H 0.43101 0.7091 0.13242 0.0
H470 H 0.40751 0.70731 0.17093 0.0
H471 H 0.36226 0.70711 0.23861 0.0
C472 C 0.26683 0.73808 0.35217 0.0
C473 C 0.28279 0.73468 0.33443 0.0
C474 C 0.35313 0.72625 0.26812 0.0
C475 C 0.47176 0.7732 0.15263 0.0
C476 C 0.45826 0.77227 0.17441 0.0
C477 C 0.40187 0.77213 0.25701 0.0
C478 C 0.30838 0.75616 0.32861 0.0
C479 C 0.32647 0.75278 0.31229 0.0
C480 C 0.34262 0.75147 0.29888 0.0
C481 C 0.36097 0.75007 0.28138 0.0
H482 H 0.24806 0.72087 0.35771 0.0
H483 H 0.27568 0.71508 0.32609 0.0
H484 H 0.33416 0.70841 0.27196 0.0
H485 H 0.4892 0.79195 0.14732 0.0
H486 H 0.46575 0.79024 0.18566 0.0
H487 H 0.42056 0.79014 0.25275 0.0
C488 C 0.43491 0.74864 0.18118 0.0
C489 C 0.42032 0.74825 0.20319 0.0
C490 C 0.40848 0.7484 0.22164 0.0
C491 C 0.39335 0.74859 0.243 0.0
loop_
_geom_bond_atom_site_label_1
_geom_bond_atom_site_label_2
_geom_bond_distance
_geom_bond_site_symmetry_2
_ccdc_geom_bond_type
Mg0 O1 2.028 . S
Mg0 O7 1.986 . S
Mg0 O9 2.114 . S
Mg0 O10 2.251 . S
Mg0 O13 2.010 . S
O1 Mg0 2.028 . S
O1 C4 1.250 . S
O2 Mg3 2.028 . S
O2 C4 1.248 . S
Mg3 O2 2.028 . S
Mg3 O8 2.032 . S
Mg3 O10 2.079 . S
C4 O1 1.250 . S
C4 O2 1.248 . S
C5 O6 1.264 . S
C5 O13 1.249 . S
O6 C5 1.264 . S
O7 Mg0 1.986 . S
O7 C11 1.246 . S
O8 Mg3 2.032 . S
O8 C11 1.259 . S
O9 Mg0 2.114 . S
O9 C12 1.252 . S
O10 Mg0 2.251 . S
O10 Mg3 2.079 . S
O10 C12 1.273 . S
C11 O7 1.246 . S
C11 O8 1.259 . S
C12 O9 1.252 . S
C12 O10 1.273 . S
O13 Mg0 2.010 . S
O13 C5 1.249 . S
Mg14 O15 2.028 . S
Mg14 O21 1.986 . S
Mg14 O23 2.114 . S
Mg14 O24 2.251 . S
Mg14 O27 2.010 . S
O15 Mg14 2.028 . S
O15 C18 1.250 . S
O16 Mg17 2.028 . S
O16 C18 1.248 . S
Mg17 O16 2.028 . S
Mg17 O22 2.032 . S
Mg17 O24 2.079 . S
C18 O15 1.250 . S
C18 O16 1.248 . S
C19 O20 1.264 . S
C19 O27 1.249 . S
O20 C19 1.264 . S
O21 Mg14 1.986 . S
O21 C25 1.246 . S
O22 Mg17 2.032 . S
O22 C25 1.259 . S
O23 Mg14 2.114 . S
O23 C26 1.252 . S
O24 Mg14 2.251 . S
O24 Mg17 2.079 . S
O24 C26 1.273 . S
C25 O21 1.246 . S
C25 O22 1.259 . S
C26 O23 1.252 . S
C26 O24 1.273 . S
O27 Mg14 2.010 . S
O27 C19 1.249 . S
Mg28 O29 2.028 . S
Mg28 O35 1.986 . S
Mg28 O37 2.114 . S
Mg28 O38 2.251 . S
Mg28 O41 2.010 . S
O29 Mg28 2.028 . S
O29 C32 1.250 . S
O30 Mg31 2.028 . S
O30 C32 1.248 . S
Mg31 O30 2.028 . S
Mg31 O36 2.032 . S
Mg31 O38 2.079 . S
C32 O29 1.250 . S
C32 O30 1.248 . S
C33 O34 1.264 . S
C33 O41 1.249 . S
O34 C33 1.264 . S
O35 Mg28 1.986 . S
O35 C39 1.246 . S
O36 Mg31 2.032 . S
O36 C39 1.259 . S
O37 Mg28 2.114 . S
O37 C40 1.252 . S
O38 Mg28 2.251 . S
O38 Mg31 2.079 . S
O38 C40 1.273 . S
C39 O35 1.246 . S
C39 O36 1.259 . S
C40 O37 1.252 . S
C40 O38 1.273 . S
O41 Mg28 2.010 . S
O41 C33 1.249 . S
Mg42 O43 2.028 . S
Mg42 O49 1.986 . S
Mg42 O51 2.114 . S
Mg42 O52 2.251 . S
Mg42 O55 2.010 . S
O43 Mg42 2.028 . S
O43 C46 1.250 . S
O44 Mg45 2.028 . S
O44 C46 1.248 . S
Mg45 O44 2.028 . S
Mg45 O50 2.032 . S
Mg45 O52 2.079 . S
C46 O43 1.250 . S
C46 O44 1.248 . S
C47 O48 1.264 . S
C47 O55 1.249 . S
O48 C47 1.264 . S
O49 Mg42 1.986 . S
O49 C53 1.246 . S
O50 Mg45 2.032 . S
O50 C53 1.259 . S
O51 Mg42 2.114 . S
O51 C54 1.252 . S
O52 Mg42 2.251 . S
O52 Mg45 2.079 . S
O52 C54 1.273 . S
C53 O49 1.246 . S
C53 O50 1.259 . S
C54 O51 1.252 . S
C54 O52 1.273 . S
O55 Mg42 2.010 . S
O55 C47 1.249 . S
Mg56 O57 2.028 . S
Mg56 O63 1.986 . S
Mg56 O65 2.114 . S
Mg56 O66 2.251 . S
Mg56 O69 2.010 . S
O57 Mg56 2.028 . S
O57 C60 1.250 . S
O58 Mg59 2.028 . S
O58 C60 1.248 . S
Mg59 O58 2.028 . S
Mg59 O64 2.032 . S
Mg59 O66 2.079 . S
C60 O57 1.250 . S
C60 O58 1.248 . S
C61 O62 1.264 . S
C61 O69 1.249 . S
O62 C61 1.264 . S
O63 Mg56 1.986 . S
O63 C67 1.246 . S
O64 Mg59 2.032 . S
O64 C67 1.259 . S
O65 Mg56 2.114 . S
O65 C68 1.252 . S
O66 Mg56 2.251 . S
O66 Mg59 2.079 . S
O66 C68 1.273 . S
C67 O63 1.246 . S
C67 O64 1.259 . S
C68 O65 1.252 . S
C68 O66 1.273 . S
O69 Mg56 2.010 . S
O69 C61 1.249 . S
Mg70 O71 2.028 . S
Mg70 O77 1.986 . S
Mg70 O79 2.114 . S
Mg70 O80 2.251 . S
Mg70 O83 2.010 . S
O71 Mg70 2.028 . S
O71 C74 1.250 . S
O72 Mg73 2.028 . S
O72 C74 1.248 . S
Mg73 O72 2.028 . S
Mg73 O78 2.032 . S
Mg73 O80 2.079 . S
C74 O71 1.250 . S
C74 O72 1.248 . S
C75 O76 1.264 . S
C75 O83 1.249 . S
O76 C75 1.264 . S
O77 Mg70 1.986 . S
O77 C81 1.246 . S
O78 Mg73 2.032 . S
O78 C81 1.259 . S
O79 Mg70 2.114 . S
O79 C82 1.252 . S
O80 Mg70 2.251 . S
O80 Mg73 2.079 . S
O80 C82 1.273 . S
C81 O77 1.246 . S
C81 O78 1.259 . S
C82 O79 1.252 . S
C82 O80 1.273 . S
O83 Mg70 2.010 . S
O83 C75 1.249 . S
C84 C85 1.420 . S
C84 C86 1.385 . S
C84 H92 0.928 . S
C85 C84 1.420 . S
C85 C98 1.420 . S
C86 C84 1.385 . S
C86 H93 0.929 . S
C86 C104 1.407 . S
C87 H94 0.928 . S
C87 C103 1.374 1_545 S
C87 C107 1.388 . S
C88 C89 1.420 . S
C88 C90 1.385 . S
C88 H95 0.928 . S
C89 C88 1.420 . S
C89 C101 1.420 . S
C90 C88 1.385 . S
C90 H96 0.929 . S
C90 C114 1.407 . S
C91 H97 0.928 . S
C91 C100 1.374 1_565 S
C91 C117 1.388 . S
H92 C84 0.928 . S
H93 C86 0.929 . S
H94 C87 0.928 . S
H95 C88 0.928 . S
H96 C90 0.929 . S
H97 C91 0.928 . S
C98 C85 1.420 . S
C98 C99 1.385 . S
C98 H108 0.928 . S
C99 C98 1.385 . S
C99 C104 1.407 . S
C99 H109 0.929 . S
C100 C91 1.374 1_545 S
C100 C107 1.388 . S
C100 H110 0.928 . S
C101 C89 1.420 . S
C101 C102 1.385 . S
C101 H111 0.928 . S
C102 C101 1.385 . S
C102 H112 0.929 . S
C102 C114 1.407 . S
C103 C87 1.374 1_565 S
C103 H113 0.928 . S
C103 C117 1.388 . S
C104 C86 1.407 . S
C104 C99 1.407 . S
C104 C105 1.428 . S
C105 C104 1.428 . S
C105 C106 1.230 . S
C106 C105 1.230 . S
C106 C107 1.405 . S
C107 C87 1.388 . S
C107 C100 1.388 . S
C107 C106 1.405 . S
H108 C98 0.928 . S
H109 C99 0.929 . S
H110 C100 0.928 . S
H111 C101 0.928 . S
H112 C102 0.929 . S
H113 C103 0.928 . S
C114 C90 1.407 . S
C114 C102 1.407 . S
C114 C115 1.428 . S
C115 C114 1.428 . S
C115 C116 1.230 . S
C116 C115 1.230 . S
C116 C117 1.405 . S
C117 C91 1.388 . S
C117 C103 1.388 . S
C117 C116 1.405 . S
C118 C119 1.420 . S
C118 C120 1.385 . S
C118 H126 0.928 . S
C119 C118 1.420 . S
C119 C132 1.420 . S
C120 C118 1.385 . S
C120 H127 0.929 . S
C120 C138 1.407 . S
C121 H128 0.928 . S
C121 C137 1.374 . S
C121 C141 1.388 . S
C122 C123 1.420 . S
C122 C124 1.385 . S
C122 H129 0.928 . S
C123 C122 1.420 . S
C123 C135 1.420 . S
C124 C122 1.385 . S
C124 H130 0.929 . S
C124 C148 1.407 . S
C125 H131 0.928 . S
C125 C134 1.374 . S
C125 C151 1.388 . S
H126 C118 0.928 . S
H127 C120 0.929 . S
H128 C121 0.928 . S
H129 C122 0.928 . S
H130 C124 0.929 . S
H131 C125 0.928 . S
C132 C119 1.420 . S
C132 C133 1.385 . S
C132 H142 0.928 . S
C133 C132 1.385 . S
C133 C138 1.407 . S
C133 H143 0.929 . S
C134 C125 1.374 . S
C134 C141 1.388 . S
C134 H144 0.928 . S
C135 C123 1.420 . S
C135 C136 1.385 . S
C135 H145 0.928 . S
C136 C135 1.385 . S
C136 H146 0.929 . S
C136 C148 1.407 . S
C137 C121 1.374 . S
C137 H147 0.928 . S
C137 C151 1.388 . S
C138 C120 1.407 . S
C138 C133 1.407 . S
C138 C139 1.428 . S
C139 C138 1.428 . S
C139 C140 1.230 . S
C140 C139 1.230 . S
C140 C141 1.405 . S
C141 C121 1.388 . S
C141 C134 1.388 . S
C141 C140 1.405 . S
H142 C132 0.928 . S
H143 C133 0.929 . S
H144 C134 0.928 . S
H145 C135 0.928 . S
H146 C136 0.929 . S
H147 C137 0.928 . S
C148 C124 1.407 . S
C148 C136 1.407 . S
C148 C149 1.428 . S
C149 C148 1.428 . S
C149 C150 1.230 . S
C150 C149 1.230 . S
C150 C151 1.405 . S
C151 C125 1.388 . S
C151 C137 1.388 . S
C151 C150 1.405 . S
C152 C153 1.420 . S
C152 C154 1.385 . S
C152 H160 0.928 . S
C153 C152 1.420 . S
C153 C166 1.420 . S
C154 C152 1.385 . S
C154 H161 0.929 . S
C154 C172 1.407 . S
C155 H162 0.928 . S
C155 C171 1.374 1_655 S
C155 C175 1.388 . S
C156 C157 1.420 . S
C156 C158 1.385 . S
C156 H163 0.928 . S
C157 C156 1.420 . S
C157 C169 1.420 . S
C158 C156 1.385 . S
C158 H164 0.929 . S
C158 C182 1.407 . S
C159 H165 0.926 1_655 S
C159 C168 1.378 . S
C159 C185 1.385 1_655 S
H160 C152 0.928 . S
H161 C154 0.929 . S
H162 C155 0.928 . S
H163 C156 0.928 . S
H164 C158 0.929 . S
H165 C159 0.926 1_455 S
C166 C153 1.420 . S
C166 C167 1.385 . S
C166 H176 0.928 . S
C167 C166 1.385 . S
C167 C172 1.407 . S
C167 H177 0.929 . S
C168 C159 1.378 . S
C168 C175 1.388 . S
C168 H178 0.928 . S
C169 C157 1.420 . S
C169 C170 1.385 . S
C169 H179 0.928 . S
C170 C169 1.385 . S
C170 H180 0.929 . S
C170 C182 1.407 . S
C171 C155 1.374 1_455 S
C171 H181 0.928 . S
C171 C185 1.388 . S
C172 C154 1.407 . S
C172 C167 1.407 . S
C172 C173 1.428 . S
C173 C172 1.428 . S
C173 C174 1.230 . S
C174 C173 1.230 . S
C174 C175 1.405 . S
C175 C155 1.388 . S
C175 C168 1.388 . S
C175 C174 1.405 . S
H176 C166 0.928 . S
H177 C167 0.929 . S
H178 C168 0.928 . S
H179 C169 0.928 . S
H180 C170 0.929 . S
H181 C171 0.928 . S
C182 C158 1.407 . S
C182 C170 1.407 . S
C182 C183 1.428 . S
C183 C182 1.428 . S
C183 C184 1.230 . S
C184 C183 1.230 . S
C184 C185 1.405 . S
C185 C159 1.385 1_455 S
C185 C171 1.388 . S
C185 C184 1.405 . S
C186 C187 1.420 . S
C186 C188 1.385 . S
C186 H194 0.928 . S
C187 C186 1.420 . S
C187 C200 1.420 . S
C188 C186 1.385 . S
C188 H195 0.929 . S
C188 C206 1.407 . S
C189 H196 0.928 . S
C189 C205 1.374 1_565 S
C189 C209 1.381 1_554 S
C190 C191 1.420 . S
C190 C192 1.385 . S
C190 H197 0.928 . S
C191 C190 1.420 . S
C191 C203 1.420 . S
C192 C190 1.385 . S
C192 H198 0.929 . S
C192 C216 1.407 . S
C193 H199 0.928 . S
C193 C202 1.374 . S
C193 C219 1.388 1_565 S
H194 C186 0.928 . S
H195 C188 0.929 . S
H196 C189 0.928 . S
H197 C190 0.928 . S
H198 C192 0.929 . S
H199 C193 0.928 . S
C200 C187 1.420 . S
C200 C201 1.385 . S
C200 H210 0.928 . S
C201 C200 1.385 . S
C201 C206 1.407 . S
C201 H211 0.929 . S
C202 C193 1.374 . S
C202 C209 1.401 . S
C202 H212 0.928 . S
C203 C191 1.420 . S
C203 C204 1.385 . S
C203 H213 0.928 . S
C204 C203 1.385 . S
C204 H214 0.929 . S
C204 C216 1.407 . S
C205 C189 1.374 1_545 S
C205 H215 0.928 . S
C205 C219 1.388 1_554 S
C206 C188 1.407 . S
C206 C201 1.407 . S
C206 C207 1.428 . S
C207 C206 1.428 . S
C207 C208 1.230 . S
C208 C207 1.230 . S
C208 C209 1.399 1_554 S
C209 C189 1.381 1_556 S
C209 C202 1.401 . S
C209 C208 1.399 1_556 S
H210 C200 0.928 . S
H211 C201 0.929 . S
H212 C202 0.928 . S
H213 C203 0.928 . S
H214 C204 0.929 . S
H215 C205 0.928 . S
C216 C192 1.407 . S
C216 C204 1.407 . S
C216 C217 1.428 . S
C217 C216 1.428 . S
C217 C218 1.230 . S
C218 C217 1.230 . S
C218 C219 1.405 . S
C219 C193 1.388 1_545 S
C219 C205 1.388 1_556 S
C219 C218 1.405 . S
C220 C221 1.420 . S
C220 C222 1.385 . S
C220 H228 0.928 . S
C221 C220 1.420 . S
C221 C234 1.420 . S
C222 C220 1.385 . S
C222 H229 0.929 . S
C222 C240 1.407 . S
C223 H230 0.928 . S
C223 C239 1.374 . S
C223 C243 1.388 . S
C224 C225 1.420 . S
C224 C226 1.385 . S
C224 H231 0.928 . S
C225 C224 1.420 . S
C225 C237 1.420 . S
C226 C224 1.385 . S
C226 H232 0.929 . S
C226 C250 1.407 . S
C227 H233 0.928 . S
C227 C236 1.374 . S
C227 C253 1.388 . S
H228 C220 0.928 . S
H229 C222 0.929 . S
H230 C223 0.928 . S
H231 C224 0.928 . S
H232 C226 0.929 . S
H233 C227 0.928 . S
C234 C221 1.420 . S
C234 C235 1.385 . S
C234 H244 0.928 . S
C235 C234 1.385 . S
C235 C240 1.407 . S
C235 H245 0.929 . S
C236 C227 1.374 . S
C236 C243 1.388 . S
C236 H246 0.928 . S
C237 C225 1.420 . S
C237 C238 1.385 . S
C237 H247 0.928 . S
C238 C237 1.385 . S
C238 H248 0.929 . S
C238 C250 1.407 . S
C239 C223 1.374 . S
C239 H249 0.928 . S
C239 C253 1.388 . S
C240 C222 1.407 . S
C240 C235 1.407 . S
C240 C241 1.428 . S
C241 C240 1.428 . S
C241 C242 1.230 . S
C242 C241 1.230 . S
C242 C243 1.405 . S
C243 C223 1.388 . S
C243 C236 1.388 . S
C243 C242 1.405 . S
H244 C234 0.928 . S
H245 C235 0.929 . S
H246 C236 0.928 . S
H247 C237 0.928 . S
H248 C238 0.929 . S
H249 C239 0.928 . S
C250 C226 1.407 . S
C250 C238 1.407 . S
C250 C251 1.428 . S
C251 C250 1.428 . S
C251 C252 1.230 . S
C252 C251 1.230 . S
C252 C253 1.405 . S
C253 C227 1.388 . S
C253 C239 1.388 . S
C253 C252 1.405 . S
C254 C255 1.420 . S
C254 C256 1.385 . S
C254 H262 0.928 . S
C255 C254 1.420 . S
C255 C268 1.420 . S
C256 C254 1.385 . S
C256 H263 0.929 . S
C256 C274 1.407 . S
C257 H264 0.928 . S
C257 C273 1.374 1_455 S
C257 C277 1.388 . S
C258 C259 1.420 . S
C258 C260 1.385 . S
C258 H265 0.928 . S
C259 C258 1.420 . S
C259 C271 1.420 . S
C260 C258 1.385 . S
C260 H266 0.929 . S
C260 C284 1.407 . S
C261 H267 0.928 . S
C261 C270 1.374 1_655 S
C261 C287 1.388 . S
H262 C254 0.928 . S
H263 C256 0.929 . S
H264 C257 0.928 . S
H265 C258 0.928 . S
H266 C260 0.929 . S
H267 C261 0.928 . S
C268 C255 1.420 . S
C268 C269 1.385 . S
C268 H278 0.928 . S
C269 C268 1.385 . S
C269 C274 1.407 . S
C269 H279 0.929 . S
C270 C261 1.374 1_455 S
C270 C277 1.388 . S
C270 H280 0.928 . S
C271 C259 1.420 . S
C271 C272 1.385 . S
C271 H281 0.928 . S
C272 C271 1.385 . S
C272 H282 0.929 . S
C272 C284 1.407 . S
C273 C257 1.374 1_655 S
C273 H283 0.928 . S
C273 C287 1.388 . S
C274 C256 1.407 . S
C274 C269 1.407 . S
C274 C275 1.428 . S
C275 C274 1.428 . S
C275 C276 1.230 . S
C276 C275 1.230 . S
C276 C277 1.405 . S
C277 C257 1.388 . S
C277 C270 1.388 . S
C277 C276 1.405 . S
H278 C268 0.928 . S
H279 C269 0.929 . S
H280 C270 0.928 . S
H281 C271 0.928 . S
H282 C272 0.929 . S
H283 C273 0.928 . S
C284 C260 1.407 . S
C284 C272 1.407 . S
C284 C285 1.428 . S
C285 C284 1.428 . S
C285 C286 1.230 . S
C286 C285 1.230 . S
C286 C287 1.405 . S
C287 C261 1.388 . S
C287 C273 1.388 . S
C287 C286 1.405 . S
C288 C289 1.420 . S
C288 C290 1.385 . S
C288 H296 0.928 . S
C289 C288 1.420 . S
C289 C302 1.420 . S
C290 C288 1.385 . S
C290 H297 0.929 . S
C290 C308 1.407 . S
C291 H298 0.928 . S
C291 C307 1.374 . S
C291 C311 1.388 . S
C292 C293 1.420 . S
C292 C294 1.385 . S
C292 H299 0.928 . S
C293 C292 1.420 . S
C293 C305 1.420 . S
C294 C292 1.385 . S
C294 H300 0.929 . S
C294 C318 1.407 . S
C295 H301 0.928 . S
C295 C304 1.374 . S
C295 C321 1.388 . S
H296 C288 0.928 . S
H297 C290 0.929 . S
H298 C291 0.928 . S
H299 C292 0.928 . S
H300 C294 0.929 . S
H301 C295 0.928 . S
C302 C289 1.420 . S
C302 C303 1.385 . S
C302 H312 0.928 . S
C303 C302 1.385 . S
C303 C308 1.407 . S
C303 H313 0.929 . S
C304 C295 1.374 . S
C304 C311 1.388 . S
C304 H314 0.928 . S
C305 C293 1.420 . S
C305 C306 1.385 . S
C305 H315 0.928 . S
C306 C305 1.385 . S
C306 H316 0.929 . S
C306 C318 1.407 . S
C307 C291 1.374 . S
C307 H317 0.928 . S
C307 C321 1.388 . S
C308 C290 1.407 . S
C308 C303 1.407 . S
C308 C309 1.428 . S
C309 C308 1.428 . S
C309 C310 1.230 . S
C310 C309 1.230 . S
C310 C311 1.405 . S
C311 C291 1.388 . S
C311 C304 1.388 . S
C311 C310 1.405 . S
H312 C302 0.928 . S
H313 C303 0.929 . S
H314 C304 0.928 . S
H315 C305 0.928 . S
H316 C306 0.929 . S
H317 C307 0.928 . S
C318 C294 1.407 . S
C318 C306 1.407 . S
C318 C319 1.428 . S
C319 C318 1.428 . S
C319 C320 1.230 . S
C320 C319 1.230 . S
C320 C321 1.405 . S
C321 C295 1.388 . S
C321 C307 1.388 . S
C321 C320 1.405 . S
C322 C323 1.420 . S
C322 C324 1.385 . S
C322 H330 0.928 . S
C323 C322 1.420 . S
C323 C336 1.420 . S
C324 C322 1.385 . S
C324 H331 0.929 . S
C324 C342 1.407 . S
C325 H332 0.928 . S
C325 C341 1.374 . S
C325 C345 1.388 . S
C326 C327 1.420 . S
C326 C328 1.385 . S
C326 H333 0.928 . S
C327 C326 1.420 . S
C327 C339 1.420 . S
C328 C326 1.385 . S
C328 H334 0.929 . S
C328 C352 1.407 . S
C329 H335 0.928 . S
C329 C338 1.374 . S
C329 C355 1.388 . S
H330 C322 0.928 . S
H331 C324 0.929 . S
H332 C325 0.928 . S
H333 C326 0.928 . S
H334 C328 0.929 . S
H335 C329 0.928 . S
C336 C323 1.420 . S
C336 C337 1.385 . S
C336 H346 0.928 . S
C337 C336 1.385 . S
C337 C342 1.407 . S
C337 H347 0.929 . S
C338 C329 1.374 . S
C338 C345 1.388 . S
C338 H348 0.928 . S
C339 C327 1.420 . S
C339 C340 1.385 . S
C339 H349 0.928 . S
C340 C339 1.385 . S
C340 H350 0.929 . S
C340 C352 1.407 . S
C341 C325 1.374 . S
C341 H351 0.928 . S
C341 C355 1.388 . S
C342 C324 1.407 . S
C342 C337 1.407 . S
C342 C343 1.428 . S
C343 C342 1.428 . S
C343 C344 1.230 . S
C344 C343 1.230 . S
C344 C345 1.405 . S
C345 C325 1.388 . S
C345 C338 1.388 . S
C345 C344 1.405 . S
H346 C336 0.928 . S
H347 C337 0.929 . S
H348 C338 0.928 . S
H349 C339 0.928 . S
H350 C340 0.929 . S
H351 C341 0.928 . S
C352 C328 1.407 . S
C352 C340 1.407 . S
C352 C353 1.428 . S
C353 C352 1.428 . S
C353 C354 1.230 . S
C354 C353 1.230 . S
C354 C355 1.405 . S
C355 C329 1.388 . S
C355 C341 1.388 . S
C355 C354 1.405 . S
C356 C357 1.420 . S
C356 C358 1.385 . S
C356 H364 0.928 . S
C357 C356 1.420 . S
C357 C370 1.420 . S
C358 C356 1.385 . S
C358 H365 0.929 . S
C358 C376 1.407 . S
C359 H366 0.928 . S
C359 C375 1.374 . S
C359 C379 1.388 . S
C360 C361 1.420 . S
C360 C362 1.385 . S
C360 H367 0.928 . S
C361 C360 1.420 . S
C361 C373 1.420 . S
C362 C360 1.385 . S
C362 H368 0.929 . S
C362 C386 1.407 . S
C363 H369 0.928 . S
C363 C372 1.374 . S
C363 C389 1.388 . S
H364 C356 0.928 . S
H365 C358 0.929 . S
H366 C359 0.928 . S
H367 C360 0.928 . S
H368 C362 0.929 . S
H369 C363 0.928 . S
C370 C357 1.420 . S
C370 C371 1.385 . S
C370 H380 0.928 . S
C371 C370 1.385 . S
C371 C376 1.407 . S
C371 H381 0.929 . S
C372 C363 1.374 . S
C372 C379 1.388 . S
C372 H382 0.928 . S
C373 C361 1.420 . S
C373 C374 1.385 . S
C373 H383 0.928 . S
C374 C373 1.385 . S
C374 H384 0.929 . S
C374 C386 1.407 . S
C375 C359 1.374 . S
C375 H385 0.928 . S
C375 C389 1.388 . S
C376 C358 1.407 . S
C376 C371 1.407 . S
C376 C377 1.428 . S
C377 C376 1.428 . S
C377 C378 1.230 . S
C378 C377 1.230 . S
C378 C379 1.405 . S
C379 C359 1.388 . S
C379 C372 1.388 . S
C379 C378 1.405 . S
H380 C370 0.928 . S
H381 C371 0.929 . S
H382 C372 0.928 . S
H383 C373 0.928 . S
H384 C374 0.929 . S
H385 C375 0.928 . S
C386 C362 1.407 . S
C386 C374 1.407 . S
C386 C387 1.428 . S
C387 C386 1.428 . S
C387 C388 1.230 . S
C388 C387 1.230 . S
C388 C389 1.405 . S
C389 C363 1.388 . S
C389 C375 1.388 . S
C389 C388 1.405 . S
C390 C391 1.420 . S
C390 C392 1.385 . S
C390 H398 0.928 . S
C391 C390 1.420 . S
C391 C404 1.420 . S
C392 C390 1.385 . S
C392 H399 0.929 . S
C392 C410 1.407 . S
C393 H400 0.928 . S
C393 C409 1.374 . S
C393 C413 1.388 . S
C394 C395 1.420 . S
C394 C396 1.385 1_554 S
C394 H401 0.928 . S
C395 C394 1.420 . S
C395 C407 1.420 . S
C396 C394 1.385 1_556 S
C396 H402 0.929 . S
C396 C420 1.407 . S
C397 H403 0.928 . S
C397 C406 1.374 . S
C397 C423 1.388 . S
H398 C390 0.928 . S
H399 C392 0.929 . S
H400 C393 0.928 . S
H401 C394 0.928 . S
H402 C396 0.929 . S
H403 C397 0.928 . S
C404 C391 1.420 . S
C404 C405 1.385 . S
C404 H414 0.928 . S
C405 C404 1.385 . S
C405 C410 1.407 . S
C405 H415 0.929 . S
C406 C397 1.374 . S
C406 C413 1.388 . S
C406 H416 0.928 . S
C407 C395 1.420 . S
C407 C408 1.385 . S
C407 H417 0.928 . S
C408 C407 1.385 . S
C408 H418 0.929 1_554 S
C408 C420 1.407 1_554 S
C409 C393 1.374 . S
C409 H419 0.928 . S
C409 C423 1.388 . S
C410 C392 1.407 . S
C410 C405 1.407 . S
C410 C411 1.428 . S
C411 C410 1.428 . S
C411 C412 1.230 . S
C412 C411 1.230 . S
C412 C413 1.405 . S
C413 C393 1.388 . S
C413 C406 1.388 . S
C413 C412 1.405 . S
H414 C404 0.928 . S
H415 C405 0.929 . S
H416 C406 0.928 . S
H417 C407 0.928 . S
H418 C408 0.929 1_556 S
H419 C409 0.928 . S
C420 C396 1.407 . S
C420 C408 1.407 1_556 S
C420 C421 1.428 . S
C421 C420 1.428 . S
C421 C422 1.230 . S
C422 C421 1.230 . S
C422 C423 1.405 . S
C423 C397 1.388 . S
C423 C409 1.388 . S
C423 C422 1.405 . S
C424 C425 1.420 . S
C424 C426 1.385 1_556 S
C424 H432 0.933 . S
C425 C424 1.420 . S
C425 C438 1.420 . S
C426 C424 1.385 1_554 S
C426 H433 0.929 . S
C426 C444 1.407 . S
C427 H434 0.928 . S
C427 C443 1.374 . S
C427 C447 1.388 . S
C428 C429 1.420 . S
C428 C430 1.385 . S
C428 H435 0.928 . S
C429 C428 1.420 . S
C429 C441 1.420 . S
C430 C428 1.385 . S
C430 H436 0.929 . S
C430 C454 1.407 . S
C431 H437 0.928 . S
C431 C440 1.374 . S
C431 C457 1.388 . S
H432 C424 0.933 . S
H433 C426 0.929 . S
H434 C427 0.928 . S
H435 C428 0.928 . S
H436 C430 0.929 . S
H437 C431 0.928 . S
C438 C425 1.420 . S
C438 C439 1.385 . S
C438 H448 0.928 . S
C439 C438 1.385 . S
C439 C444 1.407 1_556 S
C439 H449 0.929 . S
C440 C431 1.374 . S
C440 C447 1.388 . S
C440 H450 0.928 . S
C441 C429 1.420 . S
C441 C442 1.385 . S
C441 H451 0.928 . S
C442 C441 1.385 . S
C442 H452 0.929 . S
C442 C454 1.407 . S
C443 C427 1.374 . S
C443 H453 0.928 . S
C443 C457 1.388 . S
C444 C426 1.407 . S
C444 C439 1.407 1_554 S
C444 C445 1.428 . S
C445 C444 1.428 . S
C445 C446 1.230 . S
C446 C445 1.230 . S
C446 C447 1.405 . S
C447 C427 1.388 . S
C447 C440 1.388 . S
C447 C446 1.405 . S
H448 C438 0.928 . S
H449 C439 0.929 . S
H450 C440 0.928 . S
H451 C441 0.928 . S
H452 C442 0.929 . S
H453 C443 0.928 . S
C454 C430 1.407 . S
C454 C442 1.407 . S
C454 C455 1.428 . S
C455 C454 1.428 . S
C455 C456 1.230 . S
C456 C455 1.230 . S
C456 C457 1.405 . S
C457 C431 1.388 . S
C457 C443 1.388 . S
C457 C456 1.405 . S
C458 C459 1.420 . S
C458 C460 1.385 . S
C458 H466 0.928 . S
C459 C458 1.420 . S
C459 C472 1.420 . S
C460 C458 1.385 . S
C460 H467 0.929 . S
C460 C478 1.407 . S
C461 H468 0.928 . S
C461 C477 1.374 . S
C461 C481 1.388 . S
C462 C463 1.420 . S
C462 C464 1.385 . S
C462 H469 0.928 . S
C463 C462 1.420 . S
C463 C475 1.420 . S
C464 C462 1.385 . S
C464 H470 0.929 . S
C464 C488 1.407 . S
C465 H471 0.928 . S
C465 C474 1.374 . S
C465 C491 1.388 . S
H466 C458 0.928 . S
H467 C460 0.929 . S
H468 C461 0.928 . S
H469 C462 0.928 . S
H470 C464 0.929 . S
H471 C465 0.928 . S
C472 C459 1.420 . S
C472 C473 1.385 . S
C472 H482 0.928 . S
C473 C472 1.385 . S
C473 C478 1.407 . S
C473 H483 0.929 . S
C474 C465 1.374 . S
C474 C481 1.388 . S
C474 H484 0.928 . S
C475 C463 1.420 . S
C475 C476 1.385 . S
C475 H485 0.928 . S
C476 C475 1.385 . S
C476 H486 0.929 . S
C476 C488 1.407 . S
C477 C461 1.374 . S
C477 H487 0.928 . S
C477 C491 1.388 . S
C478 C460 1.407 . S
C478 C473 1.407 . S
C478 C479 1.428 . S
C479 C478 1.428 . S
C479 C480 1.230 . S
C480 C479 1.230 . S
C480 C481 1.405 . S
C481 C461 1.388 . S
C481 C474 1.388 . S
C481 C480 1.405 . S
H482 C472 0.928 . S
H483 C473 0.929 . S
H484 C474 0.928 . S
H485 C475 0.928 . S
H486 C476 0.929 . S
H487 C477 0.928 . S
C488 C464 1.407 . S
C488 C476 1.407 . S
C488 C489 1.428 . S
C489 C488 1.428 . S
C489 C490 1.230 . S
C490 C489 1.230 . S
C490 C491 1.405 . S
C491 C465 1.388 . S
C491 C477 1.388 . S
C491 C490 1.405 . S
C85 C12 1.396 . S
C89 C82 1.394 . S
C119 C5 1.100 . S
C123 C26 1.341 . S
C153 C33 1.067 . S
C157 C19 1.089 . S
C187 C54 1.395 . S
C191 C40 1.397 . S
C221 C68 1.342 . S
C225 C47 1.111 . S
C255 C75 1.053 . S
C259 C61 1.111 . S
C289 C11 1.568 . S
C293 C60 1.549 . S
C323 C81 1.360 . S
C327 C25 1.354 . S
C357 C32 1.738 . S
C361 C4 1.751 . S
C391 C18 1.559 . S
C395 C53 1.577 . S
C425 C39 1.375 . S
C429 C67 1.370 . S
C459 C74 1.737 . S
C463 C46 1.751 . S
