# Generated by pormake.
# Topology vbj, (5)-cn, num edge types: 1
# Building blocks:
#     Node 0, Type 0, BuildingBlock: XOMCOT_clean_sbu_0, # of connection points: 5
#     Node 1, Type 0, BuildingBlock: XOMCOT_clean_sbu_0, # of connection points: 5
#     Node 2, Type 0, BuildingBlock: XOMCOT_clean_sbu_0, # of connection points: 5
#     Node 3, Type 0, BuildingBlock: XOMCOT_clean_sbu_0, # of connection points: 5
#     Node 4, Type 0, BuildingBlock: XOMCOT_clean_sbu_0, # of connection points: 5
#     Node 5, Type 0, BuildingBlock: XOMCOT_clean_sbu_0, # of connection points: 5
#     Node 6, Type 0, BuildingBlock: XOMCOT_clean_sbu_0, # of connection points: 5
#     Node 7, Type 0, BuildingBlock: XOMCOT_clean_sbu_0, # of connection points: 5
#     Node 8, Type 0, BuildingBlock: XOMCOT_clean_sbu_0, # of connection points: 5
#     Node 9, Type 0, BuildingBlock: XOMCOT_clean_sbu_0, # of connection points: 5
#     Node 10, Type 0, BuildingBlock: XOMCOT_clean_sbu_0, # of connection points: 5
#     Node 11, Type 0, BuildingBlock: XOMCOT_clean_sbu_0, # of connection points: 5
#     Node 12, Type 0, BuildingBlock: XOMCOT_clean_sbu_0, # of connection points: 5
#     Node 13, Type 0, BuildingBlock: XOMCOT_clean_sbu_0, # of connection points: 5
#     Node 14, Type 0, BuildingBlock: XOMCOT_clean_sbu_0, # of connection points: 5
#     Node 15, Type 0, BuildingBlock: XOMCOT_clean_sbu_0, # of connection points: 5
#     Edge 16, Type (0, 0), BuildingBlock: XIVTED_clean_linker_0, # of connection points: 2
#     Edge 17, Type (0, 0), BuildingBlock: XIVTED_clean_linker_0, # of connection points: 2
#     Edge 18, Type (0, 0), BuildingBlock: XIVTED_clean_linker_0, # of connection points: 2
#     Edge 19, Type (0, 0), BuildingBlock: XIVTED_clean_linker_0, # of connection points: 2
#     Edge 20, Type (0, 0), BuildingBlock: XIVTED_clean_linker_0, # of connection points: 2
#     Edge 21, Type (0, 0), BuildingBlock: XIVTED_clean_linker_0, # of connection points: 2
#     Edge 22, Type (0, 0), BuildingBlock: XIVTED_clean_linker_0, # of connection points: 2
#     Edge 23, Type (0, 0), BuildingBlock: XIVTED_clean_linker_0, # of connection points: 2
#     Edge 24, Type (0, 0), BuildingBlock: XIVTED_clean_linker_0, # of connection points: 2
#     Edge 25, Type (0, 0), BuildingBlock: XIVTED_clean_linker_0, # of connection points: 2
#     Edge 26, Type (0, 0), BuildingBlock: XIVTED_clean_linker_0, # of connection points: 2
#     Edge 27, Type (0, 0), BuildingBlock: XIVTED_clean_linker_0, # of connection points: 2
#     Edge 28, Type (0, 0), BuildingBlock: XIVTED_clean_linker_0, # of connection points: 2
#     Edge 29, Type (0, 0), BuildingBlock: XIVTED_clean_linker_0, # of connection points: 2
#     Edge 30, Type (0, 0), BuildingBlock: XIVTED_clean_linker_0, # of connection points: 2
#     Edge 31, Type (0, 0), BuildingBlock: XIVTED_clean_linker_0, # of connection points: 2
#     Edge 32, Type (0, 0), BuildingBlock: XIVTED_clean_linker_0, # of connection points: 2
#     Edge 33, Type (0, 0), BuildingBlock: XIVTED_clean_linker_0, # of connection points: 2
#     Edge 34, Type (0, 0), BuildingBlock: XIVTED_clean_linker_0, # of connection points: 2
#     Edge 35, Type (0, 0), BuildingBlock: XIVTED_clean_linker_0, # of connection points: 2
#     Edge 36, Type (0, 0), BuildingBlock: XIVTED_clean_linker_0, # of connection points: 2
#     Edge 37, Type (0, 0), BuildingBlock: XIVTED_clean_linker_0, # of connection points: 2
#     Edge 38, Type (0, 0), BuildingBlock: XIVTED_clean_linker_0, # of connection points: 2
#     Edge 39, Type (0, 0), BuildingBlock: XIVTED_clean_linker_0, # of connection points: 2
#     Edge 40, Type (0, 0), BuildingBlock: XIVTED_clean_linker_0, # of connection points: 2
#     Edge 41, Type (0, 0), BuildingBlock: XIVTED_clean_linker_0, # of connection points: 2
#     Edge 42, Type (0, 0), BuildingBlock: XIVTED_clean_linker_0, # of connection points: 2
#     Edge 43, Type (0, 0), BuildingBlock: XIVTED_clean_linker_0, # of connection points: 2
#     Edge 44, Type (0, 0), BuildingBlock: XIVTED_clean_linker_0, # of connection points: 2
#     Edge 45, Type (0, 0), BuildingBlock: XIVTED_clean_linker_0, # of connection points: 2
#     Edge 46, Type (0, 0), BuildingBlock: XIVTED_clean_linker_0, # of connection points: 2
#     Edge 47, Type (0, 0), BuildingBlock: XIVTED_clean_linker_0, # of connection points: 2
#     Edge 48, Type (0, 0), BuildingBlock: XIVTED_clean_linker_0, # of connection points: 2
#     Edge 49, Type (0, 0), BuildingBlock: XIVTED_clean_linker_0, # of connection points: 2
#     Edge 50, Type (0, 0), BuildingBlock: XIVTED_clean_linker_0, # of connection points: 2
#     Edge 51, Type (0, 0), BuildingBlock: XIVTED_clean_linker_0, # of connection points: 2
#     Edge 52, Type (0, 0), BuildingBlock: XIVTED_clean_linker_0, # of connection points: 2
#     Edge 53, Type (0, 0), BuildingBlock: XIVTED_clean_linker_0, # of connection points: 2
#     Edge 54, Type (0, 0), BuildingBlock: XIVTED_clean_linker_0, # of connection points: 2
#     Edge 55, Type (0, 0), BuildingBlock: XIVTED_clean_linker_0, # of connection points: 2
# Relax obj value: 0.089
# Max RMSD: 0.164
# Mean RMSD: 0.158
data_MOF--net-vbj--node1-XOMCOT_clean_sbu_0--edge1-XIVTED_clean_linker_0
_symmetry_space_group_name_H-M    P1
_symmetry_Int_Tables_number       1
_symmetry_cell_setting            triclinic
loop_
_symmetry_equiv_pos_as_xyz
'x, y, z'
_cell_length_a     25.150862
_cell_length_b     65.940909
_cell_length_c     51.104135
_cell_angle_alpha  89.39418
_cell_angle_beta   90.678847
_cell_angle_gamma 90.056663
loop_
_atom_site_label
_atom_site_type_symbol
_atom_site_fract_x
_atom_site_fract_y
_atom_site_fract_z
_atom_type_partial_charge
Co0 Co 0.08793 0.12731 0.0748 0.0
C1 C 0.13483 0.08629 0.06806 0.0
C2 C 0.07633 0.09302 0.03838 0.0
C3 C 0.09763 0.0742 0.03359 0.0
N4 N 0.09932 0.10058 0.06013 0.0
N5 N 0.13448 0.06995 0.05226 0.0
H6 H 0.16213 0.08811 0.08432 0.0
H7 H 0.04713 0.10082 0.02634 0.0
C8 C 0.973 0.13886 0.061 0.0
O9 O 0.96947 0.15057 0.08153 0.0
N10 N 0.07848 0.15414 0.08974 0.0
C11 C 0.08704 0.15883 0.11506 0.0
C12 C 0.07492 0.17884 0.11871 0.0
C13 C 0.06366 0.17186 0.07801 0.0
N14 N 0.05958 0.18703 0.09557 0.0
C15 C 0.10441 0.10846 0.1246 0.0
C16 C 1.00108 0.10971 0.14196 0.0
C17 C 0.04239 0.1061 0.16009 0.0
C18 C 0.09409 0.10429 0.15076 0.0
C19 C 0.0132 0.11365 0.11563 0.0
N20 N 0.0649 0.11452 0.10764 0.0
H21 H 0.14535 0.10836 0.1188 0.0
H22 H 0.98087 0.11666 0.10232 0.0
H23 H 0.10074 0.14847 0.13014 0.0
H24 H 0.05291 0.1733 0.0575 0.0
O25 O 0.16293 0.12932 0.08281 0.0
O26 O 0.12517 0.13942 0.04557 0.0
O27 O 0.01407 0.12771 0.05783 0.0
C28 C 0.1683 0.13712 0.0596 0.0
H29 H 0.08696 0.06448 0.01742 0.0
H30 H 0.0764 0.18675 0.13716 0.0
H31 H 0.96022 0.11068 0.14828 0.0
H32 H 0.12701 0.10083 0.16393 0.0
Co33 Co 0.42156 0.89081 0.07654 0.0
C34 C 0.37952 0.9335 0.07385 0.0
C35 C 0.4338 0.92697 0.04317 0.0
C36 C 0.4111 0.9455 0.03805 0.0
N37 N 0.4154 0.91944 0.06602 0.0
N38 N 0.37652 0.94959 0.05718 0.0
H39 H 0.35202 0.93116 0.08968 0.0
H40 H 0.4583 0.91883 0.02962 0.0
C41 C 0.53112 0.90151 0.06049 0.0
O42 O 0.52812 0.91661 0.077 0.0
N43 N 0.42563 0.86235 0.08615 0.0
C44 C 0.40435 0.85426 0.10797 0.0
C45 C 0.42002 0.83438 0.11026 0.0
C46 C 0.45343 0.84715 0.07514 0.0
N47 N 0.45073 0.82993 0.08968 0.0
C48 C 0.43028 0.90878 0.12774 0.0
C49 C 0.52249 0.88853 0.14228 0.0
C50 C 0.4969 0.90043 0.16082 0.0
C51 C 0.45056 0.91088 0.15318 0.0
C52 C 0.50102 0.8869 0.11714 0.0
N53 N 0.45568 0.89708 0.10994 0.0
H54 H 0.39269 0.9157 0.1229 0.0
H55 H 0.51997 0.87674 0.10369 0.0
H56 H 0.38103 0.86256 0.12191 0.0
H57 H 0.47725 0.8489 0.05776 0.0
O58 O 0.34805 0.89098 0.08715 0.0
O59 O 0.3769 0.88438 0.04713 0.0
O60 O 0.49237 0.88905 0.05837 0.0
C61 C 0.33711 0.88671 0.06286 0.0
H62 H 0.41725 0.95469 0.02067 0.0
H63 H 0.41086 0.82408 0.12623 0.0
H64 H 0.55831 0.88017 0.14729 0.0
H65 H 0.42867 0.9198 0.16708 0.0
Co66 Co 0.57144 0.90765 0.44507 0.0
C67 C 0.54486 0.86368 0.43815 0.0
C68 C 0.60685 0.86895 0.46658 0.0
C69 C 0.5961 0.84856 0.4662 0.0
N70 N 0.57498 0.87845 0.44903 0.0
N71 N 0.55709 0.8452 0.44844 0.0
H72 H 0.51376 0.86645 0.42374 0.0
H73 H 0.63513 0.87643 0.47934 0.0
C74 C 0.68959 0.91454 0.43589 0.0
O75 O 0.68148 0.92269 0.41264 0.0
N76 N 0.56924 0.93738 0.4427 0.0
C77 C 0.52705 0.94957 0.43764 0.0
C78 C 0.54285 0.96957 0.43922 0.0
C79 C 0.60909 0.95038 0.4488 0.0
N80 N 0.59461 0.97001 0.44624 0.0
C81 C 0.53765 0.915 0.39251 0.0
C82 C 0.61246 0.89152 0.36788 0.0
C83 C 0.57648 0.903 0.35263 0.0
C84 C 0.53804 0.91444 0.36537 0.0
C85 C 0.61087 0.89268 0.39528 0.0
N86 N 0.57545 0.90521 0.40719 0.0
H87 H 0.50592 0.92303 0.40168 0.0
H88 H 0.63868 0.88379 0.4069 0.0
H89 H 0.48691 0.94446 0.43375 0.0
H90 H 0.64783 0.94582 0.45566 0.0
O91 O 0.49542 0.90635 0.44804 0.0
O92 O 0.55183 0.90941 0.48151 0.0
O93 O 0.65087 0.90851 0.44995 0.0
C94 C 0.50288 0.90758 0.4732 0.0
H95 H 0.61546 0.83705 0.47819 0.0
H96 H 0.51779 0.98274 0.43616 0.0
H97 H 0.64193 0.88204 0.35876 0.0
H98 H 0.50765 0.92264 0.35442 0.0
Co99 Co 0.90345 0.14278 0.43184 0.0
C100 C 0.85306 0.10219 0.43973 0.0
C101 C 0.89616 0.11188 0.47369 0.0
C102 C 0.86975 0.09417 0.47979 0.0
N103 N 0.88694 0.11671 0.44831 0.0
N104 N 0.84234 0.08817 0.45842 0.0
H105 H 0.83393 0.10235 0.4208 0.0
H106 H 0.91801 0.12122 0.48737 0.0
C107 C 0.00699 0.12989 0.45694 0.0
O108 O 0.99963 0.11166 0.44739 0.0
N109 N 0.91814 0.16892 0.41606 0.0
C110 C 0.9058 0.17479 0.39143 0.0
C111 C 0.91842 0.19499 0.38848 0.0
C112 C 0.93769 0.18561 0.42785 0.0
N113 N 0.9384 0.20187 0.4114 0.0
C114 C 0.90005 0.12092 0.38389 0.0
C115 C 0.00464 0.1269 0.37007 0.0
C116 C 0.96979 0.11775 0.35201 0.0
C117 C 0.91706 0.11458 0.35948 0.0
C118 C 0.98581 0.13315 0.39439 0.0
N119 N 0.93412 0.12986 0.40129 0.0
H120 H 0.85819 0.12005 0.38767 0.0
H121 H 0.01222 0.14172 0.40685 0.0
H122 H 0.88746 0.16521 0.37685 0.0
H123 H 0.9503 0.18581 0.44815 0.0
O124 O 0.83065 0.14462 0.41963 0.0
O125 O 0.86063 0.15582 0.45784 0.0
O126 O 0.9739 0.14408 0.45145 0.0
C127 C 0.82063 0.1531 0.44185 0.0
H128 H 0.86816 0.08702 0.49892 0.0
H129 H 0.91146 0.20404 0.37099 0.0
H130 H 0.04568 0.12991 0.36517 0.0
H131 H 0.88787 0.10847 0.34595 0.0
Co132 Co 0.89439 0.89645 0.88816 0.0
C133 C 0.92576 0.85313 0.89239 0.0
C134 C 0.84102 0.85717 0.89185 0.0
C135 C 0.85175 0.83675 0.89334 0.0
N136 N 0.88734 0.8674 0.89143 0.0
N137 N 0.90499 0.8342 0.89364 0.0
H138 H 0.96783 0.85656 0.89211 0.0
H139 H 0.80206 0.86405 0.89059 0.0
C140 C 0.82136 0.91165 0.92836 0.0
O141 O 0.86028 0.92409 0.93461 0.0
N142 N 0.8986 0.92592 0.88359 0.0
C143 C 0.94031 0.93797 0.87753 0.0
C144 C 0.92277 0.95769 0.87456 0.0
C145 C 0.85605 0.93842 0.88217 0.0
N146 N 0.86972 0.95794 0.87785 0.0
C147 C 0.98709 0.90426 0.91908 0.0
C148 C 0.95256 0.88679 0.96526 0.0
C149 C 1.00245 0.89625 0.96468 0.0
C150 C 0.01989 0.90467 0.94106 0.0
C151 C 0.92059 0.88686 0.94261 0.0
N152 N 0.93699 0.89652 0.92024 0.0
H153 H 0.00319 0.90948 0.90089 0.0
H154 H 0.88269 0.87913 0.94307 0.0
H155 H 0.98043 0.933 0.87417 0.0
H156 H 0.8154 0.93327 0.8838 0.0
O157 O 0.95185 0.89303 0.86459 0.0
O158 O 0.86739 0.89511 0.85213 0.0
O159 O 0.82662 0.89961 0.90902 0.0
C160 C 0.91731 0.8932 0.84565 0.0
H161 H 0.82251 0.8247 0.89328 0.0
H162 H 0.94731 0.97078 0.87034 0.0
H163 H 0.93847 0.87945 0.98292 0.0
H164 H 0.05953 0.91095 0.93926 0.0
Co165 Co 0.60739 0.13974 0.88436 0.0
C166 C 0.57747 0.18417 0.8804 0.0
C167 C 0.65483 0.17749 0.86581 0.0
C168 C 0.64661 0.19807 0.86365 0.0
N169 N 0.61179 0.16871 0.87662 0.0
N170 N 0.59796 0.20227 0.87296 0.0
H171 H 0.5383 0.18254 0.8882 0.0
H172 H 0.69048 0.16946 0.86043 0.0
C173 C 0.68933 0.15539 0.92146 0.0
O174 O 0.65704 0.17082 0.92443 0.0
N175 N 0.60578 0.11096 0.89096 0.0
C176 C 0.56382 0.09913 0.89675 0.0
C177 C 0.58063 0.07921 0.8976 0.0
C178 C 0.64715 0.09826 0.88816 0.0
N179 N 0.63304 0.0787 0.89207 0.0
C180 C 0.51365 0.15005 0.91179 0.0
C181 C 0.54791 0.14011 0.96178 0.0
C182 C 0.49671 0.14817 0.95806 0.0
C183 C 0.47962 0.15277 0.93258 0.0
C184 C 0.58119 0.13774 0.94016 0.0
N185 N 0.5649 0.14383 0.91564 0.0
H186 H 0.49805 0.15297 0.8924 0.0
H187 H 0.61931 0.13053 0.94316 0.0
H188 H 0.52371 0.10454 0.89952 0.0
H189 H 0.68664 0.10334 0.88306 0.0
O190 O 0.54905 0.13707 0.86023 0.0
O191 O 0.63303 0.13457 0.84878 0.0
O192 O 0.67677 0.14138 0.90528 0.0
C193 C 0.58282 0.13415 0.84185 0.0
H194 H 0.67498 0.20906 0.85644 0.0
H195 H 0.55572 0.06611 0.90116 0.0
H196 H 0.56189 0.13553 0.98107 0.0
H197 H 0.4394 0.15787 0.92851 0.0
Co198 Co 0.39888 0.13842 0.61802 0.0
C199 C 0.42824 0.18258 0.6238 0.0
C200 C 0.35084 0.17527 0.63813 0.0
C201 C 0.36007 0.19556 0.64221 0.0
N202 N 0.39321 0.16711 0.62621 0.0
N203 N 0.40881 0.20012 0.6332 0.0
H204 H 0.46708 0.18139 0.61549 0.0
H205 H 0.31556 0.16692 0.6436 0.0
C206 C 0.30786 0.15334 0.58488 0.0
O207 O 0.33581 0.16989 0.58072 0.0
N208 N 0.40212 0.10985 0.61093 0.0
C209 C 0.44475 0.09842 0.60534 0.0
C210 C 0.42833 0.07849 0.60316 0.0
C211 C 0.36074 0.09694 0.61212 0.0
N212 N 0.37544 0.07768 0.60735 0.0
C213 C 0.48649 0.15072 0.58694 0.0
C214 C 0.44333 0.14251 0.53828 0.0
C215 C 0.49379 0.15149 0.54 0.0
C216 C 0.51562 0.15513 0.56476 0.0
C217 C 0.41494 0.13855 0.56127 0.0
N218 N 0.4354 0.14388 0.5852 0.0
H219 H 0.50572 0.15282 0.60565 0.0
H220 H 0.37725 0.1308 0.55972 0.0
H221 H 0.48484 0.10412 0.6033 0.0
H222 H 0.32088 0.10151 0.61717 0.0
O223 O 0.46092 0.13619 0.64016 0.0
O224 O 0.37889 0.13218 0.6542 0.0
O225 O 0.32641 0.13934 0.59998 0.0
C226 C 0.4298 0.13259 0.6596 0.0
H227 H 0.33338 0.20603 0.65157 0.0
H228 H 0.45332 0.06565 0.59876 0.0
H229 H 0.42618 0.13854 0.51948 0.0
H230 H 0.5558 0.16085 0.56707 0.0
Co231 Co 0.10674 0.89586 0.62496 0.0
C232 C 0.07186 0.85186 0.62408 0.0
C233 C 0.15075 0.85652 0.63905 0.0
C234 C 0.13982 0.83615 0.64013 0.0
N235 N 0.10862 0.86645 0.62859 0.0
N236 N 0.09013 0.83318 0.63073 0.0
H237 H 0.03219 0.85462 0.61689 0.0
H238 H 0.18725 0.86371 0.64546 0.0
C239 C 0.19372 0.88268 0.59076 0.0
O240 O 0.16035 0.86863 0.58279 0.0
N241 N 0.10711 0.92507 0.62244 0.0
C242 C 0.06494 0.93742 0.61926 0.0
C243 C 0.08306 0.9571 0.61721 0.0
C244 C 0.15013 0.93727 0.62241 0.0
N245 N 0.13673 0.957 0.61911 0.0
C246 C 0.01952 0.88937 0.58979 0.0
C247 C 0.0637 0.90806 0.54648 0.0
C248 C 0.01071 0.9018 0.54546 0.0
C249 C 0.98882 0.89212 0.56724 0.0
C250 C 0.09324 0.90498 0.56955 0.0
N251 N 0.07149 0.8953 0.59077 0.0
H252 H 0.99984 0.88389 0.60707 0.0
H253 H 0.13228 0.91173 0.57083 0.0
H254 H 0.02399 0.93244 0.61816 0.0
H255 H 0.19045 0.93171 0.62416 0.0
O256 O 0.04409 0.89682 0.64604 0.0
O257 O 0.12637 0.89749 0.66187 0.0
O258 O 0.17953 0.8951 0.60844 0.0
C259 C 0.07534 0.89753 0.66632 0.0
H260 H 0.16676 0.82448 0.64714 0.0
H261 H 0.05837 0.9704 0.61456 0.0
H262 H 0.08095 0.91642 0.53031 0.0
H263 H 0.94717 0.88789 0.56739 0.0
Co264 Co 0.59372 0.62818 0.07147 0.0
C265 C 0.64195 0.58728 0.06403 0.0
C266 C 0.57999 0.59342 0.0359 0.0
C267 C 0.60136 0.57468 0.0308 0.0
N268 N 0.60501 0.60132 0.05693 0.0
N269 N 0.64035 0.57079 0.04849 0.0
H270 H 0.67109 0.58938 0.07945 0.0
H271 H 0.54921 0.60089 0.02448 0.0
C272 C 0.4824 0.64132 0.05302 0.0
O273 O 0.48154 0.65681 0.06887 0.0
N274 N 0.58473 0.6551 0.08625 0.0
C275 C 0.58846 0.65965 0.11188 0.0
C276 C 0.58508 0.68026 0.11468 0.0
C277 C 0.58113 0.6733 0.07372 0.0
N278 N 0.58024 0.6889 0.09076 0.0
C279 C 0.6052 0.60785 0.12068 0.0
C280 C 0.50272 0.61363 0.1379 0.0
C281 C 0.54206 0.60738 0.1559 0.0
C282 C 0.59315 0.60356 0.14667 0.0
C283 C 0.51646 0.61774 0.11187 0.0
N284 N 0.56788 0.61579 0.10384 0.0
H285 H 0.64597 0.60636 0.11489 0.0
H286 H 0.48625 0.62382 0.09902 0.0
H287 H 0.59422 0.64889 0.12771 0.0
H288 H 0.57877 0.67507 0.05266 0.0
O289 O 0.66842 0.62999 0.08041 0.0
O290 O 0.63227 0.64 0.04265 0.0
O291 O 0.52048 0.62844 0.05404 0.0
C292 C 0.67469 0.63786 0.05723 0.0
H293 H 0.58918 0.56474 0.01511 0.0
H294 H 0.58536 0.68825 0.13308 0.0
H295 H 0.46263 0.61673 0.14424 0.0
H296 H 0.62454 0.5984 0.15983 0.0
Co297 Co 0.93163 0.39224 0.07568 0.0
C298 C 0.87921 0.43268 0.06774 0.0
C299 C 0.93353 0.42555 0.03711 0.0
C300 C 0.90911 0.44365 0.031 0.0
N301 N 0.91519 0.41865 0.06023 0.0
N302 N 0.87478 0.44815 0.05016 0.0
H303 H 0.85483 0.43117 0.08492 0.0
H304 H 0.96133 0.41766 0.02489 0.0
C305 C 0.04109 0.38134 0.05434 0.0
O306 O 0.0431 0.36406 0.06719 0.0
N307 N 0.94645 0.36556 0.09117 0.0
C308 C 0.95194 0.36124 0.11695 0.0
C309 C 0.95741 0.34068 0.12034 0.0
C310 C 0.94706 0.34721 0.07932 0.0
N311 N 0.95463 0.33183 0.09674 0.0
C312 C 0.92373 0.4117 0.12514 0.0
C313 C 0.03075 0.41127 0.13786 0.0
C314 C 0.99411 0.41591 0.15741 0.0
C315 C 0.94008 0.41686 0.15039 0.0
C316 C 0.01269 0.406 0.11285 0.0
N317 N 0.9595 0.4054 0.10704 0.0
H318 H 0.88168 0.41134 0.12091 0.0
H319 H 0.04185 0.40132 0.09898 0.0
H320 H 0.95125 0.37205 0.13261 0.0
H321 H 0.94245 0.34517 0.05843 0.0
O322 O 0.85818 0.38896 0.08566 0.0
O323 O 0.89187 0.37968 0.04775 0.0
O324 O 1.00269 0.39374 0.05744 0.0
C325 C 0.85051 0.38119 0.06265 0.0
H326 H 0.91561 0.45266 0.0135 0.0
H327 H 0.96357 0.33284 0.13885 0.0
H328 H 0.07303 0.41088 0.14206 0.0
H329 H 0.90995 0.42019 0.16467 0.0
Co330 Co 0.07129 0.40634 0.44338 0.0
C331 C 0.04441 0.36162 0.43727 0.0
C332 C 0.09701 0.36828 0.46937 0.0
C333 C 0.08658 0.34789 0.46977 0.0
N334 N 0.07098 0.37704 0.44899 0.0
N335 N 0.05343 0.34365 0.44967 0.0
H336 H 0.01791 0.36332 0.42068 0.0
H337 H 0.12174 0.37634 0.48327 0.0
C338 C 0.18331 0.39298 0.43598 0.0
O339 O 0.16518 0.37795 0.42173 0.0
N340 N 0.07264 0.43551 0.43896 0.0
C341 C 0.03634 0.44699 0.42617 0.0
C342 C 0.05438 0.46673 0.42537 0.0
C343 C 0.11205 0.44837 0.4459 0.0
N344 N 0.10217 0.46759 0.43768 0.0
C345 C 0.02434 0.39819 0.39326 0.0
C346 C 0.10661 0.41345 0.36353 0.0
C347 C 0.05972 0.40728 0.3509 0.0
C348 C 0.01834 0.39948 0.3661 0.0
C349 C 0.11068 0.41217 0.39078 0.0
N350 N 0.07044 0.40407 0.40536 0.0
H351 H 0.99071 0.39331 0.40463 0.0
H352 H 0.14516 0.41879 0.40009 0.0
H353 H 0.99995 0.44132 0.41744 0.0
H354 H 0.14804 0.44361 0.45596 0.0
O355 O 0.99554 0.40726 0.44924 0.0
O356 O 0.05746 0.40932 0.48036 0.0
O357 O 0.15134 0.40601 0.44533 0.0
C358 C 0.00724 0.40878 0.47398 0.0
H359 H 0.10241 0.33698 0.48379 0.0
H360 H 0.03388 0.47941 0.4162 0.0
H361 H 0.13879 0.42023 0.35255 0.0
H362 H 0.98112 0.39481 0.35713 0.0
Co363 Co 0.39707 0.64524 0.42816 0.0
C364 C 0.3488 0.60377 0.43385 0.0
C365 C 0.38786 0.61371 0.46887 0.0
C366 C 0.36351 0.59542 0.474 0.0
N367 N 0.37971 0.61883 0.44351 0.0
N368 N 0.33871 0.58919 0.45197 0.0
H369 H 0.33205 0.6037 0.41441 0.0
H370 H 0.40827 0.62309 0.48303 0.0
C371 C 0.49927 0.62942 0.45009 0.0
O372 O 0.48804 0.61234 0.43819 0.0
N373 N 0.41263 0.67169 0.41348 0.0
C374 C 0.39844 0.67822 0.38936 0.0
C375 C 0.41158 0.69838 0.38691 0.0
C376 C 0.43384 0.68799 0.42552 0.0
N377 N 0.43381 0.70462 0.40965 0.0
C378 C 0.38937 0.62526 0.37873 0.0
C379 C 0.4942 0.62999 0.36454 0.0
C380 C 0.45823 0.62164 0.34637 0.0
C381 C 0.40521 0.61924 0.35394 0.0
C382 C 0.47646 0.63608 0.38909 0.0
N383 N 0.42483 0.63314 0.39634 0.0
H384 H 0.34753 0.62487 0.38287 0.0
H385 H 0.50393 0.64409 0.40162 0.0
H386 H 0.37827 0.66913 0.37482 0.0
H387 H 0.448 0.68767 0.44558 0.0
O388 O 0.32371 0.64825 0.41733 0.0
O389 O 0.35718 0.65784 0.45561 0.0
O390 O 0.46867 0.64476 0.44686 0.0
C391 C 0.31592 0.65609 0.44019 0.0
H392 H 0.36191 0.58787 0.49287 0.0
H393 H 0.4033 0.70784 0.36993 0.0
H394 H 0.5355 0.63241 0.35966 0.0
H395 H 0.37519 0.61383 0.34035 0.0
Co396 Co 0.41055 0.39936 0.88737 0.0
C397 C 0.44291 0.35621 0.88545 0.0
C398 C 0.35809 0.35997 0.88328 0.0
C399 C 0.36939 0.33959 0.88265 0.0
N400 N 0.40409 0.37032 0.88524 0.0
N401 N 0.42264 0.33726 0.88401 0.0
H402 H 0.48486 0.35973 0.88702 0.0
H403 H 0.31901 0.36677 0.88227 0.0
C404 C 0.33151 0.41132 0.92724 0.0
O405 O 0.36691 0.42444 0.93571 0.0
N406 N 0.41456 0.4288 0.88856 0.0
C407 C 0.45523 0.44148 0.89408 0.0
C408 C 0.43731 0.46118 0.89189 0.0
C409 C 0.37319 0.44104 0.88235 0.0
N410 N 0.38558 0.46087 0.88463 0.0
C411 C 0.50594 0.39965 0.91789 0.0
C412 C 0.46683 0.38026 0.96186 0.0
C413 C 0.52119 0.38453 0.96041 0.0
C414 C 0.54053 0.39444 0.93822 0.0
C415 C 0.43339 0.38552 0.94073 0.0
N416 N 0.45275 0.39571 0.91935 0.0
H417 H 0.52295 0.40592 0.90035 0.0
H418 H 0.39272 0.38033 0.94112 0.0
H419 H 0.49528 0.43721 0.89921 0.0
H420 H 0.33416 0.43537 0.87711 0.0
O421 O 0.46806 0.3989 0.86324 0.0
O422 O 0.38356 0.40184 0.85138 0.0
O423 O 0.34187 0.4001 0.90765 0.0
C424 C 0.43337 0.4009 0.84452 0.0
H425 H 0.34066 0.32744 0.88088 0.0
H426 H 0.46085 0.47467 0.89525 0.0
H427 H 0.45092 0.37205 0.97848 0.0
H428 H 0.58257 0.39769 0.93627 0.0
Co429 Co 0.10507 0.63908 0.88212 0.0
C430 C 0.07235 0.68249 0.88428 0.0
C431 C 0.15627 0.67855 0.87882 0.0
C432 C 0.14549 0.69895 0.87916 0.0
N433 N 0.11061 0.66827 0.88215 0.0
N434 N 0.09276 0.70147 0.88253 0.0
H435 H 0.03064 0.67898 0.88669 0.0
H436 H 0.19481 0.67167 0.87618 0.0
C437 C 0.18447 0.62653 0.92258 0.0
O438 O 0.14758 0.61402 0.93101 0.0
N439 N 0.10277 0.60947 0.88056 0.0
C440 C 0.06195 0.59678 0.87505 0.0
C441 C 0.08125 0.57729 0.87288 0.0
C442 C 0.14639 0.59756 0.87959 0.0
N443 N 0.13446 0.57785 0.87605 0.0
C444 C 0.01794 0.63105 0.91623 0.0
C445 C 0.05318 0.6545 0.9575 0.0
C446 C 0.00418 0.64457 0.9592 0.0
C447 C 0.98676 0.63267 0.93837 0.0
C448 C 0.08403 0.65199 0.93514 0.0
N449 N 0.06664 0.64006 0.91497 0.0
H450 H 1.00128 0.62345 0.89963 0.0
H451 H 0.12118 0.66016 0.93369 0.0
H452 H 0.02132 0.60122 0.87118 0.0
H453 H 0.1866 0.60332 0.88038 0.0
O454 O 0.04439 0.64083 0.85917 0.0
O455 O 0.12745 0.63916 0.84556 0.0
O456 O 0.17562 0.63763 0.90219 0.0
C457 C 0.07674 0.64028 0.83968 0.0
H458 H 0.17454 0.71098 0.87731 0.0
H459 H 0.05793 0.56384 0.86891 0.0
H460 H 0.067 0.66429 0.97305 0.0
H461 H 0.94796 0.6255 0.93865 0.0
Co462 Co 0.88811 0.63925 0.61563 0.0
C463 C 0.91854 0.68258 0.61575 0.0
C464 C 0.83381 0.67852 0.61659 0.0
C465 C 0.84468 0.69898 0.61666 0.0
N466 N 0.88009 0.66832 0.61581 0.0
N467 N 0.89791 0.70148 0.61617 0.0
H468 H 0.96059 0.67916 0.61515 0.0
H469 H 0.79488 0.67158 0.61732 0.0
C470 C 0.81145 0.62624 0.57479 0.0
O471 O 0.8509 0.61502 0.56653 0.0
N472 N 0.89384 0.60968 0.61695 0.0
C473 C 0.93642 0.59787 0.62266 0.0
C474 C 0.92012 0.57797 0.62491 0.0
C475 C 0.85201 0.59679 0.61784 0.0
N476 N 0.8669 0.57733 0.62175 0.0
C477 C 0.97614 0.63358 0.58119 0.0
C478 C 0.93847 0.65826 0.54101 0.0
C479 C 0.98867 0.64939 0.539 0.0
C480 C 0.00726 0.63678 0.55922 0.0
C481 C 0.90784 0.65417 0.56311 0.0
N482 N 0.92652 0.64173 0.58281 0.0
H483 H 0.99358 0.6255 0.59742 0.0
H484 H 0.86973 0.66157 0.56478 0.0
H485 H 0.97616 0.60319 0.62684 0.0
H486 H 0.8111 0.60162 0.61616 0.0
O487 O 0.94848 0.64145 0.63867 0.0
O488 O 0.86563 0.63817 0.65217 0.0
O489 O 0.81779 0.63695 0.59545 0.0
C490 C 0.91616 0.64001 0.65812 0.0
H491 H 0.81568 0.71105 0.61764 0.0
H492 H 0.9453 0.56513 0.6297 0.0
H493 H 0.92357 0.6685 0.52593 0.0
H494 H 0.04687 0.63035 0.55869 0.0
Co495 Co 0.60302 0.39622 0.62011 0.0
C496 C 0.57456 0.35177 0.62322 0.0
C497 C 0.65162 0.35865 0.63902 0.0
C498 C 0.64241 0.33826 0.64247 0.0
N499 N 0.60949 0.36716 0.62657 0.0
N500 N 0.59386 0.33396 0.63256 0.0
H501 H 0.5357 0.35325 0.61451 0.0
H502 H 0.68653 0.36687 0.64551 0.0
C503 C 0.69774 0.38366 0.58933 0.0
O504 O 0.6725 0.36688 0.58328 0.0
N505 N 0.59897 0.42511 0.61484 0.0
C506 C 0.55669 0.43664 0.60819 0.0
C507 C 0.57296 0.45665 0.60708 0.0
C508 C 0.63992 0.43805 0.61782 0.0
N509 N 0.6254 0.45743 0.61306 0.0
C510 C 0.51753 0.38538 0.58579 0.0
C511 C 0.56178 0.39934 0.53978 0.0
C512 C 0.51091 0.39074 0.53917 0.0
C513 C 0.48883 0.38373 0.56251 0.0
C514 C 0.58994 0.40017 0.56357 0.0
N515 N 0.56846 0.39253 0.58613 0.0
H516 H 0.49762 0.38156 0.60373 0.0
H517 H 0.62779 0.40787 0.56391 0.0
H518 H 0.51705 0.43091 0.6044 0.0
H519 H 0.67942 0.43332 0.62385 0.0
O520 O 0.54027 0.39693 0.6413 0.0
O521 O 0.62247 0.40059 0.65653 0.0
O522 O 0.67599 0.39681 0.60394 0.0
C523 C 0.57165 0.39976 0.66124 0.0
H524 H 0.66877 0.32757 0.65224 0.0
H525 H 0.54825 0.46956 0.60196 0.0
H526 H 0.57906 0.40571 0.5222 0.0
H527 H 0.44848 0.37796 0.56297 0.0
H528 H 0.42923 0.17973 0.96651 0.0
H529 H 0.2637 0.12252 0.07709 0.0
H530 H 0.47651 0.12159 0.99859 0.0
H531 H 0.19333 0.16211 0.01854 0.0
H532 H 0.35098 0.12811 0.05741 0.0
H533 H 0.35263 0.17969 0.99545 0.0
C534 C 0.42395 0.1671 0.97997 0.0
C535 C 0.45857 0.1504 0.97973 0.0
C536 C 0.31646 0.13572 0.04911 0.0
C537 C 0.37139 0.15041 0.01296 0.0
C538 C 0.26677 0.13261 0.06032 0.0
C539 C 0.22132 0.14178 0.04924 0.0
C540 C 0.32071 0.14837 0.02702 0.0
C541 C 0.22737 0.15463 0.02749 0.0
C542 C 0.38025 0.1671 0.99641 0.0
C543 C 0.45067 0.13471 0.99804 0.0
N544 N 0.27625 0.15755 0.01705 0.0
N545 N 0.40738 0.13496 0.01375 0.0
H546 H 0.06119 0.92791 0.98258 0.0
H547 H 0.24561 0.87418 0.08705 0.0
H548 H 0.02774 0.86477 0.99836 0.0
H549 H 0.30494 0.90125 0.01592 0.0
H550 H 0.15406 0.87709 0.06902 0.0
H551 H 0.13867 0.9257 0.01178 0.0
C552 C 0.0694 0.91372 0.99272 0.0
C553 C 0.03899 0.89634 0.98757 0.0
C554 C 0.18745 0.88232 0.05757 0.0
C555 C 0.1265 0.89394 0.02117 0.0
C556 C 0.23924 0.88068 0.06771 0.0
C557 C 0.28242 0.88727 0.05269 0.0
C558 C 0.17953 0.89135 0.03288 0.0
C559 C 0.27263 0.89571 0.02787 0.0
C560 C 0.11339 0.91252 0.00934 0.0
C561 C 0.05056 0.87845 1.00168 0.0
N562 N 0.22209 0.89772 0.01884 0.0
N563 N 0.09429 0.87757 0.01761 0.0
H564 H 0.7094 0.92552 0.48566 0.0
H565 H 1.00056 0.88583 0.49626 0.0
H566 H 0.78833 0.90715 0.41529 0.0
H567 H 0.93861 0.93173 0.54689 0.0
H568 H 0.92645 0.89248 0.46524 0.0
H569 H 0.79466 0.92654 0.50837 0.0
C570 C 0.74495 0.92176 0.47496 0.0
C571 C 0.74205 0.91613 0.44866 0.0
C572 C 0.93005 0.90144 0.48281 0.0
C573 C 0.83997 0.91701 0.47466 0.0
C574 C 0.97214 0.89767 0.50039 0.0
C575 C 0.97494 0.90822 0.52401 0.0
C576 C 0.8907 0.91555 0.48941 0.0
C577 C 0.9373 0.92327 0.52884 0.0
C578 C 0.79368 0.92249 0.48788 0.0
C579 C 0.78928 0.91157 0.43563 0.0
N580 N 0.89624 0.92628 0.51188 0.0
N581 N 0.83659 0.91173 0.44895 0.0
H582 H 0.78765 0.17998 0.47835 0.0
H583 H 0.51507 0.12639 0.49893 0.0
H584 H 0.72944 0.13566 0.42351 0.0
H585 H 0.54887 0.18596 0.52896 0.0
H586 H 0.58854 0.13047 0.46818 0.0
H587 H 0.69773 0.1835 0.49529 0.0
C588 C 0.75568 0.17121 0.46966 0.0
C589 C 0.76579 0.15744 0.44969 0.0
C590 C 0.57895 0.14285 0.48104 0.0
C591 C 0.66319 0.16106 0.46917 0.0
C592 C 0.53685 0.14057 0.49846 0.0
C593 C 0.52677 0.1557 0.5168 0.0
C594 C 0.61119 0.16026 0.48236 0.0
C595 C 0.55628 0.17375 0.51548 0.0
C596 C 0.70434 0.17327 0.47921 0.0
C597 C 0.72308 0.14647 0.43896 0.0
N598 N 0.59791 0.17536 0.49898 0.0
N599 N 0.67368 0.14821 0.4492 0.0
H600 H 0.7932 0.93873 0.96529 0.0
H601 H 0.54614 0.87523 0.01967 0.0
H602 H 0.74391 0.88201 0.9312 0.0
H603 H 0.61582 0.92723 0.05767 0.0
H604 H 0.61481 0.87751 0.98603 0.0
H605 H 0.7232 0.93543 0.99731 0.0
C606 C 0.76737 0.92559 0.96443 0.0
C607 C 0.77469 0.91055 0.94561 0.0
C608 C 0.61509 0.88833 1.00184 0.0
C609 C 0.69419 0.90657 0.98262 0.0
C610 C 0.57608 0.88699 0.0211 0.0
C611 C 0.57508 0.90111 0.04151 0.0
C612 C 0.65306 0.90393 1.00298 0.0
C613 C 0.61479 0.91604 0.04232 0.0
C614 C 0.72741 0.92368 0.98285 0.0
C615 C 0.73958 0.89397 0.94536 0.0
N616 N 0.65185 0.9171 0.0233 0.0
N617 N 0.70088 0.89235 0.96373 0.0
H618 H 0.723 0.18222 0.9583 0.0
H619 H 0.95813 0.11391 0.01837 0.0
H620 H 0.75885 0.12302 0.92787 0.0
H621 H 0.89067 0.16576 0.05663 0.0
H622 H 0.89106 0.11753 0.98333 0.0
H623 H 0.79107 0.17739 0.99188 0.0
C624 C 0.74543 0.1682 0.95851 0.0
C625 C 0.7348 0.15297 0.94015 0.0
C626 C 0.89089 0.12802 0.99948 0.0
C627 C 0.81344 0.1473 0.97907 0.0
C628 C 0.92917 0.12598 0.01953 0.0
C629 C 0.93026 0.13955 0.04059 0.0
C630 C 0.85378 0.14391 1.00032 0.0
C631 C 0.89149 0.15486 0.04095 0.0
C632 C 0.78429 0.16543 0.97788 0.0
C633 C 0.76564 0.13519 0.94156 0.0
N634 N 0.85525 0.15668 0.02112 0.0
N635 N 0.80353 0.13282 0.96072 0.0
H636 H 0.04216 0.16636 0.47598 0.0
H637 H 0.25648 0.11721 0.57539 0.0
H638 H 0.07268 0.10204 0.48115 0.0
H639 H 0.25005 0.1811 0.55644 0.0
H640 H 0.1827 0.1114 0.54455 0.0
H641 H 0.11274 0.17206 0.50844 0.0
C642 C 0.06379 0.15342 0.48386 0.0
C643 C 0.05149 0.13368 0.47569 0.0
C644 C 0.19729 0.1267 0.54726 0.0
C645 C 0.13214 0.14011 0.51321 0.0
C646 C 0.23915 0.13005 0.56503 0.0
C647 C 0.2596 0.14969 0.56853 0.0
C648 C 0.17533 0.14311 0.53304 0.0
C649 C 0.23577 0.1657 0.55434 0.0
C650 C 0.1041 0.1567 0.50243 0.0
C651 C 0.08092 0.11753 0.48669 0.0
N652 N 0.19505 0.16207 0.53726 0.0
N653 N 0.11965 0.12109 0.50493 0.0
H654 H 0.2762 0.90916 0.60135 0.0
H655 H 0.40291 0.89492 0.4613 0.0
H656 H 0.22341 0.86417 0.54596 0.0
H657 H 0.50039 0.91496 0.52615 0.0
H658 H 0.32982 0.889 0.49125 0.0
H659 H 0.35366 0.91605 0.57354 0.0
C660 C 0.28106 0.90064 0.58353 0.0
C661 C 0.24319 0.88608 0.57596 0.0
C662 C 0.36716 0.89473 0.49895 0.0
C663 C 0.3305 0.89418 0.54408 0.0
C664 C 0.40883 0.89825 0.48185 0.0
C665 C 0.45785 0.90539 0.49128 0.0
C666 C 0.3741 0.89862 0.52571 0.0
C667 C 0.46321 0.90936 0.51814 0.0
C668 C 0.32514 0.90459 0.56774 0.0
C669 C 0.2514 0.87552 0.55265 0.0
N670 N 0.42165 0.90598 0.53451 0.0
N671 N 0.29375 0.87993 0.53747 0.0
H672 H 0.69906 0.66404 0.01747 0.0
H673 H 0.95361 0.67946 0.97181 0.0
H674 H 0.77053 0.62359 0.07469 0.0
H675 H 0.97048 0.61673 0.99485 0.0
H676 H 0.87643 0.68222 1.00063 0.0
H677 H 0.78691 0.67014 0.99888 0.0
C678 C 0.73344 0.65669 0.02633 0.0
C679 C 0.72773 0.64324 0.04751 0.0
C680 C 0.89758 0.66796 0.99965 0.0
C681 C 0.82806 0.65019 0.02656 0.0
C682 C 0.94188 0.66648 0.98358 0.0
C683 C 0.96789 0.64784 0.98109 0.0
C684 C 0.87968 0.65066 0.01321 0.0
C685 C 0.95113 0.63133 0.99636 0.0
C686 C 0.7836 0.66036 0.01593 0.0
C687 C 0.7734 0.63411 0.05834 0.0
N688 N 0.90774 0.63308 0.01171 0.0
N689 N 0.82162 0.63742 0.04737 0.0
H690 H 0.75526 0.38685 0.08701 0.0
H691 H 0.52308 0.39468 0.01218 0.0
H692 H 0.8235 0.36394 0.01614 0.0
H693 H 0.60637 0.35999 0.95469 0.0
H694 H 0.59738 0.38966 0.04276 0.0
H695 H 0.66675 0.38265 0.06788 0.0
C696 C 0.7515 0.38078 0.06746 0.0
C697 C 0.79678 0.3761 0.05293 0.0
C698 C 0.59921 0.38259 0.02383 0.0
C699 C 0.69557 0.37174 0.03048 0.0
C700 C 0.55652 0.38548 0.00639 0.0
C701 C 0.55922 0.37793 0.98094 0.0
C702 C 0.64462 0.372 0.01557 0.0
C703 C 0.6033 0.36625 0.97412 0.0
C704 C 0.70079 0.37856 0.05638 0.0
C705 C 0.78971 0.36805 0.02788 0.0
N706 N 0.6445 0.36388 0.9912 0.0
N707 N 0.74016 0.36634 0.01739 0.0
H708 H 0.23919 0.42565 0.45402 0.0
H709 H 0.4657 0.35839 0.515 0.0
H710 H 0.25683 0.36249 0.43464 0.0
H711 H 0.47816 0.42349 0.51036 0.0
H712 H 0.39368 0.35951 0.4824 0.0
H713 H 0.32977 0.42565 0.47181 0.0
C714 C 0.26239 0.41184 0.45322 0.0
C715 C 0.24024 0.39396 0.4432 0.0
C716 C 0.41296 0.37353 0.48797 0.0
C717 C 0.34368 0.3938 0.46373 0.0
C718 C 0.45407 0.37286 0.5065 0.0
C719 C 0.47755 0.39087 0.51525 0.0
C720 C 0.39435 0.3924 0.47873 0.0
C721 C 0.46105 0.40929 0.50392 0.0
C722 C 0.3142 0.41188 0.46325 0.0
C723 C 0.27227 0.37658 0.44234 0.0
N724 N 0.4196 0.40963 0.4866 0.0
N725 N 0.32207 0.37682 0.45295 0.0
H726 H 0.28734 0.68092 0.48005 0.0
H727 H 0.03094 0.68633 0.52744 0.0
H728 H 0.22243 0.64091 0.42153 0.0
H729 H 0.02958 0.62401 0.50287 0.0
H730 H 0.10615 0.69296 0.49823 0.0
H731 H 0.19883 0.68389 0.49905 0.0
C732 C 0.25418 0.67312 0.4709 0.0
C733 C 0.26201 0.66062 0.44929 0.0
C734 C 0.08878 0.67794 0.49898 0.0
C735 C 0.16112 0.66386 0.47084 0.0
C736 C 0.04567 0.67423 0.51532 0.0
C737 C 0.02465 0.65461 0.51746 0.0
C738 C 0.11038 0.66188 0.48474 0.0
C739 C 0.04512 0.63931 0.50169 0.0
C740 C 0.20365 0.67496 0.48158 0.0
C741 C 0.2179 0.65076 0.43817 0.0
N742 N 0.08717 0.64325 0.48602 0.0
N743 N 0.16947 0.65221 0.44946 0.0
H744 H 0.27321 0.37631 0.93086 0.0
H745 H 0.06815 0.4188 0.0349 0.0
H746 H 0.28228 0.43732 0.96029 0.0
H747 H 0.10928 0.35541 0.0303 0.0
H748 H 0.13585 0.42655 1.00214 0.0
H749 H 0.20081 0.36915 0.96136 0.0
C750 C 0.25939 0.38828 0.94343 0.0
C751 C 0.28378 0.40743 0.94311 0.0
C752 C 0.13003 0.41097 0.00838 0.0
C753 C 0.20131 0.39934 0.97795 0.0
C754 C 0.09145 0.40652 0.02703 0.0
C755 C 0.08329 0.38644 0.03545 0.0
C756 C 0.15992 0.39517 0.99769 0.0
C757 C 0.1146 0.37113 0.02457 0.0
C758 C 0.21848 0.38413 0.96097 0.0
C759 C 0.2647 0.42233 0.96002 0.0
N760 N 0.15129 0.37579 0.00612 0.0
N761 N 0.22452 0.41799 0.97674 0.0
H762 H 0.23504 0.59651 0.94971 0.0
H763 H 0.41686 0.67082 0.03299 0.0
H764 H 0.24582 0.66034 0.93142 0.0
H765 H 0.45065 0.6069 0.02728 0.0
H766 H 0.34874 0.66734 0.99866 0.0
H767 H 0.30995 0.59993 0.98031 0.0
C768 C 0.25369 0.61122 0.95194 0.0
C769 C 0.23436 0.62818 0.93801 0.0
C770 C 0.3712 0.6541 0.00487 0.0
C771 C 0.31927 0.6323 0.97351 0.0
C772 C 0.40974 0.65602 0.02464 0.0
C773 C 0.43945 0.6391 0.0331 0.0
C774 C 0.36156 0.63506 0.99375 0.0
C775 C 0.42888 0.62035 0.02133 0.0
C776 C 0.29641 0.61316 0.96941 0.0
C777 C 0.25989 0.64688 0.94163 0.0
N778 N 0.39053 0.6188 1.00242 0.0
N779 N 0.30061 0.64851 0.95934 0.0
H780 H 0.5292 0.66026 0.4834 0.0
H781 H 0.77655 0.59721 0.54173 0.0
H782 H 0.57354 0.60006 0.45954 0.0
H783 H 0.73302 0.6557 0.57179 0.0
H784 H 0.70054 0.59847 0.5121 0.0
H785 H 0.60254 0.65968 0.51566 0.0
C786 C 0.55446 0.64699 0.4848 0.0
C787 C 0.54514 0.63018 0.46864 0.0
C788 C 0.70713 0.61105 0.52519 0.0
C789 C 0.62868 0.62939 0.50563 0.0
C790 C 0.75068 0.61033 0.54221 0.0
C791 C 0.76135 0.62642 0.55922 0.0
C792 C 0.67371 0.62809 0.52482 0.0
C793 C 0.72606 0.64293 0.55906 0.0
C794 C 0.59611 0.64664 0.50332 0.0
C795 C 0.579 0.61338 0.47147 0.0
N796 N 0.68394 0.64343 0.54193 0.0
N797 N 0.61901 0.61344 0.48953 0.0
H798 H 0.90865 0.42582 0.47119 0.0
H799 H 0.7775 0.35771 0.57653 0.0
H800 H 0.01017 0.38933 0.52126 0.0
H801 H 0.73145 0.42064 0.57161 0.0
H802 H 0.8575 0.36578 0.55121 0.0
H803 H 0.83616 0.4214 0.50266 0.0
C804 C 0.91571 0.41707 0.48895 0.0
C805 C 0.9653 0.40803 0.49385 0.0
C806 C 0.83005 0.3778 0.55597 0.0
C807 C 0.88267 0.4024 0.52918 0.0
C808 C 0.78451 0.37323 0.57027 0.0
C809 C 0.74811 0.38856 0.57616 0.0
C810 C 0.83808 0.39767 0.54677 0.0
C811 C 0.75883 0.40843 0.56759 0.0
C812 C 0.87457 0.4146 0.50683 0.0
C813 C 0.97256 0.39671 0.51701 0.0
N814 N 0.80242 0.41237 0.55285 0.0
N815 N 0.93129 0.39387 0.53364 0.0
H816 H 0.1819 0.05364 0.09596 0.0
H817 H 0.33082 0.96777 0.01479 0.0
H818 H 0.16465 0.04545 0.01265 0.0
H819 H 0.33528 0.96914 0.09911 0.0
H820 H 0.27108 0.99674 0.01427 0.0
H821 H 0.23939 0.02358 0.09815 0.0
C822 C 0.19024 0.0456 0.07813 0.0
C823 C 0.16819 0.05217 0.05407 0.0
C824 C 0.28491 0.99078 0.03296 0.0
C825 C 0.23384 1.01765 0.05649 0.0
C826 C 0.31944 0.97425 0.03327 0.0
C827 C 0.33874 0.96612 0.05705 0.0
C828 C 0.26939 0.99952 0.05661 0.0
C829 C 0.32133 0.97492 0.08036 0.0
C830 C 0.22282 0.02835 0.07943 0.0
C831 C 0.18 0.04092 0.03168 0.0
N832 N 0.28794 0.99125 0.07958 0.0
N833 N 0.21201 0.02435 0.03344 0.0
H834 H 0.68238 0.97321 0.47765 0.0
H835 H 0.75427 0.08521 0.42706 0.0
H836 H 0.58461 1.00702 0.4227 0.0
H837 H 0.84502 0.05287 0.48624 0.0
H838 H 0.69226 0.05673 0.42482 0.0
H839 H 0.74226 1.0022 0.48093 0.0
C840 C 0.67344 0.98671 0.46622 0.0
C841 C 0.62836 0.98756 0.44972 0.0
C842 C 0.72572 0.05585 0.43831 0.0
C843 C 0.69703 0.02103 0.45353 0.0
C844 C 0.76149 0.07208 0.43946 0.0
C845 C 0.80528 0.07144 0.45679 0.0
C846 C 0.73376 0.03876 0.45452 0.0
C847 C 0.81169 0.05412 0.47275 0.0
C848 C 0.70763 1.00334 0.46821 0.0
C849 C 0.61854 1.0057 0.43581 0.0
N850 N 0.77651 0.03848 0.47117 0.0
N851 N 0.65271 0.02164 0.43791 0.0
H852 H 0.61858 0.04154 0.91451 0.0
H853 H 0.884 0.99474 0.85421 0.0
H854 H 0.72414 0.07521 0.86413 0.0
H855 H 0.77622 0.96117 0.9035 0.0
H856 H 0.82591 0.02436 0.85726 0.0
H857 H 0.67542 1.01182 0.91014 0.0
C858 C 0.65351 0.0427 0.90243 0.0
C859 C 0.66645 0.06101 0.88973 0.0
C860 C 0.81489 1.01047 0.86732 0.0
C861 C 0.73223 0.02696 0.88479 0.0
C862 C 0.84818 0.99357 0.86564 0.0
C863 C 0.835 0.97536 0.8785 0.0
C864 C 0.76814 1.00922 0.88206 0.0
C865 C 0.78768 0.97472 0.89287 0.0
C866 C 0.68616 0.02572 0.90003 0.0
C867 C 0.71282 0.06158 0.87462 0.0
N868 N 0.75615 0.99138 0.8943 0.0
N869 N 0.74395 0.04484 0.87258 0.0
H870 H 0.24043 0.95923 0.63531 0.0
H871 H 0.27042 0.07616 0.59504 0.0
H872 H 0.11519 0.99437 0.59823 0.0
H873 H 0.40268 0.03891 0.62023 0.0
H874 H 0.21232 0.04654 0.59751 0.0
H875 H 0.2998 0.98831 0.6312 0.0
C876 C 0.22527 0.97295 0.62618 0.0
C877 C 0.17232 0.97419 0.61712 0.0
C878 C 0.25407 0.04479 0.60243 0.0
C879 C 0.24042 1.00778 0.61268 0.0
C880 C 0.28723 0.06174 0.60117 0.0
C881 C 0.34147 0.06004 0.60759 0.0
C882 C 0.2751 0.02596 0.61037 0.0
C883 C 0.36123 0.04088 0.61494 0.0
C884 C 0.25931 0.98962 0.62393 0.0
C885 C 0.15519 0.99264 0.60586 0.0
N886 N 0.328 0.02461 0.61629 0.0
N887 N 0.18904 1.00866 0.60402 0.0
H888 H 0.83057 0.46745 0.00821 0.0
H889 H 0.6908 0.5545 0.09136 0.0
H890 H 0.83657 0.46808 0.09255 0.0
H891 H 0.66784 0.54637 0.00836 0.0
H892 H 0.7472 0.52409 0.09268 0.0
H893 H 0.77364 0.49727 0.00837 0.0
C894 C 0.8201 0.47392 0.02682 0.0
C895 C 0.83888 0.46528 0.05041 0.0
C896 C 0.72966 0.52897 0.07421 0.0
C897 C 0.77289 0.49967 0.05076 0.0
C898 C 0.69774 0.54641 0.07341 0.0
C899 C 0.67428 0.55305 0.04971 0.0
C900 C 0.73865 0.51816 0.05111 0.0
C901 C 0.68431 0.54177 0.02713 0.0
C902 C 0.78721 0.49094 0.02691 0.0
C903 C 0.82286 0.47418 0.07392 0.0
N904 N 0.71572 0.52501 0.0284 0.0
N905 N 0.79108 0.49096 0.07352 0.0
H906 H 0.25751 0.58354 0.41687 0.0
H907 H 0.18226 0.4734 0.4733 0.0
H908 H 0.34217 0.55425 0.48075 0.0
H909 H 0.10189 0.50197 0.40755 0.0
H910 H 0.24099 0.50281 0.47645 0.0
H911 H 0.20036 0.55377 0.41317 0.0
C912 C 0.26452 0.57083 0.43001 0.0
C913 C 0.30503 0.57151 0.44917 0.0
C914 C 0.21045 0.50264 0.46134 0.0
C915 C 0.23881 0.53729 0.44523 0.0
C916 C 0.17693 0.48577 0.45945 0.0
C917 C 0.13673 0.48507 0.44013 0.0
C918 C 0.20394 0.51904 0.4438 0.0
C919 C 0.1316 0.50181 0.423 0.0
C920 C 0.2315 0.55383 0.42799 0.0
C921 C 0.31119 0.55458 0.4659 0.0
N922 N 0.16474 0.51804 0.42523 0.0
N923 N 0.27852 0.53822 0.46355 0.0
H924 H 0.29308 0.46275 0.85635 0.0
H925 H 0.23043 0.57621 0.90068 0.0
H926 H 0.3961 0.49819 0.90626 0.0
H927 H 0.12319 0.54109 0.85259 0.0
H928 H 0.29269 0.54802 0.90143 0.0
H929 H 0.23147 0.49133 0.8535 0.0
C930 C 0.30283 0.47648 0.86676 0.0
C931 C 0.35 0.47795 0.88166 0.0
C932 C 0.25565 0.54644 0.89063 0.0
C933 C 0.27961 0.51087 0.87826 0.0
C934 C 0.22011 0.56264 0.89002 0.0
C935 C 0.1715 0.56114 0.87635 0.0
C936 C 0.24273 0.52847 0.87751 0.0
C937 C 0.15996 0.5429 0.86349 0.0
C938 C 0.26765 0.49285 0.86501 0.0
C939 C 0.36071 0.49634 0.89431 0.0
N940 N 0.19535 0.52729 0.86436 0.0
N941 N 0.32578 0.512 0.89238 0.0
H942 H 0.89463 0.53841 0.61156 0.0
H943 H 0.59667 0.49631 0.62317 0.0
H944 H 0.76085 0.57571 0.63222 0.0
H945 H 0.73202 0.45889 0.60559 0.0
H946 H 0.65577 0.52573 0.62606 0.0
H947 H 0.83564 0.50905 0.60976 0.0
C948 C 0.85301 0.54044 0.61596 0.0
C949 C 0.83287 0.55967 0.62197 0.0
C950 C 0.67252 0.51106 0.62161 0.0
C951 C 0.76468 0.52606 0.61953 0.0
C952 C 0.63871 0.49428 0.61979 0.0
C953 C 0.65936 0.47505 0.61426 0.0
C954 C 0.72739 0.50862 0.61776 0.0
C955 C 0.71437 0.47331 0.61034 0.0
C956 C 0.8192 0.52366 0.61474 0.0
C957 C 0.77823 0.56133 0.62708 0.0
N958 N 0.74638 0.48985 0.61216 0.0
N959 N 0.74611 0.54478 0.6257 0.0
H960 H 0.00301 0.31368 0.05557 0.0
H961 H 0.99354 0.20566 0.12852 0.0
H962 H 0.92105 0.30103 0.12748 0.0
H963 H 0.07295 0.21382 0.05493 0.0
H964 H 0.96118 0.2403 0.12562 0.0
H965 H 0.02319 0.2772 0.05184 0.0
C966 C 0.98851 0.3032 0.07029 0.0
C967 C 0.96079 0.31041 0.09203 0.0
C968 C 0.98545 0.23465 0.10993 0.0
C969 C 0.98396 0.26888 0.08806 0.0
C970 C 0.00412 0.21483 0.11166 0.0
C971 C 0.03663 0.20695 0.09214 0.0
C972 C 0.9996 0.24703 0.08857 0.0
C973 C 0.04809 0.21938 0.07042 0.0
C974 C 1.0003 0.28243 0.06826 0.0
C975 C 0.94329 0.29622 0.11066 0.0
N976 N 0.03013 0.23895 0.06935 0.0
N977 N 0.9554 0.27628 0.10832 0.0
H978 H 0.51083 0.811 0.12603 0.0
H979 H 0.52307 0.70648 0.05085 0.0
H980 H 0.45472 0.80633 0.04644 0.0
H981 H 0.61838 0.72022 0.11908 0.0
H982 H 0.4989 0.74259 0.0471 0.0
H983 H 0.55114 0.77748 0.12288 0.0
C984 C 0.50758 0.80287 0.10777 0.0
C985 C 0.47949 0.8113 0.0865 0.0
C986 C 0.5257 0.73769 0.06265 0.0
C987 C 0.52468 0.77268 0.08271 0.0
C988 C 0.53969 0.71712 0.06472 0.0
C989 C 0.5721 0.71026 0.08558 0.0
C990 C 0.54412 0.75138 0.08165 0.0
C991 C 0.59224 0.7247 0.10309 0.0
C992 C 0.53062 0.78376 0.1059 0.0
C993 C 0.47639 0.80027 0.06319 0.0
N994 N 0.57747 0.74443 0.10091 0.0
N995 N 0.49804 0.78132 0.062 0.0
H996 H 0.51854 0.83204 0.40164 0.0
H997 H 0.45004 0.72108 0.45796 0.0
H998 H 0.54239 0.81388 0.4822 0.0
H999 H 0.45633 0.73539 0.37537 0.0
H1000 H 0.47655 0.75584 0.46751 0.0
H1001 H 0.48613 0.79769 0.39197 0.0
C1002 C 0.51642 0.82089 0.4173 0.0
C1003 C 0.53365 0.82575 0.44268 0.0
C1004 C 0.47204 0.75134 0.44729 0.0
C1005 C 0.497 0.7865 0.43186 0.0
C1006 C 0.45717 0.73138 0.44178 0.0
C1007 C 0.45067 0.72507 0.41576 0.0
C1008 C 0.48036 0.76524 0.42668 0.0
C1009 C 0.45991 0.73945 0.39574 0.0
C1010 C 0.49835 0.80127 0.41178 0.0
C1011 C 0.53041 0.81069 0.46226 0.0
N1012 N 0.47415 0.75879 0.40161 0.0
N1013 N 0.51259 0.7918 0.45645 0.0
H1014 H 0.0268 0.32893 0.40168 0.0
H1015 H 0.9481 0.21941 0.45938 0.0
H1016 H 0.03161 0.31312 0.48376 0.0
H1017 H 0.96473 0.23192 0.37675 0.0
H1018 H 0.97334 0.25433 0.46849 0.0
H1019 H 0.99684 0.29431 0.39192 0.0
C1020 C 0.0211 0.31825 0.41764 0.0
C1021 C 0.03219 0.32388 0.44354 0.0
C1022 C 0.97144 0.24943 0.44835 0.0
C1023 C 0.9983 0.28427 0.4326 0.0
C1024 C 0.9573 0.22936 0.44311 0.0
C1025 C 0.95415 0.22249 0.4172 0.0
C1026 C 0.98247 0.26288 0.42759 0.0
C1027 C 0.96583 0.23644 0.39701 0.0
C1028 C 0.00439 0.29846 0.41207 0.0
C1029 C 0.02449 0.30936 0.46347 0.0
N1030 N 0.97939 0.25591 0.40263 0.0
N1031 N 0.00814 0.29029 0.45759 0.0
H1032 H 0.87137 0.79818 0.91369 0.0
H1033 H 0.12328 0.73753 0.8614 0.0
H1034 H 1.00226 0.8264 0.87338 0.0
H1035 H 0.99881 0.70933 0.90646 0.0
H1036 H 0.0786 0.77003 0.86525 0.0
H1037 H 0.91656 0.7655 0.91103 0.0
C1038 C 0.9096 0.79752 0.90424 0.0
C1039 C 0.93289 0.81509 0.89361 0.0
C1040 C 0.061 0.75676 0.87434 0.0
C1041 C 0.98503 0.77767 0.8906 0.0
C1042 C 0.08667 0.73814 0.87226 0.0
C1043 C 0.06508 0.7206 0.8838 0.0
C1044 C 0.01311 0.75798 0.88803 0.0
C1045 C 0.01676 0.72238 0.89708 0.0
C1046 C 0.93548 0.77885 0.90283 0.0
C1047 C 0.98297 0.81334 0.88203 0.0
N1048 N 0.99246 0.74075 0.89887 0.0
N1049 N 0.0072 0.79496 0.88073 0.0
H1050 H 0.51693 0.21286 0.90506 0.0
H1051 H 0.51997 0.3301 0.86357 0.0
H1052 H 0.6236 0.23726 0.84699 0.0
H1053 H 0.39018 0.30122 0.90388 0.0
H1054 H 0.56526 0.29719 0.86158 0.0
H1055 H 0.47605 0.24608 0.90864 0.0
C1056 C 0.53165 0.22507 0.89286 0.0
C1057 C 0.57369 0.22202 0.87546 0.0
C1058 C 0.52689 0.2981 0.87088 0.0
C1059 C 0.52738 0.26045 0.88 0.0
C1060 C 0.50127 0.31687 0.87218 0.0
C1061 C 0.45113 0.31834 0.88376 0.0
C1062 C 0.50242 0.28077 0.88155 0.0
C1063 C 0.4284 0.3007 0.89443 0.0
C1064 C 0.50838 0.24415 0.89508 0.0
C1065 C 0.59166 0.2388 0.86079 0.0
N1066 N 0.45421 0.28268 0.8931 0.0
N1067 N 0.56842 0.25728 0.86339 0.0
H1068 H 0.36223 0.23728 0.63315 0.0
H1069 H 0.64006 0.29676 0.63326 0.0
H1070 H 0.51519 0.20765 0.63405 0.0
H1071 H 0.48734 0.32656 0.63226 0.0
H1072 H 0.59493 0.26398 0.63392 0.0
H1073 H 0.40719 0.27013 0.6333 0.0
C1074 C 0.40524 0.23765 0.63353 0.0
C1075 C 0.43488 0.21962 0.63354 0.0
C1076 C 0.57126 0.27769 0.63354 0.0
C1077 C 0.48674 0.25724 0.63346 0.0
C1078 C 0.59705 0.29644 0.6333 0.0
C1079 C 0.56755 0.3145 0.6327 0.0
C1080 C 0.51545 0.27693 0.63322 0.0
C1081 C 0.5118 0.31308 0.63236 0.0
C1082 C 0.43092 0.25643 0.63346 0.0
C1083 C 0.49061 0.2211 0.63365 0.0
N1084 N 0.4876 0.29464 0.63266 0.0
N1085 N 0.51467 0.23956 0.63362 0.0
H1086 H 0.86545 0.73774 0.59634 0.0
H1087 H 0.1126 0.79786 0.65673 0.0
H1088 H 0.99509 0.70853 0.63783 0.0
H1089 H 0.00423 0.82433 0.59976 0.0
H1090 H 0.06704 0.76554 0.65209 0.0
H1091 H 0.91254 0.77011 0.59949 0.0
C1092 C 0.90381 0.73816 0.60614 0.0
C1093 C 0.92633 0.72043 0.61691 0.0
C1094 C 0.05332 0.77842 0.64056 0.0
C1095 C 0.98045 0.7574 0.62059 0.0
C1096 C 0.0795 0.79695 0.64311 0.0
C1097 C 0.06257 0.81401 0.62855 0.0
C1098 C 0.00947 0.77685 0.62349 0.0
C1099 C 0.01849 0.81177 0.61165 0.0
C1100 C 0.93079 0.75661 0.60781 0.0
C1101 C 0.97651 0.72178 0.62906 0.0
N1102 N 0.99345 0.79356 0.60962 0.0
N1103 N 1.00173 0.73997 0.63073 0.0
H1104 H 0.09993 0.12659 0.19651 0.0
H1105 H 0.93785 0.08643 0.32007 0.0
H1106 H 0.96447 0.0868 0.18884 0.0
H1107 H 0.03778 0.13975 0.32094 0.0
H1108 H 0.95599 0.08257 0.27346 0.0
H1109 H 0.08632 0.12768 0.24356 0.0
C1110 C 0.06753 0.11789 0.2048 0.0
C1111 C 0.03351 0.10643 0.18875 0.0
C1112 C 0.97411 0.09502 0.28396 0.0
C1113 C 0.01743 0.10779 0.24278 0.0
C1114 C 0.96378 0.09729 0.31058 0.0
C1115 C 0.98597 0.11356 0.32461 0.0
C1116 C 0.00737 0.10897 0.27127 0.0
C1117 C 0.02022 0.12683 0.31124 0.0
C1118 C 0.0596 0.11865 0.23167 0.0
C1119 C 0.99152 0.09584 0.20052 0.0
N1120 N 0.02968 0.12427 0.28537 0.0
N1121 N 0.98474 0.0967 0.22691 0.0
H1122 H 0.53438 0.86872 0.19087 0.0
H1123 H 0.56846 0.93558 0.31962 0.0
H1124 H 0.50383 0.93306 0.19358 0.0
H1125 H 0.58472 0.87047 0.31964 0.0
H1126 H 0.556 0.93529 0.27224 0.0
H1127 H 0.56328 0.86946 0.23666 0.0
C1128 C 0.53434 0.88307 0.201 0.0
C1129 C 0.51658 0.90088 0.18834 0.0
C1130 C 0.56268 0.92105 0.28251 0.0
C1131 C 0.54916 0.90175 0.24091 0.0
C1132 C 0.56979 0.9212 0.30957 0.0
C1133 C 0.57691 0.90298 0.32361 0.0
C1134 C 0.56249 0.90252 0.26927 0.0
C1135 C 0.57934 0.88485 0.30956 0.0
C1136 C 0.55058 0.88344 0.2272 0.0
C1137 C 0.51658 0.91893 0.20262 0.0
N1138 N 0.57155 0.88505 0.28315 0.0
N1139 N 0.53248 0.91889 0.22813 0.0
H1140 H 0.86196 0.90003 0.79915 0.0
H1141 H 0.12759 0.8937 0.71364 0.0
H1142 H 0.01725 0.88464 0.83027 0.0
H1143 H 0.97108 0.90113 0.67936 0.0
H1144 H 0.0873 0.89193 0.757 0.0
H1145 H 0.90015 0.90132 0.75498 0.0
C1146 C 0.90378 0.89674 0.79668 0.0
C1147 C 0.93643 0.89231 0.81841 0.0
C1148 C 0.06174 0.89397 0.73997 0.0
C1149 C 0.98042 0.89401 0.76832 0.0
C1150 C 0.08485 0.89507 0.71525 0.0
C1151 C 0.05271 0.89754 0.69289 0.0
C1152 C 0.00613 0.89542 0.74234 0.0
C1153 C 0.9974 0.89916 0.69611 0.0
C1154 C 0.92564 0.89757 0.77155 0.0
C1155 C 0.99049 0.88827 0.81414 0.0
N1156 N 0.97587 0.89808 0.72034 0.0
N1157 N 0.01072 0.88932 0.78972 0.0
H1158 H 0.48109 0.12651 0.82708 0.0
H1159 H 0.53461 0.13178 0.67342 0.0
H1160 H 0.63769 0.13464 0.79496 0.0
H1161 H 0.37799 0.128 0.70672 0.0
H1162 H 0.5736 0.13005 0.71725 0.0
H1163 H 0.44427 0.12411 0.78312 0.0
C1164 C 0.50798 0.12771 0.81073 0.0
C1165 C 0.56273 0.13095 0.81479 0.0
C1166 C 0.53075 0.1295 0.71504 0.0
C1167 C 0.52016 0.12824 0.76395 0.0
C1168 C 0.50827 0.13047 0.68997 0.0
C1169 C 0.45272 0.13012 0.68633 0.0
C1170 C 0.49761 0.12816 0.73684 0.0
C1171 C 0.4209 0.12833 0.70856 0.0
C1172 C 0.4867 0.12633 0.78554 0.0
C1173 C 0.59533 0.13216 0.79276 0.0
N1174 N 0.44381 0.1275 0.73286 0.0
N1175 N 0.57347 0.13093 0.76824 0.0
H1176 H 0.42137 0.59143 0.31378 0.0
H1177 H 0.60445 0.62385 0.19396 0.0
H1178 H 0.53128 0.64183 0.31594 0.0
H1179 H 0.45694 0.59143 0.18285 0.0
H1180 H 0.58711 0.62551 0.24072 0.0
H1181 H 0.44244 0.5866 0.26764 0.0
C1182 C 0.44995 0.60148 0.30469 0.0
C1183 C 0.47429 0.61717 0.31899 0.0
C1184 C 0.55863 0.61794 0.22811 0.0
C1185 C 0.49928 0.61135 0.26624 0.0
C1186 C 0.56868 0.61682 0.20143 0.0
C1187 C 0.53221 0.60736 0.18449 0.0
C1188 C 0.5119 0.60941 0.23812 0.0
C1189 C 0.48599 0.5989 0.19524 0.0
C1190 C 0.46202 0.59863 0.27836 0.0
C1191 C 0.51197 0.62933 0.30611 0.0
N1192 N 0.47716 0.60007 0.22144 0.0
N1193 N 0.52321 0.62616 0.28054 0.0
H1194 H 0.97501 0.42413 0.32479 0.0
H1195 H 0.07379 0.39504 0.18331 0.0
H1196 H 0.12867 0.39726 0.31198 0.0
H1197 H 0.95254 0.44018 0.19584 0.0
H1198 H 0.09366 0.39479 0.23008 0.0
H1199 H 0.96349 0.42857 0.27747 0.0
C1200 C 0.00623 0.41909 0.31197 0.0
C1201 C 0.05269 0.41017 0.32226 0.0
C1202 C 0.06309 0.4049 0.22252 0.0
C1203 C 0.03988 0.41527 0.26814 0.0
C1204 C 0.05193 0.40521 0.1957 0.0
C1205 C 0.01108 0.41759 0.18539 0.0
C1206 C 0.03275 0.41681 0.23933 0.0
C1207 C 0.98355 0.43005 0.20281 0.0
C1208 C 0.99985 0.4218 0.285 0.0
C1209 C 0.09229 0.40423 0.30481 0.0
N1210 N 0.99446 0.42916 0.22891 0.0
N1211 N 0.08478 0.40671 0.27856 0.0
H1212 H 0.5352 0.40375 0.82837 0.0
H1213 H 0.46733 0.39897 0.67551 0.0
H1214 H 0.37418 0.40093 0.79841 0.0
H1215 H 0.62617 0.40416 0.70762 0.0
H1216 H 0.4317 0.40044 0.71974 0.0
H1217 H 0.56791 0.4047 0.78399 0.0
C1218 C 0.50652 0.40335 0.8124 0.0
C1219 C 0.45172 0.40215 0.81716 0.0
C1220 C 0.4743 0.40134 0.71712 0.0
C1221 C 0.48942 0.40322 0.76585 0.0
C1222 C 0.49476 0.4005 0.69187 0.0
C1223 C 0.54992 0.4014 0.68788 0.0
C1224 C 0.50923 0.40304 0.73858 0.0
C1225 C 0.58345 0.40339 0.70978 0.0
C1226 C 0.5254 0.40392 0.78696 0.0
C1227 C 0.41671 0.40182 0.79561 0.0
N1228 N 0.56257 0.40408 0.73417 0.0
N1229 N 0.4362 0.40226 0.7708 0.0
H1230 H 0.13058 0.63993 0.79276 0.0
H1231 H 0.8623 0.63823 0.70503 0.0
H1232 H 0.97261 0.64088 0.8248 0.0
H1233 H 0.02009 0.64197 0.67304 0.0
H1234 H 0.90187 0.63833 0.74927 0.0
H1235 H 0.09094 0.63985 0.74855 0.0
C1236 C 0.08771 0.64014 0.79052 0.0
C1237 C 0.05501 0.64044 0.81253 0.0
C1238 C 0.92776 0.63915 0.73251 0.0
C1239 C 0.00925 0.64028 0.76213 0.0
C1240 C 0.90511 0.63908 0.70729 0.0
C1241 C 0.93778 0.64012 0.68528 0.0
C1242 C 0.98346 0.64019 0.73571 0.0
C1243 C 0.99316 0.64118 0.68939 0.0
C1244 C 0.06502 0.6401 0.76531 0.0
C1245 C 0.99955 0.64068 0.80844 0.0
N1246 N 0.01414 0.64117 0.714 0.0
N1247 N 0.97853 0.64057 0.78384 0.0
loop_
_geom_bond_atom_site_label_1
_geom_bond_atom_site_label_2
_geom_bond_distance
_geom_bond_site_symmetry_2
_ccdc_geom_bond_type
Co0 N4 2.148 . S
Co0 N10 2.128 . S
Co0 N20 2.194 . S
Co0 O25 2.351 . S
Co0 O26 2.155 . S
Co0 O27 2.096 . S
C1 N4 1.301 . S
C1 N5 1.328 . S
C1 H6 0.930 . S
C2 C3 1.333 . S
C2 N4 1.317 . S
C2 H7 0.930 . S
C3 C2 1.333 . S
C3 N5 1.350 . S
C3 H29 0.931 . S
N4 Co0 2.148 . S
N4 C1 1.301 . S
N4 C2 1.317 . S
N5 C1 1.328 . S
N5 C3 1.350 . S
H6 C1 0.930 . S
H7 C2 0.930 . S
C8 O9 1.224 . S
C8 O27 1.247 1_655 S
O9 C8 1.224 . S
N10 Co0 2.128 . S
N10 C11 1.355 . S
N10 C13 1.311 . S
C11 N10 1.355 . S
C11 C12 1.363 . S
C11 H23 0.929 . S
C12 C11 1.363 . S
C12 N14 1.375 . S
C12 H30 0.931 . S
C13 N10 1.311 . S
C13 N14 1.347 . S
C13 H24 0.929 . S
N14 C12 1.375 . S
N14 C13 1.347 . S
C15 C18 1.365 . S
C15 N20 1.328 . S
C15 H21 0.929 . S
C16 C17 1.362 . S
C16 C19 1.378 . S
C16 H31 0.929 1_455 S
C17 C16 1.362 . S
C17 C18 1.366 . S
C18 C15 1.365 . S
C18 C17 1.366 . S
C18 H32 0.930 . S
C19 C16 1.378 . S
C19 N20 1.315 . S
C19 H22 0.930 1_455 S
N20 Co0 2.194 . S
N20 C15 1.328 . S
N20 C19 1.315 . S
H21 C15 0.929 . S
H22 C19 0.930 1_655 S
H23 C11 0.929 . S
H24 C13 0.929 . S
O25 Co0 2.351 . S
O25 C28 1.244 . S
O26 Co0 2.155 . S
O26 C28 1.240 . S
O27 Co0 2.096 . S
O27 C8 1.247 1_455 S
C28 O25 1.244 . S
C28 O26 1.240 . S
H29 C3 0.931 . S
H30 C12 0.931 . S
H31 C16 0.929 1_655 S
H32 C18 0.930 . S
Co33 N37 2.148 . S
Co33 N43 2.128 . S
Co33 N53 2.194 . S
Co33 O58 2.351 . S
Co33 O59 2.155 . S
Co33 O60 2.096 . S
C34 N37 1.301 . S
C34 N38 1.328 . S
C34 H39 0.930 . S
C35 C36 1.333 . S
C35 N37 1.317 . S
C35 H40 0.930 . S
C36 C35 1.333 . S
C36 N38 1.350 . S
C36 H62 0.931 . S
N37 Co33 2.148 . S
N37 C34 1.301 . S
N37 C35 1.317 . S
N38 C34 1.328 . S
N38 C36 1.350 . S
H39 C34 0.930 . S
H40 C35 0.930 . S
C41 O42 1.224 . S
C41 O60 1.247 . S
O42 C41 1.224 . S
N43 Co33 2.128 . S
N43 C44 1.355 . S
N43 C46 1.311 . S
C44 N43 1.355 . S
C44 C45 1.363 . S
C44 H56 0.929 . S
C45 C44 1.363 . S
C45 N47 1.375 . S
C45 H63 0.931 . S
C46 N43 1.311 . S
C46 N47 1.347 . S
C46 H57 0.929 . S
N47 C45 1.375 . S
N47 C46 1.347 . S
C48 C51 1.365 . S
C48 N53 1.328 . S
C48 H54 0.929 . S
C49 C50 1.362 . S
C49 C52 1.378 . S
C49 H64 0.929 . S
C50 C49 1.362 . S
C50 C51 1.366 . S
C51 C48 1.365 . S
C51 C50 1.366 . S
C51 H65 0.930 . S
C52 C49 1.378 . S
C52 N53 1.315 . S
C52 H55 0.930 . S
N53 Co33 2.194 . S
N53 C48 1.328 . S
N53 C52 1.315 . S
H54 C48 0.929 . S
H55 C52 0.930 . S
H56 C44 0.929 . S
H57 C46 0.929 . S
O58 Co33 2.351 . S
O58 C61 1.244 . S
O59 Co33 2.155 . S
O59 C61 1.240 . S
O60 Co33 2.096 . S
O60 C41 1.247 . S
C61 O58 1.244 . S
C61 O59 1.240 . S
H62 C36 0.931 . S
H63 C45 0.931 . S
H64 C49 0.929 . S
H65 C51 0.930 . S
Co66 N70 2.148 . S
Co66 N76 2.128 . S
Co66 N86 2.194 . S
Co66 O91 2.351 . S
Co66 O92 2.155 . S
Co66 O93 2.096 . S
C67 N70 1.301 . S
C67 N71 1.328 . S
C67 H72 0.930 . S
C68 C69 1.333 . S
C68 N70 1.317 . S
C68 H73 0.930 . S
C69 C68 1.333 . S
C69 N71 1.350 . S
C69 H95 0.931 . S
N70 Co66 2.148 . S
N70 C67 1.301 . S
N70 C68 1.317 . S
N71 C67 1.328 . S
N71 C69 1.350 . S
H72 C67 0.930 . S
H73 C68 0.930 . S
C74 O75 1.224 . S
C74 O93 1.247 . S
O75 C74 1.224 . S
N76 Co66 2.128 . S
N76 C77 1.355 . S
N76 C79 1.311 . S
C77 N76 1.355 . S
C77 C78 1.363 . S
C77 H89 0.929 . S
C78 C77 1.363 . S
C78 N80 1.375 . S
C78 H96 0.931 . S
C79 N76 1.311 . S
C79 N80 1.347 . S
C79 H90 0.929 . S
N80 C78 1.375 . S
N80 C79 1.347 . S
C81 C84 1.365 . S
C81 N86 1.328 . S
C81 H87 0.929 . S
C82 C83 1.362 . S
C82 C85 1.378 . S
C82 H97 0.929 . S
C83 C82 1.362 . S
C83 C84 1.366 . S
C84 C81 1.365 . S
C84 C83 1.366 . S
C84 H98 0.930 . S
C85 C82 1.378 . S
C85 N86 1.315 . S
C85 H88 0.930 . S
N86 Co66 2.194 . S
N86 C81 1.328 . S
N86 C85 1.315 . S
H87 C81 0.929 . S
H88 C85 0.930 . S
H89 C77 0.929 . S
H90 C79 0.929 . S
O91 Co66 2.351 . S
O91 C94 1.244 . S
O92 Co66 2.155 . S
O92 C94 1.240 . S
O93 Co66 2.096 . S
O93 C74 1.247 . S
C94 O91 1.244 . S
C94 O92 1.240 . S
H95 C69 0.931 . S
H96 C78 0.931 . S
H97 C82 0.929 . S
H98 C84 0.930 . S
Co99 N103 2.148 . S
Co99 N109 2.128 . S
Co99 N119 2.194 . S
Co99 O124 2.351 . S
Co99 O125 2.155 . S
Co99 O126 2.096 . S
C100 N103 1.301 . S
C100 N104 1.328 . S
C100 H105 0.930 . S
C101 C102 1.333 . S
C101 N103 1.317 . S
C101 H106 0.930 . S
C102 C101 1.333 . S
C102 N104 1.350 . S
C102 H128 0.931 . S
N103 Co99 2.148 . S
N103 C100 1.301 . S
N103 C101 1.317 . S
N104 C100 1.328 . S
N104 C102 1.350 . S
H105 C100 0.930 . S
H106 C101 0.930 . S
C107 O108 1.224 . S
C107 O126 1.247 1_455 S
O108 C107 1.224 . S
N109 Co99 2.128 . S
N109 C110 1.355 . S
N109 C112 1.311 . S
C110 N109 1.355 . S
C110 C111 1.363 . S
C110 H122 0.929 . S
C111 C110 1.363 . S
C111 N113 1.375 . S
C111 H129 0.931 . S
C112 N109 1.311 . S
C112 N113 1.347 . S
C112 H123 0.929 . S
N113 C111 1.375 . S
N113 C112 1.347 . S
C114 C117 1.365 . S
C114 N119 1.328 . S
C114 H120 0.929 . S
C115 C116 1.362 . S
C115 C118 1.378 . S
C115 H130 0.929 1_655 S
C116 C115 1.362 . S
C116 C117 1.366 . S
C117 C114 1.365 . S
C117 C116 1.366 . S
C117 H131 0.930 . S
C118 C115 1.378 . S
C118 N119 1.315 . S
C118 H121 0.930 1_655 S
N119 Co99 2.194 . S
N119 C114 1.328 . S
N119 C118 1.315 . S
H120 C114 0.929 . S
H121 C118 0.930 1_455 S
H122 C110 0.929 . S
H123 C112 0.929 . S
O124 Co99 2.351 . S
O124 C127 1.244 . S
O125 Co99 2.155 . S
O125 C127 1.240 . S
O126 Co99 2.096 . S
O126 C107 1.247 1_655 S
C127 O124 1.244 . S
C127 O125 1.240 . S
H128 C102 0.931 . S
H129 C111 0.931 . S
H130 C115 0.929 1_455 S
H131 C117 0.930 . S
Co132 N136 2.148 . S
Co132 N142 2.128 . S
Co132 N152 2.194 . S
Co132 O157 2.351 . S
Co132 O158 2.155 . S
Co132 O159 2.096 . S
C133 N136 1.301 . S
C133 N137 1.328 . S
C133 H138 0.930 . S
C134 C135 1.333 . S
C134 N136 1.317 . S
C134 H139 0.930 . S
C135 C134 1.333 . S
C135 N137 1.350 . S
C135 H161 0.931 . S
N136 Co132 2.148 . S
N136 C133 1.301 . S
N136 C134 1.317 . S
N137 C133 1.328 . S
N137 C135 1.350 . S
H138 C133 0.930 . S
H139 C134 0.930 . S
C140 O141 1.224 . S
C140 O159 1.247 . S
O141 C140 1.224 . S
N142 Co132 2.128 . S
N142 C143 1.355 . S
N142 C145 1.311 . S
C143 N142 1.355 . S
C143 C144 1.363 . S
C143 H155 0.929 . S
C144 C143 1.363 . S
C144 N146 1.375 . S
C144 H162 0.931 . S
C145 N142 1.311 . S
C145 N146 1.347 . S
C145 H156 0.929 . S
N146 C144 1.375 . S
N146 C145 1.347 . S
C147 C150 1.365 . S
C147 N152 1.328 1_455 S
C147 H153 0.929 . S
C148 C149 1.362 . S
C148 C151 1.378 1_455 S
C148 H163 0.929 . S
C149 C148 1.362 . S
C149 C150 1.366 . S
C150 C147 1.365 . S
C150 C149 1.366 . S
C150 H164 0.930 . S
C151 C148 1.378 1_655 S
C151 N152 1.315 . S
C151 H154 0.930 . S
N152 Co132 2.194 . S
N152 C147 1.328 1_655 S
N152 C151 1.315 . S
H153 C147 0.929 . S
H154 C151 0.930 . S
H155 C143 0.929 . S
H156 C145 0.929 . S
O157 Co132 2.351 . S
O157 C160 1.244 . S
O158 Co132 2.155 . S
O158 C160 1.240 . S
O159 Co132 2.096 . S
O159 C140 1.247 . S
C160 O157 1.244 . S
C160 O158 1.240 . S
H161 C135 0.931 . S
H162 C144 0.931 . S
H163 C148 0.929 . S
H164 C150 0.930 . S
Co165 N169 2.148 . S
Co165 N175 2.128 . S
Co165 N185 2.194 . S
Co165 O190 2.351 . S
Co165 O191 2.155 . S
Co165 O192 2.096 . S
C166 N169 1.301 . S
C166 N170 1.328 . S
C166 H171 0.930 . S
C167 C168 1.333 . S
C167 N169 1.317 . S
C167 H172 0.930 . S
C168 C167 1.333 . S
C168 N170 1.350 . S
C168 H194 0.931 . S
N169 Co165 2.148 . S
N169 C166 1.301 . S
N169 C167 1.317 . S
N170 C166 1.328 . S
N170 C168 1.350 . S
H171 C166 0.930 . S
H172 C167 0.930 . S
C173 O174 1.224 . S
C173 O192 1.247 . S
O174 C173 1.224 . S
N175 Co165 2.128 . S
N175 C176 1.355 . S
N175 C178 1.311 . S
C176 N175 1.355 . S
C176 C177 1.363 . S
C176 H188 0.929 . S
C177 C176 1.363 . S
C177 N179 1.375 . S
C177 H195 0.931 . S
C178 N175 1.311 . S
C178 N179 1.347 . S
C178 H189 0.929 . S
N179 C177 1.375 . S
N179 C178 1.347 . S
C180 C183 1.365 . S
C180 N185 1.328 . S
C180 H186 0.929 . S
C181 C182 1.362 . S
C181 C184 1.378 . S
C181 H196 0.929 . S
C182 C181 1.362 . S
C182 C183 1.366 . S
C183 C180 1.365 . S
C183 C182 1.366 . S
C183 H197 0.930 . S
C184 C181 1.378 . S
C184 N185 1.315 . S
C184 H187 0.930 . S
N185 Co165 2.194 . S
N185 C180 1.328 . S
N185 C184 1.315 . S
H186 C180 0.929 . S
H187 C184 0.930 . S
H188 C176 0.929 . S
H189 C178 0.929 . S
O190 Co165 2.351 . S
O190 C193 1.244 . S
O191 Co165 2.155 . S
O191 C193 1.240 . S
O192 Co165 2.096 . S
O192 C173 1.247 . S
C193 O190 1.244 . S
C193 O191 1.240 . S
H194 C168 0.931 . S
H195 C177 0.931 . S
H196 C181 0.929 . S
H197 C183 0.930 . S
Co198 N202 2.148 . S
Co198 N208 2.128 . S
Co198 N218 2.194 . S
Co198 O223 2.351 . S
Co198 O224 2.155 . S
Co198 O225 2.096 . S
C199 N202 1.301 . S
C199 N203 1.328 . S
C199 H204 0.930 . S
C200 C201 1.333 . S
C200 N202 1.317 . S
C200 H205 0.930 . S
C201 C200 1.333 . S
C201 N203 1.350 . S
C201 H227 0.931 . S
N202 Co198 2.148 . S
N202 C199 1.301 . S
N202 C200 1.317 . S
N203 C199 1.328 . S
N203 C201 1.350 . S
H204 C199 0.930 . S
H205 C200 0.930 . S
C206 O207 1.224 . S
C206 O225 1.247 . S
O207 C206 1.224 . S
N208 Co198 2.128 . S
N208 C209 1.355 . S
N208 C211 1.311 . S
C209 N208 1.355 . S
C209 C210 1.363 . S
C209 H221 0.929 . S
C210 C209 1.363 . S
C210 N212 1.375 . S
C210 H228 0.931 . S
C211 N208 1.311 . S
C211 N212 1.347 . S
C211 H222 0.929 . S
N212 C210 1.375 . S
N212 C211 1.347 . S
C213 C216 1.365 . S
C213 N218 1.328 . S
C213 H219 0.929 . S
C214 C215 1.362 . S
C214 C217 1.378 . S
C214 H229 0.929 . S
C215 C214 1.362 . S
C215 C216 1.366 . S
C216 C213 1.365 . S
C216 C215 1.366 . S
C216 H230 0.930 . S
C217 C214 1.378 . S
C217 N218 1.315 . S
C217 H220 0.930 . S
N218 Co198 2.194 . S
N218 C213 1.328 . S
N218 C217 1.315 . S
H219 C213 0.929 . S
H220 C217 0.930 . S
H221 C209 0.929 . S
H222 C211 0.929 . S
O223 Co198 2.351 . S
O223 C226 1.244 . S
O224 Co198 2.155 . S
O224 C226 1.240 . S
O225 Co198 2.096 . S
O225 C206 1.247 . S
C226 O223 1.244 . S
C226 O224 1.240 . S
H227 C201 0.931 . S
H228 C210 0.931 . S
H229 C214 0.929 . S
H230 C216 0.930 . S
Co231 N235 2.148 . S
Co231 N241 2.128 . S
Co231 N251 2.194 . S
Co231 O256 2.351 . S
Co231 O257 2.155 . S
Co231 O258 2.096 . S
C232 N235 1.301 . S
C232 N236 1.328 . S
C232 H237 0.930 . S
C233 C234 1.333 . S
C233 N235 1.317 . S
C233 H238 0.930 . S
C234 C233 1.333 . S
C234 N236 1.350 . S
C234 H260 0.931 . S
N235 Co231 2.148 . S
N235 C232 1.301 . S
N235 C233 1.317 . S
N236 C232 1.328 . S
N236 C234 1.350 . S
H237 C232 0.930 . S
H238 C233 0.930 . S
C239 O240 1.224 . S
C239 O258 1.247 . S
O240 C239 1.224 . S
N241 Co231 2.128 . S
N241 C242 1.355 . S
N241 C244 1.311 . S
C242 N241 1.355 . S
C242 C243 1.363 . S
C242 H254 0.929 . S
C243 C242 1.363 . S
C243 N245 1.375 . S
C243 H261 0.931 . S
C244 N241 1.311 . S
C244 N245 1.347 . S
C244 H255 0.929 . S
N245 C243 1.375 . S
N245 C244 1.347 . S
C246 C249 1.365 . S
C246 N251 1.328 1_655 S
C246 H252 0.929 . S
C247 C248 1.362 . S
C247 C250 1.378 1_655 S
C247 H262 0.929 . S
C248 C247 1.362 . S
C248 C249 1.366 . S
C249 C246 1.365 . S
C249 C248 1.366 . S
C249 H263 0.930 . S
C250 C247 1.378 1_455 S
C250 N251 1.315 . S
C250 H253 0.930 . S
N251 Co231 2.194 . S
N251 C246 1.328 1_455 S
N251 C250 1.315 . S
H252 C246 0.929 . S
H253 C250 0.930 . S
H254 C242 0.929 . S
H255 C244 0.929 . S
O256 Co231 2.351 . S
O256 C259 1.244 . S
O257 Co231 2.155 . S
O257 C259 1.240 . S
O258 Co231 2.096 . S
O258 C239 1.247 . S
C259 O256 1.244 . S
C259 O257 1.240 . S
H260 C234 0.931 . S
H261 C243 0.931 . S
H262 C247 0.929 . S
H263 C249 0.930 . S
Co264 N268 2.148 . S
Co264 N274 2.128 . S
Co264 N284 2.194 . S
Co264 O289 2.351 . S
Co264 O290 2.155 . S
Co264 O291 2.096 . S
C265 N268 1.301 . S
C265 N269 1.328 . S
C265 H270 0.930 . S
C266 C267 1.333 . S
C266 N268 1.317 . S
C266 H271 0.930 . S
C267 C266 1.333 . S
C267 N269 1.350 . S
C267 H293 0.931 . S
N268 Co264 2.148 . S
N268 C265 1.301 . S
N268 C266 1.317 . S
N269 C265 1.328 . S
N269 C267 1.350 . S
H270 C265 0.930 . S
H271 C266 0.930 . S
C272 O273 1.224 . S
C272 O291 1.247 . S
O273 C272 1.224 . S
N274 Co264 2.128 . S
N274 C275 1.355 . S
N274 C277 1.311 . S
C275 N274 1.355 . S
C275 C276 1.363 . S
C275 H287 0.929 . S
C276 C275 1.363 . S
C276 N278 1.375 . S
C276 H294 0.931 . S
C277 N274 1.311 . S
C277 N278 1.347 . S
C277 H288 0.929 . S
N278 C276 1.375 . S
N278 C277 1.347 . S
C279 C282 1.365 . S
C279 N284 1.328 . S
C279 H285 0.929 . S
C280 C281 1.362 . S
C280 C283 1.378 . S
C280 H295 0.929 . S
C281 C280 1.362 . S
C281 C282 1.366 . S
C282 C279 1.365 . S
C282 C281 1.366 . S
C282 H296 0.930 . S
C283 C280 1.378 . S
C283 N284 1.315 . S
C283 H286 0.930 . S
N284 Co264 2.194 . S
N284 C279 1.328 . S
N284 C283 1.315 . S
H285 C279 0.929 . S
H286 C283 0.930 . S
H287 C275 0.929 . S
H288 C277 0.929 . S
O289 Co264 2.351 . S
O289 C292 1.244 . S
O290 Co264 2.155 . S
O290 C292 1.240 . S
O291 Co264 2.096 . S
O291 C272 1.247 . S
C292 O289 1.244 . S
C292 O290 1.240 . S
H293 C267 0.931 . S
H294 C276 0.931 . S
H295 C280 0.929 . S
H296 C282 0.930 . S
Co297 N301 2.148 . S
Co297 N307 2.128 . S
Co297 N317 2.194 . S
Co297 O322 2.351 . S
Co297 O323 2.155 . S
Co297 O324 2.096 . S
C298 N301 1.301 . S
C298 N302 1.328 . S
C298 H303 0.930 . S
C299 C300 1.333 . S
C299 N301 1.317 . S
C299 H304 0.930 . S
C300 C299 1.333 . S
C300 N302 1.350 . S
C300 H326 0.931 . S
N301 Co297 2.148 . S
N301 C298 1.301 . S
N301 C299 1.317 . S
N302 C298 1.328 . S
N302 C300 1.350 . S
H303 C298 0.930 . S
H304 C299 0.930 . S
C305 O306 1.224 . S
C305 O324 1.247 1_455 S
O306 C305 1.224 . S
N307 Co297 2.128 . S
N307 C308 1.355 . S
N307 C310 1.311 . S
C308 N307 1.355 . S
C308 C309 1.363 . S
C308 H320 0.929 . S
C309 C308 1.363 . S
C309 N311 1.375 . S
C309 H327 0.931 . S
C310 N307 1.311 . S
C310 N311 1.347 . S
C310 H321 0.929 . S
N311 C309 1.375 . S
N311 C310 1.347 . S
C312 C315 1.365 . S
C312 N317 1.328 . S
C312 H318 0.929 . S
C313 C314 1.362 . S
C313 C316 1.378 . S
C313 H328 0.929 1_655 S
C314 C313 1.362 . S
C314 C315 1.366 . S
C315 C312 1.365 . S
C315 C314 1.366 . S
C315 H329 0.930 . S
C316 C313 1.378 . S
C316 N317 1.315 . S
C316 H319 0.930 1_655 S
N317 Co297 2.194 . S
N317 C312 1.328 . S
N317 C316 1.315 . S
H318 C312 0.929 . S
H319 C316 0.930 1_455 S
H320 C308 0.929 . S
H321 C310 0.929 . S
O322 Co297 2.351 . S
O322 C325 1.244 . S
O323 Co297 2.155 . S
O323 C325 1.240 . S
O324 Co297 2.096 . S
O324 C305 1.247 1_655 S
C325 O322 1.244 . S
C325 O323 1.240 . S
H326 C300 0.931 . S
H327 C309 0.931 . S
H328 C313 0.929 1_455 S
H329 C315 0.930 . S
Co330 N334 2.148 . S
Co330 N340 2.128 . S
Co330 N350 2.194 . S
Co330 O355 2.351 1_455 S
Co330 O356 2.155 . S
Co330 O357 2.096 . S
C331 N334 1.301 . S
C331 N335 1.328 . S
C331 H336 0.930 1_455 S
C332 C333 1.333 . S
C332 N334 1.317 . S
C332 H337 0.930 . S
C333 C332 1.333 . S
C333 N335 1.350 . S
C333 H359 0.931 . S
N334 Co330 2.148 . S
N334 C331 1.301 . S
N334 C332 1.317 . S
N335 C331 1.328 . S
N335 C333 1.350 . S
H336 C331 0.930 1_655 S
H337 C332 0.930 . S
C338 O339 1.224 . S
C338 O357 1.247 . S
O339 C338 1.224 . S
N340 Co330 2.128 . S
N340 C341 1.355 . S
N340 C343 1.311 . S
C341 N340 1.355 . S
C341 C342 1.363 . S
C341 H353 0.929 . S
C342 C341 1.363 . S
C342 N344 1.375 . S
C342 H360 0.931 . S
C343 N340 1.311 . S
C343 N344 1.347 . S
C343 H354 0.929 . S
N344 C342 1.375 . S
N344 C343 1.347 . S
C345 C348 1.365 . S
C345 N350 1.328 . S
C345 H351 0.929 1_455 S
C346 C347 1.362 . S
C346 C349 1.378 . S
C346 H361 0.929 . S
C347 C346 1.362 . S
C347 C348 1.366 . S
C348 C345 1.365 . S
C348 C347 1.366 . S
C348 H362 0.930 1_455 S
C349 C346 1.378 . S
C349 N350 1.315 . S
C349 H352 0.930 . S
N350 Co330 2.194 . S
N350 C345 1.328 . S
N350 C349 1.315 . S
H351 C345 0.929 1_655 S
H352 C349 0.930 . S
H353 C341 0.929 . S
H354 C343 0.929 . S
O355 Co330 2.351 1_655 S
O355 C358 1.244 . S
O356 Co330 2.155 . S
O356 C358 1.240 1_455 S
O357 Co330 2.096 . S
O357 C338 1.247 . S
C358 O355 1.244 . S
C358 O356 1.240 1_655 S
H359 C333 0.931 . S
H360 C342 0.931 . S
H361 C346 0.929 . S
H362 C348 0.930 1_655 S
Co363 N367 2.148 . S
Co363 N373 2.128 . S
Co363 N383 2.194 . S
Co363 O388 2.351 . S
Co363 O389 2.155 . S
Co363 O390 2.096 . S
C364 N367 1.301 . S
C364 N368 1.328 . S
C364 H369 0.930 . S
C365 C366 1.333 . S
C365 N367 1.317 . S
C365 H370 0.930 . S
C366 C365 1.333 . S
C366 N368 1.350 . S
C366 H392 0.931 . S
N367 Co363 2.148 . S
N367 C364 1.301 . S
N367 C365 1.317 . S
N368 C364 1.328 . S
N368 C366 1.350 . S
H369 C364 0.930 . S
H370 C365 0.930 . S
C371 O372 1.224 . S
C371 O390 1.247 . S
O372 C371 1.224 . S
N373 Co363 2.128 . S
N373 C374 1.355 . S
N373 C376 1.311 . S
C374 N373 1.355 . S
C374 C375 1.363 . S
C374 H386 0.929 . S
C375 C374 1.363 . S
C375 N377 1.375 . S
C375 H393 0.931 . S
C376 N373 1.311 . S
C376 N377 1.347 . S
C376 H387 0.929 . S
N377 C375 1.375 . S
N377 C376 1.347 . S
C378 C381 1.365 . S
C378 N383 1.328 . S
C378 H384 0.929 . S
C379 C380 1.362 . S
C379 C382 1.378 . S
C379 H394 0.929 . S
C380 C379 1.362 . S
C380 C381 1.366 . S
C381 C378 1.365 . S
C381 C380 1.366 . S
C381 H395 0.930 . S
C382 C379 1.378 . S
C382 N383 1.315 . S
C382 H385 0.930 . S
N383 Co363 2.194 . S
N383 C378 1.328 . S
N383 C382 1.315 . S
H384 C378 0.929 . S
H385 C382 0.930 . S
H386 C374 0.929 . S
H387 C376 0.929 . S
O388 Co363 2.351 . S
O388 C391 1.244 . S
O389 Co363 2.155 . S
O389 C391 1.240 . S
O390 Co363 2.096 . S
O390 C371 1.247 . S
C391 O388 1.244 . S
C391 O389 1.240 . S
H392 C366 0.931 . S
H393 C375 0.931 . S
H394 C379 0.929 . S
H395 C381 0.930 . S
Co396 N400 2.148 . S
Co396 N406 2.128 . S
Co396 N416 2.194 . S
Co396 O421 2.351 . S
Co396 O422 2.155 . S
Co396 O423 2.096 . S
C397 N400 1.301 . S
C397 N401 1.328 . S
C397 H402 0.930 . S
C398 C399 1.333 . S
C398 N400 1.317 . S
C398 H403 0.930 . S
C399 C398 1.333 . S
C399 N401 1.350 . S
C399 H425 0.931 . S
N400 Co396 2.148 . S
N400 C397 1.301 . S
N400 C398 1.317 . S
N401 C397 1.328 . S
N401 C399 1.350 . S
H402 C397 0.930 . S
H403 C398 0.930 . S
C404 O405 1.224 . S
C404 O423 1.247 . S
O405 C404 1.224 . S
N406 Co396 2.128 . S
N406 C407 1.355 . S
N406 C409 1.311 . S
C407 N406 1.355 . S
C407 C408 1.363 . S
C407 H419 0.929 . S
C408 C407 1.363 . S
C408 N410 1.375 . S
C408 H426 0.931 . S
C409 N406 1.311 . S
C409 N410 1.347 . S
C409 H420 0.929 . S
N410 C408 1.375 . S
N410 C409 1.347 . S
C411 C414 1.365 . S
C411 N416 1.328 . S
C411 H417 0.929 . S
C412 C413 1.362 . S
C412 C415 1.378 . S
C412 H427 0.929 . S
C413 C412 1.362 . S
C413 C414 1.366 . S
C414 C411 1.365 . S
C414 C413 1.366 . S
C414 H428 0.930 . S
C415 C412 1.378 . S
C415 N416 1.315 . S
C415 H418 0.930 . S
N416 Co396 2.194 . S
N416 C411 1.328 . S
N416 C415 1.315 . S
H417 C411 0.929 . S
H418 C415 0.930 . S
H419 C407 0.929 . S
H420 C409 0.929 . S
O421 Co396 2.351 . S
O421 C424 1.244 . S
O422 Co396 2.155 . S
O422 C424 1.240 . S
O423 Co396 2.096 . S
O423 C404 1.247 . S
C424 O421 1.244 . S
C424 O422 1.240 . S
H425 C399 0.931 . S
H426 C408 0.931 . S
H427 C412 0.929 . S
H428 C414 0.930 . S
Co429 N433 2.148 . S
Co429 N439 2.128 . S
Co429 N449 2.194 . S
Co429 O454 2.351 . S
Co429 O455 2.155 . S
Co429 O456 2.096 . S
C430 N433 1.301 . S
C430 N434 1.328 . S
C430 H435 0.930 . S
C431 C432 1.333 . S
C431 N433 1.317 . S
C431 H436 0.930 . S
C432 C431 1.333 . S
C432 N434 1.350 . S
C432 H458 0.931 . S
N433 Co429 2.148 . S
N433 C430 1.301 . S
N433 C431 1.317 . S
N434 C430 1.328 . S
N434 C432 1.350 . S
H435 C430 0.930 . S
H436 C431 0.930 . S
C437 O438 1.224 . S
C437 O456 1.247 . S
O438 C437 1.224 . S
N439 Co429 2.128 . S
N439 C440 1.355 . S
N439 C442 1.311 . S
C440 N439 1.355 . S
C440 C441 1.363 . S
C440 H452 0.929 . S
C441 C440 1.363 . S
C441 N443 1.375 . S
C441 H459 0.931 . S
C442 N439 1.311 . S
C442 N443 1.347 . S
C442 H453 0.929 . S
N443 C441 1.375 . S
N443 C442 1.347 . S
C444 C447 1.365 . S
C444 N449 1.328 1_655 S
C444 H450 0.929 . S
C445 C446 1.362 . S
C445 C448 1.378 1_655 S
C445 H460 0.929 . S
C446 C445 1.362 . S
C446 C447 1.366 . S
C447 C444 1.365 . S
C447 C446 1.366 . S
C447 H461 0.930 . S
C448 C445 1.378 1_455 S
C448 N449 1.315 . S
C448 H451 0.930 . S
N449 Co429 2.194 . S
N449 C444 1.328 1_455 S
N449 C448 1.315 . S
H450 C444 0.929 . S
H451 C448 0.930 . S
H452 C440 0.929 . S
H453 C442 0.929 . S
O454 Co429 2.351 . S
O454 C457 1.244 . S
O455 Co429 2.155 . S
O455 C457 1.240 . S
O456 Co429 2.096 . S
O456 C437 1.247 . S
C457 O454 1.244 . S
C457 O455 1.240 . S
H458 C432 0.931 . S
H459 C441 0.931 . S
H460 C445 0.929 . S
H461 C447 0.930 . S
Co462 N466 2.148 . S
Co462 N472 2.128 . S
Co462 N482 2.194 . S
Co462 O487 2.351 . S
Co462 O488 2.155 . S
Co462 O489 2.096 . S
C463 N466 1.301 . S
C463 N467 1.328 . S
C463 H468 0.930 . S
C464 C465 1.333 . S
C464 N466 1.317 . S
C464 H469 0.930 . S
C465 C464 1.333 . S
C465 N467 1.350 . S
C465 H491 0.931 . S
N466 Co462 2.148 . S
N466 C463 1.301 . S
N466 C464 1.317 . S
N467 C463 1.328 . S
N467 C465 1.350 . S
H468 C463 0.930 . S
H469 C464 0.930 . S
C470 O471 1.224 . S
C470 O489 1.247 . S
O471 C470 1.224 . S
N472 Co462 2.128 . S
N472 C473 1.355 . S
N472 C475 1.311 . S
C473 N472 1.355 . S
C473 C474 1.363 . S
C473 H485 0.929 . S
C474 C473 1.363 . S
C474 N476 1.375 . S
C474 H492 0.931 . S
C475 N472 1.311 . S
C475 N476 1.347 . S
C475 H486 0.929 . S
N476 C474 1.375 . S
N476 C475 1.347 . S
C477 C480 1.365 . S
C477 N482 1.328 1_455 S
C477 H483 0.929 . S
C478 C479 1.362 . S
C478 C481 1.378 1_455 S
C478 H493 0.929 . S
C479 C478 1.362 . S
C479 C480 1.366 . S
C480 C477 1.365 . S
C480 C479 1.366 . S
C480 H494 0.930 . S
C481 C478 1.378 1_655 S
C481 N482 1.315 . S
C481 H484 0.930 . S
N482 Co462 2.194 . S
N482 C477 1.328 1_655 S
N482 C481 1.315 . S
H483 C477 0.929 . S
H484 C481 0.930 . S
H485 C473 0.929 . S
H486 C475 0.929 . S
O487 Co462 2.351 . S
O487 C490 1.244 . S
O488 Co462 2.155 . S
O488 C490 1.240 . S
O489 Co462 2.096 . S
O489 C470 1.247 . S
C490 O487 1.244 . S
C490 O488 1.240 . S
H491 C465 0.931 . S
H492 C474 0.931 . S
H493 C478 0.929 . S
H494 C480 0.930 . S
Co495 N499 2.148 . S
Co495 N505 2.128 . S
Co495 N515 2.194 . S
Co495 O520 2.351 . S
Co495 O521 2.155 . S
Co495 O522 2.096 . S
C496 N499 1.301 . S
C496 N500 1.328 . S
C496 H501 0.930 . S
C497 C498 1.333 . S
C497 N499 1.317 . S
C497 H502 0.930 . S
C498 C497 1.333 . S
C498 N500 1.350 . S
C498 H524 0.931 . S
N499 Co495 2.148 . S
N499 C496 1.301 . S
N499 C497 1.317 . S
N500 C496 1.328 . S
N500 C498 1.350 . S
H501 C496 0.930 . S
H502 C497 0.930 . S
C503 O504 1.224 . S
C503 O522 1.247 . S
O504 C503 1.224 . S
N505 Co495 2.128 . S
N505 C506 1.355 . S
N505 C508 1.311 . S
C506 N505 1.355 . S
C506 C507 1.363 . S
C506 H518 0.929 . S
C507 C506 1.363 . S
C507 N509 1.375 . S
C507 H525 0.931 . S
C508 N505 1.311 . S
C508 N509 1.347 . S
C508 H519 0.929 . S
N509 C507 1.375 . S
N509 C508 1.347 . S
C510 C513 1.365 . S
C510 N515 1.328 . S
C510 H516 0.929 . S
C511 C512 1.362 . S
C511 C514 1.378 . S
C511 H526 0.929 . S
C512 C511 1.362 . S
C512 C513 1.366 . S
C513 C510 1.365 . S
C513 C512 1.366 . S
C513 H527 0.930 . S
C514 C511 1.378 . S
C514 N515 1.315 . S
C514 H517 0.930 . S
N515 Co495 2.194 . S
N515 C510 1.328 . S
N515 C514 1.315 . S
H516 C510 0.929 . S
H517 C514 0.930 . S
H518 C506 0.929 . S
H519 C508 0.929 . S
O520 Co495 2.351 . S
O520 C523 1.244 . S
O521 Co495 2.155 . S
O521 C523 1.240 . S
O522 Co495 2.096 . S
O522 C503 1.247 . S
C523 O520 1.244 . S
C523 O521 1.240 . S
H524 C498 0.931 . S
H525 C507 0.931 . S
H526 C511 0.929 . S
H527 C513 0.930 . S
H528 C534 0.930 . S
H529 C538 0.930 . S
H530 C543 0.929 . S
H531 C541 0.929 . S
H532 C536 0.929 . S
H533 C542 0.929 . S
C534 H528 0.930 . S
C534 C535 1.367 . S
C534 C542 1.378 . S
C535 C534 1.367 . S
C535 C543 1.433 . S
C536 H532 0.929 . S
C536 C538 1.378 . S
C536 C540 1.350 . S
C537 C540 1.463 1_556 S
C537 C542 1.350 . S
C537 N545 1.427 . S
C538 H529 0.930 . S
C538 C536 1.378 . S
C538 C539 1.367 . S
C539 C538 1.367 . S
C539 C541 1.433 . S
C540 C536 1.350 . S
C540 C537 1.463 1_554 S
C540 N544 1.427 . S
C541 H531 0.929 . S
C541 C539 1.433 . S
C541 N544 1.384 . S
C542 H533 0.929 . S
C542 C534 1.378 . S
C542 C537 1.350 . S
C543 H530 0.929 . S
C543 C535 1.433 . S
C543 N545 1.384 . S
N544 C540 1.427 . S
N544 C541 1.384 . S
N545 C537 1.427 . S
N545 C543 1.384 . S
H546 C552 0.930 . S
H547 C556 0.930 . S
H548 C561 0.929 . S
H549 C559 0.929 . S
H550 C554 0.929 . S
H551 C560 0.929 . S
C552 H546 0.930 . S
C552 C553 1.367 . S
C552 C560 1.378 . S
C553 C552 1.367 . S
C553 C561 1.433 . S
C554 H550 0.929 . S
C554 C556 1.378 . S
C554 C558 1.350 . S
C555 C558 1.463 1_556 S
C555 C560 1.350 . S
C555 N563 1.427 . S
C556 H547 0.930 . S
C556 C554 1.378 . S
C556 C557 1.367 . S
C557 C556 1.367 . S
C557 C559 1.433 . S
C558 C554 1.350 . S
C558 C555 1.463 1_554 S
C558 N562 1.424 1_554 S
C559 H549 0.929 . S
C559 C557 1.433 . S
C559 N562 1.376 1_554 S
C560 H551 0.929 . S
C560 C552 1.378 . S
C560 C555 1.350 . S
C561 H548 0.929 . S
C561 C553 1.433 . S
C561 N563 1.384 . S
N562 C558 1.424 1_556 S
N562 C559 1.376 1_556 S
N563 C555 1.427 . S
N563 C561 1.384 . S
H564 C570 0.930 . S
H565 C574 0.930 . S
H566 C579 0.929 . S
H567 C577 0.929 . S
H568 C572 0.929 . S
H569 C578 0.929 . S
C570 H564 0.930 . S
C570 C571 1.367 . S
C570 C578 1.378 . S
C571 C570 1.367 . S
C571 C579 1.433 . S
C572 H568 0.929 . S
C572 C574 1.378 . S
C572 C576 1.350 . S
C573 C576 1.463 . S
C573 C578 1.350 . S
C573 N581 1.427 . S
C574 H565 0.930 . S
C574 C572 1.378 . S
C574 C575 1.367 . S
C575 C574 1.367 . S
C575 C577 1.433 . S
C576 C572 1.350 . S
C576 C573 1.463 . S
C576 N580 1.427 . S
C577 H567 0.929 . S
C577 C575 1.433 . S
C577 N580 1.384 . S
C578 H569 0.929 . S
C578 C570 1.378 . S
C578 C573 1.350 . S
C579 H566 0.929 . S
C579 C571 1.433 . S
C579 N581 1.384 . S
N580 C576 1.427 . S
N580 C577 1.384 . S
N581 C573 1.427 . S
N581 C579 1.384 . S
H582 C588 0.930 . S
H583 C592 0.930 . S
H584 C597 0.929 . S
H585 C595 0.929 . S
H586 C590 0.929 . S
H587 C596 0.929 . S
C588 H582 0.930 . S
C588 C589 1.367 . S
C588 C596 1.378 . S
C589 C588 1.367 . S
C589 C597 1.433 . S
C590 H586 0.929 . S
C590 C592 1.378 . S
C590 C594 1.350 . S
C591 C594 1.463 . S
C591 C596 1.350 . S
C591 N599 1.427 . S
C592 H583 0.930 . S
C592 C590 1.378 . S
C592 C593 1.367 . S
C593 C592 1.367 . S
C593 C595 1.433 . S
C594 C590 1.350 . S
C594 C591 1.463 . S
C594 N598 1.427 . S
C595 H585 0.929 . S
C595 C593 1.433 . S
C595 N598 1.384 . S
C596 H587 0.929 . S
C596 C588 1.378 . S
C596 C591 1.350 . S
C597 H584 0.929 . S
C597 C589 1.433 . S
C597 N599 1.384 . S
N598 C594 1.427 . S
N598 C595 1.384 . S
N599 C591 1.427 . S
N599 C597 1.384 . S
H600 C606 0.930 . S
H601 C610 0.930 . S
H602 C615 0.929 . S
H603 C613 0.929 . S
H604 C608 0.929 1_556 S
H605 C614 0.929 . S
C606 H600 0.930 . S
C606 C607 1.367 . S
C606 C614 1.378 . S
C607 C606 1.367 . S
C607 C615 1.433 . S
C608 H604 0.929 1_554 S
C608 C610 1.378 . S
C608 C612 1.350 1_554 S
C609 C612 1.463 . S
C609 C614 1.350 . S
C609 N617 1.427 . S
C610 H601 0.930 . S
C610 C608 1.378 . S
C610 C611 1.367 . S
C611 C610 1.367 . S
C611 C613 1.433 . S
C612 C608 1.350 1_556 S
C612 C609 1.463 . S
C612 N616 1.427 . S
C613 H603 0.929 . S
C613 C611 1.433 . S
C613 N616 1.384 1_554 S
C614 H605 0.929 . S
C614 C606 1.378 . S
C614 C609 1.350 . S
C615 H602 0.929 . S
C615 C607 1.433 . S
C615 N617 1.384 . S
N616 C612 1.427 . S
N616 C613 1.384 1_556 S
N617 C609 1.427 . S
N617 C615 1.384 . S
H618 C624 0.930 . S
H619 C628 0.930 . S
H620 C633 0.929 . S
H621 C631 0.929 . S
H622 C626 0.929 . S
H623 C632 0.929 . S
C624 H618 0.930 . S
C624 C625 1.367 . S
C624 C632 1.378 . S
C625 C624 1.367 . S
C625 C633 1.433 . S
C626 H622 0.929 . S
C626 C628 1.378 . S
C626 C630 1.350 1_554 S
C627 C630 1.463 . S
C627 C632 1.350 . S
C627 N635 1.427 . S
C628 H619 0.930 . S
C628 C626 1.378 . S
C628 C629 1.367 . S
C629 C628 1.367 . S
C629 C631 1.433 . S
C630 C626 1.350 1_556 S
C630 C627 1.463 . S
C630 N634 1.427 . S
C631 H621 0.929 . S
C631 C629 1.433 . S
C631 N634 1.384 1_554 S
C632 H623 0.929 . S
C632 C624 1.378 . S
C632 C627 1.350 . S
C633 H620 0.929 . S
C633 C625 1.433 . S
C633 N635 1.384 . S
N634 C630 1.427 . S
N634 C631 1.384 1_556 S
N635 C627 1.427 . S
N635 C633 1.384 . S
H636 C642 0.930 . S
H637 C646 0.930 . S
H638 C651 0.929 . S
H639 C649 0.929 . S
H640 C644 0.929 . S
H641 C650 0.929 . S
C642 H636 0.930 . S
C642 C643 1.367 . S
C642 C650 1.378 . S
C643 C642 1.367 . S
C643 C651 1.433 . S
C644 H640 0.929 . S
C644 C646 1.378 . S
C644 C648 1.350 . S
C645 C648 1.463 . S
C645 C650 1.350 . S
C645 N653 1.427 . S
C646 H637 0.930 . S
C646 C644 1.378 . S
C646 C647 1.367 . S
C647 C646 1.367 . S
C647 C649 1.433 . S
C648 C644 1.350 . S
C648 C645 1.463 . S
C648 N652 1.427 . S
C649 H639 0.929 . S
C649 C647 1.433 . S
C649 N652 1.384 . S
C650 H641 0.929 . S
C650 C642 1.378 . S
C650 C645 1.350 . S
C651 H638 0.929 . S
C651 C643 1.433 . S
C651 N653 1.384 . S
N652 C648 1.427 . S
N652 C649 1.384 . S
N653 C645 1.427 . S
N653 C651 1.384 . S
H654 C660 0.930 . S
H655 C664 0.930 . S
H656 C669 0.929 . S
H657 C667 0.929 . S
H658 C662 0.929 . S
H659 C668 0.929 . S
C660 H654 0.930 . S
C660 C661 1.367 . S
C660 C668 1.378 . S
C661 C660 1.367 . S
C661 C669 1.433 . S
C662 H658 0.929 . S
C662 C664 1.378 . S
C662 C666 1.350 . S
C663 C666 1.463 . S
C663 C668 1.350 . S
C663 N671 1.427 . S
C664 H655 0.930 . S
C664 C662 1.378 . S
C664 C665 1.367 . S
C665 C664 1.367 . S
C665 C667 1.433 . S
C666 C662 1.350 . S
C666 C663 1.463 . S
C666 N670 1.427 . S
C667 H657 0.929 . S
C667 C665 1.433 . S
C667 N670 1.384 . S
C668 H659 0.929 . S
C668 C660 1.378 . S
C668 C663 1.350 . S
C669 H656 0.929 . S
C669 C661 1.433 . S
C669 N671 1.384 . S
N670 C666 1.427 . S
N670 C667 1.384 . S
N671 C663 1.427 . S
N671 C669 1.384 . S
H672 C678 0.930 . S
H673 C682 0.930 . S
H674 C687 0.929 . S
H675 C685 0.929 . S
H676 C680 0.929 . S
H677 C686 0.929 . S
C678 H672 0.930 . S
C678 C679 1.367 . S
C678 C686 1.378 . S
C679 C678 1.367 . S
C679 C687 1.433 . S
C680 H676 0.929 . S
C680 C682 1.378 . S
C680 C684 1.350 . S
C681 C684 1.463 1_554 S
C681 C686 1.350 . S
C681 N689 1.427 . S
C682 H673 0.930 . S
C682 C680 1.378 . S
C682 C683 1.367 . S
C683 C682 1.367 . S
C683 C685 1.433 . S
C684 C680 1.350 . S
C684 C681 1.463 1_556 S
C684 N688 1.427 . S
C685 H675 0.929 . S
C685 C683 1.433 . S
C685 N688 1.384 . S
C686 H677 0.929 . S
C686 C678 1.378 . S
C686 C681 1.350 . S
C687 H674 0.929 . S
C687 C679 1.433 . S
C687 N689 1.384 . S
N688 C684 1.427 . S
N688 C685 1.384 . S
N689 C681 1.427 . S
N689 C687 1.384 . S
H690 C696 0.930 . S
H691 C700 0.930 . S
H692 C705 0.929 . S
H693 C703 0.929 . S
H694 C698 0.929 . S
H695 C704 0.929 . S
C696 H690 0.930 . S
C696 C697 1.367 . S
C696 C704 1.378 . S
C697 C696 1.367 . S
C697 C705 1.433 . S
C698 H694 0.929 . S
C698 C700 1.378 . S
C698 C702 1.350 . S
C699 C702 1.463 1_554 S
C699 C704 1.350 . S
C699 N707 1.427 . S
C700 H691 0.930 . S
C700 C698 1.378 . S
C700 C701 1.367 . S
C701 C700 1.367 . S
C701 C703 1.433 . S
C702 C698 1.350 . S
C702 C699 1.463 1_556 S
C702 N706 1.427 . S
C703 H693 0.929 . S
C703 C701 1.433 . S
C703 N706 1.384 . S
C704 H695 0.929 . S
C704 C696 1.378 . S
C704 C699 1.350 . S
C705 H692 0.929 . S
C705 C697 1.433 . S
C705 N707 1.384 . S
N706 C702 1.427 . S
N706 C703 1.384 . S
N707 C699 1.427 . S
N707 C705 1.384 . S
H708 C714 0.930 . S
H709 C718 0.930 . S
H710 C723 0.929 . S
H711 C721 0.929 . S
H712 C716 0.929 . S
H713 C722 0.929 . S
C714 H708 0.930 . S
C714 C715 1.367 . S
C714 C722 1.378 . S
C715 C714 1.367 . S
C715 C723 1.433 . S
C716 H712 0.929 . S
C716 C718 1.378 . S
C716 C720 1.350 . S
C717 C720 1.463 . S
C717 C722 1.350 . S
C717 N725 1.427 . S
C718 H709 0.930 . S
C718 C716 1.378 . S
C718 C719 1.367 . S
C719 C718 1.367 . S
C719 C721 1.433 . S
C720 C716 1.350 . S
C720 C717 1.463 . S
C720 N724 1.427 . S
C721 H711 0.929 . S
C721 C719 1.433 . S
C721 N724 1.384 . S
C722 H713 0.929 . S
C722 C714 1.378 . S
C722 C717 1.350 . S
C723 H710 0.929 . S
C723 C715 1.433 . S
C723 N725 1.384 . S
N724 C720 1.427 . S
N724 C721 1.384 . S
N725 C717 1.427 . S
N725 C723 1.384 . S
H726 C732 0.930 . S
H727 C736 0.930 . S
H728 C741 0.929 . S
H729 C739 0.929 . S
H730 C734 0.929 . S
H731 C740 0.929 . S
C732 H726 0.930 . S
C732 C733 1.367 . S
C732 C740 1.378 . S
C733 C732 1.367 . S
C733 C741 1.433 . S
C734 H730 0.929 . S
C734 C736 1.378 . S
C734 C738 1.350 . S
C735 C738 1.463 . S
C735 C740 1.350 . S
C735 N743 1.427 . S
C736 H727 0.930 . S
C736 C734 1.378 . S
C736 C737 1.367 . S
C737 C736 1.367 . S
C737 C739 1.433 . S
C738 C734 1.350 . S
C738 C735 1.463 . S
C738 N742 1.427 . S
C739 H729 0.929 . S
C739 C737 1.433 . S
C739 N742 1.384 . S
C740 H731 0.929 . S
C740 C732 1.378 . S
C740 C735 1.350 . S
C741 H728 0.929 . S
C741 C733 1.433 . S
C741 N743 1.384 . S
N742 C738 1.427 . S
N742 C739 1.384 . S
N743 C735 1.427 . S
N743 C741 1.384 . S
H744 C750 0.930 . S
H745 C754 0.930 . S
H746 C759 0.929 . S
H747 C757 0.929 . S
H748 C752 0.929 . S
H749 C758 0.929 . S
C750 H744 0.930 . S
C750 C751 1.367 . S
C750 C758 1.378 . S
C751 C750 1.367 . S
C751 C759 1.433 . S
C752 H748 0.929 . S
C752 C754 1.378 1_556 S
C752 C756 1.350 . S
C753 C756 1.463 . S
C753 C758 1.350 . S
C753 N761 1.427 . S
C754 H745 0.930 . S
C754 C752 1.378 1_554 S
C754 C755 1.367 . S
C755 C754 1.367 . S
C755 C757 1.433 . S
C756 C752 1.350 . S
C756 C753 1.463 . S
C756 N760 1.427 1_556 S
C757 H747 0.929 . S
C757 C755 1.433 . S
C757 N760 1.384 . S
C758 H749 0.929 . S
C758 C750 1.378 . S
C758 C753 1.350 . S
C759 H746 0.929 . S
C759 C751 1.433 . S
C759 N761 1.384 . S
N760 C756 1.427 1_554 S
N760 C757 1.384 . S
N761 C753 1.427 . S
N761 C759 1.384 . S
H762 C768 0.930 . S
H763 C772 0.930 . S
H764 C777 0.929 . S
H765 C775 0.929 . S
H766 C770 0.929 . S
H767 C776 0.929 . S
C768 H762 0.930 . S
C768 C769 1.367 . S
C768 C776 1.378 . S
C769 C768 1.367 . S
C769 C777 1.433 . S
C770 H766 0.929 . S
C770 C772 1.378 . S
C770 C774 1.350 1_554 S
C771 C774 1.463 . S
C771 C776 1.350 . S
C771 N779 1.427 . S
C772 H763 0.930 . S
C772 C770 1.378 . S
C772 C773 1.367 . S
C773 C772 1.367 . S
C773 C775 1.433 . S
C774 C770 1.350 1_556 S
C774 C771 1.463 . S
C774 N778 1.427 . S
C775 H765 0.929 . S
C775 C773 1.433 . S
C775 N778 1.384 1_554 S
C776 H767 0.929 . S
C776 C768 1.378 . S
C776 C771 1.350 . S
C777 H764 0.929 . S
C777 C769 1.433 . S
C777 N779 1.384 . S
N778 C774 1.427 . S
N778 C775 1.384 1_556 S
N779 C771 1.427 . S
N779 C777 1.384 . S
H780 C786 0.930 . S
H781 C790 0.930 . S
H782 C795 0.929 . S
H783 C793 0.929 . S
H784 C788 0.929 . S
H785 C794 0.929 . S
C786 H780 0.930 . S
C786 C787 1.367 . S
C786 C794 1.378 . S
C787 C786 1.367 . S
C787 C795 1.433 . S
C788 H784 0.929 . S
C788 C790 1.378 . S
C788 C792 1.350 . S
C789 C792 1.463 . S
C789 C794 1.350 . S
C789 N797 1.427 . S
C790 H781 0.930 . S
C790 C788 1.378 . S
C790 C791 1.367 . S
C791 C790 1.367 . S
C791 C793 1.433 . S
C792 C788 1.350 . S
C792 C789 1.463 . S
C792 N796 1.427 . S
C793 H783 0.929 . S
C793 C791 1.433 . S
C793 N796 1.384 . S
C794 H785 0.929 . S
C794 C786 1.378 . S
C794 C789 1.350 . S
C795 H782 0.929 . S
C795 C787 1.433 . S
C795 N797 1.384 . S
N796 C792 1.427 . S
N796 C793 1.384 . S
N797 C789 1.427 . S
N797 C795 1.384 . S
H798 C804 0.930 . S
H799 C808 0.930 . S
H800 C813 0.929 . S
H801 C811 0.929 . S
H802 C806 0.929 . S
H803 C812 0.929 . S
C804 H798 0.930 . S
C804 C805 1.367 . S
C804 C812 1.378 . S
C805 C804 1.367 . S
C805 C813 1.433 . S
C806 H802 0.929 . S
C806 C808 1.378 . S
C806 C810 1.350 . S
C807 C810 1.463 . S
C807 C812 1.350 . S
C807 N815 1.427 . S
C808 H799 0.930 . S
C808 C806 1.378 . S
C808 C809 1.367 . S
C809 C808 1.367 . S
C809 C811 1.433 . S
C810 C806 1.350 . S
C810 C807 1.463 . S
C810 N814 1.427 . S
C811 H801 0.929 . S
C811 C809 1.433 . S
C811 N814 1.384 . S
C812 H803 0.929 . S
C812 C804 1.378 . S
C812 C807 1.350 . S
C813 H800 0.929 . S
C813 C805 1.433 . S
C813 N815 1.384 . S
N814 C810 1.427 . S
N814 C811 1.384 . S
N815 C807 1.427 . S
N815 C813 1.384 . S
H816 C822 0.930 . S
H817 C826 0.930 . S
H818 C831 0.929 . S
H819 C829 0.929 . S
H820 C824 0.929 . S
H821 C830 0.929 . S
C822 H816 0.930 . S
C822 C823 1.367 . S
C822 C830 1.378 . S
C823 C822 1.367 . S
C823 C831 1.433 . S
C824 H820 0.929 . S
C824 C826 1.378 . S
C824 C828 1.350 . S
C825 C828 1.463 1_545 S
C825 C830 1.350 . S
C825 N833 1.427 . S
C826 H817 0.930 . S
C826 C824 1.378 . S
C826 C827 1.367 . S
C827 C826 1.367 . S
C827 C829 1.433 . S
C828 C824 1.350 . S
C828 C825 1.463 1_565 S
C828 N832 1.427 . S
C829 H819 0.929 . S
C829 C827 1.433 . S
C829 N832 1.384 . S
C830 H821 0.929 . S
C830 C822 1.378 . S
C830 C825 1.350 . S
C831 H818 0.929 . S
C831 C823 1.433 . S
C831 N833 1.384 . S
N832 C828 1.427 . S
N832 C829 1.384 . S
N833 C825 1.427 . S
N833 C831 1.384 . S
H834 C840 0.930 . S
H835 C844 0.930 . S
H836 C849 0.929 . S
H837 C847 0.929 . S
H838 C842 0.929 . S
H839 C848 0.929 . S
C840 H834 0.930 . S
C840 C841 1.367 . S
C840 C848 1.378 . S
C841 C840 1.367 . S
C841 C849 1.433 . S
C842 H838 0.929 . S
C842 C844 1.378 . S
C842 C846 1.350 . S
C843 C846 1.463 1_565 S
C843 C848 1.350 . S
C843 N851 1.427 . S
C844 H835 0.930 . S
C844 C842 1.378 . S
C844 C845 1.367 . S
C845 C844 1.367 . S
C845 C847 1.433 . S
C846 C842 1.350 . S
C846 C843 1.463 1_545 S
C846 N850 1.427 . S
C847 H837 0.929 . S
C847 C845 1.433 . S
C847 N850 1.384 . S
C848 H839 0.929 . S
C848 C840 1.378 . S
C848 C843 1.350 . S
C849 H836 0.929 . S
C849 C841 1.433 . S
C849 N851 1.384 . S
N850 C846 1.427 . S
N850 C847 1.384 . S
N851 C843 1.427 . S
N851 C849 1.384 . S
H852 C858 0.930 . S
H853 C862 0.930 . S
H854 C867 0.929 . S
H855 C865 0.929 . S
H856 C860 0.929 . S
H857 C866 0.929 . S
C858 H852 0.930 . S
C858 C859 1.367 . S
C858 C866 1.378 . S
C859 C858 1.367 . S
C859 C867 1.433 . S
C860 H856 0.929 . S
C860 C862 1.378 . S
C860 C864 1.350 . S
C861 C864 1.463 1_545 S
C861 C866 1.350 . S
C861 N869 1.427 . S
C862 H853 0.930 . S
C862 C860 1.378 . S
C862 C863 1.367 . S
C863 C862 1.367 . S
C863 C865 1.433 . S
C864 C860 1.350 . S
C864 C861 1.463 1_565 S
C864 N868 1.427 . S
C865 H855 0.929 . S
C865 C863 1.433 . S
C865 N868 1.384 . S
C866 H857 0.929 . S
C866 C858 1.378 . S
C866 C861 1.350 . S
C867 H854 0.929 . S
C867 C859 1.433 . S
C867 N869 1.384 . S
N868 C864 1.427 . S
N868 C865 1.384 . S
N869 C861 1.427 . S
N869 C867 1.384 . S
H870 C876 0.930 . S
H871 C880 0.930 . S
H872 C885 0.929 . S
H873 C883 0.929 . S
H874 C878 0.929 . S
H875 C884 0.929 . S
C876 H870 0.930 . S
C876 C877 1.367 . S
C876 C884 1.378 . S
C877 C876 1.367 . S
C877 C885 1.433 . S
C878 H874 0.929 . S
C878 C880 1.378 . S
C878 C882 1.350 . S
C879 C882 1.463 1_565 S
C879 C884 1.350 . S
C879 N887 1.427 . S
C880 H871 0.930 . S
C880 C878 1.378 . S
C880 C881 1.367 . S
C881 C880 1.367 . S
C881 C883 1.433 . S
C882 C878 1.350 . S
C882 C879 1.463 1_545 S
C882 N886 1.427 . S
C883 H873 0.929 . S
C883 C881 1.433 . S
C883 N886 1.384 . S
C884 H875 0.929 . S
C884 C876 1.378 . S
C884 C879 1.350 . S
C885 H872 0.929 . S
C885 C877 1.433 . S
C885 N887 1.384 . S
N886 C882 1.427 . S
N886 C883 1.384 . S
N887 C879 1.427 . S
N887 C885 1.384 . S
H888 C894 0.930 . S
H889 C898 0.930 . S
H890 C903 0.929 . S
H891 C901 0.929 . S
H892 C896 0.929 . S
H893 C902 0.929 . S
C894 H888 0.930 . S
C894 C895 1.367 . S
C894 C902 1.378 . S
C895 C894 1.367 . S
C895 C903 1.433 . S
C896 H892 0.929 . S
C896 C898 1.378 . S
C896 C900 1.350 . S
C897 C900 1.463 . S
C897 C902 1.350 . S
C897 N905 1.427 . S
C898 H889 0.930 . S
C898 C896 1.378 . S
C898 C899 1.367 . S
C899 C898 1.367 . S
C899 C901 1.433 . S
C900 C896 1.350 . S
C900 C897 1.463 . S
C900 N904 1.427 . S
C901 H891 0.929 . S
C901 C899 1.433 . S
C901 N904 1.384 . S
C902 H893 0.929 . S
C902 C894 1.378 . S
C902 C897 1.350 . S
C903 H890 0.929 . S
C903 C895 1.433 . S
C903 N905 1.384 . S
N904 C900 1.427 . S
N904 C901 1.384 . S
N905 C897 1.427 . S
N905 C903 1.384 . S
H906 C912 0.930 . S
H907 C916 0.930 . S
H908 C921 0.929 . S
H909 C919 0.929 . S
H910 C914 0.929 . S
H911 C920 0.929 . S
C912 H906 0.930 . S
C912 C913 1.367 . S
C912 C920 1.378 . S
C913 C912 1.367 . S
C913 C921 1.433 . S
C914 H910 0.929 . S
C914 C916 1.378 . S
C914 C918 1.350 . S
C915 C918 1.463 . S
C915 C920 1.350 . S
C915 N923 1.427 . S
C916 H907 0.930 . S
C916 C914 1.378 . S
C916 C917 1.367 . S
C917 C916 1.367 . S
C917 C919 1.433 . S
C918 C914 1.350 . S
C918 C915 1.463 . S
C918 N922 1.427 . S
C919 H909 0.929 . S
C919 C917 1.433 . S
C919 N922 1.384 . S
C920 H911 0.929 . S
C920 C912 1.378 . S
C920 C915 1.350 . S
C921 H908 0.929 . S
C921 C913 1.433 . S
C921 N923 1.384 . S
N922 C918 1.427 . S
N922 C919 1.384 . S
N923 C915 1.427 . S
N923 C921 1.384 . S
H924 C930 0.930 . S
H925 C934 0.930 . S
H926 C939 0.929 . S
H927 C937 0.929 . S
H928 C932 0.929 . S
H929 C938 0.929 . S
C930 H924 0.930 . S
C930 C931 1.367 . S
C930 C938 1.378 . S
C931 C930 1.367 . S
C931 C939 1.433 . S
C932 H928 0.929 . S
C932 C934 1.378 . S
C932 C936 1.350 . S
C933 C936 1.463 . S
C933 C938 1.350 . S
C933 N941 1.427 . S
C934 H925 0.930 . S
C934 C932 1.378 . S
C934 C935 1.367 . S
C935 C934 1.367 . S
C935 C937 1.433 . S
C936 C932 1.350 . S
C936 C933 1.463 . S
C936 N940 1.427 . S
C937 H927 0.929 . S
C937 C935 1.433 . S
C937 N940 1.384 . S
C938 H929 0.929 . S
C938 C930 1.378 . S
C938 C933 1.350 . S
C939 H926 0.929 . S
C939 C931 1.433 . S
C939 N941 1.384 . S
N940 C936 1.427 . S
N940 C937 1.384 . S
N941 C933 1.427 . S
N941 C939 1.384 . S
H942 C948 0.930 . S
H943 C952 0.930 . S
H944 C957 0.929 . S
H945 C955 0.929 . S
H946 C950 0.929 . S
H947 C956 0.929 . S
C948 H942 0.930 . S
C948 C949 1.367 . S
C948 C956 1.378 . S
C949 C948 1.367 . S
C949 C957 1.433 . S
C950 H946 0.929 . S
C950 C952 1.378 . S
C950 C954 1.350 . S
C951 C954 1.463 . S
C951 C956 1.350 . S
C951 N959 1.427 . S
C952 H943 0.930 . S
C952 C950 1.378 . S
C952 C953 1.367 . S
C953 C952 1.367 . S
C953 C955 1.433 . S
C954 C950 1.350 . S
C954 C951 1.463 . S
C954 N958 1.427 . S
C955 H945 0.929 . S
C955 C953 1.433 . S
C955 N958 1.384 . S
C956 H947 0.929 . S
C956 C948 1.378 . S
C956 C951 1.350 . S
C957 H944 0.929 . S
C957 C949 1.433 . S
C957 N959 1.384 . S
N958 C954 1.427 . S
N958 C955 1.384 . S
N959 C951 1.427 . S
N959 C957 1.384 . S
H960 C966 0.930 . S
H961 C970 0.930 . S
H962 C975 0.929 . S
H963 C973 0.929 . S
H964 C968 0.929 . S
H965 C974 0.929 . S
C966 H960 0.930 . S
C966 C967 1.367 . S
C966 C974 1.378 . S
C967 C966 1.367 . S
C967 C975 1.433 1_655 S
C968 H964 0.929 . S
C968 C970 1.378 . S
C968 C972 1.350 . S
C969 C972 1.463 1_655 S
C969 C974 1.350 . S
C969 N977 1.427 1_655 S
C970 H961 0.930 . S
C970 C968 1.378 . S
C970 C971 1.367 . S
C971 C970 1.367 . S
C971 C973 1.433 1_455 S
C972 C968 1.350 . S
C972 C969 1.463 1_455 S
C972 N976 1.427 1_455 S
C973 H963 0.929 . S
C973 C971 1.433 1_655 S
C973 N976 1.384 . S
C974 H965 0.929 . S
C974 C966 1.378 . S
C974 C969 1.350 . S
C975 H962 0.929 . S
C975 C967 1.433 1_455 S
C975 N977 1.384 . S
N976 C972 1.427 1_655 S
N976 C973 1.384 . S
N977 C969 1.427 1_455 S
N977 C975 1.384 . S
H978 C984 0.930 . S
H979 C988 0.930 . S
H980 C993 0.929 . S
H981 C991 0.929 . S
H982 C986 0.929 . S
H983 C992 0.929 . S
C984 H978 0.930 . S
C984 C985 1.367 . S
C984 C992 1.378 . S
C985 C984 1.367 . S
C985 C993 1.433 . S
C986 H982 0.929 . S
C986 C988 1.378 . S
C986 C990 1.350 . S
C987 C990 1.463 . S
C987 C992 1.350 . S
C987 N995 1.427 . S
C988 H979 0.930 . S
C988 C986 1.378 . S
C988 C989 1.367 . S
C989 C988 1.367 . S
C989 C991 1.433 . S
C990 C986 1.350 . S
C990 C987 1.463 . S
C990 N994 1.427 . S
C991 H981 0.929 . S
C991 C989 1.433 . S
C991 N994 1.384 . S
C992 H983 0.929 . S
C992 C984 1.378 . S
C992 C987 1.350 . S
C993 H980 0.929 . S
C993 C985 1.433 . S
C993 N995 1.384 . S
N994 C990 1.427 . S
N994 C991 1.384 . S
N995 C987 1.427 . S
N995 C993 1.384 . S
H996 C1002 0.930 . S
H997 C1006 0.930 . S
H998 C1011 0.929 . S
H999 C1009 0.929 . S
H1000 C1004 0.929 . S
H1001 C1010 0.929 . S
C1002 H996 0.930 . S
C1002 C1003 1.367 . S
C1002 C1010 1.378 . S
C1003 C1002 1.367 . S
C1003 C1011 1.433 . S
C1004 H1000 0.929 . S
C1004 C1006 1.378 . S
C1004 C1008 1.350 . S
C1005 C1008 1.463 . S
C1005 C1010 1.350 . S
C1005 N1013 1.427 . S
C1006 H997 0.930 . S
C1006 C1004 1.378 . S
C1006 C1007 1.367 . S
C1007 C1006 1.367 . S
C1007 C1009 1.433 . S
C1008 C1004 1.350 . S
C1008 C1005 1.463 . S
C1008 N1012 1.427 . S
C1009 H999 0.929 . S
C1009 C1007 1.433 . S
C1009 N1012 1.384 . S
C1010 H1001 0.929 . S
C1010 C1002 1.378 . S
C1010 C1005 1.350 . S
C1011 H998 0.929 . S
C1011 C1003 1.433 . S
C1011 N1013 1.384 . S
N1012 C1008 1.427 . S
N1012 C1009 1.384 . S
N1013 C1005 1.427 . S
N1013 C1011 1.384 . S
H1014 C1020 0.930 . S
H1015 C1024 0.930 . S
H1016 C1029 0.929 . S
H1017 C1027 0.929 . S
H1018 C1022 0.929 . S
H1019 C1028 0.929 . S
C1020 H1014 0.930 . S
C1020 C1021 1.367 . S
C1020 C1028 1.378 . S
C1021 C1020 1.367 . S
C1021 C1029 1.433 . S
C1022 H1018 0.929 . S
C1022 C1024 1.378 . S
C1022 C1026 1.351 . S
C1023 C1026 1.462 1_455 S
C1023 C1028 1.350 . S
C1023 N1031 1.428 . S
C1024 H1015 0.930 . S
C1024 C1022 1.378 . S
C1024 C1025 1.367 . S
C1025 C1024 1.367 . S
C1025 C1027 1.433 . S
C1026 C1022 1.351 . S
C1026 C1023 1.462 1_655 S
C1026 N1030 1.427 1_655 S
C1027 H1017 0.929 . S
C1027 C1025 1.433 . S
C1027 N1030 1.383 1_655 S
C1028 H1019 0.929 . S
C1028 C1020 1.378 . S
C1028 C1023 1.350 . S
C1029 H1016 0.929 . S
C1029 C1021 1.433 . S
C1029 N1031 1.384 . S
N1030 C1026 1.427 1_455 S
N1030 C1027 1.383 1_455 S
N1031 C1023 1.428 . S
N1031 C1029 1.384 . S
H1032 C1038 0.930 . S
H1033 C1042 0.930 . S
H1034 C1047 0.929 1_455 S
H1035 C1045 0.929 1_655 S
H1036 C1040 0.929 . S
H1037 C1046 0.929 . S
C1038 H1032 0.930 . S
C1038 C1039 1.367 . S
C1038 C1046 1.378 . S
C1039 C1038 1.367 . S
C1039 C1047 1.433 . S
C1040 H1036 0.929 . S
C1040 C1042 1.378 . S
C1040 C1044 1.350 . S
C1041 C1044 1.463 1_655 S
C1041 C1046 1.350 . S
C1041 N1049 1.427 1_655 S
C1042 H1033 0.930 . S
C1042 C1040 1.378 . S
C1042 C1043 1.367 . S
C1043 C1042 1.367 . S
C1043 C1045 1.433 . S
C1044 C1040 1.350 . S
C1044 C1041 1.463 1_455 S
C1044 N1048 1.427 1_455 S
C1045 H1035 0.929 1_455 S
C1045 C1043 1.433 . S
C1045 N1048 1.384 1_455 S
C1046 H1037 0.929 . S
C1046 C1038 1.378 . S
C1046 C1041 1.350 . S
C1047 H1034 0.929 1_655 S
C1047 C1039 1.433 . S
C1047 N1049 1.384 1_655 S
N1048 C1044 1.427 1_655 S
N1048 C1045 1.384 1_655 S
N1049 C1041 1.427 1_455 S
N1049 C1047 1.384 1_455 S
H1050 C1056 0.930 . S
H1051 C1060 0.930 . S
H1052 C1065 0.929 . S
H1053 C1063 0.929 . S
H1054 C1058 0.929 . S
H1055 C1064 0.929 . S
C1056 H1050 0.930 . S
C1056 C1057 1.367 . S
C1056 C1064 1.378 . S
C1057 C1056 1.367 . S
C1057 C1065 1.433 . S
C1058 H1054 0.929 . S
C1058 C1060 1.378 . S
C1058 C1062 1.350 . S
C1059 C1062 1.463 . S
C1059 C1064 1.350 . S
C1059 N1067 1.427 . S
C1060 H1051 0.930 . S
C1060 C1058 1.378 . S
C1060 C1061 1.367 . S
C1061 C1060 1.367 . S
C1061 C1063 1.433 . S
C1062 C1058 1.350 . S
C1062 C1059 1.463 . S
C1062 N1066 1.427 . S
C1063 H1053 0.929 . S
C1063 C1061 1.433 . S
C1063 N1066 1.384 . S
C1064 H1055 0.929 . S
C1064 C1056 1.378 . S
C1064 C1059 1.350 . S
C1065 H1052 0.929 . S
C1065 C1057 1.433 . S
C1065 N1067 1.384 . S
N1066 C1062 1.427 . S
N1066 C1063 1.384 . S
N1067 C1059 1.427 . S
N1067 C1065 1.384 . S
H1068 C1074 0.930 . S
H1069 C1078 0.930 . S
H1070 C1083 0.929 . S
H1071 C1081 0.929 . S
H1072 C1076 0.929 . S
H1073 C1082 0.929 . S
C1074 H1068 0.930 . S
C1074 C1075 1.367 . S
C1074 C1082 1.378 . S
C1075 C1074 1.367 . S
C1075 C1083 1.433 . S
C1076 H1072 0.929 . S
C1076 C1078 1.378 . S
C1076 C1080 1.350 . S
C1077 C1080 1.463 . S
C1077 C1082 1.350 . S
C1077 N1085 1.427 . S
C1078 H1069 0.930 . S
C1078 C1076 1.378 . S
C1078 C1079 1.367 . S
C1079 C1078 1.367 . S
C1079 C1081 1.433 . S
C1080 C1076 1.350 . S
C1080 C1077 1.463 . S
C1080 N1084 1.427 . S
C1081 H1071 0.929 . S
C1081 C1079 1.433 . S
C1081 N1084 1.384 . S
C1082 H1073 0.929 . S
C1082 C1074 1.378 . S
C1082 C1077 1.350 . S
C1083 H1070 0.929 . S
C1083 C1075 1.433 . S
C1083 N1085 1.384 . S
N1084 C1080 1.427 . S
N1084 C1081 1.384 . S
N1085 C1077 1.427 . S
N1085 C1083 1.384 . S
H1086 C1092 0.930 . S
H1087 C1096 0.930 . S
H1088 C1101 0.929 . S
H1089 C1099 0.929 . S
H1090 C1094 0.929 . S
H1091 C1100 0.929 . S
C1092 H1086 0.930 . S
C1092 C1093 1.367 . S
C1092 C1100 1.378 . S
C1093 C1092 1.367 . S
C1093 C1101 1.433 . S
C1094 H1090 0.929 . S
C1094 C1096 1.378 . S
C1094 C1098 1.350 . S
C1095 C1098 1.463 1_655 S
C1095 C1100 1.350 . S
C1095 N1103 1.427 . S
C1096 H1087 0.930 . S
C1096 C1094 1.378 . S
C1096 C1097 1.367 . S
C1097 C1096 1.367 . S
C1097 C1099 1.433 . S
C1098 C1094 1.350 . S
C1098 C1095 1.463 1_455 S
C1098 N1102 1.427 . S
C1099 H1089 0.929 . S
C1099 C1097 1.433 . S
C1099 N1102 1.384 . S
C1100 H1091 0.929 . S
C1100 C1092 1.378 . S
C1100 C1095 1.350 . S
C1101 H1088 0.929 . S
C1101 C1093 1.433 . S
C1101 N1103 1.384 . S
N1102 C1098 1.427 . S
N1102 C1099 1.384 . S
N1103 C1095 1.427 . S
N1103 C1101 1.384 . S
H1104 C1110 0.930 . S
H1105 C1114 0.930 . S
H1106 C1119 0.929 . S
H1107 C1117 0.929 . S
H1108 C1112 0.929 . S
H1109 C1118 0.929 . S
C1110 H1104 0.930 . S
C1110 C1111 1.367 . S
C1110 C1118 1.378 . S
C1111 C1110 1.367 . S
C1111 C1119 1.433 1_455 S
C1112 H1108 0.929 . S
C1112 C1114 1.378 . S
C1112 C1116 1.350 . S
C1113 C1116 1.463 1_455 S
C1113 C1118 1.350 . S
C1113 N1121 1.427 1_455 S
C1114 H1105 0.930 . S
C1114 C1112 1.378 . S
C1114 C1115 1.367 . S
C1115 C1114 1.367 . S
C1115 C1117 1.433 1_655 S
C1116 C1112 1.350 . S
C1116 C1113 1.463 1_655 S
C1116 N1120 1.427 1_655 S
C1117 H1107 0.929 . S
C1117 C1115 1.433 1_455 S
C1117 N1120 1.384 . S
C1118 H1109 0.929 . S
C1118 C1110 1.378 . S
C1118 C1113 1.350 . S
C1119 H1106 0.929 . S
C1119 C1111 1.433 1_655 S
C1119 N1121 1.384 . S
N1120 C1116 1.427 1_455 S
N1120 C1117 1.384 . S
N1121 C1113 1.427 1_655 S
N1121 C1119 1.384 . S
H1122 C1128 0.930 . S
H1123 C1132 0.930 . S
H1124 C1137 0.929 . S
H1125 C1135 0.929 . S
H1126 C1130 0.929 . S
H1127 C1136 0.929 . S
C1128 H1122 0.930 . S
C1128 C1129 1.367 . S
C1128 C1136 1.378 . S
C1129 C1128 1.367 . S
C1129 C1137 1.433 . S
C1130 H1126 0.929 . S
C1130 C1132 1.378 . S
C1130 C1134 1.350 . S
C1131 C1134 1.463 . S
C1131 C1136 1.350 . S
C1131 N1139 1.427 . S
C1132 H1123 0.930 . S
C1132 C1130 1.378 . S
C1132 C1133 1.367 . S
C1133 C1132 1.367 . S
C1133 C1135 1.433 . S
C1134 C1130 1.350 . S
C1134 C1131 1.463 . S
C1134 N1138 1.427 . S
C1135 H1125 0.929 . S
C1135 C1133 1.433 . S
C1135 N1138 1.384 . S
C1136 H1127 0.929 . S
C1136 C1128 1.378 . S
C1136 C1131 1.350 . S
C1137 H1124 0.929 . S
C1137 C1129 1.433 . S
C1137 N1139 1.384 . S
N1138 C1134 1.427 . S
N1138 C1135 1.384 . S
N1139 C1131 1.427 . S
N1139 C1137 1.384 . S
H1140 C1146 0.930 . S
H1141 C1150 0.930 . S
H1142 C1155 0.929 . S
H1143 C1153 0.929 . S
H1144 C1148 0.929 . S
H1145 C1154 0.929 . S
C1146 H1140 0.930 . S
C1146 C1147 1.367 . S
C1146 C1154 1.378 . S
C1147 C1146 1.367 . S
C1147 C1155 1.433 . S
C1148 H1144 0.929 . S
C1148 C1150 1.378 . S
C1148 C1152 1.350 . S
C1149 C1152 1.463 1_655 S
C1149 C1154 1.350 . S
C1149 N1157 1.427 . S
C1150 H1141 0.930 . S
C1150 C1148 1.378 . S
C1150 C1151 1.367 . S
C1151 C1150 1.367 . S
C1151 C1153 1.433 . S
C1152 C1148 1.350 . S
C1152 C1149 1.463 1_455 S
C1152 N1156 1.427 . S
C1153 H1143 0.929 . S
C1153 C1151 1.433 . S
C1153 N1156 1.384 . S
C1154 H1145 0.929 . S
C1154 C1146 1.378 . S
C1154 C1149 1.350 . S
C1155 H1142 0.929 . S
C1155 C1147 1.433 . S
C1155 N1157 1.384 . S
N1156 C1152 1.427 . S
N1156 C1153 1.384 . S
N1157 C1149 1.427 . S
N1157 C1155 1.384 . S
H1158 C1164 0.930 . S
H1159 C1168 0.930 . S
H1160 C1173 0.929 . S
H1161 C1171 0.929 . S
H1162 C1166 0.929 . S
H1163 C1172 0.929 . S
C1164 H1158 0.930 . S
C1164 C1165 1.367 . S
C1164 C1172 1.378 . S
C1165 C1164 1.367 . S
C1165 C1173 1.433 . S
C1166 H1162 0.929 . S
C1166 C1168 1.378 . S
C1166 C1170 1.350 . S
C1167 C1170 1.463 . S
C1167 C1172 1.350 . S
C1167 N1175 1.427 . S
C1168 H1159 0.930 . S
C1168 C1166 1.378 . S
C1168 C1169 1.367 . S
C1169 C1168 1.367 . S
C1169 C1171 1.433 . S
C1170 C1166 1.350 . S
C1170 C1167 1.463 . S
C1170 N1174 1.427 . S
C1171 H1161 0.929 . S
C1171 C1169 1.433 . S
C1171 N1174 1.384 . S
C1172 H1163 0.929 . S
C1172 C1164 1.378 . S
C1172 C1167 1.350 . S
C1173 H1160 0.929 . S
C1173 C1165 1.433 . S
C1173 N1175 1.384 . S
N1174 C1170 1.427 . S
N1174 C1171 1.384 . S
N1175 C1167 1.427 . S
N1175 C1173 1.384 . S
H1176 C1182 0.930 . S
H1177 C1186 0.930 . S
H1178 C1191 0.929 . S
H1179 C1189 0.929 . S
H1180 C1184 0.929 . S
H1181 C1190 0.929 . S
C1182 H1176 0.930 . S
C1182 C1183 1.367 . S
C1182 C1190 1.378 . S
C1183 C1182 1.367 . S
C1183 C1191 1.433 . S
C1184 H1180 0.929 . S
C1184 C1186 1.378 . S
C1184 C1188 1.350 . S
C1185 C1188 1.463 . S
C1185 C1190 1.350 . S
C1185 N1193 1.427 . S
C1186 H1177 0.930 . S
C1186 C1184 1.378 . S
C1186 C1187 1.367 . S
C1187 C1186 1.367 . S
C1187 C1189 1.433 . S
C1188 C1184 1.350 . S
C1188 C1185 1.463 . S
C1188 N1192 1.427 . S
C1189 H1179 0.929 . S
C1189 C1187 1.433 . S
C1189 N1192 1.384 . S
C1190 H1181 0.929 . S
C1190 C1182 1.378 . S
C1190 C1185 1.350 . S
C1191 H1178 0.929 . S
C1191 C1183 1.433 . S
C1191 N1193 1.384 . S
N1192 C1188 1.427 . S
N1192 C1189 1.384 . S
N1193 C1185 1.427 . S
N1193 C1191 1.384 . S
H1194 C1200 0.930 . S
H1195 C1204 0.930 . S
H1196 C1209 0.929 . S
H1197 C1207 0.929 . S
H1198 C1202 0.929 . S
H1199 C1208 0.929 . S
C1200 H1194 0.930 . S
C1200 C1201 1.367 1_655 S
C1200 C1208 1.378 . S
C1201 C1200 1.367 1_455 S
C1201 C1209 1.433 . S
C1202 H1198 0.929 . S
C1202 C1204 1.378 . S
C1202 C1206 1.350 1_455 S
C1203 C1206 1.463 1_455 S
C1203 C1208 1.350 1_455 S
C1203 N1211 1.427 . S
C1204 H1195 0.930 . S
C1204 C1202 1.378 . S
C1204 C1205 1.367 1_455 S
C1205 C1204 1.367 1_655 S
C1205 C1207 1.433 . S
C1206 C1202 1.350 1_655 S
C1206 C1203 1.463 1_655 S
C1206 N1210 1.427 . S
C1207 H1197 0.929 . S
C1207 C1205 1.433 . S
C1207 N1210 1.384 . S
C1208 H1199 0.929 . S
C1208 C1200 1.378 . S
C1208 C1203 1.350 1_655 S
C1209 H1196 0.929 . S
C1209 C1201 1.433 . S
C1209 N1211 1.384 . S
N1210 C1206 1.427 . S
N1210 C1207 1.384 . S
N1211 C1203 1.427 . S
N1211 C1209 1.384 . S
H1212 C1218 0.930 . S
H1213 C1222 0.930 . S
H1214 C1227 0.929 . S
H1215 C1225 0.929 . S
H1216 C1220 0.929 . S
H1217 C1226 0.929 . S
C1218 H1212 0.930 . S
C1218 C1219 1.367 . S
C1218 C1226 1.378 . S
C1219 C1218 1.367 . S
C1219 C1227 1.433 . S
C1220 H1216 0.929 . S
C1220 C1222 1.378 . S
C1220 C1224 1.350 . S
C1221 C1224 1.463 . S
C1221 C1226 1.350 . S
C1221 N1229 1.427 . S
C1222 H1213 0.930 . S
C1222 C1220 1.378 . S
C1222 C1223 1.367 . S
C1223 C1222 1.367 . S
C1223 C1225 1.433 . S
C1224 C1220 1.350 . S
C1224 C1221 1.463 . S
C1224 N1228 1.427 . S
C1225 H1215 0.929 . S
C1225 C1223 1.433 . S
C1225 N1228 1.384 . S
C1226 H1217 0.929 . S
C1226 C1218 1.378 . S
C1226 C1221 1.350 . S
C1227 H1214 0.929 . S
C1227 C1219 1.433 . S
C1227 N1229 1.384 . S
N1228 C1224 1.427 . S
N1228 C1225 1.384 . S
N1229 C1221 1.427 . S
N1229 C1227 1.384 . S
H1230 C1236 0.930 . S
H1231 C1240 0.930 . S
H1232 C1245 0.929 1_655 S
H1233 C1243 0.929 1_455 S
H1234 C1238 0.929 . S
H1235 C1244 0.929 . S
C1236 H1230 0.930 . S
C1236 C1237 1.367 . S
C1236 C1244 1.378 . S
C1237 C1236 1.367 . S
C1237 C1245 1.433 . S
C1238 H1234 0.929 . S
C1238 C1240 1.378 . S
C1238 C1242 1.350 . S
C1239 C1242 1.463 1_455 S
C1239 C1244 1.350 . S
C1239 N1247 1.427 1_455 S
C1240 H1231 0.930 . S
C1240 C1238 1.378 . S
C1240 C1241 1.367 . S
C1241 C1240 1.367 . S
C1241 C1243 1.433 . S
C1242 C1238 1.350 . S
C1242 C1239 1.463 1_655 S
C1242 N1246 1.427 1_655 S
C1243 H1233 0.929 1_655 S
C1243 C1241 1.433 . S
C1243 N1246 1.384 1_655 S
C1244 H1235 0.929 . S
C1244 C1236 1.378 . S
C1244 C1239 1.350 . S
C1245 H1232 0.929 1_455 S
C1245 C1237 1.433 . S
C1245 N1247 1.384 1_455 S
N1246 C1242 1.427 1_455 S
N1246 C1243 1.384 1_455 S
N1247 C1239 1.427 1_655 S
N1247 C1245 1.384 1_655 S
C535 C182 0.851 . S
C539 C28 0.859 . S
C553 C149 0.866 . S
C557 C61 0.870 . S
C571 C74 0.877 . S
C575 C248 0.872 . S
C589 C127 0.869 . S
C593 C215 0.875 . S
C607 C140 1.307 . S
C611 C41 1.323 . S
C625 C173 1.318 . S
C629 C8 1.332 . S
C643 C107 1.312 . S
C647 C206 1.294 . S
C661 C239 1.300 . S
C665 C94 1.310 . S
C679 C292 0.858 . S
C683 C446 0.851 . S
C697 C325 0.869 . S
C701 C413 0.868 . S
C715 C338 0.882 . S
C719 C512 0.872 . S
C733 C391 0.862 . S
C737 C479 0.861 . S
C751 C404 1.307 . S
C755 C305 1.326 . S
C769 C437 1.312 . S
C773 C272 1.327 . S
C787 C371 1.313 . S
C791 C470 1.299 . S
C805 C358 1.310 . S
C809 C503 1.299 . S
C823 N5 1.734 . S
C827 N38 1.730 . S
C841 N80 1.755 . S
C845 N104 1.752 . S
C859 N179 1.742 . S
C863 N146 1.737 . S
C877 N245 1.720 . S
C881 N212 1.723 . S
C895 N302 1.730 . S
C899 N269 1.733 . S
C913 N368 1.746 . S
C917 N344 1.750 . S
C931 N410 1.737 . S
C935 N443 1.742 . S
C949 N476 1.723 . S
C953 N509 1.718 . S
C967 N311 1.733 . S
C971 N14 1.726 . S
C985 N47 1.730 . S
C989 N278 1.735 . S
C1003 N71 1.740 . S
C1007 N377 1.736 . S
C1021 N335 1.744 . S
C1025 N113 1.739 . S
C1039 N137 1.350 . S
C1043 N434 1.357 . S
C1057 N170 1.352 . S
C1061 N401 1.359 . S
C1075 N203 1.397 . S
C1079 N500 1.403 . S
C1093 N467 1.397 . S
C1097 N236 1.403 . S
C1111 C17 1.527 . S
C1115 C116 1.525 . S
C1129 C50 1.529 . S
C1133 C83 1.520 . S
C1147 C160 1.561 . S
C1151 C259 1.566 . S
C1165 C193 1.561 . S
C1169 C226 1.564 . S
C1183 C380 1.523 . S
C1187 C281 1.525 . S
C1201 C347 1.517 . S
C1205 C314 1.527 . S
C1219 C424 1.560 . S
C1223 C523 1.564 . S
C1237 C457 1.568 . S
C1241 C490 1.565 . S
