# Generated by pormake.
# Topology unn, (4)-cn, num edge types: 1
# Building blocks:
#     Node 0, Type 0, BuildingBlock: QUQFOY_clean_sbu_3, # of connection points: 4
#     Node 1, Type 0, BuildingBlock: QUQFOY_clean_sbu_3, # of connection points: 4
#     Node 2, Type 0, BuildingBlock: QUQFOY_clean_sbu_3, # of connection points: 4
#     Node 3, Type 0, BuildingBlock: QUQFOY_clean_sbu_3, # of connection points: 4
#     Node 4, Type 0, BuildingBlock: QUQFOY_clean_sbu_3, # of connection points: 4
#     Node 5, Type 0, BuildingBlock: QUQFOY_clean_sbu_3, # of connection points: 4
#     Node 6, Type 0, BuildingBlock: QUQFOY_clean_sbu_3, # of connection points: 4
#     Node 7, Type 0, BuildingBlock: QUQFOY_clean_sbu_3, # of connection points: 4
#     Node 8, Type 0, BuildingBlock: QUQFOY_clean_sbu_3, # of connection points: 4
#     Node 9, Type 0, BuildingBlock: QUQFOY_clean_sbu_3, # of connection points: 4
#     Node 10, Type 0, BuildingBlock: QUQFOY_clean_sbu_3, # of connection points: 4
#     Node 11, Type 0, BuildingBlock: QUQFOY_clean_sbu_3, # of connection points: 4
#     Node 12, Type 0, BuildingBlock: QUQFOY_clean_sbu_3, # of connection points: 4
#     Node 13, Type 0, BuildingBlock: QUQFOY_clean_sbu_3, # of connection points: 4
#     Node 14, Type 0, BuildingBlock: QUQFOY_clean_sbu_3, # of connection points: 4
#     Node 15, Type 0, BuildingBlock: QUQFOY_clean_sbu_3, # of connection points: 4
#     Node 16, Type 0, BuildingBlock: QUQFOY_clean_sbu_3, # of connection points: 4
#     Node 17, Type 0, BuildingBlock: QUQFOY_clean_sbu_3, # of connection points: 4
#     Edge 18, Type (0, 0), BuildingBlock: OJICUG_clean_linker_0, # of connection points: 2
#     Edge 19, Type (0, 0), BuildingBlock: OJICUG_clean_linker_0, # of connection points: 2
#     Edge 20, Type (0, 0), BuildingBlock: OJICUG_clean_linker_0, # of connection points: 2
#     Edge 21, Type (0, 0), BuildingBlock: OJICUG_clean_linker_0, # of connection points: 2
#     Edge 22, Type (0, 0), BuildingBlock: OJICUG_clean_linker_0, # of connection points: 2
#     Edge 23, Type (0, 0), BuildingBlock: OJICUG_clean_linker_0, # of connection points: 2
#     Edge 24, Type (0, 0), BuildingBlock: OJICUG_clean_linker_0, # of connection points: 2
#     Edge 25, Type (0, 0), BuildingBlock: OJICUG_clean_linker_0, # of connection points: 2
#     Edge 26, Type (0, 0), BuildingBlock: OJICUG_clean_linker_0, # of connection points: 2
#     Edge 27, Type (0, 0), BuildingBlock: OJICUG_clean_linker_0, # of connection points: 2
#     Edge 28, Type (0, 0), BuildingBlock: OJICUG_clean_linker_0, # of connection points: 2
#     Edge 29, Type (0, 0), BuildingBlock: OJICUG_clean_linker_0, # of connection points: 2
#     Edge 30, Type (0, 0), BuildingBlock: OJICUG_clean_linker_0, # of connection points: 2
#     Edge 31, Type (0, 0), BuildingBlock: OJICUG_clean_linker_0, # of connection points: 2
#     Edge 32, Type (0, 0), BuildingBlock: OJICUG_clean_linker_0, # of connection points: 2
#     Edge 33, Type (0, 0), BuildingBlock: OJICUG_clean_linker_0, # of connection points: 2
#     Edge 34, Type (0, 0), BuildingBlock: OJICUG_clean_linker_0, # of connection points: 2
#     Edge 35, Type (0, 0), BuildingBlock: OJICUG_clean_linker_0, # of connection points: 2
#     Edge 36, Type (0, 0), BuildingBlock: OJICUG_clean_linker_0, # of connection points: 2
#     Edge 37, Type (0, 0), BuildingBlock: OJICUG_clean_linker_0, # of connection points: 2
#     Edge 38, Type (0, 0), BuildingBlock: OJICUG_clean_linker_0, # of connection points: 2
#     Edge 39, Type (0, 0), BuildingBlock: OJICUG_clean_linker_0, # of connection points: 2
#     Edge 40, Type (0, 0), BuildingBlock: OJICUG_clean_linker_0, # of connection points: 2
#     Edge 41, Type (0, 0), BuildingBlock: OJICUG_clean_linker_0, # of connection points: 2
#     Edge 42, Type (0, 0), BuildingBlock: OJICUG_clean_linker_0, # of connection points: 2
#     Edge 43, Type (0, 0), BuildingBlock: OJICUG_clean_linker_0, # of connection points: 2
#     Edge 44, Type (0, 0), BuildingBlock: OJICUG_clean_linker_0, # of connection points: 2
#     Edge 45, Type (0, 0), BuildingBlock: OJICUG_clean_linker_0, # of connection points: 2
#     Edge 46, Type (0, 0), BuildingBlock: OJICUG_clean_linker_0, # of connection points: 2
#     Edge 47, Type (0, 0), BuildingBlock: OJICUG_clean_linker_0, # of connection points: 2
#     Edge 48, Type (0, 0), BuildingBlock: OJICUG_clean_linker_0, # of connection points: 2
#     Edge 49, Type (0, 0), BuildingBlock: OJICUG_clean_linker_0, # of connection points: 2
#     Edge 50, Type (0, 0), BuildingBlock: OJICUG_clean_linker_0, # of connection points: 2
#     Edge 51, Type (0, 0), BuildingBlock: OJICUG_clean_linker_0, # of connection points: 2
#     Edge 52, Type (0, 0), BuildingBlock: OJICUG_clean_linker_0, # of connection points: 2
#     Edge 53, Type (0, 0), BuildingBlock: OJICUG_clean_linker_0, # of connection points: 2
# Relax obj value: 0.157
# Max RMSD: 0.261
# Mean RMSD: 0.240
data_MOF--net-unn--node1-QUQFOY_clean_sbu_3--edge1-OJICUG_clean_linker_0
_symmetry_space_group_name_H-M    P1
_symmetry_Int_Tables_number       1
_symmetry_cell_setting            triclinic
loop_
_symmetry_equiv_pos_as_xyz
'x, y, z'
_cell_length_a     34.29206
_cell_length_b     34.792065
_cell_length_c     28.771847
_cell_angle_alpha  90.85874
_cell_angle_beta   89.860652
_cell_angle_gamma 120.34853
loop_
_atom_site_label
_atom_site_type_symbol
_atom_site_fract_x
_atom_site_fract_y
_atom_site_fract_z
_atom_type_partial_charge
C0 C 0.02755 0.70723 0.25136 0.0
O1 O 0.06071 0.71504 0.22532 0.0
Cd2 Cd 0.08524 0.771 0.16652 0.0
O3 O 0.00516 0.72681 0.24512 0.0
Cd4 Cd 0.9891 0.77794 0.20375 0.0
C5 C 0.08364 0.82552 0.2577 0.0
O6 O 0.02038 0.76901 0.13499 0.0
O7 O 0.02264 0.83252 0.14047 0.0
O8 O 0.91994 0.71035 0.18997 0.0
C9 C 0.03024 0.8058 0.11687 0.0
O10 O 0.09364 0.83196 0.21489 0.0
C11 C 0.89381 0.72613 0.19378 0.0
O12 O 0.04326 0.81386 0.26958 0.0
O13 O 0.91178 0.76721 0.20562 0.0
C14 C 0.37205 0.29899 0.13902 0.0
O15 O 0.40745 0.30215 0.15717 0.0
Cd16 Cd 0.41522 0.29074 0.23981 0.0
O17 O 0.33765 0.28981 0.16376 0.0
Cd18 Cd 0.3039 0.27046 0.24055 0.0
C19 C 0.32757 0.19845 0.22038 0.0
O20 O 0.37458 0.3181 0.28163 0.0
O21 O 0.32077 0.26435 0.32053 0.0
O22 O 0.28476 0.32777 0.23252 0.0
C23 C 0.36049 0.29804 0.31997 0.0
O24 O 0.34786 0.22196 0.25573 0.0
C25 C 0.24575 0.30561 0.25036 0.0
O26 O 0.29215 0.19852 0.20738 0.0
O27 O 0.2316 0.26482 0.25923 0.0
C28 C 0.72879 0.06931 0.18217 0.0
O29 O 0.74261 0.10937 0.1952 0.0
Cd30 Cd 0.79846 0.14439 0.25764 0.0
O31 O 0.74708 0.04798 0.19722 0.0
Cd32 Cd 0.80235 0.04332 0.24403 0.0
C33 C 0.86191 0.13046 0.19209 0.0
O34 O 0.77953 0.07951 0.2993 0.0
O35 O 0.83404 0.07012 0.32252 0.0
O36 O 0.73541 0.9706 0.24918 0.0
C37 C 0.80547 0.08218 0.33183 0.0
O38 O 0.86195 0.13801 0.23516 0.0
C39 C 0.7555 0.94923 0.25736 0.0
O40 O 0.85289 0.09137 0.18033 0.0
O41 O 0.79856 0.97097 0.255 0.0
C42 C 0.04136 0.18166 0.81254 0.0
O43 O 0.00413 0.15519 0.83153 0.0
Cd44 Cd 0.93185 0.11789 0.78845 0.0
O45 O 0.04158 0.18977 0.7698 0.0
Cd46 Cd 0.97829 0.19004 0.73352 0.0
C47 C 0.93704 0.20733 0.82818 0.0
O48 O 0.90995 0.12229 0.70763 0.0
O49 O 0.90458 0.17951 0.73 0.0
O50 O 0.01589 0.20833 0.65874 0.0
C51 C 0.88748 0.14265 0.70824 0.0
O52 O 0.90903 0.16563 0.82566 0.0
C53 C 0.01689 0.24522 0.65623 0.0
O54 O 0.97272 0.2249 0.80372 0.0
O55 O 0.0019 0.25707 0.69059 0.0
C56 C 0.88267 0.78515 0.69219 0.0
O57 O 0.89245 0.82555 0.69272 0.0
Cd58 Cd 0.82702 0.83383 0.70888 0.0
O59 O 0.84487 0.75554 0.70771 0.0
Cd60 Cd 0.77519 0.73954 0.74424 0.0
C61 C 0.75973 0.75085 0.63166 0.0
O62 O 0.7887 0.80771 0.7838 0.0
O63 O 0.71927 0.75975 0.76417 0.0
O64 O 0.79808 0.71169 0.80833 0.0
C65 C 0.74661 0.79432 0.7875 0.0
O66 O 0.78187 0.79259 0.64039 0.0
C67 C 0.76289 0.67329 0.80827 0.0
O68 O 0.75228 0.72293 0.66348 0.0
O69 O 0.73331 0.66499 0.77696 0.0
C70 C 0.30453 0.06251 0.79767 0.0
O71 O 0.33065 0.06179 0.76657 0.0
Cd72 Cd 0.30088 0.00859 0.70242 0.0
O73 O 0.26272 0.0467 0.78952 0.0
Cd74 Cd 0.22297 0.03586 0.71678 0.0
C75 C 0.20452 0.93714 0.76247 0.0
O76 O 0.26104 0.02969 0.65341 0.0
O77 O 0.188 0.99088 0.64637 0.0
O78 O 0.28592 0.10711 0.7114 0.0
C79 C 0.22677 0.00209 0.62994 0.0
O80 O 0.2414 0.94541 0.74308 0.0
C81 C 0.26414 0.1272 0.70452 0.0
O82 O 0.19012 0.96469 0.76031 0.0
O83 O 0.22072 0.1044 0.70642 0.0
C84 C 0.71171 0.01837 0.65026 0.0
O85 O 0.74578 0.02624 0.62554 0.0
Cd86 Cd 0.75664 0.04846 0.54453 0.0
O87 O 0.67873 0.02087 0.63345 0.0
Cd88 Cd 0.6488 0.03938 0.56673 0.0
C89 C 0.7434 0.12318 0.58965 0.0
O90 O 0.68369 0.01359 0.5124 0.0
O91 O 0.66619 0.06129 0.48708 0.0
O92 O 0.57745 0.97042 0.57212 0.0
C93 C 0.68548 0.03871 0.47994 0.0
O94 O 0.74432 0.11088 0.54828 0.0
C95 C 0.55332 0.98797 0.56474 0.0
O96 O 0.70449 0.11144 0.60635 0.0
O97 O 0.57369 0.03042 0.56318 0.0
C98 C 0.05517 0.65968 0.63638 0.0
O99 O 0.08984 0.67887 0.61084 0.0
Cd100 Cd 0.07094 0.71571 0.54998 0.0
O101 O 0.018 0.65326 0.62033 0.0
Cd102 Cd 0.00699 0.64944 0.53699 0.0
C103 C 0.98335 0.72013 0.5892 0.0
O104 O 0.05196 0.6907 0.46951 0.0
O105 O 0.97744 0.65361 0.46534 0.0
O106 O 0.04713 0.61109 0.5359 0.0
C107 C 0.01559 0.6736 0.44491 0.0
O108 O 0.02546 0.74508 0.58249 0.0
C109 C 0.01334 0.57331 0.52484 0.0
O110 O 0.96379 0.67941 0.57596 0.0
O111 O 0.97434 0.56985 0.52329 0.0
C112 C 0.36292 0.39146 0.61626 0.0
O113 O 0.34331 0.39071 0.57849 0.0
Cd114 Cd 0.36112 0.35299 0.51681 0.0
O115 O 0.39885 0.38957 0.61586 0.0
Cd116 Cd 0.46136 0.39105 0.57841 0.0
C117 C 0.36966 0.29053 0.6069 0.0
O118 O 0.43936 0.38531 0.50278 0.0
O119 O 0.48239 0.35726 0.51407 0.0
O120 O 0.46618 0.45992 0.5719 0.0
C121 C 0.45802 0.3646 0.48648 0.0
O122 O 0.34988 0.29585 0.57209 0.0
C123 C 0.50764 0.48393 0.58265 0.0
O124 O 0.41035 0.31981 0.61845 0.0
O125 O 0.52871 0.46403 0.59545 0.0
C126 C 0.7174 0.61668 0.11067 0.0
O127 O 0.70543 0.57662 0.09938 0.0
Cd128 Cd 0.62979 0.51666 0.06865 0.0
O129 O 0.69193 0.6316 0.09913 0.0
Cd130 Cd 0.63757 0.57274 0.04878 0.0
C131 C 0.58874 0.52741 0.15318 0.0
O132 O 0.57003 0.51518 0.01632 0.0
O133 O 0.57875 0.58257 0.01826 0.0
O134 O 0.68244 0.55302 -0.00272 0.0
C135 C 0.55523 0.54139 0.00663 0.0
O136 O 0.58924 0.49243 0.14144 0.0
C137 C 0.69788 0.58994 0.976 0.0
O138 O 0.6068 0.56087 0.12692 0.0
O139 O 0.6865 0.61775 -0.00971 0.0
C140 C 0.42646 0.14328 0.10471 0.0
O141 O 0.45912 0.16188 0.07669 0.0
Cd142 Cd 0.47989 0.10293 0.07489 0.0
O143 O 0.40988 0.10235 0.11198 0.0
Cd144 Cd 0.41777 0.06162 0.04693 0.0
C145 C 0.41187 0.02289 0.14633 0.0
O146 O 0.48168 0.06198 0.00641 0.0
O147 O 0.41852 0.99859 0.01618 0.0
O148 O 0.41523 0.11011 -0.00922 0.0
C149 C 0.457 0.02024 -0.00305 0.0
O150 O 0.45263 0.05453 0.1435 0.0
C151 C 0.37468 0.08258 0.97879 0.0
O152 O 0.38499 0.01467 0.11245 0.0
O153 O 0.35368 0.046 0.00058 0.0
C154 C 0.94128 0.30246 0.12064 0.0
O155 O 0.9391 0.26876 0.10003 0.0
Cd156 Cd 0.90592 0.24717 0.02221 0.0
O157 O 0.92422 0.32369 0.10243 0.0
Cd158 Cd 0.88357 0.33569 0.0418 0.0
C159 C 0.81889 0.23568 0.07042 0.0
O160 O 0.92553 0.31748 -0.00979 0.0
O161 O 0.86623 0.31414 0.95966 0.0
O162 O 0.94771 0.40738 0.05728 0.0
C163 C 0.90206 0.31225 0.95434 0.0
O164 O 0.83071 0.23539 0.02879 0.0
C165 C 0.93038 0.42999 0.04376 0.0
O166 O 0.82258 0.27204 0.08572 0.0
O167 O 0.88814 0.40858 0.0342 0.0
C168 C 0.35931 0.33851 0.94805 0.0
O169 O 0.38737 0.34405 0.91597 0.0
Cd170 Cd 0.38765 0.38318 0.8469 0.0
O171 O 0.33001 0.3505 0.94275 0.0
Cd172 Cd 0.28823 0.38146 0.90188 0.0
C173 C 0.37777 0.45718 0.92314 0.0
O174 O 0.30996 0.35813 0.8317 0.0
O175 O 0.28813 0.40573 0.82138 0.0
O176 O 0.22566 0.30844 0.9207 0.0
C177 C 0.30149 0.38075 0.80368 0.0
O178 O 0.36881 0.42801 0.89215 0.0
C179 C 0.1954 0.31814 0.91219 0.0
O180 O 0.3437 0.45673 0.94141 0.0
O181 O 0.20859 0.35926 0.90708 0.0
C182 C 0.71266 0.00832 0.84951 0.0
O183 O 0.74727 0.02847 0.87565 0.0
Cd184 Cd 0.73208 0.99749 0.95237 0.0
O185 O 0.67485 0.97955 0.86614 0.0
Cd186 Cd 0.62365 0.93624 0.92696 0.0
C187 C 0.68491 0.88811 0.9065 0.0
O188 O 0.66545 0.99748 0.97865 0.0
O189 O 0.62229 0.93498 0.01243 0.0
O190 O 0.58388 0.96755 0.8902 0.0
C191 C 0.64714 0.97709 0.01566 0.0
O192 O 0.71643 0.92442 0.92415 0.0
C193 C 0.54544 0.94019 0.90652 0.0
O194 O 0.64466 0.88107 0.90333 0.0
O195 O 0.54168 0.90578 0.92589 0.0
C196 C 0.06075 0.64927 0.8326 0.0
O197 O 0.02561 0.6466 0.8512 0.0
Cd198 Cd 0.0188 0.69231 0.91384 0.0
O199 O 0.0984 0.66819 0.85416 0.0
Cd200 Cd 0.1079 0.68946 0.93495 0.0
C201 C 0.1059 0.77321 0.86506 0.0
O202 O 0.06796 0.71073 0.9785 0.0
O203 O 0.14089 0.75278 -0.0106 0.0
O204 O 0.0364 0.6257 0.95032 0.0
C205 C 0.10126 0.74757 -0.00727 0.0
O206 O 0.06518 0.76019 0.87605 0.0
C207 C 0.05209 0.60455 0.97181 0.0
O208 O 0.12544 0.75205 0.87858 0.0
O209 O 0.09523 0.62245 0.97444 0.0
C210 C 0.37732 0.88293 0.47976 0.0
O211 O 0.35254 0.84092 0.48135 0.0
Cd212 Cd 0.27564 0.81926 0.45417 0.0
O213 O 0.36442 0.9044 0.45539 0.0
Cd214 Cd 0.3033 0.88566 0.40106 0.0
C215 C 0.2682 0.90701 0.49444 0.0
O216 O 0.24195 0.81113 0.3763 0.0
O217 O 0.22459 0.85947 0.40232 0.0
O218 O 0.35099 0.90301 0.33272 0.0
C219 C 0.21307 0.82414 0.37903 0.0
O220 O 0.25435 0.86584 0.50031 0.0
C221 C 0.34304 0.93293 0.31898 0.0
O222 O 0.29279 0.92732 0.45994 0.0
O223 O 0.31726 0.94102 0.34381 0.0
C224 C 0.16142 0.39722 0.33416 0.0
O225 O 0.1777 0.4389 0.33088 0.0
Cd226 Cd 0.12359 0.4623 0.34961 0.0
O227 O 0.12455 0.3741 0.35552 0.0
Cd228 Cd 0.06954 0.38293 0.40082 0.0
C229 C 0.03286 0.37361 0.29534 0.0
O230 O 0.09557 0.45923 0.42791 0.0
O231 O 0.02431 0.41682 0.4106 0.0
O232 O 0.09381 0.36036 0.46863 0.0
C233 C 0.05506 0.45155 0.43101 0.0
O234 O 0.06245 0.41497 0.29602 0.0
C235 C 0.05393 0.33187 0.48067 0.0
O236 O 0.02759 0.34952 0.33026 0.0
O237 O 0.02157 0.32556 0.4541 0.0
C238 C 0.70237 0.68439 0.4454 0.0
O239 O 0.70397 0.65119 0.42825 0.0
Cd240 Cd 0.64105 0.59908 0.38132 0.0
O241 O 0.67394 0.69471 0.43043 0.0
Cd242 Cd 0.6135 0.68753 0.37793 0.0
C243 C 0.57506 0.6248 0.46144 0.0
O244 O 0.62327 0.63774 0.32771 0.0
O245 O 0.55884 0.63414 0.31972 0.0
O246 O 0.67705 0.75355 0.34812 0.0
C247 C 0.58441 0.61876 0.3091 0.0
O248 O 0.59798 0.61589 0.43358 0.0
C249 C 0.65691 0.7749 0.34006 0.0
O250 O 0.56765 0.65613 0.45125 0.0
O251 O 0.61527 0.75617 0.35125 0.0
C252 C 0.03568 0.79982 0.03372 0.0
C253 C 0.05837 0.81894 0.07557 0.0
H254 H 0.03198 0.76086 0.97409 0.0
C255 C 0.10285 0.82782 0.08148 0.0
H256 H 0.0015 0.79306 0.02832 0.0
C257 C 0.12 0.80833 0.05111 0.0
C258 C 0.0928 0.78098 0.0145 0.0
H259 H 0.12103 0.84299 0.11356 0.0
H260 H 0.15164 0.81011 0.05962 0.0
C261 C 0.05269 0.78044 0.00337 0.0
C262 C 0.32402 0.3032 0.02259 0.0
C263 C 0.36226 0.32185 -0.00597 0.0
H264 H 0.29717 0.28129 0.09004 0.0
C265 C 0.40365 0.32951 0.01228 0.0
H266 H 0.29156 0.29649 0.0094 0.0
C267 C 0.40711 0.32108 0.05925 0.0
C268 C 0.36918 0.30483 0.08843 0.0
H269 H 0.43374 0.34415 -0.00898 0.0
H270 H 0.43966 0.32873 0.07302 0.0
C271 C 0.32739 0.29474 0.06904 0.0
C272 C 0.70042 0.07139 0.10355 0.0
C273 C 0.69606 0.04791 0.14416 0.0
H274 H 0.68835 0.06679 0.03022 0.0
C275 C 0.66831 0.00128 0.14388 0.0
H276 H 0.72169 0.10731 0.10299 0.0
C277 C 0.64945 0.97804 0.1024 0.0
C278 C 0.65851 0.0012 0.06063 0.0
H279 H 0.66432 0.98256 0.17508 0.0
H280 H 0.63076 0.94196 0.10261 0.0
C281 C 0.68191 0.0481 0.06189 0.0
C282 C 0.74648 0.03191 0.44038 0.0
C283 C 0.72204 0.05413 0.44584 0.0
H284 H 0.79597 0.02595 0.40061 0.0
C285 C 0.73492 0.09301 0.42074 0.0
H286 H 0.73799 0.0025 0.46021 0.0
C287 C 0.76887 0.10704 0.38773 0.0
C288 C 0.78987 0.08204 0.37891 0.0
H289 H 0.71771 0.11171 0.42529 0.0
H290 H 0.77553 0.13479 0.36585 0.0
C291 C 0.78058 0.04606 0.40732 0.0
C292 C 0.97811 0.66264 0.36748 0.0
C293 C 0.01746 0.67517 0.39359 0.0
H294 H 0.95031 0.66159 0.30065 0.0
C295 C 0.05839 0.68922 0.37013 0.0
H296 H 0.94583 0.65076 0.38437 0.0
C297 C 0.06064 0.6942 0.32188 0.0
C298 C 0.02214 0.68597 0.29656 0.0
H299 H 0.08908 0.69811 0.38919 0.0
H300 H 0.09329 0.70836 0.30521 0.0
C301 C 0.98049 0.66818 0.31944 0.0
C302 C 0.45886 0.36419 0.40103 0.0
C303 C 0.44181 0.34091 0.44235 0.0
H304 H 0.44617 0.36839 0.32908 0.0
C305 C 0.40103 0.30022 0.44191 0.0
H306 H 0.48999 0.39609 0.40117 0.0
C307 C 0.37543 0.28486 0.40121 0.0
C308 C 0.39054 0.31011 0.36057 0.0
H309 H 0.38712 0.28241 0.47391 0.0
H310 H 0.34269 0.25468 0.40236 0.0
C311 C 0.43349 0.34865 0.36014 0.0
C312 C 0.96201 0.27845 0.87068 0.0
C313 C 0.92693 0.2362 0.85678 0.0
H314 H 0.98078 0.33658 0.91246 0.0
C315 C 0.88222 0.22234 0.86953 0.0
H316 H 0.9967 0.29001 0.86091 0.0
C317 C 0.87305 0.2496 0.89788 0.0
C318 C 0.90866 0.29046 0.9142 0.0
H319 H 0.85455 0.19016 0.85839 0.0
H320 H 0.83879 0.2374 0.90968 0.0
C321 C 0.95292 0.30526 0.89956 0.0
C322 C 0.7656 0.63712 0.92971 0.0
C323 C 0.72269 0.59901 0.93225 0.0
H324 H 0.81298 0.69009 0.88732 0.0
C325 C 0.69805 0.57966 0.89117 0.0
H326 H 0.78484 0.65277 0.96114 0.0
C327 C 0.71341 0.60164 0.84893 0.0
C328 C 0.75376 0.64293 0.84746 0.0
H329 H 0.66451 0.55055 0.89258 0.0
H330 H 0.69172 0.58843 0.81855 0.0
C331 C 0.78137 0.65866 0.88742 0.0
C332 C 0.30908 0.06423 0.92801 0.0
C333 C 0.35583 0.08859 0.93577 0.0
H334 H 0.25595 0.03745 0.87753 0.0
C335 C 0.38494 0.11135 0.89884 0.0
H336 H 0.28607 0.04681 0.95616 0.0
C337 C 0.36793 0.10509 0.85367 0.0
C338 C 0.32158 0.07696 0.84526 0.0
H339 H 0.4212 0.13053 0.90407 0.0
H340 H 0.39127 0.12017 0.82516 0.0
C341 C 0.29198 0.05883 0.88302 0.0
C342 C 0.20441 0.93227 0.58525 0.0
C343 C 0.23277 0.97843 0.59082 0.0
H344 H 0.19426 0.87287 0.55071 0.0
C345 C 0.27124 0.00108 0.56306 0.0
H346 H 0.17488 0.91419 0.6069 0.0
C347 C 0.28213 0.97777 0.53101 0.0
C348 C 0.25517 0.93131 0.52694 0.0
H349 H 0.29362 0.03673 0.56712 0.0
H350 H 0.31253 0.99597 0.51057 0.0
C351 C 0.21585 0.90869 0.55376 0.0
C352 C 0.00229 0.28711 0.59693 0.0
C353 C 0.02913 0.27015 0.61293 0.0
H354 H 0.98835 0.31859 0.54125 0.0
C355 C 0.06467 0.27387 0.58538 0.0
H356 H 0.9744 0.28412 0.61751 0.0
C357 C 0.07335 0.2946 0.54228 0.0
C358 C 0.04532 0.30998 0.52564 0.0
H359 H 0.0856 0.26079 0.59719 0.0
H360 H 0.10116 0.29768 0.52152 0.0
C361 C 0.00986 0.30622 0.55323 0.0
C362 C 0.73272 0.74692 0.50338 0.0
C363 C 0.72492 0.70455 0.49006 0.0
H364 H 0.74956 0.79476 0.55871 0.0
C365 C 0.73004 0.67823 0.52324 0.0
H366 H 0.72846 0.76766 0.47857 0.0
C367 C 0.74062 0.69309 0.56935 0.0
C368 C 0.74713 0.73492 0.58306 0.0
H369 H 0.72333 0.64507 0.51424 0.0
H370 H 0.74354 0.67168 0.59433 0.0
C371 C 0.74418 0.76216 0.54934 0.0
C372 C 0.33136 0.35619 0.73897 0.0
C373 C 0.31313 0.38218 0.75421 0.0
H374 H 0.3607 0.33892 0.68367 0.0
C375 C 0.30756 0.40938 0.72221 0.0
H376 H 0.3357 0.33451 0.76238 0.0
C377 C 0.32169 0.41151 0.67591 0.0
C378 C 0.34182 0.38683 0.66183 0.0
H379 H 0.29322 0.42952 0.73313 0.0
H380 H 0.3186 0.43355 0.65193 0.0
C381 C 0.34564 0.35866 0.6936 0.0
C382 C 0.753 0.02486 0.72491 0.0
C383 C 0.71272 0.01369 0.70108 0.0
H384 H 0.78529 0.03373 0.79139 0.0
C385 C 0.67381 0.00308 0.72683 0.0
H386 H 0.78367 0.0337 0.706 0.0
C387 C 0.67495 0.00368 0.77503 0.0
C388 C 0.71495 0.01471 0.79898 0.0
H389 H 0.64227 0.99461 0.70978 0.0
H390 H 0.6441 0.99493 0.79363 0.0
C391 C 0.7542 0.02574 0.77365 0.0
C392 C 0.01842 0.61882 0.75807 0.0
C393 C 0.05983 0.64013 0.7821 0.0
H394 H 0.98464 0.60813 0.69286 0.0
C395 C 0.1002 0.66055 0.7564 0.0
H396 H 0.98675 0.6021 0.77672 0.0
C397 C 0.09902 0.66441 0.70813 0.0
C398 C 0.05747 0.64767 0.68494 0.0
H399 H 0.13274 0.67696 0.77382 0.0
H400 H 0.13054 0.6832 0.68961 0.0
C401 C 0.01726 0.62258 0.70997 0.0
C402 C 0.59122 0.55534 0.27777 0.0
C403 C 0.5712 0.58198 0.27541 0.0
H404 H 0.61064 0.5142 0.23984 0.0
C405 C 0.5452 0.57838 0.23636 0.0
H406 H 0.61063 0.5568 0.30801 0.0
C407 C 0.54532 0.55404 0.19742 0.0
C408 C 0.57081 0.53262 0.19757 0.0
H409 H 0.52914 0.59827 0.23387 0.0
H410 H 0.52975 0.55611 0.16554 0.0
C411 C 0.5907 0.53038 0.23905 0.0
C412 C 0.35143 0.98845 0.20523 0.0
C413 C 0.39463 0.99912 0.19011 0.0
H414 H 0.30181 0.96006 0.25878 0.0
C415 C 0.42126 0.98834 0.21784 0.0
H416 H 0.33056 0.997 0.18464 0.0
C417 C 0.40432 0.96615 0.25974 0.0
C418 C 0.3613 0.95607 0.27506 0.0
H419 H 0.45479 0.99653 0.20682 0.0
H420 H 0.42505 0.95754 0.28049 0.0
C421 C 0.33517 0.96771 0.2477 0.0
C422 C 0.98936 0.30837 0.24093 0.0
C423 C 0.00694 0.35371 0.25222 0.0
H424 H 0.95549 0.25632 0.18938 0.0
C425 C 0.00266 0.38127 0.22014 0.0
H426 H 0.9927 0.28653 0.26498 0.0
C427 C 0.98147 0.36414 0.17761 0.0
C428 C 0.96441 0.31909 0.16574 0.0
H429 H 0.01593 0.41632 0.2278 0.0
H430 H 0.97896 0.38656 0.15366 0.0
C431 C 0.96858 0.29121 0.19765 0.0
C432 C 0.13478 0.80769 0.36646 0.0
C433 C 0.17327 0.80825 0.34849 0.0
H434 H 0.0763 0.81291 0.35212 0.0
C435 C 0.17888 0.80882 0.30021 0.0
H436 H 0.13008 0.80785 0.40372 0.0
C437 C 0.14894 0.8132 0.27075 0.0
C438 C 0.11248 0.81649 0.28898 0.0
H439 H 0.20871 0.8103 0.28548 0.0
H440 H 0.15559 0.81592 0.23377 0.0
C441 C 0.10448 0.81145 0.337 0.0
C442 C 0.1813 0.30489 0.29191 0.0
C443 C 0.22142 0.3283 0.26663 0.0
H444 H 0.13152 0.30828 0.33349 0.0
C445 C 0.24121 0.37476 0.2624 0.0
H446 H 0.16531 0.26919 0.29605 0.0
C447 C 0.22208 0.39747 0.28438 0.0
C448 C 0.18275 0.37415 0.31101 0.0
H449 H 0.2723 0.39386 0.24328 0.0
H450 H 0.23834 0.43326 0.28091 0.0
C451 C 0.16223 0.32751 0.31384 0.0
C452 C 0.75239 0.8812 0.28981 0.0
C453 C 0.72979 0.90288 0.2744 0.0
H454 H 0.74716 0.82422 0.32294 0.0
C455 C 0.68256 0.88168 0.28002 0.0
H456 H 0.7887 0.89671 0.28646 0.0
C457 C 0.65867 0.84023 0.30151 0.0
C458 C 0.68147 0.81899 0.31764 0.0
H459 H 0.66407 0.89756 0.26874 0.0
H460 H 0.62244 0.82495 0.3056 0.0
C461 C 0.72851 0.83975 0.31107 0.0
C462 C 0.85252 0.19605 0.17698 0.0
C463 C 0.85031 0.15665 0.1603 0.0
H464 H 0.84252 0.2507 0.16305 0.0
C465 C 0.83482 0.14217 0.11467 0.0
H466 H 0.8645 0.20847 0.21188 0.0
C467 C 0.82265 0.16694 0.08636 0.0
C468 C 0.82536 0.20657 0.10303 0.0
H469 H 0.83217 0.11184 0.10077 0.0
H470 H 0.81176 0.15542 0.05099 0.0
C471 C 0.8395 0.22022 0.14908 0.0
C472 C 0.78524 0.62564 0.15287 0.0
C473 C 0.76039 0.64476 0.13653 0.0
H474 H 0.84608 0.63618 0.1848 0.0
C475 C 0.7777 0.69068 0.14423 0.0
H476 H 0.77275 0.59034 0.14824 0.0
C477 C 0.82007 0.71718 0.16565 0.0
C478 C 0.84578 0.69818 0.17968 0.0
H479 H 0.75925 0.70639 0.13236 0.0
H480 H 0.83357 0.75274 0.16916 0.0
C481 C 0.82729 0.65196 0.17414 0.0
C482 C 0.33572 0.16579 0.1446 0.0
C483 C 0.35424 0.18843 0.18685 0.0
H484 H 0.34533 0.13424 0.08442 0.0
C485 C 0.39941 0.20148 0.19779 0.0
H486 H 0.30119 0.15538 0.13509 0.0
C487 C 0.42492 0.19085 0.16817 0.0
C488 C 0.4056 0.16628 0.12741 0.0
H489 H 0.41488 0.21871 0.23015 0.0
H490 H 0.45864 0.19915 0.17872 0.0
C491 C 0.36112 0.15433 0.11535 0.0
C492 C 0.77725 0.13122 0.66971 0.0
C493 C 0.77995 0.12795 0.62121 0.0
H494 H 0.80936 0.13741 0.73562 0.0
C495 C 0.81727 0.12645 0.60243 0.0
H496 H 0.74929 0.13268 0.68541 0.0
C497 C 0.85001 0.12652 0.63123 0.0
C498 C 0.84738 0.1301 0.67942 0.0
H499 H 0.82126 0.12501 0.56521 0.0
H500 H 0.87878 0.12646 0.61565 0.0
C501 C 0.81109 0.13301 0.69845 0.0
C502 C 0.91955 0.7083 0.64022 0.0
C503 C 0.9583 0.7376 0.61545 0.0
H504 H 0.86669 0.70049 0.68508 0.0
C505 C 0.97395 0.78362 0.61808 0.0
H506 H 0.90709 0.67281 0.63959 0.0
C507 C 0.95047 0.7998 0.64414 0.0
C508 C 0.91138 0.77025 0.66862 0.0
H509 H 0.00395 0.80702 0.59943 0.0
H510 H 0.96244 0.83518 0.64444 0.0
C511 C 0.89667 0.7244 0.66674 0.0
C512 C 0.26863 0.18875 0.65724 0.0
C513 C 0.2893 0.17331 0.68765 0.0
H514 H 0.27795 0.23745 0.6074 0.0
C515 C 0.33643 0.19886 0.6946 0.0
H516 H 0.23252 0.16965 0.6509 0.0
C517 C 0.36273 0.23767 0.66944 0.0
C518 C 0.3424 0.25133 0.63641 0.0
H519 H 0.35329 0.18769 0.71799 0.0
H520 H 0.39902 0.25587 0.6745 0.0
C521 C 0.29492 0.22723 0.63172 0.0
C522 C 0.19775 0.86768 0.79568 0.0
C523 C 0.17891 0.89496 0.78831 0.0
H524 H 0.18973 0.80805 0.82556 0.0
C525 C 0.13575 0.88145 0.80592 0.0
H526 H 0.23101 0.87704 0.78268 0.0
C527 C 0.11203 0.84169 0.83027 0.0
C528 C 0.13099 0.81459 0.83794 0.0
H529 H 0.12021 0.90153 0.80088 0.0
H530 H 0.07888 0.83247 0.84351 0.0
C531 C 0.17414 0.82806 0.82033 0.0
C532 C 0.09418 0.26044 0.83374 0.0
C533 C 0.07895 0.21527 0.84164 0.0
H534 H 0.14114 0.32821 0.85166 0.0
C535 C 0.09797 0.20398 0.87835 0.0
H536 H 0.07916 0.27009 0.80653 0.0
C537 C 0.13424 0.23767 0.9042 0.0
C538 C 0.15064 0.28297 0.89481 0.0
H539 H 0.08607 0.16938 0.88578 0.0
H540 H 0.15052 0.22835 0.9303 0.0
C541 C 0.1291 0.29382 0.86033 0.0
C542 C 0.75916 0.84837 0.85228 0.0
C543 C 0.72971 0.816 0.82013 0.0
H544 H 0.76774 0.89501 0.90599 0.0
C545 C 0.68382 0.80391 0.8202 0.0
H546 H 0.79452 0.85798 0.8537 0.0
C547 C 0.66823 0.82521 0.85038 0.0
C548 C 0.69819 0.85888 0.88134 0.0
H549 H 0.66011 0.77873 0.79611 0.0
H550 H 0.63319 0.81654 0.8481 0.0
C551 C 0.74358 0.8693 0.88265 0.0
C552 C 0.50478 0.55079 0.5581 0.0
C553 C 0.53087 0.53114 0.56928 0.0
H554 H 0.49837 0.59688 0.5143 0.0
C555 C 0.57574 0.5516 0.55448 0.0
H556 H 0.4701 0.53593 0.56969 0.0
C557 C 0.59175 0.58646 0.52315 0.0
C558 C 0.56315 0.60128 0.50607 0.0
H559 H 0.59669 0.53743 0.56248 0.0
H560 H 0.62518 0.59882 0.50876 0.0
C561 C 0.5208 0.58568 0.52641 0.0
C562 C 0.48458 0.91328 0.54769 0.0
C563 C 0.50524 0.96005 0.55076 0.0
H564 H 0.42782 0.85184 0.52278 0.0
C565 C 0.48177 0.98027 0.5338 0.0
H566 H 0.50187 0.89667 0.5604 0.0
C567 C 0.43996 0.95477 0.51182 0.0
C568 C 0.42023 0.90827 0.50643 0.0
H569 H 0.49658 0.01611 0.53552 0.0
H570 H 0.42353 0.97185 0.49808 0.0
C571 C 0.44232 0.88757 0.52589 0.0
C572 C 0.07565 0.51504 0.48664 0.0
C573 C 0.04331 0.4806 0.45826 0.0
H574 H 0.09087 0.57042 0.53149 0.0
C575 C 0.99907 0.47349 0.4567 0.0
H576 H 0.1097 0.52081 0.48929 0.0
C577 C 0.98811 0.50178 0.48111 0.0
C578 C 0.02119 0.53764 0.50756 0.0
H579 H 0.97317 0.4468 0.43556 0.0
H580 H 0.95443 0.49683 0.47741 0.0
C581 C 0.06466 0.54316 0.51117 0.0
C582 C 0.43862 0.51922 0.97257 0.0
C583 C 0.4238 0.48157 0.9434 0.0
H584 H 0.49307 0.56888 0.01481 0.0
C585 C 0.45346 0.46569 0.93372 0.0
H586 H 0.4165 0.53218 0.98052 0.0
C587 C 0.49628 0.48588 0.95368 0.0
C588 C 0.51115 0.52317 -0.01694 0.0
H589 H 0.44331 0.43677 0.91147 0.0
H590 H 0.51774 0.472 0.94626 0.0
C591 C 0.48236 0.54028 -0.00815 0.0
C592 C 0.52646 0.00034 0.90825 0.0
C593 C 0.51312 0.95554 0.91646 0.0
H594 H 0.52013 0.05641 0.92858 0.0
C595 C 0.47571 0.93042 0.94511 0.0
H596 H 0.55485 0.02062 0.88594 0.0
C597 C 0.45556 0.95103 0.96924 0.0
C598 C 0.47293 0.99713 0.96554 0.0
H599 H 0.46446 0.89584 0.95201 0.0
H600 H 0.42859 0.9315 -0.00668 0.0
C601 C 0.50704 0.02112 0.93315 0.0
C602 C 0.03711 0.53925 0.02065 0.0
C603 C 0.02074 0.56126 -0.00656 0.0
H604 H 0.02114 0.48113 0.05926 0.0
C605 C 0.97369 0.54175 -0.01263 0.0
H606 H 0.07304 0.55359 0.02652 0.0
C607 C 0.94379 0.50027 0.00634 0.0
C608 C 0.96028 0.47741 0.03193 0.0
H609 H 0.95988 0.55804 0.96694 0.0
H610 H 0.90797 0.48532 -0.00071 0.0
C611 C 0.00722 0.49788 0.03979 0.0
loop_
_geom_bond_atom_site_label_1
_geom_bond_atom_site_label_2
_geom_bond_distance
_geom_bond_site_symmetry_2
_ccdc_geom_bond_type
C0 O1 1.306 1_655 S
C0 O3 1.160 . S
O1 C0 1.306 1_455 S
O1 Cd2 2.228 . S
Cd2 O1 2.228 . S
Cd2 O6 2.273 . S
Cd2 O10 2.277 . S
O3 C0 1.160 . S
O3 Cd4 2.203 1_655 S
Cd4 O3 2.203 1_455 S
Cd4 O6 2.411 . S
Cd4 O7 2.333 . S
Cd4 O8 2.352 1_455 S
Cd4 O12 2.277 . S
Cd4 O13 2.356 1_455 S
C5 O10 1.209 . S
C5 O12 1.226 . S
O6 Cd2 2.273 . S
O6 Cd4 2.411 . S
O6 C9 1.320 . S
O7 Cd4 2.333 . S
O7 C9 1.214 . S
O8 Cd4 2.352 1_655 S
O8 C11 1.258 . S
C9 O6 1.320 . S
C9 O7 1.214 . S
O10 Cd2 2.277 . S
O10 C5 1.209 . S
C11 O8 1.258 . S
C11 O13 1.282 . S
O12 Cd4 2.277 . S
O12 C5 1.226 . S
O13 Cd4 2.356 1_655 S
O13 C11 1.282 . S
C14 O15 1.306 . S
C14 O17 1.160 . S
O15 C14 1.306 . S
O15 Cd16 2.228 . S
Cd16 O15 2.228 . S
Cd16 O20 2.273 . S
Cd16 O24 2.277 . S
O17 C14 1.160 . S
O17 Cd18 2.203 . S
Cd18 O17 2.203 . S
Cd18 O20 2.411 . S
Cd18 O21 2.333 . S
Cd18 O22 2.352 . S
Cd18 O26 2.277 . S
Cd18 O27 2.356 . S
C19 O24 1.209 . S
C19 O26 1.226 . S
O20 Cd16 2.273 . S
O20 Cd18 2.411 . S
O20 C23 1.320 . S
O21 Cd18 2.333 . S
O21 C23 1.214 . S
O22 Cd18 2.352 . S
O22 C25 1.258 . S
C23 O20 1.320 . S
C23 O21 1.214 . S
O24 Cd16 2.277 . S
O24 C19 1.209 . S
C25 O22 1.258 . S
C25 O27 1.282 . S
O26 Cd18 2.277 . S
O26 C19 1.226 . S
O27 Cd18 2.356 . S
O27 C25 1.282 . S
C28 O29 1.306 1_565 S
C28 O31 1.160 . S
O29 C28 1.306 1_545 S
O29 Cd30 2.228 . S
Cd30 O29 2.228 . S
Cd30 O34 2.273 . S
Cd30 O38 2.277 . S
O31 C28 1.160 . S
O31 Cd32 2.203 1_565 S
Cd32 O31 2.203 1_545 S
Cd32 O34 2.411 . S
Cd32 O35 2.333 . S
Cd32 O36 2.352 1_545 S
Cd32 O40 2.277 . S
Cd32 O41 2.356 1_545 S
C33 O38 1.209 . S
C33 O40 1.226 . S
O34 Cd30 2.273 . S
O34 Cd32 2.411 . S
O34 C37 1.320 . S
O35 Cd32 2.333 . S
O35 C37 1.214 . S
O36 Cd32 2.352 1_565 S
O36 C39 1.258 . S
C37 O34 1.320 . S
C37 O35 1.214 . S
O38 Cd30 2.277 . S
O38 C33 1.209 . S
C39 O36 1.258 . S
C39 O41 1.282 . S
O40 Cd32 2.277 . S
O40 C33 1.226 . S
O41 Cd32 2.356 1_565 S
O41 C39 1.282 . S
C42 O43 1.306 . S
C42 O45 1.160 . S
O43 C42 1.306 . S
O43 Cd44 2.228 1_455 S
Cd44 O43 2.228 1_655 S
Cd44 O48 2.273 . S
Cd44 O52 2.277 . S
O45 C42 1.160 . S
O45 Cd46 2.203 . S
Cd46 O45 2.203 . S
Cd46 O48 2.411 1_455 S
Cd46 O49 2.333 1_455 S
Cd46 O50 2.352 . S
Cd46 O54 2.277 1_455 S
Cd46 O55 2.356 . S
C47 O52 1.209 . S
C47 O54 1.226 . S
O48 Cd44 2.273 . S
O48 Cd46 2.411 1_655 S
O48 C51 1.320 . S
O49 Cd46 2.333 1_655 S
O49 C51 1.214 . S
O50 Cd46 2.352 . S
O50 C53 1.258 . S
C51 O48 1.320 . S
C51 O49 1.214 . S
O52 Cd44 2.277 . S
O52 C47 1.209 . S
C53 O50 1.258 . S
C53 O55 1.282 . S
O54 Cd46 2.277 1_655 S
O54 C47 1.226 . S
O55 Cd46 2.356 . S
O55 C53 1.282 . S
C56 O57 1.306 . S
C56 O59 1.160 . S
O57 C56 1.306 . S
O57 Cd58 2.228 . S
Cd58 O57 2.228 . S
Cd58 O62 2.273 . S
Cd58 O66 2.277 . S
O59 C56 1.160 . S
O59 Cd60 2.203 . S
Cd60 O59 2.203 . S
Cd60 O62 2.411 . S
Cd60 O63 2.333 . S
Cd60 O64 2.352 . S
Cd60 O68 2.277 . S
Cd60 O69 2.356 . S
C61 O66 1.209 . S
C61 O68 1.226 . S
O62 Cd58 2.273 . S
O62 Cd60 2.411 . S
O62 C65 1.320 . S
O63 Cd60 2.333 . S
O63 C65 1.214 . S
O64 Cd60 2.352 . S
O64 C67 1.258 . S
C65 O62 1.320 . S
C65 O63 1.214 . S
O66 Cd58 2.277 . S
O66 C61 1.209 . S
C67 O64 1.258 . S
C67 O69 1.282 . S
O68 Cd60 2.277 . S
O68 C61 1.226 . S
O69 Cd60 2.356 . S
O69 C67 1.282 . S
C70 O71 1.306 1_545 S
C70 O73 1.160 . S
O71 C70 1.306 1_565 S
O71 Cd72 2.228 . S
Cd72 O71 2.228 . S
Cd72 O76 2.273 . S
Cd72 O80 2.277 . S
O73 C70 1.160 . S
O73 Cd74 2.203 . S
Cd74 O73 2.203 . S
Cd74 O76 2.411 1_545 S
Cd74 O77 2.333 1_545 S
Cd74 O78 2.352 . S
Cd74 O82 2.277 1_545 S
Cd74 O83 2.356 . S
C75 O80 1.209 . S
C75 O82 1.226 . S
O76 Cd72 2.273 . S
O76 Cd74 2.411 1_565 S
O76 C79 1.320 . S
O77 Cd74 2.333 1_565 S
O77 C79 1.214 . S
O78 Cd74 2.352 . S
O78 C81 1.258 . S
C79 O76 1.320 . S
C79 O77 1.214 . S
O80 Cd72 2.277 . S
O80 C75 1.209 . S
C81 O78 1.258 . S
C81 O83 1.282 . S
O82 Cd74 2.277 1_565 S
O82 C75 1.226 . S
O83 Cd74 2.356 . S
O83 C81 1.282 . S
C84 O85 1.306 . S
C84 O87 1.160 . S
O85 C84 1.306 . S
O85 Cd86 2.228 . S
Cd86 O85 2.228 . S
Cd86 O90 2.273 . S
Cd86 O94 2.277 . S
O87 C84 1.160 . S
O87 Cd88 2.203 . S
Cd88 O87 2.203 . S
Cd88 O90 2.411 . S
Cd88 O91 2.333 . S
Cd88 O92 2.352 . S
Cd88 O96 2.277 . S
Cd88 O97 2.356 . S
C89 O94 1.209 . S
C89 O96 1.226 . S
O90 Cd86 2.273 . S
O90 Cd88 2.411 . S
O90 C93 1.320 . S
O91 Cd88 2.333 . S
O91 C93 1.214 . S
O92 Cd88 2.352 . S
O92 C95 1.258 . S
C93 O90 1.320 . S
C93 O91 1.214 . S
O94 Cd86 2.277 . S
O94 C89 1.209 . S
C95 O92 1.258 . S
C95 O97 1.282 . S
O96 Cd88 2.277 . S
O96 C89 1.226 . S
O97 Cd88 2.356 . S
O97 C95 1.282 . S
C98 O99 1.306 . S
C98 O101 1.160 . S
O99 C98 1.306 . S
O99 Cd100 2.228 . S
Cd100 O99 2.228 . S
Cd100 O104 2.273 . S
Cd100 O108 2.277 . S
O101 C98 1.160 . S
O101 Cd102 2.203 . S
Cd102 O101 2.203 . S
Cd102 O104 2.411 . S
Cd102 O105 2.333 . S
Cd102 O106 2.352 . S
Cd102 O110 2.277 . S
Cd102 O111 2.356 . S
C103 O108 1.209 . S
C103 O110 1.226 . S
O104 Cd100 2.273 . S
O104 Cd102 2.411 . S
O104 C107 1.320 . S
O105 Cd102 2.333 . S
O105 C107 1.214 . S
O106 Cd102 2.352 . S
O106 C109 1.258 . S
C107 O104 1.320 . S
C107 O105 1.214 . S
O108 Cd100 2.277 . S
O108 C103 1.209 . S
C109 O106 1.258 . S
C109 O111 1.282 . S
O110 Cd102 2.277 . S
O110 C103 1.226 . S
O111 Cd102 2.356 . S
O111 C109 1.282 . S
C112 O113 1.306 . S
C112 O115 1.160 . S
O113 C112 1.306 . S
O113 Cd114 2.228 . S
Cd114 O113 2.228 . S
Cd114 O118 2.273 . S
Cd114 O122 2.277 . S
O115 C112 1.160 . S
O115 Cd116 2.203 . S
Cd116 O115 2.203 . S
Cd116 O118 2.411 . S
Cd116 O119 2.333 . S
Cd116 O120 2.352 . S
Cd116 O124 2.277 . S
Cd116 O125 2.356 . S
C117 O122 1.209 . S
C117 O124 1.226 . S
O118 Cd114 2.273 . S
O118 Cd116 2.411 . S
O118 C121 1.320 . S
O119 Cd116 2.333 . S
O119 C121 1.214 . S
O120 Cd116 2.352 . S
O120 C123 1.258 . S
C121 O118 1.320 . S
C121 O119 1.214 . S
O122 Cd114 2.277 . S
O122 C117 1.209 . S
C123 O120 1.258 . S
C123 O125 1.282 . S
O124 Cd116 2.277 . S
O124 C117 1.226 . S
O125 Cd116 2.356 . S
O125 C123 1.282 . S
C126 O127 1.306 . S
C126 O129 1.160 . S
O127 C126 1.306 . S
O127 Cd128 2.228 . S
Cd128 O127 2.228 . S
Cd128 O132 2.273 . S
Cd128 O136 2.277 . S
O129 C126 1.160 . S
O129 Cd130 2.203 . S
Cd130 O129 2.203 . S
Cd130 O132 2.411 . S
Cd130 O133 2.333 . S
Cd130 O134 2.352 . S
Cd130 O138 2.277 . S
Cd130 O139 2.356 . S
C131 O136 1.209 . S
C131 O138 1.226 . S
O132 Cd128 2.273 . S
O132 Cd130 2.411 . S
O132 C135 1.320 . S
O133 Cd130 2.333 . S
O133 C135 1.214 . S
O134 Cd130 2.352 . S
O134 C137 1.258 1_554 S
C135 O132 1.320 . S
C135 O133 1.214 . S
O136 Cd128 2.277 . S
O136 C131 1.209 . S
C137 O134 1.258 1_556 S
C137 O139 1.282 1_556 S
O138 Cd130 2.277 . S
O138 C131 1.226 . S
O139 Cd130 2.356 . S
O139 C137 1.282 1_554 S
C140 O141 1.306 . S
C140 O143 1.160 . S
O141 C140 1.306 . S
O141 Cd142 2.228 . S
Cd142 O141 2.228 . S
Cd142 O146 2.273 . S
Cd142 O150 2.277 . S
O143 C140 1.160 . S
O143 Cd144 2.203 . S
Cd144 O143 2.203 . S
Cd144 O146 2.411 . S
Cd144 O147 2.333 . S
Cd144 O148 2.352 1_554 S
Cd144 O152 2.277 . S
Cd144 O153 2.356 . S
C145 O150 1.209 . S
C145 O152 1.226 . S
O146 Cd142 2.273 . S
O146 Cd144 2.411 . S
O146 C149 1.320 . S
O147 Cd144 2.333 . S
O147 C149 1.214 . S
O148 Cd144 2.352 1_556 S
O148 C151 1.258 . S
C149 O146 1.320 . S
C149 O147 1.214 . S
O150 Cd142 2.277 . S
O150 C145 1.209 . S
C151 O148 1.258 . S
C151 O153 1.282 1_556 S
O152 Cd144 2.277 . S
O152 C145 1.226 . S
O153 Cd144 2.356 . S
O153 C151 1.282 1_554 S
C154 O155 1.306 . S
C154 O157 1.160 . S
O155 C154 1.306 . S
O155 Cd156 2.228 . S
Cd156 O155 2.228 . S
Cd156 O160 2.273 . S
Cd156 O164 2.277 . S
O157 C154 1.160 . S
O157 Cd158 2.203 . S
Cd158 O157 2.203 . S
Cd158 O160 2.411 . S
Cd158 O161 2.333 . S
Cd158 O162 2.352 . S
Cd158 O166 2.277 . S
Cd158 O167 2.356 . S
C159 O164 1.209 . S
C159 O166 1.226 . S
O160 Cd156 2.273 . S
O160 Cd158 2.411 . S
O160 C163 1.320 . S
O161 Cd158 2.333 . S
O161 C163 1.214 . S
O162 Cd158 2.352 . S
O162 C165 1.258 . S
C163 O160 1.320 . S
C163 O161 1.214 . S
O164 Cd156 2.277 . S
O164 C159 1.209 . S
C165 O162 1.258 . S
C165 O167 1.282 . S
O166 Cd158 2.277 . S
O166 C159 1.226 . S
O167 Cd158 2.356 . S
O167 C165 1.282 . S
C168 O169 1.306 1_554 S
C168 O171 1.160 1_554 S
O169 C168 1.306 1_556 S
O169 Cd170 2.228 . S
Cd170 O169 2.228 . S
Cd170 O174 2.273 . S
Cd170 O178 2.277 . S
O171 C168 1.160 1_556 S
O171 Cd172 2.203 . S
Cd172 O171 2.203 . S
Cd172 O174 2.411 . S
Cd172 O175 2.333 . S
Cd172 O176 2.352 . S
Cd172 O180 2.277 . S
Cd172 O181 2.356 . S
C173 O178 1.209 . S
C173 O180 1.226 . S
O174 Cd170 2.273 . S
O174 Cd172 2.411 . S
O174 C177 1.320 . S
O175 Cd172 2.333 . S
O175 C177 1.214 . S
O176 Cd172 2.352 . S
O176 C179 1.258 . S
C177 O174 1.320 . S
C177 O175 1.214 . S
O178 Cd170 2.277 . S
O178 C173 1.209 . S
C179 O176 1.258 . S
C179 O181 1.282 . S
O180 Cd172 2.277 . S
O180 C173 1.226 . S
O181 Cd172 2.356 . S
O181 C179 1.282 . S
C182 O183 1.306 . S
C182 O185 1.160 . S
O183 C182 1.306 . S
O183 Cd184 2.228 . S
Cd184 O183 2.228 . S
Cd184 O188 2.273 . S
Cd184 O192 2.277 . S
O185 C182 1.160 . S
O185 Cd186 2.203 . S
Cd186 O185 2.203 . S
Cd186 O188 2.411 . S
Cd186 O189 2.333 . S
Cd186 O190 2.352 . S
Cd186 O194 2.277 . S
Cd186 O195 2.356 . S
C187 O192 1.209 . S
C187 O194 1.226 . S
O188 Cd184 2.273 . S
O188 Cd186 2.411 . S
O188 C191 1.320 . S
O189 Cd186 2.333 . S
O189 C191 1.214 . S
O190 Cd186 2.352 . S
O190 C193 1.258 . S
C191 O188 1.320 . S
C191 O189 1.214 . S
O192 Cd184 2.277 . S
O192 C187 1.209 . S
C193 O190 1.258 . S
C193 O195 1.282 . S
O194 Cd186 2.277 . S
O194 C187 1.226 . S
O195 Cd186 2.356 . S
O195 C193 1.282 . S
C196 O197 1.306 . S
C196 O199 1.160 . S
O197 C196 1.306 . S
O197 Cd198 2.228 . S
Cd198 O197 2.228 . S
Cd198 O202 2.273 . S
Cd198 O206 2.277 . S
O199 C196 1.160 . S
O199 Cd200 2.203 . S
Cd200 O199 2.203 . S
Cd200 O202 2.411 . S
Cd200 O203 2.312 1_556 S
Cd200 O204 2.352 . S
Cd200 O208 2.277 . S
Cd200 O209 2.356 . S
C201 O206 1.209 . S
C201 O208 1.226 . S
O202 Cd198 2.273 . S
O202 Cd200 2.411 . S
O202 C205 1.320 . S
O203 Cd200 2.312 1_554 S
O203 C205 1.212 1_554 S
O204 Cd200 2.352 . S
O204 C207 1.258 . S
C205 O202 1.320 . S
C205 O203 1.212 1_556 S
O206 Cd198 2.277 . S
O206 C201 1.209 . S
C207 O204 1.258 . S
C207 O209 1.282 . S
O208 Cd200 2.277 . S
O208 C201 1.226 . S
O209 Cd200 2.356 . S
O209 C207 1.282 . S
C210 O211 1.306 . S
C210 O213 1.160 . S
O211 C210 1.306 . S
O211 Cd212 2.228 . S
Cd212 O211 2.228 . S
Cd212 O216 2.273 . S
Cd212 O220 2.277 . S
O213 C210 1.160 . S
O213 Cd214 2.203 . S
Cd214 O213 2.203 . S
Cd214 O216 2.411 . S
Cd214 O217 2.333 . S
Cd214 O218 2.352 . S
Cd214 O222 2.277 . S
Cd214 O223 2.356 . S
C215 O220 1.209 . S
C215 O222 1.226 . S
O216 Cd212 2.273 . S
O216 Cd214 2.411 . S
O216 C219 1.320 . S
O217 Cd214 2.333 . S
O217 C219 1.214 . S
O218 Cd214 2.352 . S
O218 C221 1.258 . S
C219 O216 1.320 . S
C219 O217 1.214 . S
O220 Cd212 2.277 . S
O220 C215 1.209 . S
C221 O218 1.258 . S
C221 O223 1.282 . S
O222 Cd214 2.277 . S
O222 C215 1.226 . S
O223 Cd214 2.356 . S
O223 C221 1.282 . S
C224 O225 1.306 . S
C224 O227 1.160 . S
O225 C224 1.306 . S
O225 Cd226 2.228 . S
Cd226 O225 2.228 . S
Cd226 O230 2.273 . S
Cd226 O234 2.277 . S
O227 C224 1.160 . S
O227 Cd228 2.203 . S
Cd228 O227 2.203 . S
Cd228 O230 2.411 . S
Cd228 O231 2.333 . S
Cd228 O232 2.352 . S
Cd228 O236 2.277 . S
Cd228 O237 2.356 . S
C229 O234 1.209 . S
C229 O236 1.226 . S
O230 Cd226 2.273 . S
O230 Cd228 2.411 . S
O230 C233 1.320 . S
O231 Cd228 2.333 . S
O231 C233 1.214 . S
O232 Cd228 2.352 . S
O232 C235 1.258 . S
C233 O230 1.320 . S
C233 O231 1.214 . S
O234 Cd226 2.277 . S
O234 C229 1.209 . S
C235 O232 1.258 . S
C235 O237 1.282 . S
O236 Cd228 2.277 . S
O236 C229 1.226 . S
O237 Cd228 2.356 . S
O237 C235 1.282 . S
C238 O239 1.306 . S
C238 O241 1.160 . S
O239 C238 1.306 . S
O239 Cd240 2.228 . S
Cd240 O239 2.228 . S
Cd240 O244 2.273 . S
Cd240 O248 2.277 . S
O241 C238 1.160 . S
O241 Cd242 2.203 . S
Cd242 O241 2.203 . S
Cd242 O244 2.411 . S
Cd242 O245 2.333 . S
Cd242 O246 2.352 . S
Cd242 O250 2.277 . S
Cd242 O251 2.356 . S
C243 O248 1.209 . S
C243 O250 1.226 . S
O244 Cd240 2.273 . S
O244 Cd242 2.411 . S
O244 C247 1.320 . S
O245 Cd242 2.333 . S
O245 C247 1.214 . S
O246 Cd242 2.352 . S
O246 C249 1.258 . S
C247 O244 1.320 . S
C247 O245 1.214 . S
O248 Cd240 2.277 . S
O248 C243 1.209 . S
C249 O246 1.258 . S
C249 O251 1.282 . S
O250 Cd242 2.277 . S
O250 C243 1.226 . S
O251 Cd242 2.356 . S
O251 C249 1.282 . S
C252 C253 1.387 . S
C252 H256 0.950 . S
C252 C261 1.390 . S
C253 C252 1.387 . S
C253 C255 1.387 . S
H254 C261 0.950 . S
C255 C253 1.387 . S
C255 C257 1.390 . S
C255 H259 0.950 . S
H256 C252 0.950 . S
C257 C255 1.390 . S
C257 C258 1.387 . S
C257 H260 0.950 . S
C258 C257 1.387 . S
C258 C261 1.387 . S
H259 C255 0.950 . S
H260 C257 0.950 . S
C261 C252 1.390 . S
C261 H254 0.950 . S
C261 C258 1.387 . S
C262 C263 1.387 . S
C262 H266 0.950 . S
C262 C271 1.390 . S
C263 C262 1.387 . S
C263 C265 1.387 . S
H264 C271 0.950 . S
C265 C263 1.387 . S
C265 C267 1.390 . S
C265 H269 0.950 . S
H266 C262 0.950 . S
C267 C265 1.390 . S
C267 C268 1.387 . S
C267 H270 0.950 . S
C268 C267 1.387 . S
C268 C271 1.387 . S
H269 C265 0.950 . S
H270 C267 0.950 . S
C271 C262 1.390 . S
C271 H264 0.950 . S
C271 C268 1.387 . S
C272 C273 1.387 1_545 S
C272 H276 0.950 . S
C272 C281 1.390 1_545 S
C273 C272 1.387 1_565 S
C273 C275 1.387 . S
H274 C281 0.950 1_545 S
C275 C273 1.387 . S
C275 C277 1.390 . S
C275 H279 0.950 . S
H276 C272 0.950 . S
C277 C275 1.390 . S
C277 C278 1.387 . S
C277 H280 0.950 . S
C278 C277 1.387 . S
C278 C281 1.387 . S
H279 C275 0.950 . S
H280 C277 0.950 . S
C281 C272 1.390 1_565 S
C281 H274 0.950 1_565 S
C281 C278 1.387 . S
C282 C283 1.387 . S
C282 H286 0.950 . S
C282 C291 1.390 . S
C283 C282 1.387 . S
C283 C285 1.387 . S
H284 C291 0.950 1_565 S
C285 C283 1.387 . S
C285 C287 1.390 . S
C285 H289 0.950 . S
H286 C282 0.950 . S
C287 C285 1.390 . S
C287 C288 1.387 . S
C287 H290 0.950 . S
C288 C287 1.387 . S
C288 C291 1.387 . S
H289 C285 0.950 . S
H290 C287 0.950 . S
C291 C282 1.390 . S
C291 H284 0.950 1_545 S
C291 C288 1.387 . S
C292 C293 1.387 . S
C292 H296 0.950 . S
C292 C301 1.390 . S
C293 C292 1.387 . S
C293 C295 1.387 1_655 S
H294 C301 0.950 . S
C295 C293 1.387 1_455 S
C295 C297 1.390 . S
C295 H299 0.950 . S
H296 C292 0.950 . S
C297 C295 1.390 . S
C297 C298 1.387 1_455 S
C297 H300 0.950 . S
C298 C297 1.387 1_655 S
C298 C301 1.387 . S
H299 C295 0.950 . S
H300 C297 0.950 . S
C301 C292 1.390 . S
C301 H294 0.950 . S
C301 C298 1.387 . S
C302 C303 1.387 . S
C302 H306 0.950 . S
C302 C311 1.390 . S
C303 C302 1.387 . S
C303 C305 1.387 . S
H304 C311 0.950 . S
C305 C303 1.387 . S
C305 C307 1.390 . S
C305 H309 0.950 . S
H306 C302 0.950 . S
C307 C305 1.390 . S
C307 C308 1.387 . S
C307 H310 0.950 . S
C308 C307 1.387 . S
C308 C311 1.387 . S
H309 C305 0.950 . S
H310 C307 0.950 . S
C311 C302 1.390 . S
C311 H304 0.950 . S
C311 C308 1.387 . S
C312 C313 1.387 . S
C312 H316 0.950 1_655 S
C312 C321 1.390 . S
C313 C312 1.387 . S
C313 C315 1.387 . S
H314 C321 0.950 . S
C315 C313 1.387 . S
C315 C317 1.390 . S
C315 H319 0.950 . S
H316 C312 0.950 1_455 S
C317 C315 1.390 . S
C317 C318 1.387 . S
C317 H320 0.950 . S
C318 C317 1.387 . S
C318 C321 1.387 . S
H319 C315 0.950 . S
H320 C317 0.950 . S
C321 C312 1.390 . S
C321 H314 0.950 . S
C321 C318 1.387 . S
C322 C323 1.387 . S
C322 H326 0.950 . S
C322 C331 1.390 . S
C323 C322 1.387 . S
C323 C325 1.387 . S
H324 C331 0.950 . S
C325 C323 1.387 . S
C325 C327 1.390 . S
C325 H329 0.950 . S
H326 C322 0.950 . S
C327 C325 1.390 . S
C327 C328 1.387 . S
C327 H330 0.950 . S
C328 C327 1.387 . S
C328 C331 1.387 . S
H329 C325 0.950 . S
H330 C327 0.950 . S
C331 C322 1.390 . S
C331 H324 0.950 . S
C331 C328 1.387 . S
C332 C333 1.387 . S
C332 H336 0.950 1_545 S
C332 C341 1.390 . S
C333 C332 1.387 . S
C333 C335 1.387 . S
H334 C341 0.950 1_565 S
C335 C333 1.387 . S
C335 C337 1.390 . S
C335 H339 0.950 . S
H336 C332 0.950 1_565 S
C337 C335 1.390 . S
C337 C338 1.387 . S
C337 H340 0.950 . S
C338 C337 1.387 . S
C338 C341 1.387 . S
H339 C335 0.950 . S
H340 C337 0.950 . S
C341 C332 1.390 . S
C341 H334 0.950 1_545 S
C341 C338 1.387 . S
C342 C343 1.387 . S
C342 H346 0.950 . S
C342 C351 1.390 . S
C343 C342 1.387 . S
C343 C345 1.387 . S
H344 C351 0.950 . S
C345 C343 1.387 . S
C345 C347 1.390 . S
C345 H349 0.950 1_565 S
H346 C342 0.950 . S
C347 C345 1.390 . S
C347 C348 1.387 . S
C347 H350 0.950 . S
C348 C347 1.387 . S
C348 C351 1.387 . S
H349 C345 0.950 1_545 S
H350 C347 0.950 . S
C351 C342 1.390 . S
C351 H344 0.950 . S
C351 C348 1.387 . S
C352 C353 1.387 . S
C352 H356 0.950 1_455 S
C352 C361 1.390 . S
C353 C352 1.387 . S
C353 C355 1.387 . S
H354 C361 0.950 . S
C355 C353 1.387 . S
C355 C357 1.390 . S
C355 H359 0.950 . S
H356 C352 0.950 1_655 S
C357 C355 1.390 . S
C357 C358 1.387 . S
C357 H360 0.950 . S
C358 C357 1.387 . S
C358 C361 1.387 . S
H359 C355 0.950 . S
H360 C357 0.950 . S
C361 C352 1.390 . S
C361 H354 0.950 . S
C361 C358 1.387 . S
C362 C363 1.387 . S
C362 H366 0.950 . S
C362 C371 1.390 . S
C363 C362 1.387 . S
C363 C365 1.387 . S
H364 C371 0.950 . S
C365 C363 1.387 . S
C365 C367 1.390 . S
C365 H369 0.950 . S
H366 C362 0.950 . S
C367 C365 1.390 . S
C367 C368 1.387 . S
C367 H370 0.950 . S
C368 C367 1.387 . S
C368 C371 1.387 . S
H369 C365 0.950 . S
H370 C367 0.950 . S
C371 C362 1.390 . S
C371 H364 0.950 . S
C371 C368 1.387 . S
C372 C373 1.387 . S
C372 H376 0.950 . S
C372 C381 1.390 . S
C373 C372 1.387 . S
C373 C375 1.387 . S
H374 C381 0.950 . S
C375 C373 1.387 . S
C375 C377 1.390 . S
C375 H379 0.950 . S
H376 C372 0.950 . S
C377 C375 1.390 . S
C377 C378 1.387 . S
C377 H380 0.950 . S
C378 C377 1.387 . S
C378 C381 1.387 . S
H379 C375 0.950 . S
H380 C377 0.950 . S
C381 C372 1.390 . S
C381 H374 0.950 . S
C381 C378 1.387 . S
C382 C383 1.387 . S
C382 H386 0.950 . S
C382 C391 1.390 . S
C383 C382 1.387 . S
C383 C385 1.387 . S
H384 C391 0.950 1_565 S
C385 C383 1.387 . S
C385 C387 1.390 1_545 S
C385 H389 0.950 . S
H386 C382 0.950 . S
C387 C385 1.390 1_565 S
C387 C388 1.387 . S
C387 H390 0.950 . S
C388 C387 1.387 . S
C388 C391 1.387 1_565 S
H389 C385 0.950 . S
H390 C387 0.950 . S
C391 C382 1.390 . S
C391 H384 0.950 1_545 S
C391 C388 1.387 1_545 S
C392 C393 1.387 . S
C392 H396 0.950 1_455 S
C392 C401 1.390 1_455 S
C393 C392 1.387 . S
C393 C395 1.387 . S
H394 C401 0.950 . S
C395 C393 1.387 . S
C395 C397 1.390 . S
C395 H399 0.950 . S
H396 C392 0.950 1_655 S
C397 C395 1.390 . S
C397 C398 1.387 . S
C397 H400 0.950 . S
C398 C397 1.387 . S
C398 C401 1.387 1_455 S
H399 C395 0.950 . S
H400 C397 0.950 . S
C401 C392 1.390 1_655 S
C401 H394 0.950 . S
C401 C398 1.387 1_655 S
C402 C403 1.387 . S
C402 H406 0.950 . S
C402 C411 1.390 . S
C403 C402 1.387 . S
C403 C405 1.387 . S
H404 C411 0.950 . S
C405 C403 1.387 . S
C405 C407 1.390 . S
C405 H409 0.950 . S
H406 C402 0.950 . S
C407 C405 1.390 . S
C407 C408 1.387 . S
C407 H410 0.950 . S
C408 C407 1.387 . S
C408 C411 1.387 . S
H409 C405 0.950 . S
H410 C407 0.950 . S
C411 C402 1.390 . S
C411 H404 0.950 . S
C411 C408 1.387 . S
C412 C413 1.387 . S
C412 H416 0.950 . S
C412 C421 1.390 1_545 S
C413 C412 1.387 . S
C413 C415 1.387 . S
H414 C421 0.950 . S
C415 C413 1.387 . S
C415 C417 1.390 1_545 S
C415 H419 0.950 . S
H416 C412 0.950 . S
C417 C415 1.390 1_565 S
C417 C418 1.387 . S
C417 H420 0.950 . S
C418 C417 1.387 . S
C418 C421 1.387 . S
H419 C415 0.950 . S
H420 C417 0.950 . S
C421 C412 1.390 1_565 S
C421 H414 0.950 . S
C421 C418 1.387 . S
C422 C423 1.387 . S
C422 H426 0.950 1_455 S
C422 C431 1.390 1_455 S
C423 C422 1.387 . S
C423 C425 1.387 . S
H424 C431 0.950 . S
C425 C423 1.387 . S
C425 C427 1.390 . S
C425 H429 0.950 . S
H426 C422 0.950 1_655 S
C427 C425 1.390 . S
C427 C428 1.387 1_455 S
C427 H430 0.950 . S
C428 C427 1.387 1_655 S
C428 C431 1.387 . S
H429 C425 0.950 . S
H430 C427 0.950 . S
C431 C422 1.390 1_655 S
C431 H424 0.950 . S
C431 C428 1.387 . S
C432 C433 1.387 . S
C432 H436 0.950 . S
C432 C441 1.390 . S
C433 C432 1.387 . S
C433 C435 1.387 . S
H434 C441 0.950 . S
C435 C433 1.387 . S
C435 C437 1.390 . S
C435 H439 0.950 . S
H436 C432 0.950 . S
C437 C435 1.390 . S
C437 C438 1.387 . S
C437 H440 0.950 . S
C438 C437 1.387 . S
C438 C441 1.387 . S
H439 C435 0.950 . S
H440 C437 0.950 . S
C441 C432 1.390 . S
C441 H434 0.950 . S
C441 C438 1.387 . S
C442 C443 1.387 . S
C442 H446 0.950 . S
C442 C451 1.390 . S
C443 C442 1.387 . S
C443 C445 1.387 . S
H444 C451 0.950 . S
C445 C443 1.387 . S
C445 C447 1.390 . S
C445 H449 0.950 . S
H446 C442 0.950 . S
C447 C445 1.390 . S
C447 C448 1.387 . S
C447 H450 0.950 . S
C448 C447 1.387 . S
C448 C451 1.387 . S
H449 C445 0.950 . S
H450 C447 0.950 . S
C451 C442 1.390 . S
C451 H444 0.950 . S
C451 C448 1.387 . S
C452 C453 1.387 . S
C452 H456 0.950 . S
C452 C461 1.390 . S
C453 C452 1.387 . S
C453 C455 1.387 . S
H454 C461 0.950 . S
C455 C453 1.387 . S
C455 C457 1.390 . S
C455 H459 0.950 . S
H456 C452 0.950 . S
C457 C455 1.390 . S
C457 C458 1.387 . S
C457 H460 0.950 . S
C458 C457 1.387 . S
C458 C461 1.387 . S
H459 C455 0.950 . S
H460 C457 0.950 . S
C461 C452 1.390 . S
C461 H454 0.950 . S
C461 C458 1.387 . S
C462 C463 1.387 . S
C462 H466 0.950 . S
C462 C471 1.390 . S
C463 C462 1.387 . S
C463 C465 1.387 . S
H464 C471 0.950 . S
C465 C463 1.387 . S
C465 C467 1.390 . S
C465 H469 0.950 . S
H466 C462 0.950 . S
C467 C465 1.390 . S
C467 C468 1.387 . S
C467 H470 0.950 . S
C468 C467 1.387 . S
C468 C471 1.387 . S
H469 C465 0.950 . S
H470 C467 0.950 . S
C471 C462 1.390 . S
C471 H464 0.950 . S
C471 C468 1.387 . S
C472 C473 1.387 . S
C472 H476 0.950 . S
C472 C481 1.390 . S
C473 C472 1.387 . S
C473 C475 1.387 . S
H474 C481 0.950 . S
C475 C473 1.387 . S
C475 C477 1.390 . S
C475 H479 0.950 . S
H476 C472 0.950 . S
C477 C475 1.390 . S
C477 C478 1.387 . S
C477 H480 0.950 . S
C478 C477 1.387 . S
C478 C481 1.387 . S
H479 C475 0.950 . S
H480 C477 0.950 . S
C481 C472 1.390 . S
C481 H474 0.950 . S
C481 C478 1.387 . S
C482 C483 1.387 . S
C482 H486 0.950 . S
C482 C491 1.390 . S
C483 C482 1.387 . S
C483 C485 1.387 . S
H484 C491 0.950 . S
C485 C483 1.387 . S
C485 C487 1.390 . S
C485 H489 0.950 . S
H486 C482 0.950 . S
C487 C485 1.390 . S
C487 C488 1.387 . S
C487 H490 0.950 . S
C488 C487 1.387 . S
C488 C491 1.387 . S
H489 C485 0.950 . S
H490 C487 0.950 . S
C491 C482 1.390 . S
C491 H484 0.950 . S
C491 C488 1.387 . S
C492 C493 1.387 . S
C492 H496 0.950 . S
C492 C501 1.390 . S
C493 C492 1.387 . S
C493 C495 1.387 . S
H494 C501 0.950 . S
C495 C493 1.387 . S
C495 C497 1.390 . S
C495 H499 0.950 . S
H496 C492 0.950 . S
C497 C495 1.390 . S
C497 C498 1.387 . S
C497 H500 0.950 . S
C498 C497 1.387 . S
C498 C501 1.387 . S
H499 C495 0.950 . S
H500 C497 0.950 . S
C501 C492 1.390 . S
C501 H494 0.950 . S
C501 C498 1.387 . S
C502 C503 1.387 . S
C502 H506 0.950 . S
C502 C511 1.390 . S
C503 C502 1.387 . S
C503 C505 1.387 . S
H504 C511 0.950 . S
C505 C503 1.387 . S
C505 C507 1.390 . S
C505 H509 0.950 . S
H506 C502 0.950 . S
C507 C505 1.390 . S
C507 C508 1.387 . S
C507 H510 0.950 . S
C508 C507 1.387 . S
C508 C511 1.387 . S
H509 C505 0.950 . S
H510 C507 0.950 . S
C511 C502 1.390 . S
C511 H504 0.950 . S
C511 C508 1.387 . S
C512 C513 1.387 . S
C512 H516 0.950 . S
C512 C521 1.390 . S
C513 C512 1.387 . S
C513 C515 1.387 . S
H514 C521 0.950 . S
C515 C513 1.387 . S
C515 C517 1.390 . S
C515 H519 0.950 . S
H516 C512 0.950 . S
C517 C515 1.390 . S
C517 C518 1.387 . S
C517 H520 0.950 . S
C518 C517 1.387 . S
C518 C521 1.387 . S
H519 C515 0.950 . S
H520 C517 0.950 . S
C521 C512 1.390 . S
C521 H514 0.950 . S
C521 C518 1.387 . S
C522 C523 1.387 . S
C522 H526 0.950 . S
C522 C531 1.390 . S
C523 C522 1.387 . S
C523 C525 1.387 . S
H524 C531 0.950 . S
C525 C523 1.387 . S
C525 C527 1.390 . S
C525 H529 0.950 . S
H526 C522 0.950 . S
C527 C525 1.390 . S
C527 C528 1.387 . S
C527 H530 0.950 . S
C528 C527 1.387 . S
C528 C531 1.387 . S
H529 C525 0.950 . S
H530 C527 0.950 . S
C531 C522 1.390 . S
C531 H524 0.950 . S
C531 C528 1.387 . S
C532 C533 1.387 . S
C532 H536 0.950 . S
C532 C541 1.390 . S
C533 C532 1.387 . S
C533 C535 1.387 . S
H534 C541 0.950 . S
C535 C533 1.387 . S
C535 C537 1.390 . S
C535 H539 0.950 . S
H536 C532 0.950 . S
C537 C535 1.390 . S
C537 C538 1.387 . S
C537 H540 0.950 . S
C538 C537 1.387 . S
C538 C541 1.387 . S
H539 C535 0.950 . S
H540 C537 0.950 . S
C541 C532 1.390 . S
C541 H534 0.950 . S
C541 C538 1.387 . S
C542 C543 1.387 . S
C542 H546 0.950 . S
C542 C551 1.390 . S
C543 C542 1.387 . S
C543 C545 1.387 . S
H544 C551 0.950 . S
C545 C543 1.387 . S
C545 C547 1.390 . S
C545 H549 0.950 . S
H546 C542 0.950 . S
C547 C545 1.390 . S
C547 C548 1.387 . S
C547 H550 0.950 . S
C548 C547 1.387 . S
C548 C551 1.387 . S
H549 C545 0.950 . S
H550 C547 0.950 . S
C551 C542 1.390 . S
C551 H544 0.950 . S
C551 C548 1.387 . S
C552 C553 1.387 . S
C552 H556 0.950 . S
C552 C561 1.390 . S
C553 C552 1.387 . S
C553 C555 1.387 . S
H554 C561 0.950 . S
C555 C553 1.387 . S
C555 C557 1.390 . S
C555 H559 0.950 . S
H556 C552 0.950 . S
C557 C555 1.390 . S
C557 C558 1.387 . S
C557 H560 0.950 . S
C558 C557 1.387 . S
C558 C561 1.387 . S
H559 C555 0.950 . S
H560 C557 0.950 . S
C561 C552 1.390 . S
C561 H554 0.950 . S
C561 C558 1.387 . S
C562 C563 1.359 1_565 S
C562 H566 0.961 1_565 S
C562 C571 1.408 . S
C563 C562 1.359 1_545 S
C563 C565 1.387 . S
H564 C571 0.950 . S
C565 C563 1.387 . S
C565 C567 1.390 1_545 S
C565 H569 0.950 . S
H566 C562 0.961 1_545 S
C567 C565 1.390 1_565 S
C567 C568 1.387 . S
C567 H570 0.950 . S
C568 C567 1.387 . S
C568 C571 1.387 . S
H569 C565 0.950 . S
H570 C567 0.950 . S
C571 C562 1.408 . S
C571 H564 0.950 . S
C571 C568 1.387 . S
C572 C573 1.387 . S
C572 H576 0.950 . S
C572 C581 1.390 . S
C573 C572 1.387 . S
C573 C575 1.387 . S
H574 C581 0.950 . S
C575 C573 1.387 . S
C575 C577 1.390 1_455 S
C575 H579 0.950 . S
H576 C572 0.950 . S
C577 C575 1.390 1_655 S
C577 C578 1.387 . S
C577 H580 0.950 . S
C578 C577 1.387 . S
C578 C581 1.387 1_655 S
H579 C575 0.950 . S
H580 C577 0.950 . S
C581 C572 1.390 . S
C581 H574 0.950 . S
C581 C578 1.387 1_455 S
C582 C583 1.387 1_554 S
C582 H586 0.950 . S
C582 C591 1.390 . S
C583 C582 1.387 1_556 S
C583 C585 1.387 . S
H584 C591 0.950 . S
C585 C583 1.387 . S
C585 C587 1.390 1_556 S
C585 H589 0.950 . S
H586 C582 0.950 . S
C587 C585 1.390 1_554 S
C587 C588 1.387 . S
C587 H590 0.950 . S
C588 C587 1.387 . S
C588 C591 1.387 . S
H589 C585 0.950 . S
H590 C587 0.950 . S
C591 C582 1.390 . S
C591 H584 0.950 . S
C591 C588 1.387 . S
C592 C593 1.387 1_545 S
C592 H596 0.950 . S
C592 C601 1.390 . S
C593 C592 1.387 1_565 S
C593 C595 1.387 1_556 S
H594 C601 0.950 . S
C595 C593 1.387 1_554 S
C595 C597 1.390 1_565 S
C595 H599 0.950 . S
H596 C592 0.950 . S
C597 C595 1.390 1_545 S
C597 C598 1.387 . S
C597 H600 0.950 . S
C598 C597 1.387 . S
C598 C601 1.387 1_554 S
H599 C595 0.950 . S
H600 C597 0.950 . S
C601 C592 1.390 . S
C601 H594 0.950 . S
C601 C598 1.387 1_556 S
C602 C603 1.387 1_554 S
C602 H606 0.950 . S
C602 C611 1.390 . S
C603 C602 1.387 1_556 S
C603 C605 1.387 . S
H604 C611 0.950 . S
C605 C603 1.387 . S
C605 C607 1.390 1_455 S
C605 H609 0.950 . S
H606 C602 0.950 . S
C607 C605 1.390 1_655 S
C607 C608 1.387 1_556 S
C607 H610 0.950 . S
C608 C607 1.387 1_554 S
C608 C611 1.387 1_655 S
H609 C605 0.950 . S
H610 C607 0.950 . S
C611 C602 1.390 . S
C611 H604 0.950 . S
C611 C608 1.387 1_455 S
C253 C9 1.313 . S
C258 C205 1.311 1_554 S
C263 C168 1.198 . S
C268 C14 1.200 . S
C273 C28 1.275 . S
C278 C191 1.269 1_554 S
C283 C93 1.321 . S
C288 C37 1.319 . S
C293 C107 1.227 . S
C298 C0 1.232 . S
C303 C121 1.278 . S
C308 C23 1.278 . S
C313 C47 1.227 . S
C318 C163 1.221 1_556 S
C323 C137 1.155 . S
C328 C67 1.155 . S
C333 C151 1.140 . S
C338 C70 1.139 . S
C343 C79 1.243 . S
C348 C215 1.250 . S
C353 C53 1.123 . S
C358 C235 1.126 . S
C363 C238 1.186 . S
C368 C61 1.190 . S
C373 C177 1.297 . S
C378 C112 1.300 . S
C383 C84 1.209 . S
C388 C182 1.214 . S
C393 C196 1.229 . S
C398 C98 1.230 1_455 S
C403 C247 1.207 . S
C408 C131 1.213 . S
C413 C145 1.190 . S
C418 C221 1.187 . S
C423 C229 1.194 . S
C428 C154 1.188 . S
C433 C219 1.883 . S
C438 C5 1.950 . S
C443 C25 1.867 . S
C448 C224 1.858 . S
C453 C39 2.010 . S
C458 C249 2.014 . S
C463 C33 1.928 . S
C468 C159 1.929 . S
C473 C126 1.998 . S
C478 C11 2.006 . S
C483 C19 1.821 . S
C488 C140 1.859 . S
C493 C89 1.889 . S
C498 C51 1.823 . S
C503 C103 1.813 . S
C508 C56 1.846 . S
C513 C81 2.011 . S
C518 C117 1.940 . S
C523 C75 1.920 . S
C528 C201 1.926 . S
C533 C42 1.917 . S
C538 C179 1.942 . S
C543 C65 1.780 . S
C548 C187 1.847 . S
C553 C123 1.997 . S
C558 C243 1.938 . S
C563 C95 2.020 . S
C568 C210 1.992 . S
C573 C233 1.743 . S
C578 C109 1.867 . S
C583 C173 1.884 . S
C588 C135 1.801 . S
C593 C193 1.871 . S
C598 C149 1.752 . S
C603 C207 2.012 . S
C608 C165 2.009 . S
