# Generated by pormake.
# Topology swi, (7)-cn, num edge types: 1
# Building blocks:
#     Node 0, Type 0, BuildingBlock: HICVOG_clean_sbu_0, # of connection points: 7
#     Node 1, Type 0, BuildingBlock: HICVOG_clean_sbu_0, # of connection points: 7
#     Node 2, Type 0, BuildingBlock: HICVOG_clean_sbu_0, # of connection points: 7
#     Node 3, Type 0, BuildingBlock: HICVOG_clean_sbu_0, # of connection points: 7
#     Node 4, Type 0, BuildingBlock: HICVOG_clean_sbu_0, # of connection points: 7
#     Node 5, Type 0, BuildingBlock: HICVOG_clean_sbu_0, # of connection points: 7
#     Node 6, Type 0, BuildingBlock: HICVOG_clean_sbu_0, # of connection points: 7
#     Node 7, Type 0, BuildingBlock: HICVOG_clean_sbu_0, # of connection points: 7
#     Node 8, Type 0, BuildingBlock: HICVOG_clean_sbu_0, # of connection points: 7
#     Node 9, Type 0, BuildingBlock: HICVOG_clean_sbu_0, # of connection points: 7
#     Node 10, Type 0, BuildingBlock: HICVOG_clean_sbu_0, # of connection points: 7
#     Node 11, Type 0, BuildingBlock: HICVOG_clean_sbu_0, # of connection points: 7
#     Edge 12, Type (0, 0), BuildingBlock: XIVTED_clean_linker_0, # of connection points: 2
#     Edge 13, Type (0, 0), BuildingBlock: XIVTED_clean_linker_0, # of connection points: 2
#     Edge 14, Type (0, 0), BuildingBlock: XIVTED_clean_linker_0, # of connection points: 2
#     Edge 15, Type (0, 0), BuildingBlock: XIVTED_clean_linker_0, # of connection points: 2
#     Edge 16, Type (0, 0), BuildingBlock: XIVTED_clean_linker_0, # of connection points: 2
#     Edge 17, Type (0, 0), BuildingBlock: XIVTED_clean_linker_0, # of connection points: 2
#     Edge 18, Type (0, 0), BuildingBlock: XIVTED_clean_linker_0, # of connection points: 2
#     Edge 19, Type (0, 0), BuildingBlock: XIVTED_clean_linker_0, # of connection points: 2
#     Edge 20, Type (0, 0), BuildingBlock: XIVTED_clean_linker_0, # of connection points: 2
#     Edge 21, Type (0, 0), BuildingBlock: XIVTED_clean_linker_0, # of connection points: 2
#     Edge 22, Type (0, 0), BuildingBlock: XIVTED_clean_linker_0, # of connection points: 2
#     Edge 23, Type (0, 0), BuildingBlock: XIVTED_clean_linker_0, # of connection points: 2
#     Edge 24, Type (0, 0), BuildingBlock: XIVTED_clean_linker_0, # of connection points: 2
#     Edge 25, Type (0, 0), BuildingBlock: XIVTED_clean_linker_0, # of connection points: 2
#     Edge 26, Type (0, 0), BuildingBlock: XIVTED_clean_linker_0, # of connection points: 2
#     Edge 27, Type (0, 0), BuildingBlock: XIVTED_clean_linker_0, # of connection points: 2
#     Edge 28, Type (0, 0), BuildingBlock: XIVTED_clean_linker_0, # of connection points: 2
#     Edge 29, Type (0, 0), BuildingBlock: XIVTED_clean_linker_0, # of connection points: 2
#     Edge 30, Type (0, 0), BuildingBlock: XIVTED_clean_linker_0, # of connection points: 2
#     Edge 31, Type (0, 0), BuildingBlock: XIVTED_clean_linker_0, # of connection points: 2
#     Edge 32, Type (0, 0), BuildingBlock: XIVTED_clean_linker_0, # of connection points: 2
#     Edge 33, Type (0, 0), BuildingBlock: XIVTED_clean_linker_0, # of connection points: 2
#     Edge 34, Type (0, 0), BuildingBlock: XIVTED_clean_linker_0, # of connection points: 2
#     Edge 35, Type (0, 0), BuildingBlock: XIVTED_clean_linker_0, # of connection points: 2
#     Edge 36, Type (0, 0), BuildingBlock: XIVTED_clean_linker_0, # of connection points: 2
#     Edge 37, Type (0, 0), BuildingBlock: XIVTED_clean_linker_0, # of connection points: 2
#     Edge 38, Type (0, 0), BuildingBlock: XIVTED_clean_linker_0, # of connection points: 2
#     Edge 39, Type (0, 0), BuildingBlock: XIVTED_clean_linker_0, # of connection points: 2
#     Edge 40, Type (0, 0), BuildingBlock: XIVTED_clean_linker_0, # of connection points: 2
#     Edge 41, Type (0, 0), BuildingBlock: XIVTED_clean_linker_0, # of connection points: 2
#     Edge 42, Type (0, 0), BuildingBlock: XIVTED_clean_linker_0, # of connection points: 2
#     Edge 43, Type (0, 0), BuildingBlock: XIVTED_clean_linker_0, # of connection points: 2
#     Edge 44, Type (0, 0), BuildingBlock: XIVTED_clean_linker_0, # of connection points: 2
#     Edge 45, Type (0, 0), BuildingBlock: XIVTED_clean_linker_0, # of connection points: 2
#     Edge 46, Type (0, 0), BuildingBlock: XIVTED_clean_linker_0, # of connection points: 2
#     Edge 47, Type (0, 0), BuildingBlock: XIVTED_clean_linker_0, # of connection points: 2
#     Edge 48, Type (0, 0), BuildingBlock: XIVTED_clean_linker_0, # of connection points: 2
#     Edge 49, Type (0, 0), BuildingBlock: XIVTED_clean_linker_0, # of connection points: 2
#     Edge 50, Type (0, 0), BuildingBlock: XIVTED_clean_linker_0, # of connection points: 2
#     Edge 51, Type (0, 0), BuildingBlock: XIVTED_clean_linker_0, # of connection points: 2
#     Edge 52, Type (0, 0), BuildingBlock: XIVTED_clean_linker_0, # of connection points: 2
#     Edge 53, Type (0, 0), BuildingBlock: XIVTED_clean_linker_0, # of connection points: 2
# Relax obj value: 0.315
# Max RMSD: 0.249
# Mean RMSD: 0.249
data_MOF--net-swi--node1-HICVOG_clean_sbu_0--edge1-XIVTED_clean_linker_0
_symmetry_space_group_name_H-M    P1
_symmetry_Int_Tables_number       1
_symmetry_cell_setting            triclinic
loop_
_symmetry_equiv_pos_as_xyz
'x, y, z'
_cell_length_a     40.602617
_cell_length_b     40.564506
_cell_length_c     39.16927
_cell_angle_alpha  90.015079
_cell_angle_beta   90.030482
_cell_angle_gamma 120.05547
loop_
_atom_site_label
_atom_site_type_symbol
_atom_site_fract_x
_atom_site_fract_y
_atom_site_fract_z
_atom_type_partial_charge
Zn0 Zn 0.4208 0.11461 0.97295 0.0
C1 C 0.49059 0.12438 0.05227 0.0
N2 N 0.49607 0.09976 0.03395 0.0
C3 C 0.47239 0.09187 1.00743 0.0
N4 N 0.45352 0.11164 1.00876 0.0
N5 N 0.46464 0.1314 0.0377 0.0
C6 C 0.5045 0.23467 0.05321 0.0
O7 O 0.49552 0.22482 1.02111 0.0
O8 O 0.37633 0.06131 0.96644 0.0
Zn9 Zn 0.44482 0.1593 0.06219 0.0
N10 N 0.44896 0.13336 0.93012 0.0
C11 C 0.50556 0.15263 0.89805 0.0
C12 C 0.48532 0.14028 0.9285 0.0
C13 C 0.43292 0.14103 0.90283 0.0
N14 N 0.48935 0.15943 0.87071 0.0
C15 C 0.45371 0.15456 0.87224 0.0
O16 O 0.40988 0.17086 0.03578 0.0
C17 C 0.39479 0.16797 1.00673 0.0
O18 O 0.39859 0.14925 0.98244 0.0
H19 H 0.49886 0.13692 0.95076 0.0
H20 H 0.40445 0.13674 0.90496 0.0
C21 C 0.42197 0.15383 0.1319 0.0
C22 C 0.40523 0.13529 0.16284 0.0
C23 C 0.38549 0.07575 0.13574 0.0
C24 C 0.40206 0.09434 0.10521 0.0
N25 N 0.42003 0.13294 0.10392 0.0
N26 N 0.38755 0.09654 0.1637 0.0
H27 H 0.43718 0.18454 0.13003 0.0
C28 C 0.35284 0.04834 0.99108 0.0
O29 O 0.35883 0.07024 1.01781 0.0
O30 O 0.48713 0.21031 0.07643 0.0
H31 H 0.40095 0.07824 0.08278 0.0
H32 H 0.53427 0.15755 0.89635 0.0
H33 H 0.37121 0.04501 0.13726 0.0
Zn34 Zn 0.28405 0.44632 0.06554 0.0
C35 C 0.37765 0.47205 1.00958 0.0
N36 N 0.39439 0.49608 0.03575 0.0
C37 C 0.36493 0.49127 0.05471 0.0
N38 N 0.33146 0.46514 0.04088 0.0
N39 N 0.33914 0.45349 1.01183 0.0
C40 C 0.30543 0.3568 0.9911 0.0
O41 O 0.29104 0.36316 1.0187 0.0
O42 O 0.27606 0.48925 0.07912 0.0
Zn43 Zn 0.30336 0.42268 0.97552 0.0
N44 N 0.28575 0.42202 0.10749 0.0
C45 C 0.30844 0.3878 0.13968 0.0
C46 C 0.30645 0.40418 0.10902 0.0
C47 C 0.26667 0.42397 0.13531 0.0
N48 N 0.28958 0.38987 0.1675 0.0
C49 C 0.26841 0.40739 0.16636 0.0
O50 O 0.24656 0.39891 0.98609 0.0
C51 C 0.22459 0.395 1.01089 0.0
O52 O 0.23737 0.41072 0.03963 0.0
H53 H 0.32149 0.403 0.08669 0.0
H54 H 0.25109 0.43904 0.13322 0.0
C55 C 0.29508 0.44162 0.90475 0.0
C56 C 0.30269 0.4674 0.87763 0.0
C57 C 0.3442 0.51843 0.91385 0.0
C58 C 0.33595 0.49309 0.94068 0.0
N59 N 0.31263 0.45511 0.93555 0.0
N60 N 0.3275 0.50506 0.88313 0.0
H61 H 0.27559 0.41144 0.90148 0.0
C62 C 0.26918 0.50653 0.05574 0.0
O63 O 0.26921 0.49681 0.02373 0.0
O64 O 0.3135 0.3794 0.96593 0.0
H65 H 0.3478 0.50386 0.96558 0.0
H66 H 0.32496 0.37364 0.14141 0.0
H67 H 0.36324 0.54863 0.91754 0.0
Zn68 Zn 0.87821 0.30449 0.98014 0.0
C69 C 0.85736 0.35766 0.05873 0.0
N70 N 0.8829 0.38945 0.04285 0.0
C71 C 0.8955 0.37645 1.01745 0.0
N72 N 0.87768 0.33774 1.01702 0.0
N73 N 0.8548 0.32649 0.04405 0.0
C74 C 0.75112 0.2341 0.09324 0.0
O75 O 0.76014 0.20721 0.09462 0.0
O76 O 0.9327 0.31668 0.97387 0.0
Zn77 Zn 0.82795 0.27819 0.06786 0.0
N78 N 0.85907 0.31338 0.93707 0.0
C79 C 0.84168 0.35139 0.90368 0.0
C80 C 0.85394 0.34391 0.9344 0.0
C81 C 0.84977 0.28835 0.91053 0.0
N82 N 0.83325 0.32702 0.87711 0.0
C83 C 0.83637 0.29525 0.87966 0.0
O84 O 0.81944 0.23409 0.0397 0.0
C85 C 0.82548 0.22341 1.01112 0.0
O86 O 0.84571 0.24704 0.98806 0.0
H87 H 0.85864 0.36203 0.956 0.0
H88 H 0.85277 0.26344 0.91343 0.0
C89 C 0.83809 0.26484 0.13886 0.0
C90 C 0.85868 0.26293 0.16697 0.0
C91 C 0.91499 0.2925 0.13346 0.0
C92 C 0.89429 0.2938 0.10558 0.0
N93 N 0.85621 0.27957 0.10862 0.0
N94 N 0.89673 0.27678 0.16326 0.0
H95 H 0.80782 0.25358 0.14074 0.0
C96 C 0.94613 0.30392 0.99627 0.0
O97 O 0.92396 0.28324 1.02137 0.0
O98 O 0.77569 0.26703 0.08265 0.0
H99 H 0.9083 0.3056 0.08153 0.0
H100 H 0.83815 0.376 0.90117 0.0
H101 H 0.94528 0.30341 0.13131 0.0
Zn102 Zn 0.54861 0.83345 0.06223 0.0
C103 C 0.51575 0.89802 1.00952 0.0
N104 N 0.49114 0.88687 0.03566 0.0
C105 C 0.4985 0.86274 0.05279 0.0
N106 N 0.52662 0.8595 0.03802 0.0
N107 N 0.53697 0.88065 1.00991 0.0
C108 C 0.63642 0.94744 0.98987 0.0
O109 O 0.63223 0.92543 1.01606 0.0
O110 O 0.50824 0.78015 0.07551 0.0
Zn111 Zn 0.56989 0.88004 0.97326 0.0
N112 N 0.57246 0.86099 0.10421 0.0
C113 C 0.60951 0.91962 0.13364 0.0
C114 C 0.59231 0.89966 0.10373 0.0
C115 C 0.56904 0.84148 0.13357 0.0
N116 N 0.60656 0.9001 0.16276 0.0
C117 C 0.58698 0.86131 0.16368 0.0
O118 O 0.59577 0.84885 0.98225 0.0
C119 C 0.60161 0.83132 1.00632 0.0
O120 O 0.58616 0.82666 0.03539 0.0
H121 H 0.59458 0.9148 0.08033 0.0
H122 H 0.55204 0.81089 0.13363 0.0
C123 C 0.55734 0.85271 0.90343 0.0
C124 C 0.53583 0.83737 0.87343 0.0
C125 C 0.48265 0.83535 0.90055 0.0
C126 C 0.50366 0.84938 0.93048 0.0
N127 N 0.54093 0.85919 0.93112 0.0
N128 N 0.49915 0.82968 0.87281 0.0
H129 H 0.58662 0.8592 0.90485 0.0
C130 C 0.51747 0.75608 0.08566 0.0
O131 O 0.55366 0.76619 0.08722 0.0
O132 O 0.61194 0.93418 0.96599 0.0
H133 H 0.49005 0.85165 0.95317 0.0
H134 H 0.62529 0.95043 0.13368 0.0
H135 H 0.45316 0.82815 0.89961 0.0
Zn136 Zn 0.68672 0.57494 0.97074 0.0
C137 C 0.63187 0.50206 0.04908 0.0
N138 N 0.60051 0.49586 0.03241 0.0
C139 C 0.61412 0.52163 1.00712 0.0
N140 N 0.65273 0.54252 1.00754 0.0
N141 N 0.66332 0.53108 0.03508 0.0
C142 C 0.7342 0.49714 0.05312 0.0
O143 O 0.73916 0.50854 1.02119 0.0
O144 O 0.67653 0.61809 0.96358 0.0
Zn145 Zn 0.71162 0.55277 0.05908 0.0
N146 N 0.67746 0.54583 0.92841 0.0
C147 C 0.64104 0.48814 0.89734 0.0
C148 C 0.64862 0.50908 0.92739 0.0
C149 C 0.70098 0.56164 0.90096 0.0
N150 N 0.66386 0.5041 0.86985 0.0
C151 C 0.69412 0.54016 0.87081 0.0
O152 O 0.75676 0.58776 0.03156 0.0
C153 C 0.76748 0.60312 1.00242 0.0
O154 O 0.74373 0.59889 0.97919 0.0
H155 H 0.63205 0.49576 0.94983 0.0
H156 H 0.72477 0.59045 0.90266 0.0
C157 C 0.72826 0.57576 0.12904 0.0
C158 C 0.72628 0.59271 0.15983 0.0
C159 C 0.68823 0.61381 0.1316 0.0
C160 C 0.69035 0.59694 0.10128 0.0
N161 N 0.71019 0.5782 0.1006 0.0
N162 N 0.70601 0.61119 0.16002 0.0
H163 H 0.74318 0.55997 0.1277 0.0
C164 C 0.68844 0.64281 0.98727 0.0
O165 O 0.706 0.63836 1.01353 0.0
O166 O 0.72157 0.51157 0.07446 0.0
H167 H 0.676 0.5984 0.07853 0.0
H168 H 0.61771 0.45909 0.89611 0.0
H169 H 0.67239 0.62871 0.13263 0.0
Zn170 Zn 0.15957 0.7155 0.06412 0.0
C171 C 0.09491 0.61777 1.01226 0.0
N172 N 0.10809 0.60485 0.03724 0.0
C173 C 0.1332 0.63658 0.05349 0.0
N174 N 0.13473 0.66762 0.03948 0.0
N175 N 0.11208 0.65646 1.01232 0.0
C176 C 0.03978 0.68762 0.9524 0.0
O177 O 0.0585 0.7066 0.92516 0.0
O178 O 0.21101 0.7265 0.07917 0.0
Zn179 Zn 0.11087 0.69068 0.97685 0.0
N180 N 0.13208 0.71209 0.10565 0.0
C181 C 0.07429 0.68727 0.1368 0.0
C182 C 0.09356 0.69054 0.1064 0.0
C183 C 0.15224 0.73076 0.13404 0.0
N184 N 0.09436 0.7057 0.16519 0.0
C185 C 0.13303 0.72768 0.16488 0.0
O186 O 0.14375 0.74808 0.98535 0.0
C187 C 0.16316 0.77168 1.00878 0.0
O188 O 0.16839 0.76085 0.03763 0.0
H189 H 0.07806 0.67581 0.08363 0.0
H190 H 0.18293 0.74704 0.13259 0.0
C191 C 0.13688 0.70765 0.90626 0.0
C192 C 0.14942 0.70096 0.8748 0.0
C193 C 0.14486 0.64473 0.89771 0.0
C194 C 0.13359 0.65209 0.92898 0.0
N195 N 0.12817 0.68235 0.93247 0.0
N196 N 0.15245 0.66921 0.87142 0.0
H197 H 0.13432 0.73272 0.90991 0.0
C198 C 0.23683 0.73718 0.05678 0.0
O199 O 0.22878 0.73995 0.02478 0.0
O200 O 0.05644 0.67858 0.97488 0.0
H201 H 0.13022 0.63433 0.95045 0.0
H202 H 0.04361 0.67007 0.13791 0.0
H203 H 0.14851 0.62025 0.89458 0.0
Zn204 Zn 0.83393 0.55361 0.47906 0.0
C205 C 0.89866 0.52126 0.53212 0.0
N206 N 0.88682 0.49574 0.50662 0.0
C207 C 0.8621 0.50228 0.48959 0.0
N208 N 0.85959 0.53127 0.50361 0.0
N209 N 0.8812 0.5424 0.53145 0.0
C210 C 0.94686 0.6422 0.55253 0.0
O211 O 0.92569 0.638 0.52567 0.0
O212 O 0.78168 0.51319 0.46512 0.0
Zn213 Zn 0.87945 0.57485 0.56816 0.0
N214 N 0.86056 0.57687 0.4369 0.0
C215 C 0.91805 0.60933 0.40523 0.0
C216 C 0.89907 0.59387 0.43586 0.0
C217 C 0.84013 0.57489 0.40855 0.0
N218 N 0.89772 0.60717 0.3769 0.0
C219 C 0.85907 0.59048 0.37746 0.0
O220 O 0.84749 0.59994 0.55883 0.0
C221 C 0.83012 0.6059 0.53467 0.0
O222 O 0.82617 0.59102 0.50537 0.0
H223 H 0.9148 0.59506 0.45858 0.0
H224 H 0.80945 0.56052 0.41021 0.0
C225 C 0.85056 0.56143 0.63755 0.0
C226 C 0.83567 0.53998 0.66766 0.0
C227 C 0.83701 0.48796 0.64142 0.0
C228 C 0.85073 0.50889 0.61143 0.0
N229 N 0.85858 0.54562 0.61028 0.0
N230 N 0.82985 0.50392 0.66874 0.0
H231 H 0.85566 0.59024 0.63579 0.0
C232 C 0.75582 0.5001 0.48763 0.0
O233 O 0.7644 0.51236 0.51924 0.0
O234 O 0.93307 0.61749 0.57618 0.0
H235 H 0.85443 0.49562 0.58916 0.0
H236 H 0.94871 0.62282 0.4039 0.0
H237 H 0.83133 0.45894 0.64275 0.0
Zn238 Zn 0.3027 0.88303 0.57209 0.0
C239 C 0.35797 0.86478 0.49413 0.0
N240 N 0.38925 0.88935 0.51128 0.0
C241 C 0.37558 0.90128 0.53666 0.0
N242 N 0.337 0.88398 0.53586 0.0
N243 N 0.3265 0.8623 0.50807 0.0
C244 C 0.25392 0.75903 0.49156 0.0
O245 O 0.25079 0.76768 0.52328 0.0
O246 O 0.31368 0.93681 0.57887 0.0
Zn247 Zn 0.27874 0.83718 0.48325 0.0
N248 N 0.31095 0.86323 0.61492 0.0
C249 C 0.34698 0.84284 0.64761 0.0
C250 C 0.34005 0.85586 0.61706 0.0
C251 C 0.28669 0.85548 0.64178 0.0
N252 N 0.32338 0.83588 0.6745 0.0
C253 C 0.29294 0.84125 0.67247 0.0
O254 O 0.23358 0.82945 0.50933 0.0
C255 C 0.22244 0.83338 0.5385 0.0
O256 O 0.2456 0.85077 0.5628 0.0
H257 H 0.35743 0.85937 0.59516 0.0
H258 H 0.26286 0.86026 0.63924 0.0
C259 C 0.26404 0.84391 0.41298 0.0
C260 C 0.26737 0.86294 0.38196 0.0
C261 C 0.30775 0.92189 0.40979 0.0
C262 C 0.30424 0.90281 0.44037 0.0
N263 N 0.28258 0.86427 0.44134 0.0
N264 N 0.28945 0.90163 0.38145 0.0
H265 H 0.24765 0.81321 0.41462 0.0
C266 C 0.30279 0.9501 0.55478 0.0
O267 O 0.28584 0.92838 0.52818 0.0
O268 O 0.26652 0.78489 0.46904 0.0
H269 H 0.31885 0.91848 0.46311 0.0
H270 H 0.37049 0.83753 0.64972 0.0
H271 H 0.32503 0.95259 0.40851 0.0
Zn272 Zn 0.43988 0.28171 0.48179 0.0
C273 C 0.47128 0.37888 0.53438 0.0
N274 N 0.49648 0.39272 0.50869 0.0
C275 C 0.49011 0.36148 0.49168 0.0
N276 N 0.46156 0.32984 0.50594 0.0
N277 N 0.45045 0.34023 0.53381 0.0
C278 C 0.35107 0.30636 0.55422 0.0
O279 O 0.35579 0.28978 0.52733 0.0
O280 O 0.48067 0.27015 0.46876 0.0
Zn281 Zn 0.41799 0.30601 0.57044 0.0
N282 N 0.41691 0.28466 0.43938 0.0
C283 C 0.38436 0.30889 0.40675 0.0
C284 C 0.39973 0.30597 0.43769 0.0
C285 C 0.41919 0.26588 0.41144 0.0
N286 N 0.38677 0.29032 0.37882 0.0
C287 C 0.40365 0.26856 0.3801 0.0
O288 O 0.39282 0.24889 0.5612 0.0
C289 C 0.38714 0.22557 0.53707 0.0
O290 O 0.40238 0.23657 0.50795 0.0
H291 H 0.3983 0.32077 0.46011 0.0
H292 H 0.43372 0.24977 0.41367 0.0
C293 C 0.43158 0.29034 0.63961 0.0
C294 C 0.45332 0.29632 0.66947 0.0
C295 C 0.5053 0.34979 0.64326 0.0
C296 C 0.48412 0.34302 0.61349 0.0
N297 N 0.44731 0.31435 0.61245 0.0
N298 N 0.4895 0.32638 0.67043 0.0
H299 H 0.40266 0.26683 0.63785 0.0
C300 C 0.4944 0.25886 0.49199 0.0
O301 O 0.4825 0.25647 0.52358 0.0
O302 O 0.37533 0.31698 0.57825 0.0
H303 H 0.4973 0.36009 0.59125 0.0
H304 H 0.37073 0.32589 0.4049 0.0
H305 H 0.53441 0.37296 0.64452 0.0
Zn306 Zn 0.1116 0.42205 0.57331 0.0
C307 C 0.12434 0.4917 0.49379 0.0
N308 N 0.09875 0.49695 0.51079 0.0
C309 C 0.08819 0.47182 0.53651 0.0
N310 N 0.10713 0.45214 0.53595 0.0
N311 N 0.12848 0.46378 0.50804 0.0
C312 C 0.23308 0.4987 0.49341 0.0
O313 O 0.2243 0.48686 0.5251 0.0
O314 O 0.05834 0.38056 0.58488 0.0
Zn315 Zn 0.15566 0.44305 0.48387 0.0
N316 N 0.13812 0.45538 0.61205 0.0
C317 C 0.17268 0.519 0.63298 0.0
C318 C 0.14983 0.49298 0.60824 0.0
C319 C 0.14957 0.44288 0.63957 0.0
N320 N 0.18464 0.50677 0.65989 0.0
C321 C 0.17408 0.46944 0.66398 0.0
O322 O 0.16392 0.40584 0.50983 0.0
C323 C 0.15958 0.39012 0.53874 0.0
O324 O 0.14206 0.39556 0.56307 0.0
H325 H 0.14298 0.50309 0.58546 0.0
H326 H 0.14167 0.41318 0.64124 0.0
C327 C 0.15072 0.42185 0.41378 0.0
C328 C 0.13249 0.40592 0.38252 0.0
C329 C 0.07283 0.38642 0.40908 0.0
C330 C 0.09112 0.40215 0.43995 0.0
N331 N 0.12964 0.41964 0.44164 0.0
N332 N 0.09382 0.38875 0.38122 0.0
H333 H 0.18137 0.43662 0.41601 0.0
C334 C 0.04392 0.35633 0.56085 0.0
O335 O 0.06455 0.3611 0.53348 0.0
O336 O 0.20763 0.4845 0.47054 0.0
H337 H 0.07486 0.40074 0.46233 0.0
H338 H 0.18209 0.54896 0.63016 0.0
H339 H 0.04216 0.37254 0.40722 0.0
Zn340 Zn 0.71155 0.15987 0.48581 0.0
C341 C 0.61473 0.09347 0.53864 0.0
N342 N 0.60058 0.10428 0.51279 0.0
C343 C 0.63162 0.12925 0.49562 0.0
N344 N 0.66343 0.13284 0.50992 0.0
N345 N 0.65336 0.11171 0.53805 0.0
C346 C 0.68935 0.0473 0.5586 0.0
O347 O 0.70753 0.06951 0.53262 0.0
O348 O 0.72105 0.21083 0.47006 0.0
Zn349 Zn 0.68784 0.11381 0.57475 0.0
N350 N 0.71093 0.13261 0.4449 0.0
C351 C 0.69639 0.07494 0.41675 0.0
C352 C 0.6949 0.09414 0.44574 0.0
C353 C 0.728 0.15273 0.41604 0.0
N354 N 0.71381 0.09501 0.3881 0.0
C355 C 0.72959 0.13357 0.38668 0.0
O356 O 0.74487 0.14694 0.56598 0.0
C357 C 0.76805 0.16606 0.54227 0.0
O358 O 0.75684 0.17032 0.51324 0.0
H359 H 0.68147 0.07863 0.46885 0.0
H360 H 0.74112 0.18343 0.41634 0.0
C361 C 0.70217 0.14115 0.64471 0.0
C362 C 0.69586 0.15662 0.67457 0.0
C363 C 0.64433 0.15776 0.64715 0.0
C364 C 0.65151 0.1437 0.61736 0.0
N365 N 0.67919 0.13422 0.61695 0.0
N366 N 0.66659 0.1639 0.67496 0.0
H367 H 0.72518 0.135 0.64342 0.0
C368 C 0.73245 0.23744 0.49182 0.0
O369 O 0.73628 0.23043 0.52388 0.0
O370 O 0.67732 0.06017 0.58212 0.0
H371 H 0.63567 0.14119 0.59457 0.0
H372 H 0.68402 0.04432 0.41707 0.0
H373 H 0.62185 0.1647 0.64791 0.0
Zn374 Zn 0.57248 0.69046 0.57005 0.0
C375 C 0.49978 0.63508 0.49159 0.0
N376 N 0.49378 0.60381 0.50831 0.0
C377 C 0.51923 0.6176 0.53383 0.0
N378 N 0.53989 0.65626 0.53345 0.0
N379 N 0.52841 0.66669 0.50584 0.0
C380 C 0.4945 0.73671 0.48987 0.0
O381 O 0.50608 0.74007 0.52168 0.0
O382 O 0.61539 0.67977 0.57735 0.0
Zn383 Zn 0.55004 0.71477 0.48174 0.0
N384 N 0.54339 0.68148 0.61222 0.0
C385 C 0.4857 0.64536 0.64321 0.0
C386 C 0.50658 0.65279 0.61319 0.0
C387 C 0.55933 0.705 0.63966 0.0
N388 N 0.50178 0.66819 0.67072 0.0
C389 C 0.53791 0.69829 0.66976 0.0
O390 O 0.58659 0.76011 0.50835 0.0
C391 C 0.60198 0.77106 0.53746 0.0
O392 O 0.59702 0.74765 0.56127 0.0
H393 H 0.49319 0.63621 0.59074 0.0
H394 H 0.58817 0.72867 0.63799 0.0
C395 C 0.57224 0.73079 0.4118 0.0
C396 C 0.58842 0.72812 0.38085 0.0
C397 C 0.60786 0.68842 0.40849 0.0
C398 C 0.59177 0.69124 0.43901 0.0
N399 N 0.5742 0.71221 0.44002 0.0
N400 N 0.60568 0.7067 0.38026 0.0
H401 H 0.5574 0.74664 0.41344 0.0
C402 C 0.63976 0.69091 0.55341 0.0
O403 O 0.63516 0.70805 0.52689 0.0
O404 O 0.50891 0.7253 0.46738 0.0
H405 H 0.59292 0.67657 0.46165 0.0
H406 H 0.45661 0.62215 0.64442 0.0
H407 H 0.6218 0.67167 0.40717 0.0
H408 H 0.2991 0.01307 0.04049 0.0
H409 H 0.19153 0.80948 0.94793 0.0
H410 H 0.33213 0.99339 0.9412 0.0
H411 H 0.18196 0.82824 0.05499 0.0
H412 H 0.23435 0.87849 0.94071 0.0
H413 H 0.24767 0.94714 0.0418 0.0
C414 C 0.29545 0.99495 1.01882 0.0
C415 C 0.32024 0.00879 0.9908 0.0
C416 C 0.22243 0.86743 0.96565 0.0
C417 C 0.26108 0.93284 0.99218 0.0
C418 C 0.19778 0.82817 0.96971 0.0
C419 C 0.18339 0.81316 1.00216 0.0
C420 C 0.23223 0.89166 0.99416 0.0
C421 C 0.19267 0.83856 0.02959 0.0
C422 C 0.26601 0.9572 1.01961 0.0
C423 C 0.31382 0.98387 0.9634 0.0
N424 N 0.21654 0.87642 0.02499 0.0
N425 N 0.28495 0.94699 0.96484 0.0
H426 H 0.29131 0.30526 0.04157 0.0
H427 H 0.38397 0.19633 0.94633 0.0
H428 H 0.33826 0.33575 0.94001 0.0
H429 H 0.36126 0.1902 0.05445 0.0
H430 H 0.35828 0.2396 0.93994 0.0
H431 H 0.30775 0.25532 0.0429 0.0
C432 C 0.30495 0.30138 1.01939 0.0
C433 C 0.31364 0.32502 0.9907 0.0
C434 C 0.35866 0.22843 0.96495 0.0
C435 C 0.33271 0.26746 0.99213 0.0
C436 C 0.37302 0.20354 0.96858 0.0
C437 C 0.37492 0.18978 1.00101 0.0
C438 C 0.34572 0.23912 0.9939 0.0
C439 C 0.36064 0.20031 0.029 0.0
C440 C 0.31439 0.27277 1.02021 0.0
C441 C 0.33117 0.3183 0.96271 0.0
N442 N 0.34678 0.22432 0.0248 0.0
N443 N 0.3403 0.29021 0.96417 0.0
H444 H -4e-05 0.34269 0.94658 0.0
H445 H 0.17033 0.35846 0.05933 0.0
H446 H 0.98433 0.28677 0.04387 0.0
H447 H 0.18376 0.38589 0.95199 0.0
H448 H 0.10197 0.33253 0.05367 0.0
H449 H 0.06719 0.35987 0.94749 0.0
C450 C 0.01056 0.33384 0.96802 0.0
C451 C 0.98645 0.31335 0.99526 0.0
C452 C 0.11969 0.34378 0.03119 0.0
C453 C 0.06324 0.33307 0.9965 0.0
C454 C 0.15878 0.3586 0.03442 0.0
C455 C 0.18279 0.37441 1.0061 0.0
C456 C 0.10432 0.34533 0.99952 0.0
C457 C 0.16621 0.37376 0.97443 0.0
C458 C 0.04889 0.34355 0.96845 0.0
C459 C 0.00176 0.30263 1.02233 0.0
N460 N 0.12799 0.35994 0.97206 0.0
N461 N 0.03913 0.31285 1.02236 0.0
H462 H 0.65466 0.00202 0.94017 0.0
H463 H 0.80928 0.16745 0.05703 0.0
H464 H 0.69132 0.98347 0.03819 0.0
H465 H 0.79543 0.18543 0.9507 0.0
H466 H 0.76741 0.09931 0.04914 0.0
H467 H 0.70642 0.06861 0.94199 0.0
C468 C 0.67369 0.01184 0.96193 0.0
C469 C 0.66845 0.98718 0.9892 0.0
C470 C 0.77381 0.11793 0.02732 0.0
C471 C 0.72751 0.06311 0.99142 0.0
C472 C 0.79779 0.15688 0.03183 0.0
C473 C 0.80569 0.18205 1.0045 0.0
C474 C 0.75684 0.1039 0.99536 0.0
C475 C 0.79013 0.16686 0.97237 0.0
C476 C 0.70328 0.04978 0.96288 0.0
C477 C 0.69403 0.0014 1.01668 0.0
N478 N 0.76587 0.1287 0.96877 0.0
N479 N 0.72217 0.03839 1.01717 0.0
H480 H 0.65298 0.66138 0.93721 0.0
H481 H 0.64241 0.81676 0.05262 0.0
H482 H 0.70801 0.69821 0.03533 0.0
H483 H 0.61003 0.80111 0.94636 0.0
H484 H 0.66934 0.77543 0.04526 0.0
H485 H 0.6388 0.71346 0.93851 0.0
C486 C 0.66231 0.68055 0.95888 0.0
C487 C 0.68144 0.67524 0.98634 0.0
C488 C 0.65687 0.78137 0.02335 0.0
C489 C 0.66529 0.73469 0.98799 0.0
C490 C 0.64153 0.80503 0.02755 0.0
C491 C 0.62381 0.81216 1.0001 0.0
C492 C 0.65389 0.76402 0.99159 0.0
C493 C 0.62356 0.79637 0.96815 0.0
C494 C 0.65433 0.71032 0.95955 0.0
C495 C 0.69298 0.701 1.0137 0.0
N496 N 0.63782 0.77246 0.96487 0.0
N497 N 0.68445 0.72934 1.01393 0.0
H498 H 0.99132 0.69572 0.90831 0.0
H499 H 0.82558 0.62344 0.04757 0.0
H500 H -0.00241 0.65829 1.01008 0.0
H501 H 0.80369 0.62739 0.94014 0.0
H502 H 0.89224 0.6474 0.03478 0.0
H503 H 0.92553 0.6801 0.9199 0.0
C504 C 0.97894 0.68428 0.93303 0.0
C505 C -2e-05 0.67821 0.95822 0.0
C506 C 0.87298 0.64325 1.01395 0.0
C507 C 0.92527 0.66085 0.97168 0.0
C508 C 0.83481 0.62968 1.02124 0.0
C509 C 0.80877 0.62291 0.99484 0.0
C510 C 0.88554 0.65024 0.97998 0.0
C511 C 0.82273 0.63203 0.96128 0.0
C512 C 0.94146 0.67541 0.93959 0.0
C513 C 0.98253 0.66336 0.98981 0.0
N514 N 0.86021 0.64498 0.95473 0.0
N515 N 0.94634 0.65532 0.9956 0.0
H516 H 6e-05 0.65956 0.60332 0.0
H517 H 0.16743 0.82057 0.49243 0.0
H518 H 0.98374 0.69869 0.50568 0.0
H519 H 0.18325 0.79982 0.59752 0.0
H520 H 0.09918 0.7782 0.49868 0.0
H521 H 0.06633 0.71188 0.60348 0.0
C522 C 0.0103 0.67925 0.58205 0.0
C523 C 0.98637 0.67454 0.55431 0.0
C524 C 0.11736 0.78319 0.5206 0.0
C525 C 0.06199 0.73431 0.55435 0.0
C526 C 0.15637 0.80748 0.51703 0.0
C527 C 0.18098 0.81355 0.54445 0.0
C528 C 0.10272 0.76413 0.55165 0.0
C529 C 0.16515 0.79597 0.57579 0.0
C530 C 0.04807 0.70916 0.58222 0.0
C531 C 0.00113 0.70097 0.52751 0.0
N532 N 0.12698 0.7715 0.57842 0.0
N533 N 0.03796 0.72946 0.52811 0.0
H534 H 0.33794 0.00402 0.60517 0.0
H535 H 0.34578 0.16999 0.49104 0.0
H536 H 0.28386 0.9863 0.50664 0.0
H537 H 0.38058 0.18694 0.59667 0.0
H538 H 0.3199 0.10177 0.49802 0.0
H539 H 0.35182 0.07025 0.60424 0.0
C540 C 0.32877 0.01395 0.58347 0.0
C541 C 0.30995 0.98963 0.55582 0.0
C542 C 0.3327 0.1202 0.51989 0.0
C543 C 0.32573 0.06521 0.55461 0.0
C544 C 0.34742 0.15919 0.5159 0.0
C545 C 0.36548 0.18412 0.54327 0.0
C546 C 0.33663 0.10591 0.55133 0.0
C547 C 0.36673 0.16861 0.57496 0.0
C548 C 0.33659 0.0517 0.58301 0.0
C549 C 0.29864 0.00399 0.52844 0.0
N550 N 0.35303 0.13046 0.57801 0.0
N551 N 0.30695 0.04082 0.52844 0.0
H552 H 0.33232 0.3409 0.60515 0.0
H553 H 0.17388 0.34942 0.49207 0.0
H554 H 0.29582 0.28776 0.50625 0.0
H555 H 0.19164 0.38286 0.59804 0.0
H556 H 0.21636 0.3237 0.49847 0.0
H557 H 0.27989 0.3546 0.60469 0.0
C558 C 0.31318 0.3319 0.58347 0.0
C559 C 0.31866 0.3134 0.55558 0.0
C560 C 0.21067 0.33615 0.52053 0.0
C561 C 0.25878 0.32897 0.5549 0.0
C562 C 0.18631 0.35077 0.51688 0.0
C563 C 0.17937 0.3684 0.54453 0.0
C564 C 0.22891 0.33976 0.55193 0.0
C565 C 0.19615 0.36932 0.57613 0.0
C566 C 0.28321 0.33962 0.58328 0.0
C567 C 0.29293 0.3023 0.52823 0.0
N568 N 0.22069 0.35574 0.57886 0.0
N569 N 0.26437 0.31049 0.52849 0.0
H570 H 0.82385 0.18187 0.49629 0.0
H571 H 0.99009 0.33882 0.61124 0.0
H572 H 0.8063 0.19803 0.60217 0.0
H573 H 0.00742 0.30036 0.51365 0.0
H574 H 0.92342 0.28704 0.61017 0.0
H575 H 0.89192 0.22411 0.50378 0.0
C576 C 0.83449 0.194 0.5213 0.0
C577 C 0.80946 0.1866 0.54861 0.0
C578 C 0.94203 0.28981 0.58922 0.0
C579 C 0.88756 0.23582 0.55731 0.0
C580 C 0.98001 0.31937 0.58977 0.0
C581 C 0.0043 0.32415 0.56236 0.0
C582 C 0.92836 0.26514 0.56096 0.0
C583 C 0.98976 0.29808 0.53524 0.0
C584 C 0.87341 0.21818 0.52559 0.0
C585 C 0.82476 0.20294 0.58051 0.0
N586 N 0.9528 0.26999 0.53514 0.0
N587 N 0.86289 0.22734 0.58389 0.0
H588 H 0.64222 0.8271 0.49152 0.0
H589 H 0.6527 0.99259 0.60808 0.0
H590 H 0.60926 0.80923 0.59758 0.0
H591 H 0.70861 0.01142 0.51043 0.0
H592 H 0.63762 0.92597 0.60615 0.0
H593 H 0.66859 0.8953 0.49933 0.0
C594 C 0.64103 0.83768 0.51663 0.0
C595 C 0.62341 0.81251 0.54391 0.0
C596 C 0.65352 0.94485 0.58536 0.0
C597 C 0.6529 0.89073 0.55294 0.0
C598 C 0.66203 0.98283 0.58638 0.0
C599 C 0.68172 0.00758 0.55925 0.0
C600 C 0.66451 0.93156 0.55688 0.0
C601 C 0.6932 0.99341 0.53184 0.0
C602 C 0.65607 0.87666 0.52109 0.0
C603 C 0.62276 0.82775 0.57592 0.0
N604 N 0.68417 0.95636 0.53126 0.0
N605 N 0.63677 0.86592 0.57946 0.0
H606 H 0.81585 0.6474 0.48888 0.0
H607 H 0.65808 0.65508 0.60345 0.0
H608 H 0.79797 0.6121 0.59435 0.0
H609 H 0.69512 0.71027 0.50548 0.0
H610 H 0.71014 0.64087 0.60226 0.0
H611 H 0.77368 0.67334 0.49616 0.0
C612 C 0.80342 0.64564 0.51377 0.0
C613 C 0.81026 0.62744 0.541 0.0
C614 C 0.70703 0.65641 0.58122 0.0
C615 C 0.7611 0.65639 0.54941 0.0
C616 C 0.67727 0.66443 0.58183 0.0
C617 C 0.67204 0.68366 0.5544 0.0
C618 C 0.73149 0.66747 0.55288 0.0
C619 C 0.69782 0.69518 0.5271 0.0
C620 C 0.77926 0.66041 0.51792 0.0
C621 C 0.79353 0.62606 0.57273 0.0
N622 N 0.72617 0.68667 0.52695 0.0
N623 N 0.76918 0.63981 0.57595 0.0
H624 H 0.40676 0.20197 0.37385 0.0
H625 H 0.40999 0.20576 0.16917 0.0
H626 H 0.40384 0.28977 0.3138 0.0
H627 H 0.40282 0.11302 0.22911 0.0
H628 H 0.41139 0.23858 0.2218 0.0
H629 H 0.40894 0.17092 0.32126 0.0
C630 C 0.40709 0.21513 0.34973 0.0
C631 C 0.40558 0.24901 0.3485 0.0
C632 C 0.40967 0.21112 0.22345 0.0
C633 C 0.40736 0.21285 0.28782 0.0
C634 C 0.40922 0.19239 0.19329 0.0
C635 C 0.40675 0.15656 0.19448 0.0
C636 C 0.40762 0.19404 0.25519 0.0
C637 C 0.4047 0.1405 0.22678 0.0
C638 C 0.40798 0.19707 0.31959 0.0
C639 C 0.40494 0.26375 0.31616 0.0
N640 N 0.40526 0.15933 0.25574 0.0
N641 N 0.40591 0.24568 0.28722 0.0
H642 H 0.20227 0.40933 0.37674 0.0
H643 H 0.20238 0.41145 0.1721 0.0
H644 H 0.11154 0.40553 0.3161 0.0
H645 H 0.28816 0.4056 0.23277 0.0
H646 H 0.17061 0.41282 0.22446 0.0
H647 H 0.23574 0.41147 0.32439 0.0
C648 C 0.18949 0.40946 0.35253 0.0
C649 C 0.15405 0.40774 0.35105 0.0
C650 C 0.19648 0.4114 0.22632 0.0
C651 C 0.19224 0.40945 0.29066 0.0
C652 C 0.21494 0.41097 0.19632 0.0
C653 C 0.24847 0.40887 0.19781 0.0
C654 C 0.21149 0.40971 0.25819 0.0
C655 C 0.26244 0.40717 0.23023 0.0
C656 C 0.20858 0.41033 0.32253 0.0
C657 C 0.13871 0.40681 0.31863 0.0
N658 N 0.24399 0.40771 0.25903 0.0
N659 N 0.15788 0.40776 0.28982 0.0
H660 H 0.87558 0.21999 0.20907 0.0
H661 H 0.73106 0.19643 0.35775 0.0
H662 H 0.7992 0.26452 0.19991 0.0
H663 H 0.77136 0.11724 0.3425 0.0
H664 H 0.76247 0.2286 0.30443 0.0
H665 H 0.84448 0.18919 0.26269 0.0
C666 C 0.85232 0.22338 0.21837 0.0
C667 C 0.8398 0.2446 0.19973 0.0
C668 C 0.76443 0.20421 0.31285 0.0
C669 C 0.80429 0.20969 0.26141 0.0
C670 C 0.74679 0.18601 0.34341 0.0
C671 C 0.7488 0.15419 0.35479 0.0
C672 C 0.78477 0.19094 0.29381 0.0
C673 C 0.769 0.14159 0.33472 0.0
C674 C 0.83447 0.20562 0.2489 0.0
C675 C 0.80944 0.24794 0.21308 0.0
N676 N 0.78642 0.16013 0.30542 0.0
N677 N 0.79287 0.23085 0.2432 0.0
H678 H 0.58797 0.70556 0.3151 0.0
H679 H 0.59092 0.88638 0.22928 0.0
H680 H 0.58563 0.79475 0.37335 0.0
H681 H 0.58062 0.79057 0.17219 0.0
H682 H 0.59006 0.85402 0.28229 0.0
H683 H 0.58635 0.73707 0.26256 0.0
C684 C 0.58703 0.73172 0.31693 0.0
C685 C 0.58656 0.74716 0.34891 0.0
C686 C 0.58772 0.83999 0.25815 0.0
C687 C 0.58486 0.78367 0.2885 0.0
C688 C 0.58831 0.85851 0.22782 0.0
C689 C 0.58533 0.84113 0.19604 0.0
C690 C 0.58459 0.80391 0.25683 0.0
C691 C 0.58208 0.80492 0.1959 0.0
C692 C 0.58597 0.74965 0.28683 0.0
C693 C 0.58525 0.78118 0.34947 0.0
N694 N 0.58191 0.78767 0.22573 0.0
N695 N 0.58457 0.7983 0.31977 0.0
H696 H 0.70503 0.59537 0.22555 0.0
H697 H 0.88148 0.59018 0.31172 0.0
H698 H 0.79075 0.58613 0.16803 0.0
H699 H 0.78986 0.58805 0.36943 0.0
H700 H 0.84901 0.58938 0.25896 0.0
H701 H 0.73603 0.59345 0.27838 0.0
C702 C 0.73029 0.59282 0.22392 0.0
C703 C 0.74489 0.59053 0.19202 0.0
C704 C 0.83588 0.58886 0.28316 0.0
C705 C 0.78082 0.58847 0.25282 0.0
C706 C 0.85449 0.58943 0.3134 0.0
C707 C 0.83839 0.58881 0.34534 0.0
C708 C 0.80093 0.58807 0.28461 0.0
C709 C 0.80321 0.58777 0.34565 0.0
C710 C 0.74793 0.59161 0.2542 0.0
C711 C 0.77778 0.5872 0.19179 0.0
N712 N 0.78582 0.58757 0.31582 0.0
N713 N 0.79461 0.5864 0.22164 0.0
H714 H 0.10991 0.70584 0.23066 0.0
H715 H 0.28956 0.88562 0.31617 0.0
H716 H 0.20254 0.79429 0.17281 0.0
H717 H 0.20071 0.79342 0.37411 0.0
H718 H 0.25786 0.8528 0.2635 0.0
H719 H 0.1425 0.73773 0.28336 0.0
C720 C 0.13713 0.73189 0.22893 0.0
C721 C 0.15351 0.74697 0.19698 0.0
C722 C 0.24541 0.83964 0.28774 0.0
C723 C 0.19111 0.78389 0.25761 0.0
C724 C 0.26346 0.85844 0.31792 0.0
C725 C 0.24821 0.84226 0.34989 0.0
C726 C 0.21149 0.80439 0.2893 0.0
C727 C 0.21423 0.80685 0.3503 0.0
C728 C 0.1558 0.75005 0.25913 0.0
C729 C 0.18896 0.78089 0.19661 0.0
N730 N 0.19706 0.78924 0.32054 0.0
N731 N 0.20644 0.79816 0.22638 0.0
H732 H 0.53741 0.67893 0.73625 0.0
H733 H 0.53311 0.8551 0.80696 0.0
H734 H 0.56791 0.77562 0.67114 0.0
H735 H 0.56929 0.79319 0.87158 0.0
H736 H 0.54521 0.82673 0.75666 0.0
H737 H 0.5485 0.71944 0.78638 0.0
C738 C 0.54732 0.70895 0.73261 0.0
C739 C 0.55204 0.72409 0.69962 0.0
C740 C 0.55136 0.82003 0.78179 0.0
C741 C 0.56342 0.7702 0.75666 0.0
C742 C 0.54447 0.83619 0.81045 0.0
C743 C 0.55049 0.82665 0.84336 0.0
C744 C 0.56307 0.79307 0.78614 0.0
C745 C 0.56474 0.80162 0.84659 0.0
C746 C 0.55364 0.73202 0.76117 0.0
C747 C 0.56441 0.76302 0.69619 0.0
N748 N 0.56977 0.78502 0.81834 0.0
N749 N 0.56889 0.78459 0.72437 0.0
H750 H 0.67442 0.53808 0.80418 0.0
H751 H 0.85392 0.53906 0.73429 0.0
H752 H 0.77166 0.57148 0.86934 0.0
H753 H 0.78862 0.57029 0.66884 0.0
H754 H 0.82449 0.55027 0.78428 0.0
H755 H 0.71489 0.54918 0.7541 0.0
C756 C 0.70452 0.54859 0.80784 0.0
C757 C 0.71981 0.55414 0.84086 0.0
C758 C 0.81722 0.55551 0.75903 0.0
C759 C 0.76596 0.5656 0.78383 0.0
C760 C 0.83399 0.54913 0.73054 0.0
C761 C 0.82386 0.55404 0.69748 0.0
C762 C 0.7891 0.56559 0.75441 0.0
C763 C 0.79753 0.56663 0.69394 0.0
C764 C 0.72758 0.55492 0.7793 0.0
C765 C 0.75889 0.56732 0.84428 0.0
N766 N 0.78043 0.57121 0.72205 0.0
N767 N 0.78049 0.57184 0.81613 0.0
H768 H 0.19904 0.77804 0.87612 0.0
H769 H 0.21504 0.79711 0.67225 0.0
H770 H 0.13041 0.68523 0.8078 0.0
H771 H 0.3111 0.85719 0.73964 0.0
H772 H 0.17396 0.7679 0.7223 0.0
H773 H 0.23013 0.81907 0.82639 0.0
C774 C 0.18967 0.76668 0.85068 0.0
C775 C 0.16211 0.72825 0.84597 0.0
C776 C 0.20389 0.78815 0.72606 0.0
C777 C 0.19742 0.7748 0.78926 0.0
C778 C 0.22724 0.80503 0.69759 0.0
C779 C 0.26649 0.8296 0.70189 0.0
C780 C 0.21983 0.79646 0.75899 0.0
C781 C 0.28098 0.83832 0.73528 0.0
C782 C 0.20763 0.78995 0.82238 0.0
C783 C 0.15156 0.71473 0.81246 0.0
N784 N 0.2577 0.82172 0.76254 0.0
N785 N 0.16929 0.7379 0.78538 0.0
H786 H 0.45239 0.13376 0.80612 0.0
H787 H 0.41345 0.21791 0.66918 0.0
H788 H 0.42543 0.20332 0.87025 0.0
H789 H 0.46329 0.31474 0.73696 0.0
H790 H 0.40233 0.17599 0.71836 0.0
H791 H 0.44111 0.16231 0.75561 0.0
C792 C 0.44305 0.15433 0.80948 0.0
C793 C 0.4394 0.16591 0.84231 0.0
C794 C 0.41528 0.20638 0.72244 0.0
C795 C 0.4272 0.19933 0.78472 0.0
C796 C 0.42119 0.23025 0.69448 0.0
C797 C 0.43948 0.26989 0.69902 0.0
C798 C 0.42744 0.22229 0.75513 0.0
C799 C 0.44936 0.28436 0.73235 0.0
C800 C 0.43646 0.17051 0.78067 0.0
C801 C 0.42795 0.1932 0.84534 0.0
N802 N 0.44331 0.26061 0.7591 0.0
N803 N 0.42312 0.20965 0.81688 0.0
H804 H 0.33575 0.49409 0.81626 0.0
H805 H 0.14069 0.41025 0.71079 0.0
H806 H 0.22732 0.41641 0.86164 0.0
H807 H 0.24824 0.50663 0.68146 0.0
H808 H 0.17195 0.40129 0.76129 0.0
H809 H 0.30437 0.48681 0.76158 0.0
C810 C 0.30531 0.47492 0.81454 0.0
C811 C 0.28415 0.45602 0.84362 0.0
C812 C 0.18867 0.42403 0.74348 0.0
C813 C 0.24756 0.44819 0.7809 0.0
C814 C 0.17093 0.42901 0.71464 0.0
C815 C 0.19194 0.45938 0.69209 0.0
C816 C 0.22767 0.44928 0.74927 0.0
C817 C 0.23091 0.48309 0.69836 0.0
C818 C 0.28731 0.4709 0.78329 0.0
C819 C 0.24474 0.43136 0.8398 0.0
N820 N 0.24738 0.47759 0.72624 0.0
N821 N 0.22756 0.42857 0.80908 0.0
H822 H 0.78591 0.21837 0.88015 0.0
H823 H 0.77378 0.19926 0.67622 0.0
H824 H 0.85556 0.31164 0.81277 0.0
H825 H 0.67553 0.14152 0.74143 0.0
H826 H 0.81362 0.22831 0.72707 0.0
H827 H 0.75509 0.17785 0.82998 0.0
C828 C 0.79551 0.22994 0.85482 0.0
C829 C 0.82335 0.26834 0.8505 0.0
C830 C 0.78346 0.20859 0.7302 0.0
C831 C 0.78844 0.22234 0.7933 0.0
C832 C 0.76081 0.19179 0.70129 0.0
C833 C 0.72134 0.1679 0.70472 0.0
C834 C 0.76658 0.20084 0.76272 0.0
C835 C 0.70586 0.15979 0.73775 0.0
C836 C 0.77773 0.20696 0.82628 0.0
C837 C 0.83421 0.28216 0.81712 0.0
N838 N 0.72846 0.17625 0.76547 0.0
N839 N 0.81673 0.25923 0.7898 0.0
H840 H 0.71967 0.2795 0.08456 0.0
H841 H 0.51028 0.10593 0.11266 0.0
H842 H 0.69334 0.16863 0.12108 0.0
H843 H 0.54185 0.19753 0.04141 0.0
H844 H 0.57489 0.14018 0.13663 0.0
H845 H 0.65261 0.2607 0.08972 0.0
C846 C 0.69996 0.25146 0.09419 0.0
C847 C 0.71199 0.22527 0.10146 0.0
C848 C 0.56694 0.15367 0.11699 0.0
C849 C 0.63525 0.20367 0.10774 0.0
C850 C 0.53002 0.13441 0.10366 0.0
C851 C 0.52027 0.14989 0.07612 0.0
C852 C 0.5941 0.18835 0.10229 0.0
C853 C 0.54733 0.18595 0.06414 0.0
C854 C 0.66168 0.24078 0.09725 0.0
C855 C 0.68516 0.18944 0.11441 0.0
N856 N 0.58314 0.20379 0.077 0.0
N857 N 0.6479 0.17945 0.11665 0.0
H858 H 0.52694 0.70116 0.11704 0.0
H859 H 0.34246 0.54102 0.03977 0.0
H860 H 0.44067 0.72141 0.07431 0.0
H861 H 0.40579 0.51692 0.11365 0.0
H862 H 0.37032 0.60541 0.06127 0.0
H863 H 0.47921 0.634 0.12403 0.0
C864 C 0.49785 0.69158 0.1095 0.0
C865 C 0.48795 0.71674 0.09428 0.0
C866 C 0.377 0.58581 0.07408 0.0
C867 C 0.4332 0.63992 0.10221 0.0
C868 C 0.35987 0.54843 0.06249 0.0
C869 C 0.36988 0.52288 0.07638 0.0
C870 C 0.4064 0.59852 0.09823 0.0
C871 C 0.39645 0.53553 0.10306 0.0
C872 C 0.47052 0.65326 0.11378 0.0
C873 C 0.44971 0.70293 0.08564 0.0
N874 N 0.41457 0.57281 0.1126 0.0
N875 N 0.42389 0.6653 0.0891 0.0
H876 H 0.78443 0.32055 0.03848 0.0
H877 H 0.75712 0.48595 0.11553 0.0
H878 H 0.85964 0.39929 0.11428 0.0
H879 H 0.72551 0.43781 1.0145 0.0
H880 H 0.77463 0.43764 0.12992 0.0
H881 H 0.74079 0.3444 0.04732 0.0
C882 C 0.79062 0.34121 0.0586 0.0
C883 C 0.82544 0.35773 0.07601 0.0
C884 C 0.76309 0.43731 0.1049 0.0
C885 C 0.77675 0.38667 0.08471 0.0
C886 C 0.75328 0.46479 0.09664 0.0
C887 C 0.74082 0.4662 0.06354 0.0
C888 C 0.75944 0.41076 0.08007 0.0
C889 C 0.73595 0.43816 0.04002 0.0
C890 C 0.76604 0.35537 0.06311 0.0
C891 C 0.83281 0.38564 0.10066 0.0
N892 N 0.74547 0.41168 0.04868 0.0
N893 N 0.80903 0.39999 0.10377 0.0
H894 H 0.46287 0.8691 0.10921 0.0
H895 H 0.28282 0.7213 1.01873 0.0
H896 H 0.46169 0.78851 0.03695 0.0
H897 H 0.27576 0.76675 0.11622 0.0
H898 H 0.34802 0.73801 0.03169 0.0
H899 H 0.39567 0.82488 0.1215 0.0
C900 C 0.44906 0.8411 0.09756 0.0
C901 C 0.46783 0.8321 0.07245 0.0
C902 C 0.33217 0.74384 0.05063 0.0
C903 C 0.39099 0.78248 0.08485 0.0
C904 C 0.29511 0.73467 0.04299 0.0
C905 C 0.27456 0.74363 0.0661 0.0
C906 C 0.34921 0.76337 0.08108 0.0
C907 C 0.29119 0.76001 0.09757 0.0
C908 C 0.41061 0.816 0.10428 0.0
C909 C 0.44853 0.79607 0.0572 0.0
N910 N 0.32807 0.77036 0.10383 0.0
N911 N 0.41089 0.77293 0.06301 0.0
H912 H 0.51258 0.27361 0.1126 0.0
H913 H 0.66357 0.46426 1.02257 0.0
H914 H 0.56414 0.28381 1.014 0.0
H915 H 0.594 0.4622 0.10628 0.0
H916 H 0.64541 0.39868 0.03416 0.0
H917 H 0.55728 0.34153 0.12296 0.0
C918 C 0.53379 0.29001 0.09345 0.0
C919 C 0.53427 0.27355 0.06205 0.0
C920 C 0.63512 0.41277 0.05096 0.0
C921 C 0.58544 0.35042 0.07395 0.0
C922 C 0.64642 0.45066 0.04494 0.0
C923 C 0.63179 0.46919 0.06459 0.0
C924 C 0.6071 0.39245 0.07553 0.0
C925 C 0.60672 0.44907 0.09125 0.0
C926 C 0.55921 0.32862 0.09941 0.0
C927 C 0.56232 0.29571 0.0382 0.0
N928 N 0.59446 0.41136 0.09556 0.0
N929 N 0.58658 0.3331 0.04453 0.0
H930 H 0.28613 0.56874 1.01742 0.0
H931 H 0.13694 0.60276 0.11267 0.0
H932 H 0.2366 0.5151 0.11357 0.0
H933 H 0.20154 0.66579 0.025 0.0
H934 H 0.18331 0.58173 0.12261 0.0
H935 H 0.26659 0.61561 0.02808 0.0
C936 C 0.27129 0.56708 0.04092 0.0
C937 C 0.262 0.53762 0.06423 0.0
C938 C 0.1884 0.60175 0.10222 0.0
C939 C 0.23879 0.59057 0.07647 0.0
C940 C 0.16215 0.61402 0.09683 0.0
C941 C 0.16639 0.63723 0.06879 0.0
C942 C 0.21818 0.61201 0.0787 0.0
C943 C 0.19841 0.64961 0.04794 0.0
C944 C 0.26032 0.59396 0.04718 0.0
C945 C 0.2437 0.5372 0.09473 0.0
N946 N 0.22276 0.63649 0.05303 0.0
N947 N 0.23177 0.56275 0.09963 0.0
H948 H 0.79155 0.46461 0.51395 0.0
H949 H 0.75908 0.27344 0.43053 0.0
H950 H 0.86204 0.46279 0.4329 0.0
H951 H 0.72176 0.28703 0.52991 0.0
H952 H 0.77873 0.34016 0.41744 0.0
H953 H 0.74556 0.39844 0.50292 0.0
C954 C 0.79594 0.45101 0.49204 0.0
C955 C 0.82971 0.46971 0.47321 0.0
C956 C 0.7655 0.32817 0.44178 0.0
C957 C 0.77947 0.39233 0.46326 0.0
C958 C 0.75441 0.29031 0.44928 0.0
C959 C 0.73974 0.27533 0.48165 0.0
C960 C 0.76102 0.35055 0.46663 0.0
C961 C 0.73387 0.29794 0.505 0.0
C962 C 0.77023 0.41273 0.48646 0.0
C963 C 0.83579 0.44948 0.44735 0.0
N964 N 0.74477 0.3345 0.49711 0.0
N965 N 0.8113 0.41144 0.44362 0.0
H966 H 0.32553 0.79375 0.51749 0.0
H967 H 0.48348 0.76363 0.42944 0.0
H968 H 0.39673 0.86595 0.43663 0.0
H969 H 0.43542 0.72598 0.52973 0.0
H970 H 0.43589 0.78297 0.4181 0.0
H971 H 0.34612 0.74837 0.50508 0.0
C972 C 0.34335 0.79866 0.49536 0.0
C973 C 0.35806 0.83274 0.47702 0.0
C974 C 0.4354 0.76975 0.44226 0.0
C975 C 0.38554 0.78316 0.46537 0.0
C976 C 0.46247 0.75885 0.44878 0.0
C977 C 0.46373 0.74415 0.48087 0.0
C978 C 0.40918 0.76503 0.46782 0.0
C979 C 0.4359 0.73813 0.505 0.0
C980 C 0.35614 0.77329 0.48897 0.0
C981 C 0.3841 0.83946 0.45075 0.0
N982 N 0.40991 0.74882 0.49805 0.0
N983 N 0.39782 0.81526 0.44618 0.0
H984 H 0.71765 0.48795 0.42713 0.0
H985 H 0.52964 0.3309 0.51649 0.0
H986 H 0.70708 0.44243 0.52859 0.0
H987 H 0.52776 0.39981 0.43393 0.0
H988 H 0.59579 0.35222 0.50459 0.0
H989 H 0.65056 0.44018 0.41622 0.0
C990 C 0.70133 0.46749 0.44684 0.0
C991 C 0.71732 0.46948 0.47908 0.0
C992 C 0.58069 0.36157 0.48801 0.0
C993 C 0.64176 0.4147 0.46651 0.0
C994 C 0.54242 0.3483 0.49409 0.0
C995 C 0.52267 0.36206 0.47506 0.0
C996 C 0.60001 0.39062 0.46403 0.0
C997 C 0.54188 0.38783 0.44854 0.0
C998 C 0.66329 0.44032 0.44056 0.0
C999 C 0.69541 0.44235 0.5037 0.0
N1000 N 0.57993 0.40209 0.44427 0.0
N1001 N 0.65868 0.41621 0.49696 0.0
H1002 H 0.2266 0.721 0.43115 0.0
H1003 H 0.19436 0.53155 0.5189 0.0
H1004 H 0.26245 0.70969 0.53201 0.0
H1005 H 0.12325 0.53067 0.43705 0.0
H1006 H 0.23922 0.59792 0.50758 0.0
H1007 H 0.20606 0.65364 0.42 0.0
C1008 C 0.23068 0.70445 0.45067 0.0
C1009 C 0.24533 0.72034 0.48282 0.0
C1010 C 0.21467 0.58302 0.49105 0.0
C1011 C 0.22311 0.64445 0.46999 0.0
C1012 C 0.18964 0.54465 0.49679 0.0
C1013 C 0.1561 0.52507 0.47772 0.0
C1014 C 0.20497 0.60264 0.46738 0.0
C1015 C 0.14941 0.54466 0.45165 0.0
C1016 C 0.21908 0.66625 0.44427 0.0
C1017 C 0.25041 0.69813 0.5072 0.0
N1018 N 0.17328 0.58279 0.44767 0.0
N1019 N 0.23913 0.66125 0.50034 0.0
H1020 H 0.55394 0.27255 0.53253 0.0
H1021 H 0.59361 0.12826 0.43758 0.0
H1022 H 0.50512 0.22851 0.43358 0.0
H1023 H 0.6613 0.19933 0.52064 0.0
H1024 H 0.56947 0.17215 0.42761 0.0
H1025 H 0.60154 0.25404 0.52215 0.0
C1026 C 0.55345 0.25905 0.50851 0.0
C1027 C 0.52526 0.25117 0.48419 0.0
C1028 C 0.5912 0.17923 0.44683 0.0
C1029 C 0.57919 0.22926 0.47214 0.0
C1030 C 0.60524 0.1544 0.45221 0.0
C1031 C 0.63062 0.1611 0.47909 0.0
C1032 C 0.60195 0.2101 0.46923 0.0
C1033 C 0.6435 0.19432 0.49846 0.0
C1034 C 0.58082 0.24876 0.50237 0.0
C1035 C 0.52629 0.23453 0.45311 0.0
N1036 N 0.62863 0.21723 0.49352 0.0
N1037 N 0.55231 0.2232 0.44824 0.0
H1038 H 0.46116 0.59739 0.43397 0.0
H1039 H 0.28015 0.55834 0.5335 0.0
H1040 H 0.46056 0.66526 0.51809 0.0
H1041 H 0.27252 0.50949 0.43401 0.0
H1042 H 0.34607 0.60591 0.52193 0.0
H1043 H 0.39297 0.57362 0.42554 0.0
C1044 C 0.44721 0.60915 0.44917 0.0
C1045 C 0.46674 0.63446 0.47591 0.0
C1046 C 0.33003 0.58519 0.5023 0.0
C1047 C 0.3889 0.60619 0.46778 0.0
C1048 C 0.29248 0.55785 0.50911 0.0
C1049 C 0.27143 0.52964 0.48498 0.0
C1050 C 0.34704 0.58354 0.47155 0.0
C1051 C 0.28824 0.53066 0.45341 0.0
C1052 C 0.40825 0.59531 0.44466 0.0
C1053 C 0.44712 0.64752 0.496 0.0
N1054 N 0.3255 0.55667 0.44786 0.0
N1055 N 0.40923 0.63282 0.4919 0.0
H1056 H 0.41394 0.0214 0.99031 0.0
H1057 H 0.45565 0.88224 0.96941 0.0
H1058 H 0.53109 0.10218 0.96814 0.0
H1059 H 0.56932 0.97136 0.99339 0.0
H1060 H 0.44083 0.92952 0.94779 0.0
H1061 H 0.42449 0.97011 0.97172 0.0
C1062 C 0.4412 0.02857 0.9793 0.0
C1063 C 0.47151 0.06611 0.98043 0.0
C1064 C 0.46929 0.93892 0.95706 0.0
C1065 C 0.48472 0.00744 0.96031 0.0
C1066 C 0.47818 0.91175 0.96853 0.0
C1067 C 0.514 0.92282 0.98288 0.0
C1068 C 0.49599 0.97769 0.96111 0.0
C1069 C 0.54156 0.96154 0.98213 0.0
C1070 C 0.44756 -0.00088 0.96901 0.0
C1071 C 0.5068 0.07359 0.96725 0.0
N1072 N 0.53171 0.9877 0.97224 0.0
N1073 N 0.51275 0.04453 0.95875 0.0
H1074 H 0.41652 0.52975 0.96533 0.0
H1075 H 0.5988 0.57805 0.98981 0.0
H1076 H 0.39653 0.41846 0.99265 0.0
H1077 H 0.5661 0.46138 0.969 0.0
H1078 H 0.5365 0.56518 0.96967 0.0
H1079 H 0.4792 0.54628 0.94382 0.0
C1080 C 0.42444 0.50792 0.96497 0.0
C1081 C 0.40116 0.47257 0.98078 0.0
C1082 C 0.54345 0.54277 0.96766 0.0
C1083 C 0.47432 0.49244 0.95874 0.0
C1084 C 0.57942 0.5504 0.97893 0.0
C1085 C 0.58773 0.52088 0.98081 0.0
C1086 C 0.51565 0.50518 0.95872 0.0
C1087 C 0.5609 0.48507 0.96764 0.0
C1088 C 0.46087 0.51787 0.95362 0.0
C1089 C 0.41345 0.44592 0.9805 0.0
N1090 N 0.52581 0.47795 0.95809 0.0
N1091 N 0.44961 0.45673 0.97055 0.0
H1092 H 0.96704 0.3905 1.00075 0.0
H1093 H 0.10651 0.57121 0.97142 0.0
H1094 H 0.88631 0.42766 0.98151 0.0
H1095 H 0.02061 0.59819 1.00102 0.0
H1096 H 0.0571 0.50803 0.95382 0.0
H1097 H 0.01805 0.45239 0.98133 0.0
C1098 C 0.95979 0.41082 0.99042 0.0
C1099 C 0.92241 0.40377 0.99231 0.0
C1100 C 0.04883 0.52784 0.96345 0.0
C1101 C 0.98066 0.47548 0.97116 0.0
C1102 C 0.07711 0.56445 0.9726 0.0
C1103 C 0.0677 0.59029 0.98735 0.0
C1104 C 0.01069 0.51641 0.97013 0.0
C1105 C 0.02915 0.57944 0.98932 0.0
C1106 C 0.98904 0.44658 0.97959 0.0
C1107 C 0.91483 0.43191 0.98009 0.0
N1108 N 0.002 0.54297 0.98158 0.0
N1109 N 0.9437 0.46676 0.97091 0.0
H1110 H 0.97007 0.57755 0.55065 0.0
H1111 H 0.10423 0.53014 0.57935 0.0
H1112 H 0.88595 0.46048 0.5696 0.0
H1113 H 0.01462 0.41834 0.5507 0.0
H1114 H 0.05699 0.54611 0.59854 0.0
H1115 H 0.01921 0.56471 0.5716 0.0
C1116 C 0.96166 0.54978 0.56126 0.0
C1117 C 0.9239 0.52019 0.55869 0.0
C1118 C 0.04746 0.51774 0.58888 0.0
C1119 C 0.98 0.50449 0.58167 0.0
C1120 C 0.07456 0.50808 0.57889 0.0
C1121 C 0.0634 0.47265 0.56357 0.0
C1122 C 0.00884 0.49206 0.58271 0.0
C1123 C 0.02449 0.44582 0.5626 0.0
C1124 C 0.98984 0.54214 0.57299 0.0
C1125 C 0.91478 0.48421 0.57149 0.0
N1126 N -0.00145 0.4564 0.57117 0.0
N1127 N 0.94264 0.47711 0.58151 0.0
H1128 H 0.57125 0.10914 0.57992 0.0
H1129 H 0.39011 0.97273 0.5541 0.0
H1130 H 0.59489 0.01998 0.55371 0.0
H1131 H 0.42437 0.88994 0.57437 0.0
H1132 H 0.45209 0.02281 0.57411 0.0
H1133 H 0.50852 0.06172 0.59998 0.0
C1134 C 0.56402 0.07956 0.58014 0.0
C1135 C 0.58866 0.06857 0.56545 0.0
C1136 C 0.44563 0.99357 0.57601 0.0
C1137 C 0.51503 0.01365 0.5853 0.0
C1138 C 0.40979 0.96485 0.56483 0.0
C1139 C 0.40199 0.92718 0.56286 0.0
C1140 C 0.47385 0.98437 0.58477 0.0
C1141 C 0.42924 0.91872 0.57577 0.0
C1142 C 0.52753 0.05233 0.59062 0.0
C1143 C 0.57702 0.02973 0.5652 0.0
N1144 N 0.46424 0.9471 0.58525 0.0
N1145 N 0.54065 0.00358 0.57411 0.0
H1146 H 0.57523 0.60227 0.55291 0.0
H1147 H 0.41536 0.39418 0.55362 0.0
H1148 H 0.45834 0.56997 0.57132 0.0
H1149 H 0.53232 0.42652 0.57183 0.0
H1150 H 0.42914 0.45693 0.57403 0.0
H1151 H 0.56161 0.53968 0.57367 0.0
C1152 C 0.5473 0.58288 0.56318 0.0
C1153 C 0.51794 0.59132 0.56051 0.0
C1154 C 0.45151 0.44981 0.57496 0.0
C1155 C 0.50139 0.51895 0.58242 0.0
C1156 C 0.44335 0.41362 0.5638 0.0
C1157 C 0.47268 0.40514 0.56113 0.0
C1158 C 0.48941 0.47772 0.58259 0.0
C1159 C 0.50884 0.43196 0.57364 0.0
C1160 C 0.53924 0.5468 0.57457 0.0
C1161 C 0.48185 0.56457 0.57315 0.0
N1162 N 0.51648 0.46735 0.58286 0.0
N1163 N 0.4743 0.52929 0.58262 0.0
loop_
_geom_bond_atom_site_label_1
_geom_bond_atom_site_label_2
_geom_bond_distance
_geom_bond_site_symmetry_2
_ccdc_geom_bond_type
Zn0 N4 2.020 . S
Zn0 O8 2.019 . S
Zn0 N10 2.119 . S
Zn0 O18 1.975 . S
C1 N2 1.343 . S
C1 N5 1.336 . S
N2 C1 1.343 . S
N2 C3 1.325 1_554 S
C3 N2 1.325 1_556 S
C3 N4 1.336 . S
N4 Zn0 2.020 . S
N4 C3 1.336 . S
N4 N5 1.354 1_556 S
N5 C1 1.336 . S
N5 N4 1.354 1_554 S
N5 Zn9 2.020 . S
C6 O7 1.244 1_554 S
C6 O30 1.257 . S
O7 C6 1.244 1_556 S
O8 Zn0 2.019 . S
O8 C28 1.257 . S
Zn9 N5 2.020 . S
Zn9 O16 1.975 . S
Zn9 N25 2.119 . S
Zn9 O30 2.019 . S
N10 Zn0 2.119 . S
N10 C12 1.334 . S
N10 C13 1.328 . S
C11 C12 1.391 . S
C11 N14 1.329 . S
C11 H32 0.930 . S
C12 N10 1.334 . S
C12 C11 1.391 . S
C12 H19 0.930 . S
C13 N10 1.328 . S
C13 C15 1.392 . S
C13 H20 0.930 . S
N14 C11 1.329 . S
N14 C15 1.331 . S
C15 C13 1.392 . S
C15 N14 1.331 . S
O16 Zn9 1.975 . S
O16 C17 1.251 1_554 S
C17 O16 1.251 1_556 S
C17 O18 1.253 . S
O18 Zn0 1.975 . S
O18 C17 1.253 . S
H19 C12 0.930 . S
H20 C13 0.930 . S
C21 C22 1.392 . S
C21 N25 1.328 . S
C21 H27 0.930 . S
C22 C21 1.392 . S
C22 N26 1.331 . S
C23 C24 1.391 . S
C23 N26 1.329 . S
C23 H33 0.930 . S
C24 C23 1.391 . S
C24 N25 1.334 . S
C24 H31 0.930 . S
N25 Zn9 2.119 . S
N25 C21 1.328 . S
N25 C24 1.334 . S
N26 C22 1.331 . S
N26 C23 1.329 . S
H27 C21 0.930 . S
C28 O8 1.257 . S
C28 O29 1.244 1_556 S
O29 C28 1.244 1_554 S
O30 C6 1.257 . S
O30 Zn9 2.019 . S
H31 C24 0.930 . S
H32 C11 0.930 . S
H33 C23 0.930 . S
Zn34 N38 2.020 . S
Zn34 O42 2.019 . S
Zn34 N44 2.119 . S
Zn34 O52 1.975 . S
C35 N36 1.325 1_556 S
C35 N39 1.336 . S
N36 C35 1.325 1_554 S
N36 C37 1.343 . S
C37 N36 1.343 . S
C37 N38 1.336 . S
N38 Zn34 2.020 . S
N38 C37 1.336 . S
N38 N39 1.354 1_554 S
N39 C35 1.336 . S
N39 N38 1.354 1_556 S
N39 Zn43 2.020 . S
C40 O41 1.244 1_556 S
C40 O64 1.257 . S
O41 C40 1.244 1_554 S
O42 Zn34 2.019 . S
O42 C62 1.257 . S
Zn43 N39 2.020 . S
Zn43 O50 1.975 . S
Zn43 N59 2.119 . S
Zn43 O64 2.019 . S
N44 Zn34 2.119 . S
N44 C46 1.334 . S
N44 C47 1.328 . S
C45 C46 1.391 . S
C45 N48 1.329 . S
C45 H66 0.930 . S
C46 N44 1.334 . S
C46 C45 1.391 . S
C46 H53 0.930 . S
C47 N44 1.328 . S
C47 C49 1.392 . S
C47 H54 0.930 . S
N48 C45 1.329 . S
N48 C49 1.331 . S
C49 C47 1.392 . S
C49 N48 1.331 . S
O50 Zn43 1.975 . S
O50 C51 1.253 . S
C51 O50 1.253 . S
C51 O52 1.251 1_556 S
O52 Zn34 1.975 . S
O52 C51 1.251 1_554 S
H53 C46 0.930 . S
H54 C47 0.930 . S
C55 C56 1.392 . S
C55 N59 1.328 . S
C55 H61 0.930 . S
C56 C55 1.392 . S
C56 N60 1.331 . S
C57 C58 1.391 . S
C57 N60 1.329 . S
C57 H67 0.930 . S
C58 C57 1.391 . S
C58 N59 1.334 . S
C58 H65 0.930 . S
N59 Zn43 2.119 . S
N59 C55 1.328 . S
N59 C58 1.334 . S
N60 C56 1.331 . S
N60 C57 1.329 . S
H61 C55 0.930 . S
C62 O42 1.257 . S
C62 O63 1.244 1_554 S
O63 C62 1.244 1_556 S
O64 C40 1.257 . S
O64 Zn43 2.019 . S
H65 C58 0.930 . S
H66 C45 0.930 . S
H67 C57 0.930 . S
Zn68 N72 2.020 . S
Zn68 O76 2.019 . S
Zn68 N78 2.119 . S
Zn68 O86 1.975 . S
C69 N70 1.343 . S
C69 N73 1.336 . S
N70 C69 1.343 . S
N70 C71 1.325 1_554 S
C71 N70 1.325 1_556 S
C71 N72 1.336 . S
N72 Zn68 2.020 . S
N72 C71 1.336 . S
N72 N73 1.354 1_556 S
N73 C69 1.336 . S
N73 N72 1.354 1_554 S
N73 Zn77 2.020 . S
C74 O75 1.244 1_554 S
C74 O98 1.257 . S
O75 C74 1.244 1_556 S
O76 Zn68 2.019 . S
O76 C96 1.257 . S
Zn77 N73 2.020 . S
Zn77 O84 1.975 . S
Zn77 N93 2.119 . S
Zn77 O98 2.019 . S
N78 Zn68 2.119 . S
N78 C80 1.334 . S
N78 C81 1.328 . S
C79 C80 1.391 . S
C79 N82 1.329 . S
C79 H100 0.930 . S
C80 N78 1.334 . S
C80 C79 1.391 . S
C80 H87 0.930 . S
C81 N78 1.328 . S
C81 C83 1.392 . S
C81 H88 0.930 . S
N82 C79 1.329 . S
N82 C83 1.331 . S
C83 C81 1.392 . S
C83 N82 1.331 . S
O84 Zn77 1.975 . S
O84 C85 1.251 1_554 S
C85 O84 1.251 1_556 S
C85 O86 1.253 . S
O86 Zn68 1.975 . S
O86 C85 1.253 . S
H87 C80 0.930 . S
H88 C81 0.930 . S
C89 C90 1.392 . S
C89 N93 1.328 . S
C89 H95 0.930 . S
C90 C89 1.392 . S
C90 N94 1.331 . S
C91 C92 1.391 . S
C91 N94 1.329 . S
C91 H101 0.930 . S
C92 C91 1.391 . S
C92 N93 1.334 . S
C92 H99 0.930 . S
N93 Zn77 2.119 . S
N93 C89 1.328 . S
N93 C92 1.334 . S
N94 C90 1.331 . S
N94 C91 1.329 . S
H95 C89 0.930 . S
C96 O76 1.257 . S
C96 O97 1.244 1_556 S
O97 C96 1.244 1_554 S
O98 C74 1.257 . S
O98 Zn77 2.019 . S
H99 C92 0.930 . S
H100 C79 0.930 . S
H101 C91 0.930 . S
Zn102 N106 2.020 . S
Zn102 O110 2.019 . S
Zn102 N112 2.119 . S
Zn102 O120 1.975 . S
C103 N104 1.325 1_556 S
C103 N107 1.336 . S
N104 C103 1.325 1_554 S
N104 C105 1.343 . S
C105 N104 1.343 . S
C105 N106 1.336 . S
N106 Zn102 2.020 . S
N106 C105 1.336 . S
N106 N107 1.354 1_554 S
N107 C103 1.336 . S
N107 N106 1.354 1_556 S
N107 Zn111 2.020 . S
C108 O109 1.244 1_556 S
C108 O132 1.257 . S
O109 C108 1.244 1_554 S
O110 Zn102 2.019 . S
O110 C130 1.257 . S
Zn111 N107 2.020 . S
Zn111 O118 1.975 . S
Zn111 N127 2.119 . S
Zn111 O132 2.019 . S
N112 Zn102 2.119 . S
N112 C114 1.334 . S
N112 C115 1.328 . S
C113 C114 1.391 . S
C113 N116 1.329 . S
C113 H134 0.930 . S
C114 N112 1.334 . S
C114 C113 1.391 . S
C114 H121 0.930 . S
C115 N112 1.328 . S
C115 C117 1.392 . S
C115 H122 0.930 . S
N116 C113 1.329 . S
N116 C117 1.331 . S
C117 C115 1.392 . S
C117 N116 1.331 . S
O118 Zn111 1.975 . S
O118 C119 1.253 . S
C119 O118 1.253 . S
C119 O120 1.251 1_556 S
O120 Zn102 1.975 . S
O120 C119 1.251 1_554 S
H121 C114 0.930 . S
H122 C115 0.930 . S
C123 C124 1.392 . S
C123 N127 1.328 . S
C123 H129 0.930 . S
C124 C123 1.392 . S
C124 N128 1.331 . S
C125 C126 1.391 . S
C125 N128 1.329 . S
C125 H135 0.930 . S
C126 C125 1.391 . S
C126 N127 1.334 . S
C126 H133 0.930 . S
N127 Zn111 2.119 . S
N127 C123 1.328 . S
N127 C126 1.334 . S
N128 C124 1.331 . S
N128 C125 1.329 . S
H129 C123 0.930 . S
C130 O110 1.257 . S
C130 O131 1.244 1_554 S
O131 C130 1.244 1_556 S
O132 C108 1.257 . S
O132 Zn111 2.019 . S
H133 C126 0.930 . S
H134 C113 0.930 . S
H135 C125 0.930 . S
Zn136 N140 2.020 . S
Zn136 O144 2.019 . S
Zn136 N146 2.119 . S
Zn136 O154 1.975 . S
C137 N138 1.343 . S
C137 N141 1.336 . S
N138 C137 1.343 . S
N138 C139 1.325 1_554 S
C139 N138 1.325 1_556 S
C139 N140 1.336 . S
N140 Zn136 2.020 . S
N140 C139 1.336 . S
N140 N141 1.354 1_556 S
N141 C137 1.336 . S
N141 N140 1.354 1_554 S
N141 Zn145 2.020 . S
C142 O143 1.244 1_554 S
C142 O166 1.257 . S
O143 C142 1.244 1_556 S
O144 Zn136 2.019 . S
O144 C164 1.257 . S
Zn145 N141 2.020 . S
Zn145 O152 1.975 . S
Zn145 N161 2.119 . S
Zn145 O166 2.019 . S
N146 Zn136 2.119 . S
N146 C148 1.334 . S
N146 C149 1.328 . S
C147 C148 1.391 . S
C147 N150 1.329 . S
C147 H168 0.930 . S
C148 N146 1.334 . S
C148 C147 1.391 . S
C148 H155 0.930 . S
C149 N146 1.328 . S
C149 C151 1.392 . S
C149 H156 0.930 . S
N150 C147 1.329 . S
N150 C151 1.331 . S
C151 C149 1.392 . S
C151 N150 1.331 . S
O152 Zn145 1.975 . S
O152 C153 1.251 1_554 S
C153 O152 1.251 1_556 S
C153 O154 1.253 . S
O154 Zn136 1.975 . S
O154 C153 1.253 . S
H155 C148 0.930 . S
H156 C149 0.930 . S
C157 C158 1.392 . S
C157 N161 1.328 . S
C157 H163 0.930 . S
C158 C157 1.392 . S
C158 N162 1.331 . S
C159 C160 1.391 . S
C159 N162 1.329 . S
C159 H169 0.930 . S
C160 C159 1.391 . S
C160 N161 1.334 . S
C160 H167 0.930 . S
N161 Zn145 2.119 . S
N161 C157 1.328 . S
N161 C160 1.334 . S
N162 C158 1.331 . S
N162 C159 1.329 . S
H163 C157 0.930 . S
C164 O144 1.257 . S
C164 O165 1.244 1_556 S
O165 C164 1.244 1_554 S
O166 C142 1.257 . S
O166 Zn145 2.019 . S
H167 C160 0.930 . S
H168 C147 0.930 . S
H169 C159 0.930 . S
Zn170 N174 2.020 . S
Zn170 O178 2.019 . S
Zn170 N180 2.119 . S
Zn170 O188 1.975 . S
C171 N172 1.325 1_556 S
C171 N175 1.336 . S
N172 C171 1.325 1_554 S
N172 C173 1.343 . S
C173 N172 1.343 . S
C173 N174 1.336 . S
N174 Zn170 2.020 . S
N174 C173 1.336 . S
N174 N175 1.354 1_554 S
N175 C171 1.336 . S
N175 N174 1.354 1_556 S
N175 Zn179 2.020 . S
C176 O177 1.244 1_556 S
C176 O200 1.257 . S
O177 C176 1.244 1_554 S
O178 Zn170 2.019 . S
O178 C198 1.257 . S
Zn179 N175 2.020 . S
Zn179 O186 1.975 . S
Zn179 N195 2.119 . S
Zn179 O200 2.019 . S
N180 Zn170 2.119 . S
N180 C182 1.334 . S
N180 C183 1.328 . S
C181 C182 1.391 . S
C181 N184 1.329 . S
C181 H202 0.930 . S
C182 N180 1.334 . S
C182 C181 1.391 . S
C182 H189 0.930 . S
C183 N180 1.328 . S
C183 C185 1.392 . S
C183 H190 0.930 . S
N184 C181 1.329 . S
N184 C185 1.331 . S
C185 C183 1.392 . S
C185 N184 1.331 . S
O186 Zn179 1.975 . S
O186 C187 1.253 . S
C187 O186 1.253 . S
C187 O188 1.251 1_556 S
O188 Zn170 1.975 . S
O188 C187 1.251 1_554 S
H189 C182 0.930 . S
H190 C183 0.930 . S
C191 C192 1.392 . S
C191 N195 1.328 . S
C191 H197 0.930 . S
C192 C191 1.392 . S
C192 N196 1.331 . S
C193 C194 1.391 . S
C193 N196 1.329 . S
C193 H203 0.930 . S
C194 C193 1.391 . S
C194 N195 1.334 . S
C194 H201 0.930 . S
N195 Zn179 2.119 . S
N195 C191 1.328 . S
N195 C194 1.334 . S
N196 C192 1.331 . S
N196 C193 1.329 . S
H197 C191 0.930 . S
C198 O178 1.257 . S
C198 O199 1.244 1_554 S
O199 C198 1.244 1_556 S
O200 C176 1.257 . S
O200 Zn179 2.019 . S
H201 C194 0.930 . S
H202 C181 0.930 . S
H203 C193 0.930 . S
Zn204 N208 2.020 . S
Zn204 O212 2.019 . S
Zn204 N214 2.119 . S
Zn204 O222 1.975 . S
C205 N206 1.334 . S
C205 N209 1.336 . S
N206 C205 1.334 . S
N206 C207 1.334 . S
C207 N206 1.334 . S
C207 N208 1.336 . S
N208 Zn204 2.020 . S
N208 C207 1.336 . S
N208 N209 1.354 . S
N209 C205 1.336 . S
N209 N208 1.354 . S
N209 Zn213 2.020 . S
C210 O211 1.244 . S
C210 O234 1.257 . S
O211 C210 1.244 . S
O212 Zn204 2.019 . S
O212 C232 1.257 . S
Zn213 N209 2.020 . S
Zn213 O220 1.975 . S
Zn213 N229 2.119 . S
Zn213 O234 2.019 . S
N214 Zn204 2.119 . S
N214 C216 1.334 . S
N214 C217 1.328 . S
C215 C216 1.391 . S
C215 N218 1.329 . S
C215 H236 0.930 . S
C216 N214 1.334 . S
C216 C215 1.391 . S
C216 H223 0.930 . S
C217 N214 1.328 . S
C217 C219 1.392 . S
C217 H224 0.930 . S
N218 C215 1.329 . S
N218 C219 1.331 . S
C219 C217 1.392 . S
C219 N218 1.331 . S
O220 Zn213 1.975 . S
O220 C221 1.252 . S
C221 O220 1.252 . S
C221 O222 1.252 . S
O222 Zn204 1.975 . S
O222 C221 1.252 . S
H223 C216 0.930 . S
H224 C217 0.930 . S
C225 C226 1.392 . S
C225 N229 1.328 . S
C225 H231 0.930 . S
C226 C225 1.392 . S
C226 N230 1.331 . S
C227 C228 1.391 . S
C227 N230 1.329 . S
C227 H237 0.930 . S
C228 C227 1.391 . S
C228 N229 1.334 . S
C228 H235 0.930 . S
N229 Zn213 2.119 . S
N229 C225 1.328 . S
N229 C228 1.334 . S
N230 C226 1.331 . S
N230 C227 1.329 . S
H231 C225 0.930 . S
C232 O212 1.257 . S
C232 O233 1.244 . S
O233 C232 1.244 . S
O234 C210 1.257 . S
O234 Zn213 2.019 . S
H235 C228 0.930 . S
H236 C215 0.930 . S
H237 C227 0.930 . S
Zn238 N242 2.020 . S
Zn238 O246 2.019 . S
Zn238 N248 2.119 . S
Zn238 O256 1.975 . S
C239 N240 1.334 . S
C239 N243 1.336 . S
N240 C239 1.334 . S
N240 C241 1.334 . S
C241 N240 1.334 . S
C241 N242 1.336 . S
N242 Zn238 2.020 . S
N242 C241 1.336 . S
N242 N243 1.354 . S
N243 C239 1.336 . S
N243 N242 1.354 . S
N243 Zn247 2.020 . S
C244 O245 1.244 . S
C244 O268 1.257 . S
O245 C244 1.244 . S
O246 Zn238 2.019 . S
O246 C266 1.257 . S
Zn247 N243 2.020 . S
Zn247 O254 1.975 . S
Zn247 N263 2.119 . S
Zn247 O268 2.019 . S
N248 Zn238 2.119 . S
N248 C250 1.334 . S
N248 C251 1.328 . S
C249 C250 1.391 . S
C249 N252 1.329 . S
C249 H270 0.930 . S
C250 N248 1.334 . S
C250 C249 1.391 . S
C250 H257 0.930 . S
C251 N248 1.328 . S
C251 C253 1.392 . S
C251 H258 0.930 . S
N252 C249 1.329 . S
N252 C253 1.331 . S
C253 C251 1.392 . S
C253 N252 1.331 . S
O254 Zn247 1.975 . S
O254 C255 1.252 . S
C255 O254 1.252 . S
C255 O256 1.252 . S
O256 Zn238 1.975 . S
O256 C255 1.252 . S
H257 C250 0.930 . S
H258 C251 0.930 . S
C259 C260 1.392 . S
C259 N263 1.328 . S
C259 H265 0.930 . S
C260 C259 1.392 . S
C260 N264 1.331 . S
C261 C262 1.391 . S
C261 N264 1.329 . S
C261 H271 0.930 . S
C262 C261 1.391 . S
C262 N263 1.334 . S
C262 H269 0.930 . S
N263 Zn247 2.119 . S
N263 C259 1.328 . S
N263 C262 1.334 . S
N264 C260 1.331 . S
N264 C261 1.329 . S
H265 C259 0.930 . S
C266 O246 1.257 . S
C266 O267 1.244 . S
O267 C266 1.244 . S
O268 C244 1.257 . S
O268 Zn247 2.019 . S
H269 C262 0.930 . S
H270 C249 0.930 . S
H271 C261 0.930 . S
Zn272 N276 2.020 . S
Zn272 O280 2.019 . S
Zn272 N282 2.119 . S
Zn272 O290 1.975 . S
C273 N274 1.334 . S
C273 N277 1.336 . S
N274 C273 1.334 . S
N274 C275 1.334 . S
C275 N274 1.334 . S
C275 N276 1.336 . S
N276 Zn272 2.020 . S
N276 C275 1.336 . S
N276 N277 1.354 . S
N277 C273 1.336 . S
N277 N276 1.354 . S
N277 Zn281 2.020 . S
C278 O279 1.244 . S
C278 O302 1.257 . S
O279 C278 1.244 . S
O280 Zn272 2.019 . S
O280 C300 1.257 . S
Zn281 N277 2.020 . S
Zn281 O288 1.975 . S
Zn281 N297 2.119 . S
Zn281 O302 2.019 . S
N282 Zn272 2.119 . S
N282 C284 1.334 . S
N282 C285 1.328 . S
C283 C284 1.391 . S
C283 N286 1.329 . S
C283 H304 0.930 . S
C284 N282 1.334 . S
C284 C283 1.391 . S
C284 H291 0.930 . S
C285 N282 1.328 . S
C285 C287 1.392 . S
C285 H292 0.930 . S
N286 C283 1.329 . S
N286 C287 1.331 . S
C287 C285 1.392 . S
C287 N286 1.331 . S
O288 Zn281 1.975 . S
O288 C289 1.252 . S
C289 O288 1.252 . S
C289 O290 1.252 . S
O290 Zn272 1.975 . S
O290 C289 1.252 . S
H291 C284 0.930 . S
H292 C285 0.930 . S
C293 C294 1.392 . S
C293 N297 1.328 . S
C293 H299 0.930 . S
C294 C293 1.392 . S
C294 N298 1.331 . S
C295 C296 1.391 . S
C295 N298 1.329 . S
C295 H305 0.930 . S
C296 C295 1.391 . S
C296 N297 1.334 . S
C296 H303 0.930 . S
N297 Zn281 2.119 . S
N297 C293 1.328 . S
N297 C296 1.334 . S
N298 C294 1.331 . S
N298 C295 1.329 . S
H299 C293 0.930 . S
C300 O280 1.257 . S
C300 O301 1.244 . S
O301 C300 1.244 . S
O302 C278 1.257 . S
O302 Zn281 2.019 . S
H303 C296 0.930 . S
H304 C283 0.930 . S
H305 C295 0.930 . S
Zn306 N310 2.020 . S
Zn306 O314 2.019 . S
Zn306 N316 2.119 . S
Zn306 O324 1.975 . S
C307 N308 1.334 . S
C307 N311 1.336 . S
N308 C307 1.334 . S
N308 C309 1.334 . S
C309 N308 1.334 . S
C309 N310 1.336 . S
N310 Zn306 2.020 . S
N310 C309 1.336 . S
N310 N311 1.354 . S
N311 C307 1.336 . S
N311 N310 1.354 . S
N311 Zn315 2.020 . S
C312 O313 1.244 . S
C312 O336 1.257 . S
O313 C312 1.244 . S
O314 Zn306 2.019 . S
O314 C334 1.257 . S
Zn315 N311 2.020 . S
Zn315 O322 1.975 . S
Zn315 N331 2.119 . S
Zn315 O336 2.019 . S
N316 Zn306 2.119 . S
N316 C318 1.334 . S
N316 C319 1.328 . S
C317 C318 1.391 . S
C317 N320 1.329 . S
C317 H338 0.930 . S
C318 N316 1.334 . S
C318 C317 1.391 . S
C318 H325 0.930 . S
C319 N316 1.328 . S
C319 C321 1.392 . S
C319 H326 0.930 . S
N320 C317 1.329 . S
N320 C321 1.331 . S
C321 C319 1.392 . S
C321 N320 1.331 . S
O322 Zn315 1.975 . S
O322 C323 1.252 . S
C323 O322 1.252 . S
C323 O324 1.252 . S
O324 Zn306 1.975 . S
O324 C323 1.252 . S
H325 C318 0.930 . S
H326 C319 0.930 . S
C327 C328 1.392 . S
C327 N331 1.328 . S
C327 H333 0.930 . S
C328 C327 1.392 . S
C328 N332 1.331 . S
C329 C330 1.391 . S
C329 N332 1.329 . S
C329 H339 0.930 . S
C330 C329 1.391 . S
C330 N331 1.334 . S
C330 H337 0.930 . S
N331 Zn315 2.119 . S
N331 C327 1.328 . S
N331 C330 1.334 . S
N332 C328 1.331 . S
N332 C329 1.329 . S
H333 C327 0.930 . S
C334 O314 1.257 . S
C334 O335 1.244 . S
O335 C334 1.244 . S
O336 C312 1.257 . S
O336 Zn315 2.019 . S
H337 C330 0.930 . S
H338 C317 0.930 . S
H339 C329 0.930 . S
Zn340 N344 2.020 . S
Zn340 O348 2.019 . S
Zn340 N350 2.119 . S
Zn340 O358 1.975 . S
C341 N342 1.334 . S
C341 N345 1.336 . S
N342 C341 1.334 . S
N342 C343 1.334 . S
C343 N342 1.334 . S
C343 N344 1.336 . S
N344 Zn340 2.020 . S
N344 C343 1.336 . S
N344 N345 1.354 . S
N345 C341 1.336 . S
N345 N344 1.354 . S
N345 Zn349 2.020 . S
C346 O347 1.244 . S
C346 O370 1.257 . S
O347 C346 1.244 . S
O348 Zn340 2.019 . S
O348 C368 1.257 . S
Zn349 N345 2.020 . S
Zn349 O356 1.975 . S
Zn349 N365 2.119 . S
Zn349 O370 2.019 . S
N350 Zn340 2.119 . S
N350 C352 1.334 . S
N350 C353 1.328 . S
C351 C352 1.391 . S
C351 N354 1.329 . S
C351 H372 0.930 . S
C352 N350 1.334 . S
C352 C351 1.391 . S
C352 H359 0.930 . S
C353 N350 1.328 . S
C353 C355 1.392 . S
C353 H360 0.930 . S
N354 C351 1.329 . S
N354 C355 1.331 . S
C355 C353 1.392 . S
C355 N354 1.331 . S
O356 Zn349 1.975 . S
O356 C357 1.252 . S
C357 O356 1.252 . S
C357 O358 1.252 . S
O358 Zn340 1.975 . S
O358 C357 1.252 . S
H359 C352 0.930 . S
H360 C353 0.930 . S
C361 C362 1.392 . S
C361 N365 1.328 . S
C361 H367 0.930 . S
C362 C361 1.392 . S
C362 N366 1.331 . S
C363 C364 1.391 . S
C363 N366 1.329 . S
C363 H373 0.930 . S
C364 C363 1.391 . S
C364 N365 1.334 . S
C364 H371 0.930 . S
N365 Zn349 2.119 . S
N365 C361 1.328 . S
N365 C364 1.334 . S
N366 C362 1.331 . S
N366 C363 1.329 . S
H367 C361 0.930 . S
C368 O348 1.257 . S
C368 O369 1.244 . S
O369 C368 1.244 . S
O370 C346 1.257 . S
O370 Zn349 2.019 . S
H371 C364 0.930 . S
H372 C351 0.930 . S
H373 C363 0.930 . S
Zn374 N378 2.020 . S
Zn374 O382 2.019 . S
Zn374 N384 2.119 . S
Zn374 O392 1.975 . S
C375 N376 1.334 . S
C375 N379 1.336 . S
N376 C375 1.334 . S
N376 C377 1.334 . S
C377 N376 1.334 . S
C377 N378 1.336 . S
N378 Zn374 2.020 . S
N378 C377 1.336 . S
N378 N379 1.354 . S
N379 C375 1.336 . S
N379 N378 1.354 . S
N379 Zn383 2.020 . S
C380 O381 1.244 . S
C380 O404 1.257 . S
O381 C380 1.244 . S
O382 Zn374 2.019 . S
O382 C402 1.257 . S
Zn383 N379 2.020 . S
Zn383 O390 1.975 . S
Zn383 N399 2.119 . S
Zn383 O404 2.019 . S
N384 Zn374 2.119 . S
N384 C386 1.334 . S
N384 C387 1.328 . S
C385 C386 1.391 . S
C385 N388 1.329 . S
C385 H406 0.930 . S
C386 N384 1.334 . S
C386 C385 1.391 . S
C386 H393 0.930 . S
C387 N384 1.328 . S
C387 C389 1.392 . S
C387 H394 0.930 . S
N388 C385 1.329 . S
N388 C389 1.331 . S
C389 C387 1.392 . S
C389 N388 1.331 . S
O390 Zn383 1.975 . S
O390 C391 1.252 . S
C391 O390 1.252 . S
C391 O392 1.252 . S
O392 Zn374 1.975 . S
O392 C391 1.252 . S
H393 C386 0.930 . S
H394 C387 0.930 . S
C395 C396 1.392 . S
C395 N399 1.328 . S
C395 H401 0.930 . S
C396 C395 1.392 . S
C396 N400 1.331 . S
C397 C398 1.391 . S
C397 N400 1.329 . S
C397 H407 0.930 . S
C398 C397 1.391 . S
C398 N399 1.334 . S
C398 H405 0.930 . S
N399 Zn383 2.119 . S
N399 C395 1.328 . S
N399 C398 1.334 . S
N400 C396 1.331 . S
N400 C397 1.329 . S
H401 C395 0.930 . S
C402 O382 1.257 . S
C402 O403 1.244 . S
O403 C402 1.244 . S
O404 C380 1.257 . S
O404 Zn383 2.019 . S
H405 C398 0.930 . S
H406 C385 0.930 . S
H407 C397 0.930 . S
H408 C414 0.930 . S
H409 C418 0.930 . S
H410 C423 0.929 . S
H411 C421 0.929 . S
H412 C416 0.929 . S
H413 C422 0.929 . S
C414 H408 0.930 . S
C414 C415 1.367 1_554 S
C414 C422 1.378 1_545 S
C415 C414 1.367 1_556 S
C415 C423 1.433 . S
C416 H412 0.929 . S
C416 C418 1.378 . S
C416 C420 1.350 . S
C417 C420 1.463 . S
C417 C422 1.350 1_556 S
C417 N425 1.427 . S
C418 H409 0.930 . S
C418 C416 1.378 . S
C418 C419 1.367 . S
C419 C418 1.367 . S
C419 C421 1.433 1_556 S
C420 C416 1.350 . S
C420 C417 1.463 . S
C420 N424 1.427 1_556 S
C421 H411 0.929 . S
C421 C419 1.433 1_554 S
C421 N424 1.384 . S
C422 H413 0.929 . S
C422 C414 1.378 1_565 S
C422 C417 1.350 1_554 S
C423 H410 0.929 . S
C423 C415 1.433 . S
C423 N425 1.384 1_545 S
N424 C420 1.427 1_554 S
N424 C421 1.384 . S
N425 C417 1.427 . S
N425 C423 1.384 1_565 S
H426 C432 0.930 . S
H427 C436 0.930 . S
H428 C441 0.929 . S
H429 C439 0.929 . S
H430 C434 0.929 . S
H431 C440 0.929 1_554 S
C432 H426 0.930 . S
C432 C433 1.367 . S
C432 C440 1.378 . S
C433 C432 1.367 . S
C433 C441 1.433 . S
C434 H430 0.929 . S
C434 C436 1.378 . S
C434 C438 1.350 . S
C435 C438 1.463 . S
C435 C440 1.350 . S
C435 N443 1.427 . S
C436 H427 0.930 . S
C436 C434 1.378 . S
C436 C437 1.374 . S
C437 C436 1.374 . S
C437 C439 1.429 1_556 S
C438 C434 1.350 . S
C438 C435 1.463 . S
C438 N442 1.427 1_556 S
C439 H429 0.929 . S
C439 C437 1.429 1_554 S
C439 N442 1.384 . S
C440 H431 0.929 1_556 S
C440 C432 1.378 . S
C440 C435 1.350 . S
C441 H428 0.929 . S
C441 C433 1.433 . S
C441 N443 1.384 . S
N442 C438 1.427 1_554 S
N442 C439 1.384 . S
N443 C435 1.427 . S
N443 C441 1.384 . S
H444 C450 0.930 . S
H445 C454 0.930 . S
H446 C459 0.929 . S
H447 C457 0.929 . S
H448 C452 0.929 . S
H449 C458 0.929 . S
C450 H444 0.930 . S
C450 C451 1.367 . S
C450 C458 1.378 1_655 S
C451 C450 1.367 . S
C451 C459 1.433 1_556 S
C452 H448 0.929 . S
C452 C454 1.378 . S
C452 C456 1.350 1_554 S
C453 C456 1.463 . S
C453 C458 1.350 . S
C453 N461 1.427 1_556 S
C454 H445 0.930 . S
C454 C452 1.378 . S
C454 C455 1.368 . S
C455 C454 1.368 . S
C455 C457 1.431 1_554 S
C456 C452 1.350 1_556 S
C456 C453 1.463 . S
C456 N460 1.427 . S
C457 H447 0.929 . S
C457 C455 1.431 1_556 S
C457 N460 1.384 . S
C458 H449 0.929 . S
C458 C450 1.378 1_455 S
C458 C453 1.350 . S
C459 H446 0.929 . S
C459 C451 1.433 1_554 S
C459 N461 1.384 1_655 S
N460 C456 1.427 . S
N460 C457 1.384 . S
N461 C453 1.427 1_554 S
N461 C459 1.384 1_455 S
H462 C468 0.930 . S
H463 C472 0.930 . S
H464 C477 0.929 . S
H465 C475 0.929 . S
H466 C470 0.929 . S
H467 C476 0.929 . S
C468 H462 0.930 . S
C468 C469 1.367 . S
C468 C476 1.378 1_565 S
C469 C468 1.367 . S
C469 C477 1.433 1_556 S
C470 H466 0.929 . S
C470 C472 1.378 . S
C470 C474 1.350 1_554 S
C471 C474 1.463 . S
C471 C476 1.350 . S
C471 N479 1.427 1_556 S
C472 H463 0.930 . S
C472 C470 1.378 . S
C472 C473 1.368 . S
C473 C472 1.368 . S
C473 C475 1.432 1_554 S
C474 C470 1.350 1_556 S
C474 C471 1.463 . S
C474 N478 1.427 . S
C475 H465 0.929 . S
C475 C473 1.432 1_556 S
C475 N478 1.384 . S
C476 H467 0.929 . S
C476 C468 1.378 1_545 S
C476 C471 1.350 . S
C477 H464 0.929 . S
C477 C469 1.433 1_554 S
C477 N479 1.384 1_565 S
N478 C474 1.427 . S
N478 C475 1.384 . S
N479 C471 1.427 1_554 S
N479 C477 1.384 1_545 S
H480 C486 0.930 . S
H481 C490 0.930 . S
H482 C495 0.929 . S
H483 C493 0.929 . S
H484 C488 0.929 . S
H485 C494 0.929 . S
C486 H480 0.930 . S
C486 C487 1.367 . S
C486 C494 1.378 . S
C487 C486 1.367 . S
C487 C495 1.433 1_556 S
C488 H484 0.929 . S
C488 C490 1.378 . S
C488 C492 1.350 1_554 S
C489 C492 1.463 . S
C489 C494 1.350 . S
C489 N497 1.427 1_556 S
C490 H481 0.930 . S
C490 C488 1.378 . S
C490 C491 1.367 . S
C491 C490 1.367 . S
C491 C493 1.433 1_554 S
C492 C488 1.350 1_556 S
C492 C489 1.463 . S
C492 N496 1.427 . S
C493 H483 0.929 . S
C493 C491 1.433 1_556 S
C493 N496 1.384 . S
C494 H485 0.929 . S
C494 C486 1.378 . S
C494 C489 1.350 . S
C495 H482 0.929 . S
C495 C487 1.433 1_554 S
C495 N497 1.384 . S
N496 C492 1.427 . S
N496 C493 1.384 . S
N497 C489 1.427 1_554 S
N497 C495 1.384 . S
H498 C504 0.930 . S
H499 C508 0.930 . S
H500 C513 0.929 . S
H501 C511 0.929 . S
H502 C506 0.926 1_554 S
H503 C512 0.929 . S
C504 H498 0.930 . S
C504 C505 1.367 . S
C504 C512 1.378 1_455 S
C505 C504 1.367 . S
C505 C513 1.433 . S
C506 H502 0.926 1_556 S
C506 C508 1.375 1_556 S
C506 C510 1.356 . S
C507 C510 1.463 . S
C507 C512 1.350 . S
C507 N515 1.427 . S
C508 H499 0.930 . S
C508 C506 1.375 1_554 S
C508 C509 1.366 1_554 S
C509 C508 1.366 1_556 S
C509 C511 1.436 . S
C510 C506 1.356 . S
C510 C507 1.463 . S
C510 N514 1.427 . S
C511 H501 0.929 . S
C511 C509 1.436 . S
C511 N514 1.384 . S
C512 H503 0.929 . S
C512 C504 1.378 1_655 S
C512 C507 1.350 . S
C513 H500 0.929 . S
C513 C505 1.433 . S
C513 N515 1.384 1_455 S
N514 C510 1.427 . S
N514 C511 1.384 . S
N515 C507 1.427 . S
N515 C513 1.384 1_655 S
H516 C522 0.930 . S
H517 C526 0.930 . S
H518 C531 0.929 . S
H519 C529 0.929 . S
H520 C524 0.929 . S
H521 C530 0.929 . S
C522 H516 0.930 . S
C522 C523 1.367 . S
C522 C530 1.378 1_655 S
C523 C522 1.367 . S
C523 C531 1.433 . S
C524 H520 0.929 . S
C524 C526 1.378 . S
C524 C528 1.350 . S
C525 C528 1.463 . S
C525 C530 1.350 . S
C525 N533 1.427 . S
C526 H517 0.930 . S
C526 C524 1.378 . S
C526 C527 1.367 . S
C527 C526 1.367 . S
C527 C529 1.433 . S
C528 C524 1.350 . S
C528 C525 1.463 . S
C528 N532 1.427 . S
C529 H519 0.929 . S
C529 C527 1.433 . S
C529 N532 1.384 . S
C530 H521 0.929 . S
C530 C522 1.378 1_455 S
C530 C525 1.350 . S
C531 H518 0.929 . S
C531 C523 1.433 . S
C531 N533 1.384 1_655 S
N532 C528 1.427 . S
N532 C529 1.384 . S
N533 C525 1.427 . S
N533 C531 1.384 1_455 S
H534 C540 0.930 . S
H535 C544 0.930 . S
H536 C549 0.929 . S
H537 C547 0.929 . S
H538 C542 0.929 . S
H539 C548 0.929 . S
C540 H534 0.930 . S
C540 C541 1.367 . S
C540 C548 1.378 1_565 S
C541 C540 1.367 . S
C541 C549 1.433 . S
C542 H538 0.929 . S
C542 C544 1.378 . S
C542 C546 1.350 . S
C543 C546 1.463 . S
C543 C548 1.350 . S
C543 N551 1.427 . S
C544 H535 0.930 . S
C544 C542 1.378 . S
C544 C545 1.367 . S
C545 C544 1.367 . S
C545 C547 1.433 . S
C546 C542 1.350 . S
C546 C543 1.463 . S
C546 N550 1.427 . S
C547 H537 0.929 . S
C547 C545 1.433 . S
C547 N550 1.384 . S
C548 H539 0.929 . S
C548 C540 1.378 1_545 S
C548 C543 1.350 . S
C549 H536 0.929 . S
C549 C541 1.433 . S
C549 N551 1.384 1_565 S
N550 C546 1.427 . S
N550 C547 1.384 . S
N551 C543 1.427 . S
N551 C549 1.384 1_545 S
H552 C558 0.930 . S
H553 C562 0.930 . S
H554 C567 0.929 . S
H555 C565 0.929 . S
H556 C560 0.929 . S
H557 C566 0.929 . S
C558 H552 0.930 . S
C558 C559 1.367 . S
C558 C566 1.378 . S
C559 C558 1.367 . S
C559 C567 1.433 . S
C560 H556 0.929 . S
C560 C562 1.378 . S
C560 C564 1.350 . S
C561 C564 1.463 . S
C561 C566 1.350 . S
C561 N569 1.427 . S
C562 H553 0.930 . S
C562 C560 1.378 . S
C562 C563 1.367 . S
C563 C562 1.367 . S
C563 C565 1.433 . S
C564 C560 1.350 . S
C564 C561 1.463 . S
C564 N568 1.427 . S
C565 H555 0.929 . S
C565 C563 1.433 . S
C565 N568 1.384 . S
C566 H557 0.929 . S
C566 C558 1.378 . S
C566 C561 1.350 . S
C567 H554 0.929 . S
C567 C559 1.433 . S
C567 N569 1.384 . S
N568 C564 1.427 . S
N568 C565 1.384 . S
N569 C561 1.427 . S
N569 C567 1.384 . S
H570 C576 0.930 . S
H571 C580 0.930 . S
H572 C585 0.929 . S
H573 C583 0.929 . S
H574 C578 0.929 . S
H575 C584 0.929 . S
C576 H570 0.930 . S
C576 C577 1.367 . S
C576 C584 1.378 . S
C577 C576 1.367 . S
C577 C585 1.433 . S
C578 H574 0.929 . S
C578 C580 1.378 1_655 S
C578 C582 1.350 . S
C579 C582 1.463 . S
C579 C584 1.350 . S
C579 N587 1.427 . S
C580 H571 0.930 . S
C580 C578 1.378 1_455 S
C580 C581 1.367 . S
C581 C580 1.367 . S
C581 C583 1.433 . S
C582 C578 1.350 . S
C582 C579 1.463 . S
C582 N586 1.427 . S
C583 H573 0.929 . S
C583 C581 1.433 . S
C583 N586 1.384 1_455 S
C584 H575 0.929 . S
C584 C576 1.378 . S
C584 C579 1.350 . S
C585 H572 0.929 . S
C585 C577 1.433 . S
C585 N587 1.384 . S
N586 C582 1.427 . S
N586 C583 1.384 1_655 S
N587 C579 1.427 . S
N587 C585 1.384 . S
H588 C594 0.930 . S
H589 C598 0.930 . S
H590 C603 0.929 . S
H591 C601 0.929 . S
H592 C596 0.929 . S
H593 C602 0.929 . S
C594 H588 0.930 . S
C594 C595 1.367 . S
C594 C602 1.378 . S
C595 C594 1.367 . S
C595 C603 1.433 . S
C596 H592 0.929 . S
C596 C598 1.378 1_565 S
C596 C600 1.350 . S
C597 C600 1.463 . S
C597 C602 1.350 . S
C597 N605 1.427 . S
C598 H589 0.930 . S
C598 C596 1.378 1_545 S
C598 C599 1.367 . S
C599 C598 1.367 . S
C599 C601 1.433 . S
C600 C596 1.350 . S
C600 C597 1.463 . S
C600 N604 1.427 . S
C601 H591 0.929 . S
C601 C599 1.433 . S
C601 N604 1.384 1_545 S
C602 H593 0.929 . S
C602 C594 1.378 . S
C602 C597 1.350 . S
C603 H590 0.929 . S
C603 C595 1.433 . S
C603 N605 1.384 . S
N604 C600 1.427 . S
N604 C601 1.384 1_565 S
N605 C597 1.427 . S
N605 C603 1.384 . S
H606 C612 0.930 . S
H607 C616 0.930 . S
H608 C621 0.929 . S
H609 C619 0.929 . S
H610 C614 0.929 . S
H611 C620 0.929 . S
C612 H606 0.930 . S
C612 C613 1.367 . S
C612 C620 1.378 . S
C613 C612 1.367 . S
C613 C621 1.433 . S
C614 H610 0.929 . S
C614 C616 1.378 . S
C614 C618 1.350 . S
C615 C618 1.463 . S
C615 C620 1.350 . S
C615 N623 1.427 . S
C616 H607 0.930 . S
C616 C614 1.378 . S
C616 C617 1.367 . S
C617 C616 1.367 . S
C617 C619 1.433 . S
C618 C614 1.350 . S
C618 C615 1.463 . S
C618 N622 1.427 . S
C619 H609 0.929 . S
C619 C617 1.433 . S
C619 N622 1.384 . S
C620 H611 0.929 . S
C620 C612 1.378 . S
C620 C615 1.350 . S
C621 H608 0.929 . S
C621 C613 1.433 . S
C621 N623 1.384 . S
N622 C618 1.427 . S
N622 C619 1.384 . S
N623 C615 1.427 . S
N623 C621 1.384 . S
H624 C630 0.930 . S
H625 C634 0.930 . S
H626 C639 0.929 . S
H627 C637 0.929 . S
H628 C632 0.929 . S
H629 C638 0.929 . S
C630 H624 0.930 . S
C630 C631 1.367 . S
C630 C638 1.378 . S
C631 C630 1.367 . S
C631 C639 1.433 . S
C632 H628 0.929 . S
C632 C634 1.378 . S
C632 C636 1.350 . S
C633 C636 1.463 . S
C633 C638 1.350 . S
C633 N641 1.427 . S
C634 H625 0.930 . S
C634 C632 1.378 . S
C634 C635 1.367 . S
C635 C634 1.367 . S
C635 C637 1.433 . S
C636 C632 1.350 . S
C636 C633 1.463 . S
C636 N640 1.427 . S
C637 H627 0.929 . S
C637 C635 1.433 . S
C637 N640 1.384 . S
C638 H629 0.929 . S
C638 C630 1.378 . S
C638 C633 1.350 . S
C639 H626 0.929 . S
C639 C631 1.433 . S
C639 N641 1.384 . S
N640 C636 1.427 . S
N640 C637 1.384 . S
N641 C633 1.427 . S
N641 C639 1.384 . S
H642 C648 0.930 . S
H643 C652 0.930 . S
H644 C657 0.929 . S
H645 C655 0.929 . S
H646 C650 0.929 . S
H647 C656 0.929 . S
C648 H642 0.930 . S
C648 C649 1.367 . S
C648 C656 1.378 . S
C649 C648 1.367 . S
C649 C657 1.433 . S
C650 H646 0.929 . S
C650 C652 1.378 . S
C650 C654 1.350 . S
C651 C654 1.463 . S
C651 C656 1.350 . S
C651 N659 1.427 . S
C652 H643 0.930 . S
C652 C650 1.378 . S
C652 C653 1.367 . S
C653 C652 1.367 . S
C653 C655 1.433 . S
C654 C650 1.350 . S
C654 C651 1.463 . S
C654 N658 1.427 . S
C655 H645 0.929 . S
C655 C653 1.433 . S
C655 N658 1.384 . S
C656 H647 0.929 . S
C656 C648 1.378 . S
C656 C651 1.350 . S
C657 H644 0.929 . S
C657 C649 1.433 . S
C657 N659 1.384 . S
N658 C654 1.427 . S
N658 C655 1.384 . S
N659 C651 1.427 . S
N659 C657 1.384 . S
H660 C666 0.930 . S
H661 C670 0.930 . S
H662 C675 0.929 . S
H663 C673 0.929 . S
H664 C668 0.929 . S
H665 C674 0.929 . S
C666 H660 0.930 . S
C666 C667 1.367 . S
C666 C674 1.378 . S
C667 C666 1.367 . S
C667 C675 1.433 . S
C668 H664 0.929 . S
C668 C670 1.378 . S
C668 C672 1.350 . S
C669 C672 1.463 . S
C669 C674 1.350 . S
C669 N677 1.427 . S
C670 H661 0.930 . S
C670 C668 1.378 . S
C670 C671 1.367 . S
C671 C670 1.367 . S
C671 C673 1.433 . S
C672 C668 1.350 . S
C672 C669 1.463 . S
C672 N676 1.427 . S
C673 H663 0.929 . S
C673 C671 1.433 . S
C673 N676 1.384 . S
C674 H665 0.929 . S
C674 C666 1.378 . S
C674 C669 1.350 . S
C675 H662 0.929 . S
C675 C667 1.433 . S
C675 N677 1.384 . S
N676 C672 1.427 . S
N676 C673 1.384 . S
N677 C669 1.427 . S
N677 C675 1.384 . S
H678 C684 0.930 . S
H679 C688 0.930 . S
H680 C693 0.929 . S
H681 C691 0.929 . S
H682 C686 0.929 . S
H683 C692 0.929 . S
C684 H678 0.930 . S
C684 C685 1.367 . S
C684 C692 1.378 . S
C685 C684 1.367 . S
C685 C693 1.433 . S
C686 H682 0.929 . S
C686 C688 1.378 . S
C686 C690 1.350 . S
C687 C690 1.463 . S
C687 C692 1.350 . S
C687 N695 1.427 . S
C688 H679 0.930 . S
C688 C686 1.378 . S
C688 C689 1.367 . S
C689 C688 1.367 . S
C689 C691 1.433 . S
C690 C686 1.350 . S
C690 C687 1.463 . S
C690 N694 1.427 . S
C691 H681 0.929 . S
C691 C689 1.433 . S
C691 N694 1.384 . S
C692 H683 0.929 . S
C692 C684 1.378 . S
C692 C687 1.350 . S
C693 H680 0.929 . S
C693 C685 1.433 . S
C693 N695 1.384 . S
N694 C690 1.427 . S
N694 C691 1.384 . S
N695 C687 1.427 . S
N695 C693 1.384 . S
H696 C702 0.930 . S
H697 C706 0.930 . S
H698 C711 0.929 . S
H699 C709 0.929 . S
H700 C704 0.929 . S
H701 C710 0.929 . S
C702 H696 0.930 . S
C702 C703 1.367 . S
C702 C710 1.378 . S
C703 C702 1.367 . S
C703 C711 1.433 . S
C704 H700 0.929 . S
C704 C706 1.378 . S
C704 C708 1.350 . S
C705 C708 1.463 . S
C705 C710 1.350 . S
C705 N713 1.427 . S
C706 H697 0.930 . S
C706 C704 1.378 . S
C706 C707 1.367 . S
C707 C706 1.367 . S
C707 C709 1.433 . S
C708 C704 1.350 . S
C708 C705 1.463 . S
C708 N712 1.427 . S
C709 H699 0.929 . S
C709 C707 1.433 . S
C709 N712 1.384 . S
C710 H701 0.929 . S
C710 C702 1.378 . S
C710 C705 1.350 . S
C711 H698 0.929 . S
C711 C703 1.433 . S
C711 N713 1.384 . S
N712 C708 1.427 . S
N712 C709 1.384 . S
N713 C705 1.427 . S
N713 C711 1.384 . S
H714 C720 0.930 . S
H715 C724 0.930 . S
H716 C729 0.929 . S
H717 C727 0.929 . S
H718 C722 0.929 . S
H719 C728 0.929 . S
C720 H714 0.930 . S
C720 C721 1.367 . S
C720 C728 1.378 . S
C721 C720 1.367 . S
C721 C729 1.433 . S
C722 H718 0.929 . S
C722 C724 1.378 . S
C722 C726 1.350 . S
C723 C726 1.463 . S
C723 C728 1.350 . S
C723 N731 1.427 . S
C724 H715 0.930 . S
C724 C722 1.378 . S
C724 C725 1.367 . S
C725 C724 1.367 . S
C725 C727 1.433 . S
C726 C722 1.350 . S
C726 C723 1.463 . S
C726 N730 1.427 . S
C727 H717 0.929 . S
C727 C725 1.433 . S
C727 N730 1.384 . S
C728 H719 0.929 . S
C728 C720 1.378 . S
C728 C723 1.350 . S
C729 H716 0.929 . S
C729 C721 1.433 . S
C729 N731 1.384 . S
N730 C726 1.427 . S
N730 C727 1.384 . S
N731 C723 1.427 . S
N731 C729 1.384 . S
H732 C738 0.930 . S
H733 C742 0.930 . S
H734 C747 0.929 . S
H735 C745 0.929 . S
H736 C740 0.929 . S
H737 C746 0.929 . S
C738 H732 0.930 . S
C738 C739 1.367 . S
C738 C746 1.378 . S
C739 C738 1.367 . S
C739 C747 1.433 . S
C740 H736 0.929 . S
C740 C742 1.378 . S
C740 C744 1.350 . S
C741 C744 1.463 . S
C741 C746 1.350 . S
C741 N749 1.427 . S
C742 H733 0.930 . S
C742 C740 1.378 . S
C742 C743 1.367 . S
C743 C742 1.367 . S
C743 C745 1.433 . S
C744 C740 1.350 . S
C744 C741 1.463 . S
C744 N748 1.427 . S
C745 H735 0.929 . S
C745 C743 1.433 . S
C745 N748 1.384 . S
C746 H737 0.929 . S
C746 C738 1.378 . S
C746 C741 1.350 . S
C747 H734 0.929 . S
C747 C739 1.433 . S
C747 N749 1.384 . S
N748 C744 1.427 . S
N748 C745 1.384 . S
N749 C741 1.427 . S
N749 C747 1.384 . S
H750 C756 0.930 . S
H751 C760 0.930 . S
H752 C765 0.929 . S
H753 C763 0.929 . S
H754 C758 0.929 . S
H755 C764 0.929 . S
C756 H750 0.930 . S
C756 C757 1.367 . S
C756 C764 1.378 . S
C757 C756 1.367 . S
C757 C765 1.433 . S
C758 H754 0.929 . S
C758 C760 1.378 . S
C758 C762 1.350 . S
C759 C762 1.463 . S
C759 C764 1.350 . S
C759 N767 1.427 . S
C760 H751 0.930 . S
C760 C758 1.378 . S
C760 C761 1.367 . S
C761 C760 1.367 . S
C761 C763 1.433 . S
C762 C758 1.350 . S
C762 C759 1.463 . S
C762 N766 1.427 . S
C763 H753 0.929 . S
C763 C761 1.433 . S
C763 N766 1.384 . S
C764 H755 0.929 . S
C764 C756 1.378 . S
C764 C759 1.350 . S
C765 H752 0.929 . S
C765 C757 1.433 . S
C765 N767 1.384 . S
N766 C762 1.427 . S
N766 C763 1.384 . S
N767 C759 1.427 . S
N767 C765 1.384 . S
H768 C774 0.930 . S
H769 C778 0.930 . S
H770 C783 0.929 . S
H771 C781 0.929 . S
H772 C776 0.929 . S
H773 C782 0.929 . S
C774 H768 0.930 . S
C774 C775 1.367 . S
C774 C782 1.378 . S
C775 C774 1.367 . S
C775 C783 1.433 . S
C776 H772 0.929 . S
C776 C778 1.378 . S
C776 C780 1.350 . S
C777 C780 1.463 . S
C777 C782 1.350 . S
C777 N785 1.427 . S
C778 H769 0.930 . S
C778 C776 1.378 . S
C778 C779 1.367 . S
C779 C778 1.367 . S
C779 C781 1.433 . S
C780 C776 1.350 . S
C780 C777 1.463 . S
C780 N784 1.427 . S
C781 H771 0.929 . S
C781 C779 1.433 . S
C781 N784 1.384 . S
C782 H773 0.929 . S
C782 C774 1.378 . S
C782 C777 1.350 . S
C783 H770 0.929 . S
C783 C775 1.433 . S
C783 N785 1.384 . S
N784 C780 1.427 . S
N784 C781 1.384 . S
N785 C777 1.427 . S
N785 C783 1.384 . S
H786 C792 0.930 . S
H787 C796 0.930 . S
H788 C801 0.929 . S
H789 C799 0.929 . S
H790 C794 0.929 . S
H791 C800 0.929 . S
C792 H786 0.930 . S
C792 C793 1.367 . S
C792 C800 1.378 . S
C793 C792 1.367 . S
C793 C801 1.433 . S
C794 H790 0.929 . S
C794 C796 1.378 . S
C794 C798 1.350 . S
C795 C798 1.463 . S
C795 C800 1.350 . S
C795 N803 1.427 . S
C796 H787 0.930 . S
C796 C794 1.378 . S
C796 C797 1.367 . S
C797 C796 1.367 . S
C797 C799 1.433 . S
C798 C794 1.350 . S
C798 C795 1.463 . S
C798 N802 1.427 . S
C799 H789 0.929 . S
C799 C797 1.433 . S
C799 N802 1.384 . S
C800 H791 0.929 . S
C800 C792 1.378 . S
C800 C795 1.350 . S
C801 H788 0.929 . S
C801 C793 1.433 . S
C801 N803 1.384 . S
N802 C798 1.427 . S
N802 C799 1.384 . S
N803 C795 1.427 . S
N803 C801 1.384 . S
H804 C810 0.930 . S
H805 C814 0.930 . S
H806 C819 0.929 . S
H807 C817 0.929 . S
H808 C812 0.929 . S
H809 C818 0.929 . S
C810 H804 0.930 . S
C810 C811 1.367 . S
C810 C818 1.378 . S
C811 C810 1.367 . S
C811 C819 1.433 . S
C812 H808 0.929 . S
C812 C814 1.378 . S
C812 C816 1.350 . S
C813 C816 1.463 . S
C813 C818 1.350 . S
C813 N821 1.427 . S
C814 H805 0.930 . S
C814 C812 1.378 . S
C814 C815 1.367 . S
C815 C814 1.367 . S
C815 C817 1.433 . S
C816 C812 1.350 . S
C816 C813 1.463 . S
C816 N820 1.427 . S
C817 H807 0.929 . S
C817 C815 1.433 . S
C817 N820 1.384 . S
C818 H809 0.929 . S
C818 C810 1.378 . S
C818 C813 1.350 . S
C819 H806 0.929 . S
C819 C811 1.433 . S
C819 N821 1.384 . S
N820 C816 1.427 . S
N820 C817 1.384 . S
N821 C813 1.427 . S
N821 C819 1.384 . S
H822 C828 0.930 . S
H823 C832 0.930 . S
H824 C837 0.929 . S
H825 C835 0.929 . S
H826 C830 0.929 . S
H827 C836 0.929 . S
C828 H822 0.930 . S
C828 C829 1.367 . S
C828 C836 1.378 . S
C829 C828 1.367 . S
C829 C837 1.433 . S
C830 H826 0.929 . S
C830 C832 1.378 . S
C830 C834 1.350 . S
C831 C834 1.463 . S
C831 C836 1.350 . S
C831 N839 1.427 . S
C832 H823 0.930 . S
C832 C830 1.378 . S
C832 C833 1.367 . S
C833 C832 1.367 . S
C833 C835 1.433 . S
C834 C830 1.350 . S
C834 C831 1.463 . S
C834 N838 1.427 . S
C835 H825 0.929 . S
C835 C833 1.433 . S
C835 N838 1.384 . S
C836 H827 0.929 . S
C836 C828 1.378 . S
C836 C831 1.350 . S
C837 H824 0.929 . S
C837 C829 1.433 . S
C837 N839 1.384 . S
N838 C834 1.427 . S
N838 C835 1.384 . S
N839 C831 1.427 . S
N839 C837 1.384 . S
H840 C846 0.930 . S
H841 C850 0.930 . S
H842 C855 0.929 . S
H843 C853 0.929 . S
H844 C848 0.929 . S
H845 C854 0.929 . S
C846 H840 0.930 . S
C846 C847 1.367 . S
C846 C854 1.378 . S
C847 C846 1.367 . S
C847 C855 1.433 . S
C848 H844 0.929 . S
C848 C850 1.378 . S
C848 C852 1.350 . S
C849 C852 1.463 . S
C849 C854 1.350 . S
C849 N857 1.427 . S
C850 H841 0.930 . S
C850 C848 1.378 . S
C850 C851 1.367 . S
C851 C850 1.367 . S
C851 C853 1.433 . S
C852 C848 1.350 . S
C852 C849 1.463 . S
C852 N856 1.427 . S
C853 H843 0.929 . S
C853 C851 1.433 . S
C853 N856 1.384 . S
C854 H845 0.929 . S
C854 C846 1.378 . S
C854 C849 1.350 . S
C855 H842 0.929 . S
C855 C847 1.433 . S
C855 N857 1.384 . S
N856 C852 1.427 . S
N856 C853 1.384 . S
N857 C849 1.427 . S
N857 C855 1.384 . S
H858 C864 0.930 . S
H859 C868 0.930 . S
H860 C873 0.929 . S
H861 C871 0.929 . S
H862 C866 0.929 . S
H863 C872 0.929 . S
C864 H858 0.930 . S
C864 C865 1.367 . S
C864 C872 1.378 . S
C865 C864 1.367 . S
C865 C873 1.433 . S
C866 H862 0.929 . S
C866 C868 1.378 . S
C866 C870 1.350 . S
C867 C870 1.463 . S
C867 C872 1.350 . S
C867 N875 1.427 . S
C868 H859 0.930 . S
C868 C866 1.378 . S
C868 C869 1.367 . S
C869 C868 1.367 . S
C869 C871 1.433 . S
C870 C866 1.350 . S
C870 C867 1.463 . S
C870 N874 1.427 . S
C871 H861 0.929 . S
C871 C869 1.433 . S
C871 N874 1.384 . S
C872 H863 0.929 . S
C872 C864 1.378 . S
C872 C867 1.350 . S
C873 H860 0.929 . S
C873 C865 1.433 . S
C873 N875 1.384 . S
N874 C870 1.427 . S
N874 C871 1.384 . S
N875 C867 1.427 . S
N875 C873 1.384 . S
H876 C882 0.950 . S
H877 C886 0.930 . S
H878 C891 0.929 . S
H879 C889 0.929 . S
H880 C884 0.929 . S
H881 C890 0.929 . S
C882 H876 0.950 . S
C882 C883 1.347 1_556 S
C882 C890 1.379 . S
C883 C882 1.347 1_554 S
C883 C891 1.433 . S
C884 H880 0.929 . S
C884 C886 1.378 . S
C884 C888 1.350 . S
C885 C888 1.463 . S
C885 C890 1.350 1_554 S
C885 N893 1.427 . S
C886 H877 0.930 . S
C886 C884 1.378 . S
C886 C887 1.367 . S
C887 C886 1.367 . S
C887 C889 1.433 1_554 S
C888 C884 1.350 . S
C888 C885 1.463 . S
C888 N892 1.427 1_554 S
C889 H879 0.929 . S
C889 C887 1.433 1_556 S
C889 N892 1.384 . S
C890 H881 0.929 . S
C890 C882 1.379 . S
C890 C885 1.350 1_556 S
C891 H878 0.929 . S
C891 C883 1.433 . S
C891 N893 1.384 . S
N892 C888 1.427 1_556 S
N892 C889 1.384 . S
N893 C885 1.427 . S
N893 C891 1.384 . S
H894 C900 0.930 . S
H895 C904 0.930 . S
H896 C909 0.929 . S
H897 C907 0.929 . S
H898 C902 0.929 . S
H899 C908 0.929 . S
C900 H894 0.930 . S
C900 C901 1.367 . S
C900 C908 1.378 . S
C901 C900 1.367 . S
C901 C909 1.433 1_554 S
C902 H898 0.929 . S
C902 C904 1.378 . S
C902 C906 1.350 1_556 S
C903 C906 1.463 . S
C903 C908 1.350 . S
C903 N911 1.427 1_554 S
C904 H895 0.930 . S
C904 C902 1.378 . S
C904 C905 1.367 1_556 S
C905 C904 1.367 1_554 S
C905 C907 1.433 . S
C906 C902 1.350 1_554 S
C906 C903 1.463 . S
C906 N910 1.427 . S
C907 H897 0.929 . S
C907 C905 1.433 . S
C907 N910 1.384 . S
C908 H899 0.929 . S
C908 C900 1.378 . S
C908 C903 1.350 . S
C909 H896 0.929 . S
C909 C901 1.433 1_556 S
C909 N911 1.384 . S
N910 C906 1.427 . S
N910 C907 1.384 . S
N911 C903 1.427 1_556 S
N911 C909 1.384 . S
H912 C918 0.930 . S
H913 C922 0.930 . S
H914 C927 0.929 . S
H915 C925 0.929 . S
H916 C920 0.929 . S
H917 C926 0.929 . S
C918 H912 0.930 . S
C918 C919 1.367 . S
C918 C926 1.378 . S
C919 C918 1.367 . S
C919 C927 1.433 1_554 S
C920 H916 0.929 . S
C920 C922 1.378 . S
C920 C924 1.350 1_556 S
C921 C924 1.463 . S
C921 C926 1.350 . S
C921 N929 1.427 1_554 S
C922 H913 0.930 . S
C922 C920 1.378 . S
C922 C923 1.367 1_556 S
C923 C922 1.367 1_554 S
C923 C925 1.433 . S
C924 C920 1.350 1_554 S
C924 C921 1.463 . S
C924 N928 1.427 . S
C925 H915 0.929 . S
C925 C923 1.433 . S
C925 N928 1.384 . S
C926 H917 0.929 . S
C926 C918 1.378 . S
C926 C921 1.350 . S
C927 H914 0.929 . S
C927 C919 1.433 1_556 S
C927 N929 1.384 . S
N928 C924 1.427 . S
N928 C925 1.384 . S
N929 C921 1.427 1_556 S
N929 C927 1.384 . S
H930 C936 0.930 . S
H931 C940 0.930 . S
H932 C945 0.929 . S
H933 C943 0.916 1_556 S
H934 C938 0.929 . S
H935 C944 0.929 . S
C936 H930 0.930 . S
C936 C937 1.367 1_556 S
C936 C944 1.378 . S
C937 C936 1.367 1_554 S
C937 C945 1.433 . S
C938 H934 0.929 . S
C938 C940 1.378 . S
C938 C942 1.350 . S
C939 C942 1.463 . S
C939 C944 1.350 1_554 S
C939 N947 1.427 . S
C940 H931 0.930 . S
C940 C938 1.378 . S
C940 C941 1.367 . S
C941 C940 1.367 . S
C941 C943 1.448 . S
C942 C938 1.350 . S
C942 C939 1.463 . S
C942 N946 1.429 1_554 S
C943 H933 0.916 1_554 S
C943 C941 1.448 . S
C943 N946 1.383 1_554 S
C944 H935 0.929 . S
C944 C936 1.378 . S
C944 C939 1.350 1_556 S
C945 H932 0.929 . S
C945 C937 1.433 . S
C945 N947 1.384 . S
N946 C942 1.429 1_556 S
N946 C943 1.383 1_556 S
N947 C939 1.427 . S
N947 C945 1.384 . S
H948 C954 0.930 . S
H949 C958 0.930 . S
H950 C963 0.929 . S
H951 C961 0.929 . S
H952 C956 0.929 . S
H953 C962 0.929 . S
C954 H948 0.930 . S
C954 C955 1.367 . S
C954 C962 1.378 . S
C955 C954 1.367 . S
C955 C963 1.433 . S
C956 H952 0.929 . S
C956 C958 1.378 . S
C956 C960 1.350 . S
C957 C960 1.463 . S
C957 C962 1.350 . S
C957 N965 1.427 . S
C958 H949 0.930 . S
C958 C956 1.378 . S
C958 C959 1.367 . S
C959 C958 1.367 . S
C959 C961 1.433 . S
C960 C956 1.350 . S
C960 C957 1.463 . S
C960 N964 1.427 . S
C961 H951 0.929 . S
C961 C959 1.433 . S
C961 N964 1.384 . S
C962 H953 0.929 . S
C962 C954 1.378 . S
C962 C957 1.350 . S
C963 H950 0.929 . S
C963 C955 1.433 . S
C963 N965 1.384 . S
N964 C960 1.427 . S
N964 C961 1.384 . S
N965 C957 1.427 . S
N965 C963 1.384 . S
H966 C972 0.930 . S
H967 C976 0.930 . S
H968 C981 0.929 . S
H969 C979 0.929 . S
H970 C974 0.929 . S
H971 C980 0.929 . S
C972 H966 0.930 . S
C972 C973 1.367 . S
C972 C980 1.378 . S
C973 C972 1.367 . S
C973 C981 1.433 . S
C974 H970 0.929 . S
C974 C976 1.378 . S
C974 C978 1.350 . S
C975 C978 1.463 . S
C975 C980 1.350 . S
C975 N983 1.427 . S
C976 H967 0.930 . S
C976 C974 1.378 . S
C976 C977 1.367 . S
C977 C976 1.367 . S
C977 C979 1.433 . S
C978 C974 1.350 . S
C978 C975 1.463 . S
C978 N982 1.427 . S
C979 H969 0.929 . S
C979 C977 1.433 . S
C979 N982 1.384 . S
C980 H971 0.929 . S
C980 C972 1.378 . S
C980 C975 1.350 . S
C981 H968 0.929 . S
C981 C973 1.433 . S
C981 N983 1.384 . S
N982 C978 1.427 . S
N982 C979 1.384 . S
N983 C975 1.427 . S
N983 C981 1.384 . S
H984 C990 0.930 . S
H985 C994 0.930 . S
H986 C999 0.929 . S
H987 C997 0.929 . S
H988 C992 0.929 . S
H989 C998 0.929 . S
C990 H984 0.930 . S
C990 C991 1.367 . S
C990 C998 1.378 . S
C991 C990 1.367 . S
C991 C999 1.433 . S
C992 H988 0.929 . S
C992 C994 1.378 . S
C992 C996 1.350 . S
C993 C996 1.463 . S
C993 C998 1.350 . S
C993 N1001 1.427 . S
C994 H985 0.930 . S
C994 C992 1.378 . S
C994 C995 1.367 . S
C995 C994 1.367 . S
C995 C997 1.433 . S
C996 C992 1.350 . S
C996 C993 1.463 . S
C996 N1000 1.427 . S
C997 H987 0.929 . S
C997 C995 1.433 . S
C997 N1000 1.384 . S
C998 H989 0.929 . S
C998 C990 1.378 . S
C998 C993 1.350 . S
C999 H986 0.929 . S
C999 C991 1.433 . S
C999 N1001 1.384 . S
N1000 C996 1.427 . S
N1000 C997 1.384 . S
N1001 C993 1.427 . S
N1001 C999 1.384 . S
H1002 C1008 0.930 . S
H1003 C1012 0.930 . S
H1004 C1017 0.929 . S
H1005 C1015 0.929 . S
H1006 C1010 0.929 . S
H1007 C1016 0.929 . S
C1008 H1002 0.930 . S
C1008 C1009 1.367 . S
C1008 C1016 1.378 . S
C1009 C1008 1.367 . S
C1009 C1017 1.433 . S
C1010 H1006 0.929 . S
C1010 C1012 1.378 . S
C1010 C1014 1.350 . S
C1011 C1014 1.463 . S
C1011 C1016 1.350 . S
C1011 N1019 1.427 . S
C1012 H1003 0.930 . S
C1012 C1010 1.378 . S
C1012 C1013 1.367 . S
C1013 C1012 1.367 . S
C1013 C1015 1.433 . S
C1014 C1010 1.350 . S
C1014 C1011 1.463 . S
C1014 N1018 1.427 . S
C1015 H1005 0.929 . S
C1015 C1013 1.433 . S
C1015 N1018 1.384 . S
C1016 H1007 0.929 . S
C1016 C1008 1.378 . S
C1016 C1011 1.350 . S
C1017 H1004 0.929 . S
C1017 C1009 1.433 . S
C1017 N1019 1.384 . S
N1018 C1014 1.427 . S
N1018 C1015 1.384 . S
N1019 C1011 1.427 . S
N1019 C1017 1.384 . S
H1020 C1026 0.930 . S
H1021 C1030 0.930 . S
H1022 C1035 0.929 . S
H1023 C1033 0.929 . S
H1024 C1028 0.929 . S
H1025 C1034 0.929 . S
C1026 H1020 0.930 . S
C1026 C1027 1.367 . S
C1026 C1034 1.378 . S
C1027 C1026 1.367 . S
C1027 C1035 1.433 . S
C1028 H1024 0.929 . S
C1028 C1030 1.378 . S
C1028 C1032 1.350 . S
C1029 C1032 1.463 . S
C1029 C1034 1.350 . S
C1029 N1037 1.427 . S
C1030 H1021 0.930 . S
C1030 C1028 1.378 . S
C1030 C1031 1.367 . S
C1031 C1030 1.367 . S
C1031 C1033 1.433 . S
C1032 C1028 1.350 . S
C1032 C1029 1.463 . S
C1032 N1036 1.427 . S
C1033 H1023 0.929 . S
C1033 C1031 1.433 . S
C1033 N1036 1.384 . S
C1034 H1025 0.929 . S
C1034 C1026 1.378 . S
C1034 C1029 1.350 . S
C1035 H1022 0.929 . S
C1035 C1027 1.433 . S
C1035 N1037 1.384 . S
N1036 C1032 1.427 . S
N1036 C1033 1.384 . S
N1037 C1029 1.427 . S
N1037 C1035 1.384 . S
H1038 C1044 0.930 . S
H1039 C1048 0.930 . S
H1040 C1053 0.929 . S
H1041 C1051 0.929 . S
H1042 C1046 0.929 . S
H1043 C1052 0.929 . S
C1044 H1038 0.930 . S
C1044 C1045 1.367 . S
C1044 C1052 1.378 . S
C1045 C1044 1.367 . S
C1045 C1053 1.433 . S
C1046 H1042 0.929 . S
C1046 C1048 1.378 . S
C1046 C1050 1.350 . S
C1047 C1050 1.463 . S
C1047 C1052 1.350 . S
C1047 N1055 1.427 . S
C1048 H1039 0.930 . S
C1048 C1046 1.378 . S
C1048 C1049 1.367 . S
C1049 C1048 1.367 . S
C1049 C1051 1.433 . S
C1050 C1046 1.350 . S
C1050 C1047 1.463 . S
C1050 N1054 1.427 . S
C1051 H1041 0.929 . S
C1051 C1049 1.433 . S
C1051 N1054 1.384 . S
C1052 H1043 0.929 . S
C1052 C1044 1.378 . S
C1052 C1047 1.350 . S
C1053 H1040 0.929 . S
C1053 C1045 1.433 . S
C1053 N1055 1.384 . S
N1054 C1050 1.427 . S
N1054 C1051 1.384 . S
N1055 C1047 1.427 . S
N1055 C1053 1.384 . S
H1056 C1062 0.930 . S
H1057 C1066 0.930 . S
H1058 C1071 0.929 . S
H1059 C1069 0.929 . S
H1060 C1064 0.929 . S
H1061 C1070 0.929 . S
C1062 H1056 0.930 . S
C1062 C1063 1.367 1_554 S
C1062 C1070 1.378 . S
C1063 C1062 1.367 1_556 S
C1063 C1071 1.433 . S
C1064 H1060 0.929 . S
C1064 C1066 1.378 . S
C1064 C1068 1.350 . S
C1065 C1068 1.463 1_545 S
C1065 C1070 1.350 1_556 S
C1065 N1073 1.427 . S
C1066 H1057 0.930 . S
C1066 C1064 1.378 . S
C1066 C1067 1.367 . S
C1067 C1066 1.367 . S
C1067 C1069 1.433 1_556 S
C1068 C1064 1.350 . S
C1068 C1065 1.463 1_565 S
C1068 N1072 1.427 1_556 S
C1069 H1059 0.929 . S
C1069 C1067 1.433 1_554 S
C1069 N1072 1.384 . S
C1070 H1061 0.929 . S
C1070 C1062 1.378 . S
C1070 C1065 1.350 1_554 S
C1071 H1058 0.929 . S
C1071 C1063 1.433 . S
C1071 N1073 1.384 . S
N1072 C1068 1.427 1_554 S
N1072 C1069 1.384 . S
N1073 C1065 1.427 . S
N1073 C1071 1.384 . S
H1074 C1080 0.930 . S
H1075 C1084 0.951 . S
H1076 C1089 0.929 . S
H1077 C1087 0.929 . S
H1078 C1082 0.950 . S
H1079 C1088 0.929 . S
C1080 H1074 0.930 . S
C1080 C1081 1.367 . S
C1080 C1088 1.378 . S
C1081 C1080 1.367 . S
C1081 C1089 1.433 1_556 S
C1082 H1078 0.950 . S
C1082 C1084 1.378 . S
C1082 C1086 1.329 1_554 S
C1083 C1086 1.463 . S
C1083 C1088 1.350 . S
C1083 N1091 1.404 1_556 S
C1084 H1075 0.951 . S
C1084 C1082 1.378 . S
C1084 C1085 1.346 1_554 S
C1085 C1084 1.346 1_556 S
C1085 C1087 1.433 . S
C1086 C1082 1.329 1_556 S
C1086 C1083 1.463 . S
C1086 N1090 1.427 . S
C1087 H1077 0.929 . S
C1087 C1085 1.433 . S
C1087 N1090 1.384 . S
C1088 H1079 0.929 . S
C1088 C1080 1.378 . S
C1088 C1083 1.350 . S
C1089 H1076 0.929 . S
C1089 C1081 1.433 1_554 S
C1089 N1091 1.384 . S
N1090 C1086 1.427 . S
N1090 C1087 1.384 . S
N1091 C1083 1.404 1_554 S
N1091 C1089 1.384 . S
H1092 C1098 0.930 . S
H1093 C1102 0.930 . S
H1094 C1107 0.929 . S
H1095 C1105 0.929 . S
H1096 C1100 0.929 . S
H1097 C1106 0.929 . S
C1098 H1092 0.930 . S
C1098 C1099 1.367 1_554 S
C1098 C1106 1.378 . S
C1099 C1098 1.367 1_556 S
C1099 C1107 1.433 . S
C1100 H1096 0.929 . S
C1100 C1102 1.378 . S
C1100 C1104 1.350 . S
C1101 C1104 1.463 1_655 S
C1101 C1106 1.350 1_556 S
C1101 N1109 1.427 . S
C1102 H1093 0.930 . S
C1102 C1100 1.378 . S
C1102 C1103 1.367 . S
C1103 C1102 1.367 . S
C1103 C1105 1.433 1_556 S
C1104 C1100 1.350 . S
C1104 C1101 1.463 1_455 S
C1104 N1108 1.427 1_556 S
C1105 H1095 0.929 . S
C1105 C1103 1.433 1_554 S
C1105 N1108 1.384 . S
C1106 H1097 0.929 . S
C1106 C1098 1.378 . S
C1106 C1101 1.350 1_554 S
C1107 H1094 0.929 . S
C1107 C1099 1.433 . S
C1107 N1109 1.384 . S
N1108 C1104 1.427 1_554 S
N1108 C1105 1.384 . S
N1109 C1101 1.427 . S
N1109 C1107 1.384 . S
H1110 C1116 0.930 . S
H1111 C1120 0.930 . S
H1112 C1125 0.929 . S
H1113 C1123 0.929 . S
H1114 C1118 0.929 . S
H1115 C1124 0.929 . S
C1116 H1110 0.930 . S
C1116 C1117 1.367 . S
C1116 C1124 1.378 . S
C1117 C1116 1.367 . S
C1117 C1125 1.433 . S
C1118 H1114 0.929 . S
C1118 C1120 1.378 . S
C1118 C1122 1.350 . S
C1119 C1122 1.463 1_655 S
C1119 C1124 1.350 . S
C1119 N1127 1.427 . S
C1120 H1111 0.930 . S
C1120 C1118 1.378 . S
C1120 C1121 1.367 . S
C1121 C1120 1.367 . S
C1121 C1123 1.433 . S
C1122 C1118 1.350 . S
C1122 C1119 1.463 1_455 S
C1122 N1126 1.427 . S
C1123 H1113 0.929 . S
C1123 C1121 1.433 . S
C1123 N1126 1.384 . S
C1124 H1115 0.929 . S
C1124 C1116 1.378 . S
C1124 C1119 1.350 . S
C1125 H1112 0.929 . S
C1125 C1117 1.433 . S
C1125 N1127 1.384 . S
N1126 C1122 1.427 . S
N1126 C1123 1.384 . S
N1127 C1119 1.427 . S
N1127 C1125 1.384 . S
H1128 C1134 0.930 . S
H1129 C1138 0.930 . S
H1130 C1143 0.929 . S
H1131 C1141 0.929 . S
H1132 C1136 0.929 . S
H1133 C1142 0.929 . S
C1134 H1128 0.930 . S
C1134 C1135 1.367 . S
C1134 C1142 1.378 . S
C1135 C1134 1.367 . S
C1135 C1143 1.433 . S
C1136 H1132 0.929 . S
C1136 C1138 1.378 . S
C1136 C1140 1.350 . S
C1137 C1140 1.463 1_545 S
C1137 C1142 1.350 . S
C1137 N1145 1.427 . S
C1138 H1129 0.930 . S
C1138 C1136 1.378 . S
C1138 C1139 1.367 . S
C1139 C1138 1.367 . S
C1139 C1141 1.433 . S
C1140 C1136 1.350 . S
C1140 C1137 1.463 1_565 S
C1140 N1144 1.427 . S
C1141 H1131 0.929 . S
C1141 C1139 1.433 . S
C1141 N1144 1.384 . S
C1142 H1133 0.929 . S
C1142 C1134 1.378 . S
C1142 C1137 1.350 . S
C1143 H1130 0.929 . S
C1143 C1135 1.433 . S
C1143 N1145 1.384 . S
N1144 C1140 1.427 . S
N1144 C1141 1.384 . S
N1145 C1137 1.427 . S
N1145 C1143 1.384 . S
H1146 C1152 0.930 . S
H1147 C1156 0.930 . S
H1148 C1161 0.929 . S
H1149 C1159 0.929 . S
H1150 C1154 0.929 . S
H1151 C1160 0.929 . S
C1152 H1146 0.930 . S
C1152 C1153 1.367 . S
C1152 C1160 1.378 . S
C1153 C1152 1.367 . S
C1153 C1161 1.433 . S
C1154 H1150 0.929 . S
C1154 C1156 1.378 . S
C1154 C1158 1.350 . S
C1155 C1158 1.463 . S
C1155 C1160 1.350 . S
C1155 N1163 1.427 . S
C1156 H1147 0.930 . S
C1156 C1154 1.378 . S
C1156 C1157 1.367 . S
C1157 C1156 1.367 . S
C1157 C1159 1.433 . S
C1158 C1154 1.350 . S
C1158 C1155 1.463 . S
C1158 N1162 1.427 . S
C1159 H1149 0.929 . S
C1159 C1157 1.433 . S
C1159 N1162 1.384 . S
C1160 H1151 0.929 . S
C1160 C1152 1.378 . S
C1160 C1155 1.350 . S
C1161 H1148 0.929 . S
C1161 C1153 1.433 . S
C1161 N1163 1.384 . S
N1162 C1158 1.427 . S
N1162 C1159 1.384 . S
N1163 C1155 1.427 . S
N1163 C1161 1.384 . S
C415 C28 0.797 . S
C419 C187 0.806 . S
C433 C40 0.794 . S
C437 C17 0.811 . S
C451 C96 0.807 . S
C455 C51 0.807 1_554 S
C469 C108 0.808 . S
C473 C85 0.806 1_554 S
C487 C164 0.804 . S
C491 C119 0.810 1_554 S
C505 C176 0.813 . S
C509 C153 0.798 . S
C523 C210 0.801 . S
C527 C255 0.811 . S
C541 C266 0.809 . S
C545 C289 0.806 . S
C559 C278 0.806 . S
C563 C323 0.808 . S
C577 C357 0.800 . S
C581 C334 0.813 . S
C595 C391 0.803 . S
C599 C346 0.811 . S
C613 C221 0.812 . S
C617 C402 0.798 . S
C631 C287 1.604 . S
C635 C22 1.607 . S
C649 C328 1.610 . S
C653 C49 1.595 . S
C667 C90 1.595 . S
C671 C355 1.602 . S
C685 C396 1.602 . S
C689 C117 1.592 . S
C703 C158 1.595 . S
C707 C219 1.602 . S
C721 C185 1.596 . S
C725 C260 1.597 . S
C739 C389 2.131 . S
C743 C124 2.131 . S
C757 C151 2.125 . S
C761 C226 2.135 . S
C775 C192 2.114 . S
C779 C253 2.119 . S
C793 C15 2.116 . S
C797 C294 2.130 . S
C811 C56 2.121 . S
C815 C321 2.133 . S
C829 C83 2.114 . S
C833 C362 2.119 . S
C847 C74 1.060 . S
C851 C1 0.972 . S
C865 C130 1.064 . S
C869 C37 0.991 . S
C883 C69 0.982 . S
C887 C142 1.063 . S
C901 C105 0.998 . S
C905 C198 1.062 . S
C919 C6 1.062 . S
C923 C137 0.971 . S
C937 C62 1.063 . S
C941 C173 0.999 . S
C955 C207 0.977 . S
C959 C368 1.063 . S
C973 C239 0.970 . S
C977 C380 1.062 . S
C991 C232 1.063 . S
C995 C275 0.987 . S
C1009 C244 1.062 . S
C1013 C307 0.971 . S
C1027 C300 1.063 . S
C1031 C343 0.998 . S
C1045 C375 0.994 . S
C1049 C312 1.062 . S
C1063 C3 2.344 . S
C1067 C103 2.351 . S
C1081 C35 2.359 . S
C1085 C139 2.352 . S
C1099 C71 2.349 . S
C1103 C171 2.357 . S
C1117 C205 2.347 . S
C1121 C309 2.356 . S
C1135 C341 2.352 . S
C1139 C241 2.344 . S
C1153 C377 2.359 . S
C1157 C273 2.354 . S
