# Generated by pormake.
# Topology sgn, (3)-cn, num edge types: 1
# Building blocks:
#     Node 0, Type 0, BuildingBlock: OLANEW_clean_sbu_2, # of connection points: 3
#     Node 1, Type 0, BuildingBlock: OLANEW_clean_sbu_2, # of connection points: 3
#     Node 2, Type 0, BuildingBlock: OLANEW_clean_sbu_2, # of connection points: 3
#     Node 3, Type 0, BuildingBlock: OLANEW_clean_sbu_2, # of connection points: 3
#     Node 4, Type 0, BuildingBlock: OLANEW_clean_sbu_2, # of connection points: 3
#     Node 5, Type 0, BuildingBlock: OLANEW_clean_sbu_2, # of connection points: 3
#     Node 6, Type 0, BuildingBlock: OLANEW_clean_sbu_2, # of connection points: 3
#     Node 7, Type 0, BuildingBlock: OLANEW_clean_sbu_2, # of connection points: 3
#     Node 8, Type 0, BuildingBlock: OLANEW_clean_sbu_2, # of connection points: 3
#     Node 9, Type 0, BuildingBlock: OLANEW_clean_sbu_2, # of connection points: 3
#     Node 10, Type 0, BuildingBlock: OLANEW_clean_sbu_2, # of connection points: 3
#     Node 11, Type 0, BuildingBlock: OLANEW_clean_sbu_2, # of connection points: 3
#     Node 12, Type 0, BuildingBlock: OLANEW_clean_sbu_2, # of connection points: 3
#     Node 13, Type 0, BuildingBlock: OLANEW_clean_sbu_2, # of connection points: 3
#     Node 14, Type 0, BuildingBlock: OLANEW_clean_sbu_2, # of connection points: 3
#     Node 15, Type 0, BuildingBlock: OLANEW_clean_sbu_2, # of connection points: 3
#     Node 16, Type 0, BuildingBlock: OLANEW_clean_sbu_2, # of connection points: 3
#     Node 17, Type 0, BuildingBlock: OLANEW_clean_sbu_2, # of connection points: 3
#     Node 18, Type 0, BuildingBlock: OLANEW_clean_sbu_2, # of connection points: 3
#     Node 19, Type 0, BuildingBlock: OLANEW_clean_sbu_2, # of connection points: 3
#     Node 20, Type 0, BuildingBlock: OLANEW_clean_sbu_2, # of connection points: 3
#     Node 21, Type 0, BuildingBlock: OLANEW_clean_sbu_2, # of connection points: 3
#     Node 22, Type 0, BuildingBlock: OLANEW_clean_sbu_2, # of connection points: 3
#     Node 23, Type 0, BuildingBlock: OLANEW_clean_sbu_2, # of connection points: 3
#     Edge 24, Type (0, 0), BuildingBlock: TEMPAE_clean_linker_10, # of connection points: 2
#     Edge 25, Type (0, 0), BuildingBlock: TEMPAE_clean_linker_10, # of connection points: 2
#     Edge 26, Type (0, 0), BuildingBlock: TEMPAE_clean_linker_10, # of connection points: 2
#     Edge 27, Type (0, 0), BuildingBlock: TEMPAE_clean_linker_10, # of connection points: 2
#     Edge 28, Type (0, 0), BuildingBlock: TEMPAE_clean_linker_10, # of connection points: 2
#     Edge 29, Type (0, 0), BuildingBlock: TEMPAE_clean_linker_10, # of connection points: 2
#     Edge 30, Type (0, 0), BuildingBlock: TEMPAE_clean_linker_10, # of connection points: 2
#     Edge 31, Type (0, 0), BuildingBlock: TEMPAE_clean_linker_10, # of connection points: 2
#     Edge 32, Type (0, 0), BuildingBlock: TEMPAE_clean_linker_10, # of connection points: 2
#     Edge 33, Type (0, 0), BuildingBlock: TEMPAE_clean_linker_10, # of connection points: 2
#     Edge 34, Type (0, 0), BuildingBlock: TEMPAE_clean_linker_10, # of connection points: 2
#     Edge 35, Type (0, 0), BuildingBlock: TEMPAE_clean_linker_10, # of connection points: 2
#     Edge 36, Type (0, 0), BuildingBlock: TEMPAE_clean_linker_10, # of connection points: 2
#     Edge 37, Type (0, 0), BuildingBlock: TEMPAE_clean_linker_10, # of connection points: 2
#     Edge 38, Type (0, 0), BuildingBlock: TEMPAE_clean_linker_10, # of connection points: 2
#     Edge 39, Type (0, 0), BuildingBlock: TEMPAE_clean_linker_10, # of connection points: 2
#     Edge 40, Type (0, 0), BuildingBlock: TEMPAE_clean_linker_10, # of connection points: 2
#     Edge 41, Type (0, 0), BuildingBlock: TEMPAE_clean_linker_10, # of connection points: 2
#     Edge 42, Type (0, 0), BuildingBlock: TEMPAE_clean_linker_10, # of connection points: 2
#     Edge 43, Type (0, 0), BuildingBlock: TEMPAE_clean_linker_10, # of connection points: 2
#     Edge 44, Type (0, 0), BuildingBlock: TEMPAE_clean_linker_10, # of connection points: 2
#     Edge 45, Type (0, 0), BuildingBlock: TEMPAE_clean_linker_10, # of connection points: 2
#     Edge 46, Type (0, 0), BuildingBlock: TEMPAE_clean_linker_10, # of connection points: 2
#     Edge 47, Type (0, 0), BuildingBlock: TEMPAE_clean_linker_10, # of connection points: 2
#     Edge 48, Type (0, 0), BuildingBlock: TEMPAE_clean_linker_10, # of connection points: 2
#     Edge 49, Type (0, 0), BuildingBlock: TEMPAE_clean_linker_10, # of connection points: 2
#     Edge 50, Type (0, 0), BuildingBlock: TEMPAE_clean_linker_10, # of connection points: 2
#     Edge 51, Type (0, 0), BuildingBlock: TEMPAE_clean_linker_10, # of connection points: 2
#     Edge 52, Type (0, 0), BuildingBlock: TEMPAE_clean_linker_10, # of connection points: 2
#     Edge 53, Type (0, 0), BuildingBlock: TEMPAE_clean_linker_10, # of connection points: 2
#     Edge 54, Type (0, 0), BuildingBlock: TEMPAE_clean_linker_10, # of connection points: 2
#     Edge 55, Type (0, 0), BuildingBlock: TEMPAE_clean_linker_10, # of connection points: 2
#     Edge 56, Type (0, 0), BuildingBlock: TEMPAE_clean_linker_10, # of connection points: 2
#     Edge 57, Type (0, 0), BuildingBlock: TEMPAE_clean_linker_10, # of connection points: 2
#     Edge 58, Type (0, 0), BuildingBlock: TEMPAE_clean_linker_10, # of connection points: 2
#     Edge 59, Type (0, 0), BuildingBlock: TEMPAE_clean_linker_10, # of connection points: 2
# Relax obj value: 0.088
# Max RMSD: 0.281
# Mean RMSD: 0.072
data_MOF--net-sgn--node1-OLANEW_clean_sbu_2--edge1-TEMPAE_clean_linker_10
_symmetry_space_group_name_H-M    P1
_symmetry_Int_Tables_number       1
_symmetry_cell_setting            triclinic
loop_
_symmetry_equiv_pos_as_xyz
'x, y, z'
_cell_length_a     74.988156
_cell_length_b     36.295203
_cell_length_c     42.746076
_cell_angle_alpha  89.442086
_cell_angle_beta   90.425512
_cell_angle_gamma 87.961392
loop_
_atom_site_label
_atom_site_type_symbol
_atom_site_fract_x
_atom_site_fract_y
_atom_site_fract_z
_atom_type_partial_charge
O0 O 0.07373 0.43344 0.05162 0.0
Cd1 Cd 0.09512 0.4779 0.03378 0.0
O2 O 0.05305 0.47759 0.05295 0.0
Cd3 Cd 0.0259 0.50075 0.05856 0.0
O4 O 0.99948 0.52719 0.06434 0.0
C5 C 0.99158 0.52376 0.09033 0.0
O6 O 0.99954 0.50436 0.11283 0.0
C7 C 0.05775 0.44389 0.05732 0.0
C8 C 0.10698 0.46379 0.9733 0.0
O9 O 0.11481 0.44859 0.99712 0.0
O10 O 0.09343 0.48548 0.97812 0.0
O11 O 0.02914 0.89029 0.42774 0.0
Cd12 Cd 0.02293 0.94977 0.40224 0.0
O13 O 0.00965 0.86067 0.3999 0.0
Cd14 Cd 0.99572 0.91238 0.3867 0.0
O15 O 0.97252 0.94755 0.39852 0.0
C16 C 0.95761 0.93204 0.39732 0.0
O17 O 0.95723 0.89798 0.38724 0.0
C18 C 0.02241 0.86016 0.41966 0.0
C19 C 0.04728 0.95646 0.35379 0.0
O20 O 0.05178 0.96076 0.38242 0.0
O21 O 0.03099 0.94955 0.34765 0.0
O22 O 0.49 0.51259 0.5748 0.0
Cd23 Cd 0.49911 0.46335 0.61153 0.0
O24 O 0.46231 0.50647 0.58938 0.0
Cd25 Cd 0.43338 0.51764 0.58863 0.0
O26 O 0.40451 0.52565 0.5935 0.0
C27 C 0.39455 0.53601 0.57064 0.0
O28 O 0.40184 0.54237 0.54334 0.0
C29 C 0.47365 0.52287 0.57275 0.0
C30 C 0.53427 0.46917 0.63239 0.0
O31 O 0.53056 0.44979 0.60845 0.0
O32 O 0.52134 0.48599 0.64638 0.0
O33 O 0.48782 0.28775 0.98624 0.0
Cd34 Cd 0.48586 0.23352 0.02041 0.0
O35 O 0.51083 0.26285 0.96156 0.0
Cd36 Cd 0.51433 0.2161 0.99384 0.0
O37 O 0.5261 0.1823 0.03174 0.0
C38 C 0.52554 0.195 0.05934 0.0
O39 O 0.51715 0.22685 0.06404 0.0
C40 C 0.49934 0.28922 0.9646 0.0
C41 C 0.45986 0.18585 0.00015 0.0
O42 O 0.45656 0.20895 0.02203 0.0
O43 O 0.47541 0.18531 0.98788 0.0
O44 O 0.0273 0.63792 0.58115 0.0
Cd45 Cd 0.02368 0.59013 0.62108 0.0
O46 O 0.05388 0.62048 0.56427 0.0
Cd47 Cd 0.05827 0.58584 0.60566 0.0
O48 O 0.07007 0.58159 0.65238 0.0
C49 C 0.08673 0.58645 0.65459 0.0
O50 O 0.09588 0.59144 0.62888 0.0
C51 C 0.03999 0.6414 0.56189 0.0
C52 C 0.99443 0.54882 0.60424 0.0
O53 O 0.99233 0.57972 0.61821 0.0
O54 O 0.01038 0.53686 0.59884 0.0
O55 O 0.45375 0.78166 0.45363 0.0
Cd56 Cd 0.45043 0.84294 0.42956 0.0
O57 O 0.43329 0.75569 0.42503 0.0
Cd58 Cd 0.42446 0.80949 0.40631 0.0
O59 O 0.41195 0.86443 0.41069 0.0
C60 C 0.40847 0.87365 0.43866 0.0
O61 O 0.41278 0.8503 0.4614 0.0
C62 C 0.44547 0.7531 0.44589 0.0
C63 C 0.48336 0.86476 0.40729 0.0
O64 O 0.47846 0.8719 0.43532 0.0
O65 O 0.47255 0.84775 0.38964 0.0
O66 O 0.53627 0.52487 0.83214 0.0
Cd67 Cd 0.54349 0.5784 0.80021 0.0
O68 O 0.50813 0.53521 0.81957 0.0
Cd69 Cd 0.47989 0.52466 0.82533 0.0
O70 O 0.45426 0.50718 0.84243 0.0
C71 C 0.45342 0.49689 0.87086 0.0
O72 O 0.46789 0.49744 0.88835 0.0
C73 C 0.52009 0.51592 0.83408 0.0
C74 C 0.58017 0.58701 0.79517 0.0
O75 O 0.57125 0.60234 0.81728 0.0
O76 O 0.57172 0.56747 0.77555 0.0
O77 O 0.9789 0.23552 0.16495 0.0
Cd78 Cd 0.96104 0.18952 0.19114 0.0
O79 O 0.96008 0.24837 0.12628 0.0
Cd80 Cd 0.94045 0.20808 0.13913 0.0
O81 O 0.91626 0.17734 0.13215 0.0
C82 C 0.91259 0.16855 0.10418 0.0
O83 O 0.92373 0.17711 0.08188 0.0
C84 C 0.97472 0.25392 0.14035 0.0
C85 C 0.98229 0.15118 0.23541 0.0
O86 O 0.97969 0.13786 0.20816 0.0
O87 O 0.97458 0.18221 0.24191 0.0
O88 O 0.1287 0.92967 0.4269 0.0
Cd89 Cd 0.1038 0.92441 0.46307 0.0
O90 O 0.12173 0.98498 0.40773 0.0
Cd91 Cd 0.09582 0.99468 0.42921 0.0
O92 O 0.07237 0.02048 0.40631 0.0
C93 C 0.07545 0.03255 0.3789 0.0
O94 O 0.09179 0.02923 0.36812 0.0
C95 C 0.13217 0.95667 0.40907 0.0
C96 C 0.10947 0.85899 0.49731 0.0
O97 O 0.11528 0.88963 0.50709 0.0
O98 O 0.10045 0.85942 0.47171 0.0
O99 O 0.22097 0.5854 0.94192 0.0
Cd100 Cd 0.22471 0.61204 0.9937 0.0
O101 O 0.19909 0.62629 0.93388 0.0
Cd102 Cd 0.17769 0.64923 0.90369 0.0
O103 O 0.15848 0.64967 0.86508 0.0
C104 C 0.15191 0.61875 0.85894 0.0
O105 O 0.15661 0.59012 0.87655 0.0
C106 C 0.20923 0.60025 0.9238 0.0
C107 C 0.24095 0.67945 0.98577 0.0
O108 O 0.25029 0.64964 0.99062 0.0
O109 O 0.22392 0.67748 0.98561 0.0
O110 O 0.32653 0.1346 0.59808 0.0
Cd111 Cd 0.32619 0.15855 0.54437 0.0
O112 O 0.30583 0.09501 0.5877 0.0
Cd113 Cd 0.29673 0.12944 0.54818 0.0
O114 O 0.28414 0.18451 0.54505 0.0
C115 C 0.2697 0.18848 0.56022 0.0
O116 O 0.26289 0.15913 0.57305 0.0
C117 C 0.31762 0.10693 0.60622 0.0
C118 C 0.34352 0.10515 0.50788 0.0
O119 O 0.35214 0.13127 0.5202 0.0
O120 O 0.32661 0.1051 0.51187 0.0
O121 O 0.25217 0.38359 0.02149 0.0
Cd122 Cd 0.25833 0.36338 0.07523 0.0
O123 O 0.28108 0.37892 0.01523 0.0
Cd124 Cd 0.30604 0.38508 0.99001 0.0
O125 O 0.33122 0.39617 0.96727 0.0
C126 C 0.33593 0.42938 0.9653 0.0
O127 O 0.32538 0.45555 0.97673 0.0
C128 C 0.26562 0.38599 0.00377 0.0
C129 C 0.24704 0.29204 0.08583 0.0
O130 O 0.23739 0.32008 0.09408 0.0
O131 O 0.262 0.29773 0.07268 0.0
O132 O 0.20018 0.94998 0.20047 0.0
Cd133 Cd 0.20222 0.95964 0.14402 0.0
O134 O 0.18444 0.90077 0.19418 0.0
Cd135 Cd 0.1724 0.92194 0.15102 0.0
O136 O 0.14604 0.93254 0.17172 0.0
C137 C 0.1443 0.95796 0.1919 0.0
O138 O 0.15768 0.97961 0.19688 0.0
C139 C 0.19317 0.92154 0.21194 0.0
C140 C 0.21125 0.03166 0.13002 0.0
O141 O 0.19496 0.02216 0.1287 0.0
O142 O 0.22322 0.00709 0.13774 0.0
O143 O 0.22268 0.55721 0.67801 0.0
Cd144 Cd 0.22552 0.56595 0.62153 0.0
O145 O 0.19335 0.56333 0.67875 0.0
Cd146 Cd 0.18893 0.58017 0.63005 0.0
O147 O 0.17505 0.61882 0.59775 0.0
C148 C 0.15933 0.62985 0.60503 0.0
O149 O 0.15211 0.61625 0.63036 0.0
C150 C 0.20811 0.55701 0.69302 0.0
C151 C 0.26155 0.56076 0.60525 0.0
O152 O 0.25407 0.59176 0.61259 0.0
O153 O 0.25191 0.5323 0.60514 0.0
O154 O 0.33995 0.98568 0.83646 0.0
Cd155 Cd 0.34309 0.96823 0.89167 0.0
O156 O 0.31304 0.00991 0.84393 0.0
Cd157 Cd 0.31005 0.98166 0.88883 0.0
O158 O 0.30099 0.9354 0.91693 0.0
C159 C 0.29702 0.90726 0.9012 0.0
O160 O 0.29904 0.9083 0.87069 0.0
C161 C 0.3264 0.00427 0.82621 0.0
C162 C 0.36747 0.01391 0.92013 0.0
O163 O 0.3723 0.98156 0.91099 0.0
O164 O 0.35109 0.02437 0.91635 0.0
O165 O 0.22331 0.41078 0.76583 0.0
Cd166 Cd 0.19986 0.42932 0.72872 0.0
O167 O 0.23386 0.46644 0.76597 0.0
Cd168 Cd 0.2249 0.47222 0.71741 0.0
O169 O 0.22847 0.43941 0.67527 0.0
C170 C 0.24238 0.41844 0.6772 0.0
O171 O 0.25264 0.42073 0.70212 0.0
C172 C 0.23271 0.43486 0.77881 0.0
C173 C 0.1718 0.44306 0.7697 0.0
O174 O 0.1732 0.41231 0.75528 0.0
O175 O 0.18278 0.46808 0.76283 0.0
O176 O 0.74233 0.04367 0.08932 0.0
Cd177 Cd 0.75773 0.04647 0.03929 0.0
O178 O 0.71785 0.01915 0.07176 0.0
Cd179 Cd 0.72636 0.02803 0.02361 0.0
O180 O 0.73112 0.05755 0.97981 0.0
C181 C 0.73507 0.09125 0.98161 0.0
O182 O 0.73655 0.10607 0.0094 0.0
C183 C 0.72713 0.03049 0.0945 0.0
C184 C 0.79213 0.07066 0.04955 0.0
O185 O 0.77913 0.09356 0.04343 0.0
O186 O 0.7889 0.03622 0.05018 0.0
O187 O 0.85138 0.44029 0.43778 0.0
Cd188 Cd 0.85996 0.39575 0.47891 0.0
O189 O 0.83302 0.4048 0.41244 0.0
Cd190 Cd 0.83204 0.35904 0.44589 0.0
O191 O 0.81539 0.31233 0.45664 0.0
C192 C 0.81428 0.28799 0.4356 0.0
O193 O 0.82426 0.29077 0.4106 0.0
C194 C 0.84113 0.43486 0.41457 0.0
C195 C 0.88974 0.42155 0.51046 0.0
O196 O 0.89135 0.40443 0.48451 0.0
O197 O 0.87409 0.42581 0.522 0.0
O198 O 0.66107 0.9525 0.35956 0.0
Cd199 Cd 0.64233 0.93315 0.31604 0.0
O200 O 0.67346 0.99501 0.3308 0.0
Cd201 Cd 0.66271 0.97667 0.28634 0.0
O202 O 0.67499 0.93936 0.25244 0.0
C203 C 0.68427 0.9139 0.26604 0.0
O204 O 0.68429 0.91246 0.29678 0.0
C205 C 0.67171 0.97886 0.35706 0.0
C206 C 0.60759 0.91982 0.33492 0.0
O207 O 0.6118 0.95177 0.32496 0.0
O208 O 0.61983 0.89425 0.33592 0.0
O209 O 0.83813 0.62251 0.21735 0.0
Cd210 Cd 0.83953 0.66092 0.17035 0.0
O211 O 0.81297 0.644 0.23764 0.0
Cd212 Cd 0.80656 0.68674 0.20252 0.0
O213 O 0.78925 0.73516 0.19217 0.0
C214 C 0.77322 0.7306 0.18352 0.0
O215 O 0.76813 0.69696 0.17816 0.0
C216 C 0.82649 0.62185 0.23876 0.0
C217 C 0.87158 0.64013 0.14156 0.0
O218 O 0.87075 0.66703 0.16076 0.0
O219 O 0.85708 0.62411 0.13498 0.0
O220 O 0.74485 0.361 0.74309 0.0
Cd221 Cd 0.73682 0.29712 0.73449 0.0
O222 O 0.71653 0.37775 0.74289 0.0
Cd223 Cd 0.69297 0.41513 0.74114 0.0
O224 O 0.66527 0.43295 0.73188 0.0
C225 C 0.66106 0.45831 0.7122 0.0
O226 O 0.67378 0.47589 0.69808 0.0
C227 C 0.73279 0.38638 0.74488 0.0
C228 C 0.73776 0.25371 0.78877 0.0
O229 O 0.75168 0.25668 0.77181 0.0
O230 O 0.72348 0.27161 0.78019 0.0
O231 O 0.68604 0.07484 0.32978 0.0
Cd232 Cd 0.67809 0.09745 0.38169 0.0
O233 O 0.65962 0.09056 0.31067 0.0
Cd234 Cd 0.63931 0.09554 0.27364 0.0
O235 O 0.62113 0.10925 0.23478 0.0
C236 C 0.60616 0.09426 0.23173 0.0
O237 O 0.60152 0.06938 0.25237 0.0
C238 C 0.67532 0.07711 0.30665 0.0
C239 C 0.70627 0.13764 0.40478 0.0
O240 O 0.7052 0.1032 0.41092 0.0
O241 O 0.69373 0.15329 0.38839 0.0
O242 O 0.76746 0.03932 0.53891 0.0
Cd243 Cd 0.79179 0.04652 0.5764 0.0
O244 O 0.78273 0.00049 0.50921 0.0
Cd245 Cd 0.80919 0.00915 0.52872 0.0
O246 O 0.83774 0.0069 0.51867 0.0
C247 C 0.8425 0.02212 0.49329 0.0
O248 O 0.83034 0.0401 0.47623 0.0
C249 C 0.76812 0.01723 0.51603 0.0
C250 C 0.7951 0.98396 0.61485 0.0
O251 O 0.78313 0.00921 0.61998 0.0
O252 O 0.80569 0.98845 0.59185 0.0
O253 O 0.79847 0.63638 0.77586 0.0
Cd254 Cd 0.81869 0.68773 0.77848 0.0
O255 O 0.77397 0.6694 0.7651 0.0
Cd256 Cd 0.74501 0.67208 0.75871 0.0
O257 O 0.71659 0.66116 0.75922 0.0
C258 C 0.71153 0.6333 0.7746 0.0
O259 O 0.72357 0.61237 0.78943 0.0
C260 C 0.78184 0.63823 0.76986 0.0
C261 C 0.8088 0.75061 0.74367 0.0
O262 O 0.81599 0.72224 0.73055 0.0
O263 O 0.80583 0.74897 0.77313 0.0
C264 C 0.9819 0.30344 0.10169 0.0
C265 C 0.98681 0.28204 0.12812 0.0
C266 C 0.99315 0.33028 0.08991 0.0
C267 C 0.00973 0.3358 0.10483 0.0
C268 C 0.01476 0.31442 0.13155 0.0
C269 C 0.00324 0.2878 0.14288 0.0
C270 C 0.98729 0.35277 0.06151 0.0
C271 C 0.03224 0.31993 0.14832 0.0
C272 C 0.04638 0.38027 0.05855 0.0
C273 C 0.04501 0.41683 0.06875 0.0
C274 C 0.03486 0.35371 0.06989 0.0
C275 C 0.02187 0.36385 0.09239 0.0
C276 C 0.0206 0.40065 0.10311 0.0
C277 C 0.03212 0.42679 0.09095 0.0
C278 C 0.03663 0.31476 0.0579 0.0
C279 C 0.00705 0.41261 0.12729 0.0
H280 H 0.96922 0.29932 0.09016 0.0
H281 H 0.00714 0.27151 0.16335 0.0
H282 H 0.98652 0.38246 0.06748 0.0
H283 H 0.99727 0.34932 0.04262 0.0
H284 H 0.97408 0.34481 0.05239 0.0
H285 H 0.03419 0.30107 0.16878 0.0
H286 H 0.04351 0.31527 0.13199 0.0
H287 H 0.03278 0.34879 0.15652 0.0
H288 H 0.05642 0.3725 0.04148 0.0
H289 H 0.03139 0.45475 0.0996 0.0
H290 H 0.02381 0.30667 0.04731 0.0
H291 H 0.03968 0.29537 0.0776 0.0
H292 H 0.04729 0.31147 0.04013 0.0
H293 H 0.99382 0.41688 0.11578 0.0
H294 H 0.01063 0.43879 0.13857 0.0
H295 H 0.00574 0.3913 0.14583 0.0
C296 C 0.02545 0.69889 0.53986 0.0
C297 C 0.03881 0.67102 0.53782 0.0
C298 C 0.02446 0.72818 0.5183 0.0
C299 C 0.03698 0.72943 0.49372 0.0
C300 C 0.0504 0.70121 0.49122 0.0
C301 C 0.05122 0.67237 0.51344 0.0
C302 C 0.01012 0.75809 0.52209 0.0
C303 C 0.06374 0.70128 0.46496 0.0
C304 C 0.02048 0.79194 0.42749 0.0
C305 C 0.02836 0.82516 0.43525 0.0
C306 C 0.02418 0.75967 0.44505 0.0
C307 C 0.03591 0.76076 0.47108 0.0
C308 C 0.04486 0.7935 0.47769 0.0
C309 C 0.041 0.82531 0.45965 0.0
C310 C 0.01469 0.72501 0.43686 0.0
C311 C 0.05761 0.79569 0.50509 0.0
H312 H 0.01589 0.69825 0.55873 0.0
H313 H 0.06155 0.65085 0.51165 0.0
H314 H 0.01632 0.7852 0.52479 0.0
H315 H 0.00151 0.75987 0.50088 0.0
H316 H 0.00154 0.75321 0.5427 0.0
H317 H 0.07449 0.67971 0.46825 0.0
H318 H 0.05679 0.6963 0.44248 0.0
H319 H 0.06989 0.72854 0.46294 0.0
H320 H 0.01089 0.79141 0.40842 0.0
H321 H 0.04733 0.85073 0.46562 0.0
H322 H 0.00442 0.71964 0.45474 0.0
H323 H 0.02421 0.70091 0.43692 0.0
H324 H 0.00802 0.72718 0.41359 0.0
H325 H 0.04996 0.79531 0.5272 0.0
H326 H 0.06536 0.82121 0.50436 0.0
H327 H 0.06709 0.77152 0.50567 0.0
C328 C 0.46233 0.71543 0.48632 0.0
C329 C 0.44959 0.71744 0.46208 0.0
C330 C 0.46585 0.68249 0.503 0.0
C331 C 0.45646 0.65066 0.49522 0.0
C332 C 0.44381 0.65223 0.47046 0.0
C333 C 0.4405 0.68565 0.4542 0.0
C334 C 0.47943 0.68194 0.52929 0.0
C335 C 0.43361 0.61876 0.46145 0.0
C336 C 0.47775 0.56005 0.52413 0.0
C337 C 0.46822 0.55382 0.55165 0.0
C338 C 0.47363 0.59076 0.50486 0.0
C339 C 0.45975 0.616 0.51354 0.0
C340 C 0.44985 0.60942 0.54099 0.0
C341 C 0.45428 0.57851 0.55981 0.0
C342 C 0.48445 0.59674 0.47571 0.0
C343 C 0.43503 0.63582 0.55116 0.0
H344 H 0.46944 0.73979 0.49261 0.0
H345 H 0.43065 0.6869 0.4355 0.0
H346 H 0.47295 0.67463 0.55165 0.0
H347 H 0.49004 0.66057 0.52494 0.0
H348 H 0.48577 0.70893 0.53209 0.0
H349 H 0.42462 0.62423 0.44104 0.0
H350 H 0.44304 0.5956 0.45573 0.0
H351 H 0.42549 0.60964 0.48149 0.0
H352 H 0.48858 0.54104 0.51781 0.0
H353 H 0.44733 0.57467 0.58164 0.0
H354 H 0.49219 0.62205 0.47818 0.0
H355 H 0.47549 0.60093 0.45512 0.0
H356 H 0.49389 0.57319 0.47105 0.0
H357 H 0.44069 0.66259 0.55752 0.0
H358 H 0.42766 0.62515 0.5716 0.0
H359 H 0.42542 0.64123 0.53166 0.0
C360 C 0.50198 0.46044 0.84361 0.0
C361 C 0.5153 0.48391 0.8535 0.0
C362 C 0.49767 0.42936 0.86146 0.0
C363 C 0.50709 0.42138 0.88968 0.0
C364 C 0.52044 0.44527 0.89993 0.0
C365 C 0.52446 0.47612 0.88159 0.0
C366 C 0.48343 0.40451 0.84964 0.0
C367 C 0.53068 0.43787 0.93002 0.0
C368 C 0.48941 0.35389 0.94963 0.0
C369 C 0.50015 0.32222 0.94395 0.0
C370 C 0.49121 0.38621 0.93171 0.0
C371 C 0.50396 0.38676 0.90744 0.0
C372 C 0.51438 0.35452 0.90093 0.0
C373 C 0.51238 0.32272 0.91928 0.0
C374 C 0.4797 0.41993 0.93907 0.0
C375 C 0.528 0.35386 0.87506 0.0
H376 H 0.49529 0.46568 0.82138 0.0
H377 H 0.53479 0.49425 0.88924 0.0
H378 H 0.48952 0.3771 0.84395 0.0
H379 H 0.47334 0.40014 0.86802 0.0
H380 H 0.47652 0.41595 0.82841 0.0
H381 H 0.53993 0.46019 0.93556 0.0
H382 H 0.52129 0.43491 0.94975 0.0
H383 H 0.53857 0.41154 0.92827 0.0
H384 H 0.47987 0.35373 0.96854 0.0
H385 H 0.52067 0.29836 0.91454 0.0
H386 H 0.47128 0.42763 0.91844 0.0
H387 H 0.48818 0.44363 0.94411 0.0
H388 H 0.47084 0.41542 0.95936 0.0
H389 H 0.52163 0.36284 0.85261 0.0
H390 H 0.53436 0.32604 0.87192 0.0
H391 H 0.53859 0.3735 0.88035 0.0
C392 C 0.14659 0.9755 0.35949 0.0
C393 C 0.14698 0.95322 0.38648 0.0
C394 C 0.15807 0.96791 0.33453 0.0
C395 C 0.17077 0.93818 0.33713 0.0
C396 C 0.17247 0.91797 0.36554 0.0
C397 C 0.1603 0.92528 0.38976 0.0
C398 C 0.15557 0.98984 0.30445 0.0
C399 C 0.18634 0.88713 0.36962 0.0
C400 C 0.17783 0.89582 0.2581 0.0
C401 C 0.19138 0.91747 0.24622 0.0
C402 C 0.17196 0.89992 0.28888 0.0
C403 C 0.18023 0.92552 0.30857 0.0
C404 C 0.19548 0.94374 0.29801 0.0
C405 C 0.20074 0.93995 0.26669 0.0
C406 C 0.15542 0.88038 0.29865 0.0
C407 C 0.20525 0.96973 0.31883 0.0
H408 H 0.13639 0.99724 0.35678 0.0
H409 H 0.16086 0.90832 0.41078 0.0
H410 H 0.16834 0.00172 0.29728 0.0
H411 H 0.15132 0.9714 0.28542 0.0
H412 H 0.1454 0.01266 0.30659 0.0
H413 H 0.18845 0.87962 0.39467 0.0
H414 H 0.18193 0.86236 0.35713 0.0
H415 H 0.19926 0.89496 0.35945 0.0
H416 H 0.17057 0.87815 0.24256 0.0
H417 H 0.21145 0.9563 0.25782 0.0
H418 H 0.14379 0.89995 0.29632 0.0
H419 H 0.15628 0.87095 0.32336 0.0
H420 H 0.15293 0.85623 0.28367 0.0
H421 H 0.19807 0.99699 0.31876 0.0
H422 H 0.21905 0.97376 0.31052 0.0
H423 H 0.20583 0.95934 0.34334 0.0
C424 C 0.19212 0.5545 0.74391 0.0
C425 C 0.20827 0.55334 0.72761 0.0
C426 C 0.19179 0.55738 0.77653 0.0
C427 C 0.20802 0.55866 0.79352 0.0
C428 C 0.22442 0.55477 0.77743 0.0
C429 C 0.22436 0.55231 0.74462 0.0
C430 C 0.17387 0.56193 0.79191 0.0
C431 C 0.24202 0.55574 0.79466 0.0
C432 C 0.2065 0.61583 0.86725 0.0
C433 C 0.2081 0.58889 0.89082 0.0
C434 C 0.20646 0.60617 0.83561 0.0
C435 C 0.20791 0.5685 0.82726 0.0
C436 C 0.20927 0.54103 0.85111 0.0
C437 C 0.2096 0.55166 0.88264 0.0
C438 C 0.20509 0.63642 0.8111 0.0
C439 C 0.21071 0.50039 0.84409 0.0
H440 H 0.1796 0.55485 0.7311 0.0
H441 H 0.23694 0.55107 0.73228 0.0
H442 H 0.17443 0.55747 0.81757 0.0
H443 H 0.16844 0.59025 0.78699 0.0
H444 H 0.16438 0.54252 0.78161 0.0
H445 H 0.25348 0.54805 0.77943 0.0
H446 H 0.24388 0.58397 0.80361 0.0
H447 H 0.24211 0.53672 0.81514 0.0
H448 H 0.20583 0.6447 0.87357 0.0
H449 H 0.21089 0.53078 0.90091 0.0
H450 H 0.19236 0.63453 0.79792 0.0
H451 H 0.21615 0.63316 0.7941 0.0
H452 H 0.20553 0.66434 0.82144 0.0
H453 H 0.20868 0.49392 0.81906 0.0
H454 H 0.20087 0.4854 0.85822 0.0
H455 H 0.22409 0.48962 0.85152 0.0
C456 C 0.33078 0.1072 0.6602 0.0
C457 C 0.32038 0.08989 0.63762 0.0
C458 C 0.33256 0.09278 0.69068 0.0
C459 C 0.32388 0.06005 0.69872 0.0
C460 C 0.31381 0.04183 0.67581 0.0
C461 C 0.3121 0.05706 0.64557 0.0
C462 C 0.34331 0.11316 0.71454 0.0
C463 C 0.30452 0.00664 0.68342 0.0
C464 C 0.33913 0.00773 0.77222 0.0
C465 C 0.32599 0.01888 0.7937 0.0
C466 C 0.33859 0.02076 0.74116 0.0
C467 C 0.32469 0.04581 0.73147 0.0
C468 C 0.31149 0.05742 0.7531 0.0
C469 C 0.31225 0.04369 0.78388 0.0
C470 C 0.35281 0.00754 0.71867 0.0
C471 C 0.29654 0.08438 0.74372 0.0
H472 H 0.33721 0.13261 0.6543 0.0
H473 H 0.30413 0.04339 0.62823 0.0
H474 H 0.3345 0.1227 0.73379 0.0
H475 H 0.35378 0.09446 0.72505 0.0
H476 H 0.34979 0.13746 0.70424 0.0
H477 H 0.29808 0.99473 0.66253 0.0
H478 H 0.3142 0.98584 0.69347 0.0
H479 H 0.29415 0.01208 0.70133 0.0
H480 H 0.34975 0.98845 0.77955 0.0
H481 H 0.30207 0.05256 0.80033 0.0
H482 H 0.36001 0.03136 0.70924 0.0
H483 H 0.34656 0.9938 0.6985 0.0
H484 H 0.36267 0.9879 0.72985 0.0
H485 H 0.30214 0.11036 0.7349 0.0
H486 H 0.28747 0.09102 0.76347 0.0
H487 H 0.28858 0.07284 0.72441 0.0
C488 C 0.23472 0.39721 0.82784 0.0
C489 C 0.24054 0.42721 0.8102 0.0
C490 C 0.24022 0.39169 0.85896 0.0
C491 C 0.25191 0.41668 0.87284 0.0
C492 C 0.25841 0.44622 0.85484 0.0
C493 C 0.25267 0.4511 0.82363 0.0
C494 C 0.23297 0.35983 0.87733 0.0
C495 C 0.27089 0.47342 0.86883 0.0
C496 C 0.24884 0.42017 0.96131 0.0
C497 C 0.26313 0.39646 0.97047 0.0
C498 C 0.24552 0.42836 0.92959 0.0
C499 C 0.2567 0.41225 0.90652 0.0
C500 C 0.27142 0.38902 0.91571 0.0
C501 C 0.27436 0.38118 0.94758 0.0
C502 C 0.22979 0.45356 0.92073 0.0
C503 C 0.28358 0.37115 0.89183 0.0
H504 H 0.22533 0.37862 0.81769 0.0
H505 H 0.2573 0.47417 0.81004 0.0
H506 H 0.24408 0.3427 0.88773 0.0
H507 H 0.2247 0.37052 0.8969 0.0
H508 H 0.22466 0.34193 0.86267 0.0
H509 H 0.27599 0.49278 0.851 0.0
H510 H 0.26378 0.48972 0.88701 0.0
H511 H 0.28239 0.45869 0.88042 0.0
H512 H 0.24014 0.43204 0.97897 0.0
H513 H 0.28499 0.36172 0.9544 0.0
H514 H 0.22051 0.43902 0.90515 0.0
H515 H 0.23451 0.47776 0.90756 0.0
H516 H 0.22228 0.46355 0.94147 0.0
H517 H 0.27616 0.35048 0.87849 0.0
H518 H 0.29549 0.35712 0.90283 0.0
H519 H 0.28812 0.39202 0.87479 0.0
C520 C 0.7278 0.05241 0.14961 0.0
C521 C 0.71984 0.03095 0.12662 0.0
C522 C 0.72018 0.0564 0.17927 0.0
C523 C 0.70436 0.03799 0.18635 0.0
C524 C 0.69674 0.01476 0.16383 0.0
C525 C 0.70447 0.01183 0.13406 0.0
C526 C 0.72869 0.08153 0.20259 0.0
C527 C 0.68009 0.99407 0.17071 0.0
C528 C 0.69367 0.03498 0.27289 0.0
C529 C 0.68142 0.06489 0.27552 0.0
C530 C 0.70046 0.02442 0.24369 0.0
C531 C 0.69534 0.0451 0.21666 0.0
C532 C 0.68277 0.07498 0.21912 0.0
C533 C 0.67598 0.08452 0.24855 0.0
C534 C 0.71357 0.99197 0.24197 0.0
C535 C 0.67712 0.09799 0.19089 0.0
H536 H 0.73967 0.06729 0.1441 0.0
H537 H 0.69832 0.99495 0.11651 0.0
H538 H 0.71931 0.1049 0.20798 0.0
H539 H 0.73159 0.06643 0.22484 0.0
H540 H 0.74131 0.09284 0.19381 0.0
H541 H 0.67818 0.97138 0.15388 0.0
H542 H 0.68052 0.98235 0.19477 0.0
H543 H 0.66831 0.01339 0.16905 0.0
H544 H 0.69813 0.02001 0.29373 0.0
H545 H 0.66713 0.10858 0.25059 0.0
H546 H 0.71381 0.97515 0.26384 0.0
H547 H 0.72717 0.00204 0.23799 0.0
H548 H 0.71026 0.974 0.22205 0.0
H549 H 0.68875 0.1127 0.18178 0.0
H550 H 0.66635 0.11867 0.19639 0.0
H551 H 0.67236 0.08005 0.17194 0.0
C552 C 0.82871 0.45592 0.36262 0.0
C553 C 0.8388 0.46324 0.38951 0.0
C554 C 0.82663 0.48205 0.33837 0.0
C555 C 0.83476 0.51648 0.34107 0.0
C556 C 0.84482 0.52426 0.36822 0.0
C557 C 0.84676 0.49751 0.3921 0.0
C558 C 0.81586 0.47269 0.30971 0.0
C559 C 0.85361 0.56076 0.37197 0.0
C560 C 0.8432 0.56963 0.26596 0.0
C561 C 0.8287 0.59521 0.26517 0.0
C562 C 0.84541 0.54409 0.29067 0.0
C563 C 0.83286 0.54415 0.31524 0.0
C564 C 0.81829 0.57003 0.31476 0.0
C565 C 0.81637 0.59521 0.28971 0.0
C566 C 0.86109 0.51681 0.29032 0.0
C567 C 0.80466 0.57096 0.34059 0.0
H568 H 0.82252 0.42953 0.36033 0.0
H569 H 0.85454 0.50348 0.41279 0.0
H570 H 0.80468 0.49322 0.30632 0.0
H571 H 0.82434 0.47393 0.2886 0.0
H572 H 0.81028 0.44479 0.31134 0.0
H573 H 0.86072 0.56275 0.39475 0.0
H574 H 0.86331 0.56472 0.35286 0.0
H575 H 0.84345 0.58367 0.37016 0.0
H576 H 0.85281 0.56939 0.24715 0.0
H577 H 0.80515 0.61489 0.28939 0.0
H578 H 0.85625 0.48828 0.28996 0.0
H579 H 0.86922 0.51945 0.31192 0.0
H580 H 0.86982 0.5208 0.26976 0.0
H581 H 0.79793 0.54426 0.3418 0.0
H582 H 0.79434 0.59339 0.33713 0.0
H583 H 0.81136 0.57485 0.36349 0.0
C584 C 0.68023 0.97555 0.41397 0.0
C585 C 0.68352 0.98822 0.38352 0.0
C586 C 0.69252 0.98104 0.43835 0.0
C587 C 0.70842 0.99954 0.43205 0.0
C588 C 0.71149 0.01351 0.40161 0.0
C589 C 0.69908 0.00746 0.37775 0.0
C590 C 0.68879 0.96608 0.4706 0.0
C591 C 0.72831 0.03319 0.39357 0.0
C592 C 0.73731 0.03622 0.49745 0.0
C593 C 0.75203 0.0113 0.49671 0.0
C594 C 0.72259 0.03214 0.47744 0.0
C595 C 0.72254 0.00212 0.45645 0.0
C596 C 0.73692 0.97577 0.45694 0.0
C597 C 0.75156 0.9809 0.47677 0.0
C598 C 0.70738 0.06043 0.47919 0.0
C599 C 0.73701 0.94238 0.43609 0.0
H600 H 0.66825 0.96064 0.41861 0.0
H601 H 0.70202 0.0165 0.3542 0.0
H602 H 0.69957 0.94591 0.47777 0.0
H603 H 0.6887 0.98884 0.48776 0.0
H604 H 0.6758 0.95235 0.47173 0.0
H605 H 0.72643 0.05087 0.37235 0.0
H606 H 0.73275 0.05057 0.41315 0.0
H607 H 0.73916 0.01251 0.3888 0.0
H608 H 0.73746 0.05958 0.51306 0.0
H609 H 0.76273 0.9611 0.4765 0.0
H610 H 0.70057 0.05723 0.50197 0.0
H611 H 0.69732 0.05811 0.46027 0.0
H612 H 0.71264 0.08865 0.4786 0.0
H613 H 0.72415 0.92832 0.43791 0.0
H614 H 0.74804 0.92224 0.44211 0.0
H615 H 0.73855 0.9511 0.41135 0.0
C616 C 0.77562 0.57531 0.78977 0.0
C617 C 0.77191 0.60391 0.76823 0.0
C618 C 0.76745 0.5413 0.78705 0.0
C619 C 0.75559 0.53554 0.76176 0.0
C620 C 0.75144 0.56472 0.7404 0.0
C621 C 0.75966 0.59862 0.74391 0.0
C622 C 0.77198 0.51111 0.81064 0.0
C623 C 0.73902 0.55959 0.71295 0.0
C624 C 0.75395 0.43638 0.7351 0.0
C625 C 0.7379 0.42514 0.74805 0.0
C626 C 0.75955 0.47254 0.73866 0.0
C627 C 0.74899 0.49798 0.75608 0.0
C628 C 0.73267 0.48689 0.76904 0.0
C629 C 0.72727 0.45056 0.76476 0.0
C630 C 0.77693 0.48336 0.72411 0.0
C631 C 0.72107 0.51321 0.78776 0.0
H632 H 0.7851 0.57945 0.80858 0.0
H633 H 0.7571 0.62044 0.72681 0.0
H634 H 0.7596 0.49947 0.82001 0.0
H635 H 0.77961 0.48837 0.7991 0.0
H636 H 0.78008 0.52108 0.83051 0.0
H637 H 0.73585 0.58593 0.7003 0.0
H638 H 0.7453 0.53985 0.69632 0.0
H639 H 0.72637 0.54774 0.72084 0.0
H640 H 0.76217 0.41682 0.72207 0.0
H641 H 0.71506 0.44176 0.77541 0.0
H642 H 0.78655 0.4906 0.74272 0.0
H643 H 0.77472 0.50813 0.70897 0.0
H644 H 0.78307 0.46091 0.70985 0.0
H645 H 0.72885 0.52456 0.80739 0.0
H646 H 0.70914 0.49991 0.79738 0.0
H647 H 0.71651 0.53678 0.77268 0.0
C648 C 0.10668 0.47818 0.91593 0.0
C649 C 0.11383 0.45764 0.94129 0.0
C650 C 0.11404 0.47496 0.88595 0.0
C651 C 0.12897 0.45068 0.88126 0.0
C652 C 0.13565 0.42846 0.90644 0.0
C653 C 0.12805 0.43233 0.93618 0.0
C654 C 0.1064 0.4992 0.85993 0.0
C655 C 0.15123 0.40147 0.90224 0.0
C656 C 0.14468 0.42539 0.79952 0.0
C657 C 0.15938 0.44787 0.79617 0.0
C658 C 0.13421 0.42683 0.82668 0.0
C659 C 0.13873 0.45099 0.85109 0.0
C660 C 0.15336 0.47421 0.84749 0.0
C661 C 0.16343 0.47243 0.82005 0.0
C662 C 0.11878 0.40152 0.82979 0.0
C663 C 0.15899 0.4996 0.87326 0.0
H664 H 0.09564 0.49771 0.91962 0.0
H665 H 0.13353 0.41603 0.95559 0.0
H666 H 0.11457 0.5239 0.85769 0.0
H667 H 0.10661 0.48475 0.8372 0.0
H668 H 0.09246 0.50869 0.86485 0.0
H669 H 0.15357 0.38351 0.92317 0.0
H670 H 0.14895 0.38378 0.88168 0.0
H671 H 0.16353 0.41672 0.89775 0.0
H672 H 0.14158 0.40615 0.7812 0.0
H673 H 0.17505 0.48906 0.81796 0.0
H674 H 0.10641 0.41761 0.83561 0.0
H675 H 0.12147 0.38163 0.84928 0.0
H676 H 0.1164 0.38583 0.80806 0.0
H677 H 0.14727 0.51527 0.88266 0.0
H678 H 0.16898 0.51937 0.86517 0.0
H679 H 0.16503 0.48305 0.89282 0.0
C680 C 0.05583 0.9692 0.29831 0.0
C681 C 0.06072 0.95848 0.32883 0.0
C682 C 0.06866 0.97096 0.27456 0.0
C683 C 0.08671 0.96094 0.28146 0.0
C684 C 0.09162 0.94987 0.3123 0.0
C685 C 0.07862 0.94922 0.33565 0.0
C686 C 0.06289 0.98411 0.24232 0.0
C687 C 0.11046 0.93719 0.3205 0.0
C688 C 0.11767 0.92959 0.21606 0.0
C689 C 0.12848 0.96009 0.21251 0.0
C690 C 0.10383 0.92974 0.23805 0.0
C691 C 0.10049 0.96138 0.25652 0.0
C692 C 0.11096 0.99272 0.25227 0.0
C693 C 0.12493 0.99158 0.23053 0.0
C694 C 0.0931 0.89563 0.24215 0.0
C695 C 0.10766 0.02707 0.27131 0.0
H696 H 0.042 0.97661 0.29311 0.0
H697 H 0.08241 0.94055 0.35919 0.0
H698 H 0.0671 0.01285 0.23882 0.0
H699 H 0.06929 0.967 0.22389 0.0
H700 H 0.0482 0.98361 0.23911 0.0
H701 H 0.1127 0.93525 0.34619 0.0
H702 H 0.11308 0.90948 0.31048 0.0
H703 H 0.12022 0.95601 0.31034 0.0
H704 H 0.12042 0.90502 0.20246 0.0
H705 H 0.13323 0.01525 0.22793 0.0
H706 H 0.07868 0.90261 0.23884 0.0
H707 H 0.09492 0.88463 0.26632 0.0
H708 H 0.09706 0.87361 0.22544 0.0
H709 H 0.11652 0.04961 0.26442 0.0
H710 H 0.10987 0.02068 0.29652 0.0
H711 H 0.09357 0.03697 0.26846 0.0
C712 C 0.2915 0.58864 0.60047 0.0
C713 C 0.28085 0.55778 0.59796 0.0
C714 C 0.30994 0.58585 0.59504 0.0
C715 C 0.31793 0.5514 0.5868 0.0
C716 C 0.3072 0.5203 0.58365 0.0
C717 C 0.2888 0.52384 0.58933 0.0
C718 C 0.32094 0.61962 0.59872 0.0
C719 C 0.31522 0.48313 0.57477 0.0
C720 C 0.36378 0.54982 0.5492 0.0
C721 C 0.37496 0.54029 0.57471 0.0
C722 C 0.34519 0.55349 0.55275 0.0
C723 C 0.3376 0.54763 0.58254 0.0
C724 C 0.34881 0.53816 0.60839 0.0
C725 C 0.36733 0.53457 0.60417 0.0
C726 C 0.33366 0.56354 0.52462 0.0
C727 C 0.34123 0.5318 0.64056 0.0
H728 H 0.28548 0.61496 0.60713 0.0
H729 H 0.28067 0.49987 0.58727 0.0
H730 H 0.33093 0.61489 0.61774 0.0
H731 H 0.3284 0.62494 0.57692 0.0
H732 H 0.31262 0.64461 0.60427 0.0
H733 H 0.30496 0.46202 0.57212 0.0
H734 H 0.32257 0.48541 0.55245 0.0
H735 H 0.32498 0.47344 0.59294 0.0
H736 H 0.36954 0.55427 0.52635 0.0
H737 H 0.37584 0.52724 0.62404 0.0
H738 H 0.32588 0.58953 0.52901 0.0
H739 H 0.32393 0.54175 0.52049 0.0
H740 H 0.34163 0.56714 0.50307 0.0
H741 H 0.33365 0.55686 0.64828 0.0
H742 H 0.35176 0.52478 0.65826 0.0
H743 H 0.33175 0.50904 0.63985 0.0
C744 C 0.39639 0.02467 0.9475 0.0
C745 C 0.38055 0.0389 0.93373 0.0
C746 C 0.40913 0.04822 0.95969 0.0
C747 C 0.40615 0.0869 0.95723 0.0
C748 C 0.39015 0.10139 0.94336 0.0
C749 C 0.37744 0.0772 0.93215 0.0
C750 C 0.42581 0.03172 0.97502 0.0
C751 C 0.38667 0.14245 0.93965 0.0
C752 C 0.43217 0.15092 0.00903 0.0
C753 C 0.44613 0.16057 0.98928 0.0
C754 C 0.41921 0.12649 0.99911 0.0
C755 C 0.41997 0.11222 0.96841 0.0
C756 C 0.43393 0.1223 0.94824 0.0
C757 C 0.44698 0.14596 0.95908 0.0
C758 C 0.40479 0.11569 0.02154 0.0
C759 C 0.43497 0.1084 0.91509 0.0
H760 H 0.39878 0.99507 0.94895 0.0
H761 H 0.36526 0.08831 0.9213 0.0
H762 H 0.4377 0.0394 0.96149 0.0
H763 H 0.42736 0.04292 0.99892 0.0
H764 H 0.42562 0.00117 0.97669 0.0
H765 H 0.37356 0.14926 0.92835 0.0
H766 H 0.38702 0.15591 0.96281 0.0
H767 H 0.39731 0.15445 0.92527 0.0
H768 H 0.43155 0.16196 0.03249 0.0
H769 H 0.45769 0.15358 0.94367 0.0
H770 H 0.40498 0.08527 0.02448 0.0
H771 H 0.39149 0.12426 0.01193 0.0
H772 H 0.40638 0.12835 0.04491 0.0
H773 H 0.43635 0.07787 0.91519 0.0
H774 H 0.44639 0.11965 0.90214 0.0
H775 H 0.42245 0.11612 0.90225 0.0
C776 C 0.08534 0.59273 0.71284 0.0
C777 C 0.09553 0.58916 0.68556 0.0
C778 C 0.09355 0.59756 0.74208 0.0
C779 C 0.11237 0.59841 0.7441 0.0
C780 C 0.12273 0.59403 0.71674 0.0
C781 C 0.11418 0.58969 0.68779 0.0
C782 C 0.08208 0.60237 0.77074 0.0
C783 C 0.14287 0.59368 0.71812 0.0
C784 C 0.1352 0.64458 0.81218 0.0
C785 C 0.14039 0.61418 0.83104 0.0
C786 C 0.12557 0.63994 0.78427 0.0
C787 C 0.12132 0.604 0.77476 0.0
C788 C 0.12624 0.5733 0.79396 0.0
C789 C 0.13542 0.57887 0.82212 0.0
C790 C 0.12035 0.67339 0.76456 0.0
C791 C 0.12236 0.53446 0.78429 0.0
H792 H 0.07091 0.59251 0.71129 0.0
H793 H 0.12215 0.58671 0.66685 0.0
H794 H 0.08562 0.58056 0.78829 0.0
H795 H 0.08461 0.62928 0.78173 0.0
H796 H 0.06761 0.60121 0.7652 0.0
H797 H 0.14901 0.5896 0.69478 0.0
H798 H 0.14744 0.61995 0.7279 0.0
H799 H 0.14781 0.57117 0.73397 0.0
H800 H 0.1389 0.67199 0.81896 0.0
H801 H 0.1395 0.55524 0.83636 0.0
H802 H 0.10582 0.67385 0.75937 0.0
H803 H 0.12741 0.67205 0.74185 0.0
H804 H 0.12362 0.69956 0.7762 0.0
H805 H 0.10774 0.53078 0.7841 0.0
H806 H 0.1287 0.51346 0.80024 0.0
H807 H 0.12725 0.52919 0.76025 0.0
C808 C 0.39467 0.93485 0.42185 0.0
C809 C 0.39935 0.90946 0.44576 0.0
C810 C 0.3857 0.96848 0.42862 0.0
C811 C 0.3813 0.97679 0.45999 0.0
C812 C 0.38611 0.95137 0.48419 0.0
C813 C 0.39509 0.9181 0.47679 0.0
C814 C 0.38083 0.995 0.40225 0.0
C815 C 0.38164 0.95916 0.51795 0.0
C816 C 0.37159 0.07408 0.48841 0.0
C817 C 0.35298 0.07444 0.49159 0.0
C818 C 0.38094 0.04311 0.47658 0.0
C819 C 0.37146 0.01175 0.46783 0.0
C820 C 0.3526 0.01266 0.46951 0.0
C821 C 0.34358 0.04402 0.48132 0.0
C822 C 0.40105 0.04329 0.47495 0.0
C823 C 0.342 0.97977 0.46038 0.0
H824 H 0.39794 0.9284 0.39782 0.0
H825 H 0.39865 0.89871 0.49543 0.0
H826 H 0.36614 0.99958 0.40105 0.0
H827 H 0.38668 0.02213 0.40665 0.0
H828 H 0.38555 0.9848 0.37922 0.0
H829 H 0.38646 0.93663 0.53401 0.0
H830 H 0.38769 0.98517 0.52533 0.0
H831 H 0.36698 0.96289 0.52057 0.0
H832 H 0.37895 0.09755 0.49612 0.0
H833 H 0.32919 0.0441 0.48358 0.0
H834 H 0.40569 0.03391 0.45167 0.0
H835 H 0.40691 0.02374 0.49265 0.0
H836 H 0.40626 0.07104 0.47939 0.0
H837 H 0.34599 0.96995 0.43687 0.0
H838 H 0.32739 0.98613 0.46018 0.0
H839 H 0.34485 0.95679 0.47719 0.0
C840 C 0.35848 0.47507 0.94964 0.0
C841 C 0.35316 0.43843 0.95092 0.0
C842 C 0.37486 0.4841 0.93648 0.0
C843 C 0.38618 0.45581 0.92425 0.0
C844 C 0.38088 0.41878 0.92536 0.0
C845 C 0.36443 0.41053 0.93869 0.0
C846 C 0.38007 0.52391 0.93572 0.0
C847 C 0.39261 0.3879 0.91252 0.0
C848 C 0.42097 0.48405 0.86546 0.0
C849 C 0.43634 0.48532 0.88429 0.0
C850 C 0.4046 0.47404 0.87809 0.0
C851 C 0.40358 0.46507 0.91031 0.0
C852 C 0.41908 0.4658 0.92935 0.0
C853 C 0.43527 0.476 0.91613 0.0
C854 C 0.38835 0.47349 0.85704 0.0
C855 C 0.41852 0.45632 0.96381 0.0
H856 H 0.34987 0.49681 0.95903 0.0
H857 H 0.36042 0.38214 0.93957 0.0
H858 H 0.39279 0.52694 0.9487 0.0
H859 H 0.38231 0.53289 0.91122 0.0
H860 H 0.36973 0.54263 0.94615 0.0
H861 H 0.38653 0.36058 0.91511 0.0
H862 H 0.39521 0.39298 0.88736 0.0
H863 H 0.40572 0.38693 0.92478 0.0
H864 H 0.42169 0.49113 0.84082 0.0
H865 H 0.44705 0.47702 0.93088 0.0
H866 H 0.37802 0.49363 0.8654 0.0
H867 H 0.38248 0.44587 0.85788 0.0
H868 H 0.39148 0.4803 0.83234 0.0
H869 H 0.40942 0.4762 0.97591 0.0
H870 H 0.4319 0.45685 0.9751 0.0
H871 H 0.41314 0.4285 0.96723 0.0
C872 C 0.99883 0.0944 0.25512 0.0
C873 C 0.9944 0.13203 0.25825 0.0
C874 C 0.01103 0.07642 0.27574 0.0
C875 C 0.01933 0.09679 0.29951 0.0
C876 C 0.0147 0.13468 0.30304 0.0
C877 C 0.00214 0.15174 0.28259 0.0
C878 C 0.01533 0.03586 0.2716 0.0
C879 C 0.0235 0.15752 0.32772 0.0
C880 C 0.04313 0.04906 0.3685 0.0
C881 C 0.06096 0.04875 0.35878 0.0
C882 C 0.02936 0.06366 0.3491 0.0
C883 C 0.03357 0.0791 0.31962 0.0
C884 C 0.05154 0.07872 0.30967 0.0
C885 C 0.06497 0.06329 0.32924 0.0
C886 C 0.0103 0.06259 0.36013 0.0
C887 C 0.05664 0.09496 0.27846 0.0
H888 H 0.99279 0.07898 0.23647 0.0
H889 H 0.99884 0.18088 0.28502 0.0
H890 H 0.02924 0.03208 0.2634 0.0
H891 H 0.01434 0.02096 0.29427 0.0
H892 H 0.00633 0.02314 0.25433 0.0
H893 H 0.02165 0.14506 0.35122 0.0
H894 H 0.03807 0.15791 0.32346 0.0
H895 H 0.01808 0.18641 0.32794 0.0
H896 H 0.03989 0.03753 0.39115 0.0
H897 H 0.07869 0.06292 0.32141 0.0
H898 H 0.00198 0.04889 0.34244 0.0
H899 H 0.00472 0.09107 0.36283 0.0
H900 H 0.00916 0.0477 0.38282 0.0
H901 H 0.05033 0.07962 0.25926 0.0
H902 H 0.0713 0.09405 0.27487 0.0
H903 H 0.05166 0.12407 0.27661 0.0
C904 C 0.22921 0.2469 0.11566 0.0
C905 C 0.24117 0.25415 0.09152 0.0
C906 C 0.22403 0.21081 0.12201 0.0
C907 C 0.2306 0.18151 0.10321 0.0
C908 C 0.24234 0.18885 0.0783 0.0
C909 C 0.24769 0.22504 0.07304 0.0
C910 C 0.21182 0.20393 0.14924 0.0
C911 C 0.24928 0.15848 0.05726 0.0
C912 C 0.23183 0.08372 0.13571 0.0
C913 C 0.21614 0.06993 0.12309 0.0
C914 C 0.23655 0.12017 0.12978 0.0
C915 C 0.22556 0.14302 0.11007 0.0
C916 C 0.20981 0.12906 0.09692 0.0
C917 C 0.20515 0.09279 0.10395 0.0
C918 C 0.25322 0.13432 0.14484 0.0
C919 C 0.19799 0.1523 0.07516 0.0
H920 H 0.22423 0.26934 0.1301 0.0
H921 H 0.25683 0.23064 0.05418 0.0
H922 H 0.19953 0.19083 0.14098 0.0
H923 H 0.21853 0.18454 0.16617 0.0
H924 H 0.20795 0.22971 0.16166 0.0
H925 H 0.25755 0.1691 0.03792 0.0
H926 H 0.25748 0.13805 0.07107 0.0
H927 H 0.23797 0.14368 0.04702 0.0
H928 H 0.24027 0.06618 0.15072 0.0
H929 H 0.19307 0.08209 0.094 0.0
H930 H 0.24984 0.15919 0.1588 0.0
H931 H 0.26274 0.1426 0.12656 0.0
H932 H 0.25999 0.11339 0.16039 0.0
H933 H 0.19286 0.17723 0.08744 0.0
H934 H 0.18646 0.13701 0.06627 0.0
H935 H 0.20585 0.16181 0.05492 0.0
C936 C 0.72256 0.22583 0.83475 0.0
C937 C 0.73809 0.22989 0.81715 0.0
C938 C 0.72256 0.20289 0.86137 0.0
C939 C 0.73849 0.18357 0.87068 0.0
C940 C 0.75424 0.18764 0.85311 0.0
C941 C 0.75385 0.21073 0.82653 0.0
C942 C 0.70549 0.19925 0.8795 0.0
C943 C 0.77148 0.16757 0.86238 0.0
C944 C 0.74145 0.15123 0.95538 0.0
C945 C 0.73695 0.11416 0.953 0.0
C946 C 0.74235 0.17393 0.92872 0.0
C947 C 0.73862 0.15925 0.89892 0.0
C948 C 0.73444 0.12166 0.89625 0.0
C949 C 0.73368 0.09955 0.92332 0.0
C950 C 0.74693 0.21384 0.9325 0.0
C951 C 0.73041 0.10501 0.86485 0.0
H952 H 0.71032 0.24049 0.82767 0.0
H953 H 0.76591 0.2137 0.81308 0.0
H954 H 0.70171 0.16998 0.88024 0.0
H955 H 0.70751 0.20801 0.90403 0.0
H956 H 0.69423 0.21607 0.86914 0.0
H957 H 0.78257 0.17376 0.84628 0.0
H958 H 0.77541 0.17532 0.88644 0.0
H959 H 0.76963 0.13738 0.86255 0.0
H960 H 0.74408 0.16275 0.97819 0.0
H961 H 0.73021 0.07093 0.92124 0.0
H962 H 0.73552 0.23197 0.92459 0.0
H963 H 0.75849 0.22034 0.91764 0.0
H964 H 0.75019 0.2206 0.95714 0.0
H965 H 0.71838 0.11906 0.85437 0.0
H966 H 0.72805 0.07502 0.86663 0.0
H967 H 0.74163 0.10921 0.84858 0.0
C968 C 0.79821 0.23577 0.41199 0.0
C969 C 0.80015 0.26042 0.43676 0.0
C970 C 0.78344 0.21321 0.41016 0.0
C971 C 0.7703 0.2152 0.43374 0.0
C972 C 0.77272 0.23831 0.45982 0.0
C973 C 0.78762 0.26071 0.46101 0.0
C974 C 0.7814 0.18882 0.38202 0.0
C975 C 0.75911 0.24085 0.48562 0.0
C976 C 0.72355 0.19522 0.40576 0.0
C977 C 0.72198 0.15828 0.41488 0.0
C978 C 0.739 0.21431 0.41266 0.0
C979 C 0.75323 0.19612 0.42926 0.0
C980 C 0.75146 0.15926 0.43961 0.0
C981 C 0.73587 0.14072 0.43218 0.0
C982 C 0.74035 0.25361 0.40118 0.0
C983 C 0.76624 0.139 0.4576 0.0
H984 H 0.80788 0.23507 0.39327 0.0
H985 H 0.78906 0.27949 0.48035 0.0
H986 H 0.77854 0.1603 0.38951 0.0
H987 H 0.76992 0.19923 0.36753 0.0
H988 H 0.79351 0.18794 0.36721 0.0
H989 H 0.76402 0.25635 0.50605 0.0
H990 H 0.74674 0.25505 0.47661 0.0
H991 H 0.75551 0.21291 0.49357 0.0
H992 H 0.71287 0.20903 0.39246 0.0
H993 H 0.73476 0.11221 0.4394 0.0
H994 H 0.75128 0.25525 0.38392 0.0
H995 H 0.74366 0.27185 0.42091 0.0
H996 H 0.72778 0.26435 0.38994 0.0
H997 H 0.77784 0.134 0.44204 0.0
H998 H 0.76201 0.11203 0.46694 0.0
H999 H 0.77084 0.15593 0.47736 0.0
C1000 C 0.70461 0.85832 0.26411 0.0
C1001 C 0.69589 0.88787 0.24831 0.0
C1002 C 0.71665 0.83454 0.24868 0.0
C1003 C 0.72016 0.84045 0.21656 0.0
C1004 C 0.71119 0.86985 0.20022 0.0
C1005 C 0.69906 0.89317 0.21629 0.0
C1006 C 0.72586 0.80342 0.26701 0.0
C1007 C 0.71463 0.87706 0.166 0.0
C1008 C 0.76482 0.79645 0.19517 0.0
C1009 C 0.75979 0.76151 0.18533 0.0
C1010 C 0.75194 0.82379 0.20293 0.0
C1011 C 0.7336 0.81597 0.20082 0.0
C1012 C 0.72845 0.78196 0.18831 0.0
C1013 C 0.74162 0.75512 0.18069 0.0
C1014 C 0.758 0.85986 0.21588 0.0
C1015 C 0.70905 0.77265 0.18542 0.0
H1016 H 0.70219 0.85389 0.28881 0.0
H1017 H 0.69238 0.91598 0.20393 0.0
H1018 H 0.7233 0.77665 0.25581 0.0
H1019 H 0.7405 0.8069 0.26701 0.0
H1020 H 0.72132 0.80213 0.29166 0.0
H1021 H 0.70629 0.90058 0.15655 0.0
H1022 H 0.72888 0.88313 0.16259 0.0
H1023 H 0.71191 0.85212 0.1522 0.0
H1024 H 0.77883 0.80186 0.19846 0.0
H1025 H 0.73758 0.72839 0.17273 0.0
H1026 H 0.75587 0.8602 0.24154 0.0
H1027 H 0.75008 0.88341 0.20556 0.0
H1028 H 0.77237 0.86401 0.21139 0.0
H1029 H 0.7037 0.76687 0.20902 0.0
H1030 H 0.70719 0.74804 0.17065 0.0
H1031 H 0.70106 0.79622 0.17531 0.0
C1032 C 0.28479 0.84428 0.89824 0.0
C1033 C 0.28964 0.87432 0.91646 0.0
C1034 C 0.27724 0.81326 0.91185 0.0
C1035 C 0.27448 0.8121 0.94456 0.0
C1036 C 0.27955 0.84208 0.96322 0.0
C1037 C 0.28706 0.87289 0.94893 0.0
C1038 C 0.27202 0.78187 0.89112 0.0
C1039 C 0.27686 0.84172 0.99818 0.0
C1040 C 0.23919 0.74625 0.97059 0.0
C1041 C 0.24958 0.71464 0.97869 0.0
C1042 C 0.24716 0.77872 0.96068 0.0
C1043 C 0.26599 0.77963 0.95887 0.0
C1044 C 0.27658 0.74836 0.96833 0.0
C1045 C 0.26825 0.71622 0.97808 0.0
C1046 C 0.2354 0.81149 0.9508 0.0
C1047 C 0.29669 0.74833 0.96688 0.0
H1048 H 0.28674 0.84507 0.87315 0.0
H1049 H 0.29078 0.89596 0.96319 0.0
H1050 H 0.27897 0.75588 0.89897 0.0
H1051 H 0.25747 0.77774 0.89293 0.0
H1052 H 0.27528 0.78685 0.86616 0.0
H1053 H 0.28196 0.86673 0.00948 0.0
H1054 H 0.26245 0.83993 0.00345 0.0
H1055 H 0.28375 0.81704 0.00879 0.0
H1056 H 0.22476 0.74534 0.97108 0.0
H1057 H 0.27639 0.69198 0.98443 0.0
H1058 H 0.23675 0.81638 0.92527 0.0
H1059 H 0.23966 0.83671 0.9628 0.0
H1060 H 0.22111 0.80741 0.95599 0.0
H1061 H 0.30094 0.74992 0.94211 0.0
H1062 H 0.30302 0.72315 0.97776 0.0
H1063 H 0.30177 0.77286 0.97887 0.0
C1064 C 0.50615 0.8681 0.3649 0.0
C1065 C 0.50116 0.87497 0.39593 0.0
C1066 C 0.52323 0.87632 0.3542 0.0
C1067 C 0.53565 0.89162 0.37506 0.0
C1068 C 0.53062 0.89909 0.40628 0.0
C1069 C 0.51343 0.89075 0.41632 0.0
C1070 C 0.52808 0.86814 0.32069 0.0
C1071 C 0.5435 0.91532 0.42924 0.0
C1072 C 0.58504 0.87819 0.35766 0.0
C1073 C 0.58915 0.91264 0.345 0.0
C1074 C 0.56768 0.871 0.3675 0.0
C1075 C 0.55407 0.89888 0.36448 0.0
C1076 C 0.55809 0.93366 0.35159 0.0
C1077 C 0.5756 0.94015 0.34206 0.0
C1078 C 0.56392 0.8336 0.38124 0.0
C1079 C 0.54391 0.964 0.34789 0.0
H1080 H 0.49675 0.856 0.34897 0.0
H1081 H 0.50969 0.89615 0.44033 0.0
H1082 H 0.53263 0.89346 0.3089 0.0
H1083 H 0.53931 0.84743 0.32008 0.0
H1084 H 0.5167 0.85744 0.30715 0.0
H1085 H 0.53737 0.92035 0.45246 0.0
H1086 H 0.55532 0.89636 0.43243 0.0
H1087 H 0.54835 0.94177 0.41996 0.0
H1088 H 0.59543 0.85678 0.36005 0.0
H1089 H 0.57865 0.96682 0.33224 0.0
H1090 H 0.55342 0.8204 0.36728 0.0
H1091 H 0.5588 0.8367 0.40539 0.0
H1092 H 0.57598 0.81491 0.38194 0.0
H1093 H 0.53281 0.95444 0.33308 0.0
H1094 H 0.54917 0.98936 0.33713 0.0
H1095 H 0.53823 0.97109 0.37104 0.0
C1096 C 0.67946 0.64759 0.76097 0.0
C1097 C 0.69236 0.625 0.77645 0.0
C1098 C 0.66123 0.6406 0.76329 0.0
C1099 C 0.65576 0.6102 0.78138 0.0
C1100 C 0.66871 0.58688 0.79656 0.0
C1101 C 0.68685 0.59471 0.79408 0.0
C1102 C 0.64779 0.66592 0.74659 0.0
C1103 C 0.66341 0.55396 0.81577 0.0
C1104 C 0.60859 0.61443 0.81322 0.0
C1105 C 0.59959 0.59221 0.79207 0.0
C1106 C 0.6269 0.62025 0.81013 0.0
C1107 C 0.63643 0.60354 0.78522 0.0
C1108 C 0.62745 0.58095 0.76387 0.0
C1109 C 0.60916 0.57539 0.76769 0.0
C1110 C 0.63601 0.64453 0.83337 0.0
C1111 C 0.63709 0.56248 0.73705 0.0
H1112 H 0.68359 0.67101 0.74724 0.0
H1113 H 0.69668 0.57722 0.80626 0.0
H1114 H 0.63949 0.64982 0.73047 0.0
H1115 H 0.63867 0.67911 0.76383 0.0
H1116 H 0.65424 0.6879 0.73291 0.0
H1117 H 0.67516 0.53781 0.82517 0.0
H1118 H 0.65501 0.56325 0.83566 0.0
H1119 H 0.65529 0.53553 0.80133 0.0
H1120 H 0.60131 0.62749 0.83217 0.0
H1121 H 0.60236 0.55795 0.75142 0.0
H1122 H 0.64172 0.66837 0.82103 0.0
H1123 H 0.64724 0.62891 0.84499 0.0
H1124 H 0.62675 0.6551 0.85164 0.0
H1125 H 0.6455 0.58225 0.7245 0.0
H1126 H 0.62766 0.5507 0.72002 0.0
H1127 H 0.64605 0.53985 0.74627 0.0
C1128 C 0.89155 0.14235 0.06528 0.0
C1129 C 0.89555 0.15117 0.09638 0.0
C1130 C 0.87507 0.12787 0.05713 0.0
C1131 C 0.86225 0.12209 0.08065 0.0
C1132 C 0.86633 0.13018 0.11218 0.0
C1133 C 0.88294 0.14461 0.11969 0.0
C1134 C 0.87123 0.11947 0.02326 0.0
C1135 C 0.85301 0.12431 0.13791 0.0
C1136 C 0.81341 0.12152 0.05663 0.0
C1137 C 0.81021 0.08368 0.05655 0.0
C1138 C 0.83031 0.13436 0.06431 0.0
C1139 C 0.84436 0.10873 0.07209 0.0
C1140 C 0.84128 0.07049 0.07177 0.0
C1141 C 0.82424 0.05841 0.06401 0.0
C1142 C 0.83309 0.17537 0.06434 0.0
C1143 C 0.85595 0.04236 0.07986 0.0
H1144 H 0.90122 0.14722 0.04711 0.0
H1145 H 0.88592 0.15129 0.14378 0.0
H1146 H 0.86737 0.09039 0.0209 0.0
H1147 H 0.8598 0.13714 0.01469 0.0
H1148 H 0.88287 0.12414 0.00799 0.0
H1149 H 0.85848 0.13068 0.16139 0.0
H1150 H 0.84089 0.14212 0.13361 0.0
H1151 H 0.84879 0.09532 0.13801 0.0
H1152 H 0.80266 0.14124 0.05091 0.0
H1153 H 0.82188 0.02912 0.06402 0.0
H1154 H 0.8439 0.18219 0.04793 0.0
H1155 H 0.83733 0.18407 0.08799 0.0
H1156 H 0.82082 0.19163 0.05749 0.0
H1157 H 0.86742 0.04566 0.06395 0.0
H1158 H 0.85144 0.01362 0.07814 0.0
H1159 H 0.86086 0.04685 0.10402 0.0
C1160 C 0.90569 0.44281 0.55829 0.0
C1161 C 0.9054 0.43733 0.52588 0.0
C1162 C 0.9203 0.45893 0.5729 0.0
C1163 C 0.93465 0.47094 0.55449 0.0
C1164 C 0.93439 0.46543 0.52173 0.0
C1165 C 0.9199 0.44815 0.5079 0.0
C1166 C 0.92033 0.46333 0.60799 0.0
C1167 C 0.94918 0.47875 0.50115 0.0
C1168 C 0.96286 0.54761 0.58559 0.0
C1169 C 0.97886 0.52844 0.59339 0.0
C1170 C 0.94834 0.52919 0.57307 0.0
C1171 C 0.94965 0.49048 0.56919 0.0
C1172 C 0.96556 0.4708 0.57813 0.0
C1173 C 0.9801 0.49011 0.58963 0.0
C1174 C 0.93181 0.55134 0.56303 0.0
C1175 C 0.96729 0.4294 0.57523 0.0
H1176 H 0.89453 0.43423 0.57225 0.0
H1177 H 0.91964 0.44424 0.48279 0.0
H1178 H 0.93284 0.451 0.6182 0.0
H1179 H 0.91987 0.49302 0.61393 0.0
H1180 H 0.9088 0.45016 0.61914 0.0
H1181 H 0.94692 0.47248 0.47607 0.0
H1182 H 0.95028 0.509 0.50358 0.0
H1183 H 0.96215 0.46577 0.50861 0.0
H1184 H 0.96192 0.57729 0.58823 0.0
H1185 H 0.99242 0.47521 0.59586 0.0
H1186 H 0.91996 0.54124 0.5754 0.0
H1187 H 0.92943 0.54776 0.5376 0.0
H1188 H 0.93289 0.58123 0.56776 0.0
H1189 H 0.95597 0.41634 0.58708 0.0
H1190 H 0.97998 0.41795 0.58552 0.0
H1191 H 0.96672 0.42164 0.55023 0.0
C1192 C 0.57691 0.09094 0.20322 0.0
C1193 C 0.59388 0.1058 0.20582 0.0
C1194 C 0.56494 0.10278 0.17943 0.0
C1195 C 0.57008 0.1301 0.15776 0.0
C1196 C 0.58729 0.14472 0.15994 0.0
C1197 C 0.59897 0.13241 0.18392 0.0
C1198 C 0.54671 0.08651 0.17778 0.0
C1199 C 0.59328 0.17386 0.13724 0.0
C1200 C 0.54625 0.14432 0.07959 0.0
C1201 C 0.53562 0.17615 0.08521 0.0
C1202 C 0.55712 0.12827 0.10329 0.0
C1203 C 0.55734 0.1444 0.13331 0.0
C1204 C 0.54614 0.17568 0.13944 0.0
C1205 C 0.53543 0.19117 0.11532 0.0
C1206 C 0.56883 0.09483 0.0959 0.0
C1207 C 0.54595 0.19359 0.17118 0.0
H1208 H 0.57287 0.07033 0.21999 0.0
H1209 H 0.61206 0.14398 0.18566 0.0
H1210 H 0.53627 0.10847 0.18137 0.0
H1211 H 0.54442 0.07485 0.15426 0.0
H1212 H 0.54503 0.06448 0.19563 0.0
H1213 H 0.60728 0.18161 0.14159 0.0
H1214 H 0.59217 0.16385 0.11289 0.0
H1215 H 0.58448 0.19896 0.13908 0.0
H1216 H 0.54644 0.13245 0.05642 0.0
H1217 H 0.52719 0.21563 0.11995 0.0
H1218 H 0.56681 0.07258 0.11335 0.0
H1219 H 0.58306 0.10207 0.09732 0.0
H1220 H 0.56614 0.08401 0.07217 0.0
H1221 H 0.54338 0.17285 0.18969 0.0
H1222 H 0.53567 0.2163 0.17272 0.0
H1223 H 0.5592 0.20496 0.17618 0.0
C1224 C 0.96455 0.53511 0.12324 0.0
C1225 C 0.97378 0.5417 0.09545 0.0
C1226 C 0.9478 0.55212 0.12873 0.0
C1227 C 0.94009 0.5765 0.10593 0.0
C1228 C 0.94929 0.58322 0.07777 0.0
C1229 C 0.96601 0.56565 0.07281 0.0
C1230 C 0.93836 0.54407 0.15901 0.0
C1231 C 0.94151 0.60914 0.05299 0.0
C1232 C 0.88998 0.59357 0.11192 0.0
C1233 C 0.88894 0.62622 0.12922 0.0
C1234 C 0.90654 0.57772 0.10321 0.0
C1235 C 0.92243 0.59503 0.11188 0.0
C1236 C 0.92144 0.62884 0.12812 0.0
C1237 C 0.90471 0.64399 0.13666 0.0
C1238 C 0.90704 0.54162 0.08591 0.0
C1239 C 0.93809 0.6483 0.13755 0.0
H1240 H 0.97042 0.51656 0.14081 0.0
H1241 H 0.97306 0.57094 0.05128 0.0
H1242 H 0.93607 0.56996 0.17221 0.0
H1243 H 0.92509 0.53277 0.15401 0.0
H1244 H 0.94606 0.52407 0.17413 0.0
H1245 H 0.9503 0.61122 0.03228 0.0
H1246 H 0.92832 0.59967 0.04516 0.0
H1247 H 0.93933 0.63708 0.06288 0.0
H1248 H 0.87787 0.57966 0.10603 0.0
H1249 H 0.90404 0.66931 0.14991 0.0
H1250 H 0.91325 0.51964 0.10104 0.0
H1251 H 0.91536 0.5437 0.06466 0.0
H1252 H 0.89351 0.53313 0.07886 0.0
H1253 H 0.94574 0.63125 0.15505 0.0
H1254 H 0.93502 0.67578 0.14783 0.0
H1255 H 0.94684 0.65192 0.11702 0.0
C1256 C 0.9248 0.9332 0.40689 0.0
C1257 C 0.9412 0.95032 0.4098 0.0
C1258 C 0.90932 0.94828 0.42066 0.0
C1259 C 0.91022 0.98129 0.43789 0.0
C1260 C 0.92662 0.99927 0.44029 0.0
C1261 C 0.94193 0.9836 0.42614 0.0
C1262 C 0.89205 0.92839 0.41733 0.0
C1263 C 0.92807 0.03452 0.45844 0.0
C1264 C 0.86534 0.02978 0.45157 0.0
C1265 C 0.86079 0.01576 0.48106 0.0
C1266 C 0.88178 0.02023 0.43782 0.0
C1267 C 0.89399 0.99613 0.45396 0.0
C1268 C 0.88989 0.98347 0.48444 0.0
C1269 C 0.87334 0.99342 0.49762 0.0
C1270 C 0.88568 0.03443 0.40534 0.0
C1271 C 0.90262 0.95792 0.5025 0.0
H1272 H 0.92408 0.90759 0.39419 0.0
H1273 H 0.95455 0.99698 0.42854 0.0
H1274 H 0.88739 0.91957 0.44072 0.0
H1275 H 0.88154 0.94723 0.4071 0.0
H1276 H 0.89348 0.90368 0.4023 0.0
H1277 H 0.94155 0.04611 0.45671 0.0
H1278 H 0.91805 0.05548 0.44978 0.0
H1279 H 0.92517 0.02926 0.48346 0.0
H1280 H 0.85579 0.04727 0.43865 0.0
H1281 H 0.87 0.98264 0.52049 0.0
H1282 H 0.88561 0.01126 0.3886 0.0
H1283 H 0.89914 0.04612 0.40458 0.0
H1284 H 0.8757 0.05589 0.39732 0.0
H1285 H 0.90365 0.93084 0.49071 0.0
H1286 H 0.89823 0.95339 0.52696 0.0
H1287 H 0.91618 0.96921 0.50297 0.0
C1288 C 0.63744 0.49064 0.67918 0.0
C1289 C 0.64211 0.46503 0.7029 0.0
C1290 C 0.61975 0.4948 0.66827 0.0
C1291 C 0.60648 0.47249 0.68113 0.0
C1292 C 0.611 0.44751 0.70581 0.0
C1293 C 0.62873 0.4442 0.71648 0.0
C1294 C 0.61538 0.52224 0.64233 0.0
C1295 C 0.59725 0.42321 0.72015 0.0
C1296 C 0.55706 0.49537 0.66827 0.0
C1297 C 0.55288 0.4714 0.64393 0.0
C1298 C 0.57455 0.49675 0.68011 0.0
C1299 C 0.58813 0.47337 0.66752 0.0
C1300 C 0.58405 0.44954 0.64264 0.0
C1301 C 0.5665 0.44896 0.63106 0.0
C1302 C 0.57844 0.52289 0.70632 0.0
C1303 C 0.59815 0.42404 0.62867 0.0
H1304 H 0.64765 0.50707 0.66871 0.0
H1305 H 0.63218 0.42445 0.73492 0.0
H1306 H 0.61165 0.50736 0.62083 0.0
H1307 H 0.60376 0.54028 0.6488 0.0
H1308 H 0.6268 0.53983 0.63689 0.0
H1309 H 0.60272 0.40658 0.7402 0.0
H1310 H 0.58565 0.4402 0.72834 0.0
H1311 H 0.59224 0.40415 0.70222 0.0
H1312 H 0.54664 0.51298 0.67821 0.0
H1313 H 0.5634 0.43037 0.61225 0.0
H1314 H 0.58929 0.54122 0.69942 0.0
H1315 H 0.58312 0.50708 0.72734 0.0
H1316 H 0.56654 0.54024 0.71272 0.0
H1317 H 0.60948 0.44013 0.62015 0.0
H1318 H 0.59291 0.40788 0.60889 0.0
H1319 H 0.60349 0.40455 0.64688 0.0
C1320 C 0.78134 0.93724 0.64953 0.0
C1321 C 0.79647 0.95035 0.6346 0.0
C1322 C 0.78232 0.90457 0.66744 0.0
C1323 C 0.79894 0.88525 0.67125 0.0
C1324 C 0.81434 0.89884 0.65672 0.0
C1325 C 0.81286 0.93093 0.63815 0.0
C1326 C 0.76552 0.89039 0.68181 0.0
C1327 C 0.8324 0.87959 0.66091 0.0
C1328 C 0.8054 0.81918 0.74026 0.0
C1329 C 0.80493 0.78488 0.72556 0.0
C1330 C 0.80337 0.85213 0.7229 0.0
C1331 C 0.80027 0.85064 0.69022 0.0
C1332 C 0.79909 0.81602 0.67548 0.0
C1333 C 0.80172 0.78353 0.69326 0.0
C1334 C 0.80517 0.88846 0.73934 0.0
C1335 C 0.79528 0.8133 0.64086 0.0
H1336 H 0.76862 0.95206 0.64657 0.0
H1337 H 0.82459 0.94117 0.62678 0.0
H1338 H 0.76316 0.86218 0.67329 0.0
H1339 H 0.76703 0.8885 0.70761 0.0
H1340 H 0.75359 0.90833 0.67616 0.0
H1341 H 0.84317 0.89465 0.64921 0.0
H1342 H 0.8357 0.87671 0.68619 0.0
H1343 H 0.83214 0.8514 0.65118 0.0
H1344 H 0.80804 0.82029 0.7652 0.0
H1345 H 0.80124 0.75701 0.68189 0.0
H1346 H 0.79304 0.9063 0.73538 0.0
H1347 H 0.8166 0.90323 0.72949 0.0
H1348 H 0.80732 0.88488 0.76494 0.0
H1349 H 0.78309 0.83006 0.63458 0.0
H1350 H 0.79341 0.78442 0.63347 0.0
H1351 H 0.80647 0.82455 0.62739 0.0
C1352 C 0.12487 0.82392 0.54095 0.0
C1353 C 0.11404 0.8239 0.51406 0.0
C1354 C 0.13076 0.79082 0.55547 0.0
C1355 C 0.12576 0.75676 0.54279 0.0
C1356 C 0.11435 0.75653 0.51622 0.0
C1357 C 0.10855 0.79013 0.50228 0.0
C1358 C 0.14283 0.7923 0.58385 0.0
C1359 C 0.10838 0.72092 0.50225 0.0
C1360 C 0.15813 0.6766 0.56144 0.0
C1361 C 0.14991 0.65991 0.58704 0.0
C1362 C 0.15003 0.70726 0.54605 0.0
C1363 C 0.13334 0.72167 0.55651 0.0
C1364 C 0.12461 0.70398 0.58143 0.0
C1365 C 0.133 0.67333 0.59641 0.0
C1366 C 0.15958 0.72491 0.5191 0.0
C1367 C 0.10669 0.7182 0.59294 0.0
H1368 H 0.12912 0.84986 0.55032 0.0
H1369 H 0.10003 0.78986 0.48169 0.0
H1370 H 0.13723 0.77624 0.60345 0.0
H1371 H 0.1561 0.77954 0.57836 0.0
H1372 H 0.14473 0.82096 0.59178 0.0
H1373 H 0.10297 0.72512 0.47818 0.0
H1374 H 0.11953 0.70003 0.50147 0.0
H1375 H 0.09774 0.70954 0.51701 0.0
H1376 H 0.17111 0.66627 0.55385 0.0
H1377 H 0.12646 0.66044 0.616 0.0
H1378 H 0.16318 0.7533 0.52543 0.0
H1379 H 0.15064 0.72711 0.49831 0.0
H1380 H 0.17195 0.70913 0.51262 0.0
H1381 H 0.10796 0.74628 0.60255 0.0
H1382 H 0.10122 0.70015 0.61141 0.0
H1383 H 0.097 0.72037 0.57322 0.0
C1384 C 0.23554 0.38624 0.62688 0.0
C1385 C 0.24616 0.38935 0.65384 0.0
C1386 C 0.23829 0.35662 0.60626 0.0
C1387 C 0.25177 0.32935 0.61309 0.0
C1388 C 0.2629 0.33314 0.63967 0.0
C1389 C 0.26003 0.36317 0.65954 0.0
C1390 C 0.2264 0.35385 0.5778 0.0
C1391 C 0.27738 0.3046 0.64795 0.0
C1392 C 0.2488 0.22941 0.59036 0.0
C1393 C 0.26264 0.22573 0.5686 0.0
C1394 C 0.24422 0.26369 0.60344 0.0
C1395 C 0.25356 0.29519 0.59424 0.0
C1396 C 0.26643 0.29227 0.57024 0.0
C1397 C 0.27091 0.25748 0.5578 0.0
C1398 C 0.23043 0.26554 0.62901 0.0
C1399 C 0.27637 0.32537 0.55927 0.0
H1400 H 0.22487 0.40652 0.62219 0.0
H1401 H 0.26837 0.36538 0.68022 0.0
H1402 H 0.23448 0.34774 0.55672 0.0
H1403 H 0.21724 0.3308 0.58105 0.0
H1404 H 0.21825 0.37959 0.57351 0.0
H1405 H 0.2853 0.31236 0.66879 0.0
H1406 H 0.27132 0.2777 0.65283 0.0
H1407 H 0.28659 0.30062 0.62799 0.0
H1408 H 0.24219 0.20513 0.59863 0.0
H1409 H 0.28147 0.25498 0.54069 0.0
H1410 H 0.22074 0.28886 0.62476 0.0
H1411 H 0.23713 0.27038 0.65177 0.0
H1412 H 0.22299 0.23969 0.63096 0.0
H1413 H 0.26713 0.34969 0.55611 0.0
H1414 H 0.28342 0.32005 0.53691 0.0
H1415 H 0.28641 0.33246 0.57722 0.0
loop_
_geom_bond_atom_site_label_1
_geom_bond_atom_site_label_2
_geom_bond_distance
_geom_bond_site_symmetry_2
_ccdc_geom_bond_type
O0 Cd1 2.300 1_554 S
O0 C7 1.275 . S
Cd1 O0 2.300 1_556 S
Cd1 O9 2.381 . S
Cd1 O10 2.378 . S
O2 Cd3 2.385 1_454 S
O2 C7 1.255 . S
Cd3 O2 2.385 1_656 S
Cd3 O4 2.317 . S
O4 Cd3 2.317 . S
O4 C5 1.232 1_556 S
C5 O4 1.232 1_554 S
C5 O6 1.218 . S
O6 C5 1.218 . S
C7 O0 1.275 . S
C7 O2 1.255 . S
C8 O9 1.258 . S
C8 O10 1.256 . S
O9 Cd1 2.381 . S
O9 C8 1.258 . S
O10 Cd1 2.378 . S
O10 C8 1.256 . S
O11 Cd12 2.300 . S
O11 C18 1.275 . S
Cd12 O11 2.300 . S
Cd12 O20 2.381 . S
Cd12 O21 2.378 . S
O13 Cd14 2.385 . S
O13 C18 1.255 1_655 S
Cd14 O13 2.385 . S
Cd14 O15 2.317 . S
O15 Cd14 2.317 . S
O15 C16 1.232 . S
C16 O15 1.232 . S
C16 O17 1.218 . S
O17 C16 1.218 . S
C18 O11 1.275 . S
C18 O13 1.255 1_455 S
C19 O20 1.258 . S
C19 O21 1.256 . S
O20 Cd12 2.381 . S
O20 C19 1.258 . S
O21 Cd12 2.378 . S
O21 C19 1.256 . S
O22 Cd23 2.300 . S
O22 C29 1.275 . S
Cd23 O22 2.300 . S
Cd23 O31 2.381 . S
Cd23 O32 2.378 . S
O24 Cd25 2.385 . S
O24 C29 1.255 . S
Cd25 O24 2.385 . S
Cd25 O26 2.317 . S
O26 Cd25 2.317 . S
O26 C27 1.232 . S
C27 O26 1.232 . S
C27 O28 1.218 . S
O28 C27 1.218 . S
C29 O22 1.275 . S
C29 O24 1.255 . S
C30 O31 1.258 . S
C30 O32 1.256 . S
O31 Cd23 2.381 . S
O31 C30 1.258 . S
O32 Cd23 2.378 . S
O32 C30 1.256 . S
O33 Cd34 2.300 . S
O33 C40 1.275 . S
Cd34 O33 2.300 . S
Cd34 O42 2.381 . S
Cd34 O43 2.378 . S
O35 Cd36 2.385 . S
O35 C40 1.255 . S
Cd36 O35 2.385 . S
Cd36 O37 2.317 1_556 S
O37 Cd36 2.317 1_554 S
O37 C38 1.232 . S
C38 O37 1.232 . S
C38 O39 1.218 . S
O39 C38 1.218 . S
C40 O33 1.275 . S
C40 O35 1.255 . S
C41 O42 1.258 . S
C41 O43 1.256 . S
O42 Cd34 2.381 . S
O42 C41 1.258 . S
O43 Cd34 2.378 . S
O43 C41 1.256 . S
O44 Cd45 2.300 . S
O44 C51 1.275 1_655 S
Cd45 O44 2.300 . S
Cd45 O53 2.381 . S
Cd45 O54 2.378 . S
O46 Cd47 2.385 . S
O46 C51 1.255 . S
Cd47 O46 2.385 . S
Cd47 O48 2.317 . S
O48 Cd47 2.317 . S
O48 C49 1.232 . S
C49 O48 1.232 . S
C49 O50 1.218 . S
O50 C49 1.218 . S
C51 O44 1.275 1_455 S
C51 O46 1.255 . S
C52 O53 1.258 . S
C52 O54 1.256 . S
O53 Cd45 2.381 . S
O53 C52 1.258 . S
O54 Cd45 2.378 . S
O54 C52 1.256 . S
O55 Cd56 2.300 . S
O55 C62 1.275 . S
Cd56 O55 2.300 . S
Cd56 O64 2.381 . S
Cd56 O65 2.378 . S
O57 Cd58 2.385 . S
O57 C62 1.255 . S
Cd58 O57 2.385 . S
Cd58 O59 2.317 . S
O59 Cd58 2.317 . S
O59 C60 1.232 . S
C60 O59 1.232 . S
C60 O61 1.218 . S
O61 C60 1.218 . S
C62 O55 1.275 . S
C62 O57 1.255 . S
C63 O64 1.258 . S
C63 O65 1.256 . S
O64 Cd56 2.381 . S
O64 C63 1.258 . S
O65 Cd56 2.378 . S
O65 C63 1.256 . S
O66 Cd67 2.300 1_554 S
O66 C73 1.276 . S
Cd67 O66 2.300 1_556 S
Cd67 O75 2.381 . S
Cd67 O76 2.378 . S
O68 Cd69 2.385 . S
O68 C73 1.252 1_556 S
Cd69 O68 2.385 . S
Cd69 O70 2.317 . S
O70 Cd69 2.317 . S
O70 C71 1.232 . S
C71 O70 1.232 . S
C71 O72 1.218 . S
O72 C71 1.218 . S
C73 O66 1.276 . S
C73 O68 1.252 1_554 S
C74 O75 1.258 . S
C74 O76 1.256 . S
O75 Cd67 2.381 . S
O75 C74 1.258 . S
O76 Cd67 2.378 . S
O76 C74 1.256 . S
O77 Cd78 2.300 . S
O77 C84 1.275 . S
Cd78 O77 2.300 . S
Cd78 O86 2.381 . S
Cd78 O87 2.378 . S
O79 Cd80 2.385 . S
O79 C84 1.255 1_655 S
Cd80 O79 2.385 . S
Cd80 O81 2.317 . S
O81 Cd80 2.317 . S
O81 C82 1.232 . S
C82 O81 1.232 . S
C82 O83 1.218 . S
O83 C82 1.218 . S
C84 O77 1.275 . S
C84 O79 1.255 1_455 S
C85 O86 1.258 . S
C85 O87 1.256 . S
O86 Cd78 2.381 . S
O86 C85 1.258 . S
O87 Cd78 2.378 . S
O87 C85 1.256 . S
O88 Cd89 2.300 . S
O88 C95 1.275 1_565 S
Cd89 O88 2.300 . S
Cd89 O97 2.381 . S
Cd89 O98 2.378 . S
O90 Cd91 2.385 . S
O90 C95 1.255 . S
Cd91 O90 2.385 . S
Cd91 O92 2.317 . S
O92 Cd91 2.317 . S
O92 C93 1.232 . S
C93 O92 1.232 . S
C93 O94 1.218 . S
O94 C93 1.218 . S
C95 O88 1.275 1_545 S
C95 O90 1.255 . S
C96 O97 1.258 . S
C96 O98 1.256 . S
O97 Cd89 2.381 . S
O97 C96 1.258 . S
O98 Cd89 2.378 . S
O98 C96 1.256 . S
O99 Cd100 2.300 . S
O99 C106 1.275 . S
Cd100 O99 2.300 . S
Cd100 O108 2.381 . S
Cd100 O109 2.378 . S
O101 Cd102 2.385 . S
O101 C106 1.255 . S
Cd102 O101 2.385 . S
Cd102 O103 2.317 . S
O103 Cd102 2.317 . S
O103 C104 1.232 . S
C104 O103 1.232 . S
C104 O105 1.218 . S
O105 C104 1.218 . S
C106 O99 1.275 . S
C106 O101 1.255 . S
C107 O108 1.258 . S
C107 O109 1.256 . S
O108 Cd100 2.381 . S
O108 C107 1.258 . S
O109 Cd100 2.378 . S
O109 C107 1.256 . S
O110 Cd111 2.300 . S
O110 C117 1.275 . S
Cd111 O110 2.300 . S
Cd111 O119 2.381 . S
Cd111 O120 2.378 . S
O112 Cd113 2.385 . S
O112 C117 1.255 . S
Cd113 O112 2.385 . S
Cd113 O114 2.317 1_565 S
O114 Cd113 2.317 1_545 S
O114 C115 1.232 . S
C115 O114 1.232 . S
C115 O116 1.218 . S
O116 C115 1.218 . S
C117 O110 1.275 . S
C117 O112 1.255 . S
C118 O119 1.258 . S
C118 O120 1.256 . S
O119 Cd111 2.381 . S
O119 C118 1.258 . S
O120 Cd111 2.378 . S
O120 C118 1.256 . S
O121 Cd122 2.300 1_556 S
O121 C128 1.275 . S
Cd122 O121 2.300 1_554 S
Cd122 O130 2.381 . S
Cd122 O131 2.378 . S
O123 Cd124 2.385 . S
O123 C128 1.255 . S
Cd124 O123 2.385 . S
Cd124 O125 2.317 . S
O125 Cd124 2.317 . S
O125 C126 1.232 . S
C126 O125 1.232 . S
C126 O127 1.218 . S
O127 C126 1.218 . S
C128 O121 1.275 . S
C128 O123 1.255 . S
C129 O130 1.258 . S
C129 O131 1.256 . S
O130 Cd122 2.381 . S
O130 C129 1.258 . S
O131 Cd122 2.378 . S
O131 C129 1.256 . S
O132 Cd133 2.300 . S
O132 C139 1.275 . S
Cd133 O132 2.300 . S
Cd133 O141 2.381 1_565 S
Cd133 O142 2.378 1_565 S
O134 Cd135 2.385 . S
O134 C139 1.255 . S
Cd135 O134 2.385 . S
Cd135 O136 2.317 . S
O136 Cd135 2.317 . S
O136 C137 1.232 . S
C137 O136 1.232 . S
C137 O138 1.218 . S
O138 C137 1.218 . S
C139 O132 1.275 . S
C139 O134 1.255 . S
C140 O141 1.258 . S
C140 O142 1.256 . S
O141 Cd133 2.381 1_545 S
O141 C140 1.258 . S
O142 Cd133 2.378 1_545 S
O142 C140 1.256 . S
O143 Cd144 2.300 . S
O143 C150 1.275 . S
Cd144 O143 2.300 . S
Cd144 O152 2.381 . S
Cd144 O153 2.378 . S
O145 Cd146 2.385 . S
O145 C150 1.255 . S
Cd146 O145 2.385 . S
Cd146 O147 2.317 . S
O147 Cd146 2.317 . S
O147 C148 1.232 . S
C148 O147 1.232 . S
C148 O149 1.218 . S
O149 C148 1.218 . S
C150 O143 1.275 . S
C150 O145 1.255 . S
C151 O152 1.258 . S
C151 O153 1.256 . S
O152 Cd144 2.381 . S
O152 C151 1.258 . S
O153 Cd144 2.378 . S
O153 C151 1.256 . S
O154 Cd155 2.300 . S
O154 C161 1.275 . S
Cd155 O154 2.300 . S
Cd155 O163 2.381 . S
Cd155 O164 2.378 . S
O156 Cd157 2.385 . S
O156 C161 1.255 . S
Cd157 O156 2.385 . S
Cd157 O158 2.317 1_545 S
O158 Cd157 2.317 1_565 S
O158 C159 1.232 . S
C159 O158 1.232 . S
C159 O160 1.218 . S
O160 C159 1.218 . S
C161 O154 1.275 . S
C161 O156 1.255 . S
C162 O163 1.258 . S
C162 O164 1.256 . S
O163 Cd155 2.381 . S
O163 C162 1.258 . S
O164 Cd155 2.378 . S
O164 C162 1.256 . S
O165 Cd166 2.300 . S
O165 C172 1.275 . S
Cd166 O165 2.300 . S
Cd166 O174 2.381 . S
Cd166 O175 2.378 . S
O167 Cd168 2.385 . S
O167 C172 1.255 . S
Cd168 O167 2.385 . S
Cd168 O169 2.317 . S
O169 Cd168 2.317 . S
O169 C170 1.232 . S
C170 O169 1.232 . S
C170 O171 1.218 . S
O171 C170 1.218 . S
C172 O165 1.275 . S
C172 O167 1.255 . S
C173 O174 1.258 . S
C173 O175 1.256 . S
O174 Cd166 2.381 . S
O174 C173 1.258 . S
O175 Cd166 2.378 . S
O175 C173 1.256 . S
O176 Cd177 2.300 . S
O176 C183 1.275 . S
Cd177 O176 2.300 . S
Cd177 O185 2.381 . S
Cd177 O186 2.375 1_554 S
O178 Cd179 2.385 1_554 S
O178 C183 1.255 . S
Cd179 O178 2.385 1_556 S
Cd179 O180 2.317 . S
O180 Cd179 2.317 . S
O180 C181 1.232 . S
C181 O180 1.232 . S
C181 O182 1.218 . S
O182 C181 1.218 . S
C183 O176 1.275 . S
C183 O178 1.255 . S
C184 O185 1.258 . S
C184 O186 1.243 1_554 S
O185 Cd177 2.381 . S
O185 C184 1.258 . S
O186 Cd177 2.375 1_556 S
O186 C184 1.243 1_556 S
O187 Cd188 2.300 . S
O187 C194 1.275 . S
Cd188 O187 2.300 . S
Cd188 O196 2.381 . S
Cd188 O197 2.378 . S
O189 Cd190 2.385 . S
O189 C194 1.255 . S
Cd190 O189 2.385 . S
Cd190 O191 2.317 . S
O191 Cd190 2.317 . S
O191 C192 1.232 . S
C192 O191 1.232 . S
C192 O193 1.218 . S
O193 C192 1.218 . S
C194 O187 1.275 . S
C194 O189 1.255 . S
C195 O196 1.258 . S
C195 O197 1.256 . S
O196 Cd188 2.381 . S
O196 C195 1.258 . S
O197 Cd188 2.378 . S
O197 C195 1.256 . S
O198 Cd199 2.300 . S
O198 C205 1.275 . S
Cd199 O198 2.300 . S
Cd199 O207 2.381 . S
Cd199 O208 2.378 . S
O200 Cd201 2.385 . S
O200 C205 1.255 . S
Cd201 O200 2.385 . S
Cd201 O202 2.317 . S
O202 Cd201 2.317 . S
O202 C203 1.232 . S
C203 O202 1.232 . S
C203 O204 1.218 . S
O204 C203 1.218 . S
C205 O198 1.275 . S
C205 O200 1.255 . S
C206 O207 1.258 . S
C206 O208 1.256 . S
O207 Cd199 2.381 . S
O207 C206 1.258 . S
O208 Cd199 2.378 . S
O208 C206 1.256 . S
O209 Cd210 2.300 . S
O209 C216 1.275 . S
Cd210 O209 2.300 . S
Cd210 O218 2.381 . S
Cd210 O219 2.378 . S
O211 Cd212 2.385 . S
O211 C216 1.255 . S
Cd212 O211 2.385 . S
Cd212 O213 2.317 . S
O213 Cd212 2.317 . S
O213 C214 1.232 . S
C214 O213 1.232 . S
C214 O215 1.218 . S
O215 C214 1.218 . S
C216 O209 1.275 . S
C216 O211 1.255 . S
C217 O218 1.258 . S
C217 O219 1.256 . S
O218 Cd210 2.381 . S
O218 C217 1.258 . S
O219 Cd210 2.378 . S
O219 C217 1.256 . S
O220 Cd221 2.300 . S
O220 C227 1.275 . S
Cd221 O220 2.300 . S
Cd221 O229 2.381 . S
Cd221 O230 2.378 . S
O222 Cd223 2.385 . S
O222 C227 1.255 . S
Cd223 O222 2.385 . S
Cd223 O224 2.317 . S
O224 Cd223 2.317 . S
O224 C225 1.232 . S
C225 O224 1.232 . S
C225 O226 1.218 . S
O226 C225 1.218 . S
C227 O220 1.275 . S
C227 O222 1.255 . S
C228 O229 1.258 . S
C228 O230 1.256 . S
O229 Cd221 2.381 . S
O229 C228 1.258 . S
O230 Cd221 2.378 . S
O230 C228 1.256 . S
O231 Cd232 2.300 . S
O231 C238 1.275 . S
Cd232 O231 2.300 . S
Cd232 O240 2.381 . S
Cd232 O241 2.378 . S
O233 Cd234 2.385 . S
O233 C238 1.255 . S
Cd234 O233 2.385 . S
Cd234 O235 2.317 . S
O235 Cd234 2.317 . S
O235 C236 1.232 . S
C236 O235 1.232 . S
C236 O237 1.218 . S
O237 C236 1.218 . S
C238 O231 1.275 . S
C238 O233 1.255 . S
C239 O240 1.258 . S
C239 O241 1.256 . S
O240 Cd232 2.381 . S
O240 C239 1.258 . S
O241 Cd232 2.378 . S
O241 C239 1.256 . S
O242 Cd243 2.300 1_545 S
O242 C249 1.275 . S
Cd243 O242 2.300 1_565 S
Cd243 O251 2.381 . S
Cd243 O252 2.378 . S
O244 Cd245 2.385 . S
O244 C249 1.255 1_565 S
Cd245 O244 2.385 . S
Cd245 O246 2.317 . S
O246 Cd245 2.317 . S
O246 C247 1.232 1_565 S
C247 O246 1.232 1_545 S
C247 O248 1.214 1_545 S
O248 C247 1.214 1_565 S
C249 O242 1.275 . S
C249 O244 1.255 1_545 S
C250 O251 1.258 . S
C250 O252 1.256 . S
O251 Cd243 2.381 . S
O251 C250 1.258 . S
O252 Cd243 2.378 . S
O252 C250 1.256 . S
O253 Cd254 2.300 . S
O253 C260 1.275 . S
Cd254 O253 2.300 . S
Cd254 O262 2.381 . S
Cd254 O263 2.378 . S
O255 Cd256 2.385 . S
O255 C260 1.255 . S
Cd256 O255 2.385 . S
Cd256 O257 2.317 . S
O257 Cd256 2.317 . S
O257 C258 1.232 . S
C258 O257 1.232 . S
C258 O259 1.218 . S
O259 C258 1.218 . S
C260 O253 1.275 . S
C260 O255 1.255 . S
C261 O262 1.258 . S
C261 O263 1.256 . S
O262 Cd254 2.381 . S
O262 C261 1.258 . S
O263 Cd254 2.378 . S
O263 C261 1.256 . S
C264 C265 1.391 1_655 S
C264 C266 1.394 . S
C264 H280 0.931 . S
C265 C264 1.391 1_455 S
C265 C269 1.376 . S
C266 C264 1.394 . S
C266 C267 1.369 1_655 S
C266 C270 1.531 . S
C267 C266 1.369 1_455 S
C267 C268 1.410 . S
C267 C275 1.503 . S
C268 C267 1.410 . S
C268 C269 1.392 . S
C268 C271 1.511 . S
C269 C265 1.376 . S
C269 C268 1.392 . S
C269 H281 0.929 . S
C270 C266 1.531 . S
C270 H282 0.960 . S
C270 H283 0.962 . S
C270 H284 0.960 . S
C271 C268 1.511 . S
C271 H285 0.961 . S
C271 H286 0.961 . S
C271 H287 0.961 . S
C272 C273 1.370 . S
C272 C274 1.363 . S
C272 H288 0.931 . S
C273 C272 1.370 . S
C273 C277 1.408 . S
C274 C272 1.363 . S
C274 C275 1.370 . S
C274 C278 1.524 . S
C275 C267 1.503 . S
C275 C274 1.370 . S
C275 C276 1.403 . S
C276 C275 1.403 . S
C276 C277 1.404 . S
C276 C279 1.537 . S
C277 C273 1.408 . S
C277 C276 1.404 . S
C277 H289 0.930 . S
C278 C274 1.524 . S
C278 H290 0.956 . S
C278 H291 0.961 . S
C278 H292 0.961 . S
C279 C276 1.537 . S
C279 H293 0.964 1_455 S
C279 H294 0.959 . S
C279 H295 0.958 . S
H280 C264 0.931 . S
H281 C269 0.929 . S
H282 C270 0.960 . S
H283 C270 0.962 . S
H284 C270 0.960 . S
H285 C271 0.961 . S
H286 C271 0.961 . S
H287 C271 0.961 . S
H288 C272 0.931 . S
H289 C277 0.930 . S
H290 C278 0.956 . S
H291 C278 0.961 . S
H292 C278 0.961 . S
H293 C279 0.964 1_655 S
H294 C279 0.959 . S
H295 C279 0.958 . S
C296 C297 1.391 1_655 S
C296 C298 1.394 . S
C296 H312 0.931 . S
C297 C296 1.391 1_455 S
C297 C301 1.376 . S
C298 C296 1.394 . S
C298 C299 1.369 1_655 S
C298 C302 1.531 . S
C299 C298 1.369 1_455 S
C299 C300 1.410 . S
C299 C307 1.503 . S
C300 C299 1.410 . S
C300 C301 1.392 . S
C300 C303 1.511 . S
C301 C297 1.376 . S
C301 C300 1.392 . S
C301 H313 0.929 . S
C302 C298 1.531 . S
C302 H314 0.960 . S
C302 H315 0.962 . S
C302 H316 0.960 . S
C303 C300 1.511 . S
C303 H317 0.961 . S
C303 H318 0.961 . S
C303 H319 0.961 . S
C304 C305 1.370 . S
C304 C306 1.363 . S
C304 H320 0.932 . S
C305 C304 1.370 . S
C305 C309 1.408 . S
C306 C304 1.363 . S
C306 C307 1.370 . S
C306 C310 1.524 . S
C307 C299 1.503 . S
C307 C306 1.370 . S
C307 C308 1.403 . S
C308 C307 1.403 . S
C308 C309 1.404 . S
C308 C311 1.539 . S
C309 C305 1.408 . S
C309 C308 1.404 . S
C309 H321 0.930 . S
C310 C306 1.524 . S
C310 H322 0.956 1_455 S
C310 H323 0.961 . S
C310 H324 0.961 . S
C311 C308 1.539 . S
C311 H325 0.958 1_455 S
C311 H326 0.961 . S
C311 H327 0.960 . S
H312 C296 0.931 . S
H313 C301 0.929 . S
H314 C302 0.960 . S
H315 C302 0.962 . S
H316 C302 0.960 . S
H317 C303 0.961 . S
H318 C303 0.961 . S
H319 C303 0.961 . S
H320 C304 0.932 . S
H321 C309 0.930 . S
H322 C310 0.956 1_655 S
H323 C310 0.961 . S
H324 C310 0.961 . S
H325 C311 0.958 1_655 S
H326 C311 0.961 . S
H327 C311 0.960 . S
C328 C329 1.391 . S
C328 C330 1.394 . S
C328 H344 0.931 . S
C329 C328 1.391 . S
C329 C333 1.376 . S
C330 C328 1.394 . S
C330 C331 1.369 . S
C330 C334 1.531 . S
C331 C330 1.369 . S
C331 C332 1.410 . S
C331 C339 1.503 . S
C332 C331 1.410 . S
C332 C333 1.392 . S
C332 C335 1.511 . S
C333 C329 1.376 . S
C333 C332 1.392 . S
C333 H345 0.929 . S
C334 C330 1.531 . S
C334 H346 0.960 . S
C334 H347 0.962 . S
C334 H348 0.960 . S
C335 C332 1.511 . S
C335 H349 0.961 . S
C335 H350 0.961 . S
C335 H351 0.961 . S
C336 C337 1.370 . S
C336 C338 1.363 . S
C336 H352 0.931 . S
C337 C336 1.370 . S
C337 C341 1.408 . S
C338 C336 1.363 . S
C338 C339 1.370 . S
C338 C342 1.524 . S
C339 C331 1.503 . S
C339 C338 1.370 . S
C339 C340 1.403 . S
C340 C339 1.403 . S
C340 C341 1.404 . S
C340 C343 1.539 . S
C341 C337 1.408 . S
C341 C340 1.404 . S
C341 H353 0.930 . S
C342 C338 1.524 . S
C342 H354 0.956 . S
C342 H355 0.961 . S
C342 H356 0.961 . S
C343 C340 1.539 . S
C343 H357 0.958 . S
C343 H358 0.961 . S
C343 H359 0.960 . S
H344 C328 0.931 . S
H345 C333 0.929 . S
H346 C334 0.960 . S
H347 C334 0.962 . S
H348 C334 0.960 . S
H349 C335 0.961 . S
H350 C335 0.961 . S
H351 C335 0.961 . S
H352 C336 0.931 . S
H353 C341 0.930 . S
H354 C342 0.956 . S
H355 C342 0.961 . S
H356 C342 0.961 . S
H357 C343 0.958 . S
H358 C343 0.961 . S
H359 C343 0.960 . S
C360 C361 1.391 1_556 S
C360 C362 1.394 . S
C360 H376 0.931 . S
C361 C360 1.391 1_554 S
C361 C365 1.376 . S
C362 C360 1.394 . S
C362 C363 1.369 1_556 S
C362 C366 1.531 . S
C363 C362 1.369 1_554 S
C363 C364 1.410 . S
C363 C371 1.503 1_554 S
C364 C363 1.410 . S
C364 C365 1.392 . S
C364 C367 1.511 . S
C365 C361 1.376 . S
C365 C364 1.392 . S
C365 H377 0.929 . S
C366 C362 1.531 . S
C366 H378 0.960 . S
C366 H379 0.962 . S
C366 H380 0.960 . S
C367 C364 1.511 . S
C367 H381 0.961 . S
C367 H382 0.961 . S
C367 H383 0.961 . S
C368 C369 1.370 . S
C368 C370 1.363 . S
C368 H384 0.931 . S
C369 C368 1.370 . S
C369 C373 1.408 1_556 S
C370 C368 1.363 . S
C370 C371 1.370 . S
C370 C374 1.524 . S
C371 C363 1.503 1_556 S
C371 C370 1.370 . S
C371 C372 1.403 1_556 S
C372 C371 1.403 1_554 S
C372 C373 1.404 . S
C372 C375 1.539 . S
C373 C369 1.408 1_554 S
C373 C372 1.404 . S
C373 H385 0.930 . S
C374 C370 1.524 . S
C374 H386 0.956 . S
C374 H387 0.961 . S
C374 H388 0.961 . S
C375 C372 1.539 . S
C375 H389 0.958 . S
C375 H390 0.961 . S
C375 H391 0.960 . S
H376 C360 0.931 . S
H377 C365 0.929 . S
H378 C366 0.960 . S
H379 C366 0.962 . S
H380 C366 0.960 . S
H381 C367 0.961 . S
H382 C367 0.961 . S
H383 C367 0.961 . S
H384 C368 0.931 . S
H385 C373 0.930 . S
H386 C374 0.956 . S
H387 C374 0.961 . S
H388 C374 0.961 . S
H389 C375 0.958 . S
H390 C375 0.961 . S
H391 C375 0.960 . S
C392 C393 1.391 . S
C392 C394 1.394 . S
C392 H408 0.931 . S
C393 C392 1.391 . S
C393 C397 1.376 . S
C394 C392 1.394 . S
C394 C395 1.369 . S
C394 C398 1.531 . S
C395 C394 1.369 . S
C395 C396 1.410 . S
C395 C403 1.503 1_545 S
C396 C395 1.410 . S
C396 C397 1.392 . S
C396 C399 1.511 1_545 S
C397 C393 1.376 . S
C397 C396 1.392 . S
C397 H409 0.929 . S
C398 C394 1.531 . S
C398 H410 0.960 . S
C398 H411 0.962 . S
C398 H412 0.960 . S
C399 C396 1.511 1_565 S
C399 H413 0.961 . S
C399 H414 0.961 . S
C399 H415 0.961 . S
C400 C401 1.370 . S
C400 C402 1.363 . S
C400 H416 0.931 . S
C401 C400 1.370 . S
C401 C405 1.408 . S
C402 C400 1.363 . S
C402 C403 1.370 . S
C402 C406 1.524 . S
C403 C395 1.503 1_565 S
C403 C402 1.370 . S
C403 C404 1.403 1_565 S
C404 C403 1.403 1_545 S
C404 C405 1.404 1_545 S
C404 C407 1.539 . S
C405 C401 1.408 . S
C405 C404 1.404 1_565 S
C405 H417 0.930 1_565 S
C406 C402 1.524 . S
C406 H418 0.956 . S
C406 H419 0.961 . S
C406 H420 0.961 . S
C407 C404 1.539 . S
C407 H421 0.958 . S
C407 H422 0.961 . S
C407 H423 0.960 . S
H408 C392 0.931 . S
H409 C397 0.929 . S
H410 C398 0.960 . S
H411 C398 0.962 . S
H412 C398 0.960 . S
H413 C399 0.961 . S
H414 C399 0.961 . S
H415 C399 0.961 . S
H416 C400 0.931 . S
H417 C405 0.930 1_545 S
H418 C406 0.956 . S
H419 C406 0.961 . S
H420 C406 0.961 . S
H421 C407 0.958 . S
H422 C407 0.961 . S
H423 C407 0.960 . S
C424 C425 1.391 . S
C424 C426 1.394 . S
C424 H440 0.931 . S
C425 C424 1.391 . S
C425 C429 1.376 . S
C426 C424 1.394 . S
C426 C427 1.369 . S
C426 C430 1.531 . S
C427 C426 1.369 . S
C427 C428 1.410 . S
C427 C435 1.503 . S
C428 C427 1.410 . S
C428 C429 1.392 . S
C428 C431 1.511 . S
C429 C425 1.376 . S
C429 C428 1.392 . S
C429 H441 0.929 . S
C430 C426 1.531 . S
C430 H442 0.960 . S
C430 H443 0.962 . S
C430 H444 0.960 . S
C431 C428 1.511 . S
C431 H445 0.961 . S
C431 H446 0.961 . S
C431 H447 0.961 . S
C432 C433 1.370 . S
C432 C434 1.363 . S
C432 H448 0.931 . S
C433 C432 1.370 . S
C433 C437 1.408 . S
C434 C432 1.363 . S
C434 C435 1.370 . S
C434 C438 1.524 . S
C435 C427 1.503 . S
C435 C434 1.370 . S
C435 C436 1.403 . S
C436 C435 1.403 . S
C436 C437 1.404 . S
C436 C439 1.539 . S
C437 C433 1.408 . S
C437 C436 1.404 . S
C437 H449 0.930 . S
C438 C434 1.524 . S
C438 H450 0.956 . S
C438 H451 0.961 . S
C438 H452 0.961 . S
C439 C436 1.539 . S
C439 H453 0.958 . S
C439 H454 0.961 . S
C439 H455 0.960 . S
H440 C424 0.931 . S
H441 C429 0.929 . S
H442 C430 0.960 . S
H443 C430 0.962 . S
H444 C430 0.960 . S
H445 C431 0.961 . S
H446 C431 0.961 . S
H447 C431 0.961 . S
H448 C432 0.931 . S
H449 C437 0.930 . S
H450 C438 0.956 . S
H451 C438 0.961 . S
H452 C438 0.961 . S
H453 C439 0.958 . S
H454 C439 0.961 . S
H455 C439 0.960 . S
C456 C457 1.391 1_545 S
C456 C458 1.394 . S
C456 H472 0.931 . S
C457 C456 1.391 1_565 S
C457 C461 1.376 . S
C458 C456 1.394 . S
C458 C459 1.369 1_545 S
C458 C462 1.531 . S
C459 C458 1.369 1_565 S
C459 C460 1.410 . S
C459 C467 1.503 1_565 S
C460 C459 1.410 . S
C460 C461 1.392 . S
C460 C463 1.511 . S
C461 C457 1.376 . S
C461 C460 1.392 . S
C461 H473 0.929 . S
C462 C458 1.531 . S
C462 H474 0.960 . S
C462 H475 0.962 . S
C462 H476 0.960 . S
C463 C460 1.511 . S
C463 H477 0.961 . S
C463 H478 0.961 . S
C463 H479 0.961 . S
C464 C465 1.370 . S
C464 C466 1.363 1_545 S
C464 H480 0.931 1_545 S
C465 C464 1.370 . S
C465 C469 1.408 . S
C466 C464 1.363 1_565 S
C466 C467 1.370 1_565 S
C466 C470 1.524 . S
C467 C459 1.503 1_545 S
C467 C466 1.370 1_545 S
C467 C468 1.403 . S
C468 C467 1.403 . S
C468 C469 1.404 . S
C468 C471 1.539 . S
C469 C465 1.408 . S
C469 C468 1.404 . S
C469 H481 0.930 . S
C470 C466 1.524 . S
C470 H482 0.956 . S
C470 H483 0.961 . S
C470 H484 0.961 . S
C471 C468 1.539 . S
C471 H485 0.958 . S
C471 H486 0.961 . S
C471 H487 0.960 . S
H472 C456 0.931 . S
H473 C461 0.929 . S
H474 C462 0.960 . S
H475 C462 0.962 . S
H476 C462 0.960 . S
H477 C463 0.961 . S
H478 C463 0.961 . S
H479 C463 0.961 . S
H480 C464 0.931 1_565 S
H481 C469 0.930 . S
H482 C470 0.956 . S
H483 C470 0.961 . S
H484 C470 0.961 . S
H485 C471 0.958 . S
H486 C471 0.961 . S
H487 C471 0.960 . S
C488 C489 1.391 . S
C488 C490 1.394 . S
C488 H504 0.931 . S
C489 C488 1.391 . S
C489 C493 1.376 . S
C490 C488 1.394 . S
C490 C491 1.369 . S
C490 C494 1.531 . S
C491 C490 1.369 . S
C491 C492 1.410 . S
C491 C499 1.503 . S
C492 C491 1.410 . S
C492 C493 1.392 . S
C492 C495 1.511 . S
C493 C489 1.376 . S
C493 C492 1.392 . S
C493 H505 0.929 . S
C494 C490 1.531 . S
C494 H506 0.960 . S
C494 H507 0.962 . S
C494 H508 0.960 . S
C495 C492 1.511 . S
C495 H509 0.961 . S
C495 H510 0.961 . S
C495 H511 0.961 . S
C496 C497 1.370 . S
C496 C498 1.363 . S
C496 H512 0.931 . S
C497 C496 1.370 . S
C497 C501 1.408 . S
C498 C496 1.363 . S
C498 C499 1.370 . S
C498 C502 1.524 . S
C499 C491 1.503 . S
C499 C498 1.370 . S
C499 C500 1.403 . S
C500 C499 1.403 . S
C500 C501 1.404 . S
C500 C503 1.539 . S
C501 C497 1.408 . S
C501 C500 1.404 . S
C501 H513 0.930 . S
C502 C498 1.524 . S
C502 H514 0.956 . S
C502 H515 0.961 . S
C502 H516 0.961 . S
C503 C500 1.539 . S
C503 H517 0.958 . S
C503 H518 0.961 . S
C503 H519 0.960 . S
H504 C488 0.931 . S
H505 C493 0.929 . S
H506 C494 0.960 . S
H507 C494 0.962 . S
H508 C494 0.960 . S
H509 C495 0.961 . S
H510 C495 0.961 . S
H511 C495 0.961 . S
H512 C496 0.931 . S
H513 C501 0.930 . S
H514 C502 0.956 . S
H515 C502 0.961 . S
H516 C502 0.961 . S
H517 C503 0.958 . S
H518 C503 0.961 . S
H519 C503 0.960 . S
C520 C521 1.391 . S
C520 C522 1.394 . S
C520 H536 0.931 . S
C521 C520 1.391 . S
C521 C525 1.376 . S
C522 C520 1.394 . S
C522 C523 1.369 . S
C522 C526 1.531 . S
C523 C522 1.369 . S
C523 C524 1.410 . S
C523 C531 1.503 . S
C524 C523 1.410 . S
C524 C525 1.392 . S
C524 C527 1.511 . S
C525 C521 1.376 . S
C525 C524 1.392 . S
C525 H537 0.929 . S
C526 C522 1.531 . S
C526 H538 0.960 . S
C526 H539 0.962 . S
C526 H540 0.960 . S
C527 C524 1.511 . S
C527 H541 0.961 . S
C527 H542 0.961 . S
C527 H543 0.961 . S
C528 C529 1.370 . S
C528 C530 1.363 . S
C528 H544 0.931 . S
C529 C528 1.370 . S
C529 C533 1.408 . S
C530 C528 1.363 . S
C530 C531 1.370 . S
C530 C534 1.524 . S
C531 C523 1.503 . S
C531 C530 1.370 . S
C531 C532 1.403 . S
C532 C531 1.403 . S
C532 C533 1.404 . S
C532 C535 1.539 . S
C533 C529 1.408 . S
C533 C532 1.404 . S
C533 H545 0.930 . S
C534 C530 1.524 . S
C534 H546 0.956 . S
C534 H547 0.961 . S
C534 H548 0.961 . S
C535 C532 1.539 . S
C535 H549 0.958 . S
C535 H550 0.961 . S
C535 H551 0.960 . S
H536 C520 0.931 . S
H537 C525 0.929 . S
H538 C526 0.960 . S
H539 C526 0.962 . S
H540 C526 0.960 . S
H541 C527 0.961 . S
H542 C527 0.961 . S
H543 C527 0.961 . S
H544 C528 0.931 . S
H545 C533 0.930 . S
H546 C534 0.956 . S
H547 C534 0.961 . S
H548 C534 0.961 . S
H549 C535 0.958 . S
H550 C535 0.961 . S
H551 C535 0.960 . S
C552 C553 1.391 . S
C552 C554 1.394 . S
C552 H568 0.931 . S
C553 C552 1.391 . S
C553 C557 1.376 . S
C554 C552 1.394 . S
C554 C555 1.369 . S
C554 C558 1.531 . S
C555 C554 1.369 . S
C555 C556 1.410 . S
C555 C563 1.503 . S
C556 C555 1.410 . S
C556 C557 1.392 . S
C556 C559 1.511 . S
C557 C553 1.376 . S
C557 C556 1.392 . S
C557 H569 0.929 . S
C558 C554 1.531 . S
C558 H570 0.960 . S
C558 H571 0.962 . S
C558 H572 0.960 . S
C559 C556 1.511 . S
C559 H573 0.961 . S
C559 H574 0.961 . S
C559 H575 0.961 . S
C560 C561 1.370 . S
C560 C562 1.363 . S
C560 H576 0.931 . S
C561 C560 1.370 . S
C561 C565 1.408 . S
C562 C560 1.363 . S
C562 C563 1.370 . S
C562 C566 1.524 . S
C563 C555 1.503 . S
C563 C562 1.370 . S
C563 C564 1.403 . S
C564 C563 1.403 . S
C564 C565 1.404 . S
C564 C567 1.539 . S
C565 C561 1.408 . S
C565 C564 1.404 . S
C565 H577 0.930 . S
C566 C562 1.524 . S
C566 H578 0.956 . S
C566 H579 0.961 . S
C566 H580 0.961 . S
C567 C564 1.539 . S
C567 H581 0.958 . S
C567 H582 0.961 . S
C567 H583 0.960 . S
H568 C552 0.931 . S
H569 C557 0.929 . S
H570 C558 0.960 . S
H571 C558 0.962 . S
H572 C558 0.960 . S
H573 C559 0.961 . S
H574 C559 0.961 . S
H575 C559 0.961 . S
H576 C560 0.931 . S
H577 C565 0.930 . S
H578 C566 0.956 . S
H579 C566 0.961 . S
H580 C566 0.961 . S
H581 C567 0.958 . S
H582 C567 0.961 . S
H583 C567 0.960 . S
C584 C585 1.391 . S
C584 C586 1.394 . S
C584 H600 0.931 . S
C585 C584 1.391 . S
C585 C589 1.376 1_565 S
C586 C584 1.394 . S
C586 C587 1.369 . S
C586 C590 1.531 . S
C587 C586 1.369 . S
C587 C588 1.410 1_565 S
C587 C595 1.498 1_565 S
C588 C587 1.410 1_545 S
C588 C589 1.392 . S
C588 C591 1.511 . S
C589 C585 1.376 1_545 S
C589 C588 1.392 . S
C589 H601 0.929 . S
C590 C586 1.531 . S
C590 H602 0.960 . S
C590 H603 0.962 . S
C590 H604 0.960 . S
C591 C588 1.511 . S
C591 H605 0.961 . S
C591 H606 0.961 . S
C591 H607 0.961 . S
C592 C593 1.370 . S
C592 C594 1.363 . S
C592 H608 0.931 . S
C593 C592 1.370 . S
C593 C597 1.408 1_545 S
C594 C592 1.363 . S
C594 C595 1.383 . S
C594 C598 1.524 . S
C595 C587 1.498 1_545 S
C595 C594 1.383 . S
C595 C596 1.396 1_545 S
C596 C595 1.396 1_565 S
C596 C597 1.404 . S
C596 C599 1.539 . S
C597 C593 1.408 1_565 S
C597 C596 1.404 . S
C597 H609 0.930 . S
C598 C594 1.524 . S
C598 H610 0.956 . S
C598 H611 0.961 . S
C598 H612 0.961 . S
C599 C596 1.539 . S
C599 H613 0.958 . S
C599 H614 0.961 . S
C599 H615 0.960 . S
H600 C584 0.931 . S
H601 C589 0.929 . S
H602 C590 0.960 . S
H603 C590 0.962 . S
H604 C590 0.960 . S
H605 C591 0.961 . S
H606 C591 0.961 . S
H607 C591 0.961 . S
H608 C592 0.931 . S
H609 C597 0.930 . S
H610 C598 0.956 . S
H611 C598 0.961 . S
H612 C598 0.961 . S
H613 C599 0.958 . S
H614 C599 0.961 . S
H615 C599 0.960 . S
C616 C617 1.391 . S
C616 C618 1.394 . S
C616 H632 0.931 . S
C617 C616 1.391 . S
C617 C621 1.376 . S
C618 C616 1.394 . S
C618 C619 1.369 . S
C618 C622 1.531 . S
C619 C618 1.369 . S
C619 C620 1.410 . S
C619 C627 1.503 . S
C620 C619 1.410 . S
C620 C621 1.392 . S
C620 C623 1.511 . S
C621 C617 1.376 . S
C621 C620 1.392 . S
C621 H633 0.929 . S
C622 C618 1.531 . S
C622 H634 0.960 . S
C622 H635 0.962 . S
C622 H636 0.960 . S
C623 C620 1.511 . S
C623 H637 0.961 . S
C623 H638 0.961 . S
C623 H639 0.961 . S
C624 C625 1.370 . S
C624 C626 1.363 . S
C624 H640 0.931 . S
C625 C624 1.370 . S
C625 C629 1.408 . S
C626 C624 1.363 . S
C626 C627 1.370 . S
C626 C630 1.524 . S
C627 C619 1.503 . S
C627 C626 1.370 . S
C627 C628 1.403 . S
C628 C627 1.403 . S
C628 C629 1.404 . S
C628 C631 1.539 . S
C629 C625 1.408 . S
C629 C628 1.404 . S
C629 H641 0.930 . S
C630 C626 1.524 . S
C630 H642 0.956 . S
C630 H643 0.961 . S
C630 H644 0.961 . S
C631 C628 1.539 . S
C631 H645 0.958 . S
C631 H646 0.961 . S
C631 H647 0.960 . S
H632 C616 0.931 . S
H633 C621 0.929 . S
H634 C622 0.960 . S
H635 C622 0.962 . S
H636 C622 0.960 . S
H637 C623 0.961 . S
H638 C623 0.961 . S
H639 C623 0.961 . S
H640 C624 0.931 . S
H641 C629 0.930 . S
H642 C630 0.956 . S
H643 C630 0.961 . S
H644 C630 0.961 . S
H645 C631 0.958 . S
H646 C631 0.961 . S
H647 C631 0.960 . S
C648 C649 1.391 . S
C648 C650 1.394 . S
C648 H664 0.931 . S
C649 C648 1.391 . S
C649 C653 1.376 . S
C650 C648 1.394 . S
C650 C651 1.369 . S
C650 C654 1.531 . S
C651 C650 1.369 . S
C651 C652 1.410 . S
C651 C659 1.503 . S
C652 C651 1.410 . S
C652 C653 1.392 . S
C652 C655 1.511 . S
C653 C649 1.376 . S
C653 C652 1.392 . S
C653 H665 0.929 . S
C654 C650 1.531 . S
C654 H666 0.960 . S
C654 H667 0.962 . S
C654 H668 0.960 . S
C655 C652 1.511 . S
C655 H669 0.961 . S
C655 H670 0.961 . S
C655 H671 0.961 . S
C656 C657 1.370 . S
C656 C658 1.363 . S
C656 H672 0.931 . S
C657 C656 1.370 . S
C657 C661 1.408 . S
C658 C656 1.363 . S
C658 C659 1.370 . S
C658 C662 1.524 . S
C659 C651 1.503 . S
C659 C658 1.370 . S
C659 C660 1.403 . S
C660 C659 1.403 . S
C660 C661 1.404 . S
C660 C663 1.539 . S
C661 C657 1.408 . S
C661 C660 1.404 . S
C661 H673 0.930 . S
C662 C658 1.524 . S
C662 H674 0.956 . S
C662 H675 0.961 . S
C662 H676 0.961 . S
C663 C660 1.539 . S
C663 H677 0.958 . S
C663 H678 0.961 . S
C663 H679 0.960 . S
H664 C648 0.931 . S
H665 C653 0.929 . S
H666 C654 0.960 . S
H667 C654 0.962 . S
H668 C654 0.960 . S
H669 C655 0.961 . S
H670 C655 0.961 . S
H671 C655 0.961 . S
H672 C656 0.931 . S
H673 C661 0.930 . S
H674 C662 0.956 . S
H675 C662 0.961 . S
H676 C662 0.961 . S
H677 C663 0.958 . S
H678 C663 0.961 . S
H679 C663 0.960 . S
C680 C681 1.391 . S
C680 C682 1.394 . S
C680 H696 0.931 . S
C681 C680 1.391 . S
C681 C685 1.376 . S
C682 C680 1.394 . S
C682 C683 1.369 . S
C682 C686 1.531 . S
C683 C682 1.369 . S
C683 C684 1.410 . S
C683 C691 1.503 . S
C684 C683 1.410 . S
C684 C685 1.392 . S
C684 C687 1.511 . S
C685 C681 1.376 . S
C685 C684 1.392 . S
C685 H697 0.929 . S
C686 C682 1.531 . S
C686 H698 0.960 1_565 S
C686 H699 0.962 . S
C686 H700 0.960 1_565 S
C687 C684 1.511 . S
C687 H701 0.961 . S
C687 H702 0.961 . S
C687 H703 0.961 1_565 S
C688 C689 1.370 . S
C688 C690 1.363 . S
C688 H704 0.931 . S
C689 C688 1.370 . S
C689 C693 1.408 1_565 S
C690 C688 1.363 . S
C690 C691 1.370 . S
C690 C694 1.524 . S
C691 C683 1.503 . S
C691 C690 1.370 . S
C691 C692 1.403 1_565 S
C692 C691 1.403 1_545 S
C692 C693 1.404 . S
C692 C695 1.539 . S
C693 C689 1.408 1_545 S
C693 C692 1.404 . S
C693 H705 0.930 . S
C694 C690 1.524 . S
C694 H706 0.956 . S
C694 H707 0.961 . S
C694 H708 0.961 . S
C695 C692 1.539 . S
C695 H709 0.958 . S
C695 H710 0.961 . S
C695 H711 0.960 . S
H696 C680 0.931 . S
H697 C685 0.929 . S
H698 C686 0.960 1_545 S
H699 C686 0.962 . S
H700 C686 0.960 1_545 S
H701 C687 0.961 . S
H702 C687 0.961 . S
H703 C687 0.961 1_545 S
H704 C688 0.931 . S
H705 C693 0.930 . S
H706 C694 0.956 . S
H707 C694 0.961 . S
H708 C694 0.961 . S
H709 C695 0.958 . S
H710 C695 0.961 . S
H711 C695 0.960 . S
C712 C713 1.391 . S
C712 C714 1.394 . S
C712 H728 0.931 . S
C713 C712 1.391 . S
C713 C717 1.376 . S
C714 C712 1.394 . S
C714 C715 1.369 . S
C714 C718 1.531 . S
C715 C714 1.369 . S
C715 C716 1.410 . S
C715 C723 1.503 . S
C716 C715 1.410 . S
C716 C717 1.392 . S
C716 C719 1.511 . S
C717 C713 1.376 . S
C717 C716 1.392 . S
C717 H729 0.929 . S
C718 C714 1.531 . S
C718 H730 0.960 . S
C718 H731 0.962 . S
C718 H732 0.960 . S
C719 C716 1.511 . S
C719 H733 0.961 . S
C719 H734 0.961 . S
C719 H735 0.961 . S
C720 C721 1.370 . S
C720 C722 1.363 . S
C720 H736 0.931 . S
C721 C720 1.370 . S
C721 C725 1.408 . S
C722 C720 1.363 . S
C722 C723 1.370 . S
C722 C726 1.524 . S
C723 C715 1.503 . S
C723 C722 1.370 . S
C723 C724 1.403 . S
C724 C723 1.403 . S
C724 C725 1.404 . S
C724 C727 1.539 . S
C725 C721 1.408 . S
C725 C724 1.404 . S
C725 H737 0.930 . S
C726 C722 1.524 . S
C726 H738 0.956 . S
C726 H739 0.961 . S
C726 H740 0.961 . S
C727 C724 1.539 . S
C727 H741 0.958 . S
C727 H742 0.961 . S
C727 H743 0.960 . S
H728 C712 0.931 . S
H729 C717 0.929 . S
H730 C718 0.960 . S
H731 C718 0.962 . S
H732 C718 0.960 . S
H733 C719 0.961 . S
H734 C719 0.961 . S
H735 C719 0.961 . S
H736 C720 0.931 . S
H737 C725 0.930 . S
H738 C726 0.956 . S
H739 C726 0.961 . S
H740 C726 0.961 . S
H741 C727 0.958 . S
H742 C727 0.961 . S
H743 C727 0.960 . S
C744 C745 1.391 . S
C744 C746 1.394 . S
C744 H760 0.931 . S
C745 C744 1.391 . S
C745 C749 1.376 . S
C746 C744 1.394 . S
C746 C747 1.369 . S
C746 C750 1.531 . S
C747 C746 1.369 . S
C747 C748 1.410 . S
C747 C755 1.503 . S
C748 C747 1.410 . S
C748 C749 1.392 . S
C748 C751 1.511 1_556 S
C749 C745 1.376 . S
C749 C748 1.392 . S
C749 H761 0.929 1_556 S
C750 C746 1.531 . S
C750 H762 0.960 . S
C750 H763 0.962 . S
C750 H764 0.960 . S
C751 C748 1.511 1_554 S
C751 H765 0.961 . S
C751 H766 0.961 . S
C751 H767 0.961 . S
C752 C753 1.370 . S
C752 C754 1.363 . S
C752 H768 0.931 . S
C753 C752 1.370 . S
C753 C757 1.408 . S
C754 C752 1.363 . S
C754 C755 1.370 . S
C754 C758 1.524 . S
C755 C747 1.503 . S
C755 C754 1.370 . S
C755 C756 1.403 . S
C756 C755 1.403 . S
C756 C757 1.404 . S
C756 C759 1.539 . S
C757 C753 1.408 . S
C757 C756 1.404 . S
C757 H769 0.930 . S
C758 C754 1.524 . S
C758 H770 0.956 . S
C758 H771 0.961 . S
C758 H772 0.961 . S
C759 C756 1.539 . S
C759 H773 0.958 . S
C759 H774 0.961 . S
C759 H775 0.960 . S
H760 C744 0.931 . S
H761 C749 0.929 1_554 S
H762 C750 0.960 . S
H763 C750 0.962 . S
H764 C750 0.960 . S
H765 C751 0.961 . S
H766 C751 0.961 . S
H767 C751 0.961 . S
H768 C752 0.931 . S
H769 C757 0.930 . S
H770 C758 0.956 . S
H771 C758 0.961 . S
H772 C758 0.961 . S
H773 C759 0.958 . S
H774 C759 0.961 . S
H775 C759 0.960 . S
C776 C777 1.391 . S
C776 C778 1.394 . S
C776 H792 0.931 . S
C777 C776 1.391 . S
C777 C781 1.376 . S
C778 C776 1.394 . S
C778 C779 1.369 . S
C778 C782 1.531 . S
C779 C778 1.369 . S
C779 C780 1.410 . S
C779 C787 1.503 . S
C780 C779 1.410 . S
C780 C781 1.392 . S
C780 C783 1.511 . S
C781 C777 1.376 . S
C781 C780 1.392 . S
C781 H793 0.929 . S
C782 C778 1.531 . S
C782 H794 0.960 . S
C782 H795 0.962 . S
C782 H796 0.960 . S
C783 C780 1.511 . S
C783 H797 0.961 . S
C783 H798 0.961 . S
C783 H799 0.961 . S
C784 C785 1.370 . S
C784 C786 1.363 . S
C784 H800 0.931 . S
C785 C784 1.370 . S
C785 C789 1.408 . S
C786 C784 1.363 . S
C786 C787 1.370 . S
C786 C790 1.524 . S
C787 C779 1.503 . S
C787 C786 1.370 . S
C787 C788 1.403 . S
C788 C787 1.403 . S
C788 C789 1.404 . S
C788 C791 1.539 . S
C789 C785 1.408 . S
C789 C788 1.404 . S
C789 H801 0.930 . S
C790 C786 1.524 . S
C790 H802 0.956 . S
C790 H803 0.961 . S
C790 H804 0.961 . S
C791 C788 1.539 . S
C791 H805 0.958 . S
C791 H806 0.961 . S
C791 H807 0.960 . S
H792 C776 0.931 . S
H793 C781 0.929 . S
H794 C782 0.960 . S
H795 C782 0.962 . S
H796 C782 0.960 . S
H797 C783 0.961 . S
H798 C783 0.961 . S
H799 C783 0.961 . S
H800 C784 0.931 . S
H801 C789 0.930 . S
H802 C790 0.956 . S
H803 C790 0.961 . S
H804 C790 0.961 . S
H805 C791 0.958 . S
H806 C791 0.961 . S
H807 C791 0.960 . S
C808 C809 1.391 . S
C808 C810 1.394 . S
C808 H824 0.931 . S
C809 C808 1.391 . S
C809 C813 1.376 . S
C810 C808 1.394 . S
C810 C811 1.369 . S
C810 C814 1.531 . S
C811 C810 1.369 . S
C811 C812 1.410 . S
C811 C819 1.503 . S
C812 C811 1.410 . S
C812 C813 1.392 . S
C812 C815 1.511 . S
C813 C809 1.376 . S
C813 C812 1.392 . S
C813 H825 0.929 . S
C814 C810 1.531 . S
C814 H826 0.960 . S
C814 H827 0.962 . S
C814 H828 0.960 . S
C815 C812 1.511 . S
C815 H829 0.961 . S
C815 H830 0.961 . S
C815 H831 0.961 . S
C816 C817 1.370 . S
C816 C818 1.363 . S
C816 H832 0.931 . S
C817 C816 1.370 . S
C817 C821 1.408 . S
C818 C816 1.363 . S
C818 C819 1.370 . S
C818 C822 1.524 . S
C819 C811 1.503 . S
C819 C818 1.370 . S
C819 C820 1.403 . S
C820 C819 1.403 . S
C820 C821 1.404 . S
C820 C823 1.539 . S
C821 C817 1.408 . S
C821 C820 1.404 . S
C821 H833 0.930 . S
C822 C818 1.524 . S
C822 H834 0.956 . S
C822 H835 0.961 . S
C822 H836 0.961 . S
C823 C820 1.539 . S
C823 H837 0.958 . S
C823 H838 0.961 . S
C823 H839 0.960 . S
H824 C808 0.931 . S
H825 C813 0.929 . S
H826 C814 0.960 . S
H827 C814 0.962 . S
H828 C814 0.960 . S
H829 C815 0.961 . S
H830 C815 0.961 . S
H831 C815 0.961 . S
H832 C816 0.931 . S
H833 C821 0.930 . S
H834 C822 0.956 . S
H835 C822 0.961 . S
H836 C822 0.961 . S
H837 C823 0.958 . S
H838 C823 0.961 . S
H839 C823 0.960 . S
C840 C841 1.391 . S
C840 C842 1.394 . S
C840 H856 0.931 . S
C841 C840 1.391 . S
C841 C845 1.376 1_556 S
C842 C840 1.394 . S
C842 C843 1.369 1_556 S
C842 C846 1.531 . S
C843 C842 1.369 1_554 S
C843 C844 1.410 . S
C843 C851 1.503 . S
C844 C843 1.410 . S
C844 C845 1.392 . S
C844 C847 1.511 . S
C845 C841 1.376 1_554 S
C845 C844 1.392 . S
C845 H857 0.929 . S
C846 C842 1.531 . S
C846 H858 0.960 . S
C846 H859 0.962 . S
C846 H860 0.960 . S
C847 C844 1.511 . S
C847 H861 0.961 . S
C847 H862 0.961 . S
C847 H863 0.961 . S
C848 C849 1.370 1_556 S
C848 C850 1.363 . S
C848 H864 0.931 . S
C849 C848 1.370 1_554 S
C849 C853 1.408 . S
C850 C848 1.363 . S
C850 C851 1.370 1_556 S
C850 C854 1.524 . S
C851 C843 1.503 . S
C851 C850 1.370 1_554 S
C851 C852 1.403 . S
C852 C851 1.403 . S
C852 C853 1.404 . S
C852 C855 1.539 . S
C853 C849 1.408 . S
C853 C852 1.404 . S
C853 H865 0.930 . S
C854 C850 1.524 . S
C854 H866 0.956 . S
C854 H867 0.961 . S
C854 H868 0.961 . S
C855 C852 1.539 . S
C855 H869 0.958 . S
C855 H870 0.961 . S
C855 H871 0.960 . S
H856 C840 0.931 . S
H857 C845 0.929 . S
H858 C846 0.960 . S
H859 C846 0.962 . S
H860 C846 0.960 . S
H861 C847 0.961 . S
H862 C847 0.961 . S
H863 C847 0.961 . S
H864 C848 0.931 . S
H865 C853 0.930 . S
H866 C854 0.956 . S
H867 C854 0.961 . S
H868 C854 0.961 . S
H869 C855 0.958 . S
H870 C855 0.961 . S
H871 C855 0.960 . S
C872 C873 1.391 . S
C872 C874 1.394 . S
C872 H888 0.931 . S
C873 C872 1.391 . S
C873 C877 1.376 . S
C874 C872 1.394 . S
C874 C875 1.369 . S
C874 C878 1.531 . S
C875 C874 1.369 . S
C875 C876 1.410 . S
C875 C883 1.503 . S
C876 C875 1.410 . S
C876 C877 1.392 . S
C876 C879 1.511 . S
C877 C873 1.376 . S
C877 C876 1.392 . S
C877 H889 0.929 . S
C878 C874 1.531 . S
C878 H890 0.960 . S
C878 H891 0.962 . S
C878 H892 0.960 . S
C879 C876 1.511 . S
C879 H893 0.961 . S
C879 H894 0.961 . S
C879 H895 0.961 . S
C880 C881 1.370 . S
C880 C882 1.363 . S
C880 H896 0.931 . S
C881 C880 1.370 . S
C881 C885 1.408 . S
C882 C880 1.363 . S
C882 C883 1.370 . S
C882 C886 1.524 . S
C883 C875 1.503 . S
C883 C882 1.370 . S
C883 C884 1.403 . S
C884 C883 1.403 . S
C884 C885 1.404 . S
C884 C887 1.539 . S
C885 C881 1.408 . S
C885 C884 1.404 . S
C885 H897 0.930 . S
C886 C882 1.524 . S
C886 H898 0.956 . S
C886 H899 0.961 . S
C886 H900 0.961 1_545 S
C887 C884 1.539 . S
C887 H901 0.958 . S
C887 H902 0.961 . S
C887 H903 0.960 . S
H888 C872 0.931 . S
H889 C877 0.929 . S
H890 C878 0.960 . S
H891 C878 0.962 . S
H892 C878 0.960 . S
H893 C879 0.961 . S
H894 C879 0.961 . S
H895 C879 0.961 . S
H896 C880 0.931 . S
H897 C885 0.930 . S
H898 C886 0.956 . S
H899 C886 0.961 . S
H900 C886 0.961 1_565 S
H901 C887 0.958 . S
H902 C887 0.961 . S
H903 C887 0.960 . S
C904 C905 1.391 . S
C904 C906 1.394 . S
C904 H920 0.931 . S
C905 C904 1.391 . S
C905 C909 1.376 . S
C906 C904 1.394 . S
C906 C907 1.369 . S
C906 C910 1.531 . S
C907 C906 1.369 . S
C907 C908 1.410 . S
C907 C915 1.503 . S
C908 C907 1.410 . S
C908 C909 1.392 . S
C908 C911 1.511 . S
C909 C905 1.376 . S
C909 C908 1.392 . S
C909 H921 0.929 . S
C910 C906 1.531 . S
C910 H922 0.960 . S
C910 H923 0.962 . S
C910 H924 0.960 . S
C911 C908 1.511 . S
C911 H925 0.961 . S
C911 H926 0.961 . S
C911 H927 0.961 . S
C912 C913 1.370 . S
C912 C914 1.363 . S
C912 H928 0.931 . S
C913 C912 1.370 . S
C913 C917 1.408 . S
C914 C912 1.363 . S
C914 C915 1.370 . S
C914 C918 1.524 . S
C915 C907 1.503 . S
C915 C914 1.370 . S
C915 C916 1.403 . S
C916 C915 1.403 . S
C916 C917 1.404 . S
C916 C919 1.539 . S
C917 C913 1.408 . S
C917 C916 1.404 . S
C917 H929 0.930 . S
C918 C914 1.524 . S
C918 H930 0.956 . S
C918 H931 0.961 . S
C918 H932 0.961 . S
C919 C916 1.539 . S
C919 H933 0.958 . S
C919 H934 0.961 . S
C919 H935 0.960 . S
H920 C904 0.931 . S
H921 C909 0.929 . S
H922 C910 0.960 . S
H923 C910 0.962 . S
H924 C910 0.960 . S
H925 C911 0.961 . S
H926 C911 0.961 . S
H927 C911 0.961 . S
H928 C912 0.931 . S
H929 C917 0.930 . S
H930 C918 0.956 . S
H931 C918 0.961 . S
H932 C918 0.961 . S
H933 C919 0.958 . S
H934 C919 0.961 . S
H935 C919 0.960 . S
C936 C937 1.391 . S
C936 C938 1.394 . S
C936 H952 0.931 . S
C937 C936 1.391 . S
C937 C941 1.376 . S
C938 C936 1.394 . S
C938 C939 1.369 . S
C938 C942 1.531 . S
C939 C938 1.369 . S
C939 C940 1.410 . S
C939 C947 1.503 . S
C940 C939 1.410 . S
C940 C941 1.392 . S
C940 C943 1.511 . S
C941 C937 1.376 . S
C941 C940 1.392 . S
C941 H953 0.929 . S
C942 C938 1.531 . S
C942 H954 0.960 . S
C942 H955 0.962 . S
C942 H956 0.960 . S
C943 C940 1.511 . S
C943 H957 0.961 . S
C943 H958 0.961 . S
C943 H959 0.961 . S
C944 C945 1.370 . S
C944 C946 1.363 . S
C944 H960 0.931 . S
C945 C944 1.370 . S
C945 C949 1.408 . S
C946 C944 1.363 . S
C946 C947 1.370 . S
C946 C950 1.524 . S
C947 C939 1.503 . S
C947 C946 1.370 . S
C947 C948 1.403 . S
C948 C947 1.403 . S
C948 C949 1.404 . S
C948 C951 1.539 . S
C949 C945 1.408 . S
C949 C948 1.404 . S
C949 H961 0.930 . S
C950 C946 1.524 . S
C950 H962 0.956 . S
C950 H963 0.961 . S
C950 H964 0.961 . S
C951 C948 1.539 . S
C951 H965 0.958 . S
C951 H966 0.961 . S
C951 H967 0.960 . S
H952 C936 0.931 . S
H953 C941 0.929 . S
H954 C942 0.960 . S
H955 C942 0.962 . S
H956 C942 0.960 . S
H957 C943 0.961 . S
H958 C943 0.961 . S
H959 C943 0.961 . S
H960 C944 0.931 . S
H961 C949 0.930 . S
H962 C950 0.956 . S
H963 C950 0.961 . S
H964 C950 0.961 . S
H965 C951 0.958 . S
H966 C951 0.961 . S
H967 C951 0.960 . S
C968 C969 1.391 . S
C968 C970 1.394 . S
C968 H984 0.931 . S
C969 C968 1.391 . S
C969 C973 1.376 . S
C970 C968 1.394 . S
C970 C971 1.369 . S
C970 C974 1.531 . S
C971 C970 1.369 . S
C971 C972 1.410 . S
C971 C979 1.503 . S
C972 C971 1.410 . S
C972 C973 1.392 . S
C972 C975 1.511 . S
C973 C969 1.376 . S
C973 C972 1.392 . S
C973 H985 0.929 . S
C974 C970 1.531 . S
C974 H986 0.960 . S
C974 H987 0.962 . S
C974 H988 0.960 . S
C975 C972 1.511 . S
C975 H989 0.961 . S
C975 H990 0.961 . S
C975 H991 0.961 . S
C976 C977 1.370 . S
C976 C978 1.363 . S
C976 H992 0.931 . S
C977 C976 1.370 . S
C977 C981 1.408 . S
C978 C976 1.363 . S
C978 C979 1.370 . S
C978 C982 1.524 . S
C979 C971 1.503 . S
C979 C978 1.370 . S
C979 C980 1.403 . S
C980 C979 1.403 . S
C980 C981 1.404 . S
C980 C983 1.539 . S
C981 C977 1.408 . S
C981 C980 1.404 . S
C981 H993 0.930 . S
C982 C978 1.524 . S
C982 H994 0.956 . S
C982 H995 0.961 . S
C982 H996 0.961 . S
C983 C980 1.539 . S
C983 H997 0.958 . S
C983 H998 0.961 . S
C983 H999 0.960 . S
H984 C968 0.931 . S
H985 C973 0.929 . S
H986 C974 0.960 . S
H987 C974 0.962 . S
H988 C974 0.960 . S
H989 C975 0.961 . S
H990 C975 0.961 . S
H991 C975 0.961 . S
H992 C976 0.931 . S
H993 C981 0.930 . S
H994 C982 0.956 . S
H995 C982 0.961 . S
H996 C982 0.961 . S
H997 C983 0.958 . S
H998 C983 0.961 . S
H999 C983 0.960 . S
C1000 C1001 1.391 . S
C1000 C1002 1.394 . S
C1000 H1016 0.931 . S
C1001 C1000 1.391 . S
C1001 C1005 1.376 . S
C1002 C1000 1.394 . S
C1002 C1003 1.369 . S
C1002 C1006 1.531 . S
C1003 C1002 1.369 . S
C1003 C1004 1.410 . S
C1003 C1011 1.503 . S
C1004 C1003 1.410 . S
C1004 C1005 1.392 . S
C1004 C1007 1.511 . S
C1005 C1001 1.376 . S
C1005 C1004 1.392 . S
C1005 H1017 0.929 . S
C1006 C1002 1.531 . S
C1006 H1018 0.960 . S
C1006 H1019 0.962 . S
C1006 H1020 0.960 . S
C1007 C1004 1.511 . S
C1007 H1021 0.961 . S
C1007 H1022 0.961 . S
C1007 H1023 0.961 . S
C1008 C1009 1.370 . S
C1008 C1010 1.363 . S
C1008 H1024 0.931 . S
C1009 C1008 1.370 . S
C1009 C1013 1.408 . S
C1010 C1008 1.363 . S
C1010 C1011 1.370 . S
C1010 C1014 1.524 . S
C1011 C1003 1.503 . S
C1011 C1010 1.370 . S
C1011 C1012 1.403 . S
C1012 C1011 1.403 . S
C1012 C1013 1.404 . S
C1012 C1015 1.539 . S
C1013 C1009 1.408 . S
C1013 C1012 1.404 . S
C1013 H1025 0.930 . S
C1014 C1010 1.524 . S
C1014 H1026 0.956 . S
C1014 H1027 0.961 . S
C1014 H1028 0.961 . S
C1015 C1012 1.539 . S
C1015 H1029 0.958 . S
C1015 H1030 0.961 . S
C1015 H1031 0.960 . S
H1016 C1000 0.931 . S
H1017 C1005 0.929 . S
H1018 C1006 0.960 . S
H1019 C1006 0.962 . S
H1020 C1006 0.960 . S
H1021 C1007 0.961 . S
H1022 C1007 0.961 . S
H1023 C1007 0.961 . S
H1024 C1008 0.931 . S
H1025 C1013 0.930 . S
H1026 C1014 0.956 . S
H1027 C1014 0.961 . S
H1028 C1014 0.961 . S
H1029 C1015 0.958 . S
H1030 C1015 0.961 . S
H1031 C1015 0.960 . S
C1032 C1033 1.391 . S
C1032 C1034 1.394 . S
C1032 H1048 0.931 . S
C1033 C1032 1.391 . S
C1033 C1037 1.376 . S
C1034 C1032 1.394 . S
C1034 C1035 1.369 . S
C1034 C1038 1.531 . S
C1035 C1034 1.369 . S
C1035 C1036 1.410 . S
C1035 C1043 1.503 . S
C1036 C1035 1.410 . S
C1036 C1037 1.392 . S
C1036 C1039 1.511 . S
C1037 C1033 1.376 . S
C1037 C1036 1.392 . S
C1037 H1049 0.929 . S
C1038 C1034 1.531 . S
C1038 H1050 0.960 . S
C1038 H1051 0.962 . S
C1038 H1052 0.960 . S
C1039 C1036 1.511 . S
C1039 H1053 0.961 . S
C1039 H1054 0.961 . S
C1039 H1055 0.961 . S
C1040 C1041 1.370 . S
C1040 C1042 1.363 . S
C1040 H1056 0.931 . S
C1041 C1040 1.370 . S
C1041 C1045 1.408 . S
C1042 C1040 1.363 . S
C1042 C1043 1.370 . S
C1042 C1046 1.524 . S
C1043 C1035 1.503 . S
C1043 C1042 1.370 . S
C1043 C1044 1.403 . S
C1044 C1043 1.403 . S
C1044 C1045 1.404 . S
C1044 C1047 1.539 . S
C1045 C1041 1.408 . S
C1045 C1044 1.404 . S
C1045 H1057 0.930 . S
C1046 C1042 1.524 . S
C1046 H1058 0.956 . S
C1046 H1059 0.961 . S
C1046 H1060 0.961 . S
C1047 C1044 1.539 . S
C1047 H1061 0.958 . S
C1047 H1062 0.961 . S
C1047 H1063 0.960 . S
H1048 C1032 0.931 . S
H1049 C1037 0.929 . S
H1050 C1038 0.960 . S
H1051 C1038 0.962 . S
H1052 C1038 0.960 . S
H1053 C1039 0.961 . S
H1054 C1039 0.961 . S
H1055 C1039 0.961 . S
H1056 C1040 0.931 . S
H1057 C1045 0.930 . S
H1058 C1046 0.956 . S
H1059 C1046 0.961 . S
H1060 C1046 0.961 . S
H1061 C1047 0.958 . S
H1062 C1047 0.961 . S
H1063 C1047 0.960 . S
C1064 C1065 1.391 . S
C1064 C1066 1.394 . S
C1064 H1080 0.931 . S
C1065 C1064 1.391 . S
C1065 C1069 1.376 . S
C1066 C1064 1.394 . S
C1066 C1067 1.369 . S
C1066 C1070 1.531 . S
C1067 C1066 1.369 . S
C1067 C1068 1.410 . S
C1067 C1075 1.503 . S
C1068 C1067 1.410 . S
C1068 C1069 1.392 . S
C1068 C1071 1.511 . S
C1069 C1065 1.376 . S
C1069 C1068 1.392 . S
C1069 H1081 0.929 . S
C1070 C1066 1.531 . S
C1070 H1082 0.960 . S
C1070 H1083 0.962 . S
C1070 H1084 0.960 . S
C1071 C1068 1.511 . S
C1071 H1085 0.961 . S
C1071 H1086 0.961 . S
C1071 H1087 0.961 . S
C1072 C1073 1.370 . S
C1072 C1074 1.363 . S
C1072 H1088 0.931 . S
C1073 C1072 1.370 . S
C1073 C1077 1.408 . S
C1074 C1072 1.363 . S
C1074 C1075 1.370 . S
C1074 C1078 1.524 . S
C1075 C1067 1.503 . S
C1075 C1074 1.370 . S
C1075 C1076 1.403 . S
C1076 C1075 1.403 . S
C1076 C1077 1.404 . S
C1076 C1079 1.539 . S
C1077 C1073 1.408 . S
C1077 C1076 1.404 . S
C1077 H1089 0.930 . S
C1078 C1074 1.524 . S
C1078 H1090 0.956 . S
C1078 H1091 0.961 . S
C1078 H1092 0.961 . S
C1079 C1076 1.539 . S
C1079 H1093 0.958 . S
C1079 H1094 0.961 . S
C1079 H1095 0.960 . S
H1080 C1064 0.931 . S
H1081 C1069 0.929 . S
H1082 C1070 0.960 . S
H1083 C1070 0.962 . S
H1084 C1070 0.960 . S
H1085 C1071 0.961 . S
H1086 C1071 0.961 . S
H1087 C1071 0.961 . S
H1088 C1072 0.931 . S
H1089 C1077 0.930 . S
H1090 C1078 0.956 . S
H1091 C1078 0.961 . S
H1092 C1078 0.961 . S
H1093 C1079 0.958 . S
H1094 C1079 0.961 . S
H1095 C1079 0.960 . S
C1096 C1097 1.391 . S
C1096 C1098 1.394 . S
C1096 H1112 0.931 . S
C1097 C1096 1.391 . S
C1097 C1101 1.376 . S
C1098 C1096 1.394 . S
C1098 C1099 1.369 . S
C1098 C1102 1.531 . S
C1099 C1098 1.369 . S
C1099 C1100 1.410 . S
C1099 C1107 1.503 . S
C1100 C1099 1.410 . S
C1100 C1101 1.392 . S
C1100 C1103 1.511 . S
C1101 C1097 1.376 . S
C1101 C1100 1.392 . S
C1101 H1113 0.929 . S
C1102 C1098 1.531 . S
C1102 H1114 0.960 . S
C1102 H1115 0.962 . S
C1102 H1116 0.960 . S
C1103 C1100 1.511 . S
C1103 H1117 0.961 . S
C1103 H1118 0.961 . S
C1103 H1119 0.961 . S
C1104 C1105 1.370 . S
C1104 C1106 1.363 . S
C1104 H1120 0.931 . S
C1105 C1104 1.370 . S
C1105 C1109 1.408 . S
C1106 C1104 1.363 . S
C1106 C1107 1.370 . S
C1106 C1110 1.524 . S
C1107 C1099 1.503 . S
C1107 C1106 1.370 . S
C1107 C1108 1.403 . S
C1108 C1107 1.403 . S
C1108 C1109 1.404 . S
C1108 C1111 1.539 . S
C1109 C1105 1.408 . S
C1109 C1108 1.404 . S
C1109 H1121 0.930 . S
C1110 C1106 1.524 . S
C1110 H1122 0.956 . S
C1110 H1123 0.961 . S
C1110 H1124 0.961 1_556 S
C1111 C1108 1.539 . S
C1111 H1125 0.958 . S
C1111 H1126 0.961 . S
C1111 H1127 0.960 . S
H1112 C1096 0.931 . S
H1113 C1101 0.929 . S
H1114 C1102 0.960 . S
H1115 C1102 0.962 . S
H1116 C1102 0.960 . S
H1117 C1103 0.961 . S
H1118 C1103 0.961 . S
H1119 C1103 0.961 . S
H1120 C1104 0.931 . S
H1121 C1109 0.930 . S
H1122 C1110 0.956 . S
H1123 C1110 0.961 . S
H1124 C1110 0.961 1_554 S
H1125 C1111 0.958 . S
H1126 C1111 0.961 . S
H1127 C1111 0.960 . S
C1128 C1129 1.391 . S
C1128 C1130 1.394 . S
C1128 H1144 0.931 . S
C1129 C1128 1.391 . S
C1129 C1133 1.376 . S
C1130 C1128 1.394 . S
C1130 C1131 1.369 . S
C1130 C1134 1.531 . S
C1131 C1130 1.369 . S
C1131 C1132 1.410 . S
C1131 C1139 1.503 . S
C1132 C1131 1.410 . S
C1132 C1133 1.392 . S
C1132 C1135 1.511 . S
C1133 C1129 1.376 . S
C1133 C1132 1.392 . S
C1133 H1145 0.929 . S
C1134 C1130 1.531 . S
C1134 H1146 0.960 . S
C1134 H1147 0.962 . S
C1134 H1148 0.960 . S
C1135 C1132 1.511 . S
C1135 H1149 0.961 . S
C1135 H1150 0.961 . S
C1135 H1151 0.961 . S
C1136 C1137 1.370 . S
C1136 C1138 1.363 . S
C1136 H1152 0.931 . S
C1137 C1136 1.370 . S
C1137 C1141 1.408 . S
C1138 C1136 1.363 . S
C1138 C1139 1.370 . S
C1138 C1142 1.524 . S
C1139 C1131 1.503 . S
C1139 C1138 1.370 . S
C1139 C1140 1.403 . S
C1140 C1139 1.403 . S
C1140 C1141 1.404 . S
C1140 C1143 1.539 . S
C1141 C1137 1.408 . S
C1141 C1140 1.404 . S
C1141 H1153 0.930 . S
C1142 C1138 1.524 . S
C1142 H1154 0.956 . S
C1142 H1155 0.961 . S
C1142 H1156 0.961 . S
C1143 C1140 1.539 . S
C1143 H1157 0.958 . S
C1143 H1158 0.961 1_545 S
C1143 H1159 0.960 . S
H1144 C1128 0.931 . S
H1145 C1133 0.929 . S
H1146 C1134 0.960 . S
H1147 C1134 0.962 . S
H1148 C1134 0.960 . S
H1149 C1135 0.961 . S
H1150 C1135 0.961 . S
H1151 C1135 0.961 . S
H1152 C1136 0.931 . S
H1153 C1141 0.930 . S
H1154 C1142 0.956 . S
H1155 C1142 0.961 . S
H1156 C1142 0.961 . S
H1157 C1143 0.958 . S
H1158 C1143 0.961 1_565 S
H1159 C1143 0.960 . S
C1160 C1161 1.391 . S
C1160 C1162 1.394 . S
C1160 H1176 0.931 . S
C1161 C1160 1.391 . S
C1161 C1165 1.376 . S
C1162 C1160 1.394 . S
C1162 C1163 1.369 . S
C1162 C1166 1.531 . S
C1163 C1162 1.369 . S
C1163 C1164 1.410 . S
C1163 C1171 1.503 . S
C1164 C1163 1.410 . S
C1164 C1165 1.392 . S
C1164 C1167 1.511 . S
C1165 C1161 1.376 . S
C1165 C1164 1.392 . S
C1165 H1177 0.929 . S
C1166 C1162 1.531 . S
C1166 H1178 0.960 . S
C1166 H1179 0.962 . S
C1166 H1180 0.960 . S
C1167 C1164 1.511 . S
C1167 H1181 0.961 . S
C1167 H1182 0.961 . S
C1167 H1183 0.961 . S
C1168 C1169 1.370 . S
C1168 C1170 1.363 . S
C1168 H1184 0.931 . S
C1169 C1168 1.370 . S
C1169 C1173 1.408 . S
C1170 C1168 1.363 . S
C1170 C1171 1.370 . S
C1170 C1174 1.524 . S
C1171 C1163 1.503 . S
C1171 C1170 1.370 . S
C1171 C1172 1.403 . S
C1172 C1171 1.403 . S
C1172 C1173 1.404 . S
C1172 C1175 1.539 . S
C1173 C1169 1.408 . S
C1173 C1172 1.404 . S
C1173 H1185 0.930 . S
C1174 C1170 1.524 . S
C1174 H1186 0.956 . S
C1174 H1187 0.961 . S
C1174 H1188 0.961 . S
C1175 C1172 1.539 . S
C1175 H1189 0.958 . S
C1175 H1190 0.961 . S
C1175 H1191 0.960 . S
H1176 C1160 0.931 . S
H1177 C1165 0.929 . S
H1178 C1166 0.960 . S
H1179 C1166 0.962 . S
H1180 C1166 0.960 . S
H1181 C1167 0.961 . S
H1182 C1167 0.961 . S
H1183 C1167 0.961 . S
H1184 C1168 0.931 . S
H1185 C1173 0.930 . S
H1186 C1174 0.956 . S
H1187 C1174 0.961 . S
H1188 C1174 0.961 . S
H1189 C1175 0.958 . S
H1190 C1175 0.961 . S
H1191 C1175 0.960 . S
C1192 C1193 1.391 . S
C1192 C1194 1.394 . S
C1192 H1208 0.931 . S
C1193 C1192 1.391 . S
C1193 C1197 1.376 . S
C1194 C1192 1.394 . S
C1194 C1195 1.369 . S
C1194 C1198 1.531 . S
C1195 C1194 1.369 . S
C1195 C1196 1.410 . S
C1195 C1203 1.503 . S
C1196 C1195 1.410 . S
C1196 C1197 1.392 . S
C1196 C1199 1.511 . S
C1197 C1193 1.376 . S
C1197 C1196 1.392 . S
C1197 H1209 0.929 . S
C1198 C1194 1.531 . S
C1198 H1210 0.960 . S
C1198 H1211 0.962 . S
C1198 H1212 0.960 . S
C1199 C1196 1.511 . S
C1199 H1213 0.961 . S
C1199 H1214 0.961 . S
C1199 H1215 0.961 . S
C1200 C1201 1.370 . S
C1200 C1202 1.363 . S
C1200 H1216 0.931 . S
C1201 C1200 1.370 . S
C1201 C1205 1.408 . S
C1202 C1200 1.363 . S
C1202 C1203 1.370 . S
C1202 C1206 1.524 . S
C1203 C1195 1.503 . S
C1203 C1202 1.370 . S
C1203 C1204 1.403 . S
C1204 C1203 1.403 . S
C1204 C1205 1.404 . S
C1204 C1207 1.539 . S
C1205 C1201 1.408 . S
C1205 C1204 1.404 . S
C1205 H1217 0.930 . S
C1206 C1202 1.524 . S
C1206 H1218 0.956 . S
C1206 H1219 0.961 . S
C1206 H1220 0.961 . S
C1207 C1204 1.539 . S
C1207 H1221 0.958 . S
C1207 H1222 0.961 . S
C1207 H1223 0.960 . S
H1208 C1192 0.931 . S
H1209 C1197 0.929 . S
H1210 C1198 0.960 . S
H1211 C1198 0.962 . S
H1212 C1198 0.960 . S
H1213 C1199 0.961 . S
H1214 C1199 0.961 . S
H1215 C1199 0.961 . S
H1216 C1200 0.931 . S
H1217 C1205 0.930 . S
H1218 C1206 0.956 . S
H1219 C1206 0.961 . S
H1220 C1206 0.961 . S
H1221 C1207 0.958 . S
H1222 C1207 0.961 . S
H1223 C1207 0.960 . S
C1224 C1225 1.391 . S
C1224 C1226 1.394 . S
C1224 H1240 0.931 . S
C1225 C1224 1.391 . S
C1225 C1229 1.376 . S
C1226 C1224 1.394 . S
C1226 C1227 1.369 . S
C1226 C1230 1.531 . S
C1227 C1226 1.369 . S
C1227 C1228 1.410 . S
C1227 C1235 1.503 . S
C1228 C1227 1.410 . S
C1228 C1229 1.392 . S
C1228 C1231 1.511 . S
C1229 C1225 1.376 . S
C1229 C1228 1.392 . S
C1229 H1241 0.929 . S
C1230 C1226 1.531 . S
C1230 H1242 0.960 . S
C1230 H1243 0.962 . S
C1230 H1244 0.960 . S
C1231 C1228 1.511 . S
C1231 H1245 0.961 . S
C1231 H1246 0.961 . S
C1231 H1247 0.961 1_554 S
C1232 C1233 1.370 . S
C1232 C1234 1.363 . S
C1232 H1248 0.931 . S
C1233 C1232 1.370 . S
C1233 C1237 1.408 . S
C1234 C1232 1.363 . S
C1234 C1235 1.370 . S
C1234 C1238 1.524 . S
C1235 C1227 1.503 . S
C1235 C1234 1.370 . S
C1235 C1236 1.403 . S
C1236 C1235 1.403 . S
C1236 C1237 1.404 . S
C1236 C1239 1.539 . S
C1237 C1233 1.408 . S
C1237 C1236 1.404 . S
C1237 H1249 0.930 . S
C1238 C1234 1.524 . S
C1238 H1250 0.956 . S
C1238 H1251 0.961 . S
C1238 H1252 0.961 . S
C1239 C1236 1.539 . S
C1239 H1253 0.958 . S
C1239 H1254 0.961 . S
C1239 H1255 0.960 . S
H1240 C1224 0.931 . S
H1241 C1229 0.929 . S
H1242 C1230 0.960 . S
H1243 C1230 0.962 . S
H1244 C1230 0.960 . S
H1245 C1231 0.961 . S
H1246 C1231 0.961 . S
H1247 C1231 0.961 1_556 S
H1248 C1232 0.931 . S
H1249 C1237 0.930 . S
H1250 C1238 0.956 . S
H1251 C1238 0.961 . S
H1252 C1238 0.961 . S
H1253 C1239 0.958 . S
H1254 C1239 0.961 . S
H1255 C1239 0.960 . S
C1256 C1257 1.391 . S
C1256 C1258 1.394 . S
C1256 H1272 0.931 . S
C1257 C1256 1.391 . S
C1257 C1261 1.376 1_565 S
C1258 C1256 1.394 . S
C1258 C1259 1.369 . S
C1258 C1262 1.531 . S
C1259 C1258 1.369 . S
C1259 C1260 1.410 1_565 S
C1259 C1267 1.503 1_565 S
C1260 C1259 1.410 1_545 S
C1260 C1261 1.392 . S
C1260 C1263 1.511 . S
C1261 C1257 1.376 1_545 S
C1261 C1260 1.392 . S
C1261 H1273 0.929 . S
C1262 C1258 1.531 . S
C1262 H1274 0.960 . S
C1262 H1275 0.962 . S
C1262 H1276 0.960 . S
C1263 C1260 1.511 . S
C1263 H1277 0.961 . S
C1263 H1278 0.961 . S
C1263 H1279 0.961 . S
C1264 C1265 1.370 . S
C1264 C1266 1.363 . S
C1264 H1280 0.931 . S
C1265 C1264 1.370 . S
C1265 C1269 1.408 . S
C1266 C1264 1.363 . S
C1266 C1267 1.370 . S
C1266 C1270 1.524 . S
C1267 C1259 1.503 1_545 S
C1267 C1266 1.370 . S
C1267 C1268 1.403 . S
C1268 C1267 1.403 . S
C1268 C1269 1.404 . S
C1268 C1271 1.539 . S
C1269 C1265 1.408 . S
C1269 C1268 1.404 . S
C1269 H1281 0.930 . S
C1270 C1266 1.524 . S
C1270 H1282 0.956 1_545 S
C1270 H1283 0.961 . S
C1270 H1284 0.961 . S
C1271 C1268 1.539 . S
C1271 H1285 0.958 1_545 S
C1271 H1286 0.961 . S
C1271 H1287 0.960 . S
H1272 C1256 0.931 . S
H1273 C1261 0.929 . S
H1274 C1262 0.960 . S
H1275 C1262 0.962 . S
H1276 C1262 0.960 . S
H1277 C1263 0.961 . S
H1278 C1263 0.961 . S
H1279 C1263 0.961 . S
H1280 C1264 0.931 . S
H1281 C1269 0.930 . S
H1282 C1270 0.956 1_565 S
H1283 C1270 0.961 . S
H1284 C1270 0.961 . S
H1285 C1271 0.958 1_565 S
H1286 C1271 0.961 . S
H1287 C1271 0.960 . S
C1288 C1289 1.391 . S
C1288 C1290 1.394 . S
C1288 H1304 0.931 . S
C1289 C1288 1.391 . S
C1289 C1293 1.376 . S
C1290 C1288 1.394 . S
C1290 C1291 1.369 . S
C1290 C1294 1.531 . S
C1291 C1290 1.369 . S
C1291 C1292 1.410 . S
C1291 C1299 1.503 . S
C1292 C1291 1.410 . S
C1292 C1293 1.392 . S
C1292 C1295 1.511 . S
C1293 C1289 1.376 . S
C1293 C1292 1.392 . S
C1293 H1305 0.929 . S
C1294 C1290 1.531 . S
C1294 H1306 0.960 . S
C1294 H1307 0.962 . S
C1294 H1308 0.960 . S
C1295 C1292 1.511 . S
C1295 H1309 0.961 . S
C1295 H1310 0.961 . S
C1295 H1311 0.961 . S
C1296 C1297 1.370 . S
C1296 C1298 1.363 . S
C1296 H1312 0.931 . S
C1297 C1296 1.370 . S
C1297 C1301 1.408 . S
C1298 C1296 1.363 . S
C1298 C1299 1.370 . S
C1298 C1302 1.524 . S
C1299 C1291 1.503 . S
C1299 C1298 1.370 . S
C1299 C1300 1.403 . S
C1300 C1299 1.403 . S
C1300 C1301 1.404 . S
C1300 C1303 1.539 . S
C1301 C1297 1.408 . S
C1301 C1300 1.404 . S
C1301 H1313 0.930 . S
C1302 C1298 1.524 . S
C1302 H1314 0.956 . S
C1302 H1315 0.961 . S
C1302 H1316 0.961 . S
C1303 C1300 1.539 . S
C1303 H1317 0.958 . S
C1303 H1318 0.961 . S
C1303 H1319 0.960 . S
H1304 C1288 0.931 . S
H1305 C1293 0.929 . S
H1306 C1294 0.960 . S
H1307 C1294 0.962 . S
H1308 C1294 0.960 . S
H1309 C1295 0.961 . S
H1310 C1295 0.961 . S
H1311 C1295 0.961 . S
H1312 C1296 0.931 . S
H1313 C1301 0.930 . S
H1314 C1302 0.956 . S
H1315 C1302 0.961 . S
H1316 C1302 0.961 . S
H1317 C1303 0.958 . S
H1318 C1303 0.961 . S
H1319 C1303 0.960 . S
C1320 C1321 1.391 . S
C1320 C1322 1.394 . S
C1320 H1336 0.931 . S
C1321 C1320 1.391 . S
C1321 C1325 1.376 . S
C1322 C1320 1.394 . S
C1322 C1323 1.369 . S
C1322 C1326 1.531 . S
C1323 C1322 1.369 . S
C1323 C1324 1.410 . S
C1323 C1331 1.503 . S
C1324 C1323 1.410 . S
C1324 C1325 1.392 . S
C1324 C1327 1.511 . S
C1325 C1321 1.376 . S
C1325 C1324 1.392 . S
C1325 H1337 0.929 . S
C1326 C1322 1.531 . S
C1326 H1338 0.960 . S
C1326 H1339 0.962 . S
C1326 H1340 0.960 . S
C1327 C1324 1.511 . S
C1327 H1341 0.961 . S
C1327 H1342 0.961 . S
C1327 H1343 0.961 . S
C1328 C1329 1.370 . S
C1328 C1330 1.363 . S
C1328 H1344 0.931 . S
C1329 C1328 1.370 . S
C1329 C1333 1.408 . S
C1330 C1328 1.363 . S
C1330 C1331 1.370 . S
C1330 C1334 1.524 . S
C1331 C1323 1.503 . S
C1331 C1330 1.370 . S
C1331 C1332 1.403 . S
C1332 C1331 1.403 . S
C1332 C1333 1.404 . S
C1332 C1335 1.539 . S
C1333 C1329 1.408 . S
C1333 C1332 1.404 . S
C1333 H1345 0.930 . S
C1334 C1330 1.524 . S
C1334 H1346 0.956 . S
C1334 H1347 0.961 . S
C1334 H1348 0.961 . S
C1335 C1332 1.539 . S
C1335 H1349 0.958 . S
C1335 H1350 0.961 . S
C1335 H1351 0.960 . S
H1336 C1320 0.931 . S
H1337 C1325 0.929 . S
H1338 C1326 0.960 . S
H1339 C1326 0.962 . S
H1340 C1326 0.960 . S
H1341 C1327 0.961 . S
H1342 C1327 0.961 . S
H1343 C1327 0.961 . S
H1344 C1328 0.931 . S
H1345 C1333 0.930 . S
H1346 C1334 0.956 . S
H1347 C1334 0.961 . S
H1348 C1334 0.961 . S
H1349 C1335 0.958 . S
H1350 C1335 0.961 . S
H1351 C1335 0.960 . S
C1352 C1353 1.391 . S
C1352 C1354 1.394 . S
C1352 H1368 0.931 . S
C1353 C1352 1.391 . S
C1353 C1357 1.376 . S
C1354 C1352 1.394 . S
C1354 C1355 1.369 . S
C1354 C1358 1.531 . S
C1355 C1354 1.369 . S
C1355 C1356 1.410 . S
C1355 C1363 1.503 . S
C1356 C1355 1.410 . S
C1356 C1357 1.392 . S
C1356 C1359 1.511 . S
C1357 C1353 1.376 . S
C1357 C1356 1.392 . S
C1357 H1369 0.929 . S
C1358 C1354 1.531 . S
C1358 H1370 0.960 . S
C1358 H1371 0.962 . S
C1358 H1372 0.960 . S
C1359 C1356 1.511 . S
C1359 H1373 0.961 . S
C1359 H1374 0.961 . S
C1359 H1375 0.961 . S
C1360 C1361 1.370 . S
C1360 C1362 1.363 . S
C1360 H1376 0.931 . S
C1361 C1360 1.370 . S
C1361 C1365 1.408 . S
C1362 C1360 1.363 . S
C1362 C1363 1.370 . S
C1362 C1366 1.524 . S
C1363 C1355 1.503 . S
C1363 C1362 1.370 . S
C1363 C1364 1.403 . S
C1364 C1363 1.403 . S
C1364 C1365 1.404 . S
C1364 C1367 1.539 . S
C1365 C1361 1.408 . S
C1365 C1364 1.404 . S
C1365 H1377 0.930 . S
C1366 C1362 1.524 . S
C1366 H1378 0.956 . S
C1366 H1379 0.961 . S
C1366 H1380 0.961 . S
C1367 C1364 1.539 . S
C1367 H1381 0.958 . S
C1367 H1382 0.961 . S
C1367 H1383 0.960 . S
H1368 C1352 0.931 . S
H1369 C1357 0.929 . S
H1370 C1358 0.960 . S
H1371 C1358 0.962 . S
H1372 C1358 0.960 . S
H1373 C1359 0.961 . S
H1374 C1359 0.961 . S
H1375 C1359 0.961 . S
H1376 C1360 0.931 . S
H1377 C1365 0.930 . S
H1378 C1366 0.956 . S
H1379 C1366 0.961 . S
H1380 C1366 0.961 . S
H1381 C1367 0.958 . S
H1382 C1367 0.961 . S
H1383 C1367 0.960 . S
C1384 C1385 1.391 . S
C1384 C1386 1.394 . S
C1384 H1400 0.931 . S
C1385 C1384 1.391 . S
C1385 C1389 1.376 . S
C1386 C1384 1.394 . S
C1386 C1387 1.369 . S
C1386 C1390 1.531 . S
C1387 C1386 1.369 . S
C1387 C1388 1.410 . S
C1387 C1395 1.503 . S
C1388 C1387 1.410 . S
C1388 C1389 1.392 . S
C1388 C1391 1.511 . S
C1389 C1385 1.376 . S
C1389 C1388 1.392 . S
C1389 H1401 0.929 . S
C1390 C1386 1.531 . S
C1390 H1402 0.960 . S
C1390 H1403 0.962 . S
C1390 H1404 0.960 . S
C1391 C1388 1.511 . S
C1391 H1405 0.961 . S
C1391 H1406 0.961 . S
C1391 H1407 0.961 . S
C1392 C1393 1.370 . S
C1392 C1394 1.363 . S
C1392 H1408 0.931 . S
C1393 C1392 1.370 . S
C1393 C1397 1.408 . S
C1394 C1392 1.363 . S
C1394 C1395 1.370 . S
C1394 C1398 1.524 . S
C1395 C1387 1.503 . S
C1395 C1394 1.370 . S
C1395 C1396 1.403 . S
C1396 C1395 1.403 . S
C1396 C1397 1.404 . S
C1396 C1399 1.539 . S
C1397 C1393 1.408 . S
C1397 C1396 1.404 . S
C1397 H1409 0.930 . S
C1398 C1394 1.524 . S
C1398 H1410 0.956 . S
C1398 H1411 0.961 . S
C1398 H1412 0.961 . S
C1399 C1396 1.539 . S
C1399 H1413 0.958 . S
C1399 H1414 0.961 . S
C1399 H1415 0.960 . S
H1400 C1384 0.931 . S
H1401 C1389 0.929 . S
H1402 C1390 0.960 . S
H1403 C1390 0.962 . S
H1404 C1390 0.960 . S
H1405 C1391 0.961 . S
H1406 C1391 0.961 . S
H1407 C1391 0.961 . S
H1408 C1392 0.931 . S
H1409 C1397 0.930 . S
H1410 C1398 0.956 . S
H1411 C1398 0.961 . S
H1412 C1398 0.961 . S
H1413 C1399 0.958 . S
H1414 C1399 0.961 . S
H1415 C1399 0.960 . S
C265 C84 1.466 . S
C273 C7 1.487 . S
C297 C51 1.603 . S
C305 C18 1.619 . S
C329 C62 1.811 . S
C337 C29 1.740 . S
C361 C73 1.179 . S
C369 C40 1.256 . S
C393 C95 0.633 . S
C401 C139 0.425 . S
C425 C150 1.227 . S
C433 C106 1.149 . S
C457 C117 1.375 . S
C465 C161 1.378 . S
C489 C172 1.343 . S
C497 C128 1.318 . S
C521 C183 1.497 . S
C529 C238 1.417 . S
C553 C194 1.638 . S
C561 C216 1.647 . S
C585 C205 1.801 . S
C593 C249 1.689 . S
C617 C260 1.395 . S
C625 C227 1.385 . S
C649 C8 1.830 . S
C657 C173 1.794 . S
C681 C19 1.779 . S
C689 C137 1.667 . S
C713 C151 1.647 . S
C721 C27 1.324 . S
C745 C162 1.558 . S
C753 C41 1.579 . S
C777 C49 1.443 . S
C785 C104 1.175 . S
C809 C60 1.622 . S
C817 C118 1.820 . S
C841 C126 1.574 . S
C849 C71 1.218 1_554 S
C873 C85 1.716 . S
C881 C93 1.624 . S
C905 C129 1.713 . S
C913 C140 1.774 . S
C937 C228 1.817 . S
C945 C181 1.743 . S
C969 C192 1.449 . S
C977 C239 1.594 . S
C1001 C203 1.553 . S
C1009 C214 1.445 . S
C1033 C159 1.436 . S
C1041 C107 1.521 . S
C1065 C63 1.833 . S
C1073 C206 1.825 . S
C1097 C258 1.121 . S
C1105 C74 1.495 . S
C1129 C82 1.630 . S
C1137 C184 1.736 . S
C1161 C195 1.490 . S
C1169 C52 1.494 . S
C1193 C236 1.180 . S
C1201 C38 1.607 . S
C1225 C5 1.069 . S
C1233 C217 1.298 . S
C1257 C16 1.505 . S
C1265 C247 1.386 . S
C1289 C225 1.452 . S
C1297 C30 1.711 . S
C1321 C250 1.708 . S
C1329 C261 1.728 . S
C1353 C96 2.126 . S
C1361 C148 2.076 . S
C1385 C170 2.002 . S
C1393 C115 1.990 . S
