# Generated by pormake.
# Topology ukc, (4)-cn, num edge types: 1
# Building blocks:
#     Node 0, Type 0, BuildingBlock: AZAVOO_clean_sbu_0, # of connection points: 4
#     Node 1, Type 0, BuildingBlock: AZAVOO_clean_sbu_0, # of connection points: 4
#     Node 2, Type 0, BuildingBlock: AZAVOO_clean_sbu_0, # of connection points: 4
#     Node 3, Type 0, BuildingBlock: AZAVOO_clean_sbu_0, # of connection points: 4
#     Node 4, Type 0, BuildingBlock: AZAVOO_clean_sbu_0, # of connection points: 4
#     Node 5, Type 0, BuildingBlock: AZAVOO_clean_sbu_0, # of connection points: 4
#     Node 6, Type 0, BuildingBlock: AZAVOO_clean_sbu_0, # of connection points: 4
#     Node 7, Type 0, BuildingBlock: AZAVOO_clean_sbu_0, # of connection points: 4
#     Node 8, Type 0, BuildingBlock: AZAVOO_clean_sbu_0, # of connection points: 4
#     Node 9, Type 0, BuildingBlock: AZAVOO_clean_sbu_0, # of connection points: 4
#     Node 10, Type 0, BuildingBlock: AZAVOO_clean_sbu_0, # of connection points: 4
#     Node 11, Type 0, BuildingBlock: AZAVOO_clean_sbu_0, # of connection points: 4
#     Node 12, Type 0, BuildingBlock: AZAVOO_clean_sbu_0, # of connection points: 4
#     Node 13, Type 0, BuildingBlock: AZAVOO_clean_sbu_0, # of connection points: 4
#     Node 14, Type 0, BuildingBlock: AZAVOO_clean_sbu_0, # of connection points: 4
#     Node 15, Type 0, BuildingBlock: AZAVOO_clean_sbu_0, # of connection points: 4
#     Node 16, Type 0, BuildingBlock: AZAVOO_clean_sbu_0, # of connection points: 4
#     Node 17, Type 0, BuildingBlock: AZAVOO_clean_sbu_0, # of connection points: 4
#     Node 18, Type 0, BuildingBlock: AZAVOO_clean_sbu_0, # of connection points: 4
#     Node 19, Type 0, BuildingBlock: AZAVOO_clean_sbu_0, # of connection points: 4
#     Node 20, Type 0, BuildingBlock: AZAVOO_clean_sbu_0, # of connection points: 4
#     Node 21, Type 0, BuildingBlock: AZAVOO_clean_sbu_0, # of connection points: 4
#     Node 22, Type 0, BuildingBlock: AZAVOO_clean_sbu_0, # of connection points: 4
#     Node 23, Type 0, BuildingBlock: AZAVOO_clean_sbu_0, # of connection points: 4
#     Node 24, Type 0, BuildingBlock: AZAVOO_clean_sbu_0, # of connection points: 4
#     Node 25, Type 0, BuildingBlock: AZAVOO_clean_sbu_0, # of connection points: 4
#     Node 26, Type 0, BuildingBlock: AZAVOO_clean_sbu_0, # of connection points: 4
#     Node 27, Type 0, BuildingBlock: AZAVOO_clean_sbu_0, # of connection points: 4
#     Node 28, Type 0, BuildingBlock: AZAVOO_clean_sbu_0, # of connection points: 4
#     Node 29, Type 0, BuildingBlock: AZAVOO_clean_sbu_0, # of connection points: 4
#     Node 30, Type 0, BuildingBlock: AZAVOO_clean_sbu_0, # of connection points: 4
#     Node 31, Type 0, BuildingBlock: AZAVOO_clean_sbu_0, # of connection points: 4
#     Edge 32, Type (0, 0), BuildingBlock: UVAHIK_clean_linker_0, # of connection points: 2
#     Edge 33, Type (0, 0), BuildingBlock: UVAHIK_clean_linker_0, # of connection points: 2
#     Edge 34, Type (0, 0), BuildingBlock: UVAHIK_clean_linker_0, # of connection points: 2
#     Edge 35, Type (0, 0), BuildingBlock: UVAHIK_clean_linker_0, # of connection points: 2
#     Edge 36, Type (0, 0), BuildingBlock: UVAHIK_clean_linker_0, # of connection points: 2
#     Edge 37, Type (0, 0), BuildingBlock: UVAHIK_clean_linker_0, # of connection points: 2
#     Edge 38, Type (0, 0), BuildingBlock: UVAHIK_clean_linker_0, # of connection points: 2
#     Edge 39, Type (0, 0), BuildingBlock: UVAHIK_clean_linker_0, # of connection points: 2
#     Edge 40, Type (0, 0), BuildingBlock: UVAHIK_clean_linker_0, # of connection points: 2
#     Edge 41, Type (0, 0), BuildingBlock: UVAHIK_clean_linker_0, # of connection points: 2
#     Edge 42, Type (0, 0), BuildingBlock: UVAHIK_clean_linker_0, # of connection points: 2
#     Edge 43, Type (0, 0), BuildingBlock: UVAHIK_clean_linker_0, # of connection points: 2
#     Edge 44, Type (0, 0), BuildingBlock: UVAHIK_clean_linker_0, # of connection points: 2
#     Edge 45, Type (0, 0), BuildingBlock: UVAHIK_clean_linker_0, # of connection points: 2
#     Edge 46, Type (0, 0), BuildingBlock: UVAHIK_clean_linker_0, # of connection points: 2
#     Edge 47, Type (0, 0), BuildingBlock: UVAHIK_clean_linker_0, # of connection points: 2
#     Edge 48, Type (0, 0), BuildingBlock: UVAHIK_clean_linker_0, # of connection points: 2
#     Edge 49, Type (0, 0), BuildingBlock: UVAHIK_clean_linker_0, # of connection points: 2
#     Edge 50, Type (0, 0), BuildingBlock: UVAHIK_clean_linker_0, # of connection points: 2
#     Edge 51, Type (0, 0), BuildingBlock: UVAHIK_clean_linker_0, # of connection points: 2
#     Edge 52, Type (0, 0), BuildingBlock: UVAHIK_clean_linker_0, # of connection points: 2
#     Edge 53, Type (0, 0), BuildingBlock: UVAHIK_clean_linker_0, # of connection points: 2
#     Edge 54, Type (0, 0), BuildingBlock: UVAHIK_clean_linker_0, # of connection points: 2
#     Edge 55, Type (0, 0), BuildingBlock: UVAHIK_clean_linker_0, # of connection points: 2
#     Edge 56, Type (0, 0), BuildingBlock: UVAHIK_clean_linker_0, # of connection points: 2
#     Edge 57, Type (0, 0), BuildingBlock: UVAHIK_clean_linker_0, # of connection points: 2
#     Edge 58, Type (0, 0), BuildingBlock: UVAHIK_clean_linker_0, # of connection points: 2
#     Edge 59, Type (0, 0), BuildingBlock: UVAHIK_clean_linker_0, # of connection points: 2
#     Edge 60, Type (0, 0), BuildingBlock: UVAHIK_clean_linker_0, # of connection points: 2
#     Edge 61, Type (0, 0), BuildingBlock: UVAHIK_clean_linker_0, # of connection points: 2
#     Edge 62, Type (0, 0), BuildingBlock: UVAHIK_clean_linker_0, # of connection points: 2
#     Edge 63, Type (0, 0), BuildingBlock: UVAHIK_clean_linker_0, # of connection points: 2
#     Edge 64, Type (0, 0), BuildingBlock: UVAHIK_clean_linker_0, # of connection points: 2
#     Edge 65, Type (0, 0), BuildingBlock: UVAHIK_clean_linker_0, # of connection points: 2
#     Edge 66, Type (0, 0), BuildingBlock: UVAHIK_clean_linker_0, # of connection points: 2
#     Edge 67, Type (0, 0), BuildingBlock: UVAHIK_clean_linker_0, # of connection points: 2
#     Edge 68, Type (0, 0), BuildingBlock: UVAHIK_clean_linker_0, # of connection points: 2
#     Edge 69, Type (0, 0), BuildingBlock: UVAHIK_clean_linker_0, # of connection points: 2
#     Edge 70, Type (0, 0), BuildingBlock: UVAHIK_clean_linker_0, # of connection points: 2
#     Edge 71, Type (0, 0), BuildingBlock: UVAHIK_clean_linker_0, # of connection points: 2
#     Edge 72, Type (0, 0), BuildingBlock: UVAHIK_clean_linker_0, # of connection points: 2
#     Edge 73, Type (0, 0), BuildingBlock: UVAHIK_clean_linker_0, # of connection points: 2
#     Edge 74, Type (0, 0), BuildingBlock: UVAHIK_clean_linker_0, # of connection points: 2
#     Edge 75, Type (0, 0), BuildingBlock: UVAHIK_clean_linker_0, # of connection points: 2
#     Edge 76, Type (0, 0), BuildingBlock: UVAHIK_clean_linker_0, # of connection points: 2
#     Edge 77, Type (0, 0), BuildingBlock: UVAHIK_clean_linker_0, # of connection points: 2
#     Edge 78, Type (0, 0), BuildingBlock: UVAHIK_clean_linker_0, # of connection points: 2
#     Edge 79, Type (0, 0), BuildingBlock: UVAHIK_clean_linker_0, # of connection points: 2
#     Edge 80, Type (0, 0), BuildingBlock: UVAHIK_clean_linker_0, # of connection points: 2
#     Edge 81, Type (0, 0), BuildingBlock: UVAHIK_clean_linker_0, # of connection points: 2
#     Edge 82, Type (0, 0), BuildingBlock: UVAHIK_clean_linker_0, # of connection points: 2
#     Edge 83, Type (0, 0), BuildingBlock: UVAHIK_clean_linker_0, # of connection points: 2
#     Edge 84, Type (0, 0), BuildingBlock: UVAHIK_clean_linker_0, # of connection points: 2
#     Edge 85, Type (0, 0), BuildingBlock: UVAHIK_clean_linker_0, # of connection points: 2
#     Edge 86, Type (0, 0), BuildingBlock: UVAHIK_clean_linker_0, # of connection points: 2
#     Edge 87, Type (0, 0), BuildingBlock: UVAHIK_clean_linker_0, # of connection points: 2
#     Edge 88, Type (0, 0), BuildingBlock: UVAHIK_clean_linker_0, # of connection points: 2
#     Edge 89, Type (0, 0), BuildingBlock: UVAHIK_clean_linker_0, # of connection points: 2
#     Edge 90, Type (0, 0), BuildingBlock: UVAHIK_clean_linker_0, # of connection points: 2
#     Edge 91, Type (0, 0), BuildingBlock: UVAHIK_clean_linker_0, # of connection points: 2
#     Edge 92, Type (0, 0), BuildingBlock: UVAHIK_clean_linker_0, # of connection points: 2
#     Edge 93, Type (0, 0), BuildingBlock: UVAHIK_clean_linker_0, # of connection points: 2
#     Edge 94, Type (0, 0), BuildingBlock: UVAHIK_clean_linker_0, # of connection points: 2
#     Edge 95, Type (0, 0), BuildingBlock: UVAHIK_clean_linker_0, # of connection points: 2
# Relax obj value: 0.063
# Max RMSD: 0.102
# Mean RMSD: 0.102
data_MOF--net-ukc--node1-AZAVOO_clean_sbu_0--edge1-UVAHIK_clean_linker_0
_symmetry_space_group_name_H-M    P1
_symmetry_Int_Tables_number       1
_symmetry_cell_setting            triclinic
loop_
_symmetry_equiv_pos_as_xyz
'x, y, z'
_cell_length_a     58.72038
_cell_length_b     58.757735
_cell_length_c     108.42419
_cell_angle_alpha  89.979896
_cell_angle_beta   89.980537
_cell_angle_gamma 89.979116
loop_
_atom_site_label
_atom_site_type_symbol
_atom_site_fract_x
_atom_site_fract_y
_atom_site_fract_z
_atom_type_partial_charge
Mg0 Mg 0.09426 0.38373 0.03726 0.0
O1 O 0.08145 0.35098 0.02778 0.0
O2 O 0.09851 0.32192 0.03737 0.0
Mg3 Mg 0.12217 0.33534 0.05227 0.0
C4 C 0.08487 0.32964 0.02921 0.0
C5 C 0.07343 0.42559 0.02595 0.0
O6 O 0.07822 0.43124 0.03739 0.0
O7 O 0.12848 0.38126 0.02735 0.0
O8 O 0.1443 0.35217 0.03752 0.0
O9 O 0.0663 0.38102 0.0511 0.0
O10 O 0.10034 0.36557 0.05341 0.0
C11 C 0.14513 0.36776 0.02933 0.0
C12 C 0.07991 0.36829 0.05748 0.0
O13 O 0.07879 0.40579 0.02223 0.0
Mg14 Mg 0.85949 0.84249 0.28485 0.0
O15 O 0.89166 0.82649 0.27615 0.0
O16 O 0.92155 0.84425 0.2846 0.0
Mg17 Mg 0.90924 0.87146 0.29794 0.0
C18 C 0.91315 0.82934 0.27733 0.0
C19 C 0.83667 0.80378 0.26995 0.0
O20 O 0.8515 0.79217 0.27649 0.0
O21 O 0.86357 0.87402 0.27282 0.0
O22 O 0.89369 0.89071 0.28164 0.0
O23 O 0.86093 0.81757 0.30035 0.0
O24 O 0.87849 0.85087 0.30033 0.0
C25 C 0.878 0.89021 0.27349 0.0
C26 C 0.87487 0.83158 0.30561 0.0
O27 O 0.83643 0.82535 0.27082 0.0
Mg28 Mg 0.40531 0.62095 0.53461 0.0
O29 O 0.41916 0.6534 0.52531 0.0
O30 O 0.40021 0.6828 0.53343 0.0
Mg31 Mg 0.37396 0.66965 0.54712 0.0
C32 C 0.41533 0.67476 0.52618 0.0
C33 C 0.42367 0.57746 0.52304 0.0
O34 O 0.41171 0.57004 0.53247 0.0
O35 O 0.37319 0.6221 0.52284 0.0
O36 O 0.35512 0.6516 0.53146 0.0
O37 O 0.43041 0.62528 0.54982 0.0
O38 O 0.39568 0.63976 0.54998 0.0
C39 C 0.35611 0.63549 0.52357 0.0
C40 C 0.4153 0.63792 0.55518 0.0
O41 O 0.42398 0.59869 0.52082 0.0
Mg42 Mg 0.63092 0.15352 0.78712 0.0
O43 O 0.59882 0.16591 0.77682 0.0
O44 O 0.56922 0.14838 0.78571 0.0
Mg45 Mg 0.58164 0.12503 0.80106 0.0
C46 C 0.57741 0.16217 0.77775 0.0
C47 C 0.67402 0.17375 0.77666 0.0
O48 O 0.67899 0.16893 0.78819 0.0
O49 O 0.62964 0.11921 0.77727 0.0
O50 O 0.60017 0.10297 0.7869 0.0
O51 O 0.62679 0.18164 0.80081 0.0
O52 O 0.61108 0.14758 0.80259 0.0
C53 C 0.61639 0.1023 0.77906 0.0
C54 C 0.61312 0.16808 0.80661 0.0
O55 O 0.65431 0.16879 0.77264 0.0
Mg56 Mg 0.09948 0.60864 0.44563 0.0
O57 O 0.086 0.64156 0.45463 0.0
O58 O 0.10464 0.67059 0.44589 0.0
Mg59 Mg 0.13117 0.65669 0.43259 0.0
C60 C 0.08968 0.66289 0.45335 0.0
C61 C 0.05933 0.58733 0.46022 0.0
O62 O 0.0483 0.60197 0.45328 0.0
O63 O 0.1315 0.61014 0.45744 0.0
O64 O 0.14936 0.63989 0.4489 0.0
O65 O 0.07427 0.61323 0.43043 0.0
O66 O 0.10934 0.62688 0.43016 0.0
C67 C 0.14825 0.62395 0.45689 0.0
C68 C 0.08957 0.62565 0.42509 0.0
O69 O 0.08095 0.58674 0.4597 0.0
Mg70 Mg 0.63012 0.84943 0.69915 0.0
O71 O 0.59819 0.83362 0.70812 0.0
O72 O 0.56841 0.85503 0.70257 0.0
Mg73 Mg 0.58101 0.88492 0.69115 0.0
C74 C 0.57683 0.83789 0.70819 0.0
C75 C 0.67235 0.82185 0.70599 0.0
O76 O 0.67791 0.83079 0.69529 0.0
O77 O 0.63091 0.87748 0.71358 0.0
O78 O 0.60065 0.89817 0.70793 0.0
O79 O 0.62394 0.82924 0.68218 0.0
O80 O 0.6099 0.86367 0.68535 0.0
C81 C 0.61763 0.89447 0.71501 0.0
C82 C 0.61095 0.84573 0.67853 0.0
O83 O 0.65306 0.82663 0.71063 0.0
Mg84 Mg 0.4012 0.38544 0.95153 0.0
O85 O 0.41749 0.35244 0.95899 0.0
O86 O 0.3966 0.32343 0.95191 0.0
Mg87 Mg 0.36683 0.33735 0.94083 0.0
C88 C 0.4135 0.33112 0.95803 0.0
C89 C 0.42756 0.4268 0.96012 0.0
O90 O 0.41854 0.43314 0.94957 0.0
O91 O 0.37279 0.38319 0.96573 0.0
O92 O 0.35261 0.35392 0.95835 0.0
O93 O 0.42179 0.38279 0.93438 0.0
O94 O 0.38767 0.36746 0.93667 0.0
C95 C 0.35588 0.36961 0.9663 0.0
C96 C 0.4056 0.37025 0.92998 0.0
O97 O 0.42327 0.40696 0.96416 0.0
Mg98 Mg 0.86955 0.1502 0.19838 0.0
O99 O 0.90191 0.16497 0.20739 0.0
O100 O 0.93154 0.14724 0.19865 0.0
Mg101 Mg 0.9188 0.12124 0.18471 0.0
C102 C 0.92336 0.16181 0.20619 0.0
C103 C 0.82693 0.17147 0.20889 0.0
O104 O 0.82123 0.16523 0.19767 0.0
O105 O 0.87279 0.11768 0.2097 0.0
O106 O 0.90236 0.10095 0.20038 0.0
O107 O 0.87155 0.1761 0.18336 0.0
O108 O 0.88834 0.14241 0.18273 0.0
C109 C 0.88668 0.1011 0.20854 0.0
C110 C 0.88507 0.16207 0.17779 0.0
O111 O 0.84691 0.16706 0.21269 0.0
Mg112 Mg 0.90262 0.61709 0.94707 0.0
O113 O 0.91813 0.64893 0.95621 0.0
O114 O 0.89824 0.67901 0.94955 0.0
Mg115 Mg 0.8696 0.66672 0.9371 0.0
C116 C 0.9144 0.67038 0.9559 0.0
C117 C 0.9303 0.57555 0.95508 0.0
O118 O 0.92509 0.57075 0.94358 0.0
O119 O 0.87275 0.61789 0.96043 0.0
O120 O 0.85367 0.64835 0.95361 0.0
O121 O 0.92524 0.62183 0.93082 0.0
O122 O 0.89101 0.63723 0.93257 0.0
C123 C 0.85599 0.63166 0.96104 0.0
C124 C 0.90977 0.63534 0.92648 0.0
O125 O 0.92309 0.59405 0.95973 0.0
Mg126 Mg 0.13183 0.14606 0.69729 0.0
O127 O 0.09986 0.16129 0.70652 0.0
O128 O 0.06987 0.14224 0.69908 0.0
Mg129 Mg 0.0822 0.11457 0.68601 0.0
C130 C 0.07838 0.1578 0.70588 0.0
C131 C 0.17546 0.16745 0.70704 0.0
O132 O 0.18188 0.15814 0.69658 0.0
O133 O 0.13026 0.11508 0.70984 0.0
O134 O 0.09996 0.09689 0.70218 0.0
O135 O 0.12794 0.17023 0.68166 0.0
O136 O 0.11193 0.13617 0.68236 0.0
C137 C 0.1164 0.09837 0.70984 0.0
C138 C 0.1142 0.15549 0.67685 0.0
O139 O 0.15495 0.16501 0.71053 0.0
Mg140 Mg 0.59245 0.38326 0.44677 0.0
O141 O 0.57981 0.34986 0.45545 0.0
O142 O 0.59841 0.32159 0.44599 0.0
Mg143 Mg 0.62267 0.33647 0.43167 0.0
C144 C 0.58393 0.32868 0.45391 0.0
C145 C 0.57691 0.42553 0.46036 0.0
O146 O 0.58898 0.43346 0.4511 0.0
O147 O 0.62576 0.38078 0.45741 0.0
O148 O 0.6437 0.35341 0.44691 0.0
O149 O 0.56563 0.38093 0.43232 0.0
O150 O 0.60006 0.36614 0.4305 0.0
C151 C 0.64327 0.36842 0.45543 0.0
C152 C 0.57992 0.36883 0.42602 0.0
O153 O 0.57555 0.40412 0.46181 0.0
Mg154 Mg 0.36727 0.84544 0.19986 0.0
O155 O 0.39918 0.82952 0.20882 0.0
O156 O 0.42929 0.84756 0.20078 0.0
Mg157 Mg 0.41732 0.87487 0.18739 0.0
C158 C 0.4207 0.8325 0.2079 0.0
C159 C 0.32349 0.82544 0.2099 0.0
O160 O 0.31751 0.83457 0.19931 0.0
O161 O 0.37044 0.87694 0.21203 0.0
O162 O 0.4006 0.89389 0.20341 0.0
O163 O 0.36951 0.82084 0.18424 0.0
O164 O 0.38666 0.85434 0.18457 0.0
C165 C 0.38466 0.89333 0.21141 0.0
C166 C 0.38332 0.83517 0.17911 0.0
O167 O 0.34398 0.82755 0.21348 0.0
Mg168 Mg 0.89935 0.38439 0.53484 0.0
O169 O 0.91209 0.35084 0.52635 0.0
O170 O 0.89345 0.32265 0.53584 0.0
Mg171 Mg 0.8685 0.33769 0.54977 0.0
C172 C 0.9081 0.32967 0.528 0.0
C173 C 0.93838 0.40431 0.51893 0.0
O174 O 0.94977 0.39003 0.52592 0.0
O175 O 0.86632 0.38202 0.52386 0.0
O176 O 0.84826 0.35446 0.53417 0.0
O177 O 0.92558 0.38122 0.54974 0.0
O178 O 0.89064 0.36753 0.55095 0.0
C179 C 0.84887 0.36946 0.52565 0.0
C180 C 0.91058 0.36944 0.55572 0.0
O181 O 0.91682 0.40512 0.51988 0.0
Mg182 Mg 0.36399 0.15379 0.28624 0.0
O183 O 0.39807 0.16649 0.27822 0.0
O184 O 0.42584 0.14786 0.2881 0.0
Mg185 Mg 0.41003 0.12219 0.30128 0.0
C186 C 0.41918 0.16258 0.28022 0.0
C187 C 0.32265 0.17203 0.27299 0.0
O188 O 0.31438 0.16047 0.28235 0.0
O189 O 0.36647 0.12127 0.27489 0.0
O190 O 0.39477 0.10334 0.28474 0.0
O191 O 0.36683 0.1795 0.3013 0.0
O192 O 0.38016 0.14437 0.30241 0.0
C193 C 0.37983 0.1043 0.27619 0.0
C194 C 0.37828 0.16424 0.30728 0.0
O195 O 0.34407 0.17223 0.27134 0.0
Mg196 Mg 0.59781 0.6204 0.03627 0.0
O197 O 0.58478 0.65293 0.02666 0.0
O198 O 0.60244 0.68221 0.0357 0.0
Mg199 Mg 0.62693 0.66903 0.05029 0.0
C200 C 0.58832 0.67429 0.02784 0.0
C201 C 0.57944 0.57726 0.02473 0.0
O202 O 0.5878 0.5706 0.03538 0.0
O203 O 0.63144 0.62216 0.0258 0.0
O204 O 0.64808 0.65149 0.03534 0.0
O205 O 0.57058 0.62411 0.05043 0.0
O206 O 0.60497 0.63904 0.0521 0.0
C207 C 0.64831 0.63557 0.02733 0.0
C208 C 0.58466 0.63693 0.05643 0.0
O209 O 0.58146 0.59805 0.02168 0.0
Mg210 Mg 0.12826 0.83965 0.78578 0.0
O211 O 0.09568 0.82636 0.77637 0.0
O212 O 0.06635 0.84483 0.78491 0.0
Mg213 Mg 0.07966 0.87062 0.7988 0.0
C214 C 0.07431 0.8301 0.7774 0.0
C215 C 0.17076 0.81758 0.77568 0.0
O216 O 0.17667 0.82533 0.78659 0.0
O217 O 0.12713 0.87225 0.77429 0.0
O218 O 0.09748 0.8897 0.78318 0.0
O219 O 0.12346 0.81407 0.80085 0.0
O220 O 0.10963 0.84903 0.8012 0.0
C221 C 0.11352 0.88914 0.77522 0.0
C222 C 0.11108 0.82931 0.80628 0.0
O223 O 0.15062 0.82125 0.77188 0.0
Mg224 Mg 0.59711 0.88524 0.53397 0.0
O225 O 0.58225 0.85218 0.52582 0.0
O226 O 0.59802 0.82343 0.53631 0.0
Mg227 Mg 0.6227 0.83739 0.55058 0.0
C228 C 0.5846 0.8309 0.52797 0.0
C229 C 0.5817 0.92738 0.52049 0.0
O230 O 0.59068 0.93492 0.53082 0.0
O231 O 0.63075 0.87948 0.52397 0.0
O232 O 0.64538 0.8509 0.53505 0.0
O233 O 0.56948 0.88619 0.54802 0.0
O234 O 0.6025 0.86884 0.55073 0.0
C235 C 0.64671 0.86535 0.52628 0.0
C236 C 0.58241 0.8735 0.55481 0.0
O237 O 0.58246 0.90616 0.51828 0.0
Mg238 Mg 0.36602 0.34497 0.7813 0.0
O239 O 0.39923 0.32878 0.7741 0.0
O240 O 0.42803 0.34767 0.78287 0.0
Mg241 Mg 0.41381 0.37595 0.79496 0.0
C242 C 0.42053 0.332 0.7758 0.0
C243 C 0.32461 0.32234 0.77048 0.0
O244 O 0.31759 0.33127 0.78092 0.0
O245 O 0.37057 0.37534 0.76855 0.0
O246 O 0.39938 0.39357 0.77775 0.0
O247 O 0.36626 0.32186 0.79751 0.0
O248 O 0.38263 0.35573 0.79722 0.0
C249 C 0.38447 0.39197 0.76921 0.0
C250 C 0.37857 0.33703 0.80303 0.0
O251 O 0.34515 0.3255 0.76722 0.0
Mg252 Mg 0.90632 0.11655 0.03279 0.0
O253 O 0.9214 0.14958 0.02465 0.0
O254 O 0.90222 0.17851 0.03314 0.0
Mg255 Mg 0.8746 0.1646 0.04576 0.0
C256 C 0.91779 0.17091 0.02602 0.0
C257 C 0.92558 0.07378 0.02118 0.0
O258 O 0.9135 0.06631 0.03055 0.0
O259 O 0.87535 0.11939 0.02026 0.0
O260 O 0.85704 0.14869 0.02897 0.0
O261 O 0.93014 0.11905 0.04867 0.0
O262 O 0.89569 0.13418 0.04838 0.0
C263 C 0.85858 0.13319 0.02075 0.0
C264 C 0.91483 0.13151 0.05399 0.0
O265 O 0.92575 0.09501 0.01894 0.0
Mg266 Mg 0.12655 0.65412 0.2837 0.0
O267 O 0.09308 0.66634 0.27474 0.0
O268 O 0.0649 0.64694 0.2838 0.0
Mg269 Mg 0.07971 0.6218 0.29759 0.0
C270 C 0.07191 0.66187 0.27613 0.0
C271 C 0.16853 0.67508 0.27266 0.0
O272 O 0.17525 0.66568 0.28304 0.0
O273 O 0.12594 0.62133 0.27236 0.0
O274 O 0.09748 0.60305 0.28186 0.0
O275 O 0.12186 0.6797 0.29879 0.0
O276 O 0.10903 0.6444 0.29942 0.0
C277 C 0.11304 0.60398 0.27364 0.0
C278 C 0.11024 0.66416 0.30446 0.0
O279 O 0.14782 0.67291 0.26947 0.0
Mg280 Mg 0.59742 0.12043 0.94724 0.0
O281 O 0.58315 0.15301 0.9563 0.0
O282 O 0.60076 0.18236 0.94728 0.0
Mg283 Mg 0.62652 0.16926 0.93335 0.0
C284 C 0.58632 0.1744 0.95496 0.0
C285 C 0.57858 0.07738 0.95869 0.0
O286 O 0.58776 0.07055 0.94827 0.0
O287 O 0.63029 0.12312 0.95836 0.0
O288 O 0.6468 0.15271 0.94896 0.0
O289 O 0.57114 0.12328 0.93251 0.0
O290 O 0.60538 0.13874 0.93141 0.0
C291 C 0.64684 0.13702 0.95711 0.0
C292 C 0.58542 0.13618 0.92669 0.0
O293 O 0.5803 0.09823 0.96166 0.0
Mg294 Mg 0.12831 0.34508 0.19842 0.0
O295 O 0.09646 0.33094 0.20826 0.0
O296 O 0.06658 0.35088 0.20137 0.0
Mg297 Mg 0.07898 0.37822 0.18811 0.0
C298 C 0.07507 0.33506 0.20802 0.0
C299 C 0.17257 0.32472 0.2085 0.0
O300 O 0.17968 0.33616 0.19882 0.0
O301 O 0.12865 0.37609 0.21097 0.0
O302 O 0.09835 0.39517 0.20395 0.0
O303 O 0.12253 0.32112 0.18286 0.0
O304 O 0.10778 0.35573 0.18389 0.0
C305 C 0.11527 0.39318 0.21126 0.0
C306 C 0.10901 0.33638 0.17833 0.0
O307 O 0.15155 0.32537 0.21128 0.0
Mg308 Mg 0.90639 0.87395 0.45031 0.0
O309 O 0.92212 0.84126 0.45847 0.0
O310 O 0.90244 0.81205 0.45066 0.0
Mg311 Mg 0.874 0.82546 0.43843 0.0
C312 C 0.91846 0.8199 0.45739 0.0
C313 C 0.92746 0.9169 0.46033 0.0
O314 O 0.91637 0.92335 0.4504 0.0
O315 O 0.87623 0.87149 0.4634 0.0
O316 O 0.85732 0.84197 0.45534 0.0
O317 O 0.92921 0.87104 0.43403 0.0
O318 O 0.89485 0.85581 0.43512 0.0
C319 C 0.85941 0.85775 0.46336 0.0
C320 C 0.91361 0.8584 0.42911 0.0
O321 O 0.92647 0.89613 0.46355 0.0
Mg322 Mg 0.36839 0.65447 0.69718 0.0
O323 O 0.4011 0.66842 0.7063 0.0
O324 O 0.43032 0.65129 0.69682 0.0
Mg325 Mg 0.41715 0.62647 0.6824 0.0
C326 C 0.42249 0.66527 0.70478 0.0
C327 C 0.32549 0.67348 0.70849 0.0
O328 O 0.3194 0.6664 0.69748 0.0
O329 O 0.37183 0.621 0.70774 0.0
O330 O 0.4012 0.60517 0.69778 0.0
O331 O 0.37025 0.68165 0.68281 0.0
O332 O 0.38686 0.64796 0.68129 0.0
C333 C 0.38578 0.60461 0.70608 0.0
C334 C 0.38375 0.66808 0.6769 0.0
O335 O 0.34594 0.67033 0.71194 0.0
Mg336 Mg 0.40181 0.11944 0.44973 0.0
O337 O 0.41668 0.15164 0.45878 0.0
O338 O 0.39726 0.18138 0.45135 0.0
Mg339 Mg 0.36911 0.1685 0.43874 0.0
C340 C 0.41306 0.17306 0.45808 0.0
C341 C 0.42541 0.07672 0.4586 0.0
O342 O 0.41565 0.07065 0.4482 0.0
O343 O 0.37122 0.12022 0.46266 0.0
O344 O 0.3526 0.15052 0.45523 0.0
O345 O 0.42514 0.12471 0.43381 0.0
O346 O 0.39019 0.1386 0.43494 0.0
C347 C 0.35446 0.13407 0.46286 0.0
C348 C 0.40929 0.13739 0.42916 0.0
O349 O 0.42237 0.09685 0.46254 0.0
Mg350 Mg 0.62566 0.65247 0.19613 0.0
O351 O 0.59362 0.6648 0.20649 0.0
O352 O 0.56387 0.64765 0.19757 0.0
Mg353 Mg 0.57616 0.62446 0.18211 0.0
C354 C 0.57219 0.66122 0.20559 0.0
C355 C 0.64841 0.68868 0.21265 0.0
O356 O 0.63301 0.70091 0.20686 0.0
O357 O 0.6241 0.61805 0.20585 0.0
O358 O 0.59451 0.60206 0.19622 0.0
O359 O 0.62176 0.68072 0.18247 0.0
O360 O 0.60577 0.64683 0.18062 0.0
C361 C 0.61073 0.60125 0.20404 0.0
C362 C 0.60802 0.66733 0.17662 0.0
O363 O 0.6491 0.66735 0.21074 0.0
Mg364 Mg 0.09701 0.87716 0.94775 0.0
O365 O 0.08396 0.84424 0.9569 0.0
O366 O 0.10225 0.81526 0.94791 0.0
Mg367 Mg 0.1279 0.82914 0.9341 0.0
C368 C 0.08764 0.82292 0.95559 0.0
C369 C 0.07929 0.92017 0.95983 0.0
O370 O 0.09108 0.92753 0.95033 0.0
O371 O 0.12981 0.87572 0.95904 0.0
O372 O 0.14715 0.84632 0.94987 0.0
O373 O 0.07108 0.87273 0.93285 0.0
O374 O 0.10613 0.85909 0.9321 0.0
C375 C 0.14666 0.86211 0.95796 0.0
C376 C 0.08622 0.86053 0.92723 0.0
O377 O 0.07882 0.89891 0.96199 0.0
Mg378 Mg 0.86998 0.34081 0.69875 0.0
O379 O 0.90303 0.32718 0.70751 0.0
O380 O 0.93184 0.34749 0.69969 0.0
Mg381 Mg 0.91749 0.37514 0.68721 0.0
C382 C 0.9243 0.33151 0.70655 0.0
C383 C 0.82971 0.31307 0.70729 0.0
O384 O 0.82476 0.31897 0.69591 0.0
O385 O 0.8702 0.37142 0.71161 0.0
O386 O 0.89961 0.39108 0.70391 0.0
O387 O 0.87546 0.31767 0.68273 0.0
O388 O 0.88819 0.35303 0.68377 0.0
C389 C 0.88347 0.38862 0.7117 0.0
C390 C 0.88736 0.33398 0.67794 0.0
O391 O 0.84839 0.31985 0.71192 0.0
Mg392 Mg 0.40539 0.8841 0.03409 0.0
O393 O 0.42081 0.85128 0.02593 0.0
O394 O 0.40202 0.82204 0.03433 0.0
Mg395 Mg 0.3742 0.83562 0.04695 0.0
C396 C 0.41749 0.82991 0.02724 0.0
C397 C 0.42689 0.9265 0.02334 0.0
O398 O 0.41721 0.93352 0.03359 0.0
O399 O 0.37447 0.88104 0.02156 0.0
O400 O 0.35646 0.85151 0.0302 0.0
O401 O 0.42918 0.88175 0.05001 0.0
O402 O 0.39488 0.8663 0.04966 0.0
C403 C 0.35784 0.86709 0.02202 0.0
C404 C 0.41396 0.86915 0.0553 0.0
O405 O 0.42468 0.90576 0.02025 0.0
Mg406 Mg 0.86392 0.65042 0.78291 0.0
O407 O 0.89684 0.66455 0.77419 0.0
O408 O 0.92587 0.64744 0.78378 0.0
Mg409 Mg 0.91221 0.62245 0.79798 0.0
C410 C 0.91819 0.66149 0.77582 0.0
C411 C 0.82162 0.66914 0.77069 0.0
O412 O 0.81454 0.66153 0.78143 0.0
O413 O 0.86759 0.61706 0.77233 0.0
O414 O 0.89655 0.60109 0.78255 0.0
O415 O 0.86536 0.67732 0.79739 0.0
O416 O 0.88137 0.64345 0.79918 0.0
C417 C 0.88135 0.60057 0.77414 0.0
C418 C 0.878 0.66347 0.80366 0.0
O419 O 0.84244 0.6665 0.76783 0.0
Mg420 Mg 0.09151 0.11958 0.53342 0.0
O421 O 0.07617 0.15182 0.52456 0.0
O422 O 0.09336 0.18148 0.53348 0.0
Mg423 Mg 0.11942 0.16892 0.54743 0.0
C424 C 0.07894 0.17327 0.52588 0.0
C425 C 0.07511 0.07597 0.5217 0.0
O426 O 0.08554 0.06942 0.53182 0.0
O427 O 0.12425 0.12327 0.52228 0.0
O428 O 0.14039 0.15277 0.53193 0.0
O429 O 0.06543 0.1212 0.54833 0.0
O430 O 0.09913 0.13779 0.54933 0.0
C431 C 0.14071 0.13723 0.52371 0.0
C432 C 0.07945 0.13426 0.55421 0.0
O433 O 0.07503 0.09701 0.51899 0.0
Mg434 Mg 0.63122 0.34576 0.282 0.0
O435 O 0.59929 0.32922 0.27342 0.0
O436 O 0.56934 0.34971 0.2797 0.0
Mg437 Mg 0.58161 0.37939 0.29136 0.0
C438 C 0.57783 0.33297 0.27377 0.0
C439 C 0.67334 0.31884 0.27461 0.0
O440 O 0.67824 0.32615 0.28575 0.0
O441 O 0.63019 0.37452 0.26795 0.0
O442 O 0.59981 0.39408 0.27447 0.0
O443 O 0.62683 0.32447 0.29875 0.0
O444 O 0.61123 0.35844 0.29633 0.0
C445 C 0.6164 0.39121 0.26702 0.0
C446 C 0.61328 0.34015 0.30281 0.0
O447 O 0.65438 0.32443 0.26985 0.0
C448 C 0.95237 0.5393 0.95716 0.0
C449 C 0.94491 0.55995 0.9623 0.0
C450 C 0.96657 0.52474 0.96384 0.0
C451 C 0.98529 0.5115 -0.00443 0.0
H452 H 0.03554 0.4813 0.97906 0.0
C453 C 0.05401 0.4629 0.02256 0.0
C454 C 0.06052 0.44147 0.018 0.0
C455 C 0.04051 0.47743 0.01548 0.0
C456 C 0.02145 0.48945 0.98377 0.0
H457 H 0.94651 0.58152 0.97851 0.0
H458 H 0.97149 0.55624 0.99012 0.0
H459 H 0.01052 0.5065 0.96736 0.0
H460 H 0.05845 0.41875 0.00228 0.0
H461 H 0.03476 0.44421 0.98989 0.0
H462 H 0.99625 0.49454 0.01198 0.0
C463 C 0.96611 0.55114 0.98098 0.0
C464 C 0.0071 0.50386 0.97707 0.0
C465 C 0.95187 0.56569 0.9743 0.0
C466 C 0.05372 0.43515 0.00605 0.0
C467 C 0.04023 0.44975 -0.00106 0.0
C468 C -0.00035 0.49715 0.00226 0.0
C469 C 0.97366 0.53051 0.97582 0.0
C470 C 0.98887 0.51509 0.9829 0.0
C471 C 0.03322 0.47092 0.00366 0.0
C472 C 0.01793 0.48602 -0.00355 0.0
H473 H 0.94727 0.53433 0.94795 0.0
H474 H 0.9718 0.50884 0.95966 0.0
H475 H 0.97118 0.51956 0.00029 0.0
H476 H 0.05905 0.46837 0.0317 0.0
H477 H 0.03573 0.49379 0.01929 0.0
C478 C 0.66698 0.72381 0.22092 0.0
C479 C 0.66643 0.69997 0.21996 0.0
C480 C 0.68522 0.7347 0.2267 0.0
C481 C 0.74557 0.72568 0.23467 0.0
H482 H 0.73697 0.77955 0.25478 0.0
C483 C 0.81818 0.76789 0.26256 0.0
C484 C 0.8187 0.7918 0.26292 0.0
C485 C 0.79997 0.75651 0.25701 0.0
C486 C 0.73966 0.76468 0.24906 0.0
H487 H 0.68416 0.6688 0.22478 0.0
H488 H 0.71583 0.68781 0.23504 0.0
H489 H 0.70388 0.7597 0.24652 0.0
H490 H 0.80094 0.82251 0.25733 0.0
H491 H 0.76929 0.80263 0.24758 0.0
H492 H 0.78137 0.73066 0.23725 0.0
C493 C 0.70236 0.69811 0.2311 0.0
C494 C 0.7207 0.75328 0.24435 0.0
C495 C 0.68412 0.6872 0.2253 0.0
C496 C 0.80102 0.80408 0.25726 0.0
C497 C 0.78279 0.79269 0.25175 0.0
C498 C 0.76453 0.73706 0.2394 0.0
C499 C 0.70331 0.72199 0.23168 0.0
C500 C 0.72342 0.73368 0.23706 0.0
C501 C 0.78188 0.76879 0.25174 0.0
C502 C 0.76179 0.75673 0.24661 0.0
H503 H 0.65365 0.73416 0.2169 0.0
H504 H 0.68551 0.75313 0.22689 0.0
H505 H 0.74829 0.71086 0.22891 0.0
H506 H 0.83153 0.75792 0.26683 0.0
H507 H 0.7997 0.73808 0.25722 0.0
C508 C 0.56393 0.46477 0.46583 0.0
C509 C 0.56309 0.4412 0.46798 0.0
C510 C 0.54929 0.47949 0.47209 0.0
C511 C 0.51163 0.48427 0.49923 0.0
H512 H 0.48177 0.53082 0.47966 0.0
C513 C 0.43782 0.53817 0.51857 0.0
C514 C 0.43818 0.56159 0.51595 0.0
C515 C 0.45273 0.52332 0.51257 0.0
C516 C 0.49013 0.51808 0.48528 0.0
H517 H 0.54675 0.41467 0.47873 0.0
H518 H 0.52109 0.44042 0.48964 0.0
H519 H 0.50928 0.50544 0.46996 0.0
H520 H 0.45414 0.58774 0.50477 0.0
H521 H 0.48031 0.56185 0.49438 0.0
H522 H 0.49251 0.49696 0.51456 0.0
C523 C 0.53318 0.4475 0.48315 0.0
C524 C 0.50592 0.50355 0.47973 0.0
C525 C 0.54783 0.43275 0.47687 0.0
C526 C 0.45339 0.56977 0.50697 0.0
C527 C 0.46834 0.55491 0.50099 0.0
C528 C 0.49586 0.49884 0.50479 0.0
C529 C 0.53348 0.47099 0.48066 0.0
C530 C 0.51687 0.48651 0.48664 0.0
C531 C 0.46836 0.53155 0.50383 0.0
C532 C 0.48493 0.51592 0.49788 0.0
H533 H 0.57559 0.47186 0.4591 0.0
H534 H 0.55023 0.49755 0.47014 0.0
H535 H 0.51997 0.47148 0.50483 0.0
H536 H 0.42622 0.53129 0.52539 0.0
H537 H 0.45203 0.50536 0.51481 0.0
C538 C 0.81936 0.29113 0.72636 0.0
C539 C 0.81392 0.29843 0.71437 0.0
C540 C 0.80445 0.27699 0.73288 0.0
C541 C 0.7443 0.25893 0.7341 0.0
H542 H 0.76804 0.208 0.75287 0.0
C543 C 0.68511 0.19262 0.75678 0.0
C544 C 0.69064 0.18606 0.76887 0.0
C545 C 0.70046 0.2054 0.74975 0.0
C546 C 0.76116 0.22227 0.74776 0.0
H547 H 0.78856 0.29662 0.69984 0.0
H548 H 0.76272 0.27192 0.71117 0.0
H549 H 0.79421 0.23264 0.7416 0.0
H550 H 0.71682 0.18737 0.78299 0.0
H551 H 0.74339 0.20978 0.7708 0.0
H552 H 0.71128 0.24869 0.74032 0.0
C553 C 0.77836 0.2773 0.71559 0.0
C554 C 0.77616 0.2364 0.74132 0.0
C555 C 0.79325 0.29137 0.70907 0.0
C556 C 0.71201 0.19212 0.77369 0.0
C557 C 0.72733 0.20488 0.76668 0.0
C558 C 0.72931 0.24482 0.74055 0.0
C559 C 0.78379 0.26992 0.72756 0.0
C560 C 0.76789 0.25491 0.73443 0.0
C561 C 0.72166 0.21185 0.75467 0.0
C562 C 0.73756 0.22636 0.74748 0.0
H563 H 0.83514 0.2963 0.7307 0.0
H564 H 0.80899 0.2718 0.74214 0.0
H565 H 0.73743 0.27325 0.72902 0.0
H566 H 0.66881 0.18815 0.75278 0.0
H567 H 0.69571 0.21024 0.74046 0.0
C568 C 0.93856 0.43817 0.50487 0.0
C569 C 0.95063 0.42133 0.51136 0.0
C570 C 0.95016 0.45578 0.4989 0.0
C571 C 0.0068 0.47332 0.4873 0.0
H572 H 0.98298 0.53433 0.49185 0.0
C573 C 0.0585 0.55273 0.47373 0.0
C574 C 0.04673 0.56987 0.46731 0.0
C575 C 0.04664 0.5349 0.47934 0.0
C576 C 0.98973 0.51739 0.49039 0.0
H577 H 0.98437 0.40926 0.51625 0.0
H578 H 0.00455 0.44003 0.50591 0.0
H579 H 0.96239 0.50192 0.50038 0.0
H580 H 0.01321 0.58215 0.46213 0.0
H581 H 0.99256 0.55101 0.47188 0.0
H582 H 0.03418 0.4888 0.47734 0.0
C583 C 0.98614 0.43957 0.50537 0.0
C584 C 0.97791 0.4988 0.49525 0.0
C585 C 0.97455 0.42197 0.51134 0.0
C586 C 0.02281 0.56923 0.467 0.0
C587 C 0.01095 0.55141 0.47263 0.0
C588 C 0.01863 0.4919 0.48245 0.0
C589 C 0.97406 0.45691 0.49928 0.0
C590 C 0.98632 0.47656 0.49378 0.0
C591 C 0.02276 0.53384 0.47868 0.0
C592 C 0.01026 0.51415 0.48396 0.0
H593 H 0.92012 0.43811 0.50465 0.0
H594 H 0.94038 0.46866 0.4941 0.0
H595 H 0.01358 0.45638 0.48587 0.0
H596 H 0.07692 0.55277 0.47419 0.0
H597 H 0.05621 0.52184 0.48413 0.0
C598 C 0.68129 0.79447 0.72306 0.0
C599 C 0.68797 0.80578 0.71222 0.0
C600 C 0.69583 0.77876 0.72869 0.0
C601 C 0.75612 0.76203 0.73092 0.0
H602 H 0.73145 0.70523 0.74331 0.0
C603 C 0.81381 0.69223 0.75167 0.0
C604 C 0.80602 0.68224 0.76267 0.0
C605 C 0.79937 0.70605 0.74465 0.0
C606 C 0.73857 0.72108 0.73998 0.0
H607 H 0.71523 0.80958 0.69885 0.0
H608 H 0.74055 0.78217 0.70869 0.0
H609 H 0.70637 0.73234 0.73302 0.0
H610 H 0.77677 0.67842 0.77474 0.0
H611 H 0.75178 0.70262 0.76261 0.0
H612 H 0.78824 0.75097 0.73804 0.0
C613 C 0.72414 0.78556 0.71287 0.0
C614 C 0.7242 0.73662 0.7341 0.0
C615 C 0.70957 0.80119 0.70721 0.0
C616 C 0.78333 0.68584 0.76631 0.0
C617 C 0.76893 0.69963 0.75931 0.0
C618 C 0.77048 0.74652 0.73683 0.0
C619 C 0.71738 0.77409 0.72363 0.0
C620 C 0.73278 0.75733 0.72959 0.0
C621 C 0.77684 0.71012 0.74848 0.0
C622 C 0.76184 0.72595 0.74152 0.0
H623 H 0.66477 0.79763 0.72716 0.0
H624 H 0.69027 0.77041 0.73707 0.0
H625 H 0.76318 0.77796 0.72767 0.0
H626 H 0.83118 0.68973 0.74859 0.0
H627 H 0.80588 0.71364 0.73626 0.0
C628 C 0.4473 0.46427 0.96228 0.0
C629 C 0.44318 0.44222 0.96679 0.0
C630 C 0.46256 0.4787 0.96829 0.0
C631 C 0.51149 0.4784 0.98951 0.0
H632 H 0.4962 0.54209 -0.00605 0.0
C633 C 0.56314 0.5386 0.0209 0.0
C634 C 0.56616 0.56124 0.01705 0.0
C635 C 0.54915 0.52384 0.01425 0.0
C636 C 0.50089 0.52443 -0.00738 0.0
H637 H 0.45176 0.41808 0.98121 0.0
H638 H 0.47835 0.44342 -0.00824 0.0
H639 H 0.4693 0.51684 0.9837 0.0
H640 H 0.55746 0.58594 0.00294 0.0
H641 H 0.53321 0.56006 0.99123 0.0
H642 H 0.54308 0.486 -0.00154 0.0
C643 C 0.46991 0.44942 0.98349 0.0
C644 C 0.48543 0.50994 0.98678 0.0
C645 C 0.45456 0.43497 0.9775 0.0
C646 C 0.5554 0.56862 0.00619 0.0
C647 C 0.54139 0.55384 -0.00048 0.0
C648 C 0.52697 0.4929 -0.00466 0.0
C649 C 0.47411 0.47143 0.97893 0.0
C650 C 0.49054 0.48676 0.98518 0.0
C651 C 0.53786 0.53138 0.00358 0.0
C652 C 0.52182 0.51608 -0.00301 0.0
H653 H 0.43886 0.47038 0.95404 0.0
H654 H 0.46562 0.49546 0.96446 0.0
H655 H 0.51607 0.46069 0.98824 0.0
H656 H 0.57118 0.53236 0.02924 0.0
H657 H 0.54662 0.50673 0.0177 0.0
C658 C 0.78901 0.18993 0.21195 0.0
C659 C 0.81077 0.18469 0.21653 0.0
C660 C 0.77409 0.20351 0.21876 0.0
C661 C 0.77349 0.24694 0.24321 0.0
H662 H 0.7087 0.23413 0.24386 0.0
C663 C 0.71033 0.29782 0.27335 0.0
C664 C 0.68933 0.30367 0.268 0.0
C665 C 0.72523 0.283 0.26733 0.0
C666 C 0.72672 0.23806 0.24366 0.0
H667 H 0.83378 0.18915 0.23199 0.0
H668 H 0.80758 0.21271 0.24397 0.0
H669 H 0.73445 0.20808 0.23327 0.0
H670 H 0.66758 0.2987 0.25206 0.0
H671 H 0.6937 0.27293 0.24149 0.0
H672 H 0.76573 0.27696 0.25356 0.0
C673 C 0.8022 0.20655 0.23502 0.0
C674 C 0.74148 0.22312 0.23761 0.0
C675 C 0.81714 0.19294 0.22819 0.0
C676 C 0.68361 0.2945 0.25644 0.0
C677 C 0.6985 0.27962 0.25042 0.0
C678 C 0.75873 0.26186 0.24927 0.0
C679 C 0.78057 0.21215 0.23032 0.0
C680 C 0.76501 0.22746 0.23725 0.0
C681 C 0.71944 0.27365 0.25582 0.0
C682 C 0.73517 0.25765 0.24951 0.0
H683 H 0.78356 0.18389 0.20299 0.0
H684 H 0.75769 0.20772 0.21481 0.0
H685 H 0.79147 0.25097 0.24293 0.0
H686 H 0.71524 0.30454 0.28226 0.0
H687 H 0.74112 0.27855 0.27179 0.0
C688 C 0.31715 0.29594 0.75274 0.0
C689 C 0.30925 0.30757 0.76323 0.0
C690 C 0.30285 0.28092 0.74641 0.0
C691 C 0.24224 0.26587 0.74201 0.0
H692 H 0.2664 0.20739 0.7318 0.0
C693 C 0.18406 0.19379 0.72462 0.0
C694 C 0.1914 0.18198 0.71407 0.0
C695 C 0.19874 0.20872 0.73073 0.0
C696 C 0.25946 0.22373 0.73449 0.0
H697 H 0.28003 0.31287 0.77516 0.0
H698 H 0.25524 0.28666 0.76419 0.0
H699 H 0.29142 0.23497 0.74177 0.0
H700 H 0.2201 0.17616 0.70185 0.0
H701 H 0.24562 0.20227 0.71247 0.0
H702 H 0.21028 0.25464 0.73477 0.0
C703 C 0.27238 0.28926 0.76077 0.0
C704 C 0.2738 0.23955 0.74017 0.0
C705 C 0.28666 0.30421 0.7671 0.0
C706 C 0.2139 0.18499 0.70995 0.0
C707 C 0.22858 0.19988 0.71607 0.0
C708 C 0.22791 0.25006 0.73634 0.0
C709 C 0.28036 0.27729 0.75042 0.0
C710 C 0.26533 0.26077 0.74402 0.0
C711 C 0.22108 0.21212 0.72643 0.0
C712 C 0.23634 0.22879 0.73255 0.0
H713 H 0.33446 0.29817 0.74952 0.0
H714 H 0.30939 0.27216 0.73837 0.0
H715 H 0.23527 0.28219 0.7447 0.0
H716 H 0.16685 0.19179 0.72805 0.0
H717 H 0.19258 0.21764 0.7388 0.0
C718 C 0.17712 0.7013 0.25496 0.0
C719 C 0.1845 0.68929 0.26544 0.0
C720 C 0.19203 0.71582 0.24868 0.0
C721 C 0.25326 0.72888 0.24453 0.0
H722 H 0.23111 0.78814 0.23432 0.0
C723 C 0.31391 0.79936 0.22747 0.0
C724 C 0.30706 0.81139 0.2169 0.0
C725 C 0.29872 0.78482 0.23352 0.0
C726 C 0.2375 0.77158 0.23702 0.0
H727 H 0.21343 0.68276 0.27738 0.0
H728 H 0.23926 0.70813 0.26653 0.0
H729 H 0.20507 0.76129 0.2441 0.0
H730 H 0.27871 0.81803 0.20457 0.0
H731 H 0.25231 0.79264 0.21508 0.0
H732 H 0.2857 0.73919 0.23749 0.0
C733 C 0.22206 0.7062 0.26307 0.0
C734 C 0.22257 0.75617 0.24259 0.0
C735 C 0.20719 0.69173 0.26934 0.0
C736 C 0.28454 0.80901 0.2127 0.0
C737 C 0.26936 0.79453 0.21875 0.0
C738 C 0.26819 0.74429 0.23898 0.0
C739 C 0.21462 0.71857 0.25274 0.0
C740 C 0.23029 0.73466 0.24644 0.0
C741 C 0.27634 0.78207 0.22914 0.0
C742 C 0.26049 0.76583 0.23519 0.0
H743 H 0.15975 0.69975 0.25171 0.0
H744 H 0.18587 0.72489 0.24065 0.0
H745 H 0.25968 0.71233 0.24723 0.0
H746 H 0.33112 0.80086 0.23097 0.0
H747 H 0.30451 0.77569 0.24161 0.0
C748 C 0.31622 0.20056 0.25611 0.0
C749 C 0.3074 0.18626 0.26534 0.0
C750 C 0.30187 0.21536 0.24964 0.0
C751 C 0.2469 0.24488 0.25279 0.0
H752 H 0.25235 0.25448 0.21753 0.0
C753 C 0.18052 0.29592 0.22499 0.0
C754 C 0.1885 0.31011 0.21549 0.0
C755 C 0.19539 0.28119 0.23111 0.0
C756 C 0.25081 0.25221 0.22741 0.0
H757 H 0.27649 0.17567 0.27471 0.0
H758 H 0.25153 0.20128 0.26337 0.0
H759 H 0.27758 0.22744 0.2278 0.0
H760 H 0.21847 0.32035 0.20518 0.0
H761 H 0.24446 0.29491 0.21599 0.0
H762 H 0.22022 0.26966 0.25244 0.0
C763 C 0.26957 0.20136 0.26128 0.0
C764 C 0.26523 0.23669 0.23328 0.0
C765 C 0.28387 0.18657 0.26771 0.0
C766 C 0.21175 0.30956 0.21241 0.0
C767 C 0.22663 0.29486 0.21855 0.0
C768 C 0.23253 0.26042 0.24693 0.0
C769 C 0.27845 0.21616 0.25231 0.0
C770 C 0.26335 0.23277 0.24602 0.0
C771 C 0.21859 0.28037 0.2279 0.0
C772 C 0.23424 0.2642 0.23417 0.0
H773 H 0.33428 0.20074 0.25407 0.0
H774 H 0.30923 0.22666 0.24283 0.0
H775 H 0.24531 0.24255 0.26266 0.0
H776 H 0.16269 0.29587 0.22756 0.0
H777 H 0.18859 0.27006 0.23817 0.0
C778 C 0.20906 0.79971 0.77288 0.0
C779 C 0.18692 0.80362 0.76843 0.0
C780 C 0.22406 0.78559 0.76646 0.0
C781 C 0.22506 0.73884 0.74386 0.0
H782 H 0.28887 0.75483 0.74069 0.0
C783 C 0.28686 0.69013 0.71203 0.0
C784 C 0.30925 0.68651 0.71618 0.0
C785 C 0.27185 0.70372 0.71877 0.0
C786 C 0.27116 0.74996 0.74164 0.0
H787 H 0.16329 0.79608 0.75361 0.0
H788 H 0.18962 0.77155 0.74231 0.0
H789 H 0.26292 0.78064 0.7513 0.0
H790 H 0.33325 0.69387 0.73085 0.0
H791 H 0.3069 0.71748 0.7427 0.0
H792 H 0.23329 0.70818 0.73419 0.0
C793 C 0.19524 0.7792 0.75087 0.0
C794 C 0.25628 0.76478 0.7477 0.0
C795 C 0.18022 0.79338 0.7573 0.0
C796 C 0.31614 0.69637 0.72738 0.0
C797 C 0.30109 0.71002 0.73413 0.0
C798 C 0.23994 0.72401 0.73781 0.0
C799 C 0.21728 0.77502 0.75543 0.0
C800 C 0.23305 0.75941 0.74886 0.0
C801 C 0.27885 0.71404 0.72982 0.0
C802 C 0.26316 0.72943 0.73661 0.0
H803 H 0.21476 0.8073 0.78144 0.0
H804 H 0.24082 0.78254 0.77029 0.0
H805 H 0.20734 0.73402 0.74479 0.0
H806 H 0.281 0.68281 0.70344 0.0
H807 H 0.25493 0.70666 0.71512 0.0
C808 C 0.5565 0.9347 0.50223 0.0
C809 C 0.56857 0.94297 0.51248 0.0
C810 C 0.54217 0.94912 0.49551 0.0
C811 C 0.52819 0.00995 0.49007 0.0
H812 H 0.46853 0.98625 0.48171 0.0
C813 C 0.45408 0.06819 0.4751 0.0
C814 C 0.44106 0.06089 0.46498 0.0
C815 C 0.46995 0.05359 0.48057 0.0
C816 C 0.4852 0.99305 0.48387 0.0
H817 H 0.57575 0.97305 0.52342 0.0
H818 H 0.55067 0.99803 0.51182 0.0
H819 H 0.49666 0.96124 0.49119 0.0
H820 H 0.43416 0.0324 0.45281 0.0
H821 H 0.46179 0.00699 0.46234 0.0
H822 H 0.51657 0.04185 0.48289 0.0
C823 C 0.55238 0.9805 0.50887 0.0
C824 C 0.50136 0.9787 0.48925 0.0
C825 C 0.56669 0.96612 0.51557 0.0
C826 C 0.4439 0.03856 0.4606 0.0
C827 C 0.45968 0.02394 0.46609 0.0
C828 C 0.51201 0.02431 0.48471 0.0
C829 C 0.53964 0.97209 0.4989 0.0
C830 C 0.523 0.98702 0.49249 0.0
C831 C 0.47303 0.03137 0.47606 0.0
C832 C 0.49029 0.01605 0.48163 0.0
H833 H 0.55766 0.91697 0.49957 0.0
H834 H 0.53287 0.94221 0.48774 0.0
H835 H 0.54481 0.0168 0.49228 0.0
H836 H 0.45229 0.08529 0.4787 0.0
H837 H 0.47977 0.05968 0.48835 0.0
C838 C 0.06548 0.95956 0.96433 0.0
C839 C 0.06509 0.93617 0.96704 0.0
C840 C 0.05076 0.97455 0.97036 0.0
C841 C 0.01393 0.98064 -0.00221 0.0
H842 H 0.98348 0.02631 0.97789 0.0
C843 C 0.94004 0.03455 0.0169 0.0
C844 C 0.94022 0.05792 0.01414 0.0
C845 C 0.95501 0.01968 0.01096 0.0
C846 C 0.99202 0.01382 0.9836 0.0
H847 H 0.04934 0.91025 0.97846 0.0
H848 H 0.02352 0.93643 0.98894 0.0
H849 H 0.01077 0.00053 0.96829 0.0
H850 H 0.95589 0.08395 0.00277 0.0
H851 H 0.98214 0.05799 -0.00756 0.0
H852 H 0.99516 0.99391 0.0131 0.0
C853 C 0.03535 0.9432 0.98221 0.0
C854 C 0.00768 -0.00094 0.9781 0.0
C855 C 0.0501 0.92818 0.97617 0.0
C856 C 0.9553 0.06603 0.00508 0.0
C857 C 0.97029 0.05113 -0.00086 0.0
C858 C 0.99827 0.9954 0.00329 0.0
C859 C 0.0353 0.96651 0.97924 0.0
C860 C 0.01882 0.9823 0.98514 0.0
C861 C 0.9705 0.02784 0.00212 0.0
C862 C 0.98711 0.01214 -0.00375 0.0
H863 H 0.07691 0.9663 0.95739 0.0
H864 H 0.05145 0.99246 0.96802 0.0
H865 H 0.02245 0.96813 0.0035 0.0
H866 H 0.92855 0.02771 0.02378 0.0
H867 H 0.95445 0.00177 0.0133 0.0
C868 C 0.55258 0.06914 0.97651 0.0
C869 C 0.56475 0.06146 0.96615 0.0
C870 C 0.53809 0.0544 0.9829 0.0
C871 C 0.52489 0.99348 0.98779 0.0
H872 H 0.46535 0.0163 -0.0029 0.0
C873 C 0.4538 0.93431 0.00585 0.0
C874 C 0.44144 0.94214 0.01612 0.0
C875 C 0.46862 0.94888 -0.00044 0.0
C876 C 0.48198 0.00973 -0.00533 0.0
H877 H 0.57173 0.03211 0.9546 0.0
H878 H 0.5464 0.00651 0.9657 0.0
H879 H 0.49248 0.04164 0.98705 0.0
H880 H 0.43461 0.97154 0.02766 0.0
H881 H 0.4605 0.99683 0.01674 0.0
H882 H 0.51438 0.96155 -0.0046 0.0
C883 C 0.54816 0.02386 0.96894 0.0
C884 C 0.49755 0.02426 0.98894 0.0
C885 C 0.56261 0.03858 0.96254 0.0
C886 C 0.44386 0.96495 0.01978 0.0
C887 C 0.45862 0.97951 0.01349 0.0
C888 C 0.50932 0.97894 -0.00648 0.0
C889 C 0.53551 0.03167 0.97909 0.0
C890 C 0.51919 0.01631 0.98544 0.0
C891 C 0.47133 0.97159 0.00338 0.0
C892 C 0.48769 0.9869 -0.00297 0.0
H893 H 0.5539 0.08665 0.97954 0.0
H894 H 0.52882 0.06084 0.9908 0.0
H895 H 0.54152 0.98691 0.98534 0.0
H896 H 0.45228 0.91683 0.00278 0.0
H897 H 0.47795 0.94236 -0.0083 0.0
C898 C 0.04855 0.06651 0.50432 0.0
C899 C 0.0619 0.05937 0.51436 0.0
C900 C 0.03462 0.05102 0.49809 0.0
C901 C 0.02487 0.98944 0.49309 0.0
H902 H 0.96335 0.00869 0.48531 0.0
C903 C 0.95571 0.92623 0.47694 0.0
C904 C 0.94197 0.93331 0.46705 0.0
C905 C 0.97032 0.94163 0.48277 0.0
C906 C 0.98054 0.00312 0.48731 0.0
H907 H 0.0716 0.03023 0.52549 0.0
H908 H 0.04724 0.00334 0.5147 0.0
H909 H 0.98969 0.03554 0.49478 0.0
H910 H 0.93251 0.96219 0.45566 0.0
H911 H 0.95802 0.98892 0.46577 0.0
H912 H 0.01566 0.95697 0.48566 0.0
C913 C 0.04764 0.02084 0.51156 0.0
C914 C 0.99566 0.01852 0.49271 0.0
C915 C 0.06153 0.03631 0.51779 0.0
C916 C 0.94284 0.95617 0.46326 0.0
C917 C 0.95739 0.97155 0.4691 0.0
C918 C 0.00974 0.97402 0.4877 0.0
C919 C 0.03379 0.02807 0.50175 0.0
C920 C 0.01799 0.01186 0.49567 0.0
C921 C 0.97143 0.96442 0.47885 0.0
C922 C 0.9874 0.98069 0.48476 0.0
H923 H 0.04851 0.08416 0.50142 0.0
H924 H 0.0244 0.05705 0.49044 0.0
H925 H 0.04204 0.98386 0.49512 0.0
H926 H 0.95541 0.90873 0.48009 0.0
H927 H 0.98072 0.9357 0.49037 0.0
C928 C 0.93216 0.2106 0.02337 0.0
C929 C 0.93311 0.18755 0.01995 0.0
C930 C 0.94816 0.22605 0.01892 0.0
C931 C 0.00701 0.227 0.00718 0.0
H932 H 0.99492 0.29182 0.0079 0.0
C933 C 0.07224 0.2898 0.02504 0.0
C934 C 0.07105 0.31307 0.02212 0.0
C935 C 0.05692 0.27439 0.01992 0.0
C936 C 0.99876 0.27383 0.00733 0.0
H937 H 0.95075 0.16301 0.00846 0.0
H938 H 0.9784 0.19023 0.00037 0.0
H939 H 0.96341 0.26531 0.00697 0.0
H940 H 0.054 0.33804 0.01063 0.0
H941 H 0.02758 0.31092 0.00135 0.0
H942 H 0.04236 0.23552 0.00731 0.0
C943 C 0.96562 0.19621 0.00679 0.0
C944 C 0.98056 0.25854 0.00702 0.0
C945 C 0.9497 0.1806 0.01139 0.0
C946 C 0.0552 0.32028 0.01321 0.0
C947 C 0.03996 0.30472 0.00794 0.0
C948 C 0.02521 0.2423 0.0072 0.0
C949 C 0.96544 0.21903 0.01077 0.0
C950 C 0.98443 0.23493 0.00772 0.0
C951 C 0.0401 0.28169 0.01157 0.0
C952 C 0.02132 0.26589 0.00805 0.0
H953 H 0.91965 0.21663 0.02994 0.0
H954 H 0.94759 0.24328 0.02244 0.0
H955 H 0.0108 0.20899 0.00764 0.0
H956 H 0.08426 0.28354 0.03182 0.0
H957 H 0.05749 0.25697 0.02316 0.0
C958 C 0.03171 0.67457 0.27316 0.0
C959 C 0.05469 0.67583 0.2696 0.0
C960 C 0.01579 0.6899 0.2685 0.0
C961 C 0.01392 0.74805 0.25583 0.0
H962 H 0.94917 0.73604 0.25811 0.0
C963 C 0.95247 0.81474 0.27356 0.0
C964 C 0.9291 0.81389 0.27082 0.0
C965 C 0.96741 0.79866 0.2687 0.0
C966 C 0.96712 0.73981 0.2571 0.0
H967 H 0.07854 0.69302 0.25749 0.0
H968 H 0.05051 0.71939 0.24899 0.0
H969 H 0.97568 0.70448 0.2571 0.0
H970 H 0.90337 0.7963 0.2601 0.0
H971 H 0.92967 0.76847 0.2513 0.0
H972 H 0.00534 0.78336 0.25558 0.0
C973 C 0.04495 0.70699 0.25574 0.0
C974 C 0.98243 0.72162 0.25674 0.0
C975 C 0.06103 0.69179 0.26056 0.0
C976 C 0.92124 0.7973 0.2625 0.0
C977 C 0.93633 0.78128 0.2575 0.0
C978 C 0.99859 0.76622 0.2559 0.0
C979 C 0.02227 0.70677 0.25997 0.0
C980 C 0.00608 0.72551 0.25689 0.0
C981 C 0.95953 0.78139 0.2608 0.0
C982 C 0.97508 0.76238 0.25732 0.0
H983 H 0.02613 0.6625 0.28008 0.0
H984 H 0.99869 0.68927 0.27221 0.0
H985 H 0.03194 0.7519 0.25586 0.0
H986 H 0.95921 0.82725 0.27992 0.0
H987 H 0.98497 0.79918 0.27172 0.0
C988 C 0.42914 0.71433 0.52231 0.0
C989 C 0.43027 0.691 0.51953 0.0
C990 C 0.4453 0.7294 0.51764 0.0
C991 C 0.5048 0.72873 0.507 0.0
H992 H 0.49391 0.79377 0.50643 0.0
C993 C 0.57018 0.7913 0.52498 0.0
C994 C 0.57009 0.81426 0.52135 0.0
C995 C 0.5546 0.77596 0.52003 0.0
C996 C 0.49742 0.77569 0.50623 0.0
H997 H 0.44819 0.66555 0.50876 0.0
H998 H 0.47609 0.69206 0.50027 0.0
H999 H 0.46196 0.76776 0.50527 0.0
H1000 H 0.55455 0.83869 0.50893 0.0
H1001 H 0.52761 0.81166 0.5 0.0
H1002 H 0.54026 0.73664 0.50777 0.0
C1003 C 0.46308 0.69858 0.5064 0.0
C1004 C 0.47897 0.7607 0.50578 0.0
C1005 C 0.44701 0.68338 0.51122 0.0
C1006 C 0.55491 0.82118 0.51204 0.0
C1007 C 0.53939 0.80569 0.50696 0.0
C1008 C 0.52326 0.7437 0.50718 0.0
C1009 C 0.46291 0.72167 0.5099 0.0
C1010 C 0.48234 0.73708 0.50693 0.0
C1011 C 0.5386 0.78301 0.51116 0.0
C1012 C 0.51975 0.76738 0.50757 0.0
H1013 H 0.41646 0.72089 0.52864 0.0
H1014 H 0.44466 0.74689 0.52075 0.0
H1015 H 0.50824 0.7107 0.50784 0.0
H1016 H 0.58163 0.78528 0.53211 0.0
H1017 H 0.55438 0.75884 0.52372 0.0
C1018 C 0.53774 0.17463 0.7729 0.0
C1019 C 0.56121 0.17616 0.77048 0.0
C1020 C 0.52262 0.19048 0.76797 0.0
C1021 C 0.52322 0.25001 0.75745 0.0
H1022 H 0.4582 0.23891 0.75645 0.0
C1023 C 0.45993 0.31628 0.77412 0.0
C1024 C 0.4372 0.31627 0.77007 0.0
C1025 C 0.47535 0.30016 0.76974 0.0
C1026 C 0.47629 0.24247 0.75639 0.0
H1027 H 0.58686 0.19427 0.75994 0.0
H1028 H 0.56028 0.22157 0.75096 0.0
H1029 H 0.48439 0.20707 0.75544 0.0
H1030 H 0.41322 0.30011 0.75765 0.0
H1031 H 0.4404 0.27228 0.74969 0.0
H1032 H 0.51515 0.28542 0.75816 0.0
C1033 C 0.55368 0.20855 0.75705 0.0
C1034 C 0.49137 0.22408 0.75601 0.0
C1035 C 0.56892 0.19278 0.76214 0.0
C1036 C 0.43055 0.30042 0.76106 0.0
C1037 C 0.44613 0.2844 0.75653 0.0
C1038 C 0.50816 0.26841 0.75755 0.0
C1039 C 0.53045 0.20817 0.76032 0.0
C1040 C 0.51498 0.22753 0.75728 0.0
C1041 C 0.46863 0.28373 0.76103 0.0
C1042 C 0.48447 0.26482 0.75776 0.0
H1043 H 0.53109 0.16199 0.77922 0.0
H1044 H 0.50502 0.18962 0.77089 0.0
H1045 H 0.54123 0.25352 0.75839 0.0
H1046 H 0.46569 0.32817 0.78108 0.0
H1047 H 0.49229 0.30002 0.77367 0.0
C1048 C 0.93333 0.78036 0.45994 0.0
C1049 C 0.93432 0.80347 0.46322 0.0
C1050 C 0.94984 0.76513 0.46406 0.0
C1051 C 0.00958 0.76503 0.4744 0.0
H1052 H 0.99833 0.70005 0.47432 0.0
C1053 C 0.07541 0.7025 0.4565 0.0
C1054 C 0.07494 0.67943 0.4599 0.0
C1055 C 0.05969 0.71781 0.46138 0.0
C1056 C 0.00195 0.71809 0.4747 0.0
H1057 H 0.95258 0.82835 0.47419 0.0
H1058 H 0.98112 0.80152 0.48174 0.0
H1059 H 0.96655 0.72618 0.47572 0.0
H1060 H 0.05856 0.65469 0.47181 0.0
H1061 H 0.03149 0.68166 0.48068 0.0
H1062 H 0.04501 0.75694 0.47364 0.0
C1063 C 0.96791 0.79532 0.47564 0.0
C1064 C 0.98359 0.73317 0.47528 0.0
C1065 C 0.95147 0.81071 0.47136 0.0
C1066 C 0.05922 0.67231 0.46889 0.0
C1067 C 0.04361 0.68777 0.47392 0.0
C1068 C 0.02797 0.74995 0.4741 0.0
C1069 C 0.96768 0.77245 0.47175 0.0
C1070 C 0.98709 0.75681 0.4744 0.0
C1071 C 0.04321 0.7106 0.46996 0.0
C1072 C 0.02435 0.7263 0.47351 0.0
H1073 H 0.92038 0.77411 0.45368 0.0
H1074 H 0.94918 0.74785 0.46062 0.0
H1075 H 0.01311 0.78307 0.47377 0.0
H1076 H 0.08725 0.70864 0.4496 0.0
H1077 H 0.05979 0.73504 0.45786 0.0
C1078 C 0.56892 0.8043 0.72195 0.0
C1079 C 0.56098 0.82158 0.71409 0.0
C1080 C 0.55398 0.78762 0.7264 0.0
C1081 C 0.49192 0.77124 0.72693 0.0
H1082 H 0.5165 0.71018 0.72509 0.0
C1083 C 0.43182 0.69512 0.72069 0.0
C1084 C 0.43898 0.6797 0.71155 0.0
C1085 C 0.44722 0.71071 0.72578 0.0
C1086 C 0.50929 0.72711 0.72561 0.0
H1087 H 0.53094 0.83538 0.70513 0.0
H1088 H 0.50542 0.80611 0.71229 0.0
H1089 H 0.54218 0.74238 0.72486 0.0
H1090 H 0.46828 0.6678 0.70116 0.0
H1091 H 0.49451 0.69521 0.70951 0.0
H1092 H 0.45896 0.75607 0.72634 0.0
C1093 C 0.52289 0.80558 0.71545 0.0
C1094 C 0.52412 0.74569 0.7257 0.0
C1095 C 0.53768 0.82237 0.71119 0.0
C1096 C 0.46207 0.67942 0.70814 0.0
C1097 C 0.4773 0.69512 0.71308 0.0
C1098 C 0.47708 0.75269 0.72652 0.0
C1099 C 0.53086 0.78767 0.72291 0.0
C1100 C 0.51559 0.76807 0.72576 0.0
C1101 C 0.47002 0.7114 0.72174 0.0
C1102 C 0.48555 0.73042 0.72524 0.0
H1103 H 0.58674 0.80338 0.72447 0.0
H1104 H 0.56071 0.77439 0.73232 0.0
H1105 H 0.4847 0.78817 0.72746 0.0
H1106 H 0.4142 0.69562 0.72363 0.0
H1107 H 0.44106 0.72266 0.73261 0.0
C1108 C 0.55494 0.18327 0.97008 0.0
C1109 C 0.57138 0.19072 0.96155 0.0
C1110 C 0.53892 0.19854 0.9749 0.0
C1111 C 0.52313 0.26068 0.97536 0.0
H1112 H 0.46169 0.2368 0.97483 0.0
C1113 C 0.4465 0.32141 0.97189 0.0
C1114 C 0.42971 0.31456 0.96343 0.0
C1115 C 0.4629 0.30589 0.97606 0.0
C1116 C 0.47873 0.24382 0.97498 0.0
H1117 H 0.58464 0.2204 0.952 0.0
H1118 H 0.55656 0.24648 0.9599 0.0
H1119 H 0.49363 0.21076 0.97403 0.0
H1120 H 0.41659 0.28586 0.95303 0.0
H1121 H 0.4454 0.25937 0.95978 0.0
H1122 H 0.50826 0.29379 0.97503 0.0
C1123 C 0.55613 0.22909 0.96319 0.0
C1124 C 0.49716 0.22879 0.97475 0.0
C1125 C 0.57222 0.21396 0.95851 0.0
C1126 C 0.4292 0.29174 0.95958 0.0
C1127 C 0.44571 0.27639 0.96359 0.0
C1128 C 0.50471 0.27572 0.9753 0.0
C1129 C 0.53886 0.22153 0.9712 0.0
C1130 C 0.51963 0.23705 0.97436 0.0
C1131 C 0.46305 0.28329 0.97173 0.0
C1132 C 0.48226 0.2675 0.97454 0.0
H1133 H 0.55396 0.16552 0.97272 0.0
H1134 H 0.52618 0.19216 0.98124 0.0
H1135 H 0.54018 0.26769 0.9755 0.0
H1136 H 0.44721 0.33882 0.97513 0.0
H1137 H 0.4757 0.31176 0.9825 0.0
C1138 C 0.03586 0.32033 0.21191 0.0
C1139 C 0.05923 0.31969 0.21464 0.0
C1140 C 0.02117 0.30381 0.21656 0.0
C1141 C 0.0232 0.24433 0.22731 0.0
H1142 H 0.95789 0.25371 0.22754 0.0
C1143 C 0.96259 0.17693 0.20954 0.0
C1144 C 0.93947 0.1768 0.21287 0.0
C1145 C 0.97745 0.19298 0.21449 0.0
C1146 C 0.97605 0.25061 0.22784 0.0
H1147 H 0.08517 0.30225 0.22529 0.0
H1148 H 0.05932 0.27377 0.23381 0.0
H1149 H 0.98311 0.28623 0.22871 0.0
H1150 H 0.91422 0.19238 0.22478 0.0
H1151 H 0.94041 0.22004 0.23378 0.0
H1152 H 0.01615 0.20871 0.22674 0.0
C1153 C 0.05246 0.28663 0.2277 0.0
C1154 C 0.9906 0.2694 0.22829 0.0
C1155 C 0.06729 0.30304 0.22287 0.0
C1156 C 0.93188 0.19221 0.2219 0.0
C1157 C 0.9469 0.20815 0.22701 0.0
C1158 C 0.00866 0.22553 0.22718 0.0
C1159 C 0.02933 0.28632 0.22425 0.0
C1160 C 0.01433 0.26658 0.22724 0.0
C1161 C 0.96975 0.20919 0.22308 0.0
C1162 C 0.98489 0.22847 0.22665 0.0
H1163 H 0.02899 0.33289 0.20561 0.0
H1164 H 0.00366 0.30409 0.21345 0.0
H1165 H 0.04133 0.24129 0.22657 0.0
H1166 H 0.9691 0.16535 0.20262 0.0
H1167 H 0.99471 0.19336 0.21099 0.0
C1168 C 0.94686 0.67781 0.9705 0.0
C1169 C 0.93031 0.68601 0.96225 0.0
C1170 C 0.96338 0.69248 0.97535 0.0
C1171 C 0.98056 0.7542 0.97639 0.0
H1172 H 0.04143 0.72891 0.97523 0.0
C1173 C 0.05744 0.81348 0.97126 0.0
C1174 C 0.07307 0.80636 0.96222 0.0
C1175 C 0.04161 0.79813 0.97618 0.0
C1176 C 0.02456 0.73632 0.97557 0.0
H1177 H 0.91756 0.71629 0.95308 0.0
H1178 H 0.94657 0.74137 0.96098 0.0
H1179 H 0.0089 0.70364 0.9745 0.0
H1180 H 0.08516 0.77718 0.95183 0.0
H1181 H 0.05732 0.75098 0.95988 0.0
H1182 H 0.99615 0.78695 0.97613 0.0
C1183 C 0.94664 0.72387 0.96409 0.0
C1184 C 0.00579 0.72173 0.97537 0.0
C1185 C 0.93001 0.70934 0.95942 0.0
C1186 C 0.07337 0.78333 0.95876 0.0
C1187 C 0.05742 0.76814 0.96352 0.0
C1188 C -0.00068 0.7688 0.97629 0.0
C1189 C 0.96388 0.71559 0.97191 0.0
C1190 C 0.98351 0.73054 0.97516 0.0
C1191 C 0.04089 0.77542 0.97205 0.0
C1192 C 0.02155 0.76008 0.97526 0.0
H1193 H 0.94739 0.65996 0.973 0.0
H1194 H 0.97609 0.68554 0.98153 0.0
H1195 H 0.96368 0.7616 0.9767 0.0
H1196 H 0.05694 0.83106 0.97426 0.0
H1197 H 0.02949 0.80428 0.98293 0.0
C1198 C 0.93408 0.30033 0.72156 0.0
C1199 C 0.94098 0.31635 0.71268 0.0
C1200 C 0.94956 0.28431 0.72616 0.0
C1201 C 0.01149 0.26761 0.72511 0.0
H1202 H 0.9866 0.20664 0.7265 0.0
C1203 C 0.0706 0.1902 0.7205 0.0
C1204 C 0.06256 0.1735 0.71229 0.0
C1205 C 0.05577 0.2067 0.72524 0.0
C1206 C 0.9939 0.22355 0.72611 0.0
H1207 H 0.96984 0.32875 0.70212 0.0
H1208 H 0.99628 0.30054 0.70961 0.0
H1209 H 0.96102 0.23893 0.72587 0.0
H1210 H 0.03237 0.16042 0.70317 0.0
H1211 H 0.00704 0.18935 0.71091 0.0
H1212 H 0.04429 0.25213 0.72405 0.0
C1213 C 0.97922 0.30053 0.71339 0.0
C1214 C 0.97916 0.2422 0.72597 0.0
C1215 C 0.96389 0.31669 0.70896 0.0
C1216 C 0.03922 0.173 0.70945 0.0
C1217 C 0.02454 0.18959 0.71404 0.0
C1218 C 0.02622 0.24893 0.72496 0.0
C1219 C 0.97219 0.28375 0.72184 0.0
C1220 C 0.98773 0.26446 0.72488 0.0
C1221 C 0.03266 0.20702 0.72176 0.0
C1222 C 0.01756 0.22662 0.72487 0.0
H1223 H 0.91659 0.2998 0.72473 0.0
H1224 H 0.9436 0.272 0.73285 0.0
H1225 H 0.01879 0.28451 0.72471 0.0
H1226 H 0.08844 0.19091 0.72299 0.0
H1227 H 0.06259 0.21957 0.73136 0.0
C1228 C 0.5701 0.28883 0.45675 0.0
C1229 C 0.57005 0.31164 0.46062 0.0
C1230 C 0.55476 0.27325 0.46174 0.0
C1231 C 0.49817 0.27263 0.47642 0.0
H1232 H 0.50828 0.20765 0.4738 0.0
C1233 C 0.42791 0.21236 0.46158 0.0
C1234 C 0.42893 0.18899 0.46427 0.0
C1235 C 0.44473 0.22713 0.46582 0.0
C1236 C 0.50508 0.22567 0.47491 0.0
H1237 H 0.55503 0.33554 0.47351 0.0
H1238 H 0.52867 0.3081 0.48255 0.0
H1239 H 0.54054 0.23333 0.47349 0.0
H1240 H 0.4475 0.16314 0.47442 0.0
H1241 H 0.47659 0.18912 0.48217 0.0
H1242 H 0.46275 0.26495 0.47805 0.0
C1243 C 0.54011 0.30242 0.47535 0.0
C1244 C 0.52366 0.2405 0.47452 0.0
C1245 C 0.5553 0.31815 0.47021 0.0
C1246 C 0.44636 0.18101 0.47204 0.0
C1247 C 0.46311 0.1959 0.47643 0.0
C1248 C 0.47964 0.25778 0.47709 0.0
C1249 C 0.53911 0.27993 0.47089 0.0
C1250 C 0.52033 0.26422 0.47453 0.0
C1251 C 0.46292 0.21904 0.47303 0.0
C1252 C 0.48272 0.23419 0.47561 0.0
H1253 H 0.5812 0.28317 0.44938 0.0
H1254 H 0.55438 0.25629 0.45786 0.0
H1255 H 0.49479 0.29074 0.47652 0.0
H1256 H 0.41473 0.21918 0.45564 0.0
H1257 H 0.44405 0.24467 0.46279 0.0
C1258 C 0.45974 0.81699 0.21142 0.0
C1259 C 0.43646 0.81688 0.21442 0.0
C1260 C 0.47437 0.80055 0.21621 0.0
C1261 C 0.47245 0.7419 0.22819 0.0
H1262 H 0.53773 0.75138 0.22784 0.0
C1263 C 0.53276 0.67444 0.21036 0.0
C1264 C 0.55616 0.67505 0.21304 0.0
C1265 C 0.51789 0.69011 0.21567 0.0
C1266 C 0.51959 0.74824 0.22832 0.0
H1267 H 0.41064 0.80036 0.22558 0.0
H1268 H 0.43641 0.77197 0.23429 0.0
H1269 H 0.51248 0.78387 0.22862 0.0
H1270 H 0.58193 0.69129 0.22434 0.0
H1271 H 0.55576 0.7182 0.23399 0.0
H1272 H 0.47956 0.70626 0.22818 0.0
C1273 C 0.44322 0.7844 0.22791 0.0
C1274 C 0.50502 0.76702 0.22854 0.0
C1275 C 0.42844 0.80075 0.22296 0.0
C1276 C 0.56404 0.69055 0.22194 0.0
C1277 C 0.54902 0.70609 0.22742 0.0
C1278 C 0.48703 0.7231 0.22829 0.0
C1279 C 0.46627 0.78367 0.22431 0.0
C1280 C 0.48128 0.76412 0.22764 0.0
C1281 C 0.52589 0.70667 0.22397 0.0
C1282 C 0.51078 0.72603 0.22753 0.0
H1283 H 0.46659 0.82913 0.20488 0.0
H1284 H 0.49179 0.80045 0.21296 0.0
H1285 H 0.45431 0.73882 0.2276 0.0
H1286 H 0.52599 0.6627 0.20359 0.0
H1287 H 0.50038 0.69004 0.21256 0.0
C1288 C 0.92209 0.28979 0.52541 0.0
C1289 C 0.92234 0.3126 0.52152 0.0
C1290 C 0.93769 0.27419 0.52067 0.0
C1291 C 0.99496 0.27337 0.50672 0.0
H1292 H 0.98455 0.2084 0.50911 0.0
C1293 C 0.06448 0.21267 0.52216 0.0
C1294 C 0.06348 0.18931 0.51943 0.0
C1295 C 0.04788 0.22754 0.51776 0.0
C1296 C 0.98784 0.22642 0.50807 0.0
H1297 H 0.93807 0.33647 0.50886 0.0
H1298 H 0.96486 0.30899 0.50024 0.0
H1299 H 0.95236 0.23422 0.50914 0.0
H1300 H 0.04523 0.16362 0.50901 0.0
H1301 H 0.01651 0.18979 0.50099 0.0
H1302 H 0.03041 0.26555 0.50543 0.0
C1303 C 0.95306 0.30333 0.50727 0.0
C1304 C 0.9693 0.24133 0.50831 0.0
C1305 C 0.9376 0.31908 0.51216 0.0
C1306 C 0.04636 0.18147 0.51142 0.0
C1307 C 0.0298 0.19648 0.50688 0.0
C1308 C 0.01346 0.25844 0.50622 0.0
C1309 C 0.9538 0.28083 0.51175 0.0
C1310 C 0.9727 0.26504 0.50835 0.0
C1311 C 0.02992 0.21959 0.51034 0.0
C1312 C 0.01025 0.23485 0.5076 0.0
H1313 H 0.9106 0.28415 0.5326 0.0
H1314 H 0.93784 0.25723 0.52456 0.0
H1315 H 0.9984 0.29146 0.50668 0.0
H1316 H 0.07744 0.21941 0.52825 0.0
H1317 H 0.0485 0.24506 0.52083 0.0
C1318 C 0.43089 0.19087 0.26398 0.0
C1319 C 0.4366 0.17665 0.27394 0.0
C1320 C 0.44706 0.20573 0.25896 0.0
C1321 C 0.50915 0.22136 0.26064 0.0
H1322 H 0.48607 0.28211 0.25464 0.0
C1323 C 0.57003 0.29779 0.26119 0.0
C1324 C 0.56197 0.31637 0.2681 0.0
C1325 C 0.55505 0.2807 0.25728 0.0
C1326 C 0.49286 0.26525 0.25631 0.0
H1327 H 0.46407 0.16631 0.28612 0.0
H1328 H 0.49168 0.1926 0.27784 0.0
H1329 H 0.45957 0.25078 0.25681 0.0
H1330 H 0.53161 0.33212 0.27572 0.0
H1331 H 0.50597 0.30229 0.26944 0.0
H1332 H 0.54226 0.23619 0.26139 0.0
C1333 C 0.47505 0.19198 0.27356 0.0
C1334 C 0.47761 0.24711 0.25735 0.0
C1335 C 0.45904 0.17696 0.27843 0.0
C1336 C 0.5385 0.31807 0.27044 0.0
C1337 C 0.52364 0.30094 0.26669 0.0
C1338 C 0.52436 0.23957 0.25987 0.0
C1339 C 0.46921 0.20691 0.26391 0.0
C1340 C 0.48549 0.22507 0.26008 0.0
C1341 C 0.53175 0.28172 0.26033 0.0
C1342 C 0.51632 0.26193 0.25826 0.0
H1343 H 0.4138 0.19085 0.26022 0.0
H1344 H 0.44203 0.21664 0.25139 0.0
H1345 H 0.51594 0.20451 0.26232 0.0
H1346 H 0.58799 0.29609 0.2591 0.0
H1347 H 0.56187 0.26639 0.25219 0.0
C1348 C 0.44906 0.82076 0.01231 0.0
C1349 C 0.43304 0.81355 0.02112 0.0
C1350 C 0.46515 0.80547 0.00757 0.0
C1351 C 0.48146 0.7435 0.00774 0.0
H1352 H 0.54273 0.76777 0.00676 0.0
C1353 C 0.55762 0.6832 0.01235 0.0
C1354 C 0.57395 0.69067 0.02092 0.0
C1355 C 0.54177 0.6985 0.00739 0.0
C1356 C 0.52574 0.76064 0.00702 0.0
H1357 H 0.4208 0.78435 0.03146 0.0
H1358 H 0.44906 0.75824 0.0237 0.0
H1359 H 0.51066 0.79365 0.00772 0.0
H1360 H 0.58739 0.72042 0.0303 0.0
H1361 H 0.55959 0.74656 0.02218 0.0
H1362 H 0.49656 0.71052 0.00834 0.0
C1363 C 0.44903 0.77542 0.02009 0.0
C1364 C 0.50722 0.77557 0.00736 0.0
C1365 C 0.43284 0.79056 0.02468 0.0
C1366 C 0.57501 0.71397 0.02378 0.0
C1367 C 0.55908 0.72913 0.01897 0.0
C1368 C 0.49998 0.72858 0.00769 0.0
C1369 C 0.46572 0.78271 0.01166 0.0
C1370 C 0.48486 0.76718 0.00833 0.0
C1371 C 0.54177 0.72153 0.01101 0.0
C1372 C 0.52241 0.73698 0.00794 0.0
H1373 H 0.44952 0.83831 0.00927 0.0
H1374 H 0.47746 0.81164 0.00093 0.0
H1375 H 0.46446 0.73637 0.00804 0.0
H1376 H 0.5565 0.66541 0.00982 0.0
H1377 H 0.52904 0.69209 0.00107 0.0
C1378 C 0.92754 0.69219 0.7604 0.0
C1379 C 0.93474 0.67609 0.76917 0.0
C1380 C 0.94297 0.708 0.75552 0.0
C1381 C 0.00512 0.72393 0.75558 0.0
H1382 H 0.98101 0.78527 0.75594 0.0
C1383 C 0.06549 0.79975 0.76172 0.0
C1384 C 0.058 0.81558 0.77056 0.0
C1385 C 0.05023 0.78412 0.75655 0.0
C1386 C 0.98808 0.76826 0.75582 0.0
H1387 H 0.96416 0.66311 0.77907 0.0
H1388 H 0.9905 0.69083 0.77107 0.0
H1389 H 0.95502 0.75328 0.75621 0.0
H1390 H 0.02829 0.82821 0.78033 0.0
H1391 H 0.0022 0.80073 0.77183 0.0
H1392 H 0.03816 0.73886 0.75652 0.0
C1393 C 0.97319 0.69117 0.76764 0.0
C1394 C 0.9731 0.7498 0.75575 0.0
C1395 C 0.95791 0.67529 0.77238 0.0
C1396 C 0.03474 0.81625 0.77358 0.0
C1397 C 0.01961 0.80052 0.76855 0.0
C1398 C 0.0201 0.74237 0.75593 0.0
C1399 C 0.96586 0.70817 0.7594 0.0
C1400 C 0.98143 0.72737 0.75627 0.0
C1401 C 0.02722 0.78382 0.76021 0.0
C1402 C 0.01174 0.76477 0.75669 0.0
H1403 H 0.90986 0.69311 0.7576 0.0
H1404 H 0.93677 0.72053 0.74901 0.0
H1405 H 0.01219 0.70691 0.75553 0.0
H1406 H 0.08326 0.79895 0.75907 0.0
H1407 H 0.05665 0.77184 0.74997 0.0
C1408 C 0.33176 0.39478 0.97953 0.0
C1409 C 0.33842 0.37282 0.97588 0.0
C1410 C 0.31256 0.39777 0.98701 0.0
C1411 C 0.27428 0.36905 0.00859 0.0
H1412 H 0.22526 0.40282 -0.00695 0.0
C1413 C 0.18206 0.35243 0.02178 0.0
C1414 C 0.16677 0.37074 0.0226 0.0
C1415 C 0.2037 0.35551 0.01682 0.0
C1416 C 0.23886 0.39371 -0.00234 0.0
H1417 H 0.33135 0.33679 0.97774 0.0
H1418 H 0.29836 0.34197 0.99112 0.0
H1419 H 0.26353 0.40403 0.98419 0.0
H1420 H 0.16188 0.40652 0.01851 0.0
H1421 H 0.20007 0.41205 0.00996 0.0
H1422 H 0.24985 0.35853 0.022 0.0
C1423 C 0.30772 0.35685 0.9881 0.0
C1424 C 0.26074 0.39444 -0.00741 0.0
C1425 C 0.32651 0.35389 0.98042 0.0
C1426 C 0.17329 0.39208 0.01793 0.0
C1427 C 0.19517 0.39524 0.01306 0.0
C1428 C 0.25254 0.36856 0.01375 0.0
C1429 C 0.30021 0.3788 0.99117 0.0
C1430 C 0.27843 0.38153 -0.00219 0.0
C1431 C 0.21076 0.37705 0.0127 0.0
C1432 C 0.23438 0.3802 0.00809 0.0
H1433 H 0.3406 0.40964 0.97606 0.0
H1434 H 0.30703 0.41484 0.9893 0.0
H1435 H 0.28774 0.35914 0.01283 0.0
H1436 H 0.17741 0.3357 0.02516 0.0
H1437 H 0.21497 0.34094 0.01631 0.0
C1438 C 0.90261 0.06607 0.21811 0.0
C1439 C 0.88393 0.08055 0.21622 0.0
C1440 C 0.89977 0.04514 0.22394 0.0
C1441 C 0.86031 0.01085 0.24306 0.0
H1442 H 0.89674 0.9613 0.22998 0.0
C1443 C 0.85515 0.91731 0.26062 0.0
C1444 C 0.87637 0.90959 0.26492 0.0
C1445 C 0.85371 0.93731 0.25365 0.0
C1446 C 0.88638 0.97497 0.23366 0.0
H1447 H 0.84773 0.08492 0.21935 0.0
H1448 H 0.8426 0.04794 0.22934 0.0
H1449 H 0.89857 0.99864 0.22028 0.0
H1450 H 0.91274 0.91599 0.26486 0.0
H1451 H 0.91027 0.95042 0.25239 0.0
H1452 H 0.84812 0.9868 0.25642 0.0
C1453 C 0.85953 0.05293 0.22645 0.0
C1454 C 0.88757 0.99641 0.22821 0.0
C1455 C 0.86246 0.0741 0.22074 0.0
C1456 C 0.89616 0.92161 0.26169 0.0
C1457 C 0.89477 0.94123 0.25453 0.0
C1458 C 0.85891 0.98924 0.24842 0.0
C1459 C 0.8781 0.03799 0.22785 0.0
C1460 C 0.87506 0.01479 0.23305 0.0
C1461 C 0.87353 0.94947 0.25063 0.0
C1462 C 0.87237 0.97131 0.24393 0.0
H1463 H 0.91944 0.07074 0.21487 0.0
H1464 H 0.91459 0.03443 0.22522 0.0
H1465 H 0.85052 0.02463 0.24705 0.0
H1466 H 0.83964 0.9084 0.26306 0.0
H1467 H 0.83717 0.94339 0.2507 0.0
C1468 C 0.17472 0.60008 0.46962 0.0
C1469 C 0.16736 0.62159 0.46558 0.0
C1470 C 0.19437 0.5981 0.47686 0.0
C1471 C 0.23066 0.62938 0.49808 0.0
H1472 H 0.28201 0.59622 0.48448 0.0
C1473 C 0.32062 0.64958 0.51369 0.0
C1474 C 0.33592 0.63162 0.51575 0.0
C1475 C 0.29992 0.64566 0.50782 0.0
C1476 C 0.26774 0.60521 0.48852 0.0
H1477 H 0.174 0.65786 0.4663 0.0
H1478 H 0.20777 0.65444 0.47922 0.0
H1479 H 0.24452 0.59321 0.47468 0.0
H1480 H 0.34203 0.59564 0.51282 0.0
H1481 H 0.30544 0.58866 0.50265 0.0
H1482 H 0.25355 0.64158 0.51184 0.0
C1483 C 0.1986 0.63914 0.47668 0.0
C1484 C 0.24633 0.60345 0.48293 0.0
C1485 C 0.17937 0.64107 0.46926 0.0
C1486 C 0.33055 0.60981 0.5113 0.0
C1487 C 0.30961 0.60582 0.50551 0.0
C1488 C 0.25189 0.63095 0.50373 0.0
C1489 C 0.20647 0.61766 0.48038 0.0
C1490 C 0.22785 0.61609 0.48746 0.0
C1491 C 0.29384 0.62363 0.50401 0.0
C1492 C 0.27086 0.61953 0.49878 0.0
H1493 H 0.16578 0.5848 0.46682 0.0
H1494 H 0.2002 0.58137 0.47964 0.0
H1495 H 0.21654 0.63909 0.50179 0.0
H1496 H 0.32444 0.66665 0.51685 0.0
H1497 H 0.28851 0.65992 0.50644 0.0
C1498 C 0.60309 0.06409 0.77229 0.0
C1499 C 0.62037 0.0806 0.77252 0.0
C1500 C 0.60718 0.04262 0.76737 0.0
C1501 C 0.64469 0.01014 0.74676 0.0
H1502 H 0.61532 0.95926 0.76314 0.0
C1503 C 0.64494 0.91831 0.72708 0.0
C1504 C 0.62249 0.91139 0.72464 0.0
C1505 C 0.64906 0.93708 0.73472 0.0
C1506 C 0.62385 0.97327 0.75856 0.0
H1507 H 0.65535 0.08775 0.7674 0.0
H1508 H 0.66259 0.04987 0.7588 0.0
H1509 H 0.61454 0.99681 0.77269 0.0
H1510 H 0.5869 0.91749 0.72876 0.0
H1511 H 0.59411 0.94968 0.7424 0.0
H1512 H 0.65355 0.98643 0.7325 0.0
C1513 C 0.64583 0.05371 0.76242 0.0
C1514 C 0.62325 0.99479 0.76395 0.0
C1515 C 0.64168 0.07539 0.76731 0.0
C1516 C 0.60435 0.92255 0.7305 0.0
C1517 C 0.60848 0.94087 0.73833 0.0
C1518 C 0.6455 0.98848 0.74143 0.0
C1519 C 0.62871 0.03696 0.76263 0.0
C1520 C 0.63282 0.01365 0.75786 0.0
C1521 C 0.63079 0.94867 0.74024 0.0
C1522 C 0.63435 0.97009 0.74708 0.0
H1523 H 0.58638 0.06764 0.77607 0.0
H1524 H 0.59338 0.03039 0.76731 0.0
H1525 H 0.6522 0.02431 0.74183 0.0
H1526 H 0.65917 0.91004 0.72257 0.0
H1527 H 0.66639 0.94286 0.73608 0.0
C1528 C 0.6749 0.61079 0.0151 0.0
C1529 C 0.66947 0.6321 0.02021 0.0
C1530 C 0.69626 0.60713 0.0097 0.0
C1531 C 0.75452 0.63158 0.00957 0.0
H1532 H 0.762 0.5983 0.97896 0.0
C1533 C 0.82651 0.64688 0.97523 0.0
C1534 C 0.83802 0.62804 0.97029 0.0
C1535 C 0.80781 0.64379 0.98295 0.0
C1536 C 0.76018 0.60725 0.98764 0.0
H1537 H 0.68155 0.66661 0.02302 0.0
H1538 H 0.71823 0.66048 0.01331 0.0
H1539 H 0.72448 0.60003 0.98876 0.0
H1540 H 0.83942 0.59119 0.9697 0.0
H1541 H 0.80595 0.58578 0.98302 0.0
H1542 H 0.78991 0.63987 0.00805 0.0
C1543 C 0.70648 0.64631 0.01386 0.0
C1544 C 0.73874 0.60827 -0.00676 0.0
C1545 C 0.68534 0.64989 0.01933 0.0
C1546 C 0.83088 0.60598 0.97347 0.0
C1547 C 0.81175 0.60288 0.981 0.0
C1548 C 0.77581 0.63078 0.00391 0.0
C1549 C 0.71244 0.62477 0.00926 0.0
C1550 C 0.73555 0.62106 0.00407 0.0
C1551 C 0.79999 0.6218 0.98569 0.0
C1552 C 0.77867 0.61912 -0.00726 0.0
H1553 H 0.66302 0.59674 0.0157 0.0
H1554 H 0.70034 0.59034 0.00623 0.0
H1555 H 0.7528 0.64101 0.0181 0.0
H1556 H 0.83173 0.66406 0.97293 0.0
H1557 H 0.79888 0.65864 0.98637 0.0
C1558 C 0.09826 0.92414 0.76542 0.0
C1559 C 0.11679 0.90955 0.7675 0.0
C1560 C 0.10145 0.94513 0.75975 0.0
C1561 C 0.14062 0.97957 0.74091 0.0
H1562 H 0.10466 0.0288 0.75473 0.0
C1563 C 0.14153 0.07274 0.72234 0.0
C1564 C 0.11962 0.07951 0.71862 0.0
C1565 C 0.14442 0.05313 0.72952 0.0
C1566 C 0.11493 0.01525 0.75085 0.0
H1567 H 0.15307 0.90498 0.76475 0.0
H1568 H 0.15876 0.94212 0.75488 0.0
H1569 H 0.10384 0.99143 0.76444 0.0
H1570 H 0.08358 0.0719 0.7199 0.0
H1571 H 0.08857 0.03818 0.73271 0.0
H1572 H 0.15144 0.00368 0.72722 0.0
C1573 C 0.14173 0.93715 0.75761 0.0
C1574 C 0.11434 0.99382 0.75632 0.0
C1575 C 0.13848 0.9159 0.76322 0.0
C1576 C 0.10065 0.067 0.72262 0.0
C1577 C 0.10349 0.04779 0.72997 0.0
C1578 C 0.14137 0.00119 0.73549 0.0
C1579 C 0.1233 0.95222 0.75614 0.0
C1580 C 0.12651 0.97553 0.75116 0.0
C1581 C 0.12539 0.04046 0.73331 0.0
C1582 C 0.12796 0.01896 0.74021 0.0
H1583 H 0.08128 0.91955 0.76844 0.0
H1584 H 0.08675 0.95599 0.75837 0.0
H1585 H 0.15018 0.96584 0.73672 0.0
H1586 H 0.15643 0.08205 0.7193 0.0
H1587 H 0.16145 0.04775 0.73202 0.0
C1588 C 0.82765 0.38866 0.50835 0.0
C1589 C 0.82818 0.37277 0.51805 0.0
C1590 C 0.80767 0.392 0.50154 0.0
C1591 C 0.74542 0.38324 0.50313 0.0
H1592 H 0.74826 0.38256 0.46741 0.0
C1593 C 0.68401 0.35959 0.46004 0.0
C1594 C 0.66416 0.37197 0.46282 0.0
C1595 C 0.70404 0.36324 0.46662 0.0
C1596 C 0.74722 0.38285 0.47739 0.0
H1597 H 0.80808 0.34789 0.52814 0.0
H1598 H 0.7736 0.35362 0.51628 0.0
H1599 H 0.7835 0.38241 0.47936 0.0
H1600 H 0.64985 0.39791 0.47478 0.0
H1601 H 0.685 0.40417 0.48639 0.0
H1602 H 0.70916 0.38272 0.50118 0.0
C1603 C 0.78846 0.36373 0.51403 0.0
C1604 C 0.76738 0.38299 0.48421 0.0
C1605 C 0.80836 0.3603 0.52076 0.0
C1606 C 0.66481 0.38804 0.47242 0.0
C1607 C 0.68491 0.39162 0.47907 0.0
C1608 C 0.72527 0.38316 0.49631 0.0
C1609 C 0.78785 0.37965 0.50439 0.0
C1610 C 0.76666 0.38257 0.49715 0.0
C1611 C 0.70474 0.37931 0.47619 0.0
C1612 C 0.72597 0.38237 0.48337 0.0
H1613 H 0.84261 0.39857 0.50603 0.0
H1614 H 0.80764 0.40441 0.49415 0.0
H1615 H 0.74438 0.38324 0.51311 0.0
H1616 H 0.68419 0.34705 0.45272 0.0
H1617 H 0.71891 0.35317 0.46435 0.0
C1618 C 0.35671 0.0779 0.26304 0.0
C1619 C 0.37789 0.0846 0.26786 0.0
C1620 C 0.35485 0.05774 0.25623 0.0
C1621 C 0.38745 0.01819 0.23739 0.0
H1622 H 0.34803 0.97038 0.24978 0.0
C1623 C 0.40115 0.92666 0.22227 0.0
C1624 C 0.38204 0.91329 0.21951 0.0
C1625 C 0.39865 0.94746 0.22826 0.0
C1626 C 0.35885 0.98365 0.24607 0.0
H1627 H 0.41379 0.07618 0.26895 0.0
H1628 H 0.41064 0.04148 0.25678 0.0
H1629 H 0.34647 0.0084 0.25901 0.0
H1630 H 0.34539 0.91061 0.22134 0.0
H1631 H 0.34088 0.94743 0.23163 0.0
H1632 H 0.39987 0.99385 0.22445 0.0
C1633 C 0.39548 0.05158 0.25838 0.0
C1634 C 0.35792 0.00537 0.25135 0.0
C1635 C 0.39725 0.07136 0.26537 0.0
C1636 C 0.36042 0.92058 0.22342 0.0
C1637 C 0.35786 0.94166 0.22929 0.0
C1638 C 0.3882 0.99667 0.23203 0.0
C1639 C 0.37425 0.04441 0.25391 0.0
C1640 C 0.37264 0.0226 0.24723 0.0
C1641 C 0.37692 0.95561 0.23145 0.0
C1642 C 0.37441 0.97894 0.23654 0.0
H1643 H 0.34151 0.08777 0.26492 0.0
H1644 H 0.33832 0.0525 0.25283 0.0
H1645 H 0.39878 0.03132 0.23399 0.0
H1646 H 0.41807 0.92129 0.21953 0.0
H1647 H 0.41379 0.95739 0.23017 0.0
C1648 C 0.83423 0.8827 0.47615 0.0
C1649 C 0.8408 0.86082 0.47231 0.0
C1650 C 0.81446 0.88567 0.48318 0.0
C1651 C 0.7747 0.85698 0.50378 0.0
H1652 H 0.72732 0.89348 0.48858 0.0
C1653 C 0.68203 0.84691 0.51849 0.0
C1654 C 0.66813 0.8663 0.5192 0.0
C1655 C 0.70352 0.84813 0.5131 0.0
C1656 C 0.74045 0.88356 0.49309 0.0
H1657 H 0.83277 0.82487 0.47333 0.0
H1658 H 0.79873 0.83001 0.48595 0.0
H1659 H 0.76556 0.89308 0.47967 0.0
H1660 H 0.66552 0.90207 0.51453 0.0
H1661 H 0.70347 0.90441 0.50534 0.0
H1662 H 0.74995 0.84748 0.51723 0.0
C1663 C 0.80864 0.84484 0.48339 0.0
C1664 C 0.76231 0.88336 0.48798 0.0
C1665 C 0.82803 0.84191 0.47615 0.0
C1666 C 0.67585 0.88682 0.51403 0.0
C1667 C 0.69759 0.88814 0.50878 0.0
C1668 C 0.753 0.85743 0.50899 0.0
C1669 C 0.8014 0.86675 0.48671 0.0
C1670 C 0.77942 0.86963 0.49312 0.0
C1671 C 0.71184 0.86887 0.50847 0.0
C1672 C 0.73542 0.87021 0.50351 0.0
H1673 H 0.84372 0.89756 0.47322 0.0
H1674 H 0.80916 0.90272 0.48568 0.0
H1675 H 0.78773 0.84642 0.50795 0.0
H1676 H 0.6764 0.83079 0.52227 0.0
H1677 H 0.71368 0.83276 0.51266 0.0
C1678 C 0.36238 0.57597 0.71765 0.0
C1679 C 0.38366 0.58356 0.71339 0.0
C1680 C 0.36023 0.55436 0.72298 0.0
C1681 C 0.39084 0.49902 0.72422 0.0
H1682 H 0.35109 0.48643 0.75195 0.0
C1683 C 0.40192 0.42383 0.7574 0.0
C1684 C 0.38257 0.41092 0.76037 0.0
C1685 C 0.39993 0.44338 0.75021 0.0
C1686 C 0.36199 0.48969 0.74408 0.0
H1687 H 0.41957 0.57531 0.71212 0.0
H1688 H 0.41607 0.53829 0.72185 0.0
H1689 H 0.35188 0.52465 0.74302 0.0
H1690 H 0.34603 0.40798 0.75797 0.0
H1691 H 0.34249 0.44279 0.74558 0.0
H1692 H 0.40175 0.46435 0.72573 0.0
C1693 C 0.40082 0.54842 0.72062 0.0
C1694 C 0.36246 0.51154 0.73896 0.0
C1695 C 0.40289 0.56975 0.71516 0.0
C1696 C 0.36123 0.41757 0.75573 0.0
C1697 C 0.35917 0.43749 0.74874 0.0
C1698 C 0.3906 0.47735 0.72945 0.0
C1699 C 0.37939 0.54014 0.72426 0.0
C1700 C 0.37729 0.51658 0.72914 0.0
C1701 C 0.3785 0.45064 0.74605 0.0
C1702 C 0.37648 0.47262 0.73955 0.0
H1703 H 0.34726 0.58626 0.71633 0.0
H1704 H 0.34347 0.54851 0.72567 0.0
H1705 H 0.40196 0.50209 0.71643 0.0
H1706 H 0.41856 0.41904 0.76085 0.0
H1707 H 0.41505 0.45335 0.7483 0.0
C1708 C 0.83265 0.10932 0.00777 0.0
C1709 C 0.83961 0.13085 0.01197 0.0
C1710 C 0.81277 0.1071 0.00075 0.0
C1711 C 0.7738 0.13823 0.9807 0.0
H1712 H 0.72537 0.1014 -0.00535 0.0
C1713 C 0.68184 0.15318 0.96652 0.0
C1714 C 0.66759 0.13434 0.96463 0.0
C1715 C 0.70305 0.1505 0.97206 0.0
C1716 C 0.73881 0.11144 0.9905 0.0
H1717 H 0.83207 0.16696 0.01166 0.0
H1718 H 0.79786 0.16316 -0.00089 0.0
H1719 H 0.76356 0.09996 0.00367 0.0
H1720 H 0.6639 0.09802 0.9675 0.0
H1721 H 0.70139 0.09319 0.97704 0.0
H1722 H 0.74939 0.14982 0.96756 0.0
C1723 C 0.80754 0.14801 0.00135 0.0
C1724 C 0.76063 0.11058 -0.00434 0.0
C1725 C 0.82704 0.15017 0.00856 0.0
C1726 C 0.67454 0.11285 0.96891 0.0
C1727 C 0.696 0.1101 0.97434 0.0
C1728 C 0.75215 0.13889 0.97547 0.0
C1729 C 0.79998 0.12645 -0.0024 0.0
C1730 C 0.7781 0.12445 0.99099 0.0
C1731 C 0.71072 0.12884 0.97568 0.0
C1732 C 0.7342 0.12607 0.98054 0.0
H1733 H 0.842 0.09415 0.01036 0.0
H1734 H 0.80723 0.09032 -0.00209 0.0
H1735 H 0.78711 0.14889 0.97688 0.0
H1736 H 0.67679 0.17001 0.96348 0.0
H1737 H 0.7136 0.16543 0.97333 0.0
C1738 C 0.13844 0.57786 0.26147 0.0
C1739 C 0.11678 0.5834 0.26611 0.0
C1740 C 0.14237 0.55642 0.2562 0.0
C1741 C 0.11823 0.49846 0.25702 0.0
H1742 H 0.15115 0.48825 0.22652 0.0
C1743 C 0.10116 0.4242 0.22476 0.0
C1744 C 0.11961 0.4119 0.21995 0.0
C1745 C 0.10488 0.4435 0.23191 0.0
C1746 C 0.14234 0.49084 0.23518 0.0
H1747 H 0.08191 0.5717 0.26802 0.0
H1748 H 0.08859 0.53488 0.25861 0.0
H1749 H 0.14971 0.52661 0.2354 0.0
H1750 H 0.15642 0.40976 0.21897 0.0
H1751 H 0.16295 0.44428 0.23132 0.0
H1752 H 0.10982 0.46305 0.25646 0.0
C1753 C 0.10275 0.54659 0.25941 0.0
C1754 C 0.14147 0.51275 0.24024 0.0
C1755 C 0.09888 0.56778 0.26471 0.0
C1756 C 0.14193 0.41891 0.22267 0.0
C1757 C 0.14567 0.43863 0.22964 0.0
C1758 C 0.11895 0.47672 0.25193 0.0
C1759 C 0.12467 0.54035 0.25548 0.0
C1760 C 0.12868 0.51688 0.25097 0.0
C1761 C 0.12711 0.45113 0.23422 0.0
C1762 C 0.13038 0.47289 0.24077 0.0
H1763 H 0.15255 0.58958 0.26246 0.0
H1764 H 0.15941 0.5521 0.25316 0.0
H1765 H 0.1088 0.50099 0.26549 0.0
H1766 H 0.0838 0.41911 0.2228 0.0
H1767 H 0.0903 0.45298 0.23526 0.0
C1768 C 0.17703 0.15279 0.51544 0.0
C1769 C 0.16183 0.13446 0.51646 0.0
C1770 C 0.19853 0.1497 0.51029 0.0
C1771 C 0.23386 0.11145 0.49126 0.0
H1772 H 0.28272 0.14449 0.50737 0.0
C1773 C 0.32801 0.10876 0.4747 0.0
C1774 C 0.33578 0.13071 0.47173 0.0
C1775 C 0.30801 0.10597 0.48158 0.0
C1776 C 0.26927 0.13503 0.50285 0.0
H1777 H 0.15681 0.09869 0.51237 0.0
H1778 H 0.19472 0.09318 0.50345 0.0
H1779 H 0.24442 0.14581 0.51598 0.0
H1780 H 0.32969 0.16681 0.47412 0.0
H1781 H 0.2953 0.16194 0.48641 0.0
H1782 H 0.25897 0.10092 0.47805 0.0
C1783 C 0.18988 0.10999 0.50658 0.0
C1784 C 0.2473 0.13593 0.50769 0.0
C1785 C 0.16817 0.11316 0.51166 0.0
C1786 C 0.32402 0.14972 0.47628 0.0
C1787 C 0.30442 0.14693 0.48334 0.0
C1788 C 0.25597 0.11037 0.48647 0.0
C1789 C 0.2055 0.12813 0.50616 0.0
C1790 C 0.22919 0.1248 0.50172 0.0
C1791 C 0.29593 0.12508 0.48581 0.0
C1792 C 0.27368 0.12272 0.49204 0.0
H1793 H 0.17252 0.1695 0.5189 0.0
H1794 H 0.20985 0.16421 0.50973 0.0
H1795 H 0.22029 0.1027 0.48644 0.0
H1796 H 0.33672 0.09385 0.4712 0.0
H1797 H 0.30175 0.08895 0.4834 0.0
C1798 C 0.64224 0.4161 0.25459 0.0
C1799 C 0.62014 0.40872 0.25754 0.0
C1800 C 0.64539 0.43527 0.24711 0.0
C1801 C 0.6176 0.47199 0.22437 0.0
H1802 H 0.64757 0.52261 0.24062 0.0
C1803 C 0.59712 0.56325 0.211 0.0
C1804 C 0.61463 0.57949 0.21055 0.0
C1805 C 0.60109 0.54171 0.2159 0.0
C1806 C 0.63956 0.50858 0.23582 0.0
H1807 H 0.58414 0.41447 0.25446 0.0
H1808 H 0.58965 0.44739 0.24109 0.0
H1809 H 0.64963 0.48455 0.24968 0.0
H1810 H 0.64991 0.58613 0.21521 0.0
H1811 H 0.65698 0.54816 0.2237 0.0
H1812 H 0.60719 0.49581 0.21061 0.0
C1813 C 0.60449 0.43862 0.24465 0.0
C1814 C 0.64078 0.48681 0.24101 0.0
C1815 C 0.60134 0.41988 0.25233 0.0
C1816 C 0.63606 0.57397 0.21549 0.0
C1817 C 0.64011 0.55223 0.22032 0.0
C1818 C 0.61659 0.49362 0.21913 0.0
C1819 C 0.62649 0.44684 0.24224 0.0
C1820 C 0.62915 0.46854 0.23553 0.0
C1821 C 0.62275 0.53574 0.22036 0.0
C1822 C 0.62681 0.51233 0.22503 0.0
H1823 H 0.65698 0.40783 0.25859 0.0
H1824 H 0.6625 0.44135 0.24535 0.0
H1825 H 0.60869 0.45808 0.21993 0.0
H1826 H 0.58031 0.56706 0.20743 0.0
H1827 H 0.58712 0.52969 0.21615 0.0
C1828 C 0.17397 0.88676 0.96972 0.0
C1829 C 0.16712 0.86511 0.96567 0.0
C1830 C 0.19533 0.88971 0.97526 0.0
C1831 C 0.25141 0.86098 0.97679 0.0
H1832 H 0.26272 0.90047 0.00476 0.0
C1833 C 0.3262 0.85006 0.00993 0.0
C1834 C 0.33881 0.8694 0.01327 0.0
C1835 C 0.30668 0.85219 0.00274 0.0
C1836 C 0.25982 0.88969 -0.00319 0.0
H1837 H 0.17627 0.82938 0.96507 0.0
H1838 H 0.21288 0.83432 0.97508 0.0
H1839 H 0.22457 0.89893 -0.00433 0.0
H1840 H 0.3412 0.90608 0.01155 0.0
H1841 H 0.30641 0.90984 -0.00089 0.0
H1842 H 0.28634 0.85095 0.97831 0.0
C1843 C 0.20236 0.84921 0.97356 0.0
C1844 C 0.23802 0.88877 -0.00838 0.0
C1845 C 0.18128 0.84632 0.96793 0.0
C1846 C 0.33184 0.8909 0.00901 0.0
C1847 C 0.31194 0.89308 0.002 0.0
C1848 C 0.27303 0.86171 0.98205 0.0
C1849 C 0.21 0.871 0.97691 0.0
C1850 C 0.23345 0.87392 0.98176 0.0
C1851 C 0.29914 0.87372 -0.00109 0.0
C1852 C 0.27729 0.87567 -0.00773 0.0
H1853 H 0.16338 0.90154 0.96804 0.0
H1854 H 0.2007 0.90672 0.97776 0.0
H1855 H 0.24866 0.84988 0.96896 0.0
H1856 H 0.33124 0.83329 0.01307 0.0
H1857 H 0.29699 0.83703 0.00054 0.0
C1858 C 0.85762 0.41391 0.72392 0.0
C1859 C 0.87975 0.40707 0.72065 0.0
C1860 C 0.85431 0.43357 0.73099 0.0
C1861 C 0.88224 0.47235 0.75249 0.0
H1862 H 0.84873 0.52111 0.73657 0.0
C1863 C 0.89761 0.56445 0.76608 0.0
C1864 C 0.879 0.57935 0.76697 0.0
C1865 C 0.89502 0.54299 0.76083 0.0
C1866 C 0.85778 0.50758 0.74126 0.0
H1867 H 0.9157 0.41447 0.72267 0.0
H1868 H 0.90995 0.44828 0.73533 0.0
H1869 H 0.84801 0.48277 0.72774 0.0
H1870 H 0.84324 0.58385 0.76265 0.0
H1871 H 0.83857 0.54597 0.7536 0.0
H1872 H 0.89222 0.49688 0.76595 0.0
C1873 C 0.8952 0.43869 0.73233 0.0
C1874 C 0.85733 0.48567 0.73622 0.0
C1875 C 0.89848 0.41943 0.72506 0.0
C1876 C 0.8579 0.57272 0.76203 0.0
C1877 C 0.85523 0.55103 0.75687 0.0
C1878 C 0.88249 0.4941 0.7576 0.0
C1879 C 0.87311 0.44622 0.73512 0.0
C1880 C 0.87012 0.46809 0.74161 0.0
C1881 C 0.87367 0.53574 0.7565 0.0
C1882 C 0.87092 0.51216 0.75182 0.0
H1883 H 0.84292 0.40471 0.72053 0.0
H1884 H 0.83714 0.43912 0.73306 0.0
H1885 H 0.89205 0.45896 0.75686 0.0
H1886 H 0.91417 0.5692 0.76965 0.0
H1887 H 0.90977 0.53196 0.76032 0.0
C1888 C 0.05163 0.36359 0.07461 0.0
C1889 C 0.07238 0.3574 0.06907 0.0
C1890 C 0.04602 0.35549 0.08636 0.0
C1891 C 0.06268 0.31408 0.11063 0.0
H1892 H 0.05632 0.36552 0.13271 0.0
C1893 C 0.10421 0.31721 0.15803 0.0
C1894 C 0.09558 0.33181 0.16713 0.0
C1895 C 0.09324 0.31534 0.14665 0.0
C1896 C 0.0574 0.35074 0.12678 0.0
H1897 H 0.10278 0.33679 0.07125 0.0
H1898 H 0.09293 0.32256 0.09147 0.0
H1899 H 0.05056 0.37084 0.11079 0.0
H1900 H 0.06735 0.35375 0.17205 0.0
H1901 H 0.04797 0.35022 0.15233 0.0
H1902 H 0.07057 0.29418 0.1266 0.0
C1903 C 0.08091 0.33354 0.08677 0.0
C1904 C 0.05409 0.35384 0.11416 0.0
C1905 C 0.08666 0.34188 0.07516 0.0
C1906 C 0.07483 0.34302 0.16505 0.0
C1907 C 0.06367 0.3409 0.15375 0.0
C1908 C 0.0658 0.3109 0.12329 0.0
C1909 C 0.06091 0.3408 0.09266 0.0
C1910 C 0.05783 0.33582 0.10592 0.0
C1911 C 0.07323 0.32777 0.14423 0.0
C1912 C 0.06436 0.32948 0.13143 0.0
H1913 H 0.04022 0.37549 0.07014 0.0
H1914 H 0.03048 0.36135 0.09072 0.0
H1915 H 0.06537 0.29983 0.10446 0.0
H1916 H 0.12015 0.30828 0.15942 0.0
H1917 H 0.10129 0.30525 0.13952 0.0
C1918 C 0.93724 0.85112 0.4103 0.0
C1919 C 0.91707 0.84746 0.417 0.0
C1920 C 0.93933 0.84302 0.39824 0.0
C1921 C 0.91282 0.80551 0.37472 0.0
H1922 H 0.92703 0.85501 0.35239 0.0
C1923 C 0.87462 0.81317 0.32629 0.0
C1924 C 0.88626 0.82569 0.31726 0.0
C1925 C 0.88404 0.81041 0.33802 0.0
C1926 C 0.92359 0.8407 0.3584 0.0
H1927 H 0.88379 0.83144 0.41651 0.0
H1928 H 0.88746 0.81736 0.39557 0.0
H1929 H 0.93407 0.85952 0.37425 0.0
H1930 H 0.9179 0.84278 0.31287 0.0
H1931 H 0.93461 0.83761 0.33321 0.0
H1932 H 0.90157 0.78698 0.35886 0.0
C1933 C 0.90174 0.82626 0.39965 0.0
C1934 C 0.92763 0.84333 0.37098 0.0
C1935 C 0.89959 0.83448 0.41166 0.0
C1936 C 0.90822 0.83379 0.3198 0.0
C1937 C 0.91781 0.83074 0.33145 0.0
C1938 C 0.90893 0.80278 0.36209 0.0
C1939 C 0.92135 0.83101 0.3927 0.0
C1940 C 0.92153 0.8261 0.37931 0.0
C1941 C 0.90545 0.81982 0.34086 0.0
C1942 C 0.91349 0.82069 0.35384 0.0
H1943 H 0.95108 0.86095 0.4142 0.0
H1944 H 0.95469 0.8468 0.3931 0.0
H1945 H 0.90822 0.79184 0.38095 0.0
H1946 H 0.85767 0.80667 0.32451 0.0
H1947 H 0.87391 0.80208 0.34504 0.0
C1948 C 0.4177 0.66814 0.66315 0.0
C1949 C 0.39536 0.6753 0.66556 0.0
C1950 C 0.42745 0.6718 0.65159 0.0
C1951 C 0.41748 0.69871 0.62073 0.0
H1952 H 0.44314 0.64188 0.60899 0.0
C1953 C 0.40336 0.6631 0.57257 0.0
C1954 C 0.42029 0.64991 0.56684 0.0
C1955 C 0.40704 0.67247 0.58419 0.0
C1956 C 0.43661 0.65812 0.61212 0.0
H1957 H 0.36627 0.69346 0.65829 0.0
H1958 H 0.38278 0.69906 0.63788 0.0
H1959 H 0.43739 0.64742 0.63088 0.0
H1960 H 0.45483 0.63717 0.56856 0.0
H1961 H 0.46109 0.65329 0.58908 0.0
H1962 H 0.41523 0.70855 0.60173 0.0
C1963 C 0.39309 0.69103 0.64492 0.0
C1964 C 0.4333 0.66136 0.62473 0.0
C1965 C 0.38351 0.6877 0.65658 0.0
C1966 C 0.4414 0.64716 0.57276 0.0
C1967 C 0.44501 0.6564 0.58449 0.0
C1968 C 0.42065 0.69538 0.60808 0.0
C1969 C 0.41486 0.68233 0.64215 0.0
C1970 C 0.42284 0.68131 0.62915 0.0
C1971 C 0.42764 0.66869 0.59042 0.0
C1972 C 0.4294 0.67467 0.60365 0.0
H1973 H 0.42749 0.65927 0.67009 0.0
H1974 H 0.4445 0.6655 0.64989 0.0
H1975 H 0.40986 0.71447 0.62385 0.0
H1976 H 0.38684 0.66542 0.56835 0.0
H1977 H 0.39317 0.6815 0.58861 0.0
C1978 C 0.61114 0.18887 0.82653 0.0
C1979 C 0.60038 0.1756 0.81753 0.0
C1980 C 0.60077 0.19219 0.83799 0.0
C1981 C 0.56149 0.16069 0.85781 0.0
H1982 H 0.5779 0.20813 0.88098 0.0
C1983 C 0.55748 0.14456 0.9098 0.0
C1984 C 0.57901 0.14797 0.91517 0.0
C1985 C 0.55241 0.154 0.89827 0.0
C1986 C 0.57288 0.1949 0.87458 0.0
H1987 H 0.56924 0.15809 0.81264 0.0
H1988 H 0.55082 0.1643 0.8325 0.0
H1989 H 0.58228 0.21487 0.85887 0.0
H1990 H 0.61168 0.16468 0.91283 0.0
H1991 H 0.60279 0.1812 0.89298 0.0
H1992 H 0.55315 0.14036 0.87349 0.0
C1993 C 0.56764 0.17132 0.83099 0.0
C1994 C 0.57549 0.1987 0.86194 0.0
C1995 C 0.5782 0.16767 0.81963 0.0
C1996 C 0.59487 0.16189 0.90908 0.0
C1997 C 0.58972 0.17151 0.89769 0.0
C1998 C 0.55871 0.157 0.87041 0.0
C1999 C 0.57928 0.18259 0.84052 0.0
C2000 C 0.57095 0.18119 0.85345 0.0
C2001 C 0.56868 0.1672 0.89201 0.0
C2002 C 0.56548 0.17363 0.87893 0.0
H2003 H 0.62825 0.19523 0.82506 0.0
H2004 H 0.61038 0.20082 0.8451 0.0
H2005 H 0.558 0.14668 0.85161 0.0
H2006 H 0.54486 0.13398 0.91428 0.0
H2007 H 0.53606 0.1504 0.89408 0.0
C2008 C 0.08892 0.65043 0.32281 0.0
C2009 C 0.09851 0.66865 0.31625 0.0
C2010 C 0.07968 0.65379 0.33447 0.0
C2011 C 0.05682 0.66369 0.35838 0.0
H2012 H 0.09831 0.69662 0.37963 0.0
C2013 C 0.06199 0.64199 0.4098 0.0
C2014 C 0.08448 0.63892 0.41389 0.0
C2015 C 0.05761 0.6536 0.39878 0.0
C2016 C 0.08646 0.6874 0.37383 0.0
H2017 H 0.10489 0.70498 0.31649 0.0
H2018 H 0.08853 0.71096 0.33702 0.0
H2019 H 0.10063 0.70175 0.35746 0.0
H2020 H 0.11993 0.64606 0.40986 0.0
H2021 H 0.11253 0.66536 0.39061 0.0
H2022 H 0.04437 0.64741 0.37461 0.0
C2023 C 0.08838 0.694 0.33313 0.0
C2024 C 0.08755 0.69063 0.36109 0.0
C2025 C 0.09775 0.69059 0.32139 0.0
C2026 C 0.1024 0.64826 0.407 0.0
C2027 C 0.09808 0.65961 0.39598 0.0
C2028 C 0.05604 0.66011 0.37109 0.0
C2029 C 0.07971 0.6755 0.33992 0.0
C2030 C 0.0737 0.6777 0.35318 0.0
C2031 C 0.07567 0.66212 0.39159 0.0
C2032 C 0.07184 0.67088 0.37889 0.0
H2033 H 0.08944 0.63326 0.31921 0.0
H2034 H 0.07374 0.639 0.33948 0.0
H2035 H 0.04537 0.65404 0.35255 0.0
H2036 H 0.04782 0.63518 0.41502 0.0
H2037 H 0.04013 0.65543 0.39576 0.0
C2038 C 0.58095 0.85999 0.66402 0.0
C2039 C 0.59794 0.84403 0.66691 0.0
C2040 C 0.5703 0.85968 0.65253 0.0
C2041 C 0.56572 0.82667 0.62307 0.0
H2042 H 0.56283 0.88704 0.6087 0.0
C2043 C 0.5865 0.84771 0.57302 0.0
C2044 C 0.57463 0.86517 0.56695 0.0
C2045 C 0.5811 0.84191 0.58513 0.0
C2046 C 0.56294 0.87007 0.61262 0.0
H2047 H 0.61636 0.81455 0.66019 0.0
H2048 H 0.59865 0.81462 0.63994 0.0
H2049 H 0.56889 0.88296 0.63068 0.0
H2050 H 0.54685 0.88933 0.56855 0.0
H2051 H 0.53779 0.87953 0.58994 0.0
H2052 H 0.56155 0.81397 0.60467 0.0
C2053 C 0.59298 0.82703 0.64665 0.0
C2054 C 0.56641 0.86768 0.62527 0.0
C2055 C 0.60334 0.82711 0.65824 0.0
C2056 C 0.55636 0.87585 0.57301 0.0
C2057 C 0.55117 0.87027 0.58523 0.0
C2058 C 0.56253 0.82908 0.61037 0.0
C2059 C 0.57673 0.84369 0.64354 0.0
C2060 C 0.56867 0.84595 0.6306 0.0
C2061 C 0.56392 0.85365 0.59149 0.0
C2062 C 0.56191 0.85082 0.60499 0.0
H2063 H 0.57618 0.87311 0.67049 0.0
H2064 H 0.5575 0.87245 0.65056 0.0
H2065 H 0.56683 0.80969 0.62691 0.0
H2066 H 0.6005 0.839 0.56862 0.0
H2067 H 0.59139 0.82921 0.58977 0.0
C2068 C 0.37853 0.31516 0.82281 0.0
C2069 C 0.387 0.3333 0.8157 0.0
C2070 C 0.38412 0.31333 0.83529 0.0
C2071 C 0.38246 0.32925 0.86206 0.0
H2072 H 0.44247 0.33886 0.87603 0.0
C2073 C 0.39272 0.34233 0.914 0.0
C2074 C 0.40754 0.35982 0.91763 0.0
C2075 C 0.39316 0.33399 0.90196 0.0
C2076 C 0.42558 0.33629 0.87228 0.0
H2077 H 0.40902 0.36294 0.81598 0.0
H2078 H 0.41904 0.35949 0.83766 0.0
H2079 H 0.43832 0.33331 0.8538 0.0
H2080 H 0.43506 0.38174 0.91161 0.0
H2081 H 0.43521 0.36798 0.89046 0.0
H2082 H 0.36937 0.33366 0.88022 0.0
C2083 C 0.40806 0.34674 0.83357 0.0
C2084 C 0.42327 0.33296 0.85958 0.0
C2085 C 0.40221 0.34877 0.82115 0.0
C2086 C 0.42343 0.36822 0.90909 0.0
C2087 C 0.42362 0.36018 0.89697 0.0
C2088 C 0.38471 0.33289 0.8747 0.0
C2089 C 0.39855 0.3294 0.84083 0.0
C2090 C 0.40163 0.32979 0.85435 0.0
C2091 C 0.40813 0.34329 0.89318 0.0
C2092 C 0.40625 0.33686 0.87996 0.0
H2093 H 0.36679 0.30294 0.81888 0.0
H2094 H 0.37665 0.29976 0.84071 0.0
H2095 H 0.36554 0.32722 0.85823 0.0
H2096 H 0.38047 0.33524 0.92036 0.0
H2097 H 0.38138 0.32058 0.89948 0.0
C2098 C 0.8841 0.18069 0.15719 0.0
C2099 C 0.89607 0.1681 0.16605 0.0
C2100 C 0.89285 0.18308 0.14527 0.0
C2101 C 0.93049 0.15137 0.12443 0.0
H2102 H 0.91372 0.19932 0.1016 0.0
C2103 C 0.93982 0.13884 0.07228 0.0
C2104 C 0.91915 0.14242 0.06604 0.0
C2105 C 0.94289 0.14722 0.08423 0.0
C2106 C 0.91871 0.18591 0.1079 0.0
H2107 H 0.92769 0.15058 0.16998 0.0
H2108 H 0.94329 0.1552 0.14933 0.0
H2109 H 0.90903 0.20533 0.12376 0.0
H2110 H 0.8859 0.15841 0.06726 0.0
H2111 H 0.89132 0.17305 0.08796 0.0
H2112 H 0.93944 0.13169 0.10859 0.0
C2113 C 0.92672 0.16239 0.15135 0.0
C2114 C 0.91594 0.18928 0.12057 0.0
C2115 C 0.91778 0.15968 0.16318 0.0
C2116 C 0.90209 0.15547 0.07174 0.0
C2117 C 0.90524 0.164 0.08361 0.0
C2118 C 0.93344 0.1481 0.1118 0.0
C2119 C 0.91392 0.17324 0.14209 0.0
C2120 C 0.92099 0.17171 0.12895 0.0
C2121 C 0.92542 0.15947 0.0901 0.0
C2122 C 0.9268 0.16499 0.10339 0.0
H2123 H 0.86733 0.18741 0.15922 0.0
H2124 H 0.88239 0.19139 0.13839 0.0
H2125 H 0.93426 0.13729 0.13054 0.0
H2126 H 0.95334 0.12893 0.06811 0.0
H2127 H 0.95866 0.14356 0.08902 0.0
C2128 C 0.88141 0.69057 0.82142 0.0
C2129 C 0.88811 0.67027 0.81559 0.0
C2130 C 0.88887 0.6955 0.83338 0.0
C2131 C 0.92983 0.67842 0.85771 0.0
H2132 H 0.87801 0.68386 0.87964 0.0
C2133 C 0.92811 0.63908 0.90585 0.0
C2134 C 0.91345 0.64791 0.91487 0.0
C2135 C 0.92935 0.64918 0.89421 0.0
C2136 C 0.89287 0.68301 0.87375 0.0
H2137 H 0.90885 0.63991 0.81753 0.0
H2138 H 0.92202 0.64863 0.83812 0.0
H2139 H 0.87281 0.68942 0.85768 0.0
H2140 H 0.89046 0.67562 0.91923 0.0
H2141 H 0.89297 0.69357 0.89909 0.0
H2142 H 0.94975 0.67115 0.87375 0.0
C2143 C 0.91112 0.6608 0.83348 0.0
C2144 C 0.88983 0.6862 0.86111 0.0
C2145 C 0.90342 0.65572 0.82166 0.0
C2146 C 0.90137 0.66801 0.91237 0.0
C2147 C 0.90287 0.67833 0.90081 0.0
C2148 C 0.93294 0.67545 0.87038 0.0
C2149 C 0.90343 0.68038 0.8396 0.0
C2150 C 0.90806 0.68293 0.85293 0.0
C2151 C 0.9162 0.66856 0.89143 0.0
C2152 C 0.91426 0.67667 0.87848 0.0
H2153 H 0.86964 0.70216 0.81698 0.0
H2154 H 0.88268 0.71071 0.83792 0.0
H2155 H 0.94422 0.67608 0.85158 0.0
H2156 H 0.93768 0.62362 0.90754 0.0
H2157 H 0.93961 0.64098 0.8872 0.0
C2158 C 0.08866 0.15906 0.57223 0.0
C2159 C 0.07337 0.14441 0.56623 0.0
C2160 C 0.08444 0.16635 0.58424 0.0
C2161 C 0.05947 0.144 0.61185 0.0
H2162 H 0.07872 0.20177 0.62563 0.0
C2163 C 0.08054 0.15025 0.66302 0.0
C2164 C 0.10152 0.16073 0.66548 0.0
C2165 C 0.06983 0.15334 0.65166 0.0
C2166 C 0.07323 0.18556 0.62193 0.0
H2167 H 0.04094 0.12697 0.56787 0.0
H2168 H 0.03381 0.13939 0.58906 0.0
H2169 H 0.0723 0.19841 0.60344 0.0
H2170 H 0.12707 0.18382 0.65836 0.0
H2171 H 0.10898 0.18852 0.63833 0.0
H2172 H 0.06198 0.13056 0.63004 0.0
C2173 C 0.04901 0.14528 0.58438 0.0
C2174 C 0.06943 0.18369 0.60925 0.0
C2175 C 0.05312 0.13818 0.57227 0.0
C2176 C 0.11094 0.17545 0.65667 0.0
C2177 C 0.10042 0.17829 0.64522 0.0
C2178 C 0.06344 0.1458 0.62448 0.0
C2179 C 0.06496 0.15895 0.59058 0.0
C2180 C 0.0634 0.16264 0.60405 0.0
C2181 C 0.08007 0.16672 0.64245 0.0
C2182 C 0.07126 0.16635 0.62961 0.0
H2183 H 0.10445 0.16412 0.56792 0.0
H2184 H 0.09723 0.17658 0.58883 0.0
H2185 H 0.05509 0.12749 0.60809 0.0
H2186 H 0.07246 0.13944 0.66978 0.0
H2187 H 0.05387 0.14466 0.64995 0.0
C2188 C 0.55385 0.36634 0.40781 0.0
C2189 C 0.57356 0.35893 0.41399 0.0
C2190 C 0.5496 0.35944 0.39569 0.0
C2191 C 0.56743 0.31933 0.37113 0.0
H2192 H 0.56507 0.37248 0.35 0.0
C2193 C 0.60872 0.32179 0.3234 0.0
C2194 C 0.60065 0.33706 0.31446 0.0
C2195 C 0.59837 0.32061 0.33498 0.0
C2196 C 0.56508 0.35729 0.35565 0.0
H2197 H 0.60331 0.3372 0.41256 0.0
H2198 H 0.59581 0.32506 0.39162 0.0
H2199 H 0.55826 0.37663 0.37192 0.0
H2200 H 0.57414 0.36155 0.31027 0.0
H2201 H 0.5557 0.35906 0.33025 0.0
H2202 H 0.57502 0.30009 0.35489 0.0
C2203 C 0.58363 0.33617 0.3961 0.0
C2204 C 0.56117 0.35972 0.36826 0.0
C2205 C 0.58804 0.34331 0.40812 0.0
C2206 C 0.58113 0.35002 0.31703 0.0
C2207 C 0.57054 0.34858 0.32852 0.0
C2208 C 0.5711 0.31684 0.35847 0.0
C2209 C 0.5648 0.34474 0.38963 0.0
C2210 C 0.56325 0.34094 0.37618 0.0
C2211 C 0.57948 0.33443 0.33778 0.0
C2212 C 0.57094 0.33597 0.35066 0.0
H2213 H 0.54231 0.37834 0.41211 0.0
H2214 H 0.53493 0.36625 0.39089 0.0
H2215 H 0.56889 0.30455 0.37705 0.0
H2216 H 0.62372 0.31154 0.32167 0.0
H2217 H 0.60596 0.30972 0.3419 0.0
C2218 C 0.43877 0.86231 0.07373 0.0
C2219 C 0.41831 0.85829 0.06736 0.0
C2220 C 0.44181 0.85393 0.08569 0.0
C2221 C 0.41823 0.81433 0.10907 0.0
H2222 H 0.43202 0.86294 0.13203 0.0
C2223 C 0.38286 0.81749 0.15826 0.0
C2224 C 0.39448 0.83001 0.16729 0.0
C2225 C 0.39172 0.81575 0.14634 0.0
C2226 C 0.42874 0.84888 0.12582 0.0
H2227 H 0.38541 0.84157 0.06839 0.0
H2228 H 0.39079 0.82689 0.08909 0.0
H2229 H 0.43742 0.86907 0.11013 0.0
H2230 H 0.42563 0.84817 0.17143 0.0
H2231 H 0.44139 0.84475 0.15076 0.0
H2232 H 0.40881 0.79438 0.12479 0.0
C2233 C 0.40457 0.8363 0.08483 0.0
C2234 C 0.43183 0.85246 0.11323 0.0
C2235 C 0.40145 0.84484 0.07296 0.0
C2236 C 0.41596 0.8391 0.16452 0.0
C2237 C 0.425 0.83707 0.15268 0.0
C2238 C 0.41533 0.81066 0.12171 0.0
C2239 C 0.42453 0.84122 0.09143 0.0
C2240 C 0.42581 0.83553 0.10471 0.0
C2241 C 0.41255 0.82621 0.1433 0.0
C2242 C 0.41974 0.82821 0.1302 0.0
H2243 H 0.45213 0.87255 0.06965 0.0
H2244 H 0.45739 0.85791 0.09057 0.0
H2245 H 0.41373 0.8009 0.10268 0.0
H2246 H 0.36627 0.81026 0.16019 0.0
H2247 H 0.38152 0.80742 0.13936 0.0
C2248 C 0.90834 0.35014 0.66004 0.0
C2249 C 0.89984 0.331 0.66625 0.0
C2250 C 0.91806 0.34796 0.64838 0.0
C2251 C 0.91408 0.31057 0.62147 0.0
H2252 H 0.9534 0.35735 0.60796 0.0
C2253 C 0.8984 0.34839 0.57448 0.0
C2254 C 0.91603 0.35796 0.56746 0.0
C2255 C 0.90287 0.33876 0.58594 0.0
C2256 C 0.94286 0.34373 0.61153 0.0
H2257 H 0.89628 0.29431 0.66556 0.0
H2258 H 0.9138 0.29035 0.64522 0.0
H2259 H 0.95181 0.35166 0.63014 0.0
H2260 H 0.9524 0.3642 0.56672 0.0
H2261 H 0.96032 0.34711 0.58688 0.0
H2262 H 0.90509 0.30269 0.60287 0.0
C2263 C 0.91244 0.30716 0.64924 0.0
C2264 C 0.94168 0.34069 0.62428 0.0
C2265 C 0.90243 0.30941 0.66089 0.0
C2266 C 0.93844 0.35705 0.57198 0.0
C2267 C 0.94297 0.34728 0.58351 0.0
C2268 C 0.91559 0.31333 0.60872 0.0
C2269 C 0.91976 0.32652 0.64268 0.0
C2270 C 0.92616 0.3251 0.62943 0.0
C2271 C 0.92514 0.33832 0.5907 0.0
C2272 C 0.92883 0.33094 0.60365 0.0
H2273 H 0.90653 0.36704 0.6639 0.0
H2274 H 0.923 0.36335 0.64359 0.0
H2275 H 0.90202 0.29828 0.62502 0.0
H2276 H 0.88091 0.34905 0.57136 0.0
H2277 H 0.88858 0.33263 0.59132 0.0
C2278 C 0.3988 0.15159 0.32613 0.0
C2279 C 0.38954 0.16939 0.31912 0.0
C2280 C 0.40822 0.15582 0.33766 0.0
C2281 C 0.40291 0.19549 0.36335 0.0
H2282 H 0.44751 0.15389 0.37701 0.0
C2283 C 0.39416 0.15957 0.41141 0.0
C2284 C 0.41291 0.15041 0.4177 0.0
C2285 C 0.39697 0.16979 0.39993 0.0
C2286 C 0.43546 0.16617 0.37342 0.0
H2287 H 0.38368 0.20581 0.31847 0.0
H2288 H 0.4004 0.21332 0.33875 0.0
H2289 H 0.44391 0.15751 0.35485 0.0
H2290 H 0.44959 0.14629 0.41738 0.0
H2291 H 0.45467 0.16473 0.39738 0.0
H2292 H 0.39442 0.20411 0.38194 0.0
C2293 C 0.40014 0.19601 0.33532 0.0
C2294 C 0.43317 0.16798 0.36066 0.0
C2295 C 0.39057 0.19173 0.32372 0.0
C2296 C 0.43477 0.15291 0.41263 0.0
C2297 C 0.43766 0.16345 0.40117 0.0
C2298 C 0.4055 0.194 0.37613 0.0
C2299 C 0.40875 0.17802 0.3425 0.0
C2300 C 0.41583 0.18147 0.35552 0.0
C2301 C 0.41868 0.17136 0.39449 0.0
C2302 C 0.42074 0.17818 0.38132 0.0
H2303 H 0.39805 0.13416 0.32293 0.0
H2304 H 0.41409 0.14142 0.34303 0.0
H2305 H 0.38951 0.20623 0.35973 0.0
H2306 H 0.37708 0.15787 0.41507 0.0
H2307 H 0.38185 0.17521 0.39503 0.0
C2308 C 0.57353 0.667 0.16326 0.0
C2309 C 0.59559 0.675 0.16563 0.0
C2310 C 0.56332 0.6709 0.15183 0.0
C2311 C 0.57215 0.69906 0.12113 0.0
H2312 H 0.55019 0.641 0.10901 0.0
C2313 C 0.59327 0.66293 0.07403 0.0
C2314 C 0.57769 0.64896 0.06779 0.0
C2315 C 0.58763 0.67255 0.08537 0.0
C2316 C 0.55565 0.65757 0.11224 0.0
H2317 H 0.62358 0.69499 0.15849 0.0
H2318 H 0.60637 0.70099 0.13833 0.0
H2319 H 0.55429 0.64684 0.13097 0.0
H2320 H 0.5435 0.63499 0.06826 0.0
H2321 H 0.53385 0.65141 0.08834 0.0
H2322 H 0.57525 0.7089 0.10216 0.0
C2323 C 0.59656 0.69212 0.14529 0.0
C2324 C 0.558 0.66098 0.12489 0.0
C2325 C 0.60657 0.68856 0.15681 0.0
C2326 C 0.55592 0.6456 0.07288 0.0
C2327 C 0.55036 0.65503 0.08434 0.0
C2328 C 0.56999 0.69554 0.10844 0.0
C2329 C 0.57521 0.68248 0.14248 0.0
C2330 C 0.56732 0.68137 0.12947 0.0
C2331 C 0.56638 0.66818 0.09081 0.0
C2332 C 0.56273 0.67436 0.10388 0.0
H2333 H 0.56439 0.65719 0.17009 0.0
H2334 H 0.54658 0.66384 0.15012 0.0
H2335 H 0.57884 0.71517 0.12435 0.0
H2336 H 0.61023 0.66574 0.07048 0.0
H2337 H 0.60051 0.68223 0.09023 0.0
C2338 C 0.09732 0.80235 0.82265 0.0
C2339 C 0.09868 0.8245 0.81783 0.0
C2340 C 0.08719 0.79853 0.83416 0.0
C2341 C 0.05506 0.82831 0.85946 0.0
H2342 H 0.09398 0.79215 0.88061 0.0
C2343 C 0.05854 0.84601 0.91142 0.0
C2344 C 0.08097 0.848 0.91579 0.0
C2345 C 0.05417 0.83537 0.90011 0.0
C2346 C 0.08284 0.80227 0.87484 0.0
H2347 H 0.08986 0.85985 0.82106 0.0
H2348 H 0.07305 0.85345 0.84103 0.0
H2349 H 0.09741 0.78861 0.85842 0.0
H2350 H 0.1163 0.83993 0.91192 0.0
H2351 H 0.10894 0.82221 0.89227 0.0
H2352 H 0.04233 0.84385 0.87585 0.0
C2353 C 0.07904 0.83879 0.83593 0.0
C2354 C 0.08455 0.79997 0.86206 0.0
C2355 C 0.08894 0.84254 0.82445 0.0
C2356 C 0.0988 0.83851 0.90888 0.0
C2357 C 0.0945 0.82809 0.89761 0.0
C2358 C 0.05369 0.83097 0.87223 0.0
C2359 C 0.07844 0.81683 0.84108 0.0
C2360 C 0.07169 0.81403 0.85422 0.0
C2361 C 0.0722 0.8267 0.89294 0.0
C2362 C 0.06861 0.81899 0.88002 0.0
H2363 H 0.10451 0.78807 0.81767 0.0
H2364 H 0.08681 0.78136 0.83779 0.0
H2365 H 0.04428 0.8388 0.85368 0.0
H2366 H 0.04443 0.85301 0.91662 0.0
H2367 H 0.03677 0.83441 0.89685 0.0
loop_
_geom_bond_atom_site_label_1
_geom_bond_atom_site_label_2
_geom_bond_distance
_geom_bond_site_symmetry_2
_ccdc_geom_bond_type
Mg0 O1 2.028 . S
Mg0 O7 1.986 . S
Mg0 O9 2.114 . S
Mg0 O10 2.251 . S
Mg0 O13 2.010 . S
O1 Mg0 2.028 . S
O1 C4 1.250 . S
O2 Mg3 2.028 . S
O2 C4 1.248 . S
Mg3 O2 2.028 . S
Mg3 O8 2.032 . S
Mg3 O10 2.079 . S
C4 O1 1.250 . S
C4 O2 1.248 . S
C5 O6 1.264 . S
C5 O13 1.249 . S
O6 C5 1.264 . S
O7 Mg0 1.986 . S
O7 C11 1.246 . S
O8 Mg3 2.032 . S
O8 C11 1.259 . S
O9 Mg0 2.114 . S
O9 C12 1.252 . S
O10 Mg0 2.251 . S
O10 Mg3 2.079 . S
O10 C12 1.273 . S
C11 O7 1.246 . S
C11 O8 1.259 . S
C12 O9 1.252 . S
C12 O10 1.273 . S
O13 Mg0 2.010 . S
O13 C5 1.249 . S
Mg14 O15 2.028 . S
Mg14 O21 1.986 . S
Mg14 O23 2.114 . S
Mg14 O24 2.251 . S
Mg14 O27 2.010 . S
O15 Mg14 2.028 . S
O15 C18 1.250 . S
O16 Mg17 2.028 . S
O16 C18 1.248 . S
Mg17 O16 2.028 . S
Mg17 O22 2.032 . S
Mg17 O24 2.079 . S
C18 O15 1.250 . S
C18 O16 1.248 . S
C19 O20 1.264 . S
C19 O27 1.249 . S
O20 C19 1.264 . S
O21 Mg14 1.986 . S
O21 C25 1.246 . S
O22 Mg17 2.032 . S
O22 C25 1.259 . S
O23 Mg14 2.114 . S
O23 C26 1.252 . S
O24 Mg14 2.251 . S
O24 Mg17 2.079 . S
O24 C26 1.273 . S
C25 O21 1.246 . S
C25 O22 1.259 . S
C26 O23 1.252 . S
C26 O24 1.273 . S
O27 Mg14 2.010 . S
O27 C19 1.249 . S
Mg28 O29 2.028 . S
Mg28 O35 1.986 . S
Mg28 O37 2.114 . S
Mg28 O38 2.251 . S
Mg28 O41 2.010 . S
O29 Mg28 2.028 . S
O29 C32 1.250 . S
O30 Mg31 2.028 . S
O30 C32 1.248 . S
Mg31 O30 2.028 . S
Mg31 O36 2.032 . S
Mg31 O38 2.079 . S
C32 O29 1.250 . S
C32 O30 1.248 . S
C33 O34 1.264 . S
C33 O41 1.249 . S
O34 C33 1.264 . S
O35 Mg28 1.986 . S
O35 C39 1.246 . S
O36 Mg31 2.032 . S
O36 C39 1.259 . S
O37 Mg28 2.114 . S
O37 C40 1.252 . S
O38 Mg28 2.251 . S
O38 Mg31 2.079 . S
O38 C40 1.273 . S
C39 O35 1.246 . S
C39 O36 1.259 . S
C40 O37 1.252 . S
C40 O38 1.273 . S
O41 Mg28 2.010 . S
O41 C33 1.249 . S
Mg42 O43 2.028 . S
Mg42 O49 1.986 . S
Mg42 O51 2.114 . S
Mg42 O52 2.251 . S
Mg42 O55 2.010 . S
O43 Mg42 2.028 . S
O43 C46 1.250 . S
O44 Mg45 2.028 . S
O44 C46 1.248 . S
Mg45 O44 2.028 . S
Mg45 O50 2.032 . S
Mg45 O52 2.079 . S
C46 O43 1.250 . S
C46 O44 1.248 . S
C47 O48 1.264 . S
C47 O55 1.249 . S
O48 C47 1.264 . S
O49 Mg42 1.986 . S
O49 C53 1.246 . S
O50 Mg45 2.032 . S
O50 C53 1.259 . S
O51 Mg42 2.114 . S
O51 C54 1.252 . S
O52 Mg42 2.251 . S
O52 Mg45 2.079 . S
O52 C54 1.273 . S
C53 O49 1.246 . S
C53 O50 1.259 . S
C54 O51 1.252 . S
C54 O52 1.273 . S
O55 Mg42 2.010 . S
O55 C47 1.249 . S
Mg56 O57 2.028 . S
Mg56 O63 1.986 . S
Mg56 O65 2.114 . S
Mg56 O66 2.251 . S
Mg56 O69 2.010 . S
O57 Mg56 2.028 . S
O57 C60 1.250 . S
O58 Mg59 2.028 . S
O58 C60 1.248 . S
Mg59 O58 2.028 . S
Mg59 O64 2.032 . S
Mg59 O66 2.079 . S
C60 O57 1.250 . S
C60 O58 1.248 . S
C61 O62 1.264 . S
C61 O69 1.249 . S
O62 C61 1.264 . S
O63 Mg56 1.986 . S
O63 C67 1.246 . S
O64 Mg59 2.032 . S
O64 C67 1.259 . S
O65 Mg56 2.114 . S
O65 C68 1.252 . S
O66 Mg56 2.251 . S
O66 Mg59 2.079 . S
O66 C68 1.273 . S
C67 O63 1.246 . S
C67 O64 1.259 . S
C68 O65 1.252 . S
C68 O66 1.273 . S
O69 Mg56 2.010 . S
O69 C61 1.249 . S
Mg70 O71 2.028 . S
Mg70 O77 1.986 . S
Mg70 O79 2.114 . S
Mg70 O80 2.251 . S
Mg70 O83 2.010 . S
O71 Mg70 2.028 . S
O71 C74 1.250 . S
O72 Mg73 2.028 . S
O72 C74 1.248 . S
Mg73 O72 2.028 . S
Mg73 O78 2.032 . S
Mg73 O80 2.079 . S
C74 O71 1.250 . S
C74 O72 1.248 . S
C75 O76 1.264 . S
C75 O83 1.249 . S
O76 C75 1.264 . S
O77 Mg70 1.986 . S
O77 C81 1.246 . S
O78 Mg73 2.032 . S
O78 C81 1.259 . S
O79 Mg70 2.114 . S
O79 C82 1.252 . S
O80 Mg70 2.251 . S
O80 Mg73 2.079 . S
O80 C82 1.273 . S
C81 O77 1.246 . S
C81 O78 1.259 . S
C82 O79 1.252 . S
C82 O80 1.273 . S
O83 Mg70 2.010 . S
O83 C75 1.249 . S
Mg84 O85 2.028 . S
Mg84 O91 1.986 . S
Mg84 O93 2.114 . S
Mg84 O94 2.251 . S
Mg84 O97 2.010 . S
O85 Mg84 2.028 . S
O85 C88 1.250 . S
O86 Mg87 2.028 . S
O86 C88 1.248 . S
Mg87 O86 2.028 . S
Mg87 O92 2.032 . S
Mg87 O94 2.079 . S
C88 O85 1.250 . S
C88 O86 1.248 . S
C89 O90 1.264 . S
C89 O97 1.249 . S
O90 C89 1.264 . S
O91 Mg84 1.986 . S
O91 C95 1.246 . S
O92 Mg87 2.032 . S
O92 C95 1.259 . S
O93 Mg84 2.114 . S
O93 C96 1.252 . S
O94 Mg84 2.251 . S
O94 Mg87 2.079 . S
O94 C96 1.273 . S
C95 O91 1.246 . S
C95 O92 1.259 . S
C96 O93 1.252 . S
C96 O94 1.273 . S
O97 Mg84 2.010 . S
O97 C89 1.249 . S
Mg98 O99 2.028 . S
Mg98 O105 1.986 . S
Mg98 O107 2.114 . S
Mg98 O108 2.251 . S
Mg98 O111 2.010 . S
O99 Mg98 2.028 . S
O99 C102 1.250 . S
O100 Mg101 2.028 . S
O100 C102 1.248 . S
Mg101 O100 2.028 . S
Mg101 O106 2.032 . S
Mg101 O108 2.079 . S
C102 O99 1.250 . S
C102 O100 1.248 . S
C103 O104 1.264 . S
C103 O111 1.249 . S
O104 C103 1.264 . S
O105 Mg98 1.986 . S
O105 C109 1.246 . S
O106 Mg101 2.032 . S
O106 C109 1.259 . S
O107 Mg98 2.114 . S
O107 C110 1.252 . S
O108 Mg98 2.251 . S
O108 Mg101 2.079 . S
O108 C110 1.273 . S
C109 O105 1.246 . S
C109 O106 1.259 . S
C110 O107 1.252 . S
C110 O108 1.273 . S
O111 Mg98 2.010 . S
O111 C103 1.249 . S
Mg112 O113 2.028 . S
Mg112 O119 1.986 . S
Mg112 O121 2.114 . S
Mg112 O122 2.251 . S
Mg112 O125 2.010 . S
O113 Mg112 2.028 . S
O113 C116 1.250 . S
O114 Mg115 2.028 . S
O114 C116 1.248 . S
Mg115 O114 2.028 . S
Mg115 O120 2.032 . S
Mg115 O122 2.079 . S
C116 O113 1.250 . S
C116 O114 1.248 . S
C117 O118 1.264 . S
C117 O125 1.249 . S
O118 C117 1.264 . S
O119 Mg112 1.986 . S
O119 C123 1.246 . S
O120 Mg115 2.032 . S
O120 C123 1.259 . S
O121 Mg112 2.114 . S
O121 C124 1.252 . S
O122 Mg112 2.251 . S
O122 Mg115 2.079 . S
O122 C124 1.273 . S
C123 O119 1.246 . S
C123 O120 1.259 . S
C124 O121 1.252 . S
C124 O122 1.273 . S
O125 Mg112 2.010 . S
O125 C117 1.249 . S
Mg126 O127 2.028 . S
Mg126 O133 1.986 . S
Mg126 O135 2.114 . S
Mg126 O136 2.251 . S
Mg126 O139 2.010 . S
O127 Mg126 2.028 . S
O127 C130 1.250 . S
O128 Mg129 2.028 . S
O128 C130 1.248 . S
Mg129 O128 2.028 . S
Mg129 O134 2.032 . S
Mg129 O136 2.079 . S
C130 O127 1.250 . S
C130 O128 1.248 . S
C131 O132 1.264 . S
C131 O139 1.249 . S
O132 C131 1.264 . S
O133 Mg126 1.986 . S
O133 C137 1.246 . S
O134 Mg129 2.032 . S
O134 C137 1.259 . S
O135 Mg126 2.114 . S
O135 C138 1.252 . S
O136 Mg126 2.251 . S
O136 Mg129 2.079 . S
O136 C138 1.273 . S
C137 O133 1.246 . S
C137 O134 1.259 . S
C138 O135 1.252 . S
C138 O136 1.273 . S
O139 Mg126 2.010 . S
O139 C131 1.249 . S
Mg140 O141 2.028 . S
Mg140 O147 1.986 . S
Mg140 O149 2.114 . S
Mg140 O150 2.251 . S
Mg140 O153 2.010 . S
O141 Mg140 2.028 . S
O141 C144 1.250 . S
O142 Mg143 2.028 . S
O142 C144 1.248 . S
Mg143 O142 2.028 . S
Mg143 O148 2.032 . S
Mg143 O150 2.079 . S
C144 O141 1.250 . S
C144 O142 1.248 . S
C145 O146 1.264 . S
C145 O153 1.249 . S
O146 C145 1.264 . S
O147 Mg140 1.986 . S
O147 C151 1.246 . S
O148 Mg143 2.032 . S
O148 C151 1.259 . S
O149 Mg140 2.114 . S
O149 C152 1.252 . S
O150 Mg140 2.251 . S
O150 Mg143 2.079 . S
O150 C152 1.273 . S
C151 O147 1.246 . S
C151 O148 1.259 . S
C152 O149 1.252 . S
C152 O150 1.273 . S
O153 Mg140 2.010 . S
O153 C145 1.249 . S
Mg154 O155 2.028 . S
Mg154 O161 1.986 . S
Mg154 O163 2.114 . S
Mg154 O164 2.251 . S
Mg154 O167 2.010 . S
O155 Mg154 2.028 . S
O155 C158 1.250 . S
O156 Mg157 2.028 . S
O156 C158 1.248 . S
Mg157 O156 2.028 . S
Mg157 O162 2.032 . S
Mg157 O164 2.079 . S
C158 O155 1.250 . S
C158 O156 1.248 . S
C159 O160 1.264 . S
C159 O167 1.249 . S
O160 C159 1.264 . S
O161 Mg154 1.986 . S
O161 C165 1.246 . S
O162 Mg157 2.032 . S
O162 C165 1.259 . S
O163 Mg154 2.114 . S
O163 C166 1.252 . S
O164 Mg154 2.251 . S
O164 Mg157 2.079 . S
O164 C166 1.273 . S
C165 O161 1.246 . S
C165 O162 1.259 . S
C166 O163 1.252 . S
C166 O164 1.273 . S
O167 Mg154 2.010 . S
O167 C159 1.249 . S
Mg168 O169 2.028 . S
Mg168 O175 1.986 . S
Mg168 O177 2.114 . S
Mg168 O178 2.251 . S
Mg168 O181 2.010 . S
O169 Mg168 2.028 . S
O169 C172 1.250 . S
O170 Mg171 2.028 . S
O170 C172 1.248 . S
Mg171 O170 2.028 . S
Mg171 O176 2.032 . S
Mg171 O178 2.079 . S
C172 O169 1.250 . S
C172 O170 1.248 . S
C173 O174 1.264 . S
C173 O181 1.249 . S
O174 C173 1.264 . S
O175 Mg168 1.986 . S
O175 C179 1.246 . S
O176 Mg171 2.032 . S
O176 C179 1.259 . S
O177 Mg168 2.114 . S
O177 C180 1.252 . S
O178 Mg168 2.251 . S
O178 Mg171 2.079 . S
O178 C180 1.273 . S
C179 O175 1.246 . S
C179 O176 1.259 . S
C180 O177 1.252 . S
C180 O178 1.273 . S
O181 Mg168 2.010 . S
O181 C173 1.249 . S
Mg182 O183 2.028 . S
Mg182 O189 1.986 . S
Mg182 O191 2.114 . S
Mg182 O192 2.251 . S
Mg182 O195 2.010 . S
O183 Mg182 2.028 . S
O183 C186 1.250 . S
O184 Mg185 2.028 . S
O184 C186 1.248 . S
Mg185 O184 2.028 . S
Mg185 O190 2.032 . S
Mg185 O192 2.079 . S
C186 O183 1.250 . S
C186 O184 1.248 . S
C187 O188 1.264 . S
C187 O195 1.249 . S
O188 C187 1.264 . S
O189 Mg182 1.986 . S
O189 C193 1.246 . S
O190 Mg185 2.032 . S
O190 C193 1.259 . S
O191 Mg182 2.114 . S
O191 C194 1.252 . S
O192 Mg182 2.251 . S
O192 Mg185 2.079 . S
O192 C194 1.273 . S
C193 O189 1.246 . S
C193 O190 1.259 . S
C194 O191 1.252 . S
C194 O192 1.273 . S
O195 Mg182 2.010 . S
O195 C187 1.249 . S
Mg196 O197 2.028 . S
Mg196 O203 1.986 . S
Mg196 O205 2.114 . S
Mg196 O206 2.251 . S
Mg196 O209 2.010 . S
O197 Mg196 2.028 . S
O197 C200 1.250 . S
O198 Mg199 2.028 . S
O198 C200 1.248 . S
Mg199 O198 2.028 . S
Mg199 O204 2.032 . S
Mg199 O206 2.079 . S
C200 O197 1.250 . S
C200 O198 1.248 . S
C201 O202 1.264 . S
C201 O209 1.249 . S
O202 C201 1.264 . S
O203 Mg196 1.986 . S
O203 C207 1.246 . S
O204 Mg199 2.032 . S
O204 C207 1.259 . S
O205 Mg196 2.114 . S
O205 C208 1.252 . S
O206 Mg196 2.251 . S
O206 Mg199 2.079 . S
O206 C208 1.273 . S
C207 O203 1.246 . S
C207 O204 1.259 . S
C208 O205 1.252 . S
C208 O206 1.273 . S
O209 Mg196 2.010 . S
O209 C201 1.249 . S
Mg210 O211 2.028 . S
Mg210 O217 1.986 . S
Mg210 O219 2.114 . S
Mg210 O220 2.251 . S
Mg210 O223 2.010 . S
O211 Mg210 2.028 . S
O211 C214 1.250 . S
O212 Mg213 2.028 . S
O212 C214 1.248 . S
Mg213 O212 2.028 . S
Mg213 O218 2.032 . S
Mg213 O220 2.079 . S
C214 O211 1.250 . S
C214 O212 1.248 . S
C215 O216 1.264 . S
C215 O223 1.249 . S
O216 C215 1.264 . S
O217 Mg210 1.986 . S
O217 C221 1.246 . S
O218 Mg213 2.032 . S
O218 C221 1.259 . S
O219 Mg210 2.114 . S
O219 C222 1.252 . S
O220 Mg210 2.251 . S
O220 Mg213 2.079 . S
O220 C222 1.273 . S
C221 O217 1.246 . S
C221 O218 1.259 . S
C222 O219 1.252 . S
C222 O220 1.273 . S
O223 Mg210 2.010 . S
O223 C215 1.249 . S
Mg224 O225 2.028 . S
Mg224 O231 1.986 . S
Mg224 O233 2.114 . S
Mg224 O234 2.251 . S
Mg224 O237 2.010 . S
O225 Mg224 2.028 . S
O225 C228 1.250 . S
O226 Mg227 2.028 . S
O226 C228 1.248 . S
Mg227 O226 2.028 . S
Mg227 O232 2.032 . S
Mg227 O234 2.079 . S
C228 O225 1.250 . S
C228 O226 1.248 . S
C229 O230 1.264 . S
C229 O237 1.249 . S
O230 C229 1.264 . S
O231 Mg224 1.986 . S
O231 C235 1.246 . S
O232 Mg227 2.032 . S
O232 C235 1.259 . S
O233 Mg224 2.114 . S
O233 C236 1.252 . S
O234 Mg224 2.251 . S
O234 Mg227 2.079 . S
O234 C236 1.273 . S
C235 O231 1.246 . S
C235 O232 1.259 . S
C236 O233 1.252 . S
C236 O234 1.273 . S
O237 Mg224 2.010 . S
O237 C229 1.249 . S
Mg238 O239 2.028 . S
Mg238 O245 1.986 . S
Mg238 O247 2.114 . S
Mg238 O248 2.251 . S
Mg238 O251 2.010 . S
O239 Mg238 2.028 . S
O239 C242 1.250 . S
O240 Mg241 2.028 . S
O240 C242 1.248 . S
Mg241 O240 2.028 . S
Mg241 O246 2.032 . S
Mg241 O248 2.079 . S
C242 O239 1.250 . S
C242 O240 1.248 . S
C243 O244 1.264 . S
C243 O251 1.249 . S
O244 C243 1.264 . S
O245 Mg238 1.986 . S
O245 C249 1.246 . S
O246 Mg241 2.032 . S
O246 C249 1.259 . S
O247 Mg238 2.114 . S
O247 C250 1.252 . S
O248 Mg238 2.251 . S
O248 Mg241 2.079 . S
O248 C250 1.273 . S
C249 O245 1.246 . S
C249 O246 1.259 . S
C250 O247 1.252 . S
C250 O248 1.273 . S
O251 Mg238 2.010 . S
O251 C243 1.249 . S
Mg252 O253 2.028 . S
Mg252 O259 1.986 . S
Mg252 O261 2.114 . S
Mg252 O262 2.251 . S
Mg252 O265 2.010 . S
O253 Mg252 2.028 . S
O253 C256 1.250 . S
O254 Mg255 2.028 . S
O254 C256 1.248 . S
Mg255 O254 2.028 . S
Mg255 O260 2.032 . S
Mg255 O262 2.079 . S
C256 O253 1.250 . S
C256 O254 1.248 . S
C257 O258 1.264 . S
C257 O265 1.249 . S
O258 C257 1.264 . S
O259 Mg252 1.986 . S
O259 C263 1.246 . S
O260 Mg255 2.032 . S
O260 C263 1.259 . S
O261 Mg252 2.114 . S
O261 C264 1.252 . S
O262 Mg252 2.251 . S
O262 Mg255 2.079 . S
O262 C264 1.273 . S
C263 O259 1.246 . S
C263 O260 1.259 . S
C264 O261 1.252 . S
C264 O262 1.273 . S
O265 Mg252 2.010 . S
O265 C257 1.249 . S
Mg266 O267 2.028 . S
Mg266 O273 1.986 . S
Mg266 O275 2.114 . S
Mg266 O276 2.251 . S
Mg266 O279 2.010 . S
O267 Mg266 2.028 . S
O267 C270 1.250 . S
O268 Mg269 2.028 . S
O268 C270 1.248 . S
Mg269 O268 2.028 . S
Mg269 O274 2.032 . S
Mg269 O276 2.079 . S
C270 O267 1.250 . S
C270 O268 1.248 . S
C271 O272 1.264 . S
C271 O279 1.249 . S
O272 C271 1.264 . S
O273 Mg266 1.986 . S
O273 C277 1.246 . S
O274 Mg269 2.032 . S
O274 C277 1.259 . S
O275 Mg266 2.114 . S
O275 C278 1.252 . S
O276 Mg266 2.251 . S
O276 Mg269 2.079 . S
O276 C278 1.273 . S
C277 O273 1.246 . S
C277 O274 1.259 . S
C278 O275 1.252 . S
C278 O276 1.273 . S
O279 Mg266 2.010 . S
O279 C271 1.249 . S
Mg280 O281 2.028 . S
Mg280 O287 1.986 . S
Mg280 O289 2.114 . S
Mg280 O290 2.251 . S
Mg280 O293 2.010 . S
O281 Mg280 2.028 . S
O281 C284 1.250 . S
O282 Mg283 2.028 . S
O282 C284 1.248 . S
Mg283 O282 2.028 . S
Mg283 O288 2.032 . S
Mg283 O290 2.079 . S
C284 O281 1.250 . S
C284 O282 1.248 . S
C285 O286 1.264 . S
C285 O293 1.249 . S
O286 C285 1.264 . S
O287 Mg280 1.986 . S
O287 C291 1.246 . S
O288 Mg283 2.032 . S
O288 C291 1.259 . S
O289 Mg280 2.114 . S
O289 C292 1.252 . S
O290 Mg280 2.251 . S
O290 Mg283 2.079 . S
O290 C292 1.273 . S
C291 O287 1.246 . S
C291 O288 1.259 . S
C292 O289 1.252 . S
C292 O290 1.273 . S
O293 Mg280 2.010 . S
O293 C285 1.249 . S
Mg294 O295 2.028 . S
Mg294 O301 1.986 . S
Mg294 O303 2.114 . S
Mg294 O304 2.251 . S
Mg294 O307 2.010 . S
O295 Mg294 2.028 . S
O295 C298 1.250 . S
O296 Mg297 2.028 . S
O296 C298 1.248 . S
Mg297 O296 2.028 . S
Mg297 O302 2.032 . S
Mg297 O304 2.079 . S
C298 O295 1.250 . S
C298 O296 1.248 . S
C299 O300 1.264 . S
C299 O307 1.249 . S
O300 C299 1.264 . S
O301 Mg294 1.986 . S
O301 C305 1.246 . S
O302 Mg297 2.032 . S
O302 C305 1.259 . S
O303 Mg294 2.114 . S
O303 C306 1.252 . S
O304 Mg294 2.251 . S
O304 Mg297 2.079 . S
O304 C306 1.273 . S
C305 O301 1.246 . S
C305 O302 1.259 . S
C306 O303 1.252 . S
C306 O304 1.273 . S
O307 Mg294 2.010 . S
O307 C299 1.249 . S
Mg308 O309 2.028 . S
Mg308 O315 1.986 . S
Mg308 O317 2.114 . S
Mg308 O318 2.251 . S
Mg308 O321 2.010 . S
O309 Mg308 2.028 . S
O309 C312 1.250 . S
O310 Mg311 2.028 . S
O310 C312 1.248 . S
Mg311 O310 2.028 . S
Mg311 O316 2.032 . S
Mg311 O318 2.079 . S
C312 O309 1.250 . S
C312 O310 1.248 . S
C313 O314 1.264 . S
C313 O321 1.249 . S
O314 C313 1.264 . S
O315 Mg308 1.986 . S
O315 C319 1.246 . S
O316 Mg311 2.032 . S
O316 C319 1.259 . S
O317 Mg308 2.114 . S
O317 C320 1.252 . S
O318 Mg308 2.251 . S
O318 Mg311 2.079 . S
O318 C320 1.273 . S
C319 O315 1.246 . S
C319 O316 1.259 . S
C320 O317 1.252 . S
C320 O318 1.273 . S
O321 Mg308 2.010 . S
O321 C313 1.249 . S
Mg322 O323 2.028 . S
Mg322 O329 1.986 . S
Mg322 O331 2.114 . S
Mg322 O332 2.251 . S
Mg322 O335 2.010 . S
O323 Mg322 2.028 . S
O323 C326 1.250 . S
O324 Mg325 2.028 . S
O324 C326 1.248 . S
Mg325 O324 2.028 . S
Mg325 O330 2.032 . S
Mg325 O332 2.079 . S
C326 O323 1.250 . S
C326 O324 1.248 . S
C327 O328 1.264 . S
C327 O335 1.249 . S
O328 C327 1.264 . S
O329 Mg322 1.986 . S
O329 C333 1.246 . S
O330 Mg325 2.032 . S
O330 C333 1.259 . S
O331 Mg322 2.114 . S
O331 C334 1.252 . S
O332 Mg322 2.251 . S
O332 Mg325 2.079 . S
O332 C334 1.273 . S
C333 O329 1.246 . S
C333 O330 1.259 . S
C334 O331 1.252 . S
C334 O332 1.273 . S
O335 Mg322 2.010 . S
O335 C327 1.249 . S
Mg336 O337 2.028 . S
Mg336 O343 1.986 . S
Mg336 O345 2.114 . S
Mg336 O346 2.251 . S
Mg336 O349 2.010 . S
O337 Mg336 2.028 . S
O337 C340 1.250 . S
O338 Mg339 2.028 . S
O338 C340 1.248 . S
Mg339 O338 2.028 . S
Mg339 O344 2.032 . S
Mg339 O346 2.079 . S
C340 O337 1.250 . S
C340 O338 1.248 . S
C341 O342 1.264 . S
C341 O349 1.249 . S
O342 C341 1.264 . S
O343 Mg336 1.986 . S
O343 C347 1.246 . S
O344 Mg339 2.032 . S
O344 C347 1.259 . S
O345 Mg336 2.114 . S
O345 C348 1.252 . S
O346 Mg336 2.251 . S
O346 Mg339 2.079 . S
O346 C348 1.273 . S
C347 O343 1.246 . S
C347 O344 1.259 . S
C348 O345 1.252 . S
C348 O346 1.273 . S
O349 Mg336 2.010 . S
O349 C341 1.249 . S
Mg350 O351 2.028 . S
Mg350 O357 1.986 . S
Mg350 O359 2.114 . S
Mg350 O360 2.251 . S
Mg350 O363 2.010 . S
O351 Mg350 2.028 . S
O351 C354 1.250 . S
O352 Mg353 2.028 . S
O352 C354 1.248 . S
Mg353 O352 2.028 . S
Mg353 O358 2.032 . S
Mg353 O360 2.079 . S
C354 O351 1.250 . S
C354 O352 1.248 . S
C355 O356 1.264 . S
C355 O363 1.249 . S
O356 C355 1.264 . S
O357 Mg350 1.986 . S
O357 C361 1.246 . S
O358 Mg353 2.032 . S
O358 C361 1.259 . S
O359 Mg350 2.114 . S
O359 C362 1.252 . S
O360 Mg350 2.251 . S
O360 Mg353 2.079 . S
O360 C362 1.273 . S
C361 O357 1.246 . S
C361 O358 1.259 . S
C362 O359 1.252 . S
C362 O360 1.273 . S
O363 Mg350 2.010 . S
O363 C355 1.249 . S
Mg364 O365 2.028 . S
Mg364 O371 1.986 . S
Mg364 O373 2.114 . S
Mg364 O374 2.251 . S
Mg364 O377 2.010 . S
O365 Mg364 2.028 . S
O365 C368 1.250 . S
O366 Mg367 2.028 . S
O366 C368 1.248 . S
Mg367 O366 2.028 . S
Mg367 O372 2.032 . S
Mg367 O374 2.079 . S
C368 O365 1.250 . S
C368 O366 1.248 . S
C369 O370 1.264 . S
C369 O377 1.249 . S
O370 C369 1.264 . S
O371 Mg364 1.986 . S
O371 C375 1.246 . S
O372 Mg367 2.032 . S
O372 C375 1.259 . S
O373 Mg364 2.114 . S
O373 C376 1.252 . S
O374 Mg364 2.251 . S
O374 Mg367 2.079 . S
O374 C376 1.273 . S
C375 O371 1.246 . S
C375 O372 1.259 . S
C376 O373 1.252 . S
C376 O374 1.273 . S
O377 Mg364 2.010 . S
O377 C369 1.249 . S
Mg378 O379 2.028 . S
Mg378 O385 1.986 . S
Mg378 O387 2.114 . S
Mg378 O388 2.251 . S
Mg378 O391 2.010 . S
O379 Mg378 2.028 . S
O379 C382 1.250 . S
O380 Mg381 2.028 . S
O380 C382 1.248 . S
Mg381 O380 2.028 . S
Mg381 O386 2.032 . S
Mg381 O388 2.079 . S
C382 O379 1.250 . S
C382 O380 1.248 . S
C383 O384 1.264 . S
C383 O391 1.249 . S
O384 C383 1.264 . S
O385 Mg378 1.986 . S
O385 C389 1.246 . S
O386 Mg381 2.032 . S
O386 C389 1.259 . S
O387 Mg378 2.114 . S
O387 C390 1.252 . S
O388 Mg378 2.251 . S
O388 Mg381 2.079 . S
O388 C390 1.273 . S
C389 O385 1.246 . S
C389 O386 1.259 . S
C390 O387 1.252 . S
C390 O388 1.273 . S
O391 Mg378 2.010 . S
O391 C383 1.249 . S
Mg392 O393 2.028 . S
Mg392 O399 1.986 . S
Mg392 O401 2.114 . S
Mg392 O402 2.251 . S
Mg392 O405 2.010 . S
O393 Mg392 2.028 . S
O393 C396 1.250 . S
O394 Mg395 2.028 . S
O394 C396 1.248 . S
Mg395 O394 2.028 . S
Mg395 O400 2.032 . S
Mg395 O402 2.079 . S
C396 O393 1.250 . S
C396 O394 1.248 . S
C397 O398 1.264 . S
C397 O405 1.249 . S
O398 C397 1.264 . S
O399 Mg392 1.986 . S
O399 C403 1.246 . S
O400 Mg395 2.032 . S
O400 C403 1.259 . S
O401 Mg392 2.114 . S
O401 C404 1.252 . S
O402 Mg392 2.251 . S
O402 Mg395 2.079 . S
O402 C404 1.273 . S
C403 O399 1.246 . S
C403 O400 1.259 . S
C404 O401 1.252 . S
C404 O402 1.273 . S
O405 Mg392 2.010 . S
O405 C397 1.249 . S
Mg406 O407 2.028 . S
Mg406 O413 1.986 . S
Mg406 O415 2.114 . S
Mg406 O416 2.251 . S
Mg406 O419 2.010 . S
O407 Mg406 2.028 . S
O407 C410 1.250 . S
O408 Mg409 2.028 . S
O408 C410 1.248 . S
Mg409 O408 2.028 . S
Mg409 O414 2.032 . S
Mg409 O416 2.079 . S
C410 O407 1.250 . S
C410 O408 1.248 . S
C411 O412 1.264 . S
C411 O419 1.249 . S
O412 C411 1.264 . S
O413 Mg406 1.986 . S
O413 C417 1.246 . S
O414 Mg409 2.032 . S
O414 C417 1.259 . S
O415 Mg406 2.114 . S
O415 C418 1.252 . S
O416 Mg406 2.251 . S
O416 Mg409 2.079 . S
O416 C418 1.273 . S
C417 O413 1.246 . S
C417 O414 1.259 . S
C418 O415 1.252 . S
C418 O416 1.273 . S
O419 Mg406 2.010 . S
O419 C411 1.249 . S
Mg420 O421 2.028 . S
Mg420 O427 1.986 . S
Mg420 O429 2.114 . S
Mg420 O430 2.251 . S
Mg420 O433 2.010 . S
O421 Mg420 2.028 . S
O421 C424 1.250 . S
O422 Mg423 2.028 . S
O422 C424 1.248 . S
Mg423 O422 2.028 . S
Mg423 O428 2.032 . S
Mg423 O430 2.079 . S
C424 O421 1.250 . S
C424 O422 1.248 . S
C425 O426 1.264 . S
C425 O433 1.249 . S
O426 C425 1.264 . S
O427 Mg420 1.986 . S
O427 C431 1.246 . S
O428 Mg423 2.032 . S
O428 C431 1.259 . S
O429 Mg420 2.114 . S
O429 C432 1.252 . S
O430 Mg420 2.251 . S
O430 Mg423 2.079 . S
O430 C432 1.273 . S
C431 O427 1.246 . S
C431 O428 1.259 . S
C432 O429 1.252 . S
C432 O430 1.273 . S
O433 Mg420 2.010 . S
O433 C425 1.249 . S
Mg434 O435 2.028 . S
Mg434 O441 1.986 . S
Mg434 O443 2.114 . S
Mg434 O444 2.251 . S
Mg434 O447 2.010 . S
O435 Mg434 2.028 . S
O435 C438 1.250 . S
O436 Mg437 2.028 . S
O436 C438 1.248 . S
Mg437 O436 2.028 . S
Mg437 O442 2.032 . S
Mg437 O444 2.079 . S
C438 O435 1.250 . S
C438 O436 1.248 . S
C439 O440 1.264 . S
C439 O447 1.249 . S
O440 C439 1.264 . S
O441 Mg434 1.986 . S
O441 C445 1.246 . S
O442 Mg437 2.032 . S
O442 C445 1.259 . S
O443 Mg434 2.114 . S
O443 C446 1.252 . S
O444 Mg434 2.251 . S
O444 Mg437 2.079 . S
O444 C446 1.273 . S
C445 O441 1.246 . S
C445 O442 1.259 . S
C446 O443 1.252 . S
C446 O444 1.273 . S
O447 Mg434 2.010 . S
O447 C439 1.249 . S
C448 C449 1.349 . S
C448 C450 1.327 . S
C448 H473 0.950 . S
C449 C448 1.349 . S
C449 C465 1.349 . S
C450 C448 1.327 . S
C450 C469 1.429 . S
C450 H474 0.950 . S
C451 C468 1.574 . S
C451 C470 1.368 1_554 S
C451 H475 0.949 . S
H452 C456 0.949 . S
C453 C454 1.349 . S
C453 C455 1.327 . S
C453 H476 0.950 . S
C454 C453 1.349 . S
C454 C466 1.349 . S
C455 C453 1.327 . S
C455 C471 1.429 . S
C455 H477 0.950 . S
C456 H452 0.949 . S
C456 C464 1.574 . S
C456 C472 1.368 1_556 S
H457 C465 0.950 . S
H458 C463 0.950 1_554 S
H459 C464 0.949 . S
H460 C466 0.950 . S
H461 C467 0.950 1_556 S
H462 C468 0.949 . S
C463 H458 0.950 1_556 S
C463 C465 1.327 . S
C463 C469 1.429 . S
C464 C456 1.574 . S
C464 H459 0.949 . S
C464 C470 1.368 1_455 S
C465 C449 1.349 . S
C465 H457 0.950 . S
C465 C463 1.327 . S
C466 C454 1.349 . S
C466 H460 0.950 . S
C466 C467 1.327 . S
C467 H461 0.950 1_554 S
C467 C466 1.327 . S
C467 C471 1.429 . S
C468 C451 1.574 . S
C468 H462 0.949 . S
C468 C472 1.368 1_655 S
C469 C450 1.429 . S
C469 C463 1.429 . S
C469 C470 1.523 . S
C470 C451 1.368 1_556 S
C470 C464 1.368 1_655 S
C470 C469 1.523 . S
C471 C455 1.429 . S
C471 C467 1.429 . S
C471 C472 1.523 . S
C472 C456 1.368 1_554 S
C472 C468 1.368 1_455 S
C472 C471 1.523 . S
H473 C448 0.950 . S
H474 C450 0.950 . S
H475 C451 0.949 . S
H476 C453 0.950 . S
H477 C455 0.950 . S
C478 C479 1.349 . S
C478 C480 1.327 . S
C478 H503 0.950 . S
C479 C478 1.349 . S
C479 C495 1.349 . S
C480 C478 1.327 . S
C480 C499 1.429 . S
C480 H504 0.950 . S
C481 C498 1.574 . S
C481 C500 1.368 . S
C481 H505 0.949 . S
H482 C486 0.949 . S
C483 C484 1.349 . S
C483 C485 1.327 . S
C483 H506 0.950 . S
C484 C483 1.349 . S
C484 C496 1.349 . S
C485 C483 1.327 . S
C485 C501 1.429 . S
C485 H507 0.950 . S
C486 H482 0.949 . S
C486 C494 1.574 . S
C486 C502 1.368 . S
H487 C495 0.950 . S
H488 C493 0.950 . S
H489 C494 0.949 . S
H490 C496 0.950 . S
H491 C497 0.950 . S
H492 C498 0.949 . S
C493 H488 0.950 . S
C493 C495 1.327 . S
C493 C499 1.429 . S
C494 C486 1.574 . S
C494 H489 0.949 . S
C494 C500 1.368 . S
C495 C479 1.349 . S
C495 H487 0.950 . S
C495 C493 1.327 . S
C496 C484 1.349 . S
C496 H490 0.950 . S
C496 C497 1.327 . S
C497 H491 0.950 . S
C497 C496 1.327 . S
C497 C501 1.429 . S
C498 C481 1.574 . S
C498 H492 0.949 . S
C498 C502 1.368 . S
C499 C480 1.429 . S
C499 C493 1.429 . S
C499 C500 1.523 . S
C500 C481 1.368 . S
C500 C494 1.368 . S
C500 C499 1.523 . S
C501 C485 1.429 . S
C501 C497 1.429 . S
C501 C502 1.523 . S
C502 C486 1.368 . S
C502 C498 1.368 . S
C502 C501 1.523 . S
H503 C478 0.950 . S
H504 C480 0.950 . S
H505 C481 0.949 . S
H506 C483 0.950 . S
H507 C485 0.950 . S
C508 C509 1.349 . S
C508 C510 1.327 . S
C508 H533 0.950 . S
C509 C508 1.349 . S
C509 C525 1.349 . S
C510 C508 1.327 . S
C510 C529 1.429 . S
C510 H534 0.950 . S
C511 C528 1.574 . S
C511 C530 1.368 . S
C511 H535 0.949 . S
H512 C516 0.949 . S
C513 C514 1.349 . S
C513 C515 1.327 . S
C513 H536 0.950 . S
C514 C513 1.349 . S
C514 C526 1.349 . S
C515 C513 1.327 . S
C515 C531 1.429 . S
C515 H537 0.950 . S
C516 H512 0.949 . S
C516 C524 1.574 . S
C516 C532 1.368 . S
H517 C525 0.950 . S
H518 C523 0.950 . S
H519 C524 0.949 . S
H520 C526 0.950 . S
H521 C527 0.950 . S
H522 C528 0.949 . S
C523 H518 0.950 . S
C523 C525 1.327 . S
C523 C529 1.429 . S
C524 C516 1.574 . S
C524 H519 0.949 . S
C524 C530 1.368 . S
C525 C509 1.349 . S
C525 H517 0.950 . S
C525 C523 1.327 . S
C526 C514 1.349 . S
C526 H520 0.950 . S
C526 C527 1.327 . S
C527 H521 0.950 . S
C527 C526 1.327 . S
C527 C531 1.429 . S
C528 C511 1.574 . S
C528 H522 0.949 . S
C528 C532 1.368 . S
C529 C510 1.429 . S
C529 C523 1.429 . S
C529 C530 1.523 . S
C530 C511 1.368 . S
C530 C524 1.368 . S
C530 C529 1.523 . S
C531 C515 1.429 . S
C531 C527 1.429 . S
C531 C532 1.523 . S
C532 C516 1.368 . S
C532 C528 1.368 . S
C532 C531 1.523 . S
H533 C508 0.950 . S
H534 C510 0.950 . S
H535 C511 0.949 . S
H536 C513 0.950 . S
H537 C515 0.950 . S
C538 C539 1.349 . S
C538 C540 1.327 . S
C538 H563 0.950 . S
C539 C538 1.349 . S
C539 C555 1.349 . S
C540 C538 1.327 . S
C540 C559 1.429 . S
C540 H564 0.950 . S
C541 C558 1.574 . S
C541 C560 1.368 . S
C541 H565 0.949 . S
H542 C546 0.949 . S
C543 C544 1.349 . S
C543 C545 1.327 . S
C543 H566 0.950 . S
C544 C543 1.349 . S
C544 C556 1.349 . S
C545 C543 1.327 . S
C545 C561 1.429 . S
C545 H567 0.950 . S
C546 H542 0.949 . S
C546 C554 1.574 . S
C546 C562 1.368 . S
H547 C555 0.950 . S
H548 C553 0.950 . S
H549 C554 0.949 . S
H550 C556 0.950 . S
H551 C557 0.950 . S
H552 C558 0.949 . S
C553 H548 0.950 . S
C553 C555 1.327 . S
C553 C559 1.429 . S
C554 C546 1.574 . S
C554 H549 0.949 . S
C554 C560 1.368 . S
C555 C539 1.349 . S
C555 H547 0.950 . S
C555 C553 1.327 . S
C556 C544 1.349 . S
C556 H550 0.950 . S
C556 C557 1.327 . S
C557 H551 0.950 . S
C557 C556 1.327 . S
C557 C561 1.429 . S
C558 C541 1.574 . S
C558 H552 0.949 . S
C558 C562 1.368 . S
C559 C540 1.429 . S
C559 C553 1.429 . S
C559 C560 1.523 . S
C560 C541 1.368 . S
C560 C554 1.368 . S
C560 C559 1.523 . S
C561 C545 1.429 . S
C561 C557 1.429 . S
C561 C562 1.523 . S
C562 C546 1.368 . S
C562 C558 1.368 . S
C562 C561 1.523 . S
H563 C538 0.950 . S
H564 C540 0.950 . S
H565 C541 0.949 . S
H566 C543 0.950 . S
H567 C545 0.950 . S
C568 C569 1.349 . S
C568 C570 1.327 . S
C568 H593 0.950 . S
C569 C568 1.349 . S
C569 C585 1.349 . S
C570 C568 1.327 . S
C570 C589 1.429 . S
C570 H594 0.950 . S
C571 C588 1.574 . S
C571 C590 1.368 1_455 S
C571 H595 0.949 . S
H572 C576 0.949 . S
C573 C574 1.349 . S
C573 C575 1.327 . S
C573 H596 0.950 . S
C574 C573 1.349 . S
C574 C586 1.349 . S
C575 C573 1.327 . S
C575 C591 1.429 . S
C575 H597 0.950 . S
C576 H572 0.949 . S
C576 C584 1.574 . S
C576 C592 1.368 1_655 S
H577 C585 0.950 . S
H578 C583 0.950 . S
H579 C584 0.949 . S
H580 C586 0.950 . S
H581 C587 0.950 . S
H582 C588 0.949 . S
C583 H578 0.950 . S
C583 C585 1.327 . S
C583 C589 1.429 . S
C584 C576 1.574 . S
C584 H579 0.949 . S
C584 C590 1.368 . S
C585 C569 1.349 . S
C585 H577 0.950 . S
C585 C583 1.327 . S
C586 C574 1.349 . S
C586 H580 0.950 . S
C586 C587 1.327 . S
C587 H581 0.950 . S
C587 C586 1.327 . S
C587 C591 1.429 . S
C588 C571 1.574 . S
C588 H582 0.949 . S
C588 C592 1.368 . S
C589 C570 1.429 . S
C589 C583 1.429 . S
C589 C590 1.523 . S
C590 C571 1.368 1_655 S
C590 C584 1.368 . S
C590 C589 1.523 . S
C591 C575 1.429 . S
C591 C587 1.429 . S
C591 C592 1.523 . S
C592 C576 1.368 1_455 S
C592 C588 1.368 . S
C592 C591 1.523 . S
H593 C568 0.950 . S
H594 C570 0.950 . S
H595 C571 0.949 . S
H596 C573 0.950 . S
H597 C575 0.950 . S
C598 C599 1.349 . S
C598 C600 1.327 . S
C598 H623 0.950 . S
C599 C598 1.349 . S
C599 C615 1.349 . S
C600 C598 1.327 . S
C600 C619 1.429 . S
C600 H624 0.950 . S
C601 C618 1.574 . S
C601 C620 1.368 . S
C601 H625 0.949 . S
H602 C606 0.949 . S
C603 C604 1.349 . S
C603 C605 1.327 . S
C603 H626 0.950 . S
C604 C603 1.349 . S
C604 C616 1.349 . S
C605 C603 1.327 . S
C605 C621 1.429 . S
C605 H627 0.950 . S
C606 H602 0.949 . S
C606 C614 1.574 . S
C606 C622 1.368 . S
H607 C615 0.950 . S
H608 C613 0.950 . S
H609 C614 0.949 . S
H610 C616 0.950 . S
H611 C617 0.950 . S
H612 C618 0.949 . S
C613 H608 0.950 . S
C613 C615 1.327 . S
C613 C619 1.429 . S
C614 C606 1.574 . S
C614 H609 0.949 . S
C614 C620 1.368 . S
C615 C599 1.349 . S
C615 H607 0.950 . S
C615 C613 1.327 . S
C616 C604 1.349 . S
C616 H610 0.950 . S
C616 C617 1.327 . S
C617 H611 0.950 . S
C617 C616 1.327 . S
C617 C621 1.429 . S
C618 C601 1.574 . S
C618 H612 0.949 . S
C618 C622 1.368 . S
C619 C600 1.429 . S
C619 C613 1.429 . S
C619 C620 1.523 . S
C620 C601 1.368 . S
C620 C614 1.368 . S
C620 C619 1.523 . S
C621 C605 1.429 . S
C621 C617 1.429 . S
C621 C622 1.523 . S
C622 C606 1.368 . S
C622 C618 1.368 . S
C622 C621 1.523 . S
H623 C598 0.950 . S
H624 C600 0.950 . S
H625 C601 0.949 . S
H626 C603 0.950 . S
H627 C605 0.950 . S
C628 C629 1.349 . S
C628 C630 1.327 . S
C628 H653 0.950 . S
C629 C628 1.349 . S
C629 C645 1.349 . S
C630 C628 1.327 . S
C630 C649 1.429 . S
C630 H654 0.950 . S
C631 C648 1.574 . S
C631 C650 1.368 1_554 S
C631 H655 0.949 . S
H632 C636 0.949 . S
C633 C634 1.349 . S
C633 C635 1.327 . S
C633 H656 0.950 . S
C634 C633 1.349 . S
C634 C646 1.349 . S
C635 C633 1.327 . S
C635 C651 1.429 . S
C635 H657 0.950 . S
C636 H632 0.949 . S
C636 C644 1.574 . S
C636 C652 1.368 1_556 S
H637 C645 0.950 . S
H638 C643 0.950 1_554 S
H639 C644 0.949 . S
H640 C646 0.950 . S
H641 C647 0.950 1_556 S
H642 C648 0.949 . S
C643 H638 0.950 1_556 S
C643 C645 1.327 . S
C643 C649 1.429 . S
C644 C636 1.574 . S
C644 H639 0.949 . S
C644 C650 1.368 . S
C645 C629 1.349 . S
C645 H637 0.950 . S
C645 C643 1.327 . S
C646 C634 1.349 . S
C646 H640 0.950 . S
C646 C647 1.327 . S
C647 H641 0.950 1_554 S
C647 C646 1.327 . S
C647 C651 1.429 . S
C648 C631 1.574 . S
C648 H642 0.949 . S
C648 C652 1.368 . S
C649 C630 1.429 . S
C649 C643 1.429 . S
C649 C650 1.523 . S
C650 C631 1.368 1_556 S
C650 C644 1.368 . S
C650 C649 1.523 . S
C651 C635 1.429 . S
C651 C647 1.429 . S
C651 C652 1.523 . S
C652 C636 1.368 1_554 S
C652 C648 1.368 . S
C652 C651 1.523 . S
H653 C628 0.950 . S
H654 C630 0.950 . S
H655 C631 0.949 . S
H656 C633 0.950 . S
H657 C635 0.950 . S
C658 C659 1.349 . S
C658 C660 1.327 . S
C658 H683 0.950 . S
C659 C658 1.349 . S
C659 C675 1.349 . S
C660 C658 1.327 . S
C660 C679 1.429 . S
C660 H684 0.950 . S
C661 C678 1.574 . S
C661 C680 1.368 . S
C661 H685 0.949 . S
H662 C666 0.949 . S
C663 C664 1.349 . S
C663 C665 1.327 . S
C663 H686 0.950 . S
C664 C663 1.349 . S
C664 C676 1.349 . S
C665 C663 1.327 . S
C665 C681 1.429 . S
C665 H687 0.950 . S
C666 H662 0.949 . S
C666 C674 1.574 . S
C666 C682 1.368 . S
H667 C675 0.950 . S
H668 C673 0.950 . S
H669 C674 0.949 . S
H670 C676 0.950 . S
H671 C677 0.950 . S
H672 C678 0.949 . S
C673 H668 0.950 . S
C673 C675 1.327 . S
C673 C679 1.429 . S
C674 C666 1.574 . S
C674 H669 0.949 . S
C674 C680 1.368 . S
C675 C659 1.349 . S
C675 H667 0.950 . S
C675 C673 1.327 . S
C676 C664 1.349 . S
C676 H670 0.950 . S
C676 C677 1.327 . S
C677 H671 0.950 . S
C677 C676 1.327 . S
C677 C681 1.429 . S
C678 C661 1.574 . S
C678 H672 0.949 . S
C678 C682 1.368 . S
C679 C660 1.429 . S
C679 C673 1.429 . S
C679 C680 1.523 . S
C680 C661 1.368 . S
C680 C674 1.368 . S
C680 C679 1.523 . S
C681 C665 1.429 . S
C681 C677 1.429 . S
C681 C682 1.523 . S
C682 C666 1.368 . S
C682 C678 1.368 . S
C682 C681 1.523 . S
H683 C658 0.950 . S
H684 C660 0.950 . S
H685 C661 0.949 . S
H686 C663 0.950 . S
H687 C665 0.950 . S
C688 C689 1.349 . S
C688 C690 1.327 . S
C688 H713 0.950 . S
C689 C688 1.349 . S
C689 C705 1.349 . S
C690 C688 1.327 . S
C690 C709 1.429 . S
C690 H714 0.950 . S
C691 C708 1.574 . S
C691 C710 1.368 . S
C691 H715 0.949 . S
H692 C696 0.949 . S
C693 C694 1.349 . S
C693 C695 1.327 . S
C693 H716 0.950 . S
C694 C693 1.349 . S
C694 C706 1.349 . S
C695 C693 1.327 . S
C695 C711 1.429 . S
C695 H717 0.950 . S
C696 H692 0.949 . S
C696 C704 1.574 . S
C696 C712 1.368 . S
H697 C705 0.950 . S
H698 C703 0.950 . S
H699 C704 0.949 . S
H700 C706 0.950 . S
H701 C707 0.950 . S
H702 C708 0.949 . S
C703 H698 0.950 . S
C703 C705 1.327 . S
C703 C709 1.429 . S
C704 C696 1.574 . S
C704 H699 0.949 . S
C704 C710 1.368 . S
C705 C689 1.349 . S
C705 H697 0.950 . S
C705 C703 1.327 . S
C706 C694 1.349 . S
C706 H700 0.950 . S
C706 C707 1.327 . S
C707 H701 0.950 . S
C707 C706 1.327 . S
C707 C711 1.429 . S
C708 C691 1.574 . S
C708 H702 0.949 . S
C708 C712 1.368 . S
C709 C690 1.429 . S
C709 C703 1.429 . S
C709 C710 1.523 . S
C710 C691 1.368 . S
C710 C704 1.368 . S
C710 C709 1.523 . S
C711 C695 1.429 . S
C711 C707 1.429 . S
C711 C712 1.523 . S
C712 C696 1.368 . S
C712 C708 1.368 . S
C712 C711 1.523 . S
H713 C688 0.950 . S
H714 C690 0.950 . S
H715 C691 0.949 . S
H716 C693 0.950 . S
H717 C695 0.950 . S
C718 C719 1.349 . S
C718 C720 1.327 . S
C718 H743 0.950 . S
C719 C718 1.349 . S
C719 C735 1.349 . S
C720 C718 1.327 . S
C720 C739 1.429 . S
C720 H744 0.950 . S
C721 C738 1.574 . S
C721 C740 1.368 . S
C721 H745 0.949 . S
H722 C726 0.949 . S
C723 C724 1.349 . S
C723 C725 1.327 . S
C723 H746 0.950 . S
C724 C723 1.349 . S
C724 C736 1.349 . S
C725 C723 1.327 . S
C725 C741 1.429 . S
C725 H747 0.950 . S
C726 H722 0.949 . S
C726 C734 1.574 . S
C726 C742 1.368 . S
H727 C735 0.950 . S
H728 C733 0.950 . S
H729 C734 0.949 . S
H730 C736 0.950 . S
H731 C737 0.950 . S
H732 C738 0.949 . S
C733 H728 0.950 . S
C733 C735 1.327 . S
C733 C739 1.429 . S
C734 C726 1.574 . S
C734 H729 0.949 . S
C734 C740 1.368 . S
C735 C719 1.349 . S
C735 H727 0.950 . S
C735 C733 1.327 . S
C736 C724 1.349 . S
C736 H730 0.950 . S
C736 C737 1.327 . S
C737 H731 0.950 . S
C737 C736 1.327 . S
C737 C741 1.429 . S
C738 C721 1.574 . S
C738 H732 0.949 . S
C738 C742 1.368 . S
C739 C720 1.429 . S
C739 C733 1.429 . S
C739 C740 1.523 . S
C740 C721 1.368 . S
C740 C734 1.368 . S
C740 C739 1.523 . S
C741 C725 1.429 . S
C741 C737 1.429 . S
C741 C742 1.523 . S
C742 C726 1.368 . S
C742 C738 1.368 . S
C742 C741 1.523 . S
H743 C718 0.950 . S
H744 C720 0.950 . S
H745 C721 0.949 . S
H746 C723 0.950 . S
H747 C725 0.950 . S
C748 C749 1.349 . S
C748 C750 1.327 . S
C748 H773 0.950 . S
C749 C748 1.349 . S
C749 C765 1.349 . S
C750 C748 1.327 . S
C750 C769 1.429 . S
C750 H774 0.950 . S
C751 C768 1.574 . S
C751 C770 1.368 . S
C751 H775 0.949 . S
H752 C756 0.949 . S
C753 C754 1.349 . S
C753 C755 1.327 . S
C753 H776 0.950 . S
C754 C753 1.349 . S
C754 C766 1.349 . S
C755 C753 1.327 . S
C755 C771 1.429 . S
C755 H777 0.950 . S
C756 H752 0.949 . S
C756 C764 1.574 . S
C756 C772 1.368 . S
H757 C765 0.950 . S
H758 C763 0.950 . S
H759 C764 0.949 . S
H760 C766 0.950 . S
H761 C767 0.950 . S
H762 C768 0.949 . S
C763 H758 0.950 . S
C763 C765 1.327 . S
C763 C769 1.429 . S
C764 C756 1.574 . S
C764 H759 0.949 . S
C764 C770 1.368 . S
C765 C749 1.349 . S
C765 H757 0.950 . S
C765 C763 1.327 . S
C766 C754 1.349 . S
C766 H760 0.950 . S
C766 C767 1.327 . S
C767 H761 0.950 . S
C767 C766 1.327 . S
C767 C771 1.429 . S
C768 C751 1.574 . S
C768 H762 0.949 . S
C768 C772 1.368 . S
C769 C750 1.429 . S
C769 C763 1.429 . S
C769 C770 1.523 . S
C770 C751 1.368 . S
C770 C764 1.368 . S
C770 C769 1.523 . S
C771 C755 1.429 . S
C771 C767 1.429 . S
C771 C772 1.523 . S
C772 C756 1.368 . S
C772 C768 1.368 . S
C772 C771 1.523 . S
H773 C748 0.950 . S
H774 C750 0.950 . S
H775 C751 0.949 . S
H776 C753 0.950 . S
H777 C755 0.950 . S
C778 C779 1.349 . S
C778 C780 1.327 . S
C778 H803 0.950 . S
C779 C778 1.349 . S
C779 C795 1.349 . S
C780 C778 1.327 . S
C780 C799 1.429 . S
C780 H804 0.950 . S
C781 C798 1.574 . S
C781 C800 1.368 . S
C781 H805 0.949 . S
H782 C786 0.949 . S
C783 C784 1.349 . S
C783 C785 1.327 . S
C783 H806 0.950 . S
C784 C783 1.349 . S
C784 C796 1.349 . S
C785 C783 1.327 . S
C785 C801 1.429 . S
C785 H807 0.950 . S
C786 H782 0.949 . S
C786 C794 1.574 . S
C786 C802 1.368 . S
H787 C795 0.950 . S
H788 C793 0.950 . S
H789 C794 0.949 . S
H790 C796 0.950 . S
H791 C797 0.950 . S
H792 C798 0.949 . S
C793 H788 0.950 . S
C793 C795 1.327 . S
C793 C799 1.429 . S
C794 C786 1.574 . S
C794 H789 0.949 . S
C794 C800 1.368 . S
C795 C779 1.349 . S
C795 H787 0.950 . S
C795 C793 1.327 . S
C796 C784 1.349 . S
C796 H790 0.950 . S
C796 C797 1.327 . S
C797 H791 0.950 . S
C797 C796 1.327 . S
C797 C801 1.429 . S
C798 C781 1.574 . S
C798 H792 0.949 . S
C798 C802 1.368 . S
C799 C780 1.429 . S
C799 C793 1.429 . S
C799 C800 1.523 . S
C800 C781 1.368 . S
C800 C794 1.368 . S
C800 C799 1.523 . S
C801 C785 1.429 . S
C801 C797 1.429 . S
C801 C802 1.523 . S
C802 C786 1.368 . S
C802 C798 1.368 . S
C802 C801 1.523 . S
H803 C778 0.950 . S
H804 C780 0.950 . S
H805 C781 0.949 . S
H806 C783 0.950 . S
H807 C785 0.950 . S
C808 C809 1.349 . S
C808 C810 1.327 . S
C808 H833 0.950 . S
C809 C808 1.349 . S
C809 C825 1.349 . S
C810 C808 1.327 . S
C810 C829 1.429 . S
C810 H834 0.950 . S
C811 C828 1.574 . S
C811 C830 1.368 1_545 S
C811 H835 0.949 . S
H812 C816 0.949 . S
C813 C814 1.349 . S
C813 C815 1.327 . S
C813 H836 0.950 . S
C814 C813 1.349 . S
C814 C826 1.349 . S
C815 C813 1.327 . S
C815 C831 1.429 . S
C815 H837 0.950 . S
C816 H812 0.949 . S
C816 C824 1.574 . S
C816 C832 1.368 1_565 S
H817 C825 0.950 . S
H818 C823 0.950 . S
H819 C824 0.949 . S
H820 C826 0.950 . S
H821 C827 0.950 . S
H822 C828 0.949 . S
C823 H818 0.950 . S
C823 C825 1.327 . S
C823 C829 1.429 . S
C824 C816 1.574 . S
C824 H819 0.949 . S
C824 C830 1.368 . S
C825 C809 1.349 . S
C825 H817 0.950 . S
C825 C823 1.327 . S
C826 C814 1.349 . S
C826 H820 0.950 . S
C826 C827 1.327 . S
C827 H821 0.950 . S
C827 C826 1.327 . S
C827 C831 1.429 . S
C828 C811 1.574 . S
C828 H822 0.949 . S
C828 C832 1.368 . S
C829 C810 1.429 . S
C829 C823 1.429 . S
C829 C830 1.523 . S
C830 C811 1.368 1_565 S
C830 C824 1.368 . S
C830 C829 1.523 . S
C831 C815 1.429 . S
C831 C827 1.429 . S
C831 C832 1.523 . S
C832 C816 1.368 1_545 S
C832 C828 1.368 . S
C832 C831 1.523 . S
H833 C808 0.950 . S
H834 C810 0.950 . S
H835 C811 0.949 . S
H836 C813 0.950 . S
H837 C815 0.950 . S
C838 C839 1.349 . S
C838 C840 1.327 . S
C838 H863 0.950 . S
C839 C838 1.349 . S
C839 C855 1.349 . S
C840 C838 1.327 . S
C840 C859 1.429 . S
C840 H864 0.950 . S
C841 C858 1.574 . S
C841 C860 1.368 1_654 S
C841 H865 0.949 . S
H842 C846 0.949 . S
C843 C844 1.349 . S
C843 C845 1.327 . S
C843 H866 0.950 . S
C844 C843 1.349 . S
C844 C856 1.349 . S
C845 C843 1.327 . S
C845 C861 1.429 . S
C845 H867 0.950 . S
C846 H842 0.949 . S
C846 C854 1.574 . S
C846 C862 1.368 1_456 S
H847 C855 0.950 . S
H848 C853 0.950 . S
H849 C854 0.949 . S
H850 C856 0.950 . S
H851 C857 0.950 . S
H852 C858 0.949 . S
C853 H848 0.950 . S
C853 C855 1.327 . S
C853 C859 1.429 . S
C854 C846 1.574 . S
C854 H849 0.949 . S
C854 C860 1.368 1_545 S
C855 C839 1.349 . S
C855 H847 0.950 . S
C855 C853 1.327 . S
C856 C844 1.349 . S
C856 H850 0.950 . S
C856 C857 1.327 . S
C857 H851 0.950 . S
C857 C856 1.327 . S
C857 C861 1.429 . S
C858 C841 1.574 . S
C858 H852 0.949 . S
C858 C862 1.368 1_565 S
C859 C840 1.429 . S
C859 C853 1.429 . S
C859 C860 1.523 . S
C860 C841 1.368 1_456 S
C860 C854 1.368 1_565 S
C860 C859 1.523 . S
C861 C845 1.429 . S
C861 C857 1.429 . S
C861 C862 1.523 . S
C862 C846 1.368 1_654 S
C862 C858 1.368 1_545 S
C862 C861 1.523 . S
H863 C838 0.950 . S
H864 C840 0.950 . S
H865 C841 0.949 . S
H866 C843 0.950 . S
H867 C845 0.950 . S
C868 C869 1.349 . S
C868 C870 1.327 . S
C868 H893 0.950 . S
C869 C868 1.349 . S
C869 C885 1.349 . S
C870 C868 1.327 . S
C870 C889 1.429 . S
C870 H894 0.950 1_556 S
C871 C888 1.574 . S
C871 C890 1.368 1_565 S
C871 H895 0.949 . S
H872 C876 0.949 . S
C873 C874 1.349 . S
C873 C875 1.327 . S
C873 H896 0.950 . S
C874 C873 1.349 . S
C874 C886 1.349 . S
C875 C873 1.327 . S
C875 C891 1.429 . S
C875 H897 0.950 1_554 S
C876 H872 0.949 . S
C876 C884 1.574 . S
C876 C892 1.368 1_545 S
H877 C885 0.950 . S
H878 C883 0.950 . S
H879 C884 0.949 . S
H880 C886 0.950 . S
H881 C887 0.950 . S
H882 C888 0.949 . S
C883 H878 0.950 . S
C883 C885 1.327 . S
C883 C889 1.429 . S
C884 C876 1.574 . S
C884 H879 0.949 . S
C884 C890 1.368 1_554 S
C885 C869 1.349 . S
C885 H877 0.950 . S
C885 C883 1.327 . S
C886 C874 1.349 . S
C886 H880 0.950 . S
C886 C887 1.327 . S
C887 H881 0.950 . S
C887 C886 1.327 . S
C887 C891 1.429 . S
C888 C871 1.574 . S
C888 H882 0.949 . S
C888 C892 1.368 1_556 S
C889 C870 1.429 . S
C889 C883 1.429 . S
C889 C890 1.523 . S
C890 C871 1.368 1_545 S
C890 C884 1.368 1_556 S
C890 C889 1.523 . S
C891 C875 1.429 . S
C891 C887 1.429 . S
C891 C892 1.523 . S
C892 C876 1.368 1_565 S
C892 C888 1.368 1_554 S
C892 C891 1.523 . S
H893 C868 0.950 . S
H894 C870 0.950 1_554 S
H895 C871 0.949 . S
H896 C873 0.950 . S
H897 C875 0.950 1_556 S
C898 C899 1.349 . S
C898 C900 1.327 . S
C898 H923 0.950 . S
C899 C898 1.349 . S
C899 C915 1.349 . S
C900 C898 1.327 . S
C900 C919 1.429 . S
C900 H924 0.950 . S
C901 C918 1.574 1_445 S
C901 C920 1.368 . S
C901 H925 0.949 . S
H902 C906 0.949 . S
C903 C904 1.349 . S
C903 C905 1.327 . S
C903 H926 0.950 . S
C904 C903 1.349 . S
C904 C916 1.349 . S
C905 C903 1.327 . S
C905 C921 1.429 . S
C905 H927 0.950 . S
C906 H902 0.949 . S
C906 C914 1.574 1_665 S
C906 C922 1.368 . S
H907 C915 0.950 . S
H908 C913 0.950 . S
H909 C914 0.949 . S
H910 C916 0.950 . S
H911 C917 0.950 . S
H912 C918 0.949 . S
C913 H908 0.950 . S
C913 C915 1.327 . S
C913 C919 1.429 . S
C914 C906 1.574 1_445 S
C914 H909 0.949 . S
C914 C920 1.368 . S
C915 C899 1.349 . S
C915 H907 0.950 . S
C915 C913 1.327 . S
C916 C904 1.349 . S
C916 H910 0.950 . S
C916 C917 1.327 . S
C917 H911 0.950 . S
C917 C916 1.327 . S
C917 C921 1.429 . S
C918 C901 1.574 1_665 S
C918 H912 0.949 . S
C918 C922 1.368 . S
C919 C900 1.429 . S
C919 C913 1.429 . S
C919 C920 1.523 . S
C920 C901 1.368 . S
C920 C914 1.368 . S
C920 C919 1.523 . S
C921 C905 1.429 . S
C921 C917 1.429 . S
C921 C922 1.523 . S
C922 C906 1.368 . S
C922 C918 1.368 . S
C922 C921 1.523 . S
H923 C898 0.950 . S
H924 C900 0.950 . S
H925 C901 0.949 . S
H926 C903 0.950 . S
H927 C905 0.950 . S
C928 C929 1.349 . S
C928 C930 1.327 . S
C928 H953 0.950 . S
C929 C928 1.349 . S
C929 C945 1.349 . S
C930 C928 1.327 . S
C930 C949 1.429 . S
C930 H954 0.950 . S
C931 C948 1.595 . S
C931 C950 1.348 1_455 S
C931 H955 0.949 . S
H932 C936 0.949 . S
C933 C934 1.349 . S
C933 C935 1.327 . S
C933 H956 0.950 . S
C934 C933 1.349 . S
C934 C946 1.349 . S
C935 C933 1.327 . S
C935 C951 1.429 . S
C935 H957 0.950 . S
C936 H932 0.949 . S
C936 C944 1.595 . S
C936 C952 1.348 1_655 S
H937 C945 0.950 . S
H938 C943 0.950 . S
H939 C944 0.949 . S
H940 C946 0.950 . S
H941 C947 0.950 . S
H942 C948 0.949 . S
C943 H938 0.950 . S
C943 C945 1.327 . S
C943 C949 1.429 . S
C944 C936 1.595 . S
C944 H939 0.949 . S
C944 C950 1.368 . S
C945 C929 1.349 . S
C945 H937 0.950 . S
C945 C943 1.327 . S
C946 C934 1.349 . S
C946 H940 0.950 . S
C946 C947 1.327 . S
C947 H941 0.950 . S
C947 C946 1.327 . S
C947 C951 1.429 . S
C948 C931 1.595 . S
C948 H942 0.949 . S
C948 C952 1.368 . S
C949 C930 1.429 . S
C949 C943 1.429 . S
C949 C950 1.523 . S
C950 C931 1.348 1_655 S
C950 C944 1.368 . S
C950 C949 1.523 . S
C951 C935 1.429 . S
C951 C947 1.429 . S
C951 C952 1.523 . S
C952 C936 1.348 1_455 S
C952 C948 1.368 . S
C952 C951 1.523 . S
H953 C928 0.950 . S
H954 C930 0.950 . S
H955 C931 0.949 . S
H956 C933 0.950 . S
H957 C935 0.950 . S
C958 C959 1.349 . S
C958 C960 1.327 . S
C958 H983 0.950 . S
C959 C958 1.349 . S
C959 C975 1.349 . S
C960 C958 1.327 . S
C960 C979 1.429 . S
C960 H984 0.950 . S
C961 C978 1.574 1_455 S
C961 C980 1.368 . S
C961 H985 0.949 . S
H962 C966 0.949 . S
C963 C964 1.349 . S
C963 C965 1.327 . S
C963 H986 0.950 . S
C964 C963 1.349 . S
C964 C976 1.349 . S
C965 C963 1.327 . S
C965 C981 1.429 . S
C965 H987 0.950 . S
C966 H962 0.949 . S
C966 C974 1.574 1_655 S
C966 C982 1.368 . S
H967 C975 0.950 . S
H968 C973 0.950 . S
H969 C974 0.949 . S
H970 C976 0.950 . S
H971 C977 0.950 . S
H972 C978 0.949 . S
C973 H968 0.950 . S
C973 C975 1.327 . S
C973 C979 1.429 . S
C974 C966 1.574 1_455 S
C974 H969 0.949 . S
C974 C980 1.368 . S
C975 C959 1.349 . S
C975 H967 0.950 . S
C975 C973 1.327 . S
C976 C964 1.349 . S
C976 H970 0.950 . S
C976 C977 1.327 . S
C977 H971 0.950 . S
C977 C976 1.327 . S
C977 C981 1.429 . S
C978 C961 1.574 1_655 S
C978 H972 0.949 . S
C978 C982 1.368 . S
C979 C960 1.429 . S
C979 C973 1.429 . S
C979 C980 1.523 . S
C980 C961 1.368 . S
C980 C974 1.368 . S
C980 C979 1.523 . S
C981 C965 1.429 . S
C981 C977 1.429 . S
C981 C982 1.523 . S
C982 C966 1.368 . S
C982 C978 1.368 . S
C982 C981 1.523 . S
H983 C958 0.950 . S
H984 C960 0.950 . S
H985 C961 0.949 . S
H986 C963 0.950 . S
H987 C965 0.950 . S
C988 C989 1.349 . S
C988 C990 1.327 . S
C988 H1013 0.950 . S
C989 C988 1.349 . S
C989 C1005 1.349 . S
C990 C988 1.327 . S
C990 C1009 1.429 . S
C990 H1014 0.950 . S
C991 C1008 1.574 . S
C991 C1010 1.368 . S
C991 H1015 0.949 . S
H992 C996 0.949 . S
C993 C994 1.349 . S
C993 C995 1.327 . S
C993 H1016 0.950 . S
C994 C993 1.349 . S
C994 C1006 1.349 . S
C995 C993 1.327 . S
C995 C1011 1.429 . S
C995 H1017 0.950 . S
C996 H992 0.949 . S
C996 C1004 1.574 . S
C996 C1012 1.368 . S
H997 C1005 0.950 . S
H998 C1003 0.950 . S
H999 C1004 0.949 . S
H1000 C1006 0.950 . S
H1001 C1007 0.950 . S
H1002 C1008 0.949 . S
C1003 H998 0.950 . S
C1003 C1005 1.327 . S
C1003 C1009 1.429 . S
C1004 C996 1.574 . S
C1004 H999 0.949 . S
C1004 C1010 1.368 . S
C1005 C989 1.349 . S
C1005 H997 0.950 . S
C1005 C1003 1.327 . S
C1006 C994 1.349 . S
C1006 H1000 0.950 . S
C1006 C1007 1.327 . S
C1007 H1001 0.950 . S
C1007 C1006 1.327 . S
C1007 C1011 1.429 . S
C1008 C991 1.574 . S
C1008 H1002 0.949 . S
C1008 C1012 1.368 . S
C1009 C990 1.429 . S
C1009 C1003 1.429 . S
C1009 C1010 1.523 . S
C1010 C991 1.368 . S
C1010 C1004 1.368 . S
C1010 C1009 1.523 . S
C1011 C995 1.429 . S
C1011 C1007 1.429 . S
C1011 C1012 1.523 . S
C1012 C996 1.368 . S
C1012 C1008 1.368 . S
C1012 C1011 1.523 . S
H1013 C988 0.950 . S
H1014 C990 0.950 . S
H1015 C991 0.949 . S
H1016 C993 0.950 . S
H1017 C995 0.950 . S
C1018 C1019 1.349 . S
C1018 C1020 1.327 . S
C1018 H1043 0.950 . S
C1019 C1018 1.349 . S
C1019 C1035 1.349 . S
C1020 C1018 1.327 . S
C1020 C1039 1.429 . S
C1020 H1044 0.950 . S
C1021 C1038 1.574 . S
C1021 C1040 1.368 . S
C1021 H1045 0.949 . S
H1022 C1026 0.949 . S
C1023 C1024 1.349 . S
C1023 C1025 1.327 . S
C1023 H1046 0.950 . S
C1024 C1023 1.349 . S
C1024 C1036 1.349 . S
C1025 C1023 1.327 . S
C1025 C1041 1.429 . S
C1025 H1047 0.950 . S
C1026 H1022 0.949 . S
C1026 C1034 1.574 . S
C1026 C1042 1.368 . S
H1027 C1035 0.950 . S
H1028 C1033 0.950 . S
H1029 C1034 0.949 . S
H1030 C1036 0.950 . S
H1031 C1037 0.950 . S
H1032 C1038 0.949 . S
C1033 H1028 0.950 . S
C1033 C1035 1.327 . S
C1033 C1039 1.429 . S
C1034 C1026 1.574 . S
C1034 H1029 0.949 . S
C1034 C1040 1.368 . S
C1035 C1019 1.349 . S
C1035 H1027 0.950 . S
C1035 C1033 1.327 . S
C1036 C1024 1.349 . S
C1036 H1030 0.950 . S
C1036 C1037 1.327 . S
C1037 H1031 0.950 . S
C1037 C1036 1.327 . S
C1037 C1041 1.429 . S
C1038 C1021 1.574 . S
C1038 H1032 0.949 . S
C1038 C1042 1.368 . S
C1039 C1020 1.429 . S
C1039 C1033 1.429 . S
C1039 C1040 1.523 . S
C1040 C1021 1.368 . S
C1040 C1034 1.368 . S
C1040 C1039 1.523 . S
C1041 C1025 1.429 . S
C1041 C1037 1.429 . S
C1041 C1042 1.523 . S
C1042 C1026 1.368 . S
C1042 C1038 1.368 . S
C1042 C1041 1.523 . S
H1043 C1018 0.950 . S
H1044 C1020 0.950 . S
H1045 C1021 0.949 . S
H1046 C1023 0.950 . S
H1047 C1025 0.950 . S
C1048 C1049 1.349 . S
C1048 C1050 1.327 . S
C1048 H1073 0.950 . S
C1049 C1048 1.349 . S
C1049 C1065 1.349 . S
C1050 C1048 1.327 . S
C1050 C1069 1.429 . S
C1050 H1074 0.950 . S
C1051 C1068 1.595 . S
C1051 C1070 1.348 1_455 S
C1051 H1075 0.949 . S
H1052 C1056 0.949 . S
C1053 C1054 1.349 . S
C1053 C1055 1.327 . S
C1053 H1076 0.950 . S
C1054 C1053 1.349 . S
C1054 C1066 1.349 . S
C1055 C1053 1.327 . S
C1055 C1071 1.429 . S
C1055 H1077 0.950 . S
C1056 H1052 0.949 . S
C1056 C1064 1.595 . S
C1056 C1072 1.348 1_655 S
H1057 C1065 0.950 . S
H1058 C1063 0.950 . S
H1059 C1064 0.949 . S
H1060 C1066 0.950 . S
H1061 C1067 0.950 . S
H1062 C1068 0.949 . S
C1063 H1058 0.950 . S
C1063 C1065 1.327 . S
C1063 C1069 1.429 . S
C1064 C1056 1.595 . S
C1064 H1059 0.949 . S
C1064 C1070 1.368 . S
C1065 C1049 1.349 . S
C1065 H1057 0.950 . S
C1065 C1063 1.327 . S
C1066 C1054 1.349 . S
C1066 H1060 0.950 . S
C1066 C1067 1.327 . S
C1067 H1061 0.950 . S
C1067 C1066 1.327 . S
C1067 C1071 1.429 . S
C1068 C1051 1.595 . S
C1068 H1062 0.949 . S
C1068 C1072 1.368 . S
C1069 C1050 1.429 . S
C1069 C1063 1.429 . S
C1069 C1070 1.523 . S
C1070 C1051 1.348 1_655 S
C1070 C1064 1.368 . S
C1070 C1069 1.523 . S
C1071 C1055 1.429 . S
C1071 C1067 1.429 . S
C1071 C1072 1.523 . S
C1072 C1056 1.348 1_455 S
C1072 C1068 1.368 . S
C1072 C1071 1.523 . S
H1073 C1048 0.950 . S
H1074 C1050 0.950 . S
H1075 C1051 0.949 . S
H1076 C1053 0.950 . S
H1077 C1055 0.950 . S
C1078 C1079 1.349 . S
C1078 C1080 1.327 . S
C1078 H1103 0.950 . S
C1079 C1078 1.349 . S
C1079 C1095 1.349 . S
C1080 C1078 1.327 . S
C1080 C1099 1.429 . S
C1080 H1104 0.950 . S
C1081 C1098 1.574 . S
C1081 C1100 1.368 . S
C1081 H1105 0.949 . S
H1082 C1086 0.949 . S
C1083 C1084 1.349 . S
C1083 C1085 1.327 . S
C1083 H1106 0.950 . S
C1084 C1083 1.349 . S
C1084 C1096 1.349 . S
C1085 C1083 1.327 . S
C1085 C1101 1.429 . S
C1085 H1107 0.950 . S
C1086 H1082 0.949 . S
C1086 C1094 1.574 . S
C1086 C1102 1.368 . S
H1087 C1095 0.950 . S
H1088 C1093 0.950 . S
H1089 C1094 0.949 . S
H1090 C1096 0.950 . S
H1091 C1097 0.950 . S
H1092 C1098 0.949 . S
C1093 H1088 0.950 . S
C1093 C1095 1.327 . S
C1093 C1099 1.429 . S
C1094 C1086 1.574 . S
C1094 H1089 0.949 . S
C1094 C1100 1.368 . S
C1095 C1079 1.349 . S
C1095 H1087 0.950 . S
C1095 C1093 1.327 . S
C1096 C1084 1.349 . S
C1096 H1090 0.950 . S
C1096 C1097 1.327 . S
C1097 H1091 0.950 . S
C1097 C1096 1.327 . S
C1097 C1101 1.429 . S
C1098 C1081 1.574 . S
C1098 H1092 0.949 . S
C1098 C1102 1.368 . S
C1099 C1080 1.429 . S
C1099 C1093 1.429 . S
C1099 C1100 1.523 . S
C1100 C1081 1.368 . S
C1100 C1094 1.368 . S
C1100 C1099 1.523 . S
C1101 C1085 1.429 . S
C1101 C1097 1.429 . S
C1101 C1102 1.523 . S
C1102 C1086 1.368 . S
C1102 C1098 1.368 . S
C1102 C1101 1.523 . S
H1103 C1078 0.950 . S
H1104 C1080 0.950 . S
H1105 C1081 0.949 . S
H1106 C1083 0.950 . S
H1107 C1085 0.950 . S
C1108 C1109 1.349 . S
C1108 C1110 1.327 . S
C1108 H1133 0.950 . S
C1109 C1108 1.349 . S
C1109 C1125 1.349 . S
C1110 C1108 1.327 . S
C1110 C1129 1.429 . S
C1110 H1134 0.950 . S
C1111 C1128 1.574 . S
C1111 C1130 1.368 . S
C1111 H1135 0.949 . S
H1112 C1116 0.949 . S
C1113 C1114 1.349 . S
C1113 C1115 1.327 . S
C1113 H1136 0.950 . S
C1114 C1113 1.349 . S
C1114 C1126 1.349 . S
C1115 C1113 1.327 . S
C1115 C1131 1.429 . S
C1115 H1137 0.950 . S
C1116 H1112 0.949 . S
C1116 C1124 1.574 . S
C1116 C1132 1.368 . S
H1117 C1125 0.950 . S
H1118 C1123 0.950 . S
H1119 C1124 0.949 . S
H1120 C1126 0.950 . S
H1121 C1127 0.950 . S
H1122 C1128 0.949 . S
C1123 H1118 0.950 . S
C1123 C1125 1.327 . S
C1123 C1129 1.429 . S
C1124 C1116 1.574 . S
C1124 H1119 0.949 . S
C1124 C1130 1.368 . S
C1125 C1109 1.349 . S
C1125 H1117 0.950 . S
C1125 C1123 1.327 . S
C1126 C1114 1.349 . S
C1126 H1120 0.950 . S
C1126 C1127 1.327 . S
C1127 H1121 0.950 . S
C1127 C1126 1.327 . S
C1127 C1131 1.429 . S
C1128 C1111 1.574 . S
C1128 H1122 0.949 . S
C1128 C1132 1.368 . S
C1129 C1110 1.429 . S
C1129 C1123 1.429 . S
C1129 C1130 1.523 . S
C1130 C1111 1.368 . S
C1130 C1124 1.368 . S
C1130 C1129 1.523 . S
C1131 C1115 1.429 . S
C1131 C1127 1.429 . S
C1131 C1132 1.523 . S
C1132 C1116 1.368 . S
C1132 C1128 1.368 . S
C1132 C1131 1.523 . S
H1133 C1108 0.950 . S
H1134 C1110 0.950 . S
H1135 C1111 0.949 . S
H1136 C1113 0.950 . S
H1137 C1115 0.950 . S
C1138 C1139 1.349 . S
C1138 C1140 1.327 . S
C1138 H1163 0.950 . S
C1139 C1138 1.349 . S
C1139 C1155 1.349 . S
C1140 C1138 1.327 . S
C1140 C1159 1.429 . S
C1140 H1164 0.950 . S
C1141 C1158 1.574 1_455 S
C1141 C1160 1.368 . S
C1141 H1165 0.949 . S
H1142 C1146 0.949 . S
C1143 C1144 1.349 . S
C1143 C1145 1.327 . S
C1143 H1166 0.950 . S
C1144 C1143 1.349 . S
C1144 C1156 1.349 . S
C1145 C1143 1.327 . S
C1145 C1161 1.429 . S
C1145 H1167 0.950 . S
C1146 H1142 0.949 . S
C1146 C1154 1.574 1_655 S
C1146 C1162 1.368 . S
H1147 C1155 0.950 . S
H1148 C1153 0.950 . S
H1149 C1154 0.949 . S
H1150 C1156 0.950 . S
H1151 C1157 0.950 . S
H1152 C1158 0.949 . S
C1153 H1148 0.950 . S
C1153 C1155 1.327 . S
C1153 C1159 1.429 . S
C1154 C1146 1.574 1_455 S
C1154 H1149 0.949 . S
C1154 C1160 1.368 . S
C1155 C1139 1.349 . S
C1155 H1147 0.950 . S
C1155 C1153 1.327 . S
C1156 C1144 1.349 . S
C1156 H1150 0.950 . S
C1156 C1157 1.327 . S
C1157 H1151 0.950 . S
C1157 C1156 1.327 . S
C1157 C1161 1.429 . S
C1158 C1141 1.574 1_655 S
C1158 H1152 0.949 . S
C1158 C1162 1.368 . S
C1159 C1140 1.429 . S
C1159 C1153 1.429 . S
C1159 C1160 1.523 . S
C1160 C1141 1.368 . S
C1160 C1154 1.368 . S
C1160 C1159 1.523 . S
C1161 C1145 1.429 . S
C1161 C1157 1.429 . S
C1161 C1162 1.523 . S
C1162 C1146 1.368 . S
C1162 C1158 1.368 . S
C1162 C1161 1.523 . S
H1163 C1138 0.950 . S
H1164 C1140 0.950 . S
H1165 C1141 0.949 . S
H1166 C1143 0.950 . S
H1167 C1145 0.950 . S
C1168 C1169 1.349 . S
C1168 C1170 1.327 . S
C1168 H1193 0.950 . S
C1169 C1168 1.349 . S
C1169 C1185 1.349 . S
C1170 C1168 1.327 . S
C1170 C1189 1.429 . S
C1170 H1194 0.950 . S
C1171 C1188 1.595 . S
C1171 C1190 1.368 . S
C1171 H1195 0.949 . S
H1172 C1176 0.949 . S
C1173 C1174 1.349 . S
C1173 C1175 1.327 . S
C1173 H1196 0.950 . S
C1174 C1173 1.349 . S
C1174 C1186 1.349 . S
C1175 C1173 1.327 . S
C1175 C1191 1.429 . S
C1175 H1197 0.950 . S
C1176 H1172 0.949 . S
C1176 C1184 1.595 . S
C1176 C1192 1.368 . S
H1177 C1185 0.950 . S
H1178 C1183 0.950 . S
H1179 C1184 0.949 . S
H1180 C1186 0.950 . S
H1181 C1187 0.950 . S
H1182 C1188 0.949 . S
C1183 H1178 0.950 . S
C1183 C1185 1.327 . S
C1183 C1189 1.429 . S
C1184 C1176 1.595 . S
C1184 H1179 0.949 . S
C1184 C1190 1.348 1_455 S
C1185 C1169 1.349 . S
C1185 H1177 0.950 . S
C1185 C1183 1.327 . S
C1186 C1174 1.349 . S
C1186 H1180 0.950 . S
C1186 C1187 1.327 . S
C1187 H1181 0.950 . S
C1187 C1186 1.327 . S
C1187 C1191 1.429 . S
C1188 C1171 1.595 . S
C1188 H1182 0.949 . S
C1188 C1192 1.348 1_655 S
C1189 C1170 1.429 . S
C1189 C1183 1.429 . S
C1189 C1190 1.523 . S
C1190 C1171 1.368 . S
C1190 C1184 1.348 1_655 S
C1190 C1189 1.523 . S
C1191 C1175 1.429 . S
C1191 C1187 1.429 . S
C1191 C1192 1.523 . S
C1192 C1176 1.368 . S
C1192 C1188 1.348 1_455 S
C1192 C1191 1.523 . S
H1193 C1168 0.950 . S
H1194 C1170 0.950 . S
H1195 C1171 0.949 . S
H1196 C1173 0.950 . S
H1197 C1175 0.950 . S
C1198 C1199 1.349 . S
C1198 C1200 1.327 . S
C1198 H1223 0.950 . S
C1199 C1198 1.349 . S
C1199 C1215 1.349 . S
C1200 C1198 1.327 . S
C1200 C1219 1.429 . S
C1200 H1224 0.950 . S
C1201 C1218 1.574 1_655 S
C1201 C1220 1.368 . S
C1201 H1225 0.949 . S
H1202 C1206 0.949 . S
C1203 C1204 1.349 . S
C1203 C1205 1.327 . S
C1203 H1226 0.950 . S
C1204 C1203 1.349 . S
C1204 C1216 1.349 . S
C1205 C1203 1.327 . S
C1205 C1221 1.429 . S
C1205 H1227 0.950 . S
C1206 H1202 0.949 . S
C1206 C1214 1.574 1_455 S
C1206 C1222 1.368 . S
H1207 C1215 0.950 . S
H1208 C1213 0.950 . S
H1209 C1214 0.949 . S
H1210 C1216 0.950 . S
H1211 C1217 0.950 . S
H1212 C1218 0.949 . S
C1213 H1208 0.950 . S
C1213 C1215 1.327 . S
C1213 C1219 1.429 . S
C1214 C1206 1.574 1_655 S
C1214 H1209 0.949 . S
C1214 C1220 1.368 . S
C1215 C1199 1.349 . S
C1215 H1207 0.950 . S
C1215 C1213 1.327 . S
C1216 C1204 1.349 . S
C1216 H1210 0.950 . S
C1216 C1217 1.327 . S
C1217 H1211 0.950 . S
C1217 C1216 1.327 . S
C1217 C1221 1.429 . S
C1218 C1201 1.574 1_455 S
C1218 H1212 0.949 . S
C1218 C1222 1.368 . S
C1219 C1200 1.429 . S
C1219 C1213 1.429 . S
C1219 C1220 1.523 . S
C1220 C1201 1.368 . S
C1220 C1214 1.368 . S
C1220 C1219 1.523 . S
C1221 C1205 1.429 . S
C1221 C1217 1.429 . S
C1221 C1222 1.523 . S
C1222 C1206 1.368 . S
C1222 C1218 1.368 . S
C1222 C1221 1.523 . S
H1223 C1198 0.950 . S
H1224 C1200 0.950 . S
H1225 C1201 0.949 . S
H1226 C1203 0.950 . S
H1227 C1205 0.950 . S
C1228 C1229 1.349 . S
C1228 C1230 1.327 . S
C1228 H1253 0.950 . S
C1229 C1228 1.349 . S
C1229 C1245 1.349 . S
C1230 C1228 1.327 . S
C1230 C1249 1.429 . S
C1230 H1254 0.950 . S
C1231 C1248 1.574 . S
C1231 C1250 1.368 . S
C1231 H1255 0.949 . S
H1232 C1236 0.949 . S
C1233 C1234 1.349 . S
C1233 C1235 1.327 . S
C1233 H1256 0.950 . S
C1234 C1233 1.349 . S
C1234 C1246 1.349 . S
C1235 C1233 1.327 . S
C1235 C1251 1.429 . S
C1235 H1257 0.950 . S
C1236 H1232 0.949 . S
C1236 C1244 1.574 . S
C1236 C1252 1.368 . S
H1237 C1245 0.950 . S
H1238 C1243 0.950 . S
H1239 C1244 0.949 . S
H1240 C1246 0.950 . S
H1241 C1247 0.950 . S
H1242 C1248 0.949 . S
C1243 H1238 0.950 . S
C1243 C1245 1.327 . S
C1243 C1249 1.429 . S
C1244 C1236 1.574 . S
C1244 H1239 0.949 . S
C1244 C1250 1.368 . S
C1245 C1229 1.349 . S
C1245 H1237 0.950 . S
C1245 C1243 1.327 . S
C1246 C1234 1.349 . S
C1246 H1240 0.950 . S
C1246 C1247 1.327 . S
C1247 H1241 0.950 . S
C1247 C1246 1.327 . S
C1247 C1251 1.429 . S
C1248 C1231 1.574 . S
C1248 H1242 0.949 . S
C1248 C1252 1.368 . S
C1249 C1230 1.429 . S
C1249 C1243 1.429 . S
C1249 C1250 1.523 . S
C1250 C1231 1.368 . S
C1250 C1244 1.368 . S
C1250 C1249 1.523 . S
C1251 C1235 1.429 . S
C1251 C1247 1.429 . S
C1251 C1252 1.523 . S
C1252 C1236 1.368 . S
C1252 C1248 1.368 . S
C1252 C1251 1.523 . S
H1253 C1228 0.950 . S
H1254 C1230 0.950 . S
H1255 C1231 0.949 . S
H1256 C1233 0.950 . S
H1257 C1235 0.950 . S
C1258 C1259 1.349 . S
C1258 C1260 1.327 . S
C1258 H1283 0.950 . S
C1259 C1258 1.349 . S
C1259 C1275 1.349 . S
C1260 C1258 1.327 . S
C1260 C1279 1.429 . S
C1260 H1284 0.950 . S
C1261 C1278 1.574 . S
C1261 C1280 1.368 . S
C1261 H1285 0.949 . S
H1262 C1266 0.949 . S
C1263 C1264 1.349 . S
C1263 C1265 1.327 . S
C1263 H1286 0.950 . S
C1264 C1263 1.349 . S
C1264 C1276 1.349 . S
C1265 C1263 1.327 . S
C1265 C1281 1.429 . S
C1265 H1287 0.950 . S
C1266 H1262 0.949 . S
C1266 C1274 1.574 . S
C1266 C1282 1.368 . S
H1267 C1275 0.950 . S
H1268 C1273 0.950 . S
H1269 C1274 0.949 . S
H1270 C1276 0.950 . S
H1271 C1277 0.950 . S
H1272 C1278 0.949 . S
C1273 H1268 0.950 . S
C1273 C1275 1.327 . S
C1273 C1279 1.429 . S
C1274 C1266 1.574 . S
C1274 H1269 0.949 . S
C1274 C1280 1.368 . S
C1275 C1259 1.349 . S
C1275 H1267 0.950 . S
C1275 C1273 1.327 . S
C1276 C1264 1.349 . S
C1276 H1270 0.950 . S
C1276 C1277 1.327 . S
C1277 H1271 0.950 . S
C1277 C1276 1.327 . S
C1277 C1281 1.429 . S
C1278 C1261 1.574 . S
C1278 H1272 0.949 . S
C1278 C1282 1.368 . S
C1279 C1260 1.429 . S
C1279 C1273 1.429 . S
C1279 C1280 1.523 . S
C1280 C1261 1.368 . S
C1280 C1274 1.368 . S
C1280 C1279 1.523 . S
C1281 C1265 1.429 . S
C1281 C1277 1.429 . S
C1281 C1282 1.523 . S
C1282 C1266 1.368 . S
C1282 C1278 1.368 . S
C1282 C1281 1.523 . S
H1283 C1258 0.950 . S
H1284 C1260 0.950 . S
H1285 C1261 0.949 . S
H1286 C1263 0.950 . S
H1287 C1265 0.950 . S
C1288 C1289 1.349 . S
C1288 C1290 1.327 . S
C1288 H1313 0.950 . S
C1289 C1288 1.349 . S
C1289 C1305 1.349 . S
C1290 C1288 1.327 . S
C1290 C1309 1.429 . S
C1290 H1314 0.950 . S
C1291 C1308 1.595 . S
C1291 C1310 1.348 1_455 S
C1291 H1315 0.949 . S
H1292 C1296 0.949 . S
C1293 C1294 1.349 . S
C1293 C1295 1.327 . S
C1293 H1316 0.950 . S
C1294 C1293 1.349 . S
C1294 C1306 1.349 . S
C1295 C1293 1.327 . S
C1295 C1311 1.429 . S
C1295 H1317 0.950 . S
C1296 H1292 0.949 . S
C1296 C1304 1.595 . S
C1296 C1312 1.348 1_655 S
H1297 C1305 0.950 . S
H1298 C1303 0.950 . S
H1299 C1304 0.949 . S
H1300 C1306 0.950 . S
H1301 C1307 0.950 . S
H1302 C1308 0.949 . S
C1303 H1298 0.950 . S
C1303 C1305 1.327 . S
C1303 C1309 1.429 . S
C1304 C1296 1.595 . S
C1304 H1299 0.949 . S
C1304 C1310 1.368 . S
C1305 C1289 1.349 . S
C1305 H1297 0.950 . S
C1305 C1303 1.327 . S
C1306 C1294 1.349 . S
C1306 H1300 0.950 . S
C1306 C1307 1.327 . S
C1307 H1301 0.950 . S
C1307 C1306 1.327 . S
C1307 C1311 1.429 . S
C1308 C1291 1.595 . S
C1308 H1302 0.949 . S
C1308 C1312 1.368 . S
C1309 C1290 1.429 . S
C1309 C1303 1.429 . S
C1309 C1310 1.523 . S
C1310 C1291 1.348 1_655 S
C1310 C1304 1.368 . S
C1310 C1309 1.523 . S
C1311 C1295 1.429 . S
C1311 C1307 1.429 . S
C1311 C1312 1.523 . S
C1312 C1296 1.348 1_455 S
C1312 C1308 1.368 . S
C1312 C1311 1.523 . S
H1313 C1288 0.950 . S
H1314 C1290 0.950 . S
H1315 C1291 0.949 . S
H1316 C1293 0.950 . S
H1317 C1295 0.950 . S
C1318 C1319 1.349 . S
C1318 C1320 1.327 . S
C1318 H1343 0.950 . S
C1319 C1318 1.349 . S
C1319 C1335 1.349 . S
C1320 C1318 1.327 . S
C1320 C1339 1.429 . S
C1320 H1344 0.950 . S
C1321 C1338 1.574 . S
C1321 C1340 1.368 . S
C1321 H1345 0.949 . S
H1322 C1326 0.949 . S
C1323 C1324 1.349 . S
C1323 C1325 1.327 . S
C1323 H1346 0.950 . S
C1324 C1323 1.349 . S
C1324 C1336 1.349 . S
C1325 C1323 1.327 . S
C1325 C1341 1.429 . S
C1325 H1347 0.950 . S
C1326 H1322 0.949 . S
C1326 C1334 1.574 . S
C1326 C1342 1.368 . S
H1327 C1335 0.950 . S
H1328 C1333 0.950 . S
H1329 C1334 0.949 . S
H1330 C1336 0.950 . S
H1331 C1337 0.950 . S
H1332 C1338 0.949 . S
C1333 H1328 0.950 . S
C1333 C1335 1.327 . S
C1333 C1339 1.429 . S
C1334 C1326 1.574 . S
C1334 H1329 0.949 . S
C1334 C1340 1.368 . S
C1335 C1319 1.349 . S
C1335 H1327 0.950 . S
C1335 C1333 1.327 . S
C1336 C1324 1.349 . S
C1336 H1330 0.950 . S
C1336 C1337 1.327 . S
C1337 H1331 0.950 . S
C1337 C1336 1.327 . S
C1337 C1341 1.429 . S
C1338 C1321 1.574 . S
C1338 H1332 0.949 . S
C1338 C1342 1.368 . S
C1339 C1320 1.429 . S
C1339 C1333 1.429 . S
C1339 C1340 1.523 . S
C1340 C1321 1.368 . S
C1340 C1334 1.368 . S
C1340 C1339 1.523 . S
C1341 C1325 1.429 . S
C1341 C1337 1.429 . S
C1341 C1342 1.523 . S
C1342 C1326 1.368 . S
C1342 C1338 1.368 . S
C1342 C1341 1.523 . S
H1343 C1318 0.950 . S
H1344 C1320 0.950 . S
H1345 C1321 0.949 . S
H1346 C1323 0.950 . S
H1347 C1325 0.950 . S
C1348 C1349 1.349 . S
C1348 C1350 1.327 . S
C1348 H1373 0.950 . S
C1349 C1348 1.349 . S
C1349 C1365 1.349 . S
C1350 C1348 1.327 . S
C1350 C1369 1.429 . S
C1350 H1374 0.950 . S
C1351 C1368 1.574 . S
C1351 C1370 1.368 . S
C1351 H1375 0.949 . S
H1352 C1356 0.949 . S
C1353 C1354 1.349 . S
C1353 C1355 1.327 . S
C1353 H1376 0.950 . S
C1354 C1353 1.349 . S
C1354 C1366 1.349 . S
C1355 C1353 1.327 . S
C1355 C1371 1.429 . S
C1355 H1377 0.950 . S
C1356 H1352 0.949 . S
C1356 C1364 1.574 . S
C1356 C1372 1.368 . S
H1357 C1365 0.950 . S
H1358 C1363 0.950 . S
H1359 C1364 0.949 . S
H1360 C1366 0.950 . S
H1361 C1367 0.950 . S
H1362 C1368 0.949 . S
C1363 H1358 0.950 . S
C1363 C1365 1.327 . S
C1363 C1369 1.429 . S
C1364 C1356 1.574 . S
C1364 H1359 0.949 . S
C1364 C1370 1.368 . S
C1365 C1349 1.349 . S
C1365 H1357 0.950 . S
C1365 C1363 1.327 . S
C1366 C1354 1.349 . S
C1366 H1360 0.950 . S
C1366 C1367 1.327 . S
C1367 H1361 0.950 . S
C1367 C1366 1.327 . S
C1367 C1371 1.429 . S
C1368 C1351 1.574 . S
C1368 H1362 0.949 . S
C1368 C1372 1.368 . S
C1369 C1350 1.429 . S
C1369 C1363 1.429 . S
C1369 C1370 1.523 . S
C1370 C1351 1.368 . S
C1370 C1364 1.368 . S
C1370 C1369 1.523 . S
C1371 C1355 1.429 . S
C1371 C1367 1.429 . S
C1371 C1372 1.523 . S
C1372 C1356 1.368 . S
C1372 C1368 1.368 . S
C1372 C1371 1.523 . S
H1373 C1348 0.950 . S
H1374 C1350 0.950 . S
H1375 C1351 0.949 . S
H1376 C1353 0.950 . S
H1377 C1355 0.950 . S
C1378 C1379 1.349 . S
C1378 C1380 1.327 . S
C1378 H1403 0.950 . S
C1379 C1378 1.349 . S
C1379 C1395 1.349 . S
C1380 C1378 1.327 . S
C1380 C1399 1.429 . S
C1380 H1404 0.950 . S
C1381 C1398 1.574 1_655 S
C1381 C1400 1.368 . S
C1381 H1405 0.949 . S
H1382 C1386 0.949 . S
C1383 C1384 1.349 . S
C1383 C1385 1.327 . S
C1383 H1406 0.950 . S
C1384 C1383 1.349 . S
C1384 C1396 1.349 . S
C1385 C1383 1.327 . S
C1385 C1401 1.429 . S
C1385 H1407 0.950 . S
C1386 H1382 0.949 . S
C1386 C1394 1.574 1_455 S
C1386 C1402 1.368 . S
H1387 C1395 0.950 . S
H1388 C1393 0.950 . S
H1389 C1394 0.949 . S
H1390 C1396 0.950 . S
H1391 C1397 0.950 . S
H1392 C1398 0.949 . S
C1393 H1388 0.950 . S
C1393 C1395 1.327 . S
C1393 C1399 1.429 . S
C1394 C1386 1.574 1_655 S
C1394 H1389 0.949 . S
C1394 C1400 1.368 . S
C1395 C1379 1.349 . S
C1395 H1387 0.950 . S
C1395 C1393 1.327 . S
C1396 C1384 1.349 . S
C1396 H1390 0.950 . S
C1396 C1397 1.327 . S
C1397 H1391 0.950 . S
C1397 C1396 1.327 . S
C1397 C1401 1.429 . S
C1398 C1381 1.574 1_455 S
C1398 H1392 0.949 . S
C1398 C1402 1.368 . S
C1399 C1380 1.429 . S
C1399 C1393 1.429 . S
C1399 C1400 1.523 . S
C1400 C1381 1.368 . S
C1400 C1394 1.368 . S
C1400 C1399 1.523 . S
C1401 C1385 1.429 . S
C1401 C1397 1.429 . S
C1401 C1402 1.523 . S
C1402 C1386 1.368 . S
C1402 C1398 1.368 . S
C1402 C1401 1.523 . S
H1403 C1378 0.950 . S
H1404 C1380 0.950 . S
H1405 C1381 0.949 . S
H1406 C1383 0.950 . S
H1407 C1385 0.950 . S
C1408 C1409 1.349 . S
C1408 C1410 1.327 . S
C1408 H1433 0.950 . S
C1409 C1408 1.349 . S
C1409 C1425 1.349 . S
C1410 C1408 1.327 . S
C1410 C1429 1.429 . S
C1410 H1434 0.950 . S
C1411 C1428 1.574 . S
C1411 C1430 1.368 1_554 S
C1411 H1435 0.949 . S
H1412 C1416 0.949 . S
C1413 C1414 1.349 . S
C1413 C1415 1.327 . S
C1413 H1436 0.950 . S
C1414 C1413 1.349 . S
C1414 C1426 1.349 . S
C1415 C1413 1.327 . S
C1415 C1431 1.429 . S
C1415 H1437 0.950 . S
C1416 H1412 0.949 . S
C1416 C1424 1.574 . S
C1416 C1432 1.368 1_556 S
H1417 C1425 0.950 . S
H1418 C1423 0.908 1_554 S
H1419 C1424 0.949 . S
H1420 C1426 0.950 . S
H1421 C1427 0.908 1_556 S
H1422 C1428 0.949 . S
C1423 H1418 0.908 1_556 S
C1423 C1425 1.327 . S
C1423 C1429 1.429 . S
C1424 C1416 1.574 . S
C1424 H1419 0.949 . S
C1424 C1430 1.368 . S
C1425 C1409 1.349 . S
C1425 H1417 0.950 . S
C1425 C1423 1.327 . S
C1426 C1414 1.349 . S
C1426 H1420 0.950 . S
C1426 C1427 1.327 . S
C1427 H1421 0.908 1_554 S
C1427 C1426 1.327 . S
C1427 C1431 1.429 . S
C1428 C1411 1.574 . S
C1428 H1422 0.949 . S
C1428 C1432 1.368 . S
C1429 C1410 1.429 . S
C1429 C1423 1.429 . S
C1429 C1430 1.523 . S
C1430 C1411 1.368 1_556 S
C1430 C1424 1.368 . S
C1430 C1429 1.523 . S
C1431 C1415 1.429 . S
C1431 C1427 1.429 . S
C1431 C1432 1.523 . S
C1432 C1416 1.368 1_554 S
C1432 C1428 1.368 . S
C1432 C1431 1.523 . S
H1433 C1408 0.950 . S
H1434 C1410 0.950 . S
H1435 C1411 0.949 . S
H1436 C1413 0.950 . S
H1437 C1415 0.950 . S
C1438 C1439 1.349 . S
C1438 C1440 1.327 . S
C1438 H1463 0.950 . S
C1439 C1438 1.349 . S
C1439 C1455 1.349 . S
C1440 C1438 1.327 . S
C1440 C1459 1.429 . S
C1440 H1464 0.950 . S
C1441 C1458 1.574 1_545 S
C1441 C1460 1.368 . S
C1441 H1465 0.949 . S
H1442 C1446 0.949 . S
C1443 C1444 1.349 . S
C1443 C1445 1.327 . S
C1443 H1466 0.950 . S
C1444 C1443 1.349 . S
C1444 C1456 1.349 . S
C1445 C1443 1.327 . S
C1445 C1461 1.429 . S
C1445 H1467 0.950 . S
C1446 H1442 0.949 . S
C1446 C1454 1.574 1_565 S
C1446 C1462 1.368 . S
H1447 C1455 0.950 . S
H1448 C1453 0.950 . S
H1449 C1454 0.949 . S
H1450 C1456 0.950 . S
H1451 C1457 0.950 . S
H1452 C1458 0.949 . S
C1453 H1448 0.950 . S
C1453 C1455 1.327 . S
C1453 C1459 1.429 . S
C1454 C1446 1.574 1_545 S
C1454 H1449 0.949 . S
C1454 C1460 1.368 . S
C1455 C1439 1.349 . S
C1455 H1447 0.950 . S
C1455 C1453 1.327 . S
C1456 C1444 1.349 . S
C1456 H1450 0.950 . S
C1456 C1457 1.327 . S
C1457 H1451 0.950 . S
C1457 C1456 1.327 . S
C1457 C1461 1.429 . S
C1458 C1441 1.574 1_565 S
C1458 H1452 0.949 . S
C1458 C1462 1.368 . S
C1459 C1440 1.429 . S
C1459 C1453 1.429 . S
C1459 C1460 1.523 . S
C1460 C1441 1.368 . S
C1460 C1454 1.368 . S
C1460 C1459 1.523 . S
C1461 C1445 1.429 . S
C1461 C1457 1.429 . S
C1461 C1462 1.523 . S
C1462 C1446 1.368 . S
C1462 C1458 1.368 . S
C1462 C1461 1.523 . S
H1463 C1438 0.950 . S
H1464 C1440 0.950 . S
H1465 C1441 0.949 . S
H1466 C1443 0.950 . S
H1467 C1445 0.950 . S
C1468 C1469 1.349 . S
C1468 C1470 1.327 . S
C1468 H1493 0.950 . S
C1469 C1468 1.349 . S
C1469 C1485 1.349 . S
C1470 C1468 1.327 . S
C1470 C1489 1.429 . S
C1470 H1494 0.950 . S
C1471 C1488 1.574 . S
C1471 C1490 1.368 . S
C1471 H1495 0.949 . S
H1472 C1476 0.949 . S
C1473 C1474 1.349 . S
C1473 C1475 1.327 . S
C1473 H1496 0.950 . S
C1474 C1473 1.349 . S
C1474 C1486 1.349 . S
C1475 C1473 1.327 . S
C1475 C1491 1.429 . S
C1475 H1497 0.950 . S
C1476 H1472 0.949 . S
C1476 C1484 1.574 . S
C1476 C1492 1.368 . S
H1477 C1485 0.950 . S
H1478 C1483 0.950 . S
H1479 C1484 0.949 . S
H1480 C1486 0.950 . S
H1481 C1487 0.950 . S
H1482 C1488 0.949 . S
C1483 H1478 0.950 . S
C1483 C1485 1.327 . S
C1483 C1489 1.429 . S
C1484 C1476 1.574 . S
C1484 H1479 0.949 . S
C1484 C1490 1.368 . S
C1485 C1469 1.349 . S
C1485 H1477 0.950 . S
C1485 C1483 1.327 . S
C1486 C1474 1.349 . S
C1486 H1480 0.950 . S
C1486 C1487 1.327 . S
C1487 H1481 0.950 . S
C1487 C1486 1.327 . S
C1487 C1491 1.429 . S
C1488 C1471 1.574 . S
C1488 H1482 0.949 . S
C1488 C1492 1.368 . S
C1489 C1470 1.429 . S
C1489 C1483 1.429 . S
C1489 C1490 1.523 . S
C1490 C1471 1.368 . S
C1490 C1484 1.368 . S
C1490 C1489 1.523 . S
C1491 C1475 1.429 . S
C1491 C1487 1.429 . S
C1491 C1492 1.523 . S
C1492 C1476 1.368 . S
C1492 C1488 1.368 . S
C1492 C1491 1.523 . S
H1493 C1468 0.950 . S
H1494 C1470 0.950 . S
H1495 C1471 0.949 . S
H1496 C1473 0.950 . S
H1497 C1475 0.950 . S
C1498 C1499 1.349 . S
C1498 C1500 1.327 . S
C1498 H1523 0.950 . S
C1499 C1498 1.349 . S
C1499 C1515 1.349 . S
C1500 C1498 1.327 . S
C1500 C1519 1.429 . S
C1500 H1524 0.950 . S
C1501 C1518 1.574 1_545 S
C1501 C1520 1.368 . S
C1501 H1525 0.949 . S
H1502 C1506 0.949 . S
C1503 C1504 1.349 . S
C1503 C1505 1.327 . S
C1503 H1526 0.950 . S
C1504 C1503 1.349 . S
C1504 C1516 1.349 . S
C1505 C1503 1.327 . S
C1505 C1521 1.429 . S
C1505 H1527 0.950 . S
C1506 H1502 0.949 . S
C1506 C1514 1.574 1_565 S
C1506 C1522 1.368 . S
H1507 C1515 0.950 . S
H1508 C1513 0.950 . S
H1509 C1514 0.949 . S
H1510 C1516 0.950 . S
H1511 C1517 0.950 . S
H1512 C1518 0.949 . S
C1513 H1508 0.950 . S
C1513 C1515 1.327 . S
C1513 C1519 1.429 . S
C1514 C1506 1.574 1_545 S
C1514 H1509 0.949 . S
C1514 C1520 1.368 . S
C1515 C1499 1.349 . S
C1515 H1507 0.950 . S
C1515 C1513 1.327 . S
C1516 C1504 1.349 . S
C1516 H1510 0.950 . S
C1516 C1517 1.327 . S
C1517 H1511 0.950 . S
C1517 C1516 1.327 . S
C1517 C1521 1.429 . S
C1518 C1501 1.574 1_565 S
C1518 H1512 0.949 . S
C1518 C1522 1.368 . S
C1519 C1500 1.429 . S
C1519 C1513 1.429 . S
C1519 C1520 1.523 . S
C1520 C1501 1.368 . S
C1520 C1514 1.368 . S
C1520 C1519 1.523 . S
C1521 C1505 1.429 . S
C1521 C1517 1.429 . S
C1521 C1522 1.523 . S
C1522 C1506 1.368 . S
C1522 C1518 1.368 . S
C1522 C1521 1.523 . S
H1523 C1498 0.950 . S
H1524 C1500 0.950 . S
H1525 C1501 0.949 . S
H1526 C1503 0.950 . S
H1527 C1505 0.950 . S
C1528 C1529 1.349 . S
C1528 C1530 1.327 . S
C1528 H1553 0.950 . S
C1529 C1528 1.349 . S
C1529 C1545 1.349 . S
C1530 C1528 1.327 . S
C1530 C1549 1.429 . S
C1530 H1554 0.908 1_554 S
C1531 C1548 1.574 . S
C1531 C1550 1.368 . S
C1531 H1555 0.949 . S
H1532 C1536 0.949 . S
C1533 C1534 1.349 . S
C1533 C1535 1.327 . S
C1533 H1556 0.950 . S
C1534 C1533 1.349 . S
C1534 C1546 1.349 . S
C1535 C1533 1.327 . S
C1535 C1551 1.429 . S
C1535 H1557 0.908 1_556 S
C1536 H1532 0.949 . S
C1536 C1544 1.574 . S
C1536 C1552 1.368 . S
H1537 C1545 0.950 . S
H1538 C1543 0.950 . S
H1539 C1544 0.949 . S
H1540 C1546 0.950 . S
H1541 C1547 0.950 . S
H1542 C1548 0.949 . S
C1543 H1538 0.950 . S
C1543 C1545 1.327 . S
C1543 C1549 1.429 . S
C1544 C1536 1.574 . S
C1544 H1539 0.949 . S
C1544 C1550 1.368 1_556 S
C1545 C1529 1.349 . S
C1545 H1537 0.950 . S
C1545 C1543 1.327 . S
C1546 C1534 1.349 . S
C1546 H1540 0.950 . S
C1546 C1547 1.327 . S
C1547 H1541 0.950 . S
C1547 C1546 1.327 . S
C1547 C1551 1.429 . S
C1548 C1531 1.574 . S
C1548 H1542 0.949 . S
C1548 C1552 1.368 1_554 S
C1549 C1530 1.429 . S
C1549 C1543 1.429 . S
C1549 C1550 1.523 . S
C1550 C1531 1.368 . S
C1550 C1544 1.368 1_554 S
C1550 C1549 1.523 . S
C1551 C1535 1.429 . S
C1551 C1547 1.429 . S
C1551 C1552 1.523 . S
C1552 C1536 1.368 . S
C1552 C1548 1.368 1_556 S
C1552 C1551 1.523 . S
H1553 C1528 0.950 . S
H1554 C1530 0.908 1_556 S
H1555 C1531 0.949 . S
H1556 C1533 0.950 . S
H1557 C1535 0.908 1_554 S
C1558 C1559 1.349 . S
C1558 C1560 1.327 . S
C1558 H1583 0.950 . S
C1559 C1558 1.349 . S
C1559 C1575 1.349 . S
C1560 C1558 1.327 . S
C1560 C1579 1.429 . S
C1560 H1584 0.950 . S
C1561 C1578 1.574 1_565 S
C1561 C1580 1.368 . S
C1561 H1585 0.949 . S
H1562 C1566 0.949 . S
C1563 C1564 1.349 . S
C1563 C1565 1.327 . S
C1563 H1586 0.950 . S
C1564 C1563 1.349 . S
C1564 C1576 1.349 . S
C1565 C1563 1.327 . S
C1565 C1581 1.429 . S
C1565 H1587 0.950 . S
C1566 H1562 0.949 . S
C1566 C1574 1.574 1_545 S
C1566 C1582 1.368 . S
H1567 C1575 0.950 . S
H1568 C1573 0.950 . S
H1569 C1574 0.949 . S
H1570 C1576 0.950 . S
H1571 C1577 0.950 . S
H1572 C1578 0.949 . S
C1573 H1568 0.950 . S
C1573 C1575 1.327 . S
C1573 C1579 1.429 . S
C1574 C1566 1.574 1_565 S
C1574 H1569 0.949 . S
C1574 C1580 1.368 . S
C1575 C1559 1.349 . S
C1575 H1567 0.950 . S
C1575 C1573 1.327 . S
C1576 C1564 1.349 . S
C1576 H1570 0.950 . S
C1576 C1577 1.327 . S
C1577 H1571 0.950 . S
C1577 C1576 1.327 . S
C1577 C1581 1.429 . S
C1578 C1561 1.574 1_545 S
C1578 H1572 0.949 . S
C1578 C1582 1.368 . S
C1579 C1560 1.429 . S
C1579 C1573 1.429 . S
C1579 C1580 1.523 . S
C1580 C1561 1.368 . S
C1580 C1574 1.368 . S
C1580 C1579 1.523 . S
C1581 C1565 1.429 . S
C1581 C1577 1.429 . S
C1581 C1582 1.523 . S
C1582 C1566 1.368 . S
C1582 C1578 1.368 . S
C1582 C1581 1.523 . S
H1583 C1558 0.950 . S
H1584 C1560 0.950 . S
H1585 C1561 0.949 . S
H1586 C1563 0.950 . S
H1587 C1565 0.950 . S
C1588 C1589 1.349 . S
C1588 C1590 1.327 . S
C1588 H1613 0.950 . S
C1589 C1588 1.349 . S
C1589 C1605 1.349 . S
C1590 C1588 1.327 . S
C1590 C1609 1.429 . S
C1590 H1614 0.950 . S
C1591 C1608 1.574 . S
C1591 C1610 1.368 . S
C1591 H1615 0.949 . S
H1592 C1596 0.949 . S
C1593 C1594 1.349 . S
C1593 C1595 1.327 . S
C1593 H1616 0.950 . S
C1594 C1593 1.349 . S
C1594 C1606 1.349 . S
C1595 C1593 1.327 . S
C1595 C1611 1.429 . S
C1595 H1617 0.950 . S
C1596 H1592 0.949 . S
C1596 C1604 1.574 . S
C1596 C1612 1.368 . S
H1597 C1605 0.950 . S
H1598 C1603 0.950 . S
H1599 C1604 0.949 . S
H1600 C1606 0.950 . S
H1601 C1607 0.950 . S
H1602 C1608 0.949 . S
C1603 H1598 0.950 . S
C1603 C1605 1.327 . S
C1603 C1609 1.429 . S
C1604 C1596 1.574 . S
C1604 H1599 0.949 . S
C1604 C1610 1.368 . S
C1605 C1589 1.349 . S
C1605 H1597 0.950 . S
C1605 C1603 1.327 . S
C1606 C1594 1.349 . S
C1606 H1600 0.950 . S
C1606 C1607 1.327 . S
C1607 H1601 0.950 . S
C1607 C1606 1.327 . S
C1607 C1611 1.429 . S
C1608 C1591 1.574 . S
C1608 H1602 0.949 . S
C1608 C1612 1.368 . S
C1609 C1590 1.429 . S
C1609 C1603 1.429 . S
C1609 C1610 1.523 . S
C1610 C1591 1.368 . S
C1610 C1604 1.368 . S
C1610 C1609 1.523 . S
C1611 C1595 1.429 . S
C1611 C1607 1.429 . S
C1611 C1612 1.523 . S
C1612 C1596 1.368 . S
C1612 C1608 1.368 . S
C1612 C1611 1.523 . S
H1613 C1588 0.950 . S
H1614 C1590 0.950 . S
H1615 C1591 0.949 . S
H1616 C1593 0.950 . S
H1617 C1595 0.950 . S
C1618 C1619 1.349 . S
C1618 C1620 1.327 . S
C1618 H1643 0.950 . S
C1619 C1618 1.349 . S
C1619 C1635 1.349 . S
C1620 C1618 1.327 . S
C1620 C1639 1.429 . S
C1620 H1644 0.950 . S
C1621 C1638 1.574 1_545 S
C1621 C1640 1.368 . S
C1621 H1645 0.949 . S
H1622 C1626 0.949 . S
C1623 C1624 1.349 . S
C1623 C1625 1.327 . S
C1623 H1646 0.950 . S
C1624 C1623 1.349 . S
C1624 C1636 1.349 . S
C1625 C1623 1.327 . S
C1625 C1641 1.429 . S
C1625 H1647 0.950 . S
C1626 H1622 0.949 . S
C1626 C1634 1.574 1_565 S
C1626 C1642 1.368 . S
H1627 C1635 0.950 . S
H1628 C1633 0.950 . S
H1629 C1634 0.949 . S
H1630 C1636 0.950 . S
H1631 C1637 0.950 . S
H1632 C1638 0.949 . S
C1633 H1628 0.950 . S
C1633 C1635 1.327 . S
C1633 C1639 1.429 . S
C1634 C1626 1.574 1_545 S
C1634 H1629 0.949 . S
C1634 C1640 1.368 . S
C1635 C1619 1.349 . S
C1635 H1627 0.950 . S
C1635 C1633 1.327 . S
C1636 C1624 1.349 . S
C1636 H1630 0.950 . S
C1636 C1637 1.327 . S
C1637 H1631 0.950 . S
C1637 C1636 1.327 . S
C1637 C1641 1.429 . S
C1638 C1621 1.574 1_565 S
C1638 H1632 0.949 . S
C1638 C1642 1.368 . S
C1639 C1620 1.429 . S
C1639 C1633 1.429 . S
C1639 C1640 1.523 . S
C1640 C1621 1.368 . S
C1640 C1634 1.368 . S
C1640 C1639 1.523 . S
C1641 C1625 1.429 . S
C1641 C1637 1.429 . S
C1641 C1642 1.523 . S
C1642 C1626 1.368 . S
C1642 C1638 1.368 . S
C1642 C1641 1.523 . S
H1643 C1618 0.950 . S
H1644 C1620 0.950 . S
H1645 C1621 0.949 . S
H1646 C1623 0.950 . S
H1647 C1625 0.950 . S
C1648 C1649 1.349 . S
C1648 C1650 1.327 . S
C1648 H1673 0.950 . S
C1649 C1648 1.349 . S
C1649 C1665 1.349 . S
C1650 C1648 1.327 . S
C1650 C1669 1.429 . S
C1650 H1674 0.950 . S
C1651 C1668 1.574 . S
C1651 C1670 1.368 . S
C1651 H1675 0.949 . S
H1652 C1656 0.949 . S
C1653 C1654 1.349 . S
C1653 C1655 1.327 . S
C1653 H1676 0.950 . S
C1654 C1653 1.349 . S
C1654 C1666 1.349 . S
C1655 C1653 1.327 . S
C1655 C1671 1.429 . S
C1655 H1677 0.950 . S
C1656 H1652 0.949 . S
C1656 C1664 1.574 . S
C1656 C1672 1.368 . S
H1657 C1665 0.950 . S
H1658 C1663 0.950 . S
H1659 C1664 0.949 . S
H1660 C1666 0.950 . S
H1661 C1667 0.950 . S
H1662 C1668 0.949 . S
C1663 H1658 0.950 . S
C1663 C1665 1.327 . S
C1663 C1669 1.429 . S
C1664 C1656 1.574 . S
C1664 H1659 0.949 . S
C1664 C1670 1.368 . S
C1665 C1649 1.349 . S
C1665 H1657 0.950 . S
C1665 C1663 1.327 . S
C1666 C1654 1.349 . S
C1666 H1660 0.950 . S
C1666 C1667 1.327 . S
C1667 H1661 0.950 . S
C1667 C1666 1.327 . S
C1667 C1671 1.429 . S
C1668 C1651 1.574 . S
C1668 H1662 0.949 . S
C1668 C1672 1.368 . S
C1669 C1650 1.429 . S
C1669 C1663 1.429 . S
C1669 C1670 1.523 . S
C1670 C1651 1.368 . S
C1670 C1664 1.368 . S
C1670 C1669 1.523 . S
C1671 C1655 1.429 . S
C1671 C1667 1.429 . S
C1671 C1672 1.523 . S
C1672 C1656 1.368 . S
C1672 C1668 1.368 . S
C1672 C1671 1.523 . S
H1673 C1648 0.950 . S
H1674 C1650 0.950 . S
H1675 C1651 0.949 . S
H1676 C1653 0.950 . S
H1677 C1655 0.950 . S
C1678 C1679 1.349 . S
C1678 C1680 1.327 . S
C1678 H1703 0.950 . S
C1679 C1678 1.349 . S
C1679 C1695 1.349 . S
C1680 C1678 1.327 . S
C1680 C1699 1.429 . S
C1680 H1704 0.950 . S
C1681 C1698 1.574 . S
C1681 C1700 1.368 . S
C1681 H1705 0.949 . S
H1682 C1686 0.949 . S
C1683 C1684 1.349 . S
C1683 C1685 1.327 . S
C1683 H1706 0.950 . S
C1684 C1683 1.349 . S
C1684 C1696 1.349 . S
C1685 C1683 1.327 . S
C1685 C1701 1.429 . S
C1685 H1707 0.950 . S
C1686 H1682 0.949 . S
C1686 C1694 1.574 . S
C1686 C1702 1.368 . S
H1687 C1695 0.950 . S
H1688 C1693 0.950 . S
H1689 C1694 0.949 . S
H1690 C1696 0.950 . S
H1691 C1697 0.950 . S
H1692 C1698 0.949 . S
C1693 H1688 0.950 . S
C1693 C1695 1.327 . S
C1693 C1699 1.429 . S
C1694 C1686 1.574 . S
C1694 H1689 0.949 . S
C1694 C1700 1.368 . S
C1695 C1679 1.349 . S
C1695 H1687 0.950 . S
C1695 C1693 1.327 . S
C1696 C1684 1.349 . S
C1696 H1690 0.950 . S
C1696 C1697 1.327 . S
C1697 H1691 0.950 . S
C1697 C1696 1.327 . S
C1697 C1701 1.429 . S
C1698 C1681 1.574 . S
C1698 H1692 0.949 . S
C1698 C1702 1.368 . S
C1699 C1680 1.429 . S
C1699 C1693 1.429 . S
C1699 C1700 1.523 . S
C1700 C1681 1.368 . S
C1700 C1694 1.368 . S
C1700 C1699 1.523 . S
C1701 C1685 1.429 . S
C1701 C1697 1.429 . S
C1701 C1702 1.523 . S
C1702 C1686 1.368 . S
C1702 C1698 1.368 . S
C1702 C1701 1.523 . S
H1703 C1678 0.950 . S
H1704 C1680 0.950 . S
H1705 C1681 0.949 . S
H1706 C1683 0.950 . S
H1707 C1685 0.950 . S
C1708 C1709 1.349 . S
C1708 C1710 1.327 . S
C1708 H1733 0.950 . S
C1709 C1708 1.349 . S
C1709 C1725 1.349 . S
C1710 C1708 1.327 . S
C1710 C1729 1.429 . S
C1710 H1734 0.950 . S
C1711 C1728 1.574 . S
C1711 C1730 1.368 1_556 S
C1711 H1735 0.949 . S
H1712 C1716 0.949 . S
C1713 C1714 1.349 . S
C1713 C1715 1.327 . S
C1713 H1736 0.950 . S
C1714 C1713 1.349 . S
C1714 C1726 1.349 . S
C1715 C1713 1.327 . S
C1715 C1731 1.429 . S
C1715 H1737 0.950 . S
C1716 H1712 0.949 . S
C1716 C1724 1.574 . S
C1716 C1732 1.368 1_554 S
H1717 C1725 0.950 . S
H1718 C1723 0.908 1_556 S
H1719 C1724 0.949 . S
H1720 C1726 0.950 . S
H1721 C1727 0.908 1_554 S
H1722 C1728 0.949 . S
C1723 H1718 0.908 1_554 S
C1723 C1725 1.327 . S
C1723 C1729 1.429 . S
C1724 C1716 1.574 . S
C1724 H1719 0.949 . S
C1724 C1730 1.368 . S
C1725 C1709 1.349 . S
C1725 H1717 0.950 . S
C1725 C1723 1.327 . S
C1726 C1714 1.349 . S
C1726 H1720 0.950 . S
C1726 C1727 1.327 . S
C1727 H1721 0.908 1_556 S
C1727 C1726 1.327 . S
C1727 C1731 1.429 . S
C1728 C1711 1.574 . S
C1728 H1722 0.949 . S
C1728 C1732 1.368 . S
C1729 C1710 1.429 . S
C1729 C1723 1.429 . S
C1729 C1730 1.523 . S
C1730 C1711 1.368 1_554 S
C1730 C1724 1.368 . S
C1730 C1729 1.523 . S
C1731 C1715 1.429 . S
C1731 C1727 1.429 . S
C1731 C1732 1.523 . S
C1732 C1716 1.368 1_556 S
C1732 C1728 1.368 . S
C1732 C1731 1.523 . S
H1733 C1708 0.950 . S
H1734 C1710 0.950 . S
H1735 C1711 0.949 . S
H1736 C1713 0.950 . S
H1737 C1715 0.950 . S
C1738 C1739 1.349 . S
C1738 C1740 1.327 . S
C1738 H1763 0.950 . S
C1739 C1738 1.349 . S
C1739 C1755 1.349 . S
C1740 C1738 1.327 . S
C1740 C1759 1.429 . S
C1740 H1764 0.950 . S
C1741 C1758 1.574 . S
C1741 C1760 1.368 . S
C1741 H1765 0.949 . S
H1742 C1746 0.949 . S
C1743 C1744 1.349 . S
C1743 C1745 1.327 . S
C1743 H1766 0.950 . S
C1744 C1743 1.349 . S
C1744 C1756 1.349 . S
C1745 C1743 1.327 . S
C1745 C1761 1.429 . S
C1745 H1767 0.950 . S
C1746 H1742 0.949 . S
C1746 C1754 1.574 . S
C1746 C1762 1.368 . S
H1747 C1755 0.950 . S
H1748 C1753 0.950 . S
H1749 C1754 0.949 . S
H1750 C1756 0.950 . S
H1751 C1757 0.950 . S
H1752 C1758 0.949 . S
C1753 H1748 0.950 . S
C1753 C1755 1.327 . S
C1753 C1759 1.429 . S
C1754 C1746 1.574 . S
C1754 H1749 0.949 . S
C1754 C1760 1.368 . S
C1755 C1739 1.349 . S
C1755 H1747 0.950 . S
C1755 C1753 1.327 . S
C1756 C1744 1.349 . S
C1756 H1750 0.950 . S
C1756 C1757 1.327 . S
C1757 H1751 0.950 . S
C1757 C1756 1.327 . S
C1757 C1761 1.429 . S
C1758 C1741 1.574 . S
C1758 H1752 0.949 . S
C1758 C1762 1.368 . S
C1759 C1740 1.429 . S
C1759 C1753 1.429 . S
C1759 C1760 1.523 . S
C1760 C1741 1.368 . S
C1760 C1754 1.368 . S
C1760 C1759 1.523 . S
C1761 C1745 1.429 . S
C1761 C1757 1.429 . S
C1761 C1762 1.523 . S
C1762 C1746 1.368 . S
C1762 C1758 1.368 . S
C1762 C1761 1.523 . S
H1763 C1738 0.950 . S
H1764 C1740 0.950 . S
H1765 C1741 0.949 . S
H1766 C1743 0.950 . S
H1767 C1745 0.950 . S
C1768 C1769 1.349 . S
C1768 C1770 1.327 . S
C1768 H1793 0.950 . S
C1769 C1768 1.349 . S
C1769 C1785 1.349 . S
C1770 C1768 1.327 . S
C1770 C1789 1.429 . S
C1770 H1794 0.950 . S
C1771 C1788 1.574 . S
C1771 C1790 1.368 . S
C1771 H1795 0.949 . S
H1772 C1776 0.949 . S
C1773 C1774 1.349 . S
C1773 C1775 1.327 . S
C1773 H1796 0.950 . S
C1774 C1773 1.349 . S
C1774 C1786 1.349 . S
C1775 C1773 1.327 . S
C1775 C1791 1.429 . S
C1775 H1797 0.950 . S
C1776 H1772 0.949 . S
C1776 C1784 1.574 . S
C1776 C1792 1.368 . S
H1777 C1785 0.950 . S
H1778 C1783 0.950 . S
H1779 C1784 0.949 . S
H1780 C1786 0.950 . S
H1781 C1787 0.950 . S
H1782 C1788 0.949 . S
C1783 H1778 0.950 . S
C1783 C1785 1.327 . S
C1783 C1789 1.429 . S
C1784 C1776 1.574 . S
C1784 H1779 0.949 . S
C1784 C1790 1.368 . S
C1785 C1769 1.349 . S
C1785 H1777 0.950 . S
C1785 C1783 1.327 . S
C1786 C1774 1.349 . S
C1786 H1780 0.950 . S
C1786 C1787 1.327 . S
C1787 H1781 0.950 . S
C1787 C1786 1.327 . S
C1787 C1791 1.429 . S
C1788 C1771 1.574 . S
C1788 H1782 0.949 . S
C1788 C1792 1.368 . S
C1789 C1770 1.429 . S
C1789 C1783 1.429 . S
C1789 C1790 1.523 . S
C1790 C1771 1.368 . S
C1790 C1784 1.368 . S
C1790 C1789 1.523 . S
C1791 C1775 1.429 . S
C1791 C1787 1.429 . S
C1791 C1792 1.523 . S
C1792 C1776 1.368 . S
C1792 C1788 1.368 . S
C1792 C1791 1.523 . S
H1793 C1768 0.950 . S
H1794 C1770 0.950 . S
H1795 C1771 0.949 . S
H1796 C1773 0.950 . S
H1797 C1775 0.950 . S
C1798 C1799 1.349 . S
C1798 C1800 1.327 . S
C1798 H1823 0.950 . S
C1799 C1798 1.349 . S
C1799 C1815 1.349 . S
C1800 C1798 1.327 . S
C1800 C1819 1.429 . S
C1800 H1824 0.950 . S
C1801 C1818 1.574 . S
C1801 C1820 1.368 . S
C1801 H1825 0.949 . S
H1802 C1806 0.949 . S
C1803 C1804 1.349 . S
C1803 C1805 1.327 . S
C1803 H1826 0.950 . S
C1804 C1803 1.349 . S
C1804 C1816 1.349 . S
C1805 C1803 1.327 . S
C1805 C1821 1.429 . S
C1805 H1827 0.950 . S
C1806 H1802 0.949 . S
C1806 C1814 1.574 . S
C1806 C1822 1.368 . S
H1807 C1815 0.950 . S
H1808 C1813 0.950 . S
H1809 C1814 0.949 . S
H1810 C1816 0.950 . S
H1811 C1817 0.950 . S
H1812 C1818 0.949 . S
C1813 H1808 0.950 . S
C1813 C1815 1.327 . S
C1813 C1819 1.429 . S
C1814 C1806 1.574 . S
C1814 H1809 0.949 . S
C1814 C1820 1.368 . S
C1815 C1799 1.349 . S
C1815 H1807 0.950 . S
C1815 C1813 1.327 . S
C1816 C1804 1.349 . S
C1816 H1810 0.950 . S
C1816 C1817 1.327 . S
C1817 H1811 0.950 . S
C1817 C1816 1.327 . S
C1817 C1821 1.429 . S
C1818 C1801 1.574 . S
C1818 H1812 0.949 . S
C1818 C1822 1.368 . S
C1819 C1800 1.429 . S
C1819 C1813 1.429 . S
C1819 C1820 1.523 . S
C1820 C1801 1.368 . S
C1820 C1814 1.368 . S
C1820 C1819 1.523 . S
C1821 C1805 1.429 . S
C1821 C1817 1.429 . S
C1821 C1822 1.523 . S
C1822 C1806 1.368 . S
C1822 C1818 1.368 . S
C1822 C1821 1.523 . S
H1823 C1798 0.950 . S
H1824 C1800 0.950 . S
H1825 C1801 0.949 . S
H1826 C1803 0.950 . S
H1827 C1805 0.950 . S
C1828 C1829 1.349 . S
C1828 C1830 1.327 . S
C1828 H1853 0.950 . S
C1829 C1828 1.349 . S
C1829 C1845 1.349 . S
C1830 C1828 1.327 . S
C1830 C1849 1.429 . S
C1830 H1854 0.908 1_556 S
C1831 C1848 1.574 . S
C1831 C1850 1.368 . S
C1831 H1855 0.949 . S
H1832 C1836 0.949 . S
C1833 C1834 1.349 . S
C1833 C1835 1.327 . S
C1833 H1856 0.950 . S
C1834 C1833 1.349 . S
C1834 C1846 1.349 . S
C1835 C1833 1.327 . S
C1835 C1851 1.429 . S
C1835 H1857 0.908 1_554 S
C1836 H1832 0.949 . S
C1836 C1844 1.574 . S
C1836 C1852 1.368 . S
H1837 C1845 0.950 . S
H1838 C1843 0.950 . S
H1839 C1844 0.949 . S
H1840 C1846 0.950 . S
H1841 C1847 0.950 . S
H1842 C1848 0.949 . S
C1843 H1838 0.950 . S
C1843 C1845 1.327 . S
C1843 C1849 1.429 . S
C1844 C1836 1.574 . S
C1844 H1839 0.949 . S
C1844 C1850 1.368 1_554 S
C1845 C1829 1.349 . S
C1845 H1837 0.950 . S
C1845 C1843 1.327 . S
C1846 C1834 1.349 . S
C1846 H1840 0.950 . S
C1846 C1847 1.327 . S
C1847 H1841 0.950 . S
C1847 C1846 1.327 . S
C1847 C1851 1.429 . S
C1848 C1831 1.574 . S
C1848 H1842 0.949 . S
C1848 C1852 1.368 1_556 S
C1849 C1830 1.429 . S
C1849 C1843 1.429 . S
C1849 C1850 1.523 . S
C1850 C1831 1.368 . S
C1850 C1844 1.368 1_556 S
C1850 C1849 1.523 . S
C1851 C1835 1.429 . S
C1851 C1847 1.429 . S
C1851 C1852 1.523 . S
C1852 C1836 1.368 . S
C1852 C1848 1.368 1_554 S
C1852 C1851 1.523 . S
H1853 C1828 0.950 . S
H1854 C1830 0.908 1_554 S
H1855 C1831 0.949 . S
H1856 C1833 0.950 . S
H1857 C1835 0.908 1_556 S
C1858 C1859 1.349 . S
C1858 C1860 1.327 . S
C1858 H1883 0.950 . S
C1859 C1858 1.349 . S
C1859 C1875 1.349 . S
C1860 C1858 1.327 . S
C1860 C1879 1.429 . S
C1860 H1884 0.950 . S
C1861 C1878 1.574 . S
C1861 C1880 1.368 . S
C1861 H1885 0.949 . S
H1862 C1866 0.949 . S
C1863 C1864 1.349 . S
C1863 C1865 1.327 . S
C1863 H1886 0.950 . S
C1864 C1863 1.349 . S
C1864 C1876 1.349 . S
C1865 C1863 1.327 . S
C1865 C1881 1.429 . S
C1865 H1887 0.950 . S
C1866 H1862 0.949 . S
C1866 C1874 1.574 . S
C1866 C1882 1.368 . S
H1867 C1875 0.950 . S
H1868 C1873 0.950 . S
H1869 C1874 0.949 . S
H1870 C1876 0.950 . S
H1871 C1877 0.950 . S
H1872 C1878 0.949 . S
C1873 H1868 0.950 . S
C1873 C1875 1.327 . S
C1873 C1879 1.429 . S
C1874 C1866 1.574 . S
C1874 H1869 0.949 . S
C1874 C1880 1.368 . S
C1875 C1859 1.349 . S
C1875 H1867 0.950 . S
C1875 C1873 1.327 . S
C1876 C1864 1.349 . S
C1876 H1870 0.950 . S
C1876 C1877 1.327 . S
C1877 H1871 0.950 . S
C1877 C1876 1.327 . S
C1877 C1881 1.429 . S
C1878 C1861 1.574 . S
C1878 H1872 0.949 . S
C1878 C1882 1.368 . S
C1879 C1860 1.429 . S
C1879 C1873 1.429 . S
C1879 C1880 1.523 . S
C1880 C1861 1.368 . S
C1880 C1874 1.368 . S
C1880 C1879 1.523 . S
C1881 C1865 1.429 . S
C1881 C1877 1.429 . S
C1881 C1882 1.523 . S
C1882 C1866 1.368 . S
C1882 C1878 1.368 . S
C1882 C1881 1.523 . S
H1883 C1858 0.950 . S
H1884 C1860 0.950 . S
H1885 C1861 0.949 . S
H1886 C1863 0.950 . S
H1887 C1865 0.950 . S
C1888 C1889 1.349 . S
C1888 C1890 1.327 . S
C1888 H1913 0.950 . S
C1889 C1888 1.349 . S
C1889 C1905 1.349 . S
C1890 C1888 1.327 . S
C1890 C1909 1.429 . S
C1890 H1914 0.950 . S
C1891 C1908 1.574 . S
C1891 C1910 1.368 . S
C1891 H1915 0.949 . S
H1892 C1896 0.949 . S
C1893 C1894 1.349 . S
C1893 C1895 1.327 . S
C1893 H1916 0.950 . S
C1894 C1893 1.349 . S
C1894 C1906 1.349 . S
C1895 C1893 1.327 . S
C1895 C1911 1.429 . S
C1895 H1917 0.950 . S
C1896 H1892 0.949 . S
C1896 C1904 1.574 . S
C1896 C1912 1.368 . S
H1897 C1905 0.950 . S
H1898 C1903 0.950 . S
H1899 C1904 0.949 . S
H1900 C1906 0.950 . S
H1901 C1907 0.950 . S
H1902 C1908 0.949 . S
C1903 H1898 0.950 . S
C1903 C1905 1.327 . S
C1903 C1909 1.429 . S
C1904 C1896 1.574 . S
C1904 H1899 0.949 . S
C1904 C1910 1.368 . S
C1905 C1889 1.349 . S
C1905 H1897 0.950 . S
C1905 C1903 1.327 . S
C1906 C1894 1.349 . S
C1906 H1900 0.950 . S
C1906 C1907 1.327 . S
C1907 H1901 0.950 . S
C1907 C1906 1.327 . S
C1907 C1911 1.429 . S
C1908 C1891 1.574 . S
C1908 H1902 0.949 . S
C1908 C1912 1.368 . S
C1909 C1890 1.429 . S
C1909 C1903 1.429 . S
C1909 C1910 1.523 . S
C1910 C1891 1.368 . S
C1910 C1904 1.368 . S
C1910 C1909 1.523 . S
C1911 C1895 1.429 . S
C1911 C1907 1.429 . S
C1911 C1912 1.523 . S
C1912 C1896 1.368 . S
C1912 C1908 1.368 . S
C1912 C1911 1.523 . S
H1913 C1888 0.950 . S
H1914 C1890 0.950 . S
H1915 C1891 0.949 . S
H1916 C1893 0.950 . S
H1917 C1895 0.950 . S
C1918 C1919 1.349 . S
C1918 C1920 1.327 . S
C1918 H1943 0.950 . S
C1919 C1918 1.349 . S
C1919 C1935 1.349 . S
C1920 C1918 1.327 . S
C1920 C1939 1.429 . S
C1920 H1944 0.950 . S
C1921 C1938 1.574 . S
C1921 C1940 1.368 . S
C1921 H1945 0.949 . S
H1922 C1926 0.949 . S
C1923 C1924 1.349 . S
C1923 C1925 1.327 . S
C1923 H1946 0.950 . S
C1924 C1923 1.349 . S
C1924 C1936 1.349 . S
C1925 C1923 1.327 . S
C1925 C1941 1.429 . S
C1925 H1947 0.950 . S
C1926 H1922 0.949 . S
C1926 C1934 1.574 . S
C1926 C1942 1.368 . S
H1927 C1935 0.950 . S
H1928 C1933 0.950 . S
H1929 C1934 0.949 . S
H1930 C1936 0.950 . S
H1931 C1937 0.950 . S
H1932 C1938 0.949 . S
C1933 H1928 0.950 . S
C1933 C1935 1.327 . S
C1933 C1939 1.429 . S
C1934 C1926 1.574 . S
C1934 H1929 0.949 . S
C1934 C1940 1.368 . S
C1935 C1919 1.349 . S
C1935 H1927 0.950 . S
C1935 C1933 1.327 . S
C1936 C1924 1.349 . S
C1936 H1930 0.950 . S
C1936 C1937 1.327 . S
C1937 H1931 0.950 . S
C1937 C1936 1.327 . S
C1937 C1941 1.429 . S
C1938 C1921 1.574 . S
C1938 H1932 0.949 . S
C1938 C1942 1.368 . S
C1939 C1920 1.429 . S
C1939 C1933 1.429 . S
C1939 C1940 1.523 . S
C1940 C1921 1.368 . S
C1940 C1934 1.368 . S
C1940 C1939 1.523 . S
C1941 C1925 1.429 . S
C1941 C1937 1.429 . S
C1941 C1942 1.523 . S
C1942 C1926 1.368 . S
C1942 C1938 1.368 . S
C1942 C1941 1.523 . S
H1943 C1918 0.950 . S
H1944 C1920 0.950 . S
H1945 C1921 0.949 . S
H1946 C1923 0.950 . S
H1947 C1925 0.950 . S
C1948 C1949 1.349 . S
C1948 C1950 1.327 . S
C1948 H1973 0.950 . S
C1949 C1948 1.349 . S
C1949 C1965 1.349 . S
C1950 C1948 1.327 . S
C1950 C1969 1.429 . S
C1950 H1974 0.950 . S
C1951 C1968 1.574 . S
C1951 C1970 1.368 . S
C1951 H1975 0.949 . S
H1952 C1956 0.949 . S
C1953 C1954 1.349 . S
C1953 C1955 1.327 . S
C1953 H1976 0.950 . S
C1954 C1953 1.349 . S
C1954 C1966 1.349 . S
C1955 C1953 1.327 . S
C1955 C1971 1.429 . S
C1955 H1977 0.950 . S
C1956 H1952 0.949 . S
C1956 C1964 1.574 . S
C1956 C1972 1.368 . S
H1957 C1965 0.950 . S
H1958 C1963 0.950 . S
H1959 C1964 0.949 . S
H1960 C1966 0.950 . S
H1961 C1967 0.950 . S
H1962 C1968 0.949 . S
C1963 H1958 0.950 . S
C1963 C1965 1.327 . S
C1963 C1969 1.429 . S
C1964 C1956 1.574 . S
C1964 H1959 0.949 . S
C1964 C1970 1.368 . S
C1965 C1949 1.349 . S
C1965 H1957 0.950 . S
C1965 C1963 1.327 . S
C1966 C1954 1.349 . S
C1966 H1960 0.950 . S
C1966 C1967 1.327 . S
C1967 H1961 0.950 . S
C1967 C1966 1.327 . S
C1967 C1971 1.429 . S
C1968 C1951 1.574 . S
C1968 H1962 0.949 . S
C1968 C1972 1.368 . S
C1969 C1950 1.429 . S
C1969 C1963 1.429 . S
C1969 C1970 1.523 . S
C1970 C1951 1.368 . S
C1970 C1964 1.368 . S
C1970 C1969 1.523 . S
C1971 C1955 1.429 . S
C1971 C1967 1.429 . S
C1971 C1972 1.523 . S
C1972 C1956 1.368 . S
C1972 C1968 1.368 . S
C1972 C1971 1.523 . S
H1973 C1948 0.950 . S
H1974 C1950 0.950 . S
H1975 C1951 0.949 . S
H1976 C1953 0.950 . S
H1977 C1955 0.950 . S
C1978 C1979 1.349 . S
C1978 C1980 1.327 . S
C1978 H2003 0.950 . S
C1979 C1978 1.349 . S
C1979 C1995 1.349 . S
C1980 C1978 1.327 . S
C1980 C1999 1.429 . S
C1980 H2004 0.950 . S
C1981 C1998 1.574 . S
C1981 C2000 1.368 . S
C1981 H2005 0.949 . S
H1982 C1986 0.949 . S
C1983 C1984 1.349 . S
C1983 C1985 1.327 . S
C1983 H2006 0.950 . S
C1984 C1983 1.349 . S
C1984 C1996 1.349 . S
C1985 C1983 1.327 . S
C1985 C2001 1.429 . S
C1985 H2007 0.950 . S
C1986 H1982 0.949 . S
C1986 C1994 1.574 . S
C1986 C2002 1.368 . S
H1987 C1995 0.950 . S
H1988 C1993 0.950 . S
H1989 C1994 0.949 . S
H1990 C1996 0.950 . S
H1991 C1997 0.950 . S
H1992 C1998 0.949 . S
C1993 H1988 0.950 . S
C1993 C1995 1.327 . S
C1993 C1999 1.429 . S
C1994 C1986 1.574 . S
C1994 H1989 0.949 . S
C1994 C2000 1.368 . S
C1995 C1979 1.349 . S
C1995 H1987 0.950 . S
C1995 C1993 1.327 . S
C1996 C1984 1.349 . S
C1996 H1990 0.950 . S
C1996 C1997 1.327 . S
C1997 H1991 0.950 . S
C1997 C1996 1.327 . S
C1997 C2001 1.429 . S
C1998 C1981 1.574 . S
C1998 H1992 0.949 . S
C1998 C2002 1.368 . S
C1999 C1980 1.429 . S
C1999 C1993 1.429 . S
C1999 C2000 1.523 . S
C2000 C1981 1.368 . S
C2000 C1994 1.368 . S
C2000 C1999 1.523 . S
C2001 C1985 1.429 . S
C2001 C1997 1.429 . S
C2001 C2002 1.523 . S
C2002 C1986 1.368 . S
C2002 C1998 1.368 . S
C2002 C2001 1.523 . S
H2003 C1978 0.950 . S
H2004 C1980 0.950 . S
H2005 C1981 0.949 . S
H2006 C1983 0.950 . S
H2007 C1985 0.950 . S
C2008 C2009 1.349 . S
C2008 C2010 1.327 . S
C2008 H2033 0.950 . S
C2009 C2008 1.349 . S
C2009 C2025 1.349 . S
C2010 C2008 1.327 . S
C2010 C2029 1.429 . S
C2010 H2034 0.950 . S
C2011 C2028 1.574 . S
C2011 C2030 1.368 . S
C2011 H2035 0.949 . S
H2012 C2016 0.949 . S
C2013 C2014 1.349 . S
C2013 C2015 1.327 . S
C2013 H2036 0.950 . S
C2014 C2013 1.349 . S
C2014 C2026 1.349 . S
C2015 C2013 1.327 . S
C2015 C2031 1.429 . S
C2015 H2037 0.950 . S
C2016 H2012 0.949 . S
C2016 C2024 1.574 . S
C2016 C2032 1.368 . S
H2017 C2025 0.950 . S
H2018 C2023 0.950 . S
H2019 C2024 0.949 . S
H2020 C2026 0.950 . S
H2021 C2027 0.950 . S
H2022 C2028 0.949 . S
C2023 H2018 0.950 . S
C2023 C2025 1.327 . S
C2023 C2029 1.429 . S
C2024 C2016 1.574 . S
C2024 H2019 0.949 . S
C2024 C2030 1.368 . S
C2025 C2009 1.349 . S
C2025 H2017 0.950 . S
C2025 C2023 1.327 . S
C2026 C2014 1.349 . S
C2026 H2020 0.950 . S
C2026 C2027 1.327 . S
C2027 H2021 0.950 . S
C2027 C2026 1.327 . S
C2027 C2031 1.429 . S
C2028 C2011 1.574 . S
C2028 H2022 0.949 . S
C2028 C2032 1.368 . S
C2029 C2010 1.429 . S
C2029 C2023 1.429 . S
C2029 C2030 1.523 . S
C2030 C2011 1.368 . S
C2030 C2024 1.368 . S
C2030 C2029 1.523 . S
C2031 C2015 1.429 . S
C2031 C2027 1.429 . S
C2031 C2032 1.523 . S
C2032 C2016 1.368 . S
C2032 C2028 1.368 . S
C2032 C2031 1.523 . S
H2033 C2008 0.950 . S
H2034 C2010 0.950 . S
H2035 C2011 0.949 . S
H2036 C2013 0.950 . S
H2037 C2015 0.950 . S
C2038 C2039 1.349 . S
C2038 C2040 1.327 . S
C2038 H2063 0.950 . S
C2039 C2038 1.349 . S
C2039 C2055 1.349 . S
C2040 C2038 1.327 . S
C2040 C2059 1.429 . S
C2040 H2064 0.950 . S
C2041 C2058 1.574 . S
C2041 C2060 1.368 . S
C2041 H2065 0.949 . S
H2042 C2046 0.949 . S
C2043 C2044 1.349 . S
C2043 C2045 1.327 . S
C2043 H2066 0.950 . S
C2044 C2043 1.349 . S
C2044 C2056 1.349 . S
C2045 C2043 1.327 . S
C2045 C2061 1.429 . S
C2045 H2067 0.950 . S
C2046 H2042 0.949 . S
C2046 C2054 1.574 . S
C2046 C2062 1.368 . S
H2047 C2055 0.950 . S
H2048 C2053 0.950 . S
H2049 C2054 0.949 . S
H2050 C2056 0.950 . S
H2051 C2057 0.950 . S
H2052 C2058 0.949 . S
C2053 H2048 0.950 . S
C2053 C2055 1.327 . S
C2053 C2059 1.429 . S
C2054 C2046 1.574 . S
C2054 H2049 0.949 . S
C2054 C2060 1.368 . S
C2055 C2039 1.349 . S
C2055 H2047 0.950 . S
C2055 C2053 1.327 . S
C2056 C2044 1.349 . S
C2056 H2050 0.950 . S
C2056 C2057 1.327 . S
C2057 H2051 0.950 . S
C2057 C2056 1.327 . S
C2057 C2061 1.429 . S
C2058 C2041 1.574 . S
C2058 H2052 0.949 . S
C2058 C2062 1.368 . S
C2059 C2040 1.429 . S
C2059 C2053 1.429 . S
C2059 C2060 1.523 . S
C2060 C2041 1.368 . S
C2060 C2054 1.368 . S
C2060 C2059 1.523 . S
C2061 C2045 1.429 . S
C2061 C2057 1.429 . S
C2061 C2062 1.523 . S
C2062 C2046 1.368 . S
C2062 C2058 1.368 . S
C2062 C2061 1.523 . S
H2063 C2038 0.950 . S
H2064 C2040 0.950 . S
H2065 C2041 0.949 . S
H2066 C2043 0.950 . S
H2067 C2045 0.950 . S
C2068 C2069 1.349 . S
C2068 C2070 1.327 . S
C2068 H2093 0.950 . S
C2069 C2068 1.349 . S
C2069 C2085 1.349 . S
C2070 C2068 1.327 . S
C2070 C2089 1.429 . S
C2070 H2094 0.950 . S
C2071 C2088 1.574 . S
C2071 C2090 1.368 . S
C2071 H2095 0.949 . S
H2072 C2076 0.949 . S
C2073 C2074 1.349 . S
C2073 C2075 1.327 . S
C2073 H2096 0.950 . S
C2074 C2073 1.349 . S
C2074 C2086 1.349 . S
C2075 C2073 1.327 . S
C2075 C2091 1.429 . S
C2075 H2097 0.950 . S
C2076 H2072 0.949 . S
C2076 C2084 1.574 . S
C2076 C2092 1.368 . S
H2077 C2085 0.950 . S
H2078 C2083 0.950 . S
H2079 C2084 0.949 . S
H2080 C2086 0.950 . S
H2081 C2087 0.950 . S
H2082 C2088 0.949 . S
C2083 H2078 0.950 . S
C2083 C2085 1.327 . S
C2083 C2089 1.429 . S
C2084 C2076 1.574 . S
C2084 H2079 0.949 . S
C2084 C2090 1.368 . S
C2085 C2069 1.349 . S
C2085 H2077 0.950 . S
C2085 C2083 1.327 . S
C2086 C2074 1.349 . S
C2086 H2080 0.950 . S
C2086 C2087 1.327 . S
C2087 H2081 0.950 . S
C2087 C2086 1.327 . S
C2087 C2091 1.429 . S
C2088 C2071 1.574 . S
C2088 H2082 0.949 . S
C2088 C2092 1.368 . S
C2089 C2070 1.429 . S
C2089 C2083 1.429 . S
C2089 C2090 1.523 . S
C2090 C2071 1.368 . S
C2090 C2084 1.368 . S
C2090 C2089 1.523 . S
C2091 C2075 1.429 . S
C2091 C2087 1.429 . S
C2091 C2092 1.523 . S
C2092 C2076 1.368 . S
C2092 C2088 1.368 . S
C2092 C2091 1.523 . S
H2093 C2068 0.950 . S
H2094 C2070 0.950 . S
H2095 C2071 0.949 . S
H2096 C2073 0.950 . S
H2097 C2075 0.950 . S
C2098 C2099 1.349 . S
C2098 C2100 1.327 . S
C2098 H2123 0.950 . S
C2099 C2098 1.349 . S
C2099 C2115 1.349 . S
C2100 C2098 1.327 . S
C2100 C2119 1.429 . S
C2100 H2124 0.950 . S
C2101 C2118 1.574 . S
C2101 C2120 1.368 . S
C2101 H2125 0.949 . S
H2102 C2106 0.949 . S
C2103 C2104 1.349 . S
C2103 C2105 1.327 . S
C2103 H2126 0.950 . S
C2104 C2103 1.349 . S
C2104 C2116 1.349 . S
C2105 C2103 1.327 . S
C2105 C2121 1.429 . S
C2105 H2127 0.950 . S
C2106 H2102 0.949 . S
C2106 C2114 1.574 . S
C2106 C2122 1.368 . S
H2107 C2115 0.950 . S
H2108 C2113 0.950 . S
H2109 C2114 0.949 . S
H2110 C2116 0.950 . S
H2111 C2117 0.950 . S
H2112 C2118 0.949 . S
C2113 H2108 0.950 . S
C2113 C2115 1.327 . S
C2113 C2119 1.429 . S
C2114 C2106 1.574 . S
C2114 H2109 0.949 . S
C2114 C2120 1.368 . S
C2115 C2099 1.349 . S
C2115 H2107 0.950 . S
C2115 C2113 1.327 . S
C2116 C2104 1.349 . S
C2116 H2110 0.950 . S
C2116 C2117 1.327 . S
C2117 H2111 0.950 . S
C2117 C2116 1.327 . S
C2117 C2121 1.429 . S
C2118 C2101 1.574 . S
C2118 H2112 0.949 . S
C2118 C2122 1.368 . S
C2119 C2100 1.429 . S
C2119 C2113 1.429 . S
C2119 C2120 1.523 . S
C2120 C2101 1.368 . S
C2120 C2114 1.368 . S
C2120 C2119 1.523 . S
C2121 C2105 1.429 . S
C2121 C2117 1.429 . S
C2121 C2122 1.523 . S
C2122 C2106 1.368 . S
C2122 C2118 1.368 . S
C2122 C2121 1.523 . S
H2123 C2098 0.950 . S
H2124 C2100 0.950 . S
H2125 C2101 0.949 . S
H2126 C2103 0.950 . S
H2127 C2105 0.950 . S
C2128 C2129 1.349 . S
C2128 C2130 1.327 . S
C2128 H2153 0.950 . S
C2129 C2128 1.349 . S
C2129 C2145 1.349 . S
C2130 C2128 1.327 . S
C2130 C2149 1.429 . S
C2130 H2154 0.950 . S
C2131 C2148 1.574 . S
C2131 C2150 1.368 . S
C2131 H2155 0.949 . S
H2132 C2136 0.949 . S
C2133 C2134 1.349 . S
C2133 C2135 1.327 . S
C2133 H2156 0.950 . S
C2134 C2133 1.349 . S
C2134 C2146 1.349 . S
C2135 C2133 1.327 . S
C2135 C2151 1.429 . S
C2135 H2157 0.950 . S
C2136 H2132 0.949 . S
C2136 C2144 1.574 . S
C2136 C2152 1.368 . S
H2137 C2145 0.950 . S
H2138 C2143 0.950 . S
H2139 C2144 0.949 . S
H2140 C2146 0.950 . S
H2141 C2147 0.950 . S
H2142 C2148 0.949 . S
C2143 H2138 0.950 . S
C2143 C2145 1.327 . S
C2143 C2149 1.429 . S
C2144 C2136 1.574 . S
C2144 H2139 0.949 . S
C2144 C2150 1.368 . S
C2145 C2129 1.349 . S
C2145 H2137 0.950 . S
C2145 C2143 1.327 . S
C2146 C2134 1.349 . S
C2146 H2140 0.950 . S
C2146 C2147 1.327 . S
C2147 H2141 0.950 . S
C2147 C2146 1.327 . S
C2147 C2151 1.429 . S
C2148 C2131 1.574 . S
C2148 H2142 0.949 . S
C2148 C2152 1.368 . S
C2149 C2130 1.429 . S
C2149 C2143 1.429 . S
C2149 C2150 1.523 . S
C2150 C2131 1.368 . S
C2150 C2144 1.368 . S
C2150 C2149 1.523 . S
C2151 C2135 1.429 . S
C2151 C2147 1.429 . S
C2151 C2152 1.523 . S
C2152 C2136 1.368 . S
C2152 C2148 1.368 . S
C2152 C2151 1.523 . S
H2153 C2128 0.950 . S
H2154 C2130 0.950 . S
H2155 C2131 0.949 . S
H2156 C2133 0.950 . S
H2157 C2135 0.950 . S
C2158 C2159 1.349 . S
C2158 C2160 1.327 . S
C2158 H2183 0.950 . S
C2159 C2158 1.349 . S
C2159 C2175 1.349 . S
C2160 C2158 1.327 . S
C2160 C2179 1.429 . S
C2160 H2184 0.950 . S
C2161 C2178 1.574 . S
C2161 C2180 1.368 . S
C2161 H2185 0.949 . S
H2162 C2166 0.949 . S
C2163 C2164 1.349 . S
C2163 C2165 1.327 . S
C2163 H2186 0.950 . S
C2164 C2163 1.349 . S
C2164 C2176 1.349 . S
C2165 C2163 1.327 . S
C2165 C2181 1.429 . S
C2165 H2187 0.950 . S
C2166 H2162 0.949 . S
C2166 C2174 1.574 . S
C2166 C2182 1.368 . S
H2167 C2175 0.950 . S
H2168 C2173 0.950 . S
H2169 C2174 0.949 . S
H2170 C2176 0.950 . S
H2171 C2177 0.950 . S
H2172 C2178 0.949 . S
C2173 H2168 0.950 . S
C2173 C2175 1.327 . S
C2173 C2179 1.429 . S
C2174 C2166 1.574 . S
C2174 H2169 0.949 . S
C2174 C2180 1.368 . S
C2175 C2159 1.349 . S
C2175 H2167 0.950 . S
C2175 C2173 1.327 . S
C2176 C2164 1.349 . S
C2176 H2170 0.950 . S
C2176 C2177 1.327 . S
C2177 H2171 0.950 . S
C2177 C2176 1.327 . S
C2177 C2181 1.429 . S
C2178 C2161 1.574 . S
C2178 H2172 0.949 . S
C2178 C2182 1.368 . S
C2179 C2160 1.429 . S
C2179 C2173 1.429 . S
C2179 C2180 1.523 . S
C2180 C2161 1.368 . S
C2180 C2174 1.368 . S
C2180 C2179 1.523 . S
C2181 C2165 1.429 . S
C2181 C2177 1.429 . S
C2181 C2182 1.523 . S
C2182 C2166 1.368 . S
C2182 C2178 1.368 . S
C2182 C2181 1.523 . S
H2183 C2158 0.950 . S
H2184 C2160 0.950 . S
H2185 C2161 0.949 . S
H2186 C2163 0.950 . S
H2187 C2165 0.950 . S
C2188 C2189 1.349 . S
C2188 C2190 1.327 . S
C2188 H2213 0.950 . S
C2189 C2188 1.349 . S
C2189 C2205 1.349 . S
C2190 C2188 1.327 . S
C2190 C2209 1.429 . S
C2190 H2214 0.950 . S
C2191 C2208 1.574 . S
C2191 C2210 1.368 . S
C2191 H2215 0.949 . S
H2192 C2196 0.949 . S
C2193 C2194 1.349 . S
C2193 C2195 1.327 . S
C2193 H2216 0.950 . S
C2194 C2193 1.349 . S
C2194 C2206 1.349 . S
C2195 C2193 1.327 . S
C2195 C2211 1.429 . S
C2195 H2217 0.950 . S
C2196 H2192 0.949 . S
C2196 C2204 1.574 . S
C2196 C2212 1.368 . S
H2197 C2205 0.950 . S
H2198 C2203 0.950 . S
H2199 C2204 0.949 . S
H2200 C2206 0.950 . S
H2201 C2207 0.950 . S
H2202 C2208 0.949 . S
C2203 H2198 0.950 . S
C2203 C2205 1.327 . S
C2203 C2209 1.429 . S
C2204 C2196 1.574 . S
C2204 H2199 0.949 . S
C2204 C2210 1.368 . S
C2205 C2189 1.349 . S
C2205 H2197 0.950 . S
C2205 C2203 1.327 . S
C2206 C2194 1.349 . S
C2206 H2200 0.950 . S
C2206 C2207 1.327 . S
C2207 H2201 0.950 . S
C2207 C2206 1.327 . S
C2207 C2211 1.429 . S
C2208 C2191 1.574 . S
C2208 H2202 0.949 . S
C2208 C2212 1.368 . S
C2209 C2190 1.429 . S
C2209 C2203 1.429 . S
C2209 C2210 1.523 . S
C2210 C2191 1.368 . S
C2210 C2204 1.368 . S
C2210 C2209 1.523 . S
C2211 C2195 1.429 . S
C2211 C2207 1.429 . S
C2211 C2212 1.523 . S
C2212 C2196 1.368 . S
C2212 C2208 1.368 . S
C2212 C2211 1.523 . S
H2213 C2188 0.950 . S
H2214 C2190 0.950 . S
H2215 C2191 0.949 . S
H2216 C2193 0.950 . S
H2217 C2195 0.950 . S
C2218 C2219 1.349 . S
C2218 C2220 1.327 . S
C2218 H2243 0.950 . S
C2219 C2218 1.349 . S
C2219 C2235 1.349 . S
C2220 C2218 1.327 . S
C2220 C2239 1.429 . S
C2220 H2244 0.950 . S
C2221 C2238 1.574 . S
C2221 C2240 1.368 . S
C2221 H2245 0.949 . S
H2222 C2226 0.949 . S
C2223 C2224 1.349 . S
C2223 C2225 1.327 . S
C2223 H2246 0.950 . S
C2224 C2223 1.349 . S
C2224 C2236 1.349 . S
C2225 C2223 1.327 . S
C2225 C2241 1.429 . S
C2225 H2247 0.950 . S
C2226 H2222 0.949 . S
C2226 C2234 1.574 . S
C2226 C2242 1.368 . S
H2227 C2235 0.950 . S
H2228 C2233 0.950 . S
H2229 C2234 0.949 . S
H2230 C2236 0.950 . S
H2231 C2237 0.950 . S
H2232 C2238 0.949 . S
C2233 H2228 0.950 . S
C2233 C2235 1.327 . S
C2233 C2239 1.429 . S
C2234 C2226 1.574 . S
C2234 H2229 0.949 . S
C2234 C2240 1.368 . S
C2235 C2219 1.349 . S
C2235 H2227 0.950 . S
C2235 C2233 1.327 . S
C2236 C2224 1.349 . S
C2236 H2230 0.950 . S
C2236 C2237 1.327 . S
C2237 H2231 0.950 . S
C2237 C2236 1.327 . S
C2237 C2241 1.429 . S
C2238 C2221 1.574 . S
C2238 H2232 0.949 . S
C2238 C2242 1.368 . S
C2239 C2220 1.429 . S
C2239 C2233 1.429 . S
C2239 C2240 1.523 . S
C2240 C2221 1.368 . S
C2240 C2234 1.368 . S
C2240 C2239 1.523 . S
C2241 C2225 1.429 . S
C2241 C2237 1.429 . S
C2241 C2242 1.523 . S
C2242 C2226 1.368 . S
C2242 C2238 1.368 . S
C2242 C2241 1.523 . S
H2243 C2218 0.950 . S
H2244 C2220 0.950 . S
H2245 C2221 0.949 . S
H2246 C2223 0.950 . S
H2247 C2225 0.950 . S
C2248 C2249 1.349 . S
C2248 C2250 1.327 . S
C2248 H2273 0.950 . S
C2249 C2248 1.349 . S
C2249 C2265 1.349 . S
C2250 C2248 1.327 . S
C2250 C2269 1.429 . S
C2250 H2274 0.950 . S
C2251 C2268 1.574 . S
C2251 C2270 1.368 . S
C2251 H2275 0.949 . S
H2252 C2256 0.949 . S
C2253 C2254 1.349 . S
C2253 C2255 1.327 . S
C2253 H2276 0.950 . S
C2254 C2253 1.349 . S
C2254 C2266 1.349 . S
C2255 C2253 1.327 . S
C2255 C2271 1.429 . S
C2255 H2277 0.950 . S
C2256 H2252 0.949 . S
C2256 C2264 1.574 . S
C2256 C2272 1.368 . S
H2257 C2265 0.950 . S
H2258 C2263 0.950 . S
H2259 C2264 0.949 . S
H2260 C2266 0.950 . S
H2261 C2267 0.950 . S
H2262 C2268 0.949 . S
C2263 H2258 0.950 . S
C2263 C2265 1.327 . S
C2263 C2269 1.429 . S
C2264 C2256 1.574 . S
C2264 H2259 0.949 . S
C2264 C2270 1.368 . S
C2265 C2249 1.349 . S
C2265 H2257 0.950 . S
C2265 C2263 1.327 . S
C2266 C2254 1.349 . S
C2266 H2260 0.950 . S
C2266 C2267 1.327 . S
C2267 H2261 0.950 . S
C2267 C2266 1.327 . S
C2267 C2271 1.429 . S
C2268 C2251 1.574 . S
C2268 H2262 0.949 . S
C2268 C2272 1.368 . S
C2269 C2250 1.429 . S
C2269 C2263 1.429 . S
C2269 C2270 1.523 . S
C2270 C2251 1.368 . S
C2270 C2264 1.368 . S
C2270 C2269 1.523 . S
C2271 C2255 1.429 . S
C2271 C2267 1.429 . S
C2271 C2272 1.523 . S
C2272 C2256 1.368 . S
C2272 C2268 1.368 . S
C2272 C2271 1.523 . S
H2273 C2248 0.950 . S
H2274 C2250 0.950 . S
H2275 C2251 0.949 . S
H2276 C2253 0.950 . S
H2277 C2255 0.950 . S
C2278 C2279 1.349 . S
C2278 C2280 1.327 . S
C2278 H2303 0.950 . S
C2279 C2278 1.349 . S
C2279 C2295 1.349 . S
C2280 C2278 1.327 . S
C2280 C2299 1.429 . S
C2280 H2304 0.950 . S
C2281 C2298 1.574 . S
C2281 C2300 1.368 . S
C2281 H2305 0.949 . S
H2282 C2286 0.949 . S
C2283 C2284 1.349 . S
C2283 C2285 1.327 . S
C2283 H2306 0.950 . S
C2284 C2283 1.349 . S
C2284 C2296 1.349 . S
C2285 C2283 1.327 . S
C2285 C2301 1.429 . S
C2285 H2307 0.950 . S
C2286 H2282 0.949 . S
C2286 C2294 1.574 . S
C2286 C2302 1.368 . S
H2287 C2295 0.950 . S
H2288 C2293 0.950 . S
H2289 C2294 0.949 . S
H2290 C2296 0.950 . S
H2291 C2297 0.950 . S
H2292 C2298 0.949 . S
C2293 H2288 0.950 . S
C2293 C2295 1.327 . S
C2293 C2299 1.429 . S
C2294 C2286 1.574 . S
C2294 H2289 0.949 . S
C2294 C2300 1.368 . S
C2295 C2279 1.349 . S
C2295 H2287 0.950 . S
C2295 C2293 1.327 . S
C2296 C2284 1.349 . S
C2296 H2290 0.950 . S
C2296 C2297 1.327 . S
C2297 H2291 0.950 . S
C2297 C2296 1.327 . S
C2297 C2301 1.429 . S
C2298 C2281 1.574 . S
C2298 H2292 0.949 . S
C2298 C2302 1.368 . S
C2299 C2280 1.429 . S
C2299 C2293 1.429 . S
C2299 C2300 1.523 . S
C2300 C2281 1.368 . S
C2300 C2294 1.368 . S
C2300 C2299 1.523 . S
C2301 C2285 1.429 . S
C2301 C2297 1.429 . S
C2301 C2302 1.523 . S
C2302 C2286 1.368 . S
C2302 C2298 1.368 . S
C2302 C2301 1.523 . S
H2303 C2278 0.950 . S
H2304 C2280 0.950 . S
H2305 C2281 0.949 . S
H2306 C2283 0.950 . S
H2307 C2285 0.950 . S
C2308 C2309 1.349 . S
C2308 C2310 1.327 . S
C2308 H2333 0.950 . S
C2309 C2308 1.349 . S
C2309 C2325 1.349 . S
C2310 C2308 1.327 . S
C2310 C2329 1.429 . S
C2310 H2334 0.950 . S
C2311 C2328 1.574 . S
C2311 C2330 1.368 . S
C2311 H2335 0.949 . S
H2312 C2316 0.949 . S
C2313 C2314 1.349 . S
C2313 C2315 1.327 . S
C2313 H2336 0.950 . S
C2314 C2313 1.349 . S
C2314 C2326 1.349 . S
C2315 C2313 1.327 . S
C2315 C2331 1.429 . S
C2315 H2337 0.950 . S
C2316 H2312 0.949 . S
C2316 C2324 1.574 . S
C2316 C2332 1.368 . S
H2317 C2325 0.950 . S
H2318 C2323 0.950 . S
H2319 C2324 0.949 . S
H2320 C2326 0.950 . S
H2321 C2327 0.950 . S
H2322 C2328 0.949 . S
C2323 H2318 0.950 . S
C2323 C2325 1.327 . S
C2323 C2329 1.429 . S
C2324 C2316 1.574 . S
C2324 H2319 0.949 . S
C2324 C2330 1.368 . S
C2325 C2309 1.349 . S
C2325 H2317 0.950 . S
C2325 C2323 1.327 . S
C2326 C2314 1.349 . S
C2326 H2320 0.950 . S
C2326 C2327 1.327 . S
C2327 H2321 0.950 . S
C2327 C2326 1.327 . S
C2327 C2331 1.429 . S
C2328 C2311 1.574 . S
C2328 H2322 0.949 . S
C2328 C2332 1.368 . S
C2329 C2310 1.429 . S
C2329 C2323 1.429 . S
C2329 C2330 1.523 . S
C2330 C2311 1.368 . S
C2330 C2324 1.368 . S
C2330 C2329 1.523 . S
C2331 C2315 1.429 . S
C2331 C2327 1.429 . S
C2331 C2332 1.523 . S
C2332 C2316 1.368 . S
C2332 C2328 1.368 . S
C2332 C2331 1.523 . S
H2333 C2308 0.950 . S
H2334 C2310 0.950 . S
H2335 C2311 0.949 . S
H2336 C2313 0.950 . S
H2337 C2315 0.950 . S
C2338 C2339 1.349 . S
C2338 C2340 1.327 . S
C2338 H2363 0.950 . S
C2339 C2338 1.349 . S
C2339 C2355 1.349 . S
C2340 C2338 1.327 . S
C2340 C2359 1.429 . S
C2340 H2364 0.950 . S
C2341 C2358 1.574 . S
C2341 C2360 1.368 . S
C2341 H2365 0.949 . S
H2342 C2346 0.949 . S
C2343 C2344 1.349 . S
C2343 C2345 1.327 . S
C2343 H2366 0.950 . S
C2344 C2343 1.349 . S
C2344 C2356 1.349 . S
C2345 C2343 1.327 . S
C2345 C2361 1.429 . S
C2345 H2367 0.950 . S
C2346 H2342 0.949 . S
C2346 C2354 1.574 . S
C2346 C2362 1.368 . S
H2347 C2355 0.950 . S
H2348 C2353 0.950 . S
H2349 C2354 0.949 . S
H2350 C2356 0.950 . S
H2351 C2357 0.950 . S
H2352 C2358 0.949 . S
C2353 H2348 0.950 . S
C2353 C2355 1.327 . S
C2353 C2359 1.429 . S
C2354 C2346 1.574 . S
C2354 H2349 0.949 . S
C2354 C2360 1.368 . S
C2355 C2339 1.349 . S
C2355 H2347 0.950 . S
C2355 C2353 1.327 . S
C2356 C2344 1.349 . S
C2356 H2350 0.950 . S
C2356 C2357 1.327 . S
C2357 H2351 0.950 . S
C2357 C2356 1.327 . S
C2357 C2361 1.429 . S
C2358 C2341 1.574 . S
C2358 H2352 0.949 . S
C2358 C2362 1.368 . S
C2359 C2340 1.429 . S
C2359 C2353 1.429 . S
C2359 C2360 1.523 . S
C2360 C2341 1.368 . S
C2360 C2354 1.368 . S
C2360 C2359 1.523 . S
C2361 C2345 1.429 . S
C2361 C2357 1.429 . S
C2361 C2362 1.523 . S
C2362 C2346 1.368 . S
C2362 C2358 1.368 . S
C2362 C2361 1.523 . S
H2363 C2338 0.950 . S
H2364 C2340 0.950 . S
H2365 C2341 0.949 . S
H2366 C2343 0.950 . S
H2367 C2345 0.950 . S
C449 C117 1.212 . S
C454 C5 1.212 . S
C479 C355 1.212 . S
C484 C19 1.212 . S
C509 C145 1.212 . S
C514 C33 1.212 . S
C539 C383 1.212 . S
C544 C47 1.212 . S
C569 C173 1.212 . S
C574 C61 1.212 . S
C599 C75 1.212 . S
C604 C411 1.212 . S
C629 C89 1.212 . S
C634 C201 1.212 . S
C659 C103 1.212 . S
C664 C439 1.212 . S
C689 C243 1.212 . S
C694 C131 1.212 . S
C719 C271 1.212 . S
C724 C159 1.212 . S
C749 C187 1.212 . S
C754 C299 1.212 . S
C779 C215 1.212 . S
C784 C327 1.212 . S
C809 C229 1.212 . S
C814 C341 1.212 . S
C839 C369 1.212 . S
C844 C257 1.212 . S
C869 C285 1.212 . S
C874 C397 1.212 . S
C899 C425 1.212 . S
C904 C313 1.212 . S
C929 C256 1.204 . S
C934 C4 1.204 . S
C959 C270 1.203 . S
C964 C18 1.203 . S
C989 C32 1.204 . S
C994 C228 1.204 . S
C1019 C46 1.204 . S
C1024 C242 1.204 . S
C1049 C312 1.204 . S
C1054 C60 1.204 . S
C1079 C74 1.203 . S
C1084 C326 1.203 . S
C1109 C284 1.204 . S
C1114 C88 1.204 . S
C1139 C298 1.204 . S
C1144 C102 1.204 . S
C1169 C116 1.204 . S
C1174 C368 1.204 . S
C1199 C382 1.203 . S
C1204 C130 1.203 . S
C1229 C144 1.204 . S
C1234 C340 1.204 . S
C1259 C158 1.204 . S
C1264 C354 1.204 . S
C1289 C172 1.204 . S
C1294 C424 1.204 . S
C1319 C186 1.203 . S
C1324 C438 1.203 . S
C1349 C396 1.204 . S
C1354 C200 1.204 . S
C1379 C410 1.204 . S
C1384 C214 1.204 . S
C1409 C95 1.331 . S
C1414 C11 1.331 . S
C1439 C109 1.331 . S
C1444 C25 1.331 . S
C1469 C67 1.331 . S
C1474 C39 1.331 . S
C1499 C53 1.331 . S
C1504 C81 1.331 . S
C1529 C207 1.331 . S
C1534 C123 1.331 . S
C1559 C221 1.331 . S
C1564 C137 1.331 . S
C1589 C179 1.331 . S
C1594 C151 1.331 . S
C1619 C193 1.331 . S
C1624 C165 1.331 . S
C1649 C319 1.331 . S
C1654 C235 1.331 . S
C1679 C333 1.331 . S
C1684 C249 1.331 . S
C1709 C263 1.331 . S
C1714 C291 1.331 . S
C1739 C277 1.331 . S
C1744 C305 1.331 . S
C1769 C431 1.331 . S
C1774 C347 1.331 . S
C1799 C445 1.331 . S
C1804 C361 1.331 . S
C1829 C375 1.331 . S
C1834 C403 1.331 . S
C1859 C389 1.331 . S
C1864 C417 1.331 . S
C1889 C12 1.515 . S
C1894 C306 1.515 . S
C1919 C320 1.515 . S
C1924 C26 1.515 . S
C1949 C334 1.515 . S
C1954 C40 1.515 . S
C1979 C54 1.515 . S
C1984 C292 1.515 . S
C2009 C278 1.515 . S
C2014 C68 1.515 . S
C2039 C82 1.515 . S
C2044 C236 1.515 . S
C2069 C250 1.515 . S
C2074 C96 1.515 . S
C2099 C110 1.515 . S
C2104 C264 1.515 . S
C2129 C418 1.515 . S
C2134 C124 1.515 . S
C2159 C432 1.515 . S
C2164 C138 1.515 . S
C2189 C152 1.515 . S
C2194 C446 1.515 . S
C2219 C404 1.515 . S
C2224 C166 1.515 . S
C2249 C390 1.515 . S
C2254 C180 1.515 . S
C2279 C194 1.515 . S
C2284 C348 1.515 . S
C2309 C362 1.515 . S
C2314 C208 1.515 . S
C2339 C222 1.515 . S
C2344 C376 1.515 . S
