# Generated by pormake.
# Topology snp, (6)-cn, num edge types: 1
# Building blocks:
#     Node 0, Type 0, BuildingBlock: VOLQOD_clean_sbu_1, # of connection points: 6
#     Node 1, Type 0, BuildingBlock: VOLQOD_clean_sbu_1, # of connection points: 6
#     Node 2, Type 0, BuildingBlock: VOLQOD_clean_sbu_1, # of connection points: 6
#     Node 3, Type 0, BuildingBlock: VOLQOD_clean_sbu_1, # of connection points: 6
#     Edge 4, Type (0, 0), BuildingBlock: FUNLAD_clean_linker_1, # of connection points: 2
#     Edge 5, Type (0, 0), BuildingBlock: FUNLAD_clean_linker_1, # of connection points: 2
#     Edge 6, Type (0, 0), BuildingBlock: FUNLAD_clean_linker_1, # of connection points: 2
#     Edge 7, Type (0, 0), BuildingBlock: FUNLAD_clean_linker_1, # of connection points: 2
#     Edge 8, Type (0, 0), BuildingBlock: FUNLAD_clean_linker_1, # of connection points: 2
#     Edge 9, Type (0, 0), BuildingBlock: FUNLAD_clean_linker_1, # of connection points: 2
#     Edge 10, Type (0, 0), BuildingBlock: FUNLAD_clean_linker_1, # of connection points: 2
#     Edge 11, Type (0, 0), BuildingBlock: FUNLAD_clean_linker_1, # of connection points: 2
#     Edge 12, Type (0, 0), BuildingBlock: FUNLAD_clean_linker_1, # of connection points: 2
#     Edge 13, Type (0, 0), BuildingBlock: FUNLAD_clean_linker_1, # of connection points: 2
#     Edge 14, Type (0, 0), BuildingBlock: FUNLAD_clean_linker_1, # of connection points: 2
#     Edge 15, Type (0, 0), BuildingBlock: FUNLAD_clean_linker_1, # of connection points: 2
# Relax obj value: 0.790
# Max RMSD: 0.301
# Mean RMSD: 0.301
data_MOF--net-snp--node1-VOLQOD_clean_sbu_1--edge1-FUNLAD_clean_linker_1
_symmetry_space_group_name_H-M    P1
_symmetry_Int_Tables_number       1
_symmetry_cell_setting            triclinic
loop_
_symmetry_equiv_pos_as_xyz
'x, y, z'
_cell_length_a     30.262086
_cell_length_b     30.152936
_cell_length_c     25.463692
_cell_angle_alpha  89.499712
_cell_angle_beta   90.128959
_cell_angle_gamma 101.15165
loop_
_atom_site_label
_atom_site_type_symbol
_atom_site_fract_x
_atom_site_fract_y
_atom_site_fract_z
_atom_type_partial_charge
O0 O 0.16545 0.02851 0.07177 0.0
Zn1 Zn 0.22878 0.03059 0.0537 0.0
O2 O 0.25716 0.09344 0.04266 0.0
Zn3 Zn 0.27769 0.10127 0.97005 0.0
Zn4 Zn 0.21518 0.13386 0.05607 0.0
Zn5 Zn 0.30749 0.10639 0.09152 0.0
O6 O 0.34537 0.11315 0.96741 0.0
O7 O 0.36473 0.1087 0.05155 0.0
O8 O 0.22825 0.99211 0.98906 0.0
O9 O 0.25699 0.04394 0.92958 0.0
O10 O 0.25122 0.14915 0.93148 0.0
O11 O 0.20298 0.16669 0.98984 0.0
O12 O 0.24173 0.18094 0.10872 0.0
O13 O 0.2513 0.0029 0.11768 0.0
O14 O 0.30936 0.16607 0.12692 0.0
O15 O 0.30218 0.05894 0.1501 0.0
C16 C 0.14075 0.05635 0.08381 0.0
C17 C 0.37498 0.1128 1.00295 0.0
C18 C 0.22026 0.17036 0.94412 0.0
C19 C 0.23909 0.00349 0.94183 0.0
C20 C 0.27983 0.19062 0.13168 0.0
C21 C 0.27836 0.01929 0.154 0.0
O22 O 0.15498 0.09896 0.08181 0.0
O23 O 0.07536 0.15924 0.42199 0.0
Zn24 Zn 0.02726 0.19121 0.4457 0.0
O25 O 0.05436 0.25294 0.45931 0.0
Zn26 Zn 0.02879 0.27068 0.5238 0.0
Zn27 Zn 0.11923 0.26015 0.46721 0.0
Zn28 Zn 0.04259 0.28773 0.39848 0.0
O29 O 0.00494 0.32788 0.50952 0.0
O30 O 0.0078 0.33363 0.42194 0.0
O31 O -0.00623 0.16102 0.50863 0.0
O32 O 0.97959 0.22063 0.55161 0.0
O33 O 0.07534 0.27835 0.58253 0.0
O34 O 0.137 0.26533 0.54304 0.0
O35 O 0.15233 0.3133 0.42627 0.0
O36 O 0.98369 0.18525 0.38613 0.0
O37 O 0.10054 0.32143 0.36698 0.0
O38 O 0.00785 0.24895 0.34169 0.0
C39 C 0.11817 0.16926 0.41992 0.0
C40 C -0.00288 0.34716 0.4665 0.0
C41 C 0.11614 0.27304 0.58425 0.0
C42 C 0.97367 0.17799 0.54502 0.0
C43 C 0.14081 0.33092 0.38402 0.0
C44 C 0.98368 0.20949 0.34515 0.0
O45 O 0.14027 0.20626 0.43765 0.0
O46 O 0.85015 0.89962 0.94739 0.0
Zn47 Zn 0.82031 0.95311 0.94794 0.0
O48 O 0.75936 0.93208 0.97317 0.0
Zn49 Zn 0.71779 0.93836 0.91788 0.0
Zn50 Zn 0.7538 0.86899 0.99456 0.0
Zn51 Zn 0.74914 0.96291 0.03571 0.0
O52 O 0.66783 0.96605 0.94744 0.0
O53 O 0.69121 0.98511 0.02891 0.0
O54 O 0.82153 0.9814 0.87632 0.0
O55 O 0.74918 0.97977 0.8594 0.0
O56 O 0.69568 0.87649 0.88648 0.0
O57 O 0.72885 0.82958 0.93415 0.0
O58 O 0.721 0.85329 0.06348 0.0
O59 O 0.85404 0.00076 0.99613 0.0
O60 O 0.74704 0.9207 0.09755 0.0
O61 O 0.80039 0.01411 0.04986 0.0
C62 C 0.85242 0.88025 0.99152 0.0
C63 C 0.66274 0.98387 0.99178 0.0
C64 C 0.70509 0.83753 0.89491 0.0
C65 C 0.7907 0.99177 0.84729 0.0
C66 C 0.73236 0.87841 0.10317 0.0
C67 C 0.8408 0.02307 0.03315 0.0
O68 O 0.81619 0.86282 0.01488 0.0
O69 O 0.03161 0.90141 0.55977 0.0
Zn70 Zn 0.05005 0.84327 0.54662 0.0
O71 O -0.00462 0.79873 0.53356 0.0
Zn72 Zn 0.99044 0.75554 0.59173 0.0
Zn73 Zn 0.94118 0.8256 0.53212 0.0
Zn74 Zn 0.00096 0.77068 0.46552 0.0
O75 O -0.00068 0.69659 0.56423 0.0
O76 O 0.00151 0.70417 0.47689 0.0
O77 O 0.08244 0.83246 0.61293 0.0
O78 O 0.03571 0.775 0.64963 0.0
O79 O 0.92926 0.7457 0.62544 0.0
O80 O 0.89488 0.79431 0.58342 0.0
O81 O 0.91096 0.81966 0.46133 0.0
O82 O 0.09317 0.85202 0.48488 0.0
O83 O 0.95031 0.77822 0.41579 0.0
O84 O 0.05789 0.80162 0.42817 0.0
C85 C -0.00473 0.91649 0.56075 0.0
C86 C 0.00172 0.68042 0.51864 0.0
C87 C 0.89479 0.76313 0.61746 0.0
C88 C 0.07103 0.80563 0.65148 0.0
C89 C 0.91775 0.79918 0.4195 0.0
C90 C 0.0909 0.83295 0.44023 0.0
O91 O 0.95722 0.89205 0.54967 0.0
H92 H 0.87951 0.90751 0.06655 0.0
C93 C 0.88902 0.90074 0.02667 0.0
H94 H 0.938 0.91433 0.96782 0.0
H95 H 0.02895 0.11011 0.02183 0.0
H96 H 0.00081 0.11721 0.93348 0.0
H97 H 0.95099 0.05281 0.89139 0.0
H98 H 0.92905 0.98148 0.93702 0.0
C99 C 0.92941 0.92062 0.00816 0.0
C100 C 0.95694 0.95984 0.03576 0.0
C101 C 0.96797 0.00203 0.00865 0.0
C102 C -0.00352 0.03926 0.03275 0.0
C103 C 0.008 0.08064 0.00478 0.0
C104 C -0.0083 0.08529 0.95427 0.0
C105 C 0.96364 0.04909 0.93062 0.0
C106 C 0.95164 0.00801 0.95728 0.0
H107 H 0.08557 -1e-05 0.09526 0.0
C108 C 0.09373 0.03678 0.09522 0.0
H109 H 0.06767 0.09667 0.09216 0.0
H110 H 0.94411 0.88419 0.10029 0.0
H111 H 0.96596 0.88173 0.19169 0.0
H112 H 0.00831 0.94981 0.23518 0.0
H113 H 0.0298 0.02077 0.18619 0.0
C114 C 0.06019 0.06005 0.09501 0.0
C115 C 0.01435 0.03403 0.08317 0.0
C116 C -0.00236 0.99468 0.11312 0.0
C117 C 0.97095 0.9565 0.08878 0.0
C118 C 0.96121 0.91539 0.11766 0.0
C119 C 0.97429 0.91329 0.17005 0.0
C120 C -0.00165 0.95152 0.19447 0.0
C121 C 0.01041 0.99179 0.16625 0.0
H122 H 0.02772 0.97985 0.59275 0.0
C123 C 0.00025 0.96522 0.56675 0.0
H124 H 0.96598 0.97442 0.49747 0.0
H125 H 0.14247 0.14856 0.53047 0.0
H126 H 0.10395 0.1693 0.60651 0.0
H127 H 0.03135 0.12349 0.635 0.0
H128 H -0.00268 0.05612 0.58759 0.0
C129 C -0.00737 0.98916 0.52438 0.0
C130 C 0.03203 0.02084 0.50207 0.0
C131 C 0.05119 0.06068 0.52937 0.0
C132 C 0.09266 0.08736 0.51217 0.0
C133 C 0.11114 0.12667 0.54109 0.0
C134 C 0.08929 0.13919 0.58507 0.0
C135 C 0.04854 0.11333 0.60126 0.0
C136 C 0.02947 0.07465 0.57378 0.0
H137 H 0.12465 0.11629 0.36997 0.0
C138 C 0.14198 0.13388 0.40345 0.0
H139 H 0.17888 0.12265 0.46865 0.0
H140 H 0.00731 0.9433 0.44336 0.0
H141 H 0.04546 0.92251 0.36701 0.0
H142 H 0.11419 0.97204 0.33319 0.0
H143 H 0.14535 0.04228 0.37663 0.0
C144 C 0.1523 0.10734 0.44211 0.0
C145 C 0.11379 0.07511 0.46597 0.0
C146 C 0.09443 0.0353 0.4386 0.0
C147 C 0.05402 0.00764 0.45716 0.0
C148 C 0.03714 0.96659 0.43062 0.0
C149 C 0.05883 0.95401 0.38657 0.0
C150 C 0.0975 0.98181 0.36758 0.0
C151 C 0.11511 0.02204 0.39301 0.0
H152 H 0.61733 0.01458 0.04083 0.0
C153 C 0.62335 0.00441 1.001 0.0
H154 H 0.60222 0.00452 0.92166 0.0
H155 H 0.42299 0.0264 0.06391 0.0
H156 H 0.4195 0.94776 0.08699 0.0
H157 H 0.47848 0.90741 0.05761 0.0
H158 H 0.54134 0.94571 0.00506 0.0
C159 C 0.59578 0.01224 0.9622 0.0
C160 C 0.55756 0.03465 0.97398 0.0
C161 C 0.52076 0.01152 0.00403 0.0
C162 C 0.48663 0.03462 0.02037 0.0
C163 C 0.45016 0.01072 0.05053 0.0
C164 C 0.44761 0.96543 0.06398 0.0
C165 C 0.48081 0.94274 0.04749 0.0
C166 C 0.51692 0.96526 0.01768 0.0
H167 H 0.42666 0.10536 0.94484 0.0
C168 C 0.42075 0.1096 0.98646 0.0
H169 H 0.44587 0.10575 0.06338 0.0
H170 H 0.62233 0.08754 0.91376 0.0
H171 H 0.62519 0.16599 0.8889 0.0
H172 H 0.56604 0.20637 0.91775 0.0
H173 H 0.50363 0.1685 0.97162 0.0
C174 C 0.45209 0.1033 0.02158 0.0
C175 C 0.48902 0.08051 0.00564 0.0
C176 C 0.52514 0.10326 0.97432 0.0
C177 C 0.55939 0.08013 0.95815 0.0
C178 C 0.5954 0.10357 0.92717 0.0
C179 C 0.59745 0.14859 0.91265 0.0
C180 C 0.56412 0.17131 0.92884 0.0
C181 C 0.52837 0.14913 0.9595 0.0
H182 H 0.97035 0.40236 0.42968 0.0
C183 C 0.98063 0.38974 0.46704 0.0
H184 H 0.00091 0.40682 0.54477 0.0
H185 H 0.07789 0.60606 0.46404 0.0
H186 H 0.14671 0.57689 0.47546 0.0
H187 H 0.1438 0.49664 0.49814 0.0
H188 H 0.07224 0.4452 0.50951 0.0
C189 C 0.98713 0.41738 0.50832 0.0
C190 C 0.98819 0.46614 0.49952 0.0
C191 C 0.03047 0.49576 0.49402 0.0
C192 C 0.03222 0.54197 0.48148 0.0
C193 C 0.07476 0.57077 0.47472 0.0
C194 C 0.11449 0.55441 0.48082 0.0
C195 C 0.11285 0.50924 0.49352 0.0
C196 C 0.07147 0.48007 0.49998 0.0
H197 H 0.01161 0.61585 0.55175 0.0
C198 C 0.00388 0.63246 0.51568 0.0
H199 H 0.98286 0.62265 0.43655 0.0
H200 H 0.90201 0.41798 0.50736 0.0
H201 H 0.83325 0.44709 0.49435 0.0
H202 H 0.83636 0.52753 0.47246 0.0
H203 H 0.90821 0.57933 0.46327 0.0
C204 C -0.00649 0.60785 0.47234 0.0
C205 C -0.00823 0.55852 0.47561 0.0
C206 C 0.94954 0.52872 0.47968 0.0
C207 C 0.94774 0.48238 0.49196 0.0
C208 C 0.90519 0.45339 0.49728 0.0
C209 C 0.86552 0.46971 0.49016 0.0
C210 C 0.86727 0.51502 0.4779 0.0
C211 C 0.9087 0.54438 0.47281 0.0
H212 H 0.16526 0.35488 0.30681 0.0
C213 C 0.17608 0.35302 0.34742 0.0
H214 H 0.23078 0.35236 0.39778 0.0
H215 H 0.25413 0.18993 0.2547 0.0
H216 H 0.24481 0.15658 0.34132 0.0
H217 H 0.23768 0.2031 0.41877 0.0
H218 H 0.23869 0.28307 0.40954 0.0
C219 C 0.21971 0.3529 0.35726 0.0
C220 C 0.24448 0.33188 0.31705 0.0
C221 C 0.24788 0.28588 0.32402 0.0
C222 C 0.25388 0.25944 0.27964 0.0
C223 C 0.25179 0.21236 0.28691 0.0
C224 C 0.24611 0.19251 0.33662 0.0
C225 C 0.24192 0.21866 0.38016 0.0
C226 C 0.2424 0.26467 0.37417 0.0
H227 H 0.31943 0.23309 0.1921 0.0
C228 C 0.28844 0.22811 0.16934 0.0
H229 H 0.22539 0.24721 0.15888 0.0
H230 H 0.25039 0.42097 0.29387 0.0
H231 H 0.26511 0.45656 0.20759 0.0
H232 H 0.27805 0.41147 0.13062 0.0
H233 H 0.27626 0.33065 0.13925 0.0
C234 C 0.25637 0.25137 0.18154 0.0
C235 C 0.25929 0.27996 0.22902 0.0
C236 C 0.2616 0.32711 0.22339 0.0
C237 C 0.25417 0.35312 0.26757 0.0
C238 C 0.25545 0.39993 0.26103 0.0
C239 C 0.26403 0.42063 0.21197 0.0
C240 C 0.27133 0.39523 0.16863 0.0
C241 C 0.27011 0.34894 0.17402 0.0
H242 H 0.94372 0.11088 0.57729 0.0
C243 C 0.9451 0.14692 0.58186 0.0
H244 H 0.92507 0.19745 0.62778 0.0
H245 H 0.80022 -0.0037 0.70097 0.0
H246 H 0.77114 0.99063 0.61211 0.0
H247 H 0.79896 0.04996 0.54634 0.0
H248 H 0.85674 0.11453 0.56895 0.0
C249 C 0.92302 0.16144 0.62202 0.0
C250 C 0.90051 0.1295 0.66334 0.0
C251 C 0.86462 0.09348 0.65043 0.0
C252 C 0.84664 0.06064 0.68924 0.0
C253 C 0.81353 0.02317 0.67394 0.0
C254 C 0.79677 0.0194 0.62286 0.0
C255 C 0.81254 0.05269 0.5858 0.0
C256 C 0.84601 0.0894 0.59921 0.0
H257 H 0.7781 0.03643 0.78154 0.0
C258 C 0.8036 0.02091 0.80047 0.0
H259 H 0.87192 0.01532 0.80256 0.0
H260 H 0.96866 0.19468 0.70193 0.0
H261 H -0.00658 0.20346 0.79231 0.0
H262 H 0.9576 0.15051 0.86106 0.0
H263 H 0.89721 0.08804 0.83962 0.0
C264 C 0.84639 0.03028 0.78282 0.0
C265 C 0.86253 0.06546 0.74182 0.0
C266 C 0.8966 0.10304 0.75526 0.0
C267 C 0.91612 0.13458 0.71593 0.0
C268 C 0.95164 0.17039 0.73028 0.0
C269 C 0.96635 0.17582 0.7821 0.0
C270 C 0.94634 0.14589 0.82076 0.0
C271 C 0.91187 0.10996 0.80778 0.0
H272 H 0.90445 0.80001 0.33434 0.0
C273 C 0.8897 0.80296 0.37272 0.0
H274 H 0.83343 0.81453 0.41495 0.0
H275 H 0.75878 0.93541 0.24812 0.0
H276 H 0.76987 0.98295 0.32512 0.0
H277 H 0.80628 0.95926 0.4045 0.0
H278 H 0.83122 0.88789 0.40771 0.0
C279 C 0.84796 0.81206 0.37635 0.0
C280 C 0.82307 0.82455 0.3293 0.0
C281 C 0.80909 0.86689 0.328 0.0
C282 C 0.78939 0.88128 0.28162 0.0
C283 C 0.77502 0.92333 0.28179 0.0
C284 C 0.78098 0.95091 0.32581 0.0
C285 C 0.80137 0.93752 0.37052 0.0
C286 C 0.8154 0.89618 0.37182 0.0
H287 H 0.71601 0.82531 0.16518 0.0
C288 C 0.73769 0.85726 0.1548 0.0
H289 H 0.79521 0.90605 0.17355 0.0
H290 H 0.83411 0.73675 0.32283 0.0
H291 H 0.82686 0.69075 0.24443 0.0
H292 H 0.80355 0.72023 0.16025 0.0
H293 H 0.78565 0.79482 0.15442 0.0
C294 C 0.77326 0.87457 0.1853 0.0
C295 C 0.78505 0.85427 0.23586 0.0
C296 C 0.79793 0.81137 0.23753 0.0
C297 C 0.81497 0.79573 0.28504 0.0
C298 C 0.82389 0.75136 0.28693 0.0
C299 C 0.81945 0.72444 0.24236 0.0
C300 C 0.80608 0.74094 0.19506 0.0
C301 C 0.79549 0.78385 0.1924 0.0
H302 H 0.08485 0.79082 0.73451 0.0
C303 C 0.09561 0.81373 0.70178 0.0
H304 H 0.13706 0.87527 0.67784 0.0
H305 H 0.11753 0.93168 0.92182 0.0
H306 H 0.03893 0.92889 0.90087 0.0
H307 H 0.00727 0.89809 0.81646 0.0
H308 H 0.05382 0.86967 0.7528 0.0
C309 C 0.12599 0.85192 0.71005 0.0
C310 C 0.14346 0.86578 0.76334 0.0
C311 C 0.11547 0.88211 0.80031 0.0
C312 C 0.13389 0.90059 0.84866 0.0
C313 C 0.1054 0.91729 0.88452 0.0
C314 C 0.06016 0.91598 0.87298 0.0
C315 C 0.04233 0.89859 0.8255 0.0
C316 C 0.0695 0.88207 0.78936 0.0
H317 H 0.23694 0.98246 0.85922 0.0
C318 C 0.22723 0.97082 0.89886 0.0
H319 H 0.18876 0.91862 0.9447 0.0
H320 H 0.20536 0.835 0.70269 0.0
H321 H 0.28407 0.83742 0.72412 0.0
H322 H 0.31582 0.86913 0.80818 0.0
H323 H 0.26911 0.89883 0.87125 0.0
C324 C 0.2007 0.92998 0.90573 0.0
C325 C 0.18042 0.90378 0.85936 0.0
C326 C 0.20785 0.88567 0.82348 0.0
C327 C 0.18941 0.86692 0.77529 0.0
C328 C 0.21774 0.84974 0.73979 0.0
C329 C 0.2629 0.85079 0.75167 0.0
C330 C 0.28079 0.86868 0.79899 0.0
C331 C 0.25372 0.88586 0.83468 0.0
H332 H 0.67349 0.80989 0.82127 0.0
C333 C 0.69851 0.80579 0.8507 0.0
H334 H 0.7592 0.78323 0.86522 0.0
H335 H 0.78372 0.67453 0.66545 0.0
H336 H 0.75663 0.61126 0.72466 0.0
H337 H 0.72254 0.62358 0.80998 0.0
H338 H 0.71521 0.69913 0.83664 0.0
C339 C 0.73288 0.78602 0.83694 0.0
C340 C 0.74315 0.77746 0.78125 0.0
C341 C 0.74638 0.73316 0.76594 0.0
C342 C 0.7663 0.72606 0.71702 0.0
C343 C 0.76958 0.6816 0.70276 0.0
C344 C 0.75394 0.64511 0.73618 0.0
C345 C 0.73471 0.65205 0.78421 0.0
C346 C 0.73086 0.69551 0.79913 0.0
H347 H 0.86243 0.73879 0.69214 0.0
C348 C 0.85604 0.75074 0.65296 0.0
H349 H 0.80887 0.77087 0.60158 0.0
H350 H 0.74373 0.86856 0.79725 0.0
H351 H 0.76407 0.92879 0.73542 0.0
H352 H 0.79341 0.91521 0.6477 0.0
H353 H 0.80178 0.84021 0.62263 0.0
C354 C 0.81523 0.75919 0.64084 0.0
C355 C 0.78297 0.7633 0.68363 0.0
C356 C 0.77517 0.80682 0.69608 0.0
C357 C 0.75669 0.81436 0.74573 0.0
C358 C 0.75454 0.85942 0.75938 0.0
C359 C 0.76708 0.89504 0.72413 0.0
C360 C 0.78352 0.88735 0.67498 0.0
C361 C 0.78811 0.84395 0.66113 0.0
H362 H 0.30536 0.00285 0.23159 0.0
C363 C 0.27725 0.99433 0.20454 0.0
H364 H 0.21126 0.9579 0.1926 0.0
H365 H 0.18535 0.80595 0.35861 0.0
H366 H 0.19818 0.76345 0.28135 0.0
H367 H 0.22665 0.80278 0.19924 0.0
H368 H 0.24323 0.8848 0.19422 0.0
C369 C 0.23933 0.96587 0.21985 0.0
C370 C 0.2324 0.94316 0.27242 0.0
C371 C 0.22227 0.89527 0.27467 0.0
C372 C 0.20447 0.87256 0.32146 0.0
C373 C 0.19669 0.82475 0.32317 0.0
C374 C 0.20445 0.80001 0.27934 0.0
C375 C 0.22056 0.82215 0.23315 0.0
C376 C 0.22962 0.86921 0.23068 0.0
H377 H 0.11404 0.84323 0.35854 0.0
C378 C 0.12434 0.85024 0.39903 0.0
H379 H 0.17539 0.88221 0.44963 0.0
H380 H 0.2533 0.0355 0.2848 0.0
H381 H 0.25014 0.07646 0.36533 0.0
H382 H 0.2222 0.0366 0.44712 0.0
H383 H 0.19603 0.95567 0.44842 0.0
C384 C 0.16529 0.87549 0.40912 0.0
C385 C 0.19518 0.89776 0.36553 0.0
C386 C 0.21137 0.94525 0.36582 0.0
C387 C 0.2291 0.96817 0.31887 0.0
C388 C 0.24159 0.01592 0.31942 0.0
C389 C 0.2397 0.04005 0.36548 0.0
C390 C 0.22396 0.0176 0.41155 0.0
C391 C 0.20896 0.97095 0.41168 0.0
H392 H 0.17374 0.26594 0.63429 0.0
C393 C 0.1389 0.2703 0.63519 0.0
H394 H 0.08141 0.26815 0.68257 0.0
H395 H 0.14193 0.13126 0.84449 0.0
H396 H 0.07288 0.08744 0.80884 0.0
H397 H 0.03311 0.11747 0.73617 0.0
H398 H 0.06176 0.19167 0.69901 0.0
C399 C 0.11691 0.26637 0.68133 0.0
C400 C 0.13814 0.25086 0.72933 0.0
C401 C 0.1205 0.2075 0.75097 0.0
C402 C 0.14362 0.18996 0.79264 0.0
C403 C 0.12572 0.14627 0.8129 0.0
C404 C 0.08615 0.12068 0.79273 0.0
C405 C 0.06376 0.13761 0.75181 0.0
C406 C 0.0806 0.18038 0.73092 0.0
H407 H 0.17493 0.21507 0.91673 0.0
C408 C 0.2008 0.19693 0.90424 0.0
H409 H 0.23526 0.17674 0.83919 0.0
H410 H 0.17678 0.3379 0.70318 0.0
H411 H 0.24518 0.3822 0.74015 0.0
H412 H 0.28655 0.35067 0.81037 0.0
H413 H 0.25954 0.27474 0.84442 0.0
C414 C 0.21042 0.1956 0.85288 0.0
C415 C 0.18427 0.21576 0.81265 0.0
C416 C 0.20078 0.25981 0.79271 0.0
C417 C 0.17742 0.27762 0.75142 0.0
C418 C 0.19396 0.32225 0.73335 0.0
C419 C 0.23298 0.34814 0.7545 0.0
C420 C 0.25625 0.33041 0.79411 0.0
C421 C 0.24045 0.2868 0.81322 0.0
H422 H 0.90867 0.06428 0.0463 0.0
C423 C 0.87397 0.05792 0.0597 0.0
H424 H 0.82864 0.07221 0.11734 0.0
H425 H 0.98844 0.11264 0.28284 0.0
H426 H 0.96862 0.03139 0.29606 0.0
H427 H 0.91518 0.98396 0.23652 0.0
H428 H 0.88305 0.01722 0.16208 0.0
C429 C 0.86294 0.079 0.10248 0.0
C430 C 0.89767 0.10713 0.13539 0.0
C431 C 0.91569 0.0871 0.17891 0.0
C432 C 0.94456 0.11467 0.2147 0.0
C433 C 0.96425 0.09355 0.25618 0.0
C434 C 0.95352 0.0469 0.2639 0.0
C435 C 0.92358 0.02018 0.23028 0.0
C436 C 0.90522 0.03976 0.18782 0.0
H437 H 0.9269 0.16466 0.30768 0.0
C438 C 0.95787 0.18881 0.29985 0.0
H439 H 0.00723 0.21479 0.24318 0.0
H440 H 0.8738 0.15466 0.05168 0.0
H441 H 0.89466 0.23585 0.03747 0.0
H442 H 0.9423 0.28431 0.10153 0.0
H443 H 0.96958 0.25196 0.18003 0.0
C444 C 0.97549 0.19196 0.25128 0.0
C445 C 0.9531 0.16246 0.20847 0.0
C446 C 0.93794 0.18203 0.16269 0.0
C447 C 0.91023 0.15419 0.12592 0.0
C448 C 0.89483 0.17443 0.08086 0.0
C449 C 0.90657 0.22091 0.07226 0.0
C450 C 0.93341 0.2482 0.10833 0.0
C451 C 0.94885 0.2292 0.15322 0.0
loop_
_geom_bond_atom_site_label_1
_geom_bond_atom_site_label_2
_geom_bond_distance
_geom_bond_site_symmetry_2
_ccdc_geom_bond_type
O0 Zn1 1.952 . S
O0 C16 1.225 1_556 S
Zn1 O0 1.952 . S
Zn1 O2 1.947 1_556 S
Zn1 O8 1.920 1_545 S
Zn1 O13 1.926 1_546 S
O2 Zn1 1.947 1_554 S
O2 Zn3 1.923 1_554 S
O2 Zn4 1.950 . S
O2 Zn5 1.945 . S
Zn3 O2 1.923 1_556 S
Zn3 O6 1.933 . S
Zn3 O9 1.941 . S
Zn3 O10 1.965 . S
Zn4 O2 1.950 . S
Zn4 O11 1.938 1_554 S
Zn4 O12 1.906 . S
Zn4 O22 1.953 . S
Zn5 O2 1.945 . S
Zn5 O7 1.932 . S
Zn5 O14 1.977 . S
Zn5 O15 1.910 1_545 S
O6 Zn3 1.933 . S
O6 C17 1.226 1_556 S
O7 Zn5 1.932 . S
O7 C17 1.307 . S
O8 Zn1 1.920 1_565 S
O8 C19 1.253 . S
O9 Zn3 1.941 . S
O9 C19 1.283 1_545 S
O10 Zn3 1.965 . S
O10 C18 1.303 . S
O11 Zn4 1.938 1_556 S
O11 C18 1.247 . S
O12 Zn4 1.906 . S
O12 C20 1.304 . S
O13 Zn1 1.926 1_564 S
O13 C21 1.311 . S
O14 Zn5 1.977 . S
O14 C20 1.272 . S
O15 Zn5 1.910 1_565 S
O15 C21 1.231 . S
C16 O0 1.225 1_554 S
C16 O22 1.298 . S
C17 O6 1.226 1_554 S
C17 O7 1.307 . S
C18 O10 1.303 . S
C18 O11 1.247 . S
C19 O8 1.253 . S
C19 O9 1.283 1_565 S
C20 O12 1.304 . S
C20 O14 1.272 . S
C21 O13 1.311 . S
C21 O15 1.231 . S
O22 Zn4 1.953 . S
O22 C16 1.298 . S
O23 Zn24 1.952 . S
O23 C39 1.225 . S
Zn24 O23 1.952 . S
Zn24 O25 1.947 . S
Zn24 O31 1.920 1_455 S
Zn24 O36 1.926 1_455 S
O25 Zn24 1.947 . S
O25 Zn26 1.923 . S
O25 Zn27 1.950 . S
O25 Zn28 1.945 . S
Zn26 O25 1.923 . S
Zn26 O29 1.933 . S
Zn26 O32 1.941 . S
Zn26 O33 1.965 . S
Zn27 O25 1.950 . S
Zn27 O34 1.938 . S
Zn27 O35 1.906 . S
Zn27 O45 1.953 . S
Zn28 O25 1.945 . S
Zn28 O30 1.932 . S
Zn28 O37 1.977 . S
Zn28 O38 1.910 1_455 S
O29 Zn26 1.933 . S
O29 C40 1.226 . S
O30 Zn28 1.932 . S
O30 C40 1.307 . S
O31 Zn24 1.920 1_655 S
O31 C42 1.253 . S
O32 Zn26 1.941 . S
O32 C42 1.283 1_455 S
O33 Zn26 1.965 . S
O33 C41 1.303 . S
O34 Zn27 1.938 . S
O34 C41 1.247 . S
O35 Zn27 1.906 . S
O35 C43 1.304 . S
O36 Zn24 1.926 1_655 S
O36 C44 1.311 . S
O37 Zn28 1.977 . S
O37 C43 1.272 . S
O38 Zn28 1.910 1_655 S
O38 C44 1.231 . S
C39 O23 1.225 . S
C39 O45 1.298 . S
C40 O29 1.226 . S
C40 O30 1.307 . S
C41 O33 1.303 . S
C41 O34 1.247 . S
C42 O31 1.253 . S
C42 O32 1.283 1_655 S
C43 O35 1.304 . S
C43 O37 1.272 . S
C44 O36 1.311 . S
C44 O38 1.231 . S
O45 Zn27 1.953 . S
O45 C39 1.298 . S
O46 Zn47 1.953 . S
O46 C62 1.225 1_556 S
Zn47 O46 1.953 . S
Zn47 O48 1.947 1_556 S
Zn47 O54 1.919 . S
Zn47 O59 1.924 1_556 S
O48 Zn47 1.947 1_554 S
O48 Zn49 1.923 1_544 S
O48 Zn50 1.952 1_545 S
O48 Zn51 1.944 . S
Zn49 O48 1.923 1_566 S
Zn49 O52 1.933 . S
Zn49 O55 1.941 1_565 S
Zn49 O56 1.965 . S
Zn50 O48 1.952 1_565 S
Zn50 O57 1.938 1_554 S
Zn50 O58 1.906 . S
Zn50 O68 1.953 . S
Zn51 O48 1.944 . S
Zn51 O53 1.932 . S
Zn51 O60 1.977 1_545 S
Zn51 O61 1.910 . S
O52 Zn49 1.933 . S
O52 C63 1.226 1_556 S
O53 Zn51 1.932 . S
O53 C63 1.307 1_545 S
O54 Zn47 1.919 . S
O54 C65 1.253 . S
O55 Zn49 1.941 1_545 S
O55 C65 1.283 . S
O56 Zn49 1.965 . S
O56 C64 1.303 . S
O57 Zn50 1.938 1_556 S
O57 C64 1.247 . S
O58 Zn50 1.906 . S
O58 C66 1.304 . S
O59 Zn47 1.924 1_554 S
O59 C67 1.311 . S
O60 Zn51 1.977 1_565 S
O60 C66 1.272 . S
O61 Zn51 1.910 . S
O61 C67 1.231 . S
C62 O46 1.225 1_554 S
C62 O68 1.298 1_545 S
C63 O52 1.226 1_554 S
C63 O53 1.307 1_565 S
C64 O56 1.303 . S
C64 O57 1.247 . S
C65 O54 1.253 . S
C65 O55 1.283 . S
C66 O58 1.304 . S
C66 O60 1.272 . S
C67 O59 1.311 . S
C67 O61 1.231 . S
O68 Zn50 1.953 . S
O68 C62 1.298 1_565 S
O69 Zn70 1.953 . S
O69 C85 1.225 . S
Zn70 O69 1.953 . S
Zn70 O71 1.947 . S
Zn70 O77 1.919 . S
Zn70 O82 1.924 . S
O71 Zn70 1.947 . S
O71 Zn72 1.923 1_455 S
O71 Zn73 1.952 1_455 S
O71 Zn74 1.944 . S
Zn72 O71 1.923 1_655 S
Zn72 O75 1.933 . S
Zn72 O78 1.941 1_655 S
Zn72 O79 1.965 . S
Zn73 O71 1.952 1_655 S
Zn73 O80 1.938 . S
Zn73 O81 1.906 . S
Zn73 O91 1.953 . S
Zn74 O71 1.944 . S
Zn74 O76 1.932 . S
Zn74 O83 1.977 1_455 S
Zn74 O84 1.910 . S
O75 Zn72 1.933 . S
O75 C86 1.226 . S
O76 Zn74 1.932 . S
O76 C86 1.307 1_455 S
O77 Zn70 1.919 . S
O77 C88 1.253 . S
O78 Zn72 1.941 1_455 S
O78 C88 1.283 . S
O79 Zn72 1.965 . S
O79 C87 1.303 . S
O80 Zn73 1.938 . S
O80 C87 1.247 . S
O81 Zn73 1.906 . S
O81 C89 1.304 . S
O82 Zn70 1.924 . S
O82 C90 1.311 . S
O83 Zn74 1.977 1_655 S
O83 C89 1.272 . S
O84 Zn74 1.910 . S
O84 C90 1.231 . S
C85 O69 1.225 . S
C85 O91 1.298 1_455 S
C86 O75 1.226 . S
C86 O76 1.307 1_655 S
C87 O79 1.303 . S
C87 O80 1.247 . S
C88 O77 1.253 . S
C88 O78 1.283 . S
C89 O81 1.304 . S
C89 O83 1.272 . S
C90 O82 1.311 . S
C90 O84 1.231 . S
O91 Zn73 1.953 . S
O91 C85 1.298 1_655 S
H92 C93 0.951 . S
C93 H92 0.951 . S
C93 C99 1.265 1_544 S
H94 C99 0.950 . S
H95 C103 0.949 . S
H96 C104 0.950 . S
H97 C105 0.951 . S
H98 C106 0.951 . S
C99 C93 1.265 1_566 S
C99 H94 0.950 . S
C99 C100 1.478 1_565 S
C100 C99 1.478 1_545 S
C100 C101 1.398 1_655 S
C100 C117 1.393 1_556 S
C101 C100 1.398 1_455 S
C101 C102 1.438 . S
C101 C106 1.429 1_445 S
C102 C101 1.438 . S
C102 C103 1.428 . S
C102 C115 1.394 1_556 S
C103 H95 0.949 . S
C103 C102 1.428 . S
C103 C104 1.345 . S
C104 H96 0.950 . S
C104 C103 1.345 . S
C104 C105 1.424 1_545 S
C105 H97 0.951 . S
C105 C104 1.424 1_565 S
C105 C106 1.347 1_455 S
C106 H98 0.951 . S
C106 C101 1.429 1_665 S
C106 C105 1.347 1_655 S
H107 C108 0.951 1_556 S
C108 H107 0.951 1_554 S
C108 C114 1.265 . S
H109 C114 0.950 . S
H110 C118 0.949 . S
H111 C119 0.950 . S
H112 C120 0.951 . S
H113 C121 0.951 . S
C114 C108 1.265 . S
C114 H109 0.950 . S
C114 C115 1.478 . S
C115 C102 1.394 1_554 S
C115 C114 1.478 . S
C115 C116 1.397 . S
C116 C115 1.397 . S
C116 C117 1.438 1_455 S
C116 C121 1.429 . S
C117 C100 1.393 1_554 S
C117 C116 1.438 1_655 S
C117 C118 1.428 . S
C118 H110 0.949 . S
C118 C117 1.428 . S
C118 C119 1.345 . S
C119 H111 0.950 . S
C119 C118 1.345 . S
C119 C120 1.424 1_655 S
C120 H112 0.951 . S
C120 C119 1.424 1_455 S
C120 C121 1.347 . S
C121 H113 0.951 . S
C121 C116 1.429 . S
C121 C120 1.347 . S
H122 C123 0.951 . S
C123 H122 0.951 . S
C123 C129 1.265 1_455 S
H124 C129 0.950 . S
H125 C133 0.949 . S
H126 C134 0.950 . S
H127 C135 0.951 . S
H128 C136 0.951 . S
C129 C123 1.265 1_655 S
C129 H124 0.950 . S
C129 C130 1.478 1_655 S
C130 C129 1.478 1_455 S
C130 C131 1.397 1_565 S
C130 C147 1.394 . S
C131 C130 1.397 1_545 S
C131 C132 1.438 . S
C131 C136 1.429 1_445 S
C132 C131 1.438 . S
C132 C133 1.428 . S
C132 C145 1.394 . S
C133 H125 0.949 . S
C133 C132 1.428 . S
C133 C134 1.345 1_455 S
C134 H126 0.950 . S
C134 C133 1.345 1_655 S
C134 C135 1.424 . S
C135 H127 0.951 . S
C135 C134 1.424 . S
C135 C136 1.347 1_545 S
C136 H128 0.951 . S
C136 C131 1.429 1_665 S
C136 C135 1.347 1_565 S
H137 C138 0.951 . S
C138 H137 0.951 . S
C138 C144 1.265 . S
H139 C144 0.950 . S
H140 C148 0.949 . S
H141 C149 0.950 . S
H142 C150 0.951 . S
H143 C151 0.951 . S
C144 C138 1.265 . S
C144 H139 0.950 . S
C144 C145 1.478 . S
C145 C132 1.394 . S
C145 C144 1.478 . S
C145 C146 1.397 . S
C146 C145 1.397 . S
C146 C147 1.438 1_545 S
C146 C151 1.429 . S
C147 C130 1.394 . S
C147 C146 1.438 1_565 S
C147 C148 1.428 . S
C148 H140 0.949 . S
C148 C147 1.428 . S
C148 C149 1.345 . S
C149 H141 0.950 . S
C149 C148 1.345 . S
C149 C150 1.424 1_565 S
C150 H142 0.951 . S
C150 C149 1.424 1_545 S
C150 C151 1.347 . S
C151 H143 0.951 . S
C151 C146 1.429 . S
C151 C150 1.347 . S
H152 C153 0.951 . S
C153 H152 0.951 . S
C153 C159 1.265 1_545 S
H154 C159 0.949 1_556 S
H155 C163 0.949 . S
H156 C164 0.950 . S
H157 C165 0.951 . S
H158 C166 0.951 . S
C159 C153 1.265 1_565 S
C159 H154 0.949 1_554 S
C159 C160 1.478 1_565 S
C160 C159 1.478 1_545 S
C160 C161 1.397 1_545 S
C160 C177 1.394 1_554 S
C161 C160 1.397 1_565 S
C161 C162 1.438 1_565 S
C161 C166 1.429 . S
C162 C161 1.438 1_545 S
C162 C163 1.428 . S
C162 C175 1.394 . S
C163 H155 0.949 . S
C163 C162 1.428 . S
C163 C164 1.345 1_545 S
C164 H156 0.950 . S
C164 C163 1.345 1_565 S
C164 C165 1.424 . S
C165 H157 0.951 . S
C165 C164 1.424 . S
C165 C166 1.347 . S
C166 H158 0.951 . S
C166 C161 1.429 . S
C166 C165 1.347 . S
H167 C168 0.951 1_556 S
C168 H167 0.951 1_554 S
C168 C174 1.265 . S
H169 C174 0.950 . S
H170 C178 0.949 . S
H171 C179 0.950 . S
H172 C180 0.951 . S
H173 C181 0.951 . S
C174 C168 1.265 . S
C174 H169 0.950 . S
C174 C175 1.478 . S
C175 C162 1.394 . S
C175 C174 1.478 . S
C175 C176 1.397 1_554 S
C176 C175 1.397 1_556 S
C176 C177 1.438 . S
C176 C181 1.429 . S
C177 C160 1.394 1_556 S
C177 C176 1.438 . S
C177 C178 1.428 . S
C178 H170 0.949 . S
C178 C177 1.428 . S
C178 C179 1.345 . S
C179 H171 0.950 . S
C179 C178 1.345 . S
C179 C180 1.424 . S
C180 H172 0.951 . S
C180 C179 1.424 . S
C180 C181 1.347 . S
C181 H173 0.951 . S
C181 C176 1.429 . S
C181 C180 1.347 . S
H182 C183 0.951 . S
C183 H182 0.951 . S
C183 C189 1.265 . S
H184 C189 0.950 . S
H185 C193 0.949 . S
H186 C194 0.950 . S
H187 C195 0.951 . S
H188 C196 0.951 . S
C189 C183 1.265 . S
C189 H184 0.950 . S
C189 C190 1.478 . S
C190 C189 1.478 . S
C190 C191 1.397 . S
C190 C207 1.394 . S
C191 C190 1.397 . S
C191 C192 1.438 . S
C191 C196 1.429 . S
C192 C191 1.438 . S
C192 C193 1.428 . S
C192 C205 1.394 . S
C193 H185 0.949 . S
C193 C192 1.428 . S
C193 C194 1.345 . S
C194 H186 0.950 . S
C194 C193 1.345 . S
C194 C195 1.424 . S
C195 H187 0.951 . S
C195 C194 1.424 . S
C195 C196 1.347 . S
C196 H188 0.951 . S
C196 C191 1.429 . S
C196 C195 1.347 . S
H197 C198 0.951 . S
C198 H197 0.951 . S
C198 C204 1.265 1_455 S
H199 C204 0.950 . S
H200 C208 0.949 . S
H201 C209 0.950 . S
H202 C210 0.951 . S
H203 C211 0.951 . S
C204 C198 1.265 1_655 S
C204 H199 0.950 . S
C204 C205 1.478 1_655 S
C205 C192 1.394 . S
C205 C204 1.478 1_455 S
C205 C206 1.397 . S
C206 C205 1.397 . S
C206 C207 1.453 . S
C206 C211 1.414 1_455 S
C207 C190 1.394 . S
C207 C206 1.453 . S
C207 C208 1.428 . S
C208 H200 0.949 . S
C208 C207 1.428 . S
C208 C209 1.345 1_455 S
C209 H201 0.950 . S
C209 C208 1.345 1_655 S
C209 C210 1.424 . S
C210 H202 0.951 . S
C210 C209 1.424 . S
C210 C211 1.347 . S
C211 H203 0.951 . S
C211 C206 1.414 1_655 S
C211 C210 1.347 . S
H212 C213 0.951 . S
C213 H212 0.951 . S
C213 C219 1.265 . S
H214 C219 0.950 . S
H215 C223 0.949 . S
H216 C224 0.950 . S
H217 C225 0.951 . S
H218 C226 0.951 . S
C219 C213 1.265 . S
C219 H214 0.950 . S
C219 C220 1.478 . S
C220 C219 1.478 . S
C220 C221 1.397 . S
C220 C237 1.394 . S
C221 C220 1.397 . S
C221 C222 1.438 . S
C221 C226 1.429 . S
C222 C221 1.438 . S
C222 C223 1.428 . S
C222 C235 1.394 . S
C223 H215 0.949 . S
C223 C222 1.428 . S
C223 C224 1.345 . S
C224 H216 0.950 . S
C224 C223 1.345 . S
C224 C225 1.424 . S
C225 H217 0.951 . S
C225 C224 1.424 . S
C225 C226 1.347 . S
C226 H218 0.951 . S
C226 C221 1.429 . S
C226 C225 1.347 . S
H227 C228 0.951 . S
C228 H227 0.951 . S
C228 C234 1.265 . S
H229 C234 0.950 . S
H230 C238 0.949 . S
H231 C239 0.950 . S
H232 C240 0.951 . S
H233 C241 0.951 . S
C234 C228 1.265 . S
C234 H229 0.950 . S
C234 C235 1.478 . S
C235 C222 1.394 . S
C235 C234 1.478 . S
C235 C236 1.397 . S
C236 C235 1.397 . S
C236 C237 1.438 . S
C236 C241 1.429 . S
C237 C220 1.394 . S
C237 C236 1.438 . S
C237 C238 1.428 . S
C238 H230 0.949 . S
C238 C237 1.428 . S
C238 C239 1.345 . S
C239 H231 0.950 . S
C239 C238 1.345 . S
C239 C240 1.424 . S
C240 H232 0.951 . S
C240 C239 1.424 . S
C240 C241 1.347 . S
C241 H233 0.951 . S
C241 C236 1.429 . S
C241 C240 1.347 . S
H242 C243 0.951 . S
C243 H242 0.951 . S
C243 C249 1.265 . S
H244 C249 0.950 . S
H245 C253 0.949 . S
H246 C254 0.950 . S
H247 C255 0.951 . S
H248 C256 0.951 . S
C249 C243 1.265 . S
C249 H244 0.950 . S
C249 C250 1.478 . S
C250 C249 1.478 . S
C250 C251 1.397 . S
C250 C267 1.394 . S
C251 C250 1.397 . S
C251 C252 1.438 . S
C251 C256 1.429 . S
C252 C251 1.438 . S
C252 C253 1.428 . S
C252 C265 1.394 . S
C253 H245 0.949 . S
C253 C252 1.428 . S
C253 C254 1.345 . S
C254 H246 0.950 . S
C254 C253 1.345 . S
C254 C255 1.424 . S
C255 H247 0.951 . S
C255 C254 1.424 . S
C255 C256 1.347 . S
C256 H248 0.951 . S
C256 C251 1.429 . S
C256 C255 1.347 . S
H257 C258 0.951 . S
C258 H257 0.951 . S
C258 C264 1.265 . S
H259 C264 0.950 . S
H260 C268 0.949 . S
H261 C269 0.950 1_455 S
H262 C270 0.951 . S
H263 C271 0.951 . S
C264 C258 1.265 . S
C264 H259 0.950 . S
C264 C265 1.478 . S
C265 C252 1.394 . S
C265 C264 1.478 . S
C265 C266 1.397 . S
C266 C265 1.397 . S
C266 C267 1.438 . S
C266 C271 1.429 . S
C267 C250 1.394 . S
C267 C266 1.438 . S
C267 C268 1.428 . S
C268 H260 0.949 . S
C268 C267 1.428 . S
C268 C269 1.345 . S
C269 H261 0.950 1_655 S
C269 C268 1.345 . S
C269 C270 1.424 . S
C270 H262 0.951 . S
C270 C269 1.424 . S
C270 C271 1.347 . S
C271 H263 0.951 . S
C271 C266 1.429 . S
C271 C270 1.347 . S
H272 C273 0.951 . S
C273 H272 0.951 . S
C273 C279 1.265 . S
H274 C279 0.950 . S
H275 C283 0.949 . S
H276 C284 0.950 . S
H277 C285 0.951 . S
H278 C286 0.951 . S
C279 C273 1.265 . S
C279 H274 0.950 . S
C279 C280 1.478 . S
C280 C279 1.478 . S
C280 C281 1.397 . S
C280 C297 1.394 . S
C281 C280 1.397 . S
C281 C282 1.438 . S
C281 C286 1.429 . S
C282 C281 1.438 . S
C282 C283 1.428 . S
C282 C295 1.394 . S
C283 H275 0.949 . S
C283 C282 1.428 . S
C283 C284 1.345 . S
C284 H276 0.950 . S
C284 C283 1.345 . S
C284 C285 1.424 . S
C285 H277 0.951 . S
C285 C284 1.424 . S
C285 C286 1.347 . S
C286 H278 0.951 . S
C286 C281 1.429 . S
C286 C285 1.347 . S
H287 C288 0.951 . S
C288 H287 0.951 . S
C288 C294 1.265 . S
H289 C294 0.950 . S
H290 C298 0.949 . S
H291 C299 0.950 . S
H292 C300 0.951 . S
H293 C301 0.951 . S
C294 C288 1.265 . S
C294 H289 0.950 . S
C294 C295 1.478 . S
C295 C282 1.394 . S
C295 C294 1.478 . S
C295 C296 1.397 . S
C296 C295 1.397 . S
C296 C297 1.438 . S
C296 C301 1.429 . S
C297 C280 1.394 . S
C297 C296 1.438 . S
C297 C298 1.428 . S
C298 H290 0.949 . S
C298 C297 1.428 . S
C298 C299 1.345 . S
C299 H291 0.950 . S
C299 C298 1.345 . S
C299 C300 1.424 . S
C300 H292 0.951 . S
C300 C299 1.424 . S
C300 C301 1.347 . S
C301 H293 0.951 . S
C301 C296 1.429 . S
C301 C300 1.347 . S
H302 C303 0.951 . S
C303 H302 0.951 . S
C303 C309 1.265 . S
H304 C309 0.950 . S
H305 C313 0.949 . S
H306 C314 0.950 . S
H307 C315 0.951 . S
H308 C316 0.951 . S
C309 C303 1.265 . S
C309 H304 0.950 . S
C309 C310 1.478 . S
C310 C309 1.478 . S
C310 C311 1.397 . S
C310 C327 1.394 . S
C311 C310 1.397 . S
C311 C312 1.438 . S
C311 C316 1.429 . S
C312 C311 1.438 . S
C312 C313 1.428 . S
C312 C325 1.394 . S
C313 H305 0.949 . S
C313 C312 1.428 . S
C313 C314 1.345 . S
C314 H306 0.950 . S
C314 C313 1.345 . S
C314 C315 1.424 . S
C315 H307 0.951 . S
C315 C314 1.424 . S
C315 C316 1.347 . S
C316 H308 0.951 . S
C316 C311 1.429 . S
C316 C315 1.347 . S
H317 C318 0.951 . S
C318 H317 0.951 . S
C318 C324 1.265 . S
H319 C324 0.950 . S
H320 C328 0.949 . S
H321 C329 0.950 . S
H322 C330 0.951 . S
H323 C331 0.951 . S
C324 C318 1.265 . S
C324 H319 0.950 . S
C324 C325 1.478 . S
C325 C312 1.394 . S
C325 C324 1.478 . S
C325 C326 1.397 . S
C326 C325 1.397 . S
C326 C327 1.438 . S
C326 C331 1.429 . S
C327 C310 1.394 . S
C327 C326 1.438 . S
C327 C328 1.428 . S
C328 H320 0.949 . S
C328 C327 1.428 . S
C328 C329 1.345 . S
C329 H321 0.950 . S
C329 C328 1.345 . S
C329 C330 1.424 . S
C330 H322 0.951 . S
C330 C329 1.424 . S
C330 C331 1.347 . S
C331 H323 0.951 . S
C331 C326 1.429 . S
C331 C330 1.347 . S
H332 C333 0.951 . S
C333 H332 0.951 . S
C333 C339 1.265 . S
H334 C339 0.950 . S
H335 C343 0.949 . S
H336 C344 0.950 . S
H337 C345 0.951 . S
H338 C346 0.951 . S
C339 C333 1.265 . S
C339 H334 0.950 . S
C339 C340 1.478 . S
C340 C339 1.478 . S
C340 C341 1.397 . S
C340 C357 1.394 . S
C341 C340 1.397 . S
C341 C342 1.438 . S
C341 C346 1.429 . S
C342 C341 1.438 . S
C342 C343 1.428 . S
C342 C355 1.394 . S
C343 H335 0.949 . S
C343 C342 1.428 . S
C343 C344 1.345 . S
C344 H336 0.950 . S
C344 C343 1.345 . S
C344 C345 1.424 . S
C345 H337 0.951 . S
C345 C344 1.424 . S
C345 C346 1.347 . S
C346 H338 0.951 . S
C346 C341 1.429 . S
C346 C345 1.347 . S
H347 C348 0.951 . S
C348 H347 0.951 . S
C348 C354 1.265 . S
H349 C354 0.950 . S
H350 C358 0.949 . S
H351 C359 0.950 . S
H352 C360 0.951 . S
H353 C361 0.951 . S
C354 C348 1.265 . S
C354 H349 0.950 . S
C354 C355 1.478 . S
C355 C342 1.394 . S
C355 C354 1.478 . S
C355 C356 1.397 . S
C356 C355 1.397 . S
C356 C357 1.438 . S
C356 C361 1.429 . S
C357 C340 1.394 . S
C357 C356 1.438 . S
C357 C358 1.428 . S
C358 H350 0.949 . S
C358 C357 1.428 . S
C358 C359 1.345 . S
C359 H351 0.950 . S
C359 C358 1.345 . S
C359 C360 1.424 . S
C360 H352 0.951 . S
C360 C359 1.424 . S
C360 C361 1.347 . S
C361 H353 0.951 . S
C361 C356 1.429 . S
C361 C360 1.347 . S
H362 C363 0.951 . S
C363 H362 0.951 . S
C363 C369 1.265 . S
H364 C369 0.950 . S
H365 C373 0.949 . S
H366 C374 0.950 . S
H367 C375 0.951 . S
H368 C376 0.951 . S
C369 C363 1.265 . S
C369 H364 0.950 . S
C369 C370 1.478 . S
C370 C369 1.478 . S
C370 C371 1.397 . S
C370 C387 1.394 . S
C371 C370 1.397 . S
C371 C372 1.438 . S
C371 C376 1.429 . S
C372 C371 1.438 . S
C372 C373 1.428 . S
C372 C385 1.394 . S
C373 H365 0.949 . S
C373 C372 1.428 . S
C373 C374 1.345 . S
C374 H366 0.950 . S
C374 C373 1.345 . S
C374 C375 1.424 . S
C375 H367 0.951 . S
C375 C374 1.424 . S
C375 C376 1.347 . S
C376 H368 0.951 . S
C376 C371 1.429 . S
C376 C375 1.347 . S
H377 C378 0.951 . S
C378 H377 0.951 . S
C378 C384 1.265 . S
H379 C384 0.950 . S
H380 C388 0.950 . S
H381 C389 0.950 . S
H382 C390 0.966 . S
H383 C391 0.951 . S
C384 C378 1.265 . S
C384 H379 0.950 . S
C384 C385 1.478 . S
C385 C372 1.394 . S
C385 C384 1.478 . S
C385 C386 1.397 . S
C386 C385 1.397 . S
C386 C387 1.438 . S
C386 C391 1.429 . S
C387 C370 1.394 . S
C387 C386 1.438 . S
C387 C388 1.428 . S
C388 H380 0.950 . S
C388 C387 1.428 . S
C388 C389 1.345 1_565 S
C389 H381 0.950 . S
C389 C388 1.345 1_545 S
C389 C390 1.431 . S
C390 H382 0.966 . S
C390 C389 1.431 . S
C390 C391 1.325 1_545 S
C391 H383 0.951 . S
C391 C386 1.429 . S
C391 C390 1.325 1_565 S
H392 C393 0.951 . S
C393 H392 0.951 . S
C393 C399 1.265 . S
H394 C399 0.950 . S
H395 C403 0.949 . S
H396 C404 0.950 . S
H397 C405 0.951 . S
H398 C406 0.951 . S
C399 C393 1.265 . S
C399 H394 0.950 . S
C399 C400 1.478 . S
C400 C399 1.478 . S
C400 C401 1.397 . S
C400 C417 1.394 . S
C401 C400 1.397 . S
C401 C402 1.438 . S
C401 C406 1.429 . S
C402 C401 1.438 . S
C402 C403 1.428 . S
C402 C415 1.394 . S
C403 H395 0.949 . S
C403 C402 1.428 . S
C403 C404 1.345 . S
C404 H396 0.950 . S
C404 C403 1.345 . S
C404 C405 1.424 . S
C405 H397 0.951 . S
C405 C404 1.424 . S
C405 C406 1.347 . S
C406 H398 0.951 . S
C406 C401 1.429 . S
C406 C405 1.347 . S
H407 C408 0.951 . S
C408 H407 0.951 . S
C408 C414 1.265 . S
H409 C414 0.950 . S
H410 C418 0.949 . S
H411 C419 0.950 . S
H412 C420 0.951 . S
H413 C421 0.951 . S
C414 C408 1.265 . S
C414 H409 0.950 . S
C414 C415 1.478 . S
C415 C402 1.394 . S
C415 C414 1.478 . S
C415 C416 1.397 . S
C416 C415 1.397 . S
C416 C417 1.438 . S
C416 C421 1.429 . S
C417 C400 1.394 . S
C417 C416 1.438 . S
C417 C418 1.428 . S
C418 H410 0.949 . S
C418 C417 1.428 . S
C418 C419 1.345 . S
C419 H411 0.950 . S
C419 C418 1.345 . S
C419 C420 1.424 . S
C420 H412 0.951 . S
C420 C419 1.424 . S
C420 C421 1.347 . S
C421 H413 0.951 . S
C421 C416 1.429 . S
C421 C420 1.347 . S
H422 C423 0.951 . S
C423 H422 0.951 . S
C423 C429 1.265 . S
H424 C429 0.950 . S
H425 C433 0.949 . S
H426 C434 0.950 . S
H427 C435 0.951 . S
H428 C436 0.951 . S
C429 C423 1.265 . S
C429 H424 0.950 . S
C429 C430 1.478 . S
C430 C429 1.478 . S
C430 C431 1.397 . S
C430 C447 1.394 . S
C431 C430 1.397 . S
C431 C432 1.438 . S
C431 C436 1.429 . S
C432 C431 1.438 . S
C432 C433 1.428 . S
C432 C445 1.394 . S
C433 H425 0.949 . S
C433 C432 1.428 . S
C433 C434 1.345 . S
C434 H426 0.950 . S
C434 C433 1.345 . S
C434 C435 1.424 . S
C435 H427 0.951 . S
C435 C434 1.424 . S
C435 C436 1.347 . S
C436 H428 0.951 . S
C436 C431 1.429 . S
C436 C435 1.347 . S
H437 C438 0.951 . S
C438 H437 0.951 . S
C438 C444 1.265 . S
H439 C444 0.950 . S
H440 C448 0.949 . S
H441 C449 0.950 . S
H442 C450 0.951 . S
H443 C451 0.951 . S
C444 C438 1.265 . S
C444 H439 0.950 . S
C444 C445 1.478 . S
C445 C432 1.394 . S
C445 C444 1.478 . S
C445 C446 1.397 . S
C446 C445 1.397 . S
C446 C447 1.438 . S
C446 C451 1.429 . S
C447 C430 1.394 . S
C447 C446 1.438 . S
C447 C448 1.428 . S
C448 H440 0.949 . S
C448 C447 1.428 . S
C448 C449 1.345 . S
C449 H441 0.950 . S
C449 C448 1.345 . S
C449 C450 1.424 . S
C450 H442 0.951 . S
C450 C449 1.424 . S
C450 C451 1.347 . S
C451 H443 0.951 . S
C451 C446 1.429 . S
C451 C450 1.347 . S
C93 C62 0.424 . S
C108 C16 0.423 . S
C123 C85 0.423 . S
C138 C39 0.422 . S
C153 C63 0.756 1_545 S
C168 C17 0.755 . S
C183 C40 0.755 . S
C198 C86 0.755 1_455 S
C213 C43 1.536 . S
C228 C20 1.532 . S
C243 C42 1.502 . S
C258 C65 1.636 . S
C273 C89 1.452 . S
C288 C66 1.590 . S
C303 C88 1.631 . S
C318 C19 1.502 . S
C333 C64 1.105 . S
C348 C87 1.096 . S
C363 C21 1.120 . S
C378 C90 1.115 . S
C393 C41 1.104 . S
C408 C18 1.093 . S
C423 C67 1.136 . S
C438 C44 1.146 . S
