# Generated by pormake.
# Topology son, (6)-cn, num edge types: 1
# Building blocks:
#     Node 0, Type 0, BuildingBlock: CUKXOW_clean_sbu_0, # of connection points: 6
#     Node 1, Type 0, BuildingBlock: CUKXOW_clean_sbu_0, # of connection points: 6
#     Node 2, Type 0, BuildingBlock: CUKXOW_clean_sbu_0, # of connection points: 6
#     Node 3, Type 0, BuildingBlock: CUKXOW_clean_sbu_0, # of connection points: 6
#     Node 4, Type 0, BuildingBlock: CUKXOW_clean_sbu_0, # of connection points: 6
#     Node 5, Type 0, BuildingBlock: CUKXOW_clean_sbu_0, # of connection points: 6
#     Node 6, Type 0, BuildingBlock: CUKXOW_clean_sbu_0, # of connection points: 6
#     Node 7, Type 0, BuildingBlock: CUKXOW_clean_sbu_0, # of connection points: 6
#     Node 8, Type 0, BuildingBlock: CUKXOW_clean_sbu_0, # of connection points: 6
#     Node 9, Type 0, BuildingBlock: CUKXOW_clean_sbu_0, # of connection points: 6
#     Node 10, Type 0, BuildingBlock: CUKXOW_clean_sbu_0, # of connection points: 6
#     Node 11, Type 0, BuildingBlock: CUKXOW_clean_sbu_0, # of connection points: 6
#     Node 12, Type 0, BuildingBlock: CUKXOW_clean_sbu_0, # of connection points: 6
#     Node 13, Type 0, BuildingBlock: CUKXOW_clean_sbu_0, # of connection points: 6
#     Node 14, Type 0, BuildingBlock: CUKXOW_clean_sbu_0, # of connection points: 6
#     Node 15, Type 0, BuildingBlock: CUKXOW_clean_sbu_0, # of connection points: 6
#     Node 16, Type 0, BuildingBlock: CUKXOW_clean_sbu_0, # of connection points: 6
#     Node 17, Type 0, BuildingBlock: CUKXOW_clean_sbu_0, # of connection points: 6
#     Node 18, Type 0, BuildingBlock: CUKXOW_clean_sbu_0, # of connection points: 6
#     Node 19, Type 0, BuildingBlock: CUKXOW_clean_sbu_0, # of connection points: 6
#     Node 20, Type 0, BuildingBlock: CUKXOW_clean_sbu_0, # of connection points: 6
#     Node 21, Type 0, BuildingBlock: CUKXOW_clean_sbu_0, # of connection points: 6
#     Node 22, Type 0, BuildingBlock: CUKXOW_clean_sbu_0, # of connection points: 6
#     Node 23, Type 0, BuildingBlock: CUKXOW_clean_sbu_0, # of connection points: 6
#     Node 24, Type 0, BuildingBlock: CUKXOW_clean_sbu_0, # of connection points: 6
#     Node 25, Type 0, BuildingBlock: CUKXOW_clean_sbu_0, # of connection points: 6
#     Node 26, Type 0, BuildingBlock: CUKXOW_clean_sbu_0, # of connection points: 6
#     Node 27, Type 0, BuildingBlock: CUKXOW_clean_sbu_0, # of connection points: 6
#     Node 28, Type 0, BuildingBlock: CUKXOW_clean_sbu_0, # of connection points: 6
#     Node 29, Type 0, BuildingBlock: CUKXOW_clean_sbu_0, # of connection points: 6
#     Node 30, Type 0, BuildingBlock: CUKXOW_clean_sbu_0, # of connection points: 6
#     Node 31, Type 0, BuildingBlock: CUKXOW_clean_sbu_0, # of connection points: 6
#     Edge 32, Type (0, 0), BuildingBlock: AJUNOK_clean_linker_0, # of connection points: 2
#     Edge 33, Type (0, 0), BuildingBlock: AJUNOK_clean_linker_0, # of connection points: 2
#     Edge 34, Type (0, 0), BuildingBlock: AJUNOK_clean_linker_0, # of connection points: 2
#     Edge 35, Type (0, 0), BuildingBlock: AJUNOK_clean_linker_0, # of connection points: 2
#     Edge 36, Type (0, 0), BuildingBlock: AJUNOK_clean_linker_0, # of connection points: 2
#     Edge 37, Type (0, 0), BuildingBlock: AJUNOK_clean_linker_0, # of connection points: 2
#     Edge 38, Type (0, 0), BuildingBlock: AJUNOK_clean_linker_0, # of connection points: 2
#     Edge 39, Type (0, 0), BuildingBlock: AJUNOK_clean_linker_0, # of connection points: 2
#     Edge 40, Type (0, 0), BuildingBlock: AJUNOK_clean_linker_0, # of connection points: 2
#     Edge 41, Type (0, 0), BuildingBlock: AJUNOK_clean_linker_0, # of connection points: 2
#     Edge 42, Type (0, 0), BuildingBlock: AJUNOK_clean_linker_0, # of connection points: 2
#     Edge 43, Type (0, 0), BuildingBlock: AJUNOK_clean_linker_0, # of connection points: 2
#     Edge 44, Type (0, 0), BuildingBlock: AJUNOK_clean_linker_0, # of connection points: 2
#     Edge 45, Type (0, 0), BuildingBlock: AJUNOK_clean_linker_0, # of connection points: 2
#     Edge 46, Type (0, 0), BuildingBlock: AJUNOK_clean_linker_0, # of connection points: 2
#     Edge 47, Type (0, 0), BuildingBlock: AJUNOK_clean_linker_0, # of connection points: 2
#     Edge 48, Type (0, 0), BuildingBlock: AJUNOK_clean_linker_0, # of connection points: 2
#     Edge 49, Type (0, 0), BuildingBlock: AJUNOK_clean_linker_0, # of connection points: 2
#     Edge 50, Type (0, 0), BuildingBlock: AJUNOK_clean_linker_0, # of connection points: 2
#     Edge 51, Type (0, 0), BuildingBlock: AJUNOK_clean_linker_0, # of connection points: 2
#     Edge 52, Type (0, 0), BuildingBlock: AJUNOK_clean_linker_0, # of connection points: 2
#     Edge 53, Type (0, 0), BuildingBlock: AJUNOK_clean_linker_0, # of connection points: 2
#     Edge 54, Type (0, 0), BuildingBlock: AJUNOK_clean_linker_0, # of connection points: 2
#     Edge 55, Type (0, 0), BuildingBlock: AJUNOK_clean_linker_0, # of connection points: 2
#     Edge 56, Type (0, 0), BuildingBlock: AJUNOK_clean_linker_0, # of connection points: 2
#     Edge 57, Type (0, 0), BuildingBlock: AJUNOK_clean_linker_0, # of connection points: 2
#     Edge 58, Type (0, 0), BuildingBlock: AJUNOK_clean_linker_0, # of connection points: 2
#     Edge 59, Type (0, 0), BuildingBlock: AJUNOK_clean_linker_0, # of connection points: 2
#     Edge 60, Type (0, 0), BuildingBlock: AJUNOK_clean_linker_0, # of connection points: 2
#     Edge 61, Type (0, 0), BuildingBlock: AJUNOK_clean_linker_0, # of connection points: 2
#     Edge 62, Type (0, 0), BuildingBlock: AJUNOK_clean_linker_0, # of connection points: 2
#     Edge 63, Type (0, 0), BuildingBlock: AJUNOK_clean_linker_0, # of connection points: 2
#     Edge 64, Type (0, 0), BuildingBlock: AJUNOK_clean_linker_0, # of connection points: 2
#     Edge 65, Type (0, 0), BuildingBlock: AJUNOK_clean_linker_0, # of connection points: 2
#     Edge 66, Type (0, 0), BuildingBlock: AJUNOK_clean_linker_0, # of connection points: 2
#     Edge 67, Type (0, 0), BuildingBlock: AJUNOK_clean_linker_0, # of connection points: 2
#     Edge 68, Type (0, 0), BuildingBlock: AJUNOK_clean_linker_0, # of connection points: 2
#     Edge 69, Type (0, 0), BuildingBlock: AJUNOK_clean_linker_0, # of connection points: 2
#     Edge 70, Type (0, 0), BuildingBlock: AJUNOK_clean_linker_0, # of connection points: 2
#     Edge 71, Type (0, 0), BuildingBlock: AJUNOK_clean_linker_0, # of connection points: 2
#     Edge 72, Type (0, 0), BuildingBlock: AJUNOK_clean_linker_0, # of connection points: 2
#     Edge 73, Type (0, 0), BuildingBlock: AJUNOK_clean_linker_0, # of connection points: 2
#     Edge 74, Type (0, 0), BuildingBlock: AJUNOK_clean_linker_0, # of connection points: 2
#     Edge 75, Type (0, 0), BuildingBlock: AJUNOK_clean_linker_0, # of connection points: 2
#     Edge 76, Type (0, 0), BuildingBlock: AJUNOK_clean_linker_0, # of connection points: 2
#     Edge 77, Type (0, 0), BuildingBlock: AJUNOK_clean_linker_0, # of connection points: 2
#     Edge 78, Type (0, 0), BuildingBlock: AJUNOK_clean_linker_0, # of connection points: 2
#     Edge 79, Type (0, 0), BuildingBlock: AJUNOK_clean_linker_0, # of connection points: 2
#     Edge 80, Type (0, 0), BuildingBlock: AJUNOK_clean_linker_0, # of connection points: 2
#     Edge 81, Type (0, 0), BuildingBlock: AJUNOK_clean_linker_0, # of connection points: 2
#     Edge 82, Type (0, 0), BuildingBlock: AJUNOK_clean_linker_0, # of connection points: 2
#     Edge 83, Type (0, 0), BuildingBlock: AJUNOK_clean_linker_0, # of connection points: 2
#     Edge 84, Type (0, 0), BuildingBlock: AJUNOK_clean_linker_0, # of connection points: 2
#     Edge 85, Type (0, 0), BuildingBlock: AJUNOK_clean_linker_0, # of connection points: 2
#     Edge 86, Type (0, 0), BuildingBlock: AJUNOK_clean_linker_0, # of connection points: 2
#     Edge 87, Type (0, 0), BuildingBlock: AJUNOK_clean_linker_0, # of connection points: 2
#     Edge 88, Type (0, 0), BuildingBlock: AJUNOK_clean_linker_0, # of connection points: 2
#     Edge 89, Type (0, 0), BuildingBlock: AJUNOK_clean_linker_0, # of connection points: 2
#     Edge 90, Type (0, 0), BuildingBlock: AJUNOK_clean_linker_0, # of connection points: 2
#     Edge 91, Type (0, 0), BuildingBlock: AJUNOK_clean_linker_0, # of connection points: 2
#     Edge 92, Type (0, 0), BuildingBlock: AJUNOK_clean_linker_0, # of connection points: 2
#     Edge 93, Type (0, 0), BuildingBlock: AJUNOK_clean_linker_0, # of connection points: 2
#     Edge 94, Type (0, 0), BuildingBlock: AJUNOK_clean_linker_0, # of connection points: 2
#     Edge 95, Type (0, 0), BuildingBlock: AJUNOK_clean_linker_0, # of connection points: 2
#     Edge 96, Type (0, 0), BuildingBlock: AJUNOK_clean_linker_0, # of connection points: 2
#     Edge 97, Type (0, 0), BuildingBlock: AJUNOK_clean_linker_0, # of connection points: 2
#     Edge 98, Type (0, 0), BuildingBlock: AJUNOK_clean_linker_0, # of connection points: 2
#     Edge 99, Type (0, 0), BuildingBlock: AJUNOK_clean_linker_0, # of connection points: 2
#     Edge 100, Type (0, 0), BuildingBlock: AJUNOK_clean_linker_0, # of connection points: 2
#     Edge 101, Type (0, 0), BuildingBlock: AJUNOK_clean_linker_0, # of connection points: 2
#     Edge 102, Type (0, 0), BuildingBlock: AJUNOK_clean_linker_0, # of connection points: 2
#     Edge 103, Type (0, 0), BuildingBlock: AJUNOK_clean_linker_0, # of connection points: 2
#     Edge 104, Type (0, 0), BuildingBlock: AJUNOK_clean_linker_0, # of connection points: 2
#     Edge 105, Type (0, 0), BuildingBlock: AJUNOK_clean_linker_0, # of connection points: 2
#     Edge 106, Type (0, 0), BuildingBlock: AJUNOK_clean_linker_0, # of connection points: 2
#     Edge 107, Type (0, 0), BuildingBlock: AJUNOK_clean_linker_0, # of connection points: 2
#     Edge 108, Type (0, 0), BuildingBlock: AJUNOK_clean_linker_0, # of connection points: 2
#     Edge 109, Type (0, 0), BuildingBlock: AJUNOK_clean_linker_0, # of connection points: 2
#     Edge 110, Type (0, 0), BuildingBlock: AJUNOK_clean_linker_0, # of connection points: 2
#     Edge 111, Type (0, 0), BuildingBlock: AJUNOK_clean_linker_0, # of connection points: 2
#     Edge 112, Type (0, 0), BuildingBlock: AJUNOK_clean_linker_0, # of connection points: 2
#     Edge 113, Type (0, 0), BuildingBlock: AJUNOK_clean_linker_0, # of connection points: 2
#     Edge 114, Type (0, 0), BuildingBlock: AJUNOK_clean_linker_0, # of connection points: 2
#     Edge 115, Type (0, 0), BuildingBlock: AJUNOK_clean_linker_0, # of connection points: 2
#     Edge 116, Type (0, 0), BuildingBlock: AJUNOK_clean_linker_0, # of connection points: 2
#     Edge 117, Type (0, 0), BuildingBlock: AJUNOK_clean_linker_0, # of connection points: 2
#     Edge 118, Type (0, 0), BuildingBlock: AJUNOK_clean_linker_0, # of connection points: 2
#     Edge 119, Type (0, 0), BuildingBlock: AJUNOK_clean_linker_0, # of connection points: 2
#     Edge 120, Type (0, 0), BuildingBlock: AJUNOK_clean_linker_0, # of connection points: 2
#     Edge 121, Type (0, 0), BuildingBlock: AJUNOK_clean_linker_0, # of connection points: 2
#     Edge 122, Type (0, 0), BuildingBlock: AJUNOK_clean_linker_0, # of connection points: 2
#     Edge 123, Type (0, 0), BuildingBlock: AJUNOK_clean_linker_0, # of connection points: 2
#     Edge 124, Type (0, 0), BuildingBlock: AJUNOK_clean_linker_0, # of connection points: 2
#     Edge 125, Type (0, 0), BuildingBlock: AJUNOK_clean_linker_0, # of connection points: 2
#     Edge 126, Type (0, 0), BuildingBlock: AJUNOK_clean_linker_0, # of connection points: 2
#     Edge 127, Type (0, 0), BuildingBlock: AJUNOK_clean_linker_0, # of connection points: 2
# Relax obj value: 0.063
# Max RMSD: 0.132
# Mean RMSD: 0.132
data_MOF--net-son--node1-CUKXOW_clean_sbu_0--edge1-AJUNOK_clean_linker_0
_symmetry_space_group_name_H-M    P1
_symmetry_Int_Tables_number       1
_symmetry_cell_setting            triclinic
loop_
_symmetry_equiv_pos_as_xyz
'x, y, z'
_cell_length_a     108.44842
_cell_length_b     43.970207
_cell_length_c     10.486157
_cell_angle_alpha  90.00546
_cell_angle_beta   89.920492
_cell_angle_gamma 90.001477
loop_
_atom_site_label
_atom_site_type_symbol
_atom_site_fract_x
_atom_site_fract_y
_atom_site_fract_z
_atom_type_partial_charge
Tb0 Tb 0.29452 0.24761 0.26749 0.0
C1 C 0.30785 0.30902 0.34018 0.0
Tb2 Tb 0.32382 0.24905 0.2922 0.0
O3 O 0.29027 0.24368 0.47316 0.0
O4 O 0.3081 0.24518 0.41018 0.0
O5 O 0.2979 0.29628 0.2886 0.0
C6 C 0.34686 0.24883 0.37713 0.0
O7 O 0.31828 0.29389 0.36162 0.0
C8 C 0.31654 0.2522 1.0483 0.0
C9 C 0.31026 0.187 0.23998 0.0
O10 O 0.34109 0.2724 0.33274 0.0
O11 O 0.33962 0.22531 0.37492 0.0
O12 O 0.32796 0.25295 0.08506 0.0
O13 O 0.31027 0.25095 0.14947 0.0
O14 O 0.32009 0.20036 0.29075 0.0
O15 O 0.30003 0.20196 0.20943 0.0
C16 C 0.27176 0.24692 0.17412 0.0
O17 O 0.27658 0.22598 0.24559 0.0
O18 O 0.2798 0.2684 0.15484 0.0
C19 C 0.30169 0.24358 0.5105 0.0
Tb20 Tb 0.94996 0.99218 0.24273 0.0
C21 C 0.93629 0.93125 0.31177 0.0
Tb22 Tb 0.92144 0.99168 0.264 0.0
O23 O 0.9546 0.99383 0.44836 0.0
O24 O 0.93661 0.99303 0.38832 0.0
O25 O 0.94611 0.94326 0.25495 0.0
C26 C 0.89759 0.99298 0.32915 0.0
O27 O 0.92649 0.94774 0.34157 0.0
C28 C 0.93027 0.98184 1.02982 0.0
C29 C 0.93518 0.05454 0.24222 0.0
O30 O 0.90483 0.9697 0.33648 0.0
O31 O 0.9038 0.01597 0.28538 0.0
O32 O 0.91968 0.97245 0.07147 0.0
O33 O 0.93473 -0.00153 0.11613 0.0
O34 O 0.9252 0.04015 0.28454 0.0
O35 O 0.94543 0.03994 0.20825 0.0
C36 C 0.97238 0.99054 0.13837 0.0
O37 O 0.9688 0.0094 0.22637 0.0
O38 O 0.96333 0.97238 0.1099 0.0
C39 C 0.94321 0.99351 0.4874 0.0
Tb40 Tb 0.29392 0.99652 0.10259 0.0
C41 C 0.30718 0.93501 1.02752 0.0
Tb42 Tb 0.3233 0.99465 0.0763 0.0
O43 O 0.2897 0.00063 0.89691 0.0
O44 O 0.30752 -0.00133 0.95955 0.0
O45 O 0.29723 0.94782 0.07936 0.0
C46 C 0.34639 0.9959 0.99083 0.0
O47 O 0.31767 0.94997 1.00656 0.0
C48 C 0.31597 0.99177 0.32056 0.0
C49 C 0.30988 0.05689 0.13082 0.0
O50 O 0.34101 0.97245 1.04162 0.0
O51 O 0.33869 0.0185 0.98594 0.0
O52 O 0.3274 0.99082 0.28351 0.0
O53 O 0.30972 0.99306 0.21943 0.0
O54 O 0.3197 0.04334 0.08042 0.0
O55 O 0.29954 0.04216 0.16025 0.0
C56 C 0.27109 0.99697 0.19673 0.0
O57 O 0.27581 0.01761 0.12284 0.0
O58 O 0.27928 0.97595 0.21818 0.0
C59 C 0.30113 0.00046 0.85926 0.0
Tb60 Tb 0.94986 0.2465 0.10179 0.0
C61 C 0.93588 0.30691 1.0273 0.0
Tb62 Tb 0.9206 0.24607 0.07816 0.0
O63 O 0.95417 0.24234 0.89658 0.0
O64 O 0.93631 0.24304 0.95939 0.0
O65 O 0.94607 0.29503 0.0776 0.0
C66 C 0.89748 0.24734 0.99743 0.0
O67 O 0.92572 0.29079 1.00592 0.0
C68 C 0.9279 0.24981 0.32168 0.0
C69 C 0.93456 0.18495 0.13577 0.0
O70 O 0.90312 0.26944 0.05486 0.0
O71 O 0.90492 0.22432 0.9842 0.0
O72 O 0.91648 0.24938 0.28532 0.0
O73 O 0.93416 0.24919 0.22028 0.0
O74 O 0.92454 0.1976 0.08561 0.0
O75 O 0.94479 0.20049 0.16204 0.0
C76 C 0.97257 0.24851 0.19462 0.0
O77 O 0.96816 0.22683 0.12417 0.0
O78 O 0.96415 0.26907 0.21347 0.0
C79 C 0.94275 0.24163 0.85921 0.0
Tb80 Tb 0.67026 0.74573 0.82757 0.0
C81 C 0.68408 0.80665 0.89003 0.0
Tb82 Tb 0.69949 0.74545 0.85093 0.0
O83 O 0.66614 0.7419 1.03462 0.0
O84 O 0.68382 0.74213 0.96947 0.0
O85 O 0.67413 0.79418 0.83774 0.0
C86 C 0.72216 0.74315 0.94425 0.0
O87 O 0.69431 0.79104 0.91532 0.0
C88 C 0.69237 0.75093 0.60852 0.0
C89 C 0.68562 0.68519 0.7731 0.0
O90 O 0.71777 0.7651 0.87506 0.0
O91 O 0.71374 0.7225 0.96141 0.0
O92 O 0.70379 0.75026 0.6459 0.0
O93 O 0.68594 0.74926 0.70869 0.0
O94 O 0.69579 0.69697 0.82418 0.0
O95 O 0.67545 0.70132 0.75265 0.0
C96 C 0.64719 0.74492 0.74623 0.0
O97 O 0.65284 0.72235 0.80017 0.0
O98 O 0.65457 0.76813 0.73689 0.0
C99 C 0.67757 0.74146 0.07096 0.0
Tb100 Tb 0.07149 0.99368 0.78979 0.0
C101 C 0.05828 0.93281 0.84811 0.0
Tb102 Tb 0.04428 0.99582 0.81982 0.0
O103 O 0.0741 0.97942 0.98745 0.0
O104 O 0.05931 0.00728 0.94153 0.0
O105 O 0.06807 0.94523 0.79396 0.0
C106 C 0.02126 0.99376 0.91173 0.0
O107 O 0.04836 0.94901 0.87747 0.0
C108 C 0.05151 0.99634 0.57825 0.0
C109 C 0.05751 0.05623 0.74907 0.0
O110 O 0.02526 0.97876 0.81345 0.0
O111 O 0.0302 0.01003 0.95715 0.0
O112 O 0.04142 0.00875 0.62 0.0
O113 O 0.05641 0.98172 0.66951 0.0
O114 O 0.04763 0.04432 0.80408 0.0
O115 O 0.06748 0.03981 0.72371 0.0
C116 C 0.09519 0.99484 0.71916 0.0
O117 O 0.0903 0.01129 0.80855 0.0
O118 O 0.08667 0.97817 0.66808 0.0
C119 C 0.06413 0.99187 1.03089 0.0
Tb120 Tb 0.67152 -0.00012 1.04081 0.0
C121 C 0.68477 0.936 1.01493 0.0
Tb122 Tb 0.69999 -0.00272 1.02405 0.0
O123 O 0.67089 0.02231 0.85439 0.0
O124 O 0.68494 0.99204 0.89512 0.0
O125 O 0.67477 0.95085 0.05384 0.0
C126 C 0.72259 0.99687 0.92465 0.0
O127 O 0.69526 0.95003 0.98663 0.0
C128 C 0.69306 -0.00284 0.26752 0.0
C129 C 0.68669 0.06032 0.07712 0.0
O130 O 0.71862 0.97869 1.01326 0.0
O131 O 0.71382 0.01553 0.89254 0.0
O132 O 0.70446 0.99556 0.22952 0.0
O133 O 0.68649 -0.00217 0.16805 0.0
O134 O 0.69671 0.0464 1.03268 0.0
O135 O 0.67609 0.046 0.09645 0.0
C136 C 0.6475 0.99552 0.09467 0.0
O137 O 0.65275 0.98582 0.99127 0.0
O138 O 0.6558 0.00738 0.16828 0.0
C139 C 0.681 0.01026 0.8113 0.0
Tb140 Tb 0.07255 0.74394 1.04138 0.0
C141 C 0.05831 0.80448 0.98605 0.0
Tb142 Tb 0.04331 0.74271 1.01624 0.0
O143 O 0.07683 0.74003 0.83564 0.0
O144 O 0.05908 0.74033 0.89801 0.0
O145 O 0.06819 0.79209 1.03946 0.0
C146 C 0.02078 0.74315 0.91877 0.0
O147 O 0.04828 0.78868 0.95604 0.0
C148 C 0.05044 0.74701 0.25976 0.0
C149 C 0.05751 0.68274 0.09041 0.0
O150 O 0.02512 0.76303 0.99839 0.0
O151 O 0.02913 0.72265 0.89473 0.0
O152 O 0.039 0.74561 0.22302 0.0
O153 O 0.05678 0.74672 0.15868 0.0
O154 O 0.0473 0.69428 1.03886 0.0
O155 O 0.06756 0.69915 0.11335 0.0
C156 C 0.09579 0.74631 0.11805 0.0
O157 O 0.09023 0.72212 0.07652 0.0
O158 O 0.08814 0.76906 0.12007 0.0
C159 C 0.06547 0.73931 0.79759 0.0
Tb160 Tb 0.29311 0.74869 0.77182 0.0
C161 C 0.30673 0.80903 0.84911 0.0
Tb162 Tb 0.32229 0.74842 0.79669 0.0
O163 O 0.28874 0.74531 0.97827 0.0
O164 O 0.30657 0.74496 0.91448 0.0
O165 O 0.29673 0.79706 0.79583 0.0
C166 C 0.34558 0.74941 0.87176 0.0
O167 O 0.31703 0.79325 0.86963 0.0
C168 C 0.31517 0.75299 0.55303 0.0
C169 C 0.3083 0.68721 0.74077 0.0
O170 O 0.33957 0.77234 0.82521 0.0
O171 O 0.33838 0.7258 0.87882 0.0
O172 O 0.32654 0.75238 0.59083 0.0
O173 O 0.30882 0.75178 0.65362 0.0
O174 O 0.31836 0.69974 0.79092 0.0
O175 O 0.2983 0.7031 0.71088 0.0
C176 C 0.27084 0.74951 0.66993 0.0
O177 O 0.27497 0.72857 0.74602 0.0
O178 O 0.27923 0.77018 0.65214 0.0
C179 C 0.30018 0.74441 1.0153 0.0
Tb180 Tb 0.95052 0.49254 0.7742 0.0
C181 C 0.93615 0.43316 0.85067 0.0
Tb182 Tb 0.92131 0.49492 0.7998 0.0
O183 O 0.95484 0.49538 0.98079 0.0
O184 O 0.93708 0.49756 0.9168 0.0
O185 O 0.94638 0.44426 0.79769 0.0
C186 C 0.89806 0.49642 0.87669 0.0
O187 O 0.92617 0.44998 0.87296 0.0
C188 C 0.92838 0.48956 0.55607 0.0
C189 C 0.93584 0.55493 0.73912 0.0
O190 O 0.90355 0.473 0.82722 0.0
O191 O 0.90577 0.51894 0.88613 0.0
O192 O 0.91702 0.49097 0.59421 0.0
O193 O 0.93477 0.49042 0.65643 0.0
O194 O 0.92567 0.54322 0.79026 0.0
O195 O 0.94573 0.53835 0.71117 0.0
C196 C 0.97302 0.49345 0.67624 0.0
O197 O 0.96855 0.51345 0.75461 0.0
O198 O 0.96484 0.47245 0.65416 0.0
C199 C 0.94342 0.49741 1.01781 0.0
Tb200 Tb 0.29352 0.49561 0.59036 0.0
C201 C 0.30743 0.43545 0.51375 0.0
Tb202 Tb 0.32277 0.49651 0.56372 0.0
O203 O 0.28915 0.49864 0.38381 0.0
O204 O 0.30697 0.49948 0.44716 0.0
O205 O 0.29738 0.44733 0.56691 0.0
C206 C 0.34603 0.4983 0.48586 0.0
O207 O 0.31771 0.45133 0.4927 0.0
C208 C 0.31567 0.49198 0.8078 0.0
C209 C 0.30847 0.55744 0.62039 0.0
O210 O 0.34053 0.47463 0.53322 0.0
O211 O 0.33831 0.52086 0.47891 0.0
O212 O 0.32704 0.49261 0.76954 0.0
O213 O 0.30931 0.49309 0.70737 0.0
O214 O 0.31859 0.54507 0.57054 0.0
O215 O 0.29849 0.5414 0.65008 0.0
C216 C 0.27126 0.4944 0.69446 0.0
O217 O 0.2752 0.51497 0.61539 0.0
O218 O 0.27983 0.47425 0.71358 0.0
C219 C 0.3006 0.49978 0.34641 0.0
Tb220 Tb 0.95077 0.74607 0.57188 0.0
C221 C 0.93662 0.80547 0.49209 0.0
Tb222 Tb 0.92152 0.74422 0.54704 0.0
O223 O 0.95512 0.7428 0.36544 0.0
O224 O 0.93731 0.7413 0.42962 0.0
O225 O 0.94684 0.7943 0.54427 0.0
C226 C 0.89816 0.74592 0.47335 0.0
O227 O 0.92656 0.78885 0.47181 0.0
C228 C 0.92866 0.74939 0.79061 0.0
C229 C 0.93595 0.68377 0.60274 0.0
O230 O 0.90437 0.7687 0.51822 0.0
O231 O 0.90519 0.72196 0.46735 0.0
O232 O 0.9173 0.74805 0.753 0.0
O233 O 0.935 0.74855 0.68978 0.0
O234 O 0.9258 0.6958 0.55258 0.0
O235 O 0.9459 0.70006 0.63167 0.0
C236 C 0.97299 0.74762 0.67586 0.0
O237 O 0.96918 0.72716 0.59576 0.0
O238 O 0.96433 0.76747 0.69608 0.0
C239 C 0.94368 0.74113 0.3286 0.0
Tb240 Tb 0.67115 0.24672 0.2978 0.0
C241 C 0.68463 0.30856 0.35443 0.0
Tb242 Tb 0.70042 0.24795 0.32303 0.0
O243 O 0.66695 0.2426 0.50367 0.0
O244 O 0.68468 0.24413 0.44084 0.0
O245 O 0.67476 0.2954 0.30355 0.0
C246 C 0.72288 0.24836 0.42254 0.0
O247 O 0.69493 0.29354 0.3824 0.0
C248 C 0.69323 0.25175 0.07952 0.0
C249 C 0.68717 0.18693 0.24578 0.0
O250 O 0.7186 0.26838 0.34312 0.0
O251 O 0.71451 0.22788 0.44546 0.0
O252 O 0.70469 0.25147 0.11633 0.0
O253 O 0.68689 0.25079 0.18058 0.0
O254 O 0.69715 0.19936 0.29823 0.0
O255 O 0.67677 0.20224 0.22555 0.0
C256 C 0.64789 0.24528 0.21999 0.0
O257 O 0.65392 0.22249 0.26766 0.0
O258 O 0.65505 0.26898 0.21371 0.0
C259 C 0.67833 0.24266 0.54146 0.0
Tb260 Tb 0.07274 0.49538 0.31547 0.0
C261 C 0.0585 0.43472 0.36985 0.0
Tb262 Tb 0.04352 0.49668 0.33963 0.0
O263 O 0.07685 0.49845 0.52264 0.0
O264 O 0.0592 0.49901 0.45786 0.0
O265 O 0.06861 0.44697 0.31942 0.0
C266 C 0.02092 0.49867 0.43546 0.0
O267 O 0.04853 0.45083 0.39992 0.0
C268 C 0.05057 0.49139 0.09696 0.0
C269 C 0.05765 0.55649 0.26398 0.0
O270 O 0.02525 0.477 0.36421 0.0
O271 O 0.02936 0.51926 0.45299 0.0
O272 O 0.03916 0.4925 0.13466 0.0
O273 O 0.05704 0.49274 0.1968 0.0
O274 O 0.04746 0.54501 0.31581 0.0
O275 O 0.06771 0.54004 0.24178 0.0
C276 C 0.09594 0.49719 0.23748 0.0
O277 O 0.09002 0.51949 0.29041 0.0
O278 O 0.08873 0.47365 0.22688 0.0
C279 C 0.06543 0.49929 0.55919 0.0
Tb280 Tb 0.67061 0.49831 0.54178 0.0
C281 C 0.68458 0.43751 0.48552 0.0
Tb282 Tb 0.69984 0.49902 0.51628 0.0
O283 O 0.66636 0.50271 0.33633 0.0
O284 O 0.68411 0.50202 0.39813 0.0
O285 O 0.67478 0.45006 0.54011 0.0
C286 C 0.72249 0.49797 0.42061 0.0
O287 O 0.69465 0.45322 0.45489 0.0
C288 C 0.69268 0.49443 0.7598 0.0
C289 C 0.68582 0.55912 0.59425 0.0
O290 O 0.71793 0.47809 0.499 0.0
O291 O 0.71428 0.51878 0.39641 0.0
O292 O 0.70412 0.49578 0.72285 0.0
O293 O 0.68635 0.49488 0.65882 0.0
O294 O 0.696 0.54756 0.54165 0.0
O295 O 0.67573 0.54275 0.61633 0.0
C296 C 0.6473 0.49646 0.61682 0.0
O297 O 0.65312 0.52076 0.58054 0.0
O298 O 0.65472 0.47328 0.61488 0.0
C299 C 0.67772 0.50324 0.29791 0.0
Tb300 Tb 0.07323 0.24396 0.53698 0.0
C301 C 0.05891 0.30493 0.48437 0.0
Tb302 Tb 0.04397 0.24331 0.51122 0.0
O303 O 0.07752 0.24037 0.33111 0.0
O304 O 0.05976 0.241 0.39337 0.0
O305 O 0.06897 0.29247 0.5345 0.0
C306 C 0.02135 0.24477 0.41602 0.0
O307 O 0.04904 0.28894 0.4516 0.0
C308 C 0.0511 0.24687 0.75512 0.0
C309 C 0.05782 0.18281 0.58091 0.0
O310 O 0.02599 0.26472 0.49345 0.0
O311 O 0.02945 0.22363 0.39277 0.0
O312 O 0.03967 0.24577 0.7182 0.0
O313 O 0.05744 0.24661 0.65412 0.0
O314 O 0.04784 0.19497 0.52769 0.0
O315 O 0.06806 0.19858 0.6049 0.0
C316 C 0.09648 0.24605 0.61517 0.0
O317 O 0.09098 0.22215 0.56994 0.0
O318 O 0.08876 0.26863 0.61992 0.0
C319 C 0.06616 0.23992 0.29301 0.0
Tb320 Tb 0.79329 0.24743 0.76309 0.0
C321 C 0.80723 0.30774 0.83957 0.0
Tb322 Tb 0.82255 0.24698 0.7886 0.0
O323 O 0.78893 0.24418 0.96967 0.0
O324 O 0.80676 0.24378 0.90576 0.0
O325 O 0.79704 0.29594 0.78892 0.0
C326 C 0.8458 0.24744 0.86585 0.0
O327 O 0.81738 0.2916 0.8612 0.0
C328 C 0.81542 0.25143 0.54479 0.0
C329 C 0.80861 0.18584 0.73426 0.0
O330 O 0.8398 0.27076 0.82255 0.0
O331 O 0.83863 0.22374 0.86807 0.0
O332 O 0.82679 0.25089 0.58263 0.0
O333 O 0.80907 0.25026 0.64544 0.0
O334 O 0.81849 0.19862 0.78647 0.0
O335 O 0.79843 0.20131 0.70508 0.0
C336 C 0.77106 0.2496 0.65865 0.0
O337 O 0.7748 0.22892 0.73818 0.0
O338 O 0.77983 0.2692 0.63886 0.0
C339 C 0.80038 0.24328 1.00668 0.0
Tb340 Tb 0.45041 0.99307 0.73392 0.0
C341 C 0.43592 0.9341 0.81423 0.0
Tb342 Tb 0.42104 0.9956 0.76017 0.0
O343 O 0.45474 -0.00286 0.93945 0.0
O344 O 0.4369 -0.00216 0.87673 0.0
O345 O 0.44615 0.94502 0.7609 0.0
C346 C 0.39794 0.99685 0.84497 0.0
O347 O 0.42591 0.95088 0.8349 0.0
C348 C 0.42832 0.99109 0.51596 0.0
C349 C 0.4358 0.05558 0.70229 0.0
O350 O 0.40325 0.97373 0.79089 0.0
O351 O 0.40571 0.01931 0.85284 0.0
O352 O 0.4169 0.9922 0.55284 0.0
O353 O 0.43456 0.99134 0.61739 0.0
O354 O 0.42561 0.0438 0.753 0.0
O355 O 0.44569 0.03908 0.67338 0.0
C356 C 0.47306 0.99025 0.63672 0.0
O357 O 0.46893 0.01159 0.71105 0.0
O358 O 0.46439 0.97034 0.61697 0.0
C359 C 0.44332 -0.0012 0.97707 0.0
Tb360 Tb 0.79308 0.99554 0.57812 0.0
C361 C 0.80658 0.93454 0.50253 0.0
Tb362 Tb 0.82249 0.9948 0.55015 0.0
O363 O 0.78877 -0.0014 0.37133 0.0
O364 O 0.80659 -0.00184 0.43472 0.0
O365 O 0.79655 0.94702 0.554 0.0
C366 C 0.8458 0.99369 0.46996 0.0
O367 O 0.81699 0.94983 0.48169 0.0
C368 C 0.81527 0.9912 0.79448 0.0
C369 C 0.80874 0.05658 0.60657 0.0
O370 O 0.84008 0.97159 0.5268 0.0
O371 O 0.83829 0.01655 0.45606 0.0
O372 O 0.82666 0.99131 0.75649 0.0
O373 O 0.80896 0.99246 0.69371 0.0
O374 O 0.81872 0.04344 0.55713 0.0
O375 O 0.79842 0.04153 0.63385 0.0
C376 C 0.77084 0.99416 0.68514 0.0
O377 O 0.77452 0.01406 0.60169 0.0
O378 O 0.77966 0.97486 0.70717 0.0
C379 C 0.80023 -0.00117 0.33387 0.0
Tb380 Tb 0.44983 0.24796 0.56553 0.0
C381 C 0.43662 0.31064 0.51309 0.0
Tb382 Tb 0.42275 0.24861 0.5545 0.0
O383 O 0.45147 0.22862 0.37346 0.0
O384 O 0.43677 0.25654 0.41789 0.0
O385 O 0.44681 0.29748 0.55647 0.0
C386 C 0.39872 0.24684 0.50251 0.0
O387 O 0.42673 0.29424 0.48592 0.0
C388 C 0.43154 0.25652 0.78797 0.0
C389 C 0.43607 0.18548 0.58961 0.0
O390 O 0.4041 0.26603 0.57724 0.0
O391 O 0.40685 0.22807 0.457 0.0
O392 O 0.42139 0.26801 0.74543 0.0
O393 O 0.43577 0.23928 0.70243 0.0
O394 O 0.42583 0.19929 0.55149 0.0
O395 O 0.4461 0.20111 0.61925 0.0
C396 C 0.4732 0.252 0.64159 0.0
O397 O 0.46938 0.23739 0.54198 0.0
O398 O 0.46388 0.26496 0.69694 0.0
C399 C 0.4411 0.23949 0.33229 0.0
Tb400 Tb 0.17058 0.74679 0.32827 0.0
C401 C 0.18504 0.8066 0.39604 0.0
Tb402 Tb 0.19977 0.74478 0.35106 0.0
O403 O 0.1664 0.74283 0.53504 0.0
O404 O 0.18409 0.74208 0.46999 0.0
O405 O 0.17486 0.79517 0.34389 0.0
C406 C 0.22264 0.7449 0.43815 0.0
O407 O 0.19495 0.78989 0.42074 0.0
C408 C 0.19265 0.75091 0.10875 0.0
C409 C 0.18561 0.68531 0.27522 0.0
O410 O 0.21767 0.7663 0.37048 0.0
O411 O 0.2147 0.72318 0.45724 0.0
O412 O 0.20404 0.74925 0.14581 0.0
O413 O 0.18624 0.74972 0.20916 0.0
O414 O 0.19577 0.69656 0.32814 0.0
O415 O 0.17556 0.70193 0.25397 0.0
C416 C 0.14752 0.74775 0.24599 0.0
O417 O 0.15282 0.72485 0.30138 0.0
O418 O 0.15528 0.77016 0.23492 0.0
C419 C 0.17782 0.74164 0.57139 0.0
Tb420 Tb 0.57142 0.99508 0.27845 0.0
C421 C 0.5579 0.93466 0.33697 0.0
Tb422 Tb 0.54432 -0.00187 0.3083 0.0
O423 O 0.57387 0.98036 0.47565 0.0
O424 O 0.55936 0.00927 0.43022 0.0
O425 O 0.56788 0.94651 0.28386 0.0
C426 C 0.52143 0.99559 0.40166 0.0
O427 O 0.54824 0.95156 0.36769 0.0
C428 C 0.55147 -0.00186 0.0667 0.0
C429 C 0.55759 0.05812 0.23695 0.0
O430 O 0.52553 0.97972 0.30634 0.0
O431 O 0.53015 0.01316 0.44266 0.0
O432 O 0.54145 0.0109 0.10844 0.0
O433 O 0.55632 0.98341 0.15798 0.0
O434 O 0.54767 0.04647 0.29173 0.0
O435 O 0.56756 0.04153 0.21363 0.0
C436 C 0.59512 0.99686 0.20825 0.0
O437 O 0.59039 0.01076 0.30573 0.0
O438 O 0.58645 0.98223 0.14929 0.0
C439 C 0.56407 0.99355 0.5194 0.0
Tb440 Tb 0.17157 -0.00222 0.55076 0.0
C441 C 0.18585 0.93556 0.52765 0.0
Tb442 Tb 0.20008 -0.00162 0.53325 0.0
O443 O 0.17032 0.0195 0.36296 0.0
O444 O 0.18509 0.99172 0.40471 0.0
O445 O 0.17563 0.94924 0.56823 0.0
C446 C 0.22252 0.00015 0.43012 0.0
O447 O 0.19596 0.9508 0.49551 0.0
C448 C 0.19322 -0.00287 0.77702 0.0
C449 C 0.18584 0.05969 0.5902 0.0
O450 O 0.2189 0.98103 0.51689 0.0
O451 O 0.21352 0.01851 0.40241 0.0
O452 O 0.20463 0.99689 0.73861 0.0
O453 O 0.18661 -0.00287 0.67774 0.0
O454 O 0.19607 0.04718 0.54395 0.0
O455 O 0.17563 0.04386 0.61054 0.0
C456 C 0.14761 0.9928 0.60801 0.0
O457 O 0.15319 0.97849 0.51637 0.0
O458 O 0.15556 0.0095 0.66772 0.0
C459 C 0.18076 0.00921 0.32047 0.0
Tb460 Tb 0.5723 0.74661 0.5394 0.0
C461 C 0.5579 0.80662 0.47949 0.0
Tb462 Tb 0.54308 0.7446 0.51653 0.0
O463 O 0.57643 0.74307 0.33235 0.0
O464 O 0.55876 0.7421 0.39763 0.0
O465 O 0.56806 0.79493 0.53067 0.0
C466 C 0.52028 0.74497 0.42655 0.0
O467 O 0.548 0.79011 0.45165 0.0
C468 C 0.55019 0.75059 0.75877 0.0
C469 C 0.55731 0.68537 0.59494 0.0
O470 O 0.52516 0.76607 0.49654 0.0
O471 O 0.52827 0.72337 0.40702 0.0
O472 O 0.53878 0.74887 0.72176 0.0
O473 O 0.55662 0.74943 0.65841 0.0
O474 O 0.54714 0.69636 0.54092 0.0
O475 O 0.56728 0.7022 0.61606 0.0
C476 C 0.59543 0.74548 0.6191 0.0
O477 O 0.5897 0.72305 0.56508 0.0
O478 O 0.5881 0.76877 0.62947 0.0
C479 C 0.56501 0.74183 0.29612 0.0
Tb480 Tb 0.79354 0.7466 0.2603 0.0
C481 C 0.80682 0.80795 0.33235 0.0
Tb482 Tb 0.82278 0.74799 0.28407 0.0
O483 O 0.78927 0.74263 0.4657 0.0
O484 O 0.80712 0.74423 0.40291 0.0
O485 O 0.79688 0.79525 0.28044 0.0
C486 C 0.84597 0.74874 0.36368 0.0
O487 O 0.81722 0.79275 0.35418 0.0
C488 C 0.81547 0.75098 1.04044 0.0
C489 C 0.80923 0.68597 0.22991 0.0
O490 O 0.84026 0.77135 0.31054 0.0
O491 O 0.83854 0.72566 0.37404 0.0
O492 O 0.82689 0.75152 0.07692 0.0
O493 O 0.80921 0.74988 0.14168 0.0
O494 O 0.81915 0.69925 0.27949 0.0
O495 O 0.79897 0.70099 0.20127 0.0
C496 C 0.77076 0.746 0.16916 0.0
O497 O 0.77561 0.72499 0.23993 0.0
O498 O 0.77878 0.76748 0.14904 0.0
C499 C 0.80068 0.74255 0.50306 0.0
Tb500 Tb 0.45053 0.49691 0.26074 0.0
C501 C 0.43657 0.43688 0.3406 0.0
Tb502 Tb 0.42126 0.4975 0.28748 0.0
O503 O 0.4549 0.49999 0.46721 0.0
O504 O 0.43708 0.50079 0.40369 0.0
O505 O 0.44675 0.44848 0.28841 0.0
C506 C 0.39796 0.49892 0.36347 0.0
O507 O 0.42642 0.45308 0.36171 0.0
C508 C 0.42838 0.49309 1.0432 0.0
C509 C 0.43531 0.55855 0.23545 0.0
O510 O 0.40374 0.47491 0.32334 0.0
O511 O 0.40542 0.52206 0.36446 0.0
O512 O 0.41702 0.49353 0.08155 0.0
O513 O 0.43473 0.49424 0.14371 0.0
O514 O 0.42546 0.54572 0.28801 0.0
O515 O 0.44543 0.5431 0.20453 0.0
C516 C 0.47266 0.49599 0.15337 0.0
O517 O 0.46898 0.51571 0.23743 0.0
O518 O 0.46393 0.4764 0.13158 0.0
C519 C 0.44345 0.50114 0.5045 0.0
Tb520 Tb 0.79342 0.49465 0.08946 0.0
C521 C 0.80737 0.4343 1.01157 0.0
Tb522 Tb 0.82264 0.49492 0.06341 0.0
O523 O 0.78906 0.49773 0.88302 0.0
O524 O 0.80688 0.49831 0.94656 0.0
O525 O 0.79722 0.44608 0.06367 0.0
C526 C 0.84597 0.49651 0.9889 0.0
O527 O 0.81751 0.45048 0.98948 0.0
C528 C 0.81553 0.49049 0.30754 0.0
C529 C 0.80876 0.55616 0.11478 0.0
O530 O 0.84012 0.47229 1.02557 0.0
O531 O 0.83857 0.51974 0.99015 0.0
O532 O 0.82689 0.49076 0.26911 0.0
O533 O 0.80916 0.4918 0.20725 0.0
O534 O 0.81854 0.54318 0.06165 0.0
O535 O 0.79862 0.5408 0.14647 0.0
C536 C 0.77105 0.49375 0.19176 0.0
O537 O 0.77508 0.51415 0.11251 0.0
O538 O 0.7796 0.47365 0.21261 0.0
C539 C 0.80051 0.49873 0.8458 0.0
Tb540 Tb 0.45015 0.74948 0.08326 0.0
C541 C 0.43607 0.80936 1.0053 0.0
Tb542 Tb 0.42093 0.74855 0.0584 0.0
O543 O 0.45453 0.74629 0.87685 0.0
O544 O 0.4367 0.74543 0.9408 0.0
O545 O 0.44627 0.7979 0.05713 0.0
C546 C 0.39763 0.74934 0.9843 0.0
O547 O 0.426 0.79298 0.98379 0.0
C548 C 0.42806 0.75317 0.30215 0.0
C549 C 0.43499 0.68773 0.11119 0.0
O550 O 0.40371 0.77251 1.02761 0.0
O551 O 0.40476 0.72557 0.97998 0.0
O552 O 0.4167 0.7523 0.26435 0.0
O553 O 0.43442 0.75216 0.20152 0.0
O554 O 0.42507 0.70031 0.05902 0.0
O555 O 0.44508 0.70339 0.14129 0.0
C556 C 0.47241 0.75051 0.1865 0.0
O557 O 0.46837 0.72973 0.1091 0.0
O558 O 0.46393 0.77096 0.20476 0.0
C559 C 0.44308 0.74506 0.83993 0.0
Tb560 Tb 0.17156 0.24682 0.81848 0.0
C561 C 0.1857 0.30769 0.87235 0.0
Tb562 Tb 0.20086 0.24592 0.84268 0.0
O563 O 0.16745 0.24343 1.02583 0.0
O564 O 0.18511 0.24348 0.96081 0.0
O565 O 0.17579 0.29503 0.82033 0.0
C566 C 0.22348 0.24341 0.93903 0.0
O567 O 0.19583 0.29209 0.90161 0.0
C568 C 0.19377 0.25108 0.60006 0.0
C569 C 0.18661 0.18596 0.76512 0.0
O570 O 0.21923 0.26514 0.86768 0.0
O571 O 0.21495 0.22304 0.95642 0.0
O572 O 0.20519 0.2502 0.63745 0.0
O573 O 0.18732 0.24965 0.70023 0.0
O574 O 0.19685 0.19747 0.81604 0.0
O575 O 0.17653 0.20233 0.74407 0.0
C576 C 0.14838 0.24759 0.73904 0.0
O577 O 0.15396 0.22424 0.78785 0.0
O578 O 0.15593 0.2705 0.73263 0.0
C579 C 0.17887 0.24299 0.06228 0.0
Tb580 Tb 0.57203 0.49686 0.80919 0.0
C581 C 0.55814 0.43583 0.8595 0.0
Tb582 Tb 0.54367 0.49695 0.82849 0.0
O583 O 0.57653 0.49765 1.01528 0.0
O584 O 0.55868 0.49691 0.95436 0.0
O585 O 0.56776 0.44841 0.80175 0.0
C586 C 0.52048 0.50083 0.9098 0.0
O587 O 0.54862 0.45217 0.89899 0.0
C588 C 0.55239 0.48602 0.59588 0.0
C589 C 0.55727 0.55928 0.77129 0.0
O590 O 0.52443 0.48273 0.82132 0.0
O591 O 0.52957 0.5173 0.95102 0.0
O592 O 0.54176 0.4769 0.63821 0.0
O593 O 0.557 0.50302 0.68048 0.0
O594 O 0.54664 0.54579 0.80055 0.0
O595 O 0.56783 0.54407 0.76107 0.0
C596 C 0.59524 0.49625 0.73027 0.0
O597 O 0.59016 0.51769 0.79699 0.0
O598 O 0.58717 0.47517 0.70571 0.0
C599 C 0.56518 0.4969 0.0538 0.0
Tb600 Tb 0.1713 0.4979 0.05107 0.0
C601 C 0.18538 0.43699 0.998 0.0
Tb602 Tb 0.20052 0.49882 1.02714 0.0
O603 O 0.16717 0.50096 0.84404 0.0
O604 O 0.18485 0.50103 0.90851 0.0
O605 O 0.17541 0.4496 1.04927 0.0
C606 C 0.22331 0.49892 0.93514 0.0
O607 O 0.1955 0.45266 0.96875 0.0
C608 C 0.19342 0.49401 0.2698 0.0
C609 C 0.18633 0.55906 0.09967 0.0
O610 O 0.21862 0.47807 1.00805 0.0
O611 O 0.21511 0.51991 0.91349 0.0
O612 O 0.20484 0.49508 0.2323 0.0
O613 O 0.18697 0.49528 0.16985 0.0
O614 O 0.19659 0.54737 1.04945 0.0
O615 O 0.17627 0.5427 0.12257 0.0
C616 C 0.14811 0.49862 0.12964 0.0
O617 O 0.1539 0.52137 0.07856 0.0
O618 O 0.15544 0.47531 0.13827 0.0
C619 C 0.17859 0.50147 0.8074 0.0
Tb620 Tb 0.57308 0.24423 1.00317 0.0
C621 C 0.55877 0.30552 0.95859 0.0
Tb622 Tb 0.54376 0.24361 0.97675 0.0
O623 O 0.57733 0.24111 0.7969 0.0
O624 O 0.5596 0.24154 0.85968 0.0
O625 O 0.5689 0.29272 1.00564 0.0
C626 C 0.52153 0.24423 0.87183 0.0
O627 O 0.5488 0.28987 0.92519 0.0
C628 C 0.55085 0.247 0.22061 0.0
C629 C 0.55758 0.18329 0.05114 0.0
O630 O 0.52534 0.26287 0.95932 0.0
O631 O 0.53018 0.22474 0.84514 0.0
O632 O 0.53941 0.24593 0.1836 0.0
O633 O 0.55723 0.24673 0.11967 0.0
O634 O 0.54753 0.19527 0.99858 0.0
O635 O 0.56786 0.19907 0.07242 0.0
C636 C 0.59631 0.24396 0.08196 0.0
O637 O 0.59044 0.22075 1.0357 0.0
O638 O 0.58901 0.2674 0.0862 0.0
C639 C 0.56595 0.24064 0.759 0.0
C640 C 0.24382 0.26791 0.97749 0.0
C641 C 0.23578 0.24332 0.99849 0.0
C642 C 0.25543 0.26898 1.03558 0.0
C643 C 0.25938 0.24552 0.11669 0.0
H644 H 0.24112 0.28656 0.91608 0.0
H645 H 0.26134 0.28831 1.01645 0.0
S646 S 0.24179 0.17604 0.20239 0.0
N647 N 0.23255 0.19494 0.10571 0.0
N648 N 0.25439 0.1969 0.21486 0.0
C649 C 0.25144 0.22076 0.13839 0.0
C650 C 0.23962 0.21968 0.0792 0.0
C651 C 0.00556 0.01157 0.06834 0.0
C652 C 0.0087 0.99234 0.96617 0.0
C653 C 0.99379 0.01074 0.12328 0.0
C654 C 0.98473 0.99053 0.07862 0.0
H655 H 0.01225 0.02747 0.10628 0.0
H656 H 0.9918 0.02605 0.20157 0.0
S657 S 0.98829 0.93525 0.81376 0.0
N658 N 0.00181 0.95242 0.82247 0.0
N659 N 0.97966 0.95075 0.92625 0.0
C660 C 0.98773 0.97109 0.97669 0.0
C661 C -0.00027 0.97204 0.92028 0.0
C662 C 0.24332 0.977 0.3999 0.0
C663 C 0.23483 6e-05 0.36953 0.0
C664 C 0.255 0.97601 0.34258 0.0
C665 C 0.25861 -0.00187 0.2533 0.0
H666 H 0.24093 0.95947 0.4682 0.0
H667 H 0.26126 0.95789 0.3691 0.0
S668 S 0.2398 0.06338 0.14145 0.0
N669 N 0.23082 0.04552 0.24436 0.0
N670 N 0.25279 0.04383 0.13731 0.0
C671 C 0.25022 0.02135 0.22223 0.0
C672 C 0.23831 0.02228 0.28019 0.0
C673 C 0.00485 0.22326 0.27857 0.0
C674 C 0.00892 0.24639 0.36067 0.0
C675 C 0.99307 0.22432 0.22443 0.0
C676 C 0.98501 0.24857 0.25041 0.0
H677 H 0.01077 0.20416 0.25611 0.0
H678 H 0.99027 0.20592 0.16217 0.0
S679 S 0.99132 0.31497 0.45835 0.0
N680 N 0.00404 0.29439 0.46487 0.0
N681 N 0.98188 0.29632 0.36288 0.0
C682 C 0.98898 0.27193 0.33185 0.0
C683 C 0.00096 0.27084 0.38714 0.0
C684 C 0.74261 0.76727 0.9774 0.0
C685 C 0.73453 0.74294 1.00122 0.0
C686 C 0.75433 0.76816 1.03291 0.0
C687 C 0.75832 0.74476 0.11409 0.0
H688 H 0.73988 0.78583 0.91571 0.0
H689 H 0.76029 0.78727 1.01175 0.0
S690 S 0.74059 0.67605 0.20716 0.0
N691 N 0.73126 0.69494 0.11137 0.0
N692 N 0.75331 0.69656 0.21584 0.0
C693 C 0.75032 0.72028 0.13867 0.0
C694 C 0.7384 0.71937 0.08208 0.0
C695 C 0.74963 0.0153 0.70918 0.0
C696 C 0.75864 0.99421 0.74764 0.0
C697 C 0.738 0.01607 0.76742 0.0
C698 C 0.73498 0.99584 0.86644 0.0
H699 H 0.75156 0.03132 0.63323 0.0
H700 H 0.73132 0.03259 0.73431 0.0
S701 S 0.75541 0.93666 1.0042 0.0
N702 N 0.76383 0.95288 0.89192 0.0
N703 N 0.74198 0.95433 1.00162 0.0
C704 C 0.74392 0.97473 0.90632 0.0
C705 C 0.75576 0.97391 0.8468 0.0
C706 C 0.99359 0.72414 0.70871 0.0
C707 C 0.98511 0.74725 0.73855 0.0
C708 C 0.00511 0.72284 0.76836 0.0
C709 C 0.0085 0.74459 0.85986 0.0
H710 H 0.99133 0.70688 0.63881 0.0
H711 H 0.0114 0.70474 0.74217 0.0
S712 S 0.98952 0.80951 0.97272 0.0
N713 N 0.9808 0.79222 0.86607 0.0
N714 N 0.00247 0.78983 0.97837 0.0
C715 C 9e-05 0.76778 0.89091 0.0
C716 C 0.98837 0.76911 0.8301 0.0
C717 C 0.23925 0.72251 0.57104 0.0
C718 C 0.23506 0.74633 0.49327 0.0
C719 C 0.25087 0.72384 0.62836 0.0
C720 C 0.25864 0.74902 0.60952 0.0
H721 H 0.2335 0.70279 0.58851 0.0
H722 H 0.25377 0.70498 0.68767 0.0
S723 S 0.2519 0.81741 0.41488 0.0
N724 N 0.2395 0.79591 0.40061 0.0
N725 N 0.26139 0.79832 0.50824 0.0
C726 C 0.25458 0.77297 0.53178 0.0
C727 C 0.24275 0.77164 0.47356 0.0
C728 C 0.98915 0.47229 0.53288 0.0
C729 C 0.98526 0.49531 0.6165 0.0
C730 C 0.00069 0.47378 0.47348 0.0
C731 C 0.00868 0.4984 0.49553 0.0
H732 H 0.98326 0.45294 0.51323 0.0
H733 H 0.00338 0.45542 0.41041 0.0
S734 S 0.00274 0.56472 0.70524 0.0
N735 N 0.99021 0.54361 0.71781 0.0
N736 N 0.01192 0.54638 0.60582 0.0
C737 C 0.00488 0.52166 0.57839 0.0
C738 C 0.99314 0.52011 0.63911 0.0
C739 C 0.25086 0.51866 0.73055 0.0
C740 C 0.25913 0.49489 0.75711 0.0
C741 C 0.23931 0.52002 0.79 0.0
C742 C 0.23568 0.49763 0.87782 0.0
H743 H 0.2533 0.53638 0.66332 0.0
H744 H 0.23317 0.53859 0.76613 0.0
S745 S 0.25406 0.43088 0.98139 0.0
N746 N 0.26299 0.44865 0.87785 0.0
N747 N 0.24126 0.45112 0.98955 0.0
C748 C 0.24389 0.4738 0.90571 0.0
C749 C 0.25564 0.47244 0.84524 0.0
C750 C 0.7502 0.22737 0.62774 0.0
C751 C 0.75886 0.25005 0.59764 0.0
C752 C 0.73857 0.22695 0.57013 0.0
C753 C 0.73523 0.24919 0.48051 0.0
H754 H 0.75241 0.20976 0.69625 0.0
H755 H 0.73216 0.20909 0.59627 0.0
S756 S 0.75462 0.31342 0.3684 0.0
N757 N 0.76336 0.29525 0.47224 0.0
N758 N 0.74147 0.29451 0.36391 0.0
C759 C 0.7438 0.27202 0.44947 0.0
C760 C 0.75564 0.27243 0.50813 0.0
C761 C 0.73867 0.51855 0.27589 0.0
C762 C 0.73493 0.49649 0.36474 0.0
C763 C 0.75039 0.51737 0.22005 0.0
C764 C 0.75875 0.4941 0.2512 0.0
H765 H 0.73249 0.53681 0.24892 0.0
H766 H 0.7529 0.53486 0.15201 0.0
S767 S 0.75345 0.43095 0.47916 0.0
N768 N 0.74051 0.45072 0.48188 0.0
N769 N 0.76255 0.44859 0.37683 0.0
C770 C 0.75514 0.47192 0.34004 0.0
C771 C 0.74321 0.4731 0.39692 0.0
C772 C 0.49373 0.01365 0.60731 0.0
C773 C 0.48538 0.99031 0.57695 0.0
C774 C 0.50536 0.01511 0.54973 0.0
C775 C 0.50903 0.99343 0.45881 0.0
H776 H 0.49127 0.03105 0.67593 0.0
H777 H 0.5115 0.03349 0.57627 0.0
S778 S 0.49068 0.92739 0.34763 0.0
N779 N 0.48163 0.9447 0.45158 0.0
N780 N 0.50351 0.94759 0.34237 0.0
C781 C 0.5008 0.96989 0.42763 0.0
C782 C 0.48896 0.96828 0.48709 0.0
C783 C 0.48871 0.26775 0.80289 0.0
C784 C 0.48581 0.25085 0.69328 0.0
C785 C 0.50035 0.26551 0.85958 0.0
C786 C 0.50942 0.24607 0.80932 0.0
H787 H 0.48191 0.28259 0.8461 0.0
H788 H 0.50218 0.27886 0.9443 0.0
S789 S 0.50658 0.19779 0.52088 0.0
N790 N 0.49305 0.21471 0.53406 0.0
N791 N 0.51491 0.21034 0.64162 0.0
C792 C 0.50671 0.22934 0.6988 0.0
C793 C 0.49489 0.2318 0.64037 0.0
C794 C 0.49234 0.72474 0.22975 0.0
C795 C 0.48454 0.74988 0.24856 0.0
C796 C 0.50386 0.72315 0.28921 0.0
C797 C 0.50794 0.74667 0.36917 0.0
H798 H 0.48953 0.70608 0.16891 0.0
H799 H 0.50961 0.70344 0.2717 0.0
S800 S 0.49106 0.8177 0.44767 0.0
N801 N 0.4817 0.79893 0.35173 0.0
N802 N 0.5034 0.79605 0.46325 0.0
C803 C 0.50025 0.772 0.38861 0.0
C804 C 0.48851 0.77358 0.32824 0.0
C805 C 0.5052 0.51919 0.06905 0.0
C806 C 0.50804 0.50011 0.96568 0.0
C807 C 0.4937 0.51766 0.12922 0.0
C808 C 0.48468 0.49687 0.08845 0.0
H809 H 0.51196 0.5352 0.10479 0.0
H810 H 0.49191 0.53271 0.2089 0.0
S811 S 0.48742 0.44251 0.81946 0.0
N812 N 0.50083 0.46024 0.82301 0.0
N813 N 0.4792 0.45732 0.93664 0.0
C814 C 0.48734 0.47786 0.98439 0.0
C815 C 0.49904 0.47951 0.92272 0.0
C816 C 0.37935 0.22077 0.43562 0.0
C817 C 0.38552 0.24749 0.47165 0.0
C818 C 0.36668 0.22117 0.40876 0.0
C819 C 0.35993 0.24846 0.41398 0.0
H820 H 0.3843 0.19942 0.42958 0.0
H821 H 0.36222 0.20014 0.38109 0.0
S822 S 0.37194 0.32462 0.50081 0.0
N823 N 0.38401 0.30186 0.51135 0.0
N824 N 0.36031 0.30276 0.45699 0.0
C825 C 0.36603 0.27532 0.44899 0.0
C826 C 0.37882 0.27479 0.47888 0.0
C827 C 0.86464 0.01932 0.38346 0.0
C828 C 0.85889 0.99299 0.43113 0.0
C829 C 0.8772 0.01925 0.35053 0.0
C830 C 0.88438 0.99282 0.36385 0.0
H831 H 0.85945 0.0402 0.37264 0.0
H832 H 0.88131 0.04004 0.31479 0.0
S833 S 0.87359 0.91768 0.48086 0.0
N834 N 0.86127 0.93965 0.48756 0.0
N835 N 0.88477 0.93949 0.42565 0.0
C836 C 0.87869 0.96628 0.41013 0.0
C837 C 0.86596 0.96637 0.44374 0.0
C838 C 0.37841 0.97 0.89765 0.0
C839 C 0.3849 -0.0025 0.88484 0.0
C840 C 0.36593 0.96974 0.93212 0.0
C841 C 0.35946 0.997 0.95239 0.0
H842 H 0.38301 0.94846 0.88163 0.0
H843 H 0.3613 0.94803 0.94189 0.0
S844 S 0.37224 0.07508 0.931 0.0
N845 N 0.38401 0.05269 0.89638 0.0
N846 N 0.36044 0.05223 0.9583 0.0
C847 C 0.36581 0.02468 0.93935 0.0
C848 C 0.37859 0.02492 0.90645 0.0
C849 C 0.86556 0.22045 0.90737 0.0
C850 C 0.85887 0.24778 0.90168 0.0
C851 C 0.87817 0.2205 0.93577 0.0
C852 C 0.8844 0.24783 0.96144 0.0
H853 H 0.86105 0.19894 0.88806 0.0
H854 H 0.88303 0.19898 0.93932 0.0
S855 S 0.87094 0.32541 0.96104 0.0
N856 N 0.85932 0.30281 0.92453 0.0
N857 N 0.88297 0.30288 0.98023 0.0
C858 C 0.87778 0.27528 0.95705 0.0
C859 C 0.86501 0.27526 0.92655 0.0
C860 C 0.61501 0.77233 0.67062 0.0
C861 C 0.60853 0.74495 0.6541 0.0
C862 C 0.62766 0.7722 0.69739 0.0
C863 C 0.63411 0.74468 0.71072 0.0
H864 H 0.61032 0.79397 0.66101 0.0
H865 H 0.63236 0.79375 0.70972 0.0
S866 S 0.6213 0.66688 0.67745 0.0
N867 N 0.60945 0.68967 0.65239 0.0
N868 N 0.63316 0.68944 0.70542 0.0
C869 C 0.62771 0.71718 0.6952 0.0
C870 C 0.61491 0.71731 0.66617 0.0
C871 C 0.11657 0.01447 0.74593 0.0
C872 C 0.10845 0.99389 0.68728 0.0
C873 C 0.12925 0.01366 0.72042 0.0
C874 C 0.13426 0.99228 0.63511 0.0
H875 H 0.11312 0.03137 0.81219 0.0
H876 H 0.13514 0.03011 0.76727 0.0
S877 S 0.117 0.9326 0.46043 0.0
N878 N 0.10634 0.95093 0.54271 0.0
N879 N 0.13019 0.94955 0.49423 0.0
C880 C 0.12626 0.97144 0.57629 0.0
C881 C 0.11334 0.97222 0.60249 0.0
C882 C 0.62956 0.00977 0.23067 0.0
C883 C 0.63413 0.99503 0.12147 0.0
C884 C 0.6169 0.0105 0.25701 0.0
C885 C 0.60836 0.99637 0.17548 0.0
H886 H 0.6358 0.02102 0.29609 0.0
H887 H 0.6138 0.0221 0.34238 0.0
S888 S 0.6156 0.95456 0.87735 0.0
N889 N 0.62915 0.96591 0.93113 0.0
N890 N 0.60534 0.96713 0.98119 0.0
C891 C 0.6128 0.98146 0.0661 0.0
C892 C 0.6257 0.98082 1.03895 0.0
C893 C 0.11538 0.72047 0.17239 0.0
C894 C 0.10889 0.74767 0.15196 0.0
C895 C 0.12793 0.72082 0.20189 0.0
C896 C 0.13445 0.74836 0.20976 0.0
H897 H 0.1107 0.69873 0.16648 0.0
H898 H 0.13256 0.69934 0.2182 0.0
S899 S 0.12172 0.8258 0.16269 0.0
N900 N 0.10983 0.80288 0.14129 0.0
N901 N 0.13358 0.80351 0.19457 0.0
C902 C 0.12812 0.77574 0.18837 0.0
C903 C 0.11527 0.7754 0.16022 0.0
C904 C 0.36519 0.72237 0.91897 0.0
C905 C 0.35874 0.74983 0.90341 0.0
C906 C 0.37789 0.72233 0.94244 0.0
C907 C 0.38446 0.74976 0.95287 0.0
H908 H 0.36043 0.70079 0.9113 0.0
H909 H 0.38256 0.70073 0.95412 0.0
S910 S 0.37177 0.82773 0.92091 0.0
N911 N 0.3598 0.8051 0.90012 0.0
N912 N 0.38365 0.80502 0.94595 0.0
C913 C 0.3781 0.77735 0.93819 0.0
C914 C 0.36522 0.77739 0.91307 0.0
C915 C 0.87807 0.47017 0.90768 0.0
C916 C 0.88489 0.49733 0.90917 0.0
C917 C 0.86542 0.47022 0.93291 0.0
C918 C 0.85916 0.49748 0.95871 0.0
H919 H 0.88252 0.44867 0.88695 0.0
H920 H 0.8605 0.44877 0.93141 0.0
S921 S 0.87285 0.57464 0.97612 0.0
N922 N 0.88456 0.55213 0.94085 0.0
N923 N 0.86066 0.55226 0.98653 0.0
C924 C 0.86585 0.52482 0.96057 0.0
C925 C 0.87878 0.52473 0.93647 0.0
C926 C 0.36589 0.47212 0.44495 0.0
C927 C 0.35916 0.49938 0.45174 0.0
C928 C 0.37849 0.47228 0.41684 0.0
C929 C 0.3848 0.49973 0.39643 0.0
H930 H 0.36139 0.45046 0.4611 0.0
H931 H 0.38332 0.45074 0.41179 0.0
S932 S 0.3714 0.57729 0.40327 0.0
N933 N 0.35967 0.55454 0.43486 0.0
N934 N 0.38347 0.55486 0.38391 0.0
C935 C 0.37822 0.52718 0.40338 0.0
C936 C 0.36534 0.527 0.43034 0.0
C937 C 0.86538 0.72071 0.41133 0.0
C938 C 0.85918 0.7485 0.39478 0.0
C939 C 0.87811 0.71996 0.43368 0.0
C940 C 0.88496 0.74699 0.44222 0.0
H941 H 0.8604 0.69939 0.40514 0.0
H942 H 0.88257 0.69812 0.44618 0.0
S943 S 0.87301 0.82559 0.4063 0.0
N944 N 0.8608 0.80363 0.38772 0.0
N945 N 0.88467 0.80226 0.432 0.0
C946 C 0.87885 0.77491 0.42635 0.0
C947 C 0.86595 0.77565 0.40208 0.0
C948 C 0.62831 0.27174 0.16497 0.0
C949 C 0.63482 0.24447 0.18319 0.0
C950 C 0.61573 0.27143 0.13448 0.0
C951 C 0.60937 0.24383 0.11925 0.0
H952 H 0.63291 0.29346 0.17576 0.0
H953 H 0.61102 0.29291 0.12119 0.0
S954 S 0.6223 0.16624 0.15602 0.0
N955 N 0.63403 0.18919 0.1843 0.0
N956 N 0.61045 0.1886 0.12492 0.0
C957 C 0.6158 0.21643 0.13664 0.0
C958 C 0.62854 0.21675 0.16916 0.0
C959 C 0.11574 0.47067 0.19267 0.0
C960 C 0.10912 0.49794 0.20629 0.0
C961 C 0.12849 0.47101 0.17115 0.0
C962 C 0.13491 0.49864 0.16051 0.0
H963 H 0.11109 0.44894 0.2007 0.0
H964 H 0.13329 0.44954 0.16085 0.0
S965 S 0.12175 0.57622 0.18736 0.0
N966 N 0.10987 0.55323 0.20764 0.0
N967 N 0.13378 0.55387 0.16475 0.0
C968 C 0.12838 0.52604 0.17302 0.0
C969 C 0.11547 0.52569 0.19651 0.0
C970 C 0.62791 0.52249 0.67744 0.0
C971 C 0.63411 0.49539 0.6474 0.0
C972 C 0.61527 0.52247 0.70313 0.0
C973 C 0.60838 0.49545 0.69708 0.0
H974 H 0.63288 0.54385 0.68207 0.0
H975 H 0.61086 0.54382 0.7274 0.0
S976 S 0.62028 0.41854 0.62038 0.0
N977 N 0.63251 0.44084 0.61262 0.0
N978 N 0.6086 0.44093 0.6583 0.0
C979 C 0.61443 0.46822 0.66583 0.0
C980 C 0.62737 0.46815 0.64188 0.0
C981 C 0.1289 0.22056 0.68955 0.0
C982 C 0.13524 0.24815 0.70512 0.0
C983 C 0.11631 0.22017 0.66104 0.0
C984 C 0.10961 0.24736 0.64932 0.0
H985 H 0.1337 0.19906 0.69873 0.0
H986 H 0.11179 0.1984 0.64865 0.0
S987 S 0.12189 0.32563 0.68475 0.0
N988 N 0.13394 0.30336 0.70813 0.0
N989 N 0.11016 0.30264 0.65678 0.0
C990 C 0.1158 0.27514 0.66608 0.0
C991 C 0.12868 0.27554 0.69322 0.0
C992 C 0.31751 0.25425 0.68287 0.0
C993 C 0.30567 0.2445 0.64704 0.0
C994 C 0.32082 0.25695 0.81273 0.0
C995 C 0.31244 0.25005 0.91215 0.0
H996 H 0.32421 0.26027 0.61038 0.0
H997 H 0.33005 0.26466 0.83541 0.0
S998 S 0.28071 0.22055 0.86856 0.0
N999 N 0.28578 0.22617 0.722 0.0
N1000 N 0.29209 0.23084 0.96362 0.0
C1001 C 0.3007 0.23961 0.87711 0.0
C1002 C 0.29731 0.23693 0.74539 0.0
C1003 C 0.94798 -0.00207 0.72105 0.0
C1004 C 0.93934 0.99147 0.6242 0.0
C1005 C 0.94498 0.99496 0.85134 0.0
C1006 C 0.93332 0.98452 0.89084 0.0
H1007 H 0.95717 0.0055 0.69606 0.0
H1008 H 0.9519 0.00076 0.9215 0.0
S1009 S 0.90726 0.96486 0.67573 0.0
N1010 N 0.91846 0.97512 0.578 0.0
N1011 N 0.91297 0.96811 0.821 0.0
C1012 C 0.92459 0.97793 0.79485 0.0
C1013 C 0.92755 0.98177 0.66228 0.0
C1014 C 0.32023 0.98688 0.55615 0.0
C1015 C 0.31187 0.99398 0.45694 0.0
C1016 C 0.31693 0.98959 0.68617 0.0
C1017 C 0.30511 -0.00044 0.72249 0.0
H1018 H 0.32943 0.97899 0.53317 0.0
H1019 H 0.3236 0.9834 0.75841 0.0
S1020 S 0.28025 0.02416 0.50172 0.0
N1021 N 0.2916 0.01368 0.40627 0.0
N1022 N 0.28529 0.01835 0.64811 0.0
C1023 C 0.29678 0.00735 0.62435 0.0
C1024 C 0.30017 0.00467 0.49246 0.0
C1025 C 0.92352 0.25368 0.55705 0.0
C1026 C 0.93202 0.24778 0.45767 0.0
C1027 C 0.92683 0.25107 0.68686 0.0
C1028 C 0.93881 0.24239 0.72266 0.0
H1029 H 0.91418 0.26056 0.53438 0.0
H1030 H 0.92003 0.25634 0.75934 0.0
S1031 S 0.96421 0.22148 0.50106 0.0
N1032 N 0.95268 0.23076 0.40604 0.0
N1033 N 0.95901 0.22624 0.64766 0.0
C1034 C 0.94731 0.23584 0.62432 0.0
C1035 C 0.94392 0.23844 0.49262 0.0
C1036 C 0.67318 0.73805 0.30652 0.0
C1037 C 0.68169 0.7438 0.20696 0.0
C1038 C 0.67647 0.741 0.43627 0.0
C1039 C 0.68843 0.74991 0.47191 0.0
H1040 H 0.66386 0.73103 0.28403 0.0
H1041 H 0.66967 0.73583 0.50887 0.0
S1042 S 0.71383 0.7705 0.24978 0.0
N1043 N 0.70234 0.76085 0.155 0.0
N1044 N 0.70861 0.76608 0.39649 0.0
C1045 C 0.69694 0.75631 0.37339 0.0
C1046 C 0.69356 0.75333 0.24174 0.0
C1047 C 0.05175 0.01244 0.21814 0.0
C1048 C 0.06077 0.99242 0.17006 0.0
C1049 C 0.04891 0.01352 0.34975 0.0
C1050 C 0.05492 0.99464 0.43942 0.0
H1051 H 0.04694 0.02764 0.15397 0.0
H1052 H 0.04194 0.02947 0.3816 0.0
S1053 S 0.07876 0.93696 0.36259 0.0
N1054 N 0.0754 0.95245 0.22349 0.0
N1055 N 0.06999 0.95447 0.46838 0.0
C1056 C 0.06383 0.97429 0.3923 0.0
C1057 C 0.06674 0.97318 0.25859 0.0
C1058 C 0.69417 0.99072 0.63045 0.0
C1059 C 0.68398 0.00791 0.67202 0.0
C1060 C 0.69683 0.98709 0.49967 0.0
C1061 C 0.68928 -8e-05 0.40426 0.0
H1062 H 0.70018 0.97996 0.69949 0.0
H1063 H 0.70488 0.97397 0.47299 0.0
S1064 S 0.66183 0.04833 0.46123 0.0
N1065 N 0.66654 0.03895 0.60569 0.0
N1066 N 0.6715 0.03168 0.36151 0.0
C1067 C 0.67911 0.01725 0.44429 0.0
C1068 C 0.67648 0.02137 0.57751 0.0
C1069 C 0.04584 0.748 0.49548 0.0
C1070 C 0.05458 0.74522 0.3958 0.0
C1071 C 0.04926 0.74571 0.62513 0.0
C1072 C 0.06156 0.74032 0.66066 0.0
H1073 H 0.03624 0.75214 0.47322 0.0
H1074 H 0.04225 0.74852 0.69773 0.0
S1075 S 0.08792 0.72984 0.43751 0.0
N1076 N 0.07601 0.73596 0.34315 0.0
N1077 N 0.08247 0.73143 0.58435 0.0
C1078 C 0.07035 0.73715 0.56179 0.0
C1079 C 0.06686 0.73965 0.43026 0.0
C1080 C 0.29557 0.74337 0.25111 0.0
C1081 C 0.30429 0.74648 0.15141 0.0
C1082 C 0.29898 0.74588 0.38076 0.0
C1083 C 0.31124 0.75182 0.4162 0.0
H1084 H 0.286 0.73879 0.22888 0.0
H1085 H 0.29199 0.74279 0.45343 0.0
S1086 S 0.33751 0.76354 0.19295 0.0
N1087 N 0.32564 0.75679 0.09869 0.0
N1088 N 0.33207 0.76172 0.33981 0.0
C1089 C 0.32 0.75538 0.31731 0.0
C1090 C 0.31653 0.75266 0.18583 0.0
C1091 C 0.9446 0.49597 0.38319 0.0
C1092 C 0.93231 0.49046 0.41907 0.0
C1093 C 0.94801 0.49835 0.25342 0.0
C1094 C 0.93927 0.49553 0.15398 0.0
H1095 H 0.95161 0.49886 0.45561 0.0
H1096 H 0.9576 0.50262 0.23087 0.0
S1097 S 0.90597 0.47954 0.1967 0.0
N1098 N 0.91143 0.48123 0.34338 0.0
N1099 N 0.91787 0.48588 0.10201 0.0
C1100 C 0.927 0.48976 0.18882 0.0
C1101 C 0.92353 0.48718 0.32046 0.0
C1102 C 0.29943 0.49854 0.98074 0.0
C1103 C 0.31172 0.49299 0.94486 0.0
C1104 C 0.296 0.50082 0.11054 0.0
C1105 C 0.30472 0.49788 0.21007 0.0
H1106 H 0.29243 0.50152 0.90831 0.0
H1107 H 0.28641 0.50511 0.13302 0.0
S1108 S 0.33803 0.48194 0.16744 0.0
N1109 N 0.33259 0.48371 1.02073 0.0
N1110 N 0.32612 0.48818 0.26208 0.0
C1111 C 0.31699 0.4921 0.17522 0.0
C1112 C 0.32049 0.48962 1.04357 0.0
C1113 C 0.94489 0.74277 0.96306 0.0
C1114 C 0.9326 0.74833 0.92752 0.0
C1115 C 0.9483 0.74032 0.09275 0.0
C1116 C 0.93956 0.74307 0.19246 0.0
H1117 H 0.9519 0.7399 0.89048 0.0
H1118 H 0.95789 0.73605 0.115 0.0
S1119 S 0.90625 0.75903 0.15076 0.0
N1120 N 0.91172 0.75753 1.00393 0.0
N1121 N 0.91814 0.75258 0.24505 0.0
C1122 C 0.92729 0.74883 0.15796 0.0
C1123 C 0.92382 0.75154 1.02644 0.0
C1124 C 0.69442 0.25088 0.71396 0.0
C1125 C 0.68224 0.244 0.67836 0.0
C1126 C 0.69779 0.25352 0.84368 0.0
C1127 C 0.68913 0.24959 0.94337 0.0
H1128 H 0.70136 0.25464 0.64136 0.0
H1129 H 0.7073 0.25884 0.86598 0.0
S1130 S 0.65616 0.22987 0.9014 0.0
N1131 N 0.66156 0.23233 0.75459 0.0
N1132 N 0.66793 0.23747 0.99583 0.0
C1133 C 0.67698 0.24247 0.90879 0.0
C1134 C 0.67354 0.23963 0.77722 0.0
C1135 C 0.06647 0.50084 0.92415 0.0
C1136 C 0.05452 0.49198 0.96034 0.0
C1137 C 0.06978 0.50342 0.79426 0.0
C1138 C 0.06129 0.4973 0.6952 0.0
H1139 H 0.07326 0.5063 0.99638 0.0
H1140 H 0.0791 0.51045 0.77127 0.0
S1141 S 0.02921 0.47023 0.73977 0.0
N1142 N 0.03439 0.47527 0.88618 0.0
N1143 N 0.0407 0.47975 0.64429 0.0
C1144 C 0.04943 0.48774 0.73054 0.0
C1145 C 0.04604 0.48516 0.86236 0.0
C1146 C 0.69391 0.49663 0.12498 0.0
C1147 C 0.6816 0.50195 0.16085 0.0
C1148 C 0.69731 0.49405 0.99528 0.0
C1149 C 0.68855 0.49646 0.8959 0.0
H1150 H 0.70094 0.49411 0.19737 0.0
H1151 H 0.70691 0.49 0.97277 0.0
S1152 S 0.65516 0.5113 0.93847 0.0
N1153 N 0.66066 0.51026 0.08512 0.0
N1154 N 0.66708 0.50514 0.84383 0.0
C1155 C 0.67625 0.5019 0.93067 0.0
C1156 C 0.67279 0.50471 0.06225 0.0
C1157 C 0.04651 0.24827 0.99085 0.0
C1158 C 0.05523 0.24516 0.8912 0.0
C1159 C 0.04994 0.2462 0.12056 0.0
C1160 C 0.06223 0.24074 0.15613 0.0
H1161 H 0.03692 0.25253 0.96853 0.0
H1162 H 0.04294 0.24924 0.19317 0.0
S1163 S 0.08854 0.2293 0.93313 0.0
N1164 N 0.07662 0.23536 0.83866 0.0
N1165 N 0.08311 0.23135 0.07997 0.0
C1166 C 0.071 0.23721 0.05731 0.0
C1167 C 0.0675 0.23945 0.92574 0.0
C1168 C 0.7958 0.242 0.24264 0.0
C1169 C 0.80451 0.24522 0.14288 0.0
C1170 C 0.79921 0.24439 0.37234 0.0
C1171 C 0.81148 0.25034 0.40788 0.0
H1172 H 0.78623 0.23741 0.22042 0.0
H1173 H 0.79223 0.24116 0.44496 0.0
S1174 S 0.83772 0.26232 0.18463 0.0
N1175 N 0.82585 0.25561 0.0903 0.0
N1176 N 0.83229 0.26037 0.33148 0.0
C1177 C 0.82022 0.25401 0.30894 0.0
C1178 C 0.81675 0.25139 0.17739 0.0
C1179 C 0.42401 0.98697 0.28019 0.0
C1180 C 0.43248 0.99298 0.37957 0.0
C1181 C 0.42734 0.98951 0.15018 0.0
C1182 C 0.43933 -0.00177 0.11393 0.0
H1183 H 0.41467 0.98006 0.30304 0.0
H1184 H 0.42056 0.98415 0.07788 0.0
S1185 S 0.46461 0.01982 0.33505 0.0
N1186 N 0.4531 0.0104 0.43038 0.0
N1187 N 0.45946 0.01475 0.18858 0.0
C1188 C 0.44779 0.00495 0.21221 0.0
C1189 C 0.44437 0.00243 0.34412 0.0
C1190 C 0.79913 -0.00081 0.96779 0.0
C1191 C 0.81129 0.99214 0.93162 0.0
C1192 C 0.79573 0.0014 0.09777 0.0
C1193 C 0.80434 0.9969 0.1973 0.0
H1194 H 0.79223 0.00346 0.8955 0.0
H1195 H 0.78624 0.0069 0.1204 0.0
S1196 S 0.83722 0.97625 0.15383 0.0
N1197 N 0.83188 0.97953 1.00719 0.0
N1198 N 0.82545 0.98382 0.24874 0.0
C1199 C 0.81646 0.98953 0.1621 0.0
C1200 C 0.81993 0.98714 1.03028 0.0
C1201 C 0.44381 0.23453 0.96972 0.0
C1202 C 0.43402 0.25288 0.92684 0.0
C1203 C 0.44589 0.22977 0.10078 0.0
C1204 C 0.43822 0.24306 0.19416 0.0
H1205 H 0.44992 0.22372 0.90155 0.0
H1206 H 0.45362 0.21575 0.12903 0.0
S1207 S 0.41112 0.29248 0.13231 0.0
N1208 N 0.41654 0.28433 0.98917 0.0
N1209 N 0.42025 0.27471 0.23356 0.0
C1210 C 0.42832 0.26113 0.15232 0.0
C1211 C 0.42628 0.26627 1.01934 0.0
C1212 C 0.17667 0.74162 0.93666 0.0
C1213 C 0.18869 0.74999 0.97225 0.0
C1214 C 0.17337 0.73866 0.80691 0.0
C1215 C 0.18195 0.74384 0.70739 0.0
H1216 H 0.16982 0.73687 1.00927 0.0
H1217 H 0.164 0.7321 0.7844 0.0
S1218 S 0.21429 0.76904 0.75012 0.0
N1219 N 0.209 0.76515 0.89683 0.0
N1220 N 0.20275 0.75969 0.6554 0.0
C1221 C 0.19389 0.7528 0.74214 0.0
C1222 C 0.19726 0.75586 0.87374 0.0
C1223 C 0.55194 0.01476 0.70709 0.0
C1224 C 0.56069 0.99411 0.65851 0.0
C1225 C 0.5491 0.01586 0.83871 0.0
C1226 C 0.55487 0.99638 0.92789 0.0
H1227 H 0.54733 0.03043 0.64328 0.0
H1228 H 0.54236 0.03232 0.87099 0.0
S1229 S 0.57785 0.93676 0.84949 0.0
N1230 N 0.57473 0.95278 0.71083 0.0
N1231 N 0.56935 0.95489 0.95583 0.0
C1232 C 0.56349 0.97537 0.88025 0.0
C1233 C 0.56638 0.97421 0.74653 0.0
C1234 C 0.19739 0.98872 1.00984 0.0
C1235 C 0.18942 -0.00037 0.9139 0.0
C1236 C 0.19461 0.99209 0.14051 0.0
C1237 C 0.18384 0.00714 0.18137 0.0
H1238 H 0.20587 0.97728 0.98371 0.0
H1239 H 0.20096 0.98282 0.20999 0.0
S1240 S 0.16033 0.04203 0.96911 0.0
N1241 N 0.17057 0.02732 0.87017 0.0
N1242 N 0.16536 0.03408 0.11388 0.0
C1243 C 0.1759 0.01869 0.08638 0.0
C1244 C 0.17867 0.01482 0.95338 0.0
C1245 C 0.56612 0.74107 0.93096 0.0
C1246 C 0.55415 0.74982 0.89524 0.0
C1247 C 0.56941 0.73824 0.06075 0.0
C1248 C 0.56089 0.74394 0.16016 0.0
H1249 H 0.57293 0.7359 0.85844 0.0
H1250 H 0.57875 0.73135 0.08338 0.0
S1251 S 0.52872 0.77047 0.11693 0.0
N1252 N 0.53396 0.76598 0.97029 0.0
N1253 N 0.54021 0.76087 0.21189 0.0
C1254 C 0.549 0.75334 0.12528 0.0
C1255 C 0.54563 0.75623 0.9936 0.0
C1256 C 0.8165 0.75287 0.67541 0.0
C1257 C 0.80463 0.7434 0.63953 0.0
C1258 C 0.8198 0.75552 0.80523 0.0
C1259 C 0.81137 0.74885 0.90447 0.0
H1260 H 0.82323 0.75872 0.603 0.0
H1261 H 0.82905 0.76302 0.82802 0.0
S1262 S 0.77952 0.72021 0.86073 0.0
N1263 N 0.78464 0.72561 0.71421 0.0
N1264 N 0.79093 0.73023 0.95589 0.0
C1265 C 0.79959 0.7387 0.86942 0.0
C1266 C 0.79621 0.73606 0.73772 0.0
C1267 C 0.44461 0.49976 0.87011 0.0
C1268 C 0.43232 0.49422 0.90605 0.0
C1269 C 0.44804 0.50206 0.74034 0.0
C1270 C 0.43931 0.49923 0.6408 0.0
H1271 H 0.45161 0.50274 0.94245 0.0
H1272 H 0.45764 0.50629 0.71791 0.0
S1273 S 0.40597 0.48369 0.68337 0.0
N1274 N 0.41143 0.48521 0.83008 0.0
N1275 N 0.41789 0.48992 0.58876 0.0
C1276 C 0.42703 0.4936 0.67564 0.0
C1277 C 0.42354 0.49101 0.80729 0.0
C1278 C 0.79931 0.49691 0.48047 0.0
C1279 C 0.81162 0.49165 0.44461 0.0
C1280 C 0.79589 0.49929 0.61019 0.0
C1281 C 0.80464 0.49676 0.70962 0.0
H1282 H 0.79229 0.49956 0.40808 0.0
H1283 H 0.78628 0.50332 0.63267 0.0
S1284 S 0.83803 0.482 0.66714 0.0
N1285 N 0.83256 0.48323 0.52045 0.0
N1286 N 0.8261 0.48803 0.76175 0.0
C1287 C 0.81694 0.49137 0.67486 0.0
C1288 C 0.82042 0.48874 0.54327 0.0
C1289 C 0.4477 0.7442 0.60415 0.0
C1290 C 0.43896 0.74698 0.70384 0.0
C1291 C 0.44428 0.74659 0.4745 0.0
C1292 C 0.43199 0.75209 0.43901 0.0
H1293 H 0.45729 0.73998 0.62639 0.0
H1294 H 0.4513 0.74376 0.40187 0.0
S1295 S 0.40564 0.76272 0.66224 0.0
N1296 N 0.41754 0.7564 0.75652 0.0
N1297 N 0.4111 0.76117 0.5154 0.0
C1298 C 0.42321 0.75529 0.53791 0.0
C1299 C 0.42668 0.75267 0.6694 0.0
C1300 C 0.17453 0.23892 0.29781 0.0
C1301 C 0.18301 0.24502 0.19835 0.0
C1302 C 0.17785 0.24153 0.42764 0.0
C1303 C 0.18981 0.2504 0.46346 0.0
H1304 H 0.16521 0.23189 0.27517 0.0
H1305 H 0.17107 0.23611 0.50012 0.0
S1306 S 0.21509 0.27207 0.24184 0.0
N1307 N 0.2036 0.26257 0.1468 0.0
N1308 N 0.20993 0.26706 0.38844 0.0
C1309 C 0.19827 0.25719 0.36508 0.0
C1310 C 0.19487 0.2546 0.23335 0.0
C1311 C 0.56696 0.49912 0.41705 0.0
C1312 C 0.55541 0.48809 0.4569 0.0
C1313 C 0.56988 0.50212 0.28673 0.0
C1314 C 0.5613 0.49481 0.1903 0.0
H1315 H 0.57384 0.50537 0.48713 0.0
H1316 H 0.57897 0.51035 0.26134 0.0
S1317 S 0.5297 0.46514 0.24284 0.0
N1318 N 0.53531 0.46963 0.38801 0.0
N1319 N 0.54076 0.476 0.14452 0.0
C1320 C 0.54968 0.48404 0.22862 0.0
C1321 C 0.54676 0.48046 0.36136 0.0
C1322 C 0.17753 0.50344 0.44259 0.0
C1323 C 0.18947 0.4945 0.4063 0.0
C1324 C 0.17422 0.5059 0.57251 0.0
C1325 C 0.1827 0.49957 0.67139 0.0
H1326 H 0.17076 0.50905 0.37044 0.0
H1327 H 0.16492 0.513 0.59566 0.0
S1328 S 0.21473 0.47216 0.62644 0.0
N1329 N 0.20957 0.47744 0.48013 0.0
N1330 N 0.20326 0.48171 0.72208 0.0
C1331 C 0.19455 0.4899 0.63594 0.0
C1332 C 0.19793 0.48745 0.50413 0.0
C1333 C 0.54631 0.24923 0.4565 0.0
C1334 C 0.55499 0.24543 0.35684 0.0
C1335 C 0.54975 0.24738 0.58627 0.0
C1336 C 0.562 0.24133 0.62205 0.0
H1337 H 0.53675 0.25391 0.43413 0.0
H1338 H 0.5428 0.25113 0.65869 0.0
S1339 S 0.58816 0.22788 0.39921 0.0
N1340 N 0.57629 0.23439 0.30462 0.0
N1341 N 0.58276 0.23059 0.54601 0.0
C1342 C 0.57071 0.23709 0.52323 0.0
C1343 C 0.56722 0.2392 0.39157 0.0
C1344 C 0.31826 0.38769 0.4465 0.0
C1345 C 0.30714 0.40317 0.47059 0.0
C1346 C 0.31835 0.35748 0.40371 0.0
C1347 C 0.30732 0.34143 0.38134 0.0
H1348 H 0.32704 0.39888 0.46173 0.0
H1349 H 0.3272 0.34669 0.3876 0.0
S1350 S 0.27563 0.37162 0.4271 0.0
N1351 N 0.28472 0.40015 0.4672 0.0
N1352 N 0.2849 0.34347 0.38629 0.0
C1353 C 0.2961 0.35668 0.40384 0.0
C1354 C 0.29601 0.38744 0.44874 0.0
C1355 C 0.94753 0.85313 0.41988 0.0
C1356 C 0.93646 0.83762 0.44743 0.0
C1357 C 0.94745 0.88309 0.37252 0.0
C1358 C 0.93631 0.89882 0.35233 0.0
H1359 H 0.95632 0.84196 0.43367 0.0
H1360 H 0.95619 0.89416 0.3539 0.0
S1361 S 0.90477 0.86853 0.40936 0.0
N1362 N 0.91404 0.84052 0.45093 0.0
N1363 N 0.9139 0.89632 0.362 0.0
C1364 C 0.92519 0.8835 0.37918 0.0
C1365 C 0.92526 0.85308 0.42665 0.0
C1366 C 0.31763 0.88651 0.96431 0.0
C1367 C 0.30661 0.90271 0.98534 0.0
C1368 C 0.31753 0.85644 0.92009 0.0
C1369 C 0.30641 0.84122 0.89327 0.0
H1370 H 0.32648 0.89707 0.98256 0.0
H1371 H 0.32631 0.84515 0.90604 0.0
S1372 S 0.27492 0.87331 0.9319 0.0
N1373 N 0.2842 0.90115 0.97591 0.0
N1374 N 0.284 0.84468 0.89231 0.0
C1375 C 0.29529 0.8571 0.91368 0.0
C1376 C 0.29539 0.88775 0.96003 0.0
C1377 C 0.94699 0.38453 0.91128 0.0
C1378 C 0.93593 0.40086 0.89404 0.0
C1379 C 0.94696 0.35444 0.95711 0.0
C1380 C 0.93585 0.33933 0.98621 0.0
H1381 H 0.95578 0.39512 0.89051 0.0
H1382 H 0.9557 0.34281 0.96781 0.0
S1383 S 0.90432 0.37187 0.95912 0.0
N1384 N 0.91353 0.39939 0.9106 0.0
N1385 N 0.91348 0.34331 0.99652 0.0
C1386 C 0.92473 0.35543 0.96971 0.0
C1387 C 0.92476 0.38601 0.92379 0.0
C1388 C 0.69673 0.63762 0.70291 0.0
C1389 C 0.68561 0.65287 0.73052 0.0
C1390 C 0.69677 0.60757 0.65648 0.0
C1391 C 0.68569 0.59146 0.63709 0.0
H1392 H 0.70548 0.6491 0.71554 0.0
H1393 H 0.70555 0.5968 0.63719 0.0
S1394 S 0.65403 0.62096 0.69653 0.0
N1395 N 0.66322 0.64927 0.73653 0.0
N1396 N 0.66326 0.59338 0.649 0.0
C1397 C 0.67451 0.6065 0.66479 0.0
C1398 C 0.67448 0.637 0.7115 0.0
C1399 C 0.06839 0.10449 0.69013 0.0
C1400 C 0.05727 0.08856 0.70822 0.0
C1401 C 0.06846 0.13482 0.64869 0.0
C1402 C 0.05741 0.15039 0.62153 0.0
H1403 H 0.07714 0.09353 0.70908 0.0
H1404 H 0.07728 0.14605 0.63721 0.0
S1405 S 0.02577 0.11862 0.6502 0.0
N1406 N 0.03489 0.09046 0.69386 0.0
N1407 N 0.035 0.14729 0.61532 0.0
C1408 C 0.04621 0.13461 0.63813 0.0
C1409 C 0.04614 0.1038 0.68177 0.0
C1410 C 0.67633 0.10935 0.13259 0.0
C1411 C 0.68734 0.09296 0.11391 0.0
C1412 C 0.67644 0.1395 0.17531 0.0
C1413 C 0.68756 0.15469 0.20268 0.0
H1414 H 0.66748 0.09882 0.1145 0.0
H1415 H 0.66766 0.15085 0.18803 0.0
S1416 S 0.71902 0.12221 0.16897 0.0
N1417 N 0.70975 0.09432 0.12543 0.0
N1418 N 0.70996 0.15106 0.20604 0.0
C1419 C 0.69868 0.13868 0.18401 0.0
C1420 C 0.69857 0.10789 0.13932 0.0
C1421 C 0.04658 0.63451 0.15374 0.0
C1422 C 0.05766 0.65034 0.13129 0.0
C1423 C 0.04662 0.60439 0.19888 0.0
C1424 C 0.05774 0.58881 0.222 0.0
H1425 H 0.03778 0.64557 0.13812 0.0
H1426 H 0.03785 0.59317 0.21421 0.0
S1427 S 0.08934 0.6199 0.17749 0.0
N1428 N 0.0801 0.64787 0.13467 0.0
N1429 N 0.08017 0.59173 0.21971 0.0
C1430 C 0.06889 0.60437 0.1995 0.0
C1431 C 0.06885 0.63497 0.15416 0.0
C1432 C 0.7963 0.38584 0.95223 0.0
C1433 C 0.80742 0.40189 0.96984 0.0
C1434 C 0.79625 0.35564 0.90758 0.0
C1435 C 0.80732 0.34019 0.88008 0.0
H1436 H 0.78755 0.39675 0.9717 0.0
H1437 H 0.78747 0.34421 0.89635 0.0
S1438 S 0.83898 0.37188 0.90943 0.0
N1439 N 0.82985 0.39971 0.95607 0.0
N1440 N 0.82972 0.34353 0.87193 0.0
C1441 C 0.8185 0.35601 0.89717 0.0
C1442 C 0.81856 0.38665 0.94204 0.0
C1443 C 0.44694 0.88639 0.882 0.0
C1444 C 0.43581 0.90216 0.86105 0.0
C1445 C 0.44701 0.85669 0.93177 0.0
C1446 C 0.43595 0.84149 0.96134 0.0
H1447 H 0.4557 0.89713 0.86111 0.0
H1448 H 0.4558 0.84542 0.94504 0.0
S1449 S 0.40427 0.8727 0.92555 0.0
N1450 N 0.4134 0.90012 0.87448 0.0
N1451 N 0.41354 0.84478 0.96828 0.0
C1452 C 0.42476 0.85706 0.94134 0.0
C1453 C 0.42468 0.88723 0.8912 0.0
C1454 C 0.81734 0.85605 0.39906 0.0
C1455 C 0.8063 0.84036 0.37324 0.0
C1456 C 0.81728 0.88629 0.44121 0.0
C1457 C 0.80618 0.90219 0.46102 0.0
H1458 H 0.82618 0.84499 0.38612 0.0
H1459 H 0.82607 0.89718 0.45914 0.0
S1460 S 0.77465 0.87175 0.4073 0.0
N1461 N 0.78388 0.84321 0.37037 0.0
N1462 N 0.78378 0.90001 0.45008 0.0
C1463 C 0.79504 0.88684 0.4359 0.0
C1464 C 0.7951 0.85602 0.39169 0.0
C1465 C 0.44768 0.35899 0.45321 0.0
C1466 C 0.43658 0.34325 0.47598 0.0
C1467 C 0.44765 0.38909 0.40749 0.0
C1468 C 0.43652 0.40466 0.38399 0.0
H1469 H 0.45646 0.34784 0.46835 0.0
H1470 H 0.45641 0.40027 0.39152 0.0
S1471 S 0.40491 0.37372 0.43067 0.0
N1472 N 0.41415 0.34582 0.47391 0.0
N1473 N 0.41408 0.4018 0.38739 0.0
C1474 C 0.42537 0.38918 0.40759 0.0
C1475 C 0.4254 0.35867 0.45376 0.0
C1476 C 0.19704 0.60705 0.16975 0.0
C1477 C 0.18607 0.59157 0.13912 0.0
C1478 C 0.19681 0.63714 0.21536 0.0
C1479 C 0.18562 0.65309 0.23084 0.0
H1480 H 0.20586 0.59569 0.1608 0.0
H1481 H 0.20551 0.64801 0.23767 0.0
S1482 S 0.15431 0.62308 0.15996 0.0
N1483 N 0.16371 0.59481 0.12443 0.0
N1484 N 0.16327 0.65093 0.21004 0.0
C1485 C 0.1746 0.63791 0.19901 0.0
C1486 C 0.17483 0.60732 0.15327 0.0
C1487 C 0.56835 0.10585 0.16873 0.0
C1488 C 0.55728 0.09016 0.19207 0.0
C1489 C 0.56834 0.13578 0.12247 0.0
C1490 C 0.55724 0.15117 0.09562 0.0
H1491 H 0.57715 0.09502 0.18708 0.0
H1492 H 0.57714 0.14685 0.10714 0.0
S1493 S 0.52565 0.11994 0.13745 0.0
N1494 N 0.53486 0.09212 0.18305 0.0
N1495 N 0.53482 0.1482 0.09568 0.0
C1496 C 0.54607 0.13563 0.11749 0.0
C1497 C 0.54609 0.10524 0.16596 0.0
C1498 C 0.19711 0.10798 0.64713 0.0
C1499 C 0.18591 0.09223 0.63005 0.0
C1500 C 0.19734 0.13803 0.69336 0.0
C1501 C 0.18637 0.15362 0.72327 0.0
H1502 H 0.20581 0.09691 0.62643 0.0
H1503 H 0.20617 0.14923 0.70409 0.0
S1504 S 0.15455 0.12268 0.69718 0.0
N1505 N 0.16352 0.09482 0.64732 0.0
N1506 N 0.16397 0.15071 0.73472 0.0
C1507 C 0.17511 0.13811 0.70677 0.0
C1508 C 0.17487 0.10763 0.66005 0.0
C1509 C 0.54638 0.60615 0.6924 0.0
C1510 C 0.55729 0.59191 0.73398 0.0
C1511 C 0.54647 0.63619 0.64644 0.0
C1512 C 0.55745 0.65329 0.64104 0.0
H1513 H 0.53773 0.59384 0.69263 0.0
H1514 H 0.53783 0.64603 0.6152 0.0
S1515 S 0.58848 0.6268 0.74395 0.0
N1516 N 0.57931 0.59759 0.77095 0.0
N1517 N 0.57954 0.65357 0.68426 0.0
C1518 C 0.5684 0.63937 0.68433 0.0
C1519 C 0.5683 0.60886 0.73084 0.0
C1520 C 0.29947 0.1376 0.2022 0.0
C1521 C 0.3106 0.15382 0.21389 0.0
C1522 C 0.29938 0.10639 0.17564 0.0
C1523 C 0.31041 0.09005 0.1578 0.0
H1524 H 0.2907 0.14903 0.21458 0.0
H1525 H 0.29053 0.09509 0.16803 0.0
S1526 S 0.3421 0.12184 0.17659 0.0
N1527 N 0.333 0.15119 0.20482 0.0
N1528 N 0.33284 0.09255 0.15396 0.0
C1529 C 0.32163 0.10598 0.16855 0.0
C1530 C 0.32173 0.1378 0.19705 0.0
C1531 C 0.94553 0.13588 0.17975 0.0
C1532 C 0.93437 0.1519 0.16622 0.0
C1533 C 0.94568 0.10463 0.20649 0.0
C1534 C 0.93468 0.08806 0.22274 0.0
H1535 H 0.95428 0.14744 0.16746 0.0
H1536 H 0.95454 0.09338 0.21387 0.0
S1537 S 0.90292 0.11951 0.20329 0.0
N1538 N 0.91197 0.14895 0.1754 0.0
N1539 N 0.91225 0.09036 0.22633 0.0
C1540 C 0.92343 0.10392 0.21237 0.0
C1541 C 0.92328 0.13574 0.18374 0.0
C1542 C 0.69507 0.88571 0.98274 0.0
C1543 C 0.6841 0.90269 0.99177 0.0
C1544 C 0.69492 0.85477 0.95083 0.0
C1545 C 0.6838 0.83945 0.92494 0.0
H1546 H 0.70392 0.89641 0.99963 0.0
H1547 H 0.70367 0.84295 0.94456 0.0
S1548 S 0.65242 0.87328 0.93865 0.0
N1549 N 0.66173 0.90168 0.97486 0.0
N1550 N 0.66143 0.84357 0.91444 0.0
C1551 C 0.67272 0.85604 0.93529 0.0
C1552 C 0.67287 0.88758 0.96906 0.0
C1553 C 0.04749 0.88414 0.9016 0.0
C1554 C 0.05858 0.90009 0.88194 0.0
C1555 C 0.0475 0.85331 0.93554 0.0
C1556 C 0.05861 0.83729 0.95331 0.0
H1557 H 0.03869 0.89547 0.88962 0.0
H1558 H 0.03871 0.84202 0.94875 0.0
S1559 S 0.09021 0.8687 0.91592 0.0
N1560 N 0.081 0.89759 0.88417 0.0
N1561 N 0.08103 0.83979 0.94863 0.0
C1562 C 0.06978 0.85303 0.93506 0.0
C1563 C 0.06976 0.88435 0.89903 0.0
C1564 C 0.31935 0.63792 0.69681 0.0
C1565 C 0.30822 0.65406 0.71224 0.0
C1566 C 0.31939 0.60685 0.66487 0.0
C1567 C 0.30831 0.59059 0.64876 0.0
H1568 H 0.32811 0.64943 0.70786 0.0
H1569 H 0.32818 0.59543 0.65441 0.0
S1570 S 0.27663 0.62216 0.67929 0.0
N1571 N 0.2858 0.65119 0.70965 0.0
N1572 N 0.28588 0.59322 0.64965 0.0
C1573 C 0.29712 0.60648 0.66425 0.0
C1574 C 0.29708 0.63805 0.69592 0.0
C1575 C 0.92501 0.63487 0.65403 0.0
C1576 C 0.93611 0.65078 0.63413 0.0
C1577 C 0.92499 0.60408 0.68998 0.0
C1578 C 0.93607 0.58783 0.70585 0.0
H1579 H 0.91623 0.64638 0.64375 0.0
H1580 H 0.91619 0.59289 0.70397 0.0
S1581 S 0.96771 0.61878 0.6633 0.0
N1582 N 0.95853 0.64772 0.63169 0.0
N1583 N 0.9585 0.59014 0.69877 0.0
C1584 C 0.94725 0.60344 0.6854 0.0
C1585 C 0.94727 0.63479 0.64977 0.0
C1586 C 0.6953 0.38881 0.43064 0.0
C1587 C 0.68422 0.40462 0.45326 0.0
C1588 C 0.69529 0.3579 0.39829 0.0
C1589 C 0.68421 0.34151 0.38532 0.0
H1590 H 0.70409 0.40032 0.43896 0.0
H1591 H 0.70409 0.34683 0.38257 0.0
S1592 S 0.65263 0.37221 0.43279 0.0
N1593 N 0.66181 0.40147 0.45953 0.0
N1594 N 0.66182 0.34343 0.39801 0.0
C1595 C 0.67305 0.35703 0.40667 0.0
C1596 C 0.67305 0.38851 0.44105 0.0
C1597 C 0.06971 0.35431 0.43963 0.0
C1598 C 0.05868 0.33813 0.45913 0.0
C1599 C 0.06958 0.38542 0.4092 0.0
C1600 C 0.05842 0.40164 0.39884 0.0
H1601 H 0.07852 0.34278 0.44571 0.0
H1602 H 0.07832 0.39686 0.39485 0.0
S1603 S 0.02695 0.36991 0.445 0.0
N1604 N 0.03627 0.34082 0.46876 0.0
N1605 N 0.03602 0.39899 0.41191 0.0
C1606 C 0.04732 0.38573 0.41965 0.0
C1607 C 0.04745 0.35409 0.44964 0.0
C1608 C 0.79799 0.10581 0.65195 0.0
C1609 C 0.8091 0.08961 0.63674 0.0
C1610 C 0.79795 0.13679 0.68349 0.0
C1611 C 0.80901 0.15287 0.70298 0.0
H1612 H 0.7892 0.09456 0.63866 0.0
H1613 H 0.78913 0.14812 0.69362 0.0
S1614 S 0.84066 0.12111 0.6753 0.0
N1615 N 0.83151 0.09208 0.6438 0.0
N1616 N 0.83144 0.15021 0.70359 0.0
C1617 C 0.82021 0.13696 0.68844 0.0
C1618 C 0.82025 0.10542 0.65499 0.0
C1619 C 0.42502 0.13657 0.63644 0.0
C1620 C 0.4361 0.15218 0.61212 0.0
C1621 C 0.425 0.10545 0.66658 0.0
C1622 C 0.43605 0.08863 0.67202 0.0
H1623 H 0.4163 0.14858 0.63483 0.0
H1624 H 0.41623 0.09451 0.68515 0.0
S1625 S 0.46755 0.11874 0.61069 0.0
N1626 N 0.45839 0.14833 0.59166 0.0
N1627 N 0.4584 0.09011 0.6479 0.0
C1628 C 0.44719 0.10395 0.64572 0.0
C1629 C 0.4472 0.13562 0.61594 0.0
C1630 C 0.17456 0.88723 0.47604 0.0
C1631 C 0.18569 0.90224 0.50469 0.0
C1632 C 0.17441 0.85642 0.44035 0.0
C1633 C 0.18537 0.83929 0.43328 0.0
H1634 H 0.16592 0.89958 0.47752 0.0
H1635 H 0.16562 0.84601 0.41806 0.0
S1636 S 0.21693 0.86763 0.50622 0.0
N1637 N 0.2079 0.89735 0.52878 0.0
N1638 N 0.20769 0.83975 0.46231 0.0
C1639 C 0.19654 0.85394 0.46486 0.0
C1640 C 0.19668 0.88529 0.50035 0.0
C1641 C 0.56879 0.8554 0.42734 0.0
C1642 C 0.55769 0.83936 0.4452 0.0
C1643 C 0.56879 0.88603 0.38962 0.0
C1644 C 0.55769 0.9019 0.36997 0.0
H1645 H 0.57758 0.84415 0.44097 0.0
H1646 H 0.57757 0.89744 0.37777 0.0
S1647 S 0.52606 0.87048 0.40422 0.0
N1648 N 0.53525 0.84184 0.44034 0.0
N1649 N 0.53528 0.89922 0.37011 0.0
C1650 C 0.54652 0.88618 0.38776 0.0
C1651 C 0.54651 0.85497 0.4251 0.0
C1652 C 0.79836 0.63671 0.18992 0.0
C1653 C 0.80952 0.65284 0.20246 0.0
C1654 C 0.79823 0.60556 0.16188 0.0
C1655 C 0.80924 0.58923 0.14328 0.0
H1656 H 0.7896 0.64817 0.20273 0.0
H1657 H 0.78938 0.59428 0.15362 0.0
S1658 S 0.84098 0.62071 0.16471 0.0
N1659 N 0.83191 0.65005 0.19388 0.0
N1660 N 0.83168 0.59157 0.14041 0.0
C1661 C 0.82049 0.60506 0.15511 0.0
C1662 C 0.82062 0.63679 0.18509 0.0
C1663 C 0.44595 0.60768 0.1861 0.0
C1664 C 0.4349 0.59153 0.20567 0.0
C1665 C 0.44587 0.63871 0.15558 0.0
C1666 C 0.43474 0.65478 0.14142 0.0
H1667 H 0.45478 0.59635 0.19526 0.0
H1668 H 0.45463 0.65009 0.14195 0.0
S1669 S 0.40321 0.62315 0.18199 0.0
N1670 N 0.41247 0.59405 0.20843 0.0
N1671 N 0.41233 0.65225 0.15052 0.0
C1672 C 0.4236 0.63892 0.1602 0.0
C1673 C 0.42368 0.60737 0.19265 0.0
C1674 C 0.19636 0.35679 0.92354 0.0
C1675 C 0.18532 0.34068 0.90322 0.0
C1676 C 0.19628 0.38785 0.95405 0.0
C1677 C 0.18515 0.40401 0.9676 0.0
H1678 H 0.20519 0.34541 0.91483 0.0
H1679 H 0.20504 0.3992 0.96811 0.0
S1680 S 0.15363 0.37252 0.92523 0.0
N1681 N 0.16289 0.34337 0.8993 0.0
N1682 N 0.16275 0.40156 0.95727 0.0
C1683 C 0.17402 0.38818 0.94824 0.0
C1684 C 0.1741 0.35661 0.91576 0.0
C1685 C 0.56947 0.35483 0.91144 0.0
C1686 C 0.55853 0.33884 0.93811 0.0
C1687 C 0.56928 0.38612 0.88466 0.0
C1688 C 0.55815 0.40266 0.88557 0.0
H1689 H 0.57823 0.34299 0.9087 0.0
H1690 H 0.57793 0.39743 0.86404 0.0
S1691 S 0.52699 0.37152 0.95479 0.0
N1692 N 0.53631 0.34201 0.96705 0.0
N1693 N 0.53591 0.40058 0.91754 0.0
C1694 C 0.54717 0.38695 0.91404 0.0
C1695 C 0.54736 0.35512 0.94004 0.0
loop_
_geom_bond_atom_site_label_1
_geom_bond_atom_site_label_2
_geom_bond_distance
_geom_bond_site_symmetry_2
_ccdc_geom_bond_type
Tb0 O3 2.453 . S
Tb0 O4 2.596 . S
Tb0 O5 2.374 . S
Tb0 O13 2.343 . S
Tb0 O15 2.353 . S
Tb0 O17 2.427 . S
Tb0 O18 2.513 . S
C1 O5 1.251 . S
C1 O7 1.263 . S
Tb2 O4 2.343 . S
Tb2 O7 2.353 . S
Tb2 O10 2.427 . S
Tb2 O11 2.513 . S
Tb2 O12 2.453 1_554 S
Tb2 O13 2.596 . S
Tb2 O14 2.374 . S
O3 Tb0 2.453 . S
O3 C19 1.245 . S
O4 Tb0 2.596 . S
O4 Tb2 2.343 . S
O4 C19 1.259 . S
O5 Tb0 2.374 . S
O5 C1 1.251 . S
C6 O10 1.275 . S
C6 O11 1.246 . S
O7 C1 1.263 . S
O7 Tb2 2.353 . S
C8 O12 1.245 . S
C8 O13 1.259 1_556 S
C9 O14 1.250 . S
C9 O15 1.263 . S
O10 Tb2 2.427 . S
O10 C6 1.275 . S
O11 Tb2 2.513 . S
O11 C6 1.246 . S
O12 Tb2 2.453 1_556 S
O12 C8 1.245 . S
O13 Tb0 2.343 . S
O13 Tb2 2.596 . S
O13 C8 1.259 1_554 S
O14 Tb2 2.374 . S
O14 C9 1.250 . S
O15 Tb0 2.353 . S
O15 C9 1.263 . S
C16 O17 1.275 . S
C16 O18 1.246 . S
O17 Tb0 2.427 . S
O17 C16 1.275 . S
O18 Tb0 2.513 . S
O18 C16 1.246 . S
C19 O3 1.245 . S
C19 O4 1.259 . S
Tb20 O23 2.453 . S
Tb20 O24 2.594 1_545 S
Tb20 O25 2.374 1_545 S
Tb20 O33 2.343 1_545 S
Tb20 O35 2.353 . S
Tb20 O37 2.427 . S
Tb20 O38 2.513 1_545 S
C21 O25 1.251 . S
C21 O27 1.263 . S
Tb22 O24 2.346 . S
Tb22 O27 2.353 . S
Tb22 O30 2.427 . S
Tb22 O31 2.513 1_565 S
Tb22 O32 2.453 1_554 S
Tb22 O33 2.596 . S
Tb22 O34 2.374 1_565 S
O23 Tb20 2.453 . S
O23 C39 1.245 . S
O24 Tb20 2.594 1_565 S
O24 Tb22 2.346 . S
O24 C39 1.258 1_565 S
O25 Tb20 2.374 1_565 S
O25 C21 1.251 . S
C26 O30 1.275 . S
C26 O31 1.246 1_565 S
O27 C21 1.263 . S
O27 Tb22 2.353 . S
C28 O32 1.245 . S
C28 O33 1.259 1_556 S
C29 O34 1.250 . S
C29 O35 1.263 . S
O30 Tb22 2.427 . S
O30 C26 1.275 . S
O31 Tb22 2.513 1_545 S
O31 C26 1.246 1_545 S
O32 Tb22 2.453 1_556 S
O32 C28 1.245 . S
O33 Tb20 2.343 1_565 S
O33 Tb22 2.596 . S
O33 C28 1.259 1_554 S
O34 Tb22 2.374 1_545 S
O34 C29 1.250 . S
O35 Tb20 2.353 . S
O35 C29 1.263 . S
C36 O37 1.275 1_565 S
C36 O38 1.246 . S
O37 Tb20 2.427 . S
O37 C36 1.275 1_545 S
O38 Tb20 2.513 1_565 S
O38 C36 1.246 . S
C39 O23 1.245 . S
C39 O24 1.258 1_545 S
Tb40 O43 2.453 . S
Tb40 O44 2.594 1_545 S
Tb40 O45 2.374 1_545 S
Tb40 O53 2.343 1_546 S
Tb40 O55 2.353 1_556 S
Tb40 O57 2.427 1_556 S
Tb40 O58 2.513 1_546 S
C41 O45 1.251 . S
C41 O47 1.263 1_556 S
Tb42 O44 2.346 1_554 S
Tb42 O47 2.353 . S
Tb42 O50 2.427 1_554 S
Tb42 O51 2.513 1_564 S
Tb42 O52 2.453 . S
Tb42 O53 2.596 . S
Tb42 O54 2.374 1_565 S
O43 Tb40 2.453 . S
O43 C59 1.245 . S
O44 Tb40 2.594 1_565 S
O44 Tb42 2.346 1_556 S
O44 C59 1.258 1_565 S
O45 Tb40 2.374 1_565 S
O45 C41 1.251 . S
C46 O50 1.275 . S
C46 O51 1.246 1_565 S
O47 C41 1.263 1_554 S
O47 Tb42 2.353 . S
C48 O52 1.245 . S
C48 O53 1.259 . S
C49 O54 1.250 . S
C49 O55 1.263 . S
O50 Tb42 2.427 1_556 S
O50 C46 1.275 . S
O51 Tb42 2.513 1_546 S
O51 C46 1.246 1_545 S
O52 Tb42 2.453 . S
O52 C48 1.245 . S
O53 Tb40 2.343 1_564 S
O53 Tb42 2.596 . S
O53 C48 1.259 . S
O54 Tb42 2.374 1_545 S
O54 C49 1.250 . S
O55 Tb40 2.353 1_554 S
O55 C49 1.263 . S
C56 O57 1.275 1_565 S
C56 O58 1.246 . S
O57 Tb40 2.427 1_554 S
O57 C56 1.275 1_545 S
O58 Tb40 2.513 1_564 S
O58 C56 1.246 . S
C59 O43 1.245 . S
C59 O44 1.258 1_545 S
Tb60 O63 2.453 . S
Tb60 O64 2.596 . S
Tb60 O65 2.374 . S
Tb60 O73 2.343 1_556 S
Tb60 O75 2.353 1_556 S
Tb60 O77 2.427 1_556 S
Tb60 O78 2.513 1_556 S
C61 O65 1.251 . S
C61 O67 1.263 1_556 S
Tb62 O64 2.343 1_554 S
Tb62 O67 2.353 . S
Tb62 O70 2.427 1_554 S
Tb62 O71 2.513 1_554 S
Tb62 O72 2.453 . S
Tb62 O73 2.596 . S
Tb62 O74 2.374 . S
O63 Tb60 2.453 . S
O63 C79 1.245 . S
O64 Tb60 2.596 . S
O64 Tb62 2.343 1_556 S
O64 C79 1.259 . S
O65 Tb60 2.374 . S
O65 C61 1.251 . S
C66 O70 1.275 . S
C66 O71 1.246 . S
O67 C61 1.263 1_554 S
O67 Tb62 2.353 . S
C68 O72 1.245 . S
C68 O73 1.259 . S
C69 O74 1.250 . S
C69 O75 1.263 . S
O70 Tb62 2.427 1_556 S
O70 C66 1.275 . S
O71 Tb62 2.513 1_556 S
O71 C66 1.246 . S
O72 Tb62 2.453 . S
O72 C68 1.245 . S
O73 Tb60 2.343 1_554 S
O73 Tb62 2.596 . S
O73 C68 1.259 . S
O74 Tb62 2.374 . S
O74 C69 1.250 . S
O75 Tb60 2.353 1_554 S
O75 C69 1.263 . S
C76 O77 1.275 . S
C76 O78 1.246 . S
O77 Tb60 2.427 1_554 S
O77 C76 1.275 . S
O78 Tb60 2.513 1_554 S
O78 C76 1.246 . S
C79 O63 1.245 . S
C79 O64 1.259 . S
Tb80 O83 2.453 1_556 S
Tb80 O84 2.596 . S
Tb80 O85 2.374 . S
Tb80 O93 2.343 . S
Tb80 O95 2.353 . S
Tb80 O97 2.427 . S
Tb80 O98 2.513 . S
C81 O85 1.251 . S
C81 O87 1.263 . S
Tb82 O84 2.343 . S
Tb82 O87 2.353 . S
Tb82 O90 2.427 . S
Tb82 O91 2.513 . S
Tb82 O92 2.453 . S
Tb82 O93 2.596 . S
Tb82 O94 2.374 . S
O83 Tb80 2.453 1_554 S
O83 C99 1.245 . S
O84 Tb80 2.596 . S
O84 Tb82 2.343 . S
O84 C99 1.259 1_556 S
O85 Tb80 2.374 . S
O85 C81 1.251 . S
C86 O90 1.275 . S
C86 O91 1.246 . S
O87 C81 1.263 . S
O87 Tb82 2.353 . S
C88 O92 1.245 . S
C88 O93 1.259 . S
C89 O94 1.250 . S
C89 O95 1.263 . S
O90 Tb82 2.427 . S
O90 C86 1.275 . S
O91 Tb82 2.513 . S
O91 C86 1.246 . S
O92 Tb82 2.453 . S
O92 C88 1.245 . S
O93 Tb80 2.343 . S
O93 Tb82 2.596 . S
O93 C88 1.259 . S
O94 Tb82 2.374 . S
O94 C89 1.250 . S
O95 Tb80 2.353 . S
O95 C89 1.263 . S
C96 O97 1.275 . S
C96 O98 1.246 . S
O97 Tb80 2.427 . S
O97 C96 1.275 . S
O98 Tb80 2.513 . S
O98 C96 1.246 . S
C99 O83 1.245 . S
C99 O84 1.259 1_554 S
Tb100 O103 2.453 1_556 S
Tb100 O104 2.596 . S
Tb100 O105 2.374 1_545 S
Tb100 O113 2.346 . S
Tb100 O115 2.353 . S
Tb100 O117 2.427 . S
Tb100 O118 2.513 1_545 S
C101 O105 1.251 . S
C101 O107 1.263 . S
Tb102 O104 2.343 1_565 S
Tb102 O107 2.353 . S
Tb102 O110 2.427 . S
Tb102 O111 2.513 1_565 S
Tb102 O112 2.453 . S
Tb102 O113 2.594 1_565 S
Tb102 O114 2.374 1_565 S
O103 Tb100 2.453 1_554 S
O103 C119 1.245 . S
O104 Tb100 2.596 . S
O104 Tb102 2.343 1_545 S
O104 C119 1.259 1_556 S
O105 Tb100 2.374 1_565 S
O105 C101 1.251 . S
C106 O110 1.275 1_545 S
C106 O111 1.246 . S
O107 C101 1.263 . S
O107 Tb102 2.353 . S
C108 O112 1.245 . S
C108 O113 1.258 1_565 S
C109 O114 1.250 . S
C109 O115 1.263 . S
O110 Tb102 2.427 . S
O110 C106 1.275 1_565 S
O111 Tb102 2.513 1_545 S
O111 C106 1.246 . S
O112 Tb102 2.453 . S
O112 C108 1.245 . S
O113 Tb100 2.346 . S
O113 Tb102 2.594 1_545 S
O113 C108 1.258 1_545 S
O114 Tb102 2.374 1_545 S
O114 C109 1.250 . S
O115 Tb100 2.353 . S
O115 C109 1.263 . S
C116 O117 1.275 . S
C116 O118 1.246 1_545 S
O117 Tb100 2.427 . S
O117 C116 1.275 . S
O118 Tb100 2.513 1_565 S
O118 C116 1.246 1_565 S
C119 O103 1.245 . S
C119 O104 1.259 1_554 S
Tb120 O123 2.453 . S
Tb120 O124 2.596 . S
Tb120 O125 2.374 1_545 S
Tb120 O133 2.346 1_556 S
Tb120 O135 2.353 . S
Tb120 O137 2.427 1_556 S
Tb120 O138 2.513 1_546 S
C121 O125 1.251 . S
C121 O127 1.263 . S
Tb122 O124 2.343 1_564 S
Tb122 O127 2.353 1_554 S
Tb122 O130 2.427 1_554 S
Tb122 O131 2.513 1_564 S
Tb122 O132 2.453 . S
Tb122 O133 2.594 1_565 S
Tb122 O134 2.374 1_565 S
O123 Tb120 2.453 . S
O123 C139 1.245 . S
O124 Tb120 2.596 . S
O124 Tb122 2.343 1_546 S
O124 C139 1.259 . S
O125 Tb120 2.374 1_565 S
O125 C121 1.251 . S
C126 O130 1.275 1_545 S
C126 O131 1.246 . S
O127 C121 1.263 . S
O127 Tb122 2.353 1_556 S
C128 O132 1.245 . S
C128 O133 1.258 1_565 S
C129 O134 1.250 . S
C129 O135 1.263 1_554 S
O130 Tb122 2.427 1_556 S
O130 C126 1.275 1_565 S
O131 Tb122 2.513 1_546 S
O131 C126 1.246 . S
O132 Tb122 2.453 . S
O132 C128 1.245 . S
O133 Tb120 2.346 1_554 S
O133 Tb122 2.594 1_545 S
O133 C128 1.258 1_545 S
O134 Tb122 2.374 1_545 S
O134 C129 1.250 . S
O135 Tb120 2.353 . S
O135 C129 1.263 1_556 S
C136 O137 1.275 . S
C136 O138 1.246 1_545 S
O137 Tb120 2.427 1_554 S
O137 C136 1.275 . S
O138 Tb120 2.513 1_564 S
O138 C136 1.246 1_565 S
C139 O123 1.245 . S
C139 O124 1.259 . S
Tb140 O143 2.453 . S
Tb140 O144 2.596 . S
Tb140 O145 2.374 . S
Tb140 O153 2.343 1_556 S
Tb140 O155 2.353 . S
Tb140 O157 2.427 1_556 S
Tb140 O158 2.513 1_556 S
C141 O145 1.251 . S
C141 O147 1.263 . S
Tb142 O144 2.343 1_554 S
Tb142 O147 2.353 1_554 S
Tb142 O150 2.427 1_554 S
Tb142 O151 2.513 1_554 S
Tb142 O152 2.453 . S
Tb142 O153 2.596 . S
Tb142 O154 2.374 . S
O143 Tb140 2.453 . S
O143 C159 1.245 . S
O144 Tb140 2.596 . S
O144 Tb142 2.343 1_556 S
O144 C159 1.259 . S
O145 Tb140 2.374 . S
O145 C141 1.251 . S
C146 O150 1.275 . S
C146 O151 1.246 . S
O147 C141 1.263 . S
O147 Tb142 2.353 1_556 S
C148 O152 1.245 . S
C148 O153 1.259 . S
C149 O154 1.250 . S
C149 O155 1.263 1_554 S
O150 Tb142 2.427 1_556 S
O150 C146 1.275 . S
O151 Tb142 2.513 1_556 S
O151 C146 1.246 . S
O152 Tb142 2.453 . S
O152 C148 1.245 . S
O153 Tb140 2.343 1_554 S
O153 Tb142 2.596 . S
O153 C148 1.259 . S
O154 Tb142 2.374 . S
O154 C149 1.250 . S
O155 Tb140 2.353 . S
O155 C149 1.263 1_556 S
C156 O157 1.275 . S
C156 O158 1.246 . S
O157 Tb140 2.427 1_554 S
O157 C156 1.275 . S
O158 Tb140 2.513 1_554 S
O158 C156 1.246 . S
C159 O143 1.245 . S
C159 O144 1.259 . S
Tb160 O163 2.453 . S
Tb160 O164 2.596 . S
Tb160 O165 2.374 . S
Tb160 O173 2.343 . S
Tb160 O175 2.353 . S
Tb160 O177 2.427 . S
Tb160 O178 2.513 . S
C161 O165 1.251 . S
C161 O167 1.263 . S
Tb162 O164 2.343 . S
Tb162 O167 2.353 . S
Tb162 O170 2.427 . S
Tb162 O171 2.513 . S
Tb162 O172 2.453 . S
Tb162 O173 2.596 . S
Tb162 O174 2.374 . S
O163 Tb160 2.453 . S
O163 C179 1.245 . S
O164 Tb160 2.596 . S
O164 Tb162 2.343 . S
O164 C179 1.259 . S
O165 Tb160 2.374 . S
O165 C161 1.251 . S
C166 O170 1.275 . S
C166 O171 1.246 . S
O167 C161 1.263 . S
O167 Tb162 2.353 . S
C168 O172 1.245 . S
C168 O173 1.259 . S
C169 O174 1.250 . S
C169 O175 1.263 . S
O170 Tb162 2.427 . S
O170 C166 1.275 . S
O171 Tb162 2.513 . S
O171 C166 1.246 . S
O172 Tb162 2.453 . S
O172 C168 1.245 . S
O173 Tb160 2.343 . S
O173 Tb162 2.596 . S
O173 C168 1.259 . S
O174 Tb162 2.374 . S
O174 C169 1.250 . S
O175 Tb160 2.353 . S
O175 C169 1.263 . S
C176 O177 1.275 . S
C176 O178 1.246 . S
O177 Tb160 2.427 . S
O177 C176 1.275 . S
O178 Tb160 2.513 . S
O178 C176 1.246 . S
C179 O163 1.245 . S
C179 O164 1.259 . S
Tb180 O183 2.453 . S
Tb180 O184 2.596 . S
Tb180 O185 2.374 . S
Tb180 O193 2.343 . S
Tb180 O195 2.353 . S
Tb180 O197 2.427 . S
Tb180 O198 2.513 . S
C181 O185 1.251 . S
C181 O187 1.263 . S
Tb182 O184 2.343 . S
Tb182 O187 2.353 . S
Tb182 O190 2.427 . S
Tb182 O191 2.513 . S
Tb182 O192 2.453 . S
Tb182 O193 2.596 . S
Tb182 O194 2.374 . S
O183 Tb180 2.453 . S
O183 C199 1.245 . S
O184 Tb180 2.596 . S
O184 Tb182 2.343 . S
O184 C199 1.259 . S
O185 Tb180 2.374 . S
O185 C181 1.251 . S
C186 O190 1.275 . S
C186 O191 1.246 . S
O187 C181 1.263 . S
O187 Tb182 2.353 . S
C188 O192 1.245 . S
C188 O193 1.259 . S
C189 O194 1.250 . S
C189 O195 1.263 . S
O190 Tb182 2.427 . S
O190 C186 1.275 . S
O191 Tb182 2.513 . S
O191 C186 1.246 . S
O192 Tb182 2.453 . S
O192 C188 1.245 . S
O193 Tb180 2.343 . S
O193 Tb182 2.596 . S
O193 C188 1.259 . S
O194 Tb182 2.374 . S
O194 C189 1.250 . S
O195 Tb180 2.353 . S
O195 C189 1.263 . S
C196 O197 1.275 . S
C196 O198 1.246 . S
O197 Tb180 2.427 . S
O197 C196 1.275 . S
O198 Tb180 2.513 . S
O198 C196 1.246 . S
C199 O183 1.245 . S
C199 O184 1.259 . S
Tb200 O203 2.453 . S
Tb200 O204 2.596 . S
Tb200 O205 2.374 . S
Tb200 O213 2.343 . S
Tb200 O215 2.353 . S
Tb200 O217 2.427 . S
Tb200 O218 2.513 . S
C201 O205 1.251 . S
C201 O207 1.263 . S
Tb202 O204 2.343 . S
Tb202 O207 2.353 . S
Tb202 O210 2.427 . S
Tb202 O211 2.513 . S
Tb202 O212 2.453 . S
Tb202 O213 2.596 . S
Tb202 O214 2.374 . S
O203 Tb200 2.453 . S
O203 C219 1.245 . S
O204 Tb200 2.596 . S
O204 Tb202 2.343 . S
O204 C219 1.259 . S
O205 Tb200 2.374 . S
O205 C201 1.251 . S
C206 O210 1.275 . S
C206 O211 1.246 . S
O207 C201 1.263 . S
O207 Tb202 2.353 . S
C208 O212 1.245 . S
C208 O213 1.259 . S
C209 O214 1.250 . S
C209 O215 1.263 . S
O210 Tb202 2.427 . S
O210 C206 1.275 . S
O211 Tb202 2.513 . S
O211 C206 1.246 . S
O212 Tb202 2.453 . S
O212 C208 1.245 . S
O213 Tb200 2.343 . S
O213 Tb202 2.596 . S
O213 C208 1.259 . S
O214 Tb202 2.374 . S
O214 C209 1.250 . S
O215 Tb200 2.353 . S
O215 C209 1.263 . S
C216 O217 1.275 . S
C216 O218 1.246 . S
O217 Tb200 2.427 . S
O217 C216 1.275 . S
O218 Tb200 2.513 . S
O218 C216 1.246 . S
C219 O203 1.245 . S
C219 O204 1.259 . S
Tb220 O223 2.453 . S
Tb220 O224 2.596 . S
Tb220 O225 2.374 . S
Tb220 O233 2.343 . S
Tb220 O235 2.353 . S
Tb220 O237 2.427 . S
Tb220 O238 2.513 . S
C221 O225 1.251 . S
C221 O227 1.263 . S
Tb222 O224 2.343 . S
Tb222 O227 2.353 . S
Tb222 O230 2.427 . S
Tb222 O231 2.513 . S
Tb222 O232 2.453 . S
Tb222 O233 2.596 . S
Tb222 O234 2.374 . S
O223 Tb220 2.453 . S
O223 C239 1.245 . S
O224 Tb220 2.596 . S
O224 Tb222 2.343 . S
O224 C239 1.259 . S
O225 Tb220 2.374 . S
O225 C221 1.251 . S
C226 O230 1.275 . S
C226 O231 1.246 . S
O227 C221 1.263 . S
O227 Tb222 2.353 . S
C228 O232 1.245 . S
C228 O233 1.259 . S
C229 O234 1.250 . S
C229 O235 1.263 . S
O230 Tb222 2.427 . S
O230 C226 1.275 . S
O231 Tb222 2.513 . S
O231 C226 1.246 . S
O232 Tb222 2.453 . S
O232 C228 1.245 . S
O233 Tb220 2.343 . S
O233 Tb222 2.596 . S
O233 C228 1.259 . S
O234 Tb222 2.374 . S
O234 C229 1.250 . S
O235 Tb220 2.353 . S
O235 C229 1.263 . S
C236 O237 1.275 . S
C236 O238 1.246 . S
O237 Tb220 2.427 . S
O237 C236 1.275 . S
O238 Tb220 2.513 . S
O238 C236 1.246 . S
C239 O223 1.245 . S
C239 O224 1.259 . S
Tb240 O243 2.453 . S
Tb240 O244 2.596 . S
Tb240 O245 2.374 . S
Tb240 O253 2.343 . S
Tb240 O255 2.353 . S
Tb240 O257 2.427 . S
Tb240 O258 2.513 . S
C241 O245 1.251 . S
C241 O247 1.263 . S
Tb242 O244 2.343 . S
Tb242 O247 2.353 . S
Tb242 O250 2.427 . S
Tb242 O251 2.513 . S
Tb242 O252 2.453 . S
Tb242 O253 2.596 . S
Tb242 O254 2.374 . S
O243 Tb240 2.453 . S
O243 C259 1.245 . S
O244 Tb240 2.596 . S
O244 Tb242 2.343 . S
O244 C259 1.259 . S
O245 Tb240 2.374 . S
O245 C241 1.251 . S
C246 O250 1.275 . S
C246 O251 1.246 . S
O247 C241 1.263 . S
O247 Tb242 2.353 . S
C248 O252 1.245 . S
C248 O253 1.259 . S
C249 O254 1.250 . S
C249 O255 1.263 . S
O250 Tb242 2.427 . S
O250 C246 1.275 . S
O251 Tb242 2.513 . S
O251 C246 1.246 . S
O252 Tb242 2.453 . S
O252 C248 1.245 . S
O253 Tb240 2.343 . S
O253 Tb242 2.596 . S
O253 C248 1.259 . S
O254 Tb242 2.374 . S
O254 C249 1.250 . S
O255 Tb240 2.353 . S
O255 C249 1.263 . S
C256 O257 1.275 . S
C256 O258 1.246 . S
O257 Tb240 2.427 . S
O257 C256 1.275 . S
O258 Tb240 2.513 . S
O258 C256 1.246 . S
C259 O243 1.245 . S
C259 O244 1.259 . S
Tb260 O263 2.453 . S
Tb260 O264 2.596 . S
Tb260 O265 2.374 . S
Tb260 O273 2.343 . S
Tb260 O275 2.353 . S
Tb260 O277 2.427 . S
Tb260 O278 2.513 . S
C261 O265 1.251 . S
C261 O267 1.263 . S
Tb262 O264 2.343 . S
Tb262 O267 2.353 . S
Tb262 O270 2.427 . S
Tb262 O271 2.513 . S
Tb262 O272 2.453 . S
Tb262 O273 2.596 . S
Tb262 O274 2.374 . S
O263 Tb260 2.453 . S
O263 C279 1.245 . S
O264 Tb260 2.596 . S
O264 Tb262 2.343 . S
O264 C279 1.259 . S
O265 Tb260 2.374 . S
O265 C261 1.251 . S
C266 O270 1.275 . S
C266 O271 1.246 . S
O267 C261 1.263 . S
O267 Tb262 2.353 . S
C268 O272 1.245 . S
C268 O273 1.259 . S
C269 O274 1.250 . S
C269 O275 1.263 . S
O270 Tb262 2.427 . S
O270 C266 1.275 . S
O271 Tb262 2.513 . S
O271 C266 1.246 . S
O272 Tb262 2.453 . S
O272 C268 1.245 . S
O273 Tb260 2.343 . S
O273 Tb262 2.596 . S
O273 C268 1.259 . S
O274 Tb262 2.374 . S
O274 C269 1.250 . S
O275 Tb260 2.353 . S
O275 C269 1.263 . S
C276 O277 1.275 . S
C276 O278 1.246 . S
O277 Tb260 2.427 . S
O277 C276 1.275 . S
O278 Tb260 2.513 . S
O278 C276 1.246 . S
C279 O263 1.245 . S
C279 O264 1.259 . S
Tb280 O283 2.453 . S
Tb280 O284 2.596 . S
Tb280 O285 2.374 . S
Tb280 O293 2.343 . S
Tb280 O295 2.353 . S
Tb280 O297 2.427 . S
Tb280 O298 2.513 . S
C281 O285 1.251 . S
C281 O287 1.263 . S
Tb282 O284 2.343 . S
Tb282 O287 2.353 . S
Tb282 O290 2.427 . S
Tb282 O291 2.513 . S
Tb282 O292 2.453 . S
Tb282 O293 2.596 . S
Tb282 O294 2.374 . S
O283 Tb280 2.453 . S
O283 C299 1.245 . S
O284 Tb280 2.596 . S
O284 Tb282 2.343 . S
O284 C299 1.259 . S
O285 Tb280 2.374 . S
O285 C281 1.251 . S
C286 O290 1.275 . S
C286 O291 1.246 . S
O287 C281 1.263 . S
O287 Tb282 2.353 . S
C288 O292 1.245 . S
C288 O293 1.259 . S
C289 O294 1.250 . S
C289 O295 1.263 . S
O290 Tb282 2.427 . S
O290 C286 1.275 . S
O291 Tb282 2.513 . S
O291 C286 1.246 . S
O292 Tb282 2.453 . S
O292 C288 1.245 . S
O293 Tb280 2.343 . S
O293 Tb282 2.596 . S
O293 C288 1.259 . S
O294 Tb282 2.374 . S
O294 C289 1.250 . S
O295 Tb280 2.353 . S
O295 C289 1.263 . S
C296 O297 1.275 . S
C296 O298 1.246 . S
O297 Tb280 2.427 . S
O297 C296 1.275 . S
O298 Tb280 2.513 . S
O298 C296 1.246 . S
C299 O283 1.245 . S
C299 O284 1.259 . S
Tb300 O303 2.453 . S
Tb300 O304 2.596 . S
Tb300 O305 2.374 . S
Tb300 O313 2.343 . S
Tb300 O315 2.353 . S
Tb300 O317 2.427 . S
Tb300 O318 2.513 . S
C301 O305 1.251 . S
C301 O307 1.263 . S
Tb302 O304 2.343 . S
Tb302 O307 2.353 . S
Tb302 O310 2.427 . S
Tb302 O311 2.513 . S
Tb302 O312 2.453 . S
Tb302 O313 2.596 . S
Tb302 O314 2.374 . S
O303 Tb300 2.453 . S
O303 C319 1.245 . S
O304 Tb300 2.596 . S
O304 Tb302 2.343 . S
O304 C319 1.259 . S
O305 Tb300 2.374 . S
O305 C301 1.251 . S
C306 O310 1.275 . S
C306 O311 1.246 . S
O307 C301 1.263 . S
O307 Tb302 2.353 . S
C308 O312 1.245 . S
C308 O313 1.259 . S
C309 O314 1.250 . S
C309 O315 1.263 . S
O310 Tb302 2.427 . S
O310 C306 1.275 . S
O311 Tb302 2.513 . S
O311 C306 1.246 . S
O312 Tb302 2.453 . S
O312 C308 1.245 . S
O313 Tb300 2.343 . S
O313 Tb302 2.596 . S
O313 C308 1.259 . S
O314 Tb302 2.374 . S
O314 C309 1.250 . S
O315 Tb300 2.353 . S
O315 C309 1.263 . S
C316 O317 1.275 . S
C316 O318 1.246 . S
O317 Tb300 2.427 . S
O317 C316 1.275 . S
O318 Tb300 2.513 . S
O318 C316 1.246 . S
C319 O303 1.245 . S
C319 O304 1.259 . S
Tb320 O323 2.453 . S
Tb320 O324 2.596 . S
Tb320 O325 2.374 . S
Tb320 O333 2.343 . S
Tb320 O335 2.353 . S
Tb320 O337 2.427 . S
Tb320 O338 2.513 . S
C321 O325 1.251 . S
C321 O327 1.263 . S
Tb322 O324 2.343 . S
Tb322 O327 2.353 . S
Tb322 O330 2.427 . S
Tb322 O331 2.513 . S
Tb322 O332 2.453 . S
Tb322 O333 2.596 . S
Tb322 O334 2.374 . S
O323 Tb320 2.453 . S
O323 C339 1.245 . S
O324 Tb320 2.596 . S
O324 Tb322 2.343 . S
O324 C339 1.259 . S
O325 Tb320 2.374 . S
O325 C321 1.251 . S
C326 O330 1.275 . S
C326 O331 1.246 . S
O327 C321 1.263 . S
O327 Tb322 2.353 . S
C328 O332 1.245 . S
C328 O333 1.259 . S
C329 O334 1.250 . S
C329 O335 1.263 . S
O330 Tb322 2.427 . S
O330 C326 1.275 . S
O331 Tb322 2.513 . S
O331 C326 1.246 . S
O332 Tb322 2.453 . S
O332 C328 1.245 . S
O333 Tb320 2.343 . S
O333 Tb322 2.596 . S
O333 C328 1.259 . S
O334 Tb322 2.374 . S
O334 C329 1.250 . S
O335 Tb320 2.353 . S
O335 C329 1.263 . S
C336 O337 1.275 . S
C336 O338 1.246 . S
O337 Tb320 2.427 . S
O337 C336 1.275 . S
O338 Tb320 2.513 . S
O338 C336 1.246 . S
C339 O323 1.245 . S
C339 O324 1.259 . S
Tb340 O343 2.453 . S
Tb340 O344 2.594 1_545 S
Tb340 O345 2.374 1_545 S
Tb340 O353 2.343 1_545 S
Tb340 O355 2.353 . S
Tb340 O357 2.427 . S
Tb340 O358 2.513 1_545 S
C341 O345 1.251 . S
C341 O347 1.263 . S
Tb342 O344 2.346 . S
Tb342 O347 2.353 . S
Tb342 O350 2.427 . S
Tb342 O351 2.513 1_565 S
Tb342 O352 2.453 . S
Tb342 O353 2.596 . S
Tb342 O354 2.374 1_565 S
O343 Tb340 2.453 . S
O343 C359 1.245 . S
O344 Tb340 2.594 1_565 S
O344 Tb342 2.346 . S
O344 C359 1.258 1_565 S
O345 Tb340 2.374 1_565 S
O345 C341 1.251 . S
C346 O350 1.275 . S
C346 O351 1.246 1_565 S
O347 C341 1.263 . S
O347 Tb342 2.353 . S
C348 O352 1.245 . S
C348 O353 1.259 . S
C349 O354 1.250 . S
C349 O355 1.263 . S
O350 Tb342 2.427 . S
O350 C346 1.275 . S
O351 Tb342 2.513 1_545 S
O351 C346 1.246 1_545 S
O352 Tb342 2.453 . S
O352 C348 1.245 . S
O353 Tb340 2.343 1_565 S
O353 Tb342 2.596 . S
O353 C348 1.259 . S
O354 Tb342 2.374 1_545 S
O354 C349 1.250 . S
O355 Tb340 2.353 . S
O355 C349 1.263 . S
C356 O357 1.275 1_565 S
C356 O358 1.246 . S
O357 Tb340 2.427 . S
O357 C356 1.275 1_545 S
O358 Tb340 2.513 1_565 S
O358 C356 1.246 . S
C359 O343 1.245 . S
C359 O344 1.258 1_545 S
Tb360 O363 2.453 . S
Tb360 O364 2.594 1_545 S
Tb360 O365 2.374 1_545 S
Tb360 O373 2.343 1_545 S
Tb360 O375 2.353 . S
Tb360 O377 2.427 . S
Tb360 O378 2.513 1_545 S
C361 O365 1.251 . S
C361 O367 1.263 . S
Tb362 O364 2.346 . S
Tb362 O367 2.353 . S
Tb362 O370 2.427 . S
Tb362 O371 2.513 1_565 S
Tb362 O372 2.453 . S
Tb362 O373 2.596 . S
Tb362 O374 2.374 1_565 S
O363 Tb360 2.453 . S
O363 C379 1.245 . S
O364 Tb360 2.594 1_565 S
O364 Tb362 2.346 . S
O364 C379 1.258 1_565 S
O365 Tb360 2.374 1_565 S
O365 C361 1.251 . S
C366 O370 1.275 . S
C366 O371 1.246 1_565 S
O367 C361 1.263 . S
O367 Tb362 2.353 . S
C368 O372 1.245 . S
C368 O373 1.259 . S
C369 O374 1.250 . S
C369 O375 1.263 . S
O370 Tb362 2.427 . S
O370 C366 1.275 . S
O371 Tb362 2.513 1_545 S
O371 C366 1.246 1_545 S
O372 Tb362 2.453 . S
O372 C368 1.245 . S
O373 Tb360 2.343 1_565 S
O373 Tb362 2.596 . S
O373 C368 1.259 . S
O374 Tb362 2.374 1_545 S
O374 C369 1.250 . S
O375 Tb360 2.353 . S
O375 C369 1.263 . S
C376 O377 1.275 1_565 S
C376 O378 1.246 . S
O377 Tb360 2.427 . S
O377 C376 1.275 1_545 S
O378 Tb360 2.513 1_565 S
O378 C376 1.246 . S
C379 O363 1.245 . S
C379 O364 1.258 1_545 S
Tb380 O383 2.453 . S
Tb380 O384 2.596 . S
Tb380 O385 2.374 . S
Tb380 O393 2.343 . S
Tb380 O395 2.353 . S
Tb380 O397 2.427 . S
Tb380 O398 2.513 . S
C381 O385 1.251 . S
C381 O387 1.263 . S
Tb382 O384 2.343 . S
Tb382 O387 2.353 . S
Tb382 O390 2.427 . S
Tb382 O391 2.513 . S
Tb382 O392 2.453 . S
Tb382 O393 2.596 . S
Tb382 O394 2.374 . S
O383 Tb380 2.453 . S
O383 C399 1.245 . S
O384 Tb380 2.596 . S
O384 Tb382 2.343 . S
O384 C399 1.259 . S
O385 Tb380 2.374 . S
O385 C381 1.251 . S
C386 O390 1.275 . S
C386 O391 1.246 . S
O387 C381 1.263 . S
O387 Tb382 2.353 . S
C388 O392 1.245 . S
C388 O393 1.259 . S
C389 O394 1.250 . S
C389 O395 1.263 . S
O390 Tb382 2.427 . S
O390 C386 1.275 . S
O391 Tb382 2.513 . S
O391 C386 1.246 . S
O392 Tb382 2.453 . S
O392 C388 1.245 . S
O393 Tb380 2.343 . S
O393 Tb382 2.596 . S
O393 C388 1.259 . S
O394 Tb382 2.374 . S
O394 C389 1.250 . S
O395 Tb380 2.353 . S
O395 C389 1.263 . S
C396 O397 1.275 . S
C396 O398 1.246 . S
O397 Tb380 2.427 . S
O397 C396 1.275 . S
O398 Tb380 2.513 . S
O398 C396 1.246 . S
C399 O383 1.245 . S
C399 O384 1.259 . S
Tb400 O403 2.453 . S
Tb400 O404 2.596 . S
Tb400 O405 2.374 . S
Tb400 O413 2.343 . S
Tb400 O415 2.353 . S
Tb400 O417 2.427 . S
Tb400 O418 2.513 . S
C401 O405 1.251 . S
C401 O407 1.263 . S
Tb402 O404 2.343 . S
Tb402 O407 2.353 . S
Tb402 O410 2.427 . S
Tb402 O411 2.513 . S
Tb402 O412 2.453 . S
Tb402 O413 2.596 . S
Tb402 O414 2.374 . S
O403 Tb400 2.453 . S
O403 C419 1.245 . S
O404 Tb400 2.596 . S
O404 Tb402 2.343 . S
O404 C419 1.259 . S
O405 Tb400 2.374 . S
O405 C401 1.251 . S
C406 O410 1.275 . S
C406 O411 1.246 . S
O407 C401 1.263 . S
O407 Tb402 2.353 . S
C408 O412 1.245 . S
C408 O413 1.259 . S
C409 O414 1.250 . S
C409 O415 1.263 . S
O410 Tb402 2.427 . S
O410 C406 1.275 . S
O411 Tb402 2.513 . S
O411 C406 1.246 . S
O412 Tb402 2.453 . S
O412 C408 1.245 . S
O413 Tb400 2.343 . S
O413 Tb402 2.596 . S
O413 C408 1.259 . S
O414 Tb402 2.374 . S
O414 C409 1.250 . S
O415 Tb400 2.353 . S
O415 C409 1.263 . S
C416 O417 1.275 . S
C416 O418 1.246 . S
O417 Tb400 2.427 . S
O417 C416 1.275 . S
O418 Tb400 2.513 . S
O418 C416 1.246 . S
C419 O403 1.245 . S
C419 O404 1.259 . S
Tb420 O423 2.453 . S
Tb420 O424 2.596 . S
Tb420 O425 2.374 1_545 S
Tb420 O433 2.346 . S
Tb420 O435 2.353 . S
Tb420 O437 2.427 . S
Tb420 O438 2.513 1_545 S
C421 O425 1.251 . S
C421 O427 1.263 . S
Tb422 O424 2.343 1_565 S
Tb422 O427 2.353 . S
Tb422 O430 2.427 . S
Tb422 O431 2.513 1_565 S
Tb422 O432 2.453 . S
Tb422 O433 2.594 1_565 S
Tb422 O434 2.374 1_565 S
O423 Tb420 2.453 . S
O423 C439 1.245 . S
O424 Tb420 2.596 . S
O424 Tb422 2.343 1_545 S
O424 C439 1.259 . S
O425 Tb420 2.374 1_565 S
O425 C421 1.251 . S
C426 O430 1.275 1_545 S
C426 O431 1.246 . S
O427 C421 1.263 . S
O427 Tb422 2.353 . S
C428 O432 1.245 . S
C428 O433 1.258 1_565 S
C429 O434 1.250 . S
C429 O435 1.263 . S
O430 Tb422 2.427 . S
O430 C426 1.275 1_565 S
O431 Tb422 2.513 1_545 S
O431 C426 1.246 . S
O432 Tb422 2.453 . S
O432 C428 1.245 . S
O433 Tb420 2.346 . S
O433 Tb422 2.594 1_545 S
O433 C428 1.258 1_545 S
O434 Tb422 2.374 1_545 S
O434 C429 1.250 . S
O435 Tb420 2.353 . S
O435 C429 1.263 . S
C436 O437 1.275 . S
C436 O438 1.246 1_545 S
O437 Tb420 2.427 . S
O437 C436 1.275 . S
O438 Tb420 2.513 1_565 S
O438 C436 1.246 1_565 S
C439 O423 1.245 . S
C439 O424 1.259 . S
Tb440 O443 2.453 . S
Tb440 O444 2.596 . S
Tb440 O445 2.374 1_545 S
Tb440 O453 2.346 . S
Tb440 O455 2.353 . S
Tb440 O457 2.427 . S
Tb440 O458 2.513 1_545 S
C441 O445 1.251 . S
C441 O447 1.263 . S
Tb442 O444 2.343 1_565 S
Tb442 O447 2.353 . S
Tb442 O450 2.427 . S
Tb442 O451 2.513 1_565 S
Tb442 O452 2.453 . S
Tb442 O453 2.594 1_565 S
Tb442 O454 2.374 1_565 S
O443 Tb440 2.453 . S
O443 C459 1.245 . S
O444 Tb440 2.596 . S
O444 Tb442 2.343 1_545 S
O444 C459 1.259 . S
O445 Tb440 2.374 1_565 S
O445 C441 1.251 . S
C446 O450 1.275 1_545 S
C446 O451 1.246 . S
O447 C441 1.263 . S
O447 Tb442 2.353 . S
C448 O452 1.245 . S
C448 O453 1.258 1_565 S
C449 O454 1.250 . S
C449 O455 1.263 . S
O450 Tb442 2.427 . S
O450 C446 1.275 1_565 S
O451 Tb442 2.513 1_545 S
O451 C446 1.246 . S
O452 Tb442 2.453 . S
O452 C448 1.245 . S
O453 Tb440 2.346 . S
O453 Tb442 2.594 1_545 S
O453 C448 1.258 1_545 S
O454 Tb442 2.374 1_545 S
O454 C449 1.250 . S
O455 Tb440 2.353 . S
O455 C449 1.263 . S
C456 O457 1.275 . S
C456 O458 1.246 1_545 S
O457 Tb440 2.427 . S
O457 C456 1.275 . S
O458 Tb440 2.513 1_565 S
O458 C456 1.246 1_565 S
C459 O443 1.245 . S
C459 O444 1.259 . S
Tb460 O463 2.453 . S
Tb460 O464 2.596 . S
Tb460 O465 2.374 . S
Tb460 O473 2.343 . S
Tb460 O475 2.353 . S
Tb460 O477 2.427 . S
Tb460 O478 2.513 . S
C461 O465 1.251 . S
C461 O467 1.263 . S
Tb462 O464 2.343 . S
Tb462 O467 2.353 . S
Tb462 O470 2.427 . S
Tb462 O471 2.513 . S
Tb462 O472 2.453 . S
Tb462 O473 2.596 . S
Tb462 O474 2.374 . S
O463 Tb460 2.453 . S
O463 C479 1.245 . S
O464 Tb460 2.596 . S
O464 Tb462 2.343 . S
O464 C479 1.259 . S
O465 Tb460 2.374 . S
O465 C461 1.251 . S
C466 O470 1.275 . S
C466 O471 1.246 . S
O467 C461 1.263 . S
O467 Tb462 2.353 . S
C468 O472 1.245 . S
C468 O473 1.259 . S
C469 O474 1.250 . S
C469 O475 1.263 . S
O470 Tb462 2.427 . S
O470 C466 1.275 . S
O471 Tb462 2.513 . S
O471 C466 1.246 . S
O472 Tb462 2.453 . S
O472 C468 1.245 . S
O473 Tb460 2.343 . S
O473 Tb462 2.596 . S
O473 C468 1.259 . S
O474 Tb462 2.374 . S
O474 C469 1.250 . S
O475 Tb460 2.353 . S
O475 C469 1.263 . S
C476 O477 1.275 . S
C476 O478 1.246 . S
O477 Tb460 2.427 . S
O477 C476 1.275 . S
O478 Tb460 2.513 . S
O478 C476 1.246 . S
C479 O463 1.245 . S
C479 O464 1.259 . S
Tb480 O483 2.453 . S
Tb480 O484 2.596 . S
Tb480 O485 2.374 . S
Tb480 O493 2.343 . S
Tb480 O495 2.353 . S
Tb480 O497 2.427 . S
Tb480 O498 2.513 . S
C481 O485 1.251 . S
C481 O487 1.263 . S
Tb482 O484 2.343 . S
Tb482 O487 2.353 . S
Tb482 O490 2.427 . S
Tb482 O491 2.513 . S
Tb482 O492 2.453 1_554 S
Tb482 O493 2.596 . S
Tb482 O494 2.374 . S
O483 Tb480 2.453 . S
O483 C499 1.245 . S
O484 Tb480 2.596 . S
O484 Tb482 2.343 . S
O484 C499 1.259 . S
O485 Tb480 2.374 . S
O485 C481 1.251 . S
C486 O490 1.275 . S
C486 O491 1.246 . S
O487 C481 1.263 . S
O487 Tb482 2.353 . S
C488 O492 1.245 . S
C488 O493 1.259 1_556 S
C489 O494 1.250 . S
C489 O495 1.263 . S
O490 Tb482 2.427 . S
O490 C486 1.275 . S
O491 Tb482 2.513 . S
O491 C486 1.246 . S
O492 Tb482 2.453 1_556 S
O492 C488 1.245 . S
O493 Tb480 2.343 . S
O493 Tb482 2.596 . S
O493 C488 1.259 1_554 S
O494 Tb482 2.374 . S
O494 C489 1.250 . S
O495 Tb480 2.353 . S
O495 C489 1.263 . S
C496 O497 1.275 . S
C496 O498 1.246 . S
O497 Tb480 2.427 . S
O497 C496 1.275 . S
O498 Tb480 2.513 . S
O498 C496 1.246 . S
C499 O483 1.245 . S
C499 O484 1.259 . S
Tb500 O503 2.453 . S
Tb500 O504 2.596 . S
Tb500 O505 2.374 . S
Tb500 O513 2.343 . S
Tb500 O515 2.353 . S
Tb500 O517 2.427 . S
Tb500 O518 2.513 . S
C501 O505 1.251 . S
C501 O507 1.263 . S
Tb502 O504 2.343 . S
Tb502 O507 2.353 . S
Tb502 O510 2.427 . S
Tb502 O511 2.513 . S
Tb502 O512 2.453 1_554 S
Tb502 O513 2.596 . S
Tb502 O514 2.374 . S
O503 Tb500 2.453 . S
O503 C519 1.245 . S
O504 Tb500 2.596 . S
O504 Tb502 2.343 . S
O504 C519 1.259 . S
O505 Tb500 2.374 . S
O505 C501 1.251 . S
C506 O510 1.275 . S
C506 O511 1.246 . S
O507 C501 1.263 . S
O507 Tb502 2.353 . S
C508 O512 1.245 . S
C508 O513 1.259 1_556 S
C509 O514 1.250 . S
C509 O515 1.263 . S
O510 Tb502 2.427 . S
O510 C506 1.275 . S
O511 Tb502 2.513 . S
O511 C506 1.246 . S
O512 Tb502 2.453 1_556 S
O512 C508 1.245 . S
O513 Tb500 2.343 . S
O513 Tb502 2.596 . S
O513 C508 1.259 1_554 S
O514 Tb502 2.374 . S
O514 C509 1.250 . S
O515 Tb500 2.353 . S
O515 C509 1.263 . S
C516 O517 1.275 . S
C516 O518 1.246 . S
O517 Tb500 2.427 . S
O517 C516 1.275 . S
O518 Tb500 2.513 . S
O518 C516 1.246 . S
C519 O503 1.245 . S
C519 O504 1.259 . S
Tb520 O523 2.453 . S
Tb520 O524 2.596 . S
Tb520 O525 2.374 . S
Tb520 O533 2.343 1_556 S
Tb520 O535 2.353 1_556 S
Tb520 O537 2.427 1_556 S
Tb520 O538 2.513 1_556 S
C521 O525 1.251 . S
C521 O527 1.263 1_556 S
Tb522 O524 2.343 1_554 S
Tb522 O527 2.353 . S
Tb522 O530 2.427 1_554 S
Tb522 O531 2.513 1_554 S
Tb522 O532 2.453 . S
Tb522 O533 2.596 . S
Tb522 O534 2.374 . S
O523 Tb520 2.453 . S
O523 C539 1.245 . S
O524 Tb520 2.596 . S
O524 Tb522 2.343 1_556 S
O524 C539 1.259 . S
O525 Tb520 2.374 . S
O525 C521 1.251 . S
C526 O530 1.275 . S
C526 O531 1.246 . S
O527 C521 1.263 1_554 S
O527 Tb522 2.353 . S
C528 O532 1.245 . S
C528 O533 1.259 . S
C529 O534 1.250 . S
C529 O535 1.263 . S
O530 Tb522 2.427 1_556 S
O530 C526 1.275 . S
O531 Tb522 2.513 1_556 S
O531 C526 1.246 . S
O532 Tb522 2.453 . S
O532 C528 1.245 . S
O533 Tb520 2.343 1_554 S
O533 Tb522 2.596 . S
O533 C528 1.259 . S
O534 Tb522 2.374 . S
O534 C529 1.250 . S
O535 Tb520 2.353 1_554 S
O535 C529 1.263 . S
C536 O537 1.275 . S
C536 O538 1.246 . S
O537 Tb520 2.427 1_554 S
O537 C536 1.275 . S
O538 Tb520 2.513 1_554 S
O538 C536 1.246 . S
C539 O523 1.245 . S
C539 O524 1.259 . S
Tb540 O543 2.453 . S
Tb540 O544 2.596 . S
Tb540 O545 2.374 . S
Tb540 O553 2.343 1_556 S
Tb540 O555 2.353 1_556 S
Tb540 O557 2.427 1_556 S
Tb540 O558 2.513 1_556 S
C541 O545 1.251 . S
C541 O547 1.263 1_556 S
Tb542 O544 2.343 1_554 S
Tb542 O547 2.353 . S
Tb542 O550 2.427 1_554 S
Tb542 O551 2.513 1_554 S
Tb542 O552 2.453 . S
Tb542 O553 2.596 . S
Tb542 O554 2.374 . S
O543 Tb540 2.453 . S
O543 C559 1.245 . S
O544 Tb540 2.596 . S
O544 Tb542 2.343 1_556 S
O544 C559 1.259 . S
O545 Tb540 2.374 . S
O545 C541 1.251 . S
C546 O550 1.275 . S
C546 O551 1.246 . S
O547 C541 1.263 1_554 S
O547 Tb542 2.353 . S
C548 O552 1.245 . S
C548 O553 1.259 . S
C549 O554 1.250 . S
C549 O555 1.263 . S
O550 Tb542 2.427 1_556 S
O550 C546 1.275 . S
O551 Tb542 2.513 1_556 S
O551 C546 1.246 . S
O552 Tb542 2.453 . S
O552 C548 1.245 . S
O553 Tb540 2.343 1_554 S
O553 Tb542 2.596 . S
O553 C548 1.259 . S
O554 Tb542 2.374 . S
O554 C549 1.250 . S
O555 Tb540 2.353 1_554 S
O555 C549 1.263 . S
C556 O557 1.275 . S
C556 O558 1.246 . S
O557 Tb540 2.427 1_554 S
O557 C556 1.275 . S
O558 Tb540 2.513 1_554 S
O558 C556 1.246 . S
C559 O543 1.245 . S
C559 O544 1.259 . S
Tb560 O563 2.453 1_556 S
Tb560 O564 2.596 . S
Tb560 O565 2.374 . S
Tb560 O573 2.343 . S
Tb560 O575 2.353 . S
Tb560 O577 2.427 . S
Tb560 O578 2.513 . S
C561 O565 1.251 . S
C561 O567 1.263 . S
Tb562 O564 2.343 . S
Tb562 O567 2.353 . S
Tb562 O570 2.427 . S
Tb562 O571 2.513 . S
Tb562 O572 2.453 . S
Tb562 O573 2.596 . S
Tb562 O574 2.374 . S
O563 Tb560 2.453 1_554 S
O563 C579 1.245 . S
O564 Tb560 2.596 . S
O564 Tb562 2.343 . S
O564 C579 1.259 1_556 S
O565 Tb560 2.374 . S
O565 C561 1.251 . S
C566 O570 1.275 . S
C566 O571 1.246 . S
O567 C561 1.263 . S
O567 Tb562 2.353 . S
C568 O572 1.245 . S
C568 O573 1.259 . S
C569 O574 1.250 . S
C569 O575 1.263 . S
O570 Tb562 2.427 . S
O570 C566 1.275 . S
O571 Tb562 2.513 . S
O571 C566 1.246 . S
O572 Tb562 2.453 . S
O572 C568 1.245 . S
O573 Tb560 2.343 . S
O573 Tb562 2.596 . S
O573 C568 1.259 . S
O574 Tb562 2.374 . S
O574 C569 1.250 . S
O575 Tb560 2.353 . S
O575 C569 1.263 . S
C576 O577 1.275 . S
C576 O578 1.246 . S
O577 Tb560 2.427 . S
O577 C576 1.275 . S
O578 Tb560 2.513 . S
O578 C576 1.246 . S
C579 O563 1.245 . S
C579 O564 1.259 1_554 S
Tb580 O583 2.453 1_556 S
Tb580 O584 2.596 . S
Tb580 O585 2.374 . S
Tb580 O593 2.343 . S
Tb580 O595 2.353 . S
Tb580 O597 2.427 . S
Tb580 O598 2.513 . S
C581 O585 1.251 . S
C581 O587 1.263 . S
Tb582 O584 2.343 . S
Tb582 O587 2.353 . S
Tb582 O590 2.427 . S
Tb582 O591 2.513 . S
Tb582 O592 2.453 . S
Tb582 O593 2.596 . S
Tb582 O594 2.374 . S
O583 Tb580 2.453 1_554 S
O583 C599 1.245 . S
O584 Tb580 2.596 . S
O584 Tb582 2.343 . S
O584 C599 1.259 1_556 S
O585 Tb580 2.374 . S
O585 C581 1.251 . S
C586 O590 1.275 . S
C586 O591 1.246 . S
O587 C581 1.263 . S
O587 Tb582 2.353 . S
C588 O592 1.245 . S
C588 O593 1.259 . S
C589 O594 1.250 . S
C589 O595 1.263 . S
O590 Tb582 2.427 . S
O590 C586 1.275 . S
O591 Tb582 2.513 . S
O591 C586 1.246 . S
O592 Tb582 2.453 . S
O592 C588 1.245 . S
O593 Tb580 2.343 . S
O593 Tb582 2.596 . S
O593 C588 1.259 . S
O594 Tb582 2.374 . S
O594 C589 1.250 . S
O595 Tb580 2.353 . S
O595 C589 1.263 . S
C596 O597 1.275 . S
C596 O598 1.246 . S
O597 Tb580 2.427 . S
O597 C596 1.275 . S
O598 Tb580 2.513 . S
O598 C596 1.246 . S
C599 O583 1.245 . S
C599 O584 1.259 1_554 S
Tb600 O603 2.453 . S
Tb600 O604 2.596 . S
Tb600 O605 2.374 . S
Tb600 O613 2.343 1_556 S
Tb600 O615 2.353 . S
Tb600 O617 2.427 1_556 S
Tb600 O618 2.513 1_556 S
C601 O605 1.251 . S
C601 O607 1.263 . S
Tb602 O604 2.343 1_554 S
Tb602 O607 2.353 1_554 S
Tb602 O610 2.427 1_554 S
Tb602 O611 2.513 1_554 S
Tb602 O612 2.453 . S
Tb602 O613 2.596 . S
Tb602 O614 2.374 . S
O603 Tb600 2.453 . S
O603 C619 1.245 . S
O604 Tb600 2.596 . S
O604 Tb602 2.343 1_556 S
O604 C619 1.259 . S
O605 Tb600 2.374 . S
O605 C601 1.251 . S
C606 O610 1.275 . S
C606 O611 1.246 . S
O607 C601 1.263 . S
O607 Tb602 2.353 1_556 S
C608 O612 1.245 . S
C608 O613 1.259 . S
C609 O614 1.250 . S
C609 O615 1.263 1_554 S
O610 Tb602 2.427 1_556 S
O610 C606 1.275 . S
O611 Tb602 2.513 1_556 S
O611 C606 1.246 . S
O612 Tb602 2.453 . S
O612 C608 1.245 . S
O613 Tb600 2.343 1_554 S
O613 Tb602 2.596 . S
O613 C608 1.259 . S
O614 Tb602 2.374 . S
O614 C609 1.250 . S
O615 Tb600 2.353 . S
O615 C609 1.263 1_556 S
C616 O617 1.275 . S
C616 O618 1.246 . S
O617 Tb600 2.427 1_554 S
O617 C616 1.275 . S
O618 Tb600 2.513 1_554 S
O618 C616 1.246 . S
C619 O603 1.245 . S
C619 O604 1.259 . S
Tb620 O623 2.453 . S
Tb620 O624 2.596 . S
Tb620 O625 2.374 . S
Tb620 O633 2.343 1_556 S
Tb620 O635 2.353 . S
Tb620 O637 2.427 1_556 S
Tb620 O638 2.513 1_556 S
C621 O625 1.251 . S
C621 O627 1.263 . S
Tb622 O624 2.343 1_554 S
Tb622 O627 2.353 1_554 S
Tb622 O630 2.427 1_554 S
Tb622 O631 2.513 1_554 S
Tb622 O632 2.453 . S
Tb622 O633 2.596 . S
Tb622 O634 2.374 . S
O623 Tb620 2.453 . S
O623 C639 1.245 . S
O624 Tb620 2.596 . S
O624 Tb622 2.343 1_556 S
O624 C639 1.259 . S
O625 Tb620 2.374 . S
O625 C621 1.251 . S
C626 O630 1.275 . S
C626 O631 1.246 . S
O627 C621 1.263 . S
O627 Tb622 2.353 1_556 S
C628 O632 1.245 . S
C628 O633 1.259 . S
C629 O634 1.250 . S
C629 O635 1.263 1_554 S
O630 Tb622 2.427 1_556 S
O630 C626 1.275 . S
O631 Tb622 2.513 1_556 S
O631 C626 1.246 . S
O632 Tb622 2.453 . S
O632 C628 1.245 . S
O633 Tb620 2.343 1_554 S
O633 Tb622 2.596 . S
O633 C628 1.259 . S
O634 Tb622 2.374 . S
O634 C629 1.250 . S
O635 Tb620 2.353 . S
O635 C629 1.263 1_556 S
C636 O637 1.275 . S
C636 O638 1.246 . S
O637 Tb620 2.427 1_554 S
O637 C636 1.275 . S
O638 Tb620 2.513 1_554 S
O638 C636 1.246 . S
C639 O623 1.245 . S
C639 O624 1.259 . S
C640 C641 1.369 . S
C640 C642 1.419 . S
C640 H644 0.930 . S
C641 C640 1.369 . S
C641 C650 1.429 1_556 S
C642 C640 1.419 . S
C642 C643 1.363 1_556 S
C642 H645 0.929 . S
C643 C642 1.363 1_554 S
C643 C649 1.428 . S
H644 C640 0.930 . S
H645 C642 0.929 . S
S646 N647 1.613 . S
S646 N648 1.610 . S
N647 S646 1.613 . S
N647 C650 1.350 . S
N648 S646 1.610 . S
N648 C649 1.351 . S
C649 C643 1.428 . S
C649 N648 1.351 . S
C649 C650 1.434 . S
C650 C641 1.429 1_554 S
C650 N647 1.350 . S
C650 C649 1.434 . S
C651 C652 1.369 1_564 S
C651 C653 1.419 1_455 S
C651 H655 0.930 . S
C652 C651 1.369 1_546 S
C652 C661 1.429 . S
C653 C651 1.419 1_655 S
C653 C654 1.363 . S
C653 H656 0.929 . S
C654 C653 1.363 . S
C654 C660 1.428 1_564 S
H655 C651 0.930 . S
H656 C653 0.929 . S
S657 N658 1.613 1_655 S
S657 N659 1.610 . S
N658 S657 1.613 1_455 S
N658 C661 1.350 . S
N659 S657 1.610 . S
N659 C660 1.351 . S
C660 C654 1.428 1_546 S
C660 N659 1.351 . S
C660 C661 1.434 1_655 S
C661 C652 1.429 . S
C661 N658 1.350 . S
C661 C660 1.434 1_455 S
C662 C663 1.369 1_565 S
C662 C664 1.419 . S
C662 H666 0.930 . S
C663 C662 1.369 1_545 S
C663 C672 1.429 . S
C664 C662 1.419 . S
C664 C665 1.363 . S
C664 H667 0.929 . S
C665 C664 1.363 . S
C665 C671 1.428 1_565 S
H666 C662 0.930 . S
H667 C664 0.929 . S
S668 N669 1.613 . S
S668 N670 1.610 . S
N669 S668 1.613 . S
N669 C672 1.350 . S
N670 S668 1.610 . S
N670 C671 1.351 . S
C671 C665 1.428 1_545 S
C671 N670 1.351 . S
C671 C672 1.434 . S
C672 C663 1.429 . S
C672 N669 1.350 . S
C672 C671 1.434 . S
C673 C674 1.369 . S
C673 C675 1.419 1_455 S
C673 H677 0.930 . S
C674 C673 1.369 . S
C674 C683 1.429 . S
C675 C673 1.419 1_655 S
C675 C676 1.363 . S
C675 H678 0.929 . S
C676 C675 1.363 . S
C676 C682 1.428 . S
H677 C673 0.930 . S
H678 C675 0.929 . S
S679 N680 1.613 1_655 S
S679 N681 1.610 . S
N680 S679 1.613 1_455 S
N680 C683 1.350 . S
N681 S679 1.610 . S
N681 C682 1.351 . S
C682 C676 1.428 . S
C682 N681 1.351 . S
C682 C683 1.434 1_655 S
C683 C674 1.429 . S
C683 N680 1.350 . S
C683 C682 1.434 1_455 S
C684 C685 1.369 . S
C684 C686 1.419 . S
C684 H688 0.930 . S
C685 C684 1.369 . S
C685 C694 1.429 1_556 S
C686 C684 1.419 . S
C686 C687 1.363 1_556 S
C686 H689 0.929 . S
C687 C686 1.363 1_554 S
C687 C693 1.428 . S
H688 C684 0.930 . S
H689 C686 0.929 . S
S690 N691 1.613 . S
S690 N692 1.610 . S
N691 S690 1.613 . S
N691 C694 1.350 . S
N692 S690 1.610 . S
N692 C693 1.351 . S
C693 C687 1.428 . S
C693 N692 1.351 . S
C693 C694 1.434 . S
C694 C685 1.429 1_554 S
C694 N691 1.350 . S
C694 C693 1.434 . S
C695 C696 1.369 1_545 S
C695 C697 1.419 . S
C695 H699 0.930 . S
C696 C695 1.369 1_565 S
C696 C705 1.429 . S
C697 C695 1.419 . S
C697 C698 1.363 . S
C697 H700 0.929 . S
C698 C697 1.363 . S
C698 C704 1.428 1_545 S
H699 C695 0.930 . S
H700 C697 0.929 . S
S701 N702 1.613 . S
S701 N703 1.610 . S
N702 S701 1.613 . S
N702 C705 1.350 . S
N703 S701 1.610 . S
N703 C704 1.351 . S
C704 C698 1.428 1_565 S
C704 N703 1.351 . S
C704 C705 1.434 . S
C705 C696 1.429 . S
C705 N702 1.350 . S
C705 C704 1.434 . S
C706 C707 1.369 . S
C706 C708 1.419 1_655 S
C706 H710 0.930 . S
C707 C706 1.369 . S
C707 C716 1.429 . S
C708 C706 1.419 1_455 S
C708 C709 1.363 . S
C708 H711 0.929 . S
C709 C708 1.363 . S
C709 C715 1.428 . S
H710 C706 0.930 . S
H711 C708 0.929 . S
S712 N713 1.568 1_455 S
S712 N714 1.655 . S
N713 S712 1.568 1_655 S
N713 C716 1.350 . S
N714 S712 1.655 . S
N714 C715 1.351 . S
C715 C709 1.428 . S
C715 N714 1.351 . S
C715 C716 1.434 1_455 S
C716 C707 1.429 . S
C716 N713 1.350 . S
C716 C715 1.434 1_655 S
C717 C718 1.369 . S
C717 C719 1.419 . S
C717 H721 0.930 . S
C718 C717 1.369 . S
C718 C727 1.429 . S
C719 C717 1.419 . S
C719 C720 1.363 . S
C719 H722 0.929 . S
C720 C719 1.363 . S
C720 C726 1.428 . S
H721 C717 0.930 . S
H722 C719 0.929 . S
S723 N724 1.613 . S
S723 N725 1.610 . S
N724 S723 1.613 . S
N724 C727 1.350 . S
N725 S723 1.610 . S
N725 C726 1.351 . S
C726 C720 1.428 . S
C726 N725 1.351 . S
C726 C727 1.434 . S
C727 C718 1.429 . S
C727 N724 1.350 . S
C727 C726 1.434 . S
C728 C729 1.369 . S
C728 C730 1.419 1_655 S
C728 H732 0.930 . S
C729 C728 1.369 . S
C729 C738 1.429 . S
C730 C728 1.419 1_455 S
C730 C731 1.363 . S
C730 H733 0.929 . S
C731 C730 1.363 . S
C731 C737 1.428 . S
H732 C728 0.930 . S
H733 C730 0.929 . S
S734 N735 1.613 . S
S734 N736 1.610 1_655 S
N735 S734 1.613 . S
N735 C738 1.350 . S
N736 S734 1.610 1_455 S
N736 C737 1.351 . S
C737 C731 1.428 . S
C737 N736 1.351 . S
C737 C738 1.434 1_455 S
C738 C729 1.429 . S
C738 N735 1.350 . S
C738 C737 1.434 1_655 S
C739 C740 1.369 . S
C739 C741 1.419 . S
C739 H743 0.930 . S
C740 C739 1.369 . S
C740 C749 1.429 . S
C741 C739 1.419 . S
C741 C742 1.363 . S
C741 H744 0.929 . S
C742 C741 1.363 . S
C742 C748 1.428 . S
H743 C739 0.930 . S
H744 C741 0.929 . S
S745 N746 1.613 1_554 S
S745 N747 1.610 1_554 S
N746 S745 1.613 1_556 S
N746 C749 1.350 . S
N747 S745 1.610 1_556 S
N747 C748 1.351 . S
C748 C742 1.428 . S
C748 N747 1.351 . S
C748 C749 1.434 . S
C749 C740 1.429 . S
C749 N746 1.350 . S
C749 C748 1.434 . S
C750 C751 1.369 . S
C750 C752 1.419 . S
C750 H754 0.930 . S
C751 C750 1.369 . S
C751 C760 1.429 . S
C752 C750 1.419 . S
C752 C753 1.363 . S
C752 H755 0.929 . S
C753 C752 1.363 . S
C753 C759 1.428 . S
H754 C750 0.930 . S
H755 C752 0.929 . S
S756 N757 1.613 . S
S756 N758 1.610 . S
N757 S756 1.613 . S
N757 C760 1.350 . S
N758 S756 1.610 . S
N758 C759 1.351 . S
C759 C753 1.428 . S
C759 N758 1.351 . S
C759 C760 1.434 . S
C760 C751 1.429 . S
C760 N757 1.350 . S
C760 C759 1.434 . S
C761 C762 1.369 . S
C761 C763 1.419 . S
C761 H765 0.930 . S
C762 C761 1.369 . S
C762 C771 1.429 . S
C763 C761 1.419 . S
C763 C764 1.363 . S
C763 H766 0.929 . S
C764 C763 1.363 . S
C764 C770 1.428 . S
H765 C761 0.930 . S
H766 C763 0.929 . S
S767 N768 1.613 . S
S767 N769 1.610 . S
N768 S767 1.613 . S
N768 C771 1.350 . S
N769 S767 1.610 . S
N769 C770 1.351 . S
C770 C764 1.428 . S
C770 N769 1.351 . S
C770 C771 1.434 . S
C771 C762 1.429 . S
C771 N768 1.350 . S
C771 C770 1.434 . S
C772 C773 1.369 . S
C772 C774 1.419 . S
C772 H776 0.930 . S
C773 C772 1.369 . S
C773 C782 1.429 1_565 S
C774 C772 1.419 . S
C774 C775 1.363 1_565 S
C774 H777 0.929 . S
C775 C774 1.363 1_545 S
C775 C781 1.428 . S
H776 C772 0.930 . S
H777 C774 0.929 . S
S778 N779 1.613 . S
S778 N780 1.610 . S
N779 S778 1.613 . S
N779 C782 1.350 . S
N780 S778 1.610 . S
N780 C781 1.351 . S
C781 C775 1.428 . S
C781 N780 1.351 . S
C781 C782 1.434 . S
C782 C773 1.429 1_545 S
C782 N779 1.350 . S
C782 C781 1.434 . S
C783 C784 1.369 . S
C783 C785 1.419 . S
C783 H787 0.930 . S
C784 C783 1.369 . S
C784 C793 1.429 . S
C785 C783 1.419 . S
C785 C786 1.363 . S
C785 H788 0.929 . S
C786 C785 1.363 . S
C786 C792 1.428 . S
H787 C783 0.930 . S
H788 C785 0.929 . S
S789 N790 1.613 . S
S789 N791 1.610 . S
N790 S789 1.613 . S
N790 C793 1.350 . S
N791 S789 1.610 . S
N791 C792 1.351 . S
C792 C786 1.428 . S
C792 N791 1.351 . S
C792 C793 1.434 . S
C793 C784 1.429 . S
C793 N790 1.350 . S
C793 C792 1.434 . S
C794 C795 1.369 . S
C794 C796 1.419 . S
C794 H798 0.930 . S
C795 C794 1.369 . S
C795 C804 1.429 . S
C796 C794 1.419 . S
C796 C797 1.363 . S
C796 H799 0.929 . S
C797 C796 1.363 . S
C797 C803 1.428 . S
H798 C794 0.930 . S
H799 C796 0.929 . S
S800 N801 1.613 . S
S800 N802 1.610 . S
N801 S800 1.613 . S
N801 C804 1.350 . S
N802 S800 1.610 . S
N802 C803 1.351 . S
C803 C797 1.428 . S
C803 N802 1.351 . S
C803 C804 1.434 . S
C804 C795 1.429 . S
C804 N801 1.350 . S
C804 C803 1.434 . S
C805 C806 1.369 1_554 S
C805 C807 1.419 . S
C805 H809 0.930 . S
C806 C805 1.369 1_556 S
C806 C815 1.429 . S
C807 C805 1.419 . S
C807 C808 1.363 . S
C807 H810 0.929 . S
C808 C807 1.363 . S
C808 C814 1.428 1_554 S
H809 C805 0.930 . S
H810 C807 0.929 . S
S811 N812 1.613 . S
S811 N813 1.610 . S
N812 S811 1.613 . S
N812 C815 1.350 . S
N813 S811 1.610 . S
N813 C814 1.351 . S
C814 C808 1.428 1_556 S
C814 N813 1.351 . S
C814 C815 1.434 . S
C815 C806 1.429 . S
C815 N812 1.350 . S
C815 C814 1.434 . S
C816 C817 1.369 . S
C816 C818 1.419 . S
C816 H820 0.930 . S
C817 C816 1.369 . S
C817 C826 1.429 . S
C818 C816 1.419 . S
C818 C819 1.363 . S
C818 H821 0.929 . S
C819 C818 1.363 . S
C819 C825 1.428 . S
H820 C816 0.930 . S
H821 C818 0.929 . S
S822 N823 1.613 . S
S822 N824 1.610 . S
N823 S822 1.613 . S
N823 C826 1.350 . S
N824 S822 1.610 . S
N824 C825 1.351 . S
C825 C819 1.428 . S
C825 N824 1.351 . S
C825 C826 1.434 . S
C826 C817 1.429 . S
C826 N823 1.350 . S
C826 C825 1.434 . S
C827 C828 1.369 1_545 S
C827 C829 1.419 . S
C827 H831 0.930 . S
C828 C827 1.369 1_565 S
C828 C837 1.429 . S
C829 C827 1.419 . S
C829 C830 1.363 1_545 S
C829 H832 0.929 . S
C830 C829 1.363 1_565 S
C830 C836 1.428 . S
H831 C827 0.930 . S
H832 C829 0.929 . S
S833 N834 1.613 . S
S833 N835 1.610 . S
N834 S833 1.613 . S
N834 C837 1.350 . S
N835 S833 1.610 . S
N835 C836 1.351 . S
C836 C830 1.428 . S
C836 N835 1.351 . S
C836 C837 1.434 . S
C837 C828 1.429 . S
C837 N834 1.350 . S
C837 C836 1.434 . S
C838 C839 1.392 . S
C838 C840 1.419 . S
C838 H842 0.930 . S
C839 C838 1.392 . S
C839 C848 1.405 1_565 S
C840 C838 1.419 . S
C840 C841 1.389 . S
C840 H843 0.929 . S
C841 C840 1.389 . S
C841 C847 1.402 1_565 S
H842 C838 0.930 . S
H843 C840 0.929 . S
S844 N845 1.613 . S
S844 N846 1.610 . S
N845 S844 1.613 . S
N845 C848 1.350 . S
N846 S844 1.610 . S
N846 C847 1.351 . S
C847 C841 1.402 1_545 S
C847 N846 1.351 . S
C847 C848 1.434 . S
C848 C839 1.405 1_545 S
C848 N845 1.350 . S
C848 C847 1.434 . S
C849 C850 1.369 . S
C849 C851 1.419 . S
C849 H853 0.930 . S
C850 C849 1.369 . S
C850 C859 1.429 . S
C851 C849 1.419 . S
C851 C852 1.363 . S
C851 H854 0.929 . S
C852 C851 1.363 . S
C852 C858 1.428 . S
H853 C849 0.930 . S
H854 C851 0.929 . S
S855 N856 1.613 . S
S855 N857 1.610 . S
N856 S855 1.613 . S
N856 C859 1.350 1_554 S
N857 S855 1.610 . S
N857 C858 1.351 1_554 S
C858 C852 1.428 . S
C858 N857 1.351 1_556 S
C858 C859 1.434 . S
C859 C850 1.429 . S
C859 N856 1.350 1_556 S
C859 C858 1.434 . S
C860 C861 1.369 . S
C860 C862 1.419 . S
C860 H864 0.930 . S
C861 C860 1.369 . S
C861 C870 1.429 . S
C862 C860 1.419 . S
C862 C863 1.363 . S
C862 H865 0.929 . S
C863 C862 1.363 . S
C863 C869 1.428 . S
H864 C860 0.930 . S
H865 C862 0.929 . S
S866 N867 1.613 . S
S866 N868 1.610 . S
N867 S866 1.613 . S
N867 C870 1.350 . S
N868 S866 1.610 . S
N868 C869 1.351 . S
C869 C863 1.428 . S
C869 N868 1.351 . S
C869 C870 1.434 . S
C870 C861 1.429 . S
C870 N867 1.350 . S
C870 C869 1.434 . S
C871 C872 1.369 . S
C871 C873 1.419 . S
C871 H875 0.930 . S
C872 C871 1.369 . S
C872 C881 1.429 . S
C873 C871 1.419 . S
C873 C874 1.363 . S
C873 H876 0.929 . S
C874 C873 1.363 . S
C874 C880 1.429 . S
H875 C871 0.930 . S
H876 C873 0.929 . S
S877 N878 1.613 . S
S877 N879 1.610 . S
N878 S877 1.613 . S
N878 C881 1.349 1_565 S
N879 S877 1.610 . S
N879 C880 1.350 1_565 S
C880 C874 1.429 . S
C880 N879 1.350 1_545 S
C880 C881 1.434 . S
C881 C872 1.429 . S
C881 N878 1.349 1_545 S
C881 C880 1.434 . S
C882 C883 1.369 1_565 S
C882 C884 1.419 . S
C882 H886 0.930 . S
C883 C882 1.369 1_545 S
C883 C892 1.429 . S
C884 C882 1.419 . S
C884 C885 1.363 1_565 S
C884 H887 0.929 . S
C885 C884 1.363 1_545 S
C885 C891 1.428 . S
H886 C882 0.930 . S
H887 C884 0.929 . S
S888 N889 1.613 . S
S888 N890 1.610 . S
N889 S888 1.613 . S
N889 C892 1.350 1_556 S
N890 S888 1.610 . S
N890 C891 1.351 1_556 S
C891 C885 1.428 . S
C891 N890 1.351 1_554 S
C891 C892 1.434 . S
C892 C883 1.429 . S
C892 N889 1.350 1_554 S
C892 C891 1.434 . S
C893 C894 1.369 . S
C893 C895 1.419 . S
C893 H897 0.930 . S
C894 C893 1.369 . S
C894 C903 1.429 . S
C895 C893 1.419 . S
C895 C896 1.363 . S
C895 H898 0.929 1_554 S
C896 C895 1.363 . S
C896 C902 1.428 . S
H897 C893 0.930 . S
H898 C895 0.929 1_556 S
S899 N900 1.613 . S
S899 N901 1.610 . S
N900 S899 1.613 . S
N900 C903 1.350 . S
N901 S899 1.610 . S
N901 C902 1.351 . S
C902 C896 1.428 . S
C902 N901 1.351 . S
C902 C903 1.434 . S
C903 C894 1.429 . S
C903 N900 1.350 . S
C903 C902 1.434 . S
C904 C905 1.369 . S
C904 C906 1.419 . S
C904 H908 0.930 1_556 S
C905 C904 1.369 . S
C905 C914 1.429 . S
C906 C904 1.419 . S
C906 C907 1.363 . S
C906 H909 0.929 . S
C907 C906 1.363 . S
C907 C913 1.428 . S
H908 C904 0.930 1_554 S
H909 C906 0.929 . S
S910 N911 1.613 . S
S910 N912 1.610 . S
N911 S910 1.613 . S
N911 C914 1.350 . S
N912 S910 1.610 . S
N912 C913 1.351 . S
C913 C907 1.428 . S
C913 N912 1.351 . S
C913 C914 1.434 . S
C914 C905 1.429 . S
C914 N911 1.350 . S
C914 C913 1.434 . S
C915 C916 1.369 . S
C915 C917 1.419 . S
C915 H919 0.930 . S
C916 C915 1.369 . S
C916 C925 1.429 . S
C917 C915 1.419 . S
C917 C918 1.363 . S
C917 H920 0.929 . S
C918 C917 1.363 . S
C918 C924 1.428 . S
H919 C915 0.930 . S
H920 C917 0.929 . S
S921 N922 1.613 . S
S921 N923 1.610 . S
N922 S921 1.613 . S
N922 C925 1.350 1_554 S
N923 S921 1.610 . S
N923 C924 1.351 1_554 S
C924 C918 1.428 . S
C924 N923 1.351 1_556 S
C924 C925 1.434 . S
C925 C916 1.429 . S
C925 N922 1.350 1_556 S
C925 C924 1.434 . S
C926 C927 1.369 . S
C926 C928 1.419 . S
C926 H930 0.930 . S
C927 C926 1.369 . S
C927 C936 1.429 . S
C928 C926 1.419 . S
C928 C929 1.363 . S
C928 H931 0.929 . S
C929 C928 1.363 . S
C929 C935 1.428 . S
H930 C926 0.930 . S
H931 C928 0.929 . S
S932 N933 1.613 . S
S932 N934 1.610 . S
N933 S932 1.613 . S
N933 C936 1.350 . S
N934 S932 1.610 . S
N934 C935 1.351 . S
C935 C929 1.428 . S
C935 N934 1.351 . S
C935 C936 1.434 . S
C936 C927 1.429 . S
C936 N933 1.350 . S
C936 C935 1.434 . S
C937 C938 1.369 . S
C937 C939 1.419 . S
C937 H941 0.930 . S
C938 C937 1.369 . S
C938 C947 1.429 . S
C939 C937 1.419 . S
C939 C940 1.363 . S
C939 H942 0.929 . S
C940 C939 1.363 . S
C940 C946 1.428 . S
H941 C937 0.930 . S
H942 C939 0.929 . S
S943 N944 1.613 . S
S943 N945 1.610 . S
N944 S943 1.613 . S
N944 C947 1.350 . S
N945 S943 1.610 . S
N945 C946 1.351 . S
C946 C940 1.428 . S
C946 N945 1.351 . S
C946 C947 1.434 . S
C947 C938 1.429 . S
C947 N944 1.350 . S
C947 C946 1.434 . S
C948 C949 1.369 . S
C948 C950 1.419 . S
C948 H952 0.930 . S
C949 C948 1.369 . S
C949 C958 1.429 . S
C950 C948 1.419 . S
C950 C951 1.363 . S
C950 H953 0.929 . S
C951 C950 1.363 . S
C951 C957 1.428 . S
H952 C948 0.930 . S
H953 C950 0.929 . S
S954 N955 1.613 . S
S954 N956 1.610 . S
N955 S954 1.613 . S
N955 C958 1.350 . S
N956 S954 1.610 . S
N956 C957 1.351 . S
C957 C951 1.428 . S
C957 N956 1.351 . S
C957 C958 1.434 . S
C958 C949 1.429 . S
C958 N955 1.350 . S
C958 C957 1.434 . S
C959 C960 1.369 . S
C959 C961 1.419 . S
C959 H963 0.930 . S
C960 C959 1.369 . S
C960 C969 1.429 . S
C961 C959 1.419 . S
C961 C962 1.363 . S
C961 H964 0.929 . S
C962 C961 1.363 . S
C962 C968 1.428 . S
H963 C959 0.930 . S
H964 C961 0.929 . S
S965 N966 1.613 . S
S965 N967 1.610 . S
N966 S965 1.613 . S
N966 C969 1.350 1_556 S
N967 S965 1.610 . S
N967 C968 1.351 1_556 S
C968 C962 1.428 . S
C968 N967 1.351 1_554 S
C968 C969 1.434 . S
C969 C960 1.429 . S
C969 N966 1.350 1_554 S
C969 C968 1.434 . S
C970 C971 1.369 . S
C970 C972 1.419 . S
C970 H974 0.930 . S
C971 C970 1.369 . S
C971 C980 1.429 . S
C972 C970 1.419 . S
C972 C973 1.363 . S
C972 H975 0.929 . S
C973 C972 1.363 . S
C973 C979 1.428 . S
H974 C970 0.930 . S
H975 C972 0.929 . S
S976 N977 1.613 . S
S976 N978 1.610 . S
N977 S976 1.613 . S
N977 C980 1.350 . S
N978 S976 1.610 . S
N978 C979 1.351 . S
C979 C973 1.428 . S
C979 N978 1.351 . S
C979 C980 1.434 . S
C980 C971 1.429 . S
C980 N977 1.350 . S
C980 C979 1.434 . S
C981 C982 1.369 . S
C981 C983 1.419 . S
C981 H985 0.930 . S
C982 C981 1.369 . S
C982 C991 1.429 . S
C983 C981 1.419 . S
C983 C984 1.363 . S
C983 H986 0.929 . S
C984 C983 1.363 . S
C984 C990 1.428 . S
H985 C981 0.930 . S
H986 C983 0.929 . S
S987 N988 1.613 . S
S987 N989 1.610 . S
N988 S987 1.613 . S
N988 C991 1.350 . S
N989 S987 1.610 . S
N989 C990 1.351 . S
C990 C984 1.428 . S
C990 N989 1.351 . S
C990 C991 1.434 . S
C991 C982 1.429 . S
C991 N988 1.350 . S
C991 C990 1.434 . S
C992 C993 1.369 . S
C992 C994 1.419 . S
C992 H996 0.930 . S
C993 C992 1.369 . S
C993 C1002 1.429 . S
C994 C992 1.419 . S
C994 C995 1.363 . S
C994 H997 0.929 . S
C995 C994 1.363 . S
C995 C1001 1.428 . S
H996 C992 0.930 . S
H997 C994 0.929 . S
S998 N999 1.613 . S
S998 N1000 1.610 . S
N999 S998 1.613 . S
N999 C1002 1.350 . S
N1000 S998 1.610 . S
N1000 C1001 1.351 . S
C1001 C995 1.428 . S
C1001 N1000 1.351 . S
C1001 C1002 1.434 . S
C1002 C993 1.429 . S
C1002 N999 1.350 . S
C1002 C1001 1.434 . S
C1003 C1004 1.369 . S
C1003 C1005 1.419 . S
C1003 H1007 0.930 . S
C1004 C1003 1.369 . S
C1004 C1013 1.429 1_565 S
C1005 C1003 1.419 . S
C1005 C1006 1.363 . S
C1005 H1008 0.929 . S
C1006 C1005 1.363 . S
C1006 C1012 1.428 1_565 S
H1007 C1003 0.930 . S
H1008 C1005 0.929 . S
S1009 N1010 1.613 . S
S1009 N1011 1.610 . S
N1010 S1009 1.613 . S
N1010 C1013 1.350 . S
N1011 S1009 1.610 . S
N1011 C1012 1.351 . S
C1012 C1006 1.428 1_545 S
C1012 N1011 1.351 . S
C1012 C1013 1.434 . S
C1013 C1004 1.429 1_545 S
C1013 N1010 1.350 . S
C1013 C1012 1.434 . S
C1014 C1015 1.369 . S
C1014 C1016 1.419 . S
C1014 H1018 0.930 . S
C1015 C1014 1.369 . S
C1015 C1024 1.429 1_565 S
C1016 C1014 1.419 . S
C1016 C1017 1.363 . S
C1016 H1019 0.929 . S
C1017 C1016 1.363 . S
C1017 C1023 1.428 1_565 S
H1018 C1014 0.930 . S
H1019 C1016 0.929 . S
S1020 N1021 1.613 . S
S1020 N1022 1.610 . S
N1021 S1020 1.613 . S
N1021 C1024 1.350 . S
N1022 S1020 1.610 . S
N1022 C1023 1.351 . S
C1023 C1017 1.428 1_545 S
C1023 N1022 1.351 . S
C1023 C1024 1.434 . S
C1024 C1015 1.429 1_545 S
C1024 N1021 1.350 . S
C1024 C1023 1.434 . S
C1025 C1026 1.369 . S
C1025 C1027 1.419 . S
C1025 H1029 0.930 . S
C1026 C1025 1.369 . S
C1026 C1035 1.429 . S
C1027 C1025 1.419 . S
C1027 C1028 1.363 . S
C1027 H1030 0.929 . S
C1028 C1027 1.363 . S
C1028 C1034 1.428 . S
H1029 C1025 0.930 . S
H1030 C1027 0.929 . S
S1031 N1032 1.613 . S
S1031 N1033 1.610 . S
N1032 S1031 1.613 . S
N1032 C1035 1.350 . S
N1033 S1031 1.610 . S
N1033 C1034 1.351 . S
C1034 C1028 1.428 . S
C1034 N1033 1.351 . S
C1034 C1035 1.434 . S
C1035 C1026 1.429 . S
C1035 N1032 1.350 . S
C1035 C1034 1.434 . S
C1036 C1037 1.369 . S
C1036 C1038 1.419 . S
C1036 H1040 0.930 . S
C1037 C1036 1.369 . S
C1037 C1046 1.429 . S
C1038 C1036 1.419 . S
C1038 C1039 1.363 . S
C1038 H1041 0.929 . S
C1039 C1038 1.363 . S
C1039 C1045 1.428 . S
H1040 C1036 0.930 . S
H1041 C1038 0.929 . S
S1042 N1043 1.613 . S
S1042 N1044 1.610 . S
N1043 S1042 1.613 . S
N1043 C1046 1.350 . S
N1044 S1042 1.610 . S
N1044 C1045 1.351 . S
C1045 C1039 1.428 . S
C1045 N1044 1.351 . S
C1045 C1046 1.434 . S
C1046 C1037 1.429 . S
C1046 N1043 1.350 . S
C1046 C1045 1.434 . S
C1047 C1048 1.369 . S
C1047 C1049 1.419 . S
C1047 H1051 0.930 . S
C1048 C1047 1.369 . S
C1048 C1057 1.429 1_545 S
C1049 C1047 1.419 . S
C1049 C1050 1.363 . S
C1049 H1052 0.929 . S
C1050 C1049 1.363 . S
C1050 C1056 1.428 1_545 S
H1051 C1047 0.930 . S
H1052 C1049 0.929 . S
S1053 N1054 1.613 . S
S1053 N1055 1.610 . S
N1054 S1053 1.613 . S
N1054 C1057 1.350 . S
N1055 S1053 1.610 . S
N1055 C1056 1.351 . S
C1056 C1050 1.428 1_565 S
C1056 N1055 1.351 . S
C1056 C1057 1.434 . S
C1057 C1048 1.429 1_565 S
C1057 N1054 1.350 . S
C1057 C1056 1.434 . S
C1058 C1059 1.368 1_565 S
C1058 C1060 1.418 . S
C1058 H1062 0.931 . S
C1059 C1058 1.368 1_545 S
C1059 C1068 1.429 . S
C1060 C1058 1.418 . S
C1060 C1061 1.363 1_565 S
C1060 H1063 0.929 . S
C1061 C1060 1.363 1_545 S
C1061 C1067 1.428 . S
H1062 C1058 0.931 . S
H1063 C1060 0.929 . S
S1064 N1065 1.613 . S
S1064 N1066 1.610 . S
N1065 S1064 1.613 . S
N1065 C1068 1.350 . S
N1066 S1064 1.610 . S
N1066 C1067 1.351 . S
C1067 C1061 1.428 . S
C1067 N1066 1.351 . S
C1067 C1068 1.434 . S
C1068 C1059 1.429 . S
C1068 N1065 1.350 . S
C1068 C1067 1.434 . S
C1069 C1070 1.369 . S
C1069 C1071 1.419 . S
C1069 H1073 0.930 . S
C1070 C1069 1.369 . S
C1070 C1079 1.429 . S
C1071 C1069 1.419 . S
C1071 C1072 1.363 . S
C1071 H1074 0.929 . S
C1072 C1071 1.363 . S
C1072 C1078 1.428 . S
H1073 C1069 0.930 . S
H1074 C1071 0.929 . S
S1075 N1076 1.613 . S
S1075 N1077 1.610 . S
N1076 S1075 1.613 . S
N1076 C1079 1.350 . S
N1077 S1075 1.610 . S
N1077 C1078 1.351 . S
C1078 C1072 1.428 . S
C1078 N1077 1.351 . S
C1078 C1079 1.434 . S
C1079 C1070 1.429 . S
C1079 N1076 1.350 . S
C1079 C1078 1.434 . S
C1080 C1081 1.369 . S
C1080 C1082 1.419 . S
C1080 H1084 0.930 . S
C1081 C1080 1.369 . S
C1081 C1090 1.429 . S
C1082 C1080 1.419 . S
C1082 C1083 1.363 . S
C1082 H1085 0.929 . S
C1083 C1082 1.363 . S
C1083 C1089 1.428 . S
H1084 C1080 0.930 . S
H1085 C1082 0.929 . S
S1086 N1087 1.613 . S
S1086 N1088 1.610 . S
N1087 S1086 1.613 . S
N1087 C1090 1.350 . S
N1088 S1086 1.610 . S
N1088 C1089 1.351 . S
C1089 C1083 1.428 . S
C1089 N1088 1.351 . S
C1089 C1090 1.434 . S
C1090 C1081 1.429 . S
C1090 N1087 1.350 . S
C1090 C1089 1.434 . S
C1091 C1092 1.369 . S
C1091 C1093 1.419 . S
C1091 H1095 0.930 . S
C1092 C1091 1.369 . S
C1092 C1101 1.429 . S
C1093 C1091 1.419 . S
C1093 C1094 1.363 . S
C1093 H1096 0.929 . S
C1094 C1093 1.363 . S
C1094 C1100 1.428 . S
H1095 C1091 0.930 . S
H1096 C1093 0.929 . S
S1097 N1098 1.613 . S
S1097 N1099 1.610 . S
N1098 S1097 1.613 . S
N1098 C1101 1.350 . S
N1099 S1097 1.610 . S
N1099 C1100 1.351 . S
C1100 C1094 1.428 . S
C1100 N1099 1.351 . S
C1100 C1101 1.434 . S
C1101 C1092 1.429 . S
C1101 N1098 1.350 . S
C1101 C1100 1.434 . S
C1102 C1103 1.369 . S
C1102 C1104 1.419 1_556 S
C1102 H1106 0.930 . S
C1103 C1102 1.369 . S
C1103 C1112 1.429 . S
C1104 C1102 1.419 1_554 S
C1104 C1105 1.363 . S
C1104 H1107 0.929 . S
C1105 C1104 1.363 . S
C1105 C1111 1.428 . S
H1106 C1102 0.930 . S
H1107 C1104 0.929 . S
S1108 N1109 1.613 . S
S1108 N1110 1.610 1_556 S
N1109 S1108 1.613 . S
N1109 C1112 1.350 . S
N1110 S1108 1.610 1_554 S
N1110 C1111 1.351 . S
C1111 C1105 1.428 . S
C1111 N1110 1.351 . S
C1111 C1112 1.434 1_554 S
C1112 C1103 1.429 . S
C1112 N1109 1.350 . S
C1112 C1111 1.434 1_556 S
C1113 C1114 1.369 . S
C1113 C1115 1.419 1_556 S
C1113 H1117 0.930 . S
C1114 C1113 1.369 . S
C1114 C1123 1.429 . S
C1115 C1113 1.419 1_554 S
C1115 C1116 1.363 . S
C1115 H1118 0.929 . S
C1116 C1115 1.363 . S
C1116 C1122 1.428 . S
H1117 C1113 0.930 . S
H1118 C1115 0.929 . S
S1119 N1120 1.613 . S
S1119 N1121 1.610 1_556 S
N1120 S1119 1.613 . S
N1120 C1123 1.350 . S
N1121 S1119 1.610 1_554 S
N1121 C1122 1.351 . S
C1122 C1116 1.428 . S
C1122 N1121 1.351 . S
C1122 C1123 1.434 1_554 S
C1123 C1114 1.429 . S
C1123 N1120 1.350 . S
C1123 C1122 1.434 1_556 S
C1124 C1125 1.369 . S
C1124 C1126 1.419 . S
C1124 H1128 0.930 . S
C1125 C1124 1.369 . S
C1125 C1134 1.429 . S
C1126 C1124 1.419 . S
C1126 C1127 1.363 . S
C1126 H1129 0.929 . S
C1127 C1126 1.363 . S
C1127 C1133 1.428 . S
H1128 C1124 0.930 . S
H1129 C1126 0.929 . S
S1130 N1131 1.613 . S
S1130 N1132 1.610 . S
N1131 S1130 1.613 . S
N1131 C1134 1.350 . S
N1132 S1130 1.610 . S
N1132 C1133 1.351 . S
C1133 C1127 1.428 . S
C1133 N1132 1.351 . S
C1133 C1134 1.434 . S
C1134 C1125 1.429 . S
C1134 N1131 1.350 . S
C1134 C1133 1.434 . S
C1135 C1136 1.369 . S
C1135 C1137 1.419 . S
C1135 H1139 0.930 . S
C1136 C1135 1.369 . S
C1136 C1145 1.429 . S
C1137 C1135 1.419 . S
C1137 C1138 1.363 . S
C1137 H1140 0.929 . S
C1138 C1137 1.363 . S
C1138 C1144 1.428 . S
H1139 C1135 0.930 . S
H1140 C1137 0.929 . S
S1141 N1142 1.613 . S
S1141 N1143 1.610 . S
N1142 S1141 1.613 . S
N1142 C1145 1.350 . S
N1143 S1141 1.610 . S
N1143 C1144 1.351 . S
C1144 C1138 1.428 . S
C1144 N1143 1.351 . S
C1144 C1145 1.434 . S
C1145 C1136 1.429 . S
C1145 N1142 1.350 . S
C1145 C1144 1.434 . S
C1146 C1147 1.369 . S
C1146 C1148 1.419 1_554 S
C1146 H1150 0.930 . S
C1147 C1146 1.369 . S
C1147 C1156 1.429 . S
C1148 C1146 1.419 1_556 S
C1148 C1149 1.363 . S
C1148 H1151 0.929 . S
C1149 C1148 1.363 . S
C1149 C1155 1.428 . S
H1150 C1146 0.930 . S
H1151 C1148 0.929 . S
S1152 N1153 1.613 . S
S1152 N1154 1.610 1_554 S
N1153 S1152 1.613 . S
N1153 C1156 1.350 . S
N1154 S1152 1.610 1_556 S
N1154 C1155 1.351 . S
C1155 C1149 1.428 . S
C1155 N1154 1.351 . S
C1155 C1156 1.434 1_556 S
C1156 C1147 1.429 . S
C1156 N1153 1.350 . S
C1156 C1155 1.434 1_554 S
C1157 C1158 1.369 . S
C1157 C1159 1.419 1_556 S
C1157 H1161 0.930 . S
C1158 C1157 1.369 . S
C1158 C1167 1.429 . S
C1159 C1157 1.419 1_554 S
C1159 C1160 1.363 . S
C1159 H1162 0.929 . S
C1160 C1159 1.363 . S
C1160 C1166 1.428 . S
H1161 C1157 0.930 . S
H1162 C1159 0.929 . S
S1163 N1164 1.613 . S
S1163 N1165 1.610 1_556 S
N1164 S1163 1.613 . S
N1164 C1167 1.350 . S
N1165 S1163 1.610 1_554 S
N1165 C1166 1.351 . S
C1166 C1160 1.428 . S
C1166 N1165 1.351 . S
C1166 C1167 1.434 1_554 S
C1167 C1158 1.429 . S
C1167 N1164 1.350 . S
C1167 C1166 1.434 1_556 S
C1168 C1169 1.369 . S
C1168 C1170 1.419 . S
C1168 H1172 0.930 . S
C1169 C1168 1.369 . S
C1169 C1178 1.429 . S
C1170 C1168 1.419 . S
C1170 C1171 1.363 . S
C1170 H1173 0.929 . S
C1171 C1170 1.363 . S
C1171 C1177 1.428 . S
H1172 C1168 0.930 . S
H1173 C1170 0.929 . S
S1174 N1175 1.613 . S
S1174 N1176 1.610 . S
N1175 S1174 1.613 . S
N1175 C1178 1.350 . S
N1176 S1174 1.610 . S
N1176 C1177 1.351 . S
C1177 C1171 1.428 . S
C1177 N1176 1.351 . S
C1177 C1178 1.434 . S
C1178 C1169 1.429 . S
C1178 N1175 1.350 . S
C1178 C1177 1.434 . S
C1179 C1180 1.369 . S
C1179 C1181 1.419 . S
C1179 H1183 0.930 . S
C1180 C1179 1.369 . S
C1180 C1189 1.429 1_565 S
C1181 C1179 1.419 . S
C1181 C1182 1.363 . S
C1181 H1184 0.929 . S
C1182 C1181 1.363 . S
C1182 C1188 1.428 1_565 S
H1183 C1179 0.930 . S
H1184 C1181 0.929 . S
S1185 N1186 1.613 . S
S1185 N1187 1.610 . S
N1186 S1185 1.613 . S
N1186 C1189 1.350 . S
N1187 S1185 1.610 . S
N1187 C1188 1.351 . S
C1188 C1182 1.428 1_545 S
C1188 N1187 1.351 . S
C1188 C1189 1.434 . S
C1189 C1180 1.429 1_545 S
C1189 N1186 1.350 . S
C1189 C1188 1.434 . S
C1190 C1191 1.369 1_545 S
C1190 C1192 1.419 1_556 S
C1190 H1194 0.930 . S
C1191 C1190 1.369 1_565 S
C1191 C1200 1.429 . S
C1192 C1190 1.419 1_554 S
C1192 C1193 1.363 1_545 S
C1192 H1195 0.929 . S
C1193 C1192 1.363 1_565 S
C1193 C1199 1.428 . S
H1194 C1190 0.930 . S
H1195 C1192 0.929 . S
S1196 N1197 1.613 . S
S1196 N1198 1.610 1_556 S
N1197 S1196 1.613 . S
N1197 C1200 1.350 . S
N1198 S1196 1.610 1_554 S
N1198 C1199 1.351 . S
C1199 C1193 1.428 . S
C1199 N1198 1.351 . S
C1199 C1200 1.434 1_554 S
C1200 C1191 1.429 . S
C1200 N1197 1.350 . S
C1200 C1199 1.434 1_556 S
C1201 C1202 1.369 . S
C1201 C1203 1.419 1_556 S
C1201 H1205 0.930 . S
C1202 C1201 1.369 . S
C1202 C1211 1.429 . S
C1203 C1201 1.419 1_554 S
C1203 C1204 1.363 . S
C1203 H1206 0.929 . S
C1204 C1203 1.363 . S
C1204 C1210 1.428 . S
H1205 C1201 0.930 . S
H1206 C1203 0.929 . S
S1207 N1208 1.613 . S
S1207 N1209 1.610 1_556 S
N1208 S1207 1.613 . S
N1208 C1211 1.350 . S
N1209 S1207 1.610 1_554 S
N1209 C1210 1.351 . S
C1210 C1204 1.428 . S
C1210 N1209 1.351 . S
C1210 C1211 1.434 1_554 S
C1211 C1202 1.429 . S
C1211 N1208 1.350 . S
C1211 C1210 1.434 1_556 S
C1212 C1213 1.369 . S
C1212 C1214 1.419 . S
C1212 H1216 0.930 . S
C1213 C1212 1.369 . S
C1213 C1222 1.429 . S
C1214 C1212 1.419 . S
C1214 C1215 1.363 . S
C1214 H1217 0.929 . S
C1215 C1214 1.363 . S
C1215 C1221 1.428 . S
H1216 C1212 0.930 . S
H1217 C1214 0.929 . S
S1218 N1219 1.613 . S
S1218 N1220 1.610 . S
N1219 S1218 1.613 . S
N1219 C1222 1.350 . S
N1220 S1218 1.610 . S
N1220 C1221 1.351 . S
C1221 C1215 1.428 . S
C1221 N1220 1.351 . S
C1221 C1222 1.434 . S
C1222 C1213 1.429 . S
C1222 N1219 1.350 . S
C1222 C1221 1.434 . S
C1223 C1224 1.369 . S
C1223 C1225 1.419 . S
C1223 H1227 0.930 . S
C1224 C1223 1.369 . S
C1224 C1233 1.429 1_545 S
C1225 C1223 1.419 . S
C1225 C1226 1.363 . S
C1225 H1228 0.929 . S
C1226 C1225 1.363 . S
C1226 C1232 1.428 1_545 S
H1227 C1223 0.930 . S
H1228 C1225 0.929 . S
S1229 N1230 1.613 . S
S1229 N1231 1.610 . S
N1230 S1229 1.613 . S
N1230 C1233 1.350 . S
N1231 S1229 1.610 . S
N1231 C1232 1.351 . S
C1232 C1226 1.428 1_565 S
C1232 N1231 1.351 . S
C1232 C1233 1.434 . S
C1233 C1224 1.429 1_565 S
C1233 N1230 1.350 . S
C1233 C1232 1.434 . S
C1234 C1235 1.369 . S
C1234 C1236 1.419 1_556 S
C1234 H1238 0.930 . S
C1235 C1234 1.369 . S
C1235 C1244 1.429 1_545 S
C1236 C1234 1.419 1_554 S
C1236 C1237 1.363 . S
C1236 H1239 0.929 . S
C1237 C1236 1.363 . S
C1237 C1243 1.428 1_545 S
H1238 C1234 0.930 . S
H1239 C1236 0.929 . S
S1240 N1241 1.613 1_554 S
S1240 N1242 1.610 . S
N1241 S1240 1.613 1_556 S
N1241 C1244 1.350 . S
N1242 S1240 1.610 . S
N1242 C1243 1.351 . S
C1243 C1237 1.428 1_565 S
C1243 N1242 1.351 . S
C1243 C1244 1.434 1_554 S
C1244 C1235 1.429 1_565 S
C1244 N1241 1.350 . S
C1244 C1243 1.434 1_556 S
C1245 C1246 1.369 . S
C1245 C1247 1.419 1_556 S
C1245 H1249 0.930 . S
C1246 C1245 1.369 . S
C1246 C1255 1.429 . S
C1247 C1245 1.419 1_554 S
C1247 C1248 1.363 . S
C1247 H1250 0.929 . S
C1248 C1247 1.363 . S
C1248 C1254 1.428 . S
H1249 C1245 0.930 . S
H1250 C1247 0.929 . S
S1251 N1252 1.613 . S
S1251 N1253 1.610 1_556 S
N1252 S1251 1.613 . S
N1252 C1255 1.350 . S
N1253 S1251 1.610 1_554 S
N1253 C1254 1.351 . S
C1254 C1248 1.428 . S
C1254 N1253 1.351 . S
C1254 C1255 1.434 1_554 S
C1255 C1246 1.429 . S
C1255 N1252 1.350 . S
C1255 C1254 1.434 1_556 S
C1256 C1257 1.369 . S
C1256 C1258 1.419 . S
C1256 H1260 0.930 . S
C1257 C1256 1.369 . S
C1257 C1266 1.429 . S
C1258 C1256 1.419 . S
C1258 C1259 1.363 . S
C1258 H1261 0.929 . S
C1259 C1258 1.363 . S
C1259 C1265 1.428 . S
H1260 C1256 0.930 . S
H1261 C1258 0.929 . S
S1262 N1263 1.613 . S
S1262 N1264 1.610 . S
N1263 S1262 1.613 . S
N1263 C1266 1.350 . S
N1264 S1262 1.610 . S
N1264 C1265 1.351 . S
C1265 C1259 1.428 . S
C1265 N1264 1.351 . S
C1265 C1266 1.434 . S
C1266 C1257 1.429 . S
C1266 N1263 1.350 . S
C1266 C1265 1.434 . S
C1267 C1268 1.369 . S
C1267 C1269 1.419 . S
C1267 H1271 0.930 . S
C1268 C1267 1.369 . S
C1268 C1277 1.429 . S
C1269 C1267 1.419 . S
C1269 C1270 1.363 . S
C1269 H1272 0.929 . S
C1270 C1269 1.363 . S
C1270 C1276 1.428 . S
H1271 C1267 0.930 . S
H1272 C1269 0.929 . S
S1273 N1274 1.613 . S
S1273 N1275 1.610 . S
N1274 S1273 1.613 . S
N1274 C1277 1.350 . S
N1275 S1273 1.610 . S
N1275 C1276 1.351 . S
C1276 C1270 1.428 . S
C1276 N1275 1.351 . S
C1276 C1277 1.434 . S
C1277 C1268 1.429 . S
C1277 N1274 1.350 . S
C1277 C1276 1.434 . S
C1278 C1279 1.369 . S
C1278 C1280 1.419 . S
C1278 H1282 0.930 . S
C1279 C1278 1.369 . S
C1279 C1288 1.429 . S
C1280 C1278 1.419 . S
C1280 C1281 1.363 . S
C1280 H1283 0.929 . S
C1281 C1280 1.363 . S
C1281 C1287 1.428 . S
H1282 C1278 0.930 . S
H1283 C1280 0.929 . S
S1284 N1285 1.613 . S
S1284 N1286 1.610 . S
N1285 S1284 1.613 . S
N1285 C1288 1.350 . S
N1286 S1284 1.610 . S
N1286 C1287 1.351 . S
C1287 C1281 1.428 . S
C1287 N1286 1.351 . S
C1287 C1288 1.434 . S
C1288 C1279 1.429 . S
C1288 N1285 1.350 . S
C1288 C1287 1.434 . S
C1289 C1290 1.369 . S
C1289 C1291 1.419 . S
C1289 H1293 0.930 . S
C1290 C1289 1.369 . S
C1290 C1299 1.429 . S
C1291 C1289 1.419 . S
C1291 C1292 1.363 . S
C1291 H1294 0.929 . S
C1292 C1291 1.363 . S
C1292 C1298 1.428 . S
H1293 C1289 0.930 . S
H1294 C1291 0.929 . S
S1295 N1296 1.613 . S
S1295 N1297 1.610 . S
N1296 S1295 1.613 . S
N1296 C1299 1.350 . S
N1297 S1295 1.610 . S
N1297 C1298 1.351 . S
C1298 C1292 1.428 . S
C1298 N1297 1.351 . S
C1298 C1299 1.434 . S
C1299 C1290 1.429 . S
C1299 N1296 1.350 . S
C1299 C1298 1.434 . S
C1300 C1301 1.369 . S
C1300 C1302 1.419 . S
C1300 H1304 0.930 . S
C1301 C1300 1.369 . S
C1301 C1310 1.429 . S
C1302 C1300 1.419 . S
C1302 C1303 1.363 . S
C1302 H1305 0.929 . S
C1303 C1302 1.363 . S
C1303 C1309 1.428 . S
H1304 C1300 0.930 . S
H1305 C1302 0.929 . S
S1306 N1307 1.613 . S
S1306 N1308 1.610 . S
N1307 S1306 1.613 . S
N1307 C1310 1.350 . S
N1308 S1306 1.610 . S
N1308 C1309 1.351 . S
C1309 C1303 1.428 . S
C1309 N1308 1.351 . S
C1309 C1310 1.434 . S
C1310 C1301 1.429 . S
C1310 N1307 1.350 . S
C1310 C1309 1.434 . S
C1311 C1312 1.369 . S
C1311 C1313 1.419 . S
C1311 H1315 0.930 . S
C1312 C1311 1.369 . S
C1312 C1321 1.429 . S
C1313 C1311 1.419 . S
C1313 C1314 1.363 . S
C1313 H1316 0.929 . S
C1314 C1313 1.363 . S
C1314 C1320 1.428 . S
H1315 C1311 0.930 . S
H1316 C1313 0.929 . S
S1317 N1318 1.613 . S
S1317 N1319 1.610 . S
N1318 S1317 1.613 . S
N1318 C1321 1.350 . S
N1319 S1317 1.610 . S
N1319 C1320 1.351 . S
C1320 C1314 1.428 . S
C1320 N1319 1.351 . S
C1320 C1321 1.434 . S
C1321 C1312 1.429 . S
C1321 N1318 1.350 . S
C1321 C1320 1.434 . S
C1322 C1323 1.369 . S
C1322 C1324 1.419 . S
C1322 H1326 0.930 . S
C1323 C1322 1.369 . S
C1323 C1332 1.429 . S
C1324 C1322 1.419 . S
C1324 C1325 1.363 . S
C1324 H1327 0.929 . S
C1325 C1324 1.363 . S
C1325 C1331 1.428 . S
H1326 C1322 0.930 . S
H1327 C1324 0.929 . S
S1328 N1329 1.613 . S
S1328 N1330 1.610 . S
N1329 S1328 1.613 . S
N1329 C1332 1.350 . S
N1330 S1328 1.610 . S
N1330 C1331 1.351 . S
C1331 C1325 1.428 . S
C1331 N1330 1.351 . S
C1331 C1332 1.434 . S
C1332 C1323 1.429 . S
C1332 N1329 1.350 . S
C1332 C1331 1.434 . S
C1333 C1334 1.369 . S
C1333 C1335 1.419 . S
C1333 H1337 0.930 . S
C1334 C1333 1.369 . S
C1334 C1343 1.429 . S
C1335 C1333 1.419 . S
C1335 C1336 1.363 . S
C1335 H1338 0.929 . S
C1336 C1335 1.363 . S
C1336 C1342 1.428 . S
H1337 C1333 0.930 . S
H1338 C1335 0.929 . S
S1339 N1340 1.613 . S
S1339 N1341 1.610 . S
N1340 S1339 1.613 . S
N1340 C1343 1.350 . S
N1341 S1339 1.610 . S
N1341 C1342 1.351 . S
C1342 C1336 1.428 . S
C1342 N1341 1.351 . S
C1342 C1343 1.434 . S
C1343 C1334 1.429 . S
C1343 N1340 1.350 . S
C1343 C1342 1.434 . S
C1344 C1345 1.369 . S
C1344 C1346 1.419 . S
C1344 H1348 0.930 . S
C1345 C1344 1.369 . S
C1345 C1354 1.429 . S
C1346 C1344 1.419 . S
C1346 C1347 1.363 . S
C1346 H1349 0.929 . S
C1347 C1346 1.363 . S
C1347 C1353 1.428 . S
H1348 C1344 0.930 . S
H1349 C1346 0.929 . S
S1350 N1351 1.613 . S
S1350 N1352 1.610 . S
N1351 S1350 1.613 . S
N1351 C1354 1.350 . S
N1352 S1350 1.610 . S
N1352 C1353 1.351 . S
C1353 C1347 1.428 . S
C1353 N1352 1.351 . S
C1353 C1354 1.434 . S
C1354 C1345 1.429 . S
C1354 N1351 1.350 . S
C1354 C1353 1.434 . S
C1355 C1356 1.369 . S
C1355 C1357 1.419 . S
C1355 H1359 0.930 . S
C1356 C1355 1.369 . S
C1356 C1365 1.429 . S
C1357 C1355 1.419 . S
C1357 C1358 1.363 . S
C1357 H1360 0.929 . S
C1358 C1357 1.363 . S
C1358 C1364 1.428 . S
H1359 C1355 0.930 . S
H1360 C1357 0.929 . S
S1361 N1362 1.613 . S
S1361 N1363 1.610 . S
N1362 S1361 1.613 . S
N1362 C1365 1.350 . S
N1363 S1361 1.610 . S
N1363 C1364 1.351 . S
C1364 C1358 1.428 . S
C1364 N1363 1.351 . S
C1364 C1365 1.434 . S
C1365 C1356 1.429 . S
C1365 N1362 1.350 . S
C1365 C1364 1.434 . S
C1366 C1367 1.369 . S
C1366 C1368 1.419 . S
C1366 H1370 0.930 . S
C1367 C1366 1.369 . S
C1367 C1376 1.429 . S
C1368 C1366 1.419 . S
C1368 C1369 1.363 . S
C1368 H1371 0.929 . S
C1369 C1368 1.363 . S
C1369 C1375 1.428 . S
H1370 C1366 0.930 . S
H1371 C1368 0.929 . S
S1372 N1373 1.613 . S
S1372 N1374 1.610 . S
N1373 S1372 1.613 . S
N1373 C1376 1.350 1_554 S
N1374 S1372 1.610 . S
N1374 C1375 1.351 1_554 S
C1375 C1369 1.428 . S
C1375 N1374 1.351 1_556 S
C1375 C1376 1.434 . S
C1376 C1367 1.429 . S
C1376 N1373 1.350 1_556 S
C1376 C1375 1.434 . S
C1377 C1378 1.369 . S
C1377 C1379 1.419 . S
C1377 H1381 0.930 . S
C1378 C1377 1.369 . S
C1378 C1387 1.429 . S
C1379 C1377 1.419 . S
C1379 C1380 1.363 . S
C1379 H1382 0.929 . S
C1380 C1379 1.363 . S
C1380 C1386 1.428 . S
H1381 C1377 0.930 . S
H1382 C1379 0.929 . S
S1383 N1384 1.613 . S
S1383 N1385 1.610 . S
N1384 S1383 1.613 . S
N1384 C1387 1.350 . S
N1385 S1383 1.610 . S
N1385 C1386 1.351 . S
C1386 C1380 1.428 . S
C1386 N1385 1.351 . S
C1386 C1387 1.434 . S
C1387 C1378 1.429 . S
C1387 N1384 1.350 . S
C1387 C1386 1.434 . S
C1388 C1389 1.369 . S
C1388 C1390 1.419 . S
C1388 H1392 0.930 . S
C1389 C1388 1.369 . S
C1389 C1398 1.429 . S
C1390 C1388 1.419 . S
C1390 C1391 1.363 . S
C1390 H1393 0.929 . S
C1391 C1390 1.363 . S
C1391 C1397 1.428 . S
H1392 C1388 0.930 . S
H1393 C1390 0.929 . S
S1394 N1395 1.613 . S
S1394 N1396 1.610 . S
N1395 S1394 1.613 . S
N1395 C1398 1.350 . S
N1396 S1394 1.610 . S
N1396 C1397 1.351 . S
C1397 C1391 1.428 . S
C1397 N1396 1.351 . S
C1397 C1398 1.434 . S
C1398 C1389 1.429 . S
C1398 N1395 1.350 . S
C1398 C1397 1.434 . S
C1399 C1400 1.369 . S
C1399 C1401 1.419 . S
C1399 H1403 0.930 . S
C1400 C1399 1.369 . S
C1400 C1409 1.429 . S
C1401 C1399 1.419 . S
C1401 C1402 1.363 . S
C1401 H1404 0.929 . S
C1402 C1401 1.363 . S
C1402 C1408 1.428 . S
H1403 C1399 0.930 . S
H1404 C1401 0.929 . S
S1405 N1406 1.613 . S
S1405 N1407 1.610 . S
N1406 S1405 1.613 . S
N1406 C1409 1.350 . S
N1407 S1405 1.610 . S
N1407 C1408 1.351 . S
C1408 C1402 1.428 . S
C1408 N1407 1.351 . S
C1408 C1409 1.434 . S
C1409 C1400 1.429 . S
C1409 N1406 1.350 . S
C1409 C1408 1.434 . S
C1410 C1411 1.369 . S
C1410 C1412 1.419 . S
C1410 H1414 0.930 . S
C1411 C1410 1.369 . S
C1411 C1420 1.429 . S
C1412 C1410 1.419 . S
C1412 C1413 1.363 . S
C1412 H1415 0.929 . S
C1413 C1412 1.363 . S
C1413 C1419 1.428 . S
H1414 C1410 0.930 . S
H1415 C1412 0.929 . S
S1416 N1417 1.613 . S
S1416 N1418 1.610 . S
N1417 S1416 1.613 . S
N1417 C1420 1.350 . S
N1418 S1416 1.610 . S
N1418 C1419 1.351 . S
C1419 C1413 1.428 . S
C1419 N1418 1.351 . S
C1419 C1420 1.434 . S
C1420 C1411 1.429 . S
C1420 N1417 1.350 . S
C1420 C1419 1.434 . S
C1421 C1422 1.369 . S
C1421 C1423 1.419 . S
C1421 H1425 0.930 . S
C1422 C1421 1.369 . S
C1422 C1431 1.429 . S
C1423 C1421 1.419 . S
C1423 C1424 1.363 . S
C1423 H1426 0.929 . S
C1424 C1423 1.363 . S
C1424 C1430 1.428 . S
H1425 C1421 0.930 . S
H1426 C1423 0.929 . S
S1427 N1428 1.613 . S
S1427 N1429 1.610 . S
N1428 S1427 1.613 . S
N1428 C1431 1.350 1_556 S
N1429 S1427 1.610 . S
N1429 C1430 1.351 1_556 S
C1430 C1424 1.428 . S
C1430 N1429 1.351 1_554 S
C1430 C1431 1.434 . S
C1431 C1422 1.429 . S
C1431 N1428 1.350 1_554 S
C1431 C1430 1.434 . S
C1432 C1433 1.369 . S
C1432 C1434 1.419 . S
C1432 H1436 0.930 . S
C1433 C1432 1.369 . S
C1433 C1442 1.429 . S
C1434 C1432 1.419 . S
C1434 C1435 1.363 . S
C1434 H1437 0.929 . S
C1435 C1434 1.363 . S
C1435 C1441 1.428 . S
H1436 C1432 0.930 . S
H1437 C1434 0.929 . S
S1438 N1439 1.613 . S
S1438 N1440 1.610 . S
N1439 S1438 1.613 . S
N1439 C1442 1.350 . S
N1440 S1438 1.610 . S
N1440 C1441 1.351 . S
C1441 C1435 1.428 . S
C1441 N1440 1.351 . S
C1441 C1442 1.434 . S
C1442 C1433 1.429 . S
C1442 N1439 1.350 . S
C1442 C1441 1.434 . S
C1443 C1444 1.369 . S
C1443 C1445 1.419 . S
C1443 H1447 0.930 . S
C1444 C1443 1.369 . S
C1444 C1453 1.429 . S
C1445 C1443 1.419 . S
C1445 C1446 1.363 . S
C1445 H1448 0.929 . S
C1446 C1445 1.363 . S
C1446 C1452 1.428 . S
H1447 C1443 0.930 . S
H1448 C1445 0.929 . S
S1449 N1450 1.613 . S
S1449 N1451 1.610 . S
N1450 S1449 1.613 . S
N1450 C1453 1.350 1_554 S
N1451 S1449 1.610 . S
N1451 C1452 1.351 1_554 S
C1452 C1446 1.428 . S
C1452 N1451 1.351 1_556 S
C1452 C1453 1.434 . S
C1453 C1444 1.429 . S
C1453 N1450 1.350 1_556 S
C1453 C1452 1.434 . S
C1454 C1455 1.369 . S
C1454 C1456 1.419 . S
C1454 H1458 0.930 . S
C1455 C1454 1.369 . S
C1455 C1464 1.429 . S
C1456 C1454 1.419 . S
C1456 C1457 1.363 . S
C1456 H1459 0.929 . S
C1457 C1456 1.363 . S
C1457 C1463 1.428 . S
H1458 C1454 0.930 . S
H1459 C1456 0.929 . S
S1460 N1461 1.613 . S
S1460 N1462 1.610 . S
N1461 S1460 1.613 . S
N1461 C1464 1.350 . S
N1462 S1460 1.610 . S
N1462 C1463 1.351 . S
C1463 C1457 1.428 . S
C1463 N1462 1.351 . S
C1463 C1464 1.434 . S
C1464 C1455 1.429 . S
C1464 N1461 1.350 . S
C1464 C1463 1.434 . S
C1465 C1466 1.369 . S
C1465 C1467 1.419 . S
C1465 H1469 0.930 . S
C1466 C1465 1.369 . S
C1466 C1475 1.429 . S
C1467 C1465 1.419 . S
C1467 C1468 1.363 . S
C1467 H1470 0.929 . S
C1468 C1467 1.363 . S
C1468 C1474 1.428 . S
H1469 C1465 0.930 . S
H1470 C1467 0.929 . S
S1471 N1472 1.613 . S
S1471 N1473 1.610 . S
N1472 S1471 1.613 . S
N1472 C1475 1.350 . S
N1473 S1471 1.610 . S
N1473 C1474 1.351 . S
C1474 C1468 1.428 . S
C1474 N1473 1.351 . S
C1474 C1475 1.434 . S
C1475 C1466 1.429 . S
C1475 N1472 1.350 . S
C1475 C1474 1.434 . S
C1476 C1477 1.369 . S
C1476 C1478 1.419 . S
C1476 H1480 0.930 . S
C1477 C1476 1.369 . S
C1477 C1486 1.429 . S
C1478 C1476 1.419 . S
C1478 C1479 1.363 . S
C1478 H1481 0.929 . S
C1479 C1478 1.363 . S
C1479 C1485 1.428 . S
H1480 C1476 0.930 . S
H1481 C1478 0.929 . S
S1482 N1483 1.613 . S
S1482 N1484 1.610 . S
N1483 S1482 1.613 . S
N1483 C1486 1.350 1_556 S
N1484 S1482 1.610 . S
N1484 C1485 1.351 1_556 S
C1485 C1479 1.428 . S
C1485 N1484 1.351 1_554 S
C1485 C1486 1.434 . S
C1486 C1477 1.429 . S
C1486 N1483 1.350 1_554 S
C1486 C1485 1.434 . S
C1487 C1488 1.369 . S
C1487 C1489 1.419 . S
C1487 H1491 0.930 . S
C1488 C1487 1.369 . S
C1488 C1497 1.429 . S
C1489 C1487 1.419 . S
C1489 C1490 1.363 . S
C1489 H1492 0.929 . S
C1490 C1489 1.363 . S
C1490 C1496 1.428 . S
H1491 C1487 0.930 . S
H1492 C1489 0.929 . S
S1493 N1494 1.613 . S
S1493 N1495 1.610 . S
N1494 S1493 1.613 . S
N1494 C1497 1.350 1_556 S
N1495 S1493 1.610 . S
N1495 C1496 1.351 1_556 S
C1496 C1490 1.428 . S
C1496 N1495 1.351 1_554 S
C1496 C1497 1.434 . S
C1497 C1488 1.429 . S
C1497 N1494 1.350 1_554 S
C1497 C1496 1.434 . S
C1498 C1499 1.369 . S
C1498 C1500 1.419 . S
C1498 H1502 0.930 . S
C1499 C1498 1.369 . S
C1499 C1508 1.429 . S
C1500 C1498 1.419 . S
C1500 C1501 1.363 . S
C1500 H1503 0.929 . S
C1501 C1500 1.363 . S
C1501 C1507 1.428 . S
H1502 C1498 0.930 . S
H1503 C1500 0.929 . S
S1504 N1505 1.613 . S
S1504 N1506 1.610 . S
N1505 S1504 1.613 . S
N1505 C1508 1.350 . S
N1506 S1504 1.610 . S
N1506 C1507 1.351 . S
C1507 C1501 1.428 . S
C1507 N1506 1.351 . S
C1507 C1508 1.434 . S
C1508 C1499 1.429 . S
C1508 N1505 1.350 . S
C1508 C1507 1.434 . S
C1509 C1510 1.369 . S
C1509 C1511 1.419 . S
C1509 H1513 0.930 . S
C1510 C1509 1.369 . S
C1510 C1519 1.429 . S
C1511 C1509 1.419 . S
C1511 C1512 1.363 . S
C1511 H1514 0.929 . S
C1512 C1511 1.363 . S
C1512 C1518 1.428 . S
H1513 C1509 0.930 . S
H1514 C1511 0.929 . S
S1515 N1516 1.613 . S
S1515 N1517 1.610 . S
N1516 S1515 1.613 . S
N1516 C1519 1.350 . S
N1517 S1515 1.610 . S
N1517 C1518 1.351 . S
C1518 C1512 1.428 . S
C1518 N1517 1.351 . S
C1518 C1519 1.434 . S
C1519 C1510 1.429 . S
C1519 N1516 1.350 . S
C1519 C1518 1.434 . S
C1520 C1521 1.369 . S
C1520 C1522 1.419 . S
C1520 H1524 0.930 . S
C1521 C1520 1.369 . S
C1521 C1530 1.429 . S
C1522 C1520 1.419 . S
C1522 C1523 1.363 . S
C1522 H1525 0.929 . S
C1523 C1522 1.363 . S
C1523 C1529 1.428 . S
H1524 C1520 0.930 . S
H1525 C1522 0.929 . S
S1526 N1527 1.613 . S
S1526 N1528 1.610 . S
N1527 S1526 1.613 . S
N1527 C1530 1.350 1_556 S
N1528 S1526 1.610 . S
N1528 C1529 1.351 1_556 S
C1529 C1523 1.428 . S
C1529 N1528 1.351 1_554 S
C1529 C1530 1.434 . S
C1530 C1521 1.429 . S
C1530 N1527 1.350 1_554 S
C1530 C1529 1.434 . S
C1531 C1532 1.369 . S
C1531 C1533 1.419 . S
C1531 H1535 0.930 1_554 S
C1532 C1531 1.369 . S
C1532 C1541 1.429 . S
C1533 C1531 1.419 . S
C1533 C1534 1.363 . S
C1533 H1536 0.929 1_554 S
C1534 C1533 1.363 . S
C1534 C1540 1.428 . S
H1535 C1531 0.930 1_556 S
H1536 C1533 0.929 1_556 S
S1537 N1538 1.613 . S
S1537 N1539 1.610 . S
N1538 S1537 1.613 . S
N1538 C1541 1.350 . S
N1539 S1537 1.610 . S
N1539 C1540 1.351 . S
C1540 C1534 1.428 . S
C1540 N1539 1.351 . S
C1540 C1541 1.434 . S
C1541 C1532 1.429 . S
C1541 N1538 1.350 . S
C1541 C1540 1.434 . S
C1542 C1543 1.369 . S
C1542 C1544 1.419 . S
C1542 H1546 0.930 . S
C1543 C1542 1.369 . S
C1543 C1552 1.429 . S
C1544 C1542 1.419 . S
C1544 C1545 1.363 . S
C1544 H1547 0.929 . S
C1545 C1544 1.363 . S
C1545 C1551 1.428 . S
H1546 C1542 0.930 . S
H1547 C1544 0.929 . S
S1548 N1549 1.613 . S
S1548 N1550 1.610 . S
N1549 S1548 1.613 . S
N1549 C1552 1.350 . S
N1550 S1548 1.610 . S
N1550 C1551 1.351 . S
C1551 C1545 1.428 . S
C1551 N1550 1.351 . S
C1551 C1552 1.434 . S
C1552 C1543 1.429 . S
C1552 N1549 1.350 . S
C1552 C1551 1.434 . S
C1553 C1554 1.369 . S
C1553 C1555 1.419 . S
C1553 H1557 0.930 1_556 S
C1554 C1553 1.369 . S
C1554 C1563 1.429 . S
C1555 C1553 1.419 . S
C1555 C1556 1.363 . S
C1555 H1558 0.929 1_556 S
C1556 C1555 1.363 . S
C1556 C1562 1.428 . S
H1557 C1553 0.930 1_554 S
H1558 C1555 0.929 1_554 S
S1559 N1560 1.613 . S
S1559 N1561 1.610 . S
N1560 S1559 1.613 . S
N1560 C1563 1.350 . S
N1561 S1559 1.610 . S
N1561 C1562 1.351 . S
C1562 C1556 1.428 . S
C1562 N1561 1.351 . S
C1562 C1563 1.434 . S
C1563 C1554 1.429 . S
C1563 N1560 1.350 . S
C1563 C1562 1.434 . S
C1564 C1565 1.369 . S
C1564 C1566 1.419 . S
C1564 H1568 0.930 . S
C1565 C1564 1.369 . S
C1565 C1574 1.429 . S
C1566 C1564 1.419 . S
C1566 C1567 1.363 . S
C1566 H1569 0.929 . S
C1567 C1566 1.363 . S
C1567 C1573 1.428 . S
H1568 C1564 0.930 . S
H1569 C1566 0.929 . S
S1570 N1571 1.613 . S
S1570 N1572 1.610 . S
N1571 S1570 1.613 . S
N1571 C1574 1.350 . S
N1572 S1570 1.610 . S
N1572 C1573 1.351 . S
C1573 C1567 1.428 . S
C1573 N1572 1.351 . S
C1573 C1574 1.434 . S
C1574 C1565 1.429 . S
C1574 N1571 1.350 . S
C1574 C1573 1.434 . S
C1575 C1576 1.369 . S
C1575 C1577 1.419 . S
C1575 H1579 0.930 . S
C1576 C1575 1.369 . S
C1576 C1585 1.429 . S
C1577 C1575 1.419 . S
C1577 C1578 1.363 . S
C1577 H1580 0.929 . S
C1578 C1577 1.363 . S
C1578 C1584 1.428 . S
H1579 C1575 0.930 . S
H1580 C1577 0.929 . S
S1581 N1582 1.613 . S
S1581 N1583 1.610 . S
N1582 S1581 1.613 . S
N1582 C1585 1.350 . S
N1583 S1581 1.610 . S
N1583 C1584 1.351 . S
C1584 C1578 1.428 . S
C1584 N1583 1.351 . S
C1584 C1585 1.434 . S
C1585 C1576 1.429 . S
C1585 N1582 1.350 . S
C1585 C1584 1.434 . S
C1586 C1587 1.369 . S
C1586 C1588 1.419 . S
C1586 H1590 0.930 . S
C1587 C1586 1.369 . S
C1587 C1596 1.429 . S
C1588 C1586 1.419 . S
C1588 C1589 1.363 . S
C1588 H1591 0.929 . S
C1589 C1588 1.363 . S
C1589 C1595 1.428 . S
H1590 C1586 0.930 . S
H1591 C1588 0.929 . S
S1592 N1593 1.613 . S
S1592 N1594 1.610 . S
N1593 S1592 1.613 . S
N1593 C1596 1.350 . S
N1594 S1592 1.610 . S
N1594 C1595 1.351 . S
C1595 C1589 1.428 . S
C1595 N1594 1.351 . S
C1595 C1596 1.434 . S
C1596 C1587 1.429 . S
C1596 N1593 1.350 . S
C1596 C1595 1.434 . S
C1597 C1598 1.369 . S
C1597 C1599 1.419 . S
C1597 H1601 0.930 . S
C1598 C1597 1.369 . S
C1598 C1607 1.429 . S
C1599 C1597 1.419 . S
C1599 C1600 1.363 . S
C1599 H1602 0.929 . S
C1600 C1599 1.363 . S
C1600 C1606 1.428 . S
H1601 C1597 0.930 . S
H1602 C1599 0.929 . S
S1603 N1604 1.613 . S
S1603 N1605 1.610 . S
N1604 S1603 1.613 . S
N1604 C1607 1.350 . S
N1605 S1603 1.610 . S
N1605 C1606 1.351 . S
C1606 C1600 1.428 . S
C1606 N1605 1.351 . S
C1606 C1607 1.434 . S
C1607 C1598 1.429 . S
C1607 N1604 1.350 . S
C1607 C1606 1.434 . S
C1608 C1609 1.369 . S
C1608 C1610 1.419 . S
C1608 H1612 0.930 . S
C1609 C1608 1.369 . S
C1609 C1618 1.429 . S
C1610 C1608 1.419 . S
C1610 C1611 1.363 . S
C1610 H1613 0.929 . S
C1611 C1610 1.363 . S
C1611 C1617 1.428 . S
H1612 C1608 0.930 . S
H1613 C1610 0.929 . S
S1614 N1615 1.613 . S
S1614 N1616 1.610 . S
N1615 S1614 1.613 . S
N1615 C1618 1.350 . S
N1616 S1614 1.610 . S
N1616 C1617 1.351 . S
C1617 C1611 1.428 . S
C1617 N1616 1.351 . S
C1617 C1618 1.434 . S
C1618 C1609 1.429 . S
C1618 N1615 1.350 . S
C1618 C1617 1.434 . S
C1619 C1620 1.369 . S
C1619 C1621 1.419 . S
C1619 H1623 0.930 . S
C1620 C1619 1.369 . S
C1620 C1629 1.429 . S
C1621 C1619 1.419 . S
C1621 C1622 1.363 . S
C1621 H1624 0.929 . S
C1622 C1621 1.363 . S
C1622 C1628 1.428 . S
H1623 C1619 0.930 . S
H1624 C1621 0.929 . S
S1625 N1626 1.613 . S
S1625 N1627 1.610 . S
N1626 S1625 1.613 . S
N1626 C1629 1.350 . S
N1627 S1625 1.610 . S
N1627 C1628 1.351 . S
C1628 C1622 1.428 . S
C1628 N1627 1.351 . S
C1628 C1629 1.434 . S
C1629 C1620 1.429 . S
C1629 N1626 1.350 . S
C1629 C1628 1.434 . S
C1630 C1631 1.369 . S
C1630 C1632 1.419 . S
C1630 H1634 0.930 . S
C1631 C1630 1.369 . S
C1631 C1640 1.429 . S
C1632 C1630 1.419 . S
C1632 C1633 1.363 . S
C1632 H1635 0.929 . S
C1633 C1632 1.363 . S
C1633 C1639 1.428 . S
H1634 C1630 0.930 . S
H1635 C1632 0.929 . S
S1636 N1637 1.613 . S
S1636 N1638 1.610 . S
N1637 S1636 1.613 . S
N1637 C1640 1.350 . S
N1638 S1636 1.610 . S
N1638 C1639 1.351 . S
C1639 C1633 1.428 . S
C1639 N1638 1.351 . S
C1639 C1640 1.434 . S
C1640 C1631 1.429 . S
C1640 N1637 1.350 . S
C1640 C1639 1.434 . S
C1641 C1642 1.369 . S
C1641 C1643 1.419 . S
C1641 H1645 0.930 . S
C1642 C1641 1.369 . S
C1642 C1651 1.429 . S
C1643 C1641 1.419 . S
C1643 C1644 1.363 . S
C1643 H1646 0.929 . S
C1644 C1643 1.363 . S
C1644 C1650 1.428 . S
H1645 C1641 0.930 . S
H1646 C1643 0.929 . S
S1647 N1648 1.613 . S
S1647 N1649 1.610 . S
N1648 S1647 1.613 . S
N1648 C1651 1.350 . S
N1649 S1647 1.610 . S
N1649 C1650 1.351 . S
C1650 C1644 1.428 . S
C1650 N1649 1.351 . S
C1650 C1651 1.434 . S
C1651 C1642 1.429 . S
C1651 N1648 1.350 . S
C1651 C1650 1.434 . S
C1652 C1653 1.369 . S
C1652 C1654 1.419 . S
C1652 H1656 0.930 . S
C1653 C1652 1.369 . S
C1653 C1662 1.429 . S
C1654 C1652 1.419 . S
C1654 C1655 1.363 . S
C1654 H1657 0.929 . S
C1655 C1654 1.363 . S
C1655 C1661 1.428 . S
H1656 C1652 0.930 . S
H1657 C1654 0.929 . S
S1658 N1659 1.613 . S
S1658 N1660 1.610 . S
N1659 S1658 1.613 . S
N1659 C1662 1.350 1_556 S
N1660 S1658 1.610 . S
N1660 C1661 1.351 1_556 S
C1661 C1655 1.428 . S
C1661 N1660 1.351 1_554 S
C1661 C1662 1.434 . S
C1662 C1653 1.429 . S
C1662 N1659 1.350 1_554 S
C1662 C1661 1.434 . S
C1663 C1664 1.369 . S
C1663 C1665 1.419 . S
C1663 H1667 0.930 . S
C1664 C1663 1.369 . S
C1664 C1673 1.429 . S
C1665 C1663 1.419 . S
C1665 C1666 1.363 . S
C1665 H1668 0.929 . S
C1666 C1665 1.363 . S
C1666 C1672 1.428 . S
H1667 C1663 0.930 . S
H1668 C1665 0.929 . S
S1669 N1670 1.613 . S
S1669 N1671 1.610 . S
N1670 S1669 1.613 . S
N1670 C1673 1.350 1_556 S
N1671 S1669 1.610 . S
N1671 C1672 1.351 1_556 S
C1672 C1666 1.428 . S
C1672 N1671 1.351 1_554 S
C1672 C1673 1.434 . S
C1673 C1664 1.429 . S
C1673 N1670 1.350 1_554 S
C1673 C1672 1.434 . S
C1674 C1675 1.369 . S
C1674 C1676 1.419 . S
C1674 H1678 0.930 . S
C1675 C1674 1.369 . S
C1675 C1684 1.429 . S
C1676 C1674 1.419 . S
C1676 C1677 1.363 . S
C1676 H1679 0.929 1_556 S
C1677 C1676 1.363 . S
C1677 C1683 1.428 . S
H1678 C1674 0.930 . S
H1679 C1676 0.929 1_554 S
S1680 N1681 1.613 . S
S1680 N1682 1.610 . S
N1681 S1680 1.613 . S
N1681 C1684 1.350 . S
N1682 S1680 1.610 . S
N1682 C1683 1.351 . S
C1683 C1677 1.428 . S
C1683 N1682 1.351 . S
C1683 C1684 1.434 . S
C1684 C1675 1.429 . S
C1684 N1681 1.350 . S
C1684 C1683 1.434 . S
C1685 C1686 1.369 . S
C1685 C1687 1.419 . S
C1685 H1689 0.930 . S
C1686 C1685 1.369 . S
C1686 C1695 1.429 . S
C1687 C1685 1.419 . S
C1687 C1688 1.363 . S
C1687 H1690 0.929 . S
C1688 C1687 1.363 . S
C1688 C1694 1.428 . S
H1689 C1685 0.930 . S
H1690 C1687 0.929 . S
S1691 N1692 1.613 . S
S1691 N1693 1.610 . S
N1692 S1691 1.613 . S
N1692 C1695 1.350 . S
N1693 S1691 1.610 . S
N1693 C1694 1.351 . S
C1694 C1688 1.428 . S
C1694 N1693 1.351 . S
C1694 C1695 1.434 . S
C1695 C1686 1.429 . S
C1695 N1692 1.350 . S
C1695 C1694 1.434 . S
C641 C566 1.499 . S
C643 C16 1.492 . S
C652 C106 1.491 . S
C654 C36 1.499 . S
C663 C446 1.501 . S
C665 C56 1.491 . S
C674 C306 1.490 . S
C676 C76 1.499 . S
C685 C86 1.500 . S
C687 C496 1.492 . S
C696 C376 1.493 . S
C698 C126 1.497 . S
C707 C236 1.495 . S
C709 C146 1.496 . S
C718 C406 1.494 . S
C720 C176 1.496 . S
C729 C196 1.497 . S
C731 C266 1.494 . S
C740 C216 1.500 . S
C742 C606 1.492 . S
C751 C336 1.501 . S
C753 C246 1.491 . S
C762 C286 1.490 . S
C764 C536 1.499 . S
C773 C356 1.500 . S
C775 C426 1.491 . S
C784 C396 1.494 . S
C786 C626 1.497 . S
C795 C556 1.500 . S
C797 C466 1.492 . S
C806 C586 1.491 . S
C808 C516 1.499 . S
C817 C386 1.605 . S
C819 C6 1.616 . S
C828 C366 1.606 . S
C830 C26 1.616 . S
C839 C346 1.612 . S
C841 C46 1.612 . S
C850 C326 1.618 . S
C852 C66 1.606 . S
C861 C476 1.607 . S
C863 C96 1.615 . S
C872 C116 1.617 . S
C874 C456 1.607 . S
C883 C136 1.606 . S
C885 C436 1.616 . S
C894 C156 1.614 . S
C896 C416 1.609 . S
C905 C166 1.605 . S
C907 C546 1.616 . S
C916 C186 1.617 . S
C918 C526 1.607 . S
C927 C206 1.618 . S
C929 C506 1.606 . S
C938 C486 1.605 . S
C940 C226 1.616 . S
C949 C256 1.611 . S
C951 C636 1.612 . S
C960 C276 1.618 . S
C962 C616 1.606 . S
C971 C296 1.608 . S
C973 C596 1.614 . S
C982 C576 1.606 . S
C984 C316 1.615 . S
C993 C19 1.801 . S
C995 C8 1.796 . S
C1004 C39 1.801 1_565 S
C1006 C28 1.796 . S
C1015 C48 1.801 . S
C1017 C59 1.796 1_565 S
C1026 C68 1.803 . S
C1028 C79 1.795 . S
C1037 C99 1.798 . S
C1039 C88 1.798 . S
C1048 C119 1.800 . S
C1050 C108 1.797 1_545 S
C1059 C139 1.794 . S
C1061 C128 1.802 1_545 S
C1070 C148 1.802 . S
C1072 C159 1.795 . S
C1081 C179 1.803 1_554 S
C1083 C168 1.795 . S
C1092 C188 1.793 . S
C1094 C199 1.802 1_554 S
C1103 C208 1.795 . S
C1105 C219 1.802 . S
C1114 C228 1.793 . S
C1116 C239 1.803 . S
C1125 C259 1.797 . S
C1127 C248 1.800 1_556 S
C1136 C268 1.797 1_556 S
C1138 C279 1.800 . S
C1147 C299 1.798 . S
C1149 C288 1.799 . S
C1158 C308 1.798 . S
C1160 C319 1.798 . S
C1169 C339 1.797 1_554 S
C1171 C328 1.799 . S
C1180 C348 1.800 . S
C1182 C359 1.797 1_564 S
C1191 C368 1.795 . S
C1193 C379 1.802 1_565 S
C1202 C388 1.793 . S
C1204 C399 1.803 . S
C1213 C408 1.799 1_556 S
C1215 C419 1.798 . S
C1224 C439 1.801 . S
C1226 C428 1.796 1_546 S
C1235 C448 1.804 1_545 S
C1237 C459 1.794 . S
C1246 C468 1.797 . S
C1248 C479 1.800 . S
C1257 C499 1.793 . S
C1259 C488 1.802 . S
C1268 C508 1.797 . S
C1270 C519 1.800 . S
C1279 C528 1.794 . S
C1281 C539 1.802 . S
C1290 C559 1.803 . S
C1292 C548 1.795 . S
C1301 C579 1.797 . S
C1303 C568 1.799 . S
C1312 C588 1.793 . S
C1314 C599 1.802 . S
C1323 C608 1.793 . S
C1325 C619 1.802 . S
C1334 C628 1.801 . S
C1336 C639 1.796 . S
C1345 C201 1.525 . S
C1347 C1 1.526 . S
C1356 C221 1.527 . S
C1358 C21 1.526 . S
C1367 C41 1.526 . S
C1369 C161 1.527 . S
C1378 C181 1.527 . S
C1380 C61 1.527 . S
C1389 C89 1.525 . S
C1391 C289 1.527 . S
C1400 C109 1.527 . S
C1402 C309 1.526 . S
C1411 C129 1.527 . S
C1413 C249 1.526 . S
C1422 C149 1.525 . S
C1424 C269 1.527 . S
C1433 C521 1.528 . S
C1435 C321 1.527 . S
C1444 C341 1.527 . S
C1446 C541 1.526 . S
C1455 C481 1.525 . S
C1457 C361 1.527 . S
C1466 C381 1.527 . S
C1468 C501 1.526 . S
C1477 C609 1.526 . S
C1479 C409 1.527 . S
C1488 C429 1.527 . S
C1490 C629 1.526 . S
C1499 C449 1.525 . S
C1501 C569 1.527 . S
C1510 C589 1.525 . S
C1512 C469 1.527 . S
C1521 C9 1.491 . S
C1523 C49 1.485 . S
C1532 C69 1.491 . S
C1534 C29 1.485 . S
C1543 C121 1.488 . S
C1545 C81 1.487 . S
C1554 C101 1.484 . S
C1556 C141 1.491 . S
C1565 C169 1.488 . S
C1567 C209 1.488 . S
C1576 C229 1.486 . S
C1578 C189 1.490 . S
C1587 C281 1.484 . S
C1589 C241 1.491 . S
C1598 C301 1.491 . S
C1600 C261 1.485 . S
C1609 C369 1.485 . S
C1611 C329 1.490 . S
C1620 C389 1.486 . S
C1622 C349 1.490 . S
C1631 C441 1.486 . S
C1633 C401 1.490 . S
C1642 C461 1.485 . S
C1644 C421 1.490 . S
C1653 C489 1.491 . S
C1655 C529 1.485 . S
C1664 C509 1.491 . S
C1666 C549 1.485 . S
C1675 C561 1.484 . S
C1677 C601 1.490 . S
C1686 C621 1.491 . S
C1688 C581 1.486 . S
