# Generated by pormake.
# Topology wgm, (5)-cn, num edge types: 1
# Building blocks:
#     Node 0, Type 0, BuildingBlock: BEQFEK_clean_sbu_0, # of connection points: 5
#     Node 1, Type 0, BuildingBlock: BEQFEK_clean_sbu_0, # of connection points: 5
#     Node 2, Type 0, BuildingBlock: BEQFEK_clean_sbu_0, # of connection points: 5
#     Node 3, Type 0, BuildingBlock: BEQFEK_clean_sbu_0, # of connection points: 5
#     Node 4, Type 0, BuildingBlock: BEQFEK_clean_sbu_0, # of connection points: 5
#     Node 5, Type 0, BuildingBlock: BEQFEK_clean_sbu_0, # of connection points: 5
#     Node 6, Type 0, BuildingBlock: BEQFEK_clean_sbu_0, # of connection points: 5
#     Node 7, Type 0, BuildingBlock: BEQFEK_clean_sbu_0, # of connection points: 5
#     Node 8, Type 0, BuildingBlock: BEQFEK_clean_sbu_0, # of connection points: 5
#     Node 9, Type 0, BuildingBlock: BEQFEK_clean_sbu_0, # of connection points: 5
#     Node 10, Type 0, BuildingBlock: BEQFEK_clean_sbu_0, # of connection points: 5
#     Node 11, Type 0, BuildingBlock: BEQFEK_clean_sbu_0, # of connection points: 5
#     Node 12, Type 0, BuildingBlock: BEQFEK_clean_sbu_0, # of connection points: 5
#     Node 13, Type 0, BuildingBlock: BEQFEK_clean_sbu_0, # of connection points: 5
#     Node 14, Type 0, BuildingBlock: BEQFEK_clean_sbu_0, # of connection points: 5
#     Node 15, Type 0, BuildingBlock: BEQFEK_clean_sbu_0, # of connection points: 5
#     Node 16, Type 0, BuildingBlock: BEQFEK_clean_sbu_0, # of connection points: 5
#     Node 17, Type 0, BuildingBlock: BEQFEK_clean_sbu_0, # of connection points: 5
#     Node 18, Type 0, BuildingBlock: BEQFEK_clean_sbu_0, # of connection points: 5
#     Node 19, Type 0, BuildingBlock: BEQFEK_clean_sbu_0, # of connection points: 5
#     Node 20, Type 0, BuildingBlock: BEQFEK_clean_sbu_0, # of connection points: 5
#     Node 21, Type 0, BuildingBlock: BEQFEK_clean_sbu_0, # of connection points: 5
#     Node 22, Type 0, BuildingBlock: BEQFEK_clean_sbu_0, # of connection points: 5
#     Node 23, Type 0, BuildingBlock: BEQFEK_clean_sbu_0, # of connection points: 5
#     Node 24, Type 0, BuildingBlock: BEQFEK_clean_sbu_0, # of connection points: 5
#     Node 25, Type 0, BuildingBlock: BEQFEK_clean_sbu_0, # of connection points: 5
#     Node 26, Type 0, BuildingBlock: BEQFEK_clean_sbu_0, # of connection points: 5
#     Node 27, Type 0, BuildingBlock: BEQFEK_clean_sbu_0, # of connection points: 5
#     Node 28, Type 0, BuildingBlock: BEQFEK_clean_sbu_0, # of connection points: 5
#     Node 29, Type 0, BuildingBlock: BEQFEK_clean_sbu_0, # of connection points: 5
#     Node 30, Type 0, BuildingBlock: BEQFEK_clean_sbu_0, # of connection points: 5
#     Node 31, Type 0, BuildingBlock: BEQFEK_clean_sbu_0, # of connection points: 5
#     Edge 32, Type (0, 0), BuildingBlock: XUDNAN_clean_linker_2, # of connection points: 2
#     Edge 33, Type (0, 0), BuildingBlock: XUDNAN_clean_linker_2, # of connection points: 2
#     Edge 34, Type (0, 0), BuildingBlock: XUDNAN_clean_linker_2, # of connection points: 2
#     Edge 35, Type (0, 0), BuildingBlock: XUDNAN_clean_linker_2, # of connection points: 2
#     Edge 36, Type (0, 0), BuildingBlock: XUDNAN_clean_linker_2, # of connection points: 2
#     Edge 37, Type (0, 0), BuildingBlock: XUDNAN_clean_linker_2, # of connection points: 2
#     Edge 38, Type (0, 0), BuildingBlock: XUDNAN_clean_linker_2, # of connection points: 2
#     Edge 39, Type (0, 0), BuildingBlock: XUDNAN_clean_linker_2, # of connection points: 2
#     Edge 40, Type (0, 0), BuildingBlock: XUDNAN_clean_linker_2, # of connection points: 2
#     Edge 41, Type (0, 0), BuildingBlock: XUDNAN_clean_linker_2, # of connection points: 2
#     Edge 42, Type (0, 0), BuildingBlock: XUDNAN_clean_linker_2, # of connection points: 2
#     Edge 43, Type (0, 0), BuildingBlock: XUDNAN_clean_linker_2, # of connection points: 2
#     Edge 44, Type (0, 0), BuildingBlock: XUDNAN_clean_linker_2, # of connection points: 2
#     Edge 45, Type (0, 0), BuildingBlock: XUDNAN_clean_linker_2, # of connection points: 2
#     Edge 46, Type (0, 0), BuildingBlock: XUDNAN_clean_linker_2, # of connection points: 2
#     Edge 47, Type (0, 0), BuildingBlock: XUDNAN_clean_linker_2, # of connection points: 2
#     Edge 48, Type (0, 0), BuildingBlock: XUDNAN_clean_linker_2, # of connection points: 2
#     Edge 49, Type (0, 0), BuildingBlock: XUDNAN_clean_linker_2, # of connection points: 2
#     Edge 50, Type (0, 0), BuildingBlock: XUDNAN_clean_linker_2, # of connection points: 2
#     Edge 51, Type (0, 0), BuildingBlock: XUDNAN_clean_linker_2, # of connection points: 2
#     Edge 52, Type (0, 0), BuildingBlock: XUDNAN_clean_linker_2, # of connection points: 2
#     Edge 53, Type (0, 0), BuildingBlock: XUDNAN_clean_linker_2, # of connection points: 2
#     Edge 54, Type (0, 0), BuildingBlock: XUDNAN_clean_linker_2, # of connection points: 2
#     Edge 55, Type (0, 0), BuildingBlock: XUDNAN_clean_linker_2, # of connection points: 2
#     Edge 56, Type (0, 0), BuildingBlock: XUDNAN_clean_linker_2, # of connection points: 2
#     Edge 57, Type (0, 0), BuildingBlock: XUDNAN_clean_linker_2, # of connection points: 2
#     Edge 58, Type (0, 0), BuildingBlock: XUDNAN_clean_linker_2, # of connection points: 2
#     Edge 59, Type (0, 0), BuildingBlock: XUDNAN_clean_linker_2, # of connection points: 2
#     Edge 60, Type (0, 0), BuildingBlock: XUDNAN_clean_linker_2, # of connection points: 2
#     Edge 61, Type (0, 0), BuildingBlock: XUDNAN_clean_linker_2, # of connection points: 2
#     Edge 62, Type (0, 0), BuildingBlock: XUDNAN_clean_linker_2, # of connection points: 2
#     Edge 63, Type (0, 0), BuildingBlock: XUDNAN_clean_linker_2, # of connection points: 2
#     Edge 64, Type (0, 0), BuildingBlock: XUDNAN_clean_linker_2, # of connection points: 2
#     Edge 65, Type (0, 0), BuildingBlock: XUDNAN_clean_linker_2, # of connection points: 2
#     Edge 66, Type (0, 0), BuildingBlock: XUDNAN_clean_linker_2, # of connection points: 2
#     Edge 67, Type (0, 0), BuildingBlock: XUDNAN_clean_linker_2, # of connection points: 2
#     Edge 68, Type (0, 0), BuildingBlock: XUDNAN_clean_linker_2, # of connection points: 2
#     Edge 69, Type (0, 0), BuildingBlock: XUDNAN_clean_linker_2, # of connection points: 2
#     Edge 70, Type (0, 0), BuildingBlock: XUDNAN_clean_linker_2, # of connection points: 2
#     Edge 71, Type (0, 0), BuildingBlock: XUDNAN_clean_linker_2, # of connection points: 2
#     Edge 72, Type (0, 0), BuildingBlock: XUDNAN_clean_linker_2, # of connection points: 2
#     Edge 73, Type (0, 0), BuildingBlock: XUDNAN_clean_linker_2, # of connection points: 2
#     Edge 74, Type (0, 0), BuildingBlock: XUDNAN_clean_linker_2, # of connection points: 2
#     Edge 75, Type (0, 0), BuildingBlock: XUDNAN_clean_linker_2, # of connection points: 2
#     Edge 76, Type (0, 0), BuildingBlock: XUDNAN_clean_linker_2, # of connection points: 2
#     Edge 77, Type (0, 0), BuildingBlock: XUDNAN_clean_linker_2, # of connection points: 2
#     Edge 78, Type (0, 0), BuildingBlock: XUDNAN_clean_linker_2, # of connection points: 2
#     Edge 79, Type (0, 0), BuildingBlock: XUDNAN_clean_linker_2, # of connection points: 2
#     Edge 80, Type (0, 0), BuildingBlock: XUDNAN_clean_linker_2, # of connection points: 2
#     Edge 81, Type (0, 0), BuildingBlock: XUDNAN_clean_linker_2, # of connection points: 2
#     Edge 82, Type (0, 0), BuildingBlock: XUDNAN_clean_linker_2, # of connection points: 2
#     Edge 83, Type (0, 0), BuildingBlock: XUDNAN_clean_linker_2, # of connection points: 2
#     Edge 84, Type (0, 0), BuildingBlock: XUDNAN_clean_linker_2, # of connection points: 2
#     Edge 85, Type (0, 0), BuildingBlock: XUDNAN_clean_linker_2, # of connection points: 2
#     Edge 86, Type (0, 0), BuildingBlock: XUDNAN_clean_linker_2, # of connection points: 2
#     Edge 87, Type (0, 0), BuildingBlock: XUDNAN_clean_linker_2, # of connection points: 2
#     Edge 88, Type (0, 0), BuildingBlock: XUDNAN_clean_linker_2, # of connection points: 2
#     Edge 89, Type (0, 0), BuildingBlock: XUDNAN_clean_linker_2, # of connection points: 2
#     Edge 90, Type (0, 0), BuildingBlock: XUDNAN_clean_linker_2, # of connection points: 2
#     Edge 91, Type (0, 0), BuildingBlock: XUDNAN_clean_linker_2, # of connection points: 2
#     Edge 92, Type (0, 0), BuildingBlock: XUDNAN_clean_linker_2, # of connection points: 2
#     Edge 93, Type (0, 0), BuildingBlock: XUDNAN_clean_linker_2, # of connection points: 2
#     Edge 94, Type (0, 0), BuildingBlock: XUDNAN_clean_linker_2, # of connection points: 2
#     Edge 95, Type (0, 0), BuildingBlock: XUDNAN_clean_linker_2, # of connection points: 2
#     Edge 96, Type (0, 0), BuildingBlock: XUDNAN_clean_linker_2, # of connection points: 2
#     Edge 97, Type (0, 0), BuildingBlock: XUDNAN_clean_linker_2, # of connection points: 2
#     Edge 98, Type (0, 0), BuildingBlock: XUDNAN_clean_linker_2, # of connection points: 2
#     Edge 99, Type (0, 0), BuildingBlock: XUDNAN_clean_linker_2, # of connection points: 2
#     Edge 100, Type (0, 0), BuildingBlock: XUDNAN_clean_linker_2, # of connection points: 2
#     Edge 101, Type (0, 0), BuildingBlock: XUDNAN_clean_linker_2, # of connection points: 2
#     Edge 102, Type (0, 0), BuildingBlock: XUDNAN_clean_linker_2, # of connection points: 2
#     Edge 103, Type (0, 0), BuildingBlock: XUDNAN_clean_linker_2, # of connection points: 2
#     Edge 104, Type (0, 0), BuildingBlock: XUDNAN_clean_linker_2, # of connection points: 2
#     Edge 105, Type (0, 0), BuildingBlock: XUDNAN_clean_linker_2, # of connection points: 2
#     Edge 106, Type (0, 0), BuildingBlock: XUDNAN_clean_linker_2, # of connection points: 2
#     Edge 107, Type (0, 0), BuildingBlock: XUDNAN_clean_linker_2, # of connection points: 2
#     Edge 108, Type (0, 0), BuildingBlock: XUDNAN_clean_linker_2, # of connection points: 2
#     Edge 109, Type (0, 0), BuildingBlock: XUDNAN_clean_linker_2, # of connection points: 2
#     Edge 110, Type (0, 0), BuildingBlock: XUDNAN_clean_linker_2, # of connection points: 2
#     Edge 111, Type (0, 0), BuildingBlock: XUDNAN_clean_linker_2, # of connection points: 2
# Relax obj value: 0.070
# Max RMSD: 0.115
# Mean RMSD: 0.115
data_MOF--net-wgm--node1-BEQFEK_clean_sbu_0--edge1-XUDNAN_clean_linker_2
_symmetry_space_group_name_H-M    P1
_symmetry_Int_Tables_number       1
_symmetry_cell_setting            triclinic
loop_
_symmetry_equiv_pos_as_xyz
'x, y, z'
_cell_length_a     47.969065
_cell_length_b     47.978155
_cell_length_c     82.671053
_cell_angle_alpha  90.011558
_cell_angle_beta   90.015298
_cell_angle_gamma 90.029505
loop_
_atom_site_label
_atom_site_type_symbol
_atom_site_fract_x
_atom_site_fract_y
_atom_site_fract_z
_atom_type_partial_charge
Co0 Co 0.1964 0.11584 0.31262 0.0
Co1 Co 0.19475 0.15951 0.3411 0.0
C2 C 0.1468 0.12184 0.33517 0.0
O3 O 0.15959 0.11086 0.32326 0.0
O4 O 0.15776 0.14145 0.34338 0.0
C5 C 0.18341 0.09339 0.28043 0.0
O6 O 0.16775 0.11547 0.27814 0.0
C7 C 0.18089 0.2084 0.36222 0.0
C8 C 0.22201 0.21513 0.37363 0.0
C9 C 0.19498 0.2252 0.37326 0.0
N10 N 0.19898 0.18946 0.35629 0.0
N11 N 0.22345 0.19371 0.36321 0.0
C12 C 0.15066 0.20968 0.35781 0.0
H13 H 0.14765 0.22562 0.34825 0.0
H14 H 0.13795 0.21573 0.36847 0.0
H15 H 0.14337 0.18939 0.35305 0.0
C16 C 0.21423 0.1664 0.29442 0.0
N17 N 0.20366 0.1538 0.30766 0.0
N18 N 0.2017 0.17221 0.31945 0.0
C19 C 0.21009 0.19727 0.31387 0.0
C20 C 0.21844 0.19441 0.29786 0.0
C21 C 0.22463 0.15123 0.27978 0.0
H22 H 0.2301 0.12944 0.28289 0.0
H23 H 0.20815 0.1512 0.27037 0.0
H24 H 0.24328 0.1617 0.27466 0.0
O25 O 0.22641 0.10266 0.32678 0.0
O26 O 0.22399 0.1321 0.34747 0.0
H27 H 0.22827 0.22192 0.33265 0.0
H28 H 0.21378 0.24208 0.31619 0.0
C29 C 0.2109 0.22329 0.32383 0.0
H30 H 0.19111 0.22542 0.33059 0.0
H31 H 0.24123 0.18188 0.36083 0.0
O32 O 0.1969 0.09056 0.29355 0.0
C33 C 0.23484 0.11109 0.3405 0.0
Co34 Co 0.14092 0.96265 0.56651 0.0
Co35 Co 0.09473 0.94851 0.59246 0.0
C36 C 0.13844 0.90721 0.58411 0.0
O37 O 0.1494 0.92456 0.57434 0.0
O38 O 0.11629 0.91315 0.59188 0.0
C39 C 0.17402 0.95058 0.53851 0.0
O40 O 0.16443 0.92524 0.54085 0.0
C41 C 0.04566 0.92348 0.60896 0.0
C42 C 0.02931 0.96013 0.62208 0.0
C43 C 0.02376 0.93238 0.61875 0.0
N44 N 0.0628 0.94524 0.60631 0.0
N45 N 0.05308 0.96692 0.6144 0.0
C46 C 0.05075 0.89477 0.60251 0.0
H47 H 0.07335 0.89024 0.60231 0.0
H48 H 0.04286 0.89344 0.58992 0.0
H49 H 0.04018 0.87879 0.61003 0.0
C50 C 0.09078 0.97662 0.54724 0.0
N51 N 0.10294 0.96624 0.56064 0.0
N52 N 0.08358 0.96016 0.57136 0.0
C53 C 0.05842 0.96645 0.56506 0.0
C54 C 0.06214 0.97719 0.54962 0.0
C55 C 0.10662 0.9882 0.53317 0.0
H56 H 0.12372 0.00176 0.53762 0.0
H57 H 0.11619 0.97075 0.52633 0.0
H58 H 0.09298 1.00033 0.52494 0.0
O59 O 0.15024 0.98931 0.58397 0.0
O60 O 0.11877 0.97743 0.60243 0.0
H61 H 0.03006 0.97742 0.58395 0.0
H62 H 0.01322 0.96593 0.56556 0.0
C63 C 0.03129 0.96256 0.5737 0.0
H64 H 0.03013 0.9411 0.57856 0.0
H65 H 0.06231 0.98662 0.61433 0.0
O66 O 0.16603 0.97012 0.54783 0.0
C67 C 0.13955 0.99209 0.59797 0.0
Co68 Co 0.30895 0.88827 0.81751 0.0
Co69 Co 0.29883 0.83522 0.83882 0.0
C70 C 0.35144 0.87054 0.84132 0.0
O71 O 0.34445 0.88695 0.82989 0.0
O72 O 0.33556 0.85062 0.84575 0.0
C73 C 0.32647 0.93813 0.79912 0.0
O74 O 0.34724 0.94118 0.80933 0.0
C75 C 0.3107 0.78235 0.85565 0.0
C76 C 0.26856 0.77103 0.86427 0.0
C77 C 0.29629 0.76316 0.86506 0.0
N78 N 0.29222 0.80076 0.84967 0.0
N79 N 0.26706 0.79361 0.85468 0.0
C80 C 0.34161 0.78554 0.85409 0.0
H81 H 0.34681 0.79766 0.84308 0.0
H82 H 0.35211 0.76502 0.85353 0.0
H83 H 0.34965 0.7968 0.86485 0.0
C84 C 0.29608 0.84712 0.79162 0.0
N85 N 0.30121 0.85343 0.80722 0.0
N86 N 0.29665 0.83118 0.81613 0.0
C87 C 0.28799 0.81012 0.80655 0.0
C88 C 0.28725 0.81953 0.79061 0.0
C89 C 0.29909 0.86745 0.778 0.0
H90 H 0.31879 0.8793 0.77942 0.0
H91 H 0.29922 0.85676 0.76609 0.0
H92 H 0.28152 0.88247 0.77838 0.0
O93 O 0.27792 0.89915 0.83234 0.0
O94 O 0.26899 0.86033 0.84601 0.0
H95 H 0.26035 0.78729 0.82185 0.0
H96 H 0.26855 0.76948 0.80331 0.0
C97 C 0.2771 0.78304 0.81295 0.0
H98 H 0.29412 0.77192 0.81936 0.0
H99 H 0.24899 0.8049 0.85215 0.0
O100 O 0.30975 0.91777 0.80075 0.0
C101 C 0.26364 0.88561 0.84268 0.0
Co102 Co 0.36152 0.04785 0.06165 0.0
Co103 Co 0.40862 0.05004 0.08851 0.0
C104 C 0.36727 0.09654 0.08428 0.0
O105 O 0.35545 0.08388 0.07262 0.0
O106 O 0.38806 0.0859 0.09163 0.0
C107 C 0.31504 0.06106 0.0406 0.0
O108 O 0.30969 0.08047 0.05136 0.0
C109 C 0.45887 0.07132 0.10531 0.0
C110 C 0.47645 0.03275 0.11573 0.0
C111 C 0.48159 0.061 0.11392 0.0
N112 N 0.44157 0.05001 0.10185 0.0
N113 N 0.45205 0.02711 0.10833 0.0
C114 C 0.45304 0.101 0.10082 0.0
H115 H 0.43111 0.10616 0.10369 0.0
H116 H 0.45603 0.10376 0.08762 0.0
H117 H 0.46664 0.11572 0.10751 0.0
C118 C 0.41015 0.04051 0.04052 0.0
N119 N 0.39899 0.04461 0.05524 0.0
N120 N 0.41894 0.04512 0.06619 0.0
C121 C 0.44363 0.04119 0.05864 0.0
C122 C 0.43882 0.03828 0.04212 0.0
C123 C 0.39323 0.03688 0.02544 0.0
H124 H 0.3771 0.02069 0.0275 0.0
H125 H 0.38237 0.05672 0.02263 0.0
H126 H 0.40622 0.0306 0.01496 0.0
O127 O 0.35228 0.01665 0.07613 0.0
O128 O 0.38413 0.01854 0.09571 0.0
H129 H 0.47144 0.02415 0.07626 0.0
H130 H 0.48872 0.0375 0.05841 0.0
C131 C 0.47129 0.04087 0.067 0.0
H132 H 0.47455 0.06106 0.07321 0.0
H133 H 0.44291 0.00744 0.10732 0.0
O134 O 0.33607 0.04527 0.0426 0.0
C135 C 0.36267 0.00743 0.08924 0.0
Co136 Co 0.21335 0.89074 0.18505 0.0
Co137 Co 0.20556 0.83847 0.16235 0.0
C138 C 0.1599 0.88034 0.16712 0.0
O139 O 0.1748 0.89405 0.17705 0.0
O140 O 0.16914 0.85846 0.16025 0.0
C141 C 0.20084 0.92767 0.21172 0.0
O142 O 0.17999 0.91059 0.21453 0.0
C143 C 0.18254 0.7846 0.1506 0.0
C144 C 0.2169 0.7698 0.13504 0.0
C145 C 0.19056 0.7626 0.14054 0.0
N146 N 0.20333 0.80349 0.15104 0.0
N147 N 0.22374 0.79447 0.14168 0.0
C148 C 0.15533 0.78839 0.15919 0.0
H149 H 0.15206 0.81042 0.16257 0.0
H150 H 0.15548 0.776 0.17052 0.0
H151 H 0.13779 0.78123 0.15148 0.0
C152 C 0.23025 0.84654 0.20826 0.0
N153 N 0.21986 0.85483 0.1939 0.0
N154 N 0.21641 0.83289 0.18451 0.0
C155 C 0.22452 0.80989 0.19267 0.0
C156 C 0.23355 0.81775 0.208 0.0
C157 C 0.23713 0.8661 0.22179 0.0
H158 H 0.21761 0.87565 0.2263 0.0
H159 H 0.24739 0.85543 0.23207 0.0
H160 H 0.2507 0.88311 0.21723 0.0
O161 O 0.23983 0.89778 0.16716 0.0
O162 O 0.23435 0.8611 0.15108 0.0
H163 H 0.23722 0.76646 0.19339 0.0
H164 H 0.20536 0.77369 0.18254 0.0
C165 C 0.2266 0.78149 0.18528 0.0
H166 H 0.23837 0.78278 0.17377 0.0
H167 H 0.24238 0.80522 0.13979 0.0
O168 O 0.21816 0.92208 0.20054 0.0
C169 C 0.24603 0.88427 0.1544 0.0
Co170 Co 0.36484 0.96377 0.4328 0.0
Co171 Co 0.41766 0.96738 0.4102 0.0
C172 C 0.38027 0.91687 0.41083 0.0
O173 O 0.3642 0.92655 0.42179 0.0
O174 O 0.40109 0.93074 0.4057 0.0
C175 C 0.32071 0.94661 0.45537 0.0
O176 O 0.32404 0.9212 0.44978 0.0
C177 C 0.47076 0.95295 0.39363 0.0
C178 C 0.48034 0.99345 0.38219 0.0
C179 C 0.48924 0.96605 0.38313 0.0
N180 N 0.45172 0.97181 0.3985 0.0
N181 N 0.45789 0.99602 0.39178 0.0
C182 C 0.47001 0.92268 0.39798 0.0
H183 H 0.45063 0.91728 0.4045 0.0
H184 H 0.48783 0.91786 0.40606 0.0
H185 H 0.47206 0.9097 0.38692 0.0
C186 C 0.40807 0.97819 0.4572 0.0
N187 N 0.40046 0.97154 0.442 0.0
N188 N 0.42251 0.97297 0.43257 0.0
C189 C 0.44484 0.98054 0.44142 0.0
C190 C 0.43643 0.98416 0.45736 0.0
C191 C 0.38837 0.97913 0.47122 0.0
H192 H 0.37357 0.99666 0.46953 0.0
H193 H 0.3761 0.95954 0.47162 0.0
H194 H 0.39956 0.98177 0.48287 0.0
O195 O 0.3545 0.9928 0.41666 0.0
O196 O 0.39215 0.99527 0.40119 0.0
H197 H 0.47053 0.00287 0.42475 0.0
H198 H 0.48777 0.99466 0.44353 0.0
C199 C 0.47285 0.98687 0.43434 0.0
H200 H 0.48137 0.96775 0.42864 0.0
H201 H 0.44608 0.01411 0.39326 0.0
O202 O 0.33576 0.96625 0.44987 0.0
C203 C 0.36759 0.00312 0.40468 0.0
Co204 Co 0.30256 0.11973 0.68916 0.0
Co205 Co 0.29577 0.16492 0.66199 0.0
C206 C 0.34903 0.13354 0.66626 0.0
O207 O 0.33926 0.11888 0.67781 0.0
O208 O 0.3346 0.15234 0.65936 0.0
C209 C 0.3221 0.08823 0.71795 0.0
O210 O 0.34583 0.10187 0.7174 0.0
C211 C 0.30556 0.21673 0.64332 0.0
C212 C 0.26617 0.21933 0.62959 0.0
C213 C 0.29147 0.23289 0.63185 0.0
N214 N 0.28913 0.1951 0.64747 0.0
N215 N 0.26572 0.19677 0.63916 0.0
C216 C 0.33331 0.22198 0.651 0.0
H217 H 0.33597 0.20874 0.6619 0.0
H218 H 0.33525 0.24422 0.65451 0.0
H219 H 0.3501 0.21678 0.64227 0.0
C220 C 0.28319 0.16693 0.7095 0.0
N221 N 0.29184 0.15633 0.69527 0.0
N222 N 0.28876 0.17528 0.68388 0.0
C223 C 0.27837 0.19869 0.69056 0.0
C224 C 0.27432 0.19418 0.70701 0.0
C225 C 0.28049 0.15008 0.72466 0.0
H226 H 0.27031 0.1299 0.72185 0.0
H227 H 0.3016 0.14558 0.72948 0.0
H228 H 0.26812 0.16103 0.73404 0.0
O229 O 0.27337 0.1043 0.67514 0.0
O230 O 0.26956 0.1349 0.65516 0.0
H231 H 0.2559 0.22071 0.67221 0.0
H232 H 0.26606 0.24225 0.68924 0.0
C233 C 0.27246 0.22483 0.68127 0.0
H234 H 0.2915 0.2313 0.67474 0.0
H235 H 0.24937 0.18249 0.64005 0.0
O236 O 0.30304 0.09374 0.70777 0.0
C237 C 0.26236 0.11221 0.66195 0.0
Co238 Co 0.13249 0.04514 0.93014 0.0
Co239 Co 0.08235 0.0377 0.90621 0.0
C240 C 0.11824 0.09016 0.90735 0.0
O241 O 0.13311 0.08233 0.9193 0.0
O242 O 0.09927 0.07446 0.9016 0.0
C243 C 0.16973 0.06293 0.95652 0.0
O244 O 0.15762 0.08745 0.95571 0.0
C245 C 0.03139 0.05754 0.89124 0.0
C246 C 0.01865 0.02223 0.87577 0.0
C247 C 0.01186 0.04952 0.8797 0.0
N248 N 0.04901 0.03625 0.89373 0.0
N249 N 0.04124 0.01511 0.88453 0.0
C250 C 0.03297 0.0844 0.90042 0.0
H251 H 0.04373 0.08119 0.91216 0.0
H252 H 0.0118 0.09296 0.90256 0.0
H253 H 0.04522 0.09975 0.89335 0.0
C254 C 0.08667 0.03304 0.95398 0.0
N255 N 0.09628 0.03672 0.93877 0.0
N256 N 0.07541 0.03354 0.92858 0.0
C257 C 0.05203 0.02764 0.9369 0.0
C258 C 0.05824 0.02731 0.95329 0.0
C259 C 0.10417 0.03641 0.96883 0.0
H260 H 0.12192 0.02161 0.96833 0.0
H261 H 0.11288 0.05782 0.9691 0.0
H262 H 0.09202 0.03283 0.98004 0.0
O263 O 0.14431 0.0163 0.91407 0.0
O264 O 0.1073 0.00804 0.89862 0.0
H265 H 0.02766 0.00788 0.91841 0.0
H266 H 0.01037 0.01028 0.93776 0.0
C267 C 0.0245 0.02118 0.92922 0.0
H268 H 0.01449 0.04089 0.92531 0.0
H269 H 0.05175 0.9961 0.88393 0.0
O270 O 0.1616 0.0434 0.94725 0.0
C271 C 0.13233 0.00297 0.9027 0.0
Co272 Co 0.79927 0.88903 0.68564 0.0
Co273 Co 0.79245 0.83437 0.66471 0.0
C274 C 0.84391 0.87029 0.6629 0.0
O275 O 0.83562 0.8871 0.67383 0.0
O276 O 0.82893 0.84981 0.65844 0.0
C277 C 0.81638 0.9269 0.71222 0.0
O278 O 0.83455 0.90805 0.71683 0.0
C279 C 0.8093 0.78007 0.65166 0.0
C280 C 0.76928 0.76201 0.64352 0.0
C281 C 0.79759 0.75657 0.64454 0.0
N282 N 0.78879 0.79833 0.6549 0.0
N283 N 0.76494 0.78747 0.64994 0.0
C284 C 0.83955 0.78638 0.65431 0.0
H285 H 0.84272 0.79423 0.6668 0.0
H286 H 0.85325 0.76828 0.65202 0.0
H287 H 0.84586 0.80311 0.64585 0.0
C288 C 0.78528 0.84836 0.71207 0.0
N289 N 0.79081 0.85482 0.6965 0.0
N290 N 0.7891 0.83193 0.68772 0.0
C291 C 0.78336 0.81016 0.6975 0.0
C292 C 0.78067 0.81984 0.71326 0.0
C293 C 0.78156 0.86927 0.72532 0.0
H294 H 0.7739 0.88928 0.72033 0.0
H295 H 0.80182 0.87274 0.73145 0.0
H296 H 0.7665 0.86158 0.73449 0.0
O297 O 0.76896 0.89735 0.67015 0.0
O298 O 0.76302 0.85878 0.65557 0.0
H299 H 0.76317 0.77773 0.68417 0.0
H300 H 0.78098 0.76563 0.70214 0.0
C301 C 0.78186 0.78052 0.6919 0.0
H302 H 0.80055 0.77563 0.68458 0.0
H303 H 0.74568 0.79743 0.65096 0.0
O304 O 0.80053 0.92219 0.7002 0.0
C305 C 0.7566 0.8838 0.65903 0.0
Co306 Co 0.85842 0.04618 0.43862 0.0
Co307 Co 0.91313 0.04243 0.4174 0.0
C308 C 0.87426 0.09031 0.41407 0.0
O309 O 0.85789 0.0807 0.42487 0.0
O310 O 0.8966 0.07768 0.41024 0.0
C311 C 0.82312 0.07426 0.46079 0.0
O312 O 0.83827 0.09541 0.45582 0.0
C313 C 0.96489 0.05594 0.39973 0.0
C314 C 0.98097 0.01379 0.39434 0.0
C315 C 0.98594 0.04183 0.39161 0.0
N316 N 0.94825 0.03701 0.4069 0.0
N317 N 0.95822 0.0119 0.4038 0.0
C318 C 0.95866 0.08647 0.3992 0.0
H319 H 0.94997 0.09333 0.41098 0.0
H320 H 0.97743 0.09895 0.39628 0.0
H321 H 0.94278 0.09036 0.38971 0.0
C322 C 0.90077 0.03799 0.46465 0.0
N323 N 0.89368 0.04144 0.44899 0.0
N324 N 0.91647 0.04099 0.44013 0.0
C325 C 0.93878 0.03781 0.44983 0.0
C326 C 0.92963 0.03558 0.46572 0.0
C327 C 0.88007 0.03507 0.47809 0.0
H328 H 0.86173 0.02302 0.47386 0.0
H329 H 0.87285 0.0561 0.48178 0.0
H330 H 0.88931 0.02444 0.48873 0.0
O331 O 0.84982 0.0138 0.4243 0.0
O332 O 0.88854 0.01242 0.40961 0.0
H333 H 0.97324 0.01781 0.43829 0.0
H334 H 0.9832 0.04215 0.45397 0.0
C335 C 0.96831 0.03818 0.44397 0.0
H336 H 0.97087 0.05468 0.43471 0.0
H337 H 0.94883 0.99341 0.40762 0.0
O338 O 0.82817 0.05013 0.45512 0.0
C339 C 0.86436 0.00315 0.41296 0.0
Co340 Co 0.70681 0.10982 0.18063 0.0
Co341 Co 0.71209 0.16322 0.15871 0.0
C342 C 0.66106 0.12661 0.15786 0.0
O343 O 0.67014 0.11023 0.1688 0.0
O344 O 0.67541 0.14739 0.15318 0.0
C345 C 0.6845 0.07901 0.20718 0.0
O346 O 0.66564 0.09884 0.20679 0.0
C347 C 0.69519 0.21688 0.14503 0.0
C348 C 0.73506 0.23448 0.13635 0.0
C349 C 0.70687 0.24024 0.13778 0.0
N350 N 0.71563 0.19845 0.14805 0.0
N351 N 0.73938 0.20897 0.1427 0.0
C352 C 0.665 0.21099 0.14819 0.0
H353 H 0.65852 0.193 0.14071 0.0
H354 H 0.66209 0.20515 0.16107 0.0
H355 H 0.65122 0.22864 0.14501 0.0
C356 C 0.71937 0.15306 0.2062 0.0
N357 N 0.71478 0.14519 0.19071 0.0
N358 N 0.71641 0.16744 0.18142 0.0
C359 C 0.72168 0.19003 0.19067 0.0
C360 C 0.72371 0.18169 0.20668 0.0
C361 C 0.72117 0.13358 0.22028 0.0
H362 H 0.73028 0.11341 0.21646 0.0
H363 H 0.69995 0.12996 0.22514 0.0
H364 H 0.73413 0.14263 0.23009 0.0
O365 O 0.73714 0.0998 0.16502 0.0
O366 O 0.74075 0.13797 0.14993 0.0
H367 H 0.74064 0.22104 0.17571 0.0
H368 H 0.72597 0.23473 0.19419 0.0
C369 C 0.72311 0.21925 0.18438 0.0
H370 H 0.70351 0.22421 0.17791 0.0
H371 H 0.75859 0.19888 0.14357 0.0
O372 O 0.70445 0.07949 0.19707 0.0
C373 C 0.74834 0.11325 0.15339 0.0
Co374 Co 0.64495 0.9443 0.94381 0.0
Co375 Co 0.6 0.94329 0.91582 0.0
C376 C 0.63674 0.89436 0.9222 0.0
O377 O 0.64868 0.90718 0.93372 0.0
O378 O 0.61744 0.90585 0.91404 0.0
C379 C 0.66877 0.921 0.97167 0.0
O380 O 0.65019 0.90184 0.96806 0.0
C381 C 0.55046 0.9234 0.89813 0.0
C382 C 0.53448 0.9621 0.88704 0.0
C383 C 0.52844 0.93406 0.88907 0.0
N384 N 0.56814 0.94434 0.90167 0.0
N385 N 0.55868 0.96731 0.89476 0.0
C386 C 0.55544 0.89369 0.9029 0.0
H387 H 0.57659 0.88738 0.89901 0.0
H388 H 0.55439 0.89181 0.91627 0.0
H389 H 0.54043 0.87919 0.89717 0.0
C390 C 0.59592 0.96127 0.96297 0.0
N391 N 0.60748 0.95164 0.94922 0.0
N392 N 0.58853 0.95109 0.93768 0.0
C393 C 0.56412 0.96011 0.94389 0.0
C394 C 0.56802 0.96701 0.96007 0.0
C395 C 0.61224 0.96825 0.97787 0.0
H396 H 0.63237 0.97798 0.97445 0.0
H397 H 0.61682 0.94874 0.98456 0.0
H398 H 0.60064 0.9826 0.98595 0.0
O399 O 0.65795 0.97366 0.92891 0.0
O400 O 0.62737 0.97229 0.9086 0.0
H401 H 0.54008 0.98 0.92545 0.0
H402 H 0.51965 0.96763 0.94236 0.0
C403 C 0.5377 0.96299 0.93442 0.0
H404 H 0.53343 0.94332 0.92786 0.0
H405 H 0.56829 0.98676 0.89575 0.0
O406 O 0.6697 0.94306 0.96317 0.0
C407 C 0.64913 0.98243 0.91529 0.0
Co408 Co 0.78763 0.11086 0.81618 0.0
Co409 Co 0.79118 0.16257 0.83985 0.0
C410 C 0.84056 0.12682 0.83365 0.0
O411 O 0.82672 0.11045 0.82457 0.0
O412 O 0.82945 0.14821 0.83997 0.0
C413 C 0.80311 0.08627 0.78639 0.0
O414 O 0.81819 0.10909 0.78554 0.0
C415 C 0.8113 0.2135 0.85612 0.0
C416 C 0.77228 0.2324 0.86508 0.0
C417 C 0.80078 0.23673 0.86411 0.0
N418 N 0.78994 0.19661 0.8522 0.0
N419 N 0.76672 0.20786 0.85781 0.0
C420 C 0.84127 0.20628 0.85324 0.0
H421 H 0.84569 0.18566 0.8587 0.0
H422 H 0.84517 0.20484 0.84003 0.0
H423 H 0.85577 0.22148 0.85879 0.0
C424 C 0.76541 0.15588 0.79433 0.0
N425 N 0.77679 0.147 0.80839 0.0
N426 N 0.77923 0.16851 0.81823 0.0
C427 C 0.77027 0.19165 0.81061 0.0
C428 C 0.76108 0.18443 0.79528 0.0
C429 C 0.75614 0.13719 0.78087 0.0
H430 H 0.75067 0.11628 0.78561 0.0
H431 H 0.7733 0.13511 0.77197 0.0
H432 H 0.73786 0.14618 0.7745 0.0
O433 O 0.76231 0.09901 0.83394 0.0
O434 O 0.76662 0.13502 0.85073 0.0
H435 H 0.75361 0.22241 0.82658 0.0
H436 H 0.76847 0.23656 0.8083 0.0
C437 C 0.77088 0.22031 0.81775 0.0
H438 H 0.79091 0.22371 0.82412 0.0
H439 H 0.74698 0.19904 0.8564 0.0
O440 O 0.78729 0.08249 0.79853 0.0
C441 C 0.7566 0.11111 0.84727 0.0
Co442 Co 0.64187 0.04771 0.56695 0.0
Co443 Co 0.59061 0.04739 0.5908 0.0
C444 C 0.6277 0.09688 0.58806 0.0
O445 O 0.64406 0.08469 0.57823 0.0
O446 O 0.60608 0.0849 0.59352 0.0
C447 C 0.67228 0.07296 0.54179 0.0
O448 O 0.65558 0.0934 0.54601 0.0
C449 C 0.53951 0.0677 0.60557 0.0
C450 C 0.52775 0.03344 0.62204 0.0
C451 C 0.52031 0.06027 0.61746 0.0
N452 N 0.55748 0.04653 0.60353 0.0
N453 N 0.55029 0.02603 0.61334 0.0
C454 C 0.54068 0.09389 0.59576 0.0
H455 H 0.55217 0.09027 0.5843 0.0
H456 H 0.51936 0.10149 0.593 0.0
H457 H 0.55203 0.11012 0.60269 0.0
C458 C 0.59518 0.03732 0.54338 0.0
N459 N 0.60501 0.04124 0.55853 0.0
N460 N 0.58386 0.04053 0.5687 0.0
C461 C 0.56013 0.036 0.56044 0.0
C462 C 0.56639 0.03416 0.54413 0.0
C463 C 0.61282 0.03841 0.52847 0.0
H464 H 0.63174 0.02547 0.53021 0.0
H465 H 0.61956 0.06023 0.52639 0.0
H466 H 0.6013 0.03112 0.51765 0.0
O467 O 0.65236 0.01748 0.58257 0.0
O468 O 0.6163 0.01923 0.59942 0.0
H469 H 0.53377 0.02041 0.57937 0.0
H470 H 0.51734 0.0218 0.55974 0.0
C471 C 0.53199 0.0326 0.56804 0.0
H472 H 0.52333 0.05341 0.57095 0.0
H473 H 0.56117 0.00728 0.61438 0.0
O474 O 0.66991 0.0496 0.54897 0.0
C475 C 0.63962 0.00891 0.59519 0.0
Co476 Co 0.70743 0.89212 0.31366 0.0
Co477 Co 0.70221 0.84514 0.34015 0.0
C478 C 0.65524 0.88302 0.334 0.0
O479 O 0.6698 0.89539 0.32331 0.0
O480 O 0.6648 0.8623 0.34185 0.0
C481 C 0.69597 0.92121 0.28265 0.0
O482 O 0.68159 0.89943 0.27785 0.0
C483 C 0.68548 0.79628 0.36024 0.0
C484 C 0.72663 0.78408 0.36999 0.0
C485 C 0.69859 0.77733 0.37046 0.0
N486 N 0.70508 0.81329 0.354 0.0
N487 N 0.72957 0.80576 0.35985 0.0
C488 C 0.6549 0.79985 0.35738 0.0
H489 H 0.6507 0.79953 0.34418 0.0
H490 H 0.64241 0.78353 0.36351 0.0
H491 H 0.64835 0.82056 0.36199 0.0
C492 C 0.72495 0.84347 0.29365 0.0
N493 N 0.71443 0.85491 0.30724 0.0
N494 N 0.71117 0.83525 0.31823 0.0
C495 C 0.71877 0.81061 0.31177 0.0
C496 C 0.72792 0.81502 0.29605 0.0
C497 C 0.73563 0.85979 0.27953 0.0
H498 H 0.74064 0.88144 0.28319 0.0
H499 H 0.71945 0.86021 0.26994 0.0
H500 H 0.75453 0.84982 0.27438 0.0
O501 O 0.73618 0.9031 0.3294 0.0
O502 O 0.73046 0.87169 0.34887 0.0
H503 H 0.7354 0.7822 0.32916 0.0
H504 H 0.71907 0.76552 0.31203 0.0
C505 C 0.71772 0.78336 0.32054 0.0
H506 H 0.69798 0.78178 0.32745 0.0
H507 H 0.74831 0.81572 0.35709 0.0
O508 O 0.70841 0.92081 0.29623 0.0
C509 C 0.74249 0.89319 0.34317 0.0
Co510 Co 0.86705 0.94075 0.06674 0.0
Co511 Co 0.91874 0.95003 0.08977 0.0
C512 C 0.88544 0.89755 0.09102 0.0
O513 O 0.86837 0.90655 0.08045 0.0
O514 O 0.90636 0.91193 0.09546 0.0
C515 C 0.82764 0.91147 0.04691 0.0
O516 O 0.83826 0.88975 0.05435 0.0
C517 C 0.97108 0.9397 0.1076 0.0
C518 C 0.98304 0.98246 0.11474 0.0
C519 C 0.99081 0.95478 0.1163 0.0
N520 N 0.95265 0.95776 0.10118 0.0
N521 N 0.96006 0.98326 0.10541 0.0
C522 C 0.96746 0.90873 0.107 0.0
H523 H 0.96228 0.90224 0.09447 0.0
H524 H 0.98614 0.89736 0.11124 0.0
H525 H 0.94974 0.90286 0.11492 0.0
C526 C 0.90953 0.95501 0.04207 0.0
N527 N 0.90233 0.94888 0.0574 0.0
N528 N 0.92391 0.95326 0.06694 0.0
C529 C 0.94559 0.96218 0.05791 0.0
C530 C 0.93717 0.96376 0.04182 0.0
C531 C 0.88972 0.95379 0.0281 0.0
H532 H 0.87856 0.93354 0.02822 0.0
H533 H 0.9007 0.95622 0.01637 0.0
H534 H 0.87396 0.97057 0.02942 0.0
O535 O 0.8555 0.97289 0.08002 0.0
O536 O 0.89059 0.97781 0.09743 0.0
H537 H 0.96841 0.99053 0.07276 0.0
H538 H 0.98766 0.97848 0.05543 0.0
C539 C 0.97255 0.97227 0.0649 0.0
H540 H 0.98183 0.95562 0.07249 0.0
H541 H 0.94894 0.00118 0.10232 0.0
O542 O 0.83752 0.93554 0.04989 0.0
C543 C 0.86672 0.98495 0.09209 0.0
Co544 Co 0.6985 0.61148 0.81242 0.0
Co545 Co 0.69639 0.65376 0.84148 0.0
C546 C 0.64734 0.61911 0.8338 0.0
O547 O 0.66103 0.60767 0.8224 0.0
O548 O 0.65812 0.63816 0.84251 0.0
C549 C 0.67544 0.58718 0.78427 0.0
O550 O 0.65482 0.60387 0.78819 0.0
C551 C 0.6829 0.7006 0.86384 0.0
C552 C 0.72475 0.70869 0.87405 0.0
C553 C 0.6973 0.71746 0.87469 0.0
N554 N 0.70123 0.68288 0.85701 0.0
N555 N 0.72614 0.68788 0.8632 0.0
C556 C 0.65219 0.70009 0.86063 0.0
H557 H 0.64821 0.70748 0.84813 0.0
H558 H 0.64052 0.71323 0.86933 0.0
H559 H 0.64441 0.67839 0.86151 0.0
C560 C 0.71514 0.66262 0.7947 0.0
N561 N 0.70634 0.64935 0.80812 0.0
N562 N 0.70502 0.66722 0.8202 0.0
C563 C 0.71259 0.6926 0.81473 0.0
C564 C 0.71945 0.69056 0.79842 0.0
C565 C 0.72169 0.64816 0.77912 0.0
H566 H 0.73069 0.6273 0.7816 0.0
H567 H 0.7021 0.64521 0.77219 0.0
H568 H 0.73653 0.6604 0.77167 0.0
O569 O 0.72742 0.59639 0.82692 0.0
O570 O 0.72352 0.62448 0.84818 0.0
H571 H 0.73081 0.71765 0.83331 0.0
H572 H 0.71435 0.7375 0.81737 0.0
C573 C 0.71283 0.71842 0.82489 0.0
H574 H 0.69344 0.71947 0.83213 0.0
H575 H 0.74414 0.67696 0.86003 0.0
O576 O 0.69777 0.58803 0.79254 0.0
C577 C 0.73446 0.60355 0.84117 0.0
Co578 Co 0.64809 0.45679 0.06598 0.0
Co579 Co 0.59257 0.45959 0.08655 0.0
C580 C 0.63241 0.41203 0.08974 0.0
O581 O 0.64911 0.42185 0.07922 0.0
O582 O 0.61 0.42464 0.09337 0.0
C583 C 0.68282 0.42931 0.04359 0.0
O584 O 0.66643 0.40877 0.04806 0.0
C585 C 0.5407 0.43886 0.10023 0.0
C586 C 0.52365 0.47575 0.11272 0.0
C587 C 0.51914 0.44742 0.1104 0.0
N588 N 0.55712 0.46088 0.09705 0.0
N589 N 0.54675 0.48294 0.10446 0.0
C590 C 0.54563 0.41067 0.093 0.0
H591 H 0.55835 0.41249 0.08183 0.0
H592 H 0.52556 0.40032 0.09007 0.0
H593 H 0.5574 0.39761 0.10172 0.0
C594 C 0.60657 0.46488 0.0395 0.0
N595 N 0.61304 0.46113 0.05523 0.0
N596 N 0.58995 0.46216 0.06383 0.0
C597 C 0.56813 0.4666 0.05391 0.0
C598 C 0.57792 0.46844 0.03815 0.0
C599 C 0.62764 0.46708 0.02622 0.0
H600 H 0.64566 0.4797 0.03034 0.0
H601 H 0.63526 0.44591 0.02313 0.0
H602 H 0.61861 0.47676 0.01521 0.0
O603 O 0.65515 0.48902 0.08093 0.0
O604 O 0.6156 0.49008 0.09499 0.0
H605 H 0.53642 0.48688 0.06777 0.0
H606 H 0.52368 0.47082 0.04935 0.0
C607 C 0.53853 0.46872 0.05954 0.0
H608 H 0.53301 0.44977 0.06647 0.0
H609 H 0.55592 0.50266 0.1043 0.0
O610 O 0.67889 0.45337 0.04967 0.0
C611 C 0.63988 0.49953 0.09204 0.0
Co612 Co 0.79777 0.38363 0.31688 0.0
Co613 Co 0.78939 0.33397 0.34134 0.0
C614 C 0.84129 0.36976 0.34129 0.0
O615 O 0.83379 0.38395 0.32904 0.0
O616 O 0.82571 0.35072 0.347 0.0
C617 C 0.82473 0.41642 0.29291 0.0
O618 O 0.84618 0.40153 0.2977 0.0
C619 C 0.80677 0.28197 0.35655 0.0
C620 C 0.76769 0.26543 0.36694 0.0
C621 C 0.79572 0.25941 0.36489 0.0
N622 N 0.78614 0.30015 0.3535 0.0
N623 N 0.76286 0.29032 0.35989 0.0
C624 C 0.83662 0.28725 0.35213 0.0
H625 H 0.83811 0.29224 0.33904 0.0
H626 H 0.85054 0.26965 0.35516 0.0
H627 H 0.84416 0.30562 0.35895 0.0
C628 C 0.78235 0.33831 0.29355 0.0
N629 N 0.78912 0.34742 0.30852 0.0
N630 N 0.78644 0.32666 0.31881 0.0
C631 C 0.77816 0.3037 0.31074 0.0
C632 C 0.775 0.31026 0.29448 0.0
C633 C 0.78019 0.35692 0.27909 0.0
H634 H 0.76781 0.37568 0.28224 0.0
H635 H 0.80138 0.36402 0.27563 0.0
H636 H 0.7704 0.34613 0.26867 0.0
O637 O 0.76786 0.39647 0.33196 0.0
O638 O 0.75957 0.36 0.34798 0.0
H639 H 0.75486 0.27793 0.32695 0.0
H640 H 0.76833 0.25954 0.30951 0.0
C641 C 0.77275 0.27606 0.31854 0.0
H642 H 0.79135 0.26969 0.32555 0.0
H643 H 0.74361 0.30038 0.35922 0.0
O644 O 0.80095 0.41166 0.29911 0.0
C645 C 0.75434 0.3848 0.3434 0.0
Co646 Co 0.85904 0.54498 0.56798 0.0
Co647 Co 0.91444 0.54142 0.58885 0.0
C648 C 0.87301 0.58809 0.59286 0.0
O649 O 0.85708 0.57944 0.58161 0.0
O650 O 0.89511 0.57499 0.59655 0.0
C651 C 0.82238 0.57184 0.54624 0.0
O652 O 0.83731 0.59318 0.55116 0.0
C653 C 0.96847 0.56237 0.6009 0.0
C654 C 0.98626 0.52513 0.61271 0.0
C655 C 0.99157 0.55301 0.60953 0.0
N656 N 0.95062 0.54095 0.59893 0.0
N657 N 0.96142 0.51876 0.60603 0.0
C658 C 0.96281 0.59152 0.59522 0.0
H659 H 0.94051 0.59474 0.5926 0.0
H660 H 0.97431 0.59542 0.58382 0.0
H661 H 0.96985 0.60687 0.6044 0.0
C662 C 0.90066 0.53792 0.54153 0.0
N663 N 0.89415 0.54145 0.55727 0.0
N664 N 0.91716 0.5401 0.56594 0.0
C665 C 0.93899 0.53563 0.556 0.0
C666 C 0.9293 0.53412 0.54018 0.0
C667 C 0.87952 0.53582 0.52827 0.0
H668 H 0.86193 0.52247 0.53223 0.0
H669 H 0.8712 0.5569 0.52562 0.0
H670 H 0.88863 0.52696 0.51706 0.0
O671 O 0.8527 0.51228 0.58259 0.0
O672 O 0.89221 0.50959 0.5967 0.0
H673 H 0.9703 0.51546 0.57025 0.0
H674 H 0.98337 0.5301 0.55152 0.0
C675 C 0.96855 0.53311 0.56164 0.0
H676 H 0.97453 0.5524 0.5681 0.0
H677 H 0.95167 0.49933 0.60649 0.0
O678 O 0.82807 0.54772 0.55172 0.0
C679 C 0.86775 0.50074 0.59345 0.0
Co680 Co 0.70301 0.392 0.68799 0.0
Co681 Co 0.70059 0.34351 0.66243 0.0
C682 C 0.65411 0.38367 0.66502 0.0
O683 O 0.66762 0.39659 0.67594 0.0
O684 O 0.664 0.36186 0.65842 0.0
C685 C 0.67729 0.42378 0.71236 0.0
O686 O 0.65642 0.4076 0.70813 0.0
C687 C 0.68147 0.29406 0.6448 0.0
C688 C 0.72045 0.27889 0.63363 0.0
C689 C 0.6921 0.27346 0.63465 0.0
N690 N 0.70252 0.31081 0.64935 0.0
N691 N 0.72576 0.30166 0.64264 0.0
C692 C 0.65234 0.29708 0.65107 0.0
H693 H 0.65236 0.30846 0.66276 0.0
H694 H 0.64247 0.27637 0.65277 0.0
H695 H 0.63983 0.30932 0.6423 0.0
C696 C 0.70928 0.34439 0.71043 0.0
N697 N 0.70618 0.35494 0.69546 0.0
N698 N 0.70523 0.33439 0.6849 0.0
C699 C 0.70771 0.30998 0.69292 0.0
C700 C 0.7102 0.31552 0.70939 0.0
C701 C 0.71231 0.3618 0.72535 0.0
H702 H 0.72504 0.38054 0.72266 0.0
H703 H 0.69137 0.36879 0.72934 0.0
H704 H 0.72225 0.34988 0.7353 0.0
O705 O 0.73505 0.40105 0.67395 0.0
O706 O 0.7311 0.36857 0.65485 0.0
H707 H 0.72317 0.28016 0.67592 0.0
H708 H 0.70801 0.26472 0.69386 0.0
C709 C 0.70625 0.28196 0.685 0.0
H710 H 0.68609 0.27989 0.67859 0.0
H711 H 0.74522 0.31101 0.64416 0.0
O712 O 0.70105 0.41981 0.70594 0.0
C713 C 0.74304 0.39 0.66075 0.0
Co714 Co 0.86179 0.45358 0.93609 0.0
Co715 Co 0.91349 0.45892 0.91269 0.0
C716 C 0.87714 0.40854 0.91195 0.0
O717 O 0.86127 0.41789 0.9231 0.0
O718 O 0.89826 0.42228 0.90715 0.0
C719 C 0.82969 0.42588 0.96014 0.0
O720 O 0.84456 0.40473 0.9549 0.0
C721 C 0.96497 0.44665 0.89456 0.0
C722 C 0.9764 0.48867 0.8858 0.0
C723 C 0.98412 0.46089 0.88502 0.0
N724 N 0.94683 0.46528 0.90065 0.0
N725 N 0.95396 0.49036 0.89549 0.0
C726 C 0.9616 0.41579 0.89634 0.0
H727 H 0.95149 0.41086 0.90806 0.0
H728 H 0.98175 0.4047 0.89557 0.0
H729 H 0.9481 0.40804 0.88642 0.0
C730 C 0.90774 0.46308 0.96036 0.0
N731 N 0.8982 0.46046 0.94504 0.0
N732 N 0.91954 0.46221 0.93508 0.0
C733 C 0.94314 0.46575 0.94362 0.0
C734 C 0.93657 0.46632 0.95993 0.0
C735 C 0.88978 0.46087 0.97509 0.0
H736 H 0.87117 0.47437 0.97367 0.0
H737 H 0.88248 0.43904 0.97636 0.0
H738 H 0.9013 0.46685 0.9862 0.0
O739 O 0.84963 0.48454 0.92121 0.0
O740 O 0.8866 0.48655 0.90514 0.0
H741 H 0.97095 0.48648 0.92739 0.0
H742 H 0.98768 0.47363 0.94537 0.0
C743 C 0.97143 0.46908 0.9362 0.0
H744 H 0.97699 0.44974 0.92959 0.0
H745 H 0.94296 0.50853 0.89819 0.0
O746 O 0.83369 0.44979 0.95389 0.0
C747 C 0.86235 0.49481 0.90902 0.0
Co748 Co 0.79513 0.60527 0.19248 0.0
Co749 Co 0.80182 0.6535 0.1668 0.0
C750 C 0.84546 0.61071 0.17049 0.0
O751 O 0.83067 0.59866 0.18115 0.0
O752 O 0.83735 0.63308 0.16374 0.0
C753 C 0.81896 0.57622 0.21819 0.0
O754 O 0.83905 0.59359 0.21429 0.0
C755 C 0.82517 0.70271 0.15066 0.0
C756 C 0.78924 0.71804 0.13654 0.0
C757 C 0.81714 0.72345 0.13976 0.0
N758 N 0.80313 0.6861 0.15353 0.0
N759 N 0.78174 0.69534 0.14503 0.0
C760 C 0.85259 0.69917 0.15906 0.0
H761 H 0.85007 0.68628 0.17011 0.0
H762 H 0.86145 0.71973 0.16244 0.0
H763 H 0.86733 0.68828 0.15087 0.0
C764 C 0.78854 0.65333 0.21441 0.0
N765 N 0.7931 0.64256 0.19963 0.0
N766 N 0.7958 0.66298 0.18908 0.0
C767 C 0.79301 0.68752 0.19693 0.0
C768 C 0.78856 0.68215 0.21327 0.0
C769 C 0.78259 0.63625 0.22916 0.0
H770 H 0.77011 0.61764 0.22585 0.0
H771 H 0.80258 0.62914 0.23449 0.0
H772 H 0.7711 0.64853 0.23837 0.0
O773 O 0.76386 0.59743 0.17764 0.0
O774 O 0.77086 0.62962 0.1586 0.0
H775 H 0.78067 0.71668 0.1787 0.0
H776 H 0.79124 0.73277 0.19754 0.0
C777 C 0.79542 0.71546 0.189 0.0
H778 H 0.8168 0.71806 0.18421 0.0
H779 H 0.76204 0.6861 0.14502 0.0
O780 O 0.79575 0.57807 0.21081 0.0
C781 C 0.75755 0.60874 0.16419 0.0
Co782 Co 0.64474 0.55071 0.43747 0.0
Co783 Co 0.59428 0.55367 0.41278 0.0
C784 C 0.63306 0.60192 0.4174 0.0
O785 O 0.64662 0.58849 0.42806 0.0
O786 O 0.61242 0.59096 0.41011 0.0
C787 C 0.67273 0.57273 0.46438 0.0
O788 O 0.65461 0.59253 0.46125 0.0
C789 C 0.54019 0.57248 0.39947 0.0
C790 C 0.52824 0.5367 0.38413 0.0
C791 C 0.51911 0.56256 0.38938 0.0
N792 N 0.56044 0.55312 0.40033 0.0
N793 N 0.55322 0.53189 0.39103 0.0
C794 C 0.5417 0.60027 0.40769 0.0
H795 H 0.56358 0.6065 0.40978 0.0
H796 H 0.53132 0.59895 0.41965 0.0
H797 H 0.53113 0.6165 0.40036 0.0
C798 C 0.59898 0.53287 0.45925 0.0
N799 N 0.60805 0.54308 0.44501 0.0
N800 N 0.58683 0.54496 0.43493 0.0
C801 C 0.56357 0.53597 0.44252 0.0
C802 C 0.57049 0.52814 0.45819 0.0
C803 C 0.6176 0.5267 0.47333 0.0
H804 H 0.62576 0.54659 0.47825 0.0
H805 H 0.60642 0.51563 0.48316 0.0
H806 H 0.63562 0.51405 0.46924 0.0
O807 O 0.65559 0.52288 0.4207 0.0
O808 O 0.61903 0.52418 0.40402 0.0
H809 H 0.53935 0.51886 0.42317 0.0
H810 H 0.52115 0.52018 0.44225 0.0
C811 C 0.53614 0.53128 0.43432 0.0
H812 H 0.52706 0.55165 0.43087 0.0
H813 H 0.56524 0.51395 0.38951 0.0
O814 O 0.67222 0.5507 0.4558 0.0
C815 C 0.64265 0.51432 0.40815 0.0
Co816 Co 0.30602 0.39038 0.18745 0.0
Co817 Co 0.3022 0.33674 0.16558 0.0
C818 C 0.35219 0.37386 0.16466 0.0
O819 O 0.34167 0.39091 0.17483 0.0
O820 O 0.33941 0.35181 0.16032 0.0
C821 C 0.32452 0.42877 0.2134 0.0
O822 O 0.34852 0.41559 0.21362 0.0
C823 C 0.31408 0.28515 0.14699 0.0
C824 C 0.27132 0.26879 0.14381 0.0
C825 C 0.29889 0.26381 0.13979 0.0
N826 N 0.29618 0.30187 0.15494 0.0
N827 N 0.27073 0.29179 0.15308 0.0
C828 C 0.34446 0.29136 0.14507 0.0
H829 H 0.34689 0.31101 0.13813 0.0
H830 H 0.35393 0.29465 0.15717 0.0
H831 H 0.35565 0.27449 0.13862 0.0
C832 C 0.29515 0.348 0.21302 0.0
N833 N 0.29982 0.35523 0.1975 0.0
N834 N 0.29861 0.33274 0.18839 0.0
C835 C 0.29386 0.3104 0.19789 0.0
C836 C 0.29135 0.31931 0.21381 0.0
C837 C 0.29199 0.36848 0.22656 0.0
H838 H 0.28016 0.38692 0.22232 0.0
H839 H 0.31295 0.37547 0.23053 0.0
H840 H 0.28092 0.3592 0.23703 0.0
O841 O 0.27446 0.39869 0.1731 0.0
O842 O 0.2728 0.3619 0.15681 0.0
H843 H 0.27245 0.27696 0.18618 0.0
H844 H 0.29608 0.26586 0.2019 0.0
C845 C 0.29299 0.28096 0.1919 0.0
H846 H 0.30948 0.2777 0.18271 0.0
H847 H 0.25284 0.30113 0.15778 0.0
O848 O 0.3056 0.42105 0.2036 0.0
C849 C 0.26384 0.38564 0.16124 0.0
Co850 Co 0.36741 0.54938 0.94183 0.0
Co851 Co 0.4073 0.5488 0.91146 0.0
C852 C 0.37214 0.59834 0.91917 0.0
O853 O 0.36232 0.58649 0.93172 0.0
O854 O 0.3898 0.58614 0.91013 0.0
C855 C 0.32434 0.56319 0.96428 0.0
O856 O 0.31645 0.57971 0.95246 0.0
C857 C 0.4543 0.5637 0.8895 0.0
C858 C 0.45935 0.52402 0.87627 0.0
C859 C 0.47001 0.55076 0.87753 0.0
N860 N 0.43546 0.54524 0.89515 0.0
N861 N 0.43864 0.52163 0.88713 0.0
C862 C 0.4565 0.59332 0.89508 0.0
H863 H 0.43672 0.60043 0.90055 0.0
H864 H 0.47306 0.59493 0.9044 0.0
H865 H 0.46213 0.60717 0.88483 0.0
C866 C 0.41967 0.53325 0.95822 0.0
N867 N 0.40561 0.54165 0.945 0.0
N868 N 0.42248 0.54162 0.93243 0.0
C869 C 0.44799 0.53335 0.93734 0.0
C870 C 0.44706 0.52769 0.95382 0.0
C871 C 0.40609 0.52777 0.97421 0.0
H872 H 0.38669 0.51559 0.97233 0.0
H873 H 0.40021 0.54793 0.97983 0.0
H874 H 0.41994 0.51613 0.98255 0.0
O875 O 0.35113 0.52008 0.92799 0.0
O876 O 0.3784 0.52042 0.90626 0.0
H877 H 0.46891 0.51391 0.91748 0.0
H878 H 0.49213 0.52637 0.93319 0.0
C879 C 0.4727 0.53079 0.92639 0.0
H880 H 0.47555 0.55054 0.9197 0.0
H881 H 0.42661 0.50381 0.88908 0.0
O882 O 0.34628 0.5486 0.96256 0.0
C883 C 0.35756 0.5109 0.91404 0.0
Co884 Co 0.20415 0.62035 0.68401 0.0
Co885 Co 0.21464 0.66445 0.65657 0.0
C886 C 0.16084 0.63198 0.65898 0.0
O887 O 0.16821 0.61841 0.67156 0.0
O888 O 0.17688 0.65003 0.65259 0.0
C889 C 0.18892 0.57434 0.7052 0.0
O890 O 0.17327 0.5659 0.6931 0.0
C891 C 0.20459 0.71618 0.63835 0.0
C892 C 0.24182 0.71766 0.6227 0.0
C893 C 0.21727 0.73187 0.62612 0.0
N894 N 0.22099 0.69419 0.64175 0.0
N895 N 0.24316 0.69519 0.63234 0.0
C896 C 0.17796 0.72167 0.64721 0.0
H897 H 0.17614 0.70775 0.65788 0.0
H898 H 0.17719 0.74368 0.65131 0.0
H899 H 0.16004 0.71756 0.63906 0.0
C900 C 0.21698 0.66985 0.70442 0.0
N901 N 0.21341 0.65766 0.68986 0.0
N902 N 0.21878 0.67598 0.67842 0.0
C903 C 0.22622 0.70032 0.68536 0.0
C904 C 0.22517 0.69732 0.70205 0.0
C905 C 0.21169 0.65557 0.72021 0.0
H906 H 0.1919 0.64366 0.71953 0.0
H907 H 0.21051 0.67067 0.73036 0.0
H908 H 0.2288 0.64055 0.72259 0.0
O909 O 0.23472 0.604 0.67078 0.0
O910 O 0.24143 0.63479 0.6511 0.0
H911 H 0.2479 0.71913 0.66541 0.0
H912 H 0.24914 0.73903 0.68395 0.0
C913 C 0.23588 0.72548 0.67624 0.0
H914 H 0.2175 0.7377 0.67229 0.0
H915 H 0.25914 0.68045 0.63244 0.0
O916 O 0.20255 0.59696 0.70385 0.0
C917 C 0.24722 0.61181 0.65797 0.0
Co918 Co 0.13572 0.45498 0.43861 0.0
Co919 Co 0.09146 0.45071 0.41036 0.0
C920 C 0.13051 0.40397 0.41733 0.0
O921 O 0.14166 0.41783 0.42873 0.0
O922 O 0.11064 0.4141 0.40902 0.0
C923 C 0.16186 0.43346 0.46635 0.0
O924 O 0.14482 0.4129 0.46278 0.0
C925 C 0.04259 0.42857 0.39305 0.0
C926 C 0.02627 0.466 0.38072 0.0
C927 C 0.02053 0.43814 0.38364 0.0
N928 N 0.06 0.44999 0.39597 0.0
N929 N 0.05039 0.47218 0.3883 0.0
C930 C 0.04757 0.39951 0.39902 0.0
H931 H 0.06893 0.39292 0.39571 0.0
H932 H 0.04596 0.39912 0.41241 0.0
H933 H 0.0328 0.38433 0.39366 0.0
C934 C 0.08514 0.46886 0.45746 0.0
N935 N 0.09771 0.46023 0.44377 0.0
N936 N 0.07911 0.4585 0.43208 0.0
C937 C 0.05399 0.46582 0.43809 0.0
C938 C 0.05697 0.47276 0.45433 0.0
C939 C 0.10051 0.47622 0.47264 0.0
H940 H 0.12013 0.48726 0.46957 0.0
H941 H 0.10606 0.45675 0.47912 0.0
H942 H 0.08776 0.48951 0.48075 0.0
O943 O 0.14722 0.48481 0.42357 0.0
O944 O 0.11747 0.48071 0.40297 0.0
H945 H 0.02935 0.48278 0.41891 0.0
H946 H 0.00918 0.47107 0.4361 0.0
C947 C 0.0276 0.4666 0.42843 0.0
H948 H 0.02436 0.44615 0.42254 0.0
H949 H 0.05976 0.4918 0.38872 0.0
O950 O 0.16061 0.4557 0.45801 0.0
C951 C 0.13833 0.4924 0.40973 0.0
Co952 Co 0.29633 0.61632 0.32022 0.0
Co953 Co 0.2924 0.66887 0.34297 0.0
C954 C 0.34104 0.62878 0.34411 0.0
O955 O 0.33244 0.61362 0.33246 0.0
O956 O 0.32716 0.64978 0.3489 0.0
C957 C 0.31513 0.57145 0.2989 0.0
O958 O 0.33846 0.57208 0.30721 0.0
C959 C 0.31283 0.72077 0.35731 0.0
C960 C 0.27424 0.74047 0.36639 0.0
C961 C 0.30272 0.74456 0.3649 0.0
N962 N 0.29124 0.70376 0.35416 0.0
N963 N 0.26826 0.7155 0.35976 0.0
C964 C 0.34257 0.7131 0.354 0.0
H965 H 0.34537 0.70931 0.34085 0.0
H966 H 0.35755 0.72903 0.35826 0.0
H967 H 0.34753 0.69348 0.36042 0.0
C968 C 0.28966 0.66092 0.29528 0.0
N969 N 0.29169 0.6524 0.3108 0.0
N970 N 0.29026 0.67432 0.32034 0.0
C971 C 0.28748 0.69743 0.31122 0.0
C972 C 0.28702 0.68974 0.29505 0.0
C973 C 0.29128 0.64187 0.28099 0.0
H974 H 0.3109 0.62967 0.28159 0.0
H975 H 0.29056 0.65359 0.26942 0.0
H976 H 0.27365 0.62692 0.28143 0.0
O977 O 0.26485 0.60753 0.33541 0.0
O978 O 0.2615 0.64554 0.35065 0.0
H979 H 0.27914 0.74157 0.30827 0.0
H980 H 0.30449 0.73267 0.32356 0.0
C981 C 0.28457 0.72631 0.31785 0.0
H982 H 0.26805 0.7266 0.32721 0.0
H983 H 0.24845 0.70664 0.35886 0.0
O984 O 0.29543 0.58799 0.30262 0.0
C985 C 0.25328 0.62118 0.34684 0.0
Co986 Co 0.1379 0.54152 0.0715 0.0
Co987 Co 0.08453 0.53531 0.09319 0.0
C988 C 0.12031 0.58684 0.09428 0.0
O989 O 0.13688 0.57811 0.08331 0.0
O990 O 0.09973 0.57215 0.09897 0.0
C991 C 0.17667 0.56169 0.0466 0.0
O992 O 0.16271 0.58524 0.04679 0.0
C993 C 0.03036 0.54625 0.10958 0.0
C994 C 0.02126 0.50397 0.11877 0.0
C995 C 0.01162 0.53116 0.11897 0.0
N996 N 0.05021 0.52866 0.10422 0.0
N997 N 0.04436 0.50341 0.10961 0.0
C998 C 0.03041 0.57703 0.10663 0.0
H999 H 0.05037 0.58403 0.10134 0.0
H1000 H 0.01362 0.58224 0.09792 0.0
H1001 H 0.0263 0.58842 0.11807 0.0
C1002 C 0.09591 0.52654 0.04607 0.0
N1003 N 0.10293 0.53317 0.0614 0.0
N1004 N 0.08057 0.53119 0.07056 0.0
C1005 C 0.05864 0.52355 0.06139 0.0
C1006 C 0.06757 0.52029 0.04553 0.0
C1007 C 0.11619 0.52565 0.03233 0.0
H1008 H 0.12569 0.54655 0.03083 0.0
H1009 H 0.10602 0.51957 0.02081 0.0
H1010 H 0.13316 0.51076 0.03522 0.0
O1011 O 0.14832 0.51143 0.08699 0.0
O1012 O 0.11014 0.50704 0.10179 0.0
H1013 H 0.03268 0.49924 0.07693 0.0
H1014 H 0.01558 0.51006 0.05861 0.0
C1015 C 0.03052 0.51652 0.06812 0.0
H1016 H 0.02207 0.53488 0.07463 0.0
H1017 H 0.05672 0.4859 0.10748 0.0
O1018 O 0.16889 0.54167 0.05559 0.0
C1019 C 0.13493 0.49979 0.09843 0.0
Co1020 Co 0.2064 0.3955 0.81729 0.0
Co1021 Co 0.19808 0.34372 0.84051 0.0
C1022 C 0.15252 0.38502 0.83493 0.0
O1023 O 0.16772 0.399 0.82526 0.0
O1024 O 0.1615 0.36304 0.84183 0.0
C1025 C 0.19294 0.43095 0.79028 0.0
O1026 O 0.16981 0.41626 0.78997 0.0
C1027 C 0.17512 0.29243 0.8556 0.0
C1028 C 0.21358 0.27229 0.86453 0.0
C1029 C 0.185 0.26864 0.86336 0.0
N1030 N 0.19697 0.30897 0.85206 0.0
N1031 N 0.21982 0.29691 0.85761 0.0
C1032 C 0.14541 0.30029 0.85239 0.0
H1033 H 0.14136 0.2994 0.83918 0.0
H1034 H 0.13058 0.28654 0.85887 0.0
H1035 H 0.14173 0.32195 0.85648 0.0
C1036 C 0.21837 0.35016 0.79391 0.0
N1037 N 0.21218 0.35924 0.8089 0.0
N1038 N 0.20847 0.33758 0.81847 0.0
C1039 C 0.21217 0.31404 0.80979 0.0
C1040 C 0.21853 0.3213 0.79398 0.0
C1041 C 0.22395 0.36872 0.77974 0.0
H1042 H 0.23658 0.3869 0.78358 0.0
H1043 H 0.20383 0.37638 0.77486 0.0
H1044 H 0.23509 0.35734 0.77 0.0
O1045 O 0.23274 0.40331 0.83522 0.0
O1046 O 0.22602 0.36728 0.85163 0.0
H1047 H 0.22366 0.28066 0.82551 0.0
H1048 H 0.209 0.26931 0.8065 0.0
C1049 C 0.20767 0.28523 0.8162 0.0
H1050 H 0.18687 0.28397 0.82199 0.0
H1051 H 0.23978 0.30531 0.85643 0.0
O1052 O 0.21164 0.42504 0.80064 0.0
C1053 C 0.23802 0.39024 0.84827 0.0
Co1054 Co 0.36024 0.45678 0.56155 0.0
Co1055 Co 0.4102 0.44715 0.58583 0.0
C1056 C 0.36747 0.40461 0.58306 0.0
O1057 O 0.35498 0.42104 0.57336 0.0
O1058 O 0.39139 0.41064 0.58879 0.0
C1059 C 0.32692 0.43297 0.53733 0.0
O1060 O 0.34266 0.41166 0.54134 0.0
C1061 C 0.46144 0.43305 0.60528 0.0
C1062 C 0.47248 0.47565 0.61321 0.0
C1063 C 0.48036 0.44803 0.61465 0.0
N1064 N 0.44321 0.4512 0.59867 0.0
N1065 N 0.4502 0.47656 0.60341 0.0
C1066 C 0.45982 0.40209 0.60342 0.0
H1067 H 0.43876 0.39559 0.59944 0.0
H1068 H 0.4751 0.39538 0.59414 0.0
H1069 H 0.4652 0.39163 0.61499 0.0
C1070 C 0.40773 0.46481 0.5388 0.0
N1071 N 0.39728 0.45939 0.5536 0.0
N1072 N 0.418 0.45459 0.56368 0.0
C1073 C 0.44228 0.45656 0.55558 0.0
C1074 C 0.43664 0.46309 0.53953 0.0
C1075 C 0.39011 0.46998 0.52417 0.0
H1076 H 0.37369 0.48545 0.52711 0.0
H1077 H 0.37956 0.45027 0.52072 0.0
H1078 H 0.40265 0.47738 0.51376 0.0
O1079 O 0.35184 0.487 0.57715 0.0
O1080 O 0.38472 0.47574 0.59484 0.0
H1081 H 0.47296 0.46995 0.57261 0.0
H1082 H 0.48758 0.45532 0.55451 0.0
C1083 C 0.47032 0.45347 0.56334 0.0
H1084 H 0.47151 0.43298 0.56952 0.0
H1085 H 0.43936 0.49456 0.60016 0.0
O1086 O 0.33173 0.45652 0.54384 0.0
C1087 C 0.36361 0.49025 0.59083 0.0
H1088 H 0.15771 0.26672 0.36465 0.0
H1089 H 0.21071 0.23812 0.40382 0.0
H1090 H 0.19806 0.27959 0.4198 0.0
H1091 H 0.17415 0.33763 0.36803 0.0
H1092 H 0.13961 0.35034 0.36368 0.0
H1093 H 0.15075 0.31726 0.35571 0.0
H1094 H 0.10834 0.29302 0.36907 0.0
H1095 H 0.09691 0.32611 0.37698 0.0
H1096 H 0.10248 0.29714 0.39048 0.0
H1097 H 0.18267 0.32524 0.43074 0.0
H1098 H 0.1644 0.37218 0.43638 0.0
H1099 H 0.12033 0.37136 0.39046 0.0
C1100 C 0.16591 0.26868 0.37678 0.0
C1101 C 0.1848 0.24888 0.38312 0.0
C1102 C 0.19608 0.25295 0.39877 0.0
C1103 C 0.18897 0.27639 0.40797 0.0
C1104 C 0.17054 0.29565 0.40133 0.0
C1105 C 0.15901 0.29205 0.38616 0.0
C1106 C 0.14086 0.31673 0.3816 0.0
C1107 C 0.15202 0.33135 0.36635 0.0
C1108 C 0.11033 0.30771 0.37941 0.0
C1109 C 0.1444 0.33488 0.39649 0.0
C1110 C 0.16156 0.32222 0.40771 0.0
C1111 C 0.16897 0.33527 0.42213 0.0
C1112 C 0.15856 0.36202 0.42518 0.0
C1113 C 0.14085 0.37548 0.4139 0.0
C1114 C 0.13359 0.36155 0.3994 0.0
H1115 H 0.99306 0.93989 0.64628 0.0
H1116 H 0.9944 0.89336 0.60125 0.0
H1117 H 0.95035 0.87057 0.6087 0.0
H1118 H 0.96109 0.88622 0.67157 0.0
H1119 H 0.93976 0.91074 0.68251 0.0
H1120 H 0.97293 0.92155 0.67443 0.0
H1121 H 0.94865 0.96166 0.65888 0.0
H1122 H 0.91542 0.95092 0.66686 0.0
H1123 H 0.92032 0.95372 0.64531 0.0
H1124 H 0.90536 0.85443 0.62019 0.0
H1125 H 0.86132 0.84668 0.63465 0.0
H1126 H 0.88726 0.905 0.67195 0.0
C1127 C 0.98429 0.92456 0.63812 0.0
C1128 C 0.99793 0.9175 0.6235 0.0
C1129 C 0.98534 0.89799 0.61292 0.0
C1130 C 0.96002 0.8852 0.61694 0.0
C1131 C 0.94728 0.89246 0.63147 0.0
C1132 C 0.95885 0.91177 0.64188 0.0
C1133 C 0.93996 0.91702 0.65628 0.0
C1134 C 0.95429 0.90836 0.67214 0.0
C1135 C 0.93053 0.94765 0.65686 0.0
C1136 C 0.91587 0.89777 0.65225 0.0
C1137 C 0.9207 0.8837 0.63793 0.0
C1138 C 0.90142 0.86512 0.63149 0.0
C1139 C 0.87648 0.86077 0.63987 0.0
C1140 C 0.87088 0.87495 0.65457 0.0
C1141 C 0.89093 0.89375 0.6608 0.0
H1142 H 0.37913 0.62573 0.89027 0.0
H1143 H 0.34057 0.63365 0.93759 0.0
H1144 H 0.31955 0.67826 0.92926 0.0
H1145 H 0.39303 0.7004 0.88386 0.0
H1146 H 0.38473 0.69865 0.86262 0.0
H1147 H 0.39899 0.66861 0.87276 0.0
H1148 H 0.3568 0.63905 0.8633 0.0
H1149 H 0.34239 0.66896 0.85318 0.0
H1150 H 0.32197 0.65055 0.86804 0.0
H1151 H 0.29971 0.71974 0.9153 0.0
H1152 H 0.28305 0.7563 0.89662 0.0
H1153 H 0.3335 0.72114 0.8582 0.0
C1154 C 0.36669 0.63709 0.89899 0.0
C1155 C 0.36159 0.62622 0.91461 0.0
C1156 C 0.34481 0.64154 0.92556 0.0
C1157 C 0.33282 0.66694 0.92096 0.0
C1158 C 0.33781 0.67677 0.90539 0.0
C1159 C 0.35441 0.66242 0.89457 0.0
C1160 C 0.35508 0.67678 0.87824 0.0
C1161 C 0.38472 0.6867 0.87413 0.0
C1162 C 0.34335 0.6577 0.86491 0.0
C1163 C 0.33588 0.70119 0.88151 0.0
C1164 C 0.32632 0.70085 0.89729 0.0
C1165 C 0.30734 0.72046 0.90299 0.0
C1166 C 0.29791 0.74102 0.8923 0.0
C1167 C 0.30753 0.74186 0.87613 0.0
C1168 C 0.32668 0.72162 0.87067 0.0
H1169 H 0.61895 0.08998 0.16681 0.0
H1170 H 0.64244 0.14984 0.1298 0.0
H1171 H 0.59877 0.1406 0.11533 0.0
H1172 H 0.58758 0.04051 0.13983 0.0
H1173 H 0.55961 0.03125 0.15336 0.0
H1174 H 0.59242 0.04314 0.16141 0.0
H1175 H 0.56694 0.08206 0.17729 0.0
H1176 H 0.53403 0.07027 0.1693 0.0
H1177 H 0.54462 0.10602 0.1666 0.0
H1178 H 0.55426 0.12348 0.10387 0.0
H1179 H 0.51025 0.10029 0.09658 0.0
H1180 H 0.51354 0.05231 0.14103 0.0
C1181 C 0.61481 0.10124 0.15572 0.0
C1182 C 0.63411 0.12095 0.14961 0.0
C1183 C 0.6279 0.13509 0.13497 0.0
C1184 C 0.60314 0.12986 0.12656 0.0
C1185 C 0.58462 0.11043 0.13287 0.0
C1186 C 0.58999 0.09635 0.14712 0.0
C1187 C 0.56649 0.0762 0.15102 0.0
C1188 C 0.57717 0.04598 0.15142 0.0
C1189 C 0.55217 0.08412 0.167 0.0
C1190 C 0.54734 0.08107 0.13666 0.0
C1191 C 0.5583 0.10092 0.12637 0.0
C1192 C 0.5451 0.10836 0.112 0.0
C1193 C 0.51987 0.09532 0.10807 0.0
C1194 C 0.50778 0.07539 0.11857 0.0
C1195 C 0.52197 0.06795 0.13295 0.0
H1196 H 0.15788 0.62835 0.08608 0.0
H1197 H 0.09503 0.60604 0.12165 0.0
H1198 H 0.10546 0.64874 0.13692 0.0
H1199 H 0.20717 0.65699 0.11355 0.0
H1200 H 0.21768 0.68523 0.10053 0.0
H1201 H 0.20484 0.65325 0.09189 0.0
H1202 H 0.16707 0.68071 0.07617 0.0
H1203 H 0.17988 0.71282 0.0847 0.0
H1204 H 0.14372 0.70342 0.08704 0.0
H1205 H 0.12537 0.6913 0.14972 0.0
H1206 H 0.15046 0.73345 0.15794 0.0
H1207 H 0.19778 0.73125 0.11317 0.0
C1208 C 0.14617 0.63256 0.09701 0.0
C1209 C 0.12568 0.61369 0.10265 0.0
C1210 C 0.11079 0.62008 0.11701 0.0
C1211 C 0.11659 0.6443 0.12583 0.0
C1212 C 0.1371 0.66223 0.12007 0.0
C1213 C 0.15143 0.65693 0.1059 0.0
C1214 C 0.17246 0.67982 0.10248 0.0
C1215 C 0.2023 0.66811 0.1021 0.0
C1216 C 0.16535 0.6951 0.08666 0.0
C1217 C 0.16795 0.69845 0.11708 0.0
C1218 C 0.14755 0.6878 0.12708 0.0
C1219 C 0.14079 0.70037 0.14175 0.0
C1220 C 0.15497 0.72474 0.14622 0.0
C1221 C 0.17529 0.73676 0.13591 0.0
C1222 C 0.18197 0.72306 0.12122 0.0
H1223 H 0.5282 0.92565 0.39102 0.0
H1224 H 0.50052 0.97947 0.35201 0.0
H1225 H 0.53769 0.96092 0.33451 0.0
H1226 H 0.59986 0.93304 0.38394 0.0
H1227 H 0.60884 0.89746 0.38862 0.0
H1228 H 0.57864 0.91316 0.39776 0.0
H1229 H 0.54768 0.87322 0.38668 0.0
H1230 H 0.57784 0.85735 0.3775 0.0
H1231 H 0.54781 0.86567 0.36532 0.0
H1232 H 0.57905 0.93929 0.32185 0.0
H1233 H 0.6234 0.91649 0.31487 0.0
H1234 H 0.62427 0.8755 0.36171 0.0
C1235 C 0.52941 0.93292 0.37867 0.0
C1236 C 0.51112 0.95366 0.37278 0.0
C1237 C 0.51428 0.96354 0.35675 0.0
C1238 C 0.53519 0.95301 0.34668 0.0
C1239 C 0.55284 0.93258 0.35281 0.0
C1240 C 0.55025 0.92259 0.36842 0.0
C1241 C 0.57314 0.90182 0.37226 0.0
C1242 C 0.59118 0.91199 0.38648 0.0
C1243 C 0.56088 0.87279 0.37564 0.0
C1244 C 0.58927 0.90221 0.35649 0.0
C1245 C 0.57699 0.91995 0.34542 0.0
C1246 C 0.58873 0.92509 0.33033 0.0
C1247 C 0.61397 0.91208 0.3265 0.0
C1248 C 0.62723 0.89412 0.33771 0.0
C1249 C 0.6144 0.88877 0.3528 0.0
H1250 H 0.34417 0.2584 0.62793 0.0
H1251 H 0.25618 0.26801 0.61629 0.0
H1252 H 0.26684 0.31119 0.60181 0.0
H1253 H 0.35611 0.33171 0.63596 0.0
H1254 H 0.3908 0.3315 0.62759 0.0
H1255 H 0.37673 0.30032 0.63658 0.0
H1256 H 0.38631 0.27333 0.61002 0.0
H1257 H 0.40017 0.3045 0.60089 0.0
H1258 H 0.37194 0.28604 0.59127 0.0
H1259 H 0.28614 0.35252 0.58829 0.0
H1260 H 0.31272 0.39255 0.57819 0.0
H1261 H 0.38803 0.3593 0.60021 0.0
C1262 C 0.32688 0.26962 0.62278 0.0
C1263 C 0.29913 0.25949 0.62361 0.0
C1264 C 0.27765 0.27495 0.61591 0.0
C1265 C 0.28344 0.29965 0.60762 0.0
C1266 C 0.31082 0.309 0.60716 0.0
C1267 C 0.3322 0.29476 0.61466 0.0
C1268 C 0.35969 0.31014 0.61266 0.0
C1269 C 0.37152 0.31894 0.62918 0.0
C1270 C 0.38077 0.29244 0.60314 0.0
C1271 C 0.35023 0.33523 0.6029 0.0
C1272 C 0.322 0.33379 0.59973 0.0
C1273 C 0.30825 0.35403 0.59075 0.0
C1274 C 0.32364 0.37668 0.58502 0.0
C1275 C 0.35252 0.37922 0.58844 0.0
C1276 C 0.36599 0.35804 0.59744 0.0
H1277 H 0.86306 0.07527 0.83897 0.0
H1278 H 0.88293 0.16346 0.83883 0.0
H1279 H 0.93006 0.15298 0.84923 0.0
H1280 H 0.89567 0.06076 0.876 0.0
H1281 H 0.90828 0.02674 0.87035 0.0
H1282 H 0.8774 0.04058 0.86095 0.0
H1283 H 0.89952 0.0339 0.83263 0.0
H1284 H 0.93041 0.01976 0.84193 0.0
H1285 H 0.93313 0.04908 0.82839 0.0
H1286 H 0.97407 0.13323 0.86059 0.0
H1287 H 0.01169 0.10584 0.87297 0.0
H1288 H 0.96209 0.03065 0.86786 0.0
C1289 C 0.87764 0.09225 0.84073 0.0
C1290 C 0.8696 0.12014 0.83795 0.0
C1291 C 0.88883 0.14196 0.84086 0.0
C1292 C 0.91562 0.1362 0.84671 0.0
C1293 C 0.92271 0.10853 0.84972 0.0
C1294 C 0.90432 0.08689 0.84686 0.0
C1295 C 0.9164 0.05928 0.85236 0.0
C1296 C 0.89836 0.04608 0.86571 0.0
C1297 C 0.92009 0.03933 0.83796 0.0
C1298 C 0.94429 0.06886 0.85892 0.0
C1299 C 0.9476 0.09729 0.85711 0.0
C1300 C 0.97159 0.11099 0.86226 0.0
C1301 C 0.9927 0.09526 0.86958 0.0
C1302 C 0.98947 0.06621 0.87202 0.0
C1303 C 0.96505 0.05288 0.86636 0.0
H1304 H 0.78946 0.72711 0.61655 0.0
H1305 H 0.83559 0.72627 0.66166 0.0
H1306 H 0.86061 0.68401 0.65283 0.0
H1307 H 0.78093 0.65189 0.61418 0.0
H1308 H 0.78429 0.65075 0.59247 0.0
H1309 H 0.77041 0.6814 0.60214 0.0
H1310 H 0.80808 0.71161 0.5881 0.0
H1311 H 0.82215 0.68103 0.57846 0.0
H1312 H 0.84437 0.70289 0.59065 0.0
H1313 H 0.88185 0.64347 0.63887 0.0
H1314 H 0.89527 0.6038 0.62176 0.0
H1315 H 0.83336 0.62833 0.58611 0.0
C1316 C 0.80486 0.71796 0.62452 0.0
C1317 C 0.81153 0.73054 0.63949 0.0
C1318 C 0.83123 0.7177 0.64981 0.0
C1319 C 0.84531 0.69355 0.64497 0.0
C1320 C 0.83895 0.68216 0.62992 0.0
C1321 C 0.81893 0.69361 0.61993 0.0
C1322 C 0.81564 0.67661 0.60456 0.0
C1323 C 0.78606 0.66444 0.60327 0.0
C1324 C 0.82301 0.69408 0.58956 0.0
C1325 C 0.83708 0.65394 0.60747 0.0
C1326 C 0.85038 0.65777 0.62214 0.0
C1327 C 0.87146 0.64009 0.62742 0.0
C1328 C 0.87899 0.61765 0.61755 0.0
C1329 C 0.8653 0.61283 0.60259 0.0
C1330 C 0.84408 0.63133 0.59751 0.0
H1331 H 0.02488 0.08287 0.39704 0.0
H1332 H 0.99474 0.02489 0.36081 0.0
H1333 H 0.03053 0.04174 0.34165 0.0
H1334 H 0.04257 0.14007 0.36918 0.0
H1335 H 0.07355 0.14953 0.38024 0.0
H1336 H 0.04429 0.13438 0.39072 0.0
H1337 H 0.07634 0.09552 0.40202 0.0
H1338 H 0.10564 0.11054 0.39158 0.0
H1339 H 0.09647 0.07457 0.38819 0.0
H1340 H 0.07061 0.06298 0.327 0.0
H1341 H 0.11381 0.08601 0.31798 0.0
H1342 H 0.11827 0.13066 0.36363 0.0
C1343 C 0.02546 0.07428 0.38493 0.0
C1344 C 0.00679 0.05302 0.38021 0.0
C1345 C 0.00879 0.04137 0.36454 0.0
C1346 C 0.02892 0.05088 0.35358 0.0
C1347 C 0.047 0.07195 0.35854 0.0
C1348 C 0.04556 0.08348 0.37385 0.0
C1349 C 0.06863 0.10465 0.37642 0.0
C1350 C 0.05653 0.13389 0.37931 0.0
C1351 C 0.08791 0.09578 0.39038 0.0
C1352 C 0.08342 0.10294 0.36024 0.0
C1353 C 0.07044 0.08408 0.35009 0.0
C1354 C 0.08086 0.07796 0.33478 0.0
C1355 C 0.10545 0.09114 0.32978 0.0
C1356 C 0.11944 0.11022 0.34006 0.0
C1357 C 0.10793 0.11645 0.3554 0.0
H1358 H 0.71509 0.2713 0.1104 0.0
H1359 H 0.66932 0.26987 0.15563 0.0
H1360 H 0.64434 0.31261 0.14764 0.0
H1361 H 0.72391 0.34665 0.10969 0.0
H1362 H 0.72062 0.34913 0.08801 0.0
H1363 H 0.7344 0.31787 0.09705 0.0
H1364 H 0.6967 0.28865 0.08233 0.0
H1365 H 0.68271 0.31984 0.07333 0.0
H1366 H 0.66042 0.29727 0.08502 0.0
H1367 H 0.62289 0.35372 0.13441 0.0
H1368 H 0.60967 0.3945 0.11813 0.0
H1369 H 0.67172 0.37208 0.08212 0.0
C1370 C 0.69978 0.28005 0.11857 0.0
C1371 C 0.69311 0.26665 0.13329 0.0
C1372 C 0.6736 0.27903 0.14392 0.0
C1373 C 0.65954 0.30344 0.13957 0.0
C1374 C 0.66582 0.31561 0.12473 0.0
C1375 C 0.6858 0.3047 0.1145 0.0
C1376 C 0.68917 0.32261 0.0995 0.0
C1377 C 0.71878 0.33479 0.09851 0.0
C1378 C 0.6818 0.3061 0.08414 0.0
C1379 C 0.66778 0.34512 0.10288 0.0
C1380 C 0.65443 0.34044 0.11744 0.0
C1381 C 0.63334 0.35779 0.12306 0.0
C1382 C 0.62591 0.38084 0.11366 0.0
C1383 C 0.63974 0.38657 0.09887 0.0
C1384 C 0.66091 0.36835 0.09341 0.0
H1385 H 0.39467 0.90609 0.83343 0.0
H1386 H 0.36793 0.84606 0.86959 0.0
H1387 H 0.41052 0.85523 0.88531 0.0
H1388 H 0.46861 0.88905 0.83545 0.0
H1389 H 0.4797 0.92466 0.83282 0.0
H1390 H 0.44729 0.91302 0.82411 0.0
H1391 H 0.42106 0.95244 0.83916 0.0
H1392 H 0.45336 0.96415 0.84796 0.0
H1393 H 0.42433 0.95533 0.86082 0.0
H1394 H 0.45397 0.8732 0.89817 0.0
H1395 H 0.4976 0.89629 0.90636 0.0
H1396 H 0.49838 0.94259 0.86129 0.0
C1397 C 0.39785 0.89474 0.8446 0.0
C1398 C 0.37788 0.8753 0.85023 0.0
C1399 C 0.3829 0.86091 0.86493 0.0
C1400 C 0.40703 0.86604 0.874 0.0
C1401 C 0.42611 0.88546 0.86819 0.0
C1402 C 0.422 0.89942 0.85378 0.0
C1403 C 0.4459 0.9193 0.85034 0.0
C1404 C 0.46129 0.911 0.83476 0.0
C1405 C 0.43553 0.9496 0.84953 0.0
C1406 C 0.4639 0.91447 0.86516 0.0
C1407 C 0.45198 0.89495 0.87532 0.0
C1408 C 0.46393 0.88793 0.89012 0.0
C1409 C 0.48896 0.90089 0.89456 0.0
C1410 C 0.50218 0.92017 0.8841 0.0
C1411 C 0.48914 0.92736 0.86933 0.0
H1412 H 0.79253 0.26813 0.89152 0.0
H1413 H 0.84123 0.26435 0.84735 0.0
H1414 H 0.86727 0.30615 0.85574 0.0
H1415 H 0.7863 0.34325 0.89172 0.0
H1416 H 0.78843 0.34634 0.91341 0.0
H1417 H 0.77438 0.31514 0.90443 0.0
H1418 H 0.81049 0.28548 0.92012 0.0
H1419 H 0.82473 0.31662 0.92909 0.0
H1420 H 0.84711 0.29318 0.91806 0.0
H1421 H 0.88832 0.34742 0.86867 0.0
H1422 H 0.90087 0.38901 0.88428 0.0
H1423 H 0.83723 0.36885 0.91983 0.0
C1424 C 0.80881 0.27608 0.8837 0.0
C1425 C 0.81578 0.26228 0.86913 0.0
C1426 C 0.83658 0.27372 0.85896 0.0
C1427 C 0.85128 0.29763 0.86354 0.0
C1428 C 0.84453 0.31026 0.87817 0.0
C1429 C 0.82357 0.30022 0.88803 0.0
C1430 C 0.81983 0.31873 0.90279 0.0
C1431 C 0.79049 0.33163 0.9031 0.0
C1432 C 0.82591 0.30253 0.91844 0.0
C1433 C 0.84199 0.34067 0.89963 0.0
C1434 C 0.85606 0.3351 0.88541 0.0
C1435 C 0.87746 0.35207 0.87982 0.0
C1436 C 0.88453 0.37563 0.88887 0.0
C1437 C 0.87016 0.38228 0.90337 0.0
C1438 C 0.84864 0.36438 0.90883 0.0
H1439 H 0.47313 0.04046 0.63203 0.0
H1440 H 0.51631 0.11768 0.62087 0.0
H1441 H 0.47754 0.14437 0.63232 0.0
H1442 H 0.40382 0.06357 0.62458 0.0
H1443 H 0.38888 0.04525 0.64152 0.0
H1444 H 0.41982 0.032 0.6319 0.0
H1445 H 0.44555 0.03248 0.65947 0.0
H1446 H 0.41469 0.04584 0.66918 0.0
H1447 H 0.44724 0.06438 0.67096 0.0
H1448 H 0.43278 0.16293 0.64349 0.0
H1449 H 0.3865 0.17186 0.6556 0.0
H1450 H 0.37463 0.08304 0.66252 0.0
C1451 C 0.47446 0.06299 0.63195 0.0
C1452 C 0.49735 0.07684 0.62474 0.0
C1453 C 0.49845 0.10636 0.62529 0.0
C1454 C 0.47666 0.12183 0.6321 0.0
C1455 C 0.45422 0.10751 0.63877 0.0
C1456 C 0.45313 0.07876 0.639 0.0
C1457 C 0.42691 0.06851 0.64732 0.0
C1458 C 0.40879 0.05132 0.63563 0.0
C1459 C 0.43404 0.05182 0.66264 0.0
C1460 C 0.41324 0.09605 0.65148 0.0
C1461 C 0.42929 0.11828 0.64633 0.0
C1462 C 0.42023 0.14574 0.64783 0.0
C1463 C 0.39397 0.15061 0.65468 0.0
C1464 C 0.37737 0.12816 0.66019 0.0
C1465 C 0.38729 0.10058 0.65874 0.0
H1466 H 0.62283 0.63261 0.38973 0.0
H1467 H 0.66331 0.63651 0.43668 0.0
H1468 H 0.68022 0.68373 0.43051 0.0
H1469 H 0.67715 0.66546 0.36824 0.0
H1470 H 0.65483 0.68442 0.35459 0.0
H1471 H 0.64309 0.65206 0.36325 0.0
H1472 H 0.59923 0.67681 0.37452 0.0
H1473 H 0.61089 0.70932 0.36592 0.0
H1474 H 0.60325 0.7071 0.38723 0.0
H1475 H 0.69591 0.72839 0.41886 0.0
H1476 H 0.71064 0.76802 0.40189 0.0
H1477 H 0.66123 0.73597 0.36208 0.0
C1478 C 0.63483 0.64364 0.3988 0.0
C1479 C 0.64165 0.63089 0.41372 0.0
C1480 C 0.65786 0.64579 0.42516 0.0
C1481 C 0.66745 0.67271 0.42181 0.0
C1482 C 0.66075 0.68454 0.40694 0.0
C1483 C 0.64489 0.67057 0.39557 0.0
C1484 C 0.6426 0.68739 0.38007 0.0
C1485 C 0.65518 0.67138 0.36569 0.0
C1486 C 0.61218 0.69564 0.37674 0.0
C1487 C 0.66011 0.71267 0.38444 0.0
C1488 C 0.67005 0.71063 0.40009 0.0
C1489 C 0.68795 0.73047 0.40667 0.0
C1490 C 0.69623 0.75285 0.39695 0.0
C1491 C 0.68659 0.75532 0.38084 0.0
C1492 C 0.66811 0.73507 0.37454 0.0
H1493 H 0.0311 0.91556 0.10936 0.0
H1494 H 0.00244 0.97211 0.14675 0.0
H1495 H 0.04092 0.95681 0.1645 0.0
H1496 H 0.05273 0.85898 0.13679 0.0
H1497 H 0.08271 0.85007 0.12472 0.0
H1498 H 0.05208 0.86442 0.11522 0.0
H1499 H 0.08205 0.90384 0.10269 0.0
H1500 H 0.11271 0.88965 0.11215 0.0
H1501 H 0.10309 0.92544 0.11572 0.0
H1502 H 0.08346 0.93749 0.17756 0.0
H1503 H 0.12815 0.91577 0.18511 0.0
H1504 H 0.1287 0.87009 0.13977 0.0
C1505 C 0.03248 0.92408 0.12146 0.0
C1506 C 0.01342 0.94449 0.12688 0.0
C1507 C 0.01671 0.95624 0.14246 0.0
C1508 C 0.03839 0.9476 0.15264 0.0
C1509 C 0.05665 0.92721 0.14704 0.0
C1510 C 0.05396 0.91555 0.13183 0.0
C1511 C 0.07721 0.89488 0.12855 0.0
C1512 C 0.06547 0.86533 0.12618 0.0
C1513 C 0.0948 0.90401 0.11391 0.0
C1514 C 0.0936 0.89712 0.14418 0.0
C1515 C 0.08126 0.91583 0.15468 0.0
C1516 C 0.09318 0.92258 0.16953 0.0
C1517 C 0.1186 0.91016 0.17369 0.0
C1518 C 0.13184 0.89111 0.16308 0.0
C1519 C 0.11888 0.88422 0.14824 0.0
H1520 H 0.66124 0.76001 0.86675 0.0
H1521 H 0.71186 0.72714 0.90581 0.0
H1522 H 0.69922 0.76748 0.92281 0.0
H1523 H 0.67927 0.82994 0.87224 0.0
H1524 H 0.64532 0.84402 0.86772 0.0
H1525 H 0.65583 0.81123 0.85909 0.0
H1526 H 0.61213 0.78736 0.87122 0.0
H1527 H 0.60135 0.82017 0.8798 0.0
H1528 H 0.60545 0.79006 0.89262 0.0
H1529 H 0.68455 0.81257 0.9347 0.0
H1530 H 0.66798 0.85984 0.94112 0.0
H1531 H 0.62603 0.86386 0.8946 0.0
C1532 C 0.66885 0.76088 0.87907 0.0
C1533 C 0.68701 0.7402 0.88514 0.0
C1534 C 0.69768 0.74267 0.90104 0.0
C1535 C 0.69057 0.76543 0.91078 0.0
C1536 C 0.67283 0.78561 0.90443 0.0
C1537 C 0.66196 0.78356 0.88898 0.0
C1538 C 0.64478 0.8091 0.88479 0.0
C1539 C 0.65705 0.82447 0.87009 0.0
C1540 C 0.6141 0.8012 0.88194 0.0
C1541 C 0.64819 0.82599 0.90017 0.0
C1542 C 0.66434 0.81192 0.91134 0.0
C1543 C 0.67161 0.82369 0.92614 0.0
C1544 C 0.66219 0.85063 0.92964 0.0
C1545 C 0.64562 0.86556 0.91839 0.0
C1546 C 0.63837 0.85288 0.90352 0.0
H1547 H 0.37364 0.42467 0.15599 0.0
H1548 H 0.39217 0.3362 0.15655 0.0
H1549 H 0.43743 0.3454 0.1433 0.0
H1550 H 0.40163 0.43683 0.11649 0.0
H1551 H 0.41512 0.47095 0.1212 0.0
H1552 H 0.38513 0.4578 0.13185 0.0
H1553 H 0.41028 0.46565 0.15922 0.0
H1554 H 0.44032 0.47895 0.14865 0.0
H1555 H 0.44407 0.45022 0.16253 0.0
H1556 H 0.48111 0.36439 0.13089 0.0
H1557 H 0.5186 0.39094 0.11807 0.0
H1558 H 0.46958 0.46668 0.12243 0.0
C1559 C 0.38745 0.40734 0.15351 0.0
C1560 C 0.37968 0.37977 0.15745 0.0
C1561 C 0.39788 0.35748 0.15367 0.0
C1562 C 0.42361 0.36251 0.14619 0.0
C1563 C 0.43058 0.38989 0.14232 0.0
C1564 C 0.41295 0.41193 0.14568 0.0
C1565 C 0.42477 0.43913 0.13935 0.0
C1566 C 0.40552 0.45192 0.12646 0.0
C1567 C 0.43018 0.4597 0.15327 0.0
C1568 C 0.45183 0.42892 0.13197 0.0
C1569 C 0.45488 0.40054 0.134 0.0
C1570 C 0.47863 0.38652 0.12882 0.0
C1571 C 0.49974 0.40186 0.1212 0.0
C1572 C 0.49671 0.43085 0.11834 0.0
C1573 C 0.47243 0.44447 0.12405 0.0
H1574 H 0.83663 0.13146 0.4224 0.0
H1575 H 0.89352 0.10547 0.38441 0.0
H1576 H 0.87889 0.14532 0.36777 0.0
H1577 H 0.78153 0.15532 0.39658 0.0
H1578 H 0.7728 0.18508 0.40888 0.0
H1579 H 0.78764 0.15447 0.41809 0.0
H1580 H 0.82742 0.18432 0.43031 0.0
H1581 H 0.81261 0.21507 0.42123 0.0
H1582 H 0.84835 0.20582 0.41717 0.0
H1583 H 0.85626 0.18564 0.35445 0.0
H1584 H 0.83063 0.22793 0.34637 0.0
H1585 H 0.79066 0.23063 0.3934 0.0
C1586 C 0.84605 0.13426 0.41061 0.0
C1587 C 0.86627 0.11535 0.40473 0.0
C1588 C 0.87822 0.11979 0.38926 0.0
C1589 C 0.86991 0.14227 0.37965 0.0
C1590 C 0.84982 0.16035 0.38571 0.0
C1591 C 0.83828 0.15692 0.4009 0.0
C1592 C 0.81754 0.17994 0.40456 0.0
C1593 C 0.78813 0.16798 0.40718 0.0
C1594 C 0.82706 0.19732 0.41918 0.0
C1595 C 0.81917 0.19664 0.389 0.0
C1596 C 0.83774 0.18472 0.37827 0.0
C1597 C 0.84219 0.1956 0.36289 0.0
C1598 C 0.82778 0.21978 0.35847 0.0
C1599 C 0.80975 0.23321 0.36954 0.0
C1600 C 0.80486 0.22108 0.38485 0.0
H1601 H 0.02268 0.54524 0.63707 0.0
H1602 H 0.01883 0.59512 0.59333 0.0
H1603 H 0.05873 0.62271 0.60265 0.0
H1604 H 0.04492 0.59966 0.66463 0.0
H1605 H 0.0689 0.57766 0.67552 0.0
H1606 H 0.03847 0.56273 0.66611 0.0
H1607 H 0.0697 0.52837 0.65012 0.0
H1608 H 0.10019 0.54306 0.65957 0.0
H1609 H 0.09768 0.54181 0.63782 0.0
H1610 H 0.09866 0.64505 0.61638 0.0
H1611 H 0.13995 0.65781 0.63224 0.0
H1612 H 0.12141 0.59163 0.66653 0.0
C1613 C 0.03015 0.56209 0.62951 0.0
C1614 C 0.01659 0.56887 0.61481 0.0
C1615 C 0.02753 0.59055 0.60507 0.0
C1616 C 0.05055 0.60616 0.61017 0.0
C1617 C 0.06288 0.5995 0.6249 0.0
C1618 C 0.05345 0.57772 0.63434 0.0
C1619 C 0.07175 0.57397 0.64918 0.0
C1620 C 0.05501 0.5788 0.66478 0.0
C1621 C 0.08566 0.54509 0.64916 0.0
C1622 C 0.09297 0.59701 0.64652 0.0
C1623 C 0.08712 0.61161 0.63252 0.0
C1624 C 0.10356 0.63373 0.62734 0.0
C1625 C 0.12702 0.64082 0.63649 0.0
C1626 C 0.13414 0.62567 0.65065 0.0
C1627 C 0.11656 0.60368 0.65582 0.0
H1628 H 0.71393 0.22296 0.6261 0.0
H1629 H 0.63782 0.2717 0.62341 0.0
H1630 H 0.61374 0.23209 0.61077 0.0
H1631 H 0.70467 0.18949 0.5868 0.0
H1632 H 0.7194 0.15687 0.5934 0.0
H1633 H 0.73078 0.18907 0.60249 0.0
H1634 H 0.71809 0.16996 0.63086 0.0
H1635 H 0.70671 0.13771 0.62188 0.0
H1636 H 0.68327 0.15731 0.63457 0.0
H1637 H 0.59707 0.1864 0.60004 0.0
H1638 H 0.58971 0.13835 0.59018 0.0
H1639 H 0.67739 0.12031 0.59734 0.0
C1640 C 0.6922 0.22536 0.62282 0.0
C1641 C 0.6775 0.25015 0.62643 0.0
C1642 C 0.64923 0.25255 0.62166 0.0
C1643 C 0.63544 0.23025 0.61419 0.0
C1644 C 0.65038 0.20594 0.61117 0.0
C1645 C 0.67823 0.20345 0.61511 0.0
C1646 C 0.6895 0.17508 0.61038 0.0
C1647 C 0.71245 0.1778 0.5975 0.0
C1648 C 0.7 0.15907 0.62531 0.0
C1649 C 0.66346 0.16182 0.60343 0.0
C1650 C 0.64112 0.18001 0.60406 0.0
C1651 C 0.61445 0.17209 0.59928 0.0
C1652 C 0.61044 0.14478 0.59379 0.0
C1653 C 0.63302 0.12587 0.59295 0.0
C1654 C 0.65993 0.13461 0.59762 0.0
H1655 H 0.12205 0.37624 0.86254 0.0
H1656 H 0.11993 0.41835 0.81609 0.0
H1657 H 0.07471 0.43952 0.82325 0.0
H1658 H 0.04642 0.36379 0.86643 0.0
H1659 H 0.04644 0.37097 0.88783 0.0
H1660 H 0.07702 0.35648 0.87836 0.0
H1661 H 0.10668 0.39741 0.88944 0.0
H1662 H 0.07624 0.41203 0.8989 0.0
H1663 H 0.09644 0.43274 0.88498 0.0
H1664 H 0.03184 0.45877 0.83604 0.0
H1665 H 0.99389 0.4752 0.85384 0.0
H1666 H 0.02515 0.42285 0.89256 0.0
C1667 C 0.11173 0.38941 0.85374 0.0
C1668 C 0.12432 0.39549 0.8387 0.0
C1669 C 0.11058 0.41338 0.82766 0.0
C1670 C 0.08487 0.42543 0.83159 0.0
C1671 C 0.07328 0.41949 0.84665 0.0
C1672 C 0.08623 0.40195 0.85757 0.0
C1673 C 0.07039 0.40083 0.87342 0.0
C1674 C 0.05942 0.37125 0.8767 0.0
C1675 C 0.08852 0.41139 0.88751 0.0
C1676 C 0.04676 0.42079 0.86976 0.0
C1677 C 0.04868 0.43105 0.85418 0.0
C1678 C 0.0299 0.45063 0.8482 0.0
C1679 C 0.00853 0.45991 0.8584 0.0
C1680 C 0.00613 0.44965 0.87438 0.0
C1681 C 0.02566 0.43002 0.88015 0.0
H1682 H 0.79635 0.77186 0.12724 0.0
H1683 H 0.87451 0.72823 0.13509 0.0
H1684 H 0.90013 0.76838 0.12433 0.0
H1685 H 0.81684 0.80087 0.08877 0.0
H1686 H 0.79824 0.83307 0.09187 0.0
H1687 H 0.78595 0.80142 0.10118 0.0
H1688 H 0.78764 0.82521 0.12931 0.0
H1689 H 0.79993 0.85692 0.1201 0.0
H1690 H 0.81971 0.84092 0.13614 0.0
H1691 H 0.91757 0.81432 0.11352 0.0
H1692 H 0.92504 0.86064 0.10113 0.0
H1693 H 0.83557 0.87221 0.09756 0.0
C1694 C 0.81888 0.77067 0.12678 0.0
C1695 C 0.8333 0.74713 0.13282 0.0
C1696 C 0.86278 0.74639 0.13156 0.0
C1697 C 0.87763 0.76906 0.12517 0.0
C1698 C 0.86272 0.79206 0.11965 0.0
C1699 C 0.83397 0.79284 0.12013 0.0
C1700 C 0.82286 0.81953 0.11275 0.0
C1701 C 0.80492 0.81334 0.09775 0.0
C1702 C 0.80658 0.83665 0.12533 0.0
C1703 C 0.84991 0.83374 0.10816 0.0
C1704 C 0.87268 0.81769 0.11241 0.0
C1705 C 0.8999 0.82696 0.11 0.0
C1706 C 0.90394 0.85331 0.10303 0.0
C1707 C 0.88089 0.86985 0.09833 0.0
C1708 C 0.85356 0.85981 0.10086 0.0
H1709 H 0.38469 0.59454 0.33459 0.0
H1710 H 0.35554 0.64655 0.37416 0.0
H1711 H 0.39755 0.63517 0.38975 0.0
H1712 H 0.41569 0.54077 0.35934 0.0
H1713 H 0.44529 0.53557 0.34626 0.0
H1714 H 0.41267 0.54747 0.33796 0.0
H1715 H 0.43755 0.59042 0.32562 0.0
H1716 H 0.47025 0.57865 0.33388 0.0
H1717 H 0.4576 0.61309 0.33856 0.0
H1718 H 0.44116 0.61709 0.40169 0.0
H1719 H 0.48582 0.59529 0.40872 0.0
H1720 H 0.48946 0.55703 0.36117 0.0
C1721 C 0.38719 0.60347 0.34653 0.0
C1722 C 0.36679 0.62153 0.35309 0.0
C1723 C 0.37091 0.63289 0.36876 0.0
C1724 C 0.39468 0.62647 0.37778 0.0
C1725 C 0.41437 0.60874 0.371 0.0
C1726 C 0.41109 0.59749 0.35572 0.0
C1727 C 0.4359 0.57938 0.35132 0.0
C1728 C 0.42684 0.549 0.34856 0.0
C1729 C 0.45123 0.59109 0.33646 0.0
C1730 C 0.45342 0.58223 0.36653 0.0
C1731 C 0.44043 0.59914 0.37773 0.0
C1732 C 0.45191 0.6043 0.3929 0.0
C1733 C 0.4776 0.59213 0.3967 0.0
C1734 C 0.49189 0.57544 0.38526 0.0
C1735 C 0.47932 0.57013 0.37007 0.0
H1736 H 0.34124 0.22573 0.14388 0.0
H1737 H 0.27659 0.25203 0.11056 0.0
H1738 H 0.28929 0.2138 0.09198 0.0
H1739 H 0.3923 0.20324 0.11303 0.0
H1740 H 0.4036 0.17362 0.12472 0.0
H1741 H 0.39114 0.20451 0.13481 0.0
H1742 H 0.35456 0.17486 0.15017 0.0
H1743 H 0.36682 0.14395 0.14009 0.0
H1744 H 0.33054 0.15349 0.13886 0.0
H1745 H 0.3069 0.1719 0.07781 0.0
H1746 H 0.32774 0.12771 0.06889 0.0
H1747 H 0.38108 0.12739 0.11139 0.0
C1748 C 0.33032 0.22377 0.13247 0.0
C1749 C 0.30831 0.24205 0.12843 0.0
C1750 C 0.29368 0.23832 0.11374 0.0
C1751 C 0.30079 0.21676 0.10311 0.0
C1752 C 0.32249 0.19899 0.10743 0.0
C1753 C 0.33707 0.20216 0.12174 0.0
C1754 C 0.35831 0.179 0.12385 0.0
C1755 C 0.3881 0.19081 0.12412 0.0
C1756 C 0.35218 0.16181 0.13915 0.0
C1757 C 0.35303 0.16216 0.10862 0.0
C1758 C 0.33243 0.17427 0.09929 0.0
C1759 C 0.32318 0.16227 0.08494 0.0
C1760 C 0.33512 0.13706 0.08001 0.0
C1761 C 0.35606 0.12395 0.08943 0.0
C1762 C 0.36528 0.13692 0.10385 0.0
H1763 H 0.61568 0.62689 0.86126 0.0
H1764 H 0.61396 0.58912 0.81351 0.0
H1765 H 0.56699 0.57069 0.81896 0.0
H1766 H 0.58331 0.57074 0.88147 0.0
H1767 H 0.56364 0.59212 0.89529 0.0
H1768 H 0.5961 0.6047 0.88717 0.0
H1769 H 0.57111 0.6488 0.87637 0.0
H1770 H 0.53852 0.63631 0.88445 0.0
H1771 H 0.54125 0.64502 0.8633 0.0
H1772 H 0.52189 0.55372 0.82998 0.0
H1773 H 0.48132 0.5388 0.84615 0.0
H1774 H 0.51245 0.58626 0.88704 0.0
C1775 C 0.60523 0.61514 0.85186 0.0
C1776 C 0.61848 0.60957 0.83692 0.0
C1777 C 0.60428 0.59367 0.82505 0.0
C1778 C 0.57752 0.58318 0.82799 0.0
C1779 C 0.56521 0.5887 0.84289 0.0
C1780 C 0.57853 0.60426 0.85465 0.0
C1781 C 0.56126 0.60559 0.87 0.0
C1782 C 0.57702 0.5925 0.88433 0.0
C1783 C 0.55252 0.63573 0.87375 0.0
C1784 C 0.5364 0.588 0.86508 0.0
C1785 C 0.53904 0.5787 0.84933 0.0
C1786 C 0.5194 0.56113 0.84226 0.0
C1787 C 0.4965 0.5527 0.85155 0.0
C1788 C 0.49335 0.56185 0.86773 0.0
C1789 C 0.51361 0.57977 0.87454 0.0
H1790 H 0.16532 0.75978 0.62598 0.0
H1791 H 0.24974 0.76441 0.60686 0.0
H1792 H 0.23756 0.80759 0.59275 0.0
H1793 H 0.12973 0.788 0.59161 0.0
H1794 H 0.10532 0.80789 0.6035 0.0
H1795 H 0.11979 0.77607 0.61147 0.0
H1796 H 0.13754 0.80259 0.63676 0.0
H1797 H 0.12291 0.83441 0.62894 0.0
H1798 H 0.15935 0.83288 0.63418 0.0
H1799 H 0.21702 0.85037 0.58088 0.0
H1800 H 0.19032 0.8923 0.57368 0.0
H1801 H 0.12024 0.86211 0.60203 0.0
C1802 C 0.18164 0.76975 0.6192 0.0
C1803 C 0.20879 0.7583 0.61791 0.0
C1804 C 0.22875 0.77236 0.60818 0.0
C1805 C 0.22208 0.79704 0.60004 0.0
C1806 C 0.19534 0.80773 0.60176 0.0
C1807 C 0.17549 0.79476 0.6112 0.0
C1808 C 0.14865 0.81148 0.61156 0.0
C1809 C 0.12444 0.79486 0.60409 0.0
C1810 C 0.14172 0.8209 0.62889 0.0
C1811 C 0.15673 0.83598 0.60096 0.0
C1812 C 0.18363 0.83309 0.59526 0.0
C1813 C 0.19593 0.85293 0.58527 0.0
C1814 C 0.18051 0.87668 0.58123 0.0
C1815 C 0.15316 0.88063 0.58732 0.0
C1816 C 0.14107 0.85976 0.59718 0.0
H1817 H 0.88467 0.40336 0.33091 0.0
H1818 H 0.85806 0.35077 0.37082 0.0
H1819 H 0.90133 0.36166 0.38541 0.0
H1820 H 0.95836 0.38553 0.33319 0.0
H1821 H 0.97003 0.4203 0.32846 0.0
H1822 H 0.93712 0.40794 0.32076 0.0
H1823 H 0.91212 0.45018 0.33379 0.0
H1824 H 0.94492 0.46265 0.34155 0.0
H1825 H 0.91618 0.45661 0.35515 0.0
H1826 H 0.94566 0.38008 0.39653 0.0
H1827 H 0.99001 0.40338 0.40297 0.0
H1828 H 0.98993 0.4427 0.35571 0.0
C1829 C 0.88803 0.39404 0.34268 0.0
C1830 C 0.86795 0.37602 0.34964 0.0
C1831 C 0.87316 0.36432 0.3651 0.0
C1832 C 0.89767 0.37048 0.37355 0.0
C1833 C 0.91693 0.3883 0.36641 0.0
C1834 C 0.91256 0.39984 0.35131 0.0
C1835 C 0.93671 0.41857 0.34653 0.0
C1836 C 0.95143 0.40741 0.33133 0.0
C1837 C 0.92689 0.44879 0.34412 0.0
C1838 C 0.95513 0.41586 0.36138 0.0
C1839 C 0.94321 0.39832 0.37268 0.0
C1840 C 0.95558 0.39332 0.38763 0.0
C1841 C 0.98099 0.40637 0.3911 0.0
C1842 C 0.9941 0.4238 0.37955 0.0
C1843 C 0.98072 0.4289 0.3646 0.0
H1844 H 0.29509 0.77663 0.39198 0.0
H1845 H 0.34311 0.77147 0.34762 0.0
H1846 H 0.37004 0.8129 0.35574 0.0
H1847 H 0.28974 0.85168 0.39144 0.0
H1848 H 0.29182 0.8553 0.41311 0.0
H1849 H 0.27745 0.82404 0.40438 0.0
H1850 H 0.31317 0.79439 0.42039 0.0
H1851 H 0.32777 0.8256 0.42909 0.0
H1852 H 0.34988 0.8016 0.41829 0.0
H1853 H 0.39229 0.85372 0.36865 0.0
H1854 H 0.40516 0.89568 0.38389 0.0
H1855 H 0.3404 0.87761 0.41917 0.0
C1856 C 0.31142 0.78419 0.38406 0.0
C1857 C 0.31807 0.77004 0.36957 0.0
C1858 C 0.33885 0.78101 0.35923 0.0
C1859 C 0.35403 0.80472 0.36365 0.0
C1860 C 0.34765 0.81763 0.37826 0.0
C1861 C 0.32654 0.80816 0.38819 0.0
C1862 C 0.32295 0.82706 0.40277 0.0
C1863 C 0.29376 0.8403 0.40292 0.0
C1864 C 0.3288 0.81121 0.41857 0.0
C1865 C 0.34536 0.84861 0.39942 0.0
C1866 C 0.35953 0.84244 0.38532 0.0
C1867 C 0.38128 0.85891 0.37967 0.0
C1868 C 0.38847 0.8827 0.38849 0.0
C1869 C 0.37372 0.8901 0.40273 0.0
C1870 C 0.35204 0.87258 0.40833 0.0
H1871 H 0.87721 0.6208 0.14332 0.0
H1872 H 0.87416 0.5712 0.18726 0.0
H1873 H 0.91733 0.54732 0.17922 0.0
H1874 H 0.90012 0.56628 0.1177 0.0
H1875 H 0.92272 0.58783 0.10557 0.0
H1876 H 0.89268 0.60287 0.11526 0.0
H1877 H 0.92426 0.63932 0.1294 0.0
H1878 H 0.95444 0.6244 0.11972 0.0
H1879 H 0.95336 0.62768 0.14143 0.0
H1880 H 0.95882 0.52695 0.16607 0.0
H1881 H 0.99727 0.5115 0.14852 0.0
H1882 H 0.97319 0.57295 0.11259 0.0
C1883 C 0.88587 0.60521 0.15135 0.0
C1884 C 0.87232 0.5979 0.16593 0.0
C1885 C 0.8841 0.57711 0.17601 0.0
C1886 C 0.90867 0.56346 0.17159 0.0
C1887 C 0.92124 0.57078 0.15704 0.0
C1888 C 0.91036 0.59116 0.14705 0.0
C1889 C 0.92742 0.59395 0.1317 0.0
C1890 C 0.90967 0.58733 0.11667 0.0
C1891 C 0.94065 0.62307 0.1305 0.0
C1892 C 0.94932 0.57173 0.13458 0.0
C1893 C 0.94538 0.5588 0.14933 0.0
C1894 C 0.96231 0.53706 0.15455 0.0
C1895 C 0.98398 0.52834 0.14445 0.0
C1896 C 0.9886 0.54134 0.1293 0.0
C1897 C 0.97089 0.56323 0.1243 0.0
H1898 H 0.15658 0.13103 0.91558 0.0
H1899 H 0.09148 0.11107 0.88087 0.0
H1900 H 0.10027 0.15517 0.86672 0.0
H1901 H 0.14294 0.206 0.9171 0.0
H1902 H 0.17931 0.21513 0.9185 0.0
H1903 H 0.16721 0.18238 0.92654 0.0
H1904 H 0.2032 0.15611 0.90885 0.0
H1905 H 0.21537 0.18874 0.90074 0.0
H1906 H 0.20346 0.16167 0.88728 0.0
H1907 H 0.11779 0.19957 0.85511 0.0
H1908 H 0.1422 0.24272 0.84734 0.0
H1909 H 0.19499 0.23565 0.88976 0.0
C1910 C 0.14402 0.13604 0.90509 0.0
C1911 C 0.12323 0.1175 0.89944 0.0
C1912 C 0.10739 0.12487 0.88558 0.0
C1913 C 0.11224 0.14992 0.87739 0.0
C1914 C 0.13295 0.16757 0.88318 0.0
C1915 C 0.14855 0.16111 0.89673 0.0
C1916 C 0.17 0.18364 0.90011 0.0
C1917 C 0.16453 0.19761 0.91654 0.0
C1918 C 0.19976 0.17183 0.89918 0.0
C1919 C 0.16417 0.20348 0.88622 0.0
C1920 C 0.14267 0.19378 0.87664 0.0
C1921 C 0.13422 0.20777 0.86272 0.0
C1922 C 0.14798 0.23248 0.85851 0.0
C1923 C 0.16969 0.24321 0.8683 0.0
C1924 C 0.17803 0.22827 0.88224 0.0
H1925 H 0.51929 0.40636 0.60905 0.0
H1926 H 0.49335 0.46849 0.64411 0.0
H1927 H 0.53341 0.45652 0.66134 0.0
H1928 H 0.54634 0.35498 0.63891 0.0
H1929 H 0.57527 0.34518 0.62622 0.0
H1930 H 0.54301 0.35658 0.6172 0.0
H1931 H 0.56976 0.39461 0.60128 0.0
H1932 H 0.60203 0.38349 0.61033 0.0
H1933 H 0.59108 0.41929 0.61213 0.0
H1934 H 0.57745 0.44131 0.67364 0.0
H1935 H 0.62326 0.42248 0.68103 0.0
H1936 H 0.62176 0.36909 0.63855 0.0
C1937 C 0.52162 0.4168 0.62057 0.0
C1938 C 0.503 0.43812 0.62536 0.0
C1939 C 0.50732 0.45206 0.64024 0.0
C1940 C 0.52996 0.44536 0.65014 0.0
C1941 C 0.54819 0.42464 0.645 0.0
C1942 C 0.54431 0.41039 0.63065 0.0
C1943 C 0.56814 0.39017 0.62766 0.0
C1944 C 0.55755 0.35993 0.62749 0.0
C1945 C 0.58367 0.39733 0.61192 0.0
C1946 C 0.58616 0.3958 0.64242 0.0
C1947 C 0.57405 0.41569 0.65224 0.0
C1948 C 0.58704 0.42548 0.66617 0.0
C1949 C 0.61318 0.41469 0.67022 0.0
C1950 C 0.62618 0.39422 0.66041 0.0
C1951 C 0.6123 0.38453 0.64637 0.0
H1952 H 0.18003 0.03702 0.28365 0.0
H1953 H 0.19394 0.10256 0.2485 0.0
H1954 H 0.20221 0.06697 0.22727 0.0
H1955 H 0.22968 0.98748 0.26875 0.0
H1956 H 0.20764 0.95762 0.27214 0.0
H1957 H 0.20402 0.98813 0.28467 0.0
H1958 H 0.15161 0.99126 0.27729 0.0
H1959 H 0.155 0.96062 0.26486 0.0
H1960 H 0.14142 0.9924 0.25631 0.0
H1961 H 0.21177 0.0241 0.21047 0.0
H1962 H 0.21439 0.97731 0.198 0.0
H1963 H 0.18891 0.93982 0.24337 0.0
C1964 C 0.18481 0.04377 0.27145 0.0
C1965 C 0.18661 0.07237 0.26761 0.0
C1966 C 0.19246 0.08066 0.25156 0.0
C1967 C 0.19734 0.06063 0.23951 0.0
C1968 C 0.19563 0.0325 0.2437 0.0
C1969 C 0.18888 0.02407 0.25919 0.0
C1970 C 0.18664 0.99262 0.26029 0.0
C1971 C 0.20829 0.98078 0.27217 0.0
C1972 C 0.1569 0.98371 0.26496 0.0
C1973 C 0.19341 0.98461 0.24302 0.0
C1974 C 0.19911 0.0079 0.23373 0.0
C1975 C 0.20705 0.00574 0.21757 0.0
C1976 C 0.20865 0.97912 0.21063 0.0
C1977 C 0.20173 0.95511 0.21974 0.0
C1978 C 0.19411 0.95792 0.23614 0.0
H1979 H 0.19912 0.91242 0.5185 0.0
H1980 H 0.19706 1.00074 0.52994 0.0
H1981 H 0.23399 0.00928 0.50974 0.0
H1982 H 0.27275 0.90734 0.51347 0.0
H1983 H 0.27088 0.8829 0.49694 0.0
H1984 H 0.24358 0.88379 0.51188 0.0
H1985 H 0.20685 0.89142 0.48932 0.0
H1986 H 0.23403 0.89042 0.4743 0.0
H1987 H 0.21102 0.92005 0.47541 0.0
H1988 H 0.2721 0.00802 0.48896 0.0
H1989 H 0.30792 0.99736 0.4685 0.0
H1990 H 0.28513 0.90979 0.47048 0.0
C1991 C 0.20624 0.93361 0.51668 0.0
C1992 C 0.19514 0.95593 0.52581 0.0
C1993 C 0.20521 0.98331 0.5231 0.0
C1994 C 0.2262 0.98837 0.51166 0.0
C1995 C 0.23689 0.96585 0.503 0.0
C1996 C 0.22719 0.93903 0.50532 0.0
C1997 C 0.24253 0.91846 0.49462 0.0
C1998 C 0.25837 0.89685 0.50484 0.0
C1999 C 0.2224 0.90426 0.4827 0.0
C2000 C 0.26242 0.9379 0.48595 0.0
C2001 C 0.25882 0.96513 0.49098 0.0
C2002 C 0.27502 0.98679 0.48487 0.0
C2003 C 0.29536 0.98049 0.47326 0.0
C2004 C 0.29933 0.95274 0.46782 0.0
C2005 C 0.28259 0.93122 0.47432 0.0
H2006 H 0.35611 0.07167 0.74322 0.0
H2007 H 0.27821 0.05219 0.71885 0.0
H2008 H 0.2713 0.0122 0.73696 0.0
H2009 H 0.37828 0.00142 0.74967 0.0
H2010 H 0.39251 0.00769 0.76952 0.0
H2011 H 0.39145 0.03546 0.75488 0.0
H2012 H 0.36387 0.06626 0.77503 0.0
H2013 H 0.36496 0.03862 0.78977 0.0
H2014 H 0.33196 0.0532 0.7837 0.0
H2015 H 0.27328 0.97348 0.75663 0.0
H2016 H 0.28277 0.93923 0.77803 0.0
H2017 H 0.35879 0.98357 0.79061 0.0
C2018 C 0.33755 0.05906 0.74176 0.0
C2019 C 0.31776 0.0651 0.72956 0.0
C2020 C 0.2937 0.0481 0.72808 0.0
C2021 C 0.28956 0.02525 0.7383 0.0
C2022 C 0.30953 0.01971 0.75006 0.0
C2023 C 0.33293 0.03618 0.75199 0.0
C2024 C 0.35099 0.02548 0.76573 0.0
C2025 C 0.38003 0.01701 0.75957 0.0
C2026 C 0.35306 0.04718 0.77937 0.0
C2027 C 0.33422 1.00024 0.77101 0.0
C2028 C 0.31042 0.99739 0.76175 0.0
C2029 C 0.29175 0.97555 0.76405 0.0
C2030 C 0.2974 0.95615 0.77624 0.0
C2031 C 0.32151 0.95869 0.78607 0.0
C2032 C 0.34016 0.98108 0.78335 0.0
H2033 H 0.27105 0.094 0.03127 0.0
H2034 H 0.3163 0.0189 0.01824 0.0
H2035 H 0.28393 0.01126 0.99544 0.0
H2036 H 0.20264 0.06854 0.02206 0.0
H2037 H 0.19043 0.1012 0.01396 0.0
H2038 H 0.21721 0.10091 0.02924 0.0
H2039 H 0.24964 0.1295 0.01045 0.0
H2040 H 0.22293 0.12996 0.99513 0.0
H2041 H 0.25715 0.11674 0.9904 0.0
H2042 H 0.24581 0.01091 0.97466 0.0
H2043 H 0.20612 0.01917 0.95632 0.0
H2044 H 0.18644 0.09537 0.98226 0.0
C2045 C 0.27421 0.07596 0.02361 0.0
C2046 C 0.29618 0.05698 0.02659 0.0
C2047 C 0.29964 0.03372 0.01622 0.0
C2048 C 0.28133 0.02918 0.00325 0.0
C2049 C 0.25979 0.04817 1.00073 0.0
C2050 C 0.25626 0.07122 0.01054 0.0
C2051 C 0.23156 0.08857 0.00511 0.0
C2052 C 0.20913 0.08987 0.01838 0.0
C2053 C 0.24089 0.11793 0.99997 0.0
C2054 C 0.2217 0.07164 0.99073 0.0
C2055 C 0.23818 0.04833 0.9885 0.0
C2056 C 0.23286 0.02917 0.97623 0.0
C2057 C 0.21019 0.03402 0.9659 0.0
C2058 C 0.19321 0.05798 0.9678 0.0
C2059 C 0.19913 0.07698 0.98041 0.0
H2060 H 0.81738 0.93616 0.74498 0.0
H2061 H 0.80981 0.97796 0.6987 0.0
H2062 H 0.80582 0.02336 0.71268 0.0
H2063 H 0.76592 0.97893 0.76517 0.0
H2064 H 0.7839 0.9789 0.78432 0.0
H2065 H 0.78769 0.94982 0.7707 0.0
H2066 H 0.84134 0.95597 0.77119 0.0
H2067 H 0.83773 0.98502 0.78483 0.0
H2068 H 0.85627 0.9893 0.76603 0.0
H2069 H 0.80523 0.06425 0.73155 0.0
H2070 H 0.80307 0.09778 0.75426 0.0
H2071 H 0.80561 0.02933 0.78845 0.0
C2072 C 0.81511 0.95496 0.73785 0.0
C2073 C 0.81426 0.95378 0.72079 0.0
C2074 C 0.81061 0.97858 0.71179 0.0
C2075 C 0.80838 0.00441 0.71961 0.0
C2076 C 0.80919 0.00495 0.73645 0.0
C2077 C 0.81202 0.98088 0.7455 0.0
C2078 C 0.8108 0.9872 0.76347 0.0
C2079 C 0.78557 0.97286 0.77138 0.0
C2080 C 0.83817 0.97888 0.77187 0.0
C2081 C 0.80721 0.0186 0.76309 0.0
C2082 C 0.80675 0.02842 0.74737 0.0
C2083 C 0.80517 0.0568 0.7439 0.0
C2084 C 0.80401 0.07566 0.75684 0.0
C2085 C 0.80378 0.06602 0.773 0.0
C2086 C 0.80521 0.03712 0.77616 0.0
H2087 H 0.79429 0.03518 0.47882 0.0
H2088 H 0.80022 0.12401 0.4693 0.0
H2089 H 0.76208 0.1327 0.48857 0.0
H2090 H 0.71927 0.03219 0.48317 0.0
H2091 H 0.72002 0.00727 0.49948 0.0
H2092 H 0.74758 0.00762 0.48468 0.0
H2093 H 0.78414 0.01332 0.5075 0.0
H2094 H 0.7567 0.01295 0.52238 0.0
H2095 H 0.78081 0.04175 0.52163 0.0
H2096 H 0.72327 0.13216 0.50832 0.0
H2097 H 0.68709 0.12276 0.52865 0.0
H2098 H 0.70635 0.03436 0.52655 0.0
C2099 C 0.78746 0.05642 0.48076 0.0
C2100 C 0.80021 0.07892 0.4725 0.0
C2101 C 0.79086 0.10644 0.47549 0.0
C2102 C 0.76913 0.11161 0.48639 0.0
C2103 C 0.75703 0.08907 0.49432 0.0
C2104 C 0.76588 0.06203 0.49177 0.0
C2105 C 0.74957 0.04175 0.50225 0.0
C2106 C 0.73313 0.02098 0.49177 0.0
C2107 C 0.76896 0.02655 0.51415 0.0
C2108 C 0.73018 0.06168 0.51103 0.0
C2109 C 0.73482 0.08882 0.50614 0.0
C2110 C 0.71947 0.11101 0.51229 0.0
C2111 C 0.69888 0.1054 0.52383 0.0
C2112 C 0.69385 0.07783 0.52925 0.0
C2113 C 0.70976 0.05567 0.52271 0.0
H2114 H 0.69578 0.02299 0.20569 0.0
H2115 H 0.6733 0.08944 0.23876 0.0
H2116 H 0.67529 0.05639 0.26166 0.0
H2117 H 0.65304 0.97059 0.22552 0.0
H2118 H 0.67719 0.94257 0.22172 0.0
H2119 H 0.67542 0.97169 0.20801 0.0
H2120 H 0.72835 0.98024 0.21179 0.0
H2121 H 0.73026 0.95122 0.22558 0.0
H2122 H 0.74215 0.98518 0.23188 0.0
H2123 H 0.68252 0.01712 0.28101 0.0
H2124 H 0.68781 0.97241 0.29547 0.0
H2125 H 0.70009 0.92971 0.24978 0.0
C2126 C 0.69134 0.03046 0.21778 0.0
C2127 C 0.68465 0.05873 0.22057 0.0
C2128 C 0.67848 0.06784 0.23644 0.0
C2129 C 0.67968 0.04926 0.2495 0.0
C2130 C 0.68642 0.02152 0.2464 0.0
C2131 C 0.69156 0.01196 0.23092 0.0
C2132 C 0.69667 0.98073 0.23088 0.0
C2133 C 0.67424 0.9655 0.22094 0.0
C2134 C 0.72611 0.97396 0.22467 0.0
C2135 C 0.69391 0.97434 0.24878 0.0
C2136 C 0.6885 0.99833 0.25751 0.0
C2137 C 0.6864 0.99814 0.2743 0.0
C2138 C 0.68957 0.97271 0.28241 0.0
C2139 C 0.69415 0.94773 0.2737 0.0
C2140 C 0.69628 0.94854 0.25667 0.0
H2141 H 0.7099 0.95625 0.98309 0.0
H2142 H 0.67565 0.873 0.98885 0.0
H2143 H 0.71255 0.86188 0.0085 0.0
H2144 H 0.78161 0.93706 0.98535 0.0
H2145 H 0.79223 0.96722 0.9968 0.0
H2146 H 0.76262 0.96931 0.98346 0.0
H2147 H 0.73166 0.98611 0.0072 0.0
H2148 H 0.76123 0.98428 0.0206 0.0
H2149 H 0.72973 0.96552 0.02541 0.0
H2150 H 0.75412 0.85864 0.02634 0.0
H2151 H 0.79618 0.86461 0.04305 0.0
H2152 H 0.80344 0.95032 0.02664 0.0
C2153 C 0.71003 0.93577 0.98859 0.0
C2154 C 0.68985 0.91549 0.98439 0.0
C2155 C 0.69079 0.88893 0.99187 0.0
C2156 C 0.71174 0.88235 0.00302 0.0
C2157 C 0.73153 0.9026 0.00671 0.0
C2158 C 0.73075 0.92887 0.99988 0.0
C2159 C 0.75466 0.94672 0.00603 0.0
C2160 C 0.77392 0.95559 0.99208 0.0
C2161 C 0.74366 0.97216 0.01536 0.0
C2162 C 0.76906 0.92624 0.01724 0.0
C2163 C 0.75539 0.9009 0.01735 0.0
C2164 C 0.76493 0.87844 0.02645 0.0
C2165 C 0.78894 0.88203 0.03586 0.0
C2166 C 0.80311 0.90795 0.03621 0.0
C2167 C 0.79301 0.9303 0.02669 0.0
H2168 H 0.71449 0.55144 0.77118 0.0
H2169 H 0.62653 0.57277 0.76969 0.0
H2170 H 0.61788 0.53336 0.75128 0.0
H2171 H 0.71952 0.53035 0.72863 0.0
H2172 H 0.74358 0.50242 0.73282 0.0
H2173 H 0.74315 0.53292 0.74553 0.0
H2174 H 0.73539 0.5016 0.77065 0.0
H2175 H 0.73551 0.47103 0.75801 0.0
H2176 H 0.7062 0.47793 0.77104 0.0
H2177 H 0.61784 0.48997 0.73487 0.0
H2178 H 0.62719 0.44778 0.7188 0.0
H2179 H 0.71552 0.45517 0.7295 0.0
C2180 C 0.69347 0.548 0.76683 0.0
C2181 C 0.67117 0.56521 0.77192 0.0
C2182 C 0.64398 0.55999 0.76594 0.0
C2183 C 0.63881 0.53757 0.75552 0.0
C2184 C 0.66109 0.5207 0.75101 0.0
C2185 C 0.68796 0.52584 0.75623 0.0
C2186 C 0.70811 0.50442 0.74945 0.0
C2187 C 0.72987 0.51836 0.73845 0.0
C2188 C 0.72212 0.48776 0.7631 0.0
C2189 C 0.68825 0.48628 0.73978 0.0
C2190 C 0.66121 0.49599 0.74099 0.0
C2191 C 0.63895 0.4823 0.73367 0.0
C2192 C 0.64448 0.45823 0.72466 0.0
C2193 C 0.67208 0.44821 0.72286 0.0
C2194 C 0.69423 0.46245 0.73057 0.0
H2195 H 0.79902 0.4655 0.97676 0.0
H2196 H 0.81235 0.37624 0.97256 0.0
H2197 H 0.77689 0.36799 0.99352 0.0
H2198 H 0.78888 0.46614 0.02028 0.0
H2199 H 0.76221 0.49258 0.01975 0.0
H2200 H 0.7888 0.49183 0.00437 0.0
H2201 H 0.75073 0.48968 0.98217 0.0
H2202 H 0.72404 0.49041 0.99748 0.0
H2203 H 0.7248 0.4625 0.98289 0.0
H2204 H 0.73943 0.36886 0.01417 0.0
H2205 H 0.70276 0.37885 0.03414 0.0
H2206 H 0.71362 0.46762 0.02598 0.0
C2207 C 0.79447 0.44424 0.98027 0.0
C2208 C 0.8085 0.42151 0.97296 0.0
C2209 C 0.80199 0.39401 0.97796 0.0
C2210 C 0.78183 0.38908 0.98986 0.0
C2211 C 0.76838 0.41184 0.99677 0.0
C2212 C 0.77443 0.4389 0.99226 0.0
C2213 C 0.75682 0.45952 0.00176 0.0
C2214 C 0.77528 0.47864 0.01216 0.0
C2215 C 0.73798 0.47653 0.9904 0.0
C2216 C 0.73984 0.43976 0.0122 0.0
C2217 C 0.74688 0.41237 0.00904 0.0
C2218 C 0.73381 0.39022 0.01682 0.0
C2219 C 0.71292 0.39614 0.02813 0.0
C2220 C 0.70533 0.42401 0.03169 0.0
C2221 C 0.71912 0.44611 0.02363 0.0
H2222 H 0.78127 0.54051 0.23282 0.0
H2223 H 0.86948 0.56041 0.22993 0.0
H2224 H 0.88012 0.52142 0.24821 0.0
H2225 H 0.78188 0.52169 0.27544 0.0
H2226 H 0.75699 0.49383 0.27308 0.0
H2227 H 0.75603 0.52336 0.25964 0.0
H2228 H 0.75998 0.4902 0.23502 0.0
H2229 H 0.76113 0.46058 0.24839 0.0
H2230 H 0.78868 0.46603 0.2339 0.0
H2231 H 0.88185 0.47958 0.26577 0.0
H2232 H 0.87419 0.43923 0.28362 0.0
H2233 H 0.78479 0.44672 0.27645 0.0
C2234 C 0.80279 0.53669 0.23609 0.0
C2235 C 0.82454 0.55353 0.2299 0.0
C2236 C 0.85243 0.54793 0.23454 0.0
C2237 C 0.85874 0.52573 0.24488 0.0
C2238 C 0.83693 0.5094 0.25065 0.0
C2239 C 0.80949 0.5147 0.24661 0.0
C2240 C 0.79008 0.4941 0.25483 0.0
C2241 C 0.77007 0.50915 0.26644 0.0
C2242 C 0.77403 0.4767 0.24228 0.0
C2243 C 0.81098 0.47636 0.264 0.0
C2244 C 0.83788 0.48549 0.26127 0.0
C2245 C 0.86088 0.47229 0.2681 0.0
C2246 C 0.85629 0.4493 0.27818 0.0
C2247 C 0.8289 0.43982 0.28148 0.0
C2248 C 0.80597 0.45354 0.27422 0.0
H2249 H 0.70852 0.53399 0.47819 0.0
H2250 H 0.68454 0.62125 0.47988 0.0
H2251 H 0.71969 0.6298 0.50094 0.0
H2252 H 0.72048 0.52678 0.52148 0.0
H2253 H 0.75004 0.50394 0.51917 0.0
H2254 H 0.72291 0.50424 0.50409 0.0
H2255 H 0.75954 0.51479 0.48191 0.0
H2256 H 0.78677 0.51456 0.49692 0.0
H2257 H 0.78213 0.5446 0.48411 0.0
H2258 H 0.75805 0.62988 0.52087 0.0
H2259 H 0.79653 0.62094 0.53986 0.0
H2260 H 0.79559 0.53332 0.52666 0.0
C2261 C 0.71068 0.55486 0.48302 0.0
C2262 C 0.69373 0.57696 0.47733 0.0
C2263 C 0.69713 0.60394 0.48403 0.0
C2264 C 0.71711 0.60906 0.496 0.0
C2265 C 0.73349 0.58696 0.50131 0.0
C2266 C 0.73045 0.56034 0.49518 0.0
C2267 C 0.75077 0.5404 0.50326 0.0
C2268 C 0.73511 0.51748 0.51255 0.0
C2269 C 0.771 0.52785 0.4908 0.0
C2270 C 0.76575 0.5601 0.51474 0.0
C2271 C 0.75543 0.58687 0.5133 0.0
C2272 C 0.76622 0.60899 0.52221 0.0
C2273 C 0.78816 0.60369 0.53293 0.0
C2274 C 0.79902 0.57643 0.53481 0.0
C2275 C 0.78753 0.55432 0.52561 0.0
H2276 H 0.35188 0.53126 0.28831 0.0
H2277 H 0.27074 0.56755 0.27825 0.0
H2278 H 0.26483 0.53536 0.25528 0.0
H2279 H 0.37233 0.52092 0.24677 0.0
H2280 H 0.3895 0.48817 0.25059 0.0
H2281 H 0.38756 0.51409 0.26631 0.0
H2282 H 0.36421 0.47817 0.28539 0.0
H2283 H 0.36611 0.45213 0.26973 0.0
H2284 H 0.33303 0.4604 0.27888 0.0
H2285 H 0.26734 0.49932 0.2336 0.0
H2286 H 0.278 0.46148 0.21448 0.0
H2287 H 0.35766 0.44825 0.23828 0.0
C2288 C 0.33287 0.53246 0.28127 0.0
C2289 C 0.31176 0.55195 0.28512 0.0
C2290 C 0.2872 0.55279 0.2756 0.0
C2291 C 0.28364 0.5346 0.26249 0.0
C2292 C 0.30481 0.51567 0.25904 0.0
C2293 C 0.32895 0.51441 0.26813 0.0
C2294 C 0.34836 0.49192 0.26184 0.0
C2295 C 0.37607 0.50454 0.25603 0.0
C2296 C 0.3532 0.46932 0.27473 0.0
C2297 C 0.33135 0.48079 0.24779 0.0
C2298 C 0.3063 0.49481 0.24643 0.0
C2299 C 0.2869 0.48821 0.23452 0.0
C2300 C 0.29319 0.46664 0.22371 0.0
C2301 C 0.31872 0.45187 0.22483 0.0
C2302 C 0.33804 0.45918 0.23705 0.0
H2303 H 0.27954 0.59524 0.97313 0.0
H2304 H 0.32873 0.52384 0.98817 0.0
H2305 H 0.29688 0.51648 0.01125 0.0
H2306 H 0.26354 0.62018 0.01389 0.0
H2307 H 0.22884 0.63111 0.00845 0.0
H2308 H 0.25621 0.63141 0.99352 0.0
H2309 H 0.22622 0.60007 0.97483 0.0
H2310 H 0.19886 0.59952 0.98972 0.0
H2311 H 0.21331 0.56724 0.98236 0.0
H2312 H 0.2579 0.5149 0.03147 0.0
H2313 H 0.21629 0.52099 0.04861 0.0
H2314 H 0.19326 0.59446 0.02102 0.0
C2315 C 0.28379 0.5782 0.98136 0.0
C2316 C 0.30661 0.56006 0.97882 0.0
C2317 C 0.31144 0.53805 0.98989 0.0
C2318 C 0.29343 0.53366 0.00301 0.0
C2319 C 0.27088 0.55166 0.005 0.0
C2320 C 0.26619 0.57369 0.9946 0.0
C2321 C 0.24028 0.58981 0.99935 0.0
C2322 C 0.24767 0.61991 0.00409 0.0
C2323 C 0.21838 0.5891 0.98576 0.0
C2324 C 0.23085 0.5731 0.0139 0.0
C2325 C 0.24877 0.55116 0.01692 0.0
C2326 C 0.24388 0.53217 0.02933 0.0
C2327 C 0.22011 0.53576 0.03896 0.0
C2328 C 0.20158 0.55829 0.03621 0.0
C2329 C 0.20716 0.57721 0.02352 0.0
H2330 H 0.16001 0.52685 0.71347 0.0
H2331 H 0.22639 0.58165 0.7298 0.0
H2332 H 0.23472 0.55083 0.75317 0.0
H2333 H 0.13348 0.51028 0.7535 0.0
H2334 H 0.12549 0.47465 0.74836 0.0
H2335 H 0.12453 0.50122 0.73298 0.0
H2336 H 0.15949 0.47278 0.71571 0.0
H2337 H 0.16069 0.44621 0.73108 0.0
H2338 H 0.19245 0.46263 0.72437 0.0
H2339 H 0.23746 0.51294 0.77404 0.0
H2340 H 0.23194 0.47244 0.79218 0.0
H2341 H 0.16269 0.44309 0.76294 0.0
C2342 C 0.17619 0.53246 0.722 0.0
C2343 C 0.19259 0.55666 0.71975 0.0
C2344 C 0.21351 0.56327 0.73125 0.0
C2345 C 0.21847 0.54585 0.74455 0.0
C2346 C 0.20219 0.52199 0.7463 0.0
C2347 C 0.18127 0.51543 0.73545 0.0
C2348 C 0.16663 0.48865 0.74023 0.0
C2349 C 0.1357 0.49403 0.74399 0.0
C2350 C 0.17003 0.46625 0.72706 0.0
C2351 C 0.18273 0.48111 0.75538 0.0
C2352 C 0.20328 0.50053 0.7586 0.0
C2353 C 0.22131 0.4977 0.77171 0.0
C2354 C 0.21808 0.47456 0.78191 0.0
C2355 C 0.19681 0.45466 0.77903 0.0
C2356 C 0.179 0.45804 0.76554 0.0
H2357 H 0.29559 0.47202 0.52061 0.0
H2358 H 0.30205 0.38343 0.53073 0.0
H2359 H 0.25965 0.37481 0.51477 0.0
H2360 H 0.2204 0.47662 0.52174 0.0
H2361 H 0.21792 0.50062 0.50503 0.0
H2362 H 0.2486 0.50044 0.51761 0.0
H2363 H 0.27961 0.49262 0.49237 0.0
H2364 H 0.24906 0.49299 0.47971 0.0
H2365 H 0.27244 0.46361 0.47914 0.0
H2366 H 0.21625 0.3754 0.49861 0.0
H2367 H 0.17658 0.38446 0.48054 0.0
H2368 H 0.19845 0.47232 0.47919 0.0
C2369 C 0.28803 0.45085 0.51943 0.0
C2370 C 0.30213 0.42841 0.52696 0.0
C2371 C 0.29174 0.40095 0.52503 0.0
C2372 C 0.26755 0.39583 0.51606 0.0
C2373 C 0.25404 0.41831 0.5089 0.0
C2374 C 0.26401 0.44524 0.51025 0.0
C2375 C 0.24589 0.46536 0.50071 0.0
C2376 C 0.23241 0.48704 0.51195 0.0
C2377 C 0.26276 0.47947 0.48718 0.0
C2378 C 0.22425 0.44546 0.49386 0.0
C2379 C 0.22925 0.41851 0.49896 0.0
C2380 C 0.21215 0.3964 0.49446 0.0
C2381 C 0.18955 0.40181 0.48423 0.0
C2382 C 0.18436 0.42909 0.47839 0.0
C2383 C 0.20188 0.45124 0.48342 0.0
H2384 H 0.31923 0.03276 0.41005 0.0
H2385 H 0.38329 0.01698 0.37405 0.0
H2386 H 0.3572 0.04494 0.35426 0.0
H2387 H 0.26165 0.02838 0.38425 0.0
H2388 H 0.24224 0.05647 0.39333 0.0
H2389 H 0.2668 0.03696 0.40527 0.0
H2390 H 0.29267 0.08255 0.41284 0.0
H2391 H 0.26802 0.10228 0.40102 0.0
H2392 H 0.30483 0.10536 0.39701 0.0
H2393 H 0.32186 0.06897 0.33745 0.0
H2394 H 0.28143 0.09305 0.32533 0.0
H2395 H 0.24171 0.09703 0.37239 0.0
C2396 C 0.32796 0.03559 0.39809 0.0
C2397 C 0.35327 0.02261 0.39361 0.0
C2398 C 0.36402 0.02679 0.37782 0.0
C2399 C 0.34933 0.04259 0.36645 0.0
C2400 C 0.32419 0.05454 0.37113 0.0
C2401 C 0.31379 0.05176 0.38663 0.0
C2402 C 0.28598 0.06647 0.38835 0.0
C2403 C 0.26281 0.04583 0.39307 0.0
C2404 C 0.28801 0.0906 0.40053 0.0
C2405 C 0.28204 0.07717 0.37125 0.0
C2406 C 0.30431 0.06987 0.36152 0.0
C2407 C 0.30457 0.07535 0.34498 0.0
C2408 C 0.2815 0.08883 0.3382 0.0
C2409 C 0.25878 0.09704 0.348 0.0
C2410 C 0.25915 0.09137 0.36475 0.0
H2411 H 0.25078 0.10357 0.62978 0.0
H2412 H 0.22393 0.08182 0.67828 0.0
H2413 H 0.18691 0.05194 0.66692 0.0
H2414 H 0.1819 0.10283 0.61038 0.0
H2415 H 0.19468 0.08681 0.59211 0.0
H2416 H 0.21728 0.10888 0.60392 0.0
H2417 H 0.25343 0.06891 0.60591 0.0
H2418 H 0.23098 0.04677 0.5941 0.0
H2419 H 0.24274 0.03551 0.61375 0.0
H2420 H 0.15393 0.02366 0.65064 0.0
H2421 H 0.1295 0.99496 0.63044 0.0
H2422 H 0.17935 0.03237 0.5923 0.0
C2423 C 0.23679 0.09281 0.63795 0.0
C2424 C 0.23996 0.0951 0.65488 0.0
C2425 C 0.22177 0.08028 0.66526 0.0
C2426 C 0.20061 0.06342 0.65894 0.0
C2427 C 0.19814 0.06135 0.64221 0.0
C2428 C 0.21587 0.07536 0.63183 0.0
C2429 C 0.21013 0.06755 0.61437 0.0
C2430 C 0.20042 0.09304 0.60462 0.0
C2431 C 0.23585 0.05386 0.60658 0.0
C2432 C 0.18666 0.04674 0.61662 0.0
C2433 C 0.17978 0.04391 0.63276 0.0
C2434 C 0.15906 0.02569 0.63795 0.0
C2435 C 0.14527 0.0095 0.62635 0.0
C2436 C 0.15254 0.01133 0.60977 0.0
C2437 C 0.17332 0.03048 0.60487 0.0
H2438 H 0.18586 0.00599 0.89169 0.0
H2439 H 0.11346 0.95196 0.89341 0.0
H2440 H 0.1394 0.91573 0.87828 0.0
H2441 H 0.20458 0.98808 0.85068 0.0
H2442 H 0.24157 0.99031 0.85428 0.0
H2443 H 0.21788 0.01132 0.86599 0.0
H2444 H 0.23825 0.9908 0.89247 0.0
H2445 H 0.26205 0.9698 0.88085 0.0
H2446 H 0.23896 0.95353 0.89523 0.0
H2447 H 0.17402 0.88475 0.86431 0.0
H2448 H 0.2134 0.86265 0.84986 0.0
H2449 H 0.26144 0.93881 0.85457 0.0
C2450 C 0.17564 0.98641 0.88897 0.0
C2451 C 0.1479 0.98142 0.89385 0.0
C2452 C 0.13481 0.95594 0.8898 0.0
C2453 C 0.14936 0.93531 0.88126 0.0
C2454 C 0.17671 0.94086 0.87656 0.0
C2455 C 0.18959 0.96594 0.88004 0.0
C2456 C 0.2186 0.9672 0.87284 0.0
C2457 C 0.22077 0.99062 0.86019 0.0
C2458 C 0.24077 0.97052 0.88614 0.0
C2459 C 0.22019 0.93874 0.86497 0.0
C2460 C 0.19593 0.92376 0.86745 0.0
C2461 C 0.19297 0.89639 0.86209 0.0
C2462 C 0.21539 0.88402 0.85395 0.0
C2463 C 0.24015 0.89922 0.85096 0.0
C2464 C 0.24248 0.92697 0.85645 0.0
H2465 H 0.28129 0.92862 0.15933 0.0
H2466 H 0.25619 0.86778 0.12323 0.0
H2467 H 0.28684 0.89053 0.10325 0.0
H2468 H 0.2826 0.98655 0.13386 0.0
H2469 H 0.31287 0.00253 0.14288 0.0
H2470 H 0.29097 0.98004 0.15479 0.0
H2471 H 0.33363 0.94924 0.16183 0.0
H2472 H 0.35573 0.9717 0.14994 0.0
H2473 H 0.35455 0.93485 0.14575 0.0
H2474 H 0.31521 0.92305 0.08641 0.0
H2475 H 0.34208 0.96164 0.07421 0.0
H2476 H 0.35142 0.99981 0.12143 0.0
C2477 C 0.28254 0.91981 0.14729 0.0
C2478 C 0.26627 0.89642 0.14285 0.0
C2479 C 0.26849 0.8856 0.12695 0.0
C2480 C 0.28586 0.89837 0.11551 0.0
C2481 C 0.30121 0.92167 0.12021 0.0
C2482 C 0.30003 0.93209 0.13577 0.0
C2483 C 0.31781 0.95806 0.13751 0.0
C2484 C 0.29999 0.98328 0.14255 0.0
C2485 C 0.34186 0.95316 0.14947 0.0
C2486 C 0.3285 0.9611 0.12036 0.0
C2487 C 0.31865 0.93985 0.11059 0.0
C2488 C 0.32356 0.93944 0.09399 0.0
C2489 C 0.33873 0.96145 0.08717 0.0
C2490 C 0.34911 0.98332 0.09696 0.0
C2491 C 0.34432 0.98289 0.11379 0.0
H2492 H 0.69042 0.98217 0.59178 0.0
H2493 H 0.61676 0.98598 0.62232 0.0
H2494 H 0.63743 0.95143 0.64063 0.0
H2495 H 0.70346 0.90691 0.59736 0.0
H2496 H 0.74079 0.91123 0.59771 0.0
H2497 H 0.71947 0.93486 0.58613 0.0
H2498 H 0.74089 0.97675 0.60154 0.0
H2499 H 0.76225 0.95328 0.61314 0.0
H2500 H 0.73946 0.97745 0.62333 0.0
H2501 H 0.6671 0.92003 0.65699 0.0
H2502 H 0.70445 0.89253 0.67013 0.0
H2503 H 0.75846 0.90723 0.62903 0.0
C2504 C 0.6785 0.97547 0.60219 0.0
C2505 C 0.65194 0.98689 0.60555 0.0
C2506 C 0.63713 0.97765 0.61942 0.0
C2507 C 0.64864 0.95791 0.62991 0.0
C2508 C 0.67491 0.94734 0.62637 0.0
C2509 C 0.68965 0.9556 0.61283 0.0
C2510 C 0.71806 0.94176 0.6123 0.0
C2511 C 0.72058 0.92255 0.59749 0.0
C2512 C 0.74154 0.96362 0.6126 0.0
C2513 C 0.71717 0.92509 0.62788 0.0
C2514 C 0.69196 0.92851 0.63573 0.0
C2515 C 0.68673 0.91672 0.65084 0.0
C2516 C 0.70794 0.90119 0.6582 0.0
C2517 C 0.73381 0.8975 0.65037 0.0
C2518 C 0.73846 0.90932 0.63498 0.0
H2519 H 0.74207 0.91107 0.37463 0.0
H2520 H 0.79403 0.90484 0.3319 0.0
H2521 H 0.83285 0.92738 0.34661 0.0
H2522 H 0.7641 0.97916 0.38478 0.0
H2523 H 0.76277 0.97403 0.40637 0.0
H2524 H 0.74041 0.95397 0.39333 0.0
H2525 H 0.76007 0.90832 0.40559 0.0
H2526 H 0.78263 0.9283 0.41863 0.0
H2527 H 0.79716 0.90225 0.40538 0.0
H2528 H 0.86506 0.95164 0.36526 0.0
H2529 H 0.88734 0.98187 0.38543 0.0
H2530 H 0.81349 0.97635 0.41573 0.0
C2531 C 0.76184 0.91409 0.36855 0.0
C2532 C 0.76543 0.90601 0.35227 0.0
C2533 C 0.79114 0.91086 0.34442 0.0
C2534 C 0.81328 0.92343 0.3527 0.0
C2535 C 0.80913 0.93138 0.36872 0.0
C2536 C 0.78396 0.92732 0.37653 0.0
C2537 C 0.78414 0.94068 0.39317 0.0
C2538 C 0.76152 0.9633 0.39448 0.0
C2539 C 0.78081 0.91856 0.40648 0.0
C2540 C 0.81316 0.95323 0.39336 0.0
C2541 C 0.82736 0.94698 0.37927 0.0
C2542 C 0.85421 0.95665 0.37637 0.0
C2543 C 0.8667 0.97382 0.38795 0.0
C2544 C 0.85216 0.98165 0.40219 0.0
C2545 C 0.8252 0.9707 0.40503 0.0
H2546 H 0.77784 0.0648 0.15918 0.0
H2547 H 0.76536 0.13006 0.12348 0.0
H2548 H 0.79645 0.10544 0.10463 0.0
H2549 H 0.85208 0.05264 0.14942 0.0
H2550 H 0.84949 0.01558 0.15267 0.0
H2551 H 0.82741 0.03908 0.16386 0.0
H2552 H 0.78378 0.01251 0.15366 0.0
H2553 H 0.80568 0.98903 0.1424 0.0
H2554 H 0.77849 0.00812 0.13222 0.0
H2555 H 0.82406 0.07158 0.08851 0.0
H2556 H 0.85071 0.03216 0.07697 0.0
H2557 H 0.84894 0.99034 0.12341 0.0
C2558 C 0.78195 0.07408 0.14748 0.0
C2559 C 0.76908 0.09937 0.14283 0.0
C2560 C 0.77502 0.1108 0.12739 0.0
C2561 C 0.79263 0.09695 0.11656 0.0
C2562 C 0.8046 0.0719 0.1214 0.0
C2563 C 0.79992 0.06073 0.13657 0.0
C2564 C 0.81514 0.03322 0.13857 0.0
C2565 C 0.83735 0.03526 0.15192 0.0
C2566 C 0.79454 0.00932 0.1419 0.0
C2567 C 0.82843 0.03038 0.122 0.0
C2568 C 0.82192 0.05291 0.11228 0.0
C2569 C 0.82983 0.05411 0.09608 0.0
C2570 C 0.84483 0.03168 0.08963 0.0
C2571 C 0.85213 0.00869 0.09942 0.0
C2572 C 0.84409 0.00811 0.11584 0.0
H2573 H 0.65804 0.99089 0.88279 0.0
H2574 H 0.67472 0.02576 0.93024 0.0
H2575 H 0.70124 0.06415 0.91768 0.0
H2576 H 0.72585 0.00432 0.86708 0.0
H2577 H 0.71415 0.0124 0.8469 0.0
H2578 H 0.69414 0.98908 0.8594 0.0
H2579 H 0.6505 0.0202 0.85557 0.0
H2580 H 0.67041 0.04365 0.84305 0.0
H2581 H 0.65238 0.05672 0.86061 0.0
H2582 H 0.7263 0.09812 0.90031 0.0
H2583 H 0.75216 0.12373 0.87934 0.0
H2584 H 0.72231 0.06547 0.843 0.0
C2585 C 0.66698 0.00687 0.89046 0.0
C2586 C 0.66419 0.00559 0.90746 0.0
C2587 C 0.67665 0.02643 0.91719 0.0
C2588 C 0.69161 0.04836 0.91017 0.0
C2589 C 0.69423 0.04895 0.8934 0.0
C2590 C 0.68256 0.02865 0.88365 0.0
C2591 C 0.69039 0.03314 0.86607 0.0
C2592 C 0.70713 0.00826 0.85948 0.0
C2593 C 0.66437 0.03876 0.85571 0.0
C2594 C 0.70842 0.059 0.86752 0.0
C2595 C 0.70992 0.06797 0.88337 0.0
C2596 C 0.72531 0.09133 0.88784 0.0
C2597 C 0.73989 0.10578 0.87581 0.0
C2598 C 0.73935 0.0966 0.85951 0.0
C2599 C 0.72321 0.07297 0.85534 0.0
H2600 H 0.81186 0.52251 0.91302 0.0
H2601 H 0.88035 0.51073 0.87924 0.0
H2602 H 0.85538 0.53799 0.85885 0.0
H2603 H 0.75707 0.51745 0.88475 0.0
H2604 H 0.73588 0.5447 0.89334 0.0
H2605 H 0.75948 0.52536 0.90602 0.0
H2606 H 0.78315 0.57129 0.91515 0.0
H2607 H 0.75942 0.59082 0.9026 0.0
H2608 H 0.79652 0.59501 0.90011 0.0
H2609 H 0.82153 0.5612 0.84095 0.0
H2610 H 0.78254 0.58566 0.82759 0.0
H2611 H 0.73713 0.58702 0.87295 0.0
C2612 C 0.82175 0.52606 0.90143 0.0
C2613 C 0.84807 0.51428 0.8978 0.0
C2614 C 0.86027 0.51945 0.88244 0.0
C2615 C 0.84622 0.53489 0.87068 0.0
C2616 C 0.82015 0.54559 0.87447 0.0
C2617 C 0.80819 0.54201 0.88954 0.0
C2618 C 0.77981 0.55598 0.89026 0.0
C2619 C 0.7567 0.53459 0.8938 0.0
C2620 C 0.77973 0.57968 0.90277 0.0
C2621 C 0.77758 0.56724 0.87314 0.0
C2622 C 0.80104 0.56069 0.86424 0.0
C2623 C 0.80325 0.56697 0.84784 0.0
C2624 C 0.78098 0.58066 0.84034 0.0
C2625 C 0.75711 0.58835 0.8493 0.0
C2626 C 0.75542 0.58169 0.86593 0.0
H2627 H 0.69054 0.52693 0.09021 0.0
H2628 H 0.61512 0.52057 0.11912 0.0
H2629 H 0.63588 0.55109 0.13967 0.0
H2630 H 0.73777 0.52427 0.12182 0.0
H2631 H 0.76188 0.54959 0.11383 0.0
H2632 H 0.74023 0.52973 0.10029 0.0
H2633 H 0.72082 0.57535 0.08788 0.0
H2634 H 0.74264 0.5954 0.1013 0.0
H2635 H 0.70554 0.60129 0.10092 0.0
H2636 H 0.66692 0.57548 0.15903 0.0
H2637 H 0.70509 0.59761 0.17459 0.0
H2638 H 0.75909 0.59214 0.1327 0.0
C2639 C 0.67815 0.53249 0.10068 0.0
C2640 C 0.65122 0.52119 0.10302 0.0
C2641 C 0.63579 0.52888 0.11697 0.0
C2642 C 0.64738 0.54625 0.12877 0.0
C2643 C 0.67424 0.55628 0.12635 0.0
C2644 C 0.68927 0.55022 0.11253 0.0
C2645 C 0.71819 0.56291 0.11331 0.0
C2646 C 0.74084 0.54027 0.11225 0.0
C2647 C 0.72202 0.58506 0.10006 0.0
C2648 C 0.71732 0.57608 0.12998 0.0
C2649 C 0.69176 0.57192 0.13729 0.0
C2650 C 0.68678 0.5796 0.1533 0.0
C2651 C 0.70852 0.59197 0.16206 0.0
C2652 C 0.73459 0.59692 0.15467 0.0
C2653 C 0.73897 0.58918 0.13841 0.0
H2654 H 0.69573 0.51091 0.39625 0.0
H2655 H 0.61646 0.46759 0.39766 0.0
H2656 H 0.63637 0.42937 0.38116 0.0
H2657 H 0.71021 0.49388 0.3544 0.0
H2658 H 0.74726 0.49056 0.35749 0.0
H2659 H 0.72721 0.51375 0.37007 0.0
H2660 H 0.74538 0.48845 0.39569 0.0
H2661 H 0.76552 0.46524 0.38319 0.0
H2662 H 0.74085 0.45128 0.3975 0.0
H2663 H 0.66592 0.39464 0.36606 0.0
H2664 H 0.70154 0.36823 0.35065 0.0
H2665 H 0.75961 0.43677 0.35626 0.0
C2666 C 0.68272 0.49325 0.39313 0.0
C2667 C 0.65476 0.49181 0.39833 0.0
C2668 C 0.63801 0.46883 0.39379 0.0
C2669 C 0.64913 0.44708 0.38448 0.0
C2670 C 0.67681 0.44907 0.37949 0.0
C2671 C 0.69325 0.47178 0.38341 0.0
C2672 C 0.72187 0.46947 0.37579 0.0
C2673 C 0.72692 0.49333 0.36372 0.0
C2674 C 0.74475 0.46855 0.38882 0.0
C2675 C 0.7191 0.44172 0.3672 0.0
C2676 C 0.69308 0.4301 0.36968 0.0
C2677 C 0.6862 0.40373 0.36379 0.0
C2678 C 0.70647 0.3889 0.3551 0.0
C2679 C 0.73292 0.4008 0.35208 0.0
C2680 C 0.73923 0.42758 0.35812 0.0
H2681 H 0.81734 0.47371 0.58989 0.0
H2682 H 0.89021 0.47864 0.621 0.0
H2683 H 0.86733 0.44777 0.64067 0.0
H2684 H 0.76753 0.4763 0.62012 0.0
H2685 H 0.74378 0.45161 0.61117 0.0
H2686 H 0.76684 0.47154 0.59849 0.0
H2687 H 0.78668 0.42604 0.58617 0.0
H2688 H 0.76343 0.40591 0.59869 0.0
H2689 H 0.80043 0.39946 0.59935 0.0
H2690 H 0.83416 0.42301 0.65886 0.0
H2691 H 0.79445 0.40061 0.67292 0.0
H2692 H 0.7444 0.40809 0.6295 0.0
C2693 C 0.82876 0.46776 0.60065 0.0
C2694 C 0.85559 0.47871 0.60387 0.0
C2695 C 0.8697 0.47053 0.61818 0.0
C2696 C 0.85687 0.453 0.62948 0.0
C2697 C 0.8301 0.44335 0.6262 0.0
C2698 C 0.81639 0.44992 0.61199 0.0
C2699 C 0.78726 0.43763 0.61178 0.0
C2700 C 0.76506 0.46065 0.61031 0.0
C2701 C 0.78429 0.41597 0.59819 0.0
C2702 C 0.78648 0.42396 0.6283 0.0
C2703 C 0.81139 0.42763 0.63644 0.0
C2704 C 0.81481 0.41932 0.65248 0.0
C2705 C 0.7922 0.4068 0.66038 0.0
C2706 C 0.76679 0.40232 0.65213 0.0
C2707 C 0.76397 0.41073 0.63587 0.0
H2708 H 0.18607 0.47469 0.09386 0.0
H2709 H 0.11516 0.47735 0.12653 0.0
H2710 H 0.1393 0.44534 0.14505 0.0
H2711 H 0.20318 0.40036 0.10102 0.0
H2712 H 0.2402 0.40651 0.09985 0.0
H2713 H 0.2165 0.42795 0.08839 0.0
H2714 H 0.2374 0.47217 0.10169 0.0
H2715 H 0.26107 0.45091 0.11322 0.0
H2716 H 0.23816 0.47491 0.12344 0.0
H2717 H 0.17276 0.41801 0.16154 0.0
H2718 H 0.21291 0.39397 0.17415 0.0
H2719 H 0.26124 0.40613 0.13046 0.0
C2720 C 0.17545 0.46821 0.10479 0.0
C2721 C 0.14871 0.47862 0.10872 0.0
C2722 C 0.13559 0.46967 0.12318 0.0
C2723 C 0.14912 0.45145 0.13381 0.0
C2724 C 0.1756 0.44199 0.12973 0.0
C2725 C 0.18854 0.44972 0.11548 0.0
C2726 C 0.21751 0.43724 0.11432 0.0
C2727 C 0.21945 0.4168 0.10005 0.0
C2728 C 0.23984 0.46018 0.1131 0.0
C2729 C 0.21911 0.42206 0.13037 0.0
C2730 C 0.19464 0.42508 0.13904 0.0
C2731 C 0.19179 0.41493 0.15475 0.0
C2732 C 0.21461 0.40141 0.16181 0.0
C2733 C 0.23967 0.3979 0.15309 0.0
C2734 C 0.24191 0.40804 0.13714 0.0
H2735 H 0.34715 0.50179 0.8819 0.0
H2736 H 0.32882 0.47028 0.92993 0.0
H2737 H 0.29909 0.43356 0.918 0.0
H2738 H 0.27851 0.49344 0.86679 0.0
H2739 H 0.28918 0.48378 0.84666 0.0
H2740 H 0.31123 0.50578 0.8588 0.0
H2741 H 0.35211 0.47104 0.85514 0.0
H2742 H 0.33014 0.44889 0.84298 0.0
H2743 H 0.34734 0.43498 0.8606 0.0
H2744 H 0.27084 0.40099 0.90102 0.0
H2745 H 0.24225 0.37735 0.88037 0.0
H2746 H 0.27647 0.43193 0.84345 0.0
C2747 C 0.33718 0.48688 0.88986 0.0
C2748 C 0.34043 0.48862 0.90681 0.0
C2749 C 0.32658 0.46922 0.9169 0.0
C2750 C 0.30981 0.44824 0.91024 0.0
C2751 C 0.30686 0.44718 0.89349 0.0
C2752 C 0.3199 0.46615 0.88343 0.0
C2753 C 0.31146 0.46177 0.86595 0.0
C2754 C 0.29672 0.48773 0.85916 0.0
C2755 C 0.33677 0.45368 0.85556 0.0
C2756 C 0.29144 0.43756 0.86779 0.0
C2757 C 0.28949 0.42917 0.88374 0.0
C2758 C 0.2722 0.40734 0.88848 0.0
C2759 C 0.25609 0.394 0.87665 0.0
C2760 C 0.25706 0.40284 0.8603 0.0
C2761 C 0.27522 0.42474 0.85585 0.0
H2762 H 0.2577 0.60395 0.62583 0.0
H2763 H 0.28401 0.57808 0.67373 0.0
H2764 H 0.31928 0.54692 0.6615 0.0
H2765 H 0.26193 0.5363 0.60842 0.0
H2766 H 0.27366 0.54833 0.58892 0.0
H2767 H 0.25248 0.5706 0.6014 0.0
H2768 H 0.29025 0.60915 0.59991 0.0
H2769 H 0.31161 0.58694 0.58745 0.0
H2770 H 0.32549 0.60124 0.60594 0.0
H2771 H 0.3512 0.5187 0.64422 0.0
H2772 H 0.37436 0.49083 0.62319 0.0
H2773 H 0.32484 0.53211 0.58628 0.0
C2774 C 0.27119 0.59199 0.63371 0.0
C2775 C 0.26851 0.59358 0.6507 0.0
C2776 C 0.28591 0.57715 0.66068 0.0
C2777 C 0.30605 0.55955 0.65385 0.0
C2778 C 0.30812 0.55836 0.63704 0.0
C2779 C 0.29093 0.57382 0.62709 0.0
C2780 C 0.29589 0.56691 0.60942 0.0
C2781 C 0.26942 0.55481 0.60158 0.0
C2782 C 0.30644 0.5926 0.60014 0.0
C2783 C 0.31848 0.54503 0.61101 0.0
C2784 C 0.32554 0.54085 0.62704 0.0
C2785 C 0.34583 0.52174 0.63163 0.0
C2786 C 0.35893 0.50607 0.61955 0.0
C2787 C 0.35138 0.50921 0.60305 0.0
C2788 C 0.33104 0.5292 0.59876 0.0
H2789 H 0.2258 0.57127 0.34162 0.0
H2790 H 0.23251 0.64024 0.37549 0.0
H2791 H 0.20131 0.61585 0.39431 0.0
H2792 H 0.15125 0.55568 0.35045 0.0
H2793 H 0.15628 0.51862 0.34838 0.0
H2794 H 0.17741 0.54245 0.33681 0.0
H2795 H 0.22203 0.51958 0.34842 0.0
H2796 H 0.20109 0.49586 0.36011 0.0
H2797 H 0.22658 0.51754 0.37004 0.0
H2798 H 0.17519 0.58191 0.41101 0.0
H2799 H 0.15081 0.54194 0.42349 0.0
H2800 H 0.15718 0.49605 0.37846 0.0
C2801 C 0.22027 0.58147 0.35285 0.0
C2802 C 0.23172 0.6077 0.35704 0.0
C2803 C 0.22402 0.62025 0.37192 0.0
C2804 C 0.2063 0.60654 0.38275 0.0
C2805 C 0.19597 0.58048 0.37845 0.0
C2806 C 0.20218 0.56823 0.36375 0.0
C2807 C 0.18878 0.53966 0.36241 0.0
C2808 C 0.16714 0.53908 0.3487 0.0
C2809 C 0.21095 0.51682 0.36012 0.0
C2810 C 0.17489 0.53748 0.37884 0.0
C2811 C 0.17944 0.56129 0.38789 0.0
C2812 C 0.17089 0.56342 0.40394 0.0
C2813 C 0.15722 0.54063 0.41094 0.0
C2814 C 0.15187 0.51629 0.40182 0.0
C2815 C 0.16053 0.51478 0.38553 0.0
H2816 H 0.24994 0.28054 0.21727 0.0
H2817 H 0.31826 0.31999 0.24287 0.0
H2818 H 0.3069 0.2925 0.26735 0.0
H2819 H 0.20232 0.27763 0.25043 0.0
H2820 H 0.18836 0.24398 0.24508 0.0
H2821 H 0.20203 0.26656 0.22959 0.0
H2822 H 0.2358 0.22757 0.22029 0.0
H2823 H 0.22215 0.20481 0.23572 0.0
H2824 H 0.25903 0.21186 0.2348 0.0
H2825 H 0.28792 0.26087 0.28896 0.0
H2826 H 0.26299 0.22685 0.30616 0.0
H2827 H 0.20716 0.20784 0.26642 0.0
C2828 C 0.26265 0.28313 0.228 0.0
C2829 C 0.28496 0.30232 0.22827 0.0
C2830 C 0.30093 0.30552 0.24254 0.0
C2831 C 0.2947 0.28995 0.25643 0.0
C2832 C 0.27248 0.27125 0.2558 0.0
C2833 C 0.25676 0.26769 0.24194 0.0
C2834 C 0.23395 0.24628 0.24445 0.0
C2835 C 0.20495 0.25941 0.24226 0.0
C2836 C 0.23799 0.22114 0.23315 0.0
C2837 C 0.2392 0.23844 0.26193 0.0
C2838 C 0.26152 0.25308 0.26825 0.0
C2839 C 0.27033 0.24939 0.28416 0.0
C2840 C 0.25595 0.23022 0.29387 0.0
C2841 C 0.23299 0.21512 0.28764 0.0
C2842 C 0.22463 0.21923 0.27145 0.0
H2843 H 0.04984 0.96415 0.51822 0.0
H2844 H 0.02651 0.01903 0.55758 0.0
H2845 H 0.98983 0.04012 0.54043 0.0
H2846 H 0.0392 0.01378 0.48583 0.0
H2847 H 0.02532 0.98823 0.47202 0.0
H2848 H 0.04999 0.97788 0.48731 0.0
H2849 H 0.01507 0.9409 0.4979 0.0
H2850 H 0.99029 0.95115 0.48266 0.0
H2851 H 0.98044 0.95154 0.50369 0.0
H2852 H 0.95585 0.05519 0.51896 0.0
H2853 H 0.92675 0.06303 0.49464 0.0
H2854 H 0.97116 0.99716 0.46965 0.0
C2855 C 0.03704 0.98071 0.52313 0.0
C2856 C 0.04075 0.99002 0.53915 0.0
C2857 C 0.02368 0.01158 0.54531 0.0
C2858 C 0.00292 0.02368 0.53567 0.0
C2859 C 0.99954 0.0139 0.51993 0.0
C2860 C 0.0161 0.99289 0.51368 0.0
C2861 C 0.00789 0.98594 0.49646 0.0
C2862 C 0.03204 0.99182 0.48472 0.0
C2863 C 0.99782 0.95558 0.49511 0.0
C2864 C 0.98414 0.00628 0.49401 0.0
C2865 C 0.97971 0.0223 0.50766 0.0
C2866 C 0.95905 0.04271 0.50822 0.0
C2867 C 0.94255 0.04691 0.49442 0.0
C2868 C 0.94676 0.0307 0.48034 0.0
C2869 C 0.96772 0.01005 0.48022 0.0
H2870 H 0.29889 0.7671 0.77898 0.0
H2871 H 0.24729 0.83978 0.77038 0.0
H2872 H 0.22611 0.81653 0.74672 0.0
H2873 H 0.31092 0.74875 0.73737 0.0
H2874 H 0.3085 0.71173 0.74078 0.0
H2875 H 0.3202 0.73437 0.75679 0.0
H2876 H 0.2814 0.71521 0.77554 0.0
H2877 H 0.26956 0.69251 0.75959 0.0
H2878 H 0.2456 0.7165 0.76896 0.0
H2879 H 0.21085 0.78573 0.72391 0.0
H2880 H 0.20152 0.74864 0.70382 0.0
H2881 H 0.26116 0.69488 0.72782 0.0
C2882 C 0.28306 0.77801 0.77212 0.0
C2883 C 0.27487 0.80533 0.77638 0.0
C2884 C 0.2542 0.81905 0.76712 0.0
C2885 C 0.24193 0.80594 0.75374 0.0
C2886 C 0.25038 0.77899 0.74986 0.0
C2887 C 0.27034 0.76507 0.75881 0.0
C2888 C 0.27524 0.73598 0.75221 0.0
C2889 C 0.30551 0.73252 0.74644 0.0
C2890 C 0.26748 0.71374 0.76483 0.0
C2891 C 0.25503 0.73581 0.73811 0.0
C2892 C 0.24099 0.76088 0.73695 0.0
C2893 C 0.22163 0.76597 0.72473 0.0
C2894 C 0.21652 0.74488 0.71337 0.0
C2895 C 0.23055 0.71903 0.71438 0.0
C2896 C 0.24997 0.71442 0.72694 0.0
H2897 H 0.47659 0.99575 0.03923 0.0
H2898 H 0.44612 0.07013 0.01536 0.0
H2899 H 0.47707 0.06072 0.99205 0.0
H2900 H 0.54919 0.00133 0.02502 0.0
H2901 H 0.55292 0.9642 0.02253 0.0
H2902 H 0.52973 0.97782 0.03774 0.0
H2903 H 0.48908 0.94923 0.02545 0.0
H2904 H 0.51206 0.9357 0.01013 0.0
H2905 H 0.4805 0.95348 0.00436 0.0
H2906 H 0.50907 0.04194 0.97086 0.0
H2907 H 0.54143 0.01563 0.95329 0.0
H2908 H 0.55153 0.95333 0.99079 0.0
C2909 C 0.47694 0.01027 0.02921 0.0
C2910 C 0.45922 0.03374 0.02901 0.0
C2911 C 0.45968 0.05209 0.01563 0.0
C2912 C 0.47716 0.04691 0.0024 0.0
C2913 C 0.4941 0.02334 0.0028 0.0
C2914 C 0.49432 0.0054 0.01588 0.0
C2915 C 0.51384 0.98106 0.01297 0.0
C2916 C 0.53785 0.98112 0.0253 0.0
C2917 C 0.49791 0.95323 0.01324 0.0
C2918 C 0.5242 0.98791 0.99612 0.0
C2919 C 0.51259 0.01244 0.99051 0.0
C2920 C 0.51838 0.02276 0.97513 0.0
C2921 C 0.53659 0.00763 0.96521 0.0
C2922 C 0.54866 0.98246 0.9707 0.0
C2923 C 0.54252 0.97258 0.98637 0.0
H2924 H 0.21283 0.77065 0.22243 0.0
H2925 H 0.28519 0.8247 0.22105 0.0
H2926 H 0.30788 0.79609 0.24217 0.0
H2927 H 0.21244 0.75893 0.26485 0.0
H2928 H 0.20221 0.72285 0.2635 0.0
H2929 H 0.19218 0.74691 0.24784 0.0
H2930 H 0.2154 0.71521 0.22634 0.0
H2931 H 0.22556 0.69105 0.24196 0.0
H2932 H 0.2515 0.70557 0.22863 0.0
H2933 H 0.32138 0.76357 0.2645 0.0
H2934 H 0.32518 0.72857 0.2864 0.0
H2935 H 0.24513 0.69409 0.27269 0.0
C2936 C 0.23354 0.77623 0.22653 0.0
C2937 C 0.24722 0.8 0.22033 0.0
C2938 C 0.27426 0.8068 0.2259 0.0
C2939 C 0.28734 0.79058 0.23778 0.0
C2940 C 0.27321 0.76742 0.24382 0.0
C2941 C 0.24698 0.76011 0.23833 0.0
C2942 C 0.23615 0.73454 0.24712 0.0
C2943 C 0.20915 0.74122 0.25638 0.0
C2944 C 0.23191 0.71015 0.2353 0.0
C2945 C 0.26018 0.72894 0.25859 0.0
C2946 C 0.28137 0.74813 0.25643 0.0
C2947 C 0.30512 0.7482 0.26615 0.0
C2948 C 0.30713 0.72831 0.27852 0.0
C2949 C 0.28564 0.7086 0.28097 0.0
C2950 C 0.26204 0.70869 0.27078 0.0
H2951 H 0.56284 0.99478 0.52013 0.0
H2952 H 0.52372 0.06973 0.53858 0.0
H2953 H 0.48648 0.06545 0.51805 0.0
H2954 H 0.54663 0.00729 0.47721 0.0
H2955 H 0.54026 0.97095 0.47309 0.0
H2956 H 0.56469 0.98086 0.48863 0.0
H2957 H 0.53732 0.95109 0.50941 0.0
H2958 H 0.51267 0.94131 0.49399 0.0
H2959 H 0.50065 0.95749 0.51239 0.0
H2960 H 0.45242 0.05183 0.49668 0.0
H2961 H 0.42445 0.03069 0.47471 0.0
H2962 H 0.48544 0.96458 0.46991 0.0
C2963 C 0.54671 0.01054 0.51956 0.0
C2964 C 0.54607 0.0327 0.53076 0.0
C2965 C 0.52443 0.05266 0.53 0.0
C2966 C 0.50327 0.0504 0.51842 0.0
C2967 C 0.50415 0.02807 0.50768 0.0
C2968 C 0.52538 0.00859 0.50803 0.0
C2969 C 0.52085 0.98617 0.49537 0.0
C2970 C 0.54452 0.98634 0.48283 0.0
C2971 C 0.51768 0.95731 0.50327 0.0
C2972 C 0.49363 0.99595 0.48801 0.0
C2973 C 0.4844 0.02018 0.4953 0.0
C2974 C 0.45948 0.03294 0.49082 0.0
C2975 C 0.44368 0.02075 0.47844 0.0
C2976 C 0.45289 0.9961 0.47075 0.0
C2977 C 0.47812 0.98353 0.47561 0.0
H2978 H 0.25906 0.28245 0.78861 0.0
H2979 H 0.18475 0.31902 0.76774 0.0
H2980 H 0.18969 0.28862 0.74369 0.0
H2981 H 0.29727 0.27871 0.75161 0.0
H2982 H 0.31417 0.24618 0.75637 0.0
H2983 H 0.30366 0.2693 0.7724 0.0
H2984 H 0.27487 0.2295 0.78545 0.0
H2985 H 0.28527 0.20624 0.76943 0.0
H2986 H 0.2488 0.21171 0.77359 0.0
H2987 H 0.20269 0.25451 0.72209 0.0
H2988 H 0.2248 0.22117 0.70326 0.0
H2989 H 0.2926 0.20899 0.73722 0.0
C2990 C 0.24377 0.28373 0.77899 0.0
C2991 C 0.22141 0.30271 0.77991 0.0
C2992 C 0.20193 0.3044 0.76713 0.0
C2993 C 0.20454 0.28722 0.75351 0.0
C2994 C 0.2269 0.26872 0.75287 0.0
C2995 C 0.24632 0.267 0.76519 0.0
C2996 C 0.26923 0.24645 0.76106 0.0
C2997 C 0.29777 0.26104 0.76031 0.0
C2998 C 0.26955 0.22203 0.7731 0.0
C2999 C 0.25975 0.23706 0.74446 0.0
C3000 C 0.23509 0.2499 0.74007 0.0
C3001 C 0.22211 0.24449 0.72533 0.0
C3002 C 0.23487 0.22569 0.71469 0.0
C3003 C 0.26055 0.21297 0.71873 0.0
C3004 C 0.27296 0.21852 0.73387 0.0
H3005 H 0.98835 0.95037 0.0291 0.0
H3006 H 0.91943 0.00814 0.02422 0.0
H3007 H 0.94384 0.03174 0.00172 0.0
H3008 H 0.04338 1.00051 0.02069 0.0
H3009 H 0.06442 0.97607 0.00951 0.0
H3010 H 0.04174 0.96386 0.02538 0.0
H3011 H 0.01779 0.93005 0.00525 0.0
H3012 H 0.04047 0.94207 0.98936 0.0
H3013 H 0.00319 0.9436 0.98676 0.0
H3014 H 0.97507 0.04847 0.97957 0.0
H3015 H 0.01092 0.05675 0.95862 0.0
H3016 H 0.0602 0.98867 0.97782 0.0
C3017 C 0.97857 0.96808 0.0233 0.0
C3018 C 0.95202 0.97747 0.02828 0.0
C3019 C 0.93965 1.00054 0.02042 0.0
C3020 C 0.95342 0.01414 0.00772 0.0
C3021 C 0.9796 0.00446 0.00308 0.0
C3022 C 0.99209 0.98195 0.01059 0.0
C3023 C 0.02017 0.97551 0.00302 0.0
C3024 C 0.04383 0.97921 0.01539 0.0
C3025 C 0.0204 0.94606 0.99566 0.0
C3026 C 0.02139 0.99774 0.99 0.0
C3027 C 0.99779 0.01427 0.99032 0.0
C3028 C 0.99369 0.03577 0.97924 0.0
C3029 C 0.0141 0.0403 0.96741 0.0
C3030 C 0.03826 0.02346 0.96674 0.0
C3031 C 0.04206 0.00208 0.97827 0.0
H3032 H 0.73922 0.78122 0.71803 0.0
H3033 H 0.80884 0.82174 0.74184 0.0
H3034 H 0.8 0.79392 0.7665 0.0
H3035 H 0.69446 0.77589 0.7531 0.0
H3036 H 0.68117 0.74201 0.74765 0.0
H3037 H 0.69237 0.76583 0.73212 0.0
H3038 H 0.72635 0.72849 0.72099 0.0
H3039 H 0.71528 0.70456 0.7365 0.0
H3040 H 0.7517 0.71305 0.73436 0.0
H3041 H 0.7846 0.76065 0.78816 0.0
H3042 H 0.76334 0.72448 0.80553 0.0
H3043 H 0.70384 0.70523 0.76765 0.0
C3044 C 0.75263 0.78411 0.72844 0.0
C3045 C 0.77476 0.80353 0.72808 0.0
C3046 C 0.79165 0.8071 0.74196 0.0
C3047 C 0.78686 0.79132 0.75597 0.0
C3048 C 0.76507 0.77209 0.75588 0.0
C3049 C 0.74819 0.76844 0.74249 0.0
C3050 C 0.72649 0.74604 0.74547 0.0
C3051 C 0.69687 0.75818 0.74453 0.0
C3052 C 0.73019 0.72159 0.73362 0.0
C3053 C 0.73387 0.7376 0.7626 0.0
C3054 C 0.75615 0.75293 0.76838 0.0
C3055 C 0.76701 0.74866 0.78381 0.0
C3056 C 0.75473 0.72821 0.79361 0.0
C3057 C 0.73183 0.71235 0.78796 0.0
C3058 C 0.72134 0.71711 0.77224 0.0
H3059 H 0.79539 0.2954 0.26452 0.0
H3060 H 0.72453 0.28506 0.29648 0.0
H3061 H 0.70374 0.25123 0.27745 0.0
H3062 H 0.75527 0.29005 0.22651 0.0
H3063 H 0.78251 0.27136 0.21615 0.0
H3064 H 0.79123 0.29577 0.23194 0.0
H3065 H 0.81838 0.25699 0.247 0.0
H3066 H 0.80952 0.23241 0.23136 0.0
H3067 H 0.80085 0.22494 0.25212 0.0
H3068 H 0.69225 0.21616 0.25613 0.0
H3069 H 0.68861 0.18501 0.23235 0.0
H3070 H 0.76592 0.21862 0.21351 0.0
C3071 C 0.7753 0.2863 0.26731 0.0
C3072 C 0.7616 0.29256 0.28199 0.0
C3073 C 0.73542 0.28024 0.28535 0.0
C3074 C 0.72346 0.26105 0.27462 0.0
C3075 C 0.7378 0.25464 0.26046 0.0
C3076 C 0.76293 0.26715 0.25663 0.0
C3077 C 0.77403 0.25622 0.24064 0.0
C3078 C 0.77586 0.27976 0.22807 0.0
C3079 C 0.80237 0.24178 0.24293 0.0
C3080 C 0.75143 0.23538 0.23627 0.0
C3081 C 0.73078 0.23477 0.24791 0.0
C3082 C 0.70813 0.21663 0.24684 0.0
C3083 C 0.70631 0.19892 0.23339 0.0
C3084 C 0.72688 0.19961 0.22115 0.0
C3085 C 0.7498 0.21796 0.22267 0.0
H3086 H 0.77624 0.19451 0.76388 0.0
H3087 H 0.71506 0.21607 0.80033 0.0
H3088 H 0.69346 0.24981 0.7815 0.0
H3089 H 0.78661 0.26303 0.74957 0.0
H3090 H 0.79073 0.25349 0.72862 0.0
H3091 H 0.79967 0.229 0.74427 0.0
H3092 H 0.76608 0.19263 0.73174 0.0
H3093 H 0.75707 0.21701 0.71599 0.0
H3094 H 0.73011 0.20183 0.72836 0.0
H3095 H 0.68034 0.28297 0.75957 0.0
H3096 H 0.67674 0.31413 0.73585 0.0
H3097 H 0.74725 0.27249 0.71371 0.0
C3098 C 0.75797 0.20602 0.7677 0.0
C3099 C 0.74712 0.20278 0.78345 0.0
C3100 C 0.72356 0.21841 0.78827 0.0
C3101 C 0.71116 0.2375 0.77766 0.0
C3102 C 0.72262 0.24069 0.76229 0.0
C3103 C 0.74549 0.2254 0.75728 0.0
C3104 C 0.75474 0.2342 0.74049 0.0
C3105 C 0.78471 0.24561 0.74077 0.0
C3106 C 0.75182 0.20997 0.72843 0.0
C3107 C 0.73378 0.25706 0.73697 0.0
C3108 C 0.71529 0.26024 0.74966 0.0
C3109 C 0.69456 0.28056 0.7495 0.0
C3110 C 0.69275 0.29822 0.73605 0.0
C3111 C 0.71162 0.29555 0.723 0.0
C3112 C 0.73229 0.27461 0.72344 0.0
H3113 H 0.71564 0.80306 0.26451 0.0
H3114 H 0.77199 0.78188 0.3036 0.0
H3115 H 0.79529 0.74727 0.28605 0.0
H3116 H 0.70675 0.7339 0.24979 0.0
H3117 H 0.70551 0.74373 0.22876 0.0
H3118 H 0.69439 0.76799 0.24407 0.0
H3119 H 0.72953 0.80454 0.23322 0.0
H3120 H 0.74081 0.78033 0.21789 0.0
H3121 H 0.76588 0.79547 0.23156 0.0
H3122 H 0.81138 0.71417 0.26473 0.0
H3123 H 0.81846 0.68341 0.24109 0.0
H3124 H 0.75101 0.72503 0.21592 0.0
C3125 C 0.73305 0.79125 0.26925 0.0
C3126 C 0.74204 0.79486 0.28536 0.0
C3127 C 0.7647 0.77904 0.29131 0.0
C3128 C 0.77813 0.75953 0.28142 0.0
C3129 C 0.76862 0.75618 0.26562 0.0
C3130 C 0.74657 0.77151 0.25955 0.0
C3131 C 0.73971 0.76292 0.24236 0.0
C3132 C 0.70982 0.75145 0.24119 0.0
C3133 C 0.74426 0.78727 0.23056 0.0
C3134 C 0.76114 0.74015 0.23979 0.0
C3135 C 0.77775 0.73681 0.25332 0.0
C3136 C 0.79861 0.71667 0.25404 0.0
C3137 C 0.80244 0.69929 0.24061 0.0
C3138 C 0.78543 0.70212 0.22673 0.0
C3139 C 0.76463 0.72288 0.2263 0.0
H3140 H 0.4654 0.54601 0.98324 0.0
H3141 H 0.4779 0.48124 0.94743 0.0
H3142 H 0.51444 0.46003 0.9646 0.0
H3143 H 0.53742 0.55289 0.99583 0.0
H3144 H 0.5288 0.55789 0.01685 0.0
H3145 H 0.50467 0.56864 1.00137 0.0
H3146 H 0.46606 0.5382 0.01439 0.0
H3147 H 0.49007 0.52736 0.02992 0.0
H3148 H 0.47245 0.50162 0.01775 0.0
H3149 H 0.54875 0.44533 0.98601 0.0
H3150 H 0.57741 0.43748 0.01054 0.0
H3151 H 0.5419 0.51139 0.03251 0.0
C3152 C 0.47595 0.52741 0.97905 0.0
C3153 C 0.4692 0.51537 0.96399 0.0
C3154 C 0.48323 0.491 0.95883 0.0
C3155 C 0.50388 0.47878 0.96852 0.0
C3156 C 0.51007 0.49115 0.98334 0.0
C3157 C 0.49647 0.51488 0.98861 0.0
C3158 C 0.50637 0.52351 0.00526 0.0
C3159 C 0.52014 0.55245 0.00479 0.0
C3160 C 0.4823 0.52261 0.01755 0.0
C3161 C 0.52756 0.50086 0.00857 0.0
C3162 C 0.5295 0.48247 0.99575 0.0
C3163 C 0.54746 0.45963 0.99611 0.0
C3164 C 0.56366 0.45536 0.01001 0.0
C3165 C 0.56162 0.47376 0.02332 0.0
C3166 C 0.54357 0.49691 0.0225 0.0
H3167 H 0.04144 0.45617 0.48471 0.0
H3168 H 0.02572 0.51885 0.44811 0.0
H3169 H 0.99051 0.54091 0.46584 0.0
H3170 H 0.97022 0.44915 0.49836 0.0
H3171 H 0.97957 0.44489 0.51934 0.0
H3172 H 0.00333 0.43396 0.50371 0.0
H3173 H 0.04196 0.46526 0.51601 0.0
H3174 H 0.01832 0.47628 0.53168 0.0
H3175 H 0.03524 0.50184 0.51908 0.0
H3176 H 0.95755 0.55649 0.48772 0.0
H3177 H 0.9294 0.56465 0.51239 0.0
H3178 H 0.96582 0.49133 0.53453 0.0
C3179 C 0.0305 0.47453 0.48049 0.0
C3180 C 0.03595 0.48574 0.46504 0.0
C3181 C 0.02143 0.5098 0.45985 0.0
C3182 C 0.00152 0.52248 0.46984 0.0
C3183 C 0.99644 0.51084 0.48499 0.0
C3184 C 0.01049 0.48741 0.49032 0.0
C3185 C 0.0012 0.47918 0.50717 0.0
C3186 C 0.98778 0.45007 0.50713 0.0
C3187 C 0.02564 0.48074 0.51919 0.0
C3188 C 0.97982 0.50169 0.5105 0.0
C3189 C 0.97739 0.51976 0.49756 0.0
C3190 C 0.95922 0.54243 0.49791 0.0
C3191 C 0.94327 0.54686 0.51191 0.0
C3192 C 0.94563 0.52871 0.52531 0.0
C3193 C 0.96391 0.5057 0.52449 0.0
H3194 H 0.01913 0.53989 0.03225 0.0
H3195 H 0.0795 0.47301 0.02875 0.0
H3196 H 0.0511 0.45064 0.00736 0.0
H3197 H 0.95788 0.49743 0.02656 0.0
H3198 H 0.93962 0.52308 0.01467 0.0
H3199 H 0.96473 0.53401 0.0296 0.0
H3200 H 0.99186 0.56162 0.00774 0.0
H3201 H 0.96667 0.55106 0.9928 0.0
H3202 H 0.00317 0.54401 0.98963 0.0
H3203 H 0.01613 0.4355 0.98663 0.0
H3204 H 0.97842 0.43015 0.96643 0.0
H3205 H 0.94039 0.50668 0.98333 0.0
C3206 C 0.02632 0.52059 0.02688 0.0
C3207 C 0.05148 0.50813 0.032 0.0
C3208 C 0.0604 0.48294 0.0248 0.0
C3209 C 0.04432 0.47002 0.01277 0.0
C3210 C 0.01938 0.48261 0.00812 0.0
C3211 C 0.01049 0.50744 0.01485 0.0
C3212 C 0.98309 0.51679 0.00749 0.0
C3213 C 0.95996 0.51789 0.02035 0.0
C3214 C 0.98641 0.54504 0.9989 0.0
C3215 C 0.97802 0.49344 0.99549 0.0
C3216 C 0.99914 0.47384 0.99616 0.0
C3217 C 0.99946 0.45065 0.98602 0.0
C3218 C 0.97798 0.44772 0.97466 0.0
C3219 C 0.95658 0.46789 0.97349 0.0
C3220 C 0.95635 0.49079 0.9842 0.0
H3221 H 0.52341 0.54746 0.47305 0.0
H3222 H 0.5773 0.47531 0.46934 0.0
H3223 H 0.54735 0.44985 0.48876 0.0
H3224 H 0.51032 0.54162 0.51555 0.0
H3225 H 0.47451 0.55275 0.51422 0.0
H3226 H 0.49951 0.56473 0.49954 0.0
H3227 H 0.46834 0.54571 0.47643 0.0
H3228 H 0.44329 0.53353 0.49106 0.0
H3229 H 0.45797 0.50959 0.47658 0.0
H3230 H 0.51216 0.43267 0.50882 0.0
H3231 H 0.47511 0.42553 0.52925 0.0
H3232 H 0.44445 0.5091 0.52046 0.0
C3233 C 0.52873 0.52627 0.47635 0.0
C3234 C 0.55261 0.51324 0.46988 0.0
C3235 C 0.55915 0.48558 0.47436 0.0
C3236 C 0.54221 0.47098 0.48528 0.0
C3237 C 0.51883 0.4844 0.49155 0.0
C3238 C 0.5121 0.51145 0.48732 0.0
C3239 C 0.48634 0.52134 0.49625 0.0
C3240 C 0.49309 0.5466 0.50703 0.0
C3241 C 0.46258 0.52793 0.48437 0.0
C3242 C 0.47979 0.49572 0.50628 0.0
C3243 C 0.49866 0.47457 0.50326 0.0
C3244 C 0.49724 0.44905 0.51126 0.0
C3245 C 0.47621 0.44518 0.52282 0.0
C3246 C 0.45708 0.46675 0.52632 0.0
C3247 C 0.4587 0.4922 0.51782 0.0
loop_
_geom_bond_atom_site_label_1
_geom_bond_atom_site_label_2
_geom_bond_distance
_geom_bond_site_symmetry_2
_ccdc_geom_bond_type
Co0 O3 1.970 . S
Co0 N17 1.989 . S
Co0 O25 1.967 . S
Co0 O32 1.920 . S
Co1 O4 1.966 . S
Co1 N10 2.022 . S
Co1 N18 1.993 . S
Co1 O26 1.941 . S
C2 O3 1.258 . S
C2 O4 1.263 . S
O3 Co0 1.970 . S
O3 C2 1.258 . S
O4 Co1 1.966 . S
O4 C2 1.263 . S
C5 O6 1.235 . S
C5 O32 1.289 . S
O6 C5 1.235 . S
C7 C9 1.400 . S
C7 N10 1.351 . S
C7 C12 1.501 . S
C8 C9 1.387 . S
C8 N11 1.341 . S
C9 C7 1.400 . S
C9 C8 1.387 . S
N10 Co1 2.022 . S
N10 C7 1.351 . S
N10 N11 1.365 . S
N11 C8 1.341 . S
N11 N10 1.365 . S
N11 H31 0.862 . S
C12 C7 1.501 . S
C12 H13 0.961 . S
C12 H14 0.961 . S
C12 H15 0.960 . S
H13 C12 0.961 . S
H14 C12 0.961 . S
H15 C12 0.960 . S
C16 N17 1.342 . S
C16 C20 1.401 . S
C16 C21 1.499 . S
N17 Co0 1.989 . S
N17 C16 1.342 . S
N17 N18 1.388 . S
N18 Co1 1.993 . S
N18 N17 1.388 . S
N18 C19 1.346 . S
C19 N18 1.346 . S
C19 C20 1.396 . S
C19 C29 1.510 . S
C20 C16 1.401 . S
C20 C19 1.396 . S
C21 C16 1.499 . S
C21 H22 0.959 . S
C21 H23 0.960 . S
C21 H24 0.961 . S
H22 C21 0.959 . S
H23 C21 0.960 . S
H24 C21 0.961 . S
O25 Co0 1.967 . S
O25 C33 1.258 . S
O26 Co1 1.941 . S
O26 C33 1.266 . S
H27 C29 0.959 . S
H28 C29 0.961 . S
C29 C19 1.510 . S
C29 H27 0.959 . S
C29 H28 0.961 . S
C29 H30 0.960 . S
H30 C29 0.960 . S
H31 N11 0.862 . S
O32 Co0 1.920 . S
O32 C5 1.289 . S
C33 O25 1.258 . S
C33 O26 1.266 . S
Co34 O37 1.970 . S
Co34 N51 1.989 . S
Co34 O59 1.967 . S
Co34 O66 1.920 . S
Co35 O38 1.966 . S
Co35 N44 2.022 . S
Co35 N52 1.993 . S
Co35 O60 1.941 . S
C36 O37 1.258 . S
C36 O38 1.263 . S
O37 Co34 1.970 . S
O37 C36 1.258 . S
O38 Co35 1.966 . S
O38 C36 1.263 . S
C39 O40 1.235 . S
C39 O66 1.289 . S
O40 C39 1.235 . S
C41 C43 1.400 . S
C41 N44 1.351 . S
C41 C46 1.501 . S
C42 C43 1.387 . S
C42 N45 1.341 . S
C43 C41 1.400 . S
C43 C42 1.387 . S
N44 Co35 2.022 . S
N44 C41 1.351 . S
N44 N45 1.365 . S
N45 C42 1.341 . S
N45 N44 1.365 . S
N45 H65 0.901 . S
C46 C41 1.501 . S
C46 H47 0.961 . S
C46 H48 0.961 . S
C46 H49 0.960 . S
H47 C46 0.961 . S
H48 C46 0.961 . S
H49 C46 0.960 . S
C50 N51 1.342 . S
C50 C54 1.401 . S
C50 C55 1.499 . S
N51 Co34 1.989 . S
N51 C50 1.342 . S
N51 N52 1.388 . S
N52 Co35 1.993 . S
N52 N51 1.388 . S
N52 C53 1.346 . S
C53 N52 1.346 . S
C53 C54 1.396 . S
C53 C63 1.510 . S
C54 C50 1.401 . S
C54 C53 1.396 . S
C55 C50 1.499 . S
C55 H56 0.959 . S
C55 H57 0.960 . S
C55 H58 0.961 1_565 S
H56 C55 0.959 . S
H57 C55 0.960 . S
H58 C55 0.961 1_545 S
O59 Co34 1.967 . S
O59 C67 1.258 . S
O60 Co35 1.941 . S
O60 C67 1.266 . S
H61 C63 0.959 . S
H62 C63 0.961 . S
C63 C53 1.510 . S
C63 H61 0.959 . S
C63 H62 0.961 . S
C63 H64 0.960 . S
H64 C63 0.960 . S
H65 N45 0.901 . S
O66 Co34 1.920 . S
O66 C39 1.289 . S
C67 O59 1.258 . S
C67 O60 1.266 . S
Co68 O71 1.970 . S
Co68 N85 1.989 . S
Co68 O93 1.967 . S
Co68 O100 1.920 . S
Co69 O72 1.966 . S
Co69 N78 2.022 . S
Co69 N86 1.993 . S
Co69 O94 1.941 . S
C70 O71 1.258 . S
C70 O72 1.263 . S
O71 Co68 1.970 . S
O71 C70 1.258 . S
O72 Co69 1.966 . S
O72 C70 1.263 . S
C73 O74 1.235 . S
C73 O100 1.289 . S
O74 C73 1.235 . S
C75 C77 1.400 . S
C75 N78 1.351 . S
C75 C80 1.501 . S
C76 C77 1.387 . S
C76 N79 1.341 . S
C77 C75 1.400 . S
C77 C76 1.387 . S
N78 Co69 2.022 . S
N78 C75 1.351 . S
N78 N79 1.365 . S
N79 C76 1.341 . S
N79 N78 1.365 . S
N79 H99 0.862 . S
C80 C75 1.501 . S
C80 H81 0.961 . S
C80 H82 0.961 . S
C80 H83 0.960 . S
H81 C80 0.961 . S
H82 C80 0.961 . S
H83 C80 0.960 . S
C84 N85 1.342 . S
C84 C88 1.401 . S
C84 C89 1.499 . S
N85 Co68 1.989 . S
N85 C84 1.342 . S
N85 N86 1.388 . S
N86 Co69 1.993 . S
N86 N85 1.388 . S
N86 C87 1.346 . S
C87 N86 1.346 . S
C87 C88 1.396 . S
C87 C97 1.510 . S
C88 C84 1.401 . S
C88 C87 1.396 . S
C89 C84 1.499 . S
C89 H90 0.959 . S
C89 H91 0.960 . S
C89 H92 0.961 . S
H90 C89 0.959 . S
H91 C89 0.960 . S
H92 C89 0.961 . S
O93 Co68 1.967 . S
O93 C101 1.258 . S
O94 Co69 1.941 . S
O94 C101 1.266 . S
H95 C97 0.959 . S
H96 C97 0.961 . S
C97 C87 1.510 . S
C97 H95 0.959 . S
C97 H96 0.961 . S
C97 H98 0.960 . S
H98 C97 0.960 . S
H99 N79 0.862 . S
O100 Co68 1.920 . S
O100 C73 1.289 . S
C101 O93 1.258 . S
C101 O94 1.266 . S
Co102 O105 1.970 . S
Co102 N119 1.989 . S
Co102 O127 1.967 . S
Co102 O134 1.920 . S
Co103 O106 1.966 . S
Co103 N112 2.022 . S
Co103 N120 1.993 . S
Co103 O128 1.941 . S
C104 O105 1.258 . S
C104 O106 1.263 . S
O105 Co102 1.970 . S
O105 C104 1.258 . S
O106 Co103 1.966 . S
O106 C104 1.263 . S
C107 O108 1.235 . S
C107 O134 1.289 . S
O108 C107 1.235 . S
C109 C111 1.400 . S
C109 N112 1.351 . S
C109 C114 1.501 . S
C110 C111 1.387 . S
C110 N113 1.341 . S
C111 C109 1.400 . S
C111 C110 1.387 . S
N112 Co103 2.022 . S
N112 C109 1.351 . S
N112 N113 1.365 . S
N113 C110 1.341 . S
N113 N112 1.365 . S
N113 H133 0.901 . S
C114 C109 1.501 . S
C114 H115 0.961 . S
C114 H116 0.961 . S
C114 H117 0.960 . S
H115 C114 0.961 . S
H116 C114 0.961 . S
H117 C114 0.960 . S
C118 N119 1.342 . S
C118 C122 1.401 . S
C118 C123 1.499 . S
N119 Co102 1.989 . S
N119 C118 1.342 . S
N119 N120 1.388 . S
N120 Co103 1.993 . S
N120 N119 1.388 . S
N120 C121 1.346 . S
C121 N120 1.346 . S
C121 C122 1.396 . S
C121 C131 1.510 . S
C122 C118 1.401 . S
C122 C121 1.396 . S
C123 C118 1.499 . S
C123 H124 0.959 . S
C123 H125 0.960 . S
C123 H126 0.961 1_545 S
H124 C123 0.959 . S
H125 C123 0.960 . S
H126 C123 0.961 1_565 S
O127 Co102 1.967 . S
O127 C135 1.258 . S
O128 Co103 1.941 . S
O128 C135 1.266 . S
H129 C131 0.959 . S
H130 C131 0.961 . S
C131 C121 1.510 . S
C131 H129 0.959 . S
C131 H130 0.961 . S
C131 H132 0.960 . S
H132 C131 0.960 . S
H133 N113 0.901 . S
O134 Co102 1.920 . S
O134 C107 1.289 . S
C135 O127 1.258 . S
C135 O128 1.266 . S
Co136 O139 1.970 . S
Co136 N153 1.989 . S
Co136 O161 1.967 . S
Co136 O168 1.920 . S
Co137 O140 1.966 . S
Co137 N146 2.022 . S
Co137 N154 1.993 . S
Co137 O162 1.941 . S
C138 O139 1.258 . S
C138 O140 1.263 . S
O139 Co136 1.970 . S
O139 C138 1.258 . S
O140 Co137 1.966 . S
O140 C138 1.263 . S
C141 O142 1.235 . S
C141 O168 1.289 . S
O142 C141 1.235 . S
C143 C145 1.400 . S
C143 N146 1.351 . S
C143 C148 1.501 . S
C144 C145 1.387 . S
C144 N147 1.341 . S
C145 C143 1.400 . S
C145 C144 1.387 . S
N146 Co137 2.022 . S
N146 C143 1.351 . S
N146 N147 1.365 . S
N147 C144 1.341 . S
N147 N146 1.365 . S
N147 H167 0.862 . S
C148 C143 1.501 . S
C148 H149 0.961 . S
C148 H150 0.961 . S
C148 H151 0.960 . S
H149 C148 0.961 . S
H150 C148 0.961 . S
H151 C148 0.960 . S
C152 N153 1.342 . S
C152 C156 1.401 . S
C152 C157 1.499 . S
N153 Co136 1.989 . S
N153 C152 1.342 . S
N153 N154 1.388 . S
N154 Co137 1.993 . S
N154 N153 1.388 . S
N154 C155 1.346 . S
C155 N154 1.346 . S
C155 C156 1.396 . S
C155 C165 1.510 . S
C156 C152 1.401 . S
C156 C155 1.396 . S
C157 C152 1.499 . S
C157 H158 0.959 . S
C157 H159 0.960 . S
C157 H160 0.961 . S
H158 C157 0.959 . S
H159 C157 0.960 . S
H160 C157 0.961 . S
O161 Co136 1.967 . S
O161 C169 1.258 . S
O162 Co137 1.941 . S
O162 C169 1.266 . S
H163 C165 0.959 . S
H164 C165 0.961 . S
C165 C155 1.510 . S
C165 H163 0.959 . S
C165 H164 0.961 . S
C165 H166 0.960 . S
H166 C165 0.960 . S
H167 N147 0.862 . S
O168 Co136 1.920 . S
O168 C141 1.289 . S
C169 O161 1.258 . S
C169 O162 1.266 . S
Co170 O173 1.970 . S
Co170 N187 1.989 . S
Co170 O195 1.967 . S
Co170 O202 1.920 . S
Co171 O174 1.966 . S
Co171 N180 2.022 . S
Co171 N188 1.993 . S
Co171 O196 1.941 . S
C172 O173 1.258 . S
C172 O174 1.263 . S
O173 Co170 1.970 . S
O173 C172 1.258 . S
O174 Co171 1.966 . S
O174 C172 1.263 . S
C175 O176 1.235 . S
C175 O202 1.289 . S
O176 C175 1.235 . S
C177 C179 1.400 . S
C177 N180 1.351 . S
C177 C182 1.501 . S
C178 C179 1.387 . S
C178 N181 1.341 . S
C179 C177 1.400 . S
C179 C178 1.387 . S
N180 Co171 2.022 . S
N180 C177 1.351 . S
N180 N181 1.365 . S
N181 C178 1.341 . S
N181 N180 1.365 . S
N181 H201 0.901 . S
C182 C177 1.501 . S
C182 H183 0.961 . S
C182 H184 0.961 . S
C182 H185 0.960 . S
H183 C182 0.961 . S
H184 C182 0.961 . S
H185 C182 0.960 . S
C186 N187 1.342 . S
C186 C190 1.401 . S
C186 C191 1.499 . S
N187 Co170 1.989 . S
N187 C186 1.342 . S
N187 N188 1.388 . S
N188 Co171 1.993 . S
N188 N187 1.388 . S
N188 C189 1.346 . S
C189 N188 1.346 . S
C189 C190 1.396 . S
C189 C199 1.510 . S
C190 C186 1.401 . S
C190 C189 1.396 . S
C191 C186 1.499 . S
C191 H192 0.959 . S
C191 H193 0.960 . S
C191 H194 0.961 1_565 S
H192 C191 0.959 . S
H193 C191 0.960 . S
H194 C191 0.961 1_545 S
O195 Co170 1.967 . S
O195 C203 1.258 . S
O196 Co171 1.941 . S
O196 C203 1.266 . S
H197 C199 0.959 . S
H198 C199 0.961 . S
C199 C189 1.510 . S
C199 H197 0.959 . S
C199 H198 0.961 . S
C199 H200 0.960 . S
H200 C199 0.960 . S
H201 N181 0.901 . S
O202 Co170 1.920 . S
O202 C175 1.289 . S
C203 O195 1.258 . S
C203 O196 1.266 . S
Co204 O207 1.970 . S
Co204 N221 1.989 . S
Co204 O229 1.967 . S
Co204 O236 1.920 . S
Co205 O208 1.966 . S
Co205 N214 2.022 . S
Co205 N222 1.993 . S
Co205 O230 1.941 . S
C206 O207 1.258 . S
C206 O208 1.263 . S
O207 Co204 1.970 . S
O207 C206 1.258 . S
O208 Co205 1.966 . S
O208 C206 1.263 . S
C209 O210 1.235 . S
C209 O236 1.289 . S
O210 C209 1.235 . S
C211 C213 1.400 . S
C211 N214 1.351 . S
C211 C216 1.501 . S
C212 C213 1.387 . S
C212 N215 1.341 . S
C213 C211 1.400 . S
C213 C212 1.387 . S
N214 Co205 2.022 . S
N214 C211 1.351 . S
N214 N215 1.365 . S
N215 C212 1.341 . S
N215 N214 1.365 . S
N215 H235 0.862 . S
C216 C211 1.501 . S
C216 H217 0.961 . S
C216 H218 0.961 . S
C216 H219 0.960 . S
H217 C216 0.961 . S
H218 C216 0.961 . S
H219 C216 0.960 . S
C220 N221 1.342 . S
C220 C224 1.401 . S
C220 C225 1.499 . S
N221 Co204 1.989 . S
N221 C220 1.342 . S
N221 N222 1.388 . S
N222 Co205 1.993 . S
N222 N221 1.388 . S
N222 C223 1.346 . S
C223 N222 1.346 . S
C223 C224 1.396 . S
C223 C233 1.510 . S
C224 C220 1.401 . S
C224 C223 1.396 . S
C225 C220 1.499 . S
C225 H226 0.959 . S
C225 H227 0.960 . S
C225 H228 0.961 . S
H226 C225 0.959 . S
H227 C225 0.960 . S
H228 C225 0.961 . S
O229 Co204 1.967 . S
O229 C237 1.258 . S
O230 Co205 1.941 . S
O230 C237 1.266 . S
H231 C233 0.959 . S
H232 C233 0.961 . S
C233 C223 1.510 . S
C233 H231 0.959 . S
C233 H232 0.961 . S
C233 H234 0.960 . S
H234 C233 0.960 . S
H235 N215 0.862 . S
O236 Co204 1.920 . S
O236 C209 1.289 . S
C237 O229 1.258 . S
C237 O230 1.266 . S
Co238 O241 1.970 . S
Co238 N255 1.989 . S
Co238 O263 1.967 . S
Co238 O270 1.920 . S
Co239 O242 1.966 . S
Co239 N248 2.022 . S
Co239 N256 1.993 . S
Co239 O264 1.941 . S
C240 O241 1.258 . S
C240 O242 1.263 . S
O241 Co238 1.970 . S
O241 C240 1.258 . S
O242 Co239 1.966 . S
O242 C240 1.263 . S
C243 O244 1.235 . S
C243 O270 1.289 . S
O244 C243 1.235 . S
C245 C247 1.400 . S
C245 N248 1.351 . S
C245 C250 1.501 . S
C246 C247 1.387 . S
C246 N249 1.341 . S
C247 C245 1.400 . S
C247 C246 1.387 . S
N248 Co239 2.022 . S
N248 C245 1.351 . S
N248 N249 1.365 . S
N249 C246 1.341 . S
N249 N248 1.365 . S
N249 H269 0.901 . S
C250 C245 1.501 . S
C250 H251 0.961 . S
C250 H252 0.961 . S
C250 H253 0.960 . S
H251 C250 0.961 . S
H252 C250 0.961 . S
H253 C250 0.960 . S
C254 N255 1.342 . S
C254 C258 1.401 . S
C254 C259 1.499 . S
N255 Co238 1.989 . S
N255 C254 1.342 . S
N255 N256 1.388 . S
N256 Co239 1.993 . S
N256 N255 1.388 . S
N256 C257 1.346 . S
C257 N256 1.346 . S
C257 C258 1.396 . S
C257 C267 1.510 . S
C258 C254 1.401 . S
C258 C257 1.396 . S
C259 C254 1.499 . S
C259 H260 0.959 . S
C259 H261 0.960 . S
C259 H262 0.961 1_545 S
H260 C259 0.959 . S
H261 C259 0.960 . S
H262 C259 0.961 1_565 S
O263 Co238 1.967 . S
O263 C271 1.258 . S
O264 Co239 1.941 . S
O264 C271 1.266 . S
H265 C267 0.959 . S
H266 C267 0.961 . S
C267 C257 1.510 . S
C267 H265 0.959 . S
C267 H266 0.961 . S
C267 H268 0.960 . S
H268 C267 0.960 . S
H269 N249 0.901 . S
O270 Co238 1.920 . S
O270 C243 1.289 . S
C271 O263 1.258 . S
C271 O264 1.266 . S
Co272 O275 1.970 . S
Co272 N289 1.989 . S
Co272 O297 1.967 . S
Co272 O304 1.920 . S
Co273 O276 1.966 . S
Co273 N282 2.022 . S
Co273 N290 1.993 . S
Co273 O298 1.941 . S
C274 O275 1.258 . S
C274 O276 1.263 . S
O275 Co272 1.970 . S
O275 C274 1.258 . S
O276 Co273 1.966 . S
O276 C274 1.263 . S
C277 O278 1.235 . S
C277 O304 1.289 . S
O278 C277 1.235 . S
C279 C281 1.400 . S
C279 N282 1.351 . S
C279 C284 1.501 . S
C280 C281 1.387 . S
C280 N283 1.341 . S
C281 C279 1.400 . S
C281 C280 1.387 . S
N282 Co273 2.022 . S
N282 C279 1.351 . S
N282 N283 1.365 . S
N283 C280 1.341 . S
N283 N282 1.365 . S
N283 H303 0.862 . S
C284 C279 1.501 . S
C284 H285 0.961 . S
C284 H286 0.961 . S
C284 H287 0.960 . S
H285 C284 0.961 . S
H286 C284 0.961 . S
H287 C284 0.960 . S
C288 N289 1.342 . S
C288 C292 1.401 . S
C288 C293 1.499 . S
N289 Co272 1.989 . S
N289 C288 1.342 . S
N289 N290 1.388 . S
N290 Co273 1.993 . S
N290 N289 1.388 . S
N290 C291 1.346 . S
C291 N290 1.346 . S
C291 C292 1.396 . S
C291 C301 1.510 . S
C292 C288 1.401 . S
C292 C291 1.396 . S
C293 C288 1.499 . S
C293 H294 0.959 . S
C293 H295 0.960 . S
C293 H296 0.961 . S
H294 C293 0.959 . S
H295 C293 0.960 . S
H296 C293 0.961 . S
O297 Co272 1.967 . S
O297 C305 1.258 . S
O298 Co273 1.941 . S
O298 C305 1.266 . S
H299 C301 0.959 . S
H300 C301 0.961 . S
C301 C291 1.510 . S
C301 H299 0.959 . S
C301 H300 0.961 . S
C301 H302 0.960 . S
H302 C301 0.960 . S
H303 N283 0.862 . S
O304 Co272 1.920 . S
O304 C277 1.289 . S
C305 O297 1.258 . S
C305 O298 1.266 . S
Co306 O309 1.970 . S
Co306 N323 1.989 . S
Co306 O331 1.967 . S
Co306 O338 1.920 . S
Co307 O310 1.966 . S
Co307 N316 2.022 . S
Co307 N324 1.993 . S
Co307 O332 1.941 . S
C308 O309 1.258 . S
C308 O310 1.263 . S
O309 Co306 1.970 . S
O309 C308 1.258 . S
O310 Co307 1.966 . S
O310 C308 1.263 . S
C311 O312 1.235 . S
C311 O338 1.289 . S
O312 C311 1.235 . S
C313 C315 1.400 . S
C313 N316 1.351 . S
C313 C318 1.501 . S
C314 C315 1.387 . S
C314 N317 1.341 . S
C315 C313 1.400 . S
C315 C314 1.387 . S
N316 Co307 2.022 . S
N316 C313 1.351 . S
N316 N317 1.365 . S
N317 C314 1.341 . S
N317 N316 1.365 . S
N317 H337 0.901 . S
C318 C313 1.501 . S
C318 H319 0.961 . S
C318 H320 0.961 . S
C318 H321 0.960 . S
H319 C318 0.961 . S
H320 C318 0.961 . S
H321 C318 0.960 . S
C322 N323 1.342 . S
C322 C326 1.401 . S
C322 C327 1.499 . S
N323 Co306 1.989 . S
N323 C322 1.342 . S
N323 N324 1.388 . S
N324 Co307 1.993 . S
N324 N323 1.388 . S
N324 C325 1.346 . S
C325 N324 1.346 . S
C325 C326 1.396 . S
C325 C335 1.510 . S
C326 C322 1.401 . S
C326 C325 1.396 . S
C327 C322 1.499 . S
C327 H328 0.959 . S
C327 H329 0.960 . S
C327 H330 0.961 1_545 S
H328 C327 0.959 . S
H329 C327 0.960 . S
H330 C327 0.961 1_565 S
O331 Co306 1.967 . S
O331 C339 1.258 . S
O332 Co307 1.941 . S
O332 C339 1.266 . S
H333 C335 0.959 . S
H334 C335 0.961 . S
C335 C325 1.510 . S
C335 H333 0.959 . S
C335 H334 0.961 . S
C335 H336 0.960 . S
H336 C335 0.960 . S
H337 N317 0.901 . S
O338 Co306 1.920 . S
O338 C311 1.289 . S
C339 O331 1.258 . S
C339 O332 1.266 . S
Co340 O343 1.970 . S
Co340 N357 1.989 . S
Co340 O365 1.967 . S
Co340 O372 1.920 . S
Co341 O344 1.966 . S
Co341 N350 2.022 . S
Co341 N358 1.993 . S
Co341 O366 1.941 . S
C342 O343 1.258 . S
C342 O344 1.263 . S
O343 Co340 1.970 . S
O343 C342 1.258 . S
O344 Co341 1.966 . S
O344 C342 1.263 . S
C345 O346 1.235 . S
C345 O372 1.289 . S
O346 C345 1.235 . S
C347 C349 1.400 . S
C347 N350 1.351 . S
C347 C352 1.501 . S
C348 C349 1.387 . S
C348 N351 1.341 . S
C349 C347 1.400 . S
C349 C348 1.387 . S
N350 Co341 2.022 . S
N350 C347 1.351 . S
N350 N351 1.365 . S
N351 C348 1.341 . S
N351 N350 1.365 . S
N351 H371 0.862 . S
C352 C347 1.501 . S
C352 H353 0.961 . S
C352 H354 0.961 . S
C352 H355 0.960 . S
H353 C352 0.961 . S
H354 C352 0.961 . S
H355 C352 0.960 . S
C356 N357 1.342 . S
C356 C360 1.401 . S
C356 C361 1.499 . S
N357 Co340 1.989 . S
N357 C356 1.342 . S
N357 N358 1.388 . S
N358 Co341 1.993 . S
N358 N357 1.388 . S
N358 C359 1.346 . S
C359 N358 1.346 . S
C359 C360 1.396 . S
C359 C369 1.510 . S
C360 C356 1.401 . S
C360 C359 1.396 . S
C361 C356 1.499 . S
C361 H362 0.959 . S
C361 H363 0.960 . S
C361 H364 0.961 . S
H362 C361 0.959 . S
H363 C361 0.960 . S
H364 C361 0.961 . S
O365 Co340 1.967 . S
O365 C373 1.258 . S
O366 Co341 1.941 . S
O366 C373 1.266 . S
H367 C369 0.959 . S
H368 C369 0.961 . S
C369 C359 1.510 . S
C369 H367 0.959 . S
C369 H368 0.961 . S
C369 H370 0.960 . S
H370 C369 0.960 . S
H371 N351 0.862 . S
O372 Co340 1.920 . S
O372 C345 1.289 . S
C373 O365 1.258 . S
C373 O366 1.266 . S
Co374 O377 1.970 . S
Co374 N391 1.989 . S
Co374 O399 1.967 . S
Co374 O406 1.920 . S
Co375 O378 1.966 . S
Co375 N384 2.022 . S
Co375 N392 1.993 . S
Co375 O400 1.941 . S
C376 O377 1.258 . S
C376 O378 1.263 . S
O377 Co374 1.970 . S
O377 C376 1.258 . S
O378 Co375 1.966 . S
O378 C376 1.263 . S
C379 O380 1.235 . S
C379 O406 1.289 . S
O380 C379 1.235 . S
C381 C383 1.400 . S
C381 N384 1.351 . S
C381 C386 1.501 . S
C382 C383 1.387 . S
C382 N385 1.341 . S
C383 C381 1.400 . S
C383 C382 1.387 . S
N384 Co375 2.022 . S
N384 C381 1.351 . S
N384 N385 1.365 . S
N385 C382 1.341 . S
N385 N384 1.365 . S
N385 H405 0.901 . S
C386 C381 1.501 . S
C386 H387 0.961 . S
C386 H388 0.961 . S
C386 H389 0.960 . S
H387 C386 0.961 . S
H388 C386 0.961 . S
H389 C386 0.960 . S
C390 N391 1.342 . S
C390 C394 1.401 . S
C390 C395 1.499 . S
N391 Co374 1.989 . S
N391 C390 1.342 . S
N391 N392 1.388 . S
N392 Co375 1.993 . S
N392 N391 1.388 . S
N392 C393 1.346 . S
C393 N392 1.346 . S
C393 C394 1.396 . S
C393 C403 1.510 . S
C394 C390 1.401 . S
C394 C393 1.396 . S
C395 C390 1.499 . S
C395 H396 0.959 . S
C395 H397 0.960 . S
C395 H398 0.961 1_565 S
H396 C395 0.959 . S
H397 C395 0.960 . S
H398 C395 0.961 1_545 S
O399 Co374 1.967 . S
O399 C407 1.258 . S
O400 Co375 1.941 . S
O400 C407 1.266 . S
H401 C403 0.959 . S
H402 C403 0.961 . S
C403 C393 1.510 . S
C403 H401 0.959 . S
C403 H402 0.961 . S
C403 H404 0.960 . S
H404 C403 0.960 . S
H405 N385 0.901 . S
O406 Co374 1.920 . S
O406 C379 1.289 . S
C407 O399 1.258 . S
C407 O400 1.266 . S
Co408 O411 1.970 . S
Co408 N425 1.989 . S
Co408 O433 1.967 . S
Co408 O440 1.920 . S
Co409 O412 1.966 . S
Co409 N418 2.022 . S
Co409 N426 1.993 . S
Co409 O434 1.941 . S
C410 O411 1.258 . S
C410 O412 1.263 . S
O411 Co408 1.970 . S
O411 C410 1.258 . S
O412 Co409 1.966 . S
O412 C410 1.263 . S
C413 O414 1.235 . S
C413 O440 1.289 . S
O414 C413 1.235 . S
C415 C417 1.400 . S
C415 N418 1.351 . S
C415 C420 1.501 . S
C416 C417 1.387 . S
C416 N419 1.341 . S
C417 C415 1.400 . S
C417 C416 1.387 . S
N418 Co409 2.022 . S
N418 C415 1.351 . S
N418 N419 1.365 . S
N419 C416 1.341 . S
N419 N418 1.365 . S
N419 H439 0.862 . S
C420 C415 1.501 . S
C420 H421 0.961 . S
C420 H422 0.961 . S
C420 H423 0.960 . S
H421 C420 0.961 . S
H422 C420 0.961 . S
H423 C420 0.960 . S
C424 N425 1.342 . S
C424 C428 1.401 . S
C424 C429 1.499 . S
N425 Co408 1.989 . S
N425 C424 1.342 . S
N425 N426 1.388 . S
N426 Co409 1.993 . S
N426 N425 1.388 . S
N426 C427 1.346 . S
C427 N426 1.346 . S
C427 C428 1.396 . S
C427 C437 1.510 . S
C428 C424 1.401 . S
C428 C427 1.396 . S
C429 C424 1.499 . S
C429 H430 0.959 . S
C429 H431 0.960 . S
C429 H432 0.961 . S
H430 C429 0.959 . S
H431 C429 0.960 . S
H432 C429 0.961 . S
O433 Co408 1.967 . S
O433 C441 1.258 . S
O434 Co409 1.941 . S
O434 C441 1.266 . S
H435 C437 0.959 . S
H436 C437 0.961 . S
C437 C427 1.510 . S
C437 H435 0.959 . S
C437 H436 0.961 . S
C437 H438 0.960 . S
H438 C437 0.960 . S
H439 N419 0.862 . S
O440 Co408 1.920 . S
O440 C413 1.289 . S
C441 O433 1.258 . S
C441 O434 1.266 . S
Co442 O445 1.970 . S
Co442 N459 1.989 . S
Co442 O467 1.967 . S
Co442 O474 1.920 . S
Co443 O446 1.966 . S
Co443 N452 2.022 . S
Co443 N460 1.993 . S
Co443 O468 1.941 . S
C444 O445 1.258 . S
C444 O446 1.263 . S
O445 Co442 1.970 . S
O445 C444 1.258 . S
O446 Co443 1.966 . S
O446 C444 1.263 . S
C447 O448 1.235 . S
C447 O474 1.289 . S
O448 C447 1.235 . S
C449 C451 1.400 . S
C449 N452 1.351 . S
C449 C454 1.501 . S
C450 C451 1.387 . S
C450 N453 1.341 . S
C451 C449 1.400 . S
C451 C450 1.387 . S
N452 Co443 2.022 . S
N452 C449 1.351 . S
N452 N453 1.365 . S
N453 C450 1.341 . S
N453 N452 1.365 . S
N453 H473 0.901 . S
C454 C449 1.501 . S
C454 H455 0.961 . S
C454 H456 0.961 . S
C454 H457 0.960 . S
H455 C454 0.961 . S
H456 C454 0.961 . S
H457 C454 0.960 . S
C458 N459 1.342 . S
C458 C462 1.401 . S
C458 C463 1.499 . S
N459 Co442 1.989 . S
N459 C458 1.342 . S
N459 N460 1.388 . S
N460 Co443 1.993 . S
N460 N459 1.388 . S
N460 C461 1.346 . S
C461 N460 1.346 . S
C461 C462 1.396 . S
C461 C471 1.510 . S
C462 C458 1.401 . S
C462 C461 1.396 . S
C463 C458 1.499 . S
C463 H464 0.959 . S
C463 H465 0.960 . S
C463 H466 0.961 1_545 S
H464 C463 0.959 . S
H465 C463 0.960 . S
H466 C463 0.961 1_565 S
O467 Co442 1.967 . S
O467 C475 1.258 . S
O468 Co443 1.941 . S
O468 C475 1.266 . S
H469 C471 0.959 . S
H470 C471 0.961 . S
C471 C461 1.510 . S
C471 H469 0.959 . S
C471 H470 0.961 . S
C471 H472 0.960 . S
H472 C471 0.960 . S
H473 N453 0.901 . S
O474 Co442 1.920 . S
O474 C447 1.289 . S
C475 O467 1.258 . S
C475 O468 1.266 . S
Co476 O479 1.970 . S
Co476 N493 1.989 . S
Co476 O501 1.967 . S
Co476 O508 1.920 . S
Co477 O480 1.966 . S
Co477 N486 2.022 . S
Co477 N494 1.993 . S
Co477 O502 1.941 . S
C478 O479 1.258 . S
C478 O480 1.263 . S
O479 Co476 1.970 . S
O479 C478 1.258 . S
O480 Co477 1.966 . S
O480 C478 1.263 . S
C481 O482 1.235 . S
C481 O508 1.289 . S
O482 C481 1.235 . S
C483 C485 1.400 . S
C483 N486 1.351 . S
C483 C488 1.501 . S
C484 C485 1.387 . S
C484 N487 1.341 . S
C485 C483 1.400 . S
C485 C484 1.387 . S
N486 Co477 2.022 . S
N486 C483 1.351 . S
N486 N487 1.365 . S
N487 C484 1.341 . S
N487 N486 1.365 . S
N487 H507 0.862 . S
C488 C483 1.501 . S
C488 H489 0.961 . S
C488 H490 0.961 . S
C488 H491 0.960 . S
H489 C488 0.961 . S
H490 C488 0.961 . S
H491 C488 0.960 . S
C492 N493 1.342 . S
C492 C496 1.401 . S
C492 C497 1.499 . S
N493 Co476 1.989 . S
N493 C492 1.342 . S
N493 N494 1.388 . S
N494 Co477 1.993 . S
N494 N493 1.388 . S
N494 C495 1.346 . S
C495 N494 1.346 . S
C495 C496 1.396 . S
C495 C505 1.510 . S
C496 C492 1.401 . S
C496 C495 1.396 . S
C497 C492 1.499 . S
C497 H498 0.959 . S
C497 H499 0.960 . S
C497 H500 0.961 . S
H498 C497 0.959 . S
H499 C497 0.960 . S
H500 C497 0.961 . S
O501 Co476 1.967 . S
O501 C509 1.258 . S
O502 Co477 1.941 . S
O502 C509 1.266 . S
H503 C505 0.959 . S
H504 C505 0.961 . S
C505 C495 1.510 . S
C505 H503 0.959 . S
C505 H504 0.961 . S
C505 H506 0.960 . S
H506 C505 0.960 . S
H507 N487 0.862 . S
O508 Co476 1.920 . S
O508 C481 1.289 . S
C509 O501 1.258 . S
C509 O502 1.266 . S
Co510 O513 1.970 . S
Co510 N527 1.989 . S
Co510 O535 1.967 . S
Co510 O542 1.920 . S
Co511 O514 1.966 . S
Co511 N520 2.022 . S
Co511 N528 1.993 . S
Co511 O536 1.941 . S
C512 O513 1.258 . S
C512 O514 1.263 . S
O513 Co510 1.970 . S
O513 C512 1.258 . S
O514 Co511 1.966 . S
O514 C512 1.263 . S
C515 O516 1.235 . S
C515 O542 1.289 . S
O516 C515 1.235 . S
C517 C519 1.400 . S
C517 N520 1.351 . S
C517 C522 1.501 . S
C518 C519 1.387 . S
C518 N521 1.341 . S
C519 C517 1.400 . S
C519 C518 1.387 . S
N520 Co511 2.022 . S
N520 C517 1.351 . S
N520 N521 1.365 . S
N521 C518 1.341 . S
N521 N520 1.365 . S
N521 H541 0.901 . S
C522 C517 1.501 . S
C522 H523 0.961 . S
C522 H524 0.961 . S
C522 H525 0.960 . S
H523 C522 0.961 . S
H524 C522 0.961 . S
H525 C522 0.960 . S
C526 N527 1.342 . S
C526 C530 1.401 . S
C526 C531 1.499 . S
N527 Co510 1.989 . S
N527 C526 1.342 . S
N527 N528 1.388 . S
N528 Co511 1.993 . S
N528 N527 1.388 . S
N528 C529 1.346 . S
C529 N528 1.346 . S
C529 C530 1.396 . S
C529 C539 1.510 . S
C530 C526 1.401 . S
C530 C529 1.396 . S
C531 C526 1.499 . S
C531 H532 0.959 . S
C531 H533 0.960 . S
C531 H534 0.961 1_565 S
H532 C531 0.959 . S
H533 C531 0.960 . S
H534 C531 0.961 1_545 S
O535 Co510 1.967 . S
O535 C543 1.258 . S
O536 Co511 1.941 . S
O536 C543 1.266 . S
H537 C539 0.959 . S
H538 C539 0.961 . S
C539 C529 1.510 . S
C539 H537 0.959 . S
C539 H538 0.961 . S
C539 H540 0.960 . S
H540 C539 0.960 . S
H541 N521 0.901 . S
O542 Co510 1.920 . S
O542 C515 1.289 . S
C543 O535 1.258 . S
C543 O536 1.266 . S
Co544 O547 1.970 . S
Co544 N561 1.989 . S
Co544 O569 1.967 . S
Co544 O576 1.920 . S
Co545 O548 1.966 . S
Co545 N554 2.022 . S
Co545 N562 1.993 . S
Co545 O570 1.941 . S
C546 O547 1.258 . S
C546 O548 1.263 . S
O547 Co544 1.970 . S
O547 C546 1.258 . S
O548 Co545 1.966 . S
O548 C546 1.263 . S
C549 O550 1.235 . S
C549 O576 1.289 . S
O550 C549 1.235 . S
C551 C553 1.400 . S
C551 N554 1.351 . S
C551 C556 1.501 . S
C552 C553 1.387 . S
C552 N555 1.341 . S
C553 C551 1.400 . S
C553 C552 1.387 . S
N554 Co545 2.022 . S
N554 C551 1.351 . S
N554 N555 1.365 . S
N555 C552 1.341 . S
N555 N554 1.365 . S
N555 H575 0.862 . S
C556 C551 1.501 . S
C556 H557 0.961 . S
C556 H558 0.961 . S
C556 H559 0.960 . S
H557 C556 0.961 . S
H558 C556 0.961 . S
H559 C556 0.960 . S
C560 N561 1.342 . S
C560 C564 1.401 . S
C560 C565 1.499 . S
N561 Co544 1.989 . S
N561 C560 1.342 . S
N561 N562 1.388 . S
N562 Co545 1.993 . S
N562 N561 1.388 . S
N562 C563 1.346 . S
C563 N562 1.346 . S
C563 C564 1.396 . S
C563 C573 1.510 . S
C564 C560 1.401 . S
C564 C563 1.396 . S
C565 C560 1.499 . S
C565 H566 0.959 . S
C565 H567 0.960 . S
C565 H568 0.961 . S
H566 C565 0.959 . S
H567 C565 0.960 . S
H568 C565 0.961 . S
O569 Co544 1.967 . S
O569 C577 1.258 . S
O570 Co545 1.941 . S
O570 C577 1.266 . S
H571 C573 0.959 . S
H572 C573 0.961 . S
C573 C563 1.510 . S
C573 H571 0.959 . S
C573 H572 0.961 . S
C573 H574 0.960 . S
H574 C573 0.960 . S
H575 N555 0.862 . S
O576 Co544 1.920 . S
O576 C549 1.289 . S
C577 O569 1.258 . S
C577 O570 1.266 . S
Co578 O581 1.970 . S
Co578 N595 1.989 . S
Co578 O603 1.967 . S
Co578 O610 1.920 . S
Co579 O582 1.966 . S
Co579 N588 2.022 . S
Co579 N596 1.993 . S
Co579 O604 1.941 . S
C580 O581 1.258 . S
C580 O582 1.263 . S
O581 Co578 1.970 . S
O581 C580 1.258 . S
O582 Co579 1.966 . S
O582 C580 1.263 . S
C583 O584 1.235 . S
C583 O610 1.289 . S
O584 C583 1.235 . S
C585 C587 1.400 . S
C585 N588 1.351 . S
C585 C590 1.501 . S
C586 C587 1.387 . S
C586 N589 1.341 . S
C587 C585 1.400 . S
C587 C586 1.387 . S
N588 Co579 2.022 . S
N588 C585 1.351 . S
N588 N589 1.365 . S
N589 C586 1.341 . S
N589 N588 1.365 . S
N589 H609 0.862 . S
C590 C585 1.501 . S
C590 H591 0.961 . S
C590 H592 0.961 . S
C590 H593 0.960 . S
H591 C590 0.961 . S
H592 C590 0.961 . S
H593 C590 0.960 . S
C594 N595 1.342 . S
C594 C598 1.401 . S
C594 C599 1.499 . S
N595 Co578 1.989 . S
N595 C594 1.342 . S
N595 N596 1.388 . S
N596 Co579 1.993 . S
N596 N595 1.388 . S
N596 C597 1.346 . S
C597 N596 1.346 . S
C597 C598 1.396 . S
C597 C607 1.510 . S
C598 C594 1.401 . S
C598 C597 1.396 . S
C599 C594 1.499 . S
C599 H600 0.959 . S
C599 H601 0.960 . S
C599 H602 0.961 . S
H600 C599 0.959 . S
H601 C599 0.960 . S
H602 C599 0.961 . S
O603 Co578 1.967 . S
O603 C611 1.258 . S
O604 Co579 1.941 . S
O604 C611 1.266 . S
H605 C607 0.959 . S
H606 C607 0.961 . S
C607 C597 1.510 . S
C607 H605 0.959 . S
C607 H606 0.961 . S
C607 H608 0.960 . S
H608 C607 0.960 . S
H609 N589 0.862 . S
O610 Co578 1.920 . S
O610 C583 1.289 . S
C611 O603 1.258 . S
C611 O604 1.266 . S
Co612 O615 1.970 . S
Co612 N629 1.989 . S
Co612 O637 1.967 . S
Co612 O644 1.920 . S
Co613 O616 1.966 . S
Co613 N622 2.022 . S
Co613 N630 1.993 . S
Co613 O638 1.941 . S
C614 O615 1.258 . S
C614 O616 1.263 . S
O615 Co612 1.970 . S
O615 C614 1.258 . S
O616 Co613 1.966 . S
O616 C614 1.263 . S
C617 O618 1.235 . S
C617 O644 1.289 . S
O618 C617 1.235 . S
C619 C621 1.400 . S
C619 N622 1.351 . S
C619 C624 1.501 . S
C620 C621 1.387 . S
C620 N623 1.341 . S
C621 C619 1.400 . S
C621 C620 1.387 . S
N622 Co613 2.022 . S
N622 C619 1.351 . S
N622 N623 1.365 . S
N623 C620 1.341 . S
N623 N622 1.365 . S
N623 H643 0.862 . S
C624 C619 1.501 . S
C624 H625 0.961 . S
C624 H626 0.961 . S
C624 H627 0.960 . S
H625 C624 0.961 . S
H626 C624 0.961 . S
H627 C624 0.960 . S
C628 N629 1.342 . S
C628 C632 1.401 . S
C628 C633 1.499 . S
N629 Co612 1.989 . S
N629 C628 1.342 . S
N629 N630 1.388 . S
N630 Co613 1.993 . S
N630 N629 1.388 . S
N630 C631 1.346 . S
C631 N630 1.346 . S
C631 C632 1.396 . S
C631 C641 1.510 . S
C632 C628 1.401 . S
C632 C631 1.396 . S
C633 C628 1.499 . S
C633 H634 0.959 . S
C633 H635 0.960 . S
C633 H636 0.961 . S
H634 C633 0.959 . S
H635 C633 0.960 . S
H636 C633 0.961 . S
O637 Co612 1.967 . S
O637 C645 1.258 . S
O638 Co613 1.941 . S
O638 C645 1.266 . S
H639 C641 0.959 . S
H640 C641 0.961 . S
C641 C631 1.510 . S
C641 H639 0.959 . S
C641 H640 0.961 . S
C641 H642 0.960 . S
H642 C641 0.960 . S
H643 N623 0.862 . S
O644 Co612 1.920 . S
O644 C617 1.289 . S
C645 O637 1.258 . S
C645 O638 1.266 . S
Co646 O649 1.970 . S
Co646 N663 1.989 . S
Co646 O671 1.967 . S
Co646 O678 1.920 . S
Co647 O650 1.966 . S
Co647 N656 2.022 . S
Co647 N664 1.993 . S
Co647 O672 1.941 . S
C648 O649 1.258 . S
C648 O650 1.263 . S
O649 Co646 1.970 . S
O649 C648 1.258 . S
O650 Co647 1.966 . S
O650 C648 1.263 . S
C651 O652 1.235 . S
C651 O678 1.289 . S
O652 C651 1.235 . S
C653 C655 1.400 . S
C653 N656 1.351 . S
C653 C658 1.501 . S
C654 C655 1.387 . S
C654 N657 1.341 . S
C655 C653 1.400 . S
C655 C654 1.387 . S
N656 Co647 2.022 . S
N656 C653 1.351 . S
N656 N657 1.365 . S
N657 C654 1.341 . S
N657 N656 1.365 . S
N657 H677 0.862 . S
C658 C653 1.501 . S
C658 H659 0.961 . S
C658 H660 0.961 . S
C658 H661 0.960 . S
H659 C658 0.961 . S
H660 C658 0.961 . S
H661 C658 0.960 . S
C662 N663 1.342 . S
C662 C666 1.401 . S
C662 C667 1.499 . S
N663 Co646 1.989 . S
N663 C662 1.342 . S
N663 N664 1.388 . S
N664 Co647 1.993 . S
N664 N663 1.388 . S
N664 C665 1.346 . S
C665 N664 1.346 . S
C665 C666 1.396 . S
C665 C675 1.510 . S
C666 C662 1.401 . S
C666 C665 1.396 . S
C667 C662 1.499 . S
C667 H668 0.959 . S
C667 H669 0.960 . S
C667 H670 0.961 . S
H668 C667 0.959 . S
H669 C667 0.960 . S
H670 C667 0.961 . S
O671 Co646 1.967 . S
O671 C679 1.258 . S
O672 Co647 1.941 . S
O672 C679 1.266 . S
H673 C675 0.959 . S
H674 C675 0.961 . S
C675 C665 1.510 . S
C675 H673 0.959 . S
C675 H674 0.961 . S
C675 H676 0.960 . S
H676 C675 0.960 . S
H677 N657 0.862 . S
O678 Co646 1.920 . S
O678 C651 1.289 . S
C679 O671 1.258 . S
C679 O672 1.266 . S
Co680 O683 1.970 . S
Co680 N697 1.989 . S
Co680 O705 1.967 . S
Co680 O712 1.920 . S
Co681 O684 1.966 . S
Co681 N690 2.022 . S
Co681 N698 1.993 . S
Co681 O706 1.941 . S
C682 O683 1.258 . S
C682 O684 1.263 . S
O683 Co680 1.970 . S
O683 C682 1.258 . S
O684 Co681 1.966 . S
O684 C682 1.263 . S
C685 O686 1.235 . S
C685 O712 1.289 . S
O686 C685 1.235 . S
C687 C689 1.400 . S
C687 N690 1.351 . S
C687 C692 1.501 . S
C688 C689 1.387 . S
C688 N691 1.341 . S
C689 C687 1.400 . S
C689 C688 1.387 . S
N690 Co681 2.022 . S
N690 C687 1.351 . S
N690 N691 1.365 . S
N691 C688 1.341 . S
N691 N690 1.365 . S
N691 H711 0.862 . S
C692 C687 1.501 . S
C692 H693 0.961 . S
C692 H694 0.961 . S
C692 H695 0.960 . S
H693 C692 0.961 . S
H694 C692 0.961 . S
H695 C692 0.960 . S
C696 N697 1.342 . S
C696 C700 1.401 . S
C696 C701 1.499 . S
N697 Co680 1.989 . S
N697 C696 1.342 . S
N697 N698 1.388 . S
N698 Co681 1.993 . S
N698 N697 1.388 . S
N698 C699 1.346 . S
C699 N698 1.346 . S
C699 C700 1.396 . S
C699 C709 1.510 . S
C700 C696 1.401 . S
C700 C699 1.396 . S
C701 C696 1.499 . S
C701 H702 0.959 . S
C701 H703 0.960 . S
C701 H704 0.961 . S
H702 C701 0.959 . S
H703 C701 0.960 . S
H704 C701 0.961 . S
O705 Co680 1.967 . S
O705 C713 1.258 . S
O706 Co681 1.941 . S
O706 C713 1.266 . S
H707 C709 0.959 . S
H708 C709 0.961 . S
C709 C699 1.510 . S
C709 H707 0.959 . S
C709 H708 0.961 . S
C709 H710 0.960 . S
H710 C709 0.960 . S
H711 N691 0.862 . S
O712 Co680 1.920 . S
O712 C685 1.289 . S
C713 O705 1.258 . S
C713 O706 1.266 . S
Co714 O717 1.970 . S
Co714 N731 1.989 . S
Co714 O739 1.967 . S
Co714 O746 1.920 . S
Co715 O718 1.966 . S
Co715 N724 2.022 . S
Co715 N732 1.993 . S
Co715 O740 1.941 . S
C716 O717 1.258 . S
C716 O718 1.263 . S
O717 Co714 1.970 . S
O717 C716 1.258 . S
O718 Co715 1.966 . S
O718 C716 1.263 . S
C719 O720 1.235 . S
C719 O746 1.289 . S
O720 C719 1.235 . S
C721 C723 1.400 . S
C721 N724 1.351 . S
C721 C726 1.501 . S
C722 C723 1.387 . S
C722 N725 1.341 . S
C723 C721 1.400 . S
C723 C722 1.387 . S
N724 Co715 2.022 . S
N724 C721 1.351 . S
N724 N725 1.365 . S
N725 C722 1.341 . S
N725 N724 1.365 . S
N725 H745 0.862 . S
C726 C721 1.501 . S
C726 H727 0.961 . S
C726 H728 0.961 . S
C726 H729 0.960 . S
H727 C726 0.961 . S
H728 C726 0.961 . S
H729 C726 0.960 . S
C730 N731 1.342 . S
C730 C734 1.401 . S
C730 C735 1.499 . S
N731 Co714 1.989 . S
N731 C730 1.342 . S
N731 N732 1.388 . S
N732 Co715 1.993 . S
N732 N731 1.388 . S
N732 C733 1.346 . S
C733 N732 1.346 . S
C733 C734 1.396 . S
C733 C743 1.510 . S
C734 C730 1.401 . S
C734 C733 1.396 . S
C735 C730 1.499 . S
C735 H736 0.959 . S
C735 H737 0.960 . S
C735 H738 0.961 . S
H736 C735 0.959 . S
H737 C735 0.960 . S
H738 C735 0.961 . S
O739 Co714 1.967 . S
O739 C747 1.258 . S
O740 Co715 1.941 . S
O740 C747 1.266 . S
H741 C743 0.959 . S
H742 C743 0.961 . S
C743 C733 1.510 . S
C743 H741 0.959 . S
C743 H742 0.961 . S
C743 H744 0.960 . S
H744 C743 0.960 . S
H745 N725 0.862 . S
O746 Co714 1.920 . S
O746 C719 1.289 . S
C747 O739 1.258 . S
C747 O740 1.266 . S
Co748 O751 1.970 . S
Co748 N765 1.989 . S
Co748 O773 1.967 . S
Co748 O780 1.920 . S
Co749 O752 1.966 . S
Co749 N758 2.022 . S
Co749 N766 1.993 . S
Co749 O774 1.941 . S
C750 O751 1.258 . S
C750 O752 1.263 . S
O751 Co748 1.970 . S
O751 C750 1.258 . S
O752 Co749 1.966 . S
O752 C750 1.263 . S
C753 O754 1.235 . S
C753 O780 1.289 . S
O754 C753 1.235 . S
C755 C757 1.400 . S
C755 N758 1.351 . S
C755 C760 1.501 . S
C756 C757 1.387 . S
C756 N759 1.341 . S
C757 C755 1.400 . S
C757 C756 1.387 . S
N758 Co749 2.022 . S
N758 C755 1.351 . S
N758 N759 1.365 . S
N759 C756 1.341 . S
N759 N758 1.365 . S
N759 H779 0.862 . S
C760 C755 1.501 . S
C760 H761 0.961 . S
C760 H762 0.961 . S
C760 H763 0.960 . S
H761 C760 0.961 . S
H762 C760 0.961 . S
H763 C760 0.960 . S
C764 N765 1.342 . S
C764 C768 1.401 . S
C764 C769 1.499 . S
N765 Co748 1.989 . S
N765 C764 1.342 . S
N765 N766 1.388 . S
N766 Co749 1.993 . S
N766 N765 1.388 . S
N766 C767 1.346 . S
C767 N766 1.346 . S
C767 C768 1.396 . S
C767 C777 1.510 . S
C768 C764 1.401 . S
C768 C767 1.396 . S
C769 C764 1.499 . S
C769 H770 0.959 . S
C769 H771 0.960 . S
C769 H772 0.961 . S
H770 C769 0.959 . S
H771 C769 0.960 . S
H772 C769 0.961 . S
O773 Co748 1.967 . S
O773 C781 1.258 . S
O774 Co749 1.941 . S
O774 C781 1.266 . S
H775 C777 0.959 . S
H776 C777 0.961 . S
C777 C767 1.510 . S
C777 H775 0.959 . S
C777 H776 0.961 . S
C777 H778 0.960 . S
H778 C777 0.960 . S
H779 N759 0.862 . S
O780 Co748 1.920 . S
O780 C753 1.289 . S
C781 O773 1.258 . S
C781 O774 1.266 . S
Co782 O785 1.970 . S
Co782 N799 1.989 . S
Co782 O807 1.967 . S
Co782 O814 1.920 . S
Co783 O786 1.966 . S
Co783 N792 2.022 . S
Co783 N800 1.993 . S
Co783 O808 1.941 . S
C784 O785 1.258 . S
C784 O786 1.263 . S
O785 Co782 1.970 . S
O785 C784 1.258 . S
O786 Co783 1.966 . S
O786 C784 1.263 . S
C787 O788 1.235 . S
C787 O814 1.289 . S
O788 C787 1.235 . S
C789 C791 1.400 . S
C789 N792 1.351 . S
C789 C794 1.501 . S
C790 C791 1.387 . S
C790 N793 1.341 . S
C791 C789 1.400 . S
C791 C790 1.387 . S
N792 Co783 2.022 . S
N792 C789 1.351 . S
N792 N793 1.365 . S
N793 C790 1.341 . S
N793 N792 1.365 . S
N793 H813 0.862 . S
C794 C789 1.501 . S
C794 H795 0.961 . S
C794 H796 0.961 . S
C794 H797 0.960 . S
H795 C794 0.961 . S
H796 C794 0.961 . S
H797 C794 0.960 . S
C798 N799 1.342 . S
C798 C802 1.401 . S
C798 C803 1.499 . S
N799 Co782 1.989 . S
N799 C798 1.342 . S
N799 N800 1.388 . S
N800 Co783 1.993 . S
N800 N799 1.388 . S
N800 C801 1.346 . S
C801 N800 1.346 . S
C801 C802 1.396 . S
C801 C811 1.510 . S
C802 C798 1.401 . S
C802 C801 1.396 . S
C803 C798 1.499 . S
C803 H804 0.959 . S
C803 H805 0.960 . S
C803 H806 0.961 . S
H804 C803 0.959 . S
H805 C803 0.960 . S
H806 C803 0.961 . S
O807 Co782 1.967 . S
O807 C815 1.258 . S
O808 Co783 1.941 . S
O808 C815 1.266 . S
H809 C811 0.959 . S
H810 C811 0.961 . S
C811 C801 1.510 . S
C811 H809 0.959 . S
C811 H810 0.961 . S
C811 H812 0.960 . S
H812 C811 0.960 . S
H813 N793 0.862 . S
O814 Co782 1.920 . S
O814 C787 1.289 . S
C815 O807 1.258 . S
C815 O808 1.266 . S
Co816 O819 1.970 . S
Co816 N833 1.989 . S
Co816 O841 1.967 . S
Co816 O848 1.920 . S
Co817 O820 1.966 . S
Co817 N826 2.022 . S
Co817 N834 1.993 . S
Co817 O842 1.941 . S
C818 O819 1.258 . S
C818 O820 1.263 . S
O819 Co816 1.970 . S
O819 C818 1.258 . S
O820 Co817 1.966 . S
O820 C818 1.263 . S
C821 O822 1.235 . S
C821 O848 1.289 . S
O822 C821 1.235 . S
C823 C825 1.400 . S
C823 N826 1.351 . S
C823 C828 1.501 . S
C824 C825 1.387 . S
C824 N827 1.341 . S
C825 C823 1.400 . S
C825 C824 1.387 . S
N826 Co817 2.022 . S
N826 C823 1.351 . S
N826 N827 1.365 . S
N827 C824 1.341 . S
N827 N826 1.365 . S
N827 H847 0.862 . S
C828 C823 1.501 . S
C828 H829 0.961 . S
C828 H830 0.961 . S
C828 H831 0.960 . S
H829 C828 0.961 . S
H830 C828 0.961 . S
H831 C828 0.960 . S
C832 N833 1.342 . S
C832 C836 1.401 . S
C832 C837 1.499 . S
N833 Co816 1.989 . S
N833 C832 1.342 . S
N833 N834 1.388 . S
N834 Co817 1.993 . S
N834 N833 1.388 . S
N834 C835 1.346 . S
C835 N834 1.346 . S
C835 C836 1.396 . S
C835 C845 1.510 . S
C836 C832 1.401 . S
C836 C835 1.396 . S
C837 C832 1.499 . S
C837 H838 0.959 . S
C837 H839 0.960 . S
C837 H840 0.961 . S
H838 C837 0.959 . S
H839 C837 0.960 . S
H840 C837 0.961 . S
O841 Co816 1.967 . S
O841 C849 1.258 . S
O842 Co817 1.941 . S
O842 C849 1.266 . S
H843 C845 0.959 . S
H844 C845 0.961 . S
C845 C835 1.510 . S
C845 H843 0.959 . S
C845 H844 0.961 . S
C845 H846 0.960 . S
H846 C845 0.960 . S
H847 N827 0.862 . S
O848 Co816 1.920 . S
O848 C821 1.289 . S
C849 O841 1.258 . S
C849 O842 1.266 . S
Co850 O853 1.970 . S
Co850 N867 1.989 . S
Co850 O875 1.967 . S
Co850 O882 1.920 . S
Co851 O854 1.966 . S
Co851 N860 2.022 . S
Co851 N868 1.993 . S
Co851 O876 1.941 . S
C852 O853 1.258 . S
C852 O854 1.263 . S
O853 Co850 1.970 . S
O853 C852 1.258 . S
O854 Co851 1.966 . S
O854 C852 1.263 . S
C855 O856 1.235 . S
C855 O882 1.289 . S
O856 C855 1.235 . S
C857 C859 1.400 . S
C857 N860 1.351 . S
C857 C862 1.501 . S
C858 C859 1.387 . S
C858 N861 1.341 . S
C859 C857 1.400 . S
C859 C858 1.387 . S
N860 Co851 2.022 . S
N860 C857 1.351 . S
N860 N861 1.365 . S
N861 C858 1.341 . S
N861 N860 1.365 . S
N861 H881 0.862 . S
C862 C857 1.501 . S
C862 H863 0.961 . S
C862 H864 0.961 . S
C862 H865 0.960 . S
H863 C862 0.961 . S
H864 C862 0.961 . S
H865 C862 0.960 . S
C866 N867 1.342 . S
C866 C870 1.401 . S
C866 C871 1.499 . S
N867 Co850 1.989 . S
N867 C866 1.342 . S
N867 N868 1.388 . S
N868 Co851 1.993 . S
N868 N867 1.388 . S
N868 C869 1.346 . S
C869 N868 1.346 . S
C869 C870 1.396 . S
C869 C879 1.510 . S
C870 C866 1.401 . S
C870 C869 1.396 . S
C871 C866 1.499 . S
C871 H872 0.959 . S
C871 H873 0.960 . S
C871 H874 0.961 . S
H872 C871 0.959 . S
H873 C871 0.960 . S
H874 C871 0.961 . S
O875 Co850 1.967 . S
O875 C883 1.258 . S
O876 Co851 1.941 . S
O876 C883 1.266 . S
H877 C879 0.959 . S
H878 C879 0.961 . S
C879 C869 1.510 . S
C879 H877 0.959 . S
C879 H878 0.961 . S
C879 H880 0.960 . S
H880 C879 0.960 . S
H881 N861 0.862 . S
O882 Co850 1.920 . S
O882 C855 1.289 . S
C883 O875 1.258 . S
C883 O876 1.266 . S
Co884 O887 1.970 . S
Co884 N901 1.989 . S
Co884 O909 1.967 . S
Co884 O916 1.920 . S
Co885 O888 1.966 . S
Co885 N894 2.022 . S
Co885 N902 1.993 . S
Co885 O910 1.941 . S
C886 O887 1.258 . S
C886 O888 1.263 . S
O887 Co884 1.970 . S
O887 C886 1.258 . S
O888 Co885 1.966 . S
O888 C886 1.263 . S
C889 O890 1.235 . S
C889 O916 1.289 . S
O890 C889 1.235 . S
C891 C893 1.400 . S
C891 N894 1.351 . S
C891 C896 1.501 . S
C892 C893 1.387 . S
C892 N895 1.341 . S
C893 C891 1.400 . S
C893 C892 1.387 . S
N894 Co885 2.022 . S
N894 C891 1.351 . S
N894 N895 1.365 . S
N895 C892 1.341 . S
N895 N894 1.365 . S
N895 H915 0.862 . S
C896 C891 1.501 . S
C896 H897 0.961 . S
C896 H898 0.961 . S
C896 H899 0.960 . S
H897 C896 0.961 . S
H898 C896 0.961 . S
H899 C896 0.960 . S
C900 N901 1.342 . S
C900 C904 1.401 . S
C900 C905 1.499 . S
N901 Co884 1.989 . S
N901 C900 1.342 . S
N901 N902 1.388 . S
N902 Co885 1.993 . S
N902 N901 1.388 . S
N902 C903 1.346 . S
C903 N902 1.346 . S
C903 C904 1.396 . S
C903 C913 1.510 . S
C904 C900 1.401 . S
C904 C903 1.396 . S
C905 C900 1.499 . S
C905 H906 0.959 . S
C905 H907 0.960 . S
C905 H908 0.961 . S
H906 C905 0.959 . S
H907 C905 0.960 . S
H908 C905 0.961 . S
O909 Co884 1.967 . S
O909 C917 1.258 . S
O910 Co885 1.941 . S
O910 C917 1.266 . S
H911 C913 0.959 . S
H912 C913 0.961 . S
C913 C903 1.510 . S
C913 H911 0.959 . S
C913 H912 0.961 . S
C913 H914 0.960 . S
H914 C913 0.960 . S
H915 N895 0.862 . S
O916 Co884 1.920 . S
O916 C889 1.289 . S
C917 O909 1.258 . S
C917 O910 1.266 . S
Co918 O921 1.970 . S
Co918 N935 1.989 . S
Co918 O943 1.967 . S
Co918 O950 1.920 . S
Co919 O922 1.966 . S
Co919 N928 2.022 . S
Co919 N936 1.993 . S
Co919 O944 1.941 . S
C920 O921 1.258 . S
C920 O922 1.263 . S
O921 Co918 1.970 . S
O921 C920 1.258 . S
O922 Co919 1.966 . S
O922 C920 1.263 . S
C923 O924 1.235 . S
C923 O950 1.289 . S
O924 C923 1.235 . S
C925 C927 1.400 . S
C925 N928 1.351 . S
C925 C930 1.501 . S
C926 C927 1.387 . S
C926 N929 1.341 . S
C927 C925 1.400 . S
C927 C926 1.387 . S
N928 Co919 2.022 . S
N928 C925 1.351 . S
N928 N929 1.365 . S
N929 C926 1.341 . S
N929 N928 1.365 . S
N929 H949 0.862 . S
C930 C925 1.501 . S
C930 H931 0.961 . S
C930 H932 0.961 . S
C930 H933 0.960 . S
H931 C930 0.961 . S
H932 C930 0.961 . S
H933 C930 0.960 . S
C934 N935 1.342 . S
C934 C938 1.401 . S
C934 C939 1.499 . S
N935 Co918 1.989 . S
N935 C934 1.342 . S
N935 N936 1.388 . S
N936 Co919 1.993 . S
N936 N935 1.388 . S
N936 C937 1.346 . S
C937 N936 1.346 . S
C937 C938 1.396 . S
C937 C947 1.510 . S
C938 C934 1.401 . S
C938 C937 1.396 . S
C939 C934 1.499 . S
C939 H940 0.959 . S
C939 H941 0.960 . S
C939 H942 0.961 . S
H940 C939 0.959 . S
H941 C939 0.960 . S
H942 C939 0.961 . S
O943 Co918 1.967 . S
O943 C951 1.258 . S
O944 Co919 1.941 . S
O944 C951 1.266 . S
H945 C947 0.959 . S
H946 C947 0.961 . S
C947 C937 1.510 . S
C947 H945 0.959 . S
C947 H946 0.961 . S
C947 H948 0.960 . S
H948 C947 0.960 . S
H949 N929 0.862 . S
O950 Co918 1.920 . S
O950 C923 1.289 . S
C951 O943 1.258 . S
C951 O944 1.266 . S
Co952 O955 1.970 . S
Co952 N969 1.989 . S
Co952 O977 1.967 . S
Co952 O984 1.920 . S
Co953 O956 1.966 . S
Co953 N962 2.022 . S
Co953 N970 1.993 . S
Co953 O978 1.941 . S
C954 O955 1.258 . S
C954 O956 1.263 . S
O955 Co952 1.970 . S
O955 C954 1.258 . S
O956 Co953 1.966 . S
O956 C954 1.263 . S
C957 O958 1.235 . S
C957 O984 1.289 . S
O958 C957 1.235 . S
C959 C961 1.400 . S
C959 N962 1.351 . S
C959 C964 1.501 . S
C960 C961 1.387 . S
C960 N963 1.341 . S
C961 C959 1.400 . S
C961 C960 1.387 . S
N962 Co953 2.022 . S
N962 C959 1.351 . S
N962 N963 1.365 . S
N963 C960 1.341 . S
N963 N962 1.365 . S
N963 H983 0.862 . S
C964 C959 1.501 . S
C964 H965 0.961 . S
C964 H966 0.961 . S
C964 H967 0.960 . S
H965 C964 0.961 . S
H966 C964 0.961 . S
H967 C964 0.960 . S
C968 N969 1.342 . S
C968 C972 1.401 . S
C968 C973 1.499 . S
N969 Co952 1.989 . S
N969 C968 1.342 . S
N969 N970 1.388 . S
N970 Co953 1.993 . S
N970 N969 1.388 . S
N970 C971 1.346 . S
C971 N970 1.346 . S
C971 C972 1.396 . S
C971 C981 1.510 . S
C972 C968 1.401 . S
C972 C971 1.396 . S
C973 C968 1.499 . S
C973 H974 0.959 . S
C973 H975 0.960 . S
C973 H976 0.961 . S
H974 C973 0.959 . S
H975 C973 0.960 . S
H976 C973 0.961 . S
O977 Co952 1.967 . S
O977 C985 1.258 . S
O978 Co953 1.941 . S
O978 C985 1.266 . S
H979 C981 0.959 . S
H980 C981 0.961 . S
C981 C971 1.510 . S
C981 H979 0.959 . S
C981 H980 0.961 . S
C981 H982 0.960 . S
H982 C981 0.960 . S
H983 N963 0.862 . S
O984 Co952 1.920 . S
O984 C957 1.289 . S
C985 O977 1.258 . S
C985 O978 1.266 . S
Co986 O989 1.970 . S
Co986 N1003 1.989 . S
Co986 O1011 1.967 . S
Co986 O1018 1.920 . S
Co987 O990 1.966 . S
Co987 N996 2.022 . S
Co987 N1004 1.993 . S
Co987 O1012 1.941 . S
C988 O989 1.258 . S
C988 O990 1.263 . S
O989 Co986 1.970 . S
O989 C988 1.258 . S
O990 Co987 1.966 . S
O990 C988 1.263 . S
C991 O992 1.235 . S
C991 O1018 1.289 . S
O992 C991 1.235 . S
C993 C995 1.400 . S
C993 N996 1.351 . S
C993 C998 1.501 . S
C994 C995 1.387 . S
C994 N997 1.341 . S
C995 C993 1.400 . S
C995 C994 1.387 . S
N996 Co987 2.022 . S
N996 C993 1.351 . S
N996 N997 1.365 . S
N997 C994 1.341 . S
N997 N996 1.365 . S
N997 H1017 0.862 . S
C998 C993 1.501 . S
C998 H999 0.961 . S
C998 H1000 0.961 . S
C998 H1001 0.960 . S
H999 C998 0.961 . S
H1000 C998 0.961 . S
H1001 C998 0.960 . S
C1002 N1003 1.342 . S
C1002 C1006 1.401 . S
C1002 C1007 1.499 . S
N1003 Co986 1.989 . S
N1003 C1002 1.342 . S
N1003 N1004 1.388 . S
N1004 Co987 1.993 . S
N1004 N1003 1.388 . S
N1004 C1005 1.346 . S
C1005 N1004 1.346 . S
C1005 C1006 1.396 . S
C1005 C1015 1.510 . S
C1006 C1002 1.401 . S
C1006 C1005 1.396 . S
C1007 C1002 1.499 . S
C1007 H1008 0.959 . S
C1007 H1009 0.960 . S
C1007 H1010 0.961 . S
H1008 C1007 0.959 . S
H1009 C1007 0.960 . S
H1010 C1007 0.961 . S
O1011 Co986 1.967 . S
O1011 C1019 1.258 . S
O1012 Co987 1.941 . S
O1012 C1019 1.266 . S
H1013 C1015 0.959 . S
H1014 C1015 0.961 . S
C1015 C1005 1.510 . S
C1015 H1013 0.959 . S
C1015 H1014 0.961 . S
C1015 H1016 0.960 . S
H1016 C1015 0.960 . S
H1017 N997 0.862 . S
O1018 Co986 1.920 . S
O1018 C991 1.289 . S
C1019 O1011 1.258 . S
C1019 O1012 1.266 . S
Co1020 O1023 1.970 . S
Co1020 N1037 1.989 . S
Co1020 O1045 1.967 . S
Co1020 O1052 1.920 . S
Co1021 O1024 1.966 . S
Co1021 N1030 2.022 . S
Co1021 N1038 1.993 . S
Co1021 O1046 1.941 . S
C1022 O1023 1.258 . S
C1022 O1024 1.263 . S
O1023 Co1020 1.970 . S
O1023 C1022 1.258 . S
O1024 Co1021 1.966 . S
O1024 C1022 1.263 . S
C1025 O1026 1.235 . S
C1025 O1052 1.289 . S
O1026 C1025 1.235 . S
C1027 C1029 1.400 . S
C1027 N1030 1.351 . S
C1027 C1032 1.501 . S
C1028 C1029 1.387 . S
C1028 N1031 1.341 . S
C1029 C1027 1.400 . S
C1029 C1028 1.387 . S
N1030 Co1021 2.022 . S
N1030 C1027 1.351 . S
N1030 N1031 1.365 . S
N1031 C1028 1.341 . S
N1031 N1030 1.365 . S
N1031 H1051 0.862 . S
C1032 C1027 1.501 . S
C1032 H1033 0.961 . S
C1032 H1034 0.961 . S
C1032 H1035 0.960 . S
H1033 C1032 0.961 . S
H1034 C1032 0.961 . S
H1035 C1032 0.960 . S
C1036 N1037 1.342 . S
C1036 C1040 1.401 . S
C1036 C1041 1.499 . S
N1037 Co1020 1.989 . S
N1037 C1036 1.342 . S
N1037 N1038 1.388 . S
N1038 Co1021 1.993 . S
N1038 N1037 1.388 . S
N1038 C1039 1.346 . S
C1039 N1038 1.346 . S
C1039 C1040 1.396 . S
C1039 C1049 1.510 . S
C1040 C1036 1.401 . S
C1040 C1039 1.396 . S
C1041 C1036 1.499 . S
C1041 H1042 0.959 . S
C1041 H1043 0.960 . S
C1041 H1044 0.961 . S
H1042 C1041 0.959 . S
H1043 C1041 0.960 . S
H1044 C1041 0.961 . S
O1045 Co1020 1.967 . S
O1045 C1053 1.258 . S
O1046 Co1021 1.941 . S
O1046 C1053 1.266 . S
H1047 C1049 0.959 . S
H1048 C1049 0.961 . S
C1049 C1039 1.510 . S
C1049 H1047 0.959 . S
C1049 H1048 0.961 . S
C1049 H1050 0.960 . S
H1050 C1049 0.960 . S
H1051 N1031 0.862 . S
O1052 Co1020 1.920 . S
O1052 C1025 1.289 . S
C1053 O1045 1.258 . S
C1053 O1046 1.266 . S
Co1054 O1057 1.970 . S
Co1054 N1071 1.989 . S
Co1054 O1079 1.967 . S
Co1054 O1086 1.920 . S
Co1055 O1058 1.966 . S
Co1055 N1064 2.022 . S
Co1055 N1072 1.993 . S
Co1055 O1080 1.941 . S
C1056 O1057 1.258 . S
C1056 O1058 1.263 . S
O1057 Co1054 1.970 . S
O1057 C1056 1.258 . S
O1058 Co1055 1.966 . S
O1058 C1056 1.263 . S
C1059 O1060 1.235 . S
C1059 O1086 1.289 . S
O1060 C1059 1.235 . S
C1061 C1063 1.400 . S
C1061 N1064 1.351 . S
C1061 C1066 1.501 . S
C1062 C1063 1.387 . S
C1062 N1065 1.341 . S
C1063 C1061 1.400 . S
C1063 C1062 1.387 . S
N1064 Co1055 2.022 . S
N1064 C1061 1.351 . S
N1064 N1065 1.365 . S
N1065 C1062 1.341 . S
N1065 N1064 1.365 . S
N1065 H1085 0.862 . S
C1066 C1061 1.501 . S
C1066 H1067 0.961 . S
C1066 H1068 0.961 . S
C1066 H1069 0.960 . S
H1067 C1066 0.961 . S
H1068 C1066 0.961 . S
H1069 C1066 0.960 . S
C1070 N1071 1.342 . S
C1070 C1074 1.401 . S
C1070 C1075 1.499 . S
N1071 Co1054 1.989 . S
N1071 C1070 1.342 . S
N1071 N1072 1.388 . S
N1072 Co1055 1.993 . S
N1072 N1071 1.388 . S
N1072 C1073 1.346 . S
C1073 N1072 1.346 . S
C1073 C1074 1.396 . S
C1073 C1083 1.510 . S
C1074 C1070 1.401 . S
C1074 C1073 1.396 . S
C1075 C1070 1.499 . S
C1075 H1076 0.959 . S
C1075 H1077 0.960 . S
C1075 H1078 0.961 . S
H1076 C1075 0.959 . S
H1077 C1075 0.960 . S
H1078 C1075 0.961 . S
O1079 Co1054 1.967 . S
O1079 C1087 1.258 . S
O1080 Co1055 1.941 . S
O1080 C1087 1.266 . S
H1081 C1083 0.959 . S
H1082 C1083 0.961 . S
C1083 C1073 1.510 . S
C1083 H1081 0.959 . S
C1083 H1082 0.961 . S
C1083 H1084 0.960 . S
H1084 C1083 0.960 . S
H1085 N1065 0.862 . S
O1086 Co1054 1.920 . S
O1086 C1059 1.289 . S
C1087 O1079 1.258 . S
C1087 O1080 1.266 . S
H1088 C1100 0.930 . S
H1089 C1102 0.930 . S
H1090 C1103 0.930 . S
H1091 C1107 0.959 . S
H1092 C1107 0.959 . S
H1093 C1107 0.961 . S
H1094 C1108 0.960 . S
H1095 C1108 0.961 . S
H1096 C1108 0.959 . S
H1097 C1111 0.929 . S
H1098 C1112 0.931 . S
H1099 C1114 0.930 . S
C1100 H1088 0.930 . S
C1100 C1101 1.399 . S
C1100 C1105 1.399 . S
C1101 C1100 1.399 . S
C1101 C1102 1.376 . S
C1102 H1089 0.930 . S
C1102 C1101 1.376 . S
C1102 C1103 1.388 . S
C1103 H1090 0.930 . S
C1103 C1102 1.388 . S
C1103 C1104 1.390 . S
C1104 C1103 1.390 . S
C1104 C1105 1.394 . S
C1104 C1110 1.465 . S
C1105 C1100 1.399 . S
C1105 C1104 1.394 . S
C1105 C1106 1.516 . S
C1106 C1105 1.516 . S
C1106 C1107 1.502 . S
C1106 C1108 1.561 . S
C1106 C1109 1.526 . S
C1107 H1091 0.959 . S
C1107 H1092 0.959 . S
C1107 H1093 0.961 . S
C1107 C1106 1.502 . S
C1108 H1094 0.960 . S
C1108 H1095 0.961 . S
C1108 H1096 0.959 . S
C1108 C1106 1.561 . S
C1109 C1106 1.526 . S
C1109 C1110 1.396 . S
C1109 C1114 1.390 . S
C1110 C1104 1.465 . S
C1110 C1109 1.396 . S
C1110 C1111 1.399 . S
C1111 H1097 0.929 . S
C1111 C1110 1.399 . S
C1111 C1112 1.385 . S
C1112 H1098 0.931 . S
C1112 C1111 1.385 . S
C1112 C1113 1.389 . S
C1113 C1112 1.389 . S
C1113 C1114 1.387 . S
C1114 H1099 0.930 . S
C1114 C1109 1.390 . S
C1114 C1113 1.387 . S
H1115 C1127 0.930 . S
H1116 C1129 0.930 . S
H1117 C1130 0.930 . S
H1118 C1134 0.959 . S
H1119 C1134 0.959 . S
H1120 C1134 0.961 . S
H1121 C1135 0.960 . S
H1122 C1135 0.961 . S
H1123 C1135 0.959 . S
H1124 C1138 0.929 . S
H1125 C1139 0.931 . S
H1126 C1141 0.930 . S
C1127 H1115 0.930 . S
C1127 C1128 1.399 . S
C1127 C1132 1.399 . S
C1128 C1127 1.399 . S
C1128 C1129 1.376 . S
C1129 H1116 0.930 . S
C1129 C1128 1.376 . S
C1129 C1130 1.388 . S
C1130 H1117 0.930 . S
C1130 C1129 1.388 . S
C1130 C1131 1.390 . S
C1131 C1130 1.390 . S
C1131 C1132 1.394 . S
C1131 C1137 1.465 . S
C1132 C1127 1.399 . S
C1132 C1131 1.394 . S
C1132 C1133 1.516 . S
C1133 C1132 1.516 . S
C1133 C1134 1.502 . S
C1133 C1135 1.561 . S
C1133 C1136 1.526 . S
C1134 H1118 0.959 . S
C1134 H1119 0.959 . S
C1134 H1120 0.961 . S
C1134 C1133 1.502 . S
C1135 H1121 0.960 . S
C1135 H1122 0.961 . S
C1135 H1123 0.959 . S
C1135 C1133 1.561 . S
C1136 C1133 1.526 . S
C1136 C1137 1.396 . S
C1136 C1141 1.390 . S
C1137 C1131 1.465 . S
C1137 C1136 1.396 . S
C1137 C1138 1.399 . S
C1138 H1124 0.929 . S
C1138 C1137 1.399 . S
C1138 C1139 1.385 . S
C1139 H1125 0.931 . S
C1139 C1138 1.385 . S
C1139 C1140 1.389 . S
C1140 C1139 1.389 . S
C1140 C1141 1.387 . S
C1141 H1126 0.930 . S
C1141 C1136 1.390 . S
C1141 C1140 1.387 . S
H1142 C1154 0.930 . S
H1143 C1156 0.930 . S
H1144 C1157 0.930 . S
H1145 C1161 0.959 . S
H1146 C1161 0.959 . S
H1147 C1161 0.961 . S
H1148 C1162 0.960 . S
H1149 C1162 0.961 . S
H1150 C1162 0.959 . S
H1151 C1165 0.929 . S
H1152 C1166 0.931 . S
H1153 C1168 0.930 . S
C1154 H1142 0.930 . S
C1154 C1155 1.399 . S
C1154 C1159 1.399 . S
C1155 C1154 1.399 . S
C1155 C1156 1.376 . S
C1156 H1143 0.930 . S
C1156 C1155 1.376 . S
C1156 C1157 1.388 . S
C1157 H1144 0.930 . S
C1157 C1156 1.388 . S
C1157 C1158 1.390 . S
C1158 C1157 1.390 . S
C1158 C1159 1.394 . S
C1158 C1164 1.465 . S
C1159 C1154 1.399 . S
C1159 C1158 1.394 . S
C1159 C1160 1.516 . S
C1160 C1159 1.516 . S
C1160 C1161 1.502 . S
C1160 C1162 1.561 . S
C1160 C1163 1.526 . S
C1161 H1145 0.959 . S
C1161 H1146 0.959 . S
C1161 H1147 0.961 . S
C1161 C1160 1.502 . S
C1162 H1148 0.960 . S
C1162 H1149 0.961 . S
C1162 H1150 0.959 . S
C1162 C1160 1.561 . S
C1163 C1160 1.526 . S
C1163 C1164 1.396 . S
C1163 C1168 1.390 . S
C1164 C1158 1.465 . S
C1164 C1163 1.396 . S
C1164 C1165 1.399 . S
C1165 H1151 0.929 . S
C1165 C1164 1.399 . S
C1165 C1166 1.385 . S
C1166 H1152 0.931 . S
C1166 C1165 1.385 . S
C1166 C1167 1.389 . S
C1167 C1166 1.389 . S
C1167 C1168 1.387 . S
C1168 H1153 0.930 . S
C1168 C1163 1.390 . S
C1168 C1167 1.387 . S
H1169 C1181 0.930 . S
H1170 C1183 0.930 . S
H1171 C1184 0.930 . S
H1172 C1188 0.959 . S
H1173 C1188 0.959 . S
H1174 C1188 0.961 . S
H1175 C1189 0.960 . S
H1176 C1189 0.961 . S
H1177 C1189 0.959 . S
H1178 C1192 0.929 . S
H1179 C1193 0.931 . S
H1180 C1195 0.930 . S
C1181 H1169 0.930 . S
C1181 C1182 1.399 . S
C1181 C1186 1.399 . S
C1182 C1181 1.399 . S
C1182 C1183 1.376 . S
C1183 H1170 0.930 . S
C1183 C1182 1.376 . S
C1183 C1184 1.388 . S
C1184 H1171 0.930 . S
C1184 C1183 1.388 . S
C1184 C1185 1.390 . S
C1185 C1184 1.390 . S
C1185 C1186 1.394 . S
C1185 C1191 1.465 . S
C1186 C1181 1.399 . S
C1186 C1185 1.394 . S
C1186 C1187 1.516 . S
C1187 C1186 1.516 . S
C1187 C1188 1.502 . S
C1187 C1189 1.561 . S
C1187 C1190 1.526 . S
C1188 H1172 0.959 . S
C1188 H1173 0.959 . S
C1188 H1174 0.961 . S
C1188 C1187 1.502 . S
C1189 H1175 0.960 . S
C1189 H1176 0.961 . S
C1189 H1177 0.959 . S
C1189 C1187 1.561 . S
C1190 C1187 1.526 . S
C1190 C1191 1.396 . S
C1190 C1195 1.390 . S
C1191 C1185 1.465 . S
C1191 C1190 1.396 . S
C1191 C1192 1.399 . S
C1192 H1178 0.929 . S
C1192 C1191 1.399 . S
C1192 C1193 1.385 . S
C1193 H1179 0.931 . S
C1193 C1192 1.385 . S
C1193 C1194 1.389 . S
C1194 C1193 1.389 . S
C1194 C1195 1.387 . S
C1195 H1180 0.930 . S
C1195 C1190 1.390 . S
C1195 C1194 1.387 . S
H1196 C1208 0.930 . S
H1197 C1210 0.930 . S
H1198 C1211 0.930 . S
H1199 C1215 0.959 . S
H1200 C1215 0.959 . S
H1201 C1215 0.961 . S
H1202 C1216 0.960 . S
H1203 C1216 0.961 . S
H1204 C1216 0.959 . S
H1205 C1219 0.929 . S
H1206 C1220 0.931 . S
H1207 C1222 0.930 . S
C1208 H1196 0.930 . S
C1208 C1209 1.399 . S
C1208 C1213 1.399 . S
C1209 C1208 1.399 . S
C1209 C1210 1.376 . S
C1210 H1197 0.930 . S
C1210 C1209 1.376 . S
C1210 C1211 1.388 . S
C1211 H1198 0.930 . S
C1211 C1210 1.388 . S
C1211 C1212 1.390 . S
C1212 C1211 1.390 . S
C1212 C1213 1.394 . S
C1212 C1218 1.465 . S
C1213 C1208 1.399 . S
C1213 C1212 1.394 . S
C1213 C1214 1.516 . S
C1214 C1213 1.516 . S
C1214 C1215 1.502 . S
C1214 C1216 1.561 . S
C1214 C1217 1.526 . S
C1215 H1199 0.959 . S
C1215 H1200 0.959 . S
C1215 H1201 0.961 . S
C1215 C1214 1.502 . S
C1216 H1202 0.960 . S
C1216 H1203 0.961 . S
C1216 H1204 0.959 . S
C1216 C1214 1.561 . S
C1217 C1214 1.526 . S
C1217 C1218 1.396 . S
C1217 C1222 1.390 . S
C1218 C1212 1.465 . S
C1218 C1217 1.396 . S
C1218 C1219 1.399 . S
C1219 H1205 0.929 . S
C1219 C1218 1.399 . S
C1219 C1220 1.385 . S
C1220 H1206 0.931 . S
C1220 C1219 1.385 . S
C1220 C1221 1.389 . S
C1221 C1220 1.389 . S
C1221 C1222 1.387 . S
C1222 H1207 0.930 . S
C1222 C1217 1.390 . S
C1222 C1221 1.387 . S
H1223 C1235 0.930 . S
H1224 C1237 0.930 . S
H1225 C1238 0.930 . S
H1226 C1242 0.959 . S
H1227 C1242 0.959 . S
H1228 C1242 0.961 . S
H1229 C1243 0.960 . S
H1230 C1243 0.961 . S
H1231 C1243 0.959 . S
H1232 C1246 0.929 . S
H1233 C1247 0.931 . S
H1234 C1249 0.930 . S
C1235 H1223 0.930 . S
C1235 C1236 1.399 . S
C1235 C1240 1.399 . S
C1236 C1235 1.399 . S
C1236 C1237 1.376 . S
C1237 H1224 0.930 . S
C1237 C1236 1.376 . S
C1237 C1238 1.388 . S
C1238 H1225 0.930 . S
C1238 C1237 1.388 . S
C1238 C1239 1.390 . S
C1239 C1238 1.390 . S
C1239 C1240 1.394 . S
C1239 C1245 1.465 . S
C1240 C1235 1.399 . S
C1240 C1239 1.394 . S
C1240 C1241 1.516 . S
C1241 C1240 1.516 . S
C1241 C1242 1.502 . S
C1241 C1243 1.561 . S
C1241 C1244 1.526 . S
C1242 H1226 0.959 . S
C1242 H1227 0.959 . S
C1242 H1228 0.961 . S
C1242 C1241 1.502 . S
C1243 H1229 0.960 . S
C1243 H1230 0.961 . S
C1243 H1231 0.959 . S
C1243 C1241 1.561 . S
C1244 C1241 1.526 . S
C1244 C1245 1.396 . S
C1244 C1249 1.390 . S
C1245 C1239 1.465 . S
C1245 C1244 1.396 . S
C1245 C1246 1.399 . S
C1246 H1232 0.929 . S
C1246 C1245 1.399 . S
C1246 C1247 1.385 . S
C1247 H1233 0.931 . S
C1247 C1246 1.385 . S
C1247 C1248 1.389 . S
C1248 C1247 1.389 . S
C1248 C1249 1.387 . S
C1249 H1234 0.930 . S
C1249 C1244 1.390 . S
C1249 C1248 1.387 . S
H1250 C1262 0.930 . S
H1251 C1264 0.930 . S
H1252 C1265 0.930 . S
H1253 C1269 0.959 . S
H1254 C1269 0.959 . S
H1255 C1269 0.961 . S
H1256 C1270 0.960 . S
H1257 C1270 0.961 . S
H1258 C1270 0.959 . S
H1259 C1273 0.929 . S
H1260 C1274 0.931 . S
H1261 C1276 0.930 . S
C1262 H1250 0.930 . S
C1262 C1263 1.399 . S
C1262 C1267 1.399 . S
C1263 C1262 1.399 . S
C1263 C1264 1.376 . S
C1264 H1251 0.930 . S
C1264 C1263 1.376 . S
C1264 C1265 1.388 . S
C1265 H1252 0.930 . S
C1265 C1264 1.388 . S
C1265 C1266 1.390 . S
C1266 C1265 1.390 . S
C1266 C1267 1.394 . S
C1266 C1272 1.465 . S
C1267 C1262 1.399 . S
C1267 C1266 1.394 . S
C1267 C1268 1.516 . S
C1268 C1267 1.516 . S
C1268 C1269 1.502 . S
C1268 C1270 1.561 . S
C1268 C1271 1.526 . S
C1269 H1253 0.959 . S
C1269 H1254 0.959 . S
C1269 H1255 0.961 . S
C1269 C1268 1.502 . S
C1270 H1256 0.960 . S
C1270 H1257 0.961 . S
C1270 H1258 0.959 . S
C1270 C1268 1.561 . S
C1271 C1268 1.526 . S
C1271 C1272 1.396 . S
C1271 C1276 1.390 . S
C1272 C1266 1.465 . S
C1272 C1271 1.396 . S
C1272 C1273 1.399 . S
C1273 H1259 0.929 . S
C1273 C1272 1.399 . S
C1273 C1274 1.385 . S
C1274 H1260 0.931 . S
C1274 C1273 1.385 . S
C1274 C1275 1.389 . S
C1275 C1274 1.389 . S
C1275 C1276 1.387 . S
C1276 H1261 0.930 . S
C1276 C1271 1.390 . S
C1276 C1275 1.387 . S
H1277 C1289 0.930 . S
H1278 C1291 0.930 . S
H1279 C1292 0.930 . S
H1280 C1296 0.959 . S
H1281 C1296 0.959 . S
H1282 C1296 0.961 . S
H1283 C1297 0.960 . S
H1284 C1297 0.961 . S
H1285 C1297 0.959 . S
H1286 C1300 0.929 . S
H1287 C1301 0.931 1_455 S
H1288 C1303 0.930 . S
C1289 H1277 0.930 . S
C1289 C1290 1.399 . S
C1289 C1294 1.399 . S
C1290 C1289 1.399 . S
C1290 C1291 1.376 . S
C1291 H1278 0.930 . S
C1291 C1290 1.376 . S
C1291 C1292 1.388 . S
C1292 H1279 0.930 . S
C1292 C1291 1.388 . S
C1292 C1293 1.390 . S
C1293 C1292 1.390 . S
C1293 C1294 1.394 . S
C1293 C1299 1.465 . S
C1294 C1289 1.399 . S
C1294 C1293 1.394 . S
C1294 C1295 1.516 . S
C1295 C1294 1.516 . S
C1295 C1296 1.502 . S
C1295 C1297 1.561 . S
C1295 C1298 1.526 . S
C1296 H1280 0.959 . S
C1296 H1281 0.959 . S
C1296 H1282 0.961 . S
C1296 C1295 1.502 . S
C1297 H1283 0.960 . S
C1297 H1284 0.961 . S
C1297 H1285 0.959 . S
C1297 C1295 1.561 . S
C1298 C1295 1.526 . S
C1298 C1299 1.396 . S
C1298 C1303 1.390 . S
C1299 C1293 1.465 . S
C1299 C1298 1.396 . S
C1299 C1300 1.399 . S
C1300 H1286 0.929 . S
C1300 C1299 1.399 . S
C1300 C1301 1.385 . S
C1301 H1287 0.931 1_655 S
C1301 C1300 1.385 . S
C1301 C1302 1.389 . S
C1302 C1301 1.389 . S
C1302 C1303 1.387 . S
C1303 H1288 0.930 . S
C1303 C1298 1.390 . S
C1303 C1302 1.387 . S
H1304 C1316 0.930 . S
H1305 C1318 0.930 . S
H1306 C1319 0.930 . S
H1307 C1323 0.959 . S
H1308 C1323 0.959 . S
H1309 C1323 0.961 . S
H1310 C1324 0.960 . S
H1311 C1324 0.961 . S
H1312 C1324 0.959 . S
H1313 C1327 0.929 . S
H1314 C1328 0.931 . S
H1315 C1330 0.930 . S
C1316 H1304 0.930 . S
C1316 C1317 1.399 . S
C1316 C1321 1.399 . S
C1317 C1316 1.399 . S
C1317 C1318 1.376 . S
C1318 H1305 0.930 . S
C1318 C1317 1.376 . S
C1318 C1319 1.388 . S
C1319 H1306 0.930 . S
C1319 C1318 1.388 . S
C1319 C1320 1.390 . S
C1320 C1319 1.390 . S
C1320 C1321 1.394 . S
C1320 C1326 1.465 . S
C1321 C1316 1.399 . S
C1321 C1320 1.394 . S
C1321 C1322 1.516 . S
C1322 C1321 1.516 . S
C1322 C1323 1.502 . S
C1322 C1324 1.561 . S
C1322 C1325 1.526 . S
C1323 H1307 0.959 . S
C1323 H1308 0.959 . S
C1323 H1309 0.961 . S
C1323 C1322 1.502 . S
C1324 H1310 0.960 . S
C1324 H1311 0.961 . S
C1324 H1312 0.959 . S
C1324 C1322 1.561 . S
C1325 C1322 1.526 . S
C1325 C1326 1.396 . S
C1325 C1330 1.390 . S
C1326 C1320 1.465 . S
C1326 C1325 1.396 . S
C1326 C1327 1.399 . S
C1327 H1313 0.929 . S
C1327 C1326 1.399 . S
C1327 C1328 1.385 . S
C1328 H1314 0.931 . S
C1328 C1327 1.385 . S
C1328 C1329 1.389 . S
C1329 C1328 1.389 . S
C1329 C1330 1.387 . S
C1330 H1315 0.930 . S
C1330 C1325 1.390 . S
C1330 C1329 1.387 . S
H1331 C1343 0.930 . S
H1332 C1345 0.930 1_655 S
H1333 C1346 0.930 . S
H1334 C1350 0.959 . S
H1335 C1350 0.959 . S
H1336 C1350 0.961 . S
H1337 C1351 0.960 . S
H1338 C1351 0.961 . S
H1339 C1351 0.959 . S
H1340 C1354 0.929 . S
H1341 C1355 0.931 . S
H1342 C1357 0.930 . S
C1343 H1331 0.930 . S
C1343 C1344 1.399 . S
C1343 C1348 1.399 . S
C1344 C1343 1.399 . S
C1344 C1345 1.376 . S
C1345 H1332 0.930 1_455 S
C1345 C1344 1.376 . S
C1345 C1346 1.388 . S
C1346 H1333 0.930 . S
C1346 C1345 1.388 . S
C1346 C1347 1.390 . S
C1347 C1346 1.390 . S
C1347 C1348 1.394 . S
C1347 C1353 1.465 . S
C1348 C1343 1.399 . S
C1348 C1347 1.394 . S
C1348 C1349 1.516 . S
C1349 C1348 1.516 . S
C1349 C1350 1.502 . S
C1349 C1351 1.561 . S
C1349 C1352 1.526 . S
C1350 H1334 0.959 . S
C1350 H1335 0.959 . S
C1350 H1336 0.961 . S
C1350 C1349 1.502 . S
C1351 H1337 0.960 . S
C1351 H1338 0.961 . S
C1351 H1339 0.959 . S
C1351 C1349 1.561 . S
C1352 C1349 1.526 . S
C1352 C1353 1.396 . S
C1352 C1357 1.390 . S
C1353 C1347 1.465 . S
C1353 C1352 1.396 . S
C1353 C1354 1.399 . S
C1354 H1340 0.929 . S
C1354 C1353 1.399 . S
C1354 C1355 1.385 . S
C1355 H1341 0.931 . S
C1355 C1354 1.385 . S
C1355 C1356 1.389 . S
C1356 C1355 1.389 . S
C1356 C1357 1.387 . S
C1357 H1342 0.930 . S
C1357 C1352 1.390 . S
C1357 C1356 1.387 . S
H1358 C1370 0.930 . S
H1359 C1372 0.930 . S
H1360 C1373 0.930 . S
H1361 C1377 0.959 . S
H1362 C1377 0.959 . S
H1363 C1377 0.961 . S
H1364 C1378 0.960 . S
H1365 C1378 0.961 . S
H1366 C1378 0.959 . S
H1367 C1381 0.929 . S
H1368 C1382 0.931 . S
H1369 C1384 0.930 . S
C1370 H1358 0.930 . S
C1370 C1371 1.399 . S
C1370 C1375 1.399 . S
C1371 C1370 1.399 . S
C1371 C1372 1.376 . S
C1372 H1359 0.930 . S
C1372 C1371 1.376 . S
C1372 C1373 1.388 . S
C1373 H1360 0.930 . S
C1373 C1372 1.388 . S
C1373 C1374 1.390 . S
C1374 C1373 1.390 . S
C1374 C1375 1.394 . S
C1374 C1380 1.465 . S
C1375 C1370 1.399 . S
C1375 C1374 1.394 . S
C1375 C1376 1.516 . S
C1376 C1375 1.516 . S
C1376 C1377 1.502 . S
C1376 C1378 1.561 . S
C1376 C1379 1.526 . S
C1377 H1361 0.959 . S
C1377 H1362 0.959 . S
C1377 H1363 0.961 . S
C1377 C1376 1.502 . S
C1378 H1364 0.960 . S
C1378 H1365 0.961 . S
C1378 H1366 0.959 . S
C1378 C1376 1.561 . S
C1379 C1376 1.526 . S
C1379 C1380 1.396 . S
C1379 C1384 1.390 . S
C1380 C1374 1.465 . S
C1380 C1379 1.396 . S
C1380 C1381 1.399 . S
C1381 H1367 0.929 . S
C1381 C1380 1.399 . S
C1381 C1382 1.385 . S
C1382 H1368 0.931 . S
C1382 C1381 1.385 . S
C1382 C1383 1.389 . S
C1383 C1382 1.389 . S
C1383 C1384 1.387 . S
C1384 H1369 0.930 . S
C1384 C1379 1.390 . S
C1384 C1383 1.387 . S
H1385 C1397 0.930 . S
H1386 C1399 0.930 . S
H1387 C1400 0.930 . S
H1388 C1404 0.959 . S
H1389 C1404 0.959 . S
H1390 C1404 0.961 . S
H1391 C1405 0.960 . S
H1392 C1405 0.961 . S
H1393 C1405 0.959 . S
H1394 C1408 0.929 . S
H1395 C1409 0.931 . S
H1396 C1411 0.930 . S
C1397 H1385 0.930 . S
C1397 C1398 1.399 . S
C1397 C1402 1.399 . S
C1398 C1397 1.399 . S
C1398 C1399 1.376 . S
C1399 H1386 0.930 . S
C1399 C1398 1.376 . S
C1399 C1400 1.388 . S
C1400 H1387 0.930 . S
C1400 C1399 1.388 . S
C1400 C1401 1.390 . S
C1401 C1400 1.390 . S
C1401 C1402 1.394 . S
C1401 C1407 1.465 . S
C1402 C1397 1.399 . S
C1402 C1401 1.394 . S
C1402 C1403 1.516 . S
C1403 C1402 1.516 . S
C1403 C1404 1.502 . S
C1403 C1405 1.561 . S
C1403 C1406 1.526 . S
C1404 H1388 0.959 . S
C1404 H1389 0.959 . S
C1404 H1390 0.961 . S
C1404 C1403 1.502 . S
C1405 H1391 0.960 . S
C1405 H1392 0.961 . S
C1405 H1393 0.959 . S
C1405 C1403 1.561 . S
C1406 C1403 1.526 . S
C1406 C1407 1.396 . S
C1406 C1411 1.390 . S
C1407 C1401 1.465 . S
C1407 C1406 1.396 . S
C1407 C1408 1.399 . S
C1408 H1394 0.929 . S
C1408 C1407 1.399 . S
C1408 C1409 1.385 . S
C1409 H1395 0.931 . S
C1409 C1408 1.385 . S
C1409 C1410 1.389 . S
C1410 C1409 1.389 . S
C1410 C1411 1.387 . S
C1411 H1396 0.930 . S
C1411 C1406 1.390 . S
C1411 C1410 1.387 . S
H1412 C1424 0.930 . S
H1413 C1426 0.930 . S
H1414 C1427 0.930 . S
H1415 C1431 0.959 . S
H1416 C1431 0.959 . S
H1417 C1431 0.961 . S
H1418 C1432 0.960 . S
H1419 C1432 0.961 . S
H1420 C1432 0.959 . S
H1421 C1435 0.929 . S
H1422 C1436 0.931 . S
H1423 C1438 0.930 . S
C1424 H1412 0.930 . S
C1424 C1425 1.399 . S
C1424 C1429 1.399 . S
C1425 C1424 1.399 . S
C1425 C1426 1.376 . S
C1426 H1413 0.930 . S
C1426 C1425 1.376 . S
C1426 C1427 1.388 . S
C1427 H1414 0.930 . S
C1427 C1426 1.388 . S
C1427 C1428 1.390 . S
C1428 C1427 1.390 . S
C1428 C1429 1.394 . S
C1428 C1434 1.465 . S
C1429 C1424 1.399 . S
C1429 C1428 1.394 . S
C1429 C1430 1.516 . S
C1430 C1429 1.516 . S
C1430 C1431 1.502 . S
C1430 C1432 1.561 . S
C1430 C1433 1.526 . S
C1431 H1415 0.959 . S
C1431 H1416 0.959 . S
C1431 H1417 0.961 . S
C1431 C1430 1.502 . S
C1432 H1418 0.960 . S
C1432 H1419 0.961 . S
C1432 H1420 0.959 . S
C1432 C1430 1.561 . S
C1433 C1430 1.526 . S
C1433 C1434 1.396 . S
C1433 C1438 1.390 . S
C1434 C1428 1.465 . S
C1434 C1433 1.396 . S
C1434 C1435 1.399 . S
C1435 H1421 0.929 . S
C1435 C1434 1.399 . S
C1435 C1436 1.385 . S
C1436 H1422 0.931 . S
C1436 C1435 1.385 . S
C1436 C1437 1.389 . S
C1437 C1436 1.389 . S
C1437 C1438 1.387 . S
C1438 H1423 0.930 . S
C1438 C1433 1.390 . S
C1438 C1437 1.387 . S
H1439 C1451 0.930 . S
H1440 C1453 0.930 . S
H1441 C1454 0.930 . S
H1442 C1458 0.959 . S
H1443 C1458 0.959 . S
H1444 C1458 0.961 . S
H1445 C1459 0.960 . S
H1446 C1459 0.961 . S
H1447 C1459 0.959 . S
H1448 C1462 0.929 . S
H1449 C1463 0.931 . S
H1450 C1465 0.930 . S
C1451 H1439 0.930 . S
C1451 C1452 1.399 . S
C1451 C1456 1.399 . S
C1452 C1451 1.399 . S
C1452 C1453 1.376 . S
C1453 H1440 0.930 . S
C1453 C1452 1.376 . S
C1453 C1454 1.388 . S
C1454 H1441 0.930 . S
C1454 C1453 1.388 . S
C1454 C1455 1.390 . S
C1455 C1454 1.390 . S
C1455 C1456 1.394 . S
C1455 C1461 1.465 . S
C1456 C1451 1.399 . S
C1456 C1455 1.394 . S
C1456 C1457 1.516 . S
C1457 C1456 1.516 . S
C1457 C1458 1.502 . S
C1457 C1459 1.561 . S
C1457 C1460 1.526 . S
C1458 H1442 0.959 . S
C1458 H1443 0.959 . S
C1458 H1444 0.961 . S
C1458 C1457 1.502 . S
C1459 H1445 0.960 . S
C1459 H1446 0.961 . S
C1459 H1447 0.959 . S
C1459 C1457 1.561 . S
C1460 C1457 1.526 . S
C1460 C1461 1.396 . S
C1460 C1465 1.390 . S
C1461 C1455 1.465 . S
C1461 C1460 1.396 . S
C1461 C1462 1.399 . S
C1462 H1448 0.929 . S
C1462 C1461 1.399 . S
C1462 C1463 1.385 . S
C1463 H1449 0.931 . S
C1463 C1462 1.385 . S
C1463 C1464 1.389 . S
C1464 C1463 1.389 . S
C1464 C1465 1.387 . S
C1465 H1450 0.930 . S
C1465 C1460 1.390 . S
C1465 C1464 1.387 . S
H1466 C1478 0.930 . S
H1467 C1480 0.930 . S
H1468 C1481 0.930 . S
H1469 C1485 0.959 . S
H1470 C1485 0.959 . S
H1471 C1485 0.961 . S
H1472 C1486 0.960 . S
H1473 C1486 0.961 . S
H1474 C1486 0.959 . S
H1475 C1489 0.929 . S
H1476 C1490 0.931 . S
H1477 C1492 0.930 . S
C1478 H1466 0.930 . S
C1478 C1479 1.399 . S
C1478 C1483 1.399 . S
C1479 C1478 1.399 . S
C1479 C1480 1.376 . S
C1480 H1467 0.930 . S
C1480 C1479 1.376 . S
C1480 C1481 1.388 . S
C1481 H1468 0.930 . S
C1481 C1480 1.388 . S
C1481 C1482 1.390 . S
C1482 C1481 1.390 . S
C1482 C1483 1.394 . S
C1482 C1488 1.465 . S
C1483 C1478 1.399 . S
C1483 C1482 1.394 . S
C1483 C1484 1.516 . S
C1484 C1483 1.516 . S
C1484 C1485 1.502 . S
C1484 C1486 1.561 . S
C1484 C1487 1.526 . S
C1485 H1469 0.959 . S
C1485 H1470 0.959 . S
C1485 H1471 0.961 . S
C1485 C1484 1.502 . S
C1486 H1472 0.960 . S
C1486 H1473 0.961 . S
C1486 H1474 0.959 . S
C1486 C1484 1.561 . S
C1487 C1484 1.526 . S
C1487 C1488 1.396 . S
C1487 C1492 1.390 . S
C1488 C1482 1.465 . S
C1488 C1487 1.396 . S
C1488 C1489 1.399 . S
C1489 H1475 0.929 . S
C1489 C1488 1.399 . S
C1489 C1490 1.385 . S
C1490 H1476 0.931 . S
C1490 C1489 1.385 . S
C1490 C1491 1.389 . S
C1491 C1490 1.389 . S
C1491 C1492 1.387 . S
C1492 H1477 0.930 . S
C1492 C1487 1.390 . S
C1492 C1491 1.387 . S
H1493 C1505 0.930 . S
H1494 C1507 0.918 1_655 S
H1495 C1508 0.930 . S
H1496 C1512 0.959 . S
H1497 C1512 0.959 . S
H1498 C1512 0.961 . S
H1499 C1513 0.960 . S
H1500 C1513 0.961 . S
H1501 C1513 0.959 . S
H1502 C1516 0.929 . S
H1503 C1517 0.931 . S
H1504 C1519 0.930 . S
C1505 H1493 0.930 . S
C1505 C1506 1.399 . S
C1505 C1510 1.399 . S
C1506 C1505 1.399 . S
C1506 C1507 1.376 . S
C1507 H1494 0.918 1_455 S
C1507 C1506 1.376 . S
C1507 C1508 1.388 . S
C1508 H1495 0.930 . S
C1508 C1507 1.388 . S
C1508 C1509 1.390 . S
C1509 C1508 1.390 . S
C1509 C1510 1.394 . S
C1509 C1515 1.465 . S
C1510 C1505 1.399 . S
C1510 C1509 1.394 . S
C1510 C1511 1.516 . S
C1511 C1510 1.516 . S
C1511 C1512 1.502 . S
C1511 C1513 1.561 . S
C1511 C1514 1.526 . S
C1512 H1496 0.959 . S
C1512 H1497 0.959 . S
C1512 H1498 0.961 . S
C1512 C1511 1.502 . S
C1513 H1499 0.960 . S
C1513 H1500 0.961 . S
C1513 H1501 0.959 . S
C1513 C1511 1.561 . S
C1514 C1511 1.526 . S
C1514 C1515 1.396 . S
C1514 C1519 1.390 . S
C1515 C1509 1.465 . S
C1515 C1514 1.396 . S
C1515 C1516 1.399 . S
C1516 H1502 0.929 . S
C1516 C1515 1.399 . S
C1516 C1517 1.385 . S
C1517 H1503 0.931 . S
C1517 C1516 1.385 . S
C1517 C1518 1.389 . S
C1518 C1517 1.389 . S
C1518 C1519 1.387 . S
C1519 H1504 0.930 . S
C1519 C1514 1.390 . S
C1519 C1518 1.387 . S
H1520 C1532 0.930 . S
H1521 C1534 0.930 . S
H1522 C1535 0.930 . S
H1523 C1539 0.959 . S
H1524 C1539 0.959 . S
H1525 C1539 0.961 . S
H1526 C1540 0.960 . S
H1527 C1540 0.961 . S
H1528 C1540 0.959 . S
H1529 C1543 0.929 . S
H1530 C1544 0.931 . S
H1531 C1546 0.930 . S
C1532 H1520 0.930 . S
C1532 C1533 1.399 . S
C1532 C1537 1.399 . S
C1533 C1532 1.399 . S
C1533 C1534 1.376 . S
C1534 H1521 0.930 . S
C1534 C1533 1.376 . S
C1534 C1535 1.388 . S
C1535 H1522 0.930 . S
C1535 C1534 1.388 . S
C1535 C1536 1.390 . S
C1536 C1535 1.390 . S
C1536 C1537 1.394 . S
C1536 C1542 1.465 . S
C1537 C1532 1.399 . S
C1537 C1536 1.394 . S
C1537 C1538 1.516 . S
C1538 C1537 1.516 . S
C1538 C1539 1.502 . S
C1538 C1540 1.561 . S
C1538 C1541 1.526 . S
C1539 H1523 0.959 . S
C1539 H1524 0.959 . S
C1539 H1525 0.961 . S
C1539 C1538 1.502 . S
C1540 H1526 0.960 . S
C1540 H1527 0.961 . S
C1540 H1528 0.959 . S
C1540 C1538 1.561 . S
C1541 C1538 1.526 . S
C1541 C1542 1.396 . S
C1541 C1546 1.390 . S
C1542 C1536 1.465 . S
C1542 C1541 1.396 . S
C1542 C1543 1.399 . S
C1543 H1529 0.929 . S
C1543 C1542 1.399 . S
C1543 C1544 1.385 . S
C1544 H1530 0.931 . S
C1544 C1543 1.385 . S
C1544 C1545 1.389 . S
C1545 C1544 1.389 . S
C1545 C1546 1.387 . S
C1546 H1531 0.930 . S
C1546 C1541 1.390 . S
C1546 C1545 1.387 . S
H1547 C1559 0.930 . S
H1548 C1561 0.930 . S
H1549 C1562 0.930 . S
H1550 C1566 0.959 . S
H1551 C1566 0.959 . S
H1552 C1566 0.961 . S
H1553 C1567 0.960 . S
H1554 C1567 0.961 . S
H1555 C1567 0.959 . S
H1556 C1570 0.929 . S
H1557 C1571 0.931 . S
H1558 C1573 0.930 . S
C1559 H1547 0.930 . S
C1559 C1560 1.399 . S
C1559 C1564 1.399 . S
C1560 C1559 1.399 . S
C1560 C1561 1.376 . S
C1561 H1548 0.930 . S
C1561 C1560 1.376 . S
C1561 C1562 1.388 . S
C1562 H1549 0.930 . S
C1562 C1561 1.388 . S
C1562 C1563 1.390 . S
C1563 C1562 1.390 . S
C1563 C1564 1.394 . S
C1563 C1569 1.465 . S
C1564 C1559 1.399 . S
C1564 C1563 1.394 . S
C1564 C1565 1.516 . S
C1565 C1564 1.516 . S
C1565 C1566 1.502 . S
C1565 C1567 1.561 . S
C1565 C1568 1.526 . S
C1566 H1550 0.959 . S
C1566 H1551 0.959 . S
C1566 H1552 0.961 . S
C1566 C1565 1.502 . S
C1567 H1553 0.960 . S
C1567 H1554 0.961 . S
C1567 H1555 0.959 . S
C1567 C1565 1.561 . S
C1568 C1565 1.526 . S
C1568 C1569 1.396 . S
C1568 C1573 1.390 . S
C1569 C1563 1.465 . S
C1569 C1568 1.396 . S
C1569 C1570 1.399 . S
C1570 H1556 0.929 . S
C1570 C1569 1.399 . S
C1570 C1571 1.385 . S
C1571 H1557 0.931 . S
C1571 C1570 1.385 . S
C1571 C1572 1.389 . S
C1572 C1571 1.389 . S
C1572 C1573 1.387 . S
C1573 H1558 0.930 . S
C1573 C1568 1.390 . S
C1573 C1572 1.387 . S
H1574 C1586 0.930 . S
H1575 C1588 0.930 . S
H1576 C1589 0.930 . S
H1577 C1593 0.959 . S
H1578 C1593 0.959 . S
H1579 C1593 0.961 . S
H1580 C1594 0.960 . S
H1581 C1594 0.961 . S
H1582 C1594 0.959 . S
H1583 C1597 0.929 . S
H1584 C1598 0.931 . S
H1585 C1600 0.930 . S
C1586 H1574 0.930 . S
C1586 C1587 1.399 . S
C1586 C1591 1.399 . S
C1587 C1586 1.399 . S
C1587 C1588 1.376 . S
C1588 H1575 0.930 . S
C1588 C1587 1.376 . S
C1588 C1589 1.388 . S
C1589 H1576 0.930 . S
C1589 C1588 1.388 . S
C1589 C1590 1.390 . S
C1590 C1589 1.390 . S
C1590 C1591 1.394 . S
C1590 C1596 1.465 . S
C1591 C1586 1.399 . S
C1591 C1590 1.394 . S
C1591 C1592 1.516 . S
C1592 C1591 1.516 . S
C1592 C1593 1.502 . S
C1592 C1594 1.561 . S
C1592 C1595 1.526 . S
C1593 H1577 0.959 . S
C1593 H1578 0.959 . S
C1593 H1579 0.961 . S
C1593 C1592 1.502 . S
C1594 H1580 0.960 . S
C1594 H1581 0.961 . S
C1594 H1582 0.959 . S
C1594 C1592 1.561 . S
C1595 C1592 1.526 . S
C1595 C1596 1.396 . S
C1595 C1600 1.390 . S
C1596 C1590 1.465 . S
C1596 C1595 1.396 . S
C1596 C1597 1.399 . S
C1597 H1583 0.929 . S
C1597 C1596 1.399 . S
C1597 C1598 1.385 . S
C1598 H1584 0.931 . S
C1598 C1597 1.385 . S
C1598 C1599 1.389 . S
C1599 C1598 1.389 . S
C1599 C1600 1.387 . S
C1600 H1585 0.930 . S
C1600 C1595 1.390 . S
C1600 C1599 1.387 . S
H1601 C1613 0.930 . S
H1602 C1615 0.930 . S
H1603 C1616 0.930 . S
H1604 C1620 0.959 . S
H1605 C1620 0.959 . S
H1606 C1620 0.961 . S
H1607 C1621 0.960 . S
H1608 C1621 0.961 . S
H1609 C1621 0.959 . S
H1610 C1624 0.929 . S
H1611 C1625 0.931 . S
H1612 C1627 0.930 . S
C1613 H1601 0.930 . S
C1613 C1614 1.399 . S
C1613 C1618 1.399 . S
C1614 C1613 1.399 . S
C1614 C1615 1.376 . S
C1615 H1602 0.930 . S
C1615 C1614 1.376 . S
C1615 C1616 1.388 . S
C1616 H1603 0.930 . S
C1616 C1615 1.388 . S
C1616 C1617 1.390 . S
C1617 C1616 1.390 . S
C1617 C1618 1.394 . S
C1617 C1623 1.465 . S
C1618 C1613 1.399 . S
C1618 C1617 1.394 . S
C1618 C1619 1.516 . S
C1619 C1618 1.516 . S
C1619 C1620 1.502 . S
C1619 C1621 1.561 . S
C1619 C1622 1.526 . S
C1620 H1604 0.959 . S
C1620 H1605 0.959 . S
C1620 H1606 0.961 . S
C1620 C1619 1.502 . S
C1621 H1607 0.960 . S
C1621 H1608 0.961 . S
C1621 H1609 0.959 . S
C1621 C1619 1.561 . S
C1622 C1619 1.526 . S
C1622 C1623 1.396 . S
C1622 C1627 1.390 . S
C1623 C1617 1.465 . S
C1623 C1622 1.396 . S
C1623 C1624 1.399 . S
C1624 H1610 0.929 . S
C1624 C1623 1.399 . S
C1624 C1625 1.385 . S
C1625 H1611 0.931 . S
C1625 C1624 1.385 . S
C1625 C1626 1.389 . S
C1626 C1625 1.389 . S
C1626 C1627 1.387 . S
C1627 H1612 0.930 . S
C1627 C1622 1.390 . S
C1627 C1626 1.387 . S
H1628 C1640 0.930 . S
H1629 C1642 0.930 . S
H1630 C1643 0.930 . S
H1631 C1647 0.959 . S
H1632 C1647 0.959 . S
H1633 C1647 0.961 . S
H1634 C1648 0.960 . S
H1635 C1648 0.961 . S
H1636 C1648 0.959 . S
H1637 C1651 0.929 . S
H1638 C1652 0.931 . S
H1639 C1654 0.930 . S
C1640 H1628 0.930 . S
C1640 C1641 1.399 . S
C1640 C1645 1.399 . S
C1641 C1640 1.399 . S
C1641 C1642 1.376 . S
C1642 H1629 0.930 . S
C1642 C1641 1.376 . S
C1642 C1643 1.388 . S
C1643 H1630 0.930 . S
C1643 C1642 1.388 . S
C1643 C1644 1.390 . S
C1644 C1643 1.390 . S
C1644 C1645 1.394 . S
C1644 C1650 1.465 . S
C1645 C1640 1.399 . S
C1645 C1644 1.394 . S
C1645 C1646 1.516 . S
C1646 C1645 1.516 . S
C1646 C1647 1.502 . S
C1646 C1648 1.561 . S
C1646 C1649 1.526 . S
C1647 H1631 0.959 . S
C1647 H1632 0.959 . S
C1647 H1633 0.961 . S
C1647 C1646 1.502 . S
C1648 H1634 0.960 . S
C1648 H1635 0.961 . S
C1648 H1636 0.959 . S
C1648 C1646 1.561 . S
C1649 C1646 1.526 . S
C1649 C1650 1.396 . S
C1649 C1654 1.390 . S
C1650 C1644 1.465 . S
C1650 C1649 1.396 . S
C1650 C1651 1.399 . S
C1651 H1637 0.929 . S
C1651 C1650 1.399 . S
C1651 C1652 1.385 . S
C1652 H1638 0.931 . S
C1652 C1651 1.385 . S
C1652 C1653 1.389 . S
C1653 C1652 1.389 . S
C1653 C1654 1.387 . S
C1654 H1639 0.930 . S
C1654 C1649 1.390 . S
C1654 C1653 1.387 . S
H1655 C1667 0.930 . S
H1656 C1669 0.930 . S
H1657 C1670 0.930 . S
H1658 C1674 0.959 . S
H1659 C1674 0.959 . S
H1660 C1674 0.961 . S
H1661 C1675 0.960 . S
H1662 C1675 0.961 . S
H1663 C1675 0.959 . S
H1664 C1678 0.929 . S
H1665 C1679 0.931 1_655 S
H1666 C1681 0.930 . S
C1667 H1655 0.930 . S
C1667 C1668 1.399 . S
C1667 C1672 1.399 . S
C1668 C1667 1.399 . S
C1668 C1669 1.376 . S
C1669 H1656 0.930 . S
C1669 C1668 1.376 . S
C1669 C1670 1.388 . S
C1670 H1657 0.930 . S
C1670 C1669 1.388 . S
C1670 C1671 1.390 . S
C1671 C1670 1.390 . S
C1671 C1672 1.394 . S
C1671 C1677 1.465 . S
C1672 C1667 1.399 . S
C1672 C1671 1.394 . S
C1672 C1673 1.516 . S
C1673 C1672 1.516 . S
C1673 C1674 1.502 . S
C1673 C1675 1.561 . S
C1673 C1676 1.526 . S
C1674 H1658 0.959 . S
C1674 H1659 0.959 . S
C1674 H1660 0.961 . S
C1674 C1673 1.502 . S
C1675 H1661 0.960 . S
C1675 H1662 0.961 . S
C1675 H1663 0.959 . S
C1675 C1673 1.561 . S
C1676 C1673 1.526 . S
C1676 C1677 1.396 . S
C1676 C1681 1.390 . S
C1677 C1671 1.465 . S
C1677 C1676 1.396 . S
C1677 C1678 1.399 . S
C1678 H1664 0.929 . S
C1678 C1677 1.399 . S
C1678 C1679 1.385 . S
C1679 H1665 0.931 1_455 S
C1679 C1678 1.385 . S
C1679 C1680 1.389 . S
C1680 C1679 1.389 . S
C1680 C1681 1.387 . S
C1681 H1666 0.930 . S
C1681 C1676 1.390 . S
C1681 C1680 1.387 . S
H1682 C1694 0.930 . S
H1683 C1696 0.930 . S
H1684 C1697 0.930 . S
H1685 C1701 0.959 . S
H1686 C1701 0.959 . S
H1687 C1701 0.961 . S
H1688 C1702 0.960 . S
H1689 C1702 0.961 . S
H1690 C1702 0.959 . S
H1691 C1705 0.929 . S
H1692 C1706 0.931 . S
H1693 C1708 0.930 . S
C1694 H1682 0.930 . S
C1694 C1695 1.399 . S
C1694 C1699 1.399 . S
C1695 C1694 1.399 . S
C1695 C1696 1.376 . S
C1696 H1683 0.930 . S
C1696 C1695 1.376 . S
C1696 C1697 1.388 . S
C1697 H1684 0.930 . S
C1697 C1696 1.388 . S
C1697 C1698 1.390 . S
C1698 C1697 1.390 . S
C1698 C1699 1.394 . S
C1698 C1704 1.465 . S
C1699 C1694 1.399 . S
C1699 C1698 1.394 . S
C1699 C1700 1.516 . S
C1700 C1699 1.516 . S
C1700 C1701 1.502 . S
C1700 C1702 1.561 . S
C1700 C1703 1.526 . S
C1701 H1685 0.959 . S
C1701 H1686 0.959 . S
C1701 H1687 0.961 . S
C1701 C1700 1.502 . S
C1702 H1688 0.960 . S
C1702 H1689 0.961 . S
C1702 H1690 0.959 . S
C1702 C1700 1.561 . S
C1703 C1700 1.526 . S
C1703 C1704 1.396 . S
C1703 C1708 1.390 . S
C1704 C1698 1.465 . S
C1704 C1703 1.396 . S
C1704 C1705 1.399 . S
C1705 H1691 0.929 . S
C1705 C1704 1.399 . S
C1705 C1706 1.385 . S
C1706 H1692 0.931 . S
C1706 C1705 1.385 . S
C1706 C1707 1.389 . S
C1707 C1706 1.389 . S
C1707 C1708 1.387 . S
C1708 H1693 0.930 . S
C1708 C1703 1.390 . S
C1708 C1707 1.387 . S
H1709 C1721 0.930 . S
H1710 C1723 0.930 . S
H1711 C1724 0.930 . S
H1712 C1728 0.959 . S
H1713 C1728 0.959 . S
H1714 C1728 0.961 . S
H1715 C1729 0.960 . S
H1716 C1729 0.961 . S
H1717 C1729 0.959 . S
H1718 C1732 0.929 . S
H1719 C1733 0.931 . S
H1720 C1735 0.930 . S
C1721 H1709 0.930 . S
C1721 C1722 1.399 . S
C1721 C1726 1.399 . S
C1722 C1721 1.399 . S
C1722 C1723 1.376 . S
C1723 H1710 0.930 . S
C1723 C1722 1.376 . S
C1723 C1724 1.388 . S
C1724 H1711 0.930 . S
C1724 C1723 1.388 . S
C1724 C1725 1.390 . S
C1725 C1724 1.390 . S
C1725 C1726 1.394 . S
C1725 C1731 1.465 . S
C1726 C1721 1.399 . S
C1726 C1725 1.394 . S
C1726 C1727 1.516 . S
C1727 C1726 1.516 . S
C1727 C1728 1.502 . S
C1727 C1729 1.561 . S
C1727 C1730 1.526 . S
C1728 H1712 0.959 . S
C1728 H1713 0.959 . S
C1728 H1714 0.961 . S
C1728 C1727 1.502 . S
C1729 H1715 0.960 . S
C1729 H1716 0.961 . S
C1729 H1717 0.959 . S
C1729 C1727 1.561 . S
C1730 C1727 1.526 . S
C1730 C1731 1.396 . S
C1730 C1735 1.390 . S
C1731 C1725 1.465 . S
C1731 C1730 1.396 . S
C1731 C1732 1.399 . S
C1732 H1718 0.929 . S
C1732 C1731 1.399 . S
C1732 C1733 1.385 . S
C1733 H1719 0.931 . S
C1733 C1732 1.385 . S
C1733 C1734 1.389 . S
C1734 C1733 1.389 . S
C1734 C1735 1.387 . S
C1735 H1720 0.930 . S
C1735 C1730 1.390 . S
C1735 C1734 1.387 . S
H1736 C1748 0.930 . S
H1737 C1750 0.930 . S
H1738 C1751 0.930 . S
H1739 C1755 0.959 . S
H1740 C1755 0.959 . S
H1741 C1755 0.961 . S
H1742 C1756 0.960 . S
H1743 C1756 0.961 . S
H1744 C1756 0.959 . S
H1745 C1759 0.929 . S
H1746 C1760 0.931 . S
H1747 C1762 0.930 . S
C1748 H1736 0.930 . S
C1748 C1749 1.399 . S
C1748 C1753 1.399 . S
C1749 C1748 1.399 . S
C1749 C1750 1.376 . S
C1750 H1737 0.930 . S
C1750 C1749 1.376 . S
C1750 C1751 1.388 . S
C1751 H1738 0.930 . S
C1751 C1750 1.388 . S
C1751 C1752 1.390 . S
C1752 C1751 1.390 . S
C1752 C1753 1.394 . S
C1752 C1758 1.465 . S
C1753 C1748 1.399 . S
C1753 C1752 1.394 . S
C1753 C1754 1.516 . S
C1754 C1753 1.516 . S
C1754 C1755 1.502 . S
C1754 C1756 1.561 . S
C1754 C1757 1.526 . S
C1755 H1739 0.959 . S
C1755 H1740 0.959 . S
C1755 H1741 0.961 . S
C1755 C1754 1.502 . S
C1756 H1742 0.960 . S
C1756 H1743 0.961 . S
C1756 H1744 0.959 . S
C1756 C1754 1.561 . S
C1757 C1754 1.526 . S
C1757 C1758 1.396 . S
C1757 C1762 1.390 . S
C1758 C1752 1.465 . S
C1758 C1757 1.396 . S
C1758 C1759 1.399 . S
C1759 H1745 0.929 . S
C1759 C1758 1.399 . S
C1759 C1760 1.385 . S
C1760 H1746 0.931 . S
C1760 C1759 1.385 . S
C1760 C1761 1.389 . S
C1761 C1760 1.389 . S
C1761 C1762 1.387 . S
C1762 H1747 0.930 . S
C1762 C1757 1.390 . S
C1762 C1761 1.387 . S
H1763 C1775 0.930 . S
H1764 C1777 0.930 . S
H1765 C1778 0.930 . S
H1766 C1782 0.959 . S
H1767 C1782 0.959 . S
H1768 C1782 0.961 . S
H1769 C1783 0.960 . S
H1770 C1783 0.961 . S
H1771 C1783 0.959 . S
H1772 C1786 0.929 . S
H1773 C1787 0.931 . S
H1774 C1789 0.930 . S
C1775 H1763 0.930 . S
C1775 C1776 1.399 . S
C1775 C1780 1.399 . S
C1776 C1775 1.399 . S
C1776 C1777 1.376 . S
C1777 H1764 0.930 . S
C1777 C1776 1.376 . S
C1777 C1778 1.388 . S
C1778 H1765 0.930 . S
C1778 C1777 1.388 . S
C1778 C1779 1.390 . S
C1779 C1778 1.390 . S
C1779 C1780 1.394 . S
C1779 C1785 1.465 . S
C1780 C1775 1.399 . S
C1780 C1779 1.394 . S
C1780 C1781 1.516 . S
C1781 C1780 1.516 . S
C1781 C1782 1.502 . S
C1781 C1783 1.561 . S
C1781 C1784 1.526 . S
C1782 H1766 0.959 . S
C1782 H1767 0.959 . S
C1782 H1768 0.961 . S
C1782 C1781 1.502 . S
C1783 H1769 0.960 . S
C1783 H1770 0.961 . S
C1783 H1771 0.959 . S
C1783 C1781 1.561 . S
C1784 C1781 1.526 . S
C1784 C1785 1.396 . S
C1784 C1789 1.390 . S
C1785 C1779 1.465 . S
C1785 C1784 1.396 . S
C1785 C1786 1.399 . S
C1786 H1772 0.929 . S
C1786 C1785 1.399 . S
C1786 C1787 1.385 . S
C1787 H1773 0.931 . S
C1787 C1786 1.385 . S
C1787 C1788 1.389 . S
C1788 C1787 1.389 . S
C1788 C1789 1.387 . S
C1789 H1774 0.930 . S
C1789 C1784 1.390 . S
C1789 C1788 1.387 . S
H1790 C1802 0.930 . S
H1791 C1804 0.930 . S
H1792 C1805 0.930 . S
H1793 C1809 0.959 . S
H1794 C1809 0.959 . S
H1795 C1809 0.961 . S
H1796 C1810 0.960 . S
H1797 C1810 0.961 . S
H1798 C1810 0.959 . S
H1799 C1813 0.929 . S
H1800 C1814 0.931 . S
H1801 C1816 0.930 . S
C1802 H1790 0.930 . S
C1802 C1803 1.399 . S
C1802 C1807 1.399 . S
C1803 C1802 1.399 . S
C1803 C1804 1.376 . S
C1804 H1791 0.930 . S
C1804 C1803 1.376 . S
C1804 C1805 1.388 . S
C1805 H1792 0.930 . S
C1805 C1804 1.388 . S
C1805 C1806 1.390 . S
C1806 C1805 1.390 . S
C1806 C1807 1.394 . S
C1806 C1812 1.465 . S
C1807 C1802 1.399 . S
C1807 C1806 1.394 . S
C1807 C1808 1.516 . S
C1808 C1807 1.516 . S
C1808 C1809 1.502 . S
C1808 C1810 1.561 . S
C1808 C1811 1.526 . S
C1809 H1793 0.959 . S
C1809 H1794 0.959 . S
C1809 H1795 0.961 . S
C1809 C1808 1.502 . S
C1810 H1796 0.960 . S
C1810 H1797 0.961 . S
C1810 H1798 0.959 . S
C1810 C1808 1.561 . S
C1811 C1808 1.526 . S
C1811 C1812 1.396 . S
C1811 C1816 1.390 . S
C1812 C1806 1.465 . S
C1812 C1811 1.396 . S
C1812 C1813 1.399 . S
C1813 H1799 0.929 . S
C1813 C1812 1.399 . S
C1813 C1814 1.385 . S
C1814 H1800 0.931 . S
C1814 C1813 1.385 . S
C1814 C1815 1.389 . S
C1815 C1814 1.389 . S
C1815 C1816 1.387 . S
C1816 H1801 0.930 . S
C1816 C1811 1.390 . S
C1816 C1815 1.387 . S
H1817 C1829 0.930 . S
H1818 C1831 0.930 . S
H1819 C1832 0.930 . S
H1820 C1836 0.959 . S
H1821 C1836 0.959 . S
H1822 C1836 0.961 . S
H1823 C1837 0.960 . S
H1824 C1837 0.961 . S
H1825 C1837 0.959 . S
H1826 C1840 0.929 . S
H1827 C1841 0.931 . S
H1828 C1843 0.930 . S
C1829 H1817 0.930 . S
C1829 C1830 1.399 . S
C1829 C1834 1.399 . S
C1830 C1829 1.399 . S
C1830 C1831 1.376 . S
C1831 H1818 0.930 . S
C1831 C1830 1.376 . S
C1831 C1832 1.388 . S
C1832 H1819 0.930 . S
C1832 C1831 1.388 . S
C1832 C1833 1.390 . S
C1833 C1832 1.390 . S
C1833 C1834 1.394 . S
C1833 C1839 1.465 . S
C1834 C1829 1.399 . S
C1834 C1833 1.394 . S
C1834 C1835 1.516 . S
C1835 C1834 1.516 . S
C1835 C1836 1.502 . S
C1835 C1837 1.561 . S
C1835 C1838 1.526 . S
C1836 H1820 0.959 . S
C1836 H1821 0.959 . S
C1836 H1822 0.961 . S
C1836 C1835 1.502 . S
C1837 H1823 0.960 . S
C1837 H1824 0.961 . S
C1837 H1825 0.959 . S
C1837 C1835 1.561 . S
C1838 C1835 1.526 . S
C1838 C1839 1.396 . S
C1838 C1843 1.390 . S
C1839 C1833 1.465 . S
C1839 C1838 1.396 . S
C1839 C1840 1.399 . S
C1840 H1826 0.929 . S
C1840 C1839 1.399 . S
C1840 C1841 1.385 . S
C1841 H1827 0.931 . S
C1841 C1840 1.385 . S
C1841 C1842 1.389 . S
C1842 C1841 1.389 . S
C1842 C1843 1.387 . S
C1843 H1828 0.930 . S
C1843 C1838 1.390 . S
C1843 C1842 1.387 . S
H1844 C1856 0.930 . S
H1845 C1858 0.930 . S
H1846 C1859 0.930 . S
H1847 C1863 0.959 . S
H1848 C1863 0.959 . S
H1849 C1863 0.961 . S
H1850 C1864 0.960 . S
H1851 C1864 0.961 . S
H1852 C1864 0.959 . S
H1853 C1867 0.929 . S
H1854 C1868 0.931 . S
H1855 C1870 0.930 . S
C1856 H1844 0.930 . S
C1856 C1857 1.399 . S
C1856 C1861 1.399 . S
C1857 C1856 1.399 . S
C1857 C1858 1.376 . S
C1858 H1845 0.930 . S
C1858 C1857 1.376 . S
C1858 C1859 1.388 . S
C1859 H1846 0.930 . S
C1859 C1858 1.388 . S
C1859 C1860 1.390 . S
C1860 C1859 1.390 . S
C1860 C1861 1.394 . S
C1860 C1866 1.465 . S
C1861 C1856 1.399 . S
C1861 C1860 1.394 . S
C1861 C1862 1.516 . S
C1862 C1861 1.516 . S
C1862 C1863 1.502 . S
C1862 C1864 1.561 . S
C1862 C1865 1.526 . S
C1863 H1847 0.959 . S
C1863 H1848 0.959 . S
C1863 H1849 0.961 . S
C1863 C1862 1.502 . S
C1864 H1850 0.960 . S
C1864 H1851 0.961 . S
C1864 H1852 0.959 . S
C1864 C1862 1.561 . S
C1865 C1862 1.526 . S
C1865 C1866 1.396 . S
C1865 C1870 1.390 . S
C1866 C1860 1.465 . S
C1866 C1865 1.396 . S
C1866 C1867 1.399 . S
C1867 H1853 0.929 . S
C1867 C1866 1.399 . S
C1867 C1868 1.385 . S
C1868 H1854 0.931 . S
C1868 C1867 1.385 . S
C1868 C1869 1.389 . S
C1869 C1868 1.389 . S
C1869 C1870 1.387 . S
C1870 H1855 0.930 . S
C1870 C1865 1.390 . S
C1870 C1869 1.387 . S
H1871 C1883 0.930 . S
H1872 C1885 0.930 . S
H1873 C1886 0.930 . S
H1874 C1890 0.959 . S
H1875 C1890 0.959 . S
H1876 C1890 0.961 . S
H1877 C1891 0.960 . S
H1878 C1891 0.961 . S
H1879 C1891 0.959 . S
H1880 C1894 0.929 . S
H1881 C1895 0.931 . S
H1882 C1897 0.930 . S
C1883 H1871 0.930 . S
C1883 C1884 1.399 . S
C1883 C1888 1.399 . S
C1884 C1883 1.399 . S
C1884 C1885 1.376 . S
C1885 H1872 0.930 . S
C1885 C1884 1.376 . S
C1885 C1886 1.388 . S
C1886 H1873 0.930 . S
C1886 C1885 1.388 . S
C1886 C1887 1.390 . S
C1887 C1886 1.390 . S
C1887 C1888 1.394 . S
C1887 C1893 1.465 . S
C1888 C1883 1.399 . S
C1888 C1887 1.394 . S
C1888 C1889 1.516 . S
C1889 C1888 1.516 . S
C1889 C1890 1.502 . S
C1889 C1891 1.561 . S
C1889 C1892 1.526 . S
C1890 H1874 0.959 . S
C1890 H1875 0.959 . S
C1890 H1876 0.961 . S
C1890 C1889 1.502 . S
C1891 H1877 0.960 . S
C1891 H1878 0.961 . S
C1891 H1879 0.959 . S
C1891 C1889 1.561 . S
C1892 C1889 1.526 . S
C1892 C1893 1.396 . S
C1892 C1897 1.390 . S
C1893 C1887 1.465 . S
C1893 C1892 1.396 . S
C1893 C1894 1.399 . S
C1894 H1880 0.929 . S
C1894 C1893 1.399 . S
C1894 C1895 1.385 . S
C1895 H1881 0.931 . S
C1895 C1894 1.385 . S
C1895 C1896 1.389 . S
C1896 C1895 1.389 . S
C1896 C1897 1.387 . S
C1897 H1882 0.930 . S
C1897 C1892 1.390 . S
C1897 C1896 1.387 . S
H1898 C1910 0.930 . S
H1899 C1912 0.930 . S
H1900 C1913 0.930 . S
H1901 C1917 0.959 . S
H1902 C1917 0.959 . S
H1903 C1917 0.961 . S
H1904 C1918 0.960 . S
H1905 C1918 0.961 . S
H1906 C1918 0.959 . S
H1907 C1921 0.929 . S
H1908 C1922 0.931 . S
H1909 C1924 0.930 . S
C1910 H1898 0.930 . S
C1910 C1911 1.399 . S
C1910 C1915 1.399 . S
C1911 C1910 1.399 . S
C1911 C1912 1.376 . S
C1912 H1899 0.930 . S
C1912 C1911 1.376 . S
C1912 C1913 1.388 . S
C1913 H1900 0.930 . S
C1913 C1912 1.388 . S
C1913 C1914 1.390 . S
C1914 C1913 1.390 . S
C1914 C1915 1.394 . S
C1914 C1920 1.465 . S
C1915 C1910 1.399 . S
C1915 C1914 1.394 . S
C1915 C1916 1.516 . S
C1916 C1915 1.516 . S
C1916 C1917 1.502 . S
C1916 C1918 1.561 . S
C1916 C1919 1.526 . S
C1917 H1901 0.959 . S
C1917 H1902 0.959 . S
C1917 H1903 0.961 . S
C1917 C1916 1.502 . S
C1918 H1904 0.960 . S
C1918 H1905 0.961 . S
C1918 H1906 0.959 . S
C1918 C1916 1.561 . S
C1919 C1916 1.526 . S
C1919 C1920 1.396 . S
C1919 C1924 1.390 . S
C1920 C1914 1.465 . S
C1920 C1919 1.396 . S
C1920 C1921 1.399 . S
C1921 H1907 0.929 . S
C1921 C1920 1.399 . S
C1921 C1922 1.385 . S
C1922 H1908 0.931 . S
C1922 C1921 1.385 . S
C1922 C1923 1.389 . S
C1923 C1922 1.389 . S
C1923 C1924 1.387 . S
C1924 H1909 0.930 . S
C1924 C1919 1.390 . S
C1924 C1923 1.387 . S
H1925 C1937 0.930 . S
H1926 C1939 0.930 . S
H1927 C1940 0.930 . S
H1928 C1944 0.959 . S
H1929 C1944 0.959 . S
H1930 C1944 0.961 . S
H1931 C1945 0.960 . S
H1932 C1945 0.961 . S
H1933 C1945 0.959 . S
H1934 C1948 0.929 . S
H1935 C1949 0.931 . S
H1936 C1951 0.930 . S
C1937 H1925 0.930 . S
C1937 C1938 1.399 . S
C1937 C1942 1.399 . S
C1938 C1937 1.399 . S
C1938 C1939 1.376 . S
C1939 H1926 0.930 . S
C1939 C1938 1.376 . S
C1939 C1940 1.388 . S
C1940 H1927 0.930 . S
C1940 C1939 1.388 . S
C1940 C1941 1.390 . S
C1941 C1940 1.390 . S
C1941 C1942 1.394 . S
C1941 C1947 1.465 . S
C1942 C1937 1.399 . S
C1942 C1941 1.394 . S
C1942 C1943 1.516 . S
C1943 C1942 1.516 . S
C1943 C1944 1.502 . S
C1943 C1945 1.561 . S
C1943 C1946 1.526 . S
C1944 H1928 0.959 . S
C1944 H1929 0.959 . S
C1944 H1930 0.961 . S
C1944 C1943 1.502 . S
C1945 H1931 0.960 . S
C1945 H1932 0.961 . S
C1945 H1933 0.959 . S
C1945 C1943 1.561 . S
C1946 C1943 1.526 . S
C1946 C1947 1.396 . S
C1946 C1951 1.390 . S
C1947 C1941 1.465 . S
C1947 C1946 1.396 . S
C1947 C1948 1.399 . S
C1948 H1934 0.929 . S
C1948 C1947 1.399 . S
C1948 C1949 1.385 . S
C1949 H1935 0.931 . S
C1949 C1948 1.385 . S
C1949 C1950 1.389 . S
C1950 C1949 1.389 . S
C1950 C1951 1.387 . S
C1951 H1936 0.930 . S
C1951 C1946 1.390 . S
C1951 C1950 1.387 . S
H1952 C1964 0.930 . S
H1953 C1966 0.930 . S
H1954 C1967 0.930 . S
H1955 C1971 0.959 . S
H1956 C1971 0.959 . S
H1957 C1971 0.961 . S
H1958 C1972 0.960 . S
H1959 C1972 0.961 . S
H1960 C1972 0.959 . S
H1961 C1975 0.927 . S
H1962 C1976 0.931 . S
H1963 C1978 0.930 . S
C1964 H1952 0.930 . S
C1964 C1965 1.399 . S
C1964 C1969 1.399 . S
C1965 C1964 1.399 . S
C1965 C1966 1.376 . S
C1966 H1953 0.930 . S
C1966 C1965 1.376 . S
C1966 C1967 1.388 . S
C1967 H1954 0.930 . S
C1967 C1966 1.388 . S
C1967 C1968 1.390 . S
C1968 C1967 1.390 . S
C1968 C1969 1.394 . S
C1968 C1974 1.465 1_545 S
C1969 C1964 1.399 . S
C1969 C1968 1.394 . S
C1969 C1970 1.516 1_545 S
C1970 C1969 1.516 1_565 S
C1970 C1971 1.502 . S
C1970 C1972 1.561 . S
C1970 C1973 1.526 . S
C1971 H1955 0.959 . S
C1971 H1956 0.959 . S
C1971 H1957 0.961 . S
C1971 C1970 1.502 . S
C1972 H1958 0.960 . S
C1972 H1959 0.961 . S
C1972 H1960 0.959 . S
C1972 C1970 1.561 . S
C1973 C1970 1.526 . S
C1973 C1974 1.396 . S
C1973 C1978 1.390 . S
C1974 C1968 1.465 1_565 S
C1974 C1973 1.396 . S
C1974 C1975 1.399 1_565 S
C1975 H1961 0.927 . S
C1975 C1974 1.399 1_545 S
C1975 C1976 1.387 1_545 S
C1976 H1962 0.931 . S
C1976 C1975 1.387 1_565 S
C1976 C1977 1.389 . S
C1977 C1976 1.389 . S
C1977 C1978 1.387 . S
C1978 H1963 0.930 . S
C1978 C1973 1.390 . S
C1978 C1977 1.387 . S
H1979 C1991 0.930 . S
H1980 C1993 0.930 . S
H1981 C1994 0.930 1_545 S
H1982 C1998 0.959 . S
H1983 C1998 0.959 . S
H1984 C1998 0.961 . S
H1985 C1999 0.960 . S
H1986 C1999 0.961 . S
H1987 C1999 0.959 . S
H1988 C2002 0.929 1_545 S
H1989 C2003 0.931 . S
H1990 C2005 0.930 . S
C1991 H1979 0.930 . S
C1991 C1992 1.399 . S
C1991 C1996 1.399 . S
C1992 C1991 1.399 . S
C1992 C1993 1.376 . S
C1993 H1980 0.930 . S
C1993 C1992 1.376 . S
C1993 C1994 1.388 . S
C1994 H1981 0.930 1_565 S
C1994 C1993 1.388 . S
C1994 C1995 1.390 . S
C1995 C1994 1.390 . S
C1995 C1996 1.394 . S
C1995 C2001 1.465 . S
C1996 C1991 1.399 . S
C1996 C1995 1.394 . S
C1996 C1997 1.516 . S
C1997 C1996 1.516 . S
C1997 C1998 1.502 . S
C1997 C1999 1.561 . S
C1997 C2000 1.526 . S
C1998 H1982 0.959 . S
C1998 H1983 0.959 . S
C1998 H1984 0.961 . S
C1998 C1997 1.502 . S
C1999 H1985 0.960 . S
C1999 H1986 0.961 . S
C1999 H1987 0.959 . S
C1999 C1997 1.561 . S
C2000 C1997 1.526 . S
C2000 C2001 1.396 . S
C2000 C2005 1.390 . S
C2001 C1995 1.465 . S
C2001 C2000 1.396 . S
C2001 C2002 1.399 . S
C2002 H1988 0.929 1_565 S
C2002 C2001 1.399 . S
C2002 C2003 1.385 . S
C2003 H1989 0.931 . S
C2003 C2002 1.385 . S
C2003 C2004 1.389 . S
C2004 C2003 1.389 . S
C2004 C2005 1.387 . S
C2005 H1990 0.930 . S
C2005 C2000 1.390 . S
C2005 C2004 1.387 . S
H2006 C2018 0.930 . S
H2007 C2020 0.930 . S
H2008 C2021 0.930 1_565 S
H2009 C2025 0.959 . S
H2010 C2025 0.959 . S
H2011 C2025 0.961 . S
H2012 C2026 0.960 . S
H2013 C2026 0.961 . S
H2014 C2026 0.959 . S
H2015 C2029 0.929 . S
H2016 C2030 0.931 . S
H2017 C2032 0.930 . S
C2018 H2006 0.930 . S
C2018 C2019 1.399 . S
C2018 C2023 1.399 . S
C2019 C2018 1.399 . S
C2019 C2020 1.376 . S
C2020 H2007 0.930 . S
C2020 C2019 1.376 . S
C2020 C2021 1.388 . S
C2021 H2008 0.930 1_545 S
C2021 C2020 1.388 . S
C2021 C2022 1.390 . S
C2022 C2021 1.390 . S
C2022 C2023 1.394 . S
C2022 C2028 1.465 1_545 S
C2023 C2018 1.399 . S
C2023 C2022 1.394 . S
C2023 C2024 1.516 . S
C2024 C2023 1.516 . S
C2024 C2025 1.502 . S
C2024 C2026 1.561 . S
C2024 C2027 1.526 1_545 S
C2025 H2009 0.959 . S
C2025 H2010 0.959 . S
C2025 H2011 0.961 . S
C2025 C2024 1.502 . S
C2026 H2012 0.960 . S
C2026 H2013 0.961 . S
C2026 H2014 0.959 . S
C2026 C2024 1.561 . S
C2027 C2024 1.526 1_565 S
C2027 C2028 1.396 . S
C2027 C2032 1.390 . S
C2028 C2022 1.465 1_565 S
C2028 C2027 1.396 . S
C2028 C2029 1.399 . S
C2029 H2015 0.929 . S
C2029 C2028 1.399 . S
C2029 C2030 1.385 . S
C2030 H2016 0.931 . S
C2030 C2029 1.385 . S
C2030 C2031 1.389 . S
C2031 C2030 1.389 . S
C2031 C2032 1.387 . S
C2032 H2017 0.930 . S
C2032 C2027 1.390 . S
C2032 C2031 1.387 . S
H2033 C2045 0.930 . S
H2034 C2047 0.930 . S
H2035 C2048 0.930 . S
H2036 C2052 0.959 . S
H2037 C2052 0.959 . S
H2038 C2052 0.961 . S
H2039 C2053 0.960 . S
H2040 C2053 0.961 . S
H2041 C2053 0.959 . S
H2042 C2056 0.929 . S
H2043 C2057 0.931 . S
H2044 C2059 0.930 . S
C2045 H2033 0.930 . S
C2045 C2046 1.399 . S
C2045 C2050 1.399 . S
C2046 C2045 1.399 . S
C2046 C2047 1.376 . S
C2047 H2034 0.930 . S
C2047 C2046 1.376 . S
C2047 C2048 1.388 1_554 S
C2048 H2035 0.930 . S
C2048 C2047 1.388 1_556 S
C2048 C2049 1.390 1_556 S
C2049 C2048 1.390 1_554 S
C2049 C2050 1.391 . S
C2049 C2055 1.467 1_554 S
C2050 C2045 1.399 . S
C2050 C2049 1.391 . S
C2050 C2051 1.516 . S
C2051 C2050 1.516 . S
C2051 C2052 1.502 . S
C2051 C2053 1.561 . S
C2051 C2054 1.526 1_554 S
C2052 H2036 0.959 . S
C2052 H2037 0.959 . S
C2052 H2038 0.961 . S
C2052 C2051 1.502 . S
C2053 H2039 0.960 . S
C2053 H2040 0.961 . S
C2053 H2041 0.959 . S
C2053 C2051 1.561 . S
C2054 C2051 1.526 1_556 S
C2054 C2055 1.396 . S
C2054 C2059 1.390 . S
C2055 C2049 1.467 1_556 S
C2055 C2054 1.396 . S
C2055 C2056 1.399 . S
C2056 H2042 0.929 . S
C2056 C2055 1.399 . S
C2056 C2057 1.385 . S
C2057 H2043 0.931 . S
C2057 C2056 1.385 . S
C2057 C2058 1.389 . S
C2058 C2057 1.389 . S
C2058 C2059 1.387 . S
C2059 H2044 0.930 . S
C2059 C2054 1.390 . S
C2059 C2058 1.387 . S
H2060 C2072 0.930 . S
H2061 C2074 0.930 . S
H2062 C2075 0.930 1_545 S
H2063 C2079 0.959 . S
H2064 C2079 0.959 . S
H2065 C2079 0.961 . S
H2066 C2080 0.960 . S
H2067 C2080 0.961 . S
H2068 C2080 0.959 . S
H2069 C2083 0.929 . S
H2070 C2084 0.931 . S
H2071 C2086 0.930 . S
C2072 H2060 0.930 . S
C2072 C2073 1.399 . S
C2072 C2077 1.399 . S
C2073 C2072 1.399 . S
C2073 C2074 1.376 . S
C2074 H2061 0.930 . S
C2074 C2073 1.376 . S
C2074 C2075 1.388 . S
C2075 H2062 0.930 1_565 S
C2075 C2074 1.388 . S
C2075 C2076 1.390 . S
C2076 C2075 1.390 . S
C2076 C2077 1.394 . S
C2076 C2082 1.465 1_565 S
C2077 C2072 1.399 . S
C2077 C2076 1.394 . S
C2077 C2078 1.516 . S
C2078 C2077 1.516 . S
C2078 C2079 1.502 . S
C2078 C2080 1.561 . S
C2078 C2081 1.526 1_565 S
C2079 H2063 0.959 . S
C2079 H2064 0.959 . S
C2079 H2065 0.961 . S
C2079 C2078 1.502 . S
C2080 H2066 0.960 . S
C2080 H2067 0.961 . S
C2080 H2068 0.959 . S
C2080 C2078 1.561 . S
C2081 C2078 1.526 1_545 S
C2081 C2082 1.396 . S
C2081 C2086 1.390 . S
C2082 C2076 1.465 1_545 S
C2082 C2081 1.396 . S
C2082 C2083 1.399 . S
C2083 H2069 0.929 . S
C2083 C2082 1.399 . S
C2083 C2084 1.385 . S
C2084 H2070 0.931 . S
C2084 C2083 1.385 . S
C2084 C2085 1.389 . S
C2085 C2084 1.389 . S
C2085 C2086 1.387 . S
C2086 H2071 0.930 . S
C2086 C2081 1.390 . S
C2086 C2085 1.387 . S
H2087 C2099 0.930 . S
H2088 C2101 0.930 . S
H2089 C2102 0.930 . S
H2090 C2106 0.959 1_545 S
H2091 C2106 0.959 . S
H2092 C2106 0.961 . S
H2093 C2107 0.960 . S
H2094 C2107 0.961 . S
H2095 C2107 0.959 1_545 S
H2096 C2110 0.929 . S
H2097 C2111 0.931 . S
H2098 C2113 0.930 . S
C2099 H2087 0.930 . S
C2099 C2100 1.399 . S
C2099 C2104 1.399 . S
C2100 C2099 1.399 . S
C2100 C2101 1.376 . S
C2101 H2088 0.930 . S
C2101 C2100 1.376 . S
C2101 C2102 1.388 . S
C2102 H2089 0.930 . S
C2102 C2101 1.388 . S
C2102 C2103 1.390 . S
C2103 C2102 1.390 . S
C2103 C2104 1.394 . S
C2103 C2109 1.465 . S
C2104 C2099 1.399 . S
C2104 C2103 1.394 . S
C2104 C2105 1.516 . S
C2105 C2104 1.516 . S
C2105 C2106 1.502 1_545 S
C2105 C2107 1.561 1_545 S
C2105 C2108 1.526 . S
C2106 H2090 0.959 1_565 S
C2106 H2091 0.959 . S
C2106 H2092 0.961 . S
C2106 C2105 1.502 1_565 S
C2107 H2093 0.960 . S
C2107 H2094 0.961 . S
C2107 H2095 0.959 1_565 S
C2107 C2105 1.561 1_565 S
C2108 C2105 1.526 . S
C2108 C2109 1.396 . S
C2108 C2113 1.390 . S
C2109 C2103 1.465 . S
C2109 C2108 1.396 . S
C2109 C2110 1.399 . S
C2110 H2096 0.929 . S
C2110 C2109 1.399 . S
C2110 C2111 1.385 . S
C2111 H2097 0.931 . S
C2111 C2110 1.385 . S
C2111 C2112 1.389 . S
C2112 C2111 1.389 . S
C2112 C2113 1.387 . S
C2113 H2098 0.930 . S
C2113 C2108 1.390 . S
C2113 C2112 1.387 . S
H2114 C2126 0.930 . S
H2115 C2128 0.930 . S
H2116 C2129 0.930 . S
H2117 C2133 0.959 . S
H2118 C2133 0.959 . S
H2119 C2133 0.961 . S
H2120 C2134 0.960 . S
H2121 C2134 0.961 . S
H2122 C2134 0.959 . S
H2123 C2137 0.927 . S
H2124 C2138 0.931 . S
H2125 C2140 0.930 . S
C2126 H2114 0.930 . S
C2126 C2127 1.399 . S
C2126 C2131 1.399 . S
C2127 C2126 1.399 . S
C2127 C2128 1.376 . S
C2128 H2115 0.930 . S
C2128 C2127 1.376 . S
C2128 C2129 1.388 . S
C2129 H2116 0.930 . S
C2129 C2128 1.388 . S
C2129 C2130 1.390 . S
C2130 C2129 1.390 . S
C2130 C2131 1.394 . S
C2130 C2136 1.465 1_545 S
C2131 C2126 1.399 . S
C2131 C2130 1.394 . S
C2131 C2132 1.516 1_545 S
C2132 C2131 1.516 1_565 S
C2132 C2133 1.502 . S
C2132 C2134 1.561 . S
C2132 C2135 1.526 . S
C2133 H2117 0.959 . S
C2133 H2118 0.959 . S
C2133 H2119 0.961 . S
C2133 C2132 1.502 . S
C2134 H2120 0.960 . S
C2134 H2121 0.961 . S
C2134 H2122 0.959 . S
C2134 C2132 1.561 . S
C2135 C2132 1.526 . S
C2135 C2136 1.396 . S
C2135 C2140 1.390 . S
C2136 C2130 1.465 1_565 S
C2136 C2135 1.396 . S
C2136 C2137 1.399 1_565 S
C2137 H2123 0.927 . S
C2137 C2136 1.399 1_545 S
C2137 C2138 1.387 1_545 S
C2138 H2124 0.931 . S
C2138 C2137 1.387 1_565 S
C2138 C2139 1.389 . S
C2139 C2138 1.389 . S
C2139 C2140 1.387 . S
C2140 H2125 0.930 . S
C2140 C2135 1.390 . S
C2140 C2139 1.387 . S
H2141 C2153 0.930 . S
H2142 C2155 0.930 . S
H2143 C2156 0.933 1_554 S
H2144 C2160 0.959 . S
H2145 C2160 0.959 1_545 S
H2146 C2160 0.961 1_545 S
H2147 C2161 0.960 1_556 S
H2148 C2161 0.961 . S
H2149 C2161 0.959 . S
H2150 C2164 0.929 . S
H2151 C2165 0.931 . S
H2152 C2167 0.930 . S
C2153 H2141 0.930 . S
C2153 C2154 1.399 . S
C2153 C2158 1.399 . S
C2154 C2153 1.399 . S
C2154 C2155 1.376 . S
C2155 H2142 0.930 . S
C2155 C2154 1.376 . S
C2155 C2156 1.388 . S
C2156 H2143 0.933 1_556 S
C2156 C2155 1.388 . S
C2156 C2157 1.390 . S
C2157 C2156 1.390 . S
C2157 C2158 1.394 . S
C2157 C2163 1.465 1_556 S
C2158 C2153 1.399 . S
C2158 C2157 1.394 . S
C2158 C2159 1.516 . S
C2159 C2158 1.516 . S
C2159 C2160 1.502 . S
C2159 C2161 1.561 1_566 S
C2159 C2162 1.526 1_556 S
C2160 H2144 0.959 . S
C2160 H2145 0.959 1_565 S
C2160 H2146 0.961 1_565 S
C2160 C2159 1.502 . S
C2161 H2147 0.960 1_554 S
C2161 H2148 0.961 . S
C2161 H2149 0.959 . S
C2161 C2159 1.561 1_544 S
C2162 C2159 1.526 1_554 S
C2162 C2163 1.396 . S
C2162 C2167 1.390 . S
C2163 C2157 1.465 1_554 S
C2163 C2162 1.396 . S
C2163 C2164 1.399 . S
C2164 H2150 0.929 . S
C2164 C2163 1.399 . S
C2164 C2165 1.385 . S
C2165 H2151 0.931 . S
C2165 C2164 1.385 . S
C2165 C2166 1.389 . S
C2166 C2165 1.389 . S
C2166 C2167 1.387 . S
C2167 H2152 0.930 . S
C2167 C2162 1.390 . S
C2167 C2166 1.387 . S
H2168 C2180 0.930 . S
H2169 C2182 0.930 . S
H2170 C2183 0.930 . S
H2171 C2187 0.959 . S
H2172 C2187 0.959 . S
H2173 C2187 0.961 . S
H2174 C2188 0.960 . S
H2175 C2188 0.961 . S
H2176 C2188 0.959 . S
H2177 C2191 0.929 . S
H2178 C2192 0.931 . S
H2179 C2194 0.930 . S
C2180 H2168 0.930 . S
C2180 C2181 1.399 . S
C2180 C2185 1.399 . S
C2181 C2180 1.399 . S
C2181 C2182 1.376 . S
C2182 H2169 0.930 . S
C2182 C2181 1.376 . S
C2182 C2183 1.388 . S
C2183 H2170 0.930 . S
C2183 C2182 1.388 . S
C2183 C2184 1.390 . S
C2184 C2183 1.390 . S
C2184 C2185 1.394 . S
C2184 C2190 1.465 . S
C2185 C2180 1.399 . S
C2185 C2184 1.394 . S
C2185 C2186 1.516 . S
C2186 C2185 1.516 . S
C2186 C2187 1.502 . S
C2186 C2188 1.561 . S
C2186 C2189 1.526 . S
C2187 H2171 0.959 . S
C2187 H2172 0.959 . S
C2187 H2173 0.961 . S
C2187 C2186 1.502 . S
C2188 H2174 0.960 . S
C2188 H2175 0.961 . S
C2188 H2176 0.959 . S
C2188 C2186 1.561 . S
C2189 C2186 1.526 . S
C2189 C2190 1.396 . S
C2189 C2194 1.390 . S
C2190 C2184 1.465 . S
C2190 C2189 1.396 . S
C2190 C2191 1.399 . S
C2191 H2177 0.929 . S
C2191 C2190 1.399 . S
C2191 C2192 1.385 . S
C2192 H2178 0.931 . S
C2192 C2191 1.385 . S
C2192 C2193 1.389 . S
C2193 C2192 1.389 . S
C2193 C2194 1.387 . S
C2194 H2179 0.930 . S
C2194 C2189 1.390 . S
C2194 C2193 1.387 . S
H2195 C2207 0.930 . S
H2196 C2209 0.930 . S
H2197 C2210 0.930 . S
H2198 C2214 0.959 . S
H2199 C2214 0.959 . S
H2200 C2214 0.961 . S
H2201 C2215 0.960 . S
H2202 C2215 0.943 1_554 S
H2203 C2215 0.959 . S
H2204 C2218 0.929 . S
H2205 C2219 0.931 . S
H2206 C2221 0.930 . S
C2207 H2195 0.930 . S
C2207 C2208 1.399 . S
C2207 C2212 1.399 . S
C2208 C2207 1.399 . S
C2208 C2209 1.376 . S
C2209 H2196 0.930 . S
C2209 C2208 1.376 . S
C2209 C2210 1.388 . S
C2210 H2197 0.930 . S
C2210 C2209 1.388 . S
C2210 C2211 1.390 . S
C2211 C2210 1.390 . S
C2211 C2212 1.394 . S
C2211 C2217 1.465 1_556 S
C2212 C2207 1.399 . S
C2212 C2211 1.394 . S
C2212 C2213 1.516 1_556 S
C2213 C2212 1.516 1_554 S
C2213 C2214 1.502 . S
C2213 C2215 1.561 1_554 S
C2213 C2216 1.526 . S
C2214 H2198 0.959 . S
C2214 H2199 0.959 . S
C2214 H2200 0.961 . S
C2214 C2213 1.502 . S
C2215 H2201 0.960 . S
C2215 H2202 0.943 1_556 S
C2215 H2203 0.959 . S
C2215 C2213 1.561 1_556 S
C2216 C2213 1.526 . S
C2216 C2217 1.396 . S
C2216 C2221 1.390 . S
C2217 C2211 1.465 1_554 S
C2217 C2216 1.396 . S
C2217 C2218 1.399 . S
C2218 H2204 0.929 . S
C2218 C2217 1.399 . S
C2218 C2219 1.385 . S
C2219 H2205 0.931 . S
C2219 C2218 1.385 . S
C2219 C2220 1.389 . S
C2220 C2219 1.389 . S
C2220 C2221 1.387 . S
C2221 H2206 0.930 . S
C2221 C2216 1.390 . S
C2221 C2220 1.387 . S
H2222 C2234 0.930 . S
H2223 C2236 0.930 . S
H2224 C2237 0.930 . S
H2225 C2241 0.959 . S
H2226 C2241 0.959 . S
H2227 C2241 0.961 . S
H2228 C2242 0.960 . S
H2229 C2242 0.961 . S
H2230 C2242 0.959 . S
H2231 C2245 0.929 . S
H2232 C2246 0.931 . S
H2233 C2248 0.930 . S
C2234 H2222 0.930 . S
C2234 C2235 1.399 . S
C2234 C2239 1.399 . S
C2235 C2234 1.399 . S
C2235 C2236 1.376 . S
C2236 H2223 0.930 . S
C2236 C2235 1.376 . S
C2236 C2237 1.388 . S
C2237 H2224 0.930 . S
C2237 C2236 1.388 . S
C2237 C2238 1.390 . S
C2238 C2237 1.390 . S
C2238 C2239 1.394 . S
C2238 C2244 1.465 . S
C2239 C2234 1.399 . S
C2239 C2238 1.394 . S
C2239 C2240 1.516 . S
C2240 C2239 1.516 . S
C2240 C2241 1.502 . S
C2240 C2242 1.561 . S
C2240 C2243 1.526 . S
C2241 H2225 0.959 . S
C2241 H2226 0.959 . S
C2241 H2227 0.961 . S
C2241 C2240 1.502 . S
C2242 H2228 0.960 . S
C2242 H2229 0.961 . S
C2242 H2230 0.959 . S
C2242 C2240 1.561 . S
C2243 C2240 1.526 . S
C2243 C2244 1.396 . S
C2243 C2248 1.390 . S
C2244 C2238 1.465 . S
C2244 C2243 1.396 . S
C2244 C2245 1.399 . S
C2245 H2231 0.929 . S
C2245 C2244 1.399 . S
C2245 C2246 1.385 . S
C2246 H2232 0.931 . S
C2246 C2245 1.385 . S
C2246 C2247 1.389 . S
C2247 C2246 1.389 . S
C2247 C2248 1.387 . S
C2248 H2233 0.930 . S
C2248 C2243 1.390 . S
C2248 C2247 1.387 . S
H2249 C2261 0.930 . S
H2250 C2263 0.930 . S
H2251 C2264 0.930 . S
H2252 C2268 0.959 . S
H2253 C2268 0.959 . S
H2254 C2268 0.961 . S
H2255 C2269 0.960 . S
H2256 C2269 0.961 . S
H2257 C2269 0.959 . S
H2258 C2272 0.929 . S
H2259 C2273 0.931 . S
H2260 C2275 0.930 . S
C2261 H2249 0.930 . S
C2261 C2262 1.399 . S
C2261 C2266 1.399 . S
C2262 C2261 1.399 . S
C2262 C2263 1.376 . S
C2263 H2250 0.930 . S
C2263 C2262 1.376 . S
C2263 C2264 1.388 . S
C2264 H2251 0.930 . S
C2264 C2263 1.388 . S
C2264 C2265 1.390 . S
C2265 C2264 1.390 . S
C2265 C2266 1.394 . S
C2265 C2271 1.465 . S
C2266 C2261 1.399 . S
C2266 C2265 1.394 . S
C2266 C2267 1.516 . S
C2267 C2266 1.516 . S
C2267 C2268 1.502 . S
C2267 C2269 1.561 . S
C2267 C2270 1.526 . S
C2268 H2252 0.959 . S
C2268 H2253 0.959 . S
C2268 H2254 0.961 . S
C2268 C2267 1.502 . S
C2269 H2255 0.960 . S
C2269 H2256 0.961 . S
C2269 H2257 0.959 . S
C2269 C2267 1.561 . S
C2270 C2267 1.526 . S
C2270 C2271 1.396 . S
C2270 C2275 1.390 . S
C2271 C2265 1.465 . S
C2271 C2270 1.396 . S
C2271 C2272 1.399 . S
C2272 H2258 0.929 . S
C2272 C2271 1.399 . S
C2272 C2273 1.385 . S
C2273 H2259 0.931 . S
C2273 C2272 1.385 . S
C2273 C2274 1.389 . S
C2274 C2273 1.389 . S
C2274 C2275 1.387 . S
C2275 H2260 0.930 . S
C2275 C2270 1.390 . S
C2275 C2274 1.387 . S
H2276 C2288 0.930 . S
H2277 C2290 0.930 . S
H2278 C2291 0.930 . S
H2279 C2295 0.959 . S
H2280 C2295 0.959 . S
H2281 C2295 0.961 . S
H2282 C2296 0.960 . S
H2283 C2296 0.961 . S
H2284 C2296 0.959 . S
H2285 C2299 0.929 . S
H2286 C2300 0.931 . S
H2287 C2302 0.930 . S
C2288 H2276 0.930 . S
C2288 C2289 1.399 . S
C2288 C2293 1.399 . S
C2289 C2288 1.399 . S
C2289 C2290 1.376 . S
C2290 H2277 0.930 . S
C2290 C2289 1.376 . S
C2290 C2291 1.388 . S
C2291 H2278 0.930 . S
C2291 C2290 1.388 . S
C2291 C2292 1.390 . S
C2292 C2291 1.390 . S
C2292 C2293 1.394 . S
C2292 C2298 1.465 . S
C2293 C2288 1.399 . S
C2293 C2292 1.394 . S
C2293 C2294 1.516 . S
C2294 C2293 1.516 . S
C2294 C2295 1.502 . S
C2294 C2296 1.561 . S
C2294 C2297 1.526 . S
C2295 H2279 0.959 . S
C2295 H2280 0.959 . S
C2295 H2281 0.961 . S
C2295 C2294 1.502 . S
C2296 H2282 0.960 . S
C2296 H2283 0.961 . S
C2296 H2284 0.959 . S
C2296 C2294 1.561 . S
C2297 C2294 1.526 . S
C2297 C2298 1.396 . S
C2297 C2302 1.390 . S
C2298 C2292 1.465 . S
C2298 C2297 1.396 . S
C2298 C2299 1.399 . S
C2299 H2285 0.929 . S
C2299 C2298 1.399 . S
C2299 C2300 1.385 . S
C2300 H2286 0.931 . S
C2300 C2299 1.385 . S
C2300 C2301 1.389 . S
C2301 C2300 1.389 . S
C2301 C2302 1.387 . S
C2302 H2287 0.930 . S
C2302 C2297 1.390 . S
C2302 C2301 1.387 . S
H2303 C2315 0.930 . S
H2304 C2317 0.930 . S
H2305 C2318 0.930 . S
H2306 C2322 0.959 . S
H2307 C2322 0.959 . S
H2308 C2322 0.961 1_556 S
H2309 C2323 0.960 . S
H2310 C2323 0.961 . S
H2311 C2323 0.959 . S
H2312 C2326 0.929 . S
H2313 C2327 0.931 . S
H2314 C2329 0.930 . S
C2315 H2303 0.930 . S
C2315 C2316 1.399 . S
C2315 C2320 1.399 . S
C2316 C2315 1.399 . S
C2316 C2317 1.376 . S
C2317 H2304 0.930 . S
C2317 C2316 1.376 . S
C2317 C2318 1.388 . S
C2318 H2305 0.930 . S
C2318 C2317 1.388 . S
C2318 C2319 1.390 . S
C2319 C2318 1.390 . S
C2319 C2320 1.394 . S
C2319 C2325 1.465 1_556 S
C2320 C2315 1.399 . S
C2320 C2319 1.394 . S
C2320 C2321 1.516 . S
C2321 C2320 1.516 . S
C2321 C2322 1.502 1_556 S
C2321 C2323 1.561 . S
C2321 C2324 1.526 1_556 S
C2322 H2306 0.959 . S
C2322 H2307 0.959 . S
C2322 H2308 0.961 1_554 S
C2322 C2321 1.502 1_554 S
C2323 H2309 0.960 . S
C2323 H2310 0.961 . S
C2323 H2311 0.959 . S
C2323 C2321 1.561 . S
C2324 C2321 1.526 1_554 S
C2324 C2325 1.396 . S
C2324 C2329 1.390 . S
C2325 C2319 1.465 1_554 S
C2325 C2324 1.396 . S
C2325 C2326 1.399 . S
C2326 H2312 0.929 . S
C2326 C2325 1.399 . S
C2326 C2327 1.385 . S
C2327 H2313 0.931 . S
C2327 C2326 1.385 . S
C2327 C2328 1.389 . S
C2328 C2327 1.389 . S
C2328 C2329 1.387 . S
C2329 H2314 0.930 . S
C2329 C2324 1.390 . S
C2329 C2328 1.387 . S
H2330 C2342 0.930 . S
H2331 C2344 0.930 . S
H2332 C2345 0.930 . S
H2333 C2349 0.959 . S
H2334 C2349 0.959 . S
H2335 C2349 0.961 . S
H2336 C2350 0.960 . S
H2337 C2350 0.961 . S
H2338 C2350 0.959 . S
H2339 C2353 0.929 . S
H2340 C2354 0.931 . S
H2341 C2356 0.930 . S
C2342 H2330 0.930 . S
C2342 C2343 1.399 . S
C2342 C2347 1.399 . S
C2343 C2342 1.399 . S
C2343 C2344 1.376 . S
C2344 H2331 0.930 . S
C2344 C2343 1.376 . S
C2344 C2345 1.388 . S
C2345 H2332 0.930 . S
C2345 C2344 1.388 . S
C2345 C2346 1.390 . S
C2346 C2345 1.390 . S
C2346 C2347 1.394 . S
C2346 C2352 1.465 . S
C2347 C2342 1.399 . S
C2347 C2346 1.394 . S
C2347 C2348 1.516 . S
C2348 C2347 1.516 . S
C2348 C2349 1.502 . S
C2348 C2350 1.561 . S
C2348 C2351 1.526 . S
C2349 H2333 0.959 . S
C2349 H2334 0.959 . S
C2349 H2335 0.961 . S
C2349 C2348 1.502 . S
C2350 H2336 0.960 . S
C2350 H2337 0.961 . S
C2350 H2338 0.959 . S
C2350 C2348 1.561 . S
C2351 C2348 1.526 . S
C2351 C2352 1.396 . S
C2351 C2356 1.390 . S
C2352 C2346 1.465 . S
C2352 C2351 1.396 . S
C2352 C2353 1.399 . S
C2353 H2339 0.929 . S
C2353 C2352 1.399 . S
C2353 C2354 1.385 . S
C2354 H2340 0.931 . S
C2354 C2353 1.385 . S
C2354 C2355 1.389 . S
C2355 C2354 1.389 . S
C2355 C2356 1.387 . S
C2356 H2341 0.930 . S
C2356 C2351 1.390 . S
C2356 C2355 1.387 . S
H2357 C2369 0.930 . S
H2358 C2371 0.930 . S
H2359 C2372 0.930 . S
H2360 C2376 0.959 . S
H2361 C2376 0.959 . S
H2362 C2376 0.961 . S
H2363 C2377 0.960 . S
H2364 C2377 0.961 . S
H2365 C2377 0.959 . S
H2366 C2380 0.929 . S
H2367 C2381 0.931 . S
H2368 C2383 0.930 . S
C2369 H2357 0.930 . S
C2369 C2370 1.399 . S
C2369 C2374 1.399 . S
C2370 C2369 1.399 . S
C2370 C2371 1.376 . S
C2371 H2358 0.930 . S
C2371 C2370 1.376 . S
C2371 C2372 1.388 . S
C2372 H2359 0.930 . S
C2372 C2371 1.388 . S
C2372 C2373 1.390 . S
C2373 C2372 1.390 . S
C2373 C2374 1.394 . S
C2373 C2379 1.465 . S
C2374 C2369 1.399 . S
C2374 C2373 1.394 . S
C2374 C2375 1.516 . S
C2375 C2374 1.516 . S
C2375 C2376 1.502 . S
C2375 C2377 1.561 . S
C2375 C2378 1.526 . S
C2376 H2360 0.959 . S
C2376 H2361 0.959 . S
C2376 H2362 0.961 . S
C2376 C2375 1.502 . S
C2377 H2363 0.960 . S
C2377 H2364 0.961 . S
C2377 H2365 0.959 . S
C2377 C2375 1.561 . S
C2378 C2375 1.526 . S
C2378 C2379 1.396 . S
C2378 C2383 1.390 . S
C2379 C2373 1.465 . S
C2379 C2378 1.396 . S
C2379 C2380 1.399 . S
C2380 H2366 0.929 . S
C2380 C2379 1.399 . S
C2380 C2381 1.385 . S
C2381 H2367 0.931 . S
C2381 C2380 1.385 . S
C2381 C2382 1.389 . S
C2382 C2381 1.389 . S
C2382 C2383 1.387 . S
C2383 H2368 0.930 . S
C2383 C2378 1.390 . S
C2383 C2382 1.387 . S
H2384 C2396 0.930 . S
H2385 C2398 0.930 . S
H2386 C2399 0.930 . S
H2387 C2403 0.959 . S
H2388 C2403 0.959 . S
H2389 C2403 0.961 . S
H2390 C2404 0.960 . S
H2391 C2404 0.961 . S
H2392 C2404 0.959 . S
H2393 C2407 0.929 . S
H2394 C2408 0.931 . S
H2395 C2410 0.930 . S
C2396 H2384 0.930 . S
C2396 C2397 1.399 . S
C2396 C2401 1.399 . S
C2397 C2396 1.399 . S
C2397 C2398 1.376 . S
C2398 H2385 0.930 . S
C2398 C2397 1.376 . S
C2398 C2399 1.388 . S
C2399 H2386 0.930 . S
C2399 C2398 1.388 . S
C2399 C2400 1.390 . S
C2400 C2399 1.390 . S
C2400 C2401 1.394 . S
C2400 C2406 1.465 . S
C2401 C2396 1.399 . S
C2401 C2400 1.394 . S
C2401 C2402 1.516 . S
C2402 C2401 1.516 . S
C2402 C2403 1.502 . S
C2402 C2404 1.561 . S
C2402 C2405 1.526 . S
C2403 H2387 0.959 . S
C2403 H2388 0.959 . S
C2403 H2389 0.961 . S
C2403 C2402 1.502 . S
C2404 H2390 0.960 . S
C2404 H2391 0.961 . S
C2404 H2392 0.959 . S
C2404 C2402 1.561 . S
C2405 C2402 1.526 . S
C2405 C2406 1.396 . S
C2405 C2410 1.390 . S
C2406 C2400 1.465 . S
C2406 C2405 1.396 . S
C2406 C2407 1.399 . S
C2407 H2393 0.929 . S
C2407 C2406 1.399 . S
C2407 C2408 1.385 . S
C2408 H2394 0.931 . S
C2408 C2407 1.385 . S
C2408 C2409 1.389 . S
C2409 C2408 1.389 . S
C2409 C2410 1.387 . S
C2410 H2395 0.930 . S
C2410 C2405 1.390 . S
C2410 C2409 1.387 . S
H2411 C2423 0.930 . S
H2412 C2425 0.930 . S
H2413 C2426 0.930 . S
H2414 C2430 0.959 . S
H2415 C2430 0.959 . S
H2416 C2430 0.961 . S
H2417 C2431 0.960 . S
H2418 C2431 0.961 . S
H2419 C2431 0.959 . S
H2420 C2434 0.929 . S
H2421 C2435 0.931 1_565 S
H2422 C2437 0.930 . S
C2423 H2411 0.930 . S
C2423 C2424 1.399 . S
C2423 C2428 1.399 . S
C2424 C2423 1.399 . S
C2424 C2425 1.376 . S
C2425 H2412 0.930 . S
C2425 C2424 1.376 . S
C2425 C2426 1.388 . S
C2426 H2413 0.930 . S
C2426 C2425 1.388 . S
C2426 C2427 1.390 . S
C2427 C2426 1.390 . S
C2427 C2428 1.394 . S
C2427 C2433 1.465 . S
C2428 C2423 1.399 . S
C2428 C2427 1.394 . S
C2428 C2429 1.516 . S
C2429 C2428 1.516 . S
C2429 C2430 1.502 . S
C2429 C2431 1.561 . S
C2429 C2432 1.526 . S
C2430 H2414 0.959 . S
C2430 H2415 0.959 . S
C2430 H2416 0.961 . S
C2430 C2429 1.502 . S
C2431 H2417 0.960 . S
C2431 H2418 0.961 . S
C2431 H2419 0.959 . S
C2431 C2429 1.561 . S
C2432 C2429 1.526 . S
C2432 C2433 1.396 . S
C2432 C2437 1.390 . S
C2433 C2427 1.465 . S
C2433 C2432 1.396 . S
C2433 C2434 1.399 . S
C2434 H2420 0.929 . S
C2434 C2433 1.399 . S
C2434 C2435 1.385 . S
C2435 H2421 0.931 1_545 S
C2435 C2434 1.385 . S
C2435 C2436 1.389 . S
C2436 C2435 1.389 . S
C2436 C2437 1.387 . S
C2437 H2422 0.930 . S
C2437 C2432 1.390 . S
C2437 C2436 1.387 . S
H2438 C2450 0.930 1_545 S
H2439 C2452 0.930 . S
H2440 C2453 0.930 . S
H2441 C2457 0.959 . S
H2442 C2457 0.959 . S
H2443 C2457 0.961 . S
H2444 C2458 0.960 1_545 S
H2445 C2458 0.961 . S
H2446 C2458 0.959 . S
H2447 C2461 0.929 . S
H2448 C2462 0.931 . S
H2449 C2464 0.930 . S
C2450 H2438 0.930 1_565 S
C2450 C2451 1.399 . S
C2450 C2455 1.399 . S
C2451 C2450 1.399 . S
C2451 C2452 1.376 . S
C2452 H2439 0.930 . S
C2452 C2451 1.376 . S
C2452 C2453 1.388 . S
C2453 H2440 0.930 . S
C2453 C2452 1.388 . S
C2453 C2454 1.390 . S
C2454 C2453 1.390 . S
C2454 C2455 1.394 . S
C2454 C2460 1.465 . S
C2455 C2450 1.399 . S
C2455 C2454 1.394 . S
C2455 C2456 1.516 . S
C2456 C2455 1.516 . S
C2456 C2457 1.502 . S
C2456 C2458 1.561 . S
C2456 C2459 1.526 . S
C2457 H2441 0.959 . S
C2457 H2442 0.959 . S
C2457 H2443 0.961 . S
C2457 C2456 1.502 . S
C2458 H2444 0.960 1_565 S
C2458 H2445 0.961 . S
C2458 H2446 0.959 . S
C2458 C2456 1.561 . S
C2459 C2456 1.526 . S
C2459 C2460 1.396 . S
C2459 C2464 1.390 . S
C2460 C2454 1.465 . S
C2460 C2459 1.396 . S
C2460 C2461 1.399 . S
C2461 H2447 0.929 . S
C2461 C2460 1.399 . S
C2461 C2462 1.385 . S
C2462 H2448 0.931 . S
C2462 C2461 1.385 . S
C2462 C2463 1.389 . S
C2463 C2462 1.389 . S
C2463 C2464 1.387 . S
C2464 H2449 0.930 . S
C2464 C2459 1.390 . S
C2464 C2463 1.387 . S
H2465 C2477 0.930 . S
H2466 C2479 0.930 . S
H2467 C2480 0.930 . S
H2468 C2484 0.959 . S
H2469 C2484 0.959 1_545 S
H2470 C2484 0.961 . S
H2471 C2485 0.960 . S
H2472 C2485 0.961 . S
H2473 C2485 0.959 . S
H2474 C2488 0.929 . S
H2475 C2489 0.931 . S
H2476 C2491 0.930 1_545 S
C2477 H2465 0.930 . S
C2477 C2478 1.399 . S
C2477 C2482 1.399 . S
C2478 C2477 1.399 . S
C2478 C2479 1.376 . S
C2479 H2466 0.930 . S
C2479 C2478 1.376 . S
C2479 C2480 1.388 . S
C2480 H2467 0.930 . S
C2480 C2479 1.388 . S
C2480 C2481 1.390 . S
C2481 C2480 1.390 . S
C2481 C2482 1.394 . S
C2481 C2487 1.465 . S
C2482 C2477 1.399 . S
C2482 C2481 1.394 . S
C2482 C2483 1.516 . S
C2483 C2482 1.516 . S
C2483 C2484 1.502 . S
C2483 C2485 1.561 . S
C2483 C2486 1.526 . S
C2484 H2468 0.959 . S
C2484 H2469 0.959 1_565 S
C2484 H2470 0.961 . S
C2484 C2483 1.502 . S
C2485 H2471 0.960 . S
C2485 H2472 0.961 . S
C2485 H2473 0.959 . S
C2485 C2483 1.561 . S
C2486 C2483 1.526 . S
C2486 C2487 1.396 . S
C2486 C2491 1.390 . S
C2487 C2481 1.465 . S
C2487 C2486 1.396 . S
C2487 C2488 1.399 . S
C2488 H2474 0.929 . S
C2488 C2487 1.399 . S
C2488 C2489 1.385 . S
C2489 H2475 0.931 . S
C2489 C2488 1.385 . S
C2489 C2490 1.389 . S
C2490 C2489 1.389 . S
C2490 C2491 1.387 . S
C2491 H2476 0.930 1_565 S
C2491 C2486 1.390 . S
C2491 C2490 1.387 . S
H2492 C2504 0.930 . S
H2493 C2506 0.941 . S
H2494 C2507 0.930 . S
H2495 C2511 0.959 . S
H2496 C2511 0.959 . S
H2497 C2511 0.961 . S
H2498 C2512 0.960 . S
H2499 C2512 0.961 . S
H2500 C2512 0.959 . S
H2501 C2515 0.929 . S
H2502 C2516 0.931 . S
H2503 C2518 0.930 . S
C2504 H2492 0.930 . S
C2504 C2505 1.399 . S
C2504 C2509 1.399 . S
C2505 C2504 1.399 . S
C2505 C2506 1.376 . S
C2506 H2493 0.941 . S
C2506 C2505 1.376 . S
C2506 C2507 1.388 . S
C2507 H2494 0.930 . S
C2507 C2506 1.388 . S
C2507 C2508 1.390 . S
C2508 C2507 1.390 . S
C2508 C2509 1.394 . S
C2508 C2514 1.465 . S
C2509 C2504 1.399 . S
C2509 C2508 1.394 . S
C2509 C2510 1.516 . S
C2510 C2509 1.516 . S
C2510 C2511 1.502 . S
C2510 C2512 1.561 . S
C2510 C2513 1.526 . S
C2511 H2495 0.959 . S
C2511 H2496 0.959 . S
C2511 H2497 0.961 . S
C2511 C2510 1.502 . S
C2512 H2498 0.960 . S
C2512 H2499 0.961 . S
C2512 H2500 0.959 . S
C2512 C2510 1.561 . S
C2513 C2510 1.526 . S
C2513 C2514 1.396 . S
C2513 C2518 1.390 . S
C2514 C2508 1.465 . S
C2514 C2513 1.396 . S
C2514 C2515 1.399 . S
C2515 H2501 0.929 . S
C2515 C2514 1.399 . S
C2515 C2516 1.385 . S
C2516 H2502 0.931 . S
C2516 C2515 1.385 . S
C2516 C2517 1.389 . S
C2517 C2516 1.389 . S
C2517 C2518 1.387 . S
C2518 H2503 0.930 . S
C2518 C2513 1.390 . S
C2518 C2517 1.387 . S
H2519 C2531 0.930 . S
H2520 C2533 0.930 . S
H2521 C2534 0.930 . S
H2522 C2538 0.959 . S
H2523 C2538 0.959 . S
H2524 C2538 0.961 . S
H2525 C2539 0.960 . S
H2526 C2539 0.961 . S
H2527 C2539 0.959 . S
H2528 C2542 0.929 . S
H2529 C2543 0.931 . S
H2530 C2545 0.930 . S
C2531 H2519 0.930 . S
C2531 C2532 1.399 . S
C2531 C2536 1.399 . S
C2532 C2531 1.399 . S
C2532 C2533 1.376 . S
C2533 H2520 0.930 . S
C2533 C2532 1.376 . S
C2533 C2534 1.388 . S
C2534 H2521 0.930 . S
C2534 C2533 1.388 . S
C2534 C2535 1.390 . S
C2535 C2534 1.390 . S
C2535 C2536 1.394 . S
C2535 C2541 1.465 . S
C2536 C2531 1.399 . S
C2536 C2535 1.394 . S
C2536 C2537 1.516 . S
C2537 C2536 1.516 . S
C2537 C2538 1.502 . S
C2537 C2539 1.561 . S
C2537 C2540 1.526 . S
C2538 H2522 0.959 . S
C2538 H2523 0.959 . S
C2538 H2524 0.961 . S
C2538 C2537 1.502 . S
C2539 H2525 0.960 . S
C2539 H2526 0.961 . S
C2539 H2527 0.959 . S
C2539 C2537 1.561 . S
C2540 C2537 1.526 . S
C2540 C2541 1.396 . S
C2540 C2545 1.390 . S
C2541 C2535 1.465 . S
C2541 C2540 1.396 . S
C2541 C2542 1.399 . S
C2542 H2528 0.929 . S
C2542 C2541 1.399 . S
C2542 C2543 1.385 . S
C2543 H2529 0.931 . S
C2543 C2542 1.385 . S
C2543 C2544 1.389 . S
C2544 C2543 1.389 . S
C2544 C2545 1.387 . S
C2545 H2530 0.930 . S
C2545 C2540 1.390 . S
C2545 C2544 1.387 . S
H2546 C2558 0.930 . S
H2547 C2560 0.930 . S
H2548 C2561 0.930 . S
H2549 C2565 0.959 . S
H2550 C2565 0.959 . S
H2551 C2565 0.961 . S
H2552 C2566 0.960 . S
H2553 C2566 0.961 1_565 S
H2554 C2566 0.959 . S
H2555 C2569 0.929 . S
H2556 C2570 0.931 . S
H2557 C2572 0.930 . S
C2558 H2546 0.930 . S
C2558 C2559 1.399 . S
C2558 C2563 1.399 . S
C2559 C2558 1.399 . S
C2559 C2560 1.376 . S
C2560 H2547 0.930 . S
C2560 C2559 1.376 . S
C2560 C2561 1.388 . S
C2561 H2548 0.930 . S
C2561 C2560 1.388 . S
C2561 C2562 1.390 . S
C2562 C2561 1.390 . S
C2562 C2563 1.394 . S
C2562 C2568 1.465 . S
C2563 C2558 1.399 . S
C2563 C2562 1.394 . S
C2563 C2564 1.516 . S
C2564 C2563 1.516 . S
C2564 C2565 1.502 . S
C2564 C2566 1.561 . S
C2564 C2567 1.526 . S
C2565 H2549 0.959 . S
C2565 H2550 0.959 . S
C2565 H2551 0.961 . S
C2565 C2564 1.502 . S
C2566 H2552 0.960 . S
C2566 H2553 0.961 1_545 S
C2566 H2554 0.959 . S
C2566 C2564 1.561 . S
C2567 C2564 1.526 . S
C2567 C2568 1.396 . S
C2567 C2572 1.390 . S
C2568 C2562 1.465 . S
C2568 C2567 1.396 . S
C2568 C2569 1.399 . S
C2569 H2555 0.929 . S
C2569 C2568 1.399 . S
C2569 C2570 1.385 . S
C2570 H2556 0.931 . S
C2570 C2569 1.385 . S
C2570 C2571 1.389 . S
C2571 C2570 1.389 . S
C2571 C2572 1.387 . S
C2572 H2557 0.930 . S
C2572 C2567 1.390 . S
C2572 C2571 1.387 . S
H2573 C2585 0.930 . S
H2574 C2587 0.930 . S
H2575 C2588 0.930 . S
H2576 C2592 0.959 . S
H2577 C2592 0.959 . S
H2578 C2592 0.961 . S
H2579 C2593 0.960 . S
H2580 C2593 0.961 . S
H2581 C2593 0.959 . S
H2582 C2596 0.929 . S
H2583 C2597 0.931 . S
H2584 C2599 0.930 . S
C2585 H2573 0.930 . S
C2585 C2586 1.399 . S
C2585 C2590 1.399 . S
C2586 C2585 1.399 . S
C2586 C2587 1.376 . S
C2587 H2574 0.930 . S
C2587 C2586 1.376 . S
C2587 C2588 1.388 . S
C2588 H2575 0.930 . S
C2588 C2587 1.388 . S
C2588 C2589 1.390 . S
C2589 C2588 1.390 . S
C2589 C2590 1.394 . S
C2589 C2595 1.465 . S
C2590 C2585 1.399 . S
C2590 C2589 1.394 . S
C2590 C2591 1.516 . S
C2591 C2590 1.516 . S
C2591 C2592 1.502 . S
C2591 C2593 1.561 . S
C2591 C2594 1.526 . S
C2592 H2576 0.959 . S
C2592 H2577 0.959 . S
C2592 H2578 0.961 . S
C2592 C2591 1.502 . S
C2593 H2579 0.960 . S
C2593 H2580 0.961 . S
C2593 H2581 0.959 . S
C2593 C2591 1.561 . S
C2594 C2591 1.526 . S
C2594 C2595 1.396 . S
C2594 C2599 1.390 . S
C2595 C2589 1.465 . S
C2595 C2594 1.396 . S
C2595 C2596 1.399 . S
C2596 H2582 0.929 . S
C2596 C2595 1.399 . S
C2596 C2597 1.385 . S
C2597 H2583 0.931 . S
C2597 C2596 1.385 . S
C2597 C2598 1.389 . S
C2598 C2597 1.389 . S
C2598 C2599 1.387 . S
C2599 H2584 0.930 . S
C2599 C2594 1.390 . S
C2599 C2598 1.387 . S
H2600 C2612 0.930 . S
H2601 C2614 0.930 . S
H2602 C2615 0.930 . S
H2603 C2619 0.959 . S
H2604 C2619 0.959 . S
H2605 C2619 0.961 . S
H2606 C2620 0.960 . S
H2607 C2620 0.961 . S
H2608 C2620 0.959 . S
H2609 C2623 0.929 . S
H2610 C2624 0.931 . S
H2611 C2626 0.930 . S
C2612 H2600 0.930 . S
C2612 C2613 1.399 . S
C2612 C2617 1.399 . S
C2613 C2612 1.399 . S
C2613 C2614 1.376 . S
C2614 H2601 0.930 . S
C2614 C2613 1.376 . S
C2614 C2615 1.388 . S
C2615 H2602 0.930 . S
C2615 C2614 1.388 . S
C2615 C2616 1.390 . S
C2616 C2615 1.390 . S
C2616 C2617 1.394 . S
C2616 C2622 1.465 . S
C2617 C2612 1.399 . S
C2617 C2616 1.394 . S
C2617 C2618 1.516 . S
C2618 C2617 1.516 . S
C2618 C2619 1.502 . S
C2618 C2620 1.561 . S
C2618 C2621 1.526 . S
C2619 H2603 0.959 . S
C2619 H2604 0.959 . S
C2619 H2605 0.961 . S
C2619 C2618 1.502 . S
C2620 H2606 0.960 . S
C2620 H2607 0.961 . S
C2620 H2608 0.959 . S
C2620 C2618 1.561 . S
C2621 C2618 1.526 . S
C2621 C2622 1.396 . S
C2621 C2626 1.390 . S
C2622 C2616 1.465 . S
C2622 C2621 1.396 . S
C2622 C2623 1.399 . S
C2623 H2609 0.929 . S
C2623 C2622 1.399 . S
C2623 C2624 1.385 . S
C2624 H2610 0.931 . S
C2624 C2623 1.385 . S
C2624 C2625 1.389 . S
C2625 C2624 1.389 . S
C2625 C2626 1.387 . S
C2626 H2611 0.930 . S
C2626 C2621 1.390 . S
C2626 C2625 1.387 . S
H2627 C2639 0.930 . S
H2628 C2641 0.930 . S
H2629 C2642 0.930 . S
H2630 C2646 0.959 . S
H2631 C2646 0.959 . S
H2632 C2646 0.961 . S
H2633 C2647 0.960 . S
H2634 C2647 0.961 . S
H2635 C2647 0.959 . S
H2636 C2650 0.929 . S
H2637 C2651 0.931 . S
H2638 C2653 0.930 . S
C2639 H2627 0.930 . S
C2639 C2640 1.399 . S
C2639 C2644 1.399 . S
C2640 C2639 1.399 . S
C2640 C2641 1.376 . S
C2641 H2628 0.930 . S
C2641 C2640 1.376 . S
C2641 C2642 1.388 . S
C2642 H2629 0.930 . S
C2642 C2641 1.388 . S
C2642 C2643 1.390 . S
C2643 C2642 1.390 . S
C2643 C2644 1.394 . S
C2643 C2649 1.465 . S
C2644 C2639 1.399 . S
C2644 C2643 1.394 . S
C2644 C2645 1.516 . S
C2645 C2644 1.516 . S
C2645 C2646 1.502 . S
C2645 C2647 1.561 . S
C2645 C2648 1.526 . S
C2646 H2630 0.959 . S
C2646 H2631 0.959 . S
C2646 H2632 0.961 . S
C2646 C2645 1.502 . S
C2647 H2633 0.960 . S
C2647 H2634 0.961 . S
C2647 H2635 0.959 . S
C2647 C2645 1.561 . S
C2648 C2645 1.526 . S
C2648 C2649 1.396 . S
C2648 C2653 1.390 . S
C2649 C2643 1.465 . S
C2649 C2648 1.396 . S
C2649 C2650 1.399 . S
C2650 H2636 0.929 . S
C2650 C2649 1.399 . S
C2650 C2651 1.385 . S
C2651 H2637 0.931 . S
C2651 C2650 1.385 . S
C2651 C2652 1.389 . S
C2652 C2651 1.389 . S
C2652 C2653 1.387 . S
C2653 H2638 0.930 . S
C2653 C2648 1.390 . S
C2653 C2652 1.387 . S
H2654 C2666 0.930 . S
H2655 C2668 0.930 . S
H2656 C2669 0.930 . S
H2657 C2673 0.959 . S
H2658 C2673 0.959 . S
H2659 C2673 0.961 . S
H2660 C2674 0.960 . S
H2661 C2674 0.961 . S
H2662 C2674 0.959 . S
H2663 C2677 0.929 . S
H2664 C2678 0.931 . S
H2665 C2680 0.930 . S
C2666 H2654 0.930 . S
C2666 C2667 1.399 . S
C2666 C2671 1.399 . S
C2667 C2666 1.399 . S
C2667 C2668 1.376 . S
C2668 H2655 0.930 . S
C2668 C2667 1.376 . S
C2668 C2669 1.388 . S
C2669 H2656 0.930 . S
C2669 C2668 1.388 . S
C2669 C2670 1.390 . S
C2670 C2669 1.390 . S
C2670 C2671 1.394 . S
C2670 C2676 1.465 . S
C2671 C2666 1.399 . S
C2671 C2670 1.394 . S
C2671 C2672 1.516 . S
C2672 C2671 1.516 . S
C2672 C2673 1.502 . S
C2672 C2674 1.561 . S
C2672 C2675 1.526 . S
C2673 H2657 0.959 . S
C2673 H2658 0.959 . S
C2673 H2659 0.961 . S
C2673 C2672 1.502 . S
C2674 H2660 0.960 . S
C2674 H2661 0.961 . S
C2674 H2662 0.959 . S
C2674 C2672 1.561 . S
C2675 C2672 1.526 . S
C2675 C2676 1.396 . S
C2675 C2680 1.390 . S
C2676 C2670 1.465 . S
C2676 C2675 1.396 . S
C2676 C2677 1.399 . S
C2677 H2663 0.929 . S
C2677 C2676 1.399 . S
C2677 C2678 1.385 . S
C2678 H2664 0.931 . S
C2678 C2677 1.385 . S
C2678 C2679 1.389 . S
C2679 C2678 1.389 . S
C2679 C2680 1.387 . S
C2680 H2665 0.930 . S
C2680 C2675 1.390 . S
C2680 C2679 1.387 . S
H2681 C2693 0.930 . S
H2682 C2695 0.930 . S
H2683 C2696 0.930 . S
H2684 C2700 0.959 . S
H2685 C2700 0.959 . S
H2686 C2700 0.961 . S
H2687 C2701 0.960 . S
H2688 C2701 0.961 . S
H2689 C2701 0.959 . S
H2690 C2704 0.929 . S
H2691 C2705 0.931 . S
H2692 C2707 0.930 . S
C2693 H2681 0.930 . S
C2693 C2694 1.399 . S
C2693 C2698 1.399 . S
C2694 C2693 1.399 . S
C2694 C2695 1.376 . S
C2695 H2682 0.930 . S
C2695 C2694 1.376 . S
C2695 C2696 1.388 . S
C2696 H2683 0.930 . S
C2696 C2695 1.388 . S
C2696 C2697 1.390 . S
C2697 C2696 1.390 . S
C2697 C2698 1.394 . S
C2697 C2703 1.465 . S
C2698 C2693 1.399 . S
C2698 C2697 1.394 . S
C2698 C2699 1.516 . S
C2699 C2698 1.516 . S
C2699 C2700 1.502 . S
C2699 C2701 1.561 . S
C2699 C2702 1.526 . S
C2700 H2684 0.959 . S
C2700 H2685 0.959 . S
C2700 H2686 0.961 . S
C2700 C2699 1.502 . S
C2701 H2687 0.960 . S
C2701 H2688 0.961 . S
C2701 H2689 0.959 . S
C2701 C2699 1.561 . S
C2702 C2699 1.526 . S
C2702 C2703 1.396 . S
C2702 C2707 1.390 . S
C2703 C2697 1.465 . S
C2703 C2702 1.396 . S
C2703 C2704 1.399 . S
C2704 H2690 0.929 . S
C2704 C2703 1.399 . S
C2704 C2705 1.385 . S
C2705 H2691 0.931 . S
C2705 C2704 1.385 . S
C2705 C2706 1.389 . S
C2706 C2705 1.389 . S
C2706 C2707 1.387 . S
C2707 H2692 0.930 . S
C2707 C2702 1.390 . S
C2707 C2706 1.387 . S
H2708 C2720 0.930 . S
H2709 C2722 0.930 . S
H2710 C2723 0.930 . S
H2711 C2727 0.959 . S
H2712 C2727 0.959 . S
H2713 C2727 0.961 . S
H2714 C2728 0.960 . S
H2715 C2728 0.961 . S
H2716 C2728 0.959 . S
H2717 C2731 0.929 . S
H2718 C2732 0.931 . S
H2719 C2734 0.930 . S
C2720 H2708 0.930 . S
C2720 C2721 1.399 . S
C2720 C2725 1.399 . S
C2721 C2720 1.399 . S
C2721 C2722 1.376 . S
C2722 H2709 0.930 . S
C2722 C2721 1.376 . S
C2722 C2723 1.388 . S
C2723 H2710 0.930 . S
C2723 C2722 1.388 . S
C2723 C2724 1.390 . S
C2724 C2723 1.390 . S
C2724 C2725 1.394 . S
C2724 C2730 1.465 . S
C2725 C2720 1.399 . S
C2725 C2724 1.394 . S
C2725 C2726 1.516 . S
C2726 C2725 1.516 . S
C2726 C2727 1.502 . S
C2726 C2728 1.561 . S
C2726 C2729 1.526 . S
C2727 H2711 0.959 . S
C2727 H2712 0.959 . S
C2727 H2713 0.961 . S
C2727 C2726 1.502 . S
C2728 H2714 0.960 . S
C2728 H2715 0.961 . S
C2728 H2716 0.959 . S
C2728 C2726 1.561 . S
C2729 C2726 1.526 . S
C2729 C2730 1.396 . S
C2729 C2734 1.390 . S
C2730 C2724 1.465 . S
C2730 C2729 1.396 . S
C2730 C2731 1.399 . S
C2731 H2717 0.929 . S
C2731 C2730 1.399 . S
C2731 C2732 1.385 . S
C2732 H2718 0.931 . S
C2732 C2731 1.385 . S
C2732 C2733 1.389 . S
C2733 C2732 1.389 . S
C2733 C2734 1.387 . S
C2734 H2719 0.930 . S
C2734 C2729 1.390 . S
C2734 C2733 1.387 . S
H2735 C2747 0.930 . S
H2736 C2749 0.930 . S
H2737 C2750 0.930 . S
H2738 C2754 0.959 . S
H2739 C2754 0.959 . S
H2740 C2754 0.961 . S
H2741 C2755 0.960 . S
H2742 C2755 0.961 . S
H2743 C2755 0.959 . S
H2744 C2758 0.929 . S
H2745 C2759 0.931 . S
H2746 C2761 0.930 . S
C2747 H2735 0.930 . S
C2747 C2748 1.399 . S
C2747 C2752 1.399 . S
C2748 C2747 1.399 . S
C2748 C2749 1.376 . S
C2749 H2736 0.930 . S
C2749 C2748 1.376 . S
C2749 C2750 1.388 . S
C2750 H2737 0.930 . S
C2750 C2749 1.388 . S
C2750 C2751 1.390 . S
C2751 C2750 1.390 . S
C2751 C2752 1.394 . S
C2751 C2757 1.465 . S
C2752 C2747 1.399 . S
C2752 C2751 1.394 . S
C2752 C2753 1.516 . S
C2753 C2752 1.516 . S
C2753 C2754 1.502 . S
C2753 C2755 1.561 . S
C2753 C2756 1.526 . S
C2754 H2738 0.959 . S
C2754 H2739 0.959 . S
C2754 H2740 0.961 . S
C2754 C2753 1.502 . S
C2755 H2741 0.960 . S
C2755 H2742 0.961 . S
C2755 H2743 0.959 . S
C2755 C2753 1.561 . S
C2756 C2753 1.526 . S
C2756 C2757 1.396 . S
C2756 C2761 1.390 . S
C2757 C2751 1.465 . S
C2757 C2756 1.396 . S
C2757 C2758 1.399 . S
C2758 H2744 0.929 . S
C2758 C2757 1.399 . S
C2758 C2759 1.385 . S
C2759 H2745 0.931 . S
C2759 C2758 1.385 . S
C2759 C2760 1.389 . S
C2760 C2759 1.389 . S
C2760 C2761 1.387 . S
C2761 H2746 0.930 . S
C2761 C2756 1.390 . S
C2761 C2760 1.387 . S
H2762 C2774 0.930 . S
H2763 C2776 0.930 . S
H2764 C2777 0.930 . S
H2765 C2781 0.959 . S
H2766 C2781 0.959 . S
H2767 C2781 0.961 . S
H2768 C2782 0.960 . S
H2769 C2782 0.961 . S
H2770 C2782 0.959 . S
H2771 C2785 0.929 . S
H2772 C2786 0.931 . S
H2773 C2788 0.930 . S
C2774 H2762 0.930 . S
C2774 C2775 1.399 . S
C2774 C2779 1.399 . S
C2775 C2774 1.399 . S
C2775 C2776 1.376 . S
C2776 H2763 0.930 . S
C2776 C2775 1.376 . S
C2776 C2777 1.388 . S
C2777 H2764 0.930 . S
C2777 C2776 1.388 . S
C2777 C2778 1.390 . S
C2778 C2777 1.390 . S
C2778 C2779 1.394 . S
C2778 C2784 1.465 . S
C2779 C2774 1.399 . S
C2779 C2778 1.394 . S
C2779 C2780 1.516 . S
C2780 C2779 1.516 . S
C2780 C2781 1.502 . S
C2780 C2782 1.561 . S
C2780 C2783 1.526 . S
C2781 H2765 0.959 . S
C2781 H2766 0.959 . S
C2781 H2767 0.961 . S
C2781 C2780 1.502 . S
C2782 H2768 0.960 . S
C2782 H2769 0.961 . S
C2782 H2770 0.959 . S
C2782 C2780 1.561 . S
C2783 C2780 1.526 . S
C2783 C2784 1.396 . S
C2783 C2788 1.390 . S
C2784 C2778 1.465 . S
C2784 C2783 1.396 . S
C2784 C2785 1.399 . S
C2785 H2771 0.929 . S
C2785 C2784 1.399 . S
C2785 C2786 1.385 . S
C2786 H2772 0.931 . S
C2786 C2785 1.385 . S
C2786 C2787 1.389 . S
C2787 C2786 1.389 . S
C2787 C2788 1.387 . S
C2788 H2773 0.930 . S
C2788 C2783 1.390 . S
C2788 C2787 1.387 . S
H2789 C2801 0.930 . S
H2790 C2803 0.930 . S
H2791 C2804 0.930 . S
H2792 C2808 0.959 . S
H2793 C2808 0.959 . S
H2794 C2808 0.961 . S
H2795 C2809 0.960 . S
H2796 C2809 0.961 . S
H2797 C2809 0.959 . S
H2798 C2812 0.929 . S
H2799 C2813 0.931 . S
H2800 C2815 0.930 . S
C2801 H2789 0.930 . S
C2801 C2802 1.399 . S
C2801 C2806 1.399 . S
C2802 C2801 1.399 . S
C2802 C2803 1.376 . S
C2803 H2790 0.930 . S
C2803 C2802 1.376 . S
C2803 C2804 1.388 . S
C2804 H2791 0.930 . S
C2804 C2803 1.388 . S
C2804 C2805 1.390 . S
C2805 C2804 1.390 . S
C2805 C2806 1.394 . S
C2805 C2811 1.465 . S
C2806 C2801 1.399 . S
C2806 C2805 1.394 . S
C2806 C2807 1.516 . S
C2807 C2806 1.516 . S
C2807 C2808 1.502 . S
C2807 C2809 1.561 . S
C2807 C2810 1.526 . S
C2808 H2792 0.959 . S
C2808 H2793 0.959 . S
C2808 H2794 0.961 . S
C2808 C2807 1.502 . S
C2809 H2795 0.960 . S
C2809 H2796 0.961 . S
C2809 H2797 0.959 . S
C2809 C2807 1.561 . S
C2810 C2807 1.526 . S
C2810 C2811 1.396 . S
C2810 C2815 1.390 . S
C2811 C2805 1.465 . S
C2811 C2810 1.396 . S
C2811 C2812 1.399 . S
C2812 H2798 0.929 . S
C2812 C2811 1.399 . S
C2812 C2813 1.385 . S
C2813 H2799 0.931 . S
C2813 C2812 1.385 . S
C2813 C2814 1.389 . S
C2814 C2813 1.389 . S
C2814 C2815 1.387 . S
C2815 H2800 0.930 . S
C2815 C2810 1.390 . S
C2815 C2814 1.387 . S
H2816 C2828 0.930 . S
H2817 C2830 0.930 . S
H2818 C2831 0.930 . S
H2819 C2835 0.959 . S
H2820 C2835 0.959 . S
H2821 C2835 0.961 . S
H2822 C2836 0.960 . S
H2823 C2836 0.961 . S
H2824 C2836 0.959 . S
H2825 C2839 0.929 . S
H2826 C2840 0.931 . S
H2827 C2842 0.930 . S
C2828 H2816 0.930 . S
C2828 C2829 1.399 . S
C2828 C2833 1.399 . S
C2829 C2828 1.399 . S
C2829 C2830 1.376 . S
C2830 H2817 0.930 . S
C2830 C2829 1.376 . S
C2830 C2831 1.388 . S
C2831 H2818 0.930 . S
C2831 C2830 1.388 . S
C2831 C2832 1.390 . S
C2832 C2831 1.390 . S
C2832 C2833 1.394 . S
C2832 C2838 1.465 . S
C2833 C2828 1.399 . S
C2833 C2832 1.394 . S
C2833 C2834 1.516 . S
C2834 C2833 1.516 . S
C2834 C2835 1.502 . S
C2834 C2836 1.561 . S
C2834 C2837 1.526 . S
C2835 H2819 0.959 . S
C2835 H2820 0.959 . S
C2835 H2821 0.961 . S
C2835 C2834 1.502 . S
C2836 H2822 0.960 . S
C2836 H2823 0.961 . S
C2836 H2824 0.959 . S
C2836 C2834 1.561 . S
C2837 C2834 1.526 . S
C2837 C2838 1.396 . S
C2837 C2842 1.390 . S
C2838 C2832 1.465 . S
C2838 C2837 1.396 . S
C2838 C2839 1.399 . S
C2839 H2825 0.929 . S
C2839 C2838 1.399 . S
C2839 C2840 1.385 . S
C2840 H2826 0.931 . S
C2840 C2839 1.385 . S
C2840 C2841 1.389 . S
C2841 C2840 1.389 . S
C2841 C2842 1.387 . S
C2842 H2827 0.930 . S
C2842 C2837 1.390 . S
C2842 C2841 1.387 . S
H2843 C2855 0.930 . S
H2844 C2857 0.926 1_545 S
H2845 C2858 0.930 . S
H2846 C2862 0.959 1_545 S
H2847 C2862 0.959 . S
H2848 C2862 0.961 . S
H2849 C2863 0.960 . S
H2850 C2863 0.961 . S
H2851 C2863 0.959 . S
H2852 C2866 0.929 . S
H2853 C2867 0.931 . S
H2854 C2869 0.932 . S
C2855 H2843 0.930 . S
C2855 C2856 1.399 . S
C2855 C2860 1.399 . S
C2856 C2855 1.399 . S
C2856 C2857 1.390 . S
C2857 H2844 0.926 1_565 S
C2857 C2856 1.390 . S
C2857 C2858 1.381 1_465 S
C2858 H2845 0.930 . S
C2858 C2857 1.381 1_645 S
C2858 C2859 1.390 1_545 S
C2859 C2858 1.390 1_565 S
C2859 C2860 1.393 1_655 S
C2859 C2865 1.465 1_565 S
C2860 C2855 1.399 . S
C2860 C2859 1.393 1_455 S
C2860 C2861 1.516 . S
C2861 C2860 1.516 . S
C2861 C2862 1.502 . S
C2861 C2863 1.561 . S
C2861 C2864 1.526 1_455 S
C2862 H2846 0.959 1_565 S
C2862 H2847 0.959 . S
C2862 H2848 0.961 . S
C2862 C2861 1.502 . S
C2863 H2849 0.960 . S
C2863 H2850 0.961 . S
C2863 H2851 0.959 . S
C2863 C2861 1.561 . S
C2864 C2861 1.526 1_655 S
C2864 C2865 1.396 1_565 S
C2864 C2869 1.390 . S
C2865 C2859 1.465 1_545 S
C2865 C2864 1.396 1_545 S
C2865 C2866 1.399 . S
C2866 H2852 0.929 . S
C2866 C2865 1.399 . S
C2866 C2867 1.385 . S
C2867 H2853 0.931 . S
C2867 C2866 1.385 . S
C2867 C2868 1.389 . S
C2868 C2867 1.389 . S
C2868 C2869 1.383 1_545 S
C2869 H2854 0.932 . S
C2869 C2864 1.390 . S
C2869 C2868 1.383 1_565 S
H2870 C2882 0.930 . S
H2871 C2884 0.930 . S
H2872 C2885 0.930 . S
H2873 C2889 0.959 . S
H2874 C2889 0.959 . S
H2875 C2889 0.961 . S
H2876 C2890 0.960 . S
H2877 C2890 0.961 . S
H2878 C2890 0.959 . S
H2879 C2893 0.929 . S
H2880 C2894 0.931 . S
H2881 C2896 0.930 . S
C2882 H2870 0.930 . S
C2882 C2883 1.399 . S
C2882 C2887 1.399 . S
C2883 C2882 1.399 . S
C2883 C2884 1.376 . S
C2884 H2871 0.930 . S
C2884 C2883 1.376 . S
C2884 C2885 1.388 . S
C2885 H2872 0.930 . S
C2885 C2884 1.388 . S
C2885 C2886 1.390 . S
C2886 C2885 1.390 . S
C2886 C2887 1.394 . S
C2886 C2892 1.465 . S
C2887 C2882 1.399 . S
C2887 C2886 1.394 . S
C2887 C2888 1.516 . S
C2888 C2887 1.516 . S
C2888 C2889 1.502 . S
C2888 C2890 1.561 . S
C2888 C2891 1.526 . S
C2889 H2873 0.959 . S
C2889 H2874 0.959 . S
C2889 H2875 0.961 . S
C2889 C2888 1.502 . S
C2890 H2876 0.960 . S
C2890 H2877 0.961 . S
C2890 H2878 0.959 . S
C2890 C2888 1.561 . S
C2891 C2888 1.526 . S
C2891 C2892 1.396 . S
C2891 C2896 1.390 . S
C2892 C2886 1.465 . S
C2892 C2891 1.396 . S
C2892 C2893 1.399 . S
C2893 H2879 0.929 . S
C2893 C2892 1.399 . S
C2893 C2894 1.385 . S
C2894 H2880 0.931 . S
C2894 C2893 1.385 . S
C2894 C2895 1.389 . S
C2895 C2894 1.389 . S
C2895 C2896 1.387 . S
C2896 H2881 0.930 . S
C2896 C2891 1.390 . S
C2896 C2895 1.387 . S
H2897 C2909 0.930 . S
H2898 C2911 0.930 . S
H2899 C2912 0.930 . S
H2900 C2916 0.959 . S
H2901 C2916 0.959 . S
H2902 C2916 0.961 . S
H2903 C2917 0.960 1_554 S
H2904 C2917 0.961 . S
H2905 C2917 0.959 . S
H2906 C2920 0.929 . S
H2907 C2921 0.931 . S
H2908 C2923 0.930 . S
C2909 H2897 0.930 . S
C2909 C2910 1.399 1_565 S
C2909 C2914 1.399 . S
C2910 C2909 1.399 1_545 S
C2910 C2911 1.376 . S
C2911 H2898 0.930 . S
C2911 C2910 1.376 . S
C2911 C2912 1.388 . S
C2912 H2899 0.930 . S
C2912 C2911 1.388 . S
C2912 C2913 1.390 . S
C2913 C2912 1.390 . S
C2913 C2914 1.394 1_545 S
C2913 C2919 1.465 1_554 S
C2914 C2909 1.399 . S
C2914 C2913 1.394 1_565 S
C2914 C2915 1.516 . S
C2915 C2914 1.516 . S
C2915 C2916 1.502 . S
C2915 C2917 1.561 1_554 S
C2915 C2918 1.526 1_554 S
C2916 H2900 0.959 . S
C2916 H2901 0.959 . S
C2916 H2902 0.961 . S
C2916 C2915 1.502 . S
C2917 H2903 0.960 1_556 S
C2917 H2904 0.961 . S
C2917 H2905 0.959 . S
C2917 C2915 1.561 1_556 S
C2918 C2915 1.526 1_556 S
C2918 C2919 1.396 1_565 S
C2918 C2923 1.390 . S
C2919 C2913 1.465 1_556 S
C2919 C2918 1.396 1_545 S
C2919 C2920 1.399 . S
C2920 H2906 0.929 . S
C2920 C2919 1.399 . S
C2920 C2921 1.385 . S
C2921 H2907 0.931 . S
C2921 C2920 1.385 . S
C2921 C2922 1.389 1_545 S
C2922 C2921 1.389 1_565 S
C2922 C2923 1.387 . S
C2923 H2908 0.930 . S
C2923 C2918 1.390 . S
C2923 C2922 1.387 . S
H2924 C2936 0.930 . S
H2925 C2938 0.930 . S
H2926 C2939 0.930 . S
H2927 C2943 0.959 . S
H2928 C2943 0.959 . S
H2929 C2943 0.961 . S
H2930 C2944 0.960 . S
H2931 C2944 0.961 . S
H2932 C2944 0.959 . S
H2933 C2947 0.929 . S
H2934 C2948 0.931 . S
H2935 C2950 0.930 . S
C2936 H2924 0.930 . S
C2936 C2937 1.399 . S
C2936 C2941 1.399 . S
C2937 C2936 1.399 . S
C2937 C2938 1.376 . S
C2938 H2925 0.930 . S
C2938 C2937 1.376 . S
C2938 C2939 1.388 . S
C2939 H2926 0.930 . S
C2939 C2938 1.388 . S
C2939 C2940 1.390 . S
C2940 C2939 1.390 . S
C2940 C2941 1.394 . S
C2940 C2946 1.465 . S
C2941 C2936 1.399 . S
C2941 C2940 1.394 . S
C2941 C2942 1.516 . S
C2942 C2941 1.516 . S
C2942 C2943 1.502 . S
C2942 C2944 1.561 . S
C2942 C2945 1.526 . S
C2943 H2927 0.959 . S
C2943 H2928 0.959 . S
C2943 H2929 0.961 . S
C2943 C2942 1.502 . S
C2944 H2930 0.960 . S
C2944 H2931 0.961 . S
C2944 H2932 0.959 . S
C2944 C2942 1.561 . S
C2945 C2942 1.526 . S
C2945 C2946 1.396 . S
C2945 C2950 1.390 . S
C2946 C2940 1.465 . S
C2946 C2945 1.396 . S
C2946 C2947 1.399 . S
C2947 H2933 0.929 . S
C2947 C2946 1.399 . S
C2947 C2948 1.385 . S
C2948 H2934 0.931 . S
C2948 C2947 1.385 . S
C2948 C2949 1.389 . S
C2949 C2948 1.389 . S
C2949 C2950 1.387 . S
C2950 H2935 0.930 . S
C2950 C2945 1.390 . S
C2950 C2949 1.387 . S
H2951 C2963 0.930 . S
H2952 C2965 0.930 . S
H2953 C2966 0.930 . S
H2954 C2970 0.959 . S
H2955 C2970 0.959 . S
H2956 C2970 0.961 . S
H2957 C2971 0.960 . S
H2958 C2971 0.961 . S
H2959 C2971 0.959 . S
H2960 C2974 0.929 . S
H2961 C2975 0.931 . S
H2962 C2977 0.930 . S
C2963 H2951 0.930 . S
C2963 C2964 1.399 1_565 S
C2963 C2968 1.399 . S
C2964 C2963 1.399 1_545 S
C2964 C2965 1.376 . S
C2965 H2952 0.930 . S
C2965 C2964 1.376 . S
C2965 C2966 1.388 . S
C2966 H2953 0.930 . S
C2966 C2965 1.388 . S
C2966 C2967 1.390 . S
C2967 C2966 1.390 . S
C2967 C2968 1.394 1_545 S
C2967 C2973 1.465 . S
C2968 C2963 1.399 . S
C2968 C2967 1.394 1_565 S
C2968 C2969 1.516 . S
C2969 C2968 1.516 . S
C2969 C2970 1.502 . S
C2969 C2971 1.561 . S
C2969 C2972 1.526 . S
C2970 H2954 0.959 . S
C2970 H2955 0.959 . S
C2970 H2956 0.961 . S
C2970 C2969 1.502 . S
C2971 H2957 0.960 . S
C2971 H2958 0.961 . S
C2971 H2959 0.959 . S
C2971 C2969 1.561 . S
C2972 C2969 1.526 . S
C2972 C2973 1.396 1_565 S
C2972 C2977 1.390 . S
C2973 C2967 1.465 . S
C2973 C2972 1.396 1_545 S
C2973 C2974 1.399 . S
C2974 H2960 0.929 . S
C2974 C2973 1.399 . S
C2974 C2975 1.385 . S
C2975 H2961 0.931 . S
C2975 C2974 1.385 . S
C2975 C2976 1.389 1_545 S
C2976 C2975 1.389 1_565 S
C2976 C2977 1.387 . S
C2977 H2962 0.930 . S
C2977 C2972 1.390 . S
C2977 C2976 1.387 . S
H2978 C2990 0.930 . S
H2979 C2992 0.930 . S
H2980 C2993 0.930 . S
H2981 C2997 0.959 . S
H2982 C2997 0.959 . S
H2983 C2997 0.961 . S
H2984 C2998 0.960 . S
H2985 C2998 0.961 . S
H2986 C2998 0.959 . S
H2987 C3001 0.929 . S
H2988 C3002 0.931 . S
H2989 C3004 0.930 . S
C2990 H2978 0.930 . S
C2990 C2991 1.399 . S
C2990 C2995 1.399 . S
C2991 C2990 1.399 . S
C2991 C2992 1.376 . S
C2992 H2979 0.930 . S
C2992 C2991 1.376 . S
C2992 C2993 1.388 . S
C2993 H2980 0.930 . S
C2993 C2992 1.388 . S
C2993 C2994 1.390 . S
C2994 C2993 1.390 . S
C2994 C2995 1.394 . S
C2994 C3000 1.465 . S
C2995 C2990 1.399 . S
C2995 C2994 1.394 . S
C2995 C2996 1.516 . S
C2996 C2995 1.516 . S
C2996 C2997 1.502 . S
C2996 C2998 1.561 . S
C2996 C2999 1.526 . S
C2997 H2981 0.959 . S
C2997 H2982 0.959 . S
C2997 H2983 0.961 . S
C2997 C2996 1.502 . S
C2998 H2984 0.960 . S
C2998 H2985 0.961 . S
C2998 H2986 0.959 . S
C2998 C2996 1.561 . S
C2999 C2996 1.526 . S
C2999 C3000 1.396 . S
C2999 C3004 1.390 . S
C3000 C2994 1.465 . S
C3000 C2999 1.396 . S
C3000 C3001 1.399 . S
C3001 H2987 0.929 . S
C3001 C3000 1.399 . S
C3001 C3002 1.385 . S
C3002 H2988 0.931 . S
C3002 C3001 1.385 . S
C3002 C3003 1.389 . S
C3003 C3002 1.389 . S
C3003 C3004 1.387 . S
C3004 H2989 0.930 . S
C3004 C2999 1.390 . S
C3004 C3003 1.387 . S
H3005 C3017 0.930 . S
H3006 C3019 0.930 . S
H3007 C3020 0.944 . S
H3008 C3024 0.959 . S
H3009 C3024 0.959 . S
H3010 C3024 0.961 . S
H3011 C3025 0.931 1_554 S
H3012 C3025 0.977 . S
H3013 C3025 0.986 1_655 S
H3014 C3028 0.929 . S
H3015 C3029 0.931 . S
H3016 C3031 0.930 . S
C3017 H3005 0.930 . S
C3017 C3018 1.399 . S
C3017 C3022 1.399 . S
C3018 C3017 1.399 . S
C3018 C3019 1.376 1_565 S
C3019 H3006 0.930 . S
C3019 C3018 1.376 1_545 S
C3019 C3020 1.388 . S
C3020 H3007 0.944 . S
C3020 C3019 1.388 . S
C3020 C3021 1.390 . S
C3021 C3020 1.390 . S
C3021 C3022 1.394 1_545 S
C3021 C3027 1.471 1_554 S
C3022 C3017 1.399 . S
C3022 C3021 1.394 1_565 S
C3022 C3023 1.516 1_655 S
C3023 C3022 1.516 1_455 S
C3023 C3024 1.502 . S
C3023 C3025 1.549 1_554 S
C3023 C3026 1.526 1_554 S
C3024 H3008 0.959 . S
C3024 H3009 0.959 . S
C3024 H3010 0.961 . S
C3024 C3023 1.502 . S
C3025 H3011 0.931 1_556 S
C3025 H3012 0.977 . S
C3025 H3013 0.986 1_455 S
C3025 C3023 1.549 1_556 S
C3026 C3023 1.526 1_556 S
C3026 C3027 1.389 1_465 S
C3026 C3031 1.390 . S
C3027 C3021 1.471 1_556 S
C3027 C3026 1.389 1_645 S
C3027 C3028 1.399 . S
C3028 H3014 0.929 . S
C3028 C3027 1.399 . S
C3028 C3029 1.385 1_655 S
C3029 H3015 0.931 . S
C3029 C3028 1.385 1_455 S
C3029 C3030 1.389 . S
C3030 C3029 1.389 . S
C3030 C3031 1.387 1_545 S
C3031 H3016 0.930 . S
C3031 C3026 1.390 . S
C3031 C3030 1.387 1_565 S
H3032 C3044 0.930 . S
H3033 C3046 0.930 . S
H3034 C3047 0.930 . S
H3035 C3051 0.959 . S
H3036 C3051 0.959 . S
H3037 C3051 0.961 . S
H3038 C3052 0.960 . S
H3039 C3052 0.961 . S
H3040 C3052 0.959 . S
H3041 C3055 0.929 . S
H3042 C3056 0.931 . S
H3043 C3058 0.930 . S
C3044 H3032 0.930 . S
C3044 C3045 1.399 . S
C3044 C3049 1.399 . S
C3045 C3044 1.399 . S
C3045 C3046 1.376 . S
C3046 H3033 0.930 . S
C3046 C3045 1.376 . S
C3046 C3047 1.388 . S
C3047 H3034 0.930 . S
C3047 C3046 1.388 . S
C3047 C3048 1.390 . S
C3048 C3047 1.390 . S
C3048 C3049 1.394 . S
C3048 C3054 1.465 . S
C3049 C3044 1.399 . S
C3049 C3048 1.394 . S
C3049 C3050 1.516 . S
C3050 C3049 1.516 . S
C3050 C3051 1.502 . S
C3050 C3052 1.561 . S
C3050 C3053 1.526 . S
C3051 H3035 0.959 . S
C3051 H3036 0.959 . S
C3051 H3037 0.961 . S
C3051 C3050 1.502 . S
C3052 H3038 0.960 . S
C3052 H3039 0.961 . S
C3052 H3040 0.959 . S
C3052 C3050 1.561 . S
C3053 C3050 1.526 . S
C3053 C3054 1.396 . S
C3053 C3058 1.390 . S
C3054 C3048 1.465 . S
C3054 C3053 1.396 . S
C3054 C3055 1.399 . S
C3055 H3041 0.929 . S
C3055 C3054 1.399 . S
C3055 C3056 1.385 . S
C3056 H3042 0.931 . S
C3056 C3055 1.385 . S
C3056 C3057 1.389 . S
C3057 C3056 1.389 . S
C3057 C3058 1.387 . S
C3058 H3043 0.930 . S
C3058 C3053 1.390 . S
C3058 C3057 1.387 . S
H3059 C3071 0.930 . S
H3060 C3073 0.930 . S
H3061 C3074 0.930 . S
H3062 C3078 0.959 . S
H3063 C3078 0.959 . S
H3064 C3078 0.961 . S
H3065 C3079 0.960 . S
H3066 C3079 0.961 . S
H3067 C3079 0.959 . S
H3068 C3082 0.929 . S
H3069 C3083 0.931 . S
H3070 C3085 0.930 . S
C3071 H3059 0.930 . S
C3071 C3072 1.399 . S
C3071 C3076 1.399 . S
C3072 C3071 1.399 . S
C3072 C3073 1.376 . S
C3073 H3060 0.930 . S
C3073 C3072 1.376 . S
C3073 C3074 1.388 . S
C3074 H3061 0.930 . S
C3074 C3073 1.388 . S
C3074 C3075 1.390 . S
C3075 C3074 1.390 . S
C3075 C3076 1.394 . S
C3075 C3081 1.465 . S
C3076 C3071 1.399 . S
C3076 C3075 1.394 . S
C3076 C3077 1.516 . S
C3077 C3076 1.516 . S
C3077 C3078 1.502 . S
C3077 C3079 1.561 . S
C3077 C3080 1.526 . S
C3078 H3062 0.959 . S
C3078 H3063 0.959 . S
C3078 H3064 0.961 . S
C3078 C3077 1.502 . S
C3079 H3065 0.960 . S
C3079 H3066 0.961 . S
C3079 H3067 0.959 . S
C3079 C3077 1.561 . S
C3080 C3077 1.526 . S
C3080 C3081 1.396 . S
C3080 C3085 1.390 . S
C3081 C3075 1.465 . S
C3081 C3080 1.396 . S
C3081 C3082 1.399 . S
C3082 H3068 0.929 . S
C3082 C3081 1.399 . S
C3082 C3083 1.385 . S
C3083 H3069 0.931 . S
C3083 C3082 1.385 . S
C3083 C3084 1.389 . S
C3084 C3083 1.389 . S
C3084 C3085 1.387 . S
C3085 H3070 0.930 . S
C3085 C3080 1.390 . S
C3085 C3084 1.387 . S
H3086 C3098 0.930 . S
H3087 C3100 0.930 . S
H3088 C3101 0.930 . S
H3089 C3105 0.959 . S
H3090 C3105 0.959 . S
H3091 C3105 0.961 . S
H3092 C3106 0.960 . S
H3093 C3106 0.961 . S
H3094 C3106 0.959 . S
H3095 C3109 0.929 . S
H3096 C3110 0.931 . S
H3097 C3112 0.930 . S
C3098 H3086 0.930 . S
C3098 C3099 1.399 . S
C3098 C3103 1.399 . S
C3099 C3098 1.399 . S
C3099 C3100 1.376 . S
C3100 H3087 0.930 . S
C3100 C3099 1.376 . S
C3100 C3101 1.388 . S
C3101 H3088 0.930 . S
C3101 C3100 1.388 . S
C3101 C3102 1.390 . S
C3102 C3101 1.390 . S
C3102 C3103 1.394 . S
C3102 C3108 1.465 . S
C3103 C3098 1.399 . S
C3103 C3102 1.394 . S
C3103 C3104 1.516 . S
C3104 C3103 1.516 . S
C3104 C3105 1.502 . S
C3104 C3106 1.561 . S
C3104 C3107 1.526 . S
C3105 H3089 0.959 . S
C3105 H3090 0.959 . S
C3105 H3091 0.961 . S
C3105 C3104 1.502 . S
C3106 H3092 0.960 . S
C3106 H3093 0.961 . S
C3106 H3094 0.959 . S
C3106 C3104 1.561 . S
C3107 C3104 1.526 . S
C3107 C3108 1.396 . S
C3107 C3112 1.390 . S
C3108 C3102 1.465 . S
C3108 C3107 1.396 . S
C3108 C3109 1.399 . S
C3109 H3095 0.929 . S
C3109 C3108 1.399 . S
C3109 C3110 1.385 . S
C3110 H3096 0.931 . S
C3110 C3109 1.385 . S
C3110 C3111 1.389 . S
C3111 C3110 1.389 . S
C3111 C3112 1.387 . S
C3112 H3097 0.930 . S
C3112 C3107 1.390 . S
C3112 C3111 1.387 . S
H3113 C3125 0.930 . S
H3114 C3127 0.930 . S
H3115 C3128 0.930 . S
H3116 C3132 0.959 . S
H3117 C3132 0.959 . S
H3118 C3132 0.961 . S
H3119 C3133 0.960 . S
H3120 C3133 0.961 . S
H3121 C3133 0.959 . S
H3122 C3136 0.929 . S
H3123 C3137 0.931 . S
H3124 C3139 0.930 . S
C3125 H3113 0.930 . S
C3125 C3126 1.399 . S
C3125 C3130 1.399 . S
C3126 C3125 1.399 . S
C3126 C3127 1.376 . S
C3127 H3114 0.930 . S
C3127 C3126 1.376 . S
C3127 C3128 1.388 . S
C3128 H3115 0.930 . S
C3128 C3127 1.388 . S
C3128 C3129 1.390 . S
C3129 C3128 1.390 . S
C3129 C3130 1.394 . S
C3129 C3135 1.465 . S
C3130 C3125 1.399 . S
C3130 C3129 1.394 . S
C3130 C3131 1.516 . S
C3131 C3130 1.516 . S
C3131 C3132 1.502 . S
C3131 C3133 1.561 . S
C3131 C3134 1.526 . S
C3132 H3116 0.959 . S
C3132 H3117 0.959 . S
C3132 H3118 0.961 . S
C3132 C3131 1.502 . S
C3133 H3119 0.960 . S
C3133 H3120 0.961 . S
C3133 H3121 0.959 . S
C3133 C3131 1.561 . S
C3134 C3131 1.526 . S
C3134 C3135 1.396 . S
C3134 C3139 1.390 . S
C3135 C3129 1.465 . S
C3135 C3134 1.396 . S
C3135 C3136 1.399 . S
C3136 H3122 0.929 . S
C3136 C3135 1.399 . S
C3136 C3137 1.385 . S
C3137 H3123 0.931 . S
C3137 C3136 1.385 . S
C3137 C3138 1.389 . S
C3138 C3137 1.389 . S
C3138 C3139 1.387 . S
C3139 H3124 0.930 . S
C3139 C3134 1.390 . S
C3139 C3138 1.387 . S
H3140 C3152 0.930 . S
H3141 C3154 0.930 . S
H3142 C3155 0.930 . S
H3143 C3159 0.959 . S
H3144 C3159 0.959 . S
H3145 C3159 0.961 . S
H3146 C3160 0.960 . S
H3147 C3160 0.961 . S
H3148 C3160 0.959 . S
H3149 C3163 0.884 1_556 S
H3150 C3164 0.931 . S
H3151 C3166 0.930 . S
C3152 H3140 0.930 . S
C3152 C3153 1.399 . S
C3152 C3157 1.399 . S
C3153 C3152 1.399 . S
C3153 C3154 1.376 . S
C3154 H3141 0.930 . S
C3154 C3153 1.376 . S
C3154 C3155 1.388 . S
C3155 H3142 0.930 . S
C3155 C3154 1.388 . S
C3155 C3156 1.390 . S
C3156 C3155 1.390 . S
C3156 C3157 1.394 . S
C3156 C3162 1.465 1_556 S
C3157 C3152 1.399 . S
C3157 C3156 1.394 . S
C3157 C3158 1.516 1_556 S
C3158 C3157 1.516 1_554 S
C3158 C3159 1.502 . S
C3158 C3160 1.561 . S
C3158 C3161 1.526 . S
C3159 H3143 0.959 . S
C3159 H3144 0.959 . S
C3159 H3145 0.961 . S
C3159 C3158 1.502 . S
C3160 H3146 0.960 . S
C3160 H3147 0.961 . S
C3160 H3148 0.959 . S
C3160 C3158 1.561 . S
C3161 C3158 1.526 . S
C3161 C3162 1.396 . S
C3161 C3166 1.390 . S
C3162 C3156 1.465 1_554 S
C3162 C3161 1.396 . S
C3162 C3163 1.399 . S
C3163 H3149 0.884 1_554 S
C3163 C3162 1.399 . S
C3163 C3164 1.385 . S
C3164 H3150 0.931 . S
C3164 C3163 1.385 . S
C3164 C3165 1.389 . S
C3165 C3164 1.389 . S
C3165 C3166 1.387 . S
C3166 H3151 0.930 . S
C3166 C3161 1.390 . S
C3166 C3165 1.387 . S
H3167 C3179 0.930 . S
H3168 C3181 0.930 . S
H3169 C3182 0.930 . S
H3170 C3186 0.959 . S
H3171 C3186 0.959 . S
H3172 C3186 0.961 . S
H3173 C3187 0.960 . S
H3174 C3187 0.961 . S
H3175 C3187 0.959 . S
H3176 C3190 0.929 . S
H3177 C3191 0.931 . S
H3178 C3193 0.930 . S
C3179 H3167 0.930 . S
C3179 C3180 1.399 . S
C3179 C3184 1.399 . S
C3180 C3179 1.399 . S
C3180 C3181 1.376 . S
C3181 H3168 0.930 . S
C3181 C3180 1.376 . S
C3181 C3182 1.388 . S
C3182 H3169 0.930 . S
C3182 C3181 1.388 . S
C3182 C3183 1.390 . S
C3183 C3182 1.390 . S
C3183 C3184 1.394 . S
C3183 C3189 1.465 1_455 S
C3184 C3179 1.399 . S
C3184 C3183 1.394 . S
C3184 C3185 1.516 . S
C3185 C3184 1.516 . S
C3185 C3186 1.502 1_455 S
C3185 C3187 1.561 . S
C3185 C3188 1.526 1_455 S
C3186 H3170 0.959 . S
C3186 H3171 0.959 . S
C3186 H3172 0.961 . S
C3186 C3185 1.502 1_655 S
C3187 H3173 0.960 . S
C3187 H3174 0.961 . S
C3187 H3175 0.959 . S
C3187 C3185 1.561 . S
C3188 C3185 1.526 1_655 S
C3188 C3189 1.396 . S
C3188 C3193 1.390 . S
C3189 C3183 1.465 1_655 S
C3189 C3188 1.396 . S
C3189 C3190 1.399 . S
C3190 H3176 0.929 . S
C3190 C3189 1.399 . S
C3190 C3191 1.385 . S
C3191 H3177 0.931 . S
C3191 C3190 1.385 . S
C3191 C3192 1.389 . S
C3192 C3191 1.389 . S
C3192 C3193 1.387 . S
C3193 H3178 0.930 . S
C3193 C3188 1.390 . S
C3193 C3192 1.387 . S
H3194 C3206 0.930 . S
H3195 C3208 0.930 . S
H3196 C3209 0.914 1_556 S
H3197 C3213 0.959 . S
H3198 C3213 0.959 . S
H3199 C3213 0.961 . S
H3200 C3214 0.988 . S
H3201 C3214 0.948 1_556 S
H3202 C3214 0.938 1_456 S
H3203 C3217 0.929 . S
H3204 C3218 0.931 . S
H3205 C3220 0.930 . S
C3206 H3194 0.930 . S
C3206 C3207 1.399 . S
C3206 C3211 1.399 . S
C3207 C3206 1.399 . S
C3207 C3208 1.376 . S
C3208 H3195 0.930 . S
C3208 C3207 1.376 . S
C3208 C3209 1.388 . S
C3209 H3196 0.914 1_554 S
C3209 C3208 1.388 . S
C3209 C3210 1.390 . S
C3210 C3209 1.390 . S
C3210 C3211 1.394 . S
C3210 C3216 1.479 1_554 S
C3211 C3206 1.399 . S
C3211 C3210 1.394 . S
C3211 C3212 1.516 1_455 S
C3212 C3211 1.516 1_655 S
C3212 C3213 1.502 . S
C3212 C3214 1.572 . S
C3212 C3215 1.526 1_554 S
C3213 H3197 0.959 . S
C3213 H3198 0.959 . S
C3213 H3199 0.961 . S
C3213 C3212 1.502 . S
C3214 H3200 0.988 . S
C3214 H3201 0.948 1_554 S
C3214 H3202 0.938 1_654 S
C3214 C3212 1.572 . S
C3215 C3212 1.526 1_556 S
C3215 C3216 1.379 1_655 S
C3215 C3220 1.390 . S
C3216 C3210 1.479 1_556 S
C3216 C3215 1.379 1_455 S
C3216 C3217 1.400 . S
C3217 H3203 0.929 . S
C3217 C3216 1.400 . S
C3217 C3218 1.385 1_455 S
C3218 H3204 0.931 . S
C3218 C3217 1.385 1_655 S
C3218 C3219 1.389 . S
C3219 C3218 1.389 . S
C3219 C3220 1.387 . S
C3220 H3205 0.930 . S
C3220 C3215 1.390 . S
C3220 C3219 1.387 . S
H3221 C3233 0.930 . S
H3222 C3235 0.930 . S
H3223 C3236 0.930 . S
H3224 C3240 0.959 . S
H3225 C3240 0.959 . S
H3226 C3240 0.961 . S
H3227 C3241 0.960 . S
H3228 C3241 0.961 . S
H3229 C3241 0.959 . S
H3230 C3244 0.929 . S
H3231 C3245 0.931 . S
H3232 C3247 0.930 . S
C3233 H3221 0.930 . S
C3233 C3234 1.399 . S
C3233 C3238 1.399 . S
C3234 C3233 1.399 . S
C3234 C3235 1.376 . S
C3235 H3222 0.930 . S
C3235 C3234 1.376 . S
C3235 C3236 1.388 . S
C3236 H3223 0.930 . S
C3236 C3235 1.388 . S
C3236 C3237 1.390 . S
C3237 C3236 1.390 . S
C3237 C3238 1.394 . S
C3237 C3243 1.465 . S
C3238 C3233 1.399 . S
C3238 C3237 1.394 . S
C3238 C3239 1.516 . S
C3239 C3238 1.516 . S
C3239 C3240 1.502 . S
C3239 C3241 1.561 . S
C3239 C3242 1.526 . S
C3240 H3224 0.959 . S
C3240 H3225 0.959 . S
C3240 H3226 0.961 . S
C3240 C3239 1.502 . S
C3241 H3227 0.960 . S
C3241 H3228 0.961 . S
C3241 H3229 0.959 . S
C3241 C3239 1.561 . S
C3242 C3239 1.526 . S
C3242 C3243 1.396 . S
C3242 C3247 1.390 . S
C3243 C3237 1.465 . S
C3243 C3242 1.396 . S
C3243 C3244 1.399 . S
C3244 H3230 0.929 . S
C3244 C3243 1.399 . S
C3244 C3245 1.385 . S
C3245 H3231 0.931 . S
C3245 C3244 1.385 . S
C3245 C3246 1.389 . S
C3246 C3245 1.389 . S
C3246 C3247 1.387 . S
C3247 H3232 0.930 . S
C3247 C3242 1.390 . S
C3247 C3246 1.387 . S
C1101 C9 1.473 . S
C1113 C920 1.491 . S
C1128 C43 1.491 1_655 S
C1140 C274 1.493 . S
C1155 C852 1.492 . S
C1167 C77 1.443 . S
C1182 C342 1.493 . S
C1194 C111 1.488 . S
C1209 C988 1.494 . S
C1221 C145 1.481 . S
C1236 C179 1.435 . S
C1248 C478 1.493 . S
C1263 C213 1.436 . S
C1275 C1056 1.494 . S
C1290 C410 1.491 . S
C1302 C247 1.483 1_655 S
C1317 C281 1.484 . S
C1329 C648 1.495 . S
C1344 C315 1.446 1_455 S
C1356 C2 1.491 . S
C1371 C349 1.493 . S
C1383 C580 1.494 . S
C1398 C70 1.494 . S
C1410 C383 1.490 . S
C1425 C417 1.490 . S
C1437 C716 1.495 . S
C1452 C451 1.465 . S
C1464 C206 1.491 . S
C1479 C784 1.491 . S
C1491 C485 1.462 . S
C1506 C519 1.439 1_455 S
C1518 C138 1.491 . S
C1533 C553 1.460 . S
C1545 C376 1.491 . S
C1560 C818 1.491 . S
C1572 C587 1.479 . S
C1587 C308 1.494 . S
C1599 C621 1.478 . S
C1614 C655 1.475 1_455 S
C1626 C886 1.495 . S
C1641 C689 1.491 . S
C1653 C444 1.492 . S
C1668 C1022 1.491 . S
C1680 C723 1.449 1_455 S
C1695 C757 1.476 . S
C1707 C512 1.491 . S
C1722 C954 1.493 . S
C1734 C791 1.492 . S
C1749 C825 1.436 . S
C1761 C104 1.492 . S
C1776 C546 1.491 . S
C1788 C859 1.446 . S
C1803 C893 1.456 . S
C1815 C36 1.495 . S
C1830 C614 1.495 . S
C1842 C927 1.479 1_655 S
C1857 C961 1.490 . S
C1869 C172 1.495 . S
C1884 C750 1.491 . S
C1896 C995 1.438 1_655 S
C1911 C240 1.495 . S
C1923 C1029 1.467 . S
C1938 C1063 1.435 . S
C1950 C682 1.493 . S
C1965 C5 1.573 . S
C1977 C141 1.600 . S
C1992 C39 1.596 . S
C2004 C175 1.609 . S
C2019 C209 1.610 . S
C2031 C73 1.591 . S
C2046 C107 1.575 . S
C2058 C243 1.605 . S
C2073 C277 1.589 . S
C2085 C413 1.573 . S
C2100 C311 1.572 . S
C2112 C447 1.581 . S
C2127 C345 1.588 . S
C2139 C481 1.608 . S
C2154 C379 1.572 . S
C2166 C515 1.587 . S
C2181 C549 1.573 . S
C2193 C685 1.590 . S
C2208 C719 1.590 . S
C2220 C583 1.574 . S
C2235 C753 1.583 . S
C2247 C617 1.577 . S
C2262 C787 1.588 . S
C2274 C651 1.574 . S
C2289 C957 1.601 . S
C2301 C821 1.610 . S
C2316 C855 1.609 . S
C2328 C991 1.606 . S
C2343 C889 1.599 . S
C2355 C1025 1.611 . S
C2370 C1059 1.572 . S
C2382 C923 1.585 . S
C2397 C203 1.341 1_545 S
C2409 C33 1.338 . S
C2424 C237 1.322 . S
C2436 C67 1.329 1_545 S
C2451 C271 1.332 1_565 S
C2463 C101 1.338 . S
C2478 C169 1.341 . S
C2490 C135 1.337 1_565 S
C2505 C475 1.330 1_565 S
C2517 C305 1.329 . S
C2532 C509 1.336 . S
C2544 C339 1.337 1_565 S
C2559 C373 1.329 . S
C2571 C543 1.329 1_545 S
C2586 C407 1.329 1_545 S
C2598 C441 1.330 . S
C2613 C747 1.335 . S
C2625 C577 1.328 . S
C2640 C611 1.340 . S
C2652 C781 1.335 . S
C2667 C815 1.337 . S
C2679 C645 1.341 . S
C2694 C679 1.341 . S
C2706 C713 1.339 . S
C2721 C1019 1.321 . S
C2733 C849 1.321 . S
C2748 C883 1.320 . S
C2760 C1053 1.321 . S
C2775 C917 1.339 . S
C2787 C1087 1.339 . S
C2802 C985 1.321 . S
C2814 C951 1.321 . S
C2829 C836 1.297 . S
C2841 C20 1.328 . S
C2856 C54 1.316 . S
C2868 C326 1.309 . S
C2883 C88 1.336 . S
C2895 C904 1.299 . S
C2910 C122 1.298 . S
C2922 C394 1.336 . S
C2937 C156 1.333 . S
C2949 C972 1.302 . S
C2964 C462 1.301 . S
C2976 C190 1.333 . S
C2991 C1040 1.299 . S
C3003 C224 1.326 . S
C3018 C530 1.322 . S
C3030 C258 1.303 . S
C3045 C292 1.298 . S
C3057 C564 1.327 . S
C3072 C632 1.316 . S
C3084 C360 1.309 . S
C3099 C428 1.328 . S
C3111 C700 1.309 . S
C3126 C496 1.336 . S
C3138 C768 1.294 . S
C3153 C870 1.337 . S
C3165 C598 1.296 . S
C3180 C938 1.336 . S
C3192 C666 1.294 . S
C3207 C1006 1.321 . S
C3219 C734 1.304 . S
C3234 C802 1.335 . S
C3246 C1074 1.299 . S
