# Generated by pormake.
# Topology una, (4)-cn, num edge types: 1
# Building blocks:
#     Node 0, Type 0, BuildingBlock: NAHDIM_clean_sbu_0, # of connection points: 4
#     Node 1, Type 0, BuildingBlock: NAHDIM_clean_sbu_0, # of connection points: 4
#     Node 2, Type 0, BuildingBlock: NAHDIM_clean_sbu_0, # of connection points: 4
#     Node 3, Type 0, BuildingBlock: NAHDIM_clean_sbu_0, # of connection points: 4
#     Node 4, Type 0, BuildingBlock: NAHDIM_clean_sbu_0, # of connection points: 4
#     Node 5, Type 0, BuildingBlock: NAHDIM_clean_sbu_0, # of connection points: 4
#     Node 6, Type 0, BuildingBlock: NAHDIM_clean_sbu_0, # of connection points: 4
#     Node 7, Type 0, BuildingBlock: NAHDIM_clean_sbu_0, # of connection points: 4
#     Node 8, Type 0, BuildingBlock: NAHDIM_clean_sbu_0, # of connection points: 4
#     Node 9, Type 0, BuildingBlock: NAHDIM_clean_sbu_0, # of connection points: 4
#     Node 10, Type 0, BuildingBlock: NAHDIM_clean_sbu_0, # of connection points: 4
#     Node 11, Type 0, BuildingBlock: NAHDIM_clean_sbu_0, # of connection points: 4
#     Edge 12, Type (0, 0), BuildingBlock: AJUNOK_clean_linker_0, # of connection points: 2
#     Edge 13, Type (0, 0), BuildingBlock: AJUNOK_clean_linker_0, # of connection points: 2
#     Edge 14, Type (0, 0), BuildingBlock: AJUNOK_clean_linker_0, # of connection points: 2
#     Edge 15, Type (0, 0), BuildingBlock: AJUNOK_clean_linker_0, # of connection points: 2
#     Edge 16, Type (0, 0), BuildingBlock: AJUNOK_clean_linker_0, # of connection points: 2
#     Edge 17, Type (0, 0), BuildingBlock: AJUNOK_clean_linker_0, # of connection points: 2
#     Edge 18, Type (0, 0), BuildingBlock: AJUNOK_clean_linker_0, # of connection points: 2
#     Edge 19, Type (0, 0), BuildingBlock: AJUNOK_clean_linker_0, # of connection points: 2
#     Edge 20, Type (0, 0), BuildingBlock: AJUNOK_clean_linker_0, # of connection points: 2
#     Edge 21, Type (0, 0), BuildingBlock: AJUNOK_clean_linker_0, # of connection points: 2
#     Edge 22, Type (0, 0), BuildingBlock: AJUNOK_clean_linker_0, # of connection points: 2
#     Edge 23, Type (0, 0), BuildingBlock: AJUNOK_clean_linker_0, # of connection points: 2
#     Edge 24, Type (0, 0), BuildingBlock: AJUNOK_clean_linker_0, # of connection points: 2
#     Edge 25, Type (0, 0), BuildingBlock: AJUNOK_clean_linker_0, # of connection points: 2
#     Edge 26, Type (0, 0), BuildingBlock: AJUNOK_clean_linker_0, # of connection points: 2
#     Edge 27, Type (0, 0), BuildingBlock: AJUNOK_clean_linker_0, # of connection points: 2
#     Edge 28, Type (0, 0), BuildingBlock: AJUNOK_clean_linker_0, # of connection points: 2
#     Edge 29, Type (0, 0), BuildingBlock: AJUNOK_clean_linker_0, # of connection points: 2
#     Edge 30, Type (0, 0), BuildingBlock: AJUNOK_clean_linker_0, # of connection points: 2
#     Edge 31, Type (0, 0), BuildingBlock: AJUNOK_clean_linker_0, # of connection points: 2
#     Edge 32, Type (0, 0), BuildingBlock: AJUNOK_clean_linker_0, # of connection points: 2
#     Edge 33, Type (0, 0), BuildingBlock: AJUNOK_clean_linker_0, # of connection points: 2
#     Edge 34, Type (0, 0), BuildingBlock: AJUNOK_clean_linker_0, # of connection points: 2
#     Edge 35, Type (0, 0), BuildingBlock: AJUNOK_clean_linker_0, # of connection points: 2
# Relax obj value: 0.122
# Max RMSD: 0.175
# Mean RMSD: 0.172
data_MOF--net-una--node1-NAHDIM_clean_sbu_0--edge1-AJUNOK_clean_linker_0
_symmetry_space_group_name_H-M    P1
_symmetry_Int_Tables_number       1
_symmetry_cell_setting            triclinic
loop_
_symmetry_equiv_pos_as_xyz
'x, y, z'
_cell_length_a     43.440868
_cell_length_b     42.770475
_cell_length_c     15.944397
_cell_angle_alpha  90.029128
_cell_angle_beta   89.909169
_cell_angle_gamma 120.55557
loop_
_atom_site_label
_atom_site_type_symbol
_atom_site_fract_x
_atom_site_fract_y
_atom_site_fract_z
_atom_type_partial_charge
C0 C 0.07375 0.38791 0.94534 0.0
O1 O 0.10062 0.39079 0.90117 0.0
O2 O 0.16468 0.45493 0.95477 0.0
Zn3 Zn 0.12958 0.44504 0.0475 0.0
O4 O 0.12894 0.49044 0.07722 0.0
C5 C 0.17866 0.44184 0.15764 0.0
O6 O 0.20041 0.46617 0.10334 0.0
O7 O 0.0801 0.40747 0.01037 0.0
C8 C 0.15619 0.52213 0.07205 0.0
O9 O 0.18667 0.52599 0.04627 0.0
C10 C 0.16802 0.47168 0.88661 0.0
O11 O 0.14624 0.48377 0.87059 0.0
O12 O 0.14516 0.42799 0.14805 0.0
C13 C 0.74723 0.17766 0.28891 0.0
O14 O 0.74356 0.20071 0.24174 0.0
O15 O 0.64421 0.13357 0.25556 0.0
Zn16 Zn 0.68426 0.13067 0.19967 0.0
O17 O 0.70542 0.16536 0.10295 0.0
C18 C 0.64527 0.07435 0.0862 0.0
O19 O 0.63852 0.0995 0.06105 0.0
O20 O 0.72393 0.14402 0.28374 0.0
C21 C 0.72726 0.16061 0.05965 0.0
O22 O 0.73326 0.13454 0.08124 0.0
C23 C 0.62818 0.14831 0.22216 0.0
O24 O 0.63832 0.16312 0.14755 0.0
O25 O 0.66472 0.08058 0.15078 0.0
C26 C 0.60758 0.66534 0.27122 0.0
O27 O 0.58324 0.6661 0.22384 0.0
O28 O 0.57844 0.72659 0.29152 0.0
Zn29 Zn 0.57584 0.69181 0.3788 0.0
O30 O 0.52597 0.64861 0.37989 0.0
C31 C 0.60104 0.75037 0.49936 0.0
O32 O 0.61633 0.77084 0.43326 0.0
O33 O 0.61045 0.67571 0.34702 0.0
C34 C 0.51398 0.62889 0.44497 0.0
O35 O 0.53518 0.63644 0.50997 0.0
C36 C 0.55213 0.73085 0.27632 0.0
O37 O 0.52241 0.71202 0.31928 0.0
O38 O 0.58481 0.71607 0.49127 0.0
C39 C 0.91135 0.5944 0.42091 0.0
O40 O 0.88478 0.59313 0.37885 0.0
O41 O 0.8196 0.53415 0.43513 0.0
Zn42 Zn 0.85423 0.54051 0.52541 0.0
O43 O 0.8495 0.492 0.54583 0.0
C44 C 0.82521 0.57489 0.62884 0.0
O45 O 0.81808 0.58401 0.55589 0.0
O46 O 0.90454 0.57528 0.48694 0.0
C47 C 0.86453 0.48676 0.60808 0.0
O48 O 0.88313 0.51371 0.66017 0.0
C49 C 0.78614 0.51319 0.44442 0.0
O50 O 0.77406 0.49487 0.51468 0.0
O51 O 0.84166 0.55739 0.63109 0.0
C52 C 0.25049 0.82251 0.79975 0.0
O53 O 0.2571 0.80023 0.75728 0.0
O54 O 0.34848 0.86759 0.74503 0.0
Zn55 Zn 0.30683 0.86933 0.69539 0.0
O56 O 0.28392 0.83254 0.60358 0.0
C57 C 0.34173 0.92443 0.57586 0.0
O58 O 0.34696 0.89882 0.54624 0.0
O59 O 0.26947 0.85639 0.78525 0.0
C60 C 0.25749 0.83151 0.56712 0.0
O61 O 0.24779 0.8548 0.58995 0.0
C62 C 0.3636 0.85278 0.70738 0.0
O63 O 0.35144 0.83769 0.63386 0.0
O64 O 0.3244 0.91858 0.64407 0.0
C65 C 0.37089 0.31351 0.80482 0.0
O66 O 0.37066 0.28741 0.76095 0.0
O67 O 0.41989 0.26918 0.83023 0.0
Zn68 Zn 0.41891 0.30367 0.91363 0.0
O69 O 0.46884 0.34542 0.93023 0.0
C70 C 0.38036 0.2423 0.02094 0.0
O71 O 0.36782 0.22598 0.94872 0.0
O72 O 0.3884 0.32349 0.87305 0.0
C73 C 0.49441 0.34024 0.94808 0.0
O74 O 0.48772 0.3068 0.95641 0.0
C75 C 0.44168 0.27764 0.76964 0.0
O76 O 0.46539 0.31199 0.75615 0.0
O77 O 0.40127 0.27652 0.02227 0.0
C78 C 0.56603 0.81355 0.77872 0.0
O79 O 0.53749 0.79216 0.82337 0.0
O80 O 0.5112 0.85677 0.82061 0.0
Zn81 Zn 0.55595 0.86278 0.87244 0.0
O82 O 0.54335 0.82988 0.97154 0.0
C83 C 0.5839 0.94009 0.89345 0.0
O84 O 0.5613 0.93523 0.83318 0.0
O85 O 0.58043 0.84772 0.78761 0.0
C86 C 0.56962 0.83121 0.00955 0.0
O87 O 0.60212 0.85402 0.98255 0.0
C88 C 0.4884 0.86018 0.86335 0.0
O89 O 0.49449 0.86812 0.94349 0.0
O90 O 0.58724 0.91352 0.91613 0.0
C91 C 0.68476 0.59901 0.13168 0.0
O92 O 0.70966 0.59668 0.17291 0.0
O93 O 0.70988 0.53355 0.11599 0.0
Zn94 Zn 0.68476 0.5439 0.02458 0.0
O95 O 0.63879 0.49812 -0.002 0.0
C96 C 0.74998 0.57439 0.92973 0.0
O97 O 0.76389 0.58027 0.00521 0.0
O98 O 0.6721 0.58057 0.0649 0.0
C99 C 0.63624 0.46719 0.99549 0.0
O100 O 0.66497 0.46505 0.00831 0.0
C101 C 0.69468 0.51623 0.18253 0.0
O102 O 0.66033 0.50364 0.19275 0.0
O103 O 0.71638 0.5606 0.92216 0.0
C104 C 0.05676 0.66427 0.29026 0.0
O105 O 0.08084 0.66192 0.33519 0.0
O106 O 0.14829 0.72699 0.27751 0.0
Zn107 Zn 0.11628 0.69459 0.186 0.0
O108 O 0.12059 0.65008 0.17411 0.0
C109 C 0.1507 0.75678 0.07566 0.0
O110 O 0.15545 0.7749 0.14561 0.0
O111 O 0.06556 0.6785 0.21774 0.0
C112 C 0.14595 0.651 0.13222 0.0
O113 O 0.17016 0.68188 0.09846 0.0
C114 C 0.17276 0.72403 0.31343 0.0
O115 O 0.17797 0.69745 0.2919 0.0
O116 O 0.13225 0.72228 0.07743 0.0
C117 C 0.39432 0.16752 0.30554 0.0
O118 O 0.39059 0.17423 0.38406 0.0
O119 O 0.48192 0.1457 0.33148 0.0
Zn120 Zn 0.43648 0.13997 0.37917 0.0
O121 O 0.44869 0.17608 0.47251 0.0
C122 C 0.4063 0.06203 0.3957 0.0
O123 O 0.42581 0.06613 0.329 0.0
O124 O 0.41124 0.15122 0.28875 0.0
C125 C 0.42895 0.1669 0.53737 0.0
O126 O 0.40172 0.13359 0.54282 0.0
C127 C 0.5025 0.13997 0.37716 0.0
O128 O 0.49364 0.13063 0.45589 0.0
O129 O 0.40601 0.08945 0.42515 0.0
C130 C 0.32284 0.40763 0.6691 0.0
O131 O 0.32822 0.43555 0.71478 0.0
O132 O 0.28149 0.45803 0.64443 0.0
Zn133 Zn 0.30743 0.44751 0.55504 0.0
O134 O 0.3568 0.49092 0.53916 0.0
C135 C 0.24546 0.41849 0.44715 0.0
O136 O 0.22807 0.4037 0.51705 0.0
O137 O 0.31265 0.40575 0.59364 0.0
C138 C 0.3664 0.50974 0.47229 0.0
O139 O 0.3431 0.50118 0.41151 0.0
C140 C 0.26639 0.47646 0.63273 0.0
O141 O 0.2681 0.4905 0.55839 0.0
O142 O 0.27942 0.43644 0.4483 0.0
C143 C 0.93064 0.31678 0.80534 0.0
O144 O 0.90475 0.3172 0.84705 0.0
O145 O 0.84015 0.26038 0.76844 0.0
Zn146 Zn 0.8769 0.29524 0.68756 0.0
O147 O 0.87635 0.34194 0.68493 0.0
C148 C 0.84639 0.23773 0.56582 0.0
O149 O 0.84108 0.21758 0.63255 0.0
O150 O 0.92534 0.30704 0.72881 0.0
C151 C 0.85613 0.34673 0.6358 0.0
O152 O 0.8346 0.3202 0.58555 0.0
C153 C 0.81706 0.2649 0.80674 0.0
O154 O 0.81668 0.29514 0.79585 0.0
O155 O 0.86397 0.27209 0.57342 0.0
C156 C 0.23031 0.44364 0.22988 0.0
C157 C 0.19364 0.43197 0.22949 0.0
C158 C 0.24632 0.43758 0.299 0.0
C159 C 0.22642 0.41968 0.37111 0.0
H160 H 0.24713 0.45826 0.17686 0.0
H161 H 0.27485 0.44802 0.29648 0.0
S162 S 0.12877 0.38114 0.39967 0.0
N163 N 0.13727 0.39962 0.30535 0.0
N164 N 0.16741 0.38827 0.43585 0.0
C165 C 0.18935 0.40641 0.37034 0.0
C166 C 0.17296 0.41254 0.29947 0.0
C167 C 0.79726 0.1847 0.48939 0.0
C168 C 0.82565 0.22102 0.48818 0.0
C169 C 0.77296 0.17017 0.42271 0.0
C170 C 0.77609 0.19143 0.3524 0.0
H171 H 0.79259 0.16779 0.544 0.0
H172 H 0.75059 0.14267 0.42834 0.0
S173 S 0.8494 0.28585 0.31144 0.0
N174 N 0.85816 0.27628 0.40552 0.0
N175 N 0.81257 0.24903 0.28044 0.0
C176 C 0.80587 0.22686 0.34757 0.0
C177 C 0.83064 0.24163 0.41533 0.0
C178 C 0.6095 0.80425 0.58102 0.0
C179 C 0.59676 0.7667 0.57755 0.0
C180 C 0.60083 0.81956 0.64821 0.0
C181 C 0.57893 0.79787 0.71434 0.0
H182 H 0.62513 0.82188 0.52986 0.0
H183 H 0.6101 0.84833 0.64632 0.0
S184 S 0.54297 0.699 0.74181 0.0
N185 N 0.56434 0.70889 0.65126 0.0
N186 N 0.54797 0.73761 0.77695 0.0
C187 C 0.56787 0.7607 0.71436 0.0
C188 C 0.57683 0.74514 0.64622 0.0
C189 C 0.77773 0.58111 0.70178 0.0
C190 C 0.80936 0.57973 0.70639 0.0
C191 C 0.75934 0.58063 0.7745 0.0
C192 C 0.77219 0.57938 0.85464 0.0
H193 H 0.76614 0.5809 0.64151 0.0
H194 H 0.7344 0.58037 0.76769 0.0
S195 S 0.85596 0.57928 0.90072 0.0
N196 N 0.85416 0.57965 0.79733 0.0
N197 N 0.82004 0.57941 0.93419 0.0
C198 C 0.80488 0.58003 0.86017 0.0
C199 C 0.82331 0.57997 0.786 0.0
C200 C 0.19812 0.77008 0.86805 0.0
C201 C 0.22236 0.80773 0.86534 0.0
C202 C 0.1736 0.75423 0.93371 0.0
C203 C 0.1724 0.77528 8e-05 0.0
H204 H 0.19861 0.75238 0.82009 0.0
H205 H 0.15652 0.72495 0.93393 0.0
S206 S 0.22732 0.87571 0.01787 0.0
N207 N 0.24153 0.86618 0.9308 0.0
N208 N 0.19547 0.83636 0.05492 0.0
C209 C 0.19508 0.81326 0.9958 0.0
C210 C 0.22004 0.82949 0.92832 0.0
C211 C 0.37883 0.16897 0.15558 0.0
C212 C 0.38433 0.18378 0.23669 0.0
C213 C 0.37492 0.18692 0.08663 0.0
C214 C 0.37713 0.2207 0.09613 0.0
H215 H 0.37877 0.14392 0.14479 0.0
H216 H 0.37232 0.17524 0.02488 0.0
S217 S 0.3875 0.26934 0.2961 0.0
N218 N 0.38851 0.23265 0.32356 0.0
N219 N 0.38205 0.26677 0.19335 0.0
C220 C 0.38067 0.23486 0.17732 0.0
C221 C 0.38399 0.21626 0.24783 0.0
C222 C 0.18091 0.58922 0.06726 0.0
C223 C 0.15327 0.55449 0.09122 0.0
C224 C 0.17836 0.62016 0.08137 0.0
C225 C 0.14817 0.61775 0.12062 0.0
H226 H 0.20459 0.5926 0.03606 0.0
H227 H 0.20027 0.64617 0.06085 0.0
S228 S 0.06893 0.5333 0.19903 0.0
N229 N 0.09508 0.51961 0.15859 0.0
N230 N 0.09035 0.57771 0.18544 0.0
C231 C 0.12057 0.58325 0.14642 0.0
C232 C 0.12309 0.55167 0.1316 0.0
C233 C 0.57611 0.15816 0.22147 0.0
C234 C 0.5972 0.14717 0.26487 0.0
C235 C 0.54583 0.15598 0.25857 0.0
C236 C 0.53539 0.14289 0.3409 0.0
H237 H 0.58267 0.16811 0.15768 0.0
H238 H 0.53039 0.1645 0.22193 0.0
S239 S 0.58219 0.11183 0.4831 0.0
N240 N 0.606 0.12354 0.39592 0.0
N241 N 0.54917 0.11951 0.46559 0.0
C242 C 0.55657 0.13236 0.3857 0.0
C243 C 0.5874 0.13447 0.34775 0.0
C244 C 0.4284 0.54837 0.52833 0.0
C245 C 0.40374 0.54036 0.46293 0.0
C246 C 0.46388 0.57681 0.52154 0.0
C247 C 0.47633 0.59852 0.44903 0.0
H248 H 0.42034 0.53255 0.5856 0.0
H249 H 0.48163 0.58176 0.57393 0.0
S250 S 0.42264 0.58913 0.25941 0.0
N251 N 0.39437 0.55668 0.3229 0.0
N252 N 0.46103 0.6101 0.31015 0.0
C253 C 0.45201 0.59086 0.38292 0.0
C254 C 0.41578 0.56185 0.38988 0.0
C255 C 0.84204 0.42285 0.5617 0.0
C256 C 0.8619 0.451 0.61933 0.0
C257 C 0.83994 0.38918 0.56841 0.0
C258 C 0.8577 0.38219 0.63287 0.0
H259 H 0.82816 0.42683 0.51018 0.0
H260 H 0.82465 0.36868 0.52171 0.0
S261 S 0.91185 0.446 0.8028 0.0
N262 N 0.89867 0.46908 0.74518 0.0
N263 N 0.89476 0.40583 0.75772 0.0
C264 C 0.87714 0.40982 0.69201 0.0
C265 C 0.87921 0.44417 0.68528 0.0
C266 C 0.40524 0.86635 0.82822 0.0
C267 C 0.39496 0.85329 0.74586 0.0
C268 C 0.43514 0.86799 0.86587 0.0
C269 C 0.45619 0.85687 0.82263 0.0
H270 H 0.39017 0.87555 0.86418 0.0
H271 H 0.44199 0.87855 0.92912 0.0
S272 S 0.44036 0.81953 0.60628 0.0
N273 N 0.40794 0.82825 0.62271 0.0
N274 N 0.46414 0.83144 0.69334 0.0
C275 C 0.44605 0.84337 0.74049 0.0
C276 C 0.41546 0.84153 0.70222 0.0
C277 C 0.53693 0.40721 0.95338 0.0
C278 C 0.53111 0.37177 0.9591 0.0
C279 C 0.57097 0.43766 0.96442 0.0
C280 C 0.60083 0.43411 0.98151 0.0
H281 H 0.51495 0.41166 0.94073 0.0
H282 H 0.57374 0.46424 0.95981 0.0
S283 S 0.60039 0.34734 0.00128 0.0
N284 N 0.55836 0.33485 0.98184 0.0
N285 N 0.62242 0.39214 0.00256 0.0
C286 C 0.59558 0.39884 0.98658 0.0
C287 C 0.56075 0.3677 0.97545 0.0
C288 C 0.21773 0.48748 0.68029 0.0
C289 C 0.24394 0.47857 0.6999 0.0
C290 C 0.19383 0.48611 0.74146 0.0
C291 C 0.19527 0.47579 0.82449 0.0
H292 H 0.21486 0.49447 0.61665 0.0
H293 H 0.17349 0.49221 0.72282 0.0
S294 S 0.26177 0.45408 0.91035 0.0
N295 N 0.27189 0.46211 0.80989 0.0
N296 N 0.22716 0.45953 0.92458 0.0
C297 C 0.2224 0.46837 0.84567 0.0
C298 C 0.24667 0.46976 0.78348 0.0
C299 C 0.75126 0.2201 0.98574 0.0
C300 C 0.74774 0.18558 0.99044 0.0
C301 C 0.77307 0.24534 0.92486 0.0
C302 C 0.79212 0.23694 0.86644 0.0
H303 H 0.73792 0.22813 0.03092 0.0
H304 H 0.77571 0.27192 0.92512 0.0
S305 S 0.78841 0.14855 0.84579 0.0
N306 N 0.7626 0.14316 0.92706 0.0
N307 N 0.8035 0.19042 0.81272 0.0
C308 C 0.78759 0.20193 0.86832 0.0
C309 C 0.76544 0.1763 0.9303 0.0
C310 C 0.58934 0.7813 0.17738 0.0
C311 C 0.55541 0.75678 0.21055 0.0
C312 C 0.59357 0.80556 0.11358 0.0
C313 C 0.56404 0.80622 0.07977 0.0
H314 H 0.61301 0.78181 0.20065 0.0
H315 H 0.62031 0.82362 0.09001 0.0
S316 S 0.46932 0.74798 0.14548 0.0
N317 N 0.49163 0.73497 0.20573 0.0
N318 N 0.49956 0.78058 0.08532 0.0
C319 C 0.5299 0.78214 0.11292 0.0
C320 C 0.5256 0.75746 0.17842 0.0
C321 C 0.7756 0.52831 0.30045 0.0
C322 C 0.76147 0.51132 0.37798 0.0
C323 C 0.75362 0.52898 0.23753 0.0
C324 C 0.71649 0.51281 0.24931 0.0
H325 H 0.80405 0.54163 0.28816 0.0
H326 H 0.76614 0.54287 0.17955 0.0
S327 S 0.66572 0.46349 0.43979 0.0
N328 N 0.70771 0.47686 0.46234 0.0
N329 N 0.66627 0.47817 0.34375 0.0
C330 C 0.70176 0.49499 0.32585 0.0
C331 C 0.72425 0.49422 0.39018 0.0
C332 C 0.18873 0.77902 0.39918 0.0
C333 C 0.19518 0.75088 0.37816 0.0
C334 C 0.20918 0.80495 0.45978 0.0
C335 C 0.23705 0.80396 0.502 0.0
H336 H 0.1676 0.78117 0.36875 0.0
H337 H 0.20293 0.82591 0.47352 0.0
S338 S 0.26522 0.73604 0.47029 0.0
N339 N 0.2317 0.72366 0.40441 0.0
N340 N 0.27024 0.7725 0.51848 0.0
C341 C 0.24403 0.7761 0.48152 0.0
C342 C 0.22308 0.74955 0.41966 0.0
C343 C 0.45939 0.25832 0.63884 0.0
C344 C 0.43964 0.2489 0.71395 0.0
C345 C 0.45658 0.23162 0.58325 0.0
C346 C 0.43389 0.19444 0.60059 0.0
H347 H 0.47666 0.28655 0.62181 0.0
H348 H 0.47167 0.2403 0.52527 0.0
S349 S 0.37895 0.15524 0.79259 0.0
N350 N 0.39842 0.19957 0.80543 0.0
N351 N 0.39313 0.14954 0.70099 0.0
C352 C 0.41491 0.1846 0.67679 0.0
C353 C 0.41777 0.21177 0.73342 0.0
C354 C 0.03047 0.35496 0.82923 0.0
C355 C 0.03664 0.36574 0.9139 0.0
C356 C 0.99594 0.33791 0.79525 0.0
C357 C 0.96622 0.33088 0.84469 0.0
H358 H 0.0526 0.36096 0.78783 0.0
H359 H 0.99276 0.33134 0.72903 0.0
S360 S 0.96743 0.34902 0.07303 0.0
N361 N 0.00973 0.36484 0.04844 0.0
N362 N 0.9449 0.33268 0.98503 0.0
C363 C 0.9718 0.33965 0.93064 0.0
C364 C 0.00697 0.35711 0.96511 0.0
C365 C 0.59471 0.0024 0.9207 0.0
C366 C 0.60195 0.97478 0.94089 0.0
C367 C 0.60894 0.03432 0.96801 0.0
C368 C 0.63109 0.04012 0.0377 0.0
H369 H 0.57739 -0.00076 0.86859 0.0
H370 H 0.60214 0.05447 0.94985 0.0
S371 S 0.65989 0.97709 0.11504 0.0
N372 N 0.63395 0.9559 0.03404 0.0
N373 N 0.6607 0.01599 0.1229 0.0
C374 C 0.63922 0.01308 0.05783 0.0
C375 C 0.6247 0.98046 0.00945 0.0
C376 C 0.64287 0.62259 0.11957 0.0
C377 C 0.66835 0.61929 0.16701 0.0
C378 C 0.62411 0.63821 0.15349 0.0
C379 C 0.62986 0.65117 0.23652 0.0
H380 H 0.63675 0.61239 0.05592 0.0
H381 H 0.60439 0.63943 0.11435 0.0
S382 S 0.69531 0.65117 0.38603 0.0
N383 N 0.69967 0.63199 0.3005 0.0
N384 N 0.66427 0.66133 0.36429 0.0
C385 C 0.65609 0.64917 0.28403 0.0
C386 C 0.67537 0.6333 0.24927 0.0
C387 C 0.01112 0.63168 0.40201 0.0
C388 C 0.01986 0.64896 0.32326 0.0
C389 C 0.97628 0.61508 0.43372 0.0
C390 C 0.94853 0.61503 0.38821 0.0
H391 H 0.03121 0.63031 0.43937 0.0
H392 H 0.97104 0.60161 0.49399 0.0
S393 S 0.95763 0.65861 0.18085 0.0
N394 N -0.00183 0.66654 0.20195 0.0
N395 N 0.93258 0.63537 0.26155 0.0
C396 C 0.95705 0.6332 0.31038 0.0
C397 C 0.99268 0.65011 0.27792 0.0
C398 C 0.39167 -0.00219 0.41258 0.0
C399 C 0.38756 0.02668 0.44046 0.0
C400 C 0.37643 0.96492 0.45642 0.0
C401 C 0.35638 0.95938 0.53013 0.0
H402 H 0.4073 0.00071 0.35704 0.0
H403 H 0.38086 0.94382 0.43247 0.0
S404 S 0.33594 0.02564 0.62774 0.0
N405 N 0.36064 0.04704 0.54509 0.0
N406 N 0.33209 0.98521 0.62749 0.0
C407 C 0.35134 0.9877 0.55791 0.0
C408 C 0.36687 0.0213 0.51312 0.0
C409 C 0.345 0.38552 0.78591 0.0
C410 C 0.33135 0.38074 0.70395 0.0
C411 C 0.3564 0.3628 0.81877 0.0
C412 C 0.35464 0.3342 0.77123 0.0
H413 H 0.34782 0.4076 0.82477 0.0
H414 H 0.36755 0.3684 0.88144 0.0
S415 S 0.3178 0.30777 0.55582 0.0
N416 N 0.3143 0.34354 0.57785 0.0
N417 N 0.33571 0.30072 0.63966 0.0
C418 C 0.33951 0.328 0.69045 0.0
C419 C 0.3279 0.35127 0.65682 0.0
loop_
_geom_bond_atom_site_label_1
_geom_bond_atom_site_label_2
_geom_bond_distance
_geom_bond_site_symmetry_2
_ccdc_geom_bond_type
C0 O1 1.160 . S
C0 O7 1.185 1_556 S
O1 C0 1.160 . S
O2 Zn3 1.899 1_556 S
O2 C10 1.284 . S
Zn3 O2 1.899 1_554 S
Zn3 O4 2.032 . S
Zn3 O7 2.086 . S
Zn3 O12 1.977 . S
O4 Zn3 2.032 . S
O4 C8 1.278 . S
C5 O6 1.203 . S
C5 O12 1.267 . S
O6 C5 1.203 . S
O7 C0 1.185 1_554 S
O7 Zn3 2.086 . S
C8 O4 1.278 . S
C8 O9 1.211 . S
O9 C8 1.211 . S
C10 O2 1.284 . S
C10 O11 1.273 . S
O11 C10 1.273 . S
O12 Zn3 1.977 . S
O12 C5 1.267 . S
C13 O14 1.160 . S
C13 O20 1.185 . S
O14 C13 1.160 . S
O15 Zn16 1.899 . S
O15 C23 1.284 . S
Zn16 O15 1.899 . S
Zn16 O17 2.032 . S
Zn16 O20 2.086 . S
Zn16 O25 1.977 . S
O17 Zn16 2.032 . S
O17 C21 1.278 . S
C18 O19 1.203 . S
C18 O25 1.267 . S
O19 C18 1.203 . S
O20 C13 1.185 . S
O20 Zn16 2.086 . S
C21 O17 1.278 . S
C21 O22 1.211 . S
O22 C21 1.211 . S
C23 O15 1.284 . S
C23 O24 1.273 . S
O24 C23 1.273 . S
O25 Zn16 1.977 . S
O25 C18 1.267 . S
C26 O27 1.160 . S
C26 O33 1.185 . S
O27 C26 1.160 . S
O28 Zn29 1.899 . S
O28 C36 1.284 . S
Zn29 O28 1.899 . S
Zn29 O30 2.032 . S
Zn29 O33 2.086 . S
Zn29 O38 1.977 . S
O30 Zn29 2.032 . S
O30 C34 1.278 . S
C31 O32 1.203 . S
C31 O38 1.267 . S
O32 C31 1.203 . S
O33 C26 1.185 . S
O33 Zn29 2.086 . S
C34 O30 1.278 . S
C34 O35 1.211 . S
O35 C34 1.211 . S
C36 O28 1.284 . S
C36 O37 1.273 . S
O37 C36 1.273 . S
O38 Zn29 1.977 . S
O38 C31 1.267 . S
C39 O40 1.160 . S
C39 O46 1.185 . S
O40 C39 1.160 . S
O41 Zn42 1.899 . S
O41 C49 1.284 . S
Zn42 O41 1.899 . S
Zn42 O43 2.032 . S
Zn42 O46 2.086 . S
Zn42 O51 1.977 . S
O43 Zn42 2.032 . S
O43 C47 1.278 . S
C44 O45 1.203 . S
C44 O51 1.267 . S
O45 C44 1.203 . S
O46 C39 1.185 . S
O46 Zn42 2.086 . S
C47 O43 1.278 . S
C47 O48 1.211 . S
O48 C47 1.211 . S
C49 O41 1.284 . S
C49 O50 1.273 . S
O50 C49 1.273 . S
O51 Zn42 1.977 . S
O51 C44 1.267 . S
C52 O53 1.160 . S
C52 O59 1.185 . S
O53 C52 1.160 . S
O54 Zn55 1.899 . S
O54 C62 1.284 . S
Zn55 O54 1.899 . S
Zn55 O56 2.032 . S
Zn55 O59 2.086 . S
Zn55 O64 1.977 . S
O56 Zn55 2.032 . S
O56 C60 1.278 . S
C57 O58 1.203 . S
C57 O64 1.267 . S
O58 C57 1.203 . S
O59 C52 1.185 . S
O59 Zn55 2.086 . S
C60 O56 1.278 . S
C60 O61 1.211 . S
O61 C60 1.211 . S
C62 O54 1.284 . S
C62 O63 1.273 . S
O63 C62 1.273 . S
O64 Zn55 1.977 . S
O64 C57 1.267 . S
C65 O66 1.160 . S
C65 O72 1.185 . S
O66 C65 1.160 . S
O67 Zn68 1.899 . S
O67 C75 1.284 . S
Zn68 O67 1.899 . S
Zn68 O69 2.032 . S
Zn68 O72 2.086 . S
Zn68 O77 1.977 . S
O69 Zn68 2.032 . S
O69 C73 1.278 . S
C70 O71 1.203 . S
C70 O77 1.267 . S
O71 C70 1.203 . S
O72 C65 1.185 . S
O72 Zn68 2.086 . S
C73 O69 1.278 . S
C73 O74 1.211 . S
O74 C73 1.211 . S
C75 O67 1.284 . S
C75 O76 1.273 . S
O76 C75 1.273 . S
O77 Zn68 1.977 . S
O77 C70 1.267 . S
C78 O79 1.160 . S
C78 O85 1.185 . S
O79 C78 1.160 . S
O80 Zn81 1.899 . S
O80 C88 1.284 . S
Zn81 O80 1.899 . S
Zn81 O82 2.032 . S
Zn81 O85 2.086 . S
Zn81 O90 1.977 . S
O82 Zn81 2.032 . S
O82 C86 1.278 1_556 S
C83 O84 1.203 . S
C83 O90 1.267 . S
O84 C83 1.203 . S
O85 C78 1.185 . S
O85 Zn81 2.086 . S
C86 O82 1.278 1_554 S
C86 O87 1.211 . S
O87 C86 1.211 . S
C88 O80 1.284 . S
C88 O89 1.273 . S
O89 C88 1.273 . S
O90 Zn81 1.977 . S
O90 C83 1.267 . S
C91 O92 1.160 . S
C91 O98 1.185 . S
O92 C91 1.160 . S
O93 Zn94 1.899 . S
O93 C101 1.284 . S
Zn94 O93 1.899 . S
Zn94 O95 2.032 . S
Zn94 O98 2.086 . S
Zn94 O103 1.977 1_554 S
O95 Zn94 2.032 . S
O95 C99 1.278 . S
C96 O97 1.203 . S
C96 O103 1.267 . S
O97 C96 1.203 . S
O98 C91 1.185 . S
O98 Zn94 2.086 . S
C99 O95 1.278 . S
C99 O100 1.211 1_554 S
O100 C99 1.211 1_556 S
C101 O93 1.284 . S
C101 O102 1.273 . S
O102 C101 1.273 . S
O103 Zn94 1.977 1_556 S
O103 C96 1.267 . S
C104 O105 1.160 . S
C104 O111 1.185 . S
O105 C104 1.160 . S
O106 Zn107 1.899 . S
O106 C114 1.284 . S
Zn107 O106 1.899 . S
Zn107 O108 2.032 . S
Zn107 O111 2.086 . S
Zn107 O116 1.977 . S
O108 Zn107 2.032 . S
O108 C112 1.278 . S
C109 O110 1.203 . S
C109 O116 1.267 . S
O110 C109 1.203 . S
O111 C104 1.185 . S
O111 Zn107 2.086 . S
C112 O108 1.278 . S
C112 O113 1.211 . S
O113 C112 1.211 . S
C114 O106 1.284 . S
C114 O115 1.273 . S
O115 C114 1.273 . S
O116 Zn107 1.977 . S
O116 C109 1.267 . S
C117 O118 1.160 . S
C117 O124 1.185 . S
O118 C117 1.160 . S
O119 Zn120 1.899 . S
O119 C127 1.284 . S
Zn120 O119 1.899 . S
Zn120 O121 2.032 . S
Zn120 O124 2.086 . S
Zn120 O129 1.977 . S
O121 Zn120 2.032 . S
O121 C125 1.278 . S
C122 O123 1.203 . S
C122 O129 1.267 . S
O123 C122 1.203 . S
O124 C117 1.185 . S
O124 Zn120 2.086 . S
C125 O121 1.278 . S
C125 O126 1.211 . S
O126 C125 1.211 . S
C127 O119 1.284 . S
C127 O128 1.273 . S
O128 C127 1.273 . S
O129 Zn120 1.977 . S
O129 C122 1.267 . S
C130 O131 1.160 . S
C130 O137 1.185 . S
O131 C130 1.160 . S
O132 Zn133 1.899 . S
O132 C140 1.284 . S
Zn133 O132 1.899 . S
Zn133 O134 2.032 . S
Zn133 O137 2.086 . S
Zn133 O142 1.977 . S
O134 Zn133 2.032 . S
O134 C138 1.278 . S
C135 O136 1.203 . S
C135 O142 1.267 . S
O136 C135 1.203 . S
O137 C130 1.185 . S
O137 Zn133 2.086 . S
C138 O134 1.278 . S
C138 O139 1.211 . S
O139 C138 1.211 . S
C140 O132 1.284 . S
C140 O141 1.273 . S
O141 C140 1.273 . S
O142 Zn133 1.977 . S
O142 C135 1.267 . S
C143 O144 1.160 . S
C143 O150 1.185 . S
O144 C143 1.160 . S
O145 Zn146 1.899 . S
O145 C153 1.284 . S
Zn146 O145 1.899 . S
Zn146 O147 2.032 . S
Zn146 O150 2.086 . S
Zn146 O155 1.977 . S
O147 Zn146 2.032 . S
O147 C151 1.278 . S
C148 O149 1.203 . S
C148 O155 1.267 . S
O149 C148 1.203 . S
O150 C143 1.185 . S
O150 Zn146 2.086 . S
C151 O147 1.278 . S
C151 O152 1.211 . S
O152 C151 1.211 . S
C153 O145 1.284 . S
C153 O154 1.273 . S
O154 C153 1.273 . S
O155 Zn146 1.977 . S
O155 C148 1.267 . S
C156 C157 1.369 . S
C156 C158 1.419 . S
C156 H160 0.930 . S
C157 C156 1.369 . S
C157 C166 1.429 . S
C158 C156 1.419 . S
C158 C159 1.363 . S
C158 H161 0.929 . S
C159 C158 1.363 . S
C159 C165 1.428 . S
H160 C156 0.930 . S
H161 C158 0.929 . S
S162 N163 1.613 . S
S162 N164 1.610 . S
N163 S162 1.613 . S
N163 C166 1.350 . S
N164 S162 1.610 . S
N164 C165 1.351 . S
C165 C159 1.428 . S
C165 N164 1.351 . S
C165 C166 1.434 . S
C166 C157 1.429 . S
C166 N163 1.350 . S
C166 C165 1.434 . S
C167 C168 1.369 . S
C167 C169 1.419 . S
C167 H171 0.930 . S
C168 C167 1.369 . S
C168 C177 1.429 . S
C169 C167 1.419 . S
C169 C170 1.363 . S
C169 H172 0.929 . S
C170 C169 1.363 . S
C170 C176 1.428 . S
H171 C167 0.930 . S
H172 C169 0.929 . S
S173 N174 1.613 . S
S173 N175 1.610 . S
N174 S173 1.613 . S
N174 C177 1.350 . S
N175 S173 1.610 . S
N175 C176 1.351 . S
C176 C170 1.428 . S
C176 N175 1.351 . S
C176 C177 1.434 . S
C177 C168 1.429 . S
C177 N174 1.350 . S
C177 C176 1.434 . S
C178 C179 1.369 . S
C178 C180 1.419 . S
C178 H182 0.930 . S
C179 C178 1.369 . S
C179 C188 1.429 . S
C180 C178 1.419 . S
C180 C181 1.363 . S
C180 H183 0.929 . S
C181 C180 1.363 . S
C181 C187 1.428 . S
H182 C178 0.930 . S
H183 C180 0.929 . S
S184 N185 1.613 . S
S184 N186 1.610 . S
N185 S184 1.613 . S
N185 C188 1.350 . S
N186 S184 1.610 . S
N186 C187 1.351 . S
C187 C181 1.428 . S
C187 N186 1.351 . S
C187 C188 1.434 . S
C188 C179 1.429 . S
C188 N185 1.350 . S
C188 C187 1.434 . S
C189 C190 1.369 . S
C189 C191 1.419 . S
C189 H193 0.930 . S
C190 C189 1.369 . S
C190 C199 1.429 . S
C191 C189 1.419 . S
C191 C192 1.363 . S
C191 H194 0.929 . S
C192 C191 1.363 . S
C192 C198 1.428 . S
H193 C189 0.930 . S
H194 C191 0.929 . S
S195 N196 1.613 . S
S195 N197 1.610 . S
N196 S195 1.613 . S
N196 C199 1.350 . S
N197 S195 1.610 . S
N197 C198 1.351 . S
C198 C192 1.428 . S
C198 N197 1.351 . S
C198 C199 1.434 . S
C199 C190 1.429 . S
C199 N196 1.350 . S
C199 C198 1.434 . S
C200 C201 1.369 . S
C200 C202 1.419 . S
C200 H204 0.930 . S
C201 C200 1.369 . S
C201 C210 1.429 . S
C202 C200 1.419 . S
C202 C203 1.363 1_556 S
C202 H205 0.929 . S
C203 C202 1.363 1_554 S
C203 C209 1.428 . S
H204 C200 0.930 . S
H205 C202 0.929 . S
S206 N207 1.613 1_554 S
S206 N208 1.610 . S
N207 S206 1.613 1_556 S
N207 C210 1.350 . S
N208 S206 1.610 . S
N208 C209 1.351 . S
C209 C203 1.428 . S
C209 N208 1.351 . S
C209 C210 1.434 1_554 S
C210 C201 1.429 . S
C210 N207 1.350 . S
C210 C209 1.434 1_556 S
C211 C212 1.369 . S
C211 C213 1.419 . S
C211 H215 0.930 . S
C212 C211 1.369 . S
C212 C221 1.429 . S
C213 C211 1.419 . S
C213 C214 1.363 . S
C213 H216 0.929 1_554 S
C214 C213 1.363 . S
C214 C220 1.428 . S
H215 C211 0.930 . S
H216 C213 0.929 1_556 S
S217 N218 1.613 . S
S217 N219 1.610 . S
N218 S217 1.613 . S
N218 C221 1.350 . S
N219 S217 1.610 . S
N219 C220 1.351 . S
C220 C214 1.428 . S
C220 N219 1.351 . S
C220 C221 1.434 . S
C221 C212 1.429 . S
C221 N218 1.350 . S
C221 C220 1.434 . S
C222 C223 1.369 . S
C222 C224 1.419 . S
C222 H226 0.930 . S
C223 C222 1.369 . S
C223 C232 1.429 . S
C224 C222 1.419 . S
C224 C225 1.363 . S
C224 H227 0.929 . S
C225 C224 1.363 . S
C225 C231 1.428 . S
H226 C222 0.930 . S
H227 C224 0.929 . S
S228 N229 1.613 . S
S228 N230 1.610 . S
N229 S228 1.613 . S
N229 C232 1.350 . S
N230 S228 1.610 . S
N230 C231 1.351 . S
C231 C225 1.428 . S
C231 N230 1.351 . S
C231 C232 1.434 . S
C232 C223 1.429 . S
C232 N229 1.350 . S
C232 C231 1.434 . S
C233 C234 1.369 . S
C233 C235 1.419 . S
C233 H237 0.930 . S
C234 C233 1.369 . S
C234 C243 1.429 . S
C235 C233 1.419 . S
C235 C236 1.363 . S
C235 H238 0.929 . S
C236 C235 1.363 . S
C236 C242 1.428 . S
H237 C233 0.930 . S
H238 C235 0.929 . S
S239 N240 1.613 . S
S239 N241 1.610 . S
N240 S239 1.613 . S
N240 C243 1.350 . S
N241 S239 1.610 . S
N241 C242 1.351 . S
C242 C236 1.428 . S
C242 N241 1.351 . S
C242 C243 1.434 . S
C243 C234 1.429 . S
C243 N240 1.350 . S
C243 C242 1.434 . S
C244 C245 1.369 . S
C244 C246 1.419 . S
C244 H248 0.930 . S
C245 C244 1.369 . S
C245 C254 1.429 . S
C246 C244 1.419 . S
C246 C247 1.363 . S
C246 H249 0.929 . S
C247 C246 1.363 . S
C247 C253 1.428 . S
H248 C244 0.930 . S
H249 C246 0.929 . S
S250 N251 1.613 . S
S250 N252 1.610 . S
N251 S250 1.613 . S
N251 C254 1.350 . S
N252 S250 1.610 . S
N252 C253 1.351 . S
C253 C247 1.428 . S
C253 N252 1.351 . S
C253 C254 1.434 . S
C254 C245 1.429 . S
C254 N251 1.350 . S
C254 C253 1.434 . S
C255 C256 1.369 . S
C255 C257 1.419 . S
C255 H259 0.930 . S
C256 C255 1.369 . S
C256 C265 1.429 . S
C257 C255 1.419 . S
C257 C258 1.363 . S
C257 H260 0.929 . S
C258 C257 1.363 . S
C258 C264 1.428 . S
H259 C255 0.930 . S
H260 C257 0.929 . S
S261 N262 1.613 . S
S261 N263 1.610 . S
N262 S261 1.613 . S
N262 C265 1.350 . S
N263 S261 1.610 . S
N263 C264 1.351 . S
C264 C258 1.428 . S
C264 N263 1.351 . S
C264 C265 1.434 . S
C265 C256 1.429 . S
C265 N262 1.350 . S
C265 C264 1.434 . S
C266 C267 1.369 . S
C266 C268 1.419 . S
C266 H270 0.930 . S
C267 C266 1.369 . S
C267 C276 1.429 . S
C268 C266 1.419 . S
C268 C269 1.363 . S
C268 H271 0.929 . S
C269 C268 1.363 . S
C269 C275 1.428 . S
H270 C266 0.930 . S
H271 C268 0.929 . S
S272 N273 1.613 . S
S272 N274 1.610 . S
N273 S272 1.613 . S
N273 C276 1.350 . S
N274 S272 1.610 . S
N274 C275 1.351 . S
C275 C269 1.428 . S
C275 N274 1.351 . S
C275 C276 1.434 . S
C276 C267 1.429 . S
C276 N273 1.350 . S
C276 C275 1.434 . S
C277 C278 1.369 . S
C277 C279 1.419 . S
C277 H281 0.930 . S
C278 C277 1.369 . S
C278 C287 1.429 . S
C279 C277 1.419 . S
C279 C280 1.363 . S
C279 H282 0.929 . S
C280 C279 1.363 . S
C280 C286 1.428 1_556 S
H281 C277 0.930 . S
H282 C279 0.929 . S
S283 N284 1.613 1_554 S
S283 N285 1.610 . S
N284 S283 1.613 1_556 S
N284 C287 1.350 . S
N285 S283 1.610 . S
N285 C286 1.351 . S
C286 C280 1.428 1_554 S
C286 N285 1.351 . S
C286 C287 1.434 1_554 S
C287 C278 1.429 . S
C287 N284 1.350 . S
C287 C286 1.434 1_556 S
C288 C289 1.369 . S
C288 C290 1.419 . S
C288 H292 0.930 . S
C289 C288 1.369 . S
C289 C298 1.429 . S
C290 C288 1.419 . S
C290 C291 1.363 . S
C290 H293 0.929 . S
C291 C290 1.363 . S
C291 C297 1.428 . S
H292 C288 0.930 . S
H293 C290 0.929 . S
S294 N295 1.613 . S
S294 N296 1.610 . S
N295 S294 1.613 . S
N295 C298 1.350 . S
N296 S294 1.610 . S
N296 C297 1.351 . S
C297 C291 1.428 . S
C297 N296 1.351 . S
C297 C298 1.434 . S
C298 C289 1.429 . S
C298 N295 1.350 . S
C298 C297 1.434 . S
C299 C300 1.369 . S
C299 C301 1.419 1_554 S
C299 H303 0.930 . S
C300 C299 1.369 . S
C300 C309 1.429 1_554 S
C301 C299 1.419 1_556 S
C301 C302 1.363 . S
C301 H304 0.929 1_556 S
C302 C301 1.363 . S
C302 C308 1.428 . S
H303 C299 0.930 . S
H304 C301 0.929 1_554 S
S305 N306 1.613 . S
S305 N307 1.610 . S
N306 S305 1.613 . S
N306 C309 1.350 . S
N307 S305 1.610 . S
N307 C308 1.351 . S
C308 C302 1.428 . S
C308 N307 1.351 . S
C308 C309 1.434 . S
C309 C300 1.429 1_556 S
C309 N306 1.350 . S
C309 C308 1.434 . S
C310 C311 1.369 . S
C310 C312 1.419 . S
C310 H314 0.930 . S
C311 C310 1.369 . S
C311 C320 1.429 . S
C312 C310 1.419 . S
C312 C313 1.363 . S
C312 H315 0.929 . S
C313 C312 1.363 . S
C313 C319 1.428 . S
H314 C310 0.930 . S
H315 C312 0.929 . S
S316 N317 1.613 . S
S316 N318 1.610 . S
N317 S316 1.613 . S
N317 C320 1.350 . S
N318 S316 1.610 . S
N318 C319 1.351 . S
C319 C313 1.428 . S
C319 N318 1.351 . S
C319 C320 1.434 . S
C320 C311 1.429 . S
C320 N317 1.350 . S
C320 C319 1.434 . S
C321 C322 1.369 . S
C321 C323 1.419 . S
C321 H325 0.930 . S
C322 C321 1.369 . S
C322 C331 1.429 . S
C323 C321 1.419 . S
C323 C324 1.363 . S
C323 H326 0.929 . S
C324 C323 1.363 . S
C324 C330 1.428 . S
H325 C321 0.930 . S
H326 C323 0.929 . S
S327 N328 1.613 . S
S327 N329 1.610 . S
N328 S327 1.613 . S
N328 C331 1.350 . S
N329 S327 1.610 . S
N329 C330 1.351 . S
C330 C324 1.428 . S
C330 N329 1.351 . S
C330 C331 1.434 . S
C331 C322 1.429 . S
C331 N328 1.350 . S
C331 C330 1.434 . S
C332 C333 1.369 . S
C332 C334 1.419 . S
C332 H336 0.930 . S
C333 C332 1.369 . S
C333 C342 1.429 . S
C334 C332 1.419 . S
C334 C335 1.363 . S
C334 H337 0.929 . S
C335 C334 1.363 . S
C335 C341 1.428 . S
H336 C332 0.930 . S
H337 C334 0.929 . S
S338 N339 1.613 . S
S338 N340 1.610 . S
N339 S338 1.613 . S
N339 C342 1.350 . S
N340 S338 1.610 . S
N340 C341 1.351 . S
C341 C335 1.428 . S
C341 N340 1.351 . S
C341 C342 1.434 . S
C342 C333 1.429 . S
C342 N339 1.350 . S
C342 C341 1.434 . S
C343 C344 1.369 . S
C343 C345 1.419 . S
C343 H347 0.930 . S
C344 C343 1.369 . S
C344 C353 1.429 . S
C345 C343 1.419 . S
C345 C346 1.363 . S
C345 H348 0.929 . S
C346 C345 1.363 . S
C346 C352 1.428 . S
H347 C343 0.930 . S
H348 C345 0.929 . S
S349 N350 1.613 . S
S349 N351 1.610 . S
N350 S349 1.613 . S
N350 C353 1.350 . S
N351 S349 1.610 . S
N351 C352 1.351 . S
C352 C346 1.428 . S
C352 N351 1.351 . S
C352 C353 1.434 . S
C353 C344 1.429 . S
C353 N350 1.350 . S
C353 C352 1.434 . S
C354 C355 1.369 . S
C354 C356 1.419 . S
C354 H358 0.930 . S
C355 C354 1.369 . S
C355 C364 1.429 1_455 S
C356 C354 1.419 . S
C356 C357 1.363 1_455 S
C356 H359 0.929 . S
C357 C356 1.363 1_655 S
C357 C363 1.428 . S
H358 C354 0.930 . S
H359 C356 0.929 . S
S360 N361 1.613 . S
S360 N362 1.610 1_554 S
N361 S360 1.613 . S
N361 C364 1.350 1_554 S
N362 S360 1.610 1_556 S
N362 C363 1.351 . S
C363 C357 1.428 . S
C363 N362 1.351 . S
C363 C364 1.434 . S
C364 C355 1.429 1_655 S
C364 N361 1.350 1_556 S
C364 C363 1.434 . S
C365 C366 1.369 1_545 S
C365 C367 1.419 1_556 S
C365 H369 0.930 . S
C366 C365 1.369 1_565 S
C366 C375 1.429 1_556 S
C367 C365 1.419 1_554 S
C367 C368 1.363 . S
C367 H370 0.929 . S
C368 C367 1.363 . S
C368 C374 1.428 1_545 S
H369 C365 0.930 . S
H370 C367 0.929 . S
S371 N372 1.613 . S
S371 N373 1.610 . S
N372 S371 1.613 . S
N372 C375 1.350 . S
N373 S371 1.610 . S
N373 C374 1.351 . S
C374 C368 1.428 1_565 S
C374 N373 1.351 . S
C374 C375 1.434 . S
C375 C366 1.429 1_554 S
C375 N372 1.350 . S
C375 C374 1.434 . S
C376 C377 1.369 . S
C376 C378 1.419 . S
C376 H380 0.930 . S
C377 C376 1.369 . S
C377 C386 1.429 . S
C378 C376 1.419 . S
C378 C379 1.363 . S
C378 H381 0.929 . S
C379 C378 1.363 . S
C379 C385 1.428 . S
H380 C376 0.930 . S
H381 C378 0.929 . S
S382 N383 1.613 . S
S382 N384 1.610 . S
N383 S382 1.613 . S
N383 C386 1.350 . S
N384 S382 1.610 . S
N384 C385 1.351 . S
C385 C379 1.428 . S
C385 N384 1.351 . S
C385 C386 1.434 . S
C386 C377 1.429 . S
C386 N383 1.350 . S
C386 C385 1.434 . S
C387 C388 1.369 . S
C387 C389 1.404 1_455 S
C387 H391 0.930 . S
C388 C387 1.369 . S
C388 C397 1.429 1_455 S
C389 C387 1.404 1_655 S
C389 C390 1.385 . S
C389 H392 0.912 1_655 S
C390 C389 1.385 . S
C390 C396 1.428 . S
H391 C387 0.930 . S
H392 C389 0.912 1_455 S
S393 N394 1.613 . S
S393 N395 1.610 . S
N394 S393 1.613 . S
N394 C397 1.350 . S
N395 S393 1.610 . S
N395 C396 1.351 . S
C396 C390 1.428 . S
C396 N395 1.351 . S
C396 C397 1.434 . S
C397 C388 1.429 1_655 S
C397 N394 1.350 . S
C397 C396 1.434 . S
C398 C399 1.369 . S
C398 C400 1.419 1_545 S
C398 H402 0.930 . S
C399 C398 1.369 . S
C399 C408 1.429 . S
C400 C398 1.419 1_565 S
C400 C401 1.363 . S
C400 H403 0.929 . S
C401 C400 1.363 . S
C401 C407 1.428 . S
H402 C398 0.930 . S
H403 C400 0.929 . S
S404 N405 1.613 . S
S404 N406 1.610 1_545 S
N405 S404 1.613 . S
N405 C408 1.350 . S
N406 S404 1.610 1_565 S
N406 C407 1.351 . S
C407 C401 1.428 . S
C407 N406 1.351 . S
C407 C408 1.434 1_565 S
C408 C399 1.429 . S
C408 N405 1.350 . S
C408 C407 1.434 1_545 S
C409 C410 1.369 . S
C409 C411 1.419 . S
C409 H413 0.930 . S
C410 C409 1.369 . S
C410 C419 1.429 . S
C411 C409 1.419 . S
C411 C412 1.363 . S
C411 H414 0.929 . S
C412 C411 1.363 . S
C412 C418 1.428 . S
H413 C409 0.930 . S
H414 C411 0.929 . S
S415 N416 1.613 . S
S415 N417 1.610 . S
N416 S415 1.613 . S
N416 C419 1.350 . S
N417 S415 1.610 . S
N417 C418 1.351 . S
C418 C412 1.428 . S
C418 N417 1.351 . S
C418 C419 1.434 . S
C419 C410 1.429 . S
C419 N416 1.350 . S
C419 C418 1.434 . S
C157 C5 1.239 . S
C159 C135 1.231 . S
C168 C148 1.205 . S
C170 C13 1.228 . S
C179 C31 1.200 . S
C181 C78 1.230 . S
C190 C44 1.231 . S
C192 C96 1.227 . S
C201 C52 1.237 . S
C203 C109 1.207 . S
C212 C117 1.236 . S
C214 C70 1.213 1_554 S
C223 C8 1.525 . S
C225 C112 1.520 . S
C234 C23 1.570 . S
C236 C127 1.570 . S
C245 C138 1.518 . S
C247 C34 1.523 . S
C256 C47 1.519 . S
C258 C151 1.524 . S
C267 C62 1.569 . S
C269 C88 1.569 . S
C278 C73 1.516 . S
C280 C99 1.524 1_556 S
C289 C140 1.249 . S
C291 C10 1.248 . S
C300 C21 1.210 . S
C302 C153 1.228 . S
C311 C36 1.226 . S
C313 C86 1.216 . S
C322 C49 1.246 . S
C324 C101 1.246 . S
C333 C114 1.226 . S
C335 C60 1.216 . S
C344 C75 1.228 . S
C346 C125 1.211 . S
C355 C0 1.436 . S
C357 C143 1.427 . S
C366 C83 1.427 . S
C368 C18 1.435 . S
C377 C91 1.424 . S
C379 C26 1.436 . S
C388 C104 1.434 . S
C390 C39 1.428 . S
C399 C122 1.430 . S
C401 C57 1.435 . S
C410 C130 1.434 . S
C412 C65 1.428 . S
