# Generated by pormake.
# Topology rkf, (6)-cn, num edge types: 1
# Building blocks:
#     Node 0, Type 0, BuildingBlock: PAMTOO_clean_sbu_0, # of connection points: 6
#     Node 1, Type 0, BuildingBlock: PAMTOO_clean_sbu_0, # of connection points: 6
#     Node 2, Type 0, BuildingBlock: PAMTOO_clean_sbu_0, # of connection points: 6
#     Node 3, Type 0, BuildingBlock: PAMTOO_clean_sbu_0, # of connection points: 6
#     Node 4, Type 0, BuildingBlock: PAMTOO_clean_sbu_0, # of connection points: 6
#     Node 5, Type 0, BuildingBlock: PAMTOO_clean_sbu_0, # of connection points: 6
#     Edge 6, Type (0, 0), BuildingBlock: TEMPAE_clean_linker_10, # of connection points: 2
#     Edge 7, Type (0, 0), BuildingBlock: TEMPAE_clean_linker_10, # of connection points: 2
#     Edge 8, Type (0, 0), BuildingBlock: TEMPAE_clean_linker_10, # of connection points: 2
#     Edge 9, Type (0, 0), BuildingBlock: TEMPAE_clean_linker_10, # of connection points: 2
#     Edge 10, Type (0, 0), BuildingBlock: TEMPAE_clean_linker_10, # of connection points: 2
#     Edge 11, Type (0, 0), BuildingBlock: TEMPAE_clean_linker_10, # of connection points: 2
#     Edge 12, Type (0, 0), BuildingBlock: TEMPAE_clean_linker_10, # of connection points: 2
#     Edge 13, Type (0, 0), BuildingBlock: TEMPAE_clean_linker_10, # of connection points: 2
#     Edge 14, Type (0, 0), BuildingBlock: TEMPAE_clean_linker_10, # of connection points: 2
#     Edge 15, Type (0, 0), BuildingBlock: TEMPAE_clean_linker_10, # of connection points: 2
#     Edge 16, Type (0, 0), BuildingBlock: TEMPAE_clean_linker_10, # of connection points: 2
#     Edge 17, Type (0, 0), BuildingBlock: TEMPAE_clean_linker_10, # of connection points: 2
#     Edge 18, Type (0, 0), BuildingBlock: TEMPAE_clean_linker_10, # of connection points: 2
#     Edge 19, Type (0, 0), BuildingBlock: TEMPAE_clean_linker_10, # of connection points: 2
#     Edge 20, Type (0, 0), BuildingBlock: TEMPAE_clean_linker_10, # of connection points: 2
#     Edge 21, Type (0, 0), BuildingBlock: TEMPAE_clean_linker_10, # of connection points: 2
#     Edge 22, Type (0, 0), BuildingBlock: TEMPAE_clean_linker_10, # of connection points: 2
#     Edge 23, Type (0, 0), BuildingBlock: TEMPAE_clean_linker_10, # of connection points: 2
# Relax obj value: 0.797
# Max RMSD: 0.267
# Mean RMSD: 0.267
data_MOF--net-rkf--node1-PAMTOO_clean_sbu_0--edge1-TEMPAE_clean_linker_10
_symmetry_space_group_name_H-M    P1
_symmetry_Int_Tables_number       1
_symmetry_cell_setting            triclinic
loop_
_symmetry_equiv_pos_as_xyz
'x, y, z'
_cell_length_a     25.950918
_cell_length_b     26.319108
_cell_length_c     45.276013
_cell_angle_alpha  89.425088
_cell_angle_beta   90.594384
_cell_angle_gamma 120.5148
loop_
_atom_site_label
_atom_site_type_symbol
_atom_site_fract_x
_atom_site_fract_y
_atom_site_fract_z
_atom_type_partial_charge
Dy0 Dy 0.19393 0.93258 0.14041 0.0
Dy1 Dy 0.16407 0.03403 1.12528 0.0
C2 C 0.06701 0.90884 0.15109 0.0
O3 O 0.14268 0.90149 1.0957 0.0
O4 O 0.14496 -0.01369 1.08139 0.0
O5 O 0.17205 0.84175 0.14189 0.0
O6 O 0.26092 0.91158 0.15428 0.0
O7 O 0.26379 0.07632 0.13058 0.0
O8 O 0.26448 -0.00131 1.11089 0.0
O9 O 0.16732 0.03835 0.1752 0.0
O10 O 0.21739 -0.01149 0.18364 0.0
O11 O 0.12218 0.08552 0.13455 0.0
O12 O 0.17256 0.09989 1.09424 0.0
C13 C 0.1319 0.93202 1.07539 0.0
O14 O 0.10986 0.90502 0.16405 0.0
O15 O 0.07851 0.94803 0.13013 0.0
C16 C 0.21876 0.82141 0.1812 0.0
C17 C 0.18805 0.75729 0.23468 0.0
C18 C 0.1697 0.7276 0.20755 0.0
C19 C 0.18509 0.75948 0.18099 0.0
C20 C 0.24151 0.85066 0.20813 0.0
C21 C 0.22652 0.81888 0.23457 0.0
C22 C 0.22313 0.85475 0.15401 0.0
C23 C 0.29343 0.05418 1.11828 0.0
C24 C 0.19646 0.02236 0.19353 0.0
C25 C 0.16793 0.18104 1.11244 0.0
C26 C 0.21068 0.29985 1.0979 0.0
C27 C 0.25096 0.27969 1.10275 0.0
C28 C 0.2297 0.22057 1.10997 0.0
C29 C 0.12851 0.20264 1.11122 0.0
C30 C 0.14974 0.26176 1.10412 0.0
C31 C 0.14314 0.11705 1.11058 0.0
H32 H 0.14022 0.68018 0.20697 0.0
H33 H 0.16743 0.736 0.16043 0.0
H34 H 0.2676 0.89836 0.20906 0.0
H35 H 0.24073 0.84333 0.25505 0.0
H36 H 0.29811 0.30786 1.09801 0.0
H37 H 0.26097 0.2048 1.11109 0.0
H38 H 0.08073 0.17283 1.11329 0.0
H39 H 0.11783 0.27635 1.10089 0.0
Dy40 Dy 0.25562 0.2832 0.46055 0.0
Dy41 Dy 0.28247 0.18207 0.47888 0.0
C42 C 0.15109 0.16163 0.48072 0.0
O43 O 0.23767 0.27694 0.5102 0.0
O44 O 0.27286 0.21593 0.52466 0.0
O45 O 0.20954 0.3317 0.46181 0.0
O46 O 0.29221 0.36648 0.43708 0.0
O47 O 0.3612 0.25981 0.45728 0.0
O48 O 0.34343 0.32009 0.48295 0.0
O49 O 0.24642 0.15398 0.43229 0.0
O50 O 0.26226 0.24326 0.41592 0.0
O51 O 0.3534 0.16938 0.49457 0.0
O52 O 0.26848 0.09367 0.48119 0.0
C53 C 0.24968 0.24952 0.53156 0.0
O54 O 0.16711 0.20246 0.46039 0.0
O55 O 0.18899 0.14895 0.49326 0.0
C56 C 0.22327 0.39556 0.42164 0.0
C57 C 0.17578 0.44172 0.38024 0.0
C58 C 0.14123 0.38318 0.39047 0.0
C59 C 0.16482 0.36021 0.41085 0.0
C60 C 0.2578 0.45404 0.41169 0.0
C61 C 0.23431 0.477 0.39112 0.0
C62 C 0.24783 0.37369 0.44453 0.0
C63 C 0.38197 0.31085 0.46988 0.0
C64 C 0.25037 0.18867 0.41009 0.0
C65 C 0.32702 0.07765 0.51708 0.0
C66 C 0.33877 0.01205 0.56352 0.0
C67 C 0.37897 0.07298 0.56103 0.0
C68 C 0.37329 0.10538 0.53804 0.0
C69 C 0.28837 0.01631 0.51877 0.0
C70 C 0.29402 -0.0162 0.54187 0.0
C71 C 0.32159 0.11197 0.49253 0.0
H72 H 0.09566 0.3551 0.38284 0.0
H73 H 0.13714 0.31506 0.41836 0.0
H74 H 0.30294 0.48206 0.41994 0.0
H75 H 0.2622 0.52197 0.38342 0.0
H76 H 0.41328 0.09628 0.57761 0.0
H77 H 0.40474 0.15239 0.53704 0.0
H78 H 0.25333 -0.00645 0.50245 0.0
H79 H 0.26262 0.9368 0.54317 0.0
Dy80 Dy 0.14876 0.3371 0.81722 0.0
Dy81 Dy 0.01375 0.25234 0.79547 0.0
C82 C 0.08912 0.20283 0.8299 0.0
O83 O 0.15752 0.32478 0.76707 0.0
O84 O 0.06427 0.24743 0.75575 0.0
O85 O 0.2322 0.3606 0.83901 0.0
O86 O 0.22289 0.42696 0.81503 0.0
O87 O 0.04416 0.34304 0.77842 0.0
O88 O 0.09868 0.38539 0.81921 0.0
O89 O 0.00169 0.26628 0.84425 0.0
O90 O 0.09789 0.30679 0.86176 0.0
O91 O 0.92528 0.24013 0.7927 0.0
O92 O 0.94208 0.17203 0.77693 0.0
C93 C 0.12034 0.28407 0.74796 0.0
O94 O 0.13986 0.24927 0.82266 0.0
O95 O 0.03732 0.19831 0.82418 0.0
C96 C 0.27859 0.4547 0.85937 0.0
C97 C 0.31492 0.50184 0.91631 0.0
C98 C 0.25667 0.48351 0.90611 0.0
C99 C 0.23861 0.45991 0.87791 0.0
C100 C 0.33829 0.47823 0.86825 0.0
C101 C 0.35651 0.50201 0.89652 0.0
C102 C 0.25573 0.41667 0.83333 0.0
C103 C 0.06835 0.38756 0.79654 0.0
C104 C 0.03946 0.28221 0.8669 0.0
C105 C 0.86649 0.18223 0.75329 0.0
C106 C 0.79259 0.16233 0.7039 0.0
C107 C 0.85478 0.18833 0.70044 0.0
C108 C 0.8916 0.19843 0.72504 0.0
C109 C 0.80496 0.15834 0.75693 0.0
C110 C 0.76821 0.14849 0.73242 0.0
C111 C 0.90341 0.18964 0.77927 0.0
H112 H 0.22325 0.48195 0.92083 0.0
H113 H 0.1922 0.44165 0.87144 0.0
H114 H 0.36971 0.47456 0.85414 0.0
H115 H 0.40177 0.51626 0.90369 0.0
H116 H 0.87465 0.19964 0.67868 0.0
H117 H 0.93933 0.21772 0.72199 0.0
H118 H 0.78514 0.14606 0.77868 0.0
H119 H 0.72038 0.12758 0.7357 0.0
Dy120 Dy 0.74599 0.05268 1.12516 0.0
Dy121 Dy 0.84557 0.18138 0.14795 0.0
C122 C 0.86872 0.07261 0.1453 0.0
O123 O 0.75342 0.03786 0.17445 0.0
O124 O 0.80183 0.13306 0.19174 0.0
O125 O 0.70135 0.95775 1.12447 0.0
O126 O 0.66357 0.00383 1.10072 0.0
O127 O 0.76266 0.18507 0.13641 0.0
O128 O 0.69915 0.09056 0.14881 0.0
O129 O 0.87723 0.17864 1.10146 0.0
O130 O 0.78958 0.10451 1.08211 0.0
O131 O 0.88573 0.27526 0.14022 0.0
O132 O 0.91905 0.24323 0.17532 0.0
C133 C 0.77371 0.07503 0.19695 0.0
O134 O 0.82919 0.05025 1.12404 0.0
O135 O 0.8812 0.12171 0.15851 0.0
C136 C 0.63776 0.90869 1.08421 0.0
C137 C 0.59668 0.82063 1.04095 0.0
C138 C 0.63665 0.88002 1.03346 0.0
C139 C 0.65725 0.92381 1.05499 0.0
C140 C 0.59747 0.84984 1.09168 0.0
C141 C 0.57711 0.80609 1.07026 0.0
C142 C 0.6582 0.95294 1.10748 0.0
C143 C 0.70895 0.14334 0.14375 0.0
C144 C 0.84498 0.1495 1.07816 0.0
C145 C 0.9298 0.33772 0.18131 0.0
C146 C 0.96376 0.43369 0.21957 0.0
C147 C 0.97806 0.44341 0.18938 0.0
C148 C 0.96145 0.39577 0.17047 0.0
C149 C 0.91043 0.32761 0.21067 0.0
C150 C 0.92727 0.3751 0.22962 0.0
C151 C 0.92256 0.28933 0.16241 0.0
H152 H 0.65206 0.89259 1.01097 0.0
H153 H 0.68838 0.9692 1.04889 0.0
H154 H 0.58215 0.83762 1.11422 0.0
H155 H 0.5472 0.76071 1.07683 0.0
H156 H 0.00527 0.48775 0.18077 0.0
H157 H 0.97613 0.40437 0.14771 0.0
H158 H 0.88532 0.28314 0.21944 0.0
H159 H 0.91573 0.3654 0.25272 0.0
Dy160 Dy 0.66072 0.83132 0.47156 0.0
Dy161 Dy 0.7921 0.84535 0.46169 0.0
C162 C 0.77378 0.94427 0.49443 0.0
O163 O 0.68067 0.86169 0.42303 0.0
O164 O 0.77901 0.88638 0.4196 0.0
O165 O 0.59556 0.8585 0.465 0.0
O166 O 0.57193 0.77894 0.48961 0.0
O167 O 0.73202 0.75707 0.44188 0.0
O168 O 0.64068 0.74371 0.45538 0.0
O169 O 0.76668 0.80379 0.50716 0.0
O170 O 0.69481 0.82614 0.51876 0.0
O171 O 0.85656 0.81924 0.47155 0.0
O172 O 0.88201 0.89603 0.44409 0.0
C173 C 0.73156 0.88569 0.40804 0.0
O174 O 0.72148 0.92482 0.48234 0.0
O175 O 0.80399 0.91687 0.49211 0.0
C176 C 0.53765 0.84075 0.50734 0.0
C177 C 0.53004 0.90893 0.55271 0.0
C178 C 0.54737 0.86723 0.55903 0.0
C179 C 0.55124 0.83362 0.53661 0.0
C180 C 0.51463 0.87793 0.50137 0.0
C181 C 0.51083 0.91183 0.52391 0.0
C182 C 0.55714 0.81819 0.48284 0.0
C183 C 0.67371 0.72441 0.44394 0.0
C184 C 0.73356 0.80959 0.52717 0.0
C185 C 0.92667 0.83883 0.43433 0.0
C186 C -0.01474 0.79864 0.39761 0.0
C187 C 0.01617 0.85618 0.40905 0.0
C188 C -0.01291 0.876 0.42737 0.0
C189 C 0.89545 0.78154 0.42267 0.0
C190 C 0.92465 0.76151 0.4046 0.0
C191 C 0.89753 0.85945 0.45468 0.0
H192 H 0.56339 0.8642 0.58079 0.0
H193 H 0.5693 0.80549 0.54198 0.0
H194 H 0.50371 0.88392 0.47892 0.0
H195 H 0.49664 0.94305 0.51843 0.0
H196 H 0.06298 0.88563 0.40404 0.0
H197 H 0.01187 0.92023 0.43628 0.0
H198 H 0.84861 0.75216 0.42766 0.0
H199 H 0.89961 0.71733 0.39569 0.0
Dy200 Dy 0.96332 0.82361 0.79382 0.0
Dy201 Dy 0.83562 0.71099 0.8122 0.0
C202 C 0.86358 0.83809 0.82529 0.0
O203 O 0.97411 0.82164 0.8434 0.0
O204 O 0.88805 0.73699 0.85712 0.0
O205 O 0.02498 0.88473 0.76166 0.0
O206 O 0.04708 0.8984 0.80801 0.0
O207 O 0.88491 0.6713 0.79223 0.0
O208 O -0.01874 0.74907 0.79305 0.0
O209 O 0.82028 0.73908 0.76567 0.0
O210 O 0.91612 0.79825 0.74942 0.0
O211 O 0.78166 0.62288 0.82991 0.0
O212 O 0.73949 0.66755 0.80933 0.0
C213 C 0.94131 0.78369 0.86412 0.0
O214 O 0.89712 0.85267 0.80166 0.0
O215 O 0.84063 0.78538 0.83656 0.0
C216 C 0.12454 0.91847 0.77542 0.0
C217 C 0.23434 0.93324 0.75681 0.0
C218 C 0.18094 0.87884 0.75304 0.0
C219 C 0.12665 0.87148 0.76241 0.0
C220 C 0.17788 0.97058 0.78204 0.0
C221 C 0.23259 0.97771 0.7731 0.0
C222 C 0.06673 0.91349 0.78125 0.0
C223 C 0.94264 0.69254 0.79048 0.0
C224 C 0.85809 0.76967 0.74404 0.0
C225 C 0.68654 0.60065 0.84739 0.0
C226 C 0.60063 0.57721 0.8909 0.0
C227 C 0.66101 0.59971 0.89875 0.0
C228 C 0.7037 0.61167 0.87716 0.0
C229 C 0.62585 0.57456 0.83967 0.0
C230 C 0.58313 0.56309 0.86126 0.0
C231 C 0.73139 0.62106 0.8239 0.0
H232 H 0.17985 0.84346 0.74054 0.0
H233 H 0.08591 0.83019 0.75787 0.0
H234 H 0.17702 0.00664 0.7929 0.0
H235 H 0.27298 0.01955 0.77713 0.0
H236 H 0.67611 0.6123 0.92132 0.0
H237 H 0.75036 0.63224 0.88358 0.0
H238 H 0.61191 0.56579 0.81674 0.0
H239 H 0.53701 0.54607 0.85464 0.0
C240 C 0.94144 0.04823 0.16711 0.0
C241 C 0.88265 0.0323 0.16089 0.0
C242 C 0.95422 0.00648 0.17893 0.0
C243 C 0.90644 0.94806 0.18487 0.0
C244 C 0.84701 0.93597 0.1836 0.0
C245 C 0.8356 0.97753 0.17051 0.0
C246 C 0.019 0.02398 0.18243 0.0
C247 C 0.795 0.87814 0.19402 0.0
C248 C -7e-05 0.8829 0.19378 0.0
C249 C 0.00689 0.87864 0.16341 0.0
C250 C 0.95409 0.89192 0.20354 0.0
C251 C 0.9182 0.89886 0.18208 0.0
C252 C 0.91491 0.87714 0.15314 0.0
C253 C 0.95991 0.86677 0.14413 0.0
C254 C 0.95081 0.90352 0.23578 0.0
C255 C 0.8722 0.87639 0.12999 0.0
H256 H 0.97736 0.09185 0.16095 0.0
H257 H 0.78964 0.96623 0.1671 0.0
H258 H 0.04967 0.07207 0.17909 0.0
H259 H 0.02727 0.01264 0.20487 0.0
H260 H 0.03024 -7e-05 0.16621 0.0
H261 H 0.77037 0.88704 0.21114 0.0
H262 H 0.76309 0.85595 0.17553 0.0
H263 H 0.80897 0.84797 0.20358 0.0
H264 H 0.03481 0.88861 0.20914 0.0
H265 H 0.96403 0.85977 1.1209 0.0
H266 H 0.91273 0.91014 0.24056 0.0
H267 H -0.00677 0.94277 0.24307 0.0
H268 H 0.94573 0.86553 0.24904 0.0
H269 H 0.87341 0.85462 1.10931 0.0
H270 H 0.88391 0.92221 1.12444 0.0
H271 H 0.82583 0.8524 0.13843 0.0
C272 C 0.82975 0.05087 0.49036 0.0
C273 C 0.80391 0.00141 0.5088 0.0
C274 C 0.88786 0.0967 0.49635 0.0
C275 C 0.91823 0.09128 0.52126 0.0
C276 C 0.88511 0.05084 0.5439 0.0
C277 C 0.8276 0.00462 0.53709 0.0
C278 C 0.92042 0.14319 0.47298 0.0
C279 C 0.91447 0.0487 0.57237 0.0
C280 C 0.04936 0.08286 0.49279 0.0
C281 C 0.09408 0.14145 0.49485 0.0
C282 C -0.00771 0.06487 0.50336 0.0
C283 C 0.98092 0.10682 0.51702 0.0
C284 C 0.02835 0.16494 0.52181 0.0
C285 C 0.08437 0.182 0.50996 0.0
C286 C 0.94368 0.00212 0.49747 0.0
C287 C 0.02037 0.21017 0.53812 0.0
H288 H 0.80984 0.04885 0.46889 0.0
H289 H 0.80595 0.96683 0.55183 0.0
H290 H 0.94987 0.18669 0.48331 0.0
H291 H 0.94888 0.13153 0.4599 0.0
H292 H 0.88881 0.14697 0.45764 0.0
H293 H 0.88117 0.02966 0.59046 0.0
H294 H 0.93411 0.02016 0.56954 0.0
H295 H 0.95091 0.0934 0.57876 0.0
H296 H 0.05819 0.05201 0.48139 0.0
H297 H 0.12024 0.22741 0.51207 0.0
H298 H 0.91179 0.00227 0.48105 0.0
H299 H 0.91923 0.9805 0.518 0.0
H300 H 0.96157 0.97505 0.48849 0.0
H301 H 0.05837 0.23487 0.55368 0.0
H302 H 0.97801 0.19035 0.55072 0.0
H303 H 0.02121 0.24276 0.52209 0.0
C304 C 0.87847 0.93719 0.83196 0.0
C305 C 0.87271 0.88608 0.84459 0.0
C306 C 0.91648 -0.00817 0.8449 0.0
C307 C 0.95185 -0.00562 0.86962 0.0
C308 C 0.93747 0.94232 0.88527 0.0
C309 C 0.8958 0.88809 0.87295 0.0
C310 C 0.92583 0.04676 0.82921 0.0
C311 C 0.97218 0.94303 0.91223 0.0
C312 C 0.09174 0.11225 0.83953 0.0
C313 C 0.08772 0.15927 0.8505 0.0
C314 C 0.05506 0.05576 0.85134 0.0
C315 C 0.01171 0.04742 0.87273 0.0
C316 C 0.01782 0.09645 0.88806 0.0
C317 C 0.05786 0.15258 0.87711 0.0
C318 C 0.05416 0.00432 0.83666 0.0
C319 C 0.97522 0.09085 0.912 0.0
H320 H 0.85885 0.93516 0.81041 0.0
H321 H 0.88889 0.84791 0.88336 0.0
H322 H 0.93309 0.08132 0.8453 0.0
H323 H 0.96585 0.06437 0.81491 0.0
H324 H 0.88689 0.03736 0.81496 0.0
H325 H 0.94543 0.90311 0.92606 0.0
H326 H 0.01319 0.94338 0.90522 0.0
H327 H -0.01387 -0.01707 0.92572 0.0
H328 H 0.11637 0.11779 0.81938 0.0
H329 H 0.05706 0.18986 0.88608 0.0
H330 H 0.02005 -0.01241 0.81873 0.0
H331 H 0.04243 0.96794 0.85269 0.0
H332 H 0.09826 0.01761 0.82674 0.0
H333 H 0.94634 0.10781 0.90365 0.0
H334 H 0.00101 0.11874 0.93103 0.0
H335 H 0.94625 0.04486 0.9198 0.0
C336 C 0.19672 0.34877 1.05408 0.0
C337 C 0.22966 0.35358 1.07968 0.0
C338 C 0.22055 0.39178 1.03189 0.0
C339 C 0.2785 0.44171 1.03563 0.0
C340 C 0.30902 0.45029 1.06289 0.0
C341 C 0.28471 0.40543 1.08447 0.0
C342 C 0.18607 0.38016 1.00319 0.0
C343 C 0.36893 0.5046 1.06877 0.0
C344 C 0.35011 0.47372 0.96137 0.0
C345 C 0.32648 0.50638 0.94862 0.0
C346 C 0.34149 0.45824 0.99132 0.0
C347 C 0.30971 0.47712 1.00901 0.0
C348 C 0.29506 0.51833 0.99741 0.0
C349 C 0.30239 0.53157 0.96707 0.0
C350 C 0.35965 0.41556 1.00294 0.0
C351 C 0.26674 0.54418 1.01635 0.0
H352 H 0.15442 0.30864 1.05006 0.0
H353 H 0.30999 0.40975 1.10445 0.0
H354 H 0.18246 0.41885 0.99655 0.0
H355 H 0.20993 0.37188 0.98536 0.0
H356 H 0.14014 0.34153 1.0048 0.0
H357 H 0.37646 0.54233 1.05457 0.0
H358 H 0.37261 0.51776 1.09228 0.0
H359 H 0.40502 0.49477 1.06463 0.0
H360 H 0.36929 0.45446 0.9474 0.0
H361 H 0.28587 0.55856 0.95751 0.0
H362 H 0.31909 0.3725 1.00798 0.0
H363 H 0.38571 0.43238 1.02369 0.0
H364 H 0.38718 0.40809 0.98687 0.0
H365 H 0.21758 0.51397 1.01674 0.0
H366 H 0.27575 0.5874 1.00744 0.0
H367 H 0.28366 0.55012 1.03943 0.0
C368 C 0.11825 0.4282 0.33387 0.0
C369 C 0.15106 0.46455 0.35744 0.0
C370 C 0.09218 0.44682 0.3125 0.0
C371 C 0.09936 0.50393 0.31448 0.0
C372 C 0.13381 0.54172 0.33784 0.0
C373 C 0.15946 0.52157 0.35906 0.0
C374 C 0.05651 0.40459 0.2879 0.0
C375 C 0.14465 0.60348 0.3405 0.0
C376 C 0.05921 0.51828 0.23863 0.0
C377 C -0.00302 0.48135 0.2416 0.0
C378 C 0.09589 0.53939 0.2638 0.0
C379 C 0.06929 0.52153 0.29189 0.0
C380 C 0.00712 0.49868 0.29456 0.0
C381 C 0.97116 0.47869 0.2691 0.0
C382 C 0.16277 0.57066 0.26028 0.0
C383 C 0.9775 0.48475 0.32433 0.0
H384 H 0.11309 0.3848 0.33203 0.0
H385 H 0.18516 0.55011 0.37719 0.0
H386 H 0.00944 0.39422 0.28854 0.0
H387 H 0.07533 0.42489 0.26613 0.0
H388 H 0.05636 0.36237 0.28952 0.0
H389 H 0.18841 0.63478 0.33038 0.0
H390 H 0.10971 0.60898 0.32918 0.0
H391 H 0.14706 0.61591 0.36406 0.0
H392 H 0.08018 0.52361 0.21737 0.0
H393 H 0.92292 0.45373 0.27137 0.0
H394 H 0.17761 0.53785 0.26144 0.0
H395 H 0.1855 0.60305 0.27826 0.0
H396 H 0.17672 0.5939 0.23865 0.0
H397 H 0.96535 0.43926 0.33091 0.0
H398 H 0.93584 0.48689 0.32348 0.0
H399 H 0.00793 0.51557 0.34145 0.0
C400 C 0.75986 0.11096 0.6557 0.0
C401 C 0.7522 0.14303 0.67795 0.0
C402 C 0.716 0.0821 0.63397 0.0
C403 C 0.66334 0.08572 0.63449 0.0
C404 C 0.65778 0.12225 0.65537 0.0
C405 C 0.70219 0.15014 0.67709 0.0
C406 C 0.72419 0.04414 0.61182 0.0
C407 C 0.60357 0.12911 0.65633 0.0
C408 C 0.5759 0.01534 0.56544 0.0
C409 C 0.54425 0.95603 0.57454 0.0
C410 C 0.60957 0.0603 0.58576 0.0
C411 C 0.6122 0.04512 0.61552 0.0
C412 C 0.57381 -0.01338 0.62544 0.0
C413 C 0.53928 0.94282 0.60482 0.0
C414 C 0.64792 0.12273 0.57469 0.0
C415 C 0.57405 0.96904 0.65726 0.0
H416 H 0.79829 0.10508 0.6564 0.0
H417 H 0.69668 0.17574 0.69407 0.0
H418 H 0.69094 -0.00302 0.61601 0.0
H419 H 0.7165 0.05488 0.58905 0.0
H420 H 0.76965 0.04988 0.61299 0.0
H421 H 0.61574 0.17351 0.66453 0.0
H422 H 0.58178 0.12245 0.63437 0.0
H423 H 0.57079 0.09614 0.67199 0.0
H424 H 0.57967 0.02633 0.54213 0.0
H425 H 0.51304 0.8973 0.61209 0.0
H426 H 0.69435 0.13221 0.57156 0.0
H427 H 0.64944 0.15474 0.59096 0.0
H428 H 0.63123 0.12966 0.55321 0.0
H429 H 0.6162 0.96924 0.66204 0.0
H430 H 0.53581 0.92428 0.6622 0.0
H431 H 0.57222 0.00109 0.6723 0.0
C432 C 0.61996 0.77476 0.99923 0.0
C433 C 0.57783 0.77347 1.01872 0.0
C434 C 0.6041 0.72929 0.97901 0.0
C435 C 0.54453 0.68085 0.97841 0.0
C436 C 0.50167 0.67933 0.99797 0.0
C437 C 0.51873 0.72598 1.01776 0.0
C438 C 0.65164 0.73288 0.9586 0.0
C439 C 0.43783 0.62923 0.99787 0.0
C440 C 0.53301 0.61343 0.90534 0.0
C441 C 0.56023 0.58055 0.91259 0.0
C442 C 0.51714 0.63949 0.92757 0.0
C443 C 0.52927 0.63234 0.95734 0.0
C444 C 0.54509 0.58965 0.96473 0.0
C445 C 0.56106 0.56444 0.9421 0.0
C446 C 0.49688 0.68206 0.91887 0.0
C447 C 0.55431 0.57766 0.9964 0.0
H448 H 0.66593 0.81078 1.00025 0.0
H449 H 0.48573 0.72525 1.03253 0.0
H450 H 0.65833 0.69499 0.96273 0.0
H451 H 0.63729 0.73062 0.93524 0.0
H452 H 0.69534 0.77422 0.96155 0.0
H453 H 0.41454 0.62732 1.01865 0.0
H454 H 0.41358 0.6358 0.97932 0.0
H455 H 0.43531 0.58633 0.99467 0.0
H456 H 0.53101 0.62505 0.88249 0.0
H457 H 0.58024 0.5373 0.94767 0.0
H458 H 0.53601 0.72762 0.91895 0.0
H459 H 0.4638 0.68022 0.93479 0.0
H460 H 0.47668 0.67266 0.89638 0.0
H461 H 0.59892 0.61304 1.0041 0.0
H462 H 0.55251 0.53473 0.99875 0.0
H463 H 0.52005 0.57752 1.01091 0.0
C464 C 0.04886 0.81407 0.35384 0.0
C465 C 0.0155 0.77821 0.37748 0.0
C466 C 0.07577 0.79489 0.33368 0.0
C467 C 0.06971 0.73848 0.33743 0.0
C468 C 0.03688 0.70236 0.3616 0.0
C469 C 0.00996 0.72268 0.38134 0.0
C470 C 0.10977 0.83481 0.308 0.0
C471 C 0.03081 0.6429 0.36696 0.0
C472 C 0.09447 0.69651 0.26283 0.0
C473 C 0.15721 0.72797 0.26252 0.0
C474 C 0.06348 0.69138 0.28888 0.0
C475 C 0.09632 0.71796 0.31498 0.0
C476 C 0.15848 0.73919 0.31588 0.0
C477 C 0.18851 0.74426 0.28946 0.0
C478 C -0.00328 0.66599 0.28719 0.0
C479 C 0.19439 0.76385 0.34385 0.0
H480 H 0.05266 0.85675 0.35067 0.0
H481 H -0.01517 0.69527 0.39993 0.0
H482 H 0.1571 0.84589 0.3088 0.0
H483 H 0.09026 0.8119 0.28681 0.0
H484 H 0.10904 0.87666 0.30804 0.0
H485 H 0.07293 0.64938 0.37693 0.0
H486 H -0.00636 0.6153 0.38233 0.0
H487 H 0.02318 0.61852 0.34603 0.0
H488 H 0.06971 0.68269 0.2422 0.0
H489 H 0.23696 0.76667 0.28945 0.0
H490 H -0.01263 0.70258 0.28485 0.0
H491 H 0.97451 0.64108 0.30758 0.0
H492 H 0.9767 0.63626 0.26792 0.0
H493 H 0.16898 0.73739 0.36333 0.0
H494 H 0.204 0.80964 0.34697 0.0
H495 H 0.23766 0.76486 0.34289 0.0
C496 C 0.31406 0.00129 0.72234 0.0
C497 C 0.28627 0.94736 0.73769 0.0
C498 C 0.34144 0.0066 0.69517 0.0
C499 C 0.34073 0.95671 0.68327 0.0
C500 C 0.32416 0.90678 0.70136 0.0
C501 C 0.29706 0.90266 0.72865 0.0
C502 C 0.36181 0.06228 0.67723 0.0
C503 C 0.32739 0.85463 0.69037 0.0
C504 C 0.28465 0.94697 0.60604 0.0
C505 C 0.33854 0.98091 0.59097 0.0
C506 C 0.2845 0.93203 0.63577 0.0
C507 C 0.33974 0.95169 0.65067 0.0
C508 C 0.39357 0.97893 0.63452 0.0
C509 C 0.39242 -0.00674 0.60467 0.0
C510 C 0.22558 0.90176 0.65198 0.0
C511 C 0.45255 -0.00325 0.64929 0.0
H512 H 0.30768 0.03697 0.72927 0.0
H513 H 0.27859 0.8619 0.74122 0.0
H514 H 0.40484 0.07584 0.66616 0.0
H515 H 0.32803 0.05406 0.65982 0.0
H516 H 0.36751 0.09942 0.69108 0.0
H517 H 0.33152 0.82921 0.70905 0.0
H518 H 0.28575 0.82477 0.67803 0.0
H519 H 0.3657 0.86874 0.67523 0.0
H520 H 0.24282 0.93697 0.59555 0.0
H521 H 0.43402 0.01771 0.59265 0.0
H522 H 0.22326 0.9336 0.66701 0.0
H523 H 0.2216 0.86477 0.66565 0.0
H524 H 0.18665 0.88417 0.63664 0.0
H525 H 0.49062 0.02263 0.6342 0.0
H526 H 0.45299 0.95659 0.6565 0.0
H527 H 0.4589 0.02331 0.66931 0.0
C528 C 0.38947 0.06419 1.10146 0.0
C529 C 0.35989 0.08665 1.11781 0.0
C530 C 0.45106 0.08641 1.10497 0.0
C531 C 0.48422 0.13225 1.12545 0.0
C532 C 0.4556 0.15825 0.14034 0.0
C533 C 0.39369 0.13518 0.13631 0.0
C534 C 0.47959 0.0576 1.08836 0.0
C535 C 0.48927 0.20751 0.16213 0.0
C536 C 0.60673 0.11392 0.16063 0.0
C537 C 0.65657 0.15171 0.14344 0.0
C538 C 0.55152 0.1106 0.15644 0.0
C539 C 0.54556 0.14572 0.13431 0.0
C540 C 0.5969 0.18739 1.11843 0.0
C541 C 0.65204 0.19003 1.12324 0.0
C542 C 0.49845 0.06605 0.17421 0.0
C543 C 0.59271 0.22611 1.09491 0.0
H544 H 0.36389 0.02717 1.08684 0.0
H545 H 0.37128 0.15292 0.14901 0.0
H546 H 0.52193 0.09149 1.078 0.0
H547 H 0.4907 0.03179 1.10402 0.0
H548 H 0.44965 0.0274 1.07089 0.0
H549 H 0.46445 0.23042 0.16735 0.0
H550 H 0.49617 0.18911 0.18295 0.0
H551 H 0.53403 0.24028 0.15351 0.0
H552 H 0.61016 0.08465 0.17652 0.0
H553 H 0.69036 0.2192 1.10983 0.0
H554 H 0.46674 0.02974 0.15958 0.0
H555 H 0.47422 0.08673 0.1836 0.0
H556 H 0.51177 0.0467 0.19258 0.0
H557 H 0.57122 0.19945 1.07487 0.0
H558 H 0.63751 0.26333 1.08872 0.0
H559 H 0.56459 0.24411 1.1024 0.0
C560 C 0.46789 0.40708 0.48447 0.0
C561 C 0.44135 0.36221 0.46346 0.0
C562 C 0.51584 0.4628 0.47704 0.0
C563 C 0.53729 0.47421 0.44766 0.0
C564 C 0.51419 0.42743 0.42701 0.0
C565 C 0.46632 0.3716 0.43522 0.0
C566 C 0.53964 0.51089 0.5 0.0
C567 C 0.53627 0.43746 0.39562 0.0
C568 C 0.58208 0.63115 0.42956 0.0
C569 C 0.64325 0.66101 0.43649 0.0
C570 C 0.54803 0.56943 0.4301 0.0
C571 C 0.57578 0.53671 0.43802 0.0
C572 C 0.63866 0.56638 0.44198 0.0
C573 C 0.67186 0.62845 0.44109 0.0
C574 C 0.48127 0.53972 0.42511 0.0
C575 C 0.67013 0.53315 0.44992 0.0
H576 H 0.44877 0.39956 0.5064 0.0
H577 H 0.44561 0.33693 0.41888 0.0
H578 H 0.58924 0.53527 0.50036 0.0
H579 H 0.52521 0.54295 0.49436 0.0
H580 H 0.52329 0.49321 0.52251 0.0
H581 H 0.52522 0.39539 0.38479 0.0
H582 H 0.51459 0.45774 0.38279 0.0
H583 H 0.58533 0.46809 0.3947 0.0
H584 H 0.55996 0.65617 0.4255 0.0
H585 H 0.71923 0.65131 0.44637 0.0
H586 H 0.45791 0.52332 0.44653 0.0
H587 H 0.46557 0.50118 0.41034 0.0
H588 H 0.46801 0.57028 0.41527 0.0
H589 H 0.66432 0.52222 0.47384 0.0
H590 H 0.71883 0.55981 0.44534 0.0
H591 H 0.65081 0.4911 0.43759 0.0
C592 C 0.06843 0.47607 0.81638 0.0
C593 C 0.05719 0.43729 0.79292 0.0
C594 C 0.05383 0.5206 0.81418 0.0
C595 C 0.0283 0.52729 0.78768 0.0
C596 C 0.01933 0.48995 0.76345 0.0
C597 C 0.03332 0.44504 0.76645 0.0
C598 C 0.06329 0.55877 0.84072 0.0
C599 C -0.00672 0.49629 0.73464 0.0
C600 C 0.92607 0.59059 0.79469 0.0
C601 C 0.96425 0.65027 0.78749 0.0
C602 C 0.94631 0.55028 0.79451 0.0
C603 C 0.00603 0.56961 0.78636 0.0
C604 C 0.04439 0.6294 0.77814 0.0
C605 C 0.02326 0.66921 0.77912 0.0
C606 C 0.90412 0.48724 0.80393 0.0
C607 C 0.10795 0.65145 0.7687 0.0
H608 H 0.08685 0.47043 0.83692 0.0
H609 H 0.02502 0.41562 0.74812 0.0
H610 H 0.08972 0.60609 0.83452 0.0
H611 H 0.01938 0.55026 0.84885 0.0
H612 H 0.08672 0.55029 0.85908 0.0
H613 H -0.00485 0.46827 0.71698 0.0
H614 H 0.94589 0.48356 0.73787 0.0
H615 H 0.01763 0.54294 0.72709 0.0
H616 H 0.88056 0.5755 0.80145 0.0
H617 H 0.05301 0.71516 0.77343 0.0
H618 H 0.92255 0.47639 0.82364 0.0
H619 H 0.89959 0.45658 0.78612 0.0
H620 H 0.85889 0.47912 0.80937 0.0
H621 H 0.13391 0.64807 0.78746 0.0
H622 H 0.1307 0.69805 0.761 0.0
H623 H 0.10867 0.62362 0.75065 0.0
C624 C 0.25186 0.05086 0.24463 0.0
C625 C 0.20478 0.04405 0.22594 0.0
C626 C 0.26063 0.07474 0.27394 0.0
C627 C 0.2207 0.09138 0.2862 0.0
C628 C 0.17229 0.08299 0.26763 0.0
C629 C 0.16573 0.06089 0.23823 0.0
C630 C 0.31376 0.08314 0.29173 0.0
C631 C 0.12652 0.09713 0.27888 0.0
C632 C 0.21215 0.10335 0.37245 0.0
C633 C 0.24207 0.16474 0.3781 0.0
C634 C 0.20459 0.07945 0.34334 0.0
C635 C 0.22888 0.11691 0.31809 0.0
C636 C 0.25971 0.17897 0.32364 0.0
C637 C 0.26514 0.20173 0.35297 0.0
C638 C 0.16963 0.01336 0.33965 0.0
C639 C 0.28797 0.2219 0.2984 0.0
H640 H 0.28313 0.03896 0.23607 0.0
H641 H 0.12891 0.05628 0.22475 0.0
H642 H 0.3411 0.12982 0.29876 0.0
H643 H 0.29836 0.05567 0.31205 0.0
H644 H 0.34252 0.07116 0.27911 0.0
H645 H 0.08931 0.08483 0.26289 0.0
H646 H 0.10755 0.07344 0.30001 0.0
H647 H 0.14817 0.14501 0.28342 0.0
H648 H 0.19355 0.07326 0.39102 0.0
H649 H 0.28885 0.24902 0.35625 0.0
H650 H 0.19885 -0.00189 0.33043 0.0
H651 H 0.13233 0.00079 0.32371 0.0
H652 H 0.15084 -0.01025 0.36084 0.0
H653 H 0.31321 0.2684 0.30597 0.0
H654 H 0.25294 0.21699 0.28251 0.0
H655 H 0.31888 0.21208 0.28631 0.0
C656 C 0.20698 0.28918 0.5708 0.0
C657 C 0.23349 0.25515 0.56391 0.0
C658 C 0.18983 0.29418 0.60015 0.0
C659 C 0.19845 0.26447 0.62455 0.0
C660 C 0.22509 0.22989 0.61781 0.0
C661 C 0.24199 0.22573 0.58815 0.0
C662 C 0.16184 0.33151 0.60498 0.0
C663 C 0.23541 0.19646 0.64211 0.0
C664 C 0.19966 0.31809 0.70593 0.0
C665 C 0.14126 0.27914 0.71653 0.0
C666 C 0.21857 0.31375 0.67678 0.0
C667 C 0.17903 0.26908 0.65661 0.0
C668 C 0.12016 0.22953 0.66724 0.0
C669 C 0.10236 0.23499 0.6964 0.0
C670 C 0.28148 0.35779 0.66743 0.0
C671 C 0.07526 0.18085 0.64761 0.0
H672 H 0.19906 0.3122 0.55297 0.0
H673 H 0.2617 0.19877 0.58398 0.0
H674 H 0.11598 0.30375 0.61379 0.0
H675 H 0.18806 0.36595 0.62165 0.0
H676 H 0.15925 0.35327 0.58432 0.0
H677 H 0.25667 0.17184 0.63393 0.0
H678 H 0.26439 0.22745 0.65954 0.0
H679 H 0.19218 0.16475 0.65257 0.0
H680 H 0.23105 0.35267 0.72047 0.0
H681 H 0.05714 0.20407 0.70344 0.0
H682 H 0.28035 0.38264 0.64773 0.0
H683 H 0.30516 0.33443 0.66101 0.0
H684 H 0.30747 0.38966 0.6852 0.0
H685 H 0.0317 0.15285 0.65875 0.0
H686 H 0.09312 0.15247 0.64063 0.0
H687 H 0.06747 0.19995 0.62727 0.0
C688 C 0.95489 0.25529 0.90472 0.0
C689 C 0.01362 0.26768 0.89873 0.0
C690 C 0.92817 0.23785 0.93336 0.0
C691 C 0.95861 0.22888 0.95749 0.0
C692 C 0.01785 0.241 0.9516 0.0
C693 C 0.04477 0.26159 0.9231 0.0
C694 C 0.8667 0.22917 0.93779 0.0
C695 C 0.05214 0.22907 0.97501 0.0
C696 C 0.91373 0.22894 1.04032 0.0
C697 C 0.87259 0.16904 1.04695 0.0
C698 C 0.94048 0.24859 1.0118 0.0
C699 C 0.92892 0.20784 0.98853 0.0
C700 C 0.8883 0.14706 0.99528 0.0
C701 C 0.86025 0.12885 1.0237 0.0
C702 C 0.98114 0.31381 1.00653 0.0
C703 C 0.87619 0.10036 0.9728 0.0
H704 H 0.92938 0.25972 0.88682 0.0
H705 H 0.08981 0.27036 0.91961 0.0
H706 H 0.83433 0.18208 0.94258 0.0
H707 H 0.86704 0.25503 0.9571 0.0
H708 H 0.85065 0.24276 0.9181 0.0
H709 H 0.10001 0.24835 0.96918 0.0
H710 H 0.04916 0.24645 0.99672 0.0
H711 H 0.03192 0.18068 0.97767 0.0
H712 H 0.92442 0.26124 1.0575 0.0
H713 H 0.82979 0.0824 1.028 0.0
H714 H 0.96603 0.32783 0.98666 0.0
H715 H 0.02729 0.32352 1.00225 0.0
H716 H -0.01758 0.34057 1.02565 0.0
H717 H 0.86514 0.11183 0.95094 0.0
H718 H 0.83915 0.05619 0.97958 0.0
H719 H 0.91725 0.09779 0.97005 0.0
C720 C 0.73917 -0.01247 0.23324 0.0
C721 C 0.76597 0.04912 0.22858 0.0
C722 C 0.73287 0.96162 0.26188 0.0
C723 C 0.75379 -0.00289 0.28774 0.0
C724 C 0.78063 0.05934 0.28331 0.0
C725 C 0.78645 0.08423 0.25428 0.0
C726 C 0.70441 0.89556 0.2643 0.0
C727 C 0.80366 0.10013 0.30945 0.0
C728 C 0.691 0.92226 0.36505 0.0
C729 C 0.73658 0.91375 0.37714 0.0
C730 C 0.69621 0.94947 0.33675 0.0
C731 C 0.74818 0.96916 0.31894 0.0
C732 C 0.79412 0.96034 0.33095 0.0
C733 C 0.78805 0.93362 0.35942 0.0
C734 C 0.64548 0.95707 0.3258 0.0
C735 C 0.85019 0.97892 0.31351 0.0
H736 H 0.72316 0.95879 0.21421 0.0
H737 H 0.80751 0.13162 0.25177 0.0
H738 H 0.73895 0.88451 0.27076 0.0
H739 H 0.66968 0.87772 0.28169 0.0
H740 H 0.68357 0.87308 0.24316 0.0
H741 H 0.82196 0.147 0.30298 0.0
H742 H 0.76711 0.08747 0.32557 0.0
H743 H 0.83933 0.09589 0.32088 0.0
H744 H 0.65088 0.90796 0.37788 0.0
H745 H 0.82413 0.92799 0.36775 0.0
H746 H 0.62718 0.93248 0.30489 0.0
H747 H 0.66216 0.0043 0.32089 0.0
H748 H 0.60866 0.94122 0.34208 0.0
H749 H 0.83851 0.95507 0.29217 0.0
H750 H 0.88233 0.97004 0.32556 0.0
H751 H 0.87259 0.02673 0.3083 0.0
C752 C 0.73347 0.82801 0.58359 0.0
C753 C 0.74432 0.80016 0.55991 0.0
C754 C 0.74936 0.8233 0.61358 0.0
C755 C 0.77601 0.78875 0.62109 0.0
C756 C 0.78551 0.75946 0.59729 0.0
C757 C 0.77056 0.76602 0.56757 0.0
C758 C 0.73899 0.85692 0.63724 0.0
C759 C 0.81233 0.72116 0.60315 0.0
C760 C 0.87439 0.8175 0.69229 0.0
C761 C 0.83573 0.77424 0.71281 0.0
C762 C 0.85542 0.82343 0.66332 0.0
C763 C 0.79585 0.78464 0.65322 0.0
C764 C 0.7565 0.74072 0.67376 0.0
C765 C 0.77637 0.73649 0.70293 0.0
C766 C 0.89977 0.87185 0.64335 0.0
C767 C 0.69305 0.69717 0.66475 0.0
H768 H 0.71426 0.85531 0.57861 0.0
H769 H 0.77972 0.74398 0.55007 0.0
H770 H 0.71061 0.82628 0.65493 0.0
H771 H 0.78236 0.8892 0.64754 0.0
H772 H 0.71717 0.88097 0.62845 0.0
H773 H 0.85867 0.74854 0.61168 0.0
H774 H 0.78628 0.68774 0.62037 0.0
H775 H 0.81349 0.69805 0.58299 0.0
H776 H 0.92018 0.8477 0.69898 0.0
H777 H 0.74526 0.70268 0.71791 0.0
H778 H 0.88124 0.89938 0.63537 0.0
H779 H 0.90804 0.85235 0.62364 0.0
H780 H 0.94321 0.90076 0.6546 0.0
H781 H 0.66962 0.72091 0.65804 0.0
H782 H 0.66746 0.6657 0.6828 0.0
H783 H 0.69305 0.67182 0.6453 0.0
C784 C 0.93069 0.77743 0.92181 0.0
C785 C 0.96647 0.79801 0.89618 0.0
C786 C 0.95509 0.79608 0.95106 0.0
C787 C 0.01768 0.83593 0.95587 0.0
C788 C 0.05387 0.85557 0.93007 0.0
C789 C 0.02831 0.83727 0.90123 0.0
C790 C 0.91317 0.77418 0.97697 0.0
C791 C 0.12042 0.8971 0.93281 0.0
C792 C 0.08101 0.93484 1.02668 0.0
C793 C 0.10223 0.90552 1.0451 0.0
C794 C 0.05295 0.91248 0.99867 0.0
C795 C 0.04525 0.85871 0.98726 0.0
C796 C 0.06656 0.82866 1.0057 0.0
C797 C 0.09385 0.85172 1.03402 0.0
C798 C 0.03131 0.94709 0.98121 0.0
C799 C 0.06127 0.77201 0.99528 0.0
H800 H 0.88298 0.74803 0.91901 0.0
H801 H 0.05756 0.85439 0.88227 0.0
H802 H 0.92812 0.75283 0.99346 0.0
H803 H 0.91406 0.81207 0.98803 0.0
H804 H 0.86638 0.74219 0.97029 0.0
H805 H 0.12937 0.93994 0.94174 0.0
H806 H 0.14002 0.87885 0.94857 0.0
H807 H 0.14358 0.9053 0.91128 0.0
H808 H 0.08592 0.97598 1.03429 0.0
H809 H 0.10935 0.82766 1.04736 0.0
H810 H -0.01729 0.91893 0.97672 0.0
H811 H 0.05469 0.9606 0.95972 0.0
H812 H 0.03907 -0.01271 0.99292 0.0
H813 H 0.01372 0.73902 0.99065 0.0
H814 H 0.07905 0.75314 1.01175 0.0
H815 H 0.08606 0.78 0.9743 0.0
loop_
_geom_bond_atom_site_label_1
_geom_bond_atom_site_label_2
_geom_bond_distance
_geom_bond_site_symmetry_2
_ccdc_geom_bond_type
Dy0 O3 2.307 1_554 S
Dy0 O5 2.395 . S
Dy0 O6 2.379 . S
Dy0 O8 2.339 . S
Dy0 O10 2.298 1_565 S
Dy0 O14 2.275 . S
Dy0 C22 2.738 . S
Dy1 O4 2.314 . S
Dy1 O7 2.266 1_556 S
Dy1 O9 2.279 1_556 S
Dy1 O11 2.418 . S
Dy1 O12 2.403 . S
Dy1 O15 2.335 1_556 S
Dy1 C31 2.765 . S
C2 O14 1.254 1_545 S
C2 O15 1.257 . S
O3 Dy0 2.307 1_556 S
O3 C13 1.266 . S
O4 Dy1 2.314 . S
O4 C13 1.236 1_545 S
O5 Dy0 2.395 . S
O5 C22 1.255 . S
O6 Dy0 2.379 . S
O6 C22 1.249 . S
O7 Dy1 2.266 1_554 S
O7 C23 1.254 . S
O8 Dy0 2.339 . S
O8 C23 1.257 1_565 S
O9 Dy1 2.279 1_554 S
O9 C24 1.266 . S
O10 Dy0 2.298 1_545 S
O10 C24 1.236 . S
O11 Dy1 2.418 . S
O11 C31 1.255 . S
O12 Dy1 2.403 . S
O12 C31 1.249 . S
C13 O3 1.266 . S
C13 O4 1.236 1_565 S
O14 Dy0 2.275 . S
O14 C2 1.254 1_565 S
O15 Dy1 2.335 1_554 S
O15 C2 1.257 . S
C16 C19 1.344 . S
C16 C20 1.328 . S
C16 C22 1.516 . S
C17 C18 1.304 . S
C17 C21 1.323 . S
C18 C17 1.304 . S
C18 C19 1.371 . S
C18 H32 0.930 . S
C19 C16 1.344 . S
C19 C18 1.371 . S
C19 H33 0.931 . S
C20 C16 1.328 . S
C20 C21 1.433 . S
C20 H34 0.931 . S
C21 C17 1.323 . S
C21 C20 1.433 . S
C21 H35 0.933 . S
C22 Dy0 2.738 . S
C22 O5 1.255 . S
C22 O6 1.249 . S
C22 C16 1.516 . S
C23 O7 1.254 . S
C23 O8 1.257 1_545 S
C24 O9 1.266 . S
C24 O10 1.236 . S
C25 C28 1.344 . S
C25 C29 1.328 . S
C25 C31 1.516 . S
C26 C27 1.304 . S
C26 C30 1.323 . S
C27 C26 1.304 . S
C27 C28 1.371 . S
C27 H36 0.930 . S
C28 C25 1.344 . S
C28 C27 1.371 . S
C28 H37 0.931 . S
C29 C25 1.328 . S
C29 C30 1.433 . S
C29 H38 0.931 . S
C30 C26 1.323 . S
C30 C29 1.433 . S
C30 H39 0.933 . S
C31 Dy1 2.765 . S
C31 O11 1.255 . S
C31 O12 1.249 . S
C31 C25 1.516 . S
H32 C18 0.930 . S
H33 C19 0.931 . S
H34 C20 0.931 . S
H35 C21 0.933 . S
H36 C27 0.930 . S
H37 C28 0.931 . S
H38 C29 0.931 . S
H39 C30 0.933 . S
Dy40 O43 2.307 . S
Dy40 O45 2.395 . S
Dy40 O46 2.379 . S
Dy40 O48 2.339 . S
Dy40 O50 2.298 . S
Dy40 O54 2.275 . S
Dy40 C62 2.738 . S
Dy41 O44 2.298 . S
Dy41 O47 2.275 . S
Dy41 O49 2.307 . S
Dy41 O51 2.395 . S
Dy41 O52 2.379 . S
Dy41 O55 2.339 . S
Dy41 C71 2.738 . S
C42 O54 1.254 . S
C42 O55 1.257 . S
O43 Dy40 2.307 . S
O43 C53 1.266 . S
O44 Dy41 2.298 . S
O44 C53 1.236 . S
O45 Dy40 2.395 . S
O45 C62 1.255 . S
O46 Dy40 2.379 . S
O46 C62 1.249 . S
O47 Dy41 2.275 . S
O47 C63 1.254 . S
O48 Dy40 2.339 . S
O48 C63 1.257 . S
O49 Dy41 2.307 . S
O49 C64 1.266 . S
O50 Dy40 2.298 . S
O50 C64 1.236 . S
O51 Dy41 2.395 . S
O51 C71 1.255 . S
O52 Dy41 2.379 . S
O52 C71 1.249 . S
C53 O43 1.266 . S
C53 O44 1.236 . S
O54 Dy40 2.275 . S
O54 C42 1.254 . S
O55 Dy41 2.339 . S
O55 C42 1.257 . S
C56 C59 1.344 . S
C56 C60 1.328 . S
C56 C62 1.516 . S
C57 C58 1.304 . S
C57 C61 1.323 . S
C58 C57 1.304 . S
C58 C59 1.371 . S
C58 H72 0.930 . S
C59 C56 1.344 . S
C59 C58 1.371 . S
C59 H73 0.931 . S
C60 C56 1.328 . S
C60 C61 1.433 . S
C60 H74 0.931 . S
C61 C57 1.323 . S
C61 C60 1.433 . S
C61 H75 0.933 . S
C62 Dy40 2.738 . S
C62 O45 1.255 . S
C62 O46 1.249 . S
C62 C56 1.516 . S
C63 O47 1.254 . S
C63 O48 1.257 . S
C64 O49 1.266 . S
C64 O50 1.236 . S
C65 C68 1.344 . S
C65 C69 1.328 . S
C65 C71 1.516 . S
C66 C67 1.304 . S
C66 C70 1.323 . S
C67 C66 1.304 . S
C67 C68 1.371 . S
C67 H76 0.930 . S
C68 C65 1.344 . S
C68 C67 1.371 . S
C68 H77 0.931 . S
C69 C65 1.328 . S
C69 C70 1.433 . S
C69 H78 0.931 . S
C70 C66 1.323 . S
C70 C69 1.433 . S
C70 H79 0.933 . S
C71 Dy41 2.738 . S
C71 O51 1.255 . S
C71 O52 1.249 . S
C71 C65 1.516 . S
H72 C58 0.930 . S
H73 C59 0.931 . S
H74 C60 0.931 . S
H75 C61 0.933 . S
H76 C67 0.930 . S
H77 C68 0.931 . S
H78 C69 0.931 . S
H79 C70 0.933 . S
Dy80 O83 2.307 . S
Dy80 O85 2.395 . S
Dy80 O86 2.379 . S
Dy80 O88 2.339 . S
Dy80 O90 2.298 . S
Dy80 O94 2.275 . S
Dy80 C102 2.738 . S
Dy81 O84 2.298 1_655 S
Dy81 O87 2.275 1_655 S
Dy81 O89 2.307 . S
Dy81 O91 2.395 . S
Dy81 O92 2.379 . S
Dy81 O95 2.339 1_655 S
Dy81 C111 2.738 . S
C82 O94 1.254 . S
C82 O95 1.257 . S
O83 Dy80 2.307 . S
O83 C93 1.266 . S
O84 Dy81 2.298 1_455 S
O84 C93 1.236 . S
O85 Dy80 2.395 . S
O85 C102 1.255 . S
O86 Dy80 2.379 . S
O86 C102 1.249 . S
O87 Dy81 2.275 1_455 S
O87 C103 1.254 . S
O88 Dy80 2.339 . S
O88 C103 1.257 . S
O89 Dy81 2.307 . S
O89 C104 1.266 . S
O90 Dy80 2.298 . S
O90 C104 1.236 1_455 S
O91 Dy81 2.395 . S
O91 C111 1.255 . S
O92 Dy81 2.379 . S
O92 C111 1.249 . S
C93 O83 1.266 . S
C93 O84 1.236 . S
O94 Dy80 2.275 . S
O94 C82 1.254 . S
O95 Dy81 2.339 1_455 S
O95 C82 1.257 . S
C96 C99 1.344 . S
C96 C100 1.328 . S
C96 C102 1.516 . S
C97 C98 1.304 . S
C97 C101 1.323 . S
C98 C97 1.304 . S
C98 C99 1.371 . S
C98 H112 0.930 . S
C99 C96 1.344 . S
C99 C98 1.371 . S
C99 H113 0.931 . S
C100 C96 1.328 . S
C100 C101 1.433 . S
C100 H114 0.931 . S
C101 C97 1.323 . S
C101 C100 1.433 . S
C101 H115 0.933 . S
C102 Dy80 2.738 . S
C102 O85 1.255 . S
C102 O86 1.249 . S
C102 C96 1.516 . S
C103 O87 1.254 . S
C103 O88 1.257 . S
C104 O89 1.266 . S
C104 O90 1.236 1_655 S
C105 C108 1.344 . S
C105 C109 1.328 . S
C105 C111 1.516 . S
C106 C107 1.304 . S
C106 C110 1.323 . S
C107 C106 1.304 . S
C107 C108 1.371 . S
C107 H116 0.930 . S
C108 C105 1.344 . S
C108 C107 1.371 . S
C108 H117 0.931 . S
C109 C105 1.328 . S
C109 C110 1.433 . S
C109 H118 0.931 . S
C110 C106 1.323 . S
C110 C109 1.433 . S
C110 H119 0.933 . S
C111 Dy81 2.738 . S
C111 O91 1.255 . S
C111 O92 1.249 . S
C111 C105 1.516 . S
H112 C98 0.930 . S
H113 C99 0.931 . S
H114 C100 0.931 . S
H115 C101 0.933 . S
H116 C107 0.930 . S
H117 C108 0.931 . S
H118 C109 0.931 . S
H119 C110 0.933 . S
Dy120 O123 2.307 1_556 S
Dy120 O125 2.395 . S
Dy120 O126 2.379 . S
Dy120 O128 2.339 1_556 S
Dy120 O130 2.298 1_565 S
Dy120 O134 2.275 1_556 S
Dy120 C142 2.738 . S
Dy121 O124 2.298 . S
Dy121 O127 2.275 . S
Dy121 O129 2.307 1_554 S
Dy121 O131 2.395 . S
Dy121 O132 2.379 . S
Dy121 O135 2.339 . S
Dy121 C151 2.738 . S
C122 O134 1.254 1_545 S
C122 O135 1.257 . S
O123 Dy120 2.307 1_554 S
O123 C133 1.266 . S
O124 Dy121 2.298 . S
O124 C133 1.236 1_545 S
O125 Dy120 2.395 . S
O125 C142 1.255 . S
O126 Dy120 2.379 . S
O126 C142 1.249 . S
O127 Dy121 2.275 . S
O127 C143 1.254 . S
O128 Dy120 2.339 1_554 S
O128 C143 1.257 1_565 S
O129 Dy121 2.307 1_556 S
O129 C144 1.266 . S
O130 Dy120 2.298 1_545 S
O130 C144 1.236 . S
O131 Dy121 2.395 . S
O131 C151 1.255 . S
O132 Dy121 2.379 . S
O132 C151 1.249 . S
C133 O123 1.266 . S
C133 O124 1.236 1_565 S
O134 Dy120 2.275 1_554 S
O134 C122 1.254 1_565 S
O135 Dy121 2.339 . S
O135 C122 1.257 . S
C136 C139 1.344 . S
C136 C140 1.328 . S
C136 C142 1.516 . S
C137 C138 1.304 . S
C137 C141 1.323 . S
C138 C137 1.304 . S
C138 C139 1.371 . S
C138 H152 0.930 . S
C139 C136 1.344 . S
C139 C138 1.371 . S
C139 H153 0.931 . S
C140 C136 1.328 . S
C140 C141 1.433 . S
C140 H154 0.931 . S
C141 C137 1.323 . S
C141 C140 1.433 . S
C141 H155 0.933 . S
C142 Dy120 2.738 . S
C142 O125 1.255 . S
C142 O126 1.249 . S
C142 C136 1.516 . S
C143 O127 1.254 . S
C143 O128 1.257 1_545 S
C144 O129 1.266 . S
C144 O130 1.236 . S
C145 C148 1.344 . S
C145 C149 1.328 . S
C145 C151 1.516 . S
C146 C147 1.304 . S
C146 C150 1.323 . S
C147 C146 1.304 . S
C147 C148 1.371 . S
C147 H156 0.930 . S
C148 C145 1.344 . S
C148 C147 1.371 . S
C148 H157 0.931 . S
C149 C145 1.328 . S
C149 C150 1.433 . S
C149 H158 0.931 . S
C150 C146 1.323 . S
C150 C149 1.433 . S
C150 H159 0.933 . S
C151 Dy121 2.738 . S
C151 O131 1.255 . S
C151 O132 1.249 . S
C151 C145 1.516 . S
H152 C138 0.930 . S
H153 C139 0.931 . S
H154 C140 0.931 . S
H155 C141 0.933 . S
H156 C147 0.930 . S
H157 C148 0.931 . S
H158 C149 0.931 . S
H159 C150 0.933 . S
Dy160 O163 2.307 . S
Dy160 O165 2.395 . S
Dy160 O166 2.379 . S
Dy160 O168 2.339 . S
Dy160 O170 2.298 . S
Dy160 O174 2.275 . S
Dy160 C182 2.738 . S
Dy161 O164 2.298 . S
Dy161 O167 2.275 . S
Dy161 O169 2.307 . S
Dy161 O171 2.395 . S
Dy161 O172 2.379 . S
Dy161 O175 2.339 . S
Dy161 C191 2.738 . S
C162 O174 1.254 . S
C162 O175 1.257 . S
O163 Dy160 2.307 . S
O163 C173 1.266 . S
O164 Dy161 2.298 . S
O164 C173 1.236 . S
O165 Dy160 2.395 . S
O165 C182 1.255 . S
O166 Dy160 2.379 . S
O166 C182 1.249 . S
O167 Dy161 2.275 . S
O167 C183 1.254 . S
O168 Dy160 2.339 . S
O168 C183 1.257 . S
O169 Dy161 2.307 . S
O169 C184 1.266 . S
O170 Dy160 2.298 . S
O170 C184 1.236 . S
O171 Dy161 2.395 . S
O171 C191 1.255 . S
O172 Dy161 2.379 . S
O172 C191 1.249 . S
C173 O163 1.266 . S
C173 O164 1.236 . S
O174 Dy160 2.275 . S
O174 C162 1.254 . S
O175 Dy161 2.339 . S
O175 C162 1.257 . S
C176 C179 1.344 . S
C176 C180 1.328 . S
C176 C182 1.516 . S
C177 C178 1.304 . S
C177 C181 1.323 . S
C178 C177 1.304 . S
C178 C179 1.371 . S
C178 H192 0.930 1_565 S
C179 C176 1.344 . S
C179 C178 1.371 . S
C179 H193 0.931 . S
C180 C176 1.328 . S
C180 C181 1.433 . S
C180 H194 0.931 . S
C181 C177 1.323 . S
C181 C180 1.433 . S
C181 H195 0.933 . S
C182 Dy160 2.738 . S
C182 O165 1.255 . S
C182 O166 1.249 . S
C182 C176 1.516 . S
C183 O167 1.254 . S
C183 O168 1.257 . S
C184 O169 1.266 . S
C184 O170 1.236 . S
C185 C188 1.344 . S
C185 C189 1.328 . S
C185 C191 1.516 . S
C186 C187 1.304 . S
C186 C190 1.323 . S
C187 C186 1.304 . S
C187 C188 1.371 . S
C187 H196 0.930 . S
C188 C185 1.344 . S
C188 C187 1.371 . S
C188 H197 0.931 . S
C189 C185 1.328 . S
C189 C190 1.433 . S
C189 H198 0.931 . S
C190 C186 1.323 . S
C190 C189 1.433 . S
C190 H199 0.933 . S
C191 Dy161 2.738 . S
C191 O171 1.255 . S
C191 O172 1.249 . S
C191 C185 1.516 . S
H192 C178 0.930 1_545 S
H193 C179 0.931 . S
H194 C180 0.931 . S
H195 C181 0.933 . S
H196 C187 0.930 . S
H197 C188 0.931 . S
H198 C189 0.931 . S
H199 C190 0.933 . S
Dy200 O203 2.307 . S
Dy200 O205 2.395 . S
Dy200 O206 2.379 . S
Dy200 O208 2.339 . S
Dy200 O210 2.298 . S
Dy200 O214 2.275 . S
Dy200 C222 2.738 . S
Dy201 O204 2.298 1_655 S
Dy201 O207 2.275 1_655 S
Dy201 O209 2.307 . S
Dy201 O211 2.395 . S
Dy201 O212 2.379 . S
Dy201 O215 2.339 1_655 S
Dy201 C231 2.738 . S
C202 O214 1.254 . S
C202 O215 1.257 . S
O203 Dy200 2.307 . S
O203 C213 1.266 . S
O204 Dy201 2.298 1_455 S
O204 C213 1.236 . S
O205 Dy200 2.395 . S
O205 C222 1.255 . S
O206 Dy200 2.379 . S
O206 C222 1.249 . S
O207 Dy201 2.275 1_455 S
O207 C223 1.254 . S
O208 Dy200 2.339 . S
O208 C223 1.257 . S
O209 Dy201 2.307 . S
O209 C224 1.266 . S
O210 Dy200 2.298 . S
O210 C224 1.236 1_455 S
O211 Dy201 2.395 . S
O211 C231 1.255 . S
O212 Dy201 2.379 . S
O212 C231 1.249 . S
C213 O203 1.266 . S
C213 O204 1.236 . S
O214 Dy200 2.275 . S
O214 C202 1.254 . S
O215 Dy201 2.339 1_455 S
O215 C202 1.257 . S
C216 C219 1.344 . S
C216 C220 1.328 . S
C216 C222 1.516 . S
C217 C218 1.304 . S
C217 C221 1.323 . S
C218 C217 1.304 . S
C218 C219 1.371 . S
C218 H232 0.930 1_565 S
C219 C216 1.344 . S
C219 C218 1.371 . S
C219 H233 0.931 . S
C220 C216 1.328 . S
C220 C221 1.433 . S
C220 H234 0.931 . S
C221 C217 1.323 . S
C221 C220 1.433 . S
C221 H235 0.933 . S
C222 Dy200 2.738 . S
C222 O205 1.255 . S
C222 O206 1.249 . S
C222 C216 1.516 . S
C223 O207 1.254 . S
C223 O208 1.257 . S
C224 O209 1.266 . S
C224 O210 1.236 1_655 S
C225 C228 1.344 . S
C225 C229 1.328 . S
C225 C231 1.516 . S
C226 C227 1.304 . S
C226 C230 1.323 . S
C227 C226 1.304 . S
C227 C228 1.371 . S
C227 H236 0.930 . S
C228 C225 1.344 . S
C228 C227 1.371 . S
C228 H237 0.931 . S
C229 C225 1.328 . S
C229 C230 1.433 . S
C229 H238 0.931 . S
C230 C226 1.323 . S
C230 C229 1.433 . S
C230 H239 0.933 . S
C231 Dy201 2.738 . S
C231 O211 1.255 . S
C231 O212 1.249 . S
C231 C225 1.516 . S
H232 C218 0.930 1_545 S
H233 C219 0.931 . S
H234 C220 0.931 . S
H235 C221 0.933 . S
H236 C227 0.930 . S
H237 C228 0.931 . S
H238 C229 0.931 . S
H239 C230 0.933 . S
C240 C241 1.391 1_565 S
C240 C242 1.394 . S
C240 H256 0.931 . S
C241 C240 1.391 1_545 S
C241 C245 1.376 1_554 S
C242 C240 1.394 . S
C242 C243 1.369 . S
C242 C246 1.531 . S
C243 C242 1.369 . S
C243 C244 1.410 1_564 S
C243 C251 1.503 1_665 S
C244 C243 1.410 1_546 S
C244 C245 1.392 . S
C244 C247 1.511 . S
C245 C241 1.376 1_556 S
C245 C244 1.392 . S
C245 H257 0.929 . S
C246 C242 1.531 . S
C246 H258 0.960 . S
C246 H259 0.962 . S
C246 H260 0.960 . S
C247 C244 1.511 . S
C247 H261 0.961 . S
C247 H262 0.961 1_655 S
C247 H263 0.961 . S
C248 C249 1.370 . S
C248 C250 1.363 . S
C248 H264 0.931 . S
C249 C248 1.370 . S
C249 C253 1.408 1_545 S
C250 C248 1.363 . S
C250 C251 1.370 . S
C250 C254 1.524 . S
C251 C243 1.503 1_445 S
C251 C250 1.370 . S
C251 C252 1.403 1_545 S
C252 C251 1.403 1_565 S
C252 C253 1.404 . S
C252 C255 1.539 1_454 S
C253 C249 1.408 1_565 S
C253 C252 1.404 . S
C253 H265 0.945 . S
C254 C250 1.524 . S
C254 H266 0.956 . S
C254 H267 0.961 . S
C254 H268 0.961 . S
C255 C252 1.539 1_656 S
C255 H269 0.958 . S
C255 H270 0.961 . S
C255 H271 0.960 . S
H256 C240 0.931 . S
H257 C245 0.929 . S
H258 C246 0.960 . S
H259 C246 0.962 . S
H260 C246 0.960 . S
H261 C247 0.961 . S
H262 C247 0.961 1_455 S
H263 C247 0.961 . S
H264 C248 0.931 . S
H265 C253 0.945 . S
H266 C254 0.956 . S
H267 C254 0.961 . S
H268 C254 0.961 . S
H269 C255 0.958 . S
H270 C255 0.961 . S
H271 C255 0.960 . S
C272 C273 1.391 1_545 S
C272 C274 1.394 . S
C272 H288 0.931 . S
C273 C272 1.391 1_565 S
C273 C277 1.376 . S
C274 C272 1.394 . S
C274 C275 1.369 . S
C274 C278 1.531 . S
C275 C274 1.369 . S
C275 C276 1.410 . S
C275 C283 1.503 1_655 S
C276 C275 1.410 . S
C276 C277 1.392 1_545 S
C276 C279 1.511 1_655 S
C277 C273 1.376 . S
C277 C276 1.392 1_565 S
C277 H289 0.929 . S
C278 C274 1.531 . S
C278 H290 0.960 . S
C278 H291 0.962 . S
C278 H292 0.960 . S
C279 C276 1.511 1_455 S
C279 H293 0.961 1_545 S
C279 H294 0.961 . S
C279 H295 0.961 . S
C280 C281 1.370 . S
C280 C282 1.363 . S
C280 H296 0.931 . S
C281 C280 1.370 . S
C281 C285 1.408 . S
C282 C280 1.363 . S
C282 C283 1.370 . S
C282 C286 1.524 1_455 S
C283 C275 1.503 1_455 S
C283 C282 1.370 . S
C283 C284 1.403 . S
C284 C283 1.403 . S
C284 C285 1.404 . S
C284 C287 1.539 . S
C285 C281 1.408 . S
C285 C284 1.404 . S
C285 H297 0.930 . S
C286 C282 1.524 1_655 S
C286 H298 0.956 . S
C286 H299 0.961 . S
C286 H300 0.961 1_655 S
C287 C284 1.539 . S
C287 H301 0.958 . S
C287 H302 0.961 . S
C287 H303 0.960 . S
H288 C272 0.931 . S
H289 C277 0.929 . S
H290 C278 0.960 . S
H291 C278 0.962 . S
H292 C278 0.960 . S
H293 C279 0.961 1_565 S
H294 C279 0.961 . S
H295 C279 0.961 . S
H296 C280 0.931 . S
H297 C285 0.930 . S
H298 C286 0.956 . S
H299 C286 0.961 . S
H300 C286 0.961 1_455 S
H301 C287 0.958 . S
H302 C287 0.961 . S
H303 C287 0.960 . S
C304 C305 1.391 . S
C304 C306 1.394 1_565 S
C304 H320 0.931 . S
C305 C304 1.391 . S
C305 C309 1.376 . S
C306 C304 1.394 1_545 S
C306 C307 1.369 . S
C306 C310 1.531 . S
C307 C306 1.369 . S
C307 C308 1.410 . S
C307 C315 1.503 . S
C308 C307 1.410 . S
C308 C309 1.392 1_545 S
C308 C311 1.511 1_455 S
C309 C305 1.376 . S
C309 C308 1.392 1_565 S
C309 H321 0.929 . S
C310 C306 1.531 . S
C310 H322 0.960 . S
C310 H323 0.962 . S
C310 H324 0.960 . S
C311 C308 1.511 1_655 S
C311 H325 0.955 1_645 S
C311 H326 0.961 1_655 S
C311 H327 0.961 . S
C312 C313 1.370 . S
C312 C314 1.363 . S
C312 H328 0.931 . S
C313 C312 1.370 . S
C313 C317 1.408 . S
C314 C312 1.363 . S
C314 C315 1.370 . S
C314 C318 1.524 . S
C315 C307 1.503 . S
C315 C314 1.370 . S
C315 C316 1.403 . S
C316 C315 1.403 . S
C316 C317 1.404 . S
C316 C319 1.539 1_455 S
C317 C313 1.408 . S
C317 C316 1.404 . S
C317 H329 0.930 1_455 S
C318 C314 1.524 . S
C318 H330 0.956 . S
C318 H331 0.961 . S
C318 H332 0.961 . S
C319 C316 1.539 1_655 S
C319 H333 0.958 . S
C319 H334 0.961 . S
C319 H335 0.960 . S
H320 C304 0.931 . S
H321 C309 0.929 . S
H322 C310 0.960 . S
H323 C310 0.962 . S
H324 C310 0.960 . S
H325 C311 0.955 1_465 S
H326 C311 0.961 1_455 S
H327 C311 0.961 . S
H328 C312 0.931 . S
H329 C317 0.930 1_655 S
H330 C318 0.956 . S
H331 C318 0.961 . S
H332 C318 0.961 . S
H333 C319 0.958 . S
H334 C319 0.961 . S
H335 C319 0.960 . S
C336 C337 1.391 . S
C336 C338 1.394 . S
C336 H352 0.931 . S
C337 C336 1.391 . S
C337 C341 1.376 . S
C338 C336 1.394 . S
C338 C339 1.369 . S
C338 C342 1.531 . S
C339 C338 1.369 . S
C339 C340 1.410 . S
C339 C347 1.503 . S
C340 C339 1.410 . S
C340 C341 1.392 . S
C340 C343 1.511 . S
C341 C337 1.376 . S
C341 C340 1.392 . S
C341 H353 0.929 . S
C342 C338 1.531 . S
C342 H354 0.960 . S
C342 H355 0.962 . S
C342 H356 0.960 . S
C343 C340 1.511 . S
C343 H357 0.961 . S
C343 H358 0.961 . S
C343 H359 0.961 . S
C344 C345 1.370 . S
C344 C346 1.363 . S
C344 H360 0.931 . S
C345 C344 1.370 . S
C345 C349 1.408 . S
C346 C344 1.363 . S
C346 C347 1.370 . S
C346 C350 1.524 . S
C347 C339 1.503 . S
C347 C346 1.370 . S
C347 C348 1.403 . S
C348 C347 1.403 . S
C348 C349 1.404 . S
C348 C351 1.539 . S
C349 C345 1.408 . S
C349 C348 1.404 . S
C349 H361 0.930 . S
C350 C346 1.524 . S
C350 H362 0.956 . S
C350 H363 0.961 . S
C350 H364 0.961 . S
C351 C348 1.539 . S
C351 H365 0.958 . S
C351 H366 0.961 . S
C351 H367 0.960 . S
H352 C336 0.931 . S
H353 C341 0.929 . S
H354 C342 0.960 . S
H355 C342 0.962 . S
H356 C342 0.960 . S
H357 C343 0.961 . S
H358 C343 0.961 . S
H359 C343 0.961 . S
H360 C344 0.931 . S
H361 C349 0.930 . S
H362 C350 0.956 . S
H363 C350 0.961 . S
H364 C350 0.961 . S
H365 C351 0.958 . S
H366 C351 0.961 . S
H367 C351 0.960 . S
C368 C369 1.391 . S
C368 C370 1.394 . S
C368 H384 0.931 . S
C369 C368 1.391 . S
C369 C373 1.376 . S
C370 C368 1.394 . S
C370 C371 1.369 1_455 S
C370 C374 1.531 . S
C371 C370 1.369 1_655 S
C371 C372 1.410 . S
C371 C379 1.503 . S
C372 C371 1.410 . S
C372 C373 1.392 1_655 S
C372 C375 1.511 . S
C373 C369 1.376 . S
C373 C372 1.392 1_455 S
C373 H385 0.929 . S
C374 C370 1.531 . S
C374 H386 0.960 1_455 S
C374 H387 0.962 . S
C374 H388 0.960 . S
C375 C372 1.511 . S
C375 H389 0.961 . S
C375 H390 0.961 . S
C375 H391 0.961 . S
C376 C377 1.370 . S
C376 C378 1.363 . S
C376 H392 0.931 . S
C377 C376 1.370 . S
C377 C381 1.408 . S
C378 C376 1.363 . S
C378 C379 1.370 . S
C378 C382 1.524 . S
C379 C371 1.503 . S
C379 C378 1.370 . S
C379 C380 1.403 . S
C380 C379 1.403 . S
C380 C381 1.404 . S
C380 C383 1.539 . S
C381 C377 1.408 . S
C381 C380 1.404 . S
C381 H393 0.930 . S
C382 C378 1.524 . S
C382 H394 0.947 1_655 S
C382 H395 0.961 . S
C382 H396 0.961 . S
C383 C380 1.539 . S
C383 H397 0.958 . S
C383 H398 0.961 . S
C383 H399 0.960 . S
H384 C368 0.931 . S
H385 C373 0.929 . S
H386 C374 0.960 1_655 S
H387 C374 0.962 . S
H388 C374 0.960 . S
H389 C375 0.961 . S
H390 C375 0.961 . S
H391 C375 0.961 . S
H392 C376 0.931 . S
H393 C381 0.930 . S
H394 C382 0.947 1_455 S
H395 C382 0.961 . S
H396 C382 0.961 . S
H397 C383 0.958 . S
H398 C383 0.961 . S
H399 C383 0.960 . S
C400 C401 1.391 . S
C400 C402 1.394 . S
C400 H416 0.931 . S
C401 C400 1.391 . S
C401 C405 1.376 . S
C402 C400 1.394 . S
C402 C403 1.369 . S
C402 C406 1.531 . S
C403 C402 1.369 . S
C403 C404 1.410 . S
C403 C411 1.503 . S
C404 C403 1.410 . S
C404 C405 1.392 . S
C404 C407 1.511 . S
C405 C401 1.376 . S
C405 C404 1.392 . S
C405 H417 0.929 . S
C406 C402 1.531 . S
C406 H418 0.960 . S
C406 H419 0.962 . S
C406 H420 0.960 . S
C407 C404 1.511 . S
C407 H421 0.961 . S
C407 H422 0.961 . S
C407 H423 0.961 . S
C408 C409 1.370 1_545 S
C408 C410 1.363 . S
C408 H424 0.931 . S
C409 C408 1.370 1_565 S
C409 C413 1.408 . S
C410 C408 1.363 . S
C410 C411 1.370 . S
C410 C414 1.524 . S
C411 C403 1.503 . S
C411 C410 1.370 . S
C411 C412 1.403 . S
C412 C411 1.403 . S
C412 C413 1.404 1_545 S
C412 C415 1.539 . S
C413 C409 1.408 . S
C413 C412 1.404 1_565 S
C413 H425 0.930 . S
C414 C410 1.524 . S
C414 H426 0.956 . S
C414 H427 0.961 . S
C414 H428 0.961 . S
C415 C412 1.539 . S
C415 H429 0.958 . S
C415 H430 0.961 . S
C415 H431 0.960 . S
H416 C400 0.931 . S
H417 C405 0.929 . S
H418 C406 0.960 . S
H419 C406 0.962 . S
H420 C406 0.960 . S
H421 C407 0.961 . S
H422 C407 0.961 . S
H423 C407 0.961 . S
H424 C408 0.931 . S
H425 C413 0.930 . S
H426 C414 0.956 . S
H427 C414 0.961 . S
H428 C414 0.961 . S
H429 C415 0.958 . S
H430 C415 0.961 . S
H431 C415 0.960 . S
C432 C433 1.391 . S
C432 C434 1.394 . S
C432 H448 0.931 . S
C433 C432 1.391 . S
C433 C437 1.376 . S
C434 C432 1.394 . S
C434 C435 1.369 . S
C434 C438 1.531 . S
C435 C434 1.369 . S
C435 C436 1.410 . S
C435 C443 1.503 . S
C436 C435 1.410 . S
C436 C437 1.392 . S
C436 C439 1.511 . S
C437 C433 1.376 . S
C437 C436 1.392 . S
C437 H449 0.929 . S
C438 C434 1.531 . S
C438 H450 0.960 . S
C438 H451 0.962 . S
C438 H452 0.960 . S
C439 C436 1.511 . S
C439 H453 0.961 . S
C439 H454 0.961 . S
C439 H455 0.961 . S
C440 C441 1.370 . S
C440 C442 1.363 . S
C440 H456 0.931 . S
C441 C440 1.370 . S
C441 C445 1.408 . S
C442 C440 1.363 . S
C442 C443 1.370 . S
C442 C446 1.524 . S
C443 C435 1.503 . S
C443 C442 1.370 . S
C443 C444 1.403 . S
C444 C443 1.403 . S
C444 C445 1.404 . S
C444 C447 1.539 . S
C445 C441 1.408 . S
C445 C444 1.404 . S
C445 H457 0.930 . S
C446 C442 1.524 . S
C446 H458 0.956 . S
C446 H459 0.961 . S
C446 H460 0.961 . S
C447 C444 1.539 . S
C447 H461 0.958 . S
C447 H462 0.961 . S
C447 H463 0.960 . S
H448 C432 0.931 . S
H449 C437 0.929 . S
H450 C438 0.960 . S
H451 C438 0.962 . S
H452 C438 0.960 . S
H453 C439 0.961 . S
H454 C439 0.961 . S
H455 C439 0.961 . S
H456 C440 0.931 . S
H457 C445 0.930 . S
H458 C446 0.956 . S
H459 C446 0.961 . S
H460 C446 0.961 . S
H461 C447 0.958 . S
H462 C447 0.961 . S
H463 C447 0.960 . S
C464 C465 1.391 . S
C464 C466 1.394 . S
C464 H480 0.931 . S
C465 C464 1.391 . S
C465 C469 1.376 . S
C466 C464 1.394 . S
C466 C467 1.369 . S
C466 C470 1.531 . S
C467 C466 1.369 . S
C467 C468 1.410 . S
C467 C475 1.503 . S
C468 C467 1.410 . S
C468 C469 1.392 . S
C468 C471 1.511 . S
C469 C465 1.376 . S
C469 C468 1.392 . S
C469 H481 0.929 . S
C470 C466 1.531 . S
C470 H482 0.960 1_655 S
C470 H483 0.962 . S
C470 H484 0.960 . S
C471 C468 1.511 . S
C471 H485 0.961 . S
C471 H486 0.961 . S
C471 H487 0.961 . S
C472 C473 1.370 . S
C472 C474 1.363 . S
C472 H488 0.931 . S
C473 C472 1.370 . S
C473 C477 1.408 . S
C474 C472 1.363 . S
C474 C475 1.370 1_455 S
C474 C478 1.524 1_455 S
C475 C467 1.503 . S
C475 C474 1.370 1_655 S
C475 C476 1.403 1_655 S
C476 C475 1.403 1_455 S
C476 C477 1.404 . S
C476 C479 1.539 1_455 S
C477 C473 1.408 . S
C477 C476 1.404 . S
C477 H489 0.930 . S
C478 C474 1.524 1_655 S
C478 H490 0.956 . S
C478 H491 0.961 . S
C478 H492 0.961 . S
C479 C476 1.539 1_655 S
C479 H493 0.958 1_655 S
C479 H494 0.961 1_655 S
C479 H495 0.960 . S
H480 C464 0.931 . S
H481 C469 0.929 . S
H482 C470 0.960 1_455 S
H483 C470 0.962 . S
H484 C470 0.960 . S
H485 C471 0.961 . S
H486 C471 0.961 . S
H487 C471 0.961 . S
H488 C472 0.931 . S
H489 C477 0.930 . S
H490 C478 0.956 . S
H491 C478 0.961 . S
H492 C478 0.961 . S
H493 C479 0.958 1_455 S
H494 C479 0.961 1_455 S
H495 C479 0.960 . S
C496 C497 1.391 1_545 S
C496 C498 1.394 . S
C496 H512 0.931 . S
C497 C496 1.391 1_565 S
C497 C501 1.376 . S
C498 C496 1.394 . S
C498 C499 1.369 . S
C498 C502 1.531 . S
C499 C498 1.369 . S
C499 C500 1.410 . S
C499 C507 1.503 . S
C500 C499 1.410 . S
C500 C501 1.392 1_545 S
C500 C503 1.511 . S
C501 C497 1.376 . S
C501 C500 1.392 1_565 S
C501 H513 0.929 . S
C502 C498 1.531 . S
C502 H514 0.960 . S
C502 H515 0.962 . S
C502 H516 0.960 . S
C503 C500 1.511 . S
C503 H517 0.961 . S
C503 H518 0.961 . S
C503 H519 0.961 . S
C504 C505 1.370 . S
C504 C506 1.363 . S
C504 H520 0.931 . S
C505 C504 1.370 . S
C505 C509 1.408 . S
C506 C504 1.363 . S
C506 C507 1.370 . S
C506 C510 1.524 . S
C507 C499 1.503 . S
C507 C506 1.370 . S
C507 C508 1.403 . S
C508 C507 1.403 . S
C508 C509 1.404 . S
C508 C511 1.539 . S
C509 C505 1.408 . S
C509 C508 1.404 . S
C509 H521 0.930 . S
C510 C506 1.524 . S
C510 H522 0.956 . S
C510 H523 0.961 . S
C510 H524 0.961 . S
C511 C508 1.539 . S
C511 H525 0.958 . S
C511 H526 0.961 . S
C511 H527 0.960 . S
H512 C496 0.931 . S
H513 C501 0.929 . S
H514 C502 0.960 . S
H515 C502 0.962 . S
H516 C502 0.960 . S
H517 C503 0.961 . S
H518 C503 0.961 . S
H519 C503 0.961 . S
H520 C504 0.931 . S
H521 C509 0.930 . S
H522 C510 0.956 . S
H523 C510 0.961 . S
H524 C510 0.961 . S
H525 C511 0.958 . S
H526 C511 0.961 . S
H527 C511 0.960 . S
C528 C529 1.391 . S
C528 C530 1.394 . S
C528 H544 0.931 1_554 S
C529 C528 1.391 . S
C529 C533 1.376 1_545 S
C530 C528 1.394 . S
C530 C531 1.369 . S
C530 C534 1.531 1_554 S
C531 C530 1.369 . S
C531 C532 1.410 1_545 S
C531 C539 1.503 . S
C532 C531 1.410 1_565 S
C532 C533 1.392 . S
C532 C535 1.511 . S
C533 C529 1.376 1_565 S
C533 C532 1.392 . S
C533 H545 0.929 . S
C534 C530 1.531 1_556 S
C534 H546 0.960 1_556 S
C534 H547 0.962 . S
C534 H548 0.960 . S
C535 C532 1.511 . S
C535 H549 0.961 . S
C535 H550 0.961 . S
C535 H551 0.961 . S
C536 C537 1.370 1_565 S
C536 C538 1.363 . S
C536 H552 0.931 1_554 S
C537 C536 1.370 1_545 S
C537 C541 1.408 . S
C538 C536 1.363 . S
C538 C539 1.370 1_565 S
C538 C542 1.524 1_554 S
C539 C531 1.503 . S
C539 C538 1.370 1_545 S
C539 C540 1.403 . S
C540 C539 1.403 . S
C540 C541 1.404 . S
C540 C543 1.539 . S
C541 C537 1.408 . S
C541 C540 1.404 . S
C541 H553 0.930 . S
C542 C538 1.524 1_556 S
C542 H554 0.956 . S
C542 H555 0.961 . S
C542 H556 0.961 . S
C543 C540 1.539 . S
C543 H557 0.958 . S
C543 H558 0.961 . S
C543 H559 0.960 . S
H544 C528 0.931 1_556 S
H545 C533 0.929 . S
H546 C534 0.960 1_554 S
H547 C534 0.962 . S
H548 C534 0.960 . S
H549 C535 0.961 . S
H550 C535 0.961 . S
H551 C535 0.961 . S
H552 C536 0.931 1_556 S
H553 C541 0.930 . S
H554 C542 0.956 . S
H555 C542 0.961 . S
H556 C542 0.961 . S
H557 C543 0.958 . S
H558 C543 0.961 . S
H559 C543 0.960 . S
C560 C561 1.391 . S
C560 C562 1.394 . S
C560 H576 0.931 . S
C561 C560 1.391 . S
C561 C565 1.376 . S
C562 C560 1.394 . S
C562 C563 1.369 . S
C562 C566 1.531 . S
C563 C562 1.369 . S
C563 C564 1.410 . S
C563 C571 1.503 . S
C564 C563 1.410 . S
C564 C565 1.392 . S
C564 C567 1.511 . S
C565 C561 1.376 . S
C565 C564 1.392 . S
C565 H577 0.929 . S
C566 C562 1.531 . S
C566 H578 0.960 . S
C566 H579 0.962 . S
C566 H580 0.960 . S
C567 C564 1.511 . S
C567 H581 0.961 . S
C567 H582 0.961 . S
C567 H583 0.961 . S
C568 C569 1.370 . S
C568 C570 1.363 . S
C568 H584 0.931 . S
C569 C568 1.370 . S
C569 C573 1.408 . S
C570 C568 1.363 . S
C570 C571 1.370 . S
C570 C574 1.524 . S
C571 C563 1.503 . S
C571 C570 1.370 . S
C571 C572 1.403 . S
C572 C571 1.403 . S
C572 C573 1.404 . S
C572 C575 1.539 . S
C573 C569 1.408 . S
C573 C572 1.404 . S
C573 H585 0.930 . S
C574 C570 1.524 . S
C574 H586 0.956 . S
C574 H587 0.961 . S
C574 H588 0.961 . S
C575 C572 1.539 . S
C575 H589 0.958 . S
C575 H590 0.961 . S
C575 H591 0.960 . S
H576 C560 0.931 . S
H577 C565 0.929 . S
H578 C566 0.960 . S
H579 C566 0.962 . S
H580 C566 0.960 . S
H581 C567 0.961 . S
H582 C567 0.961 . S
H583 C567 0.961 . S
H584 C568 0.931 . S
H585 C573 0.930 . S
H586 C574 0.956 . S
H587 C574 0.961 . S
H588 C574 0.961 . S
H589 C575 0.958 . S
H590 C575 0.961 . S
H591 C575 0.960 . S
C592 C593 1.391 . S
C592 C594 1.394 . S
C592 H608 0.931 . S
C593 C592 1.391 . S
C593 C597 1.376 . S
C594 C592 1.394 . S
C594 C595 1.369 . S
C594 C598 1.531 . S
C595 C594 1.369 . S
C595 C596 1.410 . S
C595 C603 1.503 . S
C596 C595 1.410 . S
C596 C597 1.392 . S
C596 C599 1.511 1_455 S
C597 C593 1.376 . S
C597 C596 1.392 . S
C597 H609 0.929 1_455 S
C598 C594 1.531 . S
C598 H610 0.960 . S
C598 H611 0.962 . S
C598 H612 0.960 . S
C599 C596 1.511 1_655 S
C599 H613 0.961 . S
C599 H614 0.961 . S
C599 H615 0.961 . S
C600 C601 1.370 . S
C600 C602 1.363 . S
C600 H616 0.927 1_455 S
C601 C600 1.370 . S
C601 C605 1.408 . S
C602 C600 1.363 . S
C602 C603 1.370 . S
C602 C606 1.524 1_455 S
C603 C595 1.503 . S
C603 C602 1.370 . S
C603 C604 1.403 . S
C604 C603 1.403 . S
C604 C605 1.404 . S
C604 C607 1.539 . S
C605 C601 1.408 . S
C605 C604 1.404 . S
C605 H617 0.930 . S
C606 C602 1.524 1_655 S
C606 H618 0.956 1_655 S
C606 H619 0.961 . S
C606 H620 0.961 . S
C607 C604 1.539 . S
C607 H621 0.958 . S
C607 H622 0.961 . S
C607 H623 0.960 . S
H608 C592 0.931 . S
H609 C597 0.929 1_655 S
H610 C598 0.960 . S
H611 C598 0.962 . S
H612 C598 0.960 . S
H613 C599 0.961 . S
H614 C599 0.961 . S
H615 C599 0.961 . S
H616 C600 0.927 1_655 S
H617 C605 0.930 . S
H618 C606 0.956 1_455 S
H619 C606 0.961 . S
H620 C606 0.961 . S
H621 C607 0.958 . S
H622 C607 0.961 . S
H623 C607 0.960 . S
C624 C625 1.391 . S
C624 C626 1.394 . S
C624 H640 0.931 . S
C625 C624 1.391 . S
C625 C629 1.376 . S
C626 C624 1.394 . S
C626 C627 1.369 . S
C626 C630 1.531 . S
C627 C626 1.369 . S
C627 C628 1.410 . S
C627 C635 1.503 . S
C628 C627 1.410 . S
C628 C629 1.392 . S
C628 C631 1.511 . S
C629 C625 1.376 . S
C629 C628 1.392 . S
C629 H641 0.929 . S
C630 C626 1.531 . S
C630 H642 0.960 . S
C630 H643 0.962 . S
C630 H644 0.960 . S
C631 C628 1.511 . S
C631 H645 0.961 . S
C631 H646 0.961 . S
C631 H647 0.961 . S
C632 C633 1.370 . S
C632 C634 1.363 . S
C632 H648 0.931 . S
C633 C632 1.370 . S
C633 C637 1.408 . S
C634 C632 1.363 . S
C634 C635 1.370 . S
C634 C638 1.524 . S
C635 C627 1.503 . S
C635 C634 1.370 . S
C635 C636 1.403 . S
C636 C635 1.403 . S
C636 C637 1.404 . S
C636 C639 1.539 . S
C637 C633 1.408 . S
C637 C636 1.404 . S
C637 H649 0.930 . S
C638 C634 1.524 . S
C638 H650 0.956 . S
C638 H651 0.961 . S
C638 H652 0.961 . S
C639 C636 1.539 . S
C639 H653 0.958 . S
C639 H654 0.961 . S
C639 H655 0.960 . S
H640 C624 0.931 . S
H641 C629 0.929 . S
H642 C630 0.960 . S
H643 C630 0.962 . S
H644 C630 0.960 . S
H645 C631 0.961 . S
H646 C631 0.961 . S
H647 C631 0.961 . S
H648 C632 0.931 . S
H649 C637 0.930 . S
H650 C638 0.956 . S
H651 C638 0.961 . S
H652 C638 0.961 . S
H653 C639 0.958 . S
H654 C639 0.961 . S
H655 C639 0.960 . S
C656 C657 1.391 . S
C656 C658 1.394 . S
C656 H672 0.931 . S
C657 C656 1.391 . S
C657 C661 1.376 . S
C658 C656 1.394 . S
C658 C659 1.369 . S
C658 C662 1.531 . S
C659 C658 1.369 . S
C659 C660 1.410 . S
C659 C667 1.503 . S
C660 C659 1.410 . S
C660 C661 1.392 . S
C660 C663 1.511 . S
C661 C657 1.376 . S
C661 C660 1.392 . S
C661 H673 0.929 . S
C662 C658 1.531 . S
C662 H674 0.960 . S
C662 H675 0.962 . S
C662 H676 0.960 . S
C663 C660 1.511 . S
C663 H677 0.961 . S
C663 H678 0.961 . S
C663 H679 0.961 . S
C664 C665 1.370 . S
C664 C666 1.363 . S
C664 H680 0.931 . S
C665 C664 1.370 . S
C665 C669 1.408 . S
C666 C664 1.363 . S
C666 C667 1.370 . S
C666 C670 1.524 . S
C667 C659 1.503 . S
C667 C666 1.370 . S
C667 C668 1.403 . S
C668 C667 1.403 . S
C668 C669 1.404 . S
C668 C671 1.539 . S
C669 C665 1.408 . S
C669 C668 1.404 . S
C669 H681 0.930 . S
C670 C666 1.524 . S
C670 H682 0.956 . S
C670 H683 0.961 . S
C670 H684 0.961 . S
C671 C668 1.539 . S
C671 H685 0.958 . S
C671 H686 0.961 . S
C671 H687 0.960 . S
H672 C656 0.931 . S
H673 C661 0.929 . S
H674 C662 0.960 . S
H675 C662 0.962 . S
H676 C662 0.960 . S
H677 C663 0.961 . S
H678 C663 0.961 . S
H679 C663 0.961 . S
H680 C664 0.931 . S
H681 C669 0.930 . S
H682 C670 0.956 . S
H683 C670 0.961 . S
H684 C670 0.961 . S
H685 C671 0.958 . S
H686 C671 0.961 . S
H687 C671 0.960 . S
C688 C689 1.391 . S
C688 C690 1.394 . S
C688 H704 0.931 . S
C689 C688 1.391 . S
C689 C693 1.376 . S
C690 C688 1.394 . S
C690 C691 1.369 . S
C690 C694 1.531 . S
C691 C690 1.369 . S
C691 C692 1.410 . S
C691 C699 1.503 . S
C692 C691 1.410 . S
C692 C693 1.392 . S
C692 C695 1.511 . S
C693 C689 1.376 . S
C693 C692 1.392 . S
C693 H705 0.929 . S
C694 C690 1.531 . S
C694 H706 0.960 . S
C694 H707 0.962 . S
C694 H708 0.960 . S
C695 C692 1.511 . S
C695 H709 0.961 . S
C695 H710 0.961 . S
C695 H711 0.961 . S
C696 C697 1.370 . S
C696 C698 1.363 . S
C696 H712 0.931 . S
C697 C696 1.370 . S
C697 C701 1.408 . S
C698 C696 1.363 . S
C698 C699 1.370 . S
C698 C702 1.524 . S
C699 C691 1.503 . S
C699 C698 1.370 . S
C699 C700 1.403 . S
C700 C699 1.403 . S
C700 C701 1.404 . S
C700 C703 1.539 . S
C701 C697 1.408 . S
C701 C700 1.404 . S
C701 H713 0.930 . S
C702 C698 1.524 . S
C702 H714 0.956 . S
C702 H715 0.961 . S
C702 H716 0.961 . S
C703 C700 1.539 . S
C703 H717 0.958 . S
C703 H718 0.961 1_655 S
C703 H719 0.960 1_655 S
H704 C688 0.931 . S
H705 C693 0.929 . S
H706 C694 0.960 . S
H707 C694 0.962 . S
H708 C694 0.960 . S
H709 C695 0.961 . S
H710 C695 0.961 . S
H711 C695 0.961 . S
H712 C696 0.931 . S
H713 C701 0.930 . S
H714 C702 0.956 . S
H715 C702 0.961 . S
H716 C702 0.961 . S
H717 C703 0.958 . S
H718 C703 0.961 1_455 S
H719 C703 0.960 1_455 S
C720 C721 1.391 . S
C720 C722 1.394 . S
C720 H736 0.931 . S
C721 C720 1.391 . S
C721 C725 1.376 . S
C722 C720 1.394 . S
C722 C723 1.369 . S
C722 C726 1.531 . S
C723 C722 1.369 . S
C723 C724 1.410 . S
C723 C731 1.503 . S
C724 C723 1.410 . S
C724 C725 1.392 . S
C724 C727 1.511 . S
C725 C721 1.376 . S
C725 C724 1.392 . S
C725 H737 0.929 . S
C726 C722 1.531 . S
C726 H738 0.960 . S
C726 H739 0.962 . S
C726 H740 0.960 . S
C727 C724 1.511 . S
C727 H741 0.961 . S
C727 H742 0.961 . S
C727 H743 0.961 . S
C728 C729 1.370 . S
C728 C730 1.363 . S
C728 H744 0.931 . S
C729 C728 1.370 . S
C729 C733 1.408 . S
C730 C728 1.363 . S
C730 C731 1.370 . S
C730 C734 1.524 . S
C731 C723 1.503 . S
C731 C730 1.370 . S
C731 C732 1.403 . S
C732 C731 1.403 . S
C732 C733 1.404 . S
C732 C735 1.539 . S
C733 C729 1.408 . S
C733 C732 1.404 . S
C733 H745 0.930 . S
C734 C730 1.524 . S
C734 H746 0.956 . S
C734 H747 0.961 1_565 S
C734 H748 0.961 1_565 S
C735 C732 1.539 . S
C735 H749 0.958 . S
C735 H750 0.961 . S
C735 H751 0.960 . S
H736 C720 0.931 . S
H737 C725 0.929 . S
H738 C726 0.960 . S
H739 C726 0.962 . S
H740 C726 0.960 . S
H741 C727 0.961 . S
H742 C727 0.961 . S
H743 C727 0.961 . S
H744 C728 0.931 . S
H745 C733 0.930 . S
H746 C734 0.956 . S
H747 C734 0.961 1_545 S
H748 C734 0.961 1_545 S
H749 C735 0.958 . S
H750 C735 0.961 . S
H751 C735 0.960 . S
C752 C753 1.391 . S
C752 C754 1.394 . S
C752 H768 0.931 . S
C753 C752 1.391 . S
C753 C757 1.376 . S
C754 C752 1.394 . S
C754 C755 1.369 . S
C754 C758 1.531 . S
C755 C754 1.369 . S
C755 C756 1.410 . S
C755 C763 1.503 . S
C756 C755 1.410 . S
C756 C757 1.392 . S
C756 C759 1.511 . S
C757 C753 1.376 . S
C757 C756 1.392 . S
C757 H769 0.929 . S
C758 C754 1.531 . S
C758 H770 0.960 . S
C758 H771 0.962 . S
C758 H772 0.960 . S
C759 C756 1.511 . S
C759 H773 0.961 . S
C759 H774 0.961 . S
C759 H775 0.961 . S
C760 C761 1.370 . S
C760 C762 1.363 . S
C760 H776 0.931 . S
C761 C760 1.370 . S
C761 C765 1.408 . S
C762 C760 1.363 . S
C762 C763 1.370 . S
C762 C766 1.524 . S
C763 C755 1.503 . S
C763 C762 1.370 . S
C763 C764 1.403 . S
C764 C763 1.403 . S
C764 C765 1.404 . S
C764 C767 1.539 . S
C765 C761 1.408 . S
C765 C764 1.404 . S
C765 H777 0.930 . S
C766 C762 1.524 . S
C766 H778 0.956 . S
C766 H779 0.961 . S
C766 H780 0.961 . S
C767 C764 1.539 . S
C767 H781 0.958 . S
C767 H782 0.961 . S
C767 H783 0.960 . S
H768 C752 0.931 . S
H769 C757 0.929 . S
H770 C758 0.960 . S
H771 C758 0.962 . S
H772 C758 0.960 . S
H773 C759 0.961 . S
H774 C759 0.961 . S
H775 C759 0.961 . S
H776 C760 0.931 . S
H777 C765 0.930 . S
H778 C766 0.956 . S
H779 C766 0.961 . S
H780 C766 0.961 . S
H781 C767 0.958 . S
H782 C767 0.961 . S
H783 C767 0.960 . S
C784 C785 1.391 . S
C784 C786 1.394 . S
C784 H800 0.931 . S
C785 C784 1.391 . S
C785 C789 1.376 . S
C786 C784 1.394 . S
C786 C787 1.369 . S
C786 C790 1.531 . S
C787 C786 1.369 . S
C787 C788 1.410 . S
C787 C795 1.503 . S
C788 C787 1.410 . S
C788 C789 1.392 . S
C788 C791 1.511 . S
C789 C785 1.376 . S
C789 C788 1.392 . S
C789 H801 0.929 . S
C790 C786 1.531 . S
C790 H802 0.960 . S
C790 H803 0.962 . S
C790 H804 0.960 . S
C791 C788 1.511 . S
C791 H805 0.961 . S
C791 H806 0.961 . S
C791 H807 0.961 . S
C792 C793 1.370 . S
C792 C794 1.363 . S
C792 H808 0.931 1_565 S
C793 C792 1.370 . S
C793 C797 1.408 . S
C794 C792 1.363 . S
C794 C795 1.370 . S
C794 C798 1.524 1_565 S
C795 C787 1.503 . S
C795 C794 1.370 . S
C795 C796 1.403 . S
C796 C795 1.403 . S
C796 C797 1.404 . S
C796 C799 1.539 . S
C797 C793 1.408 . S
C797 C796 1.404 . S
C797 H809 0.930 . S
C798 C794 1.524 1_545 S
C798 H810 0.956 . S
C798 H811 0.961 . S
C798 H812 0.961 . S
C799 C796 1.539 . S
C799 H813 0.958 . S
C799 H814 0.961 . S
C799 H815 0.960 . S
H800 C784 0.931 . S
H801 C789 0.929 . S
H802 C790 0.960 . S
H803 C790 0.962 . S
H804 C790 0.960 . S
H805 C791 0.961 . S
H806 C791 0.961 . S
H807 C791 0.961 . S
H808 C792 0.931 1_545 S
H809 C797 0.930 . S
H810 C798 0.956 . S
H811 C798 0.961 . S
H812 C798 0.961 . S
H813 C799 0.958 . S
H814 C799 0.961 . S
H815 C799 0.960 . S
C241 C122 0.555 . S
C249 C2 0.449 . S
C273 C162 0.549 . S
C281 C42 0.413 . S
C305 C202 0.449 . S
C313 C82 0.423 . S
C337 C26 0.624 . S
C345 C97 0.745 . S
C369 C57 0.593 . S
C377 C146 0.707 . S
C401 C106 0.613 . S
C409 C177 0.690 . S
C433 C137 0.704 . S
C441 C226 0.714 . S
C465 C186 0.698 . S
C473 C17 0.739 . S
C497 C217 0.743 . S
C505 C66 0.705 . S
C529 C23 0.453 . S
C537 C143 0.521 . S
C561 C63 0.529 . S
C569 C183 0.441 . S
C593 C103 0.511 . S
C601 C223 0.443 . S
C625 C24 4.134 . S
C633 C64 4.136 . S
C657 C53 3.851 . S
C665 C93 3.865 . S
C689 C104 4.127 . S
C697 C144 4.138 . S
C721 C133 3.865 . S
C729 C173 3.864 . S
C753 C184 4.133 . S
C761 C224 4.137 . S
C785 C213 3.863 . S
C793 C13 3.870 . S
