# Generated by pormake.
# Topology wir, (6)-cn, num edge types: 1
# Building blocks:
#     Node 0, Type 0, BuildingBlock: JUFBIX_clean_sbu_0, # of connection points: 6
#     Node 1, Type 0, BuildingBlock: JUFBIX_clean_sbu_0, # of connection points: 6
#     Node 2, Type 0, BuildingBlock: JUFBIX_clean_sbu_0, # of connection points: 6
#     Node 3, Type 0, BuildingBlock: JUFBIX_clean_sbu_0, # of connection points: 6
#     Node 4, Type 0, BuildingBlock: JUFBIX_clean_sbu_0, # of connection points: 6
#     Node 5, Type 0, BuildingBlock: JUFBIX_clean_sbu_0, # of connection points: 6
#     Node 6, Type 0, BuildingBlock: JUFBIX_clean_sbu_0, # of connection points: 6
#     Node 7, Type 0, BuildingBlock: JUFBIX_clean_sbu_0, # of connection points: 6
#     Node 8, Type 0, BuildingBlock: JUFBIX_clean_sbu_0, # of connection points: 6
#     Node 9, Type 0, BuildingBlock: JUFBIX_clean_sbu_0, # of connection points: 6
#     Node 10, Type 0, BuildingBlock: JUFBIX_clean_sbu_0, # of connection points: 6
#     Node 11, Type 0, BuildingBlock: JUFBIX_clean_sbu_0, # of connection points: 6
#     Node 12, Type 0, BuildingBlock: JUFBIX_clean_sbu_0, # of connection points: 6
#     Node 13, Type 0, BuildingBlock: JUFBIX_clean_sbu_0, # of connection points: 6
#     Node 14, Type 0, BuildingBlock: JUFBIX_clean_sbu_0, # of connection points: 6
#     Node 15, Type 0, BuildingBlock: JUFBIX_clean_sbu_0, # of connection points: 6
#     Node 16, Type 0, BuildingBlock: JUFBIX_clean_sbu_0, # of connection points: 6
#     Node 17, Type 0, BuildingBlock: JUFBIX_clean_sbu_0, # of connection points: 6
#     Node 18, Type 0, BuildingBlock: JUFBIX_clean_sbu_0, # of connection points: 6
#     Node 19, Type 0, BuildingBlock: JUFBIX_clean_sbu_0, # of connection points: 6
#     Node 20, Type 0, BuildingBlock: JUFBIX_clean_sbu_0, # of connection points: 6
#     Node 21, Type 0, BuildingBlock: JUFBIX_clean_sbu_0, # of connection points: 6
#     Node 22, Type 0, BuildingBlock: JUFBIX_clean_sbu_0, # of connection points: 6
#     Node 23, Type 0, BuildingBlock: JUFBIX_clean_sbu_0, # of connection points: 6
#     Node 24, Type 0, BuildingBlock: JUFBIX_clean_sbu_0, # of connection points: 6
#     Node 25, Type 0, BuildingBlock: JUFBIX_clean_sbu_0, # of connection points: 6
#     Node 26, Type 0, BuildingBlock: JUFBIX_clean_sbu_0, # of connection points: 6
#     Node 27, Type 0, BuildingBlock: JUFBIX_clean_sbu_0, # of connection points: 6
#     Node 28, Type 0, BuildingBlock: JUFBIX_clean_sbu_0, # of connection points: 6
#     Node 29, Type 0, BuildingBlock: JUFBIX_clean_sbu_0, # of connection points: 6
#     Node 30, Type 0, BuildingBlock: JUFBIX_clean_sbu_0, # of connection points: 6
#     Node 31, Type 0, BuildingBlock: JUFBIX_clean_sbu_0, # of connection points: 6
#     Edge 32, Type (0, 0), None
#     Edge 33, Type (0, 0), None
#     Edge 34, Type (0, 0), None
#     Edge 35, Type (0, 0), None
#     Edge 36, Type (0, 0), None
#     Edge 37, Type (0, 0), None
#     Edge 38, Type (0, 0), None
#     Edge 39, Type (0, 0), None
#     Edge 40, Type (0, 0), None
#     Edge 41, Type (0, 0), None
#     Edge 42, Type (0, 0), None
#     Edge 43, Type (0, 0), None
#     Edge 44, Type (0, 0), None
#     Edge 45, Type (0, 0), None
#     Edge 46, Type (0, 0), None
#     Edge 47, Type (0, 0), None
#     Edge 48, Type (0, 0), None
#     Edge 49, Type (0, 0), None
#     Edge 50, Type (0, 0), None
#     Edge 51, Type (0, 0), None
#     Edge 52, Type (0, 0), None
#     Edge 53, Type (0, 0), None
#     Edge 54, Type (0, 0), None
#     Edge 55, Type (0, 0), None
#     Edge 56, Type (0, 0), None
#     Edge 57, Type (0, 0), None
#     Edge 58, Type (0, 0), None
#     Edge 59, Type (0, 0), None
#     Edge 60, Type (0, 0), None
#     Edge 61, Type (0, 0), None
#     Edge 62, Type (0, 0), None
#     Edge 63, Type (0, 0), None
#     Edge 64, Type (0, 0), None
#     Edge 65, Type (0, 0), None
#     Edge 66, Type (0, 0), None
#     Edge 67, Type (0, 0), None
#     Edge 68, Type (0, 0), None
#     Edge 69, Type (0, 0), None
#     Edge 70, Type (0, 0), None
#     Edge 71, Type (0, 0), None
#     Edge 72, Type (0, 0), None
#     Edge 73, Type (0, 0), None
#     Edge 74, Type (0, 0), None
#     Edge 75, Type (0, 0), None
#     Edge 76, Type (0, 0), None
#     Edge 77, Type (0, 0), None
#     Edge 78, Type (0, 0), None
#     Edge 79, Type (0, 0), None
#     Edge 80, Type (0, 0), None
#     Edge 81, Type (0, 0), None
#     Edge 82, Type (0, 0), None
#     Edge 83, Type (0, 0), None
#     Edge 84, Type (0, 0), None
#     Edge 85, Type (0, 0), None
#     Edge 86, Type (0, 0), None
#     Edge 87, Type (0, 0), None
#     Edge 88, Type (0, 0), None
#     Edge 89, Type (0, 0), None
#     Edge 90, Type (0, 0), None
#     Edge 91, Type (0, 0), None
#     Edge 92, Type (0, 0), None
#     Edge 93, Type (0, 0), None
#     Edge 94, Type (0, 0), None
#     Edge 95, Type (0, 0), None
#     Edge 96, Type (0, 0), None
#     Edge 97, Type (0, 0), None
#     Edge 98, Type (0, 0), None
#     Edge 99, Type (0, 0), None
#     Edge 100, Type (0, 0), None
#     Edge 101, Type (0, 0), None
#     Edge 102, Type (0, 0), None
#     Edge 103, Type (0, 0), None
#     Edge 104, Type (0, 0), None
#     Edge 105, Type (0, 0), None
#     Edge 106, Type (0, 0), None
#     Edge 107, Type (0, 0), None
#     Edge 108, Type (0, 0), None
#     Edge 109, Type (0, 0), None
#     Edge 110, Type (0, 0), None
#     Edge 111, Type (0, 0), None
#     Edge 112, Type (0, 0), None
#     Edge 113, Type (0, 0), None
#     Edge 114, Type (0, 0), None
#     Edge 115, Type (0, 0), None
#     Edge 116, Type (0, 0), None
#     Edge 117, Type (0, 0), None
#     Edge 118, Type (0, 0), None
#     Edge 119, Type (0, 0), None
#     Edge 120, Type (0, 0), None
#     Edge 121, Type (0, 0), None
#     Edge 122, Type (0, 0), None
#     Edge 123, Type (0, 0), None
#     Edge 124, Type (0, 0), None
#     Edge 125, Type (0, 0), None
#     Edge 126, Type (0, 0), None
#     Edge 127, Type (0, 0), None
# Relax obj value: 1.054
# Max RMSD: 0.281
# Mean RMSD: 0.244
data_MOF--net-wir--node1-JUFBIX_clean_sbu_0--edge1-none
_symmetry_space_group_name_H-M    P1
_symmetry_Int_Tables_number       1
_symmetry_cell_setting            triclinic
loop_
_symmetry_equiv_pos_as_xyz
'x, y, z'
_cell_length_a     18.690973
_cell_length_b     14.999945
_cell_length_c     43.376365
_cell_angle_alpha  98.893906
_cell_angle_beta   90.001909
_cell_angle_gamma 89.998778
loop_
_atom_site_label
_atom_site_type_symbol
_atom_site_fract_x
_atom_site_fract_y
_atom_site_fract_z
_atom_type_partial_charge
Co0 Co 0.34926 0.29215 0.38766 0.0
C1 C 0.22081 0.37254 0.36193 0.0
Co2 Co 0.25449 0.21557 0.38945 0.0
C3 C 0.44303 0.33386 0.34522 0.0
C4 C 0.41972 0.44496 0.37894 0.0
N5 N 0.4329 0.35564 0.37633 0.0
N6 N 0.40556 0.38845 0.32929 0.0
C7 C 0.39711 0.46354 0.35033 0.0
H8 H 0.46239 0.26822 0.33464 0.0
H9 H 0.40388 0.48535 0.40053 0.0
C10 C 0.37464 0.15965 0.43237 0.0
N11 N 0.17339 0.16258 0.39437 0.0
C12 C 1.1135 0.21076 0.39926 0.0
C13 C 0.15565 1.0765 0.39501 0.0
N14 N 1.06056 0.16209 0.40793 0.0
C15 C 1.08487 1.07581 0.40297 0.0
C16 C 0.31401 0.14402 0.3344 0.0
O17 O 0.40766 0.20991 0.41487 0.0
O18 O 0.30938 0.14244 0.42228 0.0
O19 O 0.2671 0.12365 0.35293 0.0
O20 O 0.35599 0.20672 0.34582 0.0
O21 O 0.19895 0.29241 0.36254 0.0
H22 H 0.19276 1.02056 0.3926 0.0
H23 H 1.11269 0.28393 0.40303 0.0
O24 O 0.28613 0.38354 0.36898 0.0
O25 O 0.33799 0.36978 0.42317 0.0
O26 O 0.23318 0.3057 0.42313 0.0
C27 C 0.27324 0.37212 0.4317 0.0
H28 H 0.36061 0.51773 0.34767 0.0
H29 H 1.0575 1.01915 0.41043 0.0
Co30 Co 0.26739 1.04542 0.64529 0.0
C31 C 0.18793 0.88529 0.62742 0.0
Co32 Co 0.32341 0.92735 0.65852 0.0
C33 C 0.21115 1.10014 0.59057 0.0
C34 C 0.1815 0.19917 0.62921 0.0
N35 N 0.22968 0.13244 0.62097 0.0
N36 N 0.15204 0.13928 0.58055 0.0
C37 C 0.13424 0.20347 0.6046 0.0
H38 H 0.23313 1.0388 0.57769 0.0
H39 H 0.17434 0.23364 0.65278 0.0
C40 C 0.39606 1.06953 0.68933 0.0
N41 N 0.35137 0.81744 0.66909 0.0
C42 C 0.30608 0.80734 0.69129 0.0
C43 C 0.34082 0.74157 0.64779 0.0
N44 N 0.25572 0.74465 0.68225 0.0
C45 C 0.27998 0.69715 0.65558 0.0
C46 C 0.36807 0.94913 0.60583 0.0
O47 O 0.35023 1.11365 0.67408 0.0
O48 O 0.40167 0.98525 0.68029 0.0
O49 O 0.37602 0.89259 0.62381 0.0
O50 O 0.32817 1.01559 0.61312 0.0
O51 O 0.24356 0.8619 0.63958 0.0
H52 H 0.36868 0.72649 0.62573 0.0
H53 H 0.30703 0.85168 0.71306 0.0
O54 O 0.18458 0.96817 0.62474 0.0
O55 O 0.21222 1.0831 0.67558 0.0
O56 O 0.26601 0.97545 0.69596 0.0
C57 C 0.23009 1.04905 0.69908 0.0
H58 H 1.08669 0.24465 0.60549 0.0
H59 H 0.25478 0.63843 0.64238 0.0
Co60 Co 0.52637 0.99719 0.87594 0.0
C61 C 0.66697 0.95278 0.86135 0.0
Co62 Co 0.58136 1.11407 0.89084 0.0
C63 C 0.40854 0.91125 0.85646 0.0
C64 C 0.49435 0.81581 0.85156 0.0
N65 N 0.47309 0.89578 0.8674 0.0
N66 N 0.39627 0.85684 0.82998 0.0
C67 C 0.44718 0.79228 0.82769 0.0
H68 H 0.38173 0.97522 0.86208 0.0
H69 H 0.54729 0.78762 0.85242 0.0
C70 C 0.44427 0.13669 0.91667 0.0
N71 N 0.62925 0.22416 0.89668 0.0
C72 C 0.69929 0.23847 0.89949 0.0
C73 C 0.60168 0.30699 0.9063 0.0
N74 N 0.71156 0.30636 0.92328 0.0
C75 C 0.65461 0.36002 0.92106 0.0
C76 C 0.52307 1.11035 0.83265 0.0
O77 O 0.44314 1.0551 0.90363 0.0
O78 O 0.4941 0.18313 0.90691 0.0
O79 O 0.57228 0.14188 0.85073 0.0
O80 O 0.48904 1.04273 0.83917 0.0
O81 O 0.67341 1.03213 0.87813 0.0
H82 H 0.54574 0.32517 0.90699 0.0
H83 H 0.73586 0.18283 0.89354 0.0
O84 O 0.60422 0.93417 0.85134 0.0
O85 O 0.5672 0.95533 0.90961 0.0
O86 O 0.58719 1.09029 0.93301 0.0
C87 C 0.56361 1.01151 0.93423 0.0
H88 H 0.4574 0.74163 0.8076 0.0
H89 H 0.64402 0.4216 0.93692 0.0
Co90 Co 0.54372 0.16119 0.1357 0.0
C91 C 0.41787 0.14906 0.17968 0.0
Co92 Co 0.49661 0.23821 0.12353 0.0
C93 C 0.55483 1.055 0.17826 0.0
C94 C 0.57649 0.98039 0.13387 0.0
N95 N 0.57678 1.06469 0.15007 0.0
N96 N 0.54132 0.96887 0.18173 0.0
C97 C 0.55612 0.92082 0.15356 0.0
H98 H 0.54624 1.11217 0.19616 0.0
H99 H 0.58416 0.96421 0.10892 0.0
C100 C 0.62718 0.31737 0.12339 0.0
N101 N 0.42721 0.28459 0.10284 0.0
C102 C 0.40428 0.24763 0.07489 0.0
C103 C 0.425 0.37537 0.10284 0.0
N104 N 0.39373 0.31145 1.057 0.0
C105 C 0.40632 0.39189 0.07404 0.0
C106 C 0.50721 0.3114 0.17635 0.0
O107 O 0.63654 0.2364 0.13098 0.0
O108 O 0.56449 0.33414 0.11388 0.0
O109 O 0.4661 0.31253 0.15432 0.0
O110 O 0.55418 0.24863 0.17512 0.0
O111 O 0.43636 0.13244 0.14921 0.0
H112 H 0.44591 0.42625 0.12102 0.0
H113 H 0.40426 0.17568 1.06652 0.0
O114 O 0.43565 0.13323 0.15049 0.0
O115 O 0.63517 0.15277 0.10979 0.0
O116 O 0.53873 0.15214 0.08253 0.0
C117 C 0.60725 0.13566 0.08221 0.0
H118 H 0.55387 0.84821 0.14808 0.0
H119 H 0.40257 0.45682 1.06612 0.0
Co120 Co 0.34926 0.95377 0.24653 0.0
C121 C 0.22081 0.8734 0.27225 0.0
Co122 Co 0.25451 1.03042 0.24474 0.0
C123 C 0.44304 0.91205 0.28896 0.0
C124 C 0.41971 0.80094 0.25526 0.0
N125 N 0.4329 0.89026 0.25787 0.0
N126 N 0.40556 0.85747 0.3049 0.0
C127 C 0.3971 0.78238 0.28387 0.0
H128 H 0.4624 0.97769 0.29955 0.0
H129 H 0.40388 0.76054 0.23366 0.0
C130 C 0.37468 1.0864 0.20188 0.0
N131 N 0.1734 1.0834 0.23982 0.0
C132 C 1.11352 1.03519 0.23492 0.0
C133 C 0.15564 0.16947 0.23918 0.0
N134 N 1.06056 1.08385 0.22626 0.0
C135 C 1.08486 0.17013 0.23122 0.0
C136 C 0.314 1.1019 0.2998 0.0
O137 O 0.40767 1.03601 0.21935 0.0
O138 O 0.30939 1.1036 0.21193 0.0
O139 O 0.26712 1.12232 0.28126 0.0
O140 O 0.35598 1.03918 0.28838 0.0
O141 O 0.19897 0.95354 0.27164 0.0
H142 H 0.19273 0.22543 0.24159 0.0
H143 H 1.11273 0.96203 0.23115 0.0
O144 O 0.28613 0.86237 0.26521 0.0
O145 O 0.338 0.87616 0.21103 0.0
O146 O 0.23322 0.94032 0.21105 0.0
C147 C 0.27326 0.87388 0.20248 0.0
H148 H 0.36059 0.7282 0.28653 0.0
H149 H 1.05746 0.22678 0.22376 0.0
Co150 Co 0.54381 1.08458 0.49846 0.0
C151 C 0.41779 1.09681 0.45453 0.0
Co152 Co 0.49653 1.00781 0.51066 0.0
C153 C 0.55467 0.19086 0.4559 0.0
C154 C 0.57662 0.26542 0.50027 0.0
N155 N 0.57673 0.18112 0.48406 0.0
N156 N 0.54126 0.27703 0.45244 0.0
C157 C 0.55622 0.32503 0.4806 0.0
H158 H 0.54605 0.1337 0.438 0.0
H159 H 0.58446 0.28159 0.52521 0.0
C160 C 0.62727 0.92866 0.51078 0.0
N161 N 0.42727 0.96128 0.53136 0.0
C162 C 0.40425 0.99824 0.5593 0.0
C163 C 0.42513 0.87051 0.53137 0.0
N164 N 0.39363 0.93441 0.57718 0.0
C165 C 0.40634 0.85397 0.56016 0.0
C166 C 0.50721 0.93447 0.45783 0.0
O167 O 0.63669 1.00961 0.50319 0.0
O168 O 0.56456 0.91196 0.52028 0.0
O169 O 0.46604 0.93346 0.47986 0.0
O170 O 0.55427 0.99714 0.45905 0.0
O171 O 0.436 1.1134 0.48504 0.0
H172 H 0.44612 0.81965 0.5132 0.0
H173 H 0.4042 1.07019 0.56767 0.0
O174 O 0.43568 1.1122 0.4837 0.0
O175 O 0.63521 1.09323 0.5244 0.0
O176 O 0.53869 1.09392 0.55164 0.0
C177 C 0.60725 1.11032 0.55198 0.0
H178 H 0.55408 0.39764 0.48608 0.0
H179 H 0.40261 0.78906 0.56808 0.0
Co180 Co 0.52635 0.24876 0.75825 0.0
C181 C 0.66696 0.29318 0.77284 0.0
Co182 Co 0.58136 0.13188 0.74334 0.0
C183 C 0.40853 0.3347 0.77773 0.0
C184 C 0.49433 0.43014 0.78262 0.0
N185 N 0.47307 0.35017 0.76678 0.0
N186 N 0.39627 0.38909 0.80421 0.0
C187 C 0.44718 0.45366 0.8065 0.0
H188 H 0.38172 0.27074 0.7721 0.0
H189 H 0.54727 0.45834 0.78176 0.0
C190 C 0.44429 1.10925 0.71751 0.0
N191 N 0.62927 1.0218 0.73751 0.0
C192 C 0.69931 1.0075 0.73471 0.0
C193 C 0.60171 0.93896 0.72789 0.0
N194 N 0.7116 0.9396 0.71093 0.0
C195 C 0.65465 0.88593 0.71315 0.0
C196 C 0.52308 0.13562 0.80154 0.0
O197 O 0.44313 0.19083 0.73056 0.0
O198 O 0.49412 1.0628 0.72726 0.0
O199 O 0.57227 1.10407 0.78346 0.0
O200 O 0.48903 0.20324 0.79502 0.0
O201 O 0.6734 0.21383 0.75606 0.0
H202 H 0.54577 0.92077 0.72719 0.0
H203 H 0.73588 1.06313 0.74067 0.0
O204 O 0.60421 0.31179 0.78284 0.0
O205 O 0.56719 0.2906 0.72458 0.0
O206 O 0.58722 0.15565 0.70118 0.0
C207 C 0.56361 0.23442 0.69996 0.0
H208 H 0.4574 0.5043 0.82659 0.0
H209 H 0.64408 0.82434 0.69729 0.0
Co210 Co 0.2674 0.20052 0.98889 0.0
C211 C 0.18798 0.36067 1.00677 0.0
Co212 Co 0.32344 0.31857 0.97567 0.0
C213 C 0.21114 0.14581 1.04361 0.0
C214 C 0.18151 1.04677 1.00498 0.0
N215 N 0.22968 1.11351 1.01323 0.0
N216 N 0.15204 1.10666 1.05364 0.0
C217 C 0.13425 1.04246 1.02959 0.0
H218 H 0.23312 0.20715 1.05649 0.0
H219 H 0.17436 1.01229 0.98141 0.0
C220 C 0.39607 0.1764 0.94485 0.0
N221 N 0.35139 0.42849 0.96509 0.0
C222 C 0.3061 0.4386 0.9429 0.0
C223 C 0.34084 0.50436 0.9864 0.0
N224 N 0.25573 0.50129 0.95194 0.0
C225 C 0.28001 0.54879 0.97861 0.0
C226 C 0.36813 0.29676 1.02836 0.0
O227 O 0.35024 0.13228 0.9601 0.0
O228 O 0.40168 0.26067 0.9539 0.0
O229 O 0.37607 0.35332 1.01038 0.0
O230 O 0.32819 0.23034 1.02107 0.0
O231 O 0.24362 0.38402 0.99462 0.0
H232 H 0.36871 0.51944 1.00846 0.0
H233 H 0.30704 0.39425 0.92113 0.0
O234 O 0.18459 0.2778 1.00945 0.0
O235 O 0.21222 0.16285 0.95861 0.0
O236 O 0.26601 0.27048 0.93822 0.0
C237 C 0.23009 0.19688 0.93511 0.0
H238 H 1.0867 1.00127 1.0287 0.0
H239 H 0.25481 0.60751 0.99181 0.0
Co240 Co 1.00698 1.03034 0.74475 0.0
C241 C 0.88681 1.08624 0.70182 0.0
Co242 Co 0.9122 0.95376 0.74653 0.0
C243 C 0.14796 1.03516 0.73492 0.0
C244 C 1.10576 0.16944 0.73915 0.0
N245 N 1.08807 1.08334 0.73983 0.0
N246 N 0.20079 1.0839 0.72621 0.0
C247 C 0.17652 0.17019 0.73115 0.0
H248 H 0.1488 0.962 0.73116 0.0
H249 H 1.06862 0.22535 0.74155 0.0
C250 C 1.04066 0.87337 0.77226 0.0
N251 N 0.82857 0.89026 0.75787 0.0
C252 C 0.81844 0.91204 0.78897 0.0
C253 C 0.84176 0.80094 0.75526 0.0
N254 N 0.85592 0.85745 0.8049 0.0
C255 C 0.86438 0.78236 0.78387 0.0
C256 C 0.98823 0.8738 0.7025 0.0
O257 O 1.06253 0.9535 0.77165 0.0
O258 O 0.97534 0.86238 0.76522 0.0
O259 O 0.92348 0.87612 0.71103 0.0
O260 O 1.02828 0.94023 0.71106 0.0
O261 O 0.85379 1.03598 0.71932 0.0
H262 H 0.85759 0.76056 0.73366 0.0
H263 H 0.79908 0.97767 0.79956 0.0
O264 O 0.95207 1.10347 0.71192 0.0
O265 O 0.99436 1.12226 0.78126 0.0
O266 O 0.90546 1.03921 0.78838 0.0
C267 C 0.94744 1.10191 0.79979 0.0
H268 H 0.20385 0.2268 0.72364 0.0
H269 H 0.90088 0.72817 0.78652 0.0
Co270 Co 0.93806 0.31858 0.47567 0.0
C271 C 0.86541 0.17639 0.44486 0.0
Co272 Co 0.99411 0.20051 0.48888 0.0
C273 C 0.95532 0.43863 0.44291 0.0
C274 C 0.92064 0.50436 0.48642 0.0
N275 N 0.91006 0.4285 0.46511 0.0
N276 N 1.00571 0.5013 0.45194 0.0
C277 C 0.98147 0.54879 0.47862 0.0
H278 H 0.95435 0.39431 0.42112 0.0
H279 H 0.8928 0.51943 0.50848 0.0
C280 C 1.07357 0.36064 0.50675 0.0
N281 N 1.03188 1.11348 0.51319 0.0
C282 C 1.05044 0.1458 0.54358 0.0
C283 C 1.08008 1.04678 0.50494 0.0
N284 N 1.10964 1.10679 0.55357 0.0
C285 C 1.1274 1.04254 0.52953 0.0
C286 C 1.03133 0.19694 0.43508 0.0
O287 O 1.01794 0.38403 0.49459 0.0
O288 O 1.07692 0.27777 0.50943 0.0
O289 O 1.04928 0.16289 0.45857 0.0
O290 O 0.9954 0.27052 0.43821 0.0
O291 O 0.91127 0.13227 0.4601 0.0
H292 H 1.08722 1.0123 0.48136 0.0
H293 H 1.02842 0.2071 0.55647 0.0
O294 O 0.85979 0.26066 0.45392 0.0
O295 O 0.88551 0.35331 0.51039 0.0
O296 O 0.93335 0.23028 0.52106 0.0
C297 C 0.89347 0.29676 0.52837 0.0
H298 H 1.0067 0.60748 0.49182 0.0
H299 H 0.17498 1.00139 0.52864 0.0
Co300 Co 0.68011 0.13184 0.24335 0.0
C301 C 0.8172 1.10925 0.21751 0.0
Co302 Co 0.73509 0.24873 0.25825 0.0
C303 C 0.56218 1.00749 0.23468 0.0
C304 C 0.65982 0.93892 0.22783 0.0
N305 N 0.63222 1.02173 0.2375 0.0
N306 N 0.54996 0.93958 0.21091 0.0
C307 C 0.60692 0.88588 0.21304 0.0
H308 H 0.52561 1.06314 0.24063 0.0
H309 H 0.71577 0.92076 0.22711 0.0
C310 C 0.59449 0.29313 0.27285 0.0
N311 N 0.78836 0.35015 0.26679 0.0
C312 C 0.85291 0.33469 0.27773 0.0
C313 C 0.76709 0.43011 0.28262 0.0
N314 N 0.86518 0.3891 0.3042 0.0
C315 C 0.81427 0.45366 0.30649 0.0
C316 C 0.69782 0.23441 0.19996 0.0
O317 O 0.58806 0.21378 0.25606 0.0
O318 O 0.65724 0.31173 0.28285 0.0
O319 O 0.69423 0.29058 0.22458 0.0
O320 O 0.67425 0.15562 0.20118 0.0
O321 O 0.81832 0.19084 0.23055 0.0
H322 H 0.71415 0.4583 0.28177 0.0
H323 H 0.87973 0.27073 0.2721 0.0
O324 O 0.76738 1.0628 0.22727 0.0
O325 O 0.68921 1.10403 0.28346 0.0
O326 O 0.77244 0.2032 0.29501 0.0
C327 C 0.73841 0.13557 0.30154 0.0
H328 H 0.6175 0.82439 0.19713 0.0
H329 H 0.80405 0.50431 0.32658 0.0
Co330 Co 0.7649 1.00775 1.01066 0.0
C331 C 0.6343 0.92859 1.01079 0.0
Co332 Co 0.71775 1.08474 0.99849 0.0
C333 C 0.85725 0.99833 1.05929 0.0
C334 C 0.8365 0.87059 1.03135 0.0
N335 N 0.83428 0.96136 1.03134 0.0
N336 N 0.86783 0.93451 0.07718 0.0
C337 C 0.85522 0.85407 1.06015 0.0
H338 H 0.85726 1.07028 0.06766 0.0
H339 H 0.81556 0.8197 1.01318 0.0
C340 C 0.84351 1.09696 0.9545 0.0
N341 N 0.68471 0.18124 0.98412 0.0
C342 C 0.70656 0.19091 0.95592 0.0
C343 C 0.68499 0.26556 1.00032 0.0
N344 N 0.71995 0.27705 0.95246 0.0
C345 C 0.70528 0.32516 0.98062 0.0
C346 C 0.65425 1.11026 1.05199 0.0
O347 O 0.82517 1.11349 0.98499 0.0
O348 O 0.82583 1.11266 0.98369 0.0
O349 O 0.62632 1.09318 1.0244 0.0
O350 O 0.72278 1.09382 1.05166 0.0
O351 O 0.62493 1.00956 1.0032 0.0
H352 H 0.67739 0.28174 1.02528 0.0
H353 H 0.71514 0.13376 0.93801 0.0
O354 O 0.69699 0.91183 1.0203 0.0
O355 O 0.79541 0.93344 0.97987 0.0
O356 O 0.70728 0.99729 0.95907 0.0
C357 C 0.75428 0.93454 0.95784 0.0
H358 H 0.85897 0.78915 0.06807 0.0
H359 H 0.70754 0.39777 0.98608 0.0
Co360 Co 1.00696 0.21553 0.88945 0.0
C361 C 0.88677 0.15959 0.93231 0.0
Co362 Co 0.91221 0.29219 0.88765 0.0
C363 C 0.14794 0.21075 0.89928 0.0
C364 C 1.10578 1.07645 0.89504 0.0
N365 N 1.08806 0.16254 0.89437 0.0
N366 N 0.20079 0.16202 0.90798 0.0
C367 C 0.17654 1.07573 0.90304 0.0
H368 H 0.14876 0.28391 0.90304 0.0
H369 H 1.06865 1.02053 0.89264 0.0
C370 C 1.04066 0.37254 0.86193 0.0
N371 N 0.82857 0.35571 0.87631 0.0
C372 C 0.81843 0.33392 0.84522 0.0
C373 C 0.84176 0.44502 0.87893 0.0
N374 N 0.85592 0.3885 0.82928 0.0
C375 C 0.86438 0.46358 0.85031 0.0
C376 C 0.98822 0.37206 0.9317 0.0
O377 O 1.06251 0.29241 0.86255 0.0
O378 O 0.97534 0.38357 0.86897 0.0
O379 O 0.92348 0.3698 0.92315 0.0
O380 O 1.02825 0.30561 0.92314 0.0
O381 O 0.85379 0.20998 0.91484 0.0
H382 H 0.8576 0.48541 0.90052 0.0
H383 H 0.79907 0.26828 0.83463 0.0
O384 O 0.95205 0.14236 0.92226 0.0
O385 O 0.99433 0.12363 0.85293 0.0
O386 O 0.90548 0.20677 0.8458 0.0
C387 C 0.94745 0.14404 0.83439 0.0
H388 H 0.20389 1.01912 0.91055 0.0
H389 H 0.90089 0.51776 0.84766 0.0
Co390 Co 0.76496 0.2381 0.62353 0.0
C391 C 0.63422 0.31726 0.62342 0.0
Co392 Co 0.71767 0.16132 0.63573 0.0
C393 C 0.85728 0.24765 0.5749 0.0
C394 C 0.83638 0.37538 0.60282 0.0
N395 N 0.83422 0.28461 0.60283 0.0
N396 N 0.86792 0.31148 0.55702 0.0
C397 C 0.8552 0.39191 0.57404 0.0
H398 H 0.85733 0.1757 0.56653 0.0
H399 H 0.81537 0.42624 0.62099 0.0
C400 C 0.84366 0.14908 0.67967 0.0
N401 N 0.68474 1.0648 0.65012 0.0
C402 C 0.70673 1.05509 0.67829 0.0
C403 C 0.68485 0.98048 0.63392 0.0
N404 N 0.72001 0.96891 0.68175 0.0
C405 C 0.70517 0.92084 0.65359 0.0
C406 C 0.65423 0.13564 0.58221 0.0
O407 O 0.82546 0.13249 0.64915 0.0
O408 O 0.82579 0.13368 0.65049 0.0
O409 O 0.62627 0.1527 0.60978 0.0
O410 O 0.72279 0.152 0.58254 0.0
O411 O 0.6248 0.23631 0.631 0.0
H412 H 0.67709 0.96431 0.60897 0.0
H413 H 0.71537 1.11223 0.6962 0.0
O414 O 0.69694 0.33396 0.61392 0.0
O415 O 0.79545 0.31244 0.65433 0.0
O416 O 0.70721 0.24878 0.67514 0.0
C417 C 0.75428 0.31145 0.67635 0.0
H418 H 0.85893 0.45683 0.56611 0.0
H419 H 0.70732 0.84823 0.64813 0.0
Co420 Co 0.68011 1.11407 0.39085 0.0
C421 C 0.81718 0.13668 0.41669 0.0
Co422 Co 0.7351 0.99718 0.37594 0.0
C423 C 0.56216 0.2384 0.39949 0.0
C424 C 0.65979 0.30699 0.40636 0.0
N425 N 0.63221 0.22417 0.39669 0.0
N426 N 0.54992 0.30632 0.42326 0.0
C427 C 0.60687 0.36003 0.42113 0.0
H428 H 0.52559 0.18276 0.39353 0.0
H429 H 0.71573 0.32516 0.40708 0.0
C430 C 0.5945 0.95277 0.36134 0.0
N431 N 0.78838 0.89576 0.36741 0.0
C432 C 0.85292 0.91122 0.35646 0.0
C433 C 0.76711 0.8158 0.35157 0.0
N434 N 0.86518 0.85682 0.32999 0.0
C435 C 0.81427 0.79227 0.3277 0.0
C436 C 0.69783 1.01152 0.43423 0.0
O437 O 0.58806 1.03213 0.37813 0.0
O438 O 0.65725 0.93417 0.35134 0.0
O439 O 0.69424 0.95535 0.40961 0.0
O440 O 0.67423 1.0903 0.43301 0.0
O441 O 0.81833 1.05509 0.40364 0.0
H442 H 0.71417 0.78761 0.35242 0.0
H443 H 0.87974 0.97518 0.36209 0.0
O444 O 0.76736 0.18313 0.40693 0.0
O445 O 0.68921 0.14189 0.35073 0.0
O446 O 0.77245 1.0427 0.33918 0.0
C447 C 0.73841 1.11032 0.33265 0.0
H448 H 0.61743 0.42154 0.43703 0.0
H449 H 0.80404 0.74163 0.3076 0.0
Co450 Co 0.93803 0.92736 0.15852 0.0
C451 C 0.8654 1.06954 0.18933 0.0
Co452 Co 0.9941 1.04541 0.14531 0.0
C453 C 0.95531 0.80729 0.19128 0.0
C454 C 0.92062 0.74157 0.14777 0.0
N455 N 0.91004 0.81743 0.16908 0.0
N456 N 1.00569 0.74463 0.18224 0.0
C457 C 0.98144 0.69714 0.15557 0.0
H458 H 0.95434 0.85162 0.21306 0.0
H459 H 0.89277 0.72651 0.12571 0.0
C460 C 1.07352 0.88526 0.12744 0.0
N461 N 1.03188 0.13244 0.12099 0.0
C462 C 1.05045 1.10011 0.09061 0.0
C463 C 1.08007 0.19914 0.12925 0.0
N464 N 1.10964 0.13914 0.08062 0.0
C465 C 1.12739 0.20339 0.10466 0.0
C466 C 1.03133 1.04899 0.19911 0.0
O467 O 1.01788 0.86191 0.13959 0.0
O468 O 1.07691 0.96813 0.12476 0.0
O469 O 1.04928 1.08303 0.17561 0.0
O470 O 0.9954 0.97541 0.19598 0.0
O471 O 0.91126 1.11366 0.17409 0.0
H472 H 1.0872 0.23364 0.15282 0.0
H473 H 1.02843 1.03881 0.07772 0.0
O474 O 0.85977 0.98527 0.18028 0.0
O475 O 0.88546 0.89264 0.1238 0.0
O476 O 0.93333 1.01565 0.11312 0.0
C477 C 0.89342 0.94921 0.10582 0.0
H478 H 1.00666 0.63844 0.14236 0.0
H479 H 0.17496 0.24455 0.10555 0.0
Co480 Co 0.84925 0.79219 0.88765 0.0
C481 C 0.72076 0.87252 0.86194 0.0
Co482 Co 0.75448 0.71557 0.88944 0.0
C483 C 0.94293 0.8339 0.84518 0.0
C484 C 0.91967 0.94503 0.8789 0.0
N485 N 0.93289 0.8557 0.87629 0.0
N486 N 0.9053 0.88845 0.82929 0.0
C487 C 0.89695 0.9636 0.8503 0.0
H488 H 0.96229 0.76828 0.83458 0.0
H489 H 0.90392 0.98542 0.9005 0.0
C490 C 0.87466 0.65969 0.93236 0.0
N491 N 0.67339 0.66256 0.89437 0.0
C492 C 0.61349 0.71072 0.89926 0.0
C493 C 0.65568 0.57648 0.89501 0.0
N494 N 0.56057 0.66203 0.90792 0.0
C495 C 0.5849 0.57577 0.90297 0.0
C496 C 0.81399 0.64401 0.8344 0.0
O497 O 0.90768 0.70998 0.91486 0.0
O498 O 0.8094 0.64245 0.92227 0.0
O499 O 0.76708 0.62365 0.85293 0.0
O500 O 0.85598 0.70671 0.84581 0.0
O501 O 0.6989 0.79239 0.86253 0.0
H502 H 0.6928 0.52055 0.8926 0.0
H503 H 0.61267 0.78389 0.90301 0.0
O504 O 0.78608 0.88354 0.86897 0.0
O505 O 0.83799 0.86985 0.92315 0.0
O506 O 0.73318 0.80569 0.92313 0.0
C507 C 0.77324 0.87213 0.93168 0.0
H508 H 0.86045 1.0178 0.84765 0.0
H509 H 0.55754 0.51911 0.91044 0.0
Co510 Co 0.76738 0.54547 0.1453 0.0
C511 C 0.68793 0.38534 0.12744 0.0
Co512 Co 0.82341 0.42742 0.15853 0.0
C513 C 0.71115 0.60017 0.09058 0.0
C514 C 0.68147 0.69919 0.12921 0.0
N515 N 0.72967 0.63248 0.12097 0.0
N516 N 0.65203 0.63929 0.08055 0.0
C517 C 0.63421 0.70347 0.1046 0.0
H518 H 0.73315 0.53885 0.0777 0.0
H519 H 0.6743 0.73366 0.15279 0.0
C520 C 0.89602 0.56963 0.18936 0.0
N521 N 0.85135 0.31751 0.16912 0.0
C522 C 0.80604 0.30737 0.1913 0.0
C523 C 0.84084 0.24164 0.14781 0.0
N524 N 0.75572 0.24463 0.18226 0.0
C525 C 0.78001 0.19717 0.15559 0.0
C526 C 0.86809 0.4492 0.10584 0.0
O527 O 0.85019 0.61373 0.1741 0.0
O528 O 0.90165 0.48535 0.18031 0.0
O529 O 0.87603 0.39266 0.12382 0.0
O530 O 0.82818 0.51565 0.11314 0.0
O531 O 0.74357 0.36194 0.13959 0.0
H532 H 0.86873 0.22659 0.12575 0.0
H533 H 0.80693 0.35173 0.21307 0.0
O534 O 0.68459 0.4682 0.12473 0.0
O535 O 0.71218 0.58313 0.17558 0.0
O536 O 0.766 0.47551 0.19597 0.0
C537 C 0.73007 0.5491 0.19908 0.0
H538 H 0.58665 0.74464 0.10549 0.0
H539 H 0.75483 0.13847 0.14237 0.0
Co540 Co 1.02633 0.49712 0.37594 0.0
C541 C 0.16701 0.45279 0.36139 0.0
Co542 Co 1.08137 0.61401 0.39084 0.0
C543 C 0.90877 0.41119 0.35621 0.0
C544 C 0.99467 0.31586 0.35145 0.0
N545 N 0.97307 0.39558 0.36738 0.0
N546 N 0.8973 0.3574 0.32953 0.0
C547 C 0.9482 0.29287 0.32728 0.0
H548 H 0.88174 0.47497 0.36194 0.0
H549 H 1.04756 0.28768 0.35248 0.0
C550 C 0.94421 0.63656 0.41664 0.0
N551 N 1.12921 0.72415 0.3967 0.0
C552 C 0.19924 0.73851 0.39949 0.0
C553 C 1.1016 0.80695 0.40633 0.0
N554 N 0.2115 0.80641 0.42328 0.0
C555 C 0.15452 0.86003 0.42107 0.0
C556 C 1.02315 0.61033 0.33264 0.0
O557 O 0.94305 0.55496 0.4036 0.0
O558 O 0.99406 0.68299 0.40689 0.0
O559 O 1.07236 0.64181 0.35073 0.0
O560 O 0.98907 0.54275 0.33916 0.0
O561 O 0.17347 0.53214 0.37817 0.0
H562 H 1.04564 0.82509 0.40704 0.0
H563 H 0.23584 0.68291 0.39354 0.0
O564 O 1.10427 0.43422 0.35136 0.0
O565 O 1.06711 0.45525 0.40961 0.0
O566 O 1.08716 0.59026 0.43301 0.0
C567 C 1.06359 0.51147 0.43422 0.0
H568 H 0.95895 0.24274 0.3071 0.0
H569 H 0.14391 0.92159 0.43694 0.0
Co570 Co 1.04371 0.66117 0.6357 0.0
C571 C 0.91792 0.649 0.67969 0.0
Co572 Co 0.9966 0.73819 0.62352 0.0
C573 C 1.05486 0.55497 0.67826 0.0
C574 C 1.07649 0.48037 0.63387 0.0
N575 N 1.07678 0.56467 0.65007 0.0
N576 N 1.04135 0.46884 0.68173 0.0
C577 C 1.05613 0.4208 0.65355 0.0
H578 H 1.0463 0.61214 0.69617 0.0
H579 H 1.08414 0.4642 0.60891 0.0
C580 C 1.12717 0.81735 0.62339 0.0
N581 N 0.92721 0.78455 0.60283 0.0
C582 C 0.90429 0.74758 0.57488 0.0
C583 C 0.92499 0.87533 0.60283 0.0
N584 N 0.89374 0.81139 0.55699 0.0
C585 C 0.90632 0.89184 0.57402 0.0
C586 C 1.00719 0.81138 0.67634 0.0
O587 O 0.13653 0.73638 0.63098 0.0
O588 O 1.06448 0.83411 0.61387 0.0
O589 O 0.96609 0.81251 0.65431 0.0
O590 O 1.05417 0.74861 0.67512 0.0
O591 O 0.93635 0.63242 0.64921 0.0
H592 H 0.94589 0.92622 0.621 0.0
H593 H 0.90428 0.67563 0.56651 0.0
O594 O 0.93565 0.63321 0.6505 0.0
O595 O 0.13516 0.65275 0.60979 0.0
O596 O 1.03872 0.65211 0.58253 0.0
C597 C 1.10724 0.63564 0.58221 0.0
H598 H 1.05387 0.34819 0.64808 0.0
H599 H 0.90257 0.95676 0.5661 0.0
Co600 Co 0.84925 0.45373 0.74654 0.0
C601 C 0.72076 0.37342 0.77224 0.0
Co602 Co 0.7545 0.53042 0.74474 0.0
C603 C 0.94293 0.412 0.78901 0.0
C604 C 0.91967 0.30087 0.75529 0.0
N605 N 0.93289 0.3902 0.7579 0.0
N606 N 0.90531 0.35747 0.8049 0.0
C607 C 0.89695 0.28231 0.7839 0.0
H608 H 0.9623 0.47763 0.7996 0.0
H609 H 0.90391 0.26047 0.73369 0.0
C610 C 0.8747 0.58635 0.70189 0.0
N611 N 0.67341 0.58342 0.73982 0.0
C612 C 0.61351 0.53524 0.73493 0.0
C613 C 0.65567 0.6695 0.73917 0.0
N614 N 0.56057 0.58391 0.72626 0.0
C615 C 0.58489 0.67018 0.73121 0.0
C616 C 0.81399 0.6019 0.7998 0.0
O617 O 0.90768 0.53595 0.71935 0.0
O618 O 0.80942 0.60358 0.71194 0.0
O619 O 0.76711 0.62232 0.78126 0.0
O620 O 0.85596 0.53918 0.78839 0.0
O621 O 0.69892 0.45356 0.77164 0.0
H622 H 0.69277 0.72544 0.74158 0.0
H623 H 0.61271 0.46207 0.73117 0.0
O624 O 0.78608 0.36238 0.76522 0.0
O625 O 0.83799 0.3761 0.71105 0.0
O626 O 0.73322 0.44033 0.71105 0.0
C627 C 0.77325 0.37387 0.7025 0.0
H628 H 0.86043 0.22813 0.78654 0.0
H629 H 0.55751 0.72684 0.72375 0.0
Co630 Co 1.0438 0.58461 0.99845 0.0
C631 C 0.91781 0.59686 0.95452 0.0
Co632 Co 0.99652 0.50784 1.01067 0.0
C633 C 1.05469 0.69089 0.9559 0.0
C634 C 1.07661 0.76543 1.00027 0.0
N635 N 1.07674 0.68114 0.98407 0.0
N636 N 1.04129 0.77706 0.95244 0.0
C637 C 1.05622 0.82505 0.98061 0.0
H638 H 1.04609 0.63373 0.93799 0.0
H639 H 1.08443 0.7816 1.02522 0.0
C640 C 1.12725 0.42868 1.01078 0.0
N641 N 0.92726 0.46133 1.03137 0.0
C642 C 0.90426 0.49829 1.05931 0.0
C643 C 0.92511 0.37056 1.03138 0.0
N644 N 0.89365 0.43447 0.07719 0.0
C645 C 0.90635 0.35403 1.06017 0.0
C646 C 1.00719 0.4345 0.95784 0.0
O647 O 0.13667 0.50962 1.00319 0.0
O648 O 1.06454 0.41198 1.02028 0.0
O649 O 0.96603 0.43349 0.97987 0.0
O650 O 1.05426 0.49715 0.95905 0.0
O651 O 0.93601 0.61345 0.98503 0.0
H652 H 0.94608 0.31969 1.01321 0.0
H653 H 0.90421 0.57025 0.06768 0.0
O654 O 0.93568 0.61225 0.98369 0.0
O655 O 0.1352 0.59324 1.0244 0.0
O656 O 1.03869 0.59394 1.05164 0.0
C657 C 1.10724 0.61033 1.05198 0.0
H658 H 1.05409 0.89766 0.98609 0.0
H659 H 0.90262 0.28912 0.0681 0.0
Co660 Co 1.02632 0.74882 0.25825 0.0
C661 C 0.167 0.79316 0.2728 0.0
Co662 Co 1.08138 0.63193 0.24334 0.0
C663 C 0.90875 0.83476 0.27797 0.0
C664 C 0.99464 0.93008 0.28273 0.0
N665 N 0.97305 0.85037 0.2668 0.0
N666 N 0.89728 0.88854 0.30466 0.0
C667 C 0.94818 0.95307 0.30691 0.0
H668 H 0.88172 0.77098 0.27224 0.0
H669 H 1.04753 0.95827 0.2817 0.0
C670 C 0.94423 0.60938 0.21753 0.0
N671 N 1.12923 0.52181 0.23749 0.0
C672 C 0.19926 0.50745 0.23471 0.0
C673 C 1.10163 0.439 0.22786 0.0
N674 N 0.21155 0.43956 0.21093 0.0
C675 C 0.15457 0.38593 0.21313 0.0
C676 C 1.02316 0.63564 0.30154 0.0
O677 O 0.94304 0.69097 0.23059 0.0
O678 O 0.99408 0.56294 0.22729 0.0
O679 O 1.07236 0.60413 0.28346 0.0
O680 O 0.98907 0.70322 0.29502 0.0
O681 O 0.17346 0.71381 0.25602 0.0
H682 H 1.04568 0.42085 0.22714 0.0
H683 H 0.23586 0.56305 0.24068 0.0
O684 O 1.10427 0.81175 0.28283 0.0
O685 O 1.06711 0.79068 0.22458 0.0
O686 O 1.08719 0.65568 0.20117 0.0
C687 C 1.06359 0.73446 0.19997 0.0
H688 H 0.95893 1.0032 0.32709 0.0
H689 H 0.14398 0.32434 0.19727 0.0
Co690 Co 0.76739 0.70047 0.48889 0.0
C691 C 0.68798 0.86063 0.50675 0.0
Co692 Co 0.82344 0.8185 0.47565 0.0
C693 C 0.71114 0.64578 0.54361 0.0
C694 C 0.68148 0.54675 0.50498 0.0
N695 N 0.72967 0.61346 0.51322 0.0
N696 N 0.65203 0.60665 0.55364 0.0
C697 C 0.63422 0.54246 0.52959 0.0
H698 H 0.73314 0.7071 0.55649 0.0
H699 H 0.67431 0.51227 0.4814 0.0
C700 C 0.89603 0.67629 0.44483 0.0
N701 N 0.85137 0.92842 0.46507 0.0
C702 C 0.80606 0.93856 0.44289 0.0
C703 C 0.84087 1.00428 0.48638 0.0
N704 N 0.75574 1.00131 0.45193 0.0
C705 C 0.78004 1.04876 0.4786 0.0
C706 C 0.86814 0.79669 0.52834 0.0
O707 O 0.8502 0.6322 0.46009 0.0
O708 O 0.90167 0.76057 0.45387 0.0
O709 O 0.87608 0.85324 0.51036 0.0
O710 O 0.8282 0.73027 0.52106 0.0
O711 O 0.74363 0.88397 0.4946 0.0
H712 H 0.86876 1.01933 0.50844 0.0
H713 H 0.80694 0.89419 0.42112 0.0
O714 O 0.6846 0.77777 0.50946 0.0
O715 O 0.71218 0.66281 0.45861 0.0
O716 O 0.766 0.77042 0.43822 0.0
C717 C 0.73007 0.69683 0.43511 0.0
H718 H 0.58667 0.50128 0.5287 0.0
H719 H 0.75487 1.10747 0.49182 0.0
Co720 Co 0.50699 0.53034 0.24475 0.0
C721 C 0.38679 0.58621 0.20184 0.0
Co722 Co 0.41221 0.45372 0.24654 0.0
C723 C 0.64797 0.5352 0.23493 0.0
C724 C 0.60573 0.66946 0.23915 0.0
N725 N 0.58806 0.58336 0.23983 0.0
N726 N 0.70078 0.58396 0.22622 0.0
C727 C 0.67649 0.67023 0.23115 0.0
H728 H 0.64882 0.46204 0.23117 0.0
H729 H 0.56858 0.72535 0.24154 0.0
C730 C 0.54071 0.37339 0.27225 0.0
N731 N 0.32858 0.3902 0.25791 0.0
C732 C 0.31855 0.41199 0.28902 0.0
C733 C 0.3418 0.30088 0.2553 0.0
N734 N 0.35618 0.35745 0.3049 0.0
C735 C 0.36453 0.2823 0.2839 0.0
C736 C 0.48824 0.37378 0.20251 0.0
O737 O 0.56258 0.45352 0.27166 0.0
O738 O 0.47539 0.36239 0.26523 0.0
O739 O 0.42348 0.37605 0.21105 0.0
O740 O 0.52828 0.44023 0.21107 0.0
O741 O 0.35378 0.53592 0.21933 0.0
H742 H 0.35756 0.26049 0.23369 0.0
H743 H 0.29918 0.47761 0.29961 0.0
O744 O 0.45205 0.60346 0.21193 0.0
O745 O 0.49438 0.62226 0.28126 0.0
O746 O 0.40547 0.53922 0.28838 0.0
C747 C 0.44746 0.60191 0.29979 0.0
H748 H 0.70381 0.72685 0.22363 0.0
H749 H 0.40104 0.22811 0.28654 0.0
Co750 Co 0.43807 0.81851 0.97565 0.0
C751 C 0.36545 0.67629 0.94484 0.0
Co752 Co 0.49412 0.70046 0.98887 0.0
C753 C 0.45536 0.9386 0.94289 0.0
C754 C 0.42061 1.00429 0.9864 0.0
N755 N 0.41008 0.92844 0.96508 0.0
N756 N 0.5057 1.00132 0.95194 0.0
C757 C 0.48144 1.04876 0.97861 0.0
H758 H 0.45445 0.89426 0.92112 0.0
H759 H 0.39276 1.01933 1.00846 0.0
C760 C 0.57357 0.86061 1.00673 0.0
N761 N 0.53189 0.61344 1.01319 0.0
C762 C 0.55044 0.64577 1.04358 0.0
C763 C 0.58011 0.54676 1.00494 0.0
N764 N 0.60965 0.60678 1.05357 0.0
C765 C 0.62743 0.54253 1.02953 0.0
C766 C 0.53135 0.69689 0.93508 0.0
O767 O 0.51793 0.88399 0.99457 0.0
O768 O 0.57691 0.77775 1.00944 0.0
O769 O 0.54931 0.66286 0.95857 0.0
O770 O 0.49541 0.77046 0.9382 0.0
O771 O 0.41131 0.63219 0.96008 0.0
H772 H 0.58726 0.51228 0.98136 0.0
H773 H 0.5284 0.70706 1.05646 0.0
O774 O 0.3598 0.76056 0.9539 0.0
O775 O 0.3855 0.85324 1.01038 0.0
O776 O 0.43334 0.73022 1.02105 0.0
C777 C 0.39345 0.79669 1.02836 0.0
H778 H 0.50664 1.10744 0.99183 0.0
H779 H 0.67501 0.50141 1.02864 0.0
Co780 Co 0.1801 0.6319 0.74334 0.0
C781 C 0.31726 0.60938 0.71754 0.0
Co782 Co 0.23513 0.7488 0.75825 0.0
C783 C 1.06223 0.50745 0.73468 0.0
C784 C 0.1599 0.43896 0.7278 0.0
N785 N 0.13227 0.52175 0.73748 0.0
N786 N 1.05002 0.43953 0.7109 0.0
C787 C 1.10701 0.38588 0.71302 0.0
H788 H 1.02563 0.56306 0.74063 0.0
H789 H 0.21586 0.42085 0.72707 0.0
C790 C 1.09446 0.79311 0.77281 0.0
N791 N 0.28838 0.85035 0.7668 0.0
C792 C 0.35268 0.83476 0.77797 0.0
C793 C 0.26677 0.93006 0.78274 0.0
N794 N 0.36416 0.88855 0.80465 0.0
C795 C 0.31325 0.95307 0.8069 0.0
C796 C 0.19784 0.73445 0.69997 0.0
O797 O 1.08799 0.71377 0.75602 0.0
O798 O 0.15719 0.81169 0.78284 0.0
O799 O 0.19431 0.79067 0.72459 0.0
O800 O 0.17429 0.65565 0.70118 0.0
O801 O 0.31841 0.69099 0.73059 0.0
H802 H 0.21387 0.95823 0.78171 0.0
H803 H 0.37972 0.77098 0.77224 0.0
O804 O 0.26742 0.56295 0.7273 0.0
O805 O 0.18912 0.6041 0.78346 0.0
O806 O 0.2724 0.70317 0.79502 0.0
C807 C 0.23833 0.63559 0.80154 0.0
H808 H 1.1176 0.3244 0.69711 0.0
H809 H 0.30249 1.0032 0.82709 0.0
Co810 Co 0.26489 0.50777 0.51067 0.0
C811 C 0.13432 0.4286 0.51079 0.0
Co812 Co 0.21777 0.58478 0.49849 0.0
C813 C 0.35724 0.49839 0.5593 0.0
C814 C 0.33652 0.37064 0.53136 0.0
N815 N 0.33429 0.46141 0.53135 0.0
N816 N 0.36781 0.43458 0.57719 0.0
C817 C 0.35522 0.35413 0.56016 0.0
H818 H 0.35725 0.57034 0.56767 0.0
H819 H 0.31559 0.31974 0.51319 0.0
C820 C 0.34353 0.59698 0.4545 0.0
N821 N 0.1847 0.68127 0.48412 0.0
C822 C 0.20654 0.69094 0.45592 0.0
C823 C 0.185 0.76559 0.50032 0.0
N824 N 0.21993 0.77708 0.45246 0.0
C825 C 0.20527 0.82519 0.48063 0.0
C826 C 0.15424 0.61026 0.55199 0.0
O827 O 0.32512 0.61355 0.48498 0.0
O828 O 0.32582 0.61276 0.48369 0.0
O829 O 1.12632 0.59319 0.5244 0.0
O830 O 0.22277 0.59383 0.55166 0.0
O831 O 1.12496 0.50956 0.5032 0.0
H832 H 0.17742 0.78176 0.52529 0.0
H833 H 0.21512 0.63379 0.43801 0.0
O834 O 0.19701 0.41183 0.52031 0.0
O835 O 0.29541 0.43346 0.47988 0.0
O836 O 0.2073 0.49732 0.45907 0.0
C837 C 0.25429 0.43456 0.45785 0.0
H838 H 0.35897 0.28921 0.56808 0.0
H839 H 0.20755 0.89779 0.48609 0.0
Co840 Co 0.50697 0.71553 0.38944 0.0
C841 C 0.38675 0.65961 0.4323 0.0
Co842 Co 0.41221 0.79222 0.38764 0.0
C843 C 0.64795 0.7107 0.39927 0.0
C844 C 0.60574 0.57643 0.39505 0.0
N845 N 0.58805 0.66252 0.39437 0.0
N846 N 0.70078 0.66196 0.40797 0.0
C847 C 0.67651 0.57568 0.40304 0.0
H848 H 0.64878 0.78387 0.40303 0.0
H849 H 0.5686 0.52052 0.39265 0.0
C850 C 0.54071 0.87253 0.36194 0.0
N851 N 0.32858 0.85576 0.37628 0.0
C852 C 0.31854 0.83396 0.34517 0.0
C853 C 0.34181 0.94509 0.37889 0.0
N854 N 0.35617 0.88849 0.32928 0.0
C855 C 0.36454 0.96365 0.35029 0.0
C856 C 0.48823 0.87208 0.43168 0.0
O857 O 0.56256 0.79239 0.36254 0.0
O858 O 0.47539 0.88356 0.36896 0.0
O859 O 0.42348 0.86986 0.42314 0.0
O860 O 0.52825 0.80561 0.42313 0.0
O861 O 0.35377 0.71002 0.41483 0.0
H862 H 0.35757 0.98549 0.40049 0.0
H863 H 0.29917 0.76834 0.33458 0.0
O864 O 0.45203 0.64237 0.42224 0.0
O865 O 0.49436 0.62363 0.35292 0.0
O866 O 0.40549 0.70676 0.3458 0.0
C867 C 0.44746 0.64403 0.33439 0.0
H868 H 0.70384 0.51907 0.41055 0.0
H869 H 0.40106 1.01782 0.34764 0.0
Co870 Co 0.26496 0.73807 0.12352 0.0
C871 C 0.13424 0.81725 0.12342 0.0
Co872 Co 0.21768 0.6613 0.13573 0.0
C873 C 0.35727 0.74759 0.07489 0.0
C874 C 0.3364 0.87533 0.10281 0.0
N875 N 0.33424 0.78456 0.10282 0.0
N876 N 0.36791 0.81142 1.05701 0.0
C877 C 0.3552 0.89186 0.07402 0.0
H878 H 0.35732 0.67564 1.06652 0.0
H879 H 0.31541 0.9262 0.12098 0.0
C880 C 0.34364 0.64903 0.17967 0.0
N881 N 0.18474 0.56478 0.15012 0.0
C882 C 0.20671 0.55506 0.17829 0.0
C883 C 0.18487 0.48047 0.13391 0.0
N884 N 0.21999 0.46888 0.18175 0.0
C885 C 0.20517 0.42082 0.15359 0.0
C886 C 0.15423 0.63563 0.08221 0.0
O887 O 0.32545 0.63245 0.14916 0.0
O888 O 0.32578 0.63363 0.1505 0.0
O889 O 1.12628 0.65269 0.10979 0.0
O890 O 0.22279 0.65198 0.08254 0.0
O891 O 1.12482 0.7363 0.131 0.0
H892 H 0.17712 0.46431 0.10896 0.0
H893 H 0.21534 0.6122 0.19621 0.0
O894 O 0.19695 0.83395 0.11391 0.0
O895 O 0.29546 0.81241 0.15432 0.0
O896 O 0.20722 0.74877 0.17514 0.0
C897 C 0.25429 0.81142 0.17634 0.0
H898 H 0.35893 0.95677 1.0661 0.0
H899 H 0.20733 0.34821 0.14812 0.0
Co900 Co 0.18009 0.61402 0.89085 0.0
C901 C 0.31724 0.63655 0.91666 0.0
Co902 Co 0.23514 0.49712 0.87594 0.0
C903 C 1.06221 0.73845 0.89949 0.0
C904 C 0.15987 0.80695 0.90639 0.0
N905 N 0.13225 0.72416 0.89671 0.0
N906 N 1.04997 0.80636 0.92327 0.0
C907 C 1.10696 0.86003 0.92115 0.0
H908 H 1.02561 0.68285 0.89353 0.0
H909 H 0.21582 0.82507 0.90712 0.0
C910 C 1.09447 0.45279 0.86138 0.0
N911 N 0.2884 0.39556 0.86739 0.0
C912 C 0.3527 0.41116 0.85622 0.0
C913 C 0.2668 0.31585 0.85146 0.0
N914 N 0.36417 0.35738 0.82954 0.0
C915 C 0.31327 0.29285 0.82729 0.0
C916 C 0.19785 0.51148 0.93422 0.0
O917 O 1.088 0.53214 0.87816 0.0
O918 O 0.1572 0.43421 0.85135 0.0
O919 O 0.19432 0.45526 0.9096 0.0
O920 O 0.17427 0.59027 0.93302 0.0
O921 O 0.31842 0.55495 0.90361 0.0
H922 H 0.2139 0.28767 0.85249 0.0
H923 H 0.37974 0.47494 0.86195 0.0
O924 O 0.2674 0.68299 0.9069 0.0
O925 O 0.18913 0.64183 0.85073 0.0
O926 O 0.27241 0.54272 0.83917 0.0
C927 C 0.23832 0.6103 0.83265 0.0
H928 H 1.11753 0.92153 0.93705 0.0
H929 H 0.30251 0.24273 0.8071 0.0
Co930 Co 0.43804 0.42743 0.65854 0.0
C931 C 0.36545 0.56965 0.68936 0.0
Co932 Co 0.49412 0.54546 0.64532 0.0
C933 C 0.45535 0.30733 0.6913 0.0
C934 C 0.42059 0.24165 0.64779 0.0
N935 N 0.41006 0.3175 0.66911 0.0
N936 N 0.50568 0.24461 0.68225 0.0
C937 C 0.48141 0.19717 0.65557 0.0
H938 H 0.45445 0.35168 0.71307 0.0
H939 H 0.39273 0.22661 0.62573 0.0
C940 C 0.57352 0.3853 0.62746 0.0
N941 N 0.53189 0.63248 0.621 0.0
C942 C 0.55045 0.60015 0.59061 0.0
C943 C 0.5801 0.69917 0.62925 0.0
N944 N 0.60965 0.63915 0.58062 0.0
C945 C 0.62742 0.7034 0.60466 0.0
C946 C 0.53135 0.54904 0.69911 0.0
O947 O 0.51788 0.36196 0.63961 0.0
O948 O 0.57691 0.46815 0.62475 0.0
O949 O 0.54931 0.58306 0.67562 0.0
O950 O 0.4954 0.47547 0.69599 0.0
O951 O 0.4113 0.61375 0.67411 0.0
H952 H 0.58724 0.73366 0.65283 0.0
H953 H 0.52841 0.53885 0.57773 0.0
O954 O 0.35979 0.48538 0.6803 0.0
O955 O 0.38545 0.39271 0.62381 0.0
O956 O 0.43332 0.51572 0.61314 0.0
C957 C 0.3934 0.44928 0.60584 0.0
H958 H 0.50661 0.13848 0.64235 0.0
H959 H 0.67499 0.74453 0.60555 0.0
loop_
_geom_bond_atom_site_label_1
_geom_bond_atom_site_label_2
_geom_bond_distance
_geom_bond_site_symmetry_2
_ccdc_geom_bond_type
Co0 N5 2.057 . S
Co0 O17 2.021 . S
Co0 O20 2.062 . S
Co0 O24 2.117 . S
Co0 O25 2.020 . S
C1 O21 1.259 . S
C1 O24 1.258 . S
Co2 N11 2.057 . S
Co2 O18 2.117 . S
Co2 O19 2.020 . S
Co2 O21 2.021 . S
Co2 O26 2.062 . S
C3 N5 1.316 . S
C3 N6 1.347 . S
C3 H8 0.931 . S
C4 N5 1.375 . S
C4 C7 1.350 . S
C4 H9 0.930 . S
N5 Co0 2.057 . S
N5 C3 1.316 . S
N5 C4 1.375 . S
N6 C3 1.347 . S
N6 C7 1.373 . S
C7 C4 1.350 . S
C7 N6 1.373 . S
C7 H28 0.931 . S
H8 C3 0.931 . S
H9 C4 0.930 . S
C10 O17 1.259 . S
C10 O18 1.258 . S
N11 Co2 2.057 . S
N11 C12 1.316 1_455 S
N11 C13 1.375 1_545 S
C12 N11 1.316 1_655 S
C12 N14 1.347 . S
C12 H23 0.931 . S
C13 N11 1.375 1_565 S
C13 C15 1.350 1_455 S
C13 H22 0.930 . S
N14 C12 1.347 . S
N14 C15 1.373 1_545 S
C15 C13 1.350 1_655 S
C15 N14 1.373 1_565 S
C15 H29 0.931 . S
C16 O19 1.256 . S
C16 O20 1.255 . S
O17 Co0 2.021 . S
O17 C10 1.259 . S
O18 Co2 2.117 . S
O18 C10 1.258 . S
O19 Co2 2.020 . S
O19 C16 1.256 . S
O20 Co0 2.062 . S
O20 C16 1.255 . S
O21 C1 1.259 . S
O21 Co2 2.021 . S
H22 C13 0.930 . S
H23 C12 0.931 . S
O24 Co0 2.117 . S
O24 C1 1.258 . S
O25 Co0 2.020 . S
O25 C27 1.256 . S
O26 Co2 2.062 . S
O26 C27 1.255 . S
C27 O25 1.256 . S
C27 O26 1.255 . S
H28 C7 0.931 . S
H29 C15 0.931 . S
Co30 N35 2.057 . S
Co30 O47 2.021 . S
Co30 O50 2.062 . S
Co30 O54 2.117 . S
Co30 O55 2.020 . S
C31 O51 1.259 . S
C31 O54 1.258 . S
Co32 N41 2.057 . S
Co32 O48 2.117 . S
Co32 O49 2.020 . S
Co32 O51 2.021 . S
Co32 O56 2.062 . S
C33 N35 1.316 1_545 S
C33 N36 1.347 . S
C33 H38 0.931 . S
C34 N35 1.375 . S
C34 C37 1.350 1_455 S
C34 H39 0.930 1_455 S
N35 Co30 2.057 . S
N35 C33 1.316 1_565 S
N35 C34 1.375 . S
N36 C33 1.347 . S
N36 C37 1.373 1_445 S
C37 C34 1.350 1_655 S
C37 N36 1.373 1_665 S
C37 H58 0.931 . S
H38 C33 0.931 . S
H39 C34 0.930 1_655 S
C40 O47 1.259 . S
C40 O48 1.258 . S
N41 Co32 2.057 . S
N41 C42 1.316 . S
N41 C43 1.375 . S
C42 N41 1.316 . S
C42 N44 1.347 . S
C42 H53 0.931 . S
C43 N41 1.375 . S
C43 C45 1.350 . S
C43 H52 0.930 . S
N44 C42 1.347 . S
N44 C45 1.373 . S
C45 C43 1.350 . S
C45 N44 1.373 . S
C45 H59 0.931 . S
C46 O49 1.256 . S
C46 O50 1.255 . S
O47 Co30 2.021 . S
O47 C40 1.259 . S
O48 Co32 2.117 . S
O48 C40 1.258 . S
O49 Co32 2.020 . S
O49 C46 1.256 . S
O50 Co30 2.062 . S
O50 C46 1.255 . S
O51 C31 1.259 . S
O51 Co32 2.021 . S
H52 C43 0.930 . S
H53 C42 0.931 . S
O54 Co30 2.117 . S
O54 C31 1.258 . S
O55 Co30 2.020 . S
O55 C57 1.256 . S
O56 Co32 2.062 . S
O56 C57 1.255 . S
C57 O55 1.256 . S
C57 O56 1.255 . S
H58 C37 0.931 . S
H59 C45 0.931 . S
Co60 N65 2.057 . S
Co60 O77 2.021 . S
Co60 O80 2.062 . S
Co60 O84 2.117 . S
Co60 O85 2.020 . S
C61 O81 1.259 . S
C61 O84 1.258 . S
Co62 N71 2.057 1_565 S
Co62 O78 2.117 1_565 S
Co62 O79 2.020 1_565 S
Co62 O81 2.021 . S
Co62 O86 2.062 . S
C63 N65 1.316 . S
C63 N66 1.347 . S
C63 H68 0.931 . S
C64 N65 1.375 . S
C64 C67 1.350 . S
C64 H69 0.930 . S
N65 Co60 2.057 . S
N65 C63 1.316 . S
N65 C64 1.375 . S
N66 C63 1.347 . S
N66 C67 1.373 . S
C67 C64 1.350 . S
C67 N66 1.373 . S
C67 H88 0.931 . S
H68 C63 0.931 . S
H69 C64 0.930 . S
C70 O77 1.259 1_545 S
C70 O78 1.258 . S
N71 Co62 2.057 1_545 S
N71 C72 1.316 . S
N71 C73 1.375 . S
C72 N71 1.316 . S
C72 N74 1.347 . S
C72 H83 0.931 . S
C73 N71 1.375 . S
C73 C75 1.350 . S
C73 H82 0.930 . S
N74 C72 1.347 . S
N74 C75 1.373 . S
C75 C73 1.350 . S
C75 N74 1.373 . S
C75 H89 0.931 . S
C76 O79 1.256 . S
C76 O80 1.255 1_545 S
O77 Co60 2.021 . S
O77 C70 1.259 1_565 S
O78 Co62 2.117 1_545 S
O78 C70 1.258 . S
O79 Co62 2.020 1_545 S
O79 C76 1.256 . S
O80 Co60 2.062 . S
O80 C76 1.255 1_565 S
O81 C61 1.259 . S
O81 Co62 2.021 . S
H82 C73 0.930 . S
H83 C72 0.931 . S
O84 Co60 2.117 . S
O84 C61 1.258 . S
O85 Co60 2.020 . S
O85 C87 1.256 . S
O86 Co62 2.062 . S
O86 C87 1.255 . S
C87 O85 1.256 . S
C87 O86 1.255 . S
H88 C67 0.931 . S
H89 C75 0.931 . S
Co90 N95 2.057 1_545 S
Co90 O107 2.021 . S
Co90 O110 2.062 . S
Co90 O114 2.117 1_545 S
Co90 O115 2.020 1_545 S
C91 O111 1.259 1_565 S
C91 O114 1.258 . S
Co92 N101 2.057 . S
Co92 O108 2.117 . S
Co92 O109 2.020 . S
Co92 O111 2.021 . S
Co92 O116 2.062 . S
C93 N95 1.316 1_545 S
C93 N96 1.347 1_545 S
C93 H98 0.931 . S
C94 N95 1.375 . S
C94 C97 1.350 . S
C94 H99 0.930 . S
N95 Co90 2.057 1_565 S
N95 C93 1.316 1_565 S
N95 C94 1.375 . S
N96 C93 1.347 1_565 S
N96 C97 1.373 . S
C97 C94 1.350 . S
C97 N96 1.373 . S
C97 H118 0.931 . S
H98 C93 0.931 . S
H99 C94 0.930 . S
C100 O107 1.259 . S
C100 O108 1.258 . S
N101 Co92 2.057 . S
N101 C102 1.316 1_554 S
N101 C103 1.375 1_554 S
C102 N101 1.316 1_556 S
C102 N104 1.347 . S
C102 H113 0.931 1_556 S
C103 N101 1.375 1_556 S
C103 C105 1.350 . S
C103 H112 0.930 1_556 S
N104 C102 1.347 . S
N104 C105 1.373 . S
C105 C103 1.350 . S
C105 N104 1.373 . S
C105 H119 0.931 . S
C106 O109 1.256 . S
C106 O110 1.255 . S
O107 Co90 2.021 . S
O107 C100 1.259 . S
O108 Co92 2.117 . S
O108 C100 1.258 . S
O109 Co92 2.020 . S
O109 C106 1.256 . S
O110 Co90 2.062 . S
O110 C106 1.255 . S
O111 C91 1.259 1_545 S
O111 Co92 2.021 . S
H112 C103 0.930 1_554 S
H113 C102 0.931 1_554 S
O114 Co90 2.117 1_565 S
O114 C91 1.258 . S
O115 Co90 2.020 1_565 S
O115 C117 1.256 . S
O116 Co92 2.062 . S
O116 C117 1.255 1_545 S
C117 O115 1.256 . S
C117 O116 1.255 1_565 S
H118 C97 0.931 . S
H119 C105 0.931 . S
Co120 N125 2.057 . S
Co120 O137 2.021 . S
Co120 O140 2.062 . S
Co120 O144 2.117 . S
Co120 O145 2.020 . S
C121 O141 1.259 . S
C121 O144 1.258 . S
Co122 N131 2.057 . S
Co122 O138 2.117 . S
Co122 O139 2.020 . S
Co122 O141 2.021 . S
Co122 O146 2.062 . S
C123 N125 1.316 . S
C123 N126 1.347 . S
C123 H128 0.931 . S
C124 N125 1.375 . S
C124 C127 1.350 . S
C124 H129 0.930 . S
N125 Co120 2.057 . S
N125 C123 1.316 . S
N125 C124 1.375 . S
N126 C123 1.347 . S
N126 C127 1.373 . S
C127 C124 1.350 . S
C127 N126 1.373 . S
C127 H148 0.931 . S
H128 C123 0.931 . S
H129 C124 0.930 . S
C130 O137 1.259 . S
C130 O138 1.258 . S
N131 Co122 2.057 . S
N131 C132 1.316 1_455 S
N131 C133 1.375 1_565 S
C132 N131 1.316 1_655 S
C132 N134 1.347 . S
C132 H143 0.931 . S
C133 N131 1.375 1_545 S
C133 C135 1.350 1_455 S
C133 H142 0.930 . S
N134 C132 1.347 . S
N134 C135 1.373 1_565 S
C135 C133 1.350 1_655 S
C135 N134 1.373 1_545 S
C135 H149 0.931 . S
C136 O139 1.256 . S
C136 O140 1.255 . S
O137 Co120 2.021 . S
O137 C130 1.259 . S
O138 Co122 2.117 . S
O138 C130 1.258 . S
O139 Co122 2.020 . S
O139 C136 1.256 . S
O140 Co120 2.062 . S
O140 C136 1.255 . S
O141 C121 1.259 . S
O141 Co122 2.021 . S
H142 C133 0.930 . S
H143 C132 0.931 . S
O144 Co120 2.117 . S
O144 C121 1.258 . S
O145 Co120 2.020 . S
O145 C147 1.256 . S
O146 Co122 2.062 . S
O146 C147 1.255 . S
C147 O145 1.256 . S
C147 O146 1.255 . S
H148 C127 0.931 . S
H149 C135 0.931 . S
Co150 N155 2.057 1_565 S
Co150 O167 2.021 . S
Co150 O170 2.062 . S
Co150 O174 2.117 1_565 S
Co150 O175 2.020 1_565 S
C151 O171 1.259 1_545 S
C151 O174 1.258 . S
Co152 N161 2.057 . S
Co152 O168 2.117 . S
Co152 O169 2.020 . S
Co152 O171 2.021 . S
Co152 O176 2.062 . S
C153 N155 1.316 1_565 S
C153 N156 1.347 1_565 S
C153 H158 0.931 . S
C154 N155 1.375 . S
C154 C157 1.350 . S
C154 H159 0.930 . S
N155 Co150 2.057 1_545 S
N155 C153 1.316 1_545 S
N155 C154 1.375 . S
N156 C153 1.347 1_545 S
N156 C157 1.373 . S
C157 C154 1.350 . S
C157 N156 1.373 . S
C157 H178 0.931 . S
H158 C153 0.931 . S
H159 C154 0.930 . S
C160 O167 1.259 . S
C160 O168 1.258 . S
N161 Co152 2.057 . S
N161 C162 1.316 . S
N161 C163 1.375 . S
C162 N161 1.316 . S
C162 N164 1.347 . S
C162 H173 0.931 . S
C163 N161 1.375 . S
C163 C165 1.350 . S
C163 H172 0.930 . S
N164 C162 1.347 . S
N164 C165 1.373 . S
C165 C163 1.350 . S
C165 N164 1.373 . S
C165 H179 0.931 . S
C166 O169 1.256 . S
C166 O170 1.255 . S
O167 Co150 2.021 . S
O167 C160 1.259 . S
O168 Co152 2.117 . S
O168 C160 1.258 . S
O169 Co152 2.020 . S
O169 C166 1.256 . S
O170 Co150 2.062 . S
O170 C166 1.255 . S
O171 C151 1.259 1_565 S
O171 Co152 2.021 . S
H172 C163 0.930 . S
H173 C162 0.931 . S
O174 Co150 2.117 1_545 S
O174 C151 1.258 . S
O175 Co150 2.020 1_545 S
O175 C177 1.256 . S
O176 Co152 2.062 . S
O176 C177 1.255 1_565 S
C177 O175 1.256 . S
C177 O176 1.255 1_545 S
H178 C157 0.931 . S
H179 C165 0.931 . S
Co180 N185 2.057 . S
Co180 O197 2.021 . S
Co180 O200 2.062 . S
Co180 O204 2.117 . S
Co180 O205 2.020 . S
C181 O201 1.259 . S
C181 O204 1.258 . S
Co182 N191 2.057 1_545 S
Co182 O198 2.117 1_545 S
Co182 O199 2.020 1_545 S
Co182 O201 2.021 . S
Co182 O206 2.062 . S
C183 N185 1.316 . S
C183 N186 1.347 . S
C183 H188 0.931 . S
C184 N185 1.375 . S
C184 C187 1.350 . S
C184 H189 0.930 . S
N185 Co180 2.057 . S
N185 C183 1.316 . S
N185 C184 1.375 . S
N186 C183 1.347 . S
N186 C187 1.373 . S
C187 C184 1.350 . S
C187 N186 1.373 . S
C187 H208 0.931 . S
H188 C183 0.931 . S
H189 C184 0.930 . S
C190 O197 1.259 1_565 S
C190 O198 1.258 . S
N191 Co182 2.057 1_565 S
N191 C192 1.316 . S
N191 C193 1.375 . S
C192 N191 1.316 . S
C192 N194 1.347 . S
C192 H203 0.931 . S
C193 N191 1.375 . S
C193 C195 1.350 . S
C193 H202 0.930 . S
N194 C192 1.347 . S
N194 C195 1.373 . S
C195 C193 1.350 . S
C195 N194 1.373 . S
C195 H209 0.931 . S
C196 O199 1.256 . S
C196 O200 1.255 1_565 S
O197 Co180 2.021 . S
O197 C190 1.259 1_545 S
O198 Co182 2.117 1_565 S
O198 C190 1.258 . S
O199 Co182 2.020 1_565 S
O199 C196 1.256 . S
O200 Co180 2.062 . S
O200 C196 1.255 1_545 S
O201 C181 1.259 . S
O201 Co182 2.021 . S
H202 C193 0.930 . S
H203 C192 0.931 . S
O204 Co180 2.117 . S
O204 C181 1.258 . S
O205 Co180 2.020 . S
O205 C207 1.256 . S
O206 Co182 2.062 . S
O206 C207 1.255 . S
C207 O205 1.256 . S
C207 O206 1.255 . S
H208 C187 0.931 . S
H209 C195 0.931 . S
Co210 N215 2.057 . S
Co210 O227 2.021 . S
Co210 O230 2.062 . S
Co210 O234 2.117 . S
Co210 O235 2.020 . S
C211 O231 1.259 . S
C211 O234 1.258 . S
Co212 N221 2.057 . S
Co212 O228 2.117 . S
Co212 O229 2.020 . S
Co212 O231 2.021 . S
Co212 O236 2.062 . S
C213 N215 1.316 1_565 S
C213 N216 1.347 . S
C213 H218 0.931 . S
C214 N215 1.375 . S
C214 C217 1.350 1_455 S
C214 H219 0.930 1_455 S
N215 Co210 2.057 . S
N215 C213 1.316 1_545 S
N215 C214 1.375 . S
N216 C213 1.347 . S
N216 C217 1.373 1_465 S
C217 C214 1.350 1_655 S
C217 N216 1.373 1_645 S
C217 H238 0.931 1_556 S
H218 C213 0.931 . S
H219 C214 0.930 1_655 S
C220 O227 1.259 . S
C220 O228 1.258 . S
N221 Co212 2.057 . S
N221 C222 1.316 . S
N221 C223 1.375 . S
C222 N221 1.316 . S
C222 N224 1.347 . S
C222 H233 0.931 . S
C223 N221 1.375 . S
C223 C225 1.350 . S
C223 H232 0.930 . S
N224 C222 1.347 . S
N224 C225 1.373 . S
C225 C223 1.350 . S
C225 N224 1.373 . S
C225 H239 0.931 . S
C226 O229 1.256 . S
C226 O230 1.255 . S
O227 Co210 2.021 . S
O227 C220 1.259 . S
O228 Co212 2.117 . S
O228 C220 1.258 . S
O229 Co212 2.020 . S
O229 C226 1.256 . S
O230 Co210 2.062 . S
O230 C226 1.255 . S
O231 C211 1.259 . S
O231 Co212 2.021 . S
H232 C223 0.930 . S
H233 C222 0.931 . S
O234 Co210 2.117 . S
O234 C211 1.258 . S
O235 Co210 2.020 . S
O235 C237 1.256 . S
O236 Co212 2.062 . S
O236 C237 1.255 . S
C237 O235 1.256 . S
C237 O236 1.255 . S
H238 C217 0.931 1_554 S
H239 C225 0.931 . S
Co240 N245 2.057 . S
Co240 O257 2.021 . S
Co240 O260 2.062 . S
Co240 O264 2.117 . S
Co240 O265 2.020 . S
C241 O261 1.259 . S
C241 O264 1.258 . S
Co242 N251 2.057 . S
Co242 O258 2.117 . S
Co242 O259 2.020 . S
Co242 O261 2.021 . S
Co242 O266 2.062 . S
C243 N245 1.316 1_455 S
C243 N246 1.347 . S
C243 H248 0.931 . S
C244 N245 1.375 1_545 S
C244 C247 1.350 1_655 S
C244 H249 0.930 . S
N245 Co240 2.057 . S
N245 C243 1.316 1_655 S
N245 C244 1.375 1_565 S
N246 C243 1.347 . S
N246 C247 1.373 1_565 S
C247 C244 1.350 1_455 S
C247 N246 1.373 1_545 S
C247 H268 0.931 . S
H248 C243 0.931 . S
H249 C244 0.930 . S
C250 O257 1.259 . S
C250 O258 1.258 . S
N251 Co242 2.057 . S
N251 C252 1.316 . S
N251 C253 1.375 . S
C252 N251 1.316 . S
C252 N254 1.347 . S
C252 H263 0.931 . S
C253 N251 1.375 . S
C253 C255 1.350 . S
C253 H262 0.930 . S
N254 C252 1.347 . S
N254 C255 1.373 . S
C255 C253 1.350 . S
C255 N254 1.373 . S
C255 H269 0.931 . S
C256 O259 1.256 . S
C256 O260 1.255 . S
O257 Co240 2.021 . S
O257 C250 1.259 . S
O258 Co242 2.117 . S
O258 C250 1.258 . S
O259 Co242 2.020 . S
O259 C256 1.256 . S
O260 Co240 2.062 . S
O260 C256 1.255 . S
O261 C241 1.259 . S
O261 Co242 2.021 . S
H262 C253 0.930 . S
H263 C252 0.931 . S
O264 Co240 2.117 . S
O264 C241 1.258 . S
O265 Co240 2.020 . S
O265 C267 1.256 . S
O266 Co242 2.062 . S
O266 C267 1.255 . S
C267 O265 1.256 . S
C267 O266 1.255 . S
H268 C247 0.931 . S
H269 C255 0.931 . S
Co270 N275 2.057 . S
Co270 O287 2.021 . S
Co270 O290 2.062 . S
Co270 O294 2.117 . S
Co270 O295 2.020 . S
C271 O291 1.259 . S
C271 O294 1.258 . S
Co272 N281 2.057 . S
Co272 O288 2.117 . S
Co272 O289 2.020 . S
Co272 O291 2.021 . S
Co272 O296 2.062 . S
C273 N275 1.316 . S
C273 N276 1.347 . S
C273 H278 0.931 . S
C274 N275 1.375 . S
C274 C277 1.350 . S
C274 H279 0.930 . S
N275 Co270 2.057 . S
N275 C273 1.316 . S
N275 C274 1.375 . S
N276 C273 1.347 . S
N276 C277 1.373 . S
C277 C274 1.350 . S
C277 N276 1.373 . S
C277 H298 0.931 . S
H278 C273 0.931 . S
H279 C274 0.930 . S
C280 O287 1.259 . S
C280 O288 1.258 . S
N281 Co272 2.057 . S
N281 C282 1.316 1_545 S
N281 C283 1.375 . S
C282 N281 1.316 1_565 S
C282 N284 1.347 . S
C282 H293 0.931 . S
C283 N281 1.375 . S
C283 C285 1.350 1_655 S
C283 H292 0.930 1_655 S
N284 C282 1.347 . S
N284 C285 1.373 1_665 S
C285 C283 1.350 1_455 S
C285 N284 1.373 1_445 S
C285 H299 0.931 . S
C286 O289 1.256 . S
C286 O290 1.255 . S
O287 Co270 2.021 . S
O287 C280 1.259 . S
O288 Co272 2.117 . S
O288 C280 1.258 . S
O289 Co272 2.020 . S
O289 C286 1.256 . S
O290 Co270 2.062 . S
O290 C286 1.255 . S
O291 C271 1.259 . S
O291 Co272 2.021 . S
H292 C283 0.930 1_455 S
H293 C282 0.931 . S
O294 Co270 2.117 . S
O294 C271 1.258 . S
O295 Co270 2.020 . S
O295 C297 1.256 . S
O296 Co272 2.062 . S
O296 C297 1.255 . S
C297 O295 1.256 . S
C297 O296 1.255 . S
H298 C277 0.931 . S
H299 C285 0.931 . S
Co300 N305 2.057 1_545 S
Co300 O317 2.021 . S
Co300 O320 2.062 . S
Co300 O324 2.117 1_545 S
Co300 O325 2.020 1_545 S
C301 O321 1.259 1_565 S
C301 O324 1.258 . S
Co302 N311 2.057 . S
Co302 O318 2.117 . S
Co302 O319 2.020 . S
Co302 O321 2.021 . S
Co302 O326 2.062 . S
C303 N305 1.316 . S
C303 N306 1.347 . S
C303 H308 0.931 . S
C304 N305 1.375 . S
C304 C307 1.350 . S
C304 H309 0.930 . S
N305 Co300 2.057 1_565 S
N305 C303 1.316 . S
N305 C304 1.375 . S
N306 C303 1.347 . S
N306 C307 1.373 . S
C307 C304 1.350 . S
C307 N306 1.373 . S
C307 H328 0.931 . S
H308 C303 0.931 . S
H309 C304 0.930 . S
C310 O317 1.259 . S
C310 O318 1.258 . S
N311 Co302 2.057 . S
N311 C312 1.316 . S
N311 C313 1.375 . S
C312 N311 1.316 . S
C312 N314 1.347 . S
C312 H323 0.931 . S
C313 N311 1.375 . S
C313 C315 1.350 . S
C313 H322 0.930 . S
N314 C312 1.347 . S
N314 C315 1.373 . S
C315 C313 1.350 . S
C315 N314 1.373 . S
C315 H329 0.931 . S
C316 O319 1.256 . S
C316 O320 1.255 . S
O317 Co300 2.021 . S
O317 C310 1.259 . S
O318 Co302 2.117 . S
O318 C310 1.258 . S
O319 Co302 2.020 . S
O319 C316 1.256 . S
O320 Co300 2.062 . S
O320 C316 1.255 . S
O321 C301 1.259 1_545 S
O321 Co302 2.021 . S
H322 C313 0.930 . S
H323 C312 0.931 . S
O324 Co300 2.117 1_565 S
O324 C301 1.258 . S
O325 Co300 2.020 1_565 S
O325 C327 1.256 . S
O326 Co302 2.062 . S
O326 C327 1.255 1_545 S
C327 O325 1.256 . S
C327 O326 1.255 1_565 S
H328 C307 0.931 . S
H329 C315 0.931 . S
Co330 N335 2.057 . S
Co330 O347 2.021 . S
Co330 O350 2.062 . S
Co330 O354 2.117 . S
Co330 O355 2.020 . S
C331 O351 1.259 . S
C331 O354 1.258 . S
Co332 N341 2.057 1_565 S
Co332 O348 2.117 1_565 S
Co332 O349 2.020 1_565 S
Co332 O351 2.021 . S
Co332 O356 2.062 . S
C333 N335 1.316 1_554 S
C333 N336 1.347 . S
C333 H338 0.931 1_554 S
C334 N335 1.375 1_554 S
C334 C337 1.350 . S
C334 H339 0.930 1_554 S
N335 Co330 2.057 . S
N335 C333 1.316 1_556 S
N335 C334 1.375 1_556 S
N336 C333 1.347 . S
N336 C337 1.373 . S
C337 C334 1.350 . S
C337 N336 1.373 . S
C337 H358 0.931 . S
H338 C333 0.931 1_556 S
H339 C334 0.930 1_556 S
C340 O347 1.259 1_545 S
C340 O348 1.258 . S
N341 Co332 2.057 1_545 S
N341 C342 1.316 1_545 S
N341 C343 1.375 . S
C342 N341 1.316 1_565 S
C342 N344 1.347 1_565 S
C342 H353 0.931 . S
C343 N341 1.375 . S
C343 C345 1.350 . S
C343 H352 0.930 . S
N344 C342 1.347 1_545 S
N344 C345 1.373 . S
C345 C343 1.350 . S
C345 N344 1.373 . S
C345 H359 0.931 . S
C346 O349 1.256 . S
C346 O350 1.255 1_545 S
O347 Co330 2.021 . S
O347 C340 1.259 1_565 S
O348 Co332 2.117 1_545 S
O348 C340 1.258 . S
O349 Co332 2.020 1_545 S
O349 C346 1.256 . S
O350 Co330 2.062 . S
O350 C346 1.255 1_565 S
O351 C331 1.259 . S
O351 Co332 2.021 . S
H352 C343 0.930 . S
H353 C342 0.931 . S
O354 Co330 2.117 . S
O354 C331 1.258 . S
O355 Co330 2.020 . S
O355 C357 1.256 . S
O356 Co332 2.062 . S
O356 C357 1.255 . S
C357 O355 1.256 . S
C357 O356 1.255 . S
H358 C337 0.931 . S
H359 C345 0.931 . S
Co360 N365 2.057 . S
Co360 O377 2.021 . S
Co360 O380 2.062 . S
Co360 O384 2.117 . S
Co360 O385 2.020 . S
C361 O381 1.259 . S
C361 O384 1.258 . S
Co362 N371 2.057 . S
Co362 O378 2.117 . S
Co362 O379 2.020 . S
Co362 O381 2.021 . S
Co362 O386 2.062 . S
C363 N365 1.316 1_455 S
C363 N366 1.347 . S
C363 H368 0.931 . S
C364 N365 1.375 1_565 S
C364 C367 1.350 1_655 S
C364 H369 0.930 . S
N365 Co360 2.057 . S
N365 C363 1.316 1_655 S
N365 C364 1.375 1_545 S
N366 C363 1.347 . S
N366 C367 1.373 1_545 S
C367 C364 1.350 1_455 S
C367 N366 1.373 1_565 S
C367 H388 0.931 . S
H368 C363 0.931 . S
H369 C364 0.930 . S
C370 O377 1.259 . S
C370 O378 1.258 . S
N371 Co362 2.057 . S
N371 C372 1.316 . S
N371 C373 1.375 . S
C372 N371 1.316 . S
C372 N374 1.347 . S
C372 H383 0.931 . S
C373 N371 1.375 . S
C373 C375 1.350 . S
C373 H382 0.930 . S
N374 C372 1.347 . S
N374 C375 1.373 . S
C375 C373 1.350 . S
C375 N374 1.373 . S
C375 H389 0.931 . S
C376 O379 1.256 . S
C376 O380 1.255 . S
O377 Co360 2.021 . S
O377 C370 1.259 . S
O378 Co362 2.117 . S
O378 C370 1.258 . S
O379 Co362 2.020 . S
O379 C376 1.256 . S
O380 Co360 2.062 . S
O380 C376 1.255 . S
O381 C361 1.259 . S
O381 Co362 2.021 . S
H382 C373 0.930 . S
H383 C372 0.931 . S
O384 Co360 2.117 . S
O384 C361 1.258 . S
O385 Co360 2.020 . S
O385 C387 1.256 . S
O386 Co362 2.062 . S
O386 C387 1.255 . S
C387 O385 1.256 . S
C387 O386 1.255 . S
H388 C367 0.931 . S
H389 C375 0.931 . S
Co390 N395 2.057 . S
Co390 O407 2.021 . S
Co390 O410 2.062 . S
Co390 O414 2.117 . S
Co390 O415 2.020 . S
C391 O411 1.259 . S
C391 O414 1.258 . S
Co392 N401 2.057 1_545 S
Co392 O408 2.117 1_545 S
Co392 O409 2.020 1_545 S
Co392 O411 2.021 . S
Co392 O416 2.062 . S
C393 N395 1.316 . S
C393 N396 1.347 . S
C393 H398 0.931 . S
C394 N395 1.375 . S
C394 C397 1.350 . S
C394 H399 0.930 . S
N395 Co390 2.057 . S
N395 C393 1.316 . S
N395 C394 1.375 . S
N396 C393 1.347 . S
N396 C397 1.373 . S
C397 C394 1.350 . S
C397 N396 1.373 . S
C397 H418 0.931 . S
H398 C393 0.931 . S
H399 C394 0.930 . S
C400 O407 1.259 1_565 S
C400 O408 1.258 . S
N401 Co392 2.057 1_565 S
N401 C402 1.316 1_565 S
N401 C403 1.375 . S
C402 N401 1.316 1_545 S
C402 N404 1.347 1_545 S
C402 H413 0.931 . S
C403 N401 1.375 . S
C403 C405 1.350 . S
C403 H412 0.930 . S
N404 C402 1.347 1_565 S
N404 C405 1.373 . S
C405 C403 1.350 . S
C405 N404 1.373 . S
C405 H419 0.931 . S
C406 O409 1.256 . S
C406 O410 1.255 1_565 S
O407 Co390 2.021 . S
O407 C400 1.259 1_545 S
O408 Co392 2.117 1_565 S
O408 C400 1.258 . S
O409 Co392 2.020 1_565 S
O409 C406 1.256 . S
O410 Co390 2.062 . S
O410 C406 1.255 1_545 S
O411 C391 1.259 . S
O411 Co392 2.021 . S
H412 C403 0.930 . S
H413 C402 0.931 . S
O414 Co390 2.117 . S
O414 C391 1.258 . S
O415 Co390 2.020 . S
O415 C417 1.256 . S
O416 Co392 2.062 . S
O416 C417 1.255 . S
C417 O415 1.256 . S
C417 O416 1.255 . S
H418 C397 0.931 . S
H419 C405 0.931 . S
Co420 N425 2.057 1_565 S
Co420 O437 2.021 . S
Co420 O440 2.062 . S
Co420 O444 2.117 1_565 S
Co420 O445 2.020 1_565 S
C421 O441 1.259 1_545 S
C421 O444 1.258 . S
Co422 N431 2.057 . S
Co422 O438 2.117 . S
Co422 O439 2.020 . S
Co422 O441 2.021 . S
Co422 O446 2.062 . S
C423 N425 1.316 . S
C423 N426 1.347 . S
C423 H428 0.931 . S
C424 N425 1.375 . S
C424 C427 1.350 . S
C424 H429 0.930 . S
N425 Co420 2.057 1_545 S
N425 C423 1.316 . S
N425 C424 1.375 . S
N426 C423 1.347 . S
N426 C427 1.373 . S
C427 C424 1.350 . S
C427 N426 1.373 . S
C427 H448 0.931 . S
H428 C423 0.931 . S
H429 C424 0.930 . S
C430 O437 1.259 . S
C430 O438 1.258 . S
N431 Co422 2.057 . S
N431 C432 1.316 . S
N431 C433 1.375 . S
C432 N431 1.316 . S
C432 N434 1.347 . S
C432 H443 0.931 . S
C433 N431 1.375 . S
C433 C435 1.350 . S
C433 H442 0.930 . S
N434 C432 1.347 . S
N434 C435 1.373 . S
C435 C433 1.350 . S
C435 N434 1.373 . S
C435 H449 0.931 . S
C436 O439 1.256 . S
C436 O440 1.255 . S
O437 Co420 2.021 . S
O437 C430 1.259 . S
O438 Co422 2.117 . S
O438 C430 1.258 . S
O439 Co422 2.020 . S
O439 C436 1.256 . S
O440 Co420 2.062 . S
O440 C436 1.255 . S
O441 C421 1.259 1_565 S
O441 Co422 2.021 . S
H442 C433 0.930 . S
H443 C432 0.931 . S
O444 Co420 2.117 1_545 S
O444 C421 1.258 . S
O445 Co420 2.020 1_545 S
O445 C447 1.256 . S
O446 Co422 2.062 . S
O446 C447 1.255 1_565 S
C447 O445 1.256 . S
C447 O446 1.255 1_545 S
H448 C427 0.931 . S
H449 C435 0.931 . S
Co450 N455 2.057 . S
Co450 O467 2.021 . S
Co450 O470 2.062 . S
Co450 O474 2.117 . S
Co450 O475 2.020 . S
C451 O471 1.259 . S
C451 O474 1.258 . S
Co452 N461 2.057 . S
Co452 O468 2.117 . S
Co452 O469 2.020 . S
Co452 O471 2.021 . S
Co452 O476 2.062 . S
C453 N455 1.316 . S
C453 N456 1.347 . S
C453 H458 0.931 . S
C454 N455 1.375 . S
C454 C457 1.350 . S
C454 H459 0.930 . S
N455 Co450 2.057 . S
N455 C453 1.316 . S
N455 C454 1.375 . S
N456 C453 1.347 . S
N456 C457 1.373 . S
C457 C454 1.350 . S
C457 N456 1.373 . S
C457 H478 0.931 . S
H458 C453 0.931 . S
H459 C454 0.930 . S
C460 O467 1.259 . S
C460 O468 1.258 . S
N461 Co452 2.057 . S
N461 C462 1.316 1_565 S
N461 C463 1.375 . S
C462 N461 1.316 1_545 S
C462 N464 1.347 . S
C462 H473 0.931 . S
C463 N461 1.375 . S
C463 C465 1.350 1_655 S
C463 H472 0.930 1_655 S
N464 C462 1.347 . S
N464 C465 1.373 1_645 S
C465 C463 1.350 1_455 S
C465 N464 1.373 1_465 S
C465 H479 0.931 1_554 S
C466 O469 1.256 . S
C466 O470 1.255 . S
O467 Co450 2.021 . S
O467 C460 1.259 . S
O468 Co452 2.117 . S
O468 C460 1.258 . S
O469 Co452 2.020 . S
O469 C466 1.256 . S
O470 Co450 2.062 . S
O470 C466 1.255 . S
O471 C451 1.259 . S
O471 Co452 2.021 . S
H472 C463 0.930 1_455 S
H473 C462 0.931 . S
O474 Co450 2.117 . S
O474 C451 1.258 . S
O475 Co450 2.020 . S
O475 C477 1.256 . S
O476 Co452 2.062 . S
O476 C477 1.255 . S
C477 O475 1.256 . S
C477 O476 1.255 . S
H478 C457 0.931 . S
H479 C465 0.931 1_556 S
Co480 N485 2.057 . S
Co480 O497 2.021 . S
Co480 O500 2.062 . S
Co480 O504 2.117 . S
Co480 O505 2.020 . S
C481 O501 1.259 . S
C481 O504 1.258 . S
Co482 N491 2.057 . S
Co482 O498 2.117 . S
Co482 O499 2.020 . S
Co482 O501 2.021 . S
Co482 O506 2.062 . S
C483 N485 1.316 . S
C483 N486 1.347 . S
C483 H488 0.931 . S
C484 N485 1.375 . S
C484 C487 1.350 . S
C484 H489 0.930 . S
N485 Co480 2.057 . S
N485 C483 1.316 . S
N485 C484 1.375 . S
N486 C483 1.347 . S
N486 C487 1.373 . S
C487 C484 1.350 . S
C487 N486 1.373 . S
C487 H508 0.931 . S
H488 C483 0.931 . S
H489 C484 0.930 . S
C490 O497 1.259 . S
C490 O498 1.258 . S
N491 Co482 2.057 . S
N491 C492 1.316 . S
N491 C493 1.375 . S
C492 N491 1.316 . S
C492 N494 1.347 . S
C492 H503 0.931 . S
C493 N491 1.375 . S
C493 C495 1.350 . S
C493 H502 0.930 . S
N494 C492 1.347 . S
N494 C495 1.373 . S
C495 C493 1.350 . S
C495 N494 1.373 . S
C495 H509 0.931 . S
C496 O499 1.256 . S
C496 O500 1.255 . S
O497 Co480 2.021 . S
O497 C490 1.259 . S
O498 Co482 2.117 . S
O498 C490 1.258 . S
O499 Co482 2.020 . S
O499 C496 1.256 . S
O500 Co480 2.062 . S
O500 C496 1.255 . S
O501 C481 1.259 . S
O501 Co482 2.021 . S
H502 C493 0.930 . S
H503 C492 0.931 . S
O504 Co480 2.117 . S
O504 C481 1.258 . S
O505 Co480 2.020 . S
O505 C507 1.256 . S
O506 Co482 2.062 . S
O506 C507 1.255 . S
C507 O505 1.256 . S
C507 O506 1.255 . S
H508 C487 0.931 . S
H509 C495 0.931 . S
Co510 N515 2.057 . S
Co510 O527 2.021 . S
Co510 O530 2.062 . S
Co510 O534 2.117 . S
Co510 O535 2.020 . S
C511 O531 1.259 . S
C511 O534 1.258 . S
Co512 N521 2.057 . S
Co512 O528 2.117 . S
Co512 O529 2.020 . S
Co512 O531 2.021 . S
Co512 O536 2.062 . S
C513 N515 1.316 . S
C513 N516 1.347 . S
C513 H518 0.931 . S
C514 N515 1.375 . S
C514 C517 1.350 . S
C514 H519 0.930 . S
N515 Co510 2.057 . S
N515 C513 1.316 . S
N515 C514 1.375 . S
N516 C513 1.347 . S
N516 C517 1.373 . S
C517 C514 1.350 . S
C517 N516 1.373 . S
C517 H538 0.931 1_554 S
H518 C513 0.931 . S
H519 C514 0.930 . S
C520 O527 1.259 . S
C520 O528 1.258 . S
N521 Co512 2.057 . S
N521 C522 1.316 . S
N521 C523 1.375 . S
C522 N521 1.316 . S
C522 N524 1.347 . S
C522 H533 0.931 . S
C523 N521 1.375 . S
C523 C525 1.350 . S
C523 H532 0.930 . S
N524 C522 1.347 . S
N524 C525 1.373 . S
C525 C523 1.350 . S
C525 N524 1.373 . S
C525 H539 0.931 . S
C526 O529 1.256 . S
C526 O530 1.255 . S
O527 Co510 2.021 . S
O527 C520 1.259 . S
O528 Co512 2.117 . S
O528 C520 1.258 . S
O529 Co512 2.020 . S
O529 C526 1.256 . S
O530 Co510 2.062 . S
O530 C526 1.255 . S
O531 C511 1.259 . S
O531 Co512 2.021 . S
H532 C523 0.930 . S
H533 C522 0.931 . S
O534 Co510 2.117 . S
O534 C511 1.258 . S
O535 Co510 2.020 . S
O535 C537 1.256 . S
O536 Co512 2.062 . S
O536 C537 1.255 . S
C537 O535 1.256 . S
C537 O536 1.255 . S
H538 C517 0.931 1_556 S
H539 C525 0.931 . S
Co540 N545 2.057 . S
Co540 O557 2.021 . S
Co540 O560 2.062 . S
Co540 O564 2.117 . S
Co540 O565 2.020 . S
C541 O561 1.259 . S
C541 O564 1.258 . S
Co542 N551 2.057 . S
Co542 O558 2.117 . S
Co542 O559 2.020 . S
Co542 O561 2.021 . S
Co542 O566 2.062 . S
C543 N545 1.316 . S
C543 N546 1.347 . S
C543 H548 0.931 . S
C544 N545 1.375 . S
C544 C547 1.350 . S
C544 H549 0.930 . S
N545 Co540 2.057 . S
N545 C543 1.316 . S
N545 C544 1.375 . S
N546 C543 1.347 . S
N546 C547 1.373 . S
C547 C544 1.350 . S
C547 N546 1.373 . S
C547 H568 0.931 . S
H548 C543 0.931 . S
H549 C544 0.930 . S
C550 O557 1.259 . S
C550 O558 1.258 . S
N551 Co542 2.057 . S
N551 C552 1.316 1_655 S
N551 C553 1.375 . S
C552 N551 1.316 1_455 S
C552 N554 1.347 . S
C552 H563 0.931 . S
C553 N551 1.375 . S
C553 C555 1.350 . S
C553 H562 0.930 . S
N554 C552 1.347 . S
N554 C555 1.373 1_455 S
C555 C553 1.350 . S
C555 N554 1.373 1_655 S
C555 H569 0.931 . S
C556 O559 1.256 . S
C556 O560 1.255 . S
O557 Co540 2.021 . S
O557 C550 1.259 . S
O558 Co542 2.117 . S
O558 C550 1.258 . S
O559 Co542 2.020 . S
O559 C556 1.256 . S
O560 Co540 2.062 . S
O560 C556 1.255 . S
O561 C541 1.259 . S
O561 Co542 2.021 . S
H562 C553 0.930 . S
H563 C552 0.931 . S
O564 Co540 2.117 . S
O564 C541 1.258 . S
O565 Co540 2.020 . S
O565 C567 1.256 . S
O566 Co542 2.062 . S
O566 C567 1.255 . S
C567 O565 1.256 . S
C567 O566 1.255 . S
H568 C547 0.931 . S
H569 C555 0.931 . S
Co570 N575 2.057 . S
Co570 O587 2.021 . S
Co570 O590 2.062 . S
Co570 O594 2.117 . S
Co570 O595 2.020 . S
C571 O591 1.259 . S
C571 O594 1.258 . S
Co572 N581 2.057 . S
Co572 O588 2.117 . S
Co572 O589 2.020 . S
Co572 O591 2.021 . S
Co572 O596 2.062 . S
C573 N575 1.316 1_455 S
C573 N576 1.347 . S
C573 H578 0.931 . S
C574 N575 1.375 . S
C574 C577 1.350 . S
C574 H579 0.930 . S
N575 Co570 2.057 . S
N575 C573 1.316 1_655 S
N575 C574 1.375 . S
N576 C573 1.347 . S
N576 C577 1.373 1_455 S
C577 C574 1.350 . S
C577 N576 1.373 1_655 S
C577 H598 0.931 . S
H578 C573 0.931 . S
H579 C574 0.930 . S
C580 O587 1.259 . S
C580 O588 1.258 . S
N581 Co572 2.057 . S
N581 C582 1.316 . S
N581 C583 1.375 . S
C582 N581 1.316 . S
C582 N584 1.347 . S
C582 H593 0.931 . S
C583 N581 1.375 . S
C583 C585 1.350 . S
C583 H592 0.930 . S
N584 C582 1.347 . S
N584 C585 1.373 . S
C585 C583 1.350 . S
C585 N584 1.373 . S
C585 H599 0.931 . S
C586 O589 1.256 . S
C586 O590 1.255 . S
O587 Co570 2.021 . S
O587 C580 1.259 . S
O588 Co572 2.117 . S
O588 C580 1.258 . S
O589 Co572 2.020 . S
O589 C586 1.256 . S
O590 Co570 2.062 . S
O590 C586 1.255 . S
O591 C571 1.259 . S
O591 Co572 2.021 . S
H592 C583 0.930 . S
H593 C582 0.931 . S
O594 Co570 2.117 . S
O594 C571 1.258 . S
O595 Co570 2.020 . S
O595 C597 1.256 . S
O596 Co572 2.062 . S
O596 C597 1.255 . S
C597 O595 1.256 . S
C597 O596 1.255 . S
H598 C577 0.931 . S
H599 C585 0.931 . S
Co600 N605 2.057 . S
Co600 O617 2.021 . S
Co600 O620 2.062 . S
Co600 O624 2.117 . S
Co600 O625 2.020 . S
C601 O621 1.259 . S
C601 O624 1.258 . S
Co602 N611 2.057 . S
Co602 O618 2.117 . S
Co602 O619 2.020 . S
Co602 O621 2.021 . S
Co602 O626 2.062 . S
C603 N605 1.316 . S
C603 N606 1.347 . S
C603 H608 0.931 . S
C604 N605 1.375 . S
C604 C607 1.350 . S
C604 H609 0.930 . S
N605 Co600 2.057 . S
N605 C603 1.316 . S
N605 C604 1.375 . S
N606 C603 1.347 . S
N606 C607 1.373 . S
C607 C604 1.350 . S
C607 N606 1.373 . S
C607 H628 0.931 . S
H608 C603 0.931 . S
H609 C604 0.930 . S
C610 O617 1.259 . S
C610 O618 1.258 . S
N611 Co602 2.057 . S
N611 C612 1.316 . S
N611 C613 1.375 . S
C612 N611 1.316 . S
C612 N614 1.347 . S
C612 H623 0.931 . S
C613 N611 1.375 . S
C613 C615 1.350 . S
C613 H622 0.930 . S
N614 C612 1.347 . S
N614 C615 1.373 . S
C615 C613 1.350 . S
C615 N614 1.373 . S
C615 H629 0.931 . S
C616 O619 1.256 . S
C616 O620 1.255 . S
O617 Co600 2.021 . S
O617 C610 1.259 . S
O618 Co602 2.117 . S
O618 C610 1.258 . S
O619 Co602 2.020 . S
O619 C616 1.256 . S
O620 Co600 2.062 . S
O620 C616 1.255 . S
O621 C601 1.259 . S
O621 Co602 2.021 . S
H622 C613 0.930 . S
H623 C612 0.931 . S
O624 Co600 2.117 . S
O624 C601 1.258 . S
O625 Co600 2.020 . S
O625 C627 1.256 . S
O626 Co602 2.062 . S
O626 C627 1.255 . S
C627 O625 1.256 . S
C627 O626 1.255 . S
H628 C607 0.931 . S
H629 C615 0.931 . S
Co630 N635 2.057 . S
Co630 O647 2.021 . S
Co630 O650 2.062 . S
Co630 O654 2.117 . S
Co630 O655 2.020 . S
C631 O651 1.259 . S
C631 O654 1.258 . S
Co632 N641 2.057 . S
Co632 O648 2.117 . S
Co632 O649 2.020 . S
Co632 O651 2.021 . S
Co632 O656 2.062 . S
C633 N635 1.316 1_455 S
C633 N636 1.347 . S
C633 H638 0.931 . S
C634 N635 1.375 . S
C634 C637 1.350 . S
C634 H639 0.930 . S
N635 Co630 2.057 . S
N635 C633 1.316 1_655 S
N635 C634 1.375 . S
N636 C633 1.347 . S
N636 C637 1.373 1_455 S
C637 C634 1.350 . S
C637 N636 1.373 1_655 S
C637 H658 0.931 . S
H638 C633 0.931 . S
H639 C634 0.930 . S
C640 O647 1.259 . S
C640 O648 1.258 . S
N641 Co632 2.057 . S
N641 C642 1.316 1_556 S
N641 C643 1.375 1_556 S
C642 N641 1.316 1_554 S
C642 N644 1.347 . S
C642 H653 0.931 1_554 S
C643 N641 1.375 1_554 S
C643 C645 1.350 . S
C643 H652 0.930 1_554 S
N644 C642 1.347 . S
N644 C645 1.373 . S
C645 C643 1.350 . S
C645 N644 1.373 . S
C645 H659 0.931 . S
C646 O649 1.256 . S
C646 O650 1.255 . S
O647 Co630 2.021 . S
O647 C640 1.259 . S
O648 Co632 2.117 . S
O648 C640 1.258 . S
O649 Co632 2.020 . S
O649 C646 1.256 . S
O650 Co630 2.062 . S
O650 C646 1.255 . S
O651 C631 1.259 . S
O651 Co632 2.021 . S
H652 C643 0.930 1_556 S
H653 C642 0.931 1_556 S
O654 Co630 2.117 . S
O654 C631 1.258 . S
O655 Co630 2.020 . S
O655 C657 1.256 . S
O656 Co632 2.062 . S
O656 C657 1.255 . S
C657 O655 1.256 . S
C657 O656 1.255 . S
H658 C637 0.931 . S
H659 C645 0.931 . S
Co660 N665 2.057 . S
Co660 O677 2.021 . S
Co660 O680 2.062 . S
Co660 O684 2.117 . S
Co660 O685 2.020 . S
C661 O681 1.259 . S
C661 O684 1.258 . S
Co662 N671 2.057 . S
Co662 O678 2.117 . S
Co662 O679 2.020 . S
Co662 O681 2.021 . S
Co662 O686 2.062 . S
C663 N665 1.316 . S
C663 N666 1.347 . S
C663 H668 0.931 . S
C664 N665 1.375 . S
C664 C667 1.350 . S
C664 H669 0.930 . S
N665 Co660 2.057 . S
N665 C663 1.316 . S
N665 C664 1.375 . S
N666 C663 1.347 . S
N666 C667 1.373 . S
C667 C664 1.350 . S
C667 N666 1.373 . S
C667 H688 0.931 . S
H668 C663 0.931 . S
H669 C664 0.930 . S
C670 O677 1.259 . S
C670 O678 1.258 . S
N671 Co662 2.057 . S
N671 C672 1.316 1_655 S
N671 C673 1.375 . S
C672 N671 1.316 1_455 S
C672 N674 1.347 . S
C672 H683 0.931 . S
C673 N671 1.375 . S
C673 C675 1.350 . S
C673 H682 0.930 . S
N674 C672 1.347 . S
N674 C675 1.373 1_455 S
C675 C673 1.350 . S
C675 N674 1.373 1_655 S
C675 H689 0.931 . S
C676 O679 1.256 . S
C676 O680 1.255 . S
O677 Co660 2.021 . S
O677 C670 1.259 . S
O678 Co662 2.117 . S
O678 C670 1.258 . S
O679 Co662 2.020 . S
O679 C676 1.256 . S
O680 Co660 2.062 . S
O680 C676 1.255 . S
O681 C661 1.259 . S
O681 Co662 2.021 . S
H682 C673 0.930 . S
H683 C672 0.931 . S
O684 Co660 2.117 . S
O684 C661 1.258 . S
O685 Co660 2.020 . S
O685 C687 1.256 . S
O686 Co662 2.062 . S
O686 C687 1.255 . S
C687 O685 1.256 . S
C687 O686 1.255 . S
H688 C667 0.931 . S
H689 C675 0.931 . S
Co690 N695 2.057 . S
Co690 O707 2.021 . S
Co690 O710 2.062 . S
Co690 O714 2.117 . S
Co690 O715 2.020 . S
C691 O711 1.259 . S
C691 O714 1.258 . S
Co692 N701 2.057 . S
Co692 O708 2.117 . S
Co692 O709 2.020 . S
Co692 O711 2.021 . S
Co692 O716 2.062 . S
C693 N695 1.316 . S
C693 N696 1.347 . S
C693 H698 0.931 . S
C694 N695 1.375 . S
C694 C697 1.350 . S
C694 H699 0.930 . S
N695 Co690 2.057 . S
N695 C693 1.316 . S
N695 C694 1.375 . S
N696 C693 1.347 . S
N696 C697 1.373 . S
C697 C694 1.350 . S
C697 N696 1.373 . S
C697 H718 0.931 . S
H698 C693 0.931 . S
H699 C694 0.930 . S
C700 O707 1.259 . S
C700 O708 1.258 . S
N701 Co692 2.057 . S
N701 C702 1.316 . S
N701 C703 1.375 . S
C702 N701 1.316 . S
C702 N704 1.347 . S
C702 H713 0.931 . S
C703 N701 1.375 . S
C703 C705 1.350 . S
C703 H712 0.930 . S
N704 C702 1.347 . S
N704 C705 1.373 . S
C705 C703 1.350 . S
C705 N704 1.373 . S
C705 H719 0.931 . S
C706 O709 1.256 . S
C706 O710 1.255 . S
O707 Co690 2.021 . S
O707 C700 1.259 . S
O708 Co692 2.117 . S
O708 C700 1.258 . S
O709 Co692 2.020 . S
O709 C706 1.256 . S
O710 Co690 2.062 . S
O710 C706 1.255 . S
O711 C691 1.259 . S
O711 Co692 2.021 . S
H712 C703 0.930 . S
H713 C702 0.931 . S
O714 Co690 2.117 . S
O714 C691 1.258 . S
O715 Co690 2.020 . S
O715 C717 1.256 . S
O716 Co692 2.062 . S
O716 C717 1.255 . S
C717 O715 1.256 . S
C717 O716 1.255 . S
H718 C697 0.931 . S
H719 C705 0.931 . S
Co720 N725 2.057 . S
Co720 O737 2.021 . S
Co720 O740 2.062 . S
Co720 O744 2.117 . S
Co720 O745 2.020 . S
C721 O741 1.259 . S
C721 O744 1.258 . S
Co722 N731 2.057 . S
Co722 O738 2.117 . S
Co722 O739 2.020 . S
Co722 O741 2.021 . S
Co722 O746 2.062 . S
C723 N725 1.316 . S
C723 N726 1.347 . S
C723 H728 0.931 . S
C724 N725 1.375 . S
C724 C727 1.350 . S
C724 H729 0.930 . S
N725 Co720 2.057 . S
N725 C723 1.316 . S
N725 C724 1.375 . S
N726 C723 1.347 . S
N726 C727 1.373 . S
C727 C724 1.350 . S
C727 N726 1.373 . S
C727 H748 0.931 . S
H728 C723 0.931 . S
H729 C724 0.930 . S
C730 O737 1.259 . S
C730 O738 1.258 . S
N731 Co722 2.057 . S
N731 C732 1.316 . S
N731 C733 1.375 . S
C732 N731 1.316 . S
C732 N734 1.347 . S
C732 H743 0.931 . S
C733 N731 1.375 . S
C733 C735 1.350 . S
C733 H742 0.930 . S
N734 C732 1.347 . S
N734 C735 1.373 . S
C735 C733 1.350 . S
C735 N734 1.373 . S
C735 H749 0.931 . S
C736 O739 1.256 . S
C736 O740 1.255 . S
O737 Co720 2.021 . S
O737 C730 1.259 . S
O738 Co722 2.117 . S
O738 C730 1.258 . S
O739 Co722 2.020 . S
O739 C736 1.256 . S
O740 Co720 2.062 . S
O740 C736 1.255 . S
O741 C721 1.259 . S
O741 Co722 2.021 . S
H742 C733 0.930 . S
H743 C732 0.931 . S
O744 Co720 2.117 . S
O744 C721 1.258 . S
O745 Co720 2.020 . S
O745 C747 1.256 . S
O746 Co722 2.062 . S
O746 C747 1.255 . S
C747 O745 1.256 . S
C747 O746 1.255 . S
H748 C727 0.931 . S
H749 C735 0.931 . S
Co750 N755 2.057 . S
Co750 O767 2.021 . S
Co750 O770 2.062 . S
Co750 O774 2.117 . S
Co750 O775 2.020 . S
C751 O771 1.259 . S
C751 O774 1.258 . S
Co752 N761 2.057 . S
Co752 O768 2.117 . S
Co752 O769 2.020 . S
Co752 O771 2.021 . S
Co752 O776 2.062 . S
C753 N755 1.316 . S
C753 N756 1.347 . S
C753 H758 0.931 . S
C754 N755 1.375 . S
C754 C757 1.350 . S
C754 H759 0.930 . S
N755 Co750 2.057 . S
N755 C753 1.316 . S
N755 C754 1.375 . S
N756 C753 1.347 . S
N756 C757 1.373 . S
C757 C754 1.350 . S
C757 N756 1.373 . S
C757 H778 0.931 . S
H758 C753 0.931 . S
H759 C754 0.930 . S
C760 O767 1.259 . S
C760 O768 1.258 . S
N761 Co752 2.057 . S
N761 C762 1.316 . S
N761 C763 1.375 . S
C762 N761 1.316 . S
C762 N764 1.347 . S
C762 H773 0.931 . S
C763 N761 1.375 . S
C763 C765 1.350 . S
C763 H772 0.930 . S
N764 C762 1.347 . S
N764 C765 1.373 . S
C765 C763 1.350 . S
C765 N764 1.373 . S
C765 H779 0.931 1_556 S
C766 O769 1.256 . S
C766 O770 1.255 . S
O767 Co750 2.021 . S
O767 C760 1.259 . S
O768 Co752 2.117 . S
O768 C760 1.258 . S
O769 Co752 2.020 . S
O769 C766 1.256 . S
O770 Co750 2.062 . S
O770 C766 1.255 . S
O771 C751 1.259 . S
O771 Co752 2.021 . S
H772 C763 0.930 . S
H773 C762 0.931 . S
O774 Co750 2.117 . S
O774 C751 1.258 . S
O775 Co750 2.020 . S
O775 C777 1.256 . S
O776 Co752 2.062 . S
O776 C777 1.255 . S
C777 O775 1.256 . S
C777 O776 1.255 . S
H778 C757 0.931 . S
H779 C765 0.931 1_554 S
Co780 N785 2.057 . S
Co780 O797 2.021 . S
Co780 O800 2.062 . S
Co780 O804 2.117 . S
Co780 O805 2.020 . S
C781 O801 1.259 . S
C781 O804 1.258 . S
Co782 N791 2.057 . S
Co782 O798 2.117 . S
Co782 O799 2.020 . S
Co782 O801 2.021 . S
Co782 O806 2.062 . S
C783 N785 1.316 1_655 S
C783 N786 1.347 . S
C783 H788 0.931 . S
C784 N785 1.375 . S
C784 C787 1.350 . S
C784 H789 0.930 . S
N785 Co780 2.057 . S
N785 C783 1.316 1_455 S
N785 C784 1.375 . S
N786 C783 1.347 . S
N786 C787 1.373 1_655 S
C787 C784 1.350 . S
C787 N786 1.373 1_455 S
C787 H808 0.931 . S
H788 C783 0.931 . S
H789 C784 0.930 . S
C790 O797 1.259 . S
C790 O798 1.258 . S
N791 Co782 2.057 . S
N791 C792 1.316 . S
N791 C793 1.375 . S
C792 N791 1.316 . S
C792 N794 1.347 . S
C792 H803 0.931 . S
C793 N791 1.375 . S
C793 C795 1.350 . S
C793 H802 0.930 . S
N794 C792 1.347 . S
N794 C795 1.373 . S
C795 C793 1.350 . S
C795 N794 1.373 . S
C795 H809 0.931 . S
C796 O799 1.256 . S
C796 O800 1.255 . S
O797 Co780 2.021 . S
O797 C790 1.259 . S
O798 Co782 2.117 . S
O798 C790 1.258 . S
O799 Co782 2.020 . S
O799 C796 1.256 . S
O800 Co780 2.062 . S
O800 C796 1.255 . S
O801 C781 1.259 . S
O801 Co782 2.021 . S
H802 C793 0.930 . S
H803 C792 0.931 . S
O804 Co780 2.117 . S
O804 C781 1.258 . S
O805 Co780 2.020 . S
O805 C807 1.256 . S
O806 Co782 2.062 . S
O806 C807 1.255 . S
C807 O805 1.256 . S
C807 O806 1.255 . S
H808 C787 0.931 . S
H809 C795 0.931 . S
Co810 N815 2.057 . S
Co810 O827 2.021 . S
Co810 O830 2.062 . S
Co810 O834 2.117 . S
Co810 O835 2.020 . S
C811 O831 1.259 . S
C811 O834 1.258 . S
Co812 N821 2.057 . S
Co812 O828 2.117 . S
Co812 O829 2.020 . S
Co812 O831 2.021 . S
Co812 O836 2.062 . S
C813 N815 1.316 . S
C813 N816 1.347 . S
C813 H818 0.931 . S
C814 N815 1.375 . S
C814 C817 1.350 . S
C814 H819 0.930 . S
N815 Co810 2.057 . S
N815 C813 1.316 . S
N815 C814 1.375 . S
N816 C813 1.347 . S
N816 C817 1.373 . S
C817 C814 1.350 . S
C817 N816 1.373 . S
C817 H838 0.931 . S
H818 C813 0.931 . S
H819 C814 0.930 . S
C820 O827 1.259 . S
C820 O828 1.258 . S
N821 Co812 2.057 . S
N821 C822 1.316 1_455 S
N821 C823 1.375 . S
C822 N821 1.316 1_655 S
C822 N824 1.347 . S
C822 H833 0.931 . S
C823 N821 1.375 . S
C823 C825 1.350 . S
C823 H832 0.930 . S
N824 C822 1.347 . S
N824 C825 1.373 1_655 S
C825 C823 1.350 . S
C825 N824 1.373 1_455 S
C825 H839 0.931 . S
C826 O829 1.256 . S
C826 O830 1.255 . S
O827 Co810 2.021 . S
O827 C820 1.259 . S
O828 Co812 2.117 . S
O828 C820 1.258 . S
O829 Co812 2.020 . S
O829 C826 1.256 . S
O830 Co810 2.062 . S
O830 C826 1.255 . S
O831 C811 1.259 . S
O831 Co812 2.021 . S
H832 C823 0.930 . S
H833 C822 0.931 . S
O834 Co810 2.117 . S
O834 C811 1.258 . S
O835 Co810 2.020 . S
O835 C837 1.256 . S
O836 Co812 2.062 . S
O836 C837 1.255 . S
C837 O835 1.256 . S
C837 O836 1.255 . S
H838 C817 0.931 . S
H839 C825 0.931 . S
Co840 N845 2.057 . S
Co840 O857 2.021 . S
Co840 O860 2.062 . S
Co840 O864 2.117 . S
Co840 O865 2.020 . S
C841 O861 1.259 . S
C841 O864 1.258 . S
Co842 N851 2.057 . S
Co842 O858 2.117 . S
Co842 O859 2.020 . S
Co842 O861 2.021 . S
Co842 O866 2.062 . S
C843 N845 1.316 . S
C843 N846 1.347 . S
C843 H848 0.931 . S
C844 N845 1.375 . S
C844 C847 1.350 . S
C844 H849 0.930 . S
N845 Co840 2.057 . S
N845 C843 1.316 . S
N845 C844 1.375 . S
N846 C843 1.347 . S
N846 C847 1.373 . S
C847 C844 1.350 . S
C847 N846 1.373 . S
C847 H868 0.931 . S
H848 C843 0.931 . S
H849 C844 0.930 . S
C850 O857 1.259 . S
C850 O858 1.258 . S
N851 Co842 2.057 . S
N851 C852 1.316 . S
N851 C853 1.375 . S
C852 N851 1.316 . S
C852 N854 1.347 . S
C852 H863 0.931 . S
C853 N851 1.375 . S
C853 C855 1.350 . S
C853 H862 0.930 . S
N854 C852 1.347 . S
N854 C855 1.373 . S
C855 C853 1.350 . S
C855 N854 1.373 . S
C855 H869 0.931 . S
C856 O859 1.256 . S
C856 O860 1.255 . S
O857 Co840 2.021 . S
O857 C850 1.259 . S
O858 Co842 2.117 . S
O858 C850 1.258 . S
O859 Co842 2.020 . S
O859 C856 1.256 . S
O860 Co840 2.062 . S
O860 C856 1.255 . S
O861 C841 1.259 . S
O861 Co842 2.021 . S
H862 C853 0.930 . S
H863 C852 0.931 . S
O864 Co840 2.117 . S
O864 C841 1.258 . S
O865 Co840 2.020 . S
O865 C867 1.256 . S
O866 Co842 2.062 . S
O866 C867 1.255 . S
C867 O865 1.256 . S
C867 O866 1.255 . S
H868 C847 0.931 . S
H869 C855 0.931 . S
Co870 N875 2.057 . S
Co870 O887 2.021 . S
Co870 O890 2.062 . S
Co870 O894 2.117 . S
Co870 O895 2.020 . S
C871 O891 1.259 . S
C871 O894 1.258 . S
Co872 N881 2.057 . S
Co872 O888 2.117 . S
Co872 O889 2.020 . S
Co872 O891 2.021 . S
Co872 O896 2.062 . S
C873 N875 1.316 1_556 S
C873 N876 1.347 . S
C873 H878 0.931 1_556 S
C874 N875 1.375 1_556 S
C874 C877 1.350 . S
C874 H879 0.930 1_556 S
N875 Co870 2.057 . S
N875 C873 1.316 1_554 S
N875 C874 1.375 1_554 S
N876 C873 1.347 . S
N876 C877 1.373 . S
C877 C874 1.350 . S
C877 N876 1.373 . S
C877 H898 0.931 . S
H878 C873 0.931 1_554 S
H879 C874 0.930 1_554 S
C880 O887 1.259 . S
C880 O888 1.258 . S
N881 Co872 2.057 . S
N881 C882 1.316 1_455 S
N881 C883 1.375 . S
C882 N881 1.316 1_655 S
C882 N884 1.347 . S
C882 H893 0.931 . S
C883 N881 1.375 . S
C883 C885 1.350 . S
C883 H892 0.930 . S
N884 C882 1.347 . S
N884 C885 1.373 1_655 S
C885 C883 1.350 . S
C885 N884 1.373 1_455 S
C885 H899 0.931 . S
C886 O889 1.256 . S
C886 O890 1.255 . S
O887 Co870 2.021 . S
O887 C880 1.259 . S
O888 Co872 2.117 . S
O888 C880 1.258 . S
O889 Co872 2.020 . S
O889 C886 1.256 . S
O890 Co870 2.062 . S
O890 C886 1.255 . S
O891 C871 1.259 . S
O891 Co872 2.021 . S
H892 C883 0.930 . S
H893 C882 0.931 . S
O894 Co870 2.117 . S
O894 C871 1.258 . S
O895 Co870 2.020 . S
O895 C897 1.256 . S
O896 Co872 2.062 . S
O896 C897 1.255 . S
C897 O895 1.256 . S
C897 O896 1.255 . S
H898 C877 0.931 . S
H899 C885 0.931 . S
Co900 N905 2.057 . S
Co900 O917 2.021 . S
Co900 O920 2.062 . S
Co900 O924 2.117 . S
Co900 O925 2.020 . S
C901 O921 1.259 . S
C901 O924 1.258 . S
Co902 N911 2.057 . S
Co902 O918 2.117 . S
Co902 O919 2.020 . S
Co902 O921 2.021 . S
Co902 O926 2.062 . S
C903 N905 1.316 1_655 S
C903 N906 1.347 . S
C903 H908 0.931 . S
C904 N905 1.375 . S
C904 C907 1.350 . S
C904 H909 0.930 . S
N905 Co900 2.057 . S
N905 C903 1.316 1_455 S
N905 C904 1.375 . S
N906 C903 1.347 . S
N906 C907 1.373 1_655 S
C907 C904 1.350 . S
C907 N906 1.373 1_455 S
C907 H928 0.931 . S
H908 C903 0.931 . S
H909 C904 0.930 . S
C910 O917 1.259 . S
C910 O918 1.258 . S
N911 Co902 2.057 . S
N911 C912 1.316 . S
N911 C913 1.375 . S
C912 N911 1.316 . S
C912 N914 1.347 . S
C912 H923 0.931 . S
C913 N911 1.375 . S
C913 C915 1.350 . S
C913 H922 0.930 . S
N914 C912 1.347 . S
N914 C915 1.373 . S
C915 C913 1.350 . S
C915 N914 1.373 . S
C915 H929 0.931 . S
C916 O919 1.256 . S
C916 O920 1.255 . S
O917 Co900 2.021 . S
O917 C910 1.259 . S
O918 Co902 2.117 . S
O918 C910 1.258 . S
O919 Co902 2.020 . S
O919 C916 1.256 . S
O920 Co900 2.062 . S
O920 C916 1.255 . S
O921 C901 1.259 . S
O921 Co902 2.021 . S
H922 C913 0.930 . S
H923 C912 0.931 . S
O924 Co900 2.117 . S
O924 C901 1.258 . S
O925 Co900 2.020 . S
O925 C927 1.256 . S
O926 Co902 2.062 . S
O926 C927 1.255 . S
C927 O925 1.256 . S
C927 O926 1.255 . S
H928 C907 0.931 . S
H929 C915 0.931 . S
Co930 N935 2.057 . S
Co930 O947 2.021 . S
Co930 O950 2.062 . S
Co930 O954 2.117 . S
Co930 O955 2.020 . S
C931 O951 1.259 . S
C931 O954 1.258 . S
Co932 N941 2.057 . S
Co932 O948 2.117 . S
Co932 O949 2.020 . S
Co932 O951 2.021 . S
Co932 O956 2.062 . S
C933 N935 1.316 . S
C933 N936 1.347 . S
C933 H938 0.931 . S
C934 N935 1.375 . S
C934 C937 1.350 . S
C934 H939 0.930 . S
N935 Co930 2.057 . S
N935 C933 1.316 . S
N935 C934 1.375 . S
N936 C933 1.347 . S
N936 C937 1.373 . S
C937 C934 1.350 . S
C937 N936 1.373 . S
C937 H958 0.931 . S
H938 C933 0.931 . S
H939 C934 0.930 . S
C940 O947 1.259 . S
C940 O948 1.258 . S
N941 Co932 2.057 . S
N941 C942 1.316 . S
N941 C943 1.375 . S
C942 N941 1.316 . S
C942 N944 1.347 . S
C942 H953 0.931 . S
C943 N941 1.375 . S
C943 C945 1.350 . S
C943 H952 0.930 . S
N944 C942 1.347 . S
N944 C945 1.373 . S
C945 C943 1.350 . S
C945 N944 1.373 . S
C945 H959 0.931 . S
C946 O949 1.256 . S
C946 O950 1.255 . S
O947 Co930 2.021 . S
O947 C940 1.259 . S
O948 Co932 2.117 . S
O948 C940 1.258 . S
O949 Co932 2.020 . S
O949 C946 1.256 . S
O950 Co930 2.062 . S
O950 C946 1.255 . S
O951 C931 1.259 . S
O951 Co932 2.021 . S
H952 C943 0.930 . S
H953 C942 0.931 . S
O954 Co930 2.117 . S
O954 C931 1.258 . S
O955 Co930 2.020 . S
O955 C957 1.256 . S
O956 Co932 2.062 . S
O956 C957 1.255 . S
C957 O955 1.256 . S
C957 O956 1.255 . S
H958 C937 0.931 . S
H959 C945 0.931 . S
C27 C837 2.144 . S
C57 N246 2.326 . S
C87 N756 1.543 . S
N306 N96 2.259 . S
C147 C897 2.144 . S
N426 N156 2.260 . S
N936 C207 1.543 . S
C237 N366 2.326 . S
C256 C586 2.144 . S
C286 N14 2.326 . S
N524 C316 1.543 . S
N74 N344 2.259 . S
C376 C646 2.144 . S
N404 N194 2.260 . S
C436 N704 1.543 . S
N134 C466 2.326 . S
C357 C507 2.144 . S
N726 C537 2.327 . S
N276 C567 1.543 . S
N576 N786 2.260 1_455 S
C417 C627 2.144 . S
N906 N636 2.260 1_655 S
N456 C687 1.543 . S
C717 N846 2.327 . S
C736 C106 2.144 . S
C766 N494 2.327 . S
C796 N44 1.543 . S
N824 N554 2.260 1_655 S
C166 C856 2.144 . S
N674 N884 2.260 1_455 S
C916 N224 1.543 . S
C946 N614 2.327 . S
C1 C541 3.172 1_455 S
C580 C31 2.497 1_655 S
C61 C481 3.171 . S
C100 C511 2.497 . S
C661 C121 3.171 1_655 S
C160 C691 2.497 . S
C601 C181 3.171 . S
C211 C640 2.497 1_455 S
C790 C250 3.172 1_455 S
C280 C811 2.497 1_655 S
C310 C730 3.171 . S
C331 C760 2.497 . S
C910 C370 3.171 1_455 S
C940 C391 2.497 . S
C430 C850 3.171 . S
C460 C871 2.497 1_655 S
N6 N734 1.471 . S
N284 N36 2.278 1_665 S
N66 N794 1.893 . S
C117 C346 4.886 1_564 S
N854 N126 1.471 . S
C406 C177 4.886 1_565 S
N186 N914 1.892 . S
N216 N464 2.278 1_466 S
N486 N254 1.471 . S
N546 N314 1.893 . S
N606 N374 1.471 . S
N434 N666 1.892 . S
N516 N764 2.277 1_554 S
C597 C826 4.886 1_655 S
C886 C657 4.886 1_454 S
N944 N696 2.277 . S
C10 C151 5.191 . S
C190 C40 3.926 . S
C220 C70 3.926 . S
C130 C91 5.191 . S
C241 C400 5.191 . S
C271 C421 3.926 . S
C451 C301 3.926 . S
C340 C361 5.191 . S
C490 C631 5.191 . S
C520 C670 3.926 . S
C550 C700 3.926 . S
C610 C571 5.191 . S
C721 C880 5.191 . S
C751 C901 3.926 . S
C931 C781 3.926 . S
C820 C841 5.191 . S
C16 C136 3.488 1_545 S
C46 N164 1.387 . S
C196 C76 2.760 1_565 S
C226 N104 1.387 . S
C267 C387 3.488 1_565 S
N396 C297 1.387 . S
C447 C327 2.760 1_545 S
C477 N336 1.387 . S
C496 C616 3.488 . S
N644 C526 1.387 . S
C556 C676 2.760 . S
C706 N584 1.387 . S
C867 C747 3.488 . S
C777 N876 1.387 . S
C807 C927 2.760 . S
N816 C957 1.387 . S
