# Generated by pormake.
# Topology dia, (4)-cn, num edge types: 1
# Building blocks:
#     Node 0, Type 0, BuildingBlock: KUFVIS_clean_sbu_0, # of connection points: 4
#     Node 1, Type 0, BuildingBlock: KUFVIS_clean_sbu_0, # of connection points: 4
#     Node 2, Type 0, BuildingBlock: KUFVIS_clean_sbu_0, # of connection points: 4
#     Node 3, Type 0, BuildingBlock: KUFVIS_clean_sbu_0, # of connection points: 4
#     Node 4, Type 0, BuildingBlock: KUFVIS_clean_sbu_0, # of connection points: 4
#     Node 5, Type 0, BuildingBlock: KUFVIS_clean_sbu_0, # of connection points: 4
#     Node 6, Type 0, BuildingBlock: KUFVIS_clean_sbu_0, # of connection points: 4
#     Node 7, Type 0, BuildingBlock: KUFVIS_clean_sbu_0, # of connection points: 4
#     Edge 8, Type (0, 0), BuildingBlock: ZUJKAS_clean_linker_0, # of connection points: 2
#     Edge 9, Type (0, 0), BuildingBlock: ZUJKAS_clean_linker_0, # of connection points: 2
#     Edge 10, Type (0, 0), BuildingBlock: ZUJKAS_clean_linker_0, # of connection points: 2
#     Edge 11, Type (0, 0), BuildingBlock: ZUJKAS_clean_linker_0, # of connection points: 2
#     Edge 12, Type (0, 0), BuildingBlock: ZUJKAS_clean_linker_0, # of connection points: 2
#     Edge 13, Type (0, 0), BuildingBlock: ZUJKAS_clean_linker_0, # of connection points: 2
#     Edge 14, Type (0, 0), BuildingBlock: ZUJKAS_clean_linker_0, # of connection points: 2
#     Edge 15, Type (0, 0), BuildingBlock: ZUJKAS_clean_linker_0, # of connection points: 2
#     Edge 16, Type (0, 0), BuildingBlock: ZUJKAS_clean_linker_0, # of connection points: 2
#     Edge 17, Type (0, 0), BuildingBlock: ZUJKAS_clean_linker_0, # of connection points: 2
#     Edge 18, Type (0, 0), BuildingBlock: ZUJKAS_clean_linker_0, # of connection points: 2
#     Edge 19, Type (0, 0), BuildingBlock: ZUJKAS_clean_linker_0, # of connection points: 2
#     Edge 20, Type (0, 0), BuildingBlock: ZUJKAS_clean_linker_0, # of connection points: 2
#     Edge 21, Type (0, 0), BuildingBlock: ZUJKAS_clean_linker_0, # of connection points: 2
#     Edge 22, Type (0, 0), BuildingBlock: ZUJKAS_clean_linker_0, # of connection points: 2
#     Edge 23, Type (0, 0), BuildingBlock: ZUJKAS_clean_linker_0, # of connection points: 2
# Relax obj value: 0.070
# Max RMSD: 0.124
# Mean RMSD: 0.124
data_MOF--net-dia--node1-KUFVIS_clean_sbu_0--edge1-ZUJKAS_clean_linker_0
_symmetry_space_group_name_H-M    P1
_symmetry_Int_Tables_number       1
_symmetry_cell_setting            triclinic
loop_
_symmetry_equiv_pos_as_xyz
'x, y, z'
_cell_length_a     49.141845
_cell_length_b     42.224512
_cell_length_c     42.216749
_cell_angle_alpha  91.242046
_cell_angle_beta   91.667239
_cell_angle_gamma 91.638379
loop_
_atom_site_label
_atom_site_type_symbol
_atom_site_fract_x
_atom_site_fract_y
_atom_site_fract_z
_atom_type_partial_charge
Mn0 Mn 0.13571 0.13743 0.6309 0.0
Mn1 Mn 0.16627 0.07491 0.59703 0.0
C2 C 0.11474 0.10963 0.58817 0.0
C3 C 0.10766 0.16084 0.66845 0.0
C4 C 0.18196 0.14268 0.58323 0.0
O5 O 0.16424 0.12643 0.66501 0.0
O6 O 0.18323 0.08604 0.63891 0.0
C7 C 0.14874 0.02684 0.64284 0.0
N8 N 0.15047 0.03662 0.61242 0.0
C9 C 0.13263 0.98645 0.5919 0.0
C10 C 0.13066 0.97576 0.623 0.0
C11 C 0.13853 0.99615 0.64859 0.0
C12 C 0.14223 0.01754 0.5877 0.0
H13 H 0.15528 0.04225 0.66252 0.0
C14 C 0.18178 0.10478 0.66292 0.0
O15 O 0.12659 0.17692 0.65458 0.0
O16 O 0.10537 0.13083 0.6611 0.0
N17 N 0.15258 0.06059 0.55626 0.0
C18 C 0.15525 0.07485 0.52782 0.0
C19 C 0.14845 0.05765 0.49975 0.0
C20 C 0.13975 0.02576 0.50119 0.0
C21 C 0.1372 0.01158 0.53075 0.0
C22 C 0.14383 0.03005 0.55791 0.0
H23 H 0.16285 0.09903 0.52657 0.0
O24 O 0.10839 0.13859 0.59488 0.0
O25 O 0.13292 0.0974 0.60687 0.0
O26 O 0.16554 0.15528 0.60237 0.0
O27 O 0.18367 0.11281 0.57922 0.0
C28 C 0.12859 0.97975 0.53434 0.0
C29 C 0.12582 0.96737 0.56489 0.0
H30 H 0.12321 0.95193 0.62749 0.0
H31 H 0.1371 0.98809 0.67266 0.0
H32 H 0.15044 0.06874 0.47703 0.0
H33 H 0.13498 0.01241 0.47943 0.0
H34 H 0.1237 0.96469 0.51375 0.0
H35 H 0.11868 0.94306 0.56732 0.0
Mn36 Mn 0.8953 0.38178 0.87519 0.0
Mn37 Mn 0.87085 0.42056 0.93891 0.0
C38 C 0.92022 0.42369 0.89943 0.0
C39 C 0.92003 0.34139 0.85122 0.0
C40 C 0.85163 0.43282 0.87182 0.0
O41 O 0.86583 0.35055 0.8899 0.0
O42 O 0.851 0.37962 0.93085 0.0
C43 C 0.88875 0.37521 0.98728 0.0
N44 N 0.8882 0.40534 0.97644 0.0
C45 C 0.91208 0.42585 0.02336 0.0
C46 C 0.91282 0.39506 0.03511 0.0
C47 C 0.90125 0.36961 0.01688 0.0
C48 C 0.8997 0.4299 0.9935 0.0
H49 H 0.87962 0.35563 0.9735 0.0
C50 C 0.84995 0.35476 0.91296 0.0
O51 O 0.90087 0.35576 0.83598 0.0
O52 O 0.92425 0.3497 0.88079 0.0
N53 N 0.88775 0.46066 0.95046 0.0
C54 C 0.88602 0.48872 0.93528 0.0
C55 C 0.89686 0.51654 0.95016 0.0
C56 C 0.90875 0.51536 0.98076 0.0
C57 C 0.91002 0.48626 0.99607 0.0
C58 C 0.89909 0.45929 0.97995 0.0
H59 H 0.87637 0.48986 0.91204 0.0
O60 O 0.92428 0.41543 0.87021 0.0
O61 O 0.90186 0.40711 0.91392 0.0
O62 O 0.86605 0.41184 0.85867 0.0
O63 O 0.85215 0.43831 0.90168 0.0
C64 C 0.92171 0.48291 0.02667 0.0
C65 C 0.92305 0.45269 0.04013 0.0
H66 H 0.92225 0.39069 0.05805 0.0
H67 H 0.90178 0.34577 0.02575 0.0
H68 H 0.89579 0.53891 0.93822 0.0
H69 H 0.91686 0.53693 0.99225 0.0
H70 H 0.92998 0.50338 0.03997 0.0
H71 H 0.9325 0.45037 0.06344 0.0
Mn72 Mn 0.63404 0.13941 0.13141 0.0
Mn73 Mn 0.65879 0.07518 0.09377 0.0
C74 C 0.60922 0.11438 0.08999 0.0
C75 C 0.60908 0.16352 0.17144 0.0
C76 C 0.67769 0.14219 0.08041 0.0
O77 O 0.66377 0.12555 0.16276 0.0
O78 O 0.67839 0.08371 0.13478 0.0
C79 C 0.6407 0.02731 0.1395 0.0
N80 N 0.64136 0.03784 0.10926 0.0
C81 C 0.61727 0.99092 0.08911 0.0
C82 C 0.61642 0.97948 0.12001 0.0
C83 C 0.62805 0.99785 0.14534 0.0
C84 C 0.62984 0.02062 0.08481 0.0
H85 H 0.64984 0.04122 0.15898 0.0
C86 C 0.67949 0.10222 0.15919 0.0
O87 O 0.62791 0.17894 0.15669 0.0
O88 O 0.60544 0.13372 0.16379 0.0
N89 N 0.64205 0.06326 0.05366 0.0
C90 C 0.64388 0.07817 0.02547 0.0
C91 C 0.63297 0.06313 0.99775 0.0
C92 C 0.6209 0.03266 0.99919 0.0
C93 C 0.61953 0.01763 0.02844 0.0
C94 C 0.63056 0.03388 0.05528 0.0
H95 H 0.65364 0.10132 0.02414 0.0
O96 O 0.6049 0.14362 0.09788 0.0
O97 O 0.62771 0.10028 0.10675 0.0
O98 O 0.66295 0.15574 0.10083 0.0
O99 O 0.67755 0.11222 0.0758 0.0
C100 C 0.60762 0.98719 0.03205 0.0
C101 C 0.6062 0.97402 0.0624 0.0
H102 H 0.60685 0.95667 0.12458 0.0
H103 H 0.62743 0.98922 0.16927 0.0
H104 H 0.63413 0.07485 0.97527 0.0
H105 H 0.61272 0.02105 0.9777 0.0
H106 H 0.59926 0.9738 0.01168 0.0
H107 H 0.5966 0.95083 0.06492 0.0
Mn108 Mn 0.89325 0.88344 0.37623 0.0
Mn109 Mn 0.86869 0.92145 0.44038 0.0
C110 C 0.91778 0.92557 0.40051 0.0
C111 C 0.91858 0.84348 0.35247 0.0
C112 C 0.84878 0.93338 0.37334 0.0
O113 O 0.864 0.85187 0.39093 0.0
O114 O 0.84979 0.87983 0.43303 0.0
C115 C 0.88857 0.8773 0.48887 0.0
N116 N 0.88708 0.90725 0.47772 0.0
C117 C 0.9128 0.92878 0.52295 0.0
C118 C 0.9145 0.89819 0.53501 0.0
C119 C 0.90242 0.87233 0.51783 0.0
C120 C 0.89884 0.93224 0.49391 0.0
H121 H 0.87925 0.85738 0.47577 0.0
C122 C 0.84872 0.85529 0.41469 0.0
O123 O 0.89945 0.85767 0.33698 0.0
O124 O 0.92232 0.85162 0.38213 0.0
N125 N 0.8849 0.96214 0.45102 0.0
C126 C 0.8822 0.98992 0.43557 0.0
C127 C 0.89287 0.01817 0.44975 0.0
C128 C 0.90595 0.01759 0.47975 0.0
C129 C 0.90874 0.98869 0.49504 0.0
C130 C 0.89733 0.96139 0.47998 0.0
H131 H 0.87175 0.99057 0.41275 0.0
O132 O 0.92196 0.91739 0.37131 0.0
O133 O 0.89958 0.9087 0.41493 0.0
O134 O 0.86387 0.91332 0.3598 0.0
O135 O 0.84898 0.93815 0.40331 0.0
C136 C 0.92244 0.9859 0.52458 0.0
C137 C 0.92464 0.95593 0.53843 0.0
H138 H 0.92515 0.89427 0.55735 0.0
H139 H 0.90372 0.84864 0.52692 0.0
H140 H 0.89078 0.04039 0.43773 0.0
H141 H 0.91385 0.03947 0.49081 0.0
H142 H 0.93161 1.0066 0.5367 0.0
H143 H 0.93552 0.95401 0.56096 0.0
Mn144 Mn 0.13211 0.64177 0.13037 0.0
Mn145 Mn 0.15356 0.57821 0.08869 0.0
C146 C 0.10586 0.62016 0.08819 0.0
C147 C 0.10827 0.66471 0.17207 0.0
C148 C 0.1762 0.64487 0.08016 0.0
O149 O 0.16154 0.62422 0.16013 0.0
O150 O 0.17279 0.5817 0.13055 0.0
C151 C 0.13152 0.52787 0.12933 0.0
N152 N 0.13329 0.54118 0.10034 0.0
C153 C 0.10436 0.49996 0.07614 0.0
C154 C 0.10232 0.48572 0.10572 0.0
C155 C 0.1159 0.4998 0.13243 0.0
C156 C 0.12016 0.52796 0.07453 0.0
H157 H 0.14195 0.53862 0.1499 0.0
C158 C 0.17528 0.59928 0.15564 0.0
O159 O 0.1276 0.68009 0.15812 0.0
O160 O 0.10359 0.63551 0.16275 0.0
N161 N 0.13665 0.57166 0.04759 0.0
C162 C 0.14003 0.58893 0.02102 0.0
C163 C 0.12781 0.57808 0.99217 0.0
C164 C 0.11246 0.54949 0.99089 0.0
C165 C 0.10928 0.53211 0.01852 0.0
C166 C 0.12221 0.54391 0.04651 0.0
H167 H 0.15204 0.61076 0.02178 0.0
O168 O 0.10271 0.64924 0.0976 0.0
O169 O 0.12413 0.60458 0.10369 0.0
O170 O 0.16133 0.65837 0.10046 0.0
O171 O 0.17512 0.61505 0.0744 0.0
C172 C 0.09363 0.50367 0.01946 0.0
C173 C 0.09106 0.4877 0.04829 0.0
H174 H 0.09027 0.46408 0.10822 0.0
H175 H 0.11435 0.48901 0.15535 0.0
H176 H 0.13034 0.59164 0.97094 0.0
H177 H 0.10328 0.54109 0.96853 0.0
H178 H 0.08324 0.49409 0.99823 0.0
H179 H 0.07869 0.46608 0.0488 0.0
Mn180 Mn 0.39479 0.38492 0.37455 0.0
Mn181 Mn 0.36941 0.42348 0.43785 0.0
C182 C 0.41924 0.42684 0.39923 0.0
C183 C 0.42015 0.34487 0.35108 0.0
C184 C 0.35088 0.43564 0.37051 0.0
O185 O 0.36527 0.3535 0.3887 0.0
O186 O 0.34977 0.38249 0.42939 0.0
C187 C 0.38685 0.37813 0.48643 0.0
N188 N 0.38641 0.40826 0.4756 0.0
C189 C 0.41014 0.4287 0.52265 0.0
C190 C 0.41077 0.39791 0.53439 0.0
C191 C 0.39921 0.37249 0.51611 0.0
C192 C 0.39786 0.43279 0.49274 0.0
H193 H 0.37777 0.35857 0.47259 0.0
C194 C 0.34906 0.35766 0.41144 0.0
O195 O 0.40122 0.35921 0.3354 0.0
O196 O 0.42369 0.35294 0.3808 0.0
N197 N 0.38615 0.46361 0.44965 0.0
C198 C 0.38457 0.49167 0.43446 0.0
C199 C 0.39548 0.51944 0.44937 0.0
C200 C 0.4073 0.51821 0.48 0.0
C201 C 0.40839 0.48911 0.49533 0.0
C202 C 0.39738 0.46219 0.47919 0.0
H203 H 0.37502 0.49283 0.41116 0.0
O204 O 0.4237 0.41868 0.37008 0.0
O205 O 0.40075 0.41016 0.41338 0.0
O206 O 0.3656 0.41482 0.35758 0.0
O207 O 0.35106 0.44115 0.40036 0.0
C208 C 0.42 0.48571 0.52596 0.0
C209 C 0.42117 0.45549 0.53944 0.0
H210 H 0.42011 0.3935 0.55737 0.0
H211 H 0.39965 0.34864 0.52497 0.0
H212 H 0.39454 0.54182 0.43741 0.0
H213 H 0.4155 0.53974 0.49149 0.0
H214 H 0.42832 0.50615 0.53927 0.0
H215 H 0.43055 0.45313 0.56278 0.0
Mn216 Mn 0.39573 0.8834 0.87488 0.0
Mn217 Mn 0.37487 0.92463 0.93899 0.0
C218 C 0.42215 0.92536 0.89634 0.0
C219 C 0.41942 0.84171 0.85177 0.0
C220 C 0.35165 0.9336 0.87262 0.0
O221 O 0.36635 0.85371 0.89249 0.0
O222 O 0.35565 0.88276 0.9356 0.0
C223 C 0.39757 0.88387 0.98883 0.0
N224 N 0.39559 0.91289 0.97566 0.0
C225 C 0.42505 0.93696 0.01648 0.0
C226 C 0.4273 0.90735 0.03058 0.0
C227 C 0.41356 0.88068 0.01664 0.0
C228 C 0.40887 0.93867 0.98876 0.0
H229 H 0.38703 0.86333 0.97818 0.0
C230 C 0.35293 0.85791 0.9177 0.0
O231 O 0.40007 0.85571 0.83644 0.0
O232 O 0.42416 0.85095 0.88097 0.0
N233 N 0.39178 0.96573 0.94543 0.0
C234 C 0.38818 0.99234 0.92828 0.0
C235 C 0.40054 0.02115 0.939 0.0
C236 C 0.41627 0.02235 0.96733 0.0
C237 C 0.41968 0.99467 0.98459 0.0
C238 C 0.40659 0.96673 0.97294 0.0
H239 H 0.37588 0.99165 0.90666 0.0
O240 O 0.4251 0.91602 0.86721 0.0
O241 O 0.40401 0.90984 0.91209 0.0
O242 O 0.3665 0.91355 0.85871 0.0
O243 O 0.35288 0.93898 0.9025 0.0
C244 C 0.4357 0.99364 0.01275 0.0
C245 C 0.4385 0.96477 0.0286 0.0
H246 H 0.43964 0.90478 0.052 0.0
H247 H 0.41528 0.85772 0.02732 0.0
H248 H 0.39784 0.04241 0.92555 0.0
H249 H 0.42557 0.04467 0.97563 0.0
H250 H 0.44623 0.01483 0.02222 0.0
H251 H 0.45116 0.96419 0.05 0.0
Mn252 Mn 0.63332 0.63921 0.63187 0.0
Mn253 Mn 0.65375 0.57537 0.58991 0.0
C254 C 0.60673 0.61841 0.58967 0.0
C255 C 0.60979 0.66216 0.67376 0.0
C256 C 0.67736 0.6417 0.58168 0.0
O257 O 0.66264 0.62101 0.66134 0.0
O258 O 0.6728 0.57795 0.63194 0.0
C259 C 0.63053 0.52517 0.62986 0.0
N260 N 0.63271 0.53873 0.60105 0.0
C261 C 0.60299 0.49858 0.57628 0.0
C262 C 0.60053 0.48408 0.60568 0.0
C263 C 0.6143 0.49749 0.63259 0.0
C264 C 0.6194 0.52615 0.57504 0.0
H265 H 0.6411 0.53541 0.65059 0.0
C266 C 0.6757 0.59553 0.657 0.0
O267 O 0.62927 0.67742 0.65993 0.0
O268 O 0.60487 0.63306 0.66428 0.0
N269 N 0.63691 0.56969 0.54867 0.0
C270 C 0.64072 0.58718 0.52232 0.0
C271 C 0.62837 0.577 0.49333 0.0
C272 C 0.61243 0.54884 0.49166 0.0
C273 C 0.60879 0.53124 0.51908 0.0
C274 C 0.62189 0.54235 0.54722 0.0
H275 H 0.65318 0.60867 0.52337 0.0
O276 O 0.60396 0.64746 0.59936 0.0
O277 O 0.62478 0.60235 0.605 0.0
O278 O 0.66254 0.65549 0.60183 0.0
O279 O 0.67607 0.61185 0.5761 0.0
C280 C 0.59254 0.50323 0.51964 0.0
C281 C 0.58952 0.487 0.54826 0.0
H282 H 0.58801 0.46276 0.60789 0.0
H283 H 0.61242 0.4865 0.65538 0.0
H284 H 0.63124 0.59073 0.47228 0.0
H285 H 0.60314 0.54096 0.46919 0.0
H286 H 0.58201 0.49417 0.49828 0.0
H287 H 0.57669 0.46573 0.54849 0.0
H288 H 0.35312 0.29297 0.40401 0.0
H289 H 0.32424 0.2523 0.42857 0.0
H290 H 0.27205 0.32498 0.46308 0.0
H291 H 0.30057 0.36536 0.43897 0.0
H292 H 0.29584 0.28522 0.51055 0.0
H293 H 0.24437 0.21623 0.41087 0.0
H294 H 0.28051 0.22391 0.40884 0.0
H295 H 0.25766 0.25616 0.40627 0.0
C296 C 0.33503 0.30009 0.41602 0.0
C297 C 0.32922 0.33235 0.41976 0.0
C298 C 0.31859 0.27688 0.43009 0.0
C299 C 0.29605 0.2857 0.44771 0.0
C300 C 0.28938 0.31769 0.4497 0.0
H301 H 0.18233 0.20765 0.5798 0.0
H302 H 0.21057 0.24125 0.54668 0.0
C303 C 0.30573 0.34073 0.43587 0.0
C304 C 0.28095 0.26255 0.46701 0.0
H305 H 0.23535 0.19996 0.46275 0.0
C306 C 0.28267 0.26649 0.50012 0.0
C307 C 0.264 0.23807 0.45332 0.0
C308 C 0.26126 0.23323 0.41787 0.0
C309 C 0.26767 0.24679 0.51996 0.0
C310 C 0.24997 0.22292 0.5063 0.0
C311 C 0.24876 0.21844 0.47317 0.0
C312 C 0.23248 0.20251 0.52605 0.0
C313 C 0.2712 0.25155 0.5554 0.0
C314 C 0.23491 0.16951 0.5249 0.0
C315 C 0.21867 0.15021 0.54363 0.0
C316 C 0.19954 0.16348 0.56392 0.0
C317 C 0.197 0.1966 0.56478 0.0
C318 C 0.21322 0.21587 0.54592 0.0
H319 H 0.2908 0.26412 0.56196 0.0
H320 H 0.25448 0.26619 0.56418 0.0
H321 H 0.27046 0.22856 0.56766 0.0
H322 H 0.24956 0.15868 0.50967 0.0
H323 H 0.22116 0.12482 0.54215 0.0
H324 H 0.71297 0.54948 0.65101 0.0
H325 H 0.74299 0.52847 0.69156 0.0
H326 H 0.71339 0.59522 0.7602 0.0
H327 H 0.68261 0.61655 0.71939 0.0
H328 H 0.78452 0.55953 0.72933 0.0
H329 H 0.70199 0.50765 0.80151 0.0
H330 H 0.69589 0.52022 0.76138 0.0
H331 H 0.70035 0.54913 0.79302 0.0
C332 C 0.71269 0.5599 0.67466 0.0
C333 C 0.6951 0.58465 0.68191 0.0
C334 C 0.73002 0.54783 0.69784 0.0
C335 C 0.73023 0.55998 0.72896 0.0
C336 C 0.71325 0.58519 0.73637 0.0
H337 H 0.81954 0.48149 0.89057 0.0
H338 H 0.79104 0.5146 0.85739 0.0
C339 C 0.69582 0.59748 0.71299 0.0
C340 C 0.74815 0.54549 0.75324 0.0
H341 H 0.74708 0.49764 0.81746 0.0
C342 C 0.77637 0.54626 0.74881 0.0
C343 C 0.73748 0.52819 0.77862 0.0
C344 C 0.70727 0.52593 0.78399 0.0
C345 C 0.79415 0.52971 0.76867 0.0
C346 C 0.78338 0.51136 0.79327 0.0
C347 C 0.75527 0.51153 0.79845 0.0
C348 C 0.80083 0.49116 0.81331 0.0
C349 C 0.82433 0.532 0.76308 0.0
C350 C 0.81553 0.46658 0.79961 0.0
C351 C 0.83191 0.44751 0.81851 0.0
C352 C 0.83378 0.45248 0.85159 0.0
C353 C 0.81867 0.47688 0.86522 0.0
C354 C 0.80233 0.49592 0.84629 0.0
H355 H 0.82988 0.55367 0.74995 0.0
H356 H 0.83629 0.53221 0.78581 0.0
H357 H 0.83023 0.51116 0.74865 0.0
H358 H 0.81421 0.46201 0.77427 0.0
H359 H 0.84309 0.4289 0.80716 0.0
H360 H 0.59249 0.13354 0.03164 0.0
H361 H 0.56109 0.10502 0.99376 0.0
H362 H 0.55161 0.02953 0.06014 0.0
H363 H 0.5827 0.05813 0.098 0.0
H364 H 0.56511 0.0106 0.99595 0.0
H365 H 0.47685 0.08989 0.99964 0.0
H366 H 0.5097 0.10823 0.99327 0.0
H367 H 0.50306 0.09045 0.03058 0.0
C368 C 0.58359 0.11088 0.03801 0.0
C369 C 0.59059 0.09738 0.06713 0.0
C370 C 0.56561 0.09474 0.01653 0.0
C371 C 0.554 0.06524 0.02423 0.0
C372 C 0.56041 0.05224 0.05374 0.0
H373 H 0.45213 0.9137 0.94898 0.0
H374 H 0.48548 0.9491 0.97675 0.0
C375 C 0.57832 0.06838 0.07517 0.0
C376 C 0.53601 0.0471 1.00119 0.0
H377 H 0.47306 0.04543 0.96492 0.0
C378 C 0.54505 0.01821 0.98917 0.0
C379 C 0.50991 0.05738 0.99197 0.0
C380 C 0.49908 0.08808 1.00459 0.0
C381 C 0.52859 0.99886 0.96869 0.0
C382 C 0.50196 0.00834 0.96061 0.0
C383 C 0.49328 0.03795 0.97152 0.0
C384 C 0.48221 0.98683 0.94299 0.0
C385 C 0.54003 0.96852 0.9559 0.0
C386 C 0.46885 0.99645 0.91508 0.0
C387 C 0.44943 0.97631 0.89945 0.0
C388 C 0.44268 0.94674 0.91205 0.0
C389 C 0.45657 0.93681 0.93937 0.0
C390 C 0.47589 0.95682 0.95495 0.0
H391 H 0.56259 0.97034 0.95477 0.0
H392 H 0.53493 0.94893 0.97199 0.0
H393 H 0.53148 0.96231 0.93185 0.0
H394 H 0.47341 0.01952 0.90548 0.0
H395 H 0.43921 0.9841 0.87804 0.0
H396 H 0.92154 0.83051 0.28895 0.0
H397 H 0.95372 0.79684 0.26217 0.0
H398 H 0.98859 0.77118 0.35265 0.0
H399 H 0.95699 0.80583 0.37958 0.0
H400 H 0.02765 0.78491 0.31371 0.0
H401 H 0.95447 0.70311 0.24964 0.0
H402 H 0.9482 0.74351 0.24033 0.0
H403 H 0.94413 0.73027 0.28027 0.0
C404 C 0.93581 0.8174 0.30321 0.0
C405 C 0.93657 0.82077 0.33645 0.0
C406 C 0.95415 0.79793 0.28783 0.0
C407 C 0.97336 0.78085 0.3053 0.0
C408 C 0.97393 0.78392 0.33856 0.0
H409 H 0.06965 0.63749 0.2093 0.0
H410 H 0.03846 0.66429 0.24453 0.0
C411 C 0.95578 0.80368 0.35396 0.0
C412 C 0.99373 0.76121 0.28882 0.0
H413 H 1.00018 0.70406 0.23111 0.0
C414 C 0.02159 0.767 0.29588 0.0
C415 C 0.98601 0.73734 0.26591 0.0
C416 C 0.95657 0.72794 0.25885 0.0
C417 C 0.04182 0.75044 0.28006 0.0
C418 C 0.03412 0.72803 0.25572 0.0
C419 C 1.00625 0.72149 0.2494 0.0
C420 C 0.05449 0.71156 0.23607 0.0
C421 C 0.07123 0.75691 0.29 0.0
C422 C 0.07409 0.72901 0.21956 0.0
C423 C 0.09221 0.71368 0.19978 0.0
C424 C 0.09085 0.68053 0.19551 0.0
C425 C 0.07134 0.66303 0.21214 0.0
C426 C 0.05341 0.67837 0.23223 0.0
H427 H 0.07316 0.76561 0.31502 0.0
H428 H 0.08347 0.73535 0.28743 0.0
H429 H 0.07996 0.77562 0.27493 0.0
H430 H 0.07493 0.75464 0.22125 0.0
H431 H 0.10673 0.72794 0.18703 0.0
H432 H 0.31284 0.97361 0.89377 0.0
H433 H 0.28247 1.00615 0.86233 0.0
H434 H 0.31742 0.97053 0.77658 0.0
H435 H 0.34752 0.9373 0.80775 0.0
H436 H 0.29413 0.05367 0.8219 0.0
H437 H 0.23697 0.95624 0.75722 0.0
H438 H 0.25888 0.9494 0.79128 0.0
H439 H 0.27305 0.95413 0.75276 0.0
C440 C 0.31397 0.97242 0.86819 0.0
C441 C 0.33256 0.95254 0.85332 0.0
C442 C 0.2966 0.99116 0.85027 0.0
C443 C 0.29735 0.99047 0.81708 0.0
C444 C 0.31599 0.9709 0.80213 0.0
H445 H 0.23378 0.08656 0.65915 0.0
H446 H 0.26143 0.06282 0.70073 0.0
C447 C 0.33329 0.95197 0.82002 0.0
C448 C 0.27905 0.0107 0.79814 0.0
H449 H 0.23207 0.00826 0.73686 0.0
C450 C 0.2803 0.04372 0.80358 0.0
C451 C 0.26077 0.9977 0.77445 0.0
C452 C 0.25708 0.9624 0.76877 0.0
C453 C 0.26464 0.06409 0.78498 0.0
C454 C 0.24739 0.05108 0.76047 0.0
C455 C 0.24547 0.01811 0.75568 0.0
C456 C 0.23275 0.07109 0.73764 0.0
C457 C 0.26724 0.09941 0.79071 0.0
C458 C 0.20788 0.08473 0.74499 0.0
C459 C 0.19197 0.0986 0.72115 0.0
C460 C 0.20073 0.09858 0.68974 0.0
C461 C 0.22649 0.08682 0.68314 0.0
C462 C 0.24231 0.0732 0.70683 0.0
H463 H 0.282 0.1059 0.81038 0.0
H464 H 0.27392 0.11105 0.7688 0.0
H465 H 0.24706 0.10879 0.7965 0.0
H466 H 0.20014 0.08308 0.76868 0.0
H467 H 0.17206 0.10713 0.72678 0.0
H468 H 0.93726 0.48173 0.87954 0.0
H469 H 0.96853 0.51992 0.90784 0.0
H470 H 0.97774 0.45441 0.98416 0.0
H471 H 0.94674 0.4163 0.95582 0.0
H472 H 0.96428 0.51774 1.00287 0.0
H473 H 0.05243 0.51589 0.9235 0.0
H474 H 0.01963 0.52229 0.90504 0.0
H475 H 0.02635 0.48483 0.92249 0.0
C476 C 0.94611 0.47559 0.90231 0.0
C477 C 0.93902 0.44666 0.91611 0.0
C478 C 0.96403 0.49726 0.91834 0.0
C479 C 0.97553 0.48993 0.94804 0.0
C480 C 0.96906 0.46056 0.9613 0.0
H481 H 0.0765 0.56705 0.09977 0.0
H482 H 0.04359 0.53867 0.0643 0.0
C483 C 0.9512 0.43896 0.94529 0.0
C484 C 0.99329 0.51326 0.9662 0.0
H485 H 0.05568 0.55093 0.96779 0.0
C486 C 0.98418 0.525 0.99519 0.0
C487 C 0.01923 0.5231 0.95588 0.0
C488 C 0.03021 0.51081 0.92513 0.0
C489 C 1.00035 0.54578 0.01453 0.0
C490 C 0.02683 0.55449 1.00501 0.0
C491 C 0.03558 0.54386 0.97533 0.0
C492 C 0.04635 0.57249 0.02657 0.0
C493 C 0.98875 0.55824 0.04493 0.0
C494 C 0.0593 0.60067 0.017 0.0
C495 C 0.07848 0.61668 0.0372 0.0
C496 C 0.08541 0.6042 0.0668 0.0
C497 C 0.07192 0.57661 0.07667 0.0
C498 C 0.05284 0.56067 0.0566 0.0
H499 H 0.96617 0.55895 0.0431 0.0
H500 H 0.99408 0.54217 0.06447 0.0
H501 H 0.99696 0.5824 0.05122 0.0
H502 H 0.05462 0.61019 0.99392 0.0
H503 H 0.0884 0.63827 0.02943 0.0
H504 H 0.45821 0.30678 0.37831 0.0
H505 H 0.49001 0.2724 0.35137 0.0
H506 H 0.4555 0.29845 0.26084 0.0
H507 H 0.4231 0.33186 0.28762 0.0
H508 H 0.46508 0.23715 0.26058 0.0
H509 H 0.55737 0.30229 0.30847 0.0
H510 H 0.53631 0.28658 0.33872 0.0
H511 H 0.52358 0.31683 0.31331 0.0
C512 C 0.45728 0.305 0.35267 0.0
C513 C 0.43819 0.32222 0.33513 0.0
C514 C 0.47567 0.28554 0.33725 0.0
C515 C 0.47569 0.28335 0.30396 0.0
C516 C 0.45607 0.29981 0.28651 0.0
H517 H 0.60614 0.22715 0.18358 0.0
H518 H 0.57388 0.25436 0.21686 0.0
C519 C 0.43751 0.31895 0.30189 0.0
C520 C 0.49613 0.26421 0.2871 0.0
H521 H 0.56452 0.25552 0.2783 0.0
C522 C 0.48683 0.24115 0.26451 0.0
C523 C 0.52458 0.26966 0.29181 0.0
C524 C 0.53611 0.29538 0.31414 0.0
C525 C 0.50502 0.22362 0.24646 0.0
C526 C 0.53346 0.22852 0.25173 0.0
C527 C 0.54277 0.25146 0.27444 0.0
C528 C 0.55389 0.21145 0.23275 0.0
C529 C 0.49347 0.20091 0.22107 0.0
C530 C 0.55399 0.17815 0.23107 0.0
C531 C 0.57229 0.16249 0.2117 0.0
C532 C 0.59122 0.17979 0.19406 0.0
C533 C 0.59185 0.21306 0.19683 0.0
C534 C 0.57337 0.22869 0.21589 0.0
H535 H 0.47216 0.20642 0.21416 0.0
H536 H 0.50592 0.20149 0.19955 0.0
H537 H 0.49338 0.17648 0.23022 0.0
H538 H 0.53976 0.16422 0.24452 0.0
H539 H 0.5714 0.13684 0.21031 0.0
H540 H 0.80314 0.86139 0.44869 0.0
H541 H 0.77458 0.81968 0.47025 0.0
H542 H 0.82102 0.74902 0.42233 0.0
H543 H 0.85035 0.79113 0.40076 0.0
H544 H 0.74215 0.77104 0.4424 0.0
H545 H 0.82725 0.72452 0.51619 0.0
H546 H 0.82988 0.76213 0.49685 0.0
H547 H 0.8322 0.72588 0.47421 0.0
C548 C 0.80726 0.83701 0.44242 0.0
C549 C 0.82927 0.82958 0.42326 0.0
C550 C 0.7908 0.81316 0.45475 0.0
C551 C 0.79593 0.78123 0.44839 0.0
C552 C 0.81702 0.77356 0.42798 0.0
H553 H 0.71523 0.621 0.54015 0.0
H554 H 0.74396 0.65285 0.50603 0.0
C555 C 0.83357 0.7976 0.41542 0.0
C556 C 0.77966 0.75656 0.46457 0.0
H557 H 0.78359 0.70209 0.52316 0.0
C558 C 0.75124 0.7557 0.4598 0.0
C559 C 0.79154 0.73665 0.48738 0.0
C560 C 0.82186 0.73733 0.49427 0.0
C561 C 0.73436 0.73602 0.47767 0.0
C562 C 0.74617 0.717 0.50124 0.0
C563 C 0.77462 0.71688 0.50519 0.0
C564 C 0.72922 0.69782 0.52264 0.0
C565 C 0.70398 0.73591 0.47136 0.0
C566 C 0.71184 0.7126 0.54385 0.0
C567 C 0.69544 0.6945 0.56358 0.0
C568 C 0.6961 0.6612 0.56248 0.0
C569 C 0.71406 0.64656 0.54164 0.0
C570 C 0.73053 0.6647 0.52206 0.0
H571 H 0.69878 0.74531 0.44763 0.0
H572 H 0.69496 0.71159 0.47291 0.0
H573 H 0.69449 0.75115 0.48946 0.0
H574 H 0.71089 0.7382 0.54504 0.0
H575 H 0.68194 0.70663 0.5793 0.0
H576 H 0.17733 0.61406 0.21984 0.0
H577 H 0.20677 0.59036 0.26057 0.0
H578 H 0.24648 0.53697 0.18795 0.0
H579 H 0.21743 0.56004 0.14758 0.0
H580 H 0.22576 0.50001 0.23731 0.0
H581 H 0.28944 0.60307 0.28333 0.0
H582 H 0.25313 0.60762 0.28155 0.0
H583 H 0.27129 0.60346 0.24552 0.0
C584 C 0.19268 0.59771 0.21259 0.0
C585 C 0.19484 0.58877 0.18047 0.0
C586 C 0.20949 0.58422 0.23586 0.0
C587 C 0.22882 0.5619 0.22725 0.0
C588 C 0.23164 0.55401 0.19515 0.0
H589 H 0.34396 0.43254 0.30564 0.0
H590 H 0.31373 0.46382 0.27253 0.0
C591 C 0.21493 0.56727 0.17208 0.0
C592 C 0.24503 0.54478 0.25129 0.0
H593 H 0.29743 0.55352 0.30604 0.0
C594 C 0.24134 0.51173 0.25247 0.0
C595 C 0.26521 0.56015 0.27114 0.0
C596 C 0.27027 0.59551 0.27037 0.0
C597 C 0.25755 0.49354 0.27257 0.0
C598 C 0.27842 0.50872 0.2916 0.0
C599 C 0.28157 0.54191 0.29121 0.0
C600 C 0.29739 0.49041 0.31167 0.0
C601 C 0.25206 0.45822 0.27331 0.0
C602 C 0.29885 0.49557 0.3446 0.0
C603 C 0.31622 0.47785 0.36362 0.0
C604 C 0.33266 0.45463 0.35009 0.0
C605 C 0.33148 0.44995 0.31697 0.0
C606 C 0.3141 0.46774 0.29798 0.0
H607 H 0.23105 0.45169 0.26459 0.0
H608 H 0.26648 0.44611 0.2577 0.0
H609 H 0.25495 0.44923 0.29767 0.0
H610 H 0.28625 0.51305 0.35565 0.0
H611 H 0.31664 0.48233 0.38899 0.0
H612 H 0.80436 0.3621 0.94678 0.0
H613 H 0.77493 0.32114 0.9682 0.0
H614 H 0.81998 0.24924 0.92024 0.0
H615 H 0.85022 0.29054 0.89889 0.0
H616 H 0.7415 0.27358 0.94093 0.0
H617 H 0.82594 0.22429 0.01365 0.0
H618 H 0.82931 0.26176 0.9942 0.0
H619 H 0.83077 0.22534 0.97164 0.0
C620 C 0.808 0.33761 0.94048 0.0
C621 C 0.82992 0.32959 0.92141 0.0
C622 C 0.79103 0.31419 0.95271 0.0
C623 C 0.79552 0.28211 0.94634 0.0
C624 C 0.81647 0.27388 0.92594 0.0
H625 H 0.71442 0.12209 0.03724 0.0
H626 H 0.74243 0.15433 1.00278 0.0
C627 C 0.83356 0.29748 0.91351 0.0
C628 C 0.77882 0.25782 0.96253 0.0
H629 H 0.78204 0.20239 0.02024 0.0
C630 C 0.75038 0.25777 0.95803 0.0
C631 C 0.79043 0.23733 0.98499 0.0
C632 C 0.82075 0.23718 0.99172 0.0
C633 C 0.73323 0.23823 0.97574 0.0
C634 C 0.7448 0.2185 0.99885 0.0
C635 C 0.77325 0.21769 1.0026 0.0
C636 C 0.7277 0.1991 0.01993 0.0
C637 C 0.70285 0.23895 0.96966 0.0
C638 C 0.71043 0.21363 0.04145 0.0
C639 C 0.6944 0.19528 0.06139 0.0
C640 C 0.69537 0.162 0.06022 0.0
C641 C 0.71303 0.14762 0.03884 0.0
C642 C 0.7291 0.16599 0.01905 0.0
H643 H 0.69772 0.24881 0.94612 0.0
H644 H 0.6934 0.21482 0.97093 0.0
H645 H 0.69375 0.25418 0.98805 0.0
H646 H 0.70942 0.23921 0.04291 0.0
H647 H 0.68113 0.20721 0.07753 0.0
H648 H 0.8461 0.93699 0.30838 0.0
H649 H 0.81801 0.97179 0.27632 0.0
H650 H 0.78297 0.00977 0.36098 0.0
H651 H 0.81081 0.97512 0.39328 0.0
H652 H 0.74448 0.99298 0.31096 0.0
H653 H 0.82972 0.06912 0.26986 0.0
H654 H 0.83411 0.02736 0.26373 0.0
H655 H 0.83318 0.04353 0.30339 0.0
C656 C 0.83238 0.95264 0.32024 0.0
C657 C 0.83085 0.95323 0.35348 0.0
C658 C 0.81648 0.97269 0.30187 0.0
C659 C 0.79875 0.99372 0.31634 0.0
C660 C 0.79668 0.99389 0.34937 0.0
H661 H 0.67782 0.1157 0.22338 0.0
H662 H 0.70734 0.09407 0.26527 0.0
C663 C 0.81264 0.974 0.36778 0.0
C664 C 0.78205 0.01518 0.29692 0.0
H665 H 0.78658 0.07465 0.24363 0.0
C666 C 0.75359 0.01113 0.29652 0.0
C667 C 0.79405 0.03895 0.27832 0.0
C668 C 0.82443 0.0453 0.27896 0.0
C669 C 0.73687 0.02913 0.2767 0.0
C670 C 0.74893 0.05226 0.25731 0.0
C671 C 0.77735 0.05703 0.25861 0.0
C672 C 0.73283 0.06889 0.2328 0.0
C673 C 0.70656 0.02211 0.27545 0.0
C674 C 0.73819 0.06318 0.20081 0.0
C675 C 0.72162 0.07558 0.17708 0.0
C676 C 0.69929 0.09414 0.18471 0.0
C677 C 0.69485 0.1015 0.21676 0.0
C678 C 0.71151 0.0889 0.24068 0.0
H679 H 0.70113 0.99983 0.28762 0.0
H680 H 0.69603 0.04182 0.28727 0.0
H681 H 0.69877 0.02011 0.25051 0.0
H682 H 0.75459 0.04801 0.19415 0.0
H683 H 0.72583 0.0697 0.15263 0.0
H684 H 0.94335 0.91656 0.45686 0.0
H685 H 0.97621 0.95199 0.48518 0.0
H686 H 0.97249 0.01723 0.40792 0.0
H687 H 0.93764 0.98266 0.38076 0.0
H688 H 0.02436 0.96694 0.46831 0.0
H689 H 0.9686 0.07824 0.48033 0.0
H690 H 0.95359 0.04383 0.46002 0.0
H691 H 0.9765 0.06972 0.43987 0.0
C692 C 0.94877 0.93906 0.44656 0.0
C693 C 0.93703 0.94773 0.41752 0.0
C694 C 0.96785 0.95913 0.4625 0.0
C695 C 0.97647 0.98779 0.44912 0.0
C696 C 0.96551 0.9959 0.41934 0.0
H697 H 0.09879 0.12599 0.52856 0.0
H698 H 0.0674 0.09624 0.49174 0.0
C699 C 0.94583 0.97605 0.40371 0.0
C700 C 0.99861 1.00724 0.4655 0.0
H701 H 0.01569 0.08042 0.4976 0.0
C702 C 0.02229 0.99173 0.47485 0.0
C703 C 0.99654 0.03996 0.47307 0.0
C704 C 0.97231 0.05879 0.46297 0.0
C705 C 0.0434 1.00746 0.49233 0.0
C706 C 0.04077 0.03961 0.50155 0.0
C707 C 0.01763 0.05563 0.49105 0.0
C708 C 0.06133 0.05669 0.52284 0.0
C709 C 0.06874 0.98966 0.49974 0.0
C710 C 0.06843 0.0445 0.5526 0.0
C711 C 0.08666 0.06121 0.5733 0.0
C712 C 0.09798 0.09059 0.56482 0.0
C713 C 0.09067 0.10308 0.53533 0.0
C714 C 0.07269 0.08615 0.51439 0.0
H715 H 0.0708 0.9688 0.48358 0.0
H716 H 0.08675 1.00558 0.49742 0.0
H717 H 0.06821 0.98101 0.52433 0.0
H718 H 0.05922 0.02251 0.56033 0.0
H719 H 0.09119 0.05167 0.59641 0.0
H720 H 0.91209 0.31468 0.79197 0.0
H721 H 0.94246 0.28005 0.76335 0.0
H722 H 0.99848 0.28257 0.84401 0.0
H723 H 0.96773 0.3164 0.87311 0.0
H724 H 0.9921 0.29274 0.74503 0.0
H725 H 0.99653 0.18953 0.82335 0.0
H726 H 0.97176 0.21991 0.82788 0.0
H727 H 1.0059 0.22598 0.84396 0.0
C728 C 0.93067 0.30745 0.80383 0.0
C729 C 0.9374 0.31823 0.8349 0.0
C730 C 0.94808 0.28767 0.78739 0.0
C731 C 0.97271 0.27823 0.80154 0.0
C732 C 0.97933 0.28871 0.83275 0.0
H733 H 0.11205 0.22104 0.69346 0.0
H734 H 0.07968 0.24839 0.72647 0.0
C735 C 0.96177 0.30827 0.84934 0.0
C736 C 0.99216 0.25931 0.78284 0.0
H737 H 0.03015 0.19261 0.78358 0.0
C738 C 1.00025 0.27074 0.75344 0.0
C739 C 1.00264 0.23033 0.79345 0.0
C740 C 0.99355 0.21552 0.82372 0.0
C741 C 0.01873 0.25445 0.73471 0.0
C742 C 0.0302 0.22626 0.74599 0.0
C743 C 0.02171 0.21442 0.77508 0.0
C744 C 0.05085 0.20875 0.72778 0.0
C745 C 0.02531 0.26738 0.70267 0.0
C746 C 0.04621 0.17676 0.71871 0.0
C747 C 0.06499 0.16083 0.70017 0.0
C748 C 0.08878 0.1766 0.6903 0.0
C749 C 0.0938 0.20827 0.70033 0.0
C750 C 0.07518 0.22405 0.71905 0.0
H751 H 1.00905 0.28286 0.69364 0.0
H752 H 0.0445 0.28188 0.70479 0.0
H753 H 0.02806 0.24797 0.68499 0.0
H754 H 0.02772 0.16431 0.72531 0.0
H755 H 0.06051 0.13644 0.69291 0.0
H756 H 0.60812 0.72545 0.68842 0.0
H757 H 0.57598 0.75222 0.72214 0.0
H758 H 0.53968 0.66187 0.74573 0.0
H759 H 0.5712 0.635 0.711 0.0
H760 H 0.50134 0.70126 0.73151 0.0
H761 H 0.57339 0.76385 0.81577 0.0
H762 H 0.58044 0.77362 0.77568 0.0
H763 H 0.58408 0.73349 0.78851 0.0
C764 C 0.59359 0.71121 0.70116 0.0
C765 C 0.59235 0.67805 0.6971 0.0
C766 C 0.57525 0.72658 0.72064 0.0
C767 C 0.55558 0.70914 0.73706 0.0
C768 C 0.55467 0.67593 0.73348 0.0
H769 H 0.4574 0.80383 0.87917 0.0
H770 H 0.48886 0.76886 0.85254 0.0
C771 C 0.5728 0.66056 0.71369 0.0
C772 C 0.53497 0.72561 0.75633 0.0
H773 H 0.52778 0.78273 0.81387 0.0
C774 C 0.50717 0.71883 0.74976 0.0
C775 C 0.54238 0.74821 0.78059 0.0
C776 C 0.5717 0.75496 0.7908 0.0
C777 C 0.48672 0.73459 0.76598 0.0
C778 C 0.49415 0.75861 0.78883 0.0
C779 C 0.52194 0.76468 0.7961 0.0
C780 C 0.47357 0.77809 0.80511 0.0
C781 C 0.45737 0.7249 0.75869 0.0
C782 C 0.45427 0.79492 0.7875 0.0
C783 C 0.43596 0.81455 0.80274 0.0
C784 C 0.43687 0.81834 0.83594 0.0
C785 C 0.45607 0.80137 0.85358 0.0
C786 C 0.47416 0.78143 0.83834 0.0
H787 H 0.45549 0.70001 0.74961 0.0
H788 H 0.44477 0.72724 0.77997 0.0
H789 H 0.44903 0.74029 0.74 0.0
H790 H 0.45381 0.79361 0.76186 0.0
H791 H 0.4217 0.82759 0.78839 0.0
H792 H 0.2117 0.62487 0.03551 0.0
H793 H 0.24148 0.65725 1.0032 0.0
H794 H 0.21354 0.74187 0.04932 0.0
H795 H 0.1834 0.70973 0.08174 0.0
H796 H 0.21345 0.74379 0.98174 0.0
H797 H 0.31265 0.70492 0.03185 0.0
H798 H 0.28915 0.67373 0.01847 0.0
H799 H 0.28098 0.69857 0.05172 0.0
C800 C 0.21194 0.65036 0.03905 0.0
C801 C 0.19514 0.66463 0.06145 0.0
C802 C 0.22911 0.66882 0.02057 0.0
C803 C 0.22996 0.70192 0.0241 0.0
C804 C 0.21326 0.71631 0.04632 0.0
H805 H 0.31106 0.86572 0.95743 0.0
H806 H 0.2808 0.82542 0.97854 0.0
C807 C 0.19609 0.69787 0.0649 0.0
C808 C 0.24773 0.72166 1.00407 0.0
H809 H 0.31426 0.73998 0.98914 0.0
C810 C 0.23549 0.74287 0.98326 0.0
C811 C 0.27647 0.72014 1.00581 0.0
C812 C 0.29071 0.69832 0.0283 0.0
C813 C 0.25122 0.763 0.96455 0.0
C814 C 0.27997 0.76229 0.9671 0.0
C815 C 0.29222 0.74035 0.98711 0.0
C816 C 0.29754 0.7865 0.95208 0.0
C817 C 0.23693 0.78508 0.94237 0.0
C818 C 0.3173 0.77801 0.93027 0.0
C819 C 0.33485 0.80123 0.91796 0.0
C820 C 0.33317 0.83314 0.92781 0.0
C821 C 0.31307 0.84139 0.94936 0.0
C822 C 0.29554 0.81838 0.96134 0.0
H823 H 0.21602 0.77608 0.93575 0.0
H824 H 0.23519 0.80855 0.95436 0.0
H825 H 0.24849 0.78841 0.92041 0.0
H826 H 0.3193 0.75344 0.92303 0.0
H827 H 0.35021 0.79408 0.90159 0.0
H828 H 0.43646 0.48497 0.37985 0.0
H829 H 0.46779 0.52281 0.40854 0.0
H830 H 0.47631 0.45682 0.48454 0.0
H831 H 0.44527 0.41904 0.45581 0.0
H832 H 0.46316 0.52102 0.50312 0.0
H833 H 0.55181 0.5165 0.4245 0.0
H834 H 0.51911 0.52323 0.40591 0.0
H835 H 0.52538 0.48583 0.4237 0.0
C836 C 0.44514 0.47867 0.40266 0.0
C837 C 0.43788 0.44969 0.41625 0.0
C838 C 0.46308 0.50014 0.4189 0.0
C839 C 0.4744 0.49254 0.4486 0.0
C840 C 0.46772 0.46316 0.46169 0.0
H841 H 0.57632 0.56597 0.6008 0.0
H842 H 0.54279 0.53886 0.5651 0.0
C843 C 0.44985 0.44176 0.44546 0.0
C844 C 0.4924 0.51551 0.46682 0.0
H845 H 0.55562 0.55111 0.46902 0.0
C846 C 0.48331 0.5276 0.49567 0.0
C847 C 0.51862 0.52448 0.45675 0.0
C848 C 0.52954 0.51177 0.42612 0.0
C849 C 0.49985 0.54782 0.5152 0.0
C850 C 0.52659 0.55563 0.50593 0.0
C851 C 0.53531 0.54472 0.47634 0.0
C852 C 0.5464 0.57289 0.52766 0.0
C853 C 0.4884 0.56062 0.54554 0.0
C854 C 0.55999 0.60074 0.51831 0.0
C855 C 0.57949 0.61602 0.53864 0.0
C856 C 0.5861 0.60309 0.56811 0.0
C857 C 0.57199 0.57583 0.57777 0.0
C858 C 0.55257 0.56063 0.55759 0.0
H859 H 0.46586 0.56196 0.54362 0.0
H860 H 0.49334 0.54441 0.5651 0.0
H861 H 0.4971 0.58456 0.55187 0.0
H862 H 0.55556 0.61058 0.49531 0.0
H863 H 0.58988 0.63739 0.53105 0.0
loop_
_geom_bond_atom_site_label_1
_geom_bond_atom_site_label_2
_geom_bond_distance
_geom_bond_site_symmetry_2
_ccdc_geom_bond_type
Mn0 O5 2.095 . S
Mn0 O15 2.162 . S
Mn0 O16 2.297 . S
Mn0 O24 2.385 . S
Mn0 O25 2.209 . S
Mn0 O26 2.094 . S
Mn1 O6 2.121 . S
Mn1 N8 2.257 . S
Mn1 N17 2.282 . S
Mn1 O25 2.215 . S
Mn1 O27 2.117 . S
C2 O24 1.234 . S
C2 O25 1.283 . S
C3 O15 1.281 . S
C3 O16 1.236 . S
C4 O26 1.240 . S
C4 O27 1.264 . S
O5 Mn0 2.095 . S
O5 C14 1.250 . S
O6 Mn1 2.121 . S
O6 C14 1.258 . S
C7 N8 1.326 . S
C7 C11 1.460 1_545 S
C7 H13 0.929 . S
N8 Mn1 2.257 . S
N8 C7 1.326 . S
N8 C12 1.362 . S
C9 C10 1.258 . S
C9 C12 1.431 1_565 S
C9 C29 1.449 . S
C10 C9 1.258 . S
C10 C11 1.477 . S
C10 H30 0.931 . S
C11 C7 1.460 1_565 S
C11 C10 1.477 . S
C11 H31 0.930 . S
C12 N8 1.362 . S
C12 C9 1.431 1_545 S
C12 C22 1.476 . S
H13 C7 0.929 . S
C14 O5 1.250 . S
C14 O6 1.258 . S
O15 Mn0 2.162 . S
O15 C3 1.281 . S
O16 Mn0 2.297 . S
O16 C3 1.236 . S
N17 Mn1 2.282 . S
N17 C18 1.328 . S
N17 C22 1.318 . S
C18 N17 1.328 . S
C18 C19 1.457 . S
C18 H23 0.929 . S
C19 C18 1.457 . S
C19 C20 1.291 . S
C19 H32 0.931 . S
C20 C19 1.291 . S
C20 C21 1.373 . S
C20 H33 0.929 . S
C21 C20 1.373 . S
C21 C22 1.396 . S
C21 C28 1.403 . S
C22 C12 1.476 . S
C22 N17 1.318 . S
C22 C21 1.396 . S
H23 C18 0.929 . S
O24 Mn0 2.385 . S
O24 C2 1.234 . S
O25 Mn0 2.209 . S
O25 Mn1 2.215 . S
O25 C2 1.283 . S
O26 Mn0 2.094 . S
O26 C4 1.240 . S
O27 Mn1 2.117 . S
O27 C4 1.264 . S
C28 C21 1.403 . S
C28 C29 1.399 1_545 S
C28 H34 0.929 1_545 S
C29 C9 1.449 . S
C29 C28 1.399 1_565 S
C29 H35 0.930 . S
H30 C10 0.931 . S
H31 C11 0.930 . S
H32 C19 0.931 . S
H33 C20 0.929 . S
H34 C28 0.929 1_565 S
H35 C29 0.930 . S
Mn36 O41 2.095 . S
Mn36 O51 2.162 . S
Mn36 O52 2.297 . S
Mn36 O60 2.385 . S
Mn36 O61 2.209 . S
Mn36 O62 2.094 . S
Mn37 O42 2.121 . S
Mn37 N44 2.257 . S
Mn37 N53 2.282 . S
Mn37 O61 2.215 . S
Mn37 O63 2.117 . S
C38 O60 1.234 . S
C38 O61 1.283 . S
C39 O51 1.281 . S
C39 O52 1.236 . S
C40 O62 1.240 . S
C40 O63 1.264 . S
O41 Mn36 2.095 . S
O41 C50 1.250 . S
O42 Mn37 2.121 . S
O42 C50 1.258 . S
C43 N44 1.326 . S
C43 C47 1.460 1_556 S
C43 H49 0.929 . S
N44 Mn37 2.257 . S
N44 C43 1.326 . S
N44 C48 1.362 . S
C45 C46 1.258 . S
C45 C48 1.431 1_554 S
C45 C65 1.449 . S
C46 C45 1.258 . S
C46 C47 1.477 . S
C46 H66 0.931 . S
C47 C43 1.460 1_554 S
C47 C46 1.477 . S
C47 H67 0.930 . S
C48 N44 1.362 . S
C48 C45 1.431 1_556 S
C48 C58 1.476 . S
H49 C43 0.929 . S
C50 O41 1.250 . S
C50 O42 1.258 . S
O51 Mn36 2.162 . S
O51 C39 1.281 . S
O52 Mn36 2.297 . S
O52 C39 1.236 . S
N53 Mn37 2.282 . S
N53 C54 1.328 . S
N53 C58 1.318 . S
C54 N53 1.328 . S
C54 C55 1.457 . S
C54 H59 0.929 . S
C55 C54 1.457 . S
C55 C56 1.291 . S
C55 H68 0.931 . S
C56 C55 1.291 . S
C56 C57 1.373 . S
C56 H69 0.929 . S
C57 C56 1.373 . S
C57 C58 1.396 . S
C57 C64 1.403 . S
C58 C48 1.476 . S
C58 N53 1.318 . S
C58 C57 1.396 . S
H59 C54 0.929 . S
O60 Mn36 2.385 . S
O60 C38 1.234 . S
O61 Mn36 2.209 . S
O61 Mn37 2.215 . S
O61 C38 1.283 . S
O62 Mn36 2.094 . S
O62 C40 1.240 . S
O63 Mn37 2.117 . S
O63 C40 1.264 . S
C64 C57 1.403 . S
C64 C65 1.399 1_556 S
C64 H70 0.929 1_556 S
C65 C45 1.449 . S
C65 C64 1.399 1_554 S
C65 H71 0.930 . S
H66 C46 0.931 . S
H67 C47 0.930 . S
H68 C55 0.931 . S
H69 C56 0.929 . S
H70 C64 0.929 1_554 S
H71 C65 0.930 . S
Mn72 O77 2.095 . S
Mn72 O87 2.162 . S
Mn72 O88 2.297 . S
Mn72 O96 2.385 . S
Mn72 O97 2.209 . S
Mn72 O98 2.094 . S
Mn73 O78 2.121 . S
Mn73 N80 2.257 . S
Mn73 N89 2.282 . S
Mn73 O97 2.215 . S
Mn73 O99 2.117 . S
C74 O96 1.234 . S
C74 O97 1.283 . S
C75 O87 1.281 . S
C75 O88 1.236 . S
C76 O98 1.240 . S
C76 O99 1.264 . S
O77 Mn72 2.095 . S
O77 C86 1.250 . S
O78 Mn73 2.121 . S
O78 C86 1.258 . S
C79 N80 1.326 . S
C79 C83 1.460 1_545 S
C79 H85 0.929 . S
N80 Mn73 2.257 . S
N80 C79 1.326 . S
N80 C84 1.362 . S
C81 C82 1.258 . S
C81 C84 1.431 1_565 S
C81 C101 1.449 . S
C82 C81 1.258 . S
C82 C83 1.477 . S
C82 H102 0.931 . S
C83 C79 1.460 1_565 S
C83 C82 1.477 . S
C83 H103 0.930 . S
C84 N80 1.362 . S
C84 C81 1.431 1_545 S
C84 C94 1.476 . S
H85 C79 0.929 . S
C86 O77 1.250 . S
C86 O78 1.258 . S
O87 Mn72 2.162 . S
O87 C75 1.281 . S
O88 Mn72 2.297 . S
O88 C75 1.236 . S
N89 Mn73 2.282 . S
N89 C90 1.328 . S
N89 C94 1.318 . S
C90 N89 1.328 . S
C90 C91 1.457 1_554 S
C90 H95 0.929 . S
C91 C90 1.457 1_556 S
C91 C92 1.291 . S
C91 H104 0.931 . S
C92 C91 1.291 . S
C92 C93 1.373 1_556 S
C92 H105 0.929 . S
C93 C92 1.373 1_554 S
C93 C94 1.396 . S
C93 C100 1.403 1_554 S
C94 C84 1.476 . S
C94 N89 1.318 . S
C94 C93 1.396 . S
H95 C90 0.929 . S
O96 Mn72 2.385 . S
O96 C74 1.234 . S
O97 Mn72 2.209 . S
O97 Mn73 2.215 . S
O97 C74 1.283 . S
O98 Mn72 2.094 . S
O98 C76 1.240 . S
O99 Mn73 2.117 . S
O99 C76 1.264 . S
C100 C93 1.403 1_556 S
C100 C101 1.399 1_546 S
C100 H106 0.929 1_545 S
C101 C81 1.449 . S
C101 C100 1.399 1_564 S
C101 H107 0.930 . S
H102 C82 0.931 . S
H103 C83 0.930 . S
H104 C91 0.931 . S
H105 C92 0.929 . S
H106 C100 0.929 1_565 S
H107 C101 0.930 . S
Mn108 O113 2.095 . S
Mn108 O123 2.162 . S
Mn108 O124 2.297 . S
Mn108 O132 2.385 . S
Mn108 O133 2.209 . S
Mn108 O134 2.094 . S
Mn109 O114 2.121 . S
Mn109 N116 2.257 . S
Mn109 N125 2.282 . S
Mn109 O133 2.215 . S
Mn109 O135 2.117 . S
C110 O132 1.234 . S
C110 O133 1.283 . S
C111 O123 1.281 . S
C111 O124 1.236 . S
C112 O134 1.240 . S
C112 O135 1.264 . S
O113 Mn108 2.095 . S
O113 C122 1.250 . S
O114 Mn109 2.121 . S
O114 C122 1.258 . S
C115 N116 1.326 . S
C115 C119 1.460 . S
C115 H121 0.929 . S
N116 Mn109 2.257 . S
N116 C115 1.326 . S
N116 C120 1.362 . S
C117 C118 1.258 . S
C117 C120 1.431 . S
C117 C137 1.449 . S
C118 C117 1.258 . S
C118 C119 1.477 . S
C118 H138 0.931 . S
C119 C115 1.460 . S
C119 C118 1.477 . S
C119 H139 0.930 . S
C120 N116 1.362 . S
C120 C117 1.431 . S
C120 C130 1.476 . S
H121 C115 0.929 . S
C122 O113 1.250 . S
C122 O114 1.258 . S
O123 Mn108 2.162 . S
O123 C111 1.281 . S
O124 Mn108 2.297 . S
O124 C111 1.236 . S
N125 Mn109 2.282 . S
N125 C126 1.328 . S
N125 C130 1.318 . S
C126 N125 1.328 . S
C126 C127 1.457 1_565 S
C126 H131 0.929 . S
C127 C126 1.457 1_545 S
C127 C128 1.291 . S
C127 H140 0.931 . S
C128 C127 1.291 . S
C128 C129 1.373 1_545 S
C128 H141 0.929 . S
C129 C128 1.373 1_565 S
C129 C130 1.396 . S
C129 C136 1.403 1_565 S
C130 C120 1.476 . S
C130 N125 1.318 . S
C130 C129 1.396 . S
H131 C126 0.929 . S
O132 Mn108 2.385 . S
O132 C110 1.234 . S
O133 Mn108 2.209 . S
O133 Mn109 2.215 . S
O133 C110 1.283 . S
O134 Mn108 2.094 . S
O134 C112 1.240 . S
O135 Mn109 2.117 . S
O135 C112 1.264 . S
C136 C129 1.403 1_545 S
C136 C137 1.399 1_545 S
C136 H142 0.929 . S
C137 C117 1.449 . S
C137 C136 1.399 1_565 S
C137 H143 0.930 . S
H138 C118 0.931 . S
H139 C119 0.930 . S
H140 C127 0.931 . S
H141 C128 0.929 . S
H142 C136 0.929 . S
H143 C137 0.930 . S
Mn144 O149 2.095 . S
Mn144 O159 2.162 . S
Mn144 O160 2.297 . S
Mn144 O168 2.385 . S
Mn144 O169 2.209 . S
Mn144 O170 2.094 . S
Mn145 O150 2.121 . S
Mn145 N152 2.257 . S
Mn145 N161 2.282 . S
Mn145 O169 2.215 . S
Mn145 O171 2.117 . S
C146 O168 1.234 . S
C146 O169 1.283 . S
C147 O159 1.281 . S
C147 O160 1.236 . S
C148 O170 1.240 . S
C148 O171 1.264 . S
O149 Mn144 2.095 . S
O149 C158 1.250 . S
O150 Mn145 2.121 . S
O150 C158 1.258 . S
C151 N152 1.326 . S
C151 C155 1.460 . S
C151 H157 0.929 . S
N152 Mn145 2.257 . S
N152 C151 1.326 . S
N152 C156 1.362 . S
C153 C154 1.258 . S
C153 C156 1.431 . S
C153 C173 1.449 . S
C154 C153 1.258 . S
C154 C155 1.477 . S
C154 H174 0.931 . S
C155 C151 1.460 . S
C155 C154 1.477 . S
C155 H175 0.930 . S
C156 N152 1.362 . S
C156 C153 1.431 . S
C156 C166 1.476 . S
H157 C151 0.929 . S
C158 O149 1.250 . S
C158 O150 1.258 . S
O159 Mn144 2.162 . S
O159 C147 1.281 . S
O160 Mn144 2.297 . S
O160 C147 1.236 . S
N161 Mn145 2.282 . S
N161 C162 1.328 . S
N161 C166 1.318 . S
C162 N161 1.328 . S
C162 C163 1.457 1_554 S
C162 H167 0.929 . S
C163 C162 1.457 1_556 S
C163 C164 1.291 . S
C163 H176 0.931 . S
C164 C163 1.291 . S
C164 C165 1.373 1_556 S
C164 H177 0.929 . S
C165 C164 1.373 1_554 S
C165 C166 1.396 . S
C165 C172 1.403 1_554 S
C166 C156 1.476 . S
C166 N161 1.318 . S
C166 C165 1.396 . S
H167 C162 0.929 . S
O168 Mn144 2.385 . S
O168 C146 1.234 . S
O169 Mn144 2.209 . S
O169 Mn145 2.215 . S
O169 C146 1.283 . S
O170 Mn144 2.094 . S
O170 C148 1.240 . S
O171 Mn145 2.117 . S
O171 C148 1.264 . S
C172 C165 1.403 1_556 S
C172 C173 1.399 1_556 S
C172 H178 0.929 . S
C173 C153 1.449 . S
C173 C172 1.399 1_554 S
C173 H179 0.930 . S
H174 C154 0.931 . S
H175 C155 0.930 . S
H176 C163 0.931 . S
H177 C164 0.929 . S
H178 C172 0.929 . S
H179 C173 0.930 . S
Mn180 O185 2.095 . S
Mn180 O195 2.162 . S
Mn180 O196 2.297 . S
Mn180 O204 2.385 . S
Mn180 O205 2.209 . S
Mn180 O206 2.094 . S
Mn181 O186 2.121 . S
Mn181 N188 2.257 . S
Mn181 N197 2.282 . S
Mn181 O205 2.215 . S
Mn181 O207 2.117 . S
C182 O204 1.234 . S
C182 O205 1.283 . S
C183 O195 1.281 . S
C183 O196 1.236 . S
C184 O206 1.240 . S
C184 O207 1.264 . S
O185 Mn180 2.095 . S
O185 C194 1.250 . S
O186 Mn181 2.121 . S
O186 C194 1.258 . S
C187 N188 1.326 . S
C187 C191 1.460 . S
C187 H193 0.929 . S
N188 Mn181 2.257 . S
N188 C187 1.326 . S
N188 C192 1.362 . S
C189 C190 1.258 . S
C189 C192 1.431 . S
C189 C209 1.449 . S
C190 C189 1.258 . S
C190 C191 1.477 . S
C190 H210 0.931 . S
C191 C187 1.460 . S
C191 C190 1.477 . S
C191 H211 0.930 . S
C192 N188 1.362 . S
C192 C189 1.431 . S
C192 C202 1.476 . S
H193 C187 0.929 . S
C194 O185 1.250 . S
C194 O186 1.258 . S
O195 Mn180 2.162 . S
O195 C183 1.281 . S
O196 Mn180 2.297 . S
O196 C183 1.236 . S
N197 Mn181 2.282 . S
N197 C198 1.328 . S
N197 C202 1.318 . S
C198 N197 1.328 . S
C198 C199 1.457 . S
C198 H203 0.929 . S
C199 C198 1.457 . S
C199 C200 1.291 . S
C199 H212 0.931 . S
C200 C199 1.291 . S
C200 C201 1.373 . S
C200 H213 0.929 . S
C201 C200 1.373 . S
C201 C202 1.396 . S
C201 C208 1.403 . S
C202 C192 1.476 . S
C202 N197 1.318 . S
C202 C201 1.396 . S
H203 C198 0.929 . S
O204 Mn180 2.385 . S
O204 C182 1.234 . S
O205 Mn180 2.209 . S
O205 Mn181 2.215 . S
O205 C182 1.283 . S
O206 Mn180 2.094 . S
O206 C184 1.240 . S
O207 Mn181 2.117 . S
O207 C184 1.264 . S
C208 C201 1.403 . S
C208 C209 1.399 . S
C208 H214 0.929 . S
C209 C189 1.449 . S
C209 C208 1.399 . S
C209 H215 0.930 . S
H210 C190 0.931 . S
H211 C191 0.930 . S
H212 C199 0.931 . S
H213 C200 0.929 . S
H214 C208 0.929 . S
H215 C209 0.930 . S
Mn216 O221 2.095 . S
Mn216 O231 2.162 . S
Mn216 O232 2.297 . S
Mn216 O240 2.385 . S
Mn216 O241 2.209 . S
Mn216 O242 2.094 . S
Mn217 O222 2.121 . S
Mn217 N224 2.257 . S
Mn217 N233 2.282 . S
Mn217 O241 2.215 . S
Mn217 O243 2.117 . S
C218 O240 1.234 . S
C218 O241 1.283 . S
C219 O231 1.281 . S
C219 O232 1.236 . S
C220 O242 1.240 . S
C220 O243 1.264 . S
O221 Mn216 2.095 . S
O221 C230 1.250 . S
O222 Mn217 2.121 . S
O222 C230 1.258 . S
C223 N224 1.326 . S
C223 C227 1.460 1_556 S
C223 H229 0.929 . S
N224 Mn217 2.257 . S
N224 C223 1.326 . S
N224 C228 1.362 . S
C225 C226 1.258 . S
C225 C228 1.431 1_554 S
C225 C245 1.449 . S
C226 C225 1.258 . S
C226 C227 1.477 . S
C226 H246 0.931 . S
C227 C223 1.460 1_554 S
C227 C226 1.477 . S
C227 H247 0.930 . S
C228 N224 1.362 . S
C228 C225 1.431 1_556 S
C228 C238 1.476 . S
H229 C223 0.929 . S
C230 O221 1.250 . S
C230 O222 1.258 . S
O231 Mn216 2.162 . S
O231 C219 1.281 . S
O232 Mn216 2.297 . S
O232 C219 1.236 . S
N233 Mn217 2.282 . S
N233 C234 1.328 . S
N233 C238 1.318 . S
C234 N233 1.328 . S
C234 C235 1.457 1_565 S
C234 H239 0.929 . S
C235 C234 1.457 1_545 S
C235 C236 1.291 . S
C235 H248 0.931 . S
C236 C235 1.291 . S
C236 C237 1.373 1_545 S
C236 H249 0.929 . S
C237 C236 1.373 1_565 S
C237 C238 1.396 . S
C237 C244 1.403 1_565 S
C238 C228 1.476 . S
C238 N233 1.318 . S
C238 C237 1.396 . S
H239 C234 0.929 . S
O240 Mn216 2.385 . S
O240 C218 1.234 . S
O241 Mn216 2.209 . S
O241 Mn217 2.215 . S
O241 C218 1.283 . S
O242 Mn216 2.094 . S
O242 C220 1.240 . S
O243 Mn217 2.117 . S
O243 C220 1.264 . S
C244 C237 1.403 1_545 S
C244 C245 1.399 1_546 S
C244 H250 0.929 1_556 S
C245 C225 1.449 . S
C245 C244 1.399 1_564 S
C245 H251 0.930 . S
H246 C226 0.931 . S
H247 C227 0.930 . S
H248 C235 0.931 . S
H249 C236 0.929 . S
H250 C244 0.929 1_554 S
H251 C245 0.930 . S
Mn252 O257 2.095 . S
Mn252 O267 2.162 . S
Mn252 O268 2.297 . S
Mn252 O276 2.385 . S
Mn252 O277 2.209 . S
Mn252 O278 2.094 . S
Mn253 O258 2.121 . S
Mn253 N260 2.257 . S
Mn253 N269 2.282 . S
Mn253 O277 2.215 . S
Mn253 O279 2.117 . S
C254 O276 1.234 . S
C254 O277 1.283 . S
C255 O267 1.281 . S
C255 O268 1.236 . S
C256 O278 1.240 . S
C256 O279 1.264 . S
O257 Mn252 2.095 . S
O257 C266 1.250 . S
O258 Mn253 2.121 . S
O258 C266 1.258 . S
C259 N260 1.326 . S
C259 C263 1.460 . S
C259 H265 0.929 . S
N260 Mn253 2.257 . S
N260 C259 1.326 . S
N260 C264 1.362 . S
C261 C262 1.258 . S
C261 C264 1.431 . S
C261 C281 1.449 . S
C262 C261 1.258 . S
C262 C263 1.477 . S
C262 H282 0.931 . S
C263 C259 1.460 . S
C263 C262 1.477 . S
C263 H283 0.930 . S
C264 N260 1.362 . S
C264 C261 1.431 . S
C264 C274 1.476 . S
H265 C259 0.929 . S
C266 O257 1.250 . S
C266 O258 1.258 . S
O267 Mn252 2.162 . S
O267 C255 1.281 . S
O268 Mn252 2.297 . S
O268 C255 1.236 . S
N269 Mn253 2.282 . S
N269 C270 1.328 . S
N269 C274 1.318 . S
C270 N269 1.328 . S
C270 C271 1.457 . S
C270 H275 0.929 . S
C271 C270 1.457 . S
C271 C272 1.291 . S
C271 H284 0.931 . S
C272 C271 1.291 . S
C272 C273 1.373 . S
C272 H285 0.929 . S
C273 C272 1.373 . S
C273 C274 1.396 . S
C273 C280 1.403 . S
C274 C264 1.476 . S
C274 N269 1.318 . S
C274 C273 1.396 . S
H275 C270 0.929 . S
O276 Mn252 2.385 . S
O276 C254 1.234 . S
O277 Mn252 2.209 . S
O277 Mn253 2.215 . S
O277 C254 1.283 . S
O278 Mn252 2.094 . S
O278 C256 1.240 . S
O279 Mn253 2.117 . S
O279 C256 1.264 . S
C280 C273 1.403 . S
C280 C281 1.399 . S
C280 H286 0.929 . S
C281 C261 1.449 . S
C281 C280 1.399 . S
C281 H287 0.930 . S
H282 C262 0.931 . S
H283 C263 0.930 . S
H284 C271 0.931 . S
H285 C272 0.929 . S
H286 C280 0.929 . S
H287 C281 0.930 . S
H288 C296 0.929 . S
H289 C298 0.930 . S
H290 C300 0.930 . S
H291 C303 0.929 . S
H292 C306 0.930 . S
H293 C308 0.960 . S
H294 C308 0.960 . S
H295 C308 0.960 . S
C296 H288 0.929 . S
C296 C297 1.377 . S
C296 C298 1.384 . S
C297 C296 1.377 . S
C297 C303 1.390 . S
C298 H289 0.930 . S
C298 C296 1.384 . S
C298 C299 1.372 . S
C299 C298 1.372 . S
C299 C300 1.400 . S
C299 C304 1.490 . S
C300 H290 0.930 . S
C300 C299 1.400 . S
C300 C303 1.386 . S
H301 C317 0.930 . S
H302 C318 0.931 . S
C303 H291 0.929 . S
C303 C297 1.390 . S
C303 C300 1.386 . S
C304 C299 1.490 . S
C304 C306 1.395 . S
C304 C307 1.403 . S
H305 C311 0.930 . S
C306 H292 0.930 . S
C306 C304 1.395 . S
C306 C309 1.403 . S
C307 C304 1.403 . S
C307 C308 1.524 . S
C307 C311 1.400 . S
C308 H293 0.960 . S
C308 H294 0.960 . S
C308 H295 0.960 . S
C308 C307 1.524 . S
C309 C306 1.403 . S
C309 C310 1.392 . S
C309 C313 1.495 . S
C310 C309 1.392 . S
C310 C311 1.385 . S
C310 C312 1.478 . S
C311 H305 0.930 . S
C311 C307 1.400 . S
C311 C310 1.385 . S
C312 C310 1.478 . S
C312 C314 1.381 . S
C312 C318 1.383 . S
C313 C309 1.495 . S
C313 H319 0.959 . S
C313 H320 0.961 . S
C313 H321 0.960 . S
C314 C312 1.381 . S
C314 C315 1.394 . S
C314 H322 0.930 . S
C315 C314 1.394 . S
C315 C316 1.383 . S
C315 H323 0.929 . S
C316 C315 1.383 . S
C316 C317 1.377 . S
C317 H301 0.930 . S
C317 C316 1.377 . S
C317 C318 1.379 . S
C318 H302 0.931 . S
C318 C312 1.383 . S
C318 C317 1.379 . S
H319 C313 0.959 . S
H320 C313 0.961 . S
H321 C313 0.960 . S
H322 C314 0.930 . S
H323 C315 0.929 . S
H324 C332 0.929 . S
H325 C334 0.930 . S
H326 C336 0.930 . S
H327 C339 0.929 . S
H328 C342 0.930 . S
H329 C344 0.960 . S
H330 C344 0.960 . S
H331 C344 0.960 . S
C332 H324 0.929 . S
C332 C333 1.377 . S
C332 C334 1.384 . S
C333 C332 1.377 . S
C333 C339 1.390 . S
C334 H325 0.930 . S
C334 C332 1.384 . S
C334 C335 1.372 . S
C335 C334 1.372 . S
C335 C336 1.400 . S
C335 C340 1.490 . S
C336 H326 0.930 . S
C336 C335 1.400 . S
C336 C339 1.386 . S
H337 C353 0.930 . S
H338 C354 0.931 . S
C339 H327 0.929 . S
C339 C333 1.390 . S
C339 C336 1.386 . S
C340 C335 1.490 . S
C340 C342 1.395 . S
C340 C343 1.403 . S
H341 C347 0.930 . S
C342 H328 0.930 . S
C342 C340 1.395 . S
C342 C345 1.403 . S
C343 C340 1.403 . S
C343 C344 1.524 . S
C343 C347 1.400 . S
C344 H329 0.960 . S
C344 H330 0.960 . S
C344 H331 0.960 . S
C344 C343 1.524 . S
C345 C342 1.403 . S
C345 C346 1.392 . S
C345 C349 1.495 . S
C346 C345 1.392 . S
C346 C347 1.385 . S
C346 C348 1.478 . S
C347 H341 0.930 . S
C347 C343 1.400 . S
C347 C346 1.385 . S
C348 C346 1.478 . S
C348 C350 1.381 . S
C348 C354 1.383 . S
C349 C345 1.495 . S
C349 H355 0.959 . S
C349 H356 0.961 . S
C349 H357 0.960 . S
C350 C348 1.381 . S
C350 C351 1.394 . S
C350 H358 0.930 . S
C351 C350 1.394 . S
C351 C352 1.383 . S
C351 H359 0.929 . S
C352 C351 1.383 . S
C352 C353 1.377 . S
C353 H337 0.930 . S
C353 C352 1.377 . S
C353 C354 1.379 . S
C354 H338 0.931 . S
C354 C348 1.383 . S
C354 C353 1.379 . S
H355 C349 0.959 . S
H356 C349 0.961 . S
H357 C349 0.960 . S
H358 C350 0.930 . S
H359 C351 0.929 . S
H360 C368 0.929 . S
H361 C370 0.930 . S
H362 C372 0.930 . S
H363 C375 0.929 . S
H364 C378 0.930 . S
H365 C380 0.960 1_556 S
H366 C380 0.960 1_556 S
H367 C380 0.960 . S
C368 H360 0.929 . S
C368 C369 1.377 . S
C368 C370 1.384 . S
C369 C368 1.377 . S
C369 C375 1.390 . S
C370 H361 0.930 . S
C370 C368 1.384 . S
C370 C371 1.372 . S
C371 C370 1.372 . S
C371 C372 1.400 . S
C371 C376 1.490 . S
C372 H362 0.930 . S
C372 C371 1.400 . S
C372 C375 1.386 . S
H373 C389 0.930 . S
H374 C390 0.931 . S
C375 H363 0.929 . S
C375 C369 1.390 . S
C375 C372 1.386 . S
C376 C371 1.490 . S
C376 C378 1.395 1_545 S
C376 C379 1.414 . S
H377 C383 0.930 . S
C378 H364 0.930 . S
C378 C376 1.395 1_565 S
C378 C381 1.403 1_554 S
C379 C376 1.414 . S
C379 C380 1.531 . S
C379 C383 1.381 1_554 S
C380 H365 0.960 1_554 S
C380 H366 0.960 1_554 S
C380 H367 0.960 . S
C380 C379 1.531 . S
C381 C378 1.403 1_556 S
C381 C382 1.392 . S
C381 C385 1.495 . S
C382 C381 1.392 . S
C382 C383 1.385 1_565 S
C382 C384 1.478 . S
C383 H377 0.930 . S
C383 C379 1.381 1_556 S
C383 C382 1.385 1_545 S
C384 C382 1.478 . S
C384 C386 1.381 . S
C384 C390 1.383 . S
C385 C381 1.495 . S
C385 H391 0.959 . S
C385 H392 0.961 . S
C385 H393 0.960 . S
C386 C384 1.381 . S
C386 C387 1.394 . S
C386 H394 0.930 . S
C387 C386 1.394 . S
C387 C388 1.383 . S
C387 H395 0.929 . S
C388 C387 1.383 . S
C388 C389 1.377 . S
C389 H373 0.930 . S
C389 C388 1.377 . S
C389 C390 1.379 . S
C390 H374 0.931 . S
C390 C384 1.383 . S
C390 C389 1.379 . S
H391 C385 0.959 . S
H392 C385 0.961 . S
H393 C385 0.960 . S
H394 C386 0.930 . S
H395 C387 0.929 . S
H396 C404 0.929 . S
H397 C406 0.930 . S
H398 C408 0.930 . S
H399 C411 0.929 . S
H400 C414 0.930 . S
H401 C416 0.960 . S
H402 C416 0.960 . S
H403 C416 0.960 . S
C404 H396 0.929 . S
C404 C405 1.377 . S
C404 C406 1.384 . S
C405 C404 1.377 . S
C405 C411 1.390 . S
C406 H397 0.930 . S
C406 C404 1.384 . S
C406 C407 1.372 . S
C407 C406 1.372 . S
C407 C408 1.400 . S
C407 C412 1.490 . S
C408 H398 0.930 . S
C408 C407 1.400 . S
C408 C411 1.386 . S
H409 C425 0.930 . S
H410 C426 0.931 . S
C411 H399 0.929 . S
C411 C405 1.390 . S
C411 C408 1.386 . S
C412 C407 1.490 . S
C412 C414 1.395 1_655 S
C412 C415 1.403 . S
H413 C419 0.930 . S
C414 H400 0.930 . S
C414 C412 1.395 1_455 S
C414 C417 1.403 . S
C415 C412 1.403 . S
C415 C416 1.524 . S
C415 C419 1.400 . S
C416 H401 0.960 . S
C416 H402 0.960 . S
C416 H403 0.960 . S
C416 C415 1.524 . S
C417 C414 1.403 . S
C417 C418 1.392 . S
C417 C421 1.495 . S
C418 C417 1.392 . S
C418 C419 1.385 1_455 S
C418 C420 1.478 . S
C419 H413 0.930 . S
C419 C415 1.400 . S
C419 C418 1.385 1_655 S
C420 C418 1.478 . S
C420 C422 1.381 . S
C420 C426 1.383 . S
C421 C417 1.495 . S
C421 H427 0.959 . S
C421 H428 0.961 . S
C421 H429 0.960 . S
C422 C420 1.381 . S
C422 C423 1.394 . S
C422 H430 0.930 . S
C423 C422 1.394 . S
C423 C424 1.383 . S
C423 H431 0.929 . S
C424 C423 1.383 . S
C424 C425 1.377 . S
C425 H409 0.930 . S
C425 C424 1.377 . S
C425 C426 1.379 . S
C426 H410 0.931 . S
C426 C420 1.383 . S
C426 C425 1.379 . S
H427 C421 0.959 . S
H428 C421 0.961 . S
H429 C421 0.960 . S
H430 C422 0.930 . S
H431 C423 0.929 . S
H432 C440 0.929 . S
H433 C442 0.930 . S
H434 C444 0.930 1_545 S
H435 C447 0.929 . S
H436 C450 0.930 . S
H437 C452 0.960 . S
H438 C452 0.960 1_565 S
H439 C452 0.960 . S
C440 H432 0.929 . S
C440 C441 1.377 . S
C440 C442 1.384 . S
C441 C440 1.377 . S
C441 C447 1.390 . S
C442 H433 0.930 . S
C442 C440 1.384 . S
C442 C443 1.372 . S
C443 C442 1.372 . S
C443 C444 1.400 . S
C443 C448 1.490 . S
C444 H434 0.930 1_565 S
C444 C443 1.400 . S
C444 C447 1.386 . S
H445 C461 0.930 . S
H446 C462 0.931 . S
C447 H435 0.929 . S
C447 C441 1.390 . S
C447 C444 1.386 . S
C448 C443 1.490 . S
C448 C450 1.395 . S
C448 C451 1.403 1_565 S
H449 C455 0.930 . S
C450 H436 0.930 . S
C450 C448 1.395 . S
C450 C453 1.403 1_565 S
C451 C448 1.403 1_545 S
C451 C452 1.524 . S
C451 C455 1.400 . S
C452 H437 0.960 . S
C452 H438 0.960 1_545 S
C452 H439 0.960 . S
C452 C451 1.524 . S
C453 C450 1.403 1_545 S
C453 C454 1.392 . S
C453 C457 1.495 . S
C454 C453 1.392 . S
C454 C455 1.385 . S
C454 C456 1.478 . S
C455 H449 0.930 . S
C455 C451 1.400 . S
C455 C454 1.385 . S
C456 C454 1.478 . S
C456 C458 1.381 . S
C456 C462 1.383 . S
C457 C453 1.495 . S
C457 H463 0.946 1_545 S
C457 H464 0.961 . S
C457 H465 0.960 . S
C458 C456 1.381 . S
C458 C459 1.394 . S
C458 H466 0.930 . S
C459 C458 1.394 . S
C459 C460 1.383 . S
C459 H467 0.929 . S
C460 C459 1.383 . S
C460 C461 1.377 . S
C461 H445 0.930 . S
C461 C460 1.377 . S
C461 C462 1.379 . S
C462 H446 0.931 . S
C462 C456 1.383 . S
C462 C461 1.379 . S
H463 C457 0.946 1_565 S
H464 C457 0.961 . S
H465 C457 0.960 . S
H466 C458 0.930 . S
H467 C459 0.929 . S
H468 C476 0.929 . S
H469 C478 0.930 . S
H470 C480 0.930 . S
H471 C483 0.929 . S
H472 C486 0.926 1_554 S
H473 C488 0.960 . S
H474 C488 0.960 . S
H475 C488 0.960 . S
C476 H468 0.929 . S
C476 C477 1.377 . S
C476 C478 1.384 . S
C477 C476 1.377 . S
C477 C483 1.390 . S
C478 H469 0.930 . S
C478 C476 1.384 . S
C478 C479 1.372 . S
C479 C478 1.372 . S
C479 C480 1.400 . S
C479 C484 1.490 . S
C480 H470 0.930 . S
C480 C479 1.400 . S
C480 C483 1.386 . S
H481 C497 0.930 . S
H482 C498 0.931 . S
C483 H471 0.929 . S
C483 C477 1.390 . S
C483 C480 1.386 . S
C484 C479 1.490 . S
C484 C486 1.395 . S
C484 C487 1.403 1_655 S
H485 C491 0.930 . S
C486 H472 0.926 1_556 S
C486 C484 1.395 . S
C486 C489 1.403 1_556 S
C487 C484 1.403 1_455 S
C487 C488 1.524 . S
C487 C491 1.400 . S
C488 H473 0.960 . S
C488 H474 0.960 . S
C488 H475 0.960 . S
C488 C487 1.524 . S
C489 C486 1.403 1_554 S
C489 C490 1.392 1_655 S
C489 C493 1.495 . S
C490 C489 1.392 1_455 S
C490 C491 1.385 1_554 S
C490 C492 1.478 . S
C491 H485 0.930 . S
C491 C487 1.400 . S
C491 C490 1.385 1_556 S
C492 C490 1.478 . S
C492 C494 1.381 . S
C492 C498 1.383 . S
C493 C489 1.495 . S
C493 H499 0.959 . S
C493 H500 0.961 . S
C493 H501 0.960 . S
C494 C492 1.381 . S
C494 C495 1.394 . S
C494 H502 0.930 . S
C495 C494 1.394 . S
C495 C496 1.383 . S
C495 H503 0.929 . S
C496 C495 1.383 . S
C496 C497 1.377 . S
C497 H481 0.930 . S
C497 C496 1.377 . S
C497 C498 1.379 . S
C498 H482 0.931 . S
C498 C492 1.383 . S
C498 C497 1.379 . S
H499 C493 0.959 . S
H500 C493 0.961 . S
H501 C493 0.960 . S
H502 C494 0.930 . S
H503 C495 0.929 . S
H504 C512 0.929 . S
H505 C514 0.930 . S
H506 C516 0.930 . S
H507 C519 0.929 . S
H508 C522 0.930 . S
H509 C524 0.960 . S
H510 C524 0.960 . S
H511 C524 0.960 . S
C512 H504 0.929 . S
C512 C513 1.377 . S
C512 C514 1.384 . S
C513 C512 1.377 . S
C513 C519 1.390 . S
C514 H505 0.930 . S
C514 C512 1.384 . S
C514 C515 1.372 . S
C515 C514 1.372 . S
C515 C516 1.400 . S
C515 C520 1.490 . S
C516 H506 0.930 . S
C516 C515 1.400 . S
C516 C519 1.386 . S
H517 C533 0.930 . S
H518 C534 0.931 . S
C519 H507 0.929 . S
C519 C513 1.390 . S
C519 C516 1.386 . S
C520 C515 1.490 . S
C520 C522 1.395 . S
C520 C523 1.403 . S
H521 C527 0.930 . S
C522 H508 0.930 . S
C522 C520 1.395 . S
C522 C525 1.403 . S
C523 C520 1.403 . S
C523 C524 1.524 . S
C523 C527 1.400 . S
C524 H509 0.960 . S
C524 H510 0.960 . S
C524 H511 0.960 . S
C524 C523 1.524 . S
C525 C522 1.403 . S
C525 C526 1.392 . S
C525 C529 1.495 . S
C526 C525 1.392 . S
C526 C527 1.385 . S
C526 C528 1.478 . S
C527 H521 0.930 . S
C527 C523 1.400 . S
C527 C526 1.385 . S
C528 C526 1.478 . S
C528 C530 1.381 . S
C528 C534 1.383 . S
C529 C525 1.495 . S
C529 H535 0.959 . S
C529 H536 0.961 . S
C529 H537 0.960 . S
C530 C528 1.381 . S
C530 C531 1.394 . S
C530 H538 0.930 . S
C531 C530 1.394 . S
C531 C532 1.383 . S
C531 H539 0.929 . S
C532 C531 1.383 . S
C532 C533 1.377 . S
C533 H517 0.930 . S
C533 C532 1.377 . S
C533 C534 1.379 . S
C534 H518 0.931 . S
C534 C528 1.383 . S
C534 C533 1.379 . S
H535 C529 0.959 . S
H536 C529 0.961 . S
H537 C529 0.960 . S
H538 C530 0.930 . S
H539 C531 0.929 . S
H540 C548 0.929 . S
H541 C550 0.930 . S
H542 C552 0.930 . S
H543 C555 0.929 . S
H544 C558 0.930 . S
H545 C560 0.960 . S
H546 C560 0.960 . S
H547 C560 0.960 . S
C548 H540 0.929 . S
C548 C549 1.377 . S
C548 C550 1.384 . S
C549 C548 1.377 . S
C549 C555 1.390 . S
C550 H541 0.930 . S
C550 C548 1.384 . S
C550 C551 1.372 . S
C551 C550 1.372 . S
C551 C552 1.400 . S
C551 C556 1.490 . S
C552 H542 0.930 . S
C552 C551 1.400 . S
C552 C555 1.386 . S
H553 C569 0.930 . S
H554 C570 0.931 . S
C555 H543 0.929 . S
C555 C549 1.390 . S
C555 C552 1.386 . S
C556 C551 1.490 . S
C556 C558 1.395 . S
C556 C559 1.403 . S
H557 C563 0.930 . S
C558 H544 0.930 . S
C558 C556 1.395 . S
C558 C561 1.403 . S
C559 C556 1.403 . S
C559 C560 1.524 . S
C559 C563 1.400 . S
C560 H545 0.960 . S
C560 H546 0.960 . S
C560 H547 0.960 . S
C560 C559 1.524 . S
C561 C558 1.403 . S
C561 C562 1.392 . S
C561 C565 1.495 . S
C562 C561 1.392 . S
C562 C563 1.385 . S
C562 C564 1.478 . S
C563 H557 0.930 . S
C563 C559 1.400 . S
C563 C562 1.385 . S
C564 C562 1.478 . S
C564 C566 1.381 . S
C564 C570 1.383 . S
C565 C561 1.495 . S
C565 H571 0.959 . S
C565 H572 0.961 . S
C565 H573 0.960 . S
C566 C564 1.381 . S
C566 C567 1.394 . S
C566 H574 0.930 . S
C567 C566 1.394 . S
C567 C568 1.383 . S
C567 H575 0.929 . S
C568 C567 1.383 . S
C568 C569 1.377 . S
C569 H553 0.930 . S
C569 C568 1.377 . S
C569 C570 1.379 . S
C570 H554 0.931 . S
C570 C564 1.383 . S
C570 C569 1.379 . S
H571 C565 0.959 . S
H572 C565 0.961 . S
H573 C565 0.960 . S
H574 C566 0.930 . S
H575 C567 0.929 . S
H576 C584 0.929 . S
H577 C586 0.930 . S
H578 C588 0.930 . S
H579 C591 0.929 . S
H580 C594 0.930 . S
H581 C596 0.960 . S
H582 C596 0.960 . S
H583 C596 0.960 . S
C584 H576 0.929 . S
C584 C585 1.377 . S
C584 C586 1.384 . S
C585 C584 1.377 . S
C585 C591 1.390 . S
C586 H577 0.930 . S
C586 C584 1.384 . S
C586 C587 1.372 . S
C587 C586 1.372 . S
C587 C588 1.400 . S
C587 C592 1.490 . S
C588 H578 0.930 . S
C588 C587 1.400 . S
C588 C591 1.386 . S
H589 C605 0.930 . S
H590 C606 0.931 . S
C591 H579 0.929 . S
C591 C585 1.390 . S
C591 C588 1.386 . S
C592 C587 1.490 . S
C592 C594 1.395 . S
C592 C595 1.403 . S
H593 C599 0.930 . S
C594 H580 0.930 . S
C594 C592 1.395 . S
C594 C597 1.403 . S
C595 C592 1.403 . S
C595 C596 1.524 . S
C595 C599 1.400 . S
C596 H581 0.960 . S
C596 H582 0.960 . S
C596 H583 0.960 . S
C596 C595 1.524 . S
C597 C594 1.403 . S
C597 C598 1.392 . S
C597 C601 1.495 . S
C598 C597 1.392 . S
C598 C599 1.385 . S
C598 C600 1.478 . S
C599 H593 0.930 . S
C599 C595 1.400 . S
C599 C598 1.385 . S
C600 C598 1.478 . S
C600 C602 1.381 . S
C600 C606 1.383 . S
C601 C597 1.495 . S
C601 H607 0.959 . S
C601 H608 0.961 . S
C601 H609 0.960 . S
C602 C600 1.381 . S
C602 C603 1.394 . S
C602 H610 0.930 . S
C603 C602 1.394 . S
C603 C604 1.383 . S
C603 H611 0.929 . S
C604 C603 1.383 . S
C604 C605 1.377 . S
C605 H589 0.930 . S
C605 C604 1.377 . S
C605 C606 1.379 . S
C606 H590 0.931 . S
C606 C600 1.383 . S
C606 C605 1.379 . S
H607 C601 0.959 . S
H608 C601 0.961 . S
H609 C601 0.960 . S
H610 C602 0.930 . S
H611 C603 0.929 . S
H612 C620 0.929 . S
H613 C622 0.930 . S
H614 C624 0.930 . S
H615 C627 0.929 . S
H616 C630 0.930 . S
H617 C632 0.960 . S
H618 C632 0.960 . S
H619 C632 0.960 . S
C620 H612 0.929 . S
C620 C621 1.377 . S
C620 C622 1.384 . S
C621 C620 1.377 . S
C621 C627 1.390 . S
C622 H613 0.930 . S
C622 C620 1.384 . S
C622 C623 1.372 . S
C623 C622 1.372 . S
C623 C624 1.400 . S
C623 C628 1.490 . S
C624 H614 0.930 . S
C624 C623 1.400 . S
C624 C627 1.386 . S
H625 C641 0.930 . S
H626 C642 0.931 1_556 S
C627 H615 0.929 . S
C627 C621 1.390 . S
C627 C624 1.386 . S
C628 C623 1.490 . S
C628 C630 1.395 . S
C628 C631 1.403 . S
H629 C635 0.930 . S
C630 H616 0.930 . S
C630 C628 1.395 . S
C630 C633 1.403 1_556 S
C631 C628 1.403 . S
C631 C632 1.524 . S
C631 C635 1.400 1_556 S
C632 H617 0.960 . S
C632 H618 0.960 . S
C632 H619 0.960 . S
C632 C631 1.524 . S
C633 C630 1.403 1_554 S
C633 C634 1.392 . S
C633 C637 1.495 . S
C634 C633 1.392 . S
C634 C635 1.385 . S
C634 C636 1.478 . S
C635 H629 0.930 . S
C635 C631 1.400 1_554 S
C635 C634 1.385 . S
C636 C634 1.478 . S
C636 C638 1.381 . S
C636 C642 1.383 . S
C637 C633 1.495 . S
C637 H643 0.960 . S
C637 H644 0.957 1_554 S
C637 H645 0.960 . S
C638 C636 1.381 . S
C638 C639 1.394 . S
C638 H646 0.930 . S
C639 C638 1.394 . S
C639 C640 1.383 . S
C639 H647 0.929 . S
C640 C639 1.383 . S
C640 C641 1.377 . S
C641 H625 0.930 . S
C641 C640 1.377 . S
C641 C642 1.379 . S
C642 H626 0.931 1_554 S
C642 C636 1.383 . S
C642 C641 1.379 . S
H643 C637 0.960 . S
H644 C637 0.957 1_556 S
H645 C637 0.960 . S
H646 C638 0.930 . S
H647 C639 0.929 . S
H648 C656 0.929 . S
H649 C658 0.930 . S
H650 C660 0.930 1_545 S
H651 C663 0.929 . S
H652 C666 0.930 . S
H653 C668 0.960 . S
H654 C668 0.960 . S
H655 C668 0.960 . S
C656 H648 0.929 . S
C656 C657 1.377 . S
C656 C658 1.384 . S
C657 C656 1.377 . S
C657 C663 1.390 . S
C658 H649 0.930 . S
C658 C656 1.384 . S
C658 C659 1.372 . S
C659 C658 1.372 . S
C659 C660 1.400 . S
C659 C664 1.490 . S
C660 H650 0.930 1_565 S
C660 C659 1.400 . S
C660 C663 1.386 . S
H661 C677 0.930 . S
H662 C678 0.931 . S
C663 H651 0.929 . S
C663 C657 1.390 . S
C663 C660 1.386 . S
C664 C659 1.490 . S
C664 C666 1.395 . S
C664 C667 1.403 1_565 S
H665 C671 0.930 . S
C666 H652 0.930 . S
C666 C664 1.395 . S
C666 C669 1.423 . S
C667 C664 1.403 1_545 S
C667 C668 1.524 . S
C667 C671 1.400 . S
C668 H653 0.960 . S
C668 H654 0.960 . S
C668 H655 0.960 . S
C668 C667 1.524 . S
C669 C666 1.423 . S
C669 C670 1.367 1_565 S
C669 C673 1.502 . S
C670 C669 1.367 1_545 S
C670 C671 1.385 . S
C670 C672 1.478 . S
C671 H665 0.930 . S
C671 C667 1.400 . S
C671 C670 1.385 . S
C672 C670 1.478 . S
C672 C674 1.381 . S
C672 C678 1.383 . S
C673 C669 1.502 . S
C673 H679 0.959 . S
C673 H680 0.961 1_565 S
C673 H681 0.960 . S
C674 C672 1.381 . S
C674 C675 1.394 . S
C674 H682 0.930 . S
C675 C674 1.394 . S
C675 C676 1.383 . S
C675 H683 0.929 . S
C676 C675 1.383 . S
C676 C677 1.377 . S
C677 H661 0.930 . S
C677 C676 1.377 . S
C677 C678 1.379 . S
C678 H662 0.931 . S
C678 C672 1.383 . S
C678 C677 1.379 . S
H679 C673 0.959 . S
H680 C673 0.961 1_545 S
H681 C673 0.960 . S
H682 C674 0.930 . S
H683 C675 0.929 . S
H684 C692 0.929 . S
H685 C694 0.930 . S
H686 C696 0.930 . S
H687 C699 0.929 . S
H688 C702 0.930 . S
H689 C704 0.960 . S
H690 C704 0.960 . S
H691 C704 0.960 . S
C692 H684 0.929 . S
C692 C693 1.377 . S
C692 C694 1.384 . S
C693 C692 1.377 . S
C693 C699 1.390 . S
C694 H685 0.930 . S
C694 C692 1.384 . S
C694 C695 1.372 . S
C695 C694 1.372 . S
C695 C696 1.400 . S
C695 C700 1.490 . S
C696 H686 0.930 . S
C696 C695 1.400 . S
C696 C699 1.386 . S
H697 C713 0.930 . S
H698 C714 0.931 . S
C699 H687 0.929 . S
C699 C693 1.390 . S
C699 C696 1.386 . S
C700 C695 1.490 . S
C700 C702 1.395 1_655 S
C700 C703 1.403 1_565 S
H701 C707 0.932 . S
C702 H688 0.930 . S
C702 C700 1.395 1_455 S
C702 C705 1.403 . S
C703 C700 1.403 1_545 S
C703 C704 1.524 . S
C703 C707 1.409 . S
C704 H689 0.960 . S
C704 H690 0.960 . S
C704 H691 0.960 . S
C704 C703 1.524 . S
C705 C702 1.403 . S
C705 C706 1.392 1_565 S
C705 C709 1.495 . S
C706 C705 1.392 1_545 S
C706 C707 1.375 1_455 S
C706 C708 1.478 . S
C707 H701 0.932 . S
C707 C703 1.409 . S
C707 C706 1.375 1_655 S
C708 C706 1.478 . S
C708 C710 1.381 . S
C708 C714 1.383 . S
C709 C705 1.495 . S
C709 H715 0.959 . S
C709 H716 0.961 . S
C709 H717 0.960 . S
C710 C708 1.381 . S
C710 C711 1.394 . S
C710 H718 0.930 . S
C711 C710 1.394 . S
C711 C712 1.383 . S
C711 H719 0.929 . S
C712 C711 1.383 . S
C712 C713 1.377 . S
C713 H697 0.930 . S
C713 C712 1.377 . S
C713 C714 1.379 . S
C714 H698 0.931 . S
C714 C708 1.383 . S
C714 C713 1.379 . S
H715 C709 0.959 . S
H716 C709 0.961 . S
H717 C709 0.960 . S
H718 C710 0.930 . S
H719 C711 0.929 . S
H720 C728 0.929 . S
H721 C730 0.930 . S
H722 C732 0.930 . S
H723 C735 0.929 . S
H724 C738 0.930 . S
H725 C740 0.960 . S
H726 C740 0.960 . S
H727 C740 0.960 . S
C728 H720 0.929 . S
C728 C729 1.377 . S
C728 C730 1.384 . S
C729 C728 1.377 . S
C729 C735 1.390 . S
C730 H721 0.930 . S
C730 C728 1.384 . S
C730 C731 1.372 . S
C731 C730 1.372 . S
C731 C732 1.400 . S
C731 C736 1.490 . S
C732 H722 0.930 . S
C732 C731 1.400 . S
C732 C735 1.386 . S
H733 C749 0.930 . S
H734 C750 0.931 . S
C735 H723 0.929 . S
C735 C729 1.390 . S
C735 C732 1.386 . S
C736 C731 1.490 . S
C736 C738 1.395 . S
C736 C739 1.403 1_655 S
H737 C743 0.930 . S
C738 H724 0.930 . S
C738 C736 1.395 . S
C738 C741 1.403 . S
C739 C736 1.403 1_455 S
C739 C740 1.524 . S
C739 C743 1.400 . S
C740 H725 0.960 . S
C740 H726 0.960 . S
C740 H727 0.960 . S
C740 C739 1.524 . S
C741 C738 1.403 . S
C741 C742 1.392 1_655 S
C741 C745 1.495 . S
C742 C741 1.392 1_455 S
C742 C743 1.385 . S
C742 C744 1.478 . S
C743 H737 0.930 . S
C743 C739 1.400 . S
C743 C742 1.385 . S
C744 C742 1.478 . S
C744 C746 1.381 . S
C744 C750 1.383 . S
C745 C741 1.495 . S
C745 H751 0.959 . S
C745 H752 0.961 . S
C745 H753 0.960 . S
C746 C744 1.381 . S
C746 C747 1.394 . S
C746 H754 0.930 . S
C747 C746 1.394 . S
C747 C748 1.383 . S
C747 H755 0.929 . S
C748 C747 1.383 . S
C748 C749 1.377 . S
C749 H733 0.930 . S
C749 C748 1.377 . S
C749 C750 1.379 . S
C750 H734 0.931 . S
C750 C744 1.383 . S
C750 C749 1.379 . S
H751 C745 0.959 . S
H752 C745 0.961 . S
H753 C745 0.960 . S
H754 C746 0.930 . S
H755 C747 0.929 . S
H756 C764 0.929 . S
H757 C766 0.930 . S
H758 C768 0.930 . S
H759 C771 0.929 . S
H760 C774 0.930 . S
H761 C776 0.960 . S
H762 C776 0.960 . S
H763 C776 0.960 . S
C764 H756 0.929 . S
C764 C765 1.377 . S
C764 C766 1.384 . S
C765 C764 1.377 . S
C765 C771 1.390 . S
C766 H757 0.930 . S
C766 C764 1.384 . S
C766 C767 1.372 . S
C767 C766 1.372 . S
C767 C768 1.400 . S
C767 C772 1.490 . S
C768 H758 0.930 . S
C768 C767 1.400 . S
C768 C771 1.386 . S
H769 C785 0.930 . S
H770 C786 0.931 . S
C771 H759 0.929 . S
C771 C765 1.390 . S
C771 C768 1.386 . S
C772 C767 1.490 . S
C772 C774 1.395 . S
C772 C775 1.403 . S
H773 C779 0.930 . S
C774 H760 0.930 . S
C774 C772 1.395 . S
C774 C777 1.403 . S
C775 C772 1.403 . S
C775 C776 1.524 . S
C775 C779 1.400 . S
C776 H761 0.960 . S
C776 H762 0.960 . S
C776 H763 0.960 . S
C776 C775 1.524 . S
C777 C774 1.403 . S
C777 C778 1.392 . S
C777 C781 1.495 . S
C778 C777 1.392 . S
C778 C779 1.385 . S
C778 C780 1.478 . S
C779 H773 0.930 . S
C779 C775 1.400 . S
C779 C778 1.385 . S
C780 C778 1.478 . S
C780 C782 1.381 . S
C780 C786 1.383 . S
C781 C777 1.495 . S
C781 H787 0.959 . S
C781 H788 0.961 . S
C781 H789 0.960 . S
C782 C780 1.381 . S
C782 C783 1.394 . S
C782 H790 0.930 . S
C783 C782 1.394 . S
C783 C784 1.383 . S
C783 H791 0.929 . S
C784 C783 1.383 . S
C784 C785 1.377 . S
C785 H769 0.930 . S
C785 C784 1.377 . S
C785 C786 1.379 . S
C786 H770 0.931 . S
C786 C780 1.383 . S
C786 C785 1.379 . S
H787 C781 0.959 . S
H788 C781 0.961 . S
H789 C781 0.960 . S
H790 C782 0.930 . S
H791 C783 0.929 . S
H792 C800 0.929 . S
H793 C802 0.930 1_556 S
H794 C804 0.930 . S
H795 C807 0.929 . S
H796 C810 0.930 . S
H797 C812 0.960 . S
H798 C812 0.960 . S
H799 C812 0.960 . S
C800 H792 0.929 . S
C800 C801 1.377 . S
C800 C802 1.384 . S
C801 C800 1.377 . S
C801 C807 1.390 . S
C802 H793 0.930 1_554 S
C802 C800 1.384 . S
C802 C803 1.372 . S
C803 C802 1.372 . S
C803 C804 1.400 . S
C803 C808 1.490 . S
C804 H794 0.930 . S
C804 C803 1.400 . S
C804 C807 1.386 . S
H805 C821 0.930 . S
H806 C822 0.931 . S
C807 H795 0.929 . S
C807 C801 1.390 . S
C807 C804 1.386 . S
C808 C803 1.490 . S
C808 C810 1.395 1_554 S
C808 C811 1.403 . S
H809 C815 0.930 . S
C810 H796 0.930 . S
C810 C808 1.395 1_556 S
C810 C813 1.403 . S
C811 C808 1.403 . S
C811 C812 1.524 . S
C811 C815 1.400 1_554 S
C812 H797 0.960 . S
C812 H798 0.960 . S
C812 H799 0.960 . S
C812 C811 1.524 . S
C813 C810 1.403 . S
C813 C814 1.392 . S
C813 C817 1.495 . S
C814 C813 1.392 . S
C814 C815 1.385 . S
C814 C816 1.478 . S
C815 H809 0.930 . S
C815 C811 1.400 1_556 S
C815 C814 1.385 . S
C816 C814 1.478 . S
C816 C818 1.381 . S
C816 C822 1.383 . S
C817 C813 1.495 . S
C817 H823 0.959 . S
C817 H824 0.961 . S
C817 H825 0.960 . S
C818 C816 1.381 . S
C818 C819 1.394 . S
C818 H826 0.930 . S
C819 C818 1.394 . S
C819 C820 1.383 . S
C819 H827 0.929 . S
C820 C819 1.383 . S
C820 C821 1.377 . S
C821 H805 0.930 . S
C821 C820 1.377 . S
C821 C822 1.379 . S
C822 H806 0.931 . S
C822 C816 1.383 . S
C822 C821 1.379 . S
H823 C817 0.959 . S
H824 C817 0.961 . S
H825 C817 0.960 . S
H826 C818 0.930 . S
H827 C819 0.929 . S
H828 C836 0.929 . S
H829 C838 0.930 . S
H830 C840 0.930 . S
H831 C843 0.929 . S
H832 C846 0.930 . S
H833 C848 0.960 . S
H834 C848 0.960 . S
H835 C848 0.960 . S
C836 H828 0.929 . S
C836 C837 1.377 . S
C836 C838 1.384 . S
C837 C836 1.377 . S
C837 C843 1.390 . S
C838 H829 0.930 . S
C838 C836 1.384 . S
C838 C839 1.372 . S
C839 C838 1.372 . S
C839 C840 1.400 . S
C839 C844 1.490 . S
C840 H830 0.930 . S
C840 C839 1.400 . S
C840 C843 1.386 . S
H841 C857 0.930 . S
H842 C858 0.931 . S
C843 H831 0.929 . S
C843 C837 1.390 . S
C843 C840 1.386 . S
C844 C839 1.490 . S
C844 C846 1.395 . S
C844 C847 1.403 . S
H845 C851 0.930 . S
C846 H832 0.930 . S
C846 C844 1.395 . S
C846 C849 1.403 . S
C847 C844 1.403 . S
C847 C848 1.524 . S
C847 C851 1.400 . S
C848 H833 0.960 . S
C848 H834 0.960 . S
C848 H835 0.960 . S
C848 C847 1.524 . S
C849 C846 1.403 . S
C849 C850 1.392 . S
C849 C853 1.495 . S
C850 C849 1.392 . S
C850 C851 1.385 . S
C850 C852 1.478 . S
C851 H845 0.930 . S
C851 C847 1.400 . S
C851 C850 1.385 . S
C852 C850 1.478 . S
C852 C854 1.381 . S
C852 C858 1.383 . S
C853 C849 1.495 . S
C853 H859 0.959 . S
C853 H860 0.961 . S
C853 H861 0.960 . S
C854 C852 1.381 . S
C854 C855 1.394 . S
C854 H862 0.930 . S
C855 C854 1.394 . S
C855 C856 1.383 . S
C855 H863 0.929 . S
C856 C855 1.383 . S
C856 C857 1.377 . S
C857 H841 0.930 . S
C857 C856 1.377 . S
C857 C858 1.379 . S
C858 H842 0.931 . S
C858 C852 1.383 . S
C858 C857 1.379 . S
H859 C853 0.959 . S
H860 C853 0.961 . S
H861 C853 0.960 . S
H862 C854 0.930 . S
H863 C855 0.929 . S
C297 C194 1.461 . S
C316 C4 1.524 . S
C333 C266 1.457 . S
C352 C40 1.524 . S
C369 C74 1.513 . S
C388 C218 1.509 . S
C405 C111 1.528 . S
C424 C147 1.519 . S
C441 C220 1.525 . S
C460 C14 1.476 . S
C477 C38 1.512 . S
C496 C146 1.506 . S
C513 C183 1.531 . S
C532 C75 1.534 . S
C549 C122 1.449 . S
C568 C256 1.519 . S
C585 C158 1.461 . S
C604 C184 1.524 . S
C621 C50 1.454 . S
C640 C76 1.523 . S
C657 C112 1.525 . S
C676 C86 1.467 . S
C693 C110 1.515 . S
C712 C2 1.517 . S
C729 C39 1.531 . S
C748 C3 1.525 . S
C765 C255 1.528 . S
C784 C219 1.520 . S
C801 C148 1.524 . S
C820 C230 1.434 . S
C837 C182 1.513 . S
C856 C254 1.512 . S
