# Generated by pormake.
# Topology zfn, (5)-cn, num edge types: 1
# Building blocks:
#     Node 0, Type 0, BuildingBlock: BEQFEK_clean_sbu_0, # of connection points: 5
#     Node 1, Type 0, BuildingBlock: BEQFEK_clean_sbu_0, # of connection points: 5
#     Node 2, Type 0, BuildingBlock: BEQFEK_clean_sbu_0, # of connection points: 5
#     Node 3, Type 0, BuildingBlock: BEQFEK_clean_sbu_0, # of connection points: 5
#     Node 4, Type 0, BuildingBlock: BEQFEK_clean_sbu_0, # of connection points: 5
#     Node 5, Type 0, BuildingBlock: BEQFEK_clean_sbu_0, # of connection points: 5
#     Node 6, Type 0, BuildingBlock: BEQFEK_clean_sbu_0, # of connection points: 5
#     Node 7, Type 0, BuildingBlock: BEQFEK_clean_sbu_0, # of connection points: 5
#     Node 8, Type 0, BuildingBlock: BEQFEK_clean_sbu_0, # of connection points: 5
#     Node 9, Type 0, BuildingBlock: BEQFEK_clean_sbu_0, # of connection points: 5
#     Node 10, Type 0, BuildingBlock: BEQFEK_clean_sbu_0, # of connection points: 5
#     Node 11, Type 0, BuildingBlock: BEQFEK_clean_sbu_0, # of connection points: 5
#     Node 12, Type 0, BuildingBlock: BEQFEK_clean_sbu_0, # of connection points: 5
#     Node 13, Type 0, BuildingBlock: BEQFEK_clean_sbu_0, # of connection points: 5
#     Node 14, Type 0, BuildingBlock: BEQFEK_clean_sbu_0, # of connection points: 5
#     Node 15, Type 0, BuildingBlock: BEQFEK_clean_sbu_0, # of connection points: 5
#     Edge 16, Type (0, 0), BuildingBlock: AJUNOK_clean_linker_0, # of connection points: 2
#     Edge 17, Type (0, 0), BuildingBlock: AJUNOK_clean_linker_0, # of connection points: 2
#     Edge 18, Type (0, 0), BuildingBlock: AJUNOK_clean_linker_0, # of connection points: 2
#     Edge 19, Type (0, 0), BuildingBlock: AJUNOK_clean_linker_0, # of connection points: 2
#     Edge 20, Type (0, 0), BuildingBlock: AJUNOK_clean_linker_0, # of connection points: 2
#     Edge 21, Type (0, 0), BuildingBlock: AJUNOK_clean_linker_0, # of connection points: 2
#     Edge 22, Type (0, 0), BuildingBlock: AJUNOK_clean_linker_0, # of connection points: 2
#     Edge 23, Type (0, 0), BuildingBlock: AJUNOK_clean_linker_0, # of connection points: 2
#     Edge 24, Type (0, 0), BuildingBlock: AJUNOK_clean_linker_0, # of connection points: 2
#     Edge 25, Type (0, 0), BuildingBlock: AJUNOK_clean_linker_0, # of connection points: 2
#     Edge 26, Type (0, 0), BuildingBlock: AJUNOK_clean_linker_0, # of connection points: 2
#     Edge 27, Type (0, 0), BuildingBlock: AJUNOK_clean_linker_0, # of connection points: 2
#     Edge 28, Type (0, 0), BuildingBlock: AJUNOK_clean_linker_0, # of connection points: 2
#     Edge 29, Type (0, 0), BuildingBlock: AJUNOK_clean_linker_0, # of connection points: 2
#     Edge 30, Type (0, 0), BuildingBlock: AJUNOK_clean_linker_0, # of connection points: 2
#     Edge 31, Type (0, 0), BuildingBlock: AJUNOK_clean_linker_0, # of connection points: 2
#     Edge 32, Type (0, 0), BuildingBlock: AJUNOK_clean_linker_0, # of connection points: 2
#     Edge 33, Type (0, 0), BuildingBlock: AJUNOK_clean_linker_0, # of connection points: 2
#     Edge 34, Type (0, 0), BuildingBlock: AJUNOK_clean_linker_0, # of connection points: 2
#     Edge 35, Type (0, 0), BuildingBlock: AJUNOK_clean_linker_0, # of connection points: 2
#     Edge 36, Type (0, 0), BuildingBlock: AJUNOK_clean_linker_0, # of connection points: 2
#     Edge 37, Type (0, 0), BuildingBlock: AJUNOK_clean_linker_0, # of connection points: 2
#     Edge 38, Type (0, 0), BuildingBlock: AJUNOK_clean_linker_0, # of connection points: 2
#     Edge 39, Type (0, 0), BuildingBlock: AJUNOK_clean_linker_0, # of connection points: 2
#     Edge 40, Type (0, 0), BuildingBlock: AJUNOK_clean_linker_0, # of connection points: 2
#     Edge 41, Type (0, 0), BuildingBlock: AJUNOK_clean_linker_0, # of connection points: 2
#     Edge 42, Type (0, 0), BuildingBlock: AJUNOK_clean_linker_0, # of connection points: 2
#     Edge 43, Type (0, 0), BuildingBlock: AJUNOK_clean_linker_0, # of connection points: 2
#     Edge 44, Type (0, 0), BuildingBlock: AJUNOK_clean_linker_0, # of connection points: 2
#     Edge 45, Type (0, 0), BuildingBlock: AJUNOK_clean_linker_0, # of connection points: 2
#     Edge 46, Type (0, 0), BuildingBlock: AJUNOK_clean_linker_0, # of connection points: 2
#     Edge 47, Type (0, 0), BuildingBlock: AJUNOK_clean_linker_0, # of connection points: 2
#     Edge 48, Type (0, 0), BuildingBlock: AJUNOK_clean_linker_0, # of connection points: 2
#     Edge 49, Type (0, 0), BuildingBlock: AJUNOK_clean_linker_0, # of connection points: 2
#     Edge 50, Type (0, 0), BuildingBlock: AJUNOK_clean_linker_0, # of connection points: 2
#     Edge 51, Type (0, 0), BuildingBlock: AJUNOK_clean_linker_0, # of connection points: 2
#     Edge 52, Type (0, 0), BuildingBlock: AJUNOK_clean_linker_0, # of connection points: 2
#     Edge 53, Type (0, 0), BuildingBlock: AJUNOK_clean_linker_0, # of connection points: 2
#     Edge 54, Type (0, 0), BuildingBlock: AJUNOK_clean_linker_0, # of connection points: 2
#     Edge 55, Type (0, 0), BuildingBlock: AJUNOK_clean_linker_0, # of connection points: 2
# Relax obj value: 0.152
# Max RMSD: 0.179
# Mean RMSD: 0.179
data_MOF--net-zfn--node1-BEQFEK_clean_sbu_0--edge1-AJUNOK_clean_linker_0
_symmetry_space_group_name_H-M    P1
_symmetry_Int_Tables_number       1
_symmetry_cell_setting            triclinic
loop_
_symmetry_equiv_pos_as_xyz
'x, y, z'
_cell_length_a     55.349062
_cell_length_b     55.371594
_cell_length_c     15.125327
_cell_angle_alpha  89.997233
_cell_angle_beta   89.983783
_cell_angle_gamma 90.041416
loop_
_atom_site_label
_atom_site_type_symbol
_atom_site_fract_x
_atom_site_fract_y
_atom_site_fract_z
_atom_type_partial_charge
Co0 Co 0.99749 0.36024 0.04292 0.0
Co1 Co 0.01381 0.37468 0.23385 0.0
C2 C 0.96699 0.3926 0.15079 0.0
O3 O 0.96985 0.38023 0.0806 0.0
O4 O 0.98269 0.3921 0.21245 0.0
C5 C 0.98723 0.36585 0.86651 0.0
O6 O 0.97986 0.38651 0.89955 0.0
C7 C 0.00546 0.37424 0.42413 0.0
C8 C 0.04216 0.37907 0.47862 0.0
C9 C 0.01836 0.37479 0.5026 0.0
N10 N 0.02095 0.37765 0.35678 0.0
N11 N 0.04282 0.38088 0.3898 0.0
C12 C 0.97938 0.36784 0.41247 0.0
H13 H 0.97608 0.36067 0.34503 0.0
H14 H 0.97374 0.35428 0.46247 0.0
H15 H 0.96824 0.38427 0.42196 0.0
C16 C 0.00121 0.31094 0.12015 0.0
N17 N 0.00337 0.33514 0.12501 0.0
N18 N 0.01122 0.34114 0.20424 0.0
C19 C 0.01494 0.32078 0.25144 0.0
C20 C 0.00852 0.30106 0.20014 0.0
C21 C 0.99272 0.29774 0.03974 0.0
H22 H 0.97531 0.30554 0.01726 0.0
H23 H 0.99056 0.27813 0.05269 0.0
H24 H 0.00603 0.3004 0.98569 0.0
O25 O 0.0261 0.38115 0.03095 0.0
O26 O 0.03973 0.39086 0.16351 0.0
H27 H 0.03008 0.30172 0.36378 0.0
H28 H 0.00911 0.32523 0.39002 0.0
C29 C 0.02395 0.32004 0.34473 0.0
H30 H 0.03914 0.33287 0.3529 0.0
H31 H 0.05831 0.38343 0.35158 0.0
O32 O 0.99348 0.3491 0.9194 0.0
C33 C 0.04139 0.39189 0.07953 0.0
Co34 Co 0.14135 0.99804 0.54247 0.0
Co35 Co 0.12748 0.01415 0.73379 0.0
C36 C 0.10921 0.96743 0.6511 0.0
O37 O 0.12139 0.97042 0.58052 0.0
O38 O 0.10988 0.98302 0.71311 0.0
C39 C 0.13561 0.98778 0.36618 0.0
O40 O 0.11487 0.98052 0.39903 0.0
C41 C 0.12816 0.00596 0.9239 0.0
C42 C 0.12341 0.04268 0.97815 0.0
C43 C 0.12759 0.01889 0.00224 0.0
N44 N 0.12482 0.0214 0.8565 0.0
N45 N 0.12166 0.04329 0.88933 0.0
C46 C 0.13438 0.97985 0.91238 0.0
H47 H 0.14174 0.97653 0.84522 0.0
H48 H 0.14772 0.97408 0.96293 0.0
H49 H 0.1178 0.96883 0.92096 0.0
C50 C 0.19085 0.00194 0.61683 0.0
N51 N 0.16666 0.00386 0.62333 0.0
N52 N 0.16095 0.01158 0.70298 0.0
C53 C 0.18151 0.01542 0.74895 0.0
C54 C 0.20104 0.00926 0.69621 0.0
C55 C 0.20374 0.99371 0.53536 0.0
H56 H 0.19593 0.97631 0.51282 0.0
H57 H 0.22342 0.99165 0.54703 0.0
H58 H 0.20077 0.00712 0.4819 0.0
O59 O 0.12062 0.02675 0.5313 0.0
O60 O 0.11124 0.04016 0.66448 0.0
H61 H 0.1699 0.03959 0.85115 0.0
H62 H 0.20105 0.03034 0.86056 0.0
C63 C 0.18261 0.02434 0.84229 0.0
H64 H 0.17739 0.00952 0.88763 0.0
H65 H 0.11913 0.05876 0.85099 0.0
O66 O 0.15236 0.99396 0.41912 0.0
C67 C 0.1101 0.04201 0.58061 0.0
Co68 Co 0.5035 0.14268 0.03778 0.0
Co69 Co 0.48726 0.12853 0.22892 0.0
C70 C 0.53432 0.11097 0.14677 0.0
O71 O 0.53138 0.12314 0.07616 0.0
O72 O 0.51856 0.11142 0.20822 0.0
C73 C 0.51383 0.13701 0.86141 0.0
O74 O 0.52129 0.11638 0.89441 0.0
C75 C 0.49557 0.12902 0.41912 0.0
C76 C 0.45885 0.12422 0.47358 0.0
C77 C 0.48266 0.12843 0.49755 0.0
N78 N 0.48008 0.12569 0.35176 0.0
N79 N 0.4582 0.12248 0.38475 0.0
C80 C 0.52167 0.13535 0.40751 0.0
H81 H 0.52495 0.14277 0.34043 0.0
H82 H 0.52742 0.14868 0.45814 0.0
H83 H 0.53273 0.11882 0.41595 0.0
C84 C 0.49925 0.19209 0.11326 0.0
N85 N 0.49728 0.16789 0.11891 0.0
N86 N 0.4895 0.16201 0.19836 0.0
C87 C 0.48568 0.18245 0.24499 0.0
C88 C 0.49189 0.2021 0.19295 0.0
C89 C 0.50782 0.20514 0.03259 0.0
H90 H 0.52566 0.19787 0.01236 0.0
H91 H 0.50919 0.22489 0.04416 0.0
H92 H 0.49502 0.20168 0.97754 0.0
O93 O 0.47511 0.12145 0.02624 0.0
O94 O 0.46153 0.11195 0.15911 0.0
H95 H 0.47116 0.20165 0.3582 0.0
H96 H 0.49206 0.17798 0.38322 0.0
C97 C 0.47708 0.18329 0.33881 0.0
H98 H 0.46184 0.17056 0.34791 0.0
H99 H 0.44271 0.11997 0.34651 0.0
O100 O 0.5075 0.15372 0.91429 0.0
C101 C 0.4599 0.1107 0.07518 0.0
Co102 Co 0.36219 0.50324 0.54452 0.0
Co103 Co 0.37446 0.4879 0.73751 0.0
C104 C 0.39255 0.53478 0.65723 0.0
O105 O 0.3813 0.53123 0.58501 0.0
O106 O 0.3915 0.51938 0.71974 0.0
C107 C 0.37166 0.51122 0.37329 0.0
O108 O 0.39234 0.51418 0.41453 0.0
C109 C 0.37158 0.49542 0.92762 0.0
C110 C 0.38396 0.46042 0.98111 0.0
C111 C 0.37578 0.48308 0.00542 0.0
N112 N 0.37664 0.48061 0.8598 0.0
N113 N 0.384 0.45968 0.89208 0.0
C114 C 0.36415 0.52124 0.91772 0.0
H115 H 0.37982 0.53302 0.93307 0.0
H116 H 0.35799 0.52491 0.84922 0.0
H117 H 0.34955 0.5257 0.96522 0.0
C118 C 0.31195 0.49902 0.61395 0.0
N119 N 0.33611 0.49717 0.62242 0.0
N120 N 0.3413 0.48958 0.70275 0.0
C121 C 0.32048 0.48562 0.7469 0.0
C122 C 0.30129 0.4917 0.6926 0.0
C123 C 0.29956 0.5077 0.53213 0.0
H124 H 0.30323 0.49487 0.47741 0.0
H125 H 0.30719 0.52546 0.51253 0.0
H126 H 0.27975 0.5093 0.54202 0.0
O127 O 0.38351 0.47459 0.53562 0.0
O128 O 0.39195 0.46238 0.67107 0.0
H129 H 0.33278 0.46278 0.85245 0.0
H130 H 0.30073 0.46879 0.8539 0.0
C131 C 0.31877 0.47665 0.84006 0.0
H132 H 0.32156 0.49198 0.88604 0.0
H133 H 0.38925 0.44499 0.85339 0.0
O134 O 0.35272 0.50811 0.41967 0.0
C135 C 0.39402 0.45999 0.58774 0.0
Co136 Co 0.99791 0.13968 0.46184 0.0
Co137 Co 0.01472 0.12839 0.26866 0.0
C138 C 0.96868 0.10762 0.34783 0.0
O139 O 0.97076 0.1193 0.41993 0.0
O140 O 0.98443 0.10963 0.28679 0.0
C141 C 0.99153 0.12841 0.63172 0.0
O142 O 0.98871 0.1082 0.58739 0.0
C143 C 0.00746 0.12928 0.07726 0.0
C144 C 0.04408 0.12147 0.02664 0.0
C145 C 0.02061 0.12629 0.0002 0.0
N146 N 0.02252 0.12665 0.14628 0.0
N147 N 0.04439 0.12202 0.11563 0.0
C148 C 0.98081 0.13306 0.08592 0.0
H149 H 0.97647 0.14125 0.15099 0.0
H150 H 0.9739 0.14472 0.03199 0.0
H151 H 0.97158 0.1153 0.08123 0.0
C152 C 1.00098 0.19031 0.39299 0.0
N153 N 0.00326 0.16618 0.38433 0.0
N154 N 0.01108 0.16126 0.30401 0.0
C155 C 0.01449 0.18212 0.25982 0.0
C156 C 0.00811 0.20118 0.31435 0.0
C157 C 0.99256 0.2025 0.47556 0.0
H158 H 0.00508 0.19799 0.53041 0.0
H159 H 0.97447 0.19542 0.49384 0.0
H160 H 0.9917 0.2224 0.4673 0.0
O161 O 0.02739 0.11948 0.46996 0.0
O162 O 0.04096 0.11222 0.33539 0.0
H163 H 0.03881 0.17187 0.15605 0.0
H164 H 0.02802 0.20256 0.14764 0.0
C165 C 0.023 0.18384 0.16603 0.0
H166 H 0.00827 0.17793 0.12142 0.0
H167 H 0.05949 0.11905 0.15548 0.0
O168 O 0.9931 0.14807 0.58835 0.0
C169 C 0.04284 0.1099 0.41876 0.0
Co170 Co 0.36195 0.99839 0.95426 0.0
Co171 Co 0.37483 0.01379 0.76199 0.0
C172 C 0.39371 0.96751 0.84472 0.0
O173 O 0.38192 0.97071 0.91607 0.0
O174 O 0.3926 0.98286 0.78209 0.0
C175 C 0.36734 0.98737 0.1304 0.0
O176 O 0.38814 0.9801 0.09811 0.0
C177 C 0.37385 0.00537 0.57252 0.0
C178 C 0.37783 0.04213 0.51758 0.0
C179 C 0.37406 0.01822 0.49417 0.0
N180 N 0.37703 0.02095 0.63953 0.0
N181 N 0.37973 0.04288 0.60634 0.0
C182 C 0.36802 0.97917 0.58428 0.0
H183 H 0.36113 0.97567 0.65198 0.0
H184 H 0.35442 0.9733 0.53481 0.0
H185 H 0.38464 0.96838 0.57377 0.0
C186 C 0.31203 0.00214 0.88289 0.0
N187 N 0.33621 0.00391 0.87474 0.0
N188 N 0.34156 0.01125 0.7943 0.0
C189 C 0.32082 0.01493 0.74933 0.0
C190 C 0.3015 0.00915 0.8037 0.0
C191 C 0.29947 0.9944 0.96569 0.0
H192 H 0.30308 0.00785 0.01847 0.0
H193 H 0.307 0.97687 0.9881 0.0
H194 H 0.27967 0.99274 0.95572 0.0
O195 O 0.38277 0.02732 0.96477 0.0
O196 O 0.39127 0.03986 0.82957 0.0
H197 H 0.33169 0.03883 0.64518 0.0
H198 H 0.30076 0.02874 0.63696 0.0
C199 C 0.31936 0.02331 0.65537 0.0
H200 H 0.32489 0.0084 0.61102 0.0
H201 H 0.38206 0.05842 0.64441 0.0
O202 O 0.35089 0.99397 0.07705 0.0
C203 C 0.39305 0.04222 0.91305 0.0
Co204 Co 0.50608 0.36072 0.46785 0.0
Co205 Co 0.49066 0.37519 0.27632 0.0
C206 C 0.53744 0.39262 0.36134 0.0
O207 O 0.53405 0.38057 0.43192 0.0
O208 O 0.5221 0.39211 0.29844 0.0
C209 C 0.51647 0.36591 0.64393 0.0
O210 O 0.52425 0.38646 0.61119 0.0
C211 C 0.49887 0.37395 0.08601 0.0
C212 C 0.46247 0.38086 0.03186 0.0
C213 C 0.48597 0.37528 0.00778 0.0
N214 N 0.48366 0.37822 0.15349 0.0
N215 N 0.46198 0.38266 0.12069 0.0
C216 C 0.52451 0.36597 0.09707 0.0
H217 H 0.52804 0.36038 0.16631 0.0
H218 H 0.52854 0.35078 0.0515 0.0
H219 H 0.53673 0.38109 0.07965 0.0
C220 C 0.50158 0.3114 0.39127 0.0
N221 N 0.50013 0.33564 0.38571 0.0
N222 N 0.49246 0.34168 0.30631 0.0
C223 C 0.4881 0.32133 0.25976 0.0
C224 C 0.49394 0.30156 0.31163 0.0
C225 C 0.50955 0.29812 0.47219 0.0
H226 H 0.49592 0.30074 0.52514 0.0
H227 H 0.52685 0.30586 0.49619 0.0
H228 H 0.51172 0.27852 0.45916 0.0
O229 O 0.47757 0.3818 0.47894 0.0
O230 O 0.46483 0.39175 0.34542 0.0
H231 H 0.4643 0.33423 0.15828 0.0
H232 H 0.47155 0.30258 0.14939 0.0
C233 C 0.47877 0.32064 0.16687 0.0
H234 H 0.49373 0.32473 0.12064 0.0
H235 H 0.44669 0.3861 0.15906 0.0
O236 O 0.50978 0.34937 0.59092 0.0
C237 C 0.46269 0.39273 0.42923 0.0
Co238 Co 0.14113 0.50242 0.95748 0.0
Co239 Co 0.12754 0.48784 0.7647 0.0
C240 C 0.11015 0.5344 0.8483 0.0
O241 O 0.12198 0.53051 0.91891 0.0
O242 O 0.1105 0.51922 0.78498 0.0
C243 C 0.13434 0.51396 0.13101 0.0
O244 O 0.11371 0.51998 0.09426 0.0
C245 C 0.12746 0.49713 0.57603 0.0
C246 C 0.12392 0.46063 0.51837 0.0
C247 C 0.12692 0.48476 0.49651 0.0
N248 N 0.12501 0.48106 0.64193 0.0
N249 N 0.12258 0.4593 0.60718 0.0
C250 C 0.1328 0.52335 0.59031 0.0
H251 H 0.14345 0.5258 0.65185 0.0
H252 H 0.14281 0.5311 0.53338 0.0
H253 H 0.11553 0.53327 0.59827 0.0
C254 C 0.19089 0.49824 0.88427 0.0
N255 N 0.16668 0.49653 0.87739 0.0
N256 N 0.16099 0.48965 0.79669 0.0
C257 C 0.18155 0.48618 0.75031 0.0
C258 C 0.2011 0.4917 0.80391 0.0
C259 C 0.20376 0.50599 0.96639 0.0
H260 H 0.19794 0.49443 0.02243 0.0
H261 H 0.19857 0.52484 0.98245 0.0
H262 H 0.22367 0.50483 0.95862 0.0
O263 O 0.11976 0.47395 0.96741 0.0
O264 O 0.11052 0.462 0.83216 0.0
H265 H 0.17038 0.46306 0.64437 0.0
H266 H 0.20111 0.4736 0.63479 0.0
C267 C 0.18257 0.47865 0.65533 0.0
H268 H 0.17658 0.49385 0.61316 0.0
H269 H 0.12081 0.44348 0.64415 0.0
O270 O 0.15158 0.50711 0.08131 0.0
C271 C 0.10895 0.45945 0.91567 0.0
Co272 Co 0.00435 0.64016 0.95674 0.0
Co273 Co 0.98993 0.62679 0.76362 0.0
C274 C 0.03625 0.60902 0.84686 0.0
O275 O 0.0322 0.62069 0.91771 0.0
O276 O 0.02126 0.60962 0.78293 0.0
C277 C 0.01232 0.63046 0.12712 0.0
O278 O 0.01507 0.60993 0.08472 0.0
C279 C 0.99782 0.62808 0.57357 0.0
C280 C 0.96195 0.61838 0.52015 0.0
C281 C 0.98517 0.62488 0.4958 0.0
N282 N 0.98268 0.62413 0.64141 0.0
N283 N 0.96126 0.61827 0.60919 0.0
C284 C 0.02407 0.6339 0.58374 0.0
H285 H 0.03454 0.61681 0.58296 0.0
H286 H 0.02736 0.64309 0.64785 0.0
H287 H 0.03053 0.64536 0.52839 0.0
C288 C 1.00027 0.69011 0.88378 0.0
N289 N 0.99869 0.66589 0.87688 0.0
N290 N 0.99178 0.6602 0.79615 0.0
C291 C 0.98812 0.68072 0.74994 0.0
C292 C 0.99355 0.70028 0.80354 0.0
C293 C 0.00794 0.70302 0.9659 0.0
H294 H 0.9963 0.69725 0.02182 0.0
H295 H 0.02676 0.69779 0.98235 0.0
H296 H 0.00683 0.72292 0.95786 0.0
O297 O 0.97544 0.61926 0.96612 0.0
O298 O 0.96404 0.60981 0.83063 0.0
H299 H 0.96563 0.66858 0.64324 0.0
H300 H 0.97407 0.69999 0.63606 0.0
C301 C 0.98037 0.68173 0.65515 0.0
H302 H 0.99594 0.67714 0.6124 0.0
H303 H 0.94618 0.61426 0.64794 0.0
O304 O 0.00931 0.64961 0.08179 0.0
C305 C 0.9611 0.60844 0.91394 0.0
Co306 Co 0.86232 0.00123 0.44661 0.0
Co307 Co 0.87594 0.98631 0.2537 0.0
C308 C 0.89555 0.03178 0.34167 0.0
O309 O 0.88299 0.02903 0.4117 0.0
O310 O 0.89434 0.01661 0.27832 0.0
C311 C 0.86211 0.015 0.62642 0.0
O312 O 0.87976 0.02936 0.60185 0.0
C313 C 0.88014 0.99241 0.06066 0.0
C314 C 0.8681 0.95653 0.01515 0.0
C315 C 0.87335 0.97964 0.98522 0.0
N316 N 0.87771 0.97784 0.13133 0.0
N317 N 0.87125 0.95621 0.10324 0.0
C318 C 0.88899 0.01786 0.06663 0.0
H319 H 0.9026 0.01926 0.11939 0.0
H320 H 0.8737 0.02999 0.08329 0.0
H321 H 0.89761 0.02374 0.00402 0.0
C322 C 0.81276 0.99826 0.3729 0.0
N323 N 0.83694 0.99611 0.36542 0.0
N324 N 0.84249 0.99029 0.28359 0.0
C325 C 0.82186 0.98896 0.236 0.0
C326 C 0.80238 0.99359 0.29111 0.0
C327 C 0.80006 0.00435 0.45729 0.0
H328 H 0.80549 0.99128 0.50924 0.0
H329 H 0.8058 0.02257 0.47948 0.0
H330 H 0.78013 0.00389 0.44957 0.0
O331 O 0.88331 0.97272 0.45694 0.0
O332 O 0.89171 0.95977 0.32236 0.0
H333 H 0.82503 0.96681 0.12099 0.0
H334 H 0.80245 0.98999 0.11141 0.0
C335 C 0.82065 0.98576 0.13785 0.0
H336 H 0.83375 0.99802 0.10566 0.0
H337 H 0.8674 0.94167 0.14488 0.0
O338 O 0.85003 0.00384 0.5681 0.0
C339 C 0.89364 0.95773 0.40593 0.0
Co340 Co 0.49978 0.86293 0.95937 0.0
Co341 Co 0.51502 0.87493 0.76554 0.0
C342 C 0.46853 0.89365 0.84615 0.0
O343 O 0.47197 0.88235 0.91834 0.0
O344 O 0.48386 0.89241 0.78343 0.0
C345 C 0.49305 0.87388 0.12876 0.0
O346 O 0.48961 0.89399 0.08444 0.0
C347 C 0.50834 0.8735 0.57359 0.0
C348 C 0.54473 0.88322 0.5251 0.0
C349 C 0.52167 0.87716 0.49736 0.0
N350 N 0.52293 0.87697 0.64348 0.0
N351 N 0.54468 0.88271 0.61407 0.0
C352 C 0.48191 0.86813 0.58018 0.0
H353 H 0.47151 0.88419 0.55846 0.0
H354 H 0.47685 0.86344 0.64904 0.0
H355 H 0.47704 0.85295 0.53581 0.0
C356 C 0.50347 0.81248 0.88967 0.0
N357 N 0.5055 0.83665 0.88149 0.0
N358 N 0.51277 0.84183 0.80071 0.0
C359 C 0.51622 0.82106 0.75585 0.0
C360 C 0.51028 0.80184 0.81027 0.0
C361 C 0.49519 0.80005 0.97199 0.0
H362 H 0.50709 0.80535 0.02775 0.0
H363 H 0.47664 0.80619 0.98842 0.0
H364 H 0.49537 0.78011 0.96432 0.0
O365 O 0.52871 0.88399 0.96752 0.0
O366 O 0.54072 0.89222 0.83178 0.0
H367 H 0.53937 0.83224 0.64967 0.0
H368 H 0.53005 0.80104 0.64339 0.0
C369 C 0.52422 0.81955 0.66145 0.0
H370 H 0.50893 0.82452 0.61793 0.0
H371 H 0.55943 0.88648 0.65476 0.0
O372 O 0.49523 0.85427 0.08551 0.0
C373 C 0.54328 0.89437 0.91496 0.0
Co374 Co 0.64204 0.50071 0.46355 0.0
Co375 Co 0.6271 0.51466 0.27007 0.0
C376 C 0.6108 0.46785 0.35423 0.0
O377 O 0.62262 0.47236 0.42486 0.0
O378 O 0.61078 0.48262 0.28916 0.0
C379 C 0.63908 0.48904 0.64201 0.0
O380 O 0.61956 0.47797 0.61392 0.0
C381 C 0.61999 0.51253 0.07648 0.0
C382 C 0.63938 0.54543 0.03553 0.0
C383 C 0.6293 0.52434 0.00234 0.0
N384 N 0.62573 0.52527 0.14917 0.0
N385 N 0.6365 0.54539 0.12381 0.0
C386 C 0.60526 0.49 0.0796 0.0
H387 H 0.59227 0.49109 0.13523 0.0
H388 H 0.61747 0.4744 0.09053 0.0
H389 H 0.59497 0.48741 0.01737 0.0
C390 C 0.69119 0.50622 0.38882 0.0
N391 N 0.66693 0.50749 0.38238 0.0
N392 N 0.66081 0.51145 0.29962 0.0
C393 C 0.68113 0.51151 0.24997 0.0
C394 C 0.70104 0.50868 0.30471 0.0
C395 C 0.70437 0.5031 0.47436 0.0
H396 H 0.69581 0.51442 0.52613 0.0
H397 H 0.70298 0.48397 0.49566 0.0
H398 H 0.7237 0.50815 0.46789 0.0
O399 O 0.62014 0.52783 0.47631 0.0
O400 O 0.60953 0.53982 0.34291 0.0
H401 H 0.68186 0.52903 0.12414 0.0
H402 H 0.69813 0.50108 0.12711 0.0
C403 C 0.68166 0.51043 0.15109 0.0
H404 H 0.66574 0.50048 0.12607 0.0
H405 H 0.6436 0.55819 0.16729 0.0
O406 O 0.65386 0.49758 0.58586 0.0
C407 C 0.60825 0.54186 0.42678 0.0
Co408 Co 0.0058 0.8601 0.53411 0.0
Co409 Co 0.98874 0.87329 0.72574 0.0
C410 C 0.03553 0.89229 0.64655 0.0
O411 O 0.03299 0.88039 0.57512 0.0
O412 O 0.01969 0.89114 0.70753 0.0
C413 C 0.0129 0.86983 0.3625 0.0
O414 O 0.01545 0.89048 0.40432 0.0
C415 C 0.99634 0.87111 0.91652 0.0
C416 C 0.96103 0.88248 0.97022 0.0
C417 C 0.98391 0.87486 0.99456 0.0
N418 N 0.98139 0.87581 0.84863 0.0
N419 N 0.96029 0.88262 0.88113 0.0
C420 C 0.02232 0.86423 0.90646 0.0
H421 H 0.02602 0.85783 0.83826 0.0
H422 H 0.02723 0.84998 0.95478 0.0
H423 H 0.03376 0.88025 0.92037 0.0
C424 C 0.0021 0.8102 0.60793 0.0
N425 N 0.99994 0.83439 0.61415 0.0
N426 N 0.99167 0.83998 0.69329 0.0
C427 C 0.98762 0.81941 0.7388 0.0
C428 C 0.99429 0.79995 0.68674 0.0
C429 C 0.01089 0.79736 0.52721 0.0
H430 H 0.02733 0.80649 0.50159 0.0
H431 H 0.01481 0.77808 0.54118 0.0
H432 H 0.99683 0.7985 0.47509 0.0
O433 O 0.97662 0.88031 0.5231 0.0
O434 O 0.9629 0.88966 0.65589 0.0
H435 H 0.97038 0.80017 0.84653 0.0
H436 H 0.99275 0.82179 0.87838 0.0
C437 C 0.97789 0.81824 0.8311 0.0
H438 H 0.96357 0.83198 0.84031 0.0
H439 H 0.94543 0.88744 0.84255 0.0
O440 O 0.01079 0.85067 0.40856 0.0
C441 C 0.9612 0.89074 0.57195 0.0
Co442 Co 0.64146 0.0079 0.03112 0.0
Co443 Co 0.62891 0.99121 0.22321 0.0
C444 C 0.60976 0.03783 0.14391 0.0
O445 O 0.62156 0.03525 0.07232 0.0
O446 O 0.61095 0.02202 0.20493 0.0
C447 C 0.63176 0.01585 0.85958 0.0
O448 O 0.61107 0.01844 0.90112 0.0
C449 C 0.63158 0.99934 0.41316 0.0
C450 C 0.61969 0.96439 0.46854 0.0
C451 C 0.62758 0.98726 0.49174 0.0
N452 N 0.62671 0.98418 0.34608 0.0
N453 N 0.61963 0.96329 0.37953 0.0
C454 C 0.63858 0.02524 0.40169 0.0
H455 H 0.62249 0.03675 0.41337 0.0
H456 H 0.64536 0.02854 0.33369 0.0
H457 H 0.65256 0.03043 0.45067 0.0
C458 C 0.69161 0.00414 0.10207 0.0
N459 N 0.66743 0.00212 0.10979 0.0
N460 N 0.66212 0.99428 0.18974 0.0
C461 C 0.68285 0.99057 0.23459 0.0
C462 C 0.7021 0.99697 0.18113 0.0
C463 C 0.70424 0.01246 0.0202 0.0
H464 H 0.69486 0.02852 0.99288 0.0
H465 H 0.72348 0.01679 0.03359 0.0
H466 H 0.70329 0.99794 0.96974 0.0
O467 O 0.62088 0.97884 0.02165 0.0
O468 O 0.61238 0.96511 0.15514 0.0
H469 H 0.70263 0.97268 0.33893 0.0
H470 H 0.68159 0.9953 0.3746 0.0
C471 C 0.68452 0.98055 0.32628 0.0
H472 H 0.67059 0.96643 0.33634 0.0
H473 H 0.61457 0.94837 0.34165 0.0
O474 O 0.65079 0.01306 0.90579 0.0
C475 C 0.61069 0.96342 0.07136 0.0
Co476 Co 0.49699 0.64127 0.54554 0.0
Co477 Co 0.51231 0.62871 0.73923 0.0
C478 C 0.46582 0.61016 0.65869 0.0
O479 O 0.46925 0.62159 0.58671 0.0
O480 O 0.48113 0.61133 0.72142 0.0
C481 C 0.49029 0.63058 0.37616 0.0
O482 O 0.4866 0.61049 0.42031 0.0
C483 C 0.50588 0.63004 0.93149 0.0
C484 C 0.54222 0.62003 0.97939 0.0
C485 C 0.51925 0.62632 0.00762 0.0
N486 N 0.52034 0.62639 0.86132 0.0
N487 N 0.54206 0.62045 0.8904 0.0
C488 C 0.47949 0.63564 0.92523 0.0
H489 H 0.47428 0.63969 0.85603 0.0
H490 H 0.47495 0.65134 0.96751 0.0
H491 H 0.46894 0.61995 0.94969 0.0
C492 C 0.50126 0.69152 0.61692 0.0
N493 N 0.50291 0.66731 0.62447 0.0
N494 N 0.5102 0.66187 0.70499 0.0
C495 C 0.51407 0.68251 0.75024 0.0
C496 C 0.50836 0.70191 0.69641 0.0
C497 C 0.4934 0.70423 0.53468 0.0
H498 H 0.4766 0.69577 0.50921 0.0
H499 H 0.49041 0.72378 0.54671 0.0
H500 H 0.50754 0.702 0.48329 0.0
O501 O 0.52585 0.62027 0.53565 0.0
O502 O 0.53766 0.61142 0.67122 0.0
H503 H 0.53755 0.67083 0.85462 0.0
H504 H 0.5288 0.70216 0.86202 0.0
C505 C 0.52256 0.68377 0.8441 0.0
H506 H 0.50741 0.67899 0.8886 0.0
H507 H 0.55672 0.61654 0.84948 0.0
O508 O 0.49244 0.65019 0.41951 0.0
C509 C 0.54021 0.60955 0.58789 0.0
Co510 Co 0.86112 0.49726 0.03379 0.0
Co511 Co 0.8741 0.5137 0.22588 0.0
C512 C 0.89268 0.46693 0.14621 0.0
O513 O 0.88086 0.4697 0.07475 0.0
O514 O 0.89172 0.48271 0.2074 0.0
C515 C 0.87074 0.48961 0.86227 0.0
O516 O 0.89139 0.48679 0.9039 0.0
C517 C 0.87173 0.50588 0.41626 0.0
C518 C 0.88353 0.541 0.47042 0.0
C519 C 0.87568 0.51818 0.49438 0.0
N520 N 0.87657 0.52087 0.34862 0.0
N521 N 0.88362 0.54186 0.38137 0.0
C522 C 0.86456 0.47999 0.4059 0.0
H523 H 0.88041 0.46838 0.42034 0.0
H524 H 0.85828 0.47637 0.33751 0.0
H525 H 0.85014 0.47524 0.4538 0.0
C526 C 0.81112 0.50118 0.10603 0.0
N527 N 0.83531 0.50331 0.11297 0.0
N528 N 0.8408 0.51084 0.19318 0.0
C529 C 0.82015 0.51406 0.23917 0.0
C530 C 0.80081 0.50782 0.18603 0.0
C531 C 0.79839 0.49237 0.02507 0.0
H532 H 0.80808 0.47652 0.99758 0.0
H533 H 0.77933 0.48756 0.03962 0.0
H534 H 0.79876 0.50682 0.97423 0.0
O535 O 0.88191 0.52607 0.02384 0.0
O536 O 0.89079 0.53962 0.15719 0.0
H537 H 0.8005 0.53131 0.34509 0.0
H538 H 0.82144 0.50841 0.37873 0.0
C539 C 0.81859 0.52348 0.33173 0.0
H540 H 0.83252 0.53752 0.34293 0.0
H541 H 0.88859 0.55671 0.34296 0.0
O542 O 0.85169 0.49233 0.90845 0.0
C543 C 0.89233 0.54134 0.07337 0.0
C544 C 0.93091 0.41267 0.08309 0.0
C545 C 0.94614 0.4095 0.15678 0.0
C546 C 0.91304 0.43055 0.08197 0.0
C547 C 0.90951 0.44609 0.15451 0.0
H548 H 0.93331 0.40183 0.02412 0.0
H549 H 0.90248 0.43267 0.02218 0.0
S550 S 0.94249 0.44345 0.36837 0.0
N551 N 0.95499 0.42209 0.3076 0.0
N552 N 0.92135 0.4556 0.30565 0.0
C553 C 0.92368 0.44226 0.23067 0.0
C554 C 0.94197 0.42403 0.23176 0.0
C555 C 0.08954 0.93104 0.58391 0.0
C556 C 0.09241 0.94647 0.65723 0.0
C557 C 0.07184 0.91296 0.5828 0.0
C558 C 0.05616 0.90942 0.65499 0.0
H559 H 0.1005 0.9334 0.5252 0.0
H560 H 0.06997 0.90224 0.52329 0.0
S561 S 0.05796 0.94295 0.86783 0.0
N562 N 0.07934 0.95554 0.80734 0.0
N563 N 0.04616 0.92153 0.80544 0.0
C564 C 0.05967 0.92382 0.73081 0.0
C565 C 0.07773 0.94231 0.73188 0.0
C566 C 0.58948 0.0744 0.08085 0.0
C567 C 0.59264 0.05842 0.15236 0.0
C568 C 0.57131 0.09198 0.08151 0.0
C569 C 0.55541 0.0944 0.15368 0.0
H570 H 0.60058 0.07285 0.02213 0.0
H571 H 0.56925 0.10318 0.02329 0.0
S572 S 0.55778 0.05905 0.36247 0.0
N573 N 0.57967 0.04769 0.30119 0.0
N574 N 0.54547 0.08062 0.30225 0.0
C575 C 0.5592 0.07945 0.22784 0.0
C576 C 0.57779 0.06153 0.22724 0.0
C577 C 0.41276 0.57089 0.59035 0.0
C578 C 0.40889 0.55605 0.66468 0.0
C579 C 0.43036 0.58906 0.59073 0.0
C580 C 0.44494 0.59328 0.66545 0.0
H581 H 0.40276 0.56793 0.52976 0.0
H582 H 0.43312 0.59924 0.53039 0.0
S583 S 0.43988 0.56175 0.88165 0.0
N584 N 0.41953 0.54847 0.8184 0.0
N585 N 0.45258 0.58264 0.81918 0.0
C586 C 0.44029 0.57958 0.74219 0.0
C587 C 0.42231 0.561 0.74178 0.0
C588 C 0.91146 0.0717 0.39528 0.0
C589 C 0.91318 0.05207 0.33644 0.0
C590 C 0.92898 0.09005 0.39646 0.0
C591 C 0.9489 0.08962 0.33846 0.0
H592 H 0.89667 0.07274 0.44206 0.0
H593 H 0.9271 0.10446 0.44438 0.0
S594 S 0.96222 0.04203 0.17234 0.0
N595 N 0.93694 0.03314 0.21998 0.0
N596 N 0.96919 0.0679 0.2199 0.0
C597 C 0.95053 0.07041 0.27774 0.0
C598 C 0.93289 0.05158 0.27737 0.0
C599 C 0.43246 0.91404 0.91274 0.0
C600 C 0.44748 0.91027 0.83884 0.0
C601 C 0.41447 0.93181 0.91241 0.0
C602 C 0.41066 0.9467 0.83821 0.0
H603 H 0.43509 0.90376 0.97291 0.0
H604 H 0.40406 0.93441 0.97232 0.0
S605 S 0.44306 0.94229 0.62347 0.0
N606 N 0.45578 0.92149 0.68614 0.0
N607 N 0.4221 0.95495 0.68568 0.0
C608 C 0.42466 0.94227 0.76202 0.0
C609 C 0.443 0.92407 0.76229 0.0
C610 C 0.58752 0.43536 0.43226 0.0
C611 C 0.59469 0.44628 0.35228 0.0
C612 C 0.5698 0.41725 0.43409 0.0
C613 C 0.55841 0.40934 0.35606 0.0
H614 H 0.59487 0.44151 0.49469 0.0
H615 H 0.56429 0.41019 0.49778 0.0
S616 S 0.57351 0.42897 0.12808 0.0
N617 N 0.59123 0.44534 0.19216 0.0
N618 N 0.55755 0.41186 0.19571 0.0
C619 C 0.5664 0.41904 0.27527 0.0
C620 C 0.58461 0.43733 0.27337 0.0
C621 C 0.0598 0.57616 0.77172 0.0
C622 C 0.0575 0.5926 0.84231 0.0
C623 C 0.07761 0.55815 0.77212 0.0
C624 C 0.09391 0.55578 0.84312 0.0
H625 H 0.04715 0.57654 0.7171 0.0
H626 H 0.07793 0.54542 0.71777 0.0
S627 S 0.09784 0.59639 0.03839 0.0
N628 N 0.0748 0.60687 0.9809 0.0
N629 N 0.10817 0.57315 0.98161 0.0
C630 C 0.09281 0.57306 0.91145 0.0
C631 C 0.07466 0.5914 0.91106 0.0
C632 C 0.07452 0.4228 0.08754 0.0
C633 C 0.06028 0.40707 0.03647 0.0
C634 C 0.09064 0.43905 0.0478 0.0
C635 C 0.0933 0.44034 0.95508 0.0
H636 H 0.07276 0.42311 0.15886 0.0
H637 H 0.10067 0.45112 0.0906 0.0
S638 S 0.06191 0.40143 0.7912 0.0
N639 N 0.05122 0.39258 0.88776 0.0
N640 N 0.08139 0.42317 0.81354 0.0
C641 C 0.07991 0.42402 0.90323 0.0
C642 C 0.06347 0.40741 0.94372 0.0
C643 C 0.07918 0.07505 0.58998 0.0
C644 C 0.0951 0.06114 0.53852 0.0
C645 C 0.06304 0.09134 0.5507 0.0
C646 C 0.06208 0.09448 0.45814 0.0
H647 H 0.07857 0.07285 0.66112 0.0
H648 H 0.05078 0.10109 0.59358 0.0
S649 S 0.10173 0.06422 0.2938 0.0
N650 N 0.11025 0.05303 0.38996 0.0
N651 N 0.07985 0.08348 0.31657 0.0
C652 C 0.07868 0.0815 0.40608 0.0
C653 C 0.09516 0.0649 0.44609 0.0
C654 C 0.42716 0.0794 0.08416 0.0
C655 C 0.44112 0.09529 0.03269 0.0
C656 C 0.41119 0.06292 0.04485 0.0
C657 C 0.40842 0.06159 0.9522 0.0
H658 H 0.42906 0.07911 0.15543 0.0
H659 H 0.4014 0.05072 0.08787 0.0
S660 S 0.43899 0.10094 0.78751 0.0
N661 N 0.44973 0.10992 0.88381 0.0
N662 N 0.41985 0.07894 0.81035 0.0
C663 C 0.42149 0.0781 0.9 0.0
C664 C 0.43777 0.09492 0.94006 0.0
C665 C 0.41343 0.44 0.45696 0.0
C666 C 0.40997 0.44102 0.54935 0.0
C667 C 0.42984 0.42383 0.41855 0.0
C668 C 0.4436 0.40794 0.4707 0.0
H669 H 0.40381 0.45221 0.4135 0.0
H670 H 0.43221 0.42432 0.34748 0.0
S671 S 0.43989 0.40167 0.71541 0.0
N672 N 0.42065 0.42347 0.69159 0.0
N673 N 0.45139 0.39307 0.61981 0.0
C674 C 0.43964 0.40805 0.56302 0.0
C675 C 0.42289 0.42456 0.60216 0.0
C676 C 0.92372 0.57399 0.08375 0.0
C677 C 0.90781 0.56021 0.03169 0.0
C678 C 0.9403 0.58998 0.04507 0.0
C679 C 0.94173 0.59295 0.9525 0.0
H680 H 0.92393 0.57192 0.15497 0.0
H681 H 0.95253 0.59962 0.08849 0.0
S682 S 0.90247 0.56289 0.78651 0.0
N683 N 0.89334 0.55197 0.88237 0.0
N684 N 0.92452 0.58189 0.81016 0.0
C685 C 0.92525 0.58004 0.89976 0.0
C686 C 0.90832 0.56374 0.93915 0.0
C687 C 0.93008 0.9235 0.57855 0.0
C688 C 0.94226 0.90581 0.5292 0.0
C689 C 0.91422 0.93977 0.53794 0.0
C690 C 0.90939 0.93889 0.44637 0.0
H691 H 0.93349 0.92546 0.64872 0.0
H692 H 0.90632 0.9537 0.57875 0.0
S693 S 0.93553 0.89493 0.28763 0.0
N694 N 0.94771 0.88768 0.38362 0.0
N695 N 0.91754 0.91805 0.308 0.0
C696 C 0.92088 0.9208 0.39646 0.0
C697 C 0.9373 0.90431 0.43769 0.0
C698 C 0.58068 0.92947 0.08295 0.0
C699 C 0.59546 0.94427 0.03007 0.0
C700 C 0.56451 0.91292 0.04507 0.0
C701 C 0.56236 0.91039 0.95254 0.0
H702 H 0.58107 0.93108 0.15432 0.0
H703 H 0.55322 0.9024 0.08913 0.0
S704 S 0.59836 0.94343 0.78412 0.0
N705 N 0.60795 0.95415 0.87964 0.0
N706 N 0.57754 0.92321 0.80904 0.0
C707 C 0.57768 0.92441 0.89883 0.0
C708 C 0.59418 0.94128 0.93736 0.0
C709 C 0.58108 0.57838 0.41991 0.0
C710 C 0.59181 0.55975 0.46942 0.0
C711 C 0.56494 0.59477 0.45924 0.0
C712 C 0.55892 0.59329 0.54982 0.0
H713 H 0.58499 0.58023 0.35005 0.0
H714 H 0.55692 0.60858 0.41787 0.0
S715 S 0.58077 0.54697 0.708 0.0
N716 N 0.59424 0.54024 0.61391 0.0
N717 N 0.56447 0.57121 0.68712 0.0
C718 C 0.56959 0.57485 0.60017 0.0
C719 C 0.58583 0.55805 0.5602 0.0
C720 C 0.9868 0.26336 0.24445 0.0
C721 C 0.00866 0.27546 0.22757 0.0
C722 C 0.9867 0.23948 0.27586 0.0
C723 C 0.00845 0.22706 0.29082 0.0
H724 H 0.96974 0.2725 0.2339 0.0
H725 H 0.96956 0.23051 0.28696 0.0
S726 S 0.07032 0.25085 0.25695 0.0
N727 N 0.05245 0.27343 0.22828 0.0
N728 N 0.05227 0.22854 0.2871 0.0
C729 C 0.03035 0.23903 0.27455 0.0
C730 C 0.03045 0.26327 0.24282 0.0
C731 C 0.26312 0.98772 0.76657 0.0
C732 C 0.27565 0.0095 0.7798 0.0
C733 C 0.23902 0.98774 0.73756 0.0
C734 C 0.22679 0.00954 0.72162 0.0
H735 H 0.27212 0.97062 0.77758 0.0
H736 H 0.22981 0.97065 0.72828 0.0
S737 S 0.25161 0.07125 0.74718 0.0
N738 N 0.27417 0.05329 0.77525 0.0
N739 N 0.22881 0.05332 0.72125 0.0
C740 C 0.2391 0.03137 0.73504 0.0
C741 C 0.26359 0.03136 0.76411 0.0
C742 C 0.51466 0.26345 0.26678 0.0
C743 C 0.49312 0.27594 0.28483 0.0
C744 C 0.51415 0.23966 0.23466 0.0
C745 C 0.49209 0.22771 0.22017 0.0
H746 H 0.53194 0.27225 0.27655 0.0
H747 H 0.53106 0.23043 0.22207 0.0
S748 S 0.43086 0.25264 0.25723 0.0
N749 N 0.4493 0.27477 0.28602 0.0
N750 N 0.44833 0.23004 0.22573 0.0
C751 C 0.4705 0.24003 0.238 0.0
C752 C 0.47102 0.26419 0.27046 0.0
C753 C 0.26264 0.47042 0.72631 0.0
C754 C 0.27552 0.49214 0.71756 0.0
C755 C 0.23858 0.47037 0.75554 0.0
C756 C 0.22683 0.49203 0.7778 0.0
H757 H 0.27128 0.45338 0.71079 0.0
H758 H 0.22907 0.45332 0.76081 0.0
S759 S 0.25292 0.55357 0.76725 0.0
N760 N 0.27505 0.53573 0.73389 0.0
N761 N 0.22977 0.53567 0.78919 0.0
C762 C 0.23959 0.51382 0.7698 0.0
C763 C 0.26399 0.51388 0.7394 0.0
C764 C 0.01554 0.76229 0.73369 0.0
C765 C 0.9939 0.77426 0.7128 0.0
C766 C 0.0153 0.73847 0.76572 0.0
C767 C 0.99342 0.72599 0.77738 0.0
H768 H 0.03269 0.77152 0.7262 0.0
H769 H 0.0323 0.72965 0.78033 0.0
S770 S 0.93199 0.74948 0.73284 0.0
N771 N 0.95015 0.77204 0.70629 0.0
N772 N 0.94969 0.72729 0.76649 0.0
C773 C 0.97172 0.73781 0.75693 0.0
C774 C 0.97196 0.76197 0.72449 0.0
C775 C 0.76275 0.01512 0.27635 0.0
C776 C 0.77654 0.994 0.26562 0.0
C777 C 0.73871 0.01618 0.24678 0.0
C778 C 0.72789 0.99622 0.20526 0.0
H779 H 0.7707 0.03096 0.30672 0.0
H780 H 0.72848 0.03263 0.2568 0.0
S781 S 0.75583 0.93655 0.16501 0.0
N782 N 0.77732 0.9525 0.21345 0.0
N783 N 0.73223 0.95469 0.15729 0.0
C784 C 0.74135 0.97502 0.19491 0.0
C785 C 0.7657 0.97387 0.22523 0.0
C786 C 0.48799 0.76408 0.77067 0.0
C787 C 0.51003 0.77604 0.78528 0.0
C788 C 0.48751 0.74021 0.73905 0.0
C789 C 0.50906 0.72769 0.72149 0.0
H790 H 0.47107 0.77334 0.78263 0.0
H791 H 0.47023 0.73138 0.72934 0.0
S792 S 0.57129 0.75101 0.74982 0.0
N793 N 0.55379 0.77369 0.78033 0.0
N794 N 0.55288 0.72883 0.72135 0.0
C795 C 0.53114 0.73946 0.73614 0.0
C796 C 0.53163 0.76367 0.76804 0.0
C797 C 0.75939 0.52547 0.18746 0.0
C798 C 0.77521 0.50699 0.21297 0.0
C799 C 0.73555 0.52603 0.21894 0.0
C800 C 0.72673 0.50803 0.27639 0.0
H801 H 0.76563 0.5398 0.14431 0.0
H802 H 0.72395 0.54075 0.19851 0.0
S803 S 0.76106 0.45508 0.35836 0.0
N804 N 0.78071 0.47016 0.29736 0.0
N805 N 0.73556 0.47053 0.35352 0.0
C806 C 0.7424 0.48924 0.3011 0.0
C807 C 0.76674 0.48889 0.26999 0.0
C808 C 0.98075 0.37959 0.71139 0.0
C809 C 0.99324 0.36467 0.77127 0.0
C810 C 0.98853 0.3822 0.6237 0.0
C811 C 0.00933 0.3703 0.59315 0.0
H812 H 0.96522 0.3899 0.73316 0.0
H813 H 0.97878 0.39441 0.58069 0.0
S814 S 0.04807 0.32856 0.72193 0.0
N815 N 0.02699 0.33714 0.79251 0.0
N816 N 0.04179 0.34239 0.62798 0.0
C817 C 0.02166 0.35489 0.65147 0.0
C818 C 0.01352 0.3519 0.74038 0.0
C819 C 0.11969 0.98916 0.12309 0.0
C820 C 0.13181 0.00987 0.09288 0.0
C821 C 0.12205 0.98138 0.21084 0.0
C822 C 0.13693 0.9938 0.27106 0.0
H823 H 0.10751 0.97946 0.07975 0.0
H824 H 0.1116 0.96591 0.23237 0.0
S825 S 0.1735 0.04845 0.22271 0.0
N826 N 0.15984 0.04221 0.12839 0.0
N827 N 0.16464 0.02743 0.29307 0.0
C828 C 0.14991 0.01402 0.24053 0.0
C829 C 0.14716 0.02215 0.15157 0.0
C830 C 0.52021 0.12326 0.70622 0.0
C831 C 0.50779 0.1382 0.76622 0.0
C832 C 0.51242 0.12075 0.61852 0.0
C833 C 0.4917 0.13279 0.58812 0.0
H834 H 0.5357 0.11287 0.72788 0.0
H835 H 0.52213 0.10853 0.57536 0.0
S836 S 0.45316 0.17465 0.7172 0.0
N837 N 0.47418 0.16591 0.7877 0.0
N838 N 0.45938 0.16084 0.62315 0.0
C839 C 0.47943 0.14822 0.64655 0.0
C840 C 0.48758 0.1511 0.73546 0.0
C841 C 0.39515 0.4952 0.1459 0.0
C842 C 0.37402 0.4923 0.0962 0.0
C843 C 0.39409 0.5025 0.23425 0.0
C844 C 0.37179 0.50671 0.27673 0.0
H845 H 0.41262 0.49152 0.11649 0.0
H846 H 0.41095 0.50399 0.27014 0.0
S847 S 0.31123 0.50207 0.17271 0.0
N848 N 0.33026 0.49472 0.09296 0.0
N849 N 0.32804 0.50813 0.26024 0.0
C850 C 0.35048 0.50433 0.22664 0.0
C851 C 0.35166 0.49717 0.13601 0.0
C852 C 0.99409 0.14757 0.78216 0.0
C853 C 0.99746 0.12734 0.72717 0.0
C854 C 1.00098 0.14697 0.87161 0.0
C855 C 0.01182 0.1263 0.90822 0.0
H856 H 0.98622 0.16397 0.75582 0.0
H857 H 0.99845 0.16299 0.91167 0.0
S858 S 0.02539 0.06893 0.79283 0.0
N859 N 0.01263 0.08607 0.71679 0.0
N860 N 0.02588 0.0854 0.88374 0.0
C861 C 0.01537 0.10608 0.85425 0.0
C862 C 0.00805 0.10647 0.76402 0.0
C863 C 0.38133 0.98136 0.28537 0.0
C864 C 0.36562 0.99294 0.22578 0.0
C865 C 0.38336 0.98911 0.3732 0.0
C866 C 0.37001 0.00894 0.40405 0.0
H867 H 0.39275 0.96667 0.26324 0.0
H868 H 0.39623 0.98018 0.41606 0.0
S869 S 0.32509 0.04447 0.27752 0.0
N870 N 0.33532 0.02438 0.20604 0.0
N871 N 0.33953 0.03911 0.37099 0.0
C872 C 0.35361 0.02015 0.34651 0.0
C873 C 0.35123 0.01204 0.25743 0.0
C874 C 0.52356 0.37915 0.79903 0.0
C875 C 0.51054 0.36472 0.73908 0.0
C876 C 0.51592 0.38188 0.88677 0.0
C877 C 0.49478 0.37058 0.91723 0.0
H878 H 0.53939 0.38902 0.77726 0.0
H879 H 0.52606 0.39378 0.92979 0.0
S880 S 0.45459 0.33026 0.78823 0.0
N881 N 0.4759 0.33826 0.71759 0.0
N882 N 0.46139 0.34375 0.88237 0.0
C883 C 0.4819 0.35564 0.85887 0.0
C884 C 0.48988 0.35252 0.76988 0.0
C885 C 0.14989 0.49134 0.26202 0.0
C886 C 0.13512 0.50974 0.22749 0.0
C887 C 0.14738 0.48365 0.34987 0.0
C888 C 0.1304 0.49442 0.40653 0.0
H889 H 0.16258 0.48191 0.21982 0.0
H890 H 0.15854 0.4689 0.37325 0.0
S891 S 0.08852 0.54431 0.35045 0.0
N892 N 0.10379 0.53938 0.25839 0.0
N893 N 0.0992 0.52488 0.42344 0.0
C894 C 0.11628 0.5135 0.37418 0.0
C895 C 0.11865 0.5212 0.28463 0.0
C896 C 0.99607 0.60605 0.35302 0.0
C897 C 0.9942 0.62689 0.40481 0.0
C898 C 0.00307 0.60747 0.2644 0.0
C899 C 0.00798 0.62988 0.22375 0.0
H900 H 0.9918 0.58854 0.38099 0.0
H901 H 0.00378 0.59082 0.2269 0.0
S902 S 0.00612 0.68977 0.33359 0.0
N903 N 0.99835 0.67048 0.41199 0.0
N904 N 0.01114 0.67338 0.24412 0.0
C905 C 0.00658 0.65089 0.27585 0.0
C906 C 0.99976 0.64933 0.36677 0.0
C907 C 0.86415 0.01302 0.8759 0.0
C908 C 0.8693 0.98849 0.89333 0.0
C909 C 0.86143 0.02159 0.78928 0.0
C910 C 0.86203 0.00569 0.71741 0.0
H911 H 0.86185 0.02588 0.92875 0.0
H912 H 0.85864 0.04073 0.77851 0.0
S913 S 0.87089 0.93936 0.7261 0.0
N914 N 0.87305 0.94822 0.82993 0.0
N915 N 0.86556 0.96408 0.66837 0.0
C916 C 0.8652 0.98093 0.73371 0.0
C917 C 0.86921 0.97236 0.82133 0.0
C918 C 0.5026 0.85588 0.36892 0.0
C919 C 0.51324 0.87675 0.405 0.0
C920 C 0.49578 0.85502 0.27947 0.0
C921 C 0.49904 0.87515 0.22398 0.0
H922 H 0.50019 0.83991 0.40932 0.0
H923 H 0.48803 0.83851 0.25356 0.0
S924 S 0.52666 0.93389 0.2877 0.0
N925 N 0.52712 0.91768 0.37924 0.0
N926 N 0.51407 0.91646 0.21214 0.0
C927 C 0.50953 0.89618 0.2601 0.0
C928 C 0.51675 0.89685 0.35037 0.0
C929 C 0.63191 0.49043 0.8902 0.0
C930 C 0.63243 0.51537 0.90981 0.0
C931 C 0.63467 0.4819 0.80356 0.0
C932 C 0.63964 0.49778 0.73388 0.0
H933 H 0.62975 0.47706 0.94132 0.0
H934 H 0.63305 0.4627 0.79106 0.0
S935 S 0.64578 0.56434 0.74862 0.0
N936 N 0.6394 0.55572 0.85047 0.0
N937 N 0.64669 0.53932 0.68939 0.0
C938 C 0.64183 0.52253 0.75252 0.0
C939 C 0.63786 0.53138 0.83998 0.0
C940 C 0.0029 0.89253 0.22499 0.0
C941 C 0.00783 0.87018 0.26609 0.0
C942 C 0.99543 0.89381 0.1368 0.0
C943 C 0.99306 0.87289 0.08564 0.0
H944 H 0.00403 0.90927 0.26182 0.0
H945 H 0.99128 0.91132 0.10859 0.0
S946 S 0.0043 0.81004 0.15859 0.0
N947 N 0.01012 0.82659 0.24699 0.0
N948 N 0.99642 0.82922 0.08006 0.0
C949 C 0.99845 0.85048 0.12426 0.0
C950 C 0.00578 0.84907 0.21479 0.0
C951 C 0.6093 0.0066 0.72095 0.0
C952 C 0.63157 0.01135 0.76288 0.0
C953 C 0.60823 0.9992 0.63267 0.0
C954 C 0.6293 0.99679 0.58228 0.0
H955 H 0.59247 0.00766 0.75733 0.0
H956 H 0.59079 0.99501 0.60391 0.0
S957 S 0.69198 0.00831 0.65698 0.0
N958 N 0.67521 0.01394 0.74501 0.0
N959 N 0.67299 1.0004 0.57783 0.0
C960 C 0.65162 0.00229 0.62147 0.0
C961 C 0.6528 0.00951 0.71211 0.0
C962 C 0.4999 0.64785 0.13519 0.0
C963 C 0.511 0.62707 0.10034 0.0
C964 C 0.49302 0.64898 0.22458 0.0
C965 C 0.49674 0.62921 0.28134 0.0
H966 H 0.49714 0.66358 0.09387 0.0
H967 H 0.4848 0.66538 0.24938 0.0
S968 S 0.52617 0.57106 0.22206 0.0
N969 N 0.52609 0.58673 0.12923 0.0
N970 N 0.5131 0.58853 0.29635 0.0
C971 C 0.50791 0.60836 0.2468 0.0
C972 C 0.51513 0.6074 0.15653 0.0
C973 C 0.89471 0.50603 0.63563 0.0
C974 C 0.87372 0.50891 0.58519 0.0
C975 C 0.89344 0.49863 0.72387 0.0
C976 C 0.87105 0.49432 0.7657 0.0
H977 H 0.91225 0.5098 0.60687 0.0
H978 H 0.91023 0.49716 0.76025 0.0
S979 S 0.81076 0.49893 0.65972 0.0
N980 N 0.82997 0.50638 0.58064 0.0
N981 N 0.82736 0.49286 0.74776 0.0
C982 C 0.84988 0.49673 0.71494 0.0
C983 C 0.85127 0.50396 0.62435 0.0
loop_
_geom_bond_atom_site_label_1
_geom_bond_atom_site_label_2
_geom_bond_distance
_geom_bond_site_symmetry_2
_ccdc_geom_bond_type
Co0 O3 1.970 1_455 S
Co0 N17 1.989 . S
Co0 O25 1.967 . S
Co0 O32 1.920 1_554 S
Co1 O4 1.966 1_455 S
Co1 N10 2.022 . S
Co1 N18 1.993 . S
Co1 O26 1.941 . S
C2 O3 1.258 . S
C2 O4 1.263 . S
O3 Co0 1.970 1_655 S
O3 C2 1.258 . S
O4 Co1 1.966 1_655 S
O4 C2 1.263 . S
C5 O6 1.235 . S
C5 O32 1.289 1_655 S
O6 C5 1.235 . S
C7 C9 1.400 . S
C7 N10 1.351 . S
C7 C12 1.501 1_455 S
C8 C9 1.387 . S
C8 N11 1.341 . S
C9 C7 1.400 . S
C9 C8 1.387 . S
N10 Co1 2.022 . S
N10 C7 1.351 . S
N10 N11 1.365 . S
N11 C8 1.341 . S
N11 N10 1.365 . S
N11 H31 0.862 . S
C12 C7 1.501 1_655 S
C12 H13 0.961 . S
C12 H14 0.961 . S
C12 H15 0.960 . S
H13 C12 0.961 . S
H14 C12 0.961 . S
H15 C12 0.960 . S
C16 N17 1.342 . S
C16 C20 1.401 . S
C16 C21 1.499 . S
N17 Co0 1.989 . S
N17 C16 1.342 . S
N17 N18 1.388 . S
N18 Co1 1.993 . S
N18 N17 1.388 . S
N18 C19 1.346 . S
C19 N18 1.346 . S
C19 C20 1.396 . S
C19 C29 1.510 . S
C20 C16 1.401 . S
C20 C19 1.396 . S
C21 C16 1.499 . S
C21 H22 0.959 1_554 S
C21 H23 0.960 1_554 S
C21 H24 0.961 1_554 S
H22 C21 0.959 1_556 S
H23 C21 0.960 1_556 S
H24 C21 0.961 1_556 S
O25 Co0 1.967 . S
O25 C33 1.258 . S
O26 Co1 1.941 . S
O26 C33 1.266 . S
H27 C29 0.959 . S
H28 C29 0.961 . S
C29 C19 1.510 . S
C29 H27 0.959 . S
C29 H28 0.961 . S
C29 H30 0.960 . S
H30 C29 0.960 . S
H31 N11 0.862 . S
O32 Co0 1.920 1_556 S
O32 C5 1.289 1_455 S
C33 O25 1.258 . S
C33 O26 1.266 . S
Co34 O37 1.970 1_545 S
Co34 N51 1.989 . S
Co34 O59 1.967 . S
Co34 O66 1.920 . S
Co35 O38 1.966 1_545 S
Co35 N44 2.022 . S
Co35 N52 1.993 . S
Co35 O60 1.941 . S
C36 O37 1.258 . S
C36 O38 1.263 . S
O37 Co34 1.970 1_565 S
O37 C36 1.258 . S
O38 Co35 1.966 1_565 S
O38 C36 1.263 . S
C39 O40 1.235 . S
C39 O66 1.289 1_565 S
O40 C39 1.235 . S
C41 C43 1.400 1_556 S
C41 N44 1.351 . S
C41 C46 1.501 1_545 S
C42 C43 1.387 . S
C42 N45 1.341 1_554 S
C43 C41 1.400 1_554 S
C43 C42 1.387 . S
N44 Co35 2.022 . S
N44 C41 1.351 . S
N44 N45 1.365 . S
N45 C42 1.341 1_556 S
N45 N44 1.365 . S
N45 H65 0.862 . S
C46 C41 1.501 1_565 S
C46 H47 0.961 . S
C46 H48 0.961 . S
C46 H49 0.960 . S
H47 C46 0.961 . S
H48 C46 0.961 . S
H49 C46 0.960 . S
C50 N51 1.342 . S
C50 C54 1.401 . S
C50 C55 1.499 . S
N51 Co34 1.989 . S
N51 C50 1.342 . S
N51 N52 1.388 . S
N52 Co35 1.993 . S
N52 N51 1.388 . S
N52 C53 1.346 . S
C53 N52 1.346 . S
C53 C54 1.396 . S
C53 C63 1.510 . S
C54 C50 1.401 . S
C54 C53 1.396 . S
C55 C50 1.499 . S
C55 H56 0.959 . S
C55 H57 0.960 . S
C55 H58 0.961 . S
H56 C55 0.959 . S
H57 C55 0.960 . S
H58 C55 0.961 . S
O59 Co34 1.967 . S
O59 C67 1.258 . S
O60 Co35 1.941 . S
O60 C67 1.266 . S
H61 C63 0.959 . S
H62 C63 0.961 . S
C63 C53 1.510 . S
C63 H61 0.959 . S
C63 H62 0.961 . S
C63 H64 0.960 . S
H64 C63 0.960 . S
H65 N45 0.862 . S
O66 Co34 1.920 . S
O66 C39 1.289 1_545 S
C67 O59 1.258 . S
C67 O60 1.266 . S
Co68 O71 1.970 . S
Co68 N85 1.989 . S
Co68 O93 1.967 . S
Co68 O100 1.920 1_554 S
Co69 O72 1.966 . S
Co69 N78 2.022 . S
Co69 N86 1.993 . S
Co69 O94 1.941 . S
C70 O71 1.258 . S
C70 O72 1.263 . S
O71 Co68 1.970 . S
O71 C70 1.258 . S
O72 Co69 1.966 . S
O72 C70 1.263 . S
C73 O74 1.235 . S
C73 O100 1.289 . S
O74 C73 1.235 . S
C75 C77 1.400 . S
C75 N78 1.351 . S
C75 C80 1.501 . S
C76 C77 1.387 . S
C76 N79 1.341 . S
C77 C75 1.400 . S
C77 C76 1.387 . S
N78 Co69 2.022 . S
N78 C75 1.351 . S
N78 N79 1.365 . S
N79 C76 1.341 . S
N79 N78 1.365 . S
N79 H99 0.862 . S
C80 C75 1.501 . S
C80 H81 0.961 . S
C80 H82 0.961 . S
C80 H83 0.960 . S
H81 C80 0.961 . S
H82 C80 0.961 . S
H83 C80 0.960 . S
C84 N85 1.342 . S
C84 C88 1.401 . S
C84 C89 1.499 . S
N85 Co68 1.989 . S
N85 C84 1.342 . S
N85 N86 1.388 . S
N86 Co69 1.993 . S
N86 N85 1.388 . S
N86 C87 1.346 . S
C87 N86 1.346 . S
C87 C88 1.396 . S
C87 C97 1.510 . S
C88 C84 1.401 . S
C88 C87 1.396 . S
C89 C84 1.499 . S
C89 H90 0.959 1_554 S
C89 H91 0.960 1_554 S
C89 H92 0.961 1_554 S
H90 C89 0.959 1_556 S
H91 C89 0.960 1_556 S
H92 C89 0.961 1_556 S
O93 Co68 1.967 . S
O93 C101 1.258 . S
O94 Co69 1.941 . S
O94 C101 1.266 . S
H95 C97 0.959 . S
H96 C97 0.961 . S
C97 C87 1.510 . S
C97 H95 0.959 . S
C97 H96 0.961 . S
C97 H98 0.960 . S
H98 C97 0.960 . S
H99 N79 0.862 . S
O100 Co68 1.920 1_556 S
O100 C73 1.289 . S
C101 O93 1.258 . S
C101 O94 1.266 . S
Co102 O105 1.970 . S
Co102 N119 1.989 . S
Co102 O127 1.967 . S
Co102 O134 1.920 . S
Co103 O106 1.966 . S
Co103 N112 2.022 . S
Co103 N120 1.993 . S
Co103 O128 1.941 . S
C104 O105 1.258 . S
C104 O106 1.263 . S
O105 Co102 1.970 . S
O105 C104 1.258 . S
O106 Co103 1.966 . S
O106 C104 1.263 . S
C107 O108 1.235 . S
C107 O134 1.289 . S
O108 C107 1.235 . S
C109 C111 1.400 1_556 S
C109 N112 1.351 . S
C109 C114 1.501 . S
C110 C111 1.387 . S
C110 N113 1.341 1_554 S
C111 C109 1.400 1_554 S
C111 C110 1.387 . S
N112 Co103 2.022 . S
N112 C109 1.351 . S
N112 N113 1.365 . S
N113 C110 1.341 1_556 S
N113 N112 1.365 . S
N113 H133 0.862 . S
C114 C109 1.501 . S
C114 H115 0.961 . S
C114 H116 0.961 . S
C114 H117 0.960 . S
H115 C114 0.961 . S
H116 C114 0.961 . S
H117 C114 0.960 . S
C118 N119 1.342 . S
C118 C122 1.401 . S
C118 C123 1.499 . S
N119 Co102 1.989 . S
N119 C118 1.342 . S
N119 N120 1.388 . S
N120 Co103 1.993 . S
N120 N119 1.388 . S
N120 C121 1.346 . S
C121 N120 1.346 . S
C121 C122 1.396 . S
C121 C131 1.510 . S
C122 C118 1.401 . S
C122 C121 1.396 . S
C123 C118 1.499 . S
C123 H124 0.959 . S
C123 H125 0.960 . S
C123 H126 0.961 . S
H124 C123 0.959 . S
H125 C123 0.960 . S
H126 C123 0.961 . S
O127 Co102 1.967 . S
O127 C135 1.258 . S
O128 Co103 1.941 . S
O128 C135 1.266 . S
H129 C131 0.959 . S
H130 C131 0.961 . S
C131 C121 1.510 . S
C131 H129 0.959 . S
C131 H130 0.961 . S
C131 H132 0.960 . S
H132 C131 0.960 . S
H133 N113 0.862 . S
O134 Co102 1.920 . S
O134 C107 1.289 . S
C135 O127 1.258 . S
C135 O128 1.266 . S
Co136 O139 1.970 1_455 S
Co136 N153 1.989 . S
Co136 O161 1.967 . S
Co136 O168 1.920 . S
Co137 O140 1.966 1_455 S
Co137 N146 2.022 . S
Co137 N154 1.993 . S
Co137 O162 1.941 . S
C138 O139 1.258 . S
C138 O140 1.263 . S
O139 Co136 1.970 1_655 S
O139 C138 1.258 . S
O140 Co137 1.966 1_655 S
O140 C138 1.263 . S
C141 O142 1.235 . S
C141 O168 1.289 1_655 S
O142 C141 1.235 . S
C143 C145 1.400 1_554 S
C143 N146 1.351 . S
C143 C148 1.501 1_455 S
C144 C145 1.387 . S
C144 N147 1.341 1_556 S
C145 C143 1.400 1_556 S
C145 C144 1.387 . S
N146 Co137 2.022 . S
N146 C143 1.351 . S
N146 N147 1.365 . S
N147 C144 1.341 1_554 S
N147 N146 1.365 . S
N147 H167 0.862 . S
C148 C143 1.501 1_655 S
C148 H149 0.961 . S
C148 H150 0.961 . S
C148 H151 0.960 . S
H149 C148 0.961 . S
H150 C148 0.961 . S
H151 C148 0.960 . S
C152 N153 1.342 . S
C152 C156 1.401 . S
C152 C157 1.499 . S
N153 Co136 1.989 . S
N153 C152 1.342 . S
N153 N154 1.388 . S
N154 Co137 1.993 . S
N154 N153 1.388 . S
N154 C155 1.346 . S
C155 N154 1.346 . S
C155 C156 1.396 . S
C155 C165 1.510 . S
C156 C152 1.401 . S
C156 C155 1.396 . S
C157 C152 1.499 . S
C157 H158 0.959 . S
C157 H159 0.960 . S
C157 H160 0.961 . S
H158 C157 0.959 . S
H159 C157 0.960 . S
H160 C157 0.961 . S
O161 Co136 1.967 . S
O161 C169 1.258 . S
O162 Co137 1.941 . S
O162 C169 1.266 . S
H163 C165 0.959 . S
H164 C165 0.961 . S
C165 C155 1.510 . S
C165 H163 0.959 . S
C165 H164 0.961 . S
C165 H166 0.960 . S
H166 C165 0.960 . S
H167 N147 0.862 . S
O168 Co136 1.920 . S
O168 C141 1.289 1_455 S
C169 O161 1.258 . S
C169 O162 1.266 . S
Co170 O173 1.970 1_545 S
Co170 N187 1.989 . S
Co170 O195 1.967 . S
Co170 O202 1.920 1_556 S
Co171 O174 1.966 1_545 S
Co171 N180 2.022 . S
Co171 N188 1.993 . S
Co171 O196 1.941 . S
C172 O173 1.258 . S
C172 O174 1.263 . S
O173 Co170 1.970 1_565 S
O173 C172 1.258 . S
O174 Co171 1.966 1_565 S
O174 C172 1.263 . S
C175 O176 1.235 . S
C175 O202 1.289 1_565 S
O176 C175 1.235 . S
C177 C179 1.400 . S
C177 N180 1.351 . S
C177 C182 1.501 1_545 S
C178 C179 1.387 . S
C178 N181 1.341 . S
C179 C177 1.400 . S
C179 C178 1.387 . S
N180 Co171 2.022 . S
N180 C177 1.351 . S
N180 N181 1.365 . S
N181 C178 1.341 . S
N181 N180 1.365 . S
N181 H201 0.862 . S
C182 C177 1.501 1_565 S
C182 H183 0.961 . S
C182 H184 0.961 . S
C182 H185 0.960 . S
H183 C182 0.961 . S
H184 C182 0.961 . S
H185 C182 0.960 . S
C186 N187 1.342 . S
C186 C190 1.401 . S
C186 C191 1.499 . S
N187 Co170 1.989 . S
N187 C186 1.342 . S
N187 N188 1.388 . S
N188 Co171 1.993 . S
N188 N187 1.388 . S
N188 C189 1.346 . S
C189 N188 1.346 . S
C189 C190 1.396 . S
C189 C199 1.510 . S
C190 C186 1.401 . S
C190 C189 1.396 . S
C191 C186 1.499 . S
C191 H192 0.959 1_556 S
C191 H193 0.960 1_556 S
C191 H194 0.961 1_556 S
H192 C191 0.959 1_554 S
H193 C191 0.960 1_554 S
H194 C191 0.961 1_554 S
O195 Co170 1.967 . S
O195 C203 1.258 . S
O196 Co171 1.941 . S
O196 C203 1.266 . S
H197 C199 0.959 . S
H198 C199 0.961 . S
C199 C189 1.510 . S
C199 H197 0.959 . S
C199 H198 0.961 . S
C199 H200 0.960 . S
H200 C199 0.960 . S
H201 N181 0.862 . S
O202 Co170 1.920 1_554 S
O202 C175 1.289 1_545 S
C203 O195 1.258 . S
C203 O196 1.266 . S
Co204 O207 1.970 . S
Co204 N221 1.989 . S
Co204 O229 1.967 . S
Co204 O236 1.920 . S
Co205 O208 1.966 . S
Co205 N214 2.022 . S
Co205 N222 1.993 . S
Co205 O230 1.941 . S
C206 O207 1.258 . S
C206 O208 1.263 . S
O207 Co204 1.970 . S
O207 C206 1.258 . S
O208 Co205 1.966 . S
O208 C206 1.263 . S
C209 O210 1.235 . S
C209 O236 1.289 . S
O210 C209 1.235 . S
C211 C213 1.400 1_554 S
C211 N214 1.351 . S
C211 C216 1.501 . S
C212 C213 1.387 . S
C212 N215 1.341 1_556 S
C213 C211 1.400 1_556 S
C213 C212 1.387 . S
N214 Co205 2.022 . S
N214 C211 1.351 . S
N214 N215 1.365 . S
N215 C212 1.341 1_554 S
N215 N214 1.365 . S
N215 H235 0.862 . S
C216 C211 1.501 . S
C216 H217 0.961 . S
C216 H218 0.961 . S
C216 H219 0.960 . S
H217 C216 0.961 . S
H218 C216 0.961 . S
H219 C216 0.960 . S
C220 N221 1.342 . S
C220 C224 1.401 . S
C220 C225 1.499 . S
N221 Co204 1.989 . S
N221 C220 1.342 . S
N221 N222 1.388 . S
N222 Co205 1.993 . S
N222 N221 1.388 . S
N222 C223 1.346 . S
C223 N222 1.346 . S
C223 C224 1.396 . S
C223 C233 1.510 . S
C224 C220 1.401 . S
C224 C223 1.396 . S
C225 C220 1.499 . S
C225 H226 0.959 . S
C225 H227 0.960 . S
C225 H228 0.961 . S
H226 C225 0.959 . S
H227 C225 0.960 . S
H228 C225 0.961 . S
O229 Co204 1.967 . S
O229 C237 1.258 . S
O230 Co205 1.941 . S
O230 C237 1.266 . S
H231 C233 0.959 . S
H232 C233 0.961 . S
C233 C223 1.510 . S
C233 H231 0.959 . S
C233 H232 0.961 . S
C233 H234 0.960 . S
H234 C233 0.960 . S
H235 N215 0.862 . S
O236 Co204 1.920 . S
O236 C209 1.289 . S
C237 O229 1.258 . S
C237 O230 1.266 . S
Co238 O241 1.970 . S
Co238 N255 1.989 . S
Co238 O263 1.967 . S
Co238 O270 1.920 1_556 S
Co239 O242 1.966 . S
Co239 N248 2.022 . S
Co239 N256 1.993 . S
Co239 O264 1.941 . S
C240 O241 1.258 . S
C240 O242 1.263 . S
O241 Co238 1.970 . S
O241 C240 1.258 . S
O242 Co239 1.966 . S
O242 C240 1.263 . S
C243 O244 1.235 . S
C243 O270 1.289 . S
O244 C243 1.235 . S
C245 C247 1.400 . S
C245 N248 1.351 . S
C245 C250 1.501 . S
C246 C247 1.387 . S
C246 N249 1.341 . S
C247 C245 1.400 . S
C247 C246 1.387 . S
N248 Co239 2.022 . S
N248 C245 1.351 . S
N248 N249 1.365 . S
N249 C246 1.341 . S
N249 N248 1.365 . S
N249 H269 0.862 . S
C250 C245 1.501 . S
C250 H251 0.961 . S
C250 H252 0.961 . S
C250 H253 0.960 . S
H251 C250 0.961 . S
H252 C250 0.961 . S
H253 C250 0.960 . S
C254 N255 1.342 . S
C254 C258 1.401 . S
C254 C259 1.499 . S
N255 Co238 1.989 . S
N255 C254 1.342 . S
N255 N256 1.388 . S
N256 Co239 1.993 . S
N256 N255 1.388 . S
N256 C257 1.346 . S
C257 N256 1.346 . S
C257 C258 1.396 . S
C257 C267 1.510 . S
C258 C254 1.401 . S
C258 C257 1.396 . S
C259 C254 1.499 . S
C259 H260 0.959 1_556 S
C259 H261 0.960 1_556 S
C259 H262 0.961 1_556 S
H260 C259 0.959 1_554 S
H261 C259 0.960 1_554 S
H262 C259 0.961 1_554 S
O263 Co238 1.967 . S
O263 C271 1.258 . S
O264 Co239 1.941 . S
O264 C271 1.266 . S
H265 C267 0.959 . S
H266 C267 0.961 . S
C267 C257 1.510 . S
C267 H265 0.959 . S
C267 H266 0.961 . S
C267 H268 0.960 . S
H268 C267 0.960 . S
H269 N249 0.862 . S
O270 Co238 1.920 1_554 S
O270 C243 1.289 . S
C271 O263 1.258 . S
C271 O264 1.266 . S
Co272 O275 1.970 1_655 S
Co272 N289 1.989 . S
Co272 O297 1.967 . S
Co272 O304 1.920 1_556 S
Co273 O276 1.966 1_655 S
Co273 N282 2.022 . S
Co273 N290 1.993 . S
Co273 O298 1.941 . S
C274 O275 1.258 . S
C274 O276 1.263 . S
O275 Co272 1.970 1_455 S
O275 C274 1.258 . S
O276 Co273 1.966 1_455 S
O276 C274 1.263 . S
C277 O278 1.235 . S
C277 O304 1.289 1_455 S
O278 C277 1.235 . S
C279 C281 1.400 . S
C279 N282 1.351 . S
C279 C284 1.501 1_655 S
C280 C281 1.387 . S
C280 N283 1.341 . S
C281 C279 1.400 . S
C281 C280 1.387 . S
N282 Co273 2.022 . S
N282 C279 1.351 . S
N282 N283 1.365 . S
N283 C280 1.341 . S
N283 N282 1.365 . S
N283 H303 0.862 . S
C284 C279 1.501 1_455 S
C284 H285 0.961 . S
C284 H286 0.961 . S
C284 H287 0.960 . S
H285 C284 0.961 . S
H286 C284 0.961 . S
H287 C284 0.960 . S
C288 N289 1.342 . S
C288 C292 1.401 . S
C288 C293 1.499 . S
N289 Co272 1.989 . S
N289 C288 1.342 . S
N289 N290 1.388 . S
N290 Co273 1.993 . S
N290 N289 1.388 . S
N290 C291 1.346 . S
C291 N290 1.346 . S
C291 C292 1.396 . S
C291 C301 1.510 . S
C292 C288 1.401 . S
C292 C291 1.396 . S
C293 C288 1.499 . S
C293 H294 0.959 1_556 S
C293 H295 0.960 1_556 S
C293 H296 0.961 1_556 S
H294 C293 0.959 1_554 S
H295 C293 0.960 1_554 S
H296 C293 0.961 1_554 S
O297 Co272 1.967 . S
O297 C305 1.258 . S
O298 Co273 1.941 . S
O298 C305 1.266 . S
H299 C301 0.959 . S
H300 C301 0.961 . S
C301 C291 1.510 . S
C301 H299 0.959 . S
C301 H300 0.961 . S
C301 H302 0.960 . S
H302 C301 0.960 . S
H303 N283 0.862 . S
O304 Co272 1.920 1_554 S
O304 C277 1.289 1_655 S
C305 O297 1.258 . S
C305 O298 1.266 . S
Co306 O309 1.970 1_565 S
Co306 N323 1.989 . S
Co306 O331 1.967 . S
Co306 O338 1.920 . S
Co307 O310 1.966 1_565 S
Co307 N316 2.022 . S
Co307 N324 1.993 . S
Co307 O332 1.941 . S
C308 O309 1.258 . S
C308 O310 1.263 . S
O309 Co306 1.970 1_545 S
O309 C308 1.258 . S
O310 Co307 1.966 1_545 S
O310 C308 1.263 . S
C311 O312 1.235 . S
C311 O338 1.289 1_545 S
O312 C311 1.235 . S
C313 C315 1.400 1_554 S
C313 N316 1.351 . S
C313 C318 1.501 1_565 S
C314 C315 1.387 . S
C314 N317 1.341 1_556 S
C315 C313 1.400 1_556 S
C315 C314 1.387 . S
N316 Co307 2.022 . S
N316 C313 1.351 . S
N316 N317 1.365 . S
N317 C314 1.341 1_554 S
N317 N316 1.365 . S
N317 H337 0.862 . S
C318 C313 1.501 1_545 S
C318 H319 0.961 . S
C318 H320 0.961 . S
C318 H321 0.960 . S
H319 C318 0.961 . S
H320 C318 0.961 . S
H321 C318 0.960 . S
C322 N323 1.342 . S
C322 C326 1.401 . S
C322 C327 1.499 . S
N323 Co306 1.989 . S
N323 C322 1.342 . S
N323 N324 1.388 . S
N324 Co307 1.993 . S
N324 N323 1.388 . S
N324 C325 1.346 . S
C325 N324 1.346 . S
C325 C326 1.396 . S
C325 C335 1.510 . S
C326 C322 1.401 . S
C326 C325 1.396 . S
C327 C322 1.499 . S
C327 H328 0.959 . S
C327 H329 0.960 . S
C327 H330 0.961 . S
H328 C327 0.959 . S
H329 C327 0.960 . S
H330 C327 0.961 . S
O331 Co306 1.967 . S
O331 C339 1.258 . S
O332 Co307 1.941 . S
O332 C339 1.266 . S
H333 C335 0.959 . S
H334 C335 0.961 . S
C335 C325 1.510 . S
C335 H333 0.959 . S
C335 H334 0.961 . S
C335 H336 0.960 . S
H336 C335 0.960 . S
H337 N317 0.862 . S
O338 Co306 1.920 . S
O338 C311 1.289 1_565 S
C339 O331 1.258 . S
C339 O332 1.266 . S
Co340 O343 1.970 . S
Co340 N357 1.989 . S
Co340 O365 1.967 . S
Co340 O372 1.920 1_556 S
Co341 O344 1.966 . S
Co341 N350 2.022 . S
Co341 N358 1.993 . S
Co341 O366 1.941 . S
C342 O343 1.258 . S
C342 O344 1.263 . S
O343 Co340 1.970 . S
O343 C342 1.258 . S
O344 Co341 1.966 . S
O344 C342 1.263 . S
C345 O346 1.235 . S
C345 O372 1.289 . S
O346 C345 1.235 . S
C347 C349 1.400 . S
C347 N350 1.351 . S
C347 C352 1.501 . S
C348 C349 1.387 . S
C348 N351 1.341 . S
C349 C347 1.400 . S
C349 C348 1.387 . S
N350 Co341 2.022 . S
N350 C347 1.351 . S
N350 N351 1.365 . S
N351 C348 1.341 . S
N351 N350 1.365 . S
N351 H371 0.862 . S
C352 C347 1.501 . S
C352 H353 0.961 . S
C352 H354 0.961 . S
C352 H355 0.960 . S
H353 C352 0.961 . S
H354 C352 0.961 . S
H355 C352 0.960 . S
C356 N357 1.342 . S
C356 C360 1.401 . S
C356 C361 1.499 . S
N357 Co340 1.989 . S
N357 C356 1.342 . S
N357 N358 1.388 . S
N358 Co341 1.993 . S
N358 N357 1.388 . S
N358 C359 1.346 . S
C359 N358 1.346 . S
C359 C360 1.396 . S
C359 C369 1.510 . S
C360 C356 1.401 . S
C360 C359 1.396 . S
C361 C356 1.499 . S
C361 H362 0.959 1_556 S
C361 H363 0.960 1_556 S
C361 H364 0.961 1_556 S
H362 C361 0.959 1_554 S
H363 C361 0.960 1_554 S
H364 C361 0.961 1_554 S
O365 Co340 1.967 . S
O365 C373 1.258 . S
O366 Co341 1.941 . S
O366 C373 1.266 . S
H367 C369 0.959 . S
H368 C369 0.961 . S
C369 C359 1.510 . S
C369 H367 0.959 . S
C369 H368 0.961 . S
C369 H370 0.960 . S
H370 C369 0.960 . S
H371 N351 0.862 . S
O372 Co340 1.920 1_554 S
O372 C345 1.289 . S
C373 O365 1.258 . S
C373 O366 1.266 . S
Co374 O377 1.970 . S
Co374 N391 1.989 . S
Co374 O399 1.967 . S
Co374 O406 1.920 . S
Co375 O378 1.966 . S
Co375 N384 2.022 . S
Co375 N392 1.993 . S
Co375 O400 1.941 . S
C376 O377 1.258 . S
C376 O378 1.263 . S
O377 Co374 1.970 . S
O377 C376 1.258 . S
O378 Co375 1.966 . S
O378 C376 1.263 . S
C379 O380 1.235 . S
C379 O406 1.289 . S
O380 C379 1.235 . S
C381 C383 1.400 1_554 S
C381 N384 1.351 . S
C381 C386 1.501 . S
C382 C383 1.387 . S
C382 N385 1.341 1_556 S
C383 C381 1.400 1_556 S
C383 C382 1.387 . S
N384 Co375 2.022 . S
N384 C381 1.351 . S
N384 N385 1.365 . S
N385 C382 1.341 1_554 S
N385 N384 1.365 . S
N385 H405 0.862 . S
C386 C381 1.501 . S
C386 H387 0.961 . S
C386 H388 0.961 . S
C386 H389 0.960 . S
H387 C386 0.961 . S
H388 C386 0.961 . S
H389 C386 0.960 . S
C390 N391 1.342 . S
C390 C394 1.401 . S
C390 C395 1.499 . S
N391 Co374 1.989 . S
N391 C390 1.342 . S
N391 N392 1.388 . S
N392 Co375 1.993 . S
N392 N391 1.388 . S
N392 C393 1.346 . S
C393 N392 1.346 . S
C393 C394 1.396 . S
C393 C403 1.510 . S
C394 C390 1.401 . S
C394 C393 1.396 . S
C395 C390 1.499 . S
C395 H396 0.959 . S
C395 H397 0.960 . S
C395 H398 0.961 . S
H396 C395 0.959 . S
H397 C395 0.960 . S
H398 C395 0.961 . S
O399 Co374 1.967 . S
O399 C407 1.258 . S
O400 Co375 1.941 . S
O400 C407 1.266 . S
H401 C403 0.959 . S
H402 C403 0.961 . S
C403 C393 1.510 . S
C403 H401 0.959 . S
C403 H402 0.961 . S
C403 H404 0.960 . S
H404 C403 0.960 . S
H405 N385 0.862 . S
O406 Co374 1.920 . S
O406 C379 1.289 . S
C407 O399 1.258 . S
C407 O400 1.266 . S
Co408 O411 1.970 1_655 S
Co408 N425 1.989 . S
Co408 O433 1.967 . S
Co408 O440 1.920 . S
Co409 O412 1.966 1_655 S
Co409 N418 2.022 . S
Co409 N426 1.993 . S
Co409 O434 1.941 . S
C410 O411 1.258 . S
C410 O412 1.263 . S
O411 Co408 1.970 1_455 S
O411 C410 1.258 . S
O412 Co409 1.966 1_455 S
O412 C410 1.263 . S
C413 O414 1.235 . S
C413 O440 1.289 1_455 S
O414 C413 1.235 . S
C415 C417 1.400 1_556 S
C415 N418 1.351 . S
C415 C420 1.501 1_655 S
C416 C417 1.387 . S
C416 N419 1.341 1_554 S
C417 C415 1.400 1_554 S
C417 C416 1.387 . S
N418 Co409 2.022 . S
N418 C415 1.351 . S
N418 N419 1.365 . S
N419 C416 1.341 1_556 S
N419 N418 1.365 . S
N419 H439 0.862 . S
C420 C415 1.501 1_455 S
C420 H421 0.961 . S
C420 H422 0.961 . S
C420 H423 0.960 . S
H421 C420 0.961 . S
H422 C420 0.961 . S
H423 C420 0.960 . S
C424 N425 1.342 . S
C424 C428 1.401 . S
C424 C429 1.499 . S
N425 Co408 1.989 . S
N425 C424 1.342 . S
N425 N426 1.388 . S
N426 Co409 1.993 . S
N426 N425 1.388 . S
N426 C427 1.346 . S
C427 N426 1.346 . S
C427 C428 1.396 . S
C427 C437 1.510 . S
C428 C424 1.401 . S
C428 C427 1.396 . S
C429 C424 1.499 . S
C429 H430 0.959 . S
C429 H431 0.960 . S
C429 H432 0.961 . S
H430 C429 0.959 . S
H431 C429 0.960 . S
H432 C429 0.961 . S
O433 Co408 1.967 . S
O433 C441 1.258 . S
O434 Co409 1.941 . S
O434 C441 1.266 . S
H435 C437 0.959 . S
H436 C437 0.961 . S
C437 C427 1.510 . S
C437 H435 0.959 . S
C437 H436 0.961 . S
C437 H438 0.960 . S
H438 C437 0.960 . S
H439 N419 0.862 . S
O440 Co408 1.920 . S
O440 C413 1.289 1_655 S
C441 O433 1.258 . S
C441 O434 1.266 . S
Co442 O445 1.970 1_565 S
Co442 N459 1.989 . S
Co442 O467 1.967 . S
Co442 O474 1.920 1_554 S
Co443 O446 1.966 1_565 S
Co443 N452 2.022 . S
Co443 N460 1.993 . S
Co443 O468 1.941 . S
C444 O445 1.258 . S
C444 O446 1.263 . S
O445 Co442 1.970 1_545 S
O445 C444 1.258 . S
O446 Co443 1.966 1_545 S
O446 C444 1.263 . S
C447 O448 1.235 . S
C447 O474 1.289 1_545 S
O448 C447 1.235 . S
C449 C451 1.400 . S
C449 N452 1.351 . S
C449 C454 1.501 1_565 S
C450 C451 1.387 . S
C450 N453 1.341 . S
C451 C449 1.400 . S
C451 C450 1.387 . S
N452 Co443 2.022 . S
N452 C449 1.351 . S
N452 N453 1.365 . S
N453 C450 1.341 . S
N453 N452 1.365 . S
N453 H473 0.862 . S
C454 C449 1.501 1_545 S
C454 H455 0.961 . S
C454 H456 0.961 . S
C454 H457 0.960 . S
H455 C454 0.961 . S
H456 C454 0.961 . S
H457 C454 0.960 . S
C458 N459 1.342 . S
C458 C462 1.401 . S
C458 C463 1.499 . S
N459 Co442 1.989 . S
N459 C458 1.342 . S
N459 N460 1.388 . S
N460 Co443 1.993 . S
N460 N459 1.388 . S
N460 C461 1.346 . S
C461 N460 1.346 . S
C461 C462 1.396 . S
C461 C471 1.510 . S
C462 C458 1.401 . S
C462 C461 1.396 . S
C463 C458 1.499 . S
C463 H464 0.959 1_554 S
C463 H465 0.960 1_554 S
C463 H466 0.961 1_554 S
H464 C463 0.959 1_556 S
H465 C463 0.960 1_556 S
H466 C463 0.961 1_556 S
O467 Co442 1.967 . S
O467 C475 1.258 . S
O468 Co443 1.941 . S
O468 C475 1.266 . S
H469 C471 0.959 . S
H470 C471 0.961 . S
C471 C461 1.510 . S
C471 H469 0.959 . S
C471 H470 0.961 . S
C471 H472 0.960 . S
H472 C471 0.960 . S
H473 N453 0.862 . S
O474 Co442 1.920 1_556 S
O474 C447 1.289 1_565 S
C475 O467 1.258 . S
C475 O468 1.266 . S
Co476 O479 1.970 . S
Co476 N493 1.989 . S
Co476 O501 1.967 . S
Co476 O508 1.920 . S
Co477 O480 1.966 . S
Co477 N486 2.022 . S
Co477 N494 1.993 . S
Co477 O502 1.941 . S
C478 O479 1.258 . S
C478 O480 1.263 . S
O479 Co476 1.970 . S
O479 C478 1.258 . S
O480 Co477 1.966 . S
O480 C478 1.263 . S
C481 O482 1.235 . S
C481 O508 1.289 . S
O482 C481 1.235 . S
C483 C485 1.400 1_556 S
C483 N486 1.351 . S
C483 C488 1.501 . S
C484 C485 1.387 . S
C484 N487 1.341 1_554 S
C485 C483 1.400 1_554 S
C485 C484 1.387 . S
N486 Co477 2.022 . S
N486 C483 1.351 . S
N486 N487 1.365 . S
N487 C484 1.341 1_556 S
N487 N486 1.365 . S
N487 H507 0.862 . S
C488 C483 1.501 . S
C488 H489 0.961 . S
C488 H490 0.961 . S
C488 H491 0.960 . S
H489 C488 0.961 . S
H490 C488 0.961 . S
H491 C488 0.960 . S
C492 N493 1.342 . S
C492 C496 1.401 . S
C492 C497 1.499 . S
N493 Co476 1.989 . S
N493 C492 1.342 . S
N493 N494 1.388 . S
N494 Co477 1.993 . S
N494 N493 1.388 . S
N494 C495 1.346 . S
C495 N494 1.346 . S
C495 C496 1.396 . S
C495 C505 1.510 . S
C496 C492 1.401 . S
C496 C495 1.396 . S
C497 C492 1.499 . S
C497 H498 0.959 . S
C497 H499 0.960 . S
C497 H500 0.961 . S
H498 C497 0.959 . S
H499 C497 0.960 . S
H500 C497 0.961 . S
O501 Co476 1.967 . S
O501 C509 1.258 . S
O502 Co477 1.941 . S
O502 C509 1.266 . S
H503 C505 0.959 . S
H504 C505 0.961 . S
C505 C495 1.510 . S
C505 H503 0.959 . S
C505 H504 0.961 . S
C505 H506 0.960 . S
H506 C505 0.960 . S
H507 N487 0.862 . S
O508 Co476 1.920 . S
O508 C481 1.289 . S
C509 O501 1.258 . S
C509 O502 1.266 . S
Co510 O513 1.970 . S
Co510 N527 1.989 . S
Co510 O535 1.967 . S
Co510 O542 1.920 1_554 S
Co511 O514 1.966 . S
Co511 N520 2.022 . S
Co511 N528 1.993 . S
Co511 O536 1.941 . S
C512 O513 1.258 . S
C512 O514 1.263 . S
O513 Co510 1.970 . S
O513 C512 1.258 . S
O514 Co511 1.966 . S
O514 C512 1.263 . S
C515 O516 1.235 . S
C515 O542 1.289 . S
O516 C515 1.235 . S
C517 C519 1.400 . S
C517 N520 1.351 . S
C517 C522 1.501 . S
C518 C519 1.387 . S
C518 N521 1.341 . S
C519 C517 1.400 . S
C519 C518 1.387 . S
N520 Co511 2.022 . S
N520 C517 1.351 . S
N520 N521 1.365 . S
N521 C518 1.341 . S
N521 N520 1.365 . S
N521 H541 0.862 . S
C522 C517 1.501 . S
C522 H523 0.961 . S
C522 H524 0.961 . S
C522 H525 0.960 . S
H523 C522 0.961 . S
H524 C522 0.961 . S
H525 C522 0.960 . S
C526 N527 1.342 . S
C526 C530 1.401 . S
C526 C531 1.499 . S
N527 Co510 1.989 . S
N527 C526 1.342 . S
N527 N528 1.388 . S
N528 Co511 1.993 . S
N528 N527 1.388 . S
N528 C529 1.346 . S
C529 N528 1.346 . S
C529 C530 1.396 . S
C529 C539 1.510 . S
C530 C526 1.401 . S
C530 C529 1.396 . S
C531 C526 1.499 . S
C531 H532 0.959 1_554 S
C531 H533 0.960 1_554 S
C531 H534 0.961 1_554 S
H532 C531 0.959 1_556 S
H533 C531 0.960 1_556 S
H534 C531 0.961 1_556 S
O535 Co510 1.967 . S
O535 C543 1.258 . S
O536 Co511 1.941 . S
O536 C543 1.266 . S
H537 C539 0.959 . S
H538 C539 0.961 . S
C539 C529 1.510 . S
C539 H537 0.959 . S
C539 H538 0.961 . S
C539 H540 0.960 . S
H540 C539 0.960 . S
H541 N521 0.862 . S
O542 Co510 1.920 1_556 S
O542 C515 1.289 . S
C543 O535 1.258 . S
C543 O536 1.266 . S
C544 C545 1.369 . S
C544 C546 1.419 . S
C544 H548 0.930 . S
C545 C544 1.369 . S
C545 C554 1.429 . S
C546 C544 1.419 . S
C546 C547 1.363 . S
C546 H549 0.929 . S
C547 C546 1.363 . S
C547 C553 1.428 . S
H548 C544 0.930 . S
H549 C546 0.929 . S
S550 N551 1.613 . S
S550 N552 1.610 . S
N551 S550 1.613 . S
N551 C554 1.350 . S
N552 S550 1.610 . S
N552 C553 1.351 . S
C553 C547 1.428 . S
C553 N552 1.351 . S
C553 C554 1.434 . S
C554 C545 1.429 . S
C554 N551 1.350 . S
C554 C553 1.434 . S
C555 C556 1.369 . S
C555 C557 1.419 . S
C555 H559 0.930 . S
C556 C555 1.369 . S
C556 C565 1.429 . S
C557 C555 1.419 . S
C557 C558 1.363 . S
C557 H560 0.929 . S
C558 C557 1.363 . S
C558 C564 1.428 . S
H559 C555 0.930 . S
H560 C557 0.929 . S
S561 N562 1.613 . S
S561 N563 1.610 . S
N562 S561 1.613 . S
N562 C565 1.350 . S
N563 S561 1.610 . S
N563 C564 1.351 . S
C564 C558 1.428 . S
C564 N563 1.351 . S
C564 C565 1.434 . S
C565 C556 1.429 . S
C565 N562 1.350 . S
C565 C564 1.434 . S
C566 C567 1.369 . S
C566 C568 1.419 . S
C566 H570 0.930 . S
C567 C566 1.369 . S
C567 C576 1.429 . S
C568 C566 1.419 . S
C568 C569 1.363 . S
C568 H571 0.929 . S
C569 C568 1.363 . S
C569 C575 1.428 . S
H570 C566 0.930 . S
H571 C568 0.929 . S
S572 N573 1.613 . S
S572 N574 1.610 . S
N573 S572 1.613 . S
N573 C576 1.350 . S
N574 S572 1.610 . S
N574 C575 1.351 . S
C575 C569 1.428 . S
C575 N574 1.351 . S
C575 C576 1.434 . S
C576 C567 1.429 . S
C576 N573 1.350 . S
C576 C575 1.434 . S
C577 C578 1.369 . S
C577 C579 1.419 . S
C577 H581 0.930 . S
C578 C577 1.369 . S
C578 C587 1.429 . S
C579 C577 1.419 . S
C579 C580 1.363 . S
C579 H582 0.929 . S
C580 C579 1.363 . S
C580 C586 1.428 . S
H581 C577 0.930 . S
H582 C579 0.929 . S
S583 N584 1.613 . S
S583 N585 1.610 . S
N584 S583 1.613 . S
N584 C587 1.350 . S
N585 S583 1.610 . S
N585 C586 1.351 . S
C586 C580 1.428 . S
C586 N585 1.351 . S
C586 C587 1.434 . S
C587 C578 1.429 . S
C587 N584 1.350 . S
C587 C586 1.434 . S
C588 C589 1.369 . S
C588 C590 1.419 . S
C588 H592 0.930 . S
C589 C588 1.369 . S
C589 C598 1.429 . S
C590 C588 1.419 . S
C590 C591 1.363 . S
C590 H593 0.929 . S
C591 C590 1.363 . S
C591 C597 1.428 . S
H592 C588 0.930 . S
H593 C590 0.929 . S
S594 N595 1.613 . S
S594 N596 1.610 . S
N595 S594 1.613 . S
N595 C598 1.350 . S
N596 S594 1.610 . S
N596 C597 1.351 . S
C597 C591 1.428 . S
C597 N596 1.351 . S
C597 C598 1.434 . S
C598 C589 1.429 . S
C598 N595 1.350 . S
C598 C597 1.434 . S
C599 C600 1.369 . S
C599 C601 1.419 . S
C599 H603 0.930 . S
C600 C599 1.369 . S
C600 C609 1.429 . S
C601 C599 1.419 . S
C601 C602 1.363 . S
C601 H604 0.929 . S
C602 C601 1.363 . S
C602 C608 1.428 . S
H603 C599 0.930 . S
H604 C601 0.929 . S
S605 N606 1.613 . S
S605 N607 1.610 . S
N606 S605 1.613 . S
N606 C609 1.350 . S
N607 S605 1.610 . S
N607 C608 1.351 . S
C608 C602 1.428 . S
C608 N607 1.351 . S
C608 C609 1.434 . S
C609 C600 1.429 . S
C609 N606 1.350 . S
C609 C608 1.434 . S
C610 C611 1.369 . S
C610 C612 1.419 . S
C610 H614 0.930 . S
C611 C610 1.369 . S
C611 C620 1.429 . S
C612 C610 1.419 . S
C612 C613 1.363 . S
C612 H615 0.929 . S
C613 C612 1.363 . S
C613 C619 1.428 . S
H614 C610 0.930 . S
H615 C612 0.929 . S
S616 N617 1.613 . S
S616 N618 1.610 . S
N617 S616 1.613 . S
N617 C620 1.350 . S
N618 S616 1.610 . S
N618 C619 1.351 . S
C619 C613 1.428 . S
C619 N618 1.351 . S
C619 C620 1.434 . S
C620 C611 1.429 . S
C620 N617 1.350 . S
C620 C619 1.434 . S
C621 C622 1.369 . S
C621 C623 1.419 . S
C621 H625 0.930 . S
C622 C621 1.369 . S
C622 C631 1.429 . S
C623 C621 1.419 . S
C623 C624 1.363 . S
C623 H626 0.929 . S
C624 C623 1.363 . S
C624 C630 1.428 . S
H625 C621 0.930 . S
H626 C623 0.929 . S
S627 N628 1.613 . S
S627 N629 1.610 . S
N628 S627 1.613 . S
N628 C631 1.350 . S
N629 S627 1.610 . S
N629 C630 1.351 . S
C630 C624 1.428 . S
C630 N629 1.351 . S
C630 C631 1.434 . S
C631 C622 1.429 . S
C631 N628 1.350 . S
C631 C630 1.434 . S
C632 C633 1.369 . S
C632 C634 1.419 . S
C632 H636 0.930 . S
C633 C632 1.369 . S
C633 C642 1.429 1_554 S
C634 C632 1.419 . S
C634 C635 1.363 1_554 S
C634 H637 0.929 . S
C635 C634 1.363 1_556 S
C635 C641 1.428 . S
H636 C632 0.930 . S
H637 C634 0.929 . S
S638 N639 1.613 . S
S638 N640 1.610 . S
N639 S638 1.613 . S
N639 C642 1.350 . S
N640 S638 1.610 . S
N640 C641 1.351 . S
C641 C635 1.428 . S
C641 N640 1.351 . S
C641 C642 1.434 . S
C642 C633 1.429 1_556 S
C642 N639 1.350 . S
C642 C641 1.434 . S
C643 C644 1.369 . S
C643 C645 1.419 . S
C643 H647 0.930 . S
C644 C643 1.369 . S
C644 C653 1.429 . S
C645 C643 1.419 . S
C645 C646 1.363 . S
C645 H648 0.929 . S
C646 C645 1.363 . S
C646 C652 1.428 . S
H647 C643 0.930 . S
H648 C645 0.929 . S
S649 N650 1.613 . S
S649 N651 1.610 . S
N650 S649 1.613 . S
N650 C653 1.350 . S
N651 S649 1.610 . S
N651 C652 1.351 . S
C652 C646 1.428 . S
C652 N651 1.351 . S
C652 C653 1.434 . S
C653 C644 1.429 . S
C653 N650 1.350 . S
C653 C652 1.434 . S
C654 C655 1.369 . S
C654 C656 1.419 . S
C654 H658 0.930 . S
C655 C654 1.369 . S
C655 C664 1.429 1_554 S
C656 C654 1.419 . S
C656 C657 1.363 1_554 S
C656 H659 0.929 . S
C657 C656 1.363 1_556 S
C657 C663 1.428 . S
H658 C654 0.930 . S
H659 C656 0.929 . S
S660 N661 1.613 . S
S660 N662 1.610 . S
N661 S660 1.613 . S
N661 C664 1.350 . S
N662 S660 1.610 . S
N662 C663 1.351 . S
C663 C657 1.428 . S
C663 N662 1.351 . S
C663 C664 1.434 . S
C664 C655 1.429 1_556 S
C664 N661 1.350 . S
C664 C663 1.434 . S
C665 C666 1.369 . S
C665 C667 1.419 . S
C665 H669 0.930 . S
C666 C665 1.369 . S
C666 C675 1.429 . S
C667 C665 1.419 . S
C667 C668 1.363 . S
C667 H670 0.929 . S
C668 C667 1.363 . S
C668 C674 1.428 . S
H669 C665 0.930 . S
H670 C667 0.929 . S
S671 N672 1.613 . S
S671 N673 1.610 . S
N672 S671 1.613 . S
N672 C675 1.350 . S
N673 S671 1.610 . S
N673 C674 1.351 . S
C674 C668 1.428 . S
C674 N673 1.351 . S
C674 C675 1.434 . S
C675 C666 1.429 . S
C675 N672 1.350 . S
C675 C674 1.434 . S
C676 C677 1.369 . S
C676 C678 1.419 . S
C676 H680 0.930 . S
C677 C676 1.369 . S
C677 C686 1.429 1_554 S
C678 C676 1.419 . S
C678 C679 1.363 1_554 S
C678 H681 0.929 . S
C679 C678 1.363 1_556 S
C679 C685 1.428 . S
H680 C676 0.930 . S
H681 C678 0.929 . S
S682 N683 1.613 . S
S682 N684 1.610 . S
N683 S682 1.613 . S
N683 C686 1.350 . S
N684 S682 1.610 . S
N684 C685 1.351 . S
C685 C679 1.428 . S
C685 N684 1.351 . S
C685 C686 1.434 . S
C686 C677 1.429 1_556 S
C686 N683 1.350 . S
C686 C685 1.434 . S
C687 C688 1.369 . S
C687 C689 1.419 . S
C687 H691 0.930 . S
C688 C687 1.369 . S
C688 C697 1.429 . S
C689 C687 1.419 . S
C689 C690 1.363 . S
C689 H692 0.929 . S
C690 C689 1.363 . S
C690 C696 1.428 . S
H691 C687 0.930 . S
H692 C689 0.929 . S
S693 N694 1.613 . S
S693 N695 1.610 . S
N694 S693 1.613 . S
N694 C697 1.350 . S
N695 S693 1.610 . S
N695 C696 1.351 . S
C696 C690 1.428 . S
C696 N695 1.351 . S
C696 C697 1.434 . S
C697 C688 1.429 . S
C697 N694 1.350 . S
C697 C696 1.434 . S
C698 C699 1.369 . S
C698 C700 1.419 . S
C698 H702 0.930 . S
C699 C698 1.369 . S
C699 C708 1.429 1_554 S
C700 C698 1.419 . S
C700 C701 1.363 1_554 S
C700 H703 0.929 . S
C701 C700 1.363 1_556 S
C701 C707 1.428 . S
H702 C698 0.930 . S
H703 C700 0.929 . S
S704 N705 1.613 . S
S704 N706 1.610 . S
N705 S704 1.613 . S
N705 C708 1.350 . S
N706 S704 1.610 . S
N706 C707 1.351 . S
C707 C701 1.428 . S
C707 N706 1.351 . S
C707 C708 1.434 . S
C708 C699 1.429 1_556 S
C708 N705 1.350 . S
C708 C707 1.434 . S
C709 C710 1.369 . S
C709 C711 1.419 . S
C709 H713 0.930 . S
C710 C709 1.369 . S
C710 C719 1.429 . S
C711 C709 1.419 . S
C711 C712 1.363 . S
C711 H714 0.929 . S
C712 C711 1.363 . S
C712 C718 1.428 . S
H713 C709 0.930 . S
H714 C711 0.929 . S
S715 N716 1.613 . S
S715 N717 1.610 . S
N716 S715 1.613 . S
N716 C719 1.350 . S
N717 S715 1.610 . S
N717 C718 1.351 . S
C718 C712 1.428 . S
C718 N717 1.351 . S
C718 C719 1.434 . S
C719 C710 1.429 . S
C719 N716 1.350 . S
C719 C718 1.434 . S
C720 C721 1.369 . S
C720 C722 1.419 . S
C720 H724 0.930 . S
C721 C720 1.369 . S
C721 C730 1.429 . S
C722 C720 1.419 . S
C722 C723 1.363 . S
C722 H725 0.929 . S
C723 C722 1.363 . S
C723 C729 1.428 . S
H724 C720 0.930 . S
H725 C722 0.929 . S
S726 N727 1.613 . S
S726 N728 1.610 . S
N727 S726 1.613 . S
N727 C730 1.350 . S
N728 S726 1.610 . S
N728 C729 1.351 . S
C729 C723 1.428 . S
C729 N728 1.351 . S
C729 C730 1.434 . S
C730 C721 1.429 . S
C730 N727 1.350 . S
C730 C729 1.434 . S
C731 C732 1.369 . S
C731 C733 1.419 . S
C731 H735 0.930 1_545 S
C732 C731 1.369 . S
C732 C741 1.429 . S
C733 C731 1.419 . S
C733 C734 1.363 . S
C733 H736 0.929 1_545 S
C734 C733 1.363 . S
C734 C740 1.428 . S
H735 C731 0.930 1_565 S
H736 C733 0.929 1_565 S
S737 N738 1.613 . S
S737 N739 1.610 . S
N738 S737 1.613 . S
N738 C741 1.350 . S
N739 S737 1.610 . S
N739 C740 1.351 . S
C740 C734 1.428 . S
C740 N739 1.351 . S
C740 C741 1.434 . S
C741 C732 1.429 . S
C741 N738 1.350 . S
C741 C740 1.434 . S
C742 C743 1.369 . S
C742 C744 1.419 . S
C742 H746 0.930 . S
C743 C742 1.369 . S
C743 C752 1.429 . S
C744 C742 1.419 . S
C744 C745 1.363 . S
C744 H747 0.929 . S
C745 C744 1.363 . S
C745 C751 1.428 . S
H746 C742 0.930 . S
H747 C744 0.929 . S
S748 N749 1.613 . S
S748 N750 1.610 . S
N749 S748 1.613 . S
N749 C752 1.350 . S
N750 S748 1.610 . S
N750 C751 1.351 . S
C751 C745 1.428 . S
C751 N750 1.351 . S
C751 C752 1.434 . S
C752 C743 1.429 . S
C752 N749 1.350 . S
C752 C751 1.434 . S
C753 C754 1.369 . S
C753 C755 1.419 . S
C753 H757 0.930 . S
C754 C753 1.369 . S
C754 C763 1.429 . S
C755 C753 1.419 . S
C755 C756 1.363 . S
C755 H758 0.929 . S
C756 C755 1.363 . S
C756 C762 1.428 . S
H757 C753 0.930 . S
H758 C755 0.929 . S
S759 N760 1.613 . S
S759 N761 1.610 . S
N760 S759 1.613 . S
N760 C763 1.350 . S
N761 S759 1.610 . S
N761 C762 1.351 . S
C762 C756 1.428 . S
C762 N761 1.351 . S
C762 C763 1.434 . S
C763 C754 1.429 . S
C763 N760 1.350 . S
C763 C762 1.434 . S
C764 C765 1.369 . S
C764 C766 1.419 . S
C764 H768 0.930 . S
C765 C764 1.369 . S
C765 C774 1.429 . S
C766 C764 1.419 . S
C766 C767 1.363 . S
C766 H769 0.929 . S
C767 C766 1.363 . S
C767 C773 1.428 . S
H768 C764 0.930 . S
H769 C766 0.929 . S
S770 N771 1.613 . S
S770 N772 1.610 . S
N771 S770 1.613 . S
N771 C774 1.350 . S
N772 S770 1.610 . S
N772 C773 1.351 . S
C773 C767 1.428 . S
C773 N772 1.351 . S
C773 C774 1.434 . S
C774 C765 1.429 . S
C774 N771 1.350 . S
C774 C773 1.434 . S
C775 C776 1.369 . S
C775 C777 1.419 . S
C775 H779 0.920 1_565 S
C776 C775 1.369 . S
C776 C785 1.429 . S
C777 C775 1.419 . S
C777 C778 1.363 . S
C777 H780 0.905 1_565 S
C778 C777 1.363 . S
C778 C784 1.428 . S
H779 C775 0.920 1_545 S
H780 C777 0.905 1_545 S
S781 N782 1.613 . S
S781 N783 1.610 . S
N782 S781 1.613 . S
N782 C785 1.350 . S
N783 S781 1.610 . S
N783 C784 1.351 . S
C784 C778 1.428 . S
C784 N783 1.351 . S
C784 C785 1.434 . S
C785 C776 1.429 . S
C785 N782 1.350 . S
C785 C784 1.434 . S
C786 C787 1.369 . S
C786 C788 1.419 . S
C786 H790 0.930 . S
C787 C786 1.369 . S
C787 C796 1.429 . S
C788 C786 1.419 . S
C788 C789 1.363 . S
C788 H791 0.929 . S
C789 C788 1.363 . S
C789 C795 1.428 . S
H790 C786 0.930 . S
H791 C788 0.929 . S
S792 N793 1.613 . S
S792 N794 1.610 . S
N793 S792 1.613 . S
N793 C796 1.350 . S
N794 S792 1.610 . S
N794 C795 1.351 . S
C795 C789 1.428 . S
C795 N794 1.351 . S
C795 C796 1.434 . S
C796 C787 1.429 . S
C796 N793 1.350 . S
C796 C795 1.434 . S
C797 C798 1.369 . S
C797 C799 1.419 . S
C797 H801 0.930 . S
C798 C797 1.369 . S
C798 C807 1.429 . S
C799 C797 1.419 . S
C799 C800 1.363 . S
C799 H802 0.929 . S
C800 C799 1.363 . S
C800 C806 1.428 . S
H801 C797 0.930 . S
H802 C799 0.929 . S
S803 N804 1.613 . S
S803 N805 1.610 . S
N804 S803 1.613 . S
N804 C807 1.350 . S
N805 S803 1.610 . S
N805 C806 1.351 . S
C806 C800 1.428 . S
C806 N805 1.351 . S
C806 C807 1.434 . S
C807 C798 1.429 . S
C807 N804 1.350 . S
C807 C806 1.434 . S
C808 C809 1.369 . S
C808 C810 1.418 1_655 S
C808 H812 0.930 . S
C809 C808 1.369 . S
C809 C818 1.429 . S
C810 C808 1.418 1_455 S
C810 C811 1.363 . S
C810 H813 0.929 . S
C811 C810 1.363 . S
C811 C817 1.428 1_455 S
H812 C808 0.930 . S
H813 C810 0.929 . S
S814 N815 1.621 . S
S814 N816 1.606 1_655 S
N815 S814 1.621 . S
N815 C818 1.350 . S
N816 S814 1.606 1_455 S
N816 C817 1.351 1_455 S
C817 C811 1.428 1_655 S
C817 N816 1.351 1_655 S
C817 C818 1.434 . S
C818 C809 1.429 . S
C818 N815 1.350 . S
C818 C817 1.434 . S
C819 C820 1.369 1_565 S
C819 C821 1.419 . S
C819 H823 0.930 . S
C820 C819 1.369 1_545 S
C820 C829 1.429 . S
C821 C819 1.419 . S
C821 C822 1.363 . S
C821 H824 0.929 . S
C822 C821 1.363 . S
C822 C828 1.428 1_565 S
H823 C819 0.930 . S
H824 C821 0.929 . S
S825 N826 1.613 . S
S825 N827 1.610 . S
N826 S825 1.613 . S
N826 C829 1.350 . S
N827 S825 1.610 . S
N827 C828 1.351 . S
C828 C822 1.428 1_545 S
C828 N827 1.351 . S
C828 C829 1.434 . S
C829 C820 1.429 . S
C829 N826 1.350 . S
C829 C828 1.434 . S
C830 C831 1.369 . S
C830 C832 1.419 . S
C830 H834 0.930 . S
C831 C830 1.369 . S
C831 C840 1.429 . S
C832 C830 1.419 . S
C832 C833 1.363 . S
C832 H835 0.929 . S
C833 C832 1.363 . S
C833 C839 1.428 . S
H834 C830 0.930 . S
H835 C832 0.929 . S
S836 N837 1.613 . S
S836 N838 1.610 . S
N837 S836 1.613 . S
N837 C840 1.350 . S
N838 S836 1.610 . S
N838 C839 1.351 . S
C839 C833 1.428 . S
C839 N838 1.351 . S
C839 C840 1.434 . S
C840 C831 1.429 . S
C840 N837 1.350 . S
C840 C839 1.434 . S
C841 C842 1.369 . S
C841 C843 1.419 . S
C841 H845 0.930 . S
C842 C841 1.369 . S
C842 C851 1.429 . S
C843 C841 1.419 . S
C843 C844 1.363 . S
C843 H846 0.929 . S
C844 C843 1.363 . S
C844 C850 1.428 . S
H845 C841 0.930 . S
H846 C843 0.929 . S
S847 N848 1.613 . S
S847 N849 1.610 . S
N848 S847 1.613 . S
N848 C851 1.350 . S
N849 S847 1.610 . S
N849 C850 1.351 . S
C850 C844 1.428 . S
C850 N849 1.351 . S
C850 C851 1.434 . S
C851 C842 1.429 . S
C851 N848 1.350 . S
C851 C850 1.434 . S
C852 C853 1.369 . S
C852 C854 1.419 . S
C852 H856 0.930 . S
C853 C852 1.369 . S
C853 C862 1.429 1_655 S
C854 C852 1.419 . S
C854 C855 1.363 1_655 S
C854 H857 0.929 . S
C855 C854 1.363 1_455 S
C855 C861 1.428 . S
H856 C852 0.930 . S
H857 C854 0.929 . S
S858 N859 1.613 . S
S858 N860 1.610 . S
N859 S858 1.613 . S
N859 C862 1.350 . S
N860 S858 1.610 . S
N860 C861 1.351 . S
C861 C855 1.428 . S
C861 N860 1.351 . S
C861 C862 1.434 . S
C862 C853 1.429 1_455 S
C862 N859 1.350 . S
C862 C861 1.434 . S
C863 C864 1.369 . S
C863 C865 1.419 . S
C863 H867 0.930 . S
C864 C863 1.369 . S
C864 C873 1.429 1_565 S
C865 C863 1.419 . S
C865 C866 1.363 1_565 S
C865 H868 0.929 . S
C866 C865 1.363 1_545 S
C866 C872 1.428 . S
H867 C863 0.930 . S
H868 C865 0.929 . S
S869 N870 1.613 . S
S869 N871 1.610 . S
N870 S869 1.613 . S
N870 C873 1.350 . S
N871 S869 1.610 . S
N871 C872 1.351 . S
C872 C866 1.428 . S
C872 N871 1.351 . S
C872 C873 1.434 . S
C873 C864 1.429 1_545 S
C873 N870 1.350 . S
C873 C872 1.434 . S
C874 C875 1.369 . S
C874 C876 1.419 . S
C874 H878 0.930 . S
C875 C874 1.369 . S
C875 C884 1.429 . S
C876 C874 1.419 . S
C876 C877 1.363 . S
C876 H879 0.929 . S
C877 C876 1.363 . S
C877 C883 1.428 . S
H878 C874 0.930 . S
H879 C876 0.929 . S
S880 N881 1.613 . S
S880 N882 1.610 . S
N881 S880 1.613 . S
N881 C884 1.350 . S
N882 S880 1.610 . S
N882 C883 1.351 . S
C883 C877 1.428 . S
C883 N882 1.351 . S
C883 C884 1.434 . S
C884 C875 1.429 . S
C884 N881 1.350 . S
C884 C883 1.434 . S
C885 C886 1.369 . S
C885 C887 1.419 . S
C885 H889 0.930 . S
C886 C885 1.369 . S
C886 C895 1.429 . S
C887 C885 1.419 . S
C887 C888 1.363 . S
C887 H890 0.929 . S
C888 C887 1.363 . S
C888 C894 1.428 . S
H889 C885 0.930 . S
H890 C887 0.929 . S
S891 N892 1.613 . S
S891 N893 1.610 . S
N892 S891 1.613 . S
N892 C895 1.350 . S
N893 S891 1.610 . S
N893 C894 1.351 . S
C894 C888 1.428 . S
C894 N893 1.351 . S
C894 C895 1.434 . S
C895 C886 1.429 . S
C895 N892 1.350 . S
C895 C894 1.434 . S
C896 C897 1.369 . S
C896 C898 1.419 . S
C896 H900 0.930 . S
C897 C896 1.369 . S
C897 C906 1.429 1_655 S
C898 C896 1.419 . S
C898 C899 1.363 1_655 S
C898 H901 0.929 . S
C899 C898 1.363 1_455 S
C899 C905 1.428 . S
H900 C896 0.930 . S
H901 C898 0.929 . S
S902 N903 1.613 . S
S902 N904 1.610 . S
N903 S902 1.613 . S
N903 C906 1.350 . S
N904 S902 1.610 . S
N904 C905 1.351 . S
C905 C899 1.428 . S
C905 N904 1.351 . S
C905 C906 1.434 . S
C906 C897 1.429 1_455 S
C906 N903 1.350 . S
C906 C905 1.434 . S
C907 C908 1.369 1_545 S
C907 C909 1.419 . S
C907 H911 0.930 . S
C908 C907 1.369 1_565 S
C908 C917 1.429 . S
C909 C907 1.419 . S
C909 C910 1.363 . S
C909 H912 0.929 . S
C910 C909 1.363 . S
C910 C916 1.428 1_545 S
H911 C907 0.930 . S
H912 C909 0.929 . S
S913 N914 1.613 . S
S913 N915 1.610 . S
N914 S913 1.613 . S
N914 C917 1.350 . S
N915 S913 1.610 . S
N915 C916 1.351 . S
C916 C910 1.428 1_565 S
C916 N915 1.351 . S
C916 C917 1.434 . S
C917 C908 1.429 . S
C917 N914 1.350 . S
C917 C916 1.434 . S
C918 C919 1.369 . S
C918 C920 1.419 . S
C918 H922 0.930 . S
C919 C918 1.369 . S
C919 C928 1.429 . S
C920 C918 1.419 . S
C920 C921 1.363 . S
C920 H923 0.929 . S
C921 C920 1.363 . S
C921 C927 1.428 . S
H922 C918 0.930 . S
H923 C920 0.929 . S
S924 N925 1.613 . S
S924 N926 1.610 . S
N925 S924 1.613 . S
N925 C928 1.350 . S
N926 S924 1.610 . S
N926 C927 1.351 . S
C927 C921 1.428 . S
C927 N926 1.351 . S
C927 C928 1.434 . S
C928 C919 1.429 . S
C928 N925 1.350 . S
C928 C927 1.434 . S
C929 C930 1.369 . S
C929 C931 1.419 . S
C929 H933 0.930 . S
C930 C929 1.369 . S
C930 C939 1.429 . S
C931 C929 1.419 . S
C931 C932 1.363 . S
C931 H934 0.929 . S
C932 C931 1.363 . S
C932 C938 1.428 . S
H933 C929 0.930 . S
H934 C931 0.929 . S
S935 N936 1.613 . S
S935 N937 1.610 . S
N936 S935 1.613 . S
N936 C939 1.350 . S
N937 S935 1.610 . S
N937 C938 1.351 . S
C938 C932 1.428 . S
C938 N937 1.351 . S
C938 C939 1.434 . S
C939 C930 1.429 . S
C939 N936 1.350 . S
C939 C938 1.434 . S
C940 C941 1.369 1_655 S
C940 C942 1.419 . S
C940 H944 0.930 . S
C941 C940 1.369 1_455 S
C941 C950 1.429 . S
C942 C940 1.419 . S
C942 C943 1.363 . S
C942 H945 0.929 . S
C943 C942 1.363 . S
C943 C949 1.428 1_655 S
H944 C940 0.930 . S
H945 C942 0.929 . S
S946 N947 1.613 . S
S946 N948 1.610 . S
N947 S946 1.613 . S
N947 C950 1.350 . S
N948 S946 1.610 . S
N948 C949 1.351 . S
C949 C943 1.428 1_455 S
C949 N948 1.351 . S
C949 C950 1.434 . S
C950 C941 1.429 . S
C950 N947 1.350 . S
C950 C949 1.434 . S
C951 C952 1.369 1_565 S
C951 C953 1.419 . S
C951 H955 0.930 . S
C952 C951 1.369 1_545 S
C952 C961 1.429 . S
C953 C951 1.419 . S
C953 C954 1.363 . S
C953 H956 0.929 . S
C954 C953 1.363 . S
C954 C960 1.428 1_565 S
H955 C951 0.930 . S
H956 C953 0.929 . S
S957 N958 1.613 . S
S957 N959 1.610 . S
N958 S957 1.613 . S
N958 C961 1.350 . S
N959 S957 1.610 . S
N959 C960 1.351 . S
C960 C954 1.428 1_545 S
C960 N959 1.351 . S
C960 C961 1.434 . S
C961 C952 1.429 . S
C961 N958 1.350 . S
C961 C960 1.434 . S
C962 C963 1.369 . S
C962 C964 1.419 . S
C962 H966 0.930 . S
C963 C962 1.369 . S
C963 C972 1.429 . S
C964 C962 1.419 . S
C964 C965 1.363 . S
C964 H967 0.929 . S
C965 C964 1.363 . S
C965 C971 1.428 . S
H966 C962 0.930 . S
H967 C964 0.929 . S
S968 N969 1.613 . S
S968 N970 1.610 . S
N969 S968 1.613 . S
N969 C972 1.350 . S
N970 S968 1.610 . S
N970 C971 1.351 . S
C971 C965 1.428 . S
C971 N970 1.351 . S
C971 C972 1.434 . S
C972 C963 1.429 . S
C972 N969 1.350 . S
C972 C971 1.434 . S
C973 C974 1.369 . S
C973 C975 1.419 . S
C973 H977 0.930 . S
C974 C973 1.369 . S
C974 C983 1.429 . S
C975 C973 1.419 . S
C975 C976 1.363 . S
C975 H978 0.929 . S
C976 C975 1.363 . S
C976 C982 1.428 . S
H977 C973 0.930 . S
H978 C975 0.929 . S
S979 N980 1.613 . S
S979 N981 1.610 . S
N980 S979 1.613 . S
N980 C983 1.350 . S
N981 S979 1.610 . S
N981 C982 1.351 . S
C982 C976 1.428 . S
C982 N981 1.351 . S
C982 C983 1.434 . S
C983 C974 1.429 . S
C983 N980 1.350 . S
C983 C982 1.434 . S
C545 C2 1.679 . S
C547 C512 1.679 . S
C556 C36 1.679 . S
C558 C410 1.679 . S
C567 C444 1.678 . S
C569 C70 1.678 . S
C578 C104 1.678 . S
C580 C478 1.678 . S
C589 C308 1.678 . S
C591 C138 1.678 . S
C600 C342 1.678 . S
C602 C172 1.678 . S
C611 C376 1.679 . S
C613 C206 1.679 . S
C622 C274 1.678 . S
C624 C240 1.678 . S
C633 C33 1.369 . S
C635 C271 1.376 . S
C644 C67 1.368 . S
C646 C169 1.375 . S
C655 C101 1.367 . S
C657 C203 1.375 . S
C666 C135 1.374 . S
C668 C237 1.369 . S
C677 C543 1.367 . S
C679 C305 1.375 . S
C688 C441 1.368 . S
C690 C339 1.376 . S
C699 C475 1.368 . S
C701 C373 1.374 . S
C710 C407 1.367 . S
C712 C509 1.375 . S
C721 C20 1.607 . S
C723 C156 1.603 . S
C732 C190 1.606 . S
C734 C54 1.607 . S
C743 C224 1.604 . S
C745 C88 1.607 . S
C754 C122 1.602 . S
C756 C258 1.605 . S
C765 C428 1.608 . S
C767 C292 1.603 . S
C776 C326 1.603 . S
C778 C462 1.607 . S
C787 C360 1.605 . S
C789 C496 1.607 . S
C798 C530 1.602 . S
C800 C394 1.606 . S
C809 C5 1.375 . S
C811 C9 1.365 . S
C820 C43 1.363 . S
C822 C39 1.372 . S
C831 C73 1.374 . S
C833 C77 1.364 . S
C842 C111 1.370 . S
C844 C107 1.374 . S
C853 C141 1.370 . S
C855 C145 1.367 . S
C864 C175 1.371 . S
C866 C179 1.364 . S
C875 C209 1.375 . S
C877 C213 1.365 . S
C886 C243 1.373 . S
C888 C247 1.369 . S
C897 C281 1.366 . S
C899 C277 1.375 . S
C908 C315 1.364 . S
C910 C311 1.371 . S
C919 C349 1.367 . S
C921 C345 1.370 . S
C930 C383 1.364 . S
C932 C379 1.371 . S
C941 C413 1.375 . S
C943 C417 1.368 . S
C952 C447 1.374 . S
C954 C451 1.369 . S
C963 C485 1.367 . S
C965 C481 1.370 . S
C974 C519 1.368 . S
C976 C515 1.375 . S
