# Generated by pormake.
# Topology snl, (6)-cn, num edge types: 1
# Building blocks:
#     Node 0, Type 0, BuildingBlock: BETDIP_clean_sbu_0, # of connection points: 6
#     Node 1, Type 0, BuildingBlock: BETDIP_clean_sbu_0, # of connection points: 6
#     Node 2, Type 0, BuildingBlock: BETDIP_clean_sbu_0, # of connection points: 6
#     Node 3, Type 0, BuildingBlock: BETDIP_clean_sbu_0, # of connection points: 6
#     Node 4, Type 0, BuildingBlock: BETDIP_clean_sbu_0, # of connection points: 6
#     Node 5, Type 0, BuildingBlock: BETDIP_clean_sbu_0, # of connection points: 6
#     Node 6, Type 0, BuildingBlock: BETDIP_clean_sbu_0, # of connection points: 6
#     Node 7, Type 0, BuildingBlock: BETDIP_clean_sbu_0, # of connection points: 6
#     Node 8, Type 0, BuildingBlock: BETDIP_clean_sbu_0, # of connection points: 6
#     Node 9, Type 0, BuildingBlock: BETDIP_clean_sbu_0, # of connection points: 6
#     Node 10, Type 0, BuildingBlock: BETDIP_clean_sbu_0, # of connection points: 6
#     Node 11, Type 0, BuildingBlock: BETDIP_clean_sbu_0, # of connection points: 6
#     Node 12, Type 0, BuildingBlock: BETDIP_clean_sbu_0, # of connection points: 6
#     Node 13, Type 0, BuildingBlock: BETDIP_clean_sbu_0, # of connection points: 6
#     Node 14, Type 0, BuildingBlock: BETDIP_clean_sbu_0, # of connection points: 6
#     Node 15, Type 0, BuildingBlock: BETDIP_clean_sbu_0, # of connection points: 6
#     Edge 16, Type (0, 0), BuildingBlock: KIFKEQ_clean_linker_1, # of connection points: 2
#     Edge 17, Type (0, 0), BuildingBlock: KIFKEQ_clean_linker_1, # of connection points: 2
#     Edge 18, Type (0, 0), BuildingBlock: KIFKEQ_clean_linker_1, # of connection points: 2
#     Edge 19, Type (0, 0), BuildingBlock: KIFKEQ_clean_linker_1, # of connection points: 2
#     Edge 20, Type (0, 0), BuildingBlock: KIFKEQ_clean_linker_1, # of connection points: 2
#     Edge 21, Type (0, 0), BuildingBlock: KIFKEQ_clean_linker_1, # of connection points: 2
#     Edge 22, Type (0, 0), BuildingBlock: KIFKEQ_clean_linker_1, # of connection points: 2
#     Edge 23, Type (0, 0), BuildingBlock: KIFKEQ_clean_linker_1, # of connection points: 2
#     Edge 24, Type (0, 0), BuildingBlock: KIFKEQ_clean_linker_1, # of connection points: 2
#     Edge 25, Type (0, 0), BuildingBlock: KIFKEQ_clean_linker_1, # of connection points: 2
#     Edge 26, Type (0, 0), BuildingBlock: KIFKEQ_clean_linker_1, # of connection points: 2
#     Edge 27, Type (0, 0), BuildingBlock: KIFKEQ_clean_linker_1, # of connection points: 2
#     Edge 28, Type (0, 0), BuildingBlock: KIFKEQ_clean_linker_1, # of connection points: 2
#     Edge 29, Type (0, 0), BuildingBlock: KIFKEQ_clean_linker_1, # of connection points: 2
#     Edge 30, Type (0, 0), BuildingBlock: KIFKEQ_clean_linker_1, # of connection points: 2
#     Edge 31, Type (0, 0), BuildingBlock: KIFKEQ_clean_linker_1, # of connection points: 2
#     Edge 32, Type (0, 0), BuildingBlock: KIFKEQ_clean_linker_1, # of connection points: 2
#     Edge 33, Type (0, 0), BuildingBlock: KIFKEQ_clean_linker_1, # of connection points: 2
#     Edge 34, Type (0, 0), BuildingBlock: KIFKEQ_clean_linker_1, # of connection points: 2
#     Edge 35, Type (0, 0), BuildingBlock: KIFKEQ_clean_linker_1, # of connection points: 2
#     Edge 36, Type (0, 0), BuildingBlock: KIFKEQ_clean_linker_1, # of connection points: 2
#     Edge 37, Type (0, 0), BuildingBlock: KIFKEQ_clean_linker_1, # of connection points: 2
#     Edge 38, Type (0, 0), BuildingBlock: KIFKEQ_clean_linker_1, # of connection points: 2
#     Edge 39, Type (0, 0), BuildingBlock: KIFKEQ_clean_linker_1, # of connection points: 2
#     Edge 40, Type (0, 0), BuildingBlock: KIFKEQ_clean_linker_1, # of connection points: 2
#     Edge 41, Type (0, 0), BuildingBlock: KIFKEQ_clean_linker_1, # of connection points: 2
#     Edge 42, Type (0, 0), BuildingBlock: KIFKEQ_clean_linker_1, # of connection points: 2
#     Edge 43, Type (0, 0), BuildingBlock: KIFKEQ_clean_linker_1, # of connection points: 2
#     Edge 44, Type (0, 0), BuildingBlock: KIFKEQ_clean_linker_1, # of connection points: 2
#     Edge 45, Type (0, 0), BuildingBlock: KIFKEQ_clean_linker_1, # of connection points: 2
#     Edge 46, Type (0, 0), BuildingBlock: KIFKEQ_clean_linker_1, # of connection points: 2
#     Edge 47, Type (0, 0), BuildingBlock: KIFKEQ_clean_linker_1, # of connection points: 2
#     Edge 48, Type (0, 0), BuildingBlock: KIFKEQ_clean_linker_1, # of connection points: 2
#     Edge 49, Type (0, 0), BuildingBlock: KIFKEQ_clean_linker_1, # of connection points: 2
#     Edge 50, Type (0, 0), BuildingBlock: KIFKEQ_clean_linker_1, # of connection points: 2
#     Edge 51, Type (0, 0), BuildingBlock: KIFKEQ_clean_linker_1, # of connection points: 2
#     Edge 52, Type (0, 0), BuildingBlock: KIFKEQ_clean_linker_1, # of connection points: 2
#     Edge 53, Type (0, 0), BuildingBlock: KIFKEQ_clean_linker_1, # of connection points: 2
#     Edge 54, Type (0, 0), BuildingBlock: KIFKEQ_clean_linker_1, # of connection points: 2
#     Edge 55, Type (0, 0), BuildingBlock: KIFKEQ_clean_linker_1, # of connection points: 2
#     Edge 56, Type (0, 0), BuildingBlock: KIFKEQ_clean_linker_1, # of connection points: 2
#     Edge 57, Type (0, 0), BuildingBlock: KIFKEQ_clean_linker_1, # of connection points: 2
#     Edge 58, Type (0, 0), BuildingBlock: KIFKEQ_clean_linker_1, # of connection points: 2
#     Edge 59, Type (0, 0), BuildingBlock: KIFKEQ_clean_linker_1, # of connection points: 2
#     Edge 60, Type (0, 0), BuildingBlock: KIFKEQ_clean_linker_1, # of connection points: 2
#     Edge 61, Type (0, 0), BuildingBlock: KIFKEQ_clean_linker_1, # of connection points: 2
#     Edge 62, Type (0, 0), BuildingBlock: KIFKEQ_clean_linker_1, # of connection points: 2
#     Edge 63, Type (0, 0), BuildingBlock: KIFKEQ_clean_linker_1, # of connection points: 2
# Relax obj value: 0.208
# Max RMSD: 0.259
# Mean RMSD: 0.231
data_MOF--net-snl--node1-BETDIP_clean_sbu_0--edge1-KIFKEQ_clean_linker_1
_symmetry_space_group_name_H-M    P1
_symmetry_Int_Tables_number       1
_symmetry_cell_setting            triclinic
loop_
_symmetry_equiv_pos_as_xyz
'x, y, z'
_cell_length_a     57.82178
_cell_length_b     56.21067
_cell_length_c     25.915664
_cell_angle_alpha  87.027673
_cell_angle_beta   93.066869
_cell_angle_gamma 90.5954
loop_
_atom_site_label
_atom_site_type_symbol
_atom_site_fract_x
_atom_site_fract_y
_atom_site_fract_z
_atom_type_partial_charge
Tb0 Tb 0.14532 0.61974 0.21138 0.0
Tb1 Tb 0.14594 0.64438 0.10968 0.0
C2 C 0.15291 0.60605 0.30548 0.0
C3 C 0.15142 0.6138 0.35938 0.0
C4 C 0.17183 0.61787 0.38974 0.0
C5 C 0.171 0.62228 0.44241 0.0
C6 C 0.14972 0.62256 0.4664 0.0
C7 C 0.12925 0.61899 0.43568 0.0
C8 C 0.13008 0.61464 0.38296 0.0
C9 C 0.104 0.62053 0.16101 0.0
C10 C 0.13765 0.67651 0.19869 0.0
C11 C 0.14064 0.6588 1.01559 0.0
C12 C 0.14384 0.65168 0.96184 0.0
C13 C 0.12993 0.63404 0.9387 0.0
C14 C 0.13134 0.62981 0.88599 0.0
C15 C 0.14661 0.64317 0.85497 0.0
C16 C 0.16098 0.66027 0.87876 0.0
C17 C 0.15953 0.66451 0.9313 0.0
C18 C 0.18648 0.64311 0.16421 0.0
C19 C 0.15076 0.588 0.1171 0.0
O20 O 0.16855 0.6162 0.27685 0.0
O21 O 0.13359 0.60217 0.27867 0.0
O22 O 0.11854 0.63757 0.1622 0.0
O23 O 0.11256 0.60275 0.18925 0.0
O24 O 0.14499 0.65819 0.22962 0.0
O25 O 0.13293 0.6738 0.14909 0.0
O26 O 0.12447 0.64806 0.04173 0.0
O27 O 0.15923 0.66286 0.04482 0.0
O28 O 0.17208 0.62627 0.15952 0.0
O29 O 0.17858 0.66144 0.13679 0.0
O30 O 0.14485 0.6073 0.08855 0.0
O31 O 0.15506 0.58906 0.16777 0.0
H32 H 0.18857 0.61695 0.37308 0.0
H33 H 0.18716 0.62463 0.46472 0.0
H34 H 0.11252 0.6194 0.45247 0.0
H35 H 0.11399 0.6114 0.36104 0.0
H36 H 0.1175 0.62392 0.96087 0.0
H37 H 0.11984 0.61664 0.86919 0.0
H38 H 0.17328 0.67061 0.85666 0.0
H39 H 0.17037 0.67832 0.94781 0.0
Tb40 Tb 0.64344 0.9011 0.3317 0.0
Tb41 Tb 0.64608 0.87614 0.4337 0.0
C42 C 0.64879 0.91555 0.2387 0.0
C43 C 0.64735 0.9079 0.18432 0.0
C44 C 0.66724 0.90037 0.16088 0.0
C45 C 0.6666 0.89626 0.10783 0.0
C46 C 0.64609 0.89977 0.07658 0.0
C47 C 0.62609 0.90675 0.10038 0.0
C48 C 0.62672 0.91083 0.15336 0.0
C49 C 0.60327 0.89977 0.3772 0.0
C50 C 0.63696 0.84401 0.3428 0.0
C51 C 0.64234 0.86143 0.52697 0.0
C52 C 0.64225 0.86968 0.58063 0.0
C53 C 0.62341 0.86354 0.61082 0.0
C54 C 0.62374 0.86867 0.6632 0.0
C55 C 0.64301 0.88002 0.68705 0.0
C56 C 0.66168 0.88668 0.65642 0.0
C57 C 0.66131 0.8816 0.60385 0.0
C58 C 0.68563 0.87767 0.38441 0.0
C59 C 0.64995 0.93253 0.42758 0.0
O60 O 0.66552 0.9071 0.27014 0.0
O61 O 0.62948 0.91726 0.26213 0.0
O62 O 0.61765 0.88285 0.3773 0.0
O63 O 0.61129 0.91777 0.35039 0.0
O64 O 0.64324 0.86274 0.31309 0.0
O65 O 0.63356 0.84605 0.39214 0.0
O66 O 0.6247 0.86726 0.49532 0.0
O67 O 0.66186 0.86241 0.50373 0.0
O68 O 0.67137 0.89442 0.38679 0.0
O69 O 0.67821 0.85948 0.41172 0.0
O70 O 0.64412 0.91308 0.45457 0.0
O71 O 0.65379 0.93175 0.37764 0.0
H72 H 0.68354 0.89835 0.18321 0.0
H73 H 0.68244 0.89118 0.09098 0.0
H74 H 0.60988 0.9093 0.07794 0.0
H75 H 0.61112 0.9169 0.16976 0.0
H76 H 0.60861 0.85411 0.59418 0.0
H77 H 0.60916 0.86297 0.68543 0.0
H78 H 0.67668 0.89574 0.67313 0.0
H79 H 0.67614 0.88659 0.58175 0.0
Tb80 Tb 0.3872 0.40028 0.74471 0.0
Tb81 Tb 0.38016 0.37632 0.6476 0.0
C82 C 0.38619 0.41478 0.83549 0.0
C83 C 0.38613 0.40669 0.8911 0.0
C84 C 0.36566 0.39893 0.91402 0.0
C85 C 0.36535 0.39433 0.96775 0.0
C86 C 0.38546 0.39745 0.99995 0.0
C87 C 0.40599 0.40473 0.97673 0.0
C88 C 0.40629 0.40936 0.92315 0.0
C89 C 0.42514 0.39947 0.69106 0.0
C90 C 0.39062 0.34343 0.74339 0.0
C91 C 0.37975 0.36185 0.55667 0.0
C92 C 0.38201 0.36994 0.50155 0.0
C93 C 0.40146 0.36316 0.4757 0.0
C94 C 0.40261 0.36764 0.42221 0.0
C95 C 0.38424 0.37889 0.39291 0.0
C96 C 0.36508 0.38638 0.41911 0.0
C97 C 0.36394 0.38191 0.47271 0.0
C98 C 0.3427 0.37735 0.70395 0.0
C99 C 0.37934 0.43258 0.64433 0.0
O100 O 0.36769 0.41096 0.80567 0.0
O101 O 0.40519 0.41173 0.81162 0.0
O102 O 0.41068 0.38254 0.69698 0.0
O103 O 0.41853 0.41723 0.7163 0.0
O104 O 0.38576 0.36195 0.7706 0.0
O105 O 0.39251 0.34563 0.69313 0.0
O106 O 0.39831 0.36247 0.58772 0.0
O107 O 0.36123 0.36795 0.57942 0.0
O108 O 0.35708 0.3941 0.69626 0.0
O109 O 0.3488 0.3595 0.67823 0.0
O110 O 0.384 0.41332 0.62001 0.0
O111 O 0.37666 0.43142 0.69485 0.0
H112 H 0.34972 0.39693 0.89068 0.0
H113 H 0.34928 0.38849 0.98409 0.0
H114 H 0.42173 0.40771 1.00015 0.0
H115 H 0.42223 0.41576 0.90697 0.0
H116 H 0.41557 0.35372 0.49665 0.0
H117 H 0.41783 0.36198 0.40371 0.0
H118 H 0.35049 0.39488 0.39795 0.0
H119 H 0.34856 0.38718 0.49115 0.0
Tb120 Tb 0.88392 0.11943 0.82748 0.0
Tb121 Tb 0.88132 0.14474 0.92392 0.0
C122 C 0.8783 0.10476 0.73681 0.0
C123 C 0.88075 0.11211 0.68131 0.0
C124 C 0.86608 0.12906 0.65494 0.0
C125 C 0.86715 0.13369 0.60132 0.0
C126 C 0.88289 0.12148 0.57266 0.0
C127 C 0.89782 0.10489 0.59943 0.0
C128 C 0.89671 0.10024 0.65289 0.0
C129 C 0.92425 0.12233 0.88136 0.0
C130 C 0.88877 0.17651 0.82609 0.0
C131 C 0.88589 0.15942 1.01471 0.0
C132 C 0.88537 0.15126 0.07037 0.0
C133 C 0.90616 0.1476 0.10032 0.0
C134 C 0.90602 0.14297 0.15403 0.0
C135 C 0.88507 0.14201 0.17947 0.0
C136 C 0.86423 0.14509 0.14925 0.0
C137 C 0.86438 0.14973 0.09554 0.0
C138 C 0.84168 0.14236 0.86698 0.0
C139 C 0.87753 0.08823 0.92874 0.0
O140 O 0.86197 0.11452 0.76145 0.0
O141 O 0.89729 0.10184 0.76595 0.0
O142 O 0.9092 0.13857 0.87445 0.0
O143 O 0.91694 0.1041 0.85645 0.0
O144 O 0.8836 0.15746 0.79941 0.0
O145 O 0.89216 0.1751 0.87678 0.0
O146 O 0.90318 0.15259 0.98855 0.0
O147 O 0.86636 0.15961 0.98683 0.0
O148 O 0.85633 0.12591 0.87571 0.0
O149 O 0.8486 0.16053 0.89259 0.0
O150 O 0.88325 0.10765 0.95306 0.0
O151 O 0.87354 0.08904 0.87783 0.0
H152 H 0.85346 0.13845 0.67548 0.0
H153 H 0.85557 0.1468 0.58228 0.0
H154 H 0.90992 0.09486 0.57882 0.0
H155 H 0.90799 0.08682 0.67187 0.0
H156 H 0.92266 0.14893 0.08243 0.0
H157 H 0.92241 0.14036 0.17569 0.0
H158 H 0.84776 0.1448 0.1673 0.0
H159 H 0.84802 0.15282 0.07401 0.0
Tb160 Tb 0.14509 0.4021 0.83065 0.0
Tb161 Tb 0.14869 0.37743 0.93252 0.0
C162 C 0.14952 0.41669 0.73746 0.0
C163 C 0.14793 0.40912 0.68317 0.0
C164 C 0.16396 0.39342 0.66451 0.0
C165 C 0.16347 0.38873 0.61171 0.0
C166 C 0.14699 0.39965 0.57627 0.0
C167 C 0.13076 0.41501 0.59538 0.0
C168 C 0.13128 0.4197 0.64798 0.0
C169 C 0.10532 0.40075 0.8779 0.0
C170 C 0.13895 0.34503 0.84228 0.0
C171 C 0.14599 0.36273 0.02614 0.0
C172 C 0.14626 0.37093 0.08 0.0
C173 C 0.12538 0.37334 0.10465 0.0
C174 C 0.12544 0.37784 0.15738 0.0
C175 C 0.1464 0.37991 0.18716 0.0
C176 C 0.1673 0.37816 0.16213 0.0
C177 C 0.16724 0.37365 0.10936 0.0
C178 C 0.18781 0.37881 0.88163 0.0
C179 C 0.152 0.43386 0.92577 0.0
O180 O 0.16662 0.40872 0.76845 0.0
O181 O 0.13024 0.41769 0.76125 0.0
O182 O 0.11971 0.38386 0.87747 0.0
O183 O 0.11313 0.41876 0.85077 0.0
O184 O 0.14489 0.36373 0.81212 0.0
O185 O 0.13597 0.3472 0.89176 0.0
O186 O 0.12804 0.36814 0.99505 0.0
O187 O 0.16528 0.36404 1.00202 0.0
O188 O 0.17363 0.39563 0.88441 0.0
O189 O 0.18051 0.36069 0.90927 0.0
O190 O 0.14659 0.4144 0.95324 0.0
O191 O 0.1555 0.43298 0.87572 0.0
H192 H 0.17714 0.38506 0.69044 0.0
H193 H 0.17609 0.3766 0.59865 0.0
H194 H 0.11805 0.42407 0.56941 0.0
H195 H 0.11895 0.43218 0.66096 0.0
H196 H 0.1089 0.37108 0.0835 0.0
H197 H 0.10899 0.37943 0.17494 0.0
H198 H 0.18379 0.37937 0.18372 0.0
H199 H 0.18368 0.37154 0.09203 0.0
Tb200 Tb 0.88367 0.90049 0.2488 0.0
Tb201 Tb 0.87835 0.87704 0.15119 0.0
C202 C 0.87977 0.91439 0.33929 0.0
C203 C 0.88177 0.90651 0.39501 0.0
C204 C 0.86368 0.89402 0.41891 0.0
C205 C 0.8645 0.88957 0.47273 0.0
C206 C 0.88336 0.89758 0.50404 0.0
C207 C 0.9017 0.90952 0.47986 0.0
C208 C 0.90086 0.914 0.42615 0.0
C209 C 0.92273 0.90081 0.19917 0.0
C210 C 0.88931 0.84364 0.2462 0.0
C211 C 0.8786 0.86314 0.05991 0.0
C212 C 0.88072 0.87172 1.00507 0.0
C213 C 0.90179 0.86941 0.98114 0.0
C214 C 0.90313 0.87416 0.92776 0.0
C215 C 0.88339 0.88118 0.89676 0.0
C216 C 0.86248 0.88419 0.92102 0.0
C217 C 0.86115 0.87946 0.9744 0.0
C218 C 0.84014 0.87763 0.20517 0.0
C219 C 0.87677 0.93306 0.14843 0.0
O220 O 0.86256 0.90608 0.31056 0.0
O221 O 0.89884 0.91612 0.31447 0.0
O222 O 0.90837 0.88355 0.20231 0.0
O223 O 0.91531 0.91798 0.22515 0.0
O224 O 0.885 0.86202 0.2744 0.0
O225 O 0.89039 0.84603 0.19577 0.0
O226 O 0.89705 0.86403 0.09128 0.0
O227 O 0.85986 0.8686 0.08258 0.0
O228 O 0.8544 0.89451 0.19813 0.0
O229 O 0.84689 0.85974 0.18048 0.0
O230 O 0.88249 0.91405 0.12453 0.0
O231 O 0.87284 0.9315 0.19841 0.0
H232 H 0.84858 0.88818 0.39627 0.0
H233 H 0.8502 0.88005 0.48988 0.0
H234 H 0.91635 0.91627 0.50263 0.0
H235 H 0.91488 0.92406 0.40914 0.0
H236 H 0.91714 0.86323 1.00343 0.0
H237 H 0.91961 0.87198 0.91067 0.0
H238 H 0.84684 0.88927 0.89847 0.0
H239 H 0.84453 0.88109 0.99125 0.0
Tb240 Tb 0.38588 0.62053 0.32784 0.0
Tb241 Tb 0.38357 0.64487 0.4246 0.0
C242 C 0.37946 0.60657 0.23678 0.0
C243 C 0.38149 0.61427 0.18132 0.0
C244 C 0.36353 0.62674 0.15323 0.0
C245 C 0.36433 0.63128 0.09958 0.0
C246 C 0.38306 0.62337 0.07255 0.0
C247 C 0.40122 0.61133 0.10092 0.0
C248 C 0.40039 0.60677 0.15445 0.0
C249 C 0.42642 0.62221 0.38141 0.0
C250 C 0.39277 0.67738 0.32912 0.0
C251 C 0.38728 0.6595 0.51543 0.0
C252 C 0.38715 0.65141 0.57101 0.0
C253 C 0.40754 0.65332 0.6026 0.0
C254 C 0.40731 0.64884 0.65625 0.0
C255 C 0.38663 0.64248 0.67996 0.0
C256 C 0.36634 0.63985 0.64809 0.0
C257 C 0.36658 0.64432 0.59432 0.0
C258 C 0.34407 0.64346 0.36676 0.0
C259 C 0.37989 0.58857 0.42805 0.0
O260 O 0.3634 0.61624 0.26236 0.0
O261 O 0.39862 0.60334 0.26522 0.0
O262 O 0.41161 0.63871 0.37547 0.0
O263 O 0.41875 0.60438 0.35563 0.0
O264 O 0.38642 0.65894 0.30133 0.0
O265 O 0.3962 0.67493 0.37968 0.0
O266 O 0.40491 0.65342 0.48951 0.0
O267 O 0.3678 0.65879 0.48753 0.0
O268 O 0.35824 0.62667 0.37616 0.0
O269 O 0.35167 0.66182 0.39086 0.0
O270 O 0.38595 0.60774 0.45285 0.0
O271 O 0.37551 0.58983 0.37728 0.0
H272 H 0.34855 0.63256 0.17242 0.0
H273 H 0.35016 0.64085 0.07923 0.0
H274 H 0.41575 0.60464 0.08151 0.0
H275 H 0.4143 0.5967 0.1746 0.0
H276 H 0.42362 0.65894 0.58594 0.0
H277 H 0.42337 0.65065 0.67925 0.0
H278 H 0.35003 0.6352 0.66483 0.0
H279 H 0.35047 0.64289 0.57132 0.0
Tb280 Tb 0.64555 0.11858 0.71481 0.0
Tb281 Tb 0.64387 0.14213 0.61108 0.0
C282 C 0.65576 0.10584 0.80841 0.0
C283 C 0.65237 0.11234 0.86253 0.0
C284 C 0.66993 0.12447 0.89052 0.0
C285 C 0.66813 0.12814 0.94329 0.0
C286 C 0.64878 0.11963 0.96968 0.0
C287 C 0.63103 0.10788 0.94137 0.0
C288 C 0.63284 0.10421 0.88863 0.0
C289 C 0.60313 0.11934 0.66994 0.0
C290 C 0.63795 0.17547 0.69977 0.0
C291 C 0.63591 0.15541 0.51708 0.0
C292 C 0.6371 0.1473 0.46361 0.0
C293 C 0.6171 0.14843 0.43042 0.0
C294 C 0.61808 0.14367 0.37806 0.0
C295 C 0.63916 0.13777 0.3573 0.0
C296 C 0.65907 0.13583 0.39105 0.0
C297 C 0.65808 0.14058 0.44356 0.0
C298 C 0.68562 0.14073 0.66066 0.0
C299 C 0.64892 0.08603 0.62076 0.0
O300 O 0.66882 0.11976 0.78002 0.0
O301 O 0.63783 0.09785 0.78153 0.0
O302 O 0.61795 0.13612 0.66751 0.0
O303 O 0.61181 0.10224 0.69997 0.0
O304 O 0.64507 0.15725 0.73135 0.0
O305 O 0.63278 0.17243 0.65045 0.0
O306 O 0.62038 0.14534 0.54612 0.0
O307 O 0.65538 0.15942 0.54331 0.0
O308 O 0.67073 0.12424 0.65922 0.0
O309 O 0.67767 0.15861 0.6318 0.0
O310 O 0.64166 0.10486 0.59233 0.0
O311 O 0.65507 0.08787 0.67055 0.0
H312 H 0.68536 0.13069 0.87191 0.0
H313 H 0.68201 0.13753 0.96348 0.0
H314 H 0.61603 0.10075 0.96033 0.0
H315 H 0.61915 0.09441 0.86871 0.0
H316 H 0.60072 0.15362 0.44473 0.0
H317 H 0.60228 0.14489 0.3537 0.0
H318 H 0.67565 0.1315 0.37655 0.0
H319 H 0.67385 0.13961 0.46803 0.0
Tb320 Tb 0.88678 0.38103 0.91327 0.0
Tb321 Tb 0.88714 0.40636 0.81232 0.0
C322 C 0.89204 0.36637 1.00736 0.0
C323 C 0.88904 0.3737 0.06112 0.0
C324 C 0.90216 0.3923 0.08284 0.0
C325 C 0.90077 0.39706 0.13533 0.0
C326 C 0.88624 0.38337 0.16755 0.0
C327 C 0.87279 0.36513 0.1453 0.0
C328 C 0.87424 0.36035 0.09297 0.0
C329 C 0.84584 0.38315 0.86001 0.0
C330 C 0.88283 0.43727 0.90812 0.0
C331 C 0.87928 0.42034 0.71832 0.0
C332 C 0.88079 0.41282 0.6641 0.0
C333 C 0.8605 0.40727 0.63462 0.0
C334 C 0.8612 0.40308 0.58177 0.0
C335 C 0.88222 0.40448 0.55657 0.0
C336 C 0.90261 0.40952 0.58643 0.0
C337 C 0.9019 0.4137 0.63932 0.0
C338 C 0.92886 0.40487 0.86137 0.0
C339 C 0.89435 0.34956 0.82339 0.0
O340 O 0.90833 0.37677 0.98104 0.0
O341 O 0.87335 0.36264 0.97822 0.0
O342 O 0.86048 0.39982 0.86462 0.0
O343 O 0.8538 0.36456 0.88644 0.0
O344 O 0.88897 0.41774 0.93535 0.0
O345 O 0.87787 0.43675 0.85756 0.0
O346 O 0.86379 0.40995 0.747 0.0
O347 O 0.89857 0.42436 0.74513 0.0
O348 O 0.91408 0.388 0.86033 0.0
O349 O 0.92032 0.42276 0.83346 0.0
O350 O 0.88679 0.36805 0.79332 0.0
O351 O 0.89954 0.35188 0.8729 0.0
H352 H 0.91384 0.40292 0.05961 0.0
H353 H 0.91117 0.41145 0.15071 0.0
H354 H 0.86165 0.35396 0.16872 0.0
H355 H 0.86416 0.34571 0.07767 0.0
H356 H 0.8439 0.4067 0.65218 0.0
H357 H 0.84515 0.39889 0.56057 0.0
H358 H 0.91911 0.41108 0.5686 0.0
H359 H 0.91787 0.41828 0.66038 0.0
Tb360 Tb 0.38385 0.1426 0.60665 0.0
Tb361 Tb 0.38877 0.11561 0.70794 0.0
C362 C 0.38643 0.1582 0.51352 0.0
C363 C 0.38543 0.15053 0.45906 0.0
C364 C 0.40282 0.13658 0.43987 0.0
C365 C 0.40259 0.13186 0.38699 0.0
C366 C 0.38503 0.14106 0.35178 0.0
C367 C 0.36737 0.15447 0.37156 0.0
C368 C 0.36763 0.15917 0.42422 0.0
C369 C 0.34531 0.13797 0.65794 0.0
C370 C 0.38196 0.08586 0.60963 0.0
C371 C 0.38477 0.10007 0.80079 0.0
C372 C 0.38491 0.10791 0.85515 0.0
C373 C 0.36419 0.10792 0.88127 0.0
C374 C 0.36429 0.1125 0.93409 0.0
C375 C 0.38517 0.11703 0.96266 0.0
C376 C 0.40587 0.11744 0.9362 0.0
C377 C 0.40575 0.11291 0.88334 0.0
C378 C 0.42778 0.11974 0.65883 0.0
C379 C 0.39071 0.17315 0.70102 0.0
O380 O 0.40444 0.15228 0.54412 0.0
O381 O 0.36722 0.15698 0.53796 0.0
O382 O 0.36037 0.12218 0.6539 0.0
O383 O 0.35108 0.15687 0.63076 0.0
O384 O 0.38612 0.10606 0.58344 0.0
O385 O 0.3794 0.08533 0.6603 0.0
O386 O 0.36721 0.10626 0.76912 0.0
O387 O 0.40428 0.1009 0.77744 0.0
O388 O 0.41283 0.13597 0.6615 0.0
O389 O 0.42115 0.10095 0.68535 0.0
O390 O 0.38758 0.15325 0.72978 0.0
O391 O 0.39297 0.17299 0.65073 0.0
H392 H 0.41692 0.12973 0.46541 0.0
H393 H 0.41661 0.12163 0.37349 0.0
H394 H 0.35329 0.16151 0.34626 0.0
H395 H 0.35404 0.17008 0.43757 0.0
H396 H 0.34786 0.10374 0.86114 0.0
H397 H 0.34801 0.11169 0.9529 0.0
H398 H 0.42227 0.12119 0.9564 0.0
H399 H 0.42211 0.11287 0.86488 0.0
Tb400 Tb 0.63618 0.62153 0.30109 0.0
Tb401 Tb 0.65599 0.62984 0.41221 0.0
C402 C 0.62517 0.6204 0.2061 0.0
C403 C 0.63422 0.62574 0.15432 0.0
C404 C 0.63216 0.64864 0.13005 0.0
C405 C 0.63772 0.65273 0.07843 0.0
C406 C 0.64536 0.63399 0.04987 0.0
C407 C 0.64813 0.61128 0.07472 0.0
C408 C 0.64255 0.6072 0.12624 0.0
C409 C 0.63865 0.5844 0.36894 0.0
C410 C 0.69089 0.62763 0.32153 0.0
C411 C 0.66866 0.6199 0.505 0.0
C412 C 0.66409 0.62644 0.55815 0.0
C413 C 0.6483 0.61301 0.58731 0.0
C414 C 0.64566 0.61739 0.63923 0.0
C415 C 0.65889 0.63519 0.66343 0.0
C416 C 0.67439 0.64893 0.63403 0.0
C417 C 0.67701 0.64457 0.582 0.0
C418 C 0.64826 0.6715 0.36231 0.0
C419 C 0.60085 0.63264 0.38313 0.0
O420 O 0.62076 0.63843 0.23414 0.0
O421 O 0.63428 0.60234 0.23385 0.0
O422 O 0.6533 0.60086 0.3632 0.0
O423 O 0.6216 0.5881 0.33504 0.0
O424 O 0.67286 0.62801 0.28762 0.0
O425 O 0.68842 0.62609 0.37237 0.0
O426 O 0.65211 0.60846 0.47973 0.0
O427 O 0.67925 0.63565 0.47524 0.0
O428 O 0.64462 0.65098 0.34605 0.0
O429 O 0.65647 0.66896 0.40983 0.0
O430 O 0.61764 0.62877 0.42007 0.0
O431 O 0.60503 0.63374 0.33346 0.0
H432 H 0.62558 0.6633 0.15035 0.0
H433 H 0.63563 0.67048 0.0606 0.0
H434 H 0.65364 0.59636 0.05371 0.0
H435 H 0.64397 0.58926 0.14347 0.0
H436 H 0.63839 0.59861 0.57046 0.0
H437 H 0.63385 0.60621 0.66093 0.0
H438 H 0.68469 0.66291 0.65138 0.0
H439 H 0.68954 0.65506 0.56086 0.0
Tb440 Tb 0.13998 0.88461 0.12379 0.0
Tb441 Tb 0.13933 0.90734 0.22161 0.0
C442 C 0.13265 0.87152 0.03243 0.0
C443 C 0.13723 0.87826 0.97759 0.0
C444 C 0.12224 0.89361 0.94742 0.0
C445 C 0.12478 0.8974 0.89413 0.0
C446 C 0.1423 0.88584 0.86945 0.0
C447 C 0.15767 0.871 0.89996 0.0
C448 C 0.1551 0.86718 0.95322 0.0
C449 C 0.18126 0.88636 0.17484 0.0
C450 C 0.14409 0.94126 0.12294 0.0
C451 C 0.146 0.92037 0.31334 0.0
C452 C 0.14604 0.91164 0.36851 0.0
C453 C 0.16686 0.91138 0.39913 0.0
C454 C 0.16685 0.90663 0.45277 0.0
C455 C 0.14596 0.90223 0.47723 0.0
C456 C 0.12521 0.90172 0.44631 0.0
C457 C 0.12524 0.90637 0.39268 0.0
C458 C 0.09772 0.90513 0.1723 0.0
C459 C 0.1342 0.8507 0.21811 0.0
O460 O 0.11843 0.88477 0.05592 0.0
O461 O 0.15014 0.86429 0.06314 0.0
O462 O 0.16633 0.90274 0.17039 0.0
O463 O 0.17368 0.86888 0.1479 0.0
O464 O 0.14048 0.92205 0.09635 0.0
O465 O 0.14656 0.93981 0.17412 0.0
O466 O 0.16256 0.91338 0.28533 0.0
O467 O 0.12609 0.92142 0.28713 0.0
O468 O 0.11278 0.88883 0.17654 0.0
O469 O 0.10602 0.92317 0.19638 0.0
O470 O 0.14186 0.86872 0.24561 0.0
O471 O 0.12777 0.85421 0.16895 0.0
H472 H 0.10804 0.90215 0.96461 0.0
H473 H 0.11241 0.9087 0.87198 0.0
H474 H 0.17158 0.86206 0.88261 0.0
H475 H 0.16679 0.85502 0.97508 0.0
H476 H 0.18313 0.91571 0.38181 0.0
H477 H 0.18313 0.90739 0.47534 0.0
H478 H 0.10884 0.89804 0.46368 0.0
H479 H 0.10883 0.90652 0.37047 0.0
Tb480 Tb 0.88725 0.64271 0.11068 0.0
Tb481 Tb 0.88666 0.61547 0.21864 0.0
C482 C 0.89301 0.65682 1.01789 0.0
C483 C 0.89285 0.64787 0.96464 0.0
C484 C 0.91157 0.65331 0.93356 0.0
C485 C 0.91078 0.64762 0.88135 0.0
C486 C 0.89113 0.63645 0.85856 0.0
C487 C 0.87264 0.6304 0.89021 0.0
C488 C 0.87349 0.63599 0.94252 0.0
C489 C 0.84739 0.64018 0.15779 0.0
C490 C 0.88329 0.58581 0.1171 0.0
C491 C 0.87158 0.60158 0.30482 0.0
C492 C 0.87524 0.60595 0.36099 0.0
C493 C 0.85656 0.61384 0.38799 0.0
C494 C 0.85898 0.61733 0.44121 0.0
C495 C 0.88019 0.61296 0.46928 0.0
C496 C 0.89895 0.60509 0.44212 0.0
C497 C 0.89652 0.60165 0.38868 0.0
C498 C 0.93046 0.62217 0.19254 0.0
C499 C 0.89603 0.6722 0.20727 0.0
O500 O 0.91005 0.6503 0.05081 0.0
O501 O 0.87319 0.65732 0.03995 0.0
O502 O 0.86225 0.62402 0.15642 0.0
O503 O 0.85441 0.65875 0.13096 0.0
O504 O 0.88715 0.60583 0.08973 0.0
O505 O 0.88057 0.5853 0.16797 0.0
O506 O 0.86252 0.61911 0.27534 0.0
O507 O 0.88775 0.59043 0.28199 0.0
O508 O 0.91203 0.62884 0.1676 0.0
O509 O 0.9241 0.61122 0.23481 0.0
O510 O 0.88806 0.65375 0.23563 0.0
O511 O 0.90052 0.67071 0.15803 0.0
H512 H 0.92663 0.66264 0.94931 0.0
H513 H 0.92528 0.6528 0.85837 0.0
H514 H 0.85737 0.62146 0.87446 0.0
H515 H 0.85875 0.63146 0.96527 0.0
H516 H 0.83988 0.61708 0.36791 0.0
H517 H 0.844 0.623 0.46054 0.0
H518 H 0.91563 0.60178 0.46205 0.0
H519 H 0.9113 0.59555 0.36919 0.0
Tb520 Tb 0.13388 0.12205 0.8036 0.0
Tb521 Tb 0.15355 0.13433 0.90582 0.0
C522 C 0.1213 0.11803 0.70972 0.0
C523 C 0.12934 0.1205 0.65636 0.0
C524 C 0.12095 0.13938 0.62318 0.0
C525 C 0.12573 0.14061 0.57085 0.0
C526 C 0.13892 0.12286 0.55022 0.0
C527 C 0.1478 0.10423 0.58367 0.0
C528 C 0.14305 0.10304 0.63621 0.0
C529 C 0.13579 0.08661 0.87576 0.0
C530 C 0.18883 0.1265 0.82049 0.0
C531 C 0.16594 0.13638 1.00024 0.0
C532 C 0.15815 0.13436 0.05379 0.0
C533 C 0.15346 0.11214 0.07873 0.0
C534 C 0.14992 0.11041 0.13189 0.0
C535 C 0.15117 0.13084 0.16117 0.0
C536 C 0.15488 0.15311 0.13561 0.0
C537 C 0.1584 0.15483 0.08266 0.0
C538 C 0.15223 0.17083 0.83685 0.0
C539 C 0.09814 0.1335 0.88273 0.0
O540 O 0.1194 0.13763 0.73423 0.0
O541 O 0.12919 0.10033 0.74024 0.0
O542 O 0.15104 0.10219 0.86731 0.0
O543 O 0.11866 0.09004 0.84205 0.0
O544 O 0.17063 0.12687 0.78719 0.0
O545 O 0.18627 0.12687 0.87096 0.0
O546 O 0.16682 0.11698 0.97454 0.0
O547 O 0.1589 0.1548 0.97089 0.0
O548 O 0.13673 0.15497 0.8425 0.0
O549 O 0.16875 0.16658 0.87165 0.0
O550 O 0.11555 0.13092 0.91843 0.0
O551 O 0.10201 0.13375 0.83317 0.0
H552 H 0.11 0.15287 0.63735 0.0
H553 H 0.11831 0.155 0.54615 0.0
H554 H 0.15823 0.09042 0.56914 0.0
H555 H 0.14963 0.08814 0.66062 0.0
H556 H 0.15338 0.09597 0.05771 0.0
H557 H 0.14722 0.09297 0.15044 0.0
H558 H 0.15554 0.16924 0.15679 0.0
H559 H 0.16218 0.17216 0.06464 0.0
Tb560 Tb 0.64244 0.38397 0.62304 0.0
Tb561 Tb 0.64259 0.40691 0.7204 0.0
C562 C 0.63543 0.37065 0.53165 0.0
C563 C 0.63947 0.37765 0.47657 0.0
C564 C 0.62198 0.38912 0.44494 0.0
C565 C 0.62435 0.39299 0.3916 0.0
C566 C 0.64422 0.38535 0.36821 0.0
C567 C 0.66195 0.37437 0.4001 0.0
C568 C 0.65958 0.3705 0.45347 0.0
C569 C 0.68379 0.38534 0.67423 0.0
C570 C 0.64694 0.44054 0.62102 0.0
C571 C 0.65035 0.41983 0.81197 0.0
C572 C 0.65064 0.41114 0.86716 0.0
C573 C 0.67065 0.41457 0.89918 0.0
C574 C 0.67046 0.40974 0.95278 0.0
C575 C 0.65017 0.4015 0.97582 0.0
C576 C 0.63036 0.39729 0.94343 0.0
C577 C 0.63058 0.40203 0.88979 0.0
C578 C 0.60058 0.40573 0.6729 0.0
C579 C 0.6361 0.35028 0.71715 0.0
O580 O 0.62075 0.38323 0.55541 0.0
O581 O 0.65327 0.3642 0.56211 0.0
O582 O 0.6692 0.40197 0.66858 0.0
O583 O 0.67565 0.3674 0.64949 0.0
O584 O 0.64288 0.42128 0.59495 0.0
O585 O 0.64983 0.43924 0.67217 0.0
O586 O 0.66649 0.41243 0.78333 0.0
O587 O 0.63028 0.42129 0.78654 0.0
O588 O 0.61528 0.389 0.67587 0.0
O589 O 0.60961 0.42344 0.69697 0.0
O590 O 0.64428 0.36818 0.74441 0.0
O591 O 0.62964 0.35386 0.66805 0.0
H592 H 0.60607 0.39447 0.46112 0.0
H593 H 0.61017 0.40119 0.36842 0.0
H594 H 0.67765 0.36853 0.38376 0.0
H595 H 0.6733 0.36135 0.47639 0.0
H596 H 0.68626 0.42182 0.88292 0.0
H597 H 0.68598 0.41342 0.97638 0.0
H598 H 0.61454 0.39059 0.95963 0.0
H599 H 0.61483 0.39918 0.86632 0.0
Tb600 Tb 0.38544 0.88154 0.40459 0.0
Tb601 Tb 0.38502 0.90743 0.30306 0.0
C602 C 0.39244 0.86712 0.49848 0.0
C603 C 0.39128 0.87502 0.55246 0.0
C604 C 0.41166 0.87596 0.58443 0.0
C605 C 0.41087 0.88064 0.637 0.0
C606 C 0.38961 0.88439 0.65942 0.0
C607 C 0.36924 0.88406 0.62698 0.0
C608 C 0.37005 0.87939 0.57432 0.0
C609 C 0.34399 0.88418 0.3539 0.0
C610 C 0.38132 0.93786 0.39958 0.0
C611 C 0.3768 0.92169 0.20935 0.0
C612 C 0.37964 0.91471 0.15511 0.0
C613 C 0.36302 0.90042 0.12942 0.0
C614 C 0.36448 0.89616 0.07671 0.0
C615 C 0.38255 0.90614 0.04796 0.0
C616 C 0.39935 0.92012 0.07399 0.0
C617 C 0.39786 0.92441 0.12661 0.0
C618 C 0.42703 0.90494 0.35064 0.0
C619 C 0.39068 0.85048 0.3123 0.0
O620 O 0.40852 0.87656 0.47004 0.0
O621 O 0.373 0.86411 0.47142 0.0
O622 O 0.35899 0.90064 0.35685 0.0
O623 O 0.35168 0.86586 0.38172 0.0
O624 O 0.38802 0.91835 0.42629 0.0
O625 O 0.37567 0.93738 0.3493 0.0
O626 O 0.36196 0.90976 0.23722 0.0
O627 O 0.39546 0.9272 0.23699 0.0
O628 O 0.41193 0.88839 0.34983 0.0
O629 O 0.41878 0.92297 0.32278 0.0
O630 O 0.38416 0.86949 0.28285 0.0
O631 O 0.39587 0.85183 0.36214 0.0
H632 H 0.42828 0.87252 0.569 0.0
H633 H 0.42699 0.88115 0.66016 0.0
H634 H 0.3525 0.8866 0.64261 0.0
H635 H 0.35394 0.87862 0.55113 0.0
H636 H 0.34856 0.89286 0.14975 0.0
H637 H 0.35135 0.88506 0.05845 0.0
H638 H 0.41333 0.92846 0.05332 0.0
H639 H 0.41074 0.93588 0.14467 0.0
H640 H 0.15164 0.6775 0.7768 0.0
H641 H 0.14236 0.60157 0.80295 0.0
H642 H 0.15233 0.67256 0.68418 0.0
H643 H 0.1429 0.59667 0.70997 0.0
H644 H 0.1217 0.59973 0.53618 0.0
H645 H 0.12071 0.60472 0.62897 0.0
H646 H 0.17571 0.65706 0.61942 0.0
H647 H 0.17615 0.65267 0.52636 0.0
C648 C 0.15001 0.65968 0.76299 0.0
C649 C 0.14707 0.63994 0.79787 0.0
C650 C 0.15037 0.65685 0.70961 0.0
C651 C 0.14773 0.6342 0.68923 0.0
C652 C 0.14468 0.61444 0.724 0.0
C653 C 0.14437 0.61726 0.77749 0.0
C654 C 0.13341 0.61253 0.55367 0.0
C655 C 0.14896 0.62584 0.52338 0.0
C656 C 0.13305 0.61517 0.60718 0.0
C657 C 0.14816 0.63128 0.63206 0.0
C658 C 0.16364 0.64466 0.60174 0.0
C659 C 0.16406 0.64195 0.54827 0.0
H660 H 0.62358 0.92738 0.99927 0.0
H661 H 0.66797 0.86606 0.02333 0.0
H662 H 0.62315 0.92326 0.90615 0.0
H663 H 0.66754 0.86194 0.93 0.0
H664 H 0.68008 0.87499 0.75779 0.0
H665 H 0.68109 0.88025 0.85074 0.0
H666 H 0.60855 0.89842 0.83889 0.0
H667 H 0.60777 0.89402 0.74575 0.0
C668 C 0.63306 0.91282 0.98484 0.0
C669 C 0.64573 0.897 1.01924 0.0
C670 C 0.63283 0.91048 0.9312 0.0
C671 C 0.64529 0.89225 0.91015 0.0
C672 C 0.65801 0.87644 0.94452 0.0
C673 C 0.65824 0.87878 0.99822 0.0
C674 C 0.66441 0.88044 0.77481 0.0
C675 C 0.64384 0.88407 0.7439 0.0
C676 C 0.66491 0.88315 0.8284 0.0
C677 C 0.64488 0.88967 0.85275 0.0
C678 C 0.62439 0.8936 0.82171 0.0
C679 C 0.62388 0.89082 0.76817 0.0
H680 H 0.40021 0.34747 0.32564 0.0
H681 H 0.36895 0.4168 0.3288 0.0
H682 H 0.40034 0.35168 0.23173 0.0
H683 H 0.36903 0.42098 0.23458 0.0
H684 H 0.35124 0.41007 0.06277 0.0
H685 H 0.35085 0.40542 0.15682 0.0
H686 H 0.41859 0.37346 0.16228 0.0
H687 H 0.4186 0.37727 0.06818 0.0
C688 C 0.39362 0.36378 0.30644 0.0
C689 C 0.38466 0.38183 0.33517 0.0
C690 C 0.39366 0.36617 0.25237 0.0
C691 C 0.38471 0.38668 0.22527 0.0
C692 C 0.37575 0.40477 0.25394 0.0
C693 C 0.37573 0.40238 0.3081 0.0
C694 C 0.36593 0.40174 0.08391 0.0
C695 C 0.38493 0.39401 0.05758 0.0
C696 C 0.36584 0.39937 0.13804 0.0
C697 C 0.38472 0.38914 0.16745 0.0
C698 C 0.40364 0.38123 0.14107 0.0
C699 C 0.40374 0.38364 0.08698 0.0
H700 H 0.84604 0.12799 0.50181 0.0
H701 H 0.92067 0.12362 0.51231 0.0
H702 H 0.84666 0.13325 0.40789 0.0
H703 H 0.92123 0.12797 0.41832 0.0
H704 H 0.91542 0.16075 0.2523 0.0
H705 H 0.91491 0.15626 0.34621 0.0
H706 H 0.85391 0.1116 0.33239 0.0
H707 H 0.85444 0.11605 0.23833 0.0
C708 C 0.86261 0.12827 0.48422 0.0
C709 C 0.8833 0.12539 0.51501 0.0
C710 C 0.86295 0.13097 0.43012 0.0
C711 C 0.88399 0.13094 0.40513 0.0
C712 C 0.90469 0.1283 0.43598 0.0
C713 C 0.90435 0.12555 0.49004 0.0
C714 C 0.90204 0.1497 0.26914 0.0
C715 C 0.885 0.13873 0.23731 0.0
C716 C 0.90173 0.14716 0.32322 0.0
C717 C 0.88435 0.13357 0.34727 0.0
C718 C 0.86735 0.12253 0.31547 0.0
C719 C 0.86767 0.12506 0.26135 0.0
H720 H 0.17551 0.40756 0.24737 0.0
H721 H 0.11753 0.3588 0.25718 0.0
H722 H 0.17583 0.41174 0.34067 0.0
H723 H 0.11786 0.36295 0.35025 0.0
H724 H 0.10962 0.39464 0.50734 0.0
H725 H 0.10957 0.39045 0.41428 0.0
H726 H 0.18437 0.39076 0.42296 0.0
H727 H 0.18442 0.39593 0.51587 0.0
C728 C 0.16291 0.3976 0.26937 0.0
C729 C 0.14643 0.38291 0.24435 0.0
C730 C 0.16312 0.39997 0.32305 0.0
C731 C 0.14686 0.3877 0.35337 0.0
C732 C 0.1304 0.37302 0.3283 0.0
C733 C 0.13019 0.37066 0.27469 0.0
C734 C 0.12609 0.39399 0.48947 0.0
C735 C 0.14702 0.39571 0.51947 0.0
C736 C 0.12606 0.39131 0.43598 0.0
C737 C 0.14697 0.39027 0.41071 0.0
C738 C 0.16791 0.39177 0.44077 0.0
C739 C 0.16794 0.39442 0.49433 0.0
H740 H 0.90678 0.85404 0.83184 0.0
H741 H 0.86181 0.91497 0.83079 0.0
H742 H 0.907 0.85782 0.73782 0.0
H743 H 0.86197 0.91868 0.73661 0.0
H744 H 0.84711 0.90237 0.56676 0.0
H745 H 0.84751 0.8984 0.66091 0.0
H746 H 0.92063 0.8829 0.66665 0.0
H747 H 0.92004 0.88602 0.57234 0.0
C748 C 0.89718 0.86847 0.81169 0.0
C749 C 0.88428 0.88421 0.8392 0.0
C750 C 0.89728 0.8706 0.75761 0.0
C751 C 0.88444 0.88851 0.7294 0.0
C752 C 0.87174 0.90441 0.7569 0.0
C753 C 0.87167 0.9023 0.81101 0.0
C754 C 0.86322 0.89778 0.58799 0.0
C755 C 0.88353 0.89446 0.56172 0.0
C756 C 0.86352 0.89583 0.64214 0.0
C757 C 0.88413 0.89044 0.6716 0.0
C758 C 0.9044 0.88688 0.64532 0.0
C759 C 0.90411 0.8889 0.59116 0.0
H760 H 0.4095 0.6691 0.7528 0.0
H761 H 0.36236 0.60941 0.7384 0.0
H762 H 0.40847 0.66482 0.84658 0.0
H763 H 0.36131 0.60516 0.83247 0.0
H764 H 0.34679 0.61948 1.00035 0.0
H765 H 0.34748 0.62437 0.90637 0.0
H766 H 0.42095 0.63906 0.91971 0.0
H767 H 0.4201 0.63506 1.01369 0.0
C768 C 0.39911 0.65485 0.76956 0.0
C769 C 0.3861 0.63953 0.73768 0.0
C770 C 0.3985 0.65242 0.82355 0.0
C771 C 0.38484 0.63462 0.84741 0.0
C772 C 0.37177 0.61931 0.81559 0.0
C773 C 0.3724 0.62173 0.76151 0.0
C774 C 0.36305 0.62407 0.98334 0.0
C775 C 0.38338 0.62691 1.0149 0.0
C776 C 0.3635 0.62656 0.92927 0.0
C777 C 0.38428 0.63204 0.90515 0.0
C778 C 0.40457 0.63506 0.93675 0.0
C779 C 0.40413 0.63252 0.99078 0.0
H780 H 0.68378 0.11555 0.04574 0.0
H781 H 0.61058 0.12977 0.02331 0.0
H782 H 0.68151 0.11989 0.13844 0.0
H783 H 0.60813 0.13313 0.11622 0.0
H784 H 0.61695 0.16348 0.27678 0.0
H785 H 0.61924 0.15897 0.18436 0.0
H786 H 0.66681 0.10064 0.21564 0.0
H787 H 0.6645 0.10515 0.30844 0.0
C788 C 0.6672 0.11969 0.06045 0.0
C789 C 0.64739 0.1224 0.02666 0.0
C790 C 0.66583 0.12185 0.11388 0.0
C791 C 0.64463 0.12683 0.13517 0.0
C792 C 0.62482 0.12955 0.10137 0.0
C793 C 0.62618 0.12736 0.04797 0.0
C794 C 0.62769 0.14946 0.26414 0.0
C795 C 0.64045 0.13462 0.30045 0.0
C796 C 0.62902 0.14689 0.2109 0.0
C797 C 0.64318 0.1294 0.19218 0.0
C798 C 0.65597 0.11454 0.22844 0.0
C799 C 0.65463 0.11711 0.28179 0.0
H800 H 0.84856 0.38158 0.22839 0.0
H801 H 0.92238 0.39437 0.2361 0.0
H802 H 0.84771 0.38632 0.32123 0.0
H803 H 0.92141 0.39994 0.32871 0.0
H804 H 0.9154 0.38258 0.50313 0.0
H805 H 0.91641 0.37819 0.41013 0.0
H806 H 0.85134 0.41517 0.38646 0.0
H807 H 0.85036 0.41963 0.47929 0.0
C808 C 0.86464 0.38544 0.24977 0.0
C809 C 0.88555 0.38751 0.22431 0.0
C810 C 0.86412 0.38843 0.30316 0.0
C811 C 0.8845 0.3935 0.33297 0.0
C812 C 0.90538 0.39576 0.30743 0.0
C813 C 0.90589 0.39287 0.25397 0.0
C814 C 0.90137 0.38996 0.47817 0.0
C815 C 0.88276 0.40142 0.49929 0.0
C816 C 0.90196 0.38745 0.42458 0.0
C817 C 0.88396 0.3963 0.3903 0.0
C818 C 0.86536 0.40774 0.41142 0.0
C819 C 0.86478 0.41028 0.46496 0.0
H820 H 0.39829 0.1012 0.30274 0.0
H821 H 0.37269 0.1726 0.27032 0.0
H822 H 0.39848 0.09543 0.21002 0.0
H823 H 0.3728 0.16681 0.17797 0.0
H824 H 0.35362 0.14104 1.0165 0.0
H825 H 0.35349 0.14612 0.10932 0.0
H826 H 0.41746 0.10711 0.13198 0.0
H827 H 0.41714 0.10126 0.03935 0.0
C828 C 0.39285 0.11577 0.27602 0.0
C829 C 0.38534 0.13735 0.29463 0.0
C830 C 0.39296 0.11245 0.22258 0.0
C831 C 0.38556 0.13059 0.18596 0.0
C832 C 0.37819 0.15219 0.20462 0.0
C833 C 0.37811 0.15552 0.25794 0.0
C834 C 0.36759 0.13335 0.04119 0.0
C835 C 0.38539 0.12072 1.01985 0.0
C836 C 0.36766 0.13651 0.09464 0.0
C837 C 0.38549 0.1271 0.1287 0.0
C838 C 0.40328 0.11445 0.10739 0.0
C839 C 0.40325 0.11135 0.0539 0.0
H840 H 0.61865 0.65967 0.97697 0.0
H841 H 0.67998 0.61615 0.99516 0.0
H842 H 0.62273 0.66304 0.88374 0.0
H843 H 0.68354 0.61876 0.90173 0.0
H844 H 0.69431 0.64273 0.73525 0.0
H845 H 0.69199 0.64558 0.82841 0.0
H846 H 0.61768 0.63676 0.81245 0.0
H847 H 0.61992 0.63482 0.71912 0.0
C848 C 0.63318 0.65106 0.96118 0.0
C849 C 0.64897 0.63759 0.99358 0.0
C850 C 0.63534 0.65275 0.90764 0.0
C851 C 0.65336 0.64104 0.88519 0.0
C852 C 0.66956 0.62817 0.91773 0.0
C853 C 0.66739 0.62646 0.97127 0.0
C854 C 0.67744 0.64186 0.75149 0.0
C855 C 0.6573 0.6385 0.71971 0.0
C856 C 0.67614 0.64321 0.80499 0.0
C857 C 0.65467 0.64128 0.82797 0.0
C858 C 0.63448 0.63854 0.79601 0.0
C859 C 0.63578 0.63716 0.74255 0.0
H860 H 0.11518 0.92105 0.54049 0.0
H861 H 0.17619 0.87719 0.54477 0.0
H862 H 0.1148 0.91701 0.63453 0.0
H863 H 0.17618 0.87368 0.63917 0.0
H864 H 0.15259 0.85153 0.80264 0.0
H865 H 0.15397 0.8554 0.70877 0.0
H866 H 0.13665 0.92984 0.71144 0.0
H867 H 0.13547 0.92606 0.80546 0.0
C868 C 0.12846 0.91042 0.56145 0.0
C869 C 0.14566 0.89935 0.53487 0.0
C870 C 0.12841 0.90836 0.61553 0.0
C871 C 0.14551 0.89509 0.64462 0.0
C872 C 0.16264 0.88388 0.61806 0.0
C873 C 0.16276 0.88606 0.56391 0.0
C874 C 0.14941 0.86884 0.78342 0.0
C875 C 0.14393 0.88848 0.81196 0.0
C876 C 0.15016 0.87103 0.72942 0.0
C877 C 0.14535 0.89291 0.70235 0.0
C878 C 0.14007 0.91261 0.73086 0.0
C879 C 0.1394 0.91044 0.78488 0.0
H880 H 0.92535 0.62123 0.79803 0.0
H881 H 0.85347 0.64179 0.7896 0.0
H882 H 0.92319 0.6158 0.70501 0.0
H883 H 0.8511 0.63565 0.69705 0.0
H884 H 0.86122 0.64807 0.52372 0.0
H885 H 0.8639 0.65308 0.61663 0.0
H886 H 0.90713 0.59083 0.63849 0.0
H887 H 0.90439 0.58575 0.54537 0.0
C888 C 0.90905 0.62457 0.77645 0.0
C889 C 0.8896 0.632 0.80175 0.0
C890 C 0.90774 0.62121 0.723 0.0
C891 C 0.88698 0.62533 0.69302 0.0
C892 C 0.86749 0.63258 0.71843 0.0
C893 C 0.86877 0.63581 0.77188 0.0
C894 C 0.87116 0.63528 0.54823 0.0
C895 C 0.8825 0.61642 0.52653 0.0
C896 C 0.87269 0.63817 0.60179 0.0
C897 C 0.88564 0.62232 0.63558 0.0
C898 C 0.89721 0.6036 0.61389 0.0
C899 C 0.89566 0.60069 0.56025 0.0
H900 H 0.14852 0.1615 0.48587 0.0
H901 H 0.13689 0.08545 0.48623 0.0
H902 H 0.15136 0.16287 0.39236 0.0
H903 H 0.14066 0.08668 0.39277 0.0
H904 H 0.12167 0.10326 0.21925 0.0
H905 H 0.11965 0.10072 0.31335 0.0
H906 H 0.17621 0.15126 0.32658 0.0
H907 H 0.1781 0.15387 0.23291 0.0
C908 C 0.14669 0.14504 0.46602 0.0
C909 C 0.14242 0.12338 0.49363 0.0
C910 C 0.14855 0.14578 0.41241 0.0
C911 C 0.14621 0.12488 0.38492 0.0
C912 C 0.14227 0.10315 0.4126 0.0
C913 C 0.14043 0.10241 0.4663 0.0
C914 C 0.13374 0.11371 0.24233 0.0
C915 C 0.14988 0.12894 0.21848 0.0
C916 C 0.13264 0.11222 0.29628 0.0
C917 C 0.1477 0.12588 0.32761 0.0
C918 C 0.16403 0.14085 0.30368 0.0
C919 C 0.1651 0.14236 0.24989 0.0
H920 H 0.66223 0.35377 0.30366 0.0
H921 H 0.63006 0.42284 0.30182 0.0
H922 H 0.66391 0.35742 0.20981 0.0
H923 H 0.63162 0.42639 0.20789 0.0
H924 H 0.61518 0.41353 0.03678 0.0
H925 H 0.61411 0.40946 0.13071 0.0
H926 H 0.68269 0.37932 0.14 0.0
H927 H 0.68347 0.38271 0.04577 0.0
C928 C 0.65577 0.36989 0.28342 0.0
C929 C 0.646 0.38801 0.31069 0.0
C930 C 0.6567 0.37196 0.22941 0.0
C931 C 0.64783 0.39216 0.20099 0.0
C932 C 0.63825 0.41038 0.22826 0.0
C933 C 0.63737 0.40834 0.28228 0.0
C934 C 0.62993 0.40574 0.05872 0.0
C935 C 0.64939 0.39838 0.03343 0.0
C936 C 0.62944 0.4037 0.11278 0.0
C937 C 0.64835 0.39416 0.14321 0.0
C938 C 0.66772 0.38658 0.11792 0.0
C939 C 0.66826 0.38873 0.06382 0.0
H940 H 0.42096 0.89954 0.99179 0.0
H941 H 0.34648 0.90477 0.97408 0.0
H942 H 0.4227 0.89506 0.89904 0.0
H943 H 0.34816 0.89937 0.88162 0.0
H944 H 0.36108 0.91385 0.70922 0.0
H945 H 0.35935 0.91892 0.80187 0.0
H946 H 0.41423 0.86779 0.83233 0.0
H947 H 0.41592 0.86268 0.73992 0.0
C948 C 0.40491 0.89973 0.96825 0.0
C949 C 0.38357 0.90256 0.99097 0.0
C950 C 0.4059 0.89688 0.91487 0.0
C951 C 0.38558 0.89681 0.88231 0.0
C952 C 0.36423 0.89959 0.90503 0.0
C953 C 0.36324 0.90237 0.95845 0.0
C954 C 0.37268 0.90353 0.7356 0.0
C955 C 0.38869 0.88788 0.7165 0.0
C956 C 0.37168 0.90644 0.78899 0.0
C957 C 0.38666 0.8938 0.82511 0.0
C958 C 0.40267 0.87819 0.80599 0.0
C959 C 0.40365 0.87526 0.75267 0.0
H960 H 0.16012 0.69764 0.28185 0.0
H961 H 0.1082 0.7103 0.15782 0.0
H962 H 0.15793 0.73973 0.30319 0.0
H963 H 0.1063 0.75167 0.17794 0.0
H964 H 0.09601 0.82296 0.22519 0.0
H965 H 0.09485 0.77963 0.23616 0.0
H966 H 0.16915 0.77882 0.26478 0.0
H967 H 0.16994 0.82248 0.25618 0.0
C968 C 0.14794 0.70924 0.25989 0.0
C969 C 0.13439 0.70063 0.21806 0.0
C970 C 0.14682 0.73339 0.27175 0.0
C971 C 0.13188 0.74926 0.24246 0.0
C972 C 0.11771 0.74014 0.20218 0.0
C973 C 0.11896 0.7163 0.19022 0.0
C974 C 0.11194 0.81353 0.23601 0.0
C975 C 0.13301 0.82601 0.24033 0.0
C976 C 0.11137 0.78865 0.2416 0.0
C977 C 0.13199 0.77554 0.25006 0.0
C978 C 0.15291 0.78821 0.25852 0.0
C979 C 0.1534 0.81326 0.25378 0.0
H980 H 0.5749 0.93434 0.40422 0.0
H981 H 0.57404 0.8605 0.3673 0.0
H982 H 0.53294 0.93398 0.40581 0.0
H983 H 0.53146 0.86027 0.36582 0.0
H984 H 0.45225 0.86521 0.3898 0.0
H985 H 0.49463 0.86209 0.4038 0.0
H986 H 0.50172 0.93544 0.34795 0.0
H987 H 0.46015 0.93863 0.33653 0.0
C988 C 0.56566 0.9179 0.39672 0.0
C989 C 0.5779 0.8975 0.3856 0.0
C990 C 0.5414 0.91772 0.39688 0.0
C991 C 0.52828 0.89728 0.38445 0.0
C992 C 0.54066 0.87641 0.37567 0.0
C993 C 0.56516 0.8765 0.37651 0.0
C994 C 0.46297 0.88068 0.38125 0.0
C995 C 0.45263 0.90222 0.36227 0.0
C996 C 0.48736 0.87888 0.38886 0.0
C997 C 0.50207 0.89857 0.37767 0.0
C998 C 0.49142 0.91996 0.35866 0.0
C999 C 0.46731 0.92177 0.35153 0.0
H1000 H 0.42824 0.31509 0.75575 0.0
H1001 H 0.35484 0.31642 0.77656 0.0
H1002 H 0.42741 0.27146 0.76202 0.0
H1003 H 0.35381 0.27273 0.78139 0.0
H1004 H 0.36401 0.20984 0.66527 0.0
H1005 H 0.36343 0.2501 0.69604 0.0
H1006 H 0.41472 0.23032 0.81734 0.0
H1007 H 0.41462 0.1893 0.78733 0.0
C1008 C 0.41217 0.30599 0.76437 0.0
C1009 C 0.39169 0.31901 0.76668 0.0
C1010 C 0.41167 0.28105 0.76773 0.0
C1011 C 0.39053 0.26874 0.77198 0.0
C1012 C 0.37034 0.2818 0.77837 0.0
C1013 C 0.37095 0.30676 0.77611 0.0
C1014 C 0.37487 0.21397 0.69908 0.0
C1015 C 0.38942 0.19659 0.72385 0.0
C1016 C 0.3744 0.23694 0.71694 0.0
C1017 C 0.3889 0.24328 0.75929 0.0
C1018 C 0.40325 0.22579 0.78484 0.0
C1019 C 0.4032 0.20244 0.76776 0.0
H1020 H 0.94893 0.16455 0.88731 0.0
H1021 H 0.95678 0.08833 0.90508 0.0
H1022 H 0.99115 0.16951 0.89773 0.0
H1023 H 0.99878 0.09319 0.91585 0.0
H1024 H 0.07479 0.10933 0.96021 0.0
H1025 H 0.03261 0.10819 0.96962 0.0
H1026 H 0.02361 0.16081 0.84302 0.0
H1027 H 0.06531 0.16171 0.83356 0.0
C1028 C 0.95961 0.14888 0.89446 0.0
C1029 C 0.94944 0.12603 0.89516 0.0
C1030 C 0.98386 0.15169 0.90013 0.0
C1031 C 0.99856 0.13174 0.90749 0.0
C1032 C 0.98817 0.10899 0.91078 0.0
C1033 C 0.96403 0.10619 0.90434 0.0
C1034 C 0.0638 0.12107 0.93538 0.0
C1035 C 0.07347 0.13567 0.89627 0.0
C1036 C 0.03959 0.12026 0.94034 0.0
C1037 C 0.02452 0.13437 0.90697 0.0
C1038 C 0.03448 0.14986 0.86981 0.0
C1039 C 0.05848 0.15032 0.86427 0.0
H1040 H 0.10987 0.31002 0.87507 0.0
H1041 H 0.16291 0.32487 0.76673 0.0
H1042 H 0.11079 0.26799 0.85771 0.0
H1043 H 0.16387 0.28237 0.74896 0.0
H1044 H 0.18441 0.20487 0.81689 0.0
H1045 H 0.17835 0.2476 0.80272 0.0
H1046 H 0.10433 0.23597 0.79776 0.0
H1047 H 0.11053 0.19298 0.81231 0.0
C1048 C 0.12137 0.30434 0.84649 0.0
C1049 C 0.13642 0.32076 0.82251 0.0
C1050 C 0.12179 0.28018 0.83624 0.0
C1051 C 0.13749 0.27164 0.80212 0.0
C1052 C 0.15167 0.2883 0.77577 0.0
C1053 C 0.15101 0.31267 0.78557 0.0
C1054 C 0.16683 0.21138 0.81136 0.0
C1055 C 0.14796 0.1956 0.81615 0.0
C1056 C 0.16334 0.23592 0.80296 0.0
C1057 C 0.14085 0.24536 0.79961 0.0
C1058 C 0.1219 0.22935 0.80079 0.0
C1059 C 0.12542 0.20469 0.80872 0.0
H1060 H 0.06626 0.93841 0.13863 0.0
H1061 H 0.07105 0.86439 0.18954 0.0
H1062 H 0.02425 0.93584 0.13682 0.0
H1063 H 0.02861 0.8619 0.19082 0.0
H1064 H 0.9481 0.8627 0.16662 0.0
H1065 H 0.98992 0.86195 0.15259 0.0
H1066 H 0.99567 0.93532 0.19422 0.0
H1067 H 0.95458 0.93619 0.20559 0.0
C1068 C 0.05825 0.92146 0.14917 0.0
C1069 C 0.07209 0.90167 0.16424 0.0
C1070 C 0.034 0.92 0.14888 0.0
C1071 C 0.02256 0.8988 0.16511 0.0
C1072 C 0.03647 0.87857 0.17794 0.0
C1073 C 0.06091 0.87996 0.17724 0.0
C1074 C 0.95836 0.8787 0.17195 0.0
C1075 C 0.94779 0.89954 0.18704 0.0
C1076 C 0.98245 0.87826 0.16436 0.0
C1077 C 0.99661 0.89866 0.17164 0.0
C1078 C 0.98572 0.91935 0.18659 0.0
C1079 C 0.9619 0.91981 0.19371 0.0
H1080 H 0.42563 0.70901 0.35733 0.0
H1081 H 0.36702 0.70057 0.24958 0.0
H1082 H 0.42638 0.75137 0.33621 0.0
H1083 H 0.36798 0.74359 0.22681 0.0
H1084 H 0.35524 0.82125 0.28337 0.0
H1085 H 0.35785 0.77857 0.27045 0.0
H1086 H 0.43259 0.78425 0.27959 0.0
H1087 H 0.42967 0.82655 0.29539 0.0
C1088 C 0.4133 0.71622 0.32775 0.0
C1089 C 0.39621 0.70153 0.30528 0.0
C1090 C 0.41381 0.74062 0.31524 0.0
C1091 C 0.39717 0.75115 0.27984 0.0
C1092 C 0.38092 0.73616 0.25465 0.0
C1093 C 0.38051 0.71149 0.26712 0.0
C1094 C 0.37216 0.81339 0.28092 0.0
C1095 C 0.39227 0.827 0.29021 0.0
C1096 C 0.37371 0.78893 0.2734 0.0
C1097 C 0.39545 0.77773 0.27483 0.0
C1098 C 0.41554 0.79206 0.2795 0.0
C1099 C 0.41395 0.81634 0.28797 0.0
H1100 H 0.57103 0.08488 0.6857 0.0
H1101 H 0.57694 0.1584 0.6314 0.0
H1102 H 0.52932 0.08721 0.67667 0.0
H1103 H 0.53439 0.16067 0.62023 0.0
H1104 H 0.45596 0.15975 0.66801 0.0
H1105 H 0.4984 0.16128 0.66453 0.0
H1106 H 0.49771 0.08852 0.61819 0.0
H1107 H 0.45593 0.08685 0.62433 0.0
C1108 C 0.56339 0.10157 0.671 0.0
C1109 C 0.5775 0.12142 0.65923 0.0
C1110 C 0.53924 0.10288 0.66532 0.0
C1111 C 0.52806 0.12406 0.64699 0.0
C1112 C 0.54218 0.14404 0.63467 0.0
C1113 C 0.56662 0.14272 0.64064 0.0
C1114 C 0.46495 0.1443 0.65616 0.0
C1115 C 0.45259 0.12311 0.64674 0.0
C1116 C 0.48934 0.14512 0.65418 0.0
C1117 C 0.50188 0.12483 0.64228 0.0
C1118 C 0.48906 0.10431 0.6293 0.0
C1119 C 0.46494 0.10339 0.63215 0.0
H1120 H 0.85361 0.20635 0.79596 0.0
H1121 H 0.92793 0.20059 0.80264 0.0
H1122 H 0.85684 0.24942 0.77861 0.0
H1123 H 0.9314 0.24347 0.78317 0.0
H1124 H 0.92606 0.31655 0.85628 0.0
H1125 H 0.92582 0.27463 0.83932 0.0
H1126 H 0.8676 0.28558 0.7292 0.0
H1127 H 0.86773 0.32811 0.74729 0.0
C1128 C 0.87059 0.21425 0.79123 0.0
C1129 C 0.89052 0.2003 0.8001 0.0
C1130 C 0.8725 0.23893 0.78129 0.0
C1131 C 0.89441 0.25008 0.7802 0.0
C1132 C 0.91426 0.23561 0.78469 0.0
C1133 C 0.91233 0.21101 0.79522 0.0
C1134 C 0.91351 0.31016 0.82753 0.0
C1135 C 0.89683 0.32558 0.80336 0.0
C1136 C 0.91347 0.28604 0.81741 0.0
C1137 C 0.89664 0.27653 0.78293 0.0
C1138 C 0.8807 0.29225 0.75632 0.0
C1139 C 0.88089 0.31663 0.76622 0.0
H1140 H 0.66444 0.82264 0.2757 0.0
H1141 H 0.60499 0.81038 0.3674 0.0
H1142 H 0.66586 0.77981 0.26121 0.0
H1143 H 0.60617 0.76796 0.35267 0.0
H1144 H 0.60916 0.69168 0.31476 0.0
H1145 H 0.60385 0.73439 0.29177 0.0
H1146 H 0.67669 0.74676 0.32705 0.0
H1147 H 0.68169 0.70451 0.35058 0.0
C1148 C 0.6512 0.81094 0.29113 0.0
C1149 C 0.63466 0.8198 0.3228 0.0
C1150 C 0.65209 0.78641 0.28319 0.0
C1151 C 0.63618 0.77039 0.30597 0.0
C1152 C 0.61854 0.77971 0.33408 0.0
C1153 C 0.61793 0.80404 0.34276 0.0
C1154 C 0.62411 0.70346 0.3155 0.0
C1155 C 0.64587 0.69487 0.33392 0.0
C1156 C 0.62108 0.72792 0.30286 0.0
C1157 C 0.63985 0.74406 0.30771 0.0
C1158 C 0.66192 0.73492 0.32218 0.0
C1159 C 0.66481 0.71069 0.33573 0.0
H1160 H 0.92252 0.70942 0.17317 0.0
H1161 H 0.87492 0.68911 0.29079 0.0
H1162 H 0.92288 0.75005 0.20025 0.0
H1163 H 0.87545 0.73021 0.31863 0.0
H1164 H 0.85632 0.81208 0.27681 0.0
H1165 H 0.86037 0.76871 0.28106 0.0
H1166 H 0.93414 0.77693 0.26659 0.0
H1167 H 0.92977 0.82018 0.26086 0.0
C1168 C 0.91241 0.71355 0.20551 0.0
C1169 C 0.89859 0.69599 0.22957 0.0
C1170 C 0.91278 0.73691 0.22145 0.0
C1171 C 0.89924 0.74353 0.26183 0.0
C1172 C 0.88601 0.72577 0.28727 0.0
C1173 C 0.88583 0.70219 0.27156 0.0
C1174 C 0.8735 0.80453 0.27717 0.0
C1175 C 0.89279 0.81939 0.26937 0.0
C1176 C 0.87585 0.77966 0.27925 0.0
C1177 C 0.89754 0.76926 0.2732 0.0
C1178 C 0.91712 0.7843 0.2704 0.0
C1179 C 0.91472 0.80908 0.26798 0.0
H1180 H 0.66042 0.19678 0.78293 0.0
H1181 H 0.60949 0.20975 0.65698 0.0
H1182 H 0.65871 0.23905 0.80326 0.0
H1183 H 0.6081 0.25125 0.67608 0.0
H1184 H 0.59777 0.32267 0.72256 0.0
H1185 H 0.59635 0.27936 0.73349 0.0
H1186 H 0.67046 0.27815 0.76527 0.0
H1187 H 0.67148 0.32183 0.75677 0.0
C1188 C 0.64858 0.20849 0.76026 0.0
C1189 C 0.63514 0.19987 0.71826 0.0
C1190 C 0.64774 0.23275 0.77156 0.0
C1191 C 0.63318 0.24873 0.74152 0.0
C1192 C 0.61919 0.23965 0.70091 0.0
C1193 C 0.62016 0.21571 0.68954 0.0
C1194 C 0.61358 0.31316 0.73404 0.0
C1195 C 0.63467 0.32556 0.73929 0.0
C1196 C 0.61288 0.28828 0.73959 0.0
C1197 C 0.63338 0.27505 0.74893 0.0
C1198 C 0.6543 0.28763 0.75827 0.0
C1199 C 0.65491 0.31269 0.7536 0.0
H1200 H 0.96154 0.439 0.84629 0.0
H1201 H 0.95481 0.36534 0.8987 0.0
H1202 H 1.00319 0.43615 0.85509 0.0
H1203 H 0.99728 0.36256 0.91017 0.0
H1204 H 0.07606 0.36139 0.86985 0.0
H1205 H 0.03355 0.361 0.87075 0.0
H1206 H 0.03529 0.43484 0.9099 0.0
H1207 H 0.07716 0.43534 0.90586 0.0
C1208 C 0.96898 0.42216 0.8606 0.0
C1209 C 0.95458 0.40244 0.87183 0.0
C1210 C 0.99316 0.42054 0.86622 0.0
C1211 C 1.00418 0.39918 0.88416 0.0
C1212 C 0.98974 0.37934 0.89595 0.0
C1213 C 0.96529 0.38095 0.88983 0.0
C1214 C 0.06727 0.37739 0.87934 0.0
C1215 C 0.08005 0.39846 0.88749 0.0
C1216 C 0.04279 0.37722 0.87988 0.0
C1217 C 0.03046 0.39806 0.88919 0.0
C1218 C 0.04366 0.41859 0.90059 0.0
C1219 C 0.06789 0.41885 0.89903 0.0
H1220 H 0.4515 0.66414 0.38829 0.0
H1221 H 0.45888 0.58781 0.40221 0.0
H1222 H 0.49378 0.66876 0.3978 0.0
H1223 H 0.50096 0.59234 0.41224 0.0
H1224 H 0.57697 0.60805 0.45899 0.0
H1225 H 0.53477 0.60688 0.46742 0.0
H1226 H 0.52634 0.66027 0.34225 0.0
H1227 H 0.56813 0.66119 0.33363 0.0
C1228 C 0.4621 0.64836 0.39436 0.0
C1229 C 0.45175 0.62559 0.39434 0.0
C1230 C 0.48638 0.65098 0.39951 0.0
C1231 C 0.50097 0.63092 0.40569 0.0
C1232 C 0.49044 0.60822 0.40809 0.0
C1233 C 0.46625 0.60561 0.40209 0.0
C1234 C 0.56612 0.61993 0.4342 0.0
C1235 C 0.57601 0.63476 0.39575 0.0
C1236 C 0.54188 0.6191 0.43861 0.0
C1237 C 0.52696 0.63343 0.40539 0.0
C1238 C 0.5371 0.64912 0.36886 0.0
C1239 C 0.56116 0.6496 0.36382 0.0
H1240 H 0.45162 0.43406 0.64747 0.0
H1241 H 0.45463 0.36066 0.70366 0.0
H1242 H 0.4929 0.434 0.63441 0.0
H1243 H 0.49668 0.36078 0.6939 0.0
H1244 H 0.57364 0.36549 0.65118 0.0
H1245 H 0.53108 0.36217 0.64786 0.0
H1246 H 0.527 0.43653 0.68105 0.0
H1247 H 0.56862 0.43988 0.68161 0.0
C1248 C 0.46119 0.41779 0.65684 0.0
C1249 C 0.44975 0.39742 0.67662 0.0
C1250 C 0.48511 0.41779 0.65009 0.0
C1251 C 0.49879 0.39759 0.66442 0.0
C1252 C 0.48707 0.37675 0.68216 0.0
C1253 C 0.46286 0.37663 0.68784 0.0
C1254 C 0.56351 0.38116 0.65681 0.0
C1255 C 0.57472 0.403 0.66639 0.0
C1256 C 0.53902 0.37924 0.65546 0.0
C1257 C 0.52505 0.3991 0.66377 0.0
C1258 C 0.53657 0.42085 0.67294 0.0
C1259 C 0.56077 0.42277 0.67379 0.0
H1260 H 0.07687 0.6613 0.14774 0.0
H1261 H 0.07287 0.58458 0.15268 0.0
H1262 H 0.03421 0.6631 0.14676 0.0
H1263 H 0.03082 0.58633 0.15115 0.0
H1264 H 0.96559 0.5966 0.23743 0.0
H1265 H 1.00633 0.59791 0.22092 0.0
H1266 H 0.99354 0.65239 0.09955 0.0
H1267 H 0.95173 0.65099 0.11642 0.0
C1268 C 0.06692 0.64487 0.14735 0.0
C1269 C 0.07835 0.62276 0.15087 0.0
C1270 C 0.04246 0.6459 0.14673 0.0
C1271 C 0.02896 0.62484 0.1497 0.0
C1272 C 0.04053 0.60292 0.1498 0.0
C1273 C 0.06473 0.60191 0.15049 0.0
C1274 C 0.97122 0.60884 0.20685 0.0
C1275 C 0.95518 0.62354 0.17802 0.0
C1276 C 0.99476 0.60951 0.19721 0.0
C1277 C 1.00341 0.62506 0.15852 0.0
C1278 C 0.98751 0.64014 0.12965 0.0
C1279 C 0.96354 0.63924 0.13899 0.0
H1280 H 0.1654 0.5436 0.15684 0.0
H1281 H 0.14029 0.58071 1.01509 0.0
H1282 H 0.1679 0.50691 0.1105 0.0
H1283 H 0.14209 0.54429 0.96959 0.0
H1284 H 0.16395 0.47912 0.88769 0.0
H1285 H 0.16578 0.51597 0.93429 0.0
H1286 H 0.14483 0.47702 0.07238 0.0
H1287 H 0.14373 0.4405 0.02675 0.0
C1288 C 0.16036 0.54397 0.11596 0.0
C1289 C 0.15263 0.56524 0.09004 0.0
C1290 C 0.16167 0.52286 0.08925 0.0
C1291 C 0.15521 0.52241 0.03589 0.0
C1292 C 0.14765 0.54379 1.01019 0.0
C1293 C 0.14643 0.5648 0.0367 0.0
C1294 C 0.15986 0.47844 0.92804 0.0
C1295 C 0.15367 0.4567 0.95311 0.0
C1296 C 0.16078 0.49963 0.95487 0.0
C1297 C 0.15545 0.4997 1.0075 0.0
C1298 C 0.14948 0.47785 0.0324 0.0
C1299 C 0.14865 0.45678 1.00579 0.0
H1300 H 0.71689 0.84194 0.37914 0.0
H1301 H 0.70607 0.91564 0.33071 0.0
H1302 H 0.75378 0.84264 0.33804 0.0
H1303 H 0.74284 0.91629 0.28754 0.0
H1304 H 0.82076 0.91539 0.25204 0.0
H1305 H 0.78409 0.91608 0.29539 0.0
H1306 H 0.77142 0.84275 0.25951 0.0
H1307 H 0.80821 0.84199 0.21819 0.0
C1308 C 0.72232 0.85833 0.35934 0.0
C1309 C 0.70828 0.87868 0.35821 0.0
C1310 C 0.74356 0.85872 0.33517 0.0
C1311 C 0.75165 0.87947 0.30856 0.0
C1312 C 0.7376 0.89995 0.30779 0.0
C1313 C 0.71629 0.89956 0.33225 0.0
C1314 C 0.81018 0.89939 0.25377 0.0
C1315 C 0.81767 0.87858 0.23177 0.0
C1316 C 0.78893 0.89981 0.27833 0.0
C1317 C 0.77441 0.87943 0.28166 0.0
C1318 C 0.78201 0.85874 0.25913 0.0
C1319 C 0.80319 0.85833 0.23485 0.0
H1320 H 0.36723 0.47689 0.67511 0.0
H1321 H 0.38802 0.44053 0.54243 0.0
H1322 H 0.36517 0.5143 0.62248 0.0
H1323 H 0.38671 0.47768 0.49079 0.0
H1324 H 0.36492 0.54463 0.39602 0.0
H1325 H 0.36264 0.50731 0.4485 0.0
H1326 H 0.38934 0.54334 0.5827 0.0
H1327 H 0.3909 0.58044 0.53109 0.0
C1328 C 0.37142 0.47686 0.6349 0.0
C1329 C 0.37781 0.45563 0.61327 0.0
C1330 C 0.37036 0.49834 0.60464 0.0
C1331 C 0.37577 0.49916 0.55208 0.0
C1332 C 0.382 0.47784 0.53064 0.0
C1333 C 0.38294 0.45645 0.56066 0.0
C1334 C 0.3702 0.54456 0.43674 0.0
C1335 C 0.37812 0.5656 0.45906 0.0
C1336 C 0.36901 0.52313 0.46693 0.0
C1337 C 0.37582 0.52217 0.52013 0.0
C1338 C 0.38355 0.54332 0.54229 0.0
C1339 C 0.38463 0.56466 0.51231 0.0
H1340 H 0.81028 0.17778 0.84655 0.0
H1341 H 0.82165 0.1041 0.81759 0.0
H1342 H 0.77319 0.17663 0.79776 0.0
H1343 H 0.78455 0.10299 0.767 0.0
H1344 H 0.70558 0.10361 0.72071 0.0
H1345 H 0.74302 0.10325 0.76988 0.0
H1346 H 0.75574 0.17568 0.71395 0.0
H1347 H 0.7182 0.17612 0.66647 0.0
C1348 C 0.80491 0.1613 0.82944 0.0
C1349 C 0.81909 0.14106 0.83602 0.0
C1350 C 0.78358 0.16067 0.80091 0.0
C1351 C 0.7756 0.13976 0.77765 0.0
C1352 C 0.7898 0.1194 0.78448 0.0
C1353 C 0.81124 0.12006 0.81322 0.0
C1354 C 0.71639 0.11946 0.7191 0.0
C1355 C 0.70872 0.13996 0.68984 0.0
C1356 C 0.73802 0.11922 0.74705 0.0
C1357 C 0.75267 0.13948 0.74656 0.0
C1358 C 0.74498 0.15983 0.71652 0.0
C1359 C 0.72341 0.16006 0.68878 0.0
H1360 H 0.88939 0.58193 1.01413 0.0
H1361 H 0.87305 0.53947 0.15144 0.0
H1362 H 0.88759 0.54685 0.96409 0.0
H1363 H 0.87057 0.50399 0.10025 0.0
H1364 H 0.89627 0.44292 1.00901 0.0
H1365 H 0.8946 0.47793 0.05873 0.0
H1366 H 0.8639 0.51733 0.92515 0.0
H1367 H 0.86618 0.48191 0.87421 0.0
C1368 C 0.88521 0.56511 0.03388 0.0
C1369 C 0.8815 0.56368 0.08738 0.0
C1370 C 0.88395 0.54487 1.00465 0.0
C1371 C 0.87888 0.5224 0.02767 0.0
C1372 C 0.87484 0.52092 0.0811 0.0
C1373 C 0.87617 0.54129 0.11059 0.0
C1374 C 0.88907 0.45896 0.98981 0.0
C1375 C 0.88139 0.45945 0.93716 0.0
C1376 C 0.88792 0.47913 1.01885 0.0
C1377 C 0.87897 0.50061 0.99649 0.0
C1378 C 0.87114 0.50119 0.94378 0.0
C1379 C 0.87238 0.48087 0.91444 0.0
H1380 H 0.20218 0.10858 0.73039 0.0
H1381 H 0.22929 0.14482 0.86364 0.0
H1382 H 0.24067 0.10996 0.69483 0.0
H1383 H 0.26763 0.14695 0.82695 0.0
H1384 H 0.31916 0.17297 0.69392 0.0
H1385 H 0.28236 0.16905 0.73667 0.0
H1386 H 0.2844 0.09284 0.72574 0.0
H1387 H 0.32178 0.09669 0.68468 0.0
C1388 C 0.21635 0.11681 0.75219 0.0
C1389 C 0.21258 0.12652 0.80005 0.0
C1390 C 0.23843 0.11751 0.73184 0.0
C1391 C 0.25725 0.12856 0.75802 0.0
C1392 C 0.25351 0.13832 0.80582 0.0
C1393 C 0.23155 0.13701 0.82692 0.0
C1394 C 0.31187 0.15535 0.70103 0.0
C1395 C 0.3234 0.13515 0.68579 0.0
C1396 C 0.29082 0.15311 0.72569 0.0
C1397 C 0.28039 0.13065 0.73453 0.0
C1398 C 0.29194 0.1104 0.71936 0.0
C1399 C 0.31337 0.11259 0.69598 0.0
H1400 H 0.60342 0.55779 0.41015 0.0
H1401 H 0.67767 0.56666 0.42031 0.0
H1402 H 0.60656 0.52497 0.47676 0.0
H1403 H 0.68083 0.53334 0.48534 0.0
H1404 H 0.66768 0.44908 0.53035 0.0
H1405 H 0.66629 0.48524 0.47346 0.0
H1406 H 0.62617 0.51999 0.58268 0.0
H1407 H 0.62835 0.48387 0.64103 0.0
C1408 C 0.62039 0.55271 0.42655 0.0
C1409 C 0.64031 0.56473 0.40979 0.0
C1410 C 0.62217 0.53405 0.4649 0.0
C1411 C 0.64395 0.52664 0.48637 0.0
C1412 C 0.66383 0.5387 0.46961 0.0
C1413 C 0.66202 0.55773 0.43232 0.0
C1414 C 0.65896 0.46458 0.5428 0.0
C1415 C 0.64834 0.46368 0.59049 0.0
C1416 C 0.65813 0.48527 0.51013 0.0
C1417 C 0.64606 0.50541 0.52348 0.0
C1418 C 0.63558 0.5047 0.5714 0.0
C1419 C 0.637 0.48414 0.60495 0.0
H1420 H 0.32262 0.92273 0.30041 0.0
H1421 H 0.31125 0.8491 0.34775 0.0
H1422 H 0.28365 0.92427 0.25753 0.0
H1423 H 0.27247 0.85063 0.30634 0.0
H1424 H 0.21366 0.85142 0.18344 0.0
H1425 H 0.25241 0.8519 0.22478 0.0
H1426 H 0.24203 0.92395 0.26848 0.0
H1427 H 0.20305 0.92352 0.22555 0.0
C1428 C 0.31181 0.90688 0.30179 0.0
C1429 C 0.32023 0.88576 0.32748 0.0
C1430 C 0.28932 0.90778 0.27745 0.0
C1431 C 0.2746 0.88754 0.27784 0.0
C1432 C 0.28316 0.86653 0.30398 0.0
C1433 C 0.3055 0.86567 0.32823 0.0
C1434 C 0.21957 0.86743 0.20179 0.0
C1435 C 0.20504 0.8874 0.20111 0.0
C1436 C 0.2419 0.86767 0.22602 0.0
C1437 C 0.25067 0.8879 0.25076 0.0
C1438 C 0.23617 0.90805 0.24969 0.0
C1439 C 0.21368 0.90778 0.22533 0.0
H1440 H 0.6432 0.93847 0.52963 0.0
H1441 H 0.661 0.97807 0.38981 0.0
H1442 H 0.6445 0.97477 0.57615 0.0
H1443 H 0.66291 0.0147 0.43722 0.0
H1444 H 0.66556 0.04208 0.6595 0.0
H1445 H 0.66807 1.00539 0.61284 0.0
H1446 H 0.63814 0.04177 0.47465 0.0
H1447 H 0.63616 0.07807 0.52027 0.0
C1448 C 0.6476 0.95492 0.50865 0.0
C1449 C 0.65187 0.9552 0.4555 0.0
C1450 C 0.64855 0.97585 0.53578 0.0
C1451 C 0.65382 0.99788 0.51085 0.0
C1452 C 0.65847 0.99817 0.4578 0.0
C1453 C 0.6575 0.97712 0.4305 0.0
C1454 C 0.65959 0.04221 0.61916 0.0
C1455 C 0.65067 0.06318 0.594 0.0
C1456 C 0.66094 0.02113 0.5923 0.0
C1457 C 0.6534 0.02046 0.53956 0.0
C1458 C 0.64457 0.0415 0.51469 0.0
C1459 C 0.64324 0.06243 0.54133 0.0
H1460 H 0.20847 0.41666 0.82762 0.0
H1461 H 0.21897 0.34301 0.87696 0.0
H1462 H 0.24546 0.41708 0.78514 0.0
H1463 H 0.25596 0.34347 0.83641 0.0
H1464 H 0.31037 0.34217 0.71679 0.0
H1465 H 0.27352 0.34338 0.75767 0.0
H1466 H 0.28696 0.41652 0.79402 0.0
H1467 H 0.32379 0.41536 0.75121 0.0
C1468 C 0.21866 0.40056 0.82951 0.0
C1469 C 0.21051 0.37976 0.85558 0.0
C1470 C 0.24007 0.40081 0.80543 0.0
C1471 C 0.25406 0.38026 0.8066 0.0
C1472 C 0.24581 0.3596 0.83325 0.0
C1473 C 0.22449 0.35936 0.85708 0.0
C1474 C 0.30553 0.35856 0.73347 0.0
C1475 C 0.32026 0.37863 0.73063 0.0
C1476 C 0.2843 0.35924 0.75749 0.0
C1477 C 0.27689 0.38001 0.77999 0.0
C1478 C 0.29167 0.4002 0.77697 0.0
C1479 C 0.31301 0.39951 0.75271 0.0
H1480 H 0.88675 0.94111 0.04741 0.0
H1481 H 0.86347 0.97732 0.178 0.0
H1482 H 0.88541 0.97808 0.99536 0.0
H1483 H 0.86145 0.01464 0.1248 0.0
H1484 H 0.88722 0.081 0.03265 0.0
H1485 H 0.88551 0.04419 0.08541 0.0
H1486 H 0.86107 1.00687 0.95117 0.0
H1487 H 0.86348 0.04385 0.89767 0.0
C1488 C 0.88112 0.95697 0.06513 0.0
C1489 C 0.87527 0.95613 0.11729 0.0
C1490 C 0.88016 0.97825 0.0348 0.0
C1491 C 0.8732 0.99951 0.05542 0.0
C1492 C 0.86715 0.99872 0.10757 0.0
C1493 C 0.8682 0.97729 0.13818 0.0
C1494 C 0.88141 0.06499 1.0141 0.0
C1495 C 0.8756 0.06547 0.96054 0.0
C1496 C 0.88024 0.04381 0.04475 0.0
C1497 C 0.87315 0.02238 0.02291 0.0
C1498 C 0.86696 0.02291 0.96941 0.0
C1499 C 0.86823 0.04416 0.93859 0.0
H1500 H 0.20997 0.67995 0.20758 0.0
H1501 H 0.21429 0.6044 0.19069 0.0
H1502 H 0.24677 0.67949 0.25701 0.0
H1503 H 0.25233 0.60384 0.23617 0.0
H1504 H 0.31569 0.60466 0.34941 0.0
H1505 H 0.27772 0.60398 0.30371 0.0
H1506 H 0.28478 0.67939 0.26369 0.0
H1507 H 0.32148 0.68 0.31335 0.0
C1508 C 0.21906 0.6632 0.21389 0.0
C1509 C 0.20915 0.64225 0.19498 0.0
C1510 C 0.24057 0.66288 0.24198 0.0
C1511 C 0.25351 0.64167 0.25081 0.0
C1512 C 0.24332 0.62063 0.23164 0.0
C1513 C 0.22139 0.62088 0.20491 0.0
C1514 C 0.30895 0.62105 0.33086 0.0
C1515 C 0.32156 0.64242 0.3355 0.0
C1516 C 0.28706 0.62074 0.30402 0.0
C1517 C 0.27729 0.6417 0.27947 0.0
C1518 C 0.29063 0.66287 0.28297 0.0
C1519 C 0.3121 0.66327 0.31115 0.0
H1520 H 0.39474 0.94329 0.5006 0.0
H1521 H 0.36469 0.9825 0.36603 0.0
H1522 H 0.39317 0.97828 0.55049 0.0
H1523 H 0.36253 0.01787 0.41713 0.0
H1524 H 0.3884 0.08228 0.50683 0.0
H1525 H 0.38657 0.04726 0.45635 0.0
H1526 H 0.36886 1.00427 0.59181 0.0
H1527 H 0.37133 0.03964 0.64331 0.0
C1528 C 0.38759 0.95937 0.48149 0.0
C1529 C 0.37988 0.95995 0.42885 0.0
C1530 C 0.38649 0.97952 0.5106 0.0
C1531 C 0.37759 1.00104 0.48833 0.0
C1532 C 0.36973 1.0017 0.43565 0.0
C1533 C 0.37089 0.9814 0.40625 0.0
C1534 C 0.38405 0.06542 0.52623 0.0
C1535 C 0.38013 0.06389 0.57959 0.0
C1536 C 0.38279 0.04525 0.49682 0.0
C1537 C 0.37751 0.02277 0.51959 0.0
C1538 C 0.37327 0.02121 0.57289 0.0
C1539 C 0.3746 0.0415 0.60253 0.0
H1540 H 0.82099 0.67607 0.19115 0.0
H1541 H 0.82367 0.59959 0.18644 0.0
H1542 H 0.78417 0.67259 0.23442 0.0
H1543 H 0.78643 0.5962 0.2278 0.0
H1544 H 0.70446 0.61107 0.23055 0.0
H1545 H 0.74276 0.61357 0.19445 0.0
H1546 H 0.7694 0.65006 0.32749 0.0
H1547 H 0.73115 0.64678 0.36487 0.0
C1548 C 0.81371 0.65853 0.19928 0.0
C1549 C 0.82527 0.63812 0.18519 0.0
C1550 C 0.79267 0.65654 0.22427 0.0
C1551 C 0.78232 0.63412 0.23453 0.0
C1552 C 0.7939 0.61372 0.22039 0.0
C1553 C 0.81524 0.61567 0.19673 0.0
C1554 C 0.71849 0.61949 0.25243 0.0
C1555 C 0.71464 0.62866 0.30082 0.0
C1556 C 0.74047 0.62086 0.23171 0.0
C1557 C 0.75915 0.63204 0.25799 0.0
C1558 C 0.75536 0.64138 0.30623 0.0
C1559 C 0.73347 0.63939 0.32774 0.0
H1560 H 0.17502 0.06877 0.92651 0.0
H1561 H 0.10073 0.06011 0.91741 0.0
H1562 H 0.17828 0.03507 0.99061 0.0
H1563 H 0.10399 0.02692 0.98298 0.0
H1564 H 0.12519 0.98418 0.14422 0.0
H1565 H 0.12323 0.02081 0.08754 0.0
H1566 H 0.16404 0.98734 0.97767 0.0
H1567 H 0.1652 0.95063 0.0329 0.0
C1568 C 0.15938 0.05984 0.93863 0.0
C1569 C 0.13763 0.06697 0.91659 0.0
C1570 C 0.16126 0.04057 0.97533 0.0
C1571 C 0.14139 0.02843 0.99196 0.0
C1572 C 0.11958 0.03605 0.97117 0.0
C1573 C 0.11773 0.05493 0.93343 0.0
C1574 C 0.13401 0.98482 0.10834 0.0
C1575 C 0.14546 0.96457 0.09317 0.0
C1576 C 0.13275 1.00569 0.07577 0.0
C1577 C 0.1435 1.00692 0.02819 0.0
C1578 C 0.15569 0.98696 1.01415 0.0
C1579 C 0.15636 0.96597 0.04582 0.0
H1580 H 0.71224 0.42411 0.69315 0.0
H1581 H 0.70823 0.34804 0.71976 0.0
H1582 H 0.75116 0.4243 0.73437 0.0
H1583 H 0.74593 0.348 0.76506 0.0
H1584 H 0.8213 0.34706 0.81616 0.0
H1585 H 0.78367 0.34814 0.77045 0.0
H1586 H 0.77889 0.42337 0.79672 0.0
H1587 H 0.81772 0.42221 0.83834 0.0
C1588 C 0.71959 0.40742 0.70863 0.0
C1589 C 0.7071 0.38605 0.70264 0.0
C1590 C 0.74209 0.40743 0.73292 0.0
C1591 C 0.7527 0.38611 0.75358 0.0
C1592 C 0.73951 0.36488 0.74873 0.0
C1593 C 0.71743 0.36483 0.72304 0.0
C1594 C 0.81221 0.36386 0.81182 0.0
C1595 C 0.82262 0.3845 0.83115 0.0
C1596 C 0.79017 0.36454 0.78589 0.0
C1597 C 0.77712 0.3858 0.77973 0.0
C1598 C 0.78784 0.40655 0.79923 0.0
C1599 C 0.81029 0.40595 0.82375 0.0
loop_
_geom_bond_atom_site_label_1
_geom_bond_atom_site_label_2
_geom_bond_distance
_geom_bond_site_symmetry_2
_ccdc_geom_bond_type
Tb0 C2 2.809 . S
Tb0 O20 2.484 . S
Tb0 O21 2.440 . S
Tb0 O22 2.658 . S
Tb0 O23 2.409 . S
Tb0 O24 2.378 . S
Tb0 O28 2.325 . S
Tb0 O31 2.341 . S
Tb1 C11 2.809 . S
Tb1 O22 2.325 . S
Tb1 O25 2.341 . S
Tb1 O26 2.484 . S
Tb1 O27 2.440 . S
Tb1 O28 2.658 . S
Tb1 O29 2.409 . S
Tb1 O30 2.378 . S
C2 Tb0 2.809 . S
C2 C3 1.514 . S
C2 O20 1.248 . S
C2 O21 1.266 . S
C3 C2 1.514 . S
C3 C4 1.359 . S
C3 C8 1.348 . S
C4 C3 1.359 . S
C4 C5 1.380 . S
C4 H32 0.929 . S
C5 C4 1.380 . S
C5 C6 1.347 . S
C5 H33 0.931 . S
C6 C5 1.347 . S
C6 C7 1.369 . S
C7 C6 1.369 . S
C7 C8 1.408 . S
C7 H34 0.930 . S
C8 C3 1.348 . S
C8 C7 1.408 . S
C8 H35 0.930 . S
C9 O22 1.281 . S
C9 O23 1.254 . S
C10 O24 1.236 . S
C10 O25 1.266 . S
C11 Tb1 2.809 . S
C11 C12 1.514 1_554 S
C11 O26 1.248 . S
C11 O27 1.266 . S
C12 C11 1.514 1_556 S
C12 C13 1.359 . S
C12 C17 1.348 . S
C13 C12 1.359 . S
C13 C14 1.380 . S
C13 H36 0.929 . S
C14 C13 1.380 . S
C14 C15 1.347 . S
C14 H37 0.931 . S
C15 C14 1.347 . S
C15 C16 1.369 . S
C16 C15 1.369 . S
C16 C17 1.408 . S
C16 H38 0.930 . S
C17 C12 1.348 . S
C17 C16 1.408 . S
C17 H39 0.930 . S
C18 O28 1.281 . S
C18 O29 1.254 . S
C19 O30 1.236 . S
C19 O31 1.266 . S
O20 Tb0 2.484 . S
O20 C2 1.248 . S
O21 Tb0 2.440 . S
O21 C2 1.266 . S
O22 Tb0 2.658 . S
O22 Tb1 2.325 . S
O22 C9 1.281 . S
O23 Tb0 2.409 . S
O23 C9 1.254 . S
O24 Tb0 2.378 . S
O24 C10 1.236 . S
O25 Tb1 2.341 . S
O25 C10 1.266 . S
O26 Tb1 2.484 . S
O26 C11 1.248 . S
O27 Tb1 2.440 . S
O27 C11 1.266 . S
O28 Tb0 2.325 . S
O28 Tb1 2.658 . S
O28 C18 1.281 . S
O29 Tb1 2.409 . S
O29 C18 1.254 . S
O30 Tb1 2.378 . S
O30 C19 1.236 . S
O31 Tb0 2.341 . S
O31 C19 1.266 . S
H32 C4 0.929 . S
H33 C5 0.931 . S
H34 C7 0.930 . S
H35 C8 0.930 . S
H36 C13 0.929 . S
H37 C14 0.931 . S
H38 C16 0.930 . S
H39 C17 0.930 . S
Tb40 C42 2.809 . S
Tb40 O60 2.484 . S
Tb40 O61 2.440 . S
Tb40 O62 2.658 . S
Tb40 O63 2.409 . S
Tb40 O64 2.378 . S
Tb40 O68 2.325 . S
Tb40 O71 2.341 . S
Tb41 C51 2.809 . S
Tb41 O62 2.325 . S
Tb41 O65 2.341 . S
Tb41 O66 2.484 . S
Tb41 O67 2.440 . S
Tb41 O68 2.658 . S
Tb41 O69 2.409 . S
Tb41 O70 2.378 . S
C42 Tb40 2.809 . S
C42 C43 1.514 . S
C42 O60 1.248 . S
C42 O61 1.266 . S
C43 C42 1.514 . S
C43 C44 1.359 . S
C43 C48 1.348 . S
C44 C43 1.359 . S
C44 C45 1.380 . S
C44 H72 0.929 . S
C45 C44 1.380 . S
C45 C46 1.347 . S
C45 H73 0.931 . S
C46 C45 1.347 . S
C46 C47 1.369 . S
C47 C46 1.369 . S
C47 C48 1.408 . S
C47 H74 0.930 . S
C48 C43 1.348 . S
C48 C47 1.408 . S
C48 H75 0.930 . S
C49 O62 1.281 . S
C49 O63 1.254 . S
C50 O64 1.236 . S
C50 O65 1.266 . S
C51 Tb41 2.809 . S
C51 C52 1.514 . S
C51 O66 1.248 . S
C51 O67 1.266 . S
C52 C51 1.514 . S
C52 C53 1.359 . S
C52 C57 1.348 . S
C53 C52 1.359 . S
C53 C54 1.380 . S
C53 H76 0.929 . S
C54 C53 1.380 . S
C54 C55 1.347 . S
C54 H77 0.931 . S
C55 C54 1.347 . S
C55 C56 1.369 . S
C56 C55 1.369 . S
C56 C57 1.408 . S
C56 H78 0.930 . S
C57 C52 1.348 . S
C57 C56 1.408 . S
C57 H79 0.930 . S
C58 O68 1.281 . S
C58 O69 1.254 . S
C59 O70 1.236 . S
C59 O71 1.266 . S
O60 Tb40 2.484 . S
O60 C42 1.248 . S
O61 Tb40 2.440 . S
O61 C42 1.266 . S
O62 Tb40 2.658 . S
O62 Tb41 2.325 . S
O62 C49 1.281 . S
O63 Tb40 2.409 . S
O63 C49 1.254 . S
O64 Tb40 2.378 . S
O64 C50 1.236 . S
O65 Tb41 2.341 . S
O65 C50 1.266 . S
O66 Tb41 2.484 . S
O66 C51 1.248 . S
O67 Tb41 2.440 . S
O67 C51 1.266 . S
O68 Tb40 2.325 . S
O68 Tb41 2.658 . S
O68 C58 1.281 . S
O69 Tb41 2.409 . S
O69 C58 1.254 . S
O70 Tb41 2.378 . S
O70 C59 1.236 . S
O71 Tb40 2.341 . S
O71 C59 1.266 . S
H72 C44 0.929 . S
H73 C45 0.931 . S
H74 C47 0.930 . S
H75 C48 0.930 . S
H76 C53 0.929 . S
H77 C54 0.931 . S
H78 C56 0.930 . S
H79 C57 0.930 . S
Tb80 C82 2.809 . S
Tb80 O100 2.484 . S
Tb80 O101 2.440 . S
Tb80 O102 2.658 . S
Tb80 O103 2.409 . S
Tb80 O104 2.378 . S
Tb80 O108 2.325 . S
Tb80 O111 2.341 . S
Tb81 C91 2.809 . S
Tb81 O102 2.325 . S
Tb81 O105 2.341 . S
Tb81 O106 2.484 . S
Tb81 O107 2.440 . S
Tb81 O108 2.658 . S
Tb81 O109 2.409 . S
Tb81 O110 2.378 . S
C82 Tb80 2.809 . S
C82 C83 1.514 . S
C82 O100 1.248 . S
C82 O101 1.266 . S
C83 C82 1.514 . S
C83 C84 1.359 . S
C83 C88 1.348 . S
C84 C83 1.359 . S
C84 C85 1.380 . S
C84 H112 0.929 . S
C85 C84 1.380 . S
C85 C86 1.347 1_556 S
C85 H113 0.931 . S
C86 C85 1.347 1_554 S
C86 C87 1.369 1_554 S
C87 C86 1.369 1_556 S
C87 C88 1.408 . S
C87 H114 0.930 1_556 S
C88 C83 1.348 . S
C88 C87 1.408 . S
C88 H115 0.930 . S
C89 O102 1.281 . S
C89 O103 1.254 . S
C90 O104 1.236 . S
C90 O105 1.266 . S
C91 Tb81 2.809 . S
C91 C92 1.514 . S
C91 O106 1.248 . S
C91 O107 1.266 . S
C92 C91 1.514 . S
C92 C93 1.359 . S
C92 C97 1.348 . S
C93 C92 1.359 . S
C93 C94 1.380 . S
C93 H116 0.929 . S
C94 C93 1.380 . S
C94 C95 1.347 . S
C94 H117 0.931 . S
C95 C94 1.347 . S
C95 C96 1.369 . S
C96 C95 1.369 . S
C96 C97 1.408 . S
C96 H118 0.930 . S
C97 C92 1.348 . S
C97 C96 1.408 . S
C97 H119 0.930 . S
C98 O108 1.281 . S
C98 O109 1.254 . S
C99 O110 1.236 . S
C99 O111 1.266 . S
O100 Tb80 2.484 . S
O100 C82 1.248 . S
O101 Tb80 2.440 . S
O101 C82 1.266 . S
O102 Tb80 2.658 . S
O102 Tb81 2.325 . S
O102 C89 1.281 . S
O103 Tb80 2.409 . S
O103 C89 1.254 . S
O104 Tb80 2.378 . S
O104 C90 1.236 . S
O105 Tb81 2.341 . S
O105 C90 1.266 . S
O106 Tb81 2.484 . S
O106 C91 1.248 . S
O107 Tb81 2.440 . S
O107 C91 1.266 . S
O108 Tb80 2.325 . S
O108 Tb81 2.658 . S
O108 C98 1.281 . S
O109 Tb81 2.409 . S
O109 C98 1.254 . S
O110 Tb81 2.378 . S
O110 C99 1.236 . S
O111 Tb80 2.341 . S
O111 C99 1.266 . S
H112 C84 0.929 . S
H113 C85 0.931 . S
H114 C87 0.930 1_554 S
H115 C88 0.930 . S
H116 C93 0.929 . S
H117 C94 0.931 . S
H118 C96 0.930 . S
H119 C97 0.930 . S
Tb120 C122 2.809 . S
Tb120 O140 2.484 . S
Tb120 O141 2.440 . S
Tb120 O142 2.658 . S
Tb120 O143 2.409 . S
Tb120 O144 2.378 . S
Tb120 O148 2.325 . S
Tb120 O151 2.341 . S
Tb121 C131 2.809 1_556 S
Tb121 O142 2.325 . S
Tb121 O145 2.341 . S
Tb121 O146 2.484 . S
Tb121 O147 2.440 . S
Tb121 O148 2.658 . S
Tb121 O149 2.409 . S
Tb121 O150 2.378 . S
C122 Tb120 2.809 . S
C122 C123 1.514 . S
C122 O140 1.248 . S
C122 O141 1.266 . S
C123 C122 1.514 . S
C123 C124 1.359 . S
C123 C128 1.348 . S
C124 C123 1.359 . S
C124 C125 1.380 . S
C124 H152 0.929 . S
C125 C124 1.380 . S
C125 C126 1.347 . S
C125 H153 0.931 . S
C126 C125 1.347 . S
C126 C127 1.369 . S
C127 C126 1.369 . S
C127 C128 1.408 . S
C127 H154 0.930 . S
C128 C123 1.348 . S
C128 C127 1.408 . S
C128 H155 0.930 . S
C129 O142 1.281 . S
C129 O143 1.254 . S
C130 O144 1.236 . S
C130 O145 1.266 . S
C131 Tb121 2.809 1_554 S
C131 C132 1.514 . S
C131 O146 1.248 1_554 S
C131 O147 1.266 1_554 S
C132 C131 1.514 . S
C132 C133 1.359 . S
C132 C137 1.348 . S
C133 C132 1.359 . S
C133 C134 1.380 . S
C133 H156 0.929 . S
C134 C133 1.380 . S
C134 C135 1.347 . S
C134 H157 0.931 . S
C135 C134 1.347 . S
C135 C136 1.369 . S
C136 C135 1.369 . S
C136 C137 1.408 . S
C136 H158 0.930 . S
C137 C132 1.348 . S
C137 C136 1.408 . S
C137 H159 0.930 . S
C138 O148 1.281 . S
C138 O149 1.254 . S
C139 O150 1.236 . S
C139 O151 1.266 . S
O140 Tb120 2.484 . S
O140 C122 1.248 . S
O141 Tb120 2.440 . S
O141 C122 1.266 . S
O142 Tb120 2.658 . S
O142 Tb121 2.325 . S
O142 C129 1.281 . S
O143 Tb120 2.409 . S
O143 C129 1.254 . S
O144 Tb120 2.378 . S
O144 C130 1.236 . S
O145 Tb121 2.341 . S
O145 C130 1.266 . S
O146 Tb121 2.484 . S
O146 C131 1.248 1_556 S
O147 Tb121 2.440 . S
O147 C131 1.266 1_556 S
O148 Tb120 2.325 . S
O148 Tb121 2.658 . S
O148 C138 1.281 . S
O149 Tb121 2.409 . S
O149 C138 1.254 . S
O150 Tb121 2.378 . S
O150 C139 1.236 . S
O151 Tb120 2.341 . S
O151 C139 1.266 . S
H152 C124 0.929 . S
H153 C125 0.931 . S
H154 C127 0.930 . S
H155 C128 0.930 . S
H156 C133 0.929 . S
H157 C134 0.931 . S
H158 C136 0.930 . S
H159 C137 0.930 . S
Tb160 C162 2.809 . S
Tb160 O180 2.484 . S
Tb160 O181 2.440 . S
Tb160 O182 2.658 . S
Tb160 O183 2.409 . S
Tb160 O184 2.378 . S
Tb160 O188 2.325 . S
Tb160 O191 2.341 . S
Tb161 C171 2.809 1_556 S
Tb161 O182 2.325 . S
Tb161 O185 2.341 . S
Tb161 O186 2.484 . S
Tb161 O187 2.440 . S
Tb161 O188 2.658 . S
Tb161 O189 2.409 . S
Tb161 O190 2.378 . S
C162 Tb160 2.809 . S
C162 C163 1.514 . S
C162 O180 1.248 . S
C162 O181 1.266 . S
C163 C162 1.514 . S
C163 C164 1.359 . S
C163 C168 1.348 . S
C164 C163 1.359 . S
C164 C165 1.380 . S
C164 H192 0.929 . S
C165 C164 1.380 . S
C165 C166 1.347 . S
C165 H193 0.931 . S
C166 C165 1.347 . S
C166 C167 1.369 . S
C167 C166 1.369 . S
C167 C168 1.408 . S
C167 H194 0.930 . S
C168 C163 1.348 . S
C168 C167 1.408 . S
C168 H195 0.930 . S
C169 O182 1.281 . S
C169 O183 1.254 . S
C170 O184 1.236 . S
C170 O185 1.266 . S
C171 Tb161 2.809 1_554 S
C171 C172 1.514 . S
C171 O186 1.248 1_554 S
C171 O187 1.266 1_554 S
C172 C171 1.514 . S
C172 C173 1.359 . S
C172 C177 1.348 . S
C173 C172 1.359 . S
C173 C174 1.380 . S
C173 H196 0.929 . S
C174 C173 1.380 . S
C174 C175 1.347 . S
C174 H197 0.931 . S
C175 C174 1.347 . S
C175 C176 1.369 . S
C176 C175 1.369 . S
C176 C177 1.408 . S
C176 H198 0.930 . S
C177 C172 1.348 . S
C177 C176 1.408 . S
C177 H199 0.930 . S
C178 O188 1.281 . S
C178 O189 1.254 . S
C179 O190 1.236 . S
C179 O191 1.266 . S
O180 Tb160 2.484 . S
O180 C162 1.248 . S
O181 Tb160 2.440 . S
O181 C162 1.266 . S
O182 Tb160 2.658 . S
O182 Tb161 2.325 . S
O182 C169 1.281 . S
O183 Tb160 2.409 . S
O183 C169 1.254 . S
O184 Tb160 2.378 . S
O184 C170 1.236 . S
O185 Tb161 2.341 . S
O185 C170 1.266 . S
O186 Tb161 2.484 . S
O186 C171 1.248 1_556 S
O187 Tb161 2.440 . S
O187 C171 1.266 1_556 S
O188 Tb160 2.325 . S
O188 Tb161 2.658 . S
O188 C178 1.281 . S
O189 Tb161 2.409 . S
O189 C178 1.254 . S
O190 Tb161 2.378 . S
O190 C179 1.236 . S
O191 Tb160 2.341 . S
O191 C179 1.266 . S
H192 C164 0.929 . S
H193 C165 0.931 . S
H194 C167 0.930 . S
H195 C168 0.930 . S
H196 C173 0.929 . S
H197 C174 0.931 . S
H198 C176 0.930 . S
H199 C177 0.930 . S
Tb200 C202 2.809 . S
Tb200 O220 2.484 . S
Tb200 O221 2.440 . S
Tb200 O222 2.658 . S
Tb200 O223 2.409 . S
Tb200 O224 2.378 . S
Tb200 O228 2.325 . S
Tb200 O231 2.341 . S
Tb201 C211 2.809 . S
Tb201 O222 2.325 . S
Tb201 O225 2.341 . S
Tb201 O226 2.484 . S
Tb201 O227 2.440 . S
Tb201 O228 2.658 . S
Tb201 O229 2.409 . S
Tb201 O230 2.378 . S
C202 Tb200 2.809 . S
C202 C203 1.514 . S
C202 O220 1.248 . S
C202 O221 1.266 . S
C203 C202 1.514 . S
C203 C204 1.359 . S
C203 C208 1.348 . S
C204 C203 1.359 . S
C204 C205 1.380 . S
C204 H232 0.929 . S
C205 C204 1.380 . S
C205 C206 1.347 . S
C205 H233 0.931 . S
C206 C205 1.347 . S
C206 C207 1.369 . S
C207 C206 1.369 . S
C207 C208 1.408 . S
C207 H234 0.930 . S
C208 C203 1.348 . S
C208 C207 1.408 . S
C208 H235 0.930 . S
C209 O222 1.281 . S
C209 O223 1.254 . S
C210 O224 1.236 . S
C210 O225 1.266 . S
C211 Tb201 2.809 . S
C211 C212 1.514 1_554 S
C211 O226 1.248 . S
C211 O227 1.266 . S
C212 C211 1.514 1_556 S
C212 C213 1.359 . S
C212 C217 1.348 . S
C213 C212 1.359 . S
C213 C214 1.380 . S
C213 H236 0.929 . S
C214 C213 1.380 . S
C214 C215 1.347 . S
C214 H237 0.931 . S
C215 C214 1.347 . S
C215 C216 1.369 . S
C216 C215 1.369 . S
C216 C217 1.408 . S
C216 H238 0.930 . S
C217 C212 1.348 . S
C217 C216 1.408 . S
C217 H239 0.930 . S
C218 O228 1.281 . S
C218 O229 1.254 . S
C219 O230 1.236 . S
C219 O231 1.266 . S
O220 Tb200 2.484 . S
O220 C202 1.248 . S
O221 Tb200 2.440 . S
O221 C202 1.266 . S
O222 Tb200 2.658 . S
O222 Tb201 2.325 . S
O222 C209 1.281 . S
O223 Tb200 2.409 . S
O223 C209 1.254 . S
O224 Tb200 2.378 . S
O224 C210 1.236 . S
O225 Tb201 2.341 . S
O225 C210 1.266 . S
O226 Tb201 2.484 . S
O226 C211 1.248 . S
O227 Tb201 2.440 . S
O227 C211 1.266 . S
O228 Tb200 2.325 . S
O228 Tb201 2.658 . S
O228 C218 1.281 . S
O229 Tb201 2.409 . S
O229 C218 1.254 . S
O230 Tb201 2.378 . S
O230 C219 1.236 . S
O231 Tb200 2.341 . S
O231 C219 1.266 . S
H232 C204 0.929 . S
H233 C205 0.931 . S
H234 C207 0.930 . S
H235 C208 0.930 . S
H236 C213 0.929 . S
H237 C214 0.931 . S
H238 C216 0.930 . S
H239 C217 0.930 . S
Tb240 C242 2.809 . S
Tb240 O260 2.484 . S
Tb240 O261 2.440 . S
Tb240 O262 2.658 . S
Tb240 O263 2.409 . S
Tb240 O264 2.378 . S
Tb240 O268 2.325 . S
Tb240 O271 2.341 . S
Tb241 C251 2.809 . S
Tb241 O262 2.325 . S
Tb241 O265 2.341 . S
Tb241 O266 2.484 . S
Tb241 O267 2.440 . S
Tb241 O268 2.658 . S
Tb241 O269 2.409 . S
Tb241 O270 2.378 . S
C242 Tb240 2.809 . S
C242 C243 1.514 . S
C242 O260 1.248 . S
C242 O261 1.266 . S
C243 C242 1.514 . S
C243 C244 1.359 . S
C243 C248 1.348 . S
C244 C243 1.359 . S
C244 C245 1.380 . S
C244 H272 0.929 . S
C245 C244 1.380 . S
C245 C246 1.347 . S
C245 H273 0.931 . S
C246 C245 1.347 . S
C246 C247 1.369 . S
C247 C246 1.369 . S
C247 C248 1.408 . S
C247 H274 0.930 . S
C248 C243 1.348 . S
C248 C247 1.408 . S
C248 H275 0.930 . S
C249 O262 1.281 . S
C249 O263 1.254 . S
C250 O264 1.236 . S
C250 O265 1.266 . S
C251 Tb241 2.809 . S
C251 C252 1.514 . S
C251 O266 1.248 . S
C251 O267 1.266 . S
C252 C251 1.514 . S
C252 C253 1.359 . S
C252 C257 1.348 . S
C253 C252 1.359 . S
C253 C254 1.380 . S
C253 H276 0.929 . S
C254 C253 1.380 . S
C254 C255 1.347 . S
C254 H277 0.931 . S
C255 C254 1.347 . S
C255 C256 1.369 . S
C256 C255 1.369 . S
C256 C257 1.408 . S
C256 H278 0.930 . S
C257 C252 1.348 . S
C257 C256 1.408 . S
C257 H279 0.930 . S
C258 O268 1.281 . S
C258 O269 1.254 . S
C259 O270 1.236 . S
C259 O271 1.266 . S
O260 Tb240 2.484 . S
O260 C242 1.248 . S
O261 Tb240 2.440 . S
O261 C242 1.266 . S
O262 Tb240 2.658 . S
O262 Tb241 2.325 . S
O262 C249 1.281 . S
O263 Tb240 2.409 . S
O263 C249 1.254 . S
O264 Tb240 2.378 . S
O264 C250 1.236 . S
O265 Tb241 2.341 . S
O265 C250 1.266 . S
O266 Tb241 2.484 . S
O266 C251 1.248 . S
O267 Tb241 2.440 . S
O267 C251 1.266 . S
O268 Tb240 2.325 . S
O268 Tb241 2.658 . S
O268 C258 1.281 . S
O269 Tb241 2.409 . S
O269 C258 1.254 . S
O270 Tb241 2.378 . S
O270 C259 1.236 . S
O271 Tb240 2.341 . S
O271 C259 1.266 . S
H272 C244 0.929 . S
H273 C245 0.931 . S
H274 C247 0.930 . S
H275 C248 0.930 . S
H276 C253 0.929 . S
H277 C254 0.931 . S
H278 C256 0.930 . S
H279 C257 0.930 . S
Tb280 C282 2.809 . S
Tb280 O300 2.484 . S
Tb280 O301 2.440 . S
Tb280 O302 2.658 . S
Tb280 O303 2.409 . S
Tb280 O304 2.378 . S
Tb280 O308 2.325 . S
Tb280 O311 2.341 . S
Tb281 C291 2.809 . S
Tb281 O302 2.325 . S
Tb281 O305 2.341 . S
Tb281 O306 2.484 . S
Tb281 O307 2.440 . S
Tb281 O308 2.658 . S
Tb281 O309 2.409 . S
Tb281 O310 2.378 . S
C282 Tb280 2.809 . S
C282 C283 1.514 . S
C282 O300 1.248 . S
C282 O301 1.266 . S
C283 C282 1.514 . S
C283 C284 1.359 . S
C283 C288 1.348 . S
C284 C283 1.359 . S
C284 C285 1.380 . S
C284 H312 0.929 . S
C285 C284 1.380 . S
C285 C286 1.347 1_556 S
C285 H313 0.931 . S
C286 C285 1.347 1_554 S
C286 C287 1.369 1_554 S
C287 C286 1.369 1_556 S
C287 C288 1.408 . S
C287 H314 0.930 1_556 S
C288 C283 1.348 . S
C288 C287 1.408 . S
C288 H315 0.930 . S
C289 O302 1.281 . S
C289 O303 1.254 . S
C290 O304 1.236 . S
C290 O305 1.266 . S
C291 Tb281 2.809 . S
C291 C292 1.514 . S
C291 O306 1.248 . S
C291 O307 1.266 . S
C292 C291 1.514 . S
C292 C293 1.359 . S
C292 C297 1.348 . S
C293 C292 1.359 . S
C293 C294 1.380 . S
C293 H316 0.929 . S
C294 C293 1.380 . S
C294 C295 1.347 . S
C294 H317 0.931 . S
C295 C294 1.347 . S
C295 C296 1.369 . S
C296 C295 1.369 . S
C296 C297 1.408 . S
C296 H318 0.930 . S
C297 C292 1.348 . S
C297 C296 1.408 . S
C297 H319 0.930 . S
C298 O308 1.281 . S
C298 O309 1.254 . S
C299 O310 1.236 . S
C299 O311 1.266 . S
O300 Tb280 2.484 . S
O300 C282 1.248 . S
O301 Tb280 2.440 . S
O301 C282 1.266 . S
O302 Tb280 2.658 . S
O302 Tb281 2.325 . S
O302 C289 1.281 . S
O303 Tb280 2.409 . S
O303 C289 1.254 . S
O304 Tb280 2.378 . S
O304 C290 1.236 . S
O305 Tb281 2.341 . S
O305 C290 1.266 . S
O306 Tb281 2.484 . S
O306 C291 1.248 . S
O307 Tb281 2.440 . S
O307 C291 1.266 . S
O308 Tb280 2.325 . S
O308 Tb281 2.658 . S
O308 C298 1.281 . S
O309 Tb281 2.409 . S
O309 C298 1.254 . S
O310 Tb281 2.378 . S
O310 C299 1.236 . S
O311 Tb280 2.341 . S
O311 C299 1.266 . S
H312 C284 0.929 . S
H313 C285 0.931 . S
H314 C287 0.930 1_554 S
H315 C288 0.930 . S
H316 C293 0.929 . S
H317 C294 0.931 . S
H318 C296 0.930 . S
H319 C297 0.930 . S
Tb320 C322 2.809 . S
Tb320 O340 2.484 . S
Tb320 O341 2.440 . S
Tb320 O342 2.658 . S
Tb320 O343 2.409 . S
Tb320 O344 2.378 . S
Tb320 O348 2.325 . S
Tb320 O351 2.341 . S
Tb321 C331 2.809 . S
Tb321 O342 2.325 . S
Tb321 O345 2.341 . S
Tb321 O346 2.484 . S
Tb321 O347 2.440 . S
Tb321 O348 2.658 . S
Tb321 O349 2.409 . S
Tb321 O350 2.378 . S
C322 Tb320 2.809 . S
C322 C323 1.514 1_556 S
C322 O340 1.248 . S
C322 O341 1.266 . S
C323 C322 1.514 1_554 S
C323 C324 1.359 . S
C323 C328 1.348 . S
C324 C323 1.359 . S
C324 C325 1.380 . S
C324 H352 0.929 . S
C325 C324 1.380 . S
C325 C326 1.347 . S
C325 H353 0.931 . S
C326 C325 1.347 . S
C326 C327 1.369 . S
C327 C326 1.369 . S
C327 C328 1.408 . S
C327 H354 0.930 . S
C328 C323 1.348 . S
C328 C327 1.408 . S
C328 H355 0.930 . S
C329 O342 1.281 . S
C329 O343 1.254 . S
C330 O344 1.236 . S
C330 O345 1.266 . S
C331 Tb321 2.809 . S
C331 C332 1.514 . S
C331 O346 1.248 . S
C331 O347 1.266 . S
C332 C331 1.514 . S
C332 C333 1.359 . S
C332 C337 1.348 . S
C333 C332 1.359 . S
C333 C334 1.380 . S
C333 H356 0.929 . S
C334 C333 1.380 . S
C334 C335 1.347 . S
C334 H357 0.931 . S
C335 C334 1.347 . S
C335 C336 1.369 . S
C336 C335 1.369 . S
C336 C337 1.408 . S
C336 H358 0.930 . S
C337 C332 1.348 . S
C337 C336 1.408 . S
C337 H359 0.930 . S
C338 O348 1.281 . S
C338 O349 1.254 . S
C339 O350 1.236 . S
C339 O351 1.266 . S
O340 Tb320 2.484 . S
O340 C322 1.248 . S
O341 Tb320 2.440 . S
O341 C322 1.266 . S
O342 Tb320 2.658 . S
O342 Tb321 2.325 . S
O342 C329 1.281 . S
O343 Tb320 2.409 . S
O343 C329 1.254 . S
O344 Tb320 2.378 . S
O344 C330 1.236 . S
O345 Tb321 2.341 . S
O345 C330 1.266 . S
O346 Tb321 2.484 . S
O346 C331 1.248 . S
O347 Tb321 2.440 . S
O347 C331 1.266 . S
O348 Tb320 2.325 . S
O348 Tb321 2.658 . S
O348 C338 1.281 . S
O349 Tb321 2.409 . S
O349 C338 1.254 . S
O350 Tb321 2.378 . S
O350 C339 1.236 . S
O351 Tb320 2.341 . S
O351 C339 1.266 . S
H352 C324 0.929 . S
H353 C325 0.931 . S
H354 C327 0.930 . S
H355 C328 0.930 . S
H356 C333 0.929 . S
H357 C334 0.931 . S
H358 C336 0.930 . S
H359 C337 0.930 . S
Tb360 C362 2.809 . S
Tb360 O380 2.484 . S
Tb360 O381 2.440 . S
Tb360 O382 2.658 . S
Tb360 O383 2.409 . S
Tb360 O384 2.378 . S
Tb360 O388 2.325 . S
Tb360 O391 2.341 . S
Tb361 C371 2.809 . S
Tb361 O382 2.325 . S
Tb361 O385 2.341 . S
Tb361 O386 2.484 . S
Tb361 O387 2.440 . S
Tb361 O388 2.658 . S
Tb361 O389 2.409 . S
Tb361 O390 2.378 . S
C362 Tb360 2.809 . S
C362 C363 1.514 . S
C362 O380 1.248 . S
C362 O381 1.266 . S
C363 C362 1.514 . S
C363 C364 1.359 . S
C363 C368 1.348 . S
C364 C363 1.359 . S
C364 C365 1.380 . S
C364 H392 0.929 . S
C365 C364 1.380 . S
C365 C366 1.347 . S
C365 H393 0.931 . S
C366 C365 1.347 . S
C366 C367 1.369 . S
C367 C366 1.369 . S
C367 C368 1.408 . S
C367 H394 0.930 . S
C368 C363 1.348 . S
C368 C367 1.408 . S
C368 H395 0.930 . S
C369 O382 1.281 . S
C369 O383 1.254 . S
C370 O384 1.236 . S
C370 O385 1.266 . S
C371 Tb361 2.809 . S
C371 C372 1.514 . S
C371 O386 1.248 . S
C371 O387 1.266 . S
C372 C371 1.514 . S
C372 C373 1.359 . S
C372 C377 1.348 . S
C373 C372 1.359 . S
C373 C374 1.380 . S
C373 H396 0.929 . S
C374 C373 1.380 . S
C374 C375 1.347 . S
C374 H397 0.931 . S
C375 C374 1.347 . S
C375 C376 1.369 . S
C376 C375 1.369 . S
C376 C377 1.408 . S
C376 H398 0.930 . S
C377 C372 1.348 . S
C377 C376 1.408 . S
C377 H399 0.930 . S
C378 O388 1.281 . S
C378 O389 1.254 . S
C379 O390 1.236 . S
C379 O391 1.266 . S
O380 Tb360 2.484 . S
O380 C362 1.248 . S
O381 Tb360 2.440 . S
O381 C362 1.266 . S
O382 Tb360 2.658 . S
O382 Tb361 2.325 . S
O382 C369 1.281 . S
O383 Tb360 2.409 . S
O383 C369 1.254 . S
O384 Tb360 2.378 . S
O384 C370 1.236 . S
O385 Tb361 2.341 . S
O385 C370 1.266 . S
O386 Tb361 2.484 . S
O386 C371 1.248 . S
O387 Tb361 2.440 . S
O387 C371 1.266 . S
O388 Tb360 2.325 . S
O388 Tb361 2.658 . S
O388 C378 1.281 . S
O389 Tb361 2.409 . S
O389 C378 1.254 . S
O390 Tb361 2.378 . S
O390 C379 1.236 . S
O391 Tb360 2.341 . S
O391 C379 1.266 . S
H392 C364 0.929 . S
H393 C365 0.931 . S
H394 C367 0.930 . S
H395 C368 0.930 . S
H396 C373 0.929 . S
H397 C374 0.931 . S
H398 C376 0.930 . S
H399 C377 0.930 . S
Tb400 C402 2.809 . S
Tb400 O420 2.484 . S
Tb400 O421 2.440 . S
Tb400 O422 2.658 . S
Tb400 O423 2.409 . S
Tb400 O424 2.378 . S
Tb400 O428 2.325 . S
Tb400 O431 2.341 . S
Tb401 C411 2.809 . S
Tb401 O422 2.325 . S
Tb401 O425 2.341 . S
Tb401 O426 2.484 . S
Tb401 O427 2.440 . S
Tb401 O428 2.658 . S
Tb401 O429 2.409 . S
Tb401 O430 2.378 . S
C402 Tb400 2.809 . S
C402 C403 1.514 . S
C402 O420 1.248 . S
C402 O421 1.266 . S
C403 C402 1.514 . S
C403 C404 1.359 . S
C403 C408 1.348 . S
C404 C403 1.359 . S
C404 C405 1.380 . S
C404 H432 0.929 . S
C405 C404 1.380 . S
C405 C406 1.347 . S
C405 H433 0.931 . S
C406 C405 1.347 . S
C406 C407 1.369 . S
C407 C406 1.369 . S
C407 C408 1.408 . S
C407 H434 0.930 . S
C408 C403 1.348 . S
C408 C407 1.408 . S
C408 H435 0.930 . S
C409 O422 1.281 . S
C409 O423 1.254 . S
C410 O424 1.236 . S
C410 O425 1.266 . S
C411 Tb401 2.809 . S
C411 C412 1.514 . S
C411 O426 1.248 . S
C411 O427 1.266 . S
C412 C411 1.514 . S
C412 C413 1.359 . S
C412 C417 1.348 . S
C413 C412 1.359 . S
C413 C414 1.380 . S
C413 H436 0.929 . S
C414 C413 1.380 . S
C414 C415 1.347 . S
C414 H437 0.931 . S
C415 C414 1.347 . S
C415 C416 1.369 . S
C416 C415 1.369 . S
C416 C417 1.408 . S
C416 H438 0.930 . S
C417 C412 1.348 . S
C417 C416 1.408 . S
C417 H439 0.930 . S
C418 O428 1.281 . S
C418 O429 1.254 . S
C419 O430 1.236 . S
C419 O431 1.266 . S
O420 Tb400 2.484 . S
O420 C402 1.248 . S
O421 Tb400 2.440 . S
O421 C402 1.266 . S
O422 Tb400 2.658 . S
O422 Tb401 2.325 . S
O422 C409 1.281 . S
O423 Tb400 2.409 . S
O423 C409 1.254 . S
O424 Tb400 2.378 . S
O424 C410 1.236 . S
O425 Tb401 2.341 . S
O425 C410 1.266 . S
O426 Tb401 2.484 . S
O426 C411 1.248 . S
O427 Tb401 2.440 . S
O427 C411 1.266 . S
O428 Tb400 2.325 . S
O428 Tb401 2.658 . S
O428 C418 1.281 . S
O429 Tb401 2.409 . S
O429 C418 1.254 . S
O430 Tb401 2.378 . S
O430 C419 1.236 . S
O431 Tb400 2.341 . S
O431 C419 1.266 . S
H432 C404 0.929 . S
H433 C405 0.931 . S
H434 C407 0.930 . S
H435 C408 0.930 . S
H436 C413 0.929 . S
H437 C414 0.931 . S
H438 C416 0.930 . S
H439 C417 0.930 . S
Tb440 C442 2.809 1_554 S
Tb440 O460 2.484 . S
Tb440 O461 2.440 . S
Tb440 O462 2.658 . S
Tb440 O463 2.409 . S
Tb440 O464 2.378 . S
Tb440 O468 2.325 . S
Tb440 O471 2.341 . S
Tb441 C451 2.809 . S
Tb441 O462 2.325 . S
Tb441 O465 2.341 . S
Tb441 O466 2.484 . S
Tb441 O467 2.440 . S
Tb441 O468 2.658 . S
Tb441 O469 2.409 . S
Tb441 O470 2.378 . S
C442 Tb440 2.809 1_556 S
C442 C443 1.514 . S
C442 O460 1.248 1_556 S
C442 O461 1.266 1_556 S
C443 C442 1.514 . S
C443 C444 1.359 . S
C443 C448 1.348 . S
C444 C443 1.359 . S
C444 C445 1.380 . S
C444 H472 0.929 . S
C445 C444 1.380 . S
C445 C446 1.347 . S
C445 H473 0.931 . S
C446 C445 1.347 . S
C446 C447 1.369 . S
C447 C446 1.369 . S
C447 C448 1.408 . S
C447 H474 0.930 . S
C448 C443 1.348 . S
C448 C447 1.408 . S
C448 H475 0.930 . S
C449 O462 1.281 . S
C449 O463 1.254 . S
C450 O464 1.236 . S
C450 O465 1.266 . S
C451 Tb441 2.809 . S
C451 C452 1.514 . S
C451 O466 1.248 . S
C451 O467 1.266 . S
C452 C451 1.514 . S
C452 C453 1.359 . S
C452 C457 1.348 . S
C453 C452 1.359 . S
C453 C454 1.380 . S
C453 H476 0.929 . S
C454 C453 1.380 . S
C454 C455 1.347 . S
C454 H477 0.931 . S
C455 C454 1.347 . S
C455 C456 1.369 . S
C456 C455 1.369 . S
C456 C457 1.408 . S
C456 H478 0.930 . S
C457 C452 1.348 . S
C457 C456 1.408 . S
C457 H479 0.930 . S
C458 O468 1.281 . S
C458 O469 1.254 . S
C459 O470 1.236 . S
C459 O471 1.266 . S
O460 Tb440 2.484 . S
O460 C442 1.248 1_554 S
O461 Tb440 2.440 . S
O461 C442 1.266 1_554 S
O462 Tb440 2.658 . S
O462 Tb441 2.325 . S
O462 C449 1.281 . S
O463 Tb440 2.409 . S
O463 C449 1.254 . S
O464 Tb440 2.378 . S
O464 C450 1.236 . S
O465 Tb441 2.341 . S
O465 C450 1.266 . S
O466 Tb441 2.484 . S
O466 C451 1.248 . S
O467 Tb441 2.440 . S
O467 C451 1.266 . S
O468 Tb440 2.325 . S
O468 Tb441 2.658 . S
O468 C458 1.281 . S
O469 Tb441 2.409 . S
O469 C458 1.254 . S
O470 Tb441 2.378 . S
O470 C459 1.236 . S
O471 Tb440 2.341 . S
O471 C459 1.266 . S
H472 C444 0.929 . S
H473 C445 0.931 . S
H474 C447 0.930 . S
H475 C448 0.930 . S
H476 C453 0.929 . S
H477 C454 0.931 . S
H478 C456 0.930 . S
H479 C457 0.930 . S
Tb480 C482 2.809 1_554 S
Tb480 O500 2.484 . S
Tb480 O501 2.440 . S
Tb480 O502 2.658 . S
Tb480 O503 2.409 . S
Tb480 O504 2.378 . S
Tb480 O508 2.325 . S
Tb480 O511 2.341 . S
Tb481 C491 2.809 . S
Tb481 O502 2.325 . S
Tb481 O505 2.341 . S
Tb481 O506 2.484 . S
Tb481 O507 2.440 . S
Tb481 O508 2.658 . S
Tb481 O509 2.409 . S
Tb481 O510 2.378 . S
C482 Tb480 2.809 1_556 S
C482 C483 1.514 . S
C482 O500 1.248 1_556 S
C482 O501 1.266 1_556 S
C483 C482 1.514 . S
C483 C484 1.359 . S
C483 C488 1.348 . S
C484 C483 1.359 . S
C484 C485 1.380 . S
C484 H512 0.929 . S
C485 C484 1.380 . S
C485 C486 1.347 . S
C485 H513 0.931 . S
C486 C485 1.347 . S
C486 C487 1.369 . S
C487 C486 1.369 . S
C487 C488 1.408 . S
C487 H514 0.930 . S
C488 C483 1.348 . S
C488 C487 1.408 . S
C488 H515 0.930 . S
C489 O502 1.281 . S
C489 O503 1.254 . S
C490 O504 1.236 . S
C490 O505 1.266 . S
C491 Tb481 2.809 . S
C491 C492 1.514 . S
C491 O506 1.248 . S
C491 O507 1.266 . S
C492 C491 1.514 . S
C492 C493 1.359 . S
C492 C497 1.348 . S
C493 C492 1.359 . S
C493 C494 1.380 . S
C493 H516 0.929 . S
C494 C493 1.380 . S
C494 C495 1.347 . S
C494 H517 0.931 . S
C495 C494 1.347 . S
C495 C496 1.369 . S
C496 C495 1.369 . S
C496 C497 1.408 . S
C496 H518 0.930 . S
C497 C492 1.348 . S
C497 C496 1.408 . S
C497 H519 0.930 . S
C498 O508 1.281 . S
C498 O509 1.254 . S
C499 O510 1.236 . S
C499 O511 1.266 . S
O500 Tb480 2.484 . S
O500 C482 1.248 1_554 S
O501 Tb480 2.440 . S
O501 C482 1.266 1_554 S
O502 Tb480 2.658 . S
O502 Tb481 2.325 . S
O502 C489 1.281 . S
O503 Tb480 2.409 . S
O503 C489 1.254 . S
O504 Tb480 2.378 . S
O504 C490 1.236 . S
O505 Tb481 2.341 . S
O505 C490 1.266 . S
O506 Tb481 2.484 . S
O506 C491 1.248 . S
O507 Tb481 2.440 . S
O507 C491 1.266 . S
O508 Tb480 2.325 . S
O508 Tb481 2.658 . S
O508 C498 1.281 . S
O509 Tb481 2.409 . S
O509 C498 1.254 . S
O510 Tb481 2.378 . S
O510 C499 1.236 . S
O511 Tb480 2.341 . S
O511 C499 1.266 . S
H512 C484 0.929 . S
H513 C485 0.931 . S
H514 C487 0.930 . S
H515 C488 0.930 . S
H516 C493 0.929 . S
H517 C494 0.931 . S
H518 C496 0.930 . S
H519 C497 0.930 . S
Tb520 C522 2.809 . S
Tb520 O540 2.484 . S
Tb520 O541 2.440 . S
Tb520 O542 2.658 . S
Tb520 O543 2.409 . S
Tb520 O544 2.378 . S
Tb520 O548 2.325 . S
Tb520 O551 2.341 . S
Tb521 C531 2.809 . S
Tb521 O542 2.325 . S
Tb521 O545 2.341 . S
Tb521 O546 2.484 . S
Tb521 O547 2.440 . S
Tb521 O548 2.658 . S
Tb521 O549 2.409 . S
Tb521 O550 2.378 . S
C522 Tb520 2.809 . S
C522 C523 1.514 . S
C522 O540 1.248 . S
C522 O541 1.266 . S
C523 C522 1.514 . S
C523 C524 1.359 . S
C523 C528 1.348 . S
C524 C523 1.359 . S
C524 C525 1.380 . S
C524 H552 0.929 . S
C525 C524 1.380 . S
C525 C526 1.347 . S
C525 H553 0.931 . S
C526 C525 1.347 . S
C526 C527 1.369 . S
C527 C526 1.369 . S
C527 C528 1.408 . S
C527 H554 0.930 . S
C528 C523 1.348 . S
C528 C527 1.408 . S
C528 H555 0.930 . S
C529 O542 1.281 . S
C529 O543 1.254 . S
C530 O544 1.236 . S
C530 O545 1.266 . S
C531 Tb521 2.809 . S
C531 C532 1.514 1_556 S
C531 O546 1.248 . S
C531 O547 1.266 . S
C532 C531 1.514 1_554 S
C532 C533 1.359 . S
C532 C537 1.348 . S
C533 C532 1.359 . S
C533 C534 1.380 . S
C533 H556 0.929 . S
C534 C533 1.380 . S
C534 C535 1.347 . S
C534 H557 0.931 . S
C535 C534 1.347 . S
C535 C536 1.369 . S
C536 C535 1.369 . S
C536 C537 1.408 . S
C536 H558 0.930 . S
C537 C532 1.348 . S
C537 C536 1.408 . S
C537 H559 0.930 . S
C538 O548 1.281 . S
C538 O549 1.254 . S
C539 O550 1.236 . S
C539 O551 1.266 . S
O540 Tb520 2.484 . S
O540 C522 1.248 . S
O541 Tb520 2.440 . S
O541 C522 1.266 . S
O542 Tb520 2.658 . S
O542 Tb521 2.325 . S
O542 C529 1.281 . S
O543 Tb520 2.409 . S
O543 C529 1.254 . S
O544 Tb520 2.378 . S
O544 C530 1.236 . S
O545 Tb521 2.341 . S
O545 C530 1.266 . S
O546 Tb521 2.484 . S
O546 C531 1.248 . S
O547 Tb521 2.440 . S
O547 C531 1.266 . S
O548 Tb520 2.325 . S
O548 Tb521 2.658 . S
O548 C538 1.281 . S
O549 Tb521 2.409 . S
O549 C538 1.254 . S
O550 Tb521 2.378 . S
O550 C539 1.236 . S
O551 Tb520 2.341 . S
O551 C539 1.266 . S
H552 C524 0.929 . S
H553 C525 0.931 . S
H554 C527 0.930 . S
H555 C528 0.930 . S
H556 C533 0.929 . S
H557 C534 0.931 . S
H558 C536 0.930 . S
H559 C537 0.930 . S
Tb560 C562 2.809 . S
Tb560 O580 2.484 . S
Tb560 O581 2.440 . S
Tb560 O582 2.658 . S
Tb560 O583 2.409 . S
Tb560 O584 2.378 . S
Tb560 O588 2.325 . S
Tb560 O591 2.341 . S
Tb561 C571 2.809 . S
Tb561 O582 2.325 . S
Tb561 O585 2.341 . S
Tb561 O586 2.484 . S
Tb561 O587 2.440 . S
Tb561 O588 2.658 . S
Tb561 O589 2.409 . S
Tb561 O590 2.378 . S
C562 Tb560 2.809 . S
C562 C563 1.514 . S
C562 O580 1.248 . S
C562 O581 1.266 . S
C563 C562 1.514 . S
C563 C564 1.359 . S
C563 C568 1.348 . S
C564 C563 1.359 . S
C564 C565 1.380 . S
C564 H592 0.929 . S
C565 C564 1.380 . S
C565 C566 1.347 . S
C565 H593 0.931 . S
C566 C565 1.347 . S
C566 C567 1.369 . S
C567 C566 1.369 . S
C567 C568 1.408 . S
C567 H594 0.930 . S
C568 C563 1.348 . S
C568 C567 1.408 . S
C568 H595 0.930 . S
C569 O582 1.281 . S
C569 O583 1.254 . S
C570 O584 1.236 . S
C570 O585 1.266 . S
C571 Tb561 2.809 . S
C571 C572 1.514 . S
C571 O586 1.248 . S
C571 O587 1.266 . S
C572 C571 1.514 . S
C572 C573 1.359 . S
C572 C577 1.348 . S
C573 C572 1.359 . S
C573 C574 1.380 . S
C573 H596 0.929 . S
C574 C573 1.380 . S
C574 C575 1.347 . S
C574 H597 0.931 . S
C575 C574 1.347 . S
C575 C576 1.369 . S
C576 C575 1.369 . S
C576 C577 1.408 . S
C576 H598 0.930 . S
C577 C572 1.348 . S
C577 C576 1.408 . S
C577 H599 0.930 . S
C578 O588 1.281 . S
C578 O589 1.254 . S
C579 O590 1.236 . S
C579 O591 1.266 . S
O580 Tb560 2.484 . S
O580 C562 1.248 . S
O581 Tb560 2.440 . S
O581 C562 1.266 . S
O582 Tb560 2.658 . S
O582 Tb561 2.325 . S
O582 C569 1.281 . S
O583 Tb560 2.409 . S
O583 C569 1.254 . S
O584 Tb560 2.378 . S
O584 C570 1.236 . S
O585 Tb561 2.341 . S
O585 C570 1.266 . S
O586 Tb561 2.484 . S
O586 C571 1.248 . S
O587 Tb561 2.440 . S
O587 C571 1.266 . S
O588 Tb560 2.325 . S
O588 Tb561 2.658 . S
O588 C578 1.281 . S
O589 Tb561 2.409 . S
O589 C578 1.254 . S
O590 Tb561 2.378 . S
O590 C579 1.236 . S
O591 Tb560 2.341 . S
O591 C579 1.266 . S
H592 C564 0.929 . S
H593 C565 0.931 . S
H594 C567 0.930 . S
H595 C568 0.930 . S
H596 C573 0.929 . S
H597 C574 0.931 . S
H598 C576 0.930 . S
H599 C577 0.930 . S
Tb600 C602 2.809 . S
Tb600 O620 2.484 . S
Tb600 O621 2.440 . S
Tb600 O622 2.658 . S
Tb600 O623 2.409 . S
Tb600 O624 2.378 . S
Tb600 O628 2.325 . S
Tb600 O631 2.341 . S
Tb601 C611 2.809 . S
Tb601 O622 2.325 . S
Tb601 O625 2.341 . S
Tb601 O626 2.484 . S
Tb601 O627 2.440 . S
Tb601 O628 2.658 . S
Tb601 O629 2.409 . S
Tb601 O630 2.378 . S
C602 Tb600 2.809 . S
C602 C603 1.514 . S
C602 O620 1.248 . S
C602 O621 1.266 . S
C603 C602 1.514 . S
C603 C604 1.359 . S
C603 C608 1.348 . S
C604 C603 1.359 . S
C604 C605 1.380 . S
C604 H632 0.929 . S
C605 C604 1.380 . S
C605 C606 1.347 . S
C605 H633 0.931 . S
C606 C605 1.347 . S
C606 C607 1.369 . S
C607 C606 1.369 . S
C607 C608 1.408 . S
C607 H634 0.930 . S
C608 C603 1.348 . S
C608 C607 1.408 . S
C608 H635 0.930 . S
C609 O622 1.281 . S
C609 O623 1.254 . S
C610 O624 1.236 . S
C610 O625 1.266 . S
C611 Tb601 2.809 . S
C611 C612 1.514 . S
C611 O626 1.248 . S
C611 O627 1.266 . S
C612 C611 1.514 . S
C612 C613 1.359 . S
C612 C617 1.348 . S
C613 C612 1.359 . S
C613 C614 1.380 . S
C613 H636 0.929 . S
C614 C613 1.380 . S
C614 C615 1.347 1_554 S
C614 H637 0.931 . S
C615 C614 1.347 1_556 S
C615 C616 1.369 1_556 S
C616 C615 1.369 1_554 S
C616 C617 1.408 . S
C616 H638 0.930 1_554 S
C617 C612 1.348 . S
C617 C616 1.408 . S
C617 H639 0.930 . S
C618 O628 1.281 . S
C618 O629 1.254 . S
C619 O630 1.236 . S
C619 O631 1.266 . S
O620 Tb600 2.484 . S
O620 C602 1.248 . S
O621 Tb600 2.440 . S
O621 C602 1.266 . S
O622 Tb600 2.658 . S
O622 Tb601 2.325 . S
O622 C609 1.281 . S
O623 Tb600 2.409 . S
O623 C609 1.254 . S
O624 Tb600 2.378 . S
O624 C610 1.236 . S
O625 Tb601 2.341 . S
O625 C610 1.266 . S
O626 Tb601 2.484 . S
O626 C611 1.248 . S
O627 Tb601 2.440 . S
O627 C611 1.266 . S
O628 Tb600 2.325 . S
O628 Tb601 2.658 . S
O628 C618 1.281 . S
O629 Tb601 2.409 . S
O629 C618 1.254 . S
O630 Tb601 2.378 . S
O630 C619 1.236 . S
O631 Tb600 2.341 . S
O631 C619 1.266 . S
H632 C604 0.929 . S
H633 C605 0.931 . S
H634 C607 0.930 . S
H635 C608 0.930 . S
H636 C613 0.929 . S
H637 C614 0.931 . S
H638 C616 0.930 1_556 S
H639 C617 0.930 . S
H640 C648 0.950 . S
H641 C653 0.950 . S
H642 C650 0.950 . S
H643 C652 0.950 . S
H644 C654 0.950 . S
H645 C656 0.950 . S
H646 C658 0.950 . S
H647 C659 0.950 . S
C648 H640 0.950 . S
C648 C649 1.386 . S
C648 C650 1.391 . S
C649 C648 1.386 . S
C649 C653 1.393 . S
C650 H642 0.950 . S
C650 C648 1.391 . S
C650 C651 1.400 . S
C651 C650 1.400 . S
C651 C652 1.398 . S
C651 C657 1.491 . S
C652 H643 0.950 . S
C652 C651 1.398 . S
C652 C653 1.391 . S
C653 H641 0.950 . S
C653 C649 1.393 . S
C653 C652 1.391 . S
C654 H644 0.950 . S
C654 C655 1.386 . S
C654 C656 1.391 . S
C655 C654 1.386 . S
C655 C659 1.393 . S
C656 H645 0.950 . S
C656 C654 1.391 . S
C656 C657 1.400 . S
C657 C651 1.491 . S
C657 C656 1.400 . S
C657 C658 1.398 . S
C658 H646 0.950 . S
C658 C657 1.398 . S
C658 C659 1.391 . S
C659 H647 0.950 . S
C659 C655 1.393 . S
C659 C658 1.391 . S
H660 C668 0.950 . S
H661 C673 0.950 . S
H662 C670 0.950 . S
H663 C672 0.950 . S
H664 C674 0.950 . S
H665 C676 0.950 . S
H666 C678 0.950 . S
H667 C679 0.950 . S
C668 H660 0.950 . S
C668 C669 1.386 . S
C668 C670 1.391 . S
C669 C668 1.386 . S
C669 C673 1.393 . S
C670 H662 0.950 . S
C670 C668 1.391 . S
C670 C671 1.400 . S
C671 C670 1.400 . S
C671 C672 1.398 . S
C671 C677 1.491 . S
C672 H663 0.950 . S
C672 C671 1.398 . S
C672 C673 1.391 . S
C673 H661 0.950 . S
C673 C669 1.393 . S
C673 C672 1.391 . S
C674 H664 0.950 . S
C674 C675 1.386 . S
C674 C676 1.391 . S
C675 C674 1.386 . S
C675 C679 1.393 . S
C676 H665 0.950 . S
C676 C674 1.391 . S
C676 C677 1.400 . S
C677 C671 1.491 . S
C677 C676 1.400 . S
C677 C678 1.398 . S
C678 H666 0.950 . S
C678 C677 1.398 . S
C678 C679 1.391 . S
C679 H667 0.950 . S
C679 C675 1.393 . S
C679 C678 1.391 . S
H680 C688 0.950 . S
H681 C693 0.950 . S
H682 C690 0.950 . S
H683 C692 0.950 . S
H684 C694 0.950 . S
H685 C696 0.950 . S
H686 C698 0.950 . S
H687 C699 0.950 . S
C688 H680 0.950 . S
C688 C689 1.386 . S
C688 C690 1.391 . S
C689 C688 1.386 . S
C689 C693 1.393 . S
C690 H682 0.950 . S
C690 C688 1.391 . S
C690 C691 1.400 . S
C691 C690 1.400 . S
C691 C692 1.398 . S
C691 C697 1.491 . S
C692 H683 0.950 . S
C692 C691 1.398 . S
C692 C693 1.391 . S
C693 H681 0.950 . S
C693 C689 1.393 . S
C693 C692 1.391 . S
C694 H684 0.950 . S
C694 C695 1.386 . S
C694 C696 1.391 . S
C695 C694 1.386 . S
C695 C699 1.393 . S
C696 H685 0.950 . S
C696 C694 1.391 . S
C696 C697 1.400 . S
C697 C691 1.491 . S
C697 C696 1.400 . S
C697 C698 1.398 . S
C698 H686 0.950 . S
C698 C697 1.398 . S
C698 C699 1.391 . S
C699 H687 0.950 . S
C699 C695 1.393 . S
C699 C698 1.391 . S
H700 C708 0.950 . S
H701 C713 0.950 . S
H702 C710 0.950 . S
H703 C712 0.950 . S
H704 C714 0.950 . S
H705 C716 0.950 . S
H706 C718 0.950 . S
H707 C719 0.950 . S
C708 H700 0.950 . S
C708 C709 1.386 . S
C708 C710 1.391 . S
C709 C708 1.386 . S
C709 C713 1.393 . S
C710 H702 0.950 . S
C710 C708 1.391 . S
C710 C711 1.400 . S
C711 C710 1.400 . S
C711 C712 1.398 . S
C711 C717 1.491 . S
C712 H703 0.950 . S
C712 C711 1.398 . S
C712 C713 1.391 . S
C713 H701 0.950 . S
C713 C709 1.393 . S
C713 C712 1.391 . S
C714 H704 0.950 . S
C714 C715 1.386 . S
C714 C716 1.391 . S
C715 C714 1.386 . S
C715 C719 1.393 . S
C716 H705 0.950 . S
C716 C714 1.391 . S
C716 C717 1.400 . S
C717 C711 1.491 . S
C717 C716 1.400 . S
C717 C718 1.398 . S
C718 H706 0.950 . S
C718 C717 1.398 . S
C718 C719 1.391 . S
C719 H707 0.950 . S
C719 C715 1.393 . S
C719 C718 1.391 . S
H720 C728 0.950 . S
H721 C733 0.950 . S
H722 C730 0.950 . S
H723 C732 0.950 . S
H724 C734 0.950 . S
H725 C736 0.950 . S
H726 C738 0.950 . S
H727 C739 0.950 . S
C728 H720 0.950 . S
C728 C729 1.386 . S
C728 C730 1.391 . S
C729 C728 1.386 . S
C729 C733 1.393 . S
C730 H722 0.950 . S
C730 C728 1.391 . S
C730 C731 1.400 . S
C731 C730 1.400 . S
C731 C732 1.398 . S
C731 C737 1.491 . S
C732 H723 0.950 . S
C732 C731 1.398 . S
C732 C733 1.391 . S
C733 H721 0.950 . S
C733 C729 1.393 . S
C733 C732 1.391 . S
C734 H724 0.950 . S
C734 C735 1.386 . S
C734 C736 1.391 . S
C735 C734 1.386 . S
C735 C739 1.393 . S
C736 H725 0.950 . S
C736 C734 1.391 . S
C736 C737 1.400 . S
C737 C731 1.491 . S
C737 C736 1.400 . S
C737 C738 1.398 . S
C738 H726 0.950 . S
C738 C737 1.398 . S
C738 C739 1.391 . S
C739 H727 0.950 . S
C739 C735 1.393 . S
C739 C738 1.391 . S
H740 C748 0.950 . S
H741 C753 0.950 . S
H742 C750 0.950 . S
H743 C752 0.950 . S
H744 C754 0.950 . S
H745 C756 0.950 . S
H746 C758 0.950 . S
H747 C759 0.950 . S
C748 H740 0.950 . S
C748 C749 1.386 . S
C748 C750 1.391 . S
C749 C748 1.386 . S
C749 C753 1.393 . S
C750 H742 0.950 . S
C750 C748 1.391 . S
C750 C751 1.400 . S
C751 C750 1.400 . S
C751 C752 1.398 . S
C751 C757 1.491 . S
C752 H743 0.950 . S
C752 C751 1.398 . S
C752 C753 1.391 . S
C753 H741 0.950 . S
C753 C749 1.393 . S
C753 C752 1.391 . S
C754 H744 0.950 . S
C754 C755 1.386 . S
C754 C756 1.391 . S
C755 C754 1.386 . S
C755 C759 1.393 . S
C756 H745 0.950 . S
C756 C754 1.391 . S
C756 C757 1.400 . S
C757 C751 1.491 . S
C757 C756 1.400 . S
C757 C758 1.398 . S
C758 H746 0.950 . S
C758 C757 1.398 . S
C758 C759 1.391 . S
C759 H747 0.950 . S
C759 C755 1.393 . S
C759 C758 1.391 . S
H760 C768 0.950 . S
H761 C773 0.950 . S
H762 C770 0.950 . S
H763 C772 0.950 . S
H764 C774 0.950 . S
H765 C776 0.950 . S
H766 C778 0.950 . S
H767 C779 0.950 . S
C768 H760 0.950 . S
C768 C769 1.386 . S
C768 C770 1.391 . S
C769 C768 1.386 . S
C769 C773 1.393 . S
C770 H762 0.950 . S
C770 C768 1.391 . S
C770 C771 1.400 . S
C771 C770 1.400 . S
C771 C772 1.398 . S
C771 C777 1.491 . S
C772 H763 0.950 . S
C772 C771 1.398 . S
C772 C773 1.391 . S
C773 H761 0.950 . S
C773 C769 1.393 . S
C773 C772 1.391 . S
C774 H764 0.950 . S
C774 C775 1.386 . S
C774 C776 1.391 . S
C775 C774 1.386 . S
C775 C779 1.393 . S
C776 H765 0.950 . S
C776 C774 1.391 . S
C776 C777 1.400 . S
C777 C771 1.491 . S
C777 C776 1.400 . S
C777 C778 1.398 . S
C778 H766 0.950 . S
C778 C777 1.398 . S
C778 C779 1.391 . S
C779 H767 0.950 . S
C779 C775 1.393 . S
C779 C778 1.391 . S
H780 C788 0.950 . S
H781 C793 0.950 . S
H782 C790 0.950 . S
H783 C792 0.950 . S
H784 C794 0.950 . S
H785 C796 0.950 . S
H786 C798 0.950 . S
H787 C799 0.950 . S
C788 H780 0.950 . S
C788 C789 1.386 . S
C788 C790 1.391 . S
C789 C788 1.386 . S
C789 C793 1.393 . S
C790 H782 0.950 . S
C790 C788 1.391 . S
C790 C791 1.400 . S
C791 C790 1.400 . S
C791 C792 1.398 . S
C791 C797 1.491 . S
C792 H783 0.950 . S
C792 C791 1.398 . S
C792 C793 1.391 . S
C793 H781 0.950 . S
C793 C789 1.393 . S
C793 C792 1.391 . S
C794 H784 0.950 . S
C794 C795 1.386 . S
C794 C796 1.391 . S
C795 C794 1.386 . S
C795 C799 1.393 . S
C796 H785 0.950 . S
C796 C794 1.391 . S
C796 C797 1.400 . S
C797 C791 1.491 . S
C797 C796 1.400 . S
C797 C798 1.398 . S
C798 H786 0.950 . S
C798 C797 1.398 . S
C798 C799 1.391 . S
C799 H787 0.950 . S
C799 C795 1.393 . S
C799 C798 1.391 . S
H800 C808 0.950 . S
H801 C813 0.950 . S
H802 C810 0.950 . S
H803 C812 0.950 . S
H804 C814 0.950 . S
H805 C816 0.950 . S
H806 C818 0.950 . S
H807 C819 0.950 . S
C808 H800 0.950 . S
C808 C809 1.386 . S
C808 C810 1.391 . S
C809 C808 1.386 . S
C809 C813 1.393 . S
C810 H802 0.950 . S
C810 C808 1.391 . S
C810 C811 1.400 . S
C811 C810 1.400 . S
C811 C812 1.398 . S
C811 C817 1.491 . S
C812 H803 0.950 . S
C812 C811 1.398 . S
C812 C813 1.391 . S
C813 H801 0.950 . S
C813 C809 1.393 . S
C813 C812 1.391 . S
C814 H804 0.950 . S
C814 C815 1.386 . S
C814 C816 1.391 . S
C815 C814 1.386 . S
C815 C819 1.393 . S
C816 H805 0.950 . S
C816 C814 1.391 . S
C816 C817 1.400 . S
C817 C811 1.491 . S
C817 C816 1.400 . S
C817 C818 1.398 . S
C818 H806 0.950 . S
C818 C817 1.398 . S
C818 C819 1.391 . S
C819 H807 0.950 . S
C819 C815 1.393 . S
C819 C818 1.391 . S
H820 C828 0.950 . S
H821 C833 0.950 . S
H822 C830 0.950 . S
H823 C832 0.950 . S
H824 C834 0.950 . S
H825 C836 0.950 . S
H826 C838 0.950 . S
H827 C839 0.950 . S
C828 H820 0.950 . S
C828 C829 1.386 . S
C828 C830 1.391 . S
C829 C828 1.386 . S
C829 C833 1.393 . S
C830 H822 0.950 . S
C830 C828 1.391 . S
C830 C831 1.400 . S
C831 C830 1.400 . S
C831 C832 1.398 . S
C831 C837 1.491 . S
C832 H823 0.950 . S
C832 C831 1.398 . S
C832 C833 1.391 . S
C833 H821 0.950 . S
C833 C829 1.393 . S
C833 C832 1.391 . S
C834 H824 0.950 . S
C834 C835 1.386 . S
C834 C836 1.391 . S
C835 C834 1.386 . S
C835 C839 1.393 . S
C836 H825 0.950 . S
C836 C834 1.391 . S
C836 C837 1.400 . S
C837 C831 1.491 . S
C837 C836 1.400 . S
C837 C838 1.398 . S
C838 H826 0.950 . S
C838 C837 1.398 . S
C838 C839 1.391 . S
C839 H827 0.950 . S
C839 C835 1.393 . S
C839 C838 1.391 . S
H840 C848 0.950 . S
H841 C853 0.950 . S
H842 C850 0.950 . S
H843 C852 0.950 . S
H844 C854 0.950 . S
H845 C856 0.950 . S
H846 C858 0.950 . S
H847 C859 0.950 . S
C848 H840 0.950 . S
C848 C849 1.386 . S
C848 C850 1.391 . S
C849 C848 1.386 . S
C849 C853 1.393 . S
C850 H842 0.950 . S
C850 C848 1.391 . S
C850 C851 1.400 . S
C851 C850 1.400 . S
C851 C852 1.398 . S
C851 C857 1.491 . S
C852 H843 0.950 . S
C852 C851 1.398 . S
C852 C853 1.391 . S
C853 H841 0.950 . S
C853 C849 1.393 . S
C853 C852 1.391 . S
C854 H844 0.950 . S
C854 C855 1.386 . S
C854 C856 1.391 . S
C855 C854 1.386 . S
C855 C859 1.393 . S
C856 H845 0.950 . S
C856 C854 1.391 . S
C856 C857 1.400 . S
C857 C851 1.491 . S
C857 C856 1.400 . S
C857 C858 1.398 . S
C858 H846 0.950 . S
C858 C857 1.398 . S
C858 C859 1.391 . S
C859 H847 0.950 . S
C859 C855 1.393 . S
C859 C858 1.391 . S
H860 C868 0.950 . S
H861 C873 0.950 . S
H862 C870 0.950 . S
H863 C872 0.950 . S
H864 C874 0.950 . S
H865 C876 0.950 . S
H866 C878 0.950 . S
H867 C879 0.950 . S
C868 H860 0.950 . S
C868 C869 1.386 . S
C868 C870 1.391 . S
C869 C868 1.386 . S
C869 C873 1.393 . S
C870 H862 0.950 . S
C870 C868 1.391 . S
C870 C871 1.400 . S
C871 C870 1.400 . S
C871 C872 1.398 . S
C871 C877 1.491 . S
C872 H863 0.950 . S
C872 C871 1.398 . S
C872 C873 1.391 . S
C873 H861 0.950 . S
C873 C869 1.393 . S
C873 C872 1.391 . S
C874 H864 0.950 . S
C874 C875 1.386 . S
C874 C876 1.391 . S
C875 C874 1.386 . S
C875 C879 1.393 . S
C876 H865 0.950 . S
C876 C874 1.391 . S
C876 C877 1.400 . S
C877 C871 1.491 . S
C877 C876 1.400 . S
C877 C878 1.398 . S
C878 H866 0.950 . S
C878 C877 1.398 . S
C878 C879 1.391 . S
C879 H867 0.950 . S
C879 C875 1.393 . S
C879 C878 1.391 . S
H880 C888 0.950 . S
H881 C893 0.950 . S
H882 C890 0.950 . S
H883 C892 0.950 . S
H884 C894 0.950 . S
H885 C896 0.950 . S
H886 C898 0.950 . S
H887 C899 0.950 . S
C888 H880 0.950 . S
C888 C889 1.386 . S
C888 C890 1.391 . S
C889 C888 1.386 . S
C889 C893 1.393 . S
C890 H882 0.950 . S
C890 C888 1.391 . S
C890 C891 1.400 . S
C891 C890 1.400 . S
C891 C892 1.398 . S
C891 C897 1.491 . S
C892 H883 0.950 . S
C892 C891 1.398 . S
C892 C893 1.391 . S
C893 H881 0.950 . S
C893 C889 1.393 . S
C893 C892 1.391 . S
C894 H884 0.950 . S
C894 C895 1.386 . S
C894 C896 1.391 . S
C895 C894 1.386 . S
C895 C899 1.393 . S
C896 H885 0.950 . S
C896 C894 1.391 . S
C896 C897 1.400 . S
C897 C891 1.491 . S
C897 C896 1.400 . S
C897 C898 1.398 . S
C898 H886 0.950 . S
C898 C897 1.398 . S
C898 C899 1.391 . S
C899 H887 0.950 . S
C899 C895 1.393 . S
C899 C898 1.391 . S
H900 C908 0.950 . S
H901 C913 0.950 . S
H902 C910 0.950 . S
H903 C912 0.950 . S
H904 C914 0.950 . S
H905 C916 0.950 . S
H906 C918 0.950 . S
H907 C919 0.950 . S
C908 H900 0.950 . S
C908 C909 1.386 . S
C908 C910 1.391 . S
C909 C908 1.386 . S
C909 C913 1.393 . S
C910 H902 0.950 . S
C910 C908 1.391 . S
C910 C911 1.400 . S
C911 C910 1.400 . S
C911 C912 1.398 . S
C911 C917 1.491 . S
C912 H903 0.950 . S
C912 C911 1.398 . S
C912 C913 1.391 . S
C913 H901 0.950 . S
C913 C909 1.393 . S
C913 C912 1.391 . S
C914 H904 0.950 . S
C914 C915 1.386 . S
C914 C916 1.391 . S
C915 C914 1.386 . S
C915 C919 1.393 . S
C916 H905 0.950 . S
C916 C914 1.391 . S
C916 C917 1.400 . S
C917 C911 1.491 . S
C917 C916 1.400 . S
C917 C918 1.398 . S
C918 H906 0.950 . S
C918 C917 1.398 . S
C918 C919 1.391 . S
C919 H907 0.950 . S
C919 C915 1.393 . S
C919 C918 1.391 . S
H920 C928 0.950 . S
H921 C933 0.950 . S
H922 C930 0.950 . S
H923 C932 0.950 . S
H924 C934 0.950 . S
H925 C936 0.950 . S
H926 C938 0.950 . S
H927 C939 0.950 . S
C928 H920 0.950 . S
C928 C929 1.386 . S
C928 C930 1.391 . S
C929 C928 1.386 . S
C929 C933 1.393 . S
C930 H922 0.950 . S
C930 C928 1.391 . S
C930 C931 1.400 . S
C931 C930 1.400 . S
C931 C932 1.398 . S
C931 C937 1.491 . S
C932 H923 0.950 . S
C932 C931 1.398 . S
C932 C933 1.391 . S
C933 H921 0.950 . S
C933 C929 1.393 . S
C933 C932 1.391 . S
C934 H924 0.950 . S
C934 C935 1.386 . S
C934 C936 1.391 . S
C935 C934 1.386 . S
C935 C939 1.393 . S
C936 H925 0.950 . S
C936 C934 1.391 . S
C936 C937 1.400 . S
C937 C931 1.491 . S
C937 C936 1.400 . S
C937 C938 1.398 . S
C938 H926 0.950 . S
C938 C937 1.398 . S
C938 C939 1.391 . S
C939 H927 0.950 . S
C939 C935 1.393 . S
C939 C938 1.391 . S
H940 C948 0.950 . S
H941 C953 0.950 . S
H942 C950 0.950 . S
H943 C952 0.950 . S
H944 C954 0.950 . S
H945 C956 0.950 . S
H946 C958 0.950 . S
H947 C959 0.950 . S
C948 H940 0.950 . S
C948 C949 1.386 . S
C948 C950 1.391 . S
C949 C948 1.386 . S
C949 C953 1.393 . S
C950 H942 0.950 . S
C950 C948 1.391 . S
C950 C951 1.400 . S
C951 C950 1.400 . S
C951 C952 1.398 . S
C951 C957 1.491 . S
C952 H943 0.950 . S
C952 C951 1.398 . S
C952 C953 1.391 . S
C953 H941 0.950 . S
C953 C949 1.393 . S
C953 C952 1.391 . S
C954 H944 0.950 . S
C954 C955 1.386 . S
C954 C956 1.391 . S
C955 C954 1.386 . S
C955 C959 1.393 . S
C956 H945 0.950 . S
C956 C954 1.391 . S
C956 C957 1.400 . S
C957 C951 1.491 . S
C957 C956 1.400 . S
C957 C958 1.398 . S
C958 H946 0.950 . S
C958 C957 1.398 . S
C958 C959 1.391 . S
C959 H947 0.950 . S
C959 C955 1.393 . S
C959 C958 1.391 . S
H960 C968 0.950 . S
H961 C973 0.950 . S
H962 C970 0.950 . S
H963 C972 0.950 . S
H964 C974 0.950 . S
H965 C976 0.950 . S
H966 C978 0.950 . S
H967 C979 0.950 . S
C968 H960 0.950 . S
C968 C969 1.386 . S
C968 C970 1.391 . S
C969 C968 1.386 . S
C969 C973 1.393 . S
C970 H962 0.950 . S
C970 C968 1.391 . S
C970 C971 1.400 . S
C971 C970 1.400 . S
C971 C972 1.398 . S
C971 C977 1.491 . S
C972 H963 0.950 . S
C972 C971 1.398 . S
C972 C973 1.391 . S
C973 H961 0.950 . S
C973 C969 1.393 . S
C973 C972 1.391 . S
C974 H964 0.950 . S
C974 C975 1.386 . S
C974 C976 1.391 . S
C975 C974 1.386 . S
C975 C979 1.393 . S
C976 H965 0.950 . S
C976 C974 1.391 . S
C976 C977 1.400 . S
C977 C971 1.491 . S
C977 C976 1.400 . S
C977 C978 1.398 . S
C978 H966 0.950 . S
C978 C977 1.398 . S
C978 C979 1.391 . S
C979 H967 0.950 . S
C979 C975 1.393 . S
C979 C978 1.391 . S
H980 C988 0.950 . S
H981 C993 0.950 . S
H982 C990 0.950 . S
H983 C992 0.950 . S
H984 C994 0.950 . S
H985 C996 0.950 . S
H986 C998 0.950 . S
H987 C999 0.950 . S
C988 H980 0.950 . S
C988 C989 1.386 . S
C988 C990 1.391 . S
C989 C988 1.386 . S
C989 C993 1.393 . S
C990 H982 0.950 . S
C990 C988 1.391 . S
C990 C991 1.400 . S
C991 C990 1.400 . S
C991 C992 1.398 . S
C991 C997 1.491 . S
C992 H983 0.950 . S
C992 C991 1.398 . S
C992 C993 1.391 . S
C993 H981 0.950 . S
C993 C989 1.393 . S
C993 C992 1.391 . S
C994 H984 0.950 . S
C994 C995 1.386 . S
C994 C996 1.391 . S
C995 C994 1.386 . S
C995 C999 1.393 . S
C996 H985 0.950 . S
C996 C994 1.391 . S
C996 C997 1.400 . S
C997 C991 1.491 . S
C997 C996 1.400 . S
C997 C998 1.398 . S
C998 H986 0.950 . S
C998 C997 1.398 . S
C998 C999 1.391 . S
C999 H987 0.950 . S
C999 C995 1.393 . S
C999 C998 1.391 . S
H1000 C1008 0.950 . S
H1001 C1013 0.950 . S
H1002 C1010 0.950 . S
H1003 C1012 0.950 . S
H1004 C1014 0.950 . S
H1005 C1016 0.950 . S
H1006 C1018 0.950 . S
H1007 C1019 0.950 . S
C1008 H1000 0.950 . S
C1008 C1009 1.386 . S
C1008 C1010 1.391 . S
C1009 C1008 1.386 . S
C1009 C1013 1.393 . S
C1010 H1002 0.950 . S
C1010 C1008 1.391 . S
C1010 C1011 1.400 . S
C1011 C1010 1.400 . S
C1011 C1012 1.398 . S
C1011 C1017 1.491 . S
C1012 H1003 0.950 . S
C1012 C1011 1.398 . S
C1012 C1013 1.391 . S
C1013 H1001 0.950 . S
C1013 C1009 1.393 . S
C1013 C1012 1.391 . S
C1014 H1004 0.950 . S
C1014 C1015 1.386 . S
C1014 C1016 1.391 . S
C1015 C1014 1.386 . S
C1015 C1019 1.393 . S
C1016 H1005 0.950 . S
C1016 C1014 1.391 . S
C1016 C1017 1.400 . S
C1017 C1011 1.491 . S
C1017 C1016 1.400 . S
C1017 C1018 1.398 . S
C1018 H1006 0.950 . S
C1018 C1017 1.398 . S
C1018 C1019 1.391 . S
C1019 H1007 0.950 . S
C1019 C1015 1.393 . S
C1019 C1018 1.391 . S
H1020 C1028 0.950 . S
H1021 C1033 0.950 . S
H1022 C1030 0.950 . S
H1023 C1032 0.950 . S
H1024 C1034 0.950 . S
H1025 C1036 0.950 . S
H1026 C1038 0.950 . S
H1027 C1039 0.950 . S
C1028 H1020 0.950 . S
C1028 C1029 1.386 . S
C1028 C1030 1.391 . S
C1029 C1028 1.386 . S
C1029 C1033 1.393 . S
C1030 H1022 0.950 . S
C1030 C1028 1.391 . S
C1030 C1031 1.400 . S
C1031 C1030 1.400 . S
C1031 C1032 1.398 . S
C1031 C1037 1.491 1_655 S
C1032 H1023 0.950 . S
C1032 C1031 1.398 . S
C1032 C1033 1.391 . S
C1033 H1021 0.950 . S
C1033 C1029 1.393 . S
C1033 C1032 1.391 . S
C1034 H1024 0.950 . S
C1034 C1035 1.386 . S
C1034 C1036 1.391 . S
C1035 C1034 1.386 . S
C1035 C1039 1.393 . S
C1036 H1025 0.950 . S
C1036 C1034 1.391 . S
C1036 C1037 1.400 . S
C1037 C1031 1.491 1_455 S
C1037 C1036 1.400 . S
C1037 C1038 1.398 . S
C1038 H1026 0.950 . S
C1038 C1037 1.398 . S
C1038 C1039 1.391 . S
C1039 H1027 0.950 . S
C1039 C1035 1.393 . S
C1039 C1038 1.391 . S
H1040 C1048 0.950 . S
H1041 C1053 0.950 . S
H1042 C1050 0.950 . S
H1043 C1052 0.950 . S
H1044 C1054 0.950 . S
H1045 C1056 0.950 . S
H1046 C1058 0.950 . S
H1047 C1059 0.950 . S
C1048 H1040 0.950 . S
C1048 C1049 1.386 . S
C1048 C1050 1.391 . S
C1049 C1048 1.386 . S
C1049 C1053 1.393 . S
C1050 H1042 0.950 . S
C1050 C1048 1.391 . S
C1050 C1051 1.400 . S
C1051 C1050 1.400 . S
C1051 C1052 1.398 . S
C1051 C1057 1.491 . S
C1052 H1043 0.950 . S
C1052 C1051 1.398 . S
C1052 C1053 1.391 . S
C1053 H1041 0.950 . S
C1053 C1049 1.393 . S
C1053 C1052 1.391 . S
C1054 H1044 0.950 . S
C1054 C1055 1.386 . S
C1054 C1056 1.391 . S
C1055 C1054 1.386 . S
C1055 C1059 1.393 . S
C1056 H1045 0.950 . S
C1056 C1054 1.391 . S
C1056 C1057 1.400 . S
C1057 C1051 1.491 . S
C1057 C1056 1.400 . S
C1057 C1058 1.398 . S
C1058 H1046 0.950 . S
C1058 C1057 1.398 . S
C1058 C1059 1.391 . S
C1059 H1047 0.950 . S
C1059 C1055 1.393 . S
C1059 C1058 1.391 . S
H1060 C1068 0.950 . S
H1061 C1073 0.950 . S
H1062 C1070 0.950 . S
H1063 C1072 0.950 . S
H1064 C1074 0.950 . S
H1065 C1076 0.950 . S
H1066 C1078 0.950 . S
H1067 C1079 0.950 . S
C1068 H1060 0.950 . S
C1068 C1069 1.386 . S
C1068 C1070 1.391 . S
C1069 C1068 1.386 . S
C1069 C1073 1.393 . S
C1070 H1062 0.950 . S
C1070 C1068 1.391 . S
C1070 C1071 1.400 . S
C1071 C1070 1.400 . S
C1071 C1072 1.398 . S
C1071 C1077 1.491 1_455 S
C1072 H1063 0.950 . S
C1072 C1071 1.398 . S
C1072 C1073 1.391 . S
C1073 H1061 0.950 . S
C1073 C1069 1.393 . S
C1073 C1072 1.391 . S
C1074 H1064 0.950 . S
C1074 C1075 1.386 . S
C1074 C1076 1.391 . S
C1075 C1074 1.386 . S
C1075 C1079 1.393 . S
C1076 H1065 0.950 . S
C1076 C1074 1.391 . S
C1076 C1077 1.400 . S
C1077 C1071 1.491 1_655 S
C1077 C1076 1.400 . S
C1077 C1078 1.398 . S
C1078 H1066 0.950 . S
C1078 C1077 1.398 . S
C1078 C1079 1.391 . S
C1079 H1067 0.950 . S
C1079 C1075 1.393 . S
C1079 C1078 1.391 . S
H1080 C1088 0.950 . S
H1081 C1093 0.950 . S
H1082 C1090 0.950 . S
H1083 C1092 0.950 . S
H1084 C1094 0.950 . S
H1085 C1096 0.950 . S
H1086 C1098 0.950 . S
H1087 C1099 0.950 . S
C1088 H1080 0.950 . S
C1088 C1089 1.386 . S
C1088 C1090 1.391 . S
C1089 C1088 1.386 . S
C1089 C1093 1.393 . S
C1090 H1082 0.950 . S
C1090 C1088 1.391 . S
C1090 C1091 1.400 . S
C1091 C1090 1.400 . S
C1091 C1092 1.398 . S
C1091 C1097 1.491 . S
C1092 H1083 0.950 . S
C1092 C1091 1.398 . S
C1092 C1093 1.391 . S
C1093 H1081 0.950 . S
C1093 C1089 1.393 . S
C1093 C1092 1.391 . S
C1094 H1084 0.950 . S
C1094 C1095 1.386 . S
C1094 C1096 1.391 . S
C1095 C1094 1.386 . S
C1095 C1099 1.393 . S
C1096 H1085 0.950 . S
C1096 C1094 1.391 . S
C1096 C1097 1.400 . S
C1097 C1091 1.491 . S
C1097 C1096 1.400 . S
C1097 C1098 1.398 . S
C1098 H1086 0.950 . S
C1098 C1097 1.398 . S
C1098 C1099 1.391 . S
C1099 H1087 0.950 . S
C1099 C1095 1.393 . S
C1099 C1098 1.391 . S
H1100 C1108 0.950 . S
H1101 C1113 0.950 . S
H1102 C1110 0.950 . S
H1103 C1112 0.950 . S
H1104 C1114 0.950 . S
H1105 C1116 0.950 . S
H1106 C1118 0.950 . S
H1107 C1119 0.950 . S
C1108 H1100 0.950 . S
C1108 C1109 1.386 . S
C1108 C1110 1.391 . S
C1109 C1108 1.386 . S
C1109 C1113 1.393 . S
C1110 H1102 0.950 . S
C1110 C1108 1.391 . S
C1110 C1111 1.400 . S
C1111 C1110 1.400 . S
C1111 C1112 1.398 . S
C1111 C1117 1.491 . S
C1112 H1103 0.950 . S
C1112 C1111 1.398 . S
C1112 C1113 1.391 . S
C1113 H1101 0.950 . S
C1113 C1109 1.393 . S
C1113 C1112 1.391 . S
C1114 H1104 0.950 . S
C1114 C1115 1.386 . S
C1114 C1116 1.391 . S
C1115 C1114 1.386 . S
C1115 C1119 1.393 . S
C1116 H1105 0.950 . S
C1116 C1114 1.391 . S
C1116 C1117 1.400 . S
C1117 C1111 1.491 . S
C1117 C1116 1.400 . S
C1117 C1118 1.398 . S
C1118 H1106 0.950 . S
C1118 C1117 1.398 . S
C1118 C1119 1.391 . S
C1119 H1107 0.950 . S
C1119 C1115 1.393 . S
C1119 C1118 1.391 . S
H1120 C1128 0.950 . S
H1121 C1133 0.950 . S
H1122 C1130 0.950 . S
H1123 C1132 0.950 . S
H1124 C1134 0.950 . S
H1125 C1136 0.950 . S
H1126 C1138 0.950 . S
H1127 C1139 0.950 . S
C1128 H1120 0.950 . S
C1128 C1129 1.386 . S
C1128 C1130 1.391 . S
C1129 C1128 1.386 . S
C1129 C1133 1.393 . S
C1130 H1122 0.950 . S
C1130 C1128 1.391 . S
C1130 C1131 1.400 . S
C1131 C1130 1.400 . S
C1131 C1132 1.398 . S
C1131 C1137 1.491 . S
C1132 H1123 0.950 . S
C1132 C1131 1.398 . S
C1132 C1133 1.391 . S
C1133 H1121 0.950 . S
C1133 C1129 1.393 . S
C1133 C1132 1.391 . S
C1134 H1124 0.950 . S
C1134 C1135 1.386 . S
C1134 C1136 1.391 . S
C1135 C1134 1.386 . S
C1135 C1139 1.393 . S
C1136 H1125 0.950 . S
C1136 C1134 1.391 . S
C1136 C1137 1.400 . S
C1137 C1131 1.491 . S
C1137 C1136 1.400 . S
C1137 C1138 1.398 . S
C1138 H1126 0.950 . S
C1138 C1137 1.398 . S
C1138 C1139 1.391 . S
C1139 H1127 0.950 . S
C1139 C1135 1.393 . S
C1139 C1138 1.391 . S
H1140 C1148 0.950 . S
H1141 C1153 0.950 . S
H1142 C1150 0.950 . S
H1143 C1152 0.950 . S
H1144 C1154 0.950 . S
H1145 C1156 0.950 . S
H1146 C1158 0.950 . S
H1147 C1159 0.950 . S
C1148 H1140 0.950 . S
C1148 C1149 1.386 . S
C1148 C1150 1.391 . S
C1149 C1148 1.386 . S
C1149 C1153 1.393 . S
C1150 H1142 0.950 . S
C1150 C1148 1.391 . S
C1150 C1151 1.400 . S
C1151 C1150 1.400 . S
C1151 C1152 1.398 . S
C1151 C1157 1.491 . S
C1152 H1143 0.950 . S
C1152 C1151 1.398 . S
C1152 C1153 1.391 . S
C1153 H1141 0.950 . S
C1153 C1149 1.393 . S
C1153 C1152 1.391 . S
C1154 H1144 0.950 . S
C1154 C1155 1.386 . S
C1154 C1156 1.391 . S
C1155 C1154 1.386 . S
C1155 C1159 1.393 . S
C1156 H1145 0.950 . S
C1156 C1154 1.391 . S
C1156 C1157 1.400 . S
C1157 C1151 1.491 . S
C1157 C1156 1.400 . S
C1157 C1158 1.398 . S
C1158 H1146 0.950 . S
C1158 C1157 1.398 . S
C1158 C1159 1.391 . S
C1159 H1147 0.950 . S
C1159 C1155 1.393 . S
C1159 C1158 1.391 . S
H1160 C1168 0.950 . S
H1161 C1173 0.950 . S
H1162 C1170 0.950 . S
H1163 C1172 0.950 . S
H1164 C1174 0.950 . S
H1165 C1176 0.950 . S
H1166 C1178 0.950 . S
H1167 C1179 0.950 . S
C1168 H1160 0.950 . S
C1168 C1169 1.386 . S
C1168 C1170 1.391 . S
C1169 C1168 1.386 . S
C1169 C1173 1.393 . S
C1170 H1162 0.950 . S
C1170 C1168 1.391 . S
C1170 C1171 1.400 . S
C1171 C1170 1.400 . S
C1171 C1172 1.398 . S
C1171 C1177 1.491 . S
C1172 H1163 0.950 . S
C1172 C1171 1.398 . S
C1172 C1173 1.391 . S
C1173 H1161 0.950 . S
C1173 C1169 1.393 . S
C1173 C1172 1.391 . S
C1174 H1164 0.950 . S
C1174 C1175 1.386 . S
C1174 C1176 1.391 . S
C1175 C1174 1.386 . S
C1175 C1179 1.393 . S
C1176 H1165 0.950 . S
C1176 C1174 1.391 . S
C1176 C1177 1.400 . S
C1177 C1171 1.491 . S
C1177 C1176 1.400 . S
C1177 C1178 1.398 . S
C1178 H1166 0.950 . S
C1178 C1177 1.398 . S
C1178 C1179 1.391 . S
C1179 H1167 0.950 . S
C1179 C1175 1.393 . S
C1179 C1178 1.391 . S
H1180 C1188 0.950 . S
H1181 C1193 0.950 . S
H1182 C1190 0.950 . S
H1183 C1192 0.950 . S
H1184 C1194 0.950 . S
H1185 C1196 0.950 . S
H1186 C1198 0.950 . S
H1187 C1199 0.950 . S
C1188 H1180 0.950 . S
C1188 C1189 1.386 . S
C1188 C1190 1.391 . S
C1189 C1188 1.386 . S
C1189 C1193 1.393 . S
C1190 H1182 0.950 . S
C1190 C1188 1.391 . S
C1190 C1191 1.400 . S
C1191 C1190 1.400 . S
C1191 C1192 1.398 . S
C1191 C1197 1.491 . S
C1192 H1183 0.950 . S
C1192 C1191 1.398 . S
C1192 C1193 1.391 . S
C1193 H1181 0.950 . S
C1193 C1189 1.393 . S
C1193 C1192 1.391 . S
C1194 H1184 0.950 . S
C1194 C1195 1.386 . S
C1194 C1196 1.391 . S
C1195 C1194 1.386 . S
C1195 C1199 1.393 . S
C1196 H1185 0.950 . S
C1196 C1194 1.391 . S
C1196 C1197 1.400 . S
C1197 C1191 1.491 . S
C1197 C1196 1.400 . S
C1197 C1198 1.398 . S
C1198 H1186 0.950 . S
C1198 C1197 1.398 . S
C1198 C1199 1.391 . S
C1199 H1187 0.950 . S
C1199 C1195 1.393 . S
C1199 C1198 1.391 . S
H1200 C1208 0.950 . S
H1201 C1213 0.950 . S
H1202 C1210 0.950 . S
H1203 C1212 0.950 . S
H1204 C1214 0.950 . S
H1205 C1216 0.950 . S
H1206 C1218 0.950 . S
H1207 C1219 0.950 . S
C1208 H1200 0.950 . S
C1208 C1209 1.386 . S
C1208 C1210 1.391 . S
C1209 C1208 1.386 . S
C1209 C1213 1.393 . S
C1210 H1202 0.950 . S
C1210 C1208 1.391 . S
C1210 C1211 1.400 . S
C1211 C1210 1.400 . S
C1211 C1212 1.398 . S
C1211 C1217 1.491 1_655 S
C1212 H1203 0.950 . S
C1212 C1211 1.398 . S
C1212 C1213 1.391 . S
C1213 H1201 0.950 . S
C1213 C1209 1.393 . S
C1213 C1212 1.391 . S
C1214 H1204 0.950 . S
C1214 C1215 1.386 . S
C1214 C1216 1.391 . S
C1215 C1214 1.386 . S
C1215 C1219 1.393 . S
C1216 H1205 0.950 . S
C1216 C1214 1.391 . S
C1216 C1217 1.400 . S
C1217 C1211 1.491 1_455 S
C1217 C1216 1.400 . S
C1217 C1218 1.398 . S
C1218 H1206 0.950 . S
C1218 C1217 1.398 . S
C1218 C1219 1.391 . S
C1219 H1207 0.950 . S
C1219 C1215 1.393 . S
C1219 C1218 1.391 . S
H1220 C1228 0.950 . S
H1221 C1233 0.950 . S
H1222 C1230 0.950 . S
H1223 C1232 0.950 . S
H1224 C1234 0.950 . S
H1225 C1236 0.950 . S
H1226 C1238 0.950 . S
H1227 C1239 0.950 . S
C1228 H1220 0.950 . S
C1228 C1229 1.386 . S
C1228 C1230 1.391 . S
C1229 C1228 1.386 . S
C1229 C1233 1.393 . S
C1230 H1222 0.950 . S
C1230 C1228 1.391 . S
C1230 C1231 1.400 . S
C1231 C1230 1.400 . S
C1231 C1232 1.398 . S
C1231 C1237 1.491 . S
C1232 H1223 0.950 . S
C1232 C1231 1.398 . S
C1232 C1233 1.391 . S
C1233 H1221 0.950 . S
C1233 C1229 1.393 . S
C1233 C1232 1.391 . S
C1234 H1224 0.950 . S
C1234 C1235 1.386 . S
C1234 C1236 1.391 . S
C1235 C1234 1.386 . S
C1235 C1239 1.393 . S
C1236 H1225 0.950 . S
C1236 C1234 1.391 . S
C1236 C1237 1.400 . S
C1237 C1231 1.491 . S
C1237 C1236 1.400 . S
C1237 C1238 1.398 . S
C1238 H1226 0.950 . S
C1238 C1237 1.398 . S
C1238 C1239 1.391 . S
C1239 H1227 0.950 . S
C1239 C1235 1.393 . S
C1239 C1238 1.391 . S
H1240 C1248 0.950 . S
H1241 C1253 0.950 . S
H1242 C1250 0.950 . S
H1243 C1252 0.950 . S
H1244 C1254 0.950 . S
H1245 C1256 0.950 . S
H1246 C1258 0.950 . S
H1247 C1259 0.950 . S
C1248 H1240 0.950 . S
C1248 C1249 1.386 . S
C1248 C1250 1.391 . S
C1249 C1248 1.386 . S
C1249 C1253 1.393 . S
C1250 H1242 0.950 . S
C1250 C1248 1.391 . S
C1250 C1251 1.400 . S
C1251 C1250 1.400 . S
C1251 C1252 1.398 . S
C1251 C1257 1.491 . S
C1252 H1243 0.950 . S
C1252 C1251 1.398 . S
C1252 C1253 1.391 . S
C1253 H1241 0.950 . S
C1253 C1249 1.393 . S
C1253 C1252 1.391 . S
C1254 H1244 0.950 . S
C1254 C1255 1.386 . S
C1254 C1256 1.391 . S
C1255 C1254 1.386 . S
C1255 C1259 1.393 . S
C1256 H1245 0.950 . S
C1256 C1254 1.391 . S
C1256 C1257 1.400 . S
C1257 C1251 1.491 . S
C1257 C1256 1.400 . S
C1257 C1258 1.398 . S
C1258 H1246 0.950 . S
C1258 C1257 1.398 . S
C1258 C1259 1.391 . S
C1259 H1247 0.950 . S
C1259 C1255 1.393 . S
C1259 C1258 1.391 . S
H1260 C1268 0.950 . S
H1261 C1273 0.950 . S
H1262 C1270 0.950 . S
H1263 C1272 0.950 . S
H1264 C1274 0.950 . S
H1265 C1276 0.950 . S
H1266 C1278 0.950 . S
H1267 C1279 0.950 . S
C1268 H1260 0.950 . S
C1268 C1269 1.386 . S
C1268 C1270 1.391 . S
C1269 C1268 1.386 . S
C1269 C1273 1.393 . S
C1270 H1262 0.950 . S
C1270 C1268 1.391 . S
C1270 C1271 1.400 . S
C1271 C1270 1.400 . S
C1271 C1272 1.398 . S
C1271 C1277 1.491 1_455 S
C1272 H1263 0.950 . S
C1272 C1271 1.398 . S
C1272 C1273 1.391 . S
C1273 H1261 0.950 . S
C1273 C1269 1.393 . S
C1273 C1272 1.391 . S
C1274 H1264 0.950 . S
C1274 C1275 1.386 . S
C1274 C1276 1.391 . S
C1275 C1274 1.386 . S
C1275 C1279 1.393 . S
C1276 H1265 0.950 . S
C1276 C1274 1.391 . S
C1276 C1277 1.400 . S
C1277 C1271 1.491 1_655 S
C1277 C1276 1.400 . S
C1277 C1278 1.398 . S
C1278 H1266 0.950 . S
C1278 C1277 1.398 . S
C1278 C1279 1.391 . S
C1279 H1267 0.950 . S
C1279 C1275 1.393 . S
C1279 C1278 1.391 . S
H1280 C1288 0.950 . S
H1281 C1293 0.950 . S
H1282 C1290 0.950 . S
H1283 C1292 0.950 1_556 S
H1284 C1294 0.950 . S
H1285 C1296 0.950 . S
H1286 C1298 0.950 . S
H1287 C1299 0.950 . S
C1288 H1280 0.950 . S
C1288 C1289 1.386 . S
C1288 C1290 1.391 . S
C1289 C1288 1.386 . S
C1289 C1293 1.393 . S
C1290 H1282 0.950 . S
C1290 C1288 1.391 . S
C1290 C1291 1.400 . S
C1291 C1290 1.400 . S
C1291 C1292 1.398 . S
C1291 C1297 1.486 1_554 S
C1292 H1283 0.950 1_554 S
C1292 C1291 1.398 . S
C1292 C1293 1.391 . S
C1293 H1281 0.950 . S
C1293 C1289 1.393 . S
C1293 C1292 1.391 . S
C1294 H1284 0.950 . S
C1294 C1295 1.386 . S
C1294 C1296 1.391 . S
C1295 C1294 1.386 . S
C1295 C1299 1.393 . S
C1296 H1285 0.950 . S
C1296 C1294 1.391 . S
C1296 C1297 1.407 . S
C1297 C1291 1.486 1_556 S
C1297 C1296 1.407 . S
C1297 C1298 1.397 1_556 S
C1298 H1286 0.950 . S
C1298 C1297 1.397 1_554 S
C1298 C1299 1.391 1_554 S
C1299 H1287 0.950 . S
C1299 C1295 1.393 . S
C1299 C1298 1.391 1_556 S
H1300 C1308 0.950 . S
H1301 C1313 0.950 . S
H1302 C1310 0.950 . S
H1303 C1312 0.950 . S
H1304 C1314 0.950 . S
H1305 C1316 0.950 . S
H1306 C1318 0.950 . S
H1307 C1319 0.950 . S
C1308 H1300 0.950 . S
C1308 C1309 1.386 . S
C1308 C1310 1.391 . S
C1309 C1308 1.386 . S
C1309 C1313 1.393 . S
C1310 H1302 0.950 . S
C1310 C1308 1.391 . S
C1310 C1311 1.400 . S
C1311 C1310 1.400 . S
C1311 C1312 1.398 . S
C1311 C1317 1.491 . S
C1312 H1303 0.950 . S
C1312 C1311 1.398 . S
C1312 C1313 1.391 . S
C1313 H1301 0.950 . S
C1313 C1309 1.393 . S
C1313 C1312 1.391 . S
C1314 H1304 0.950 . S
C1314 C1315 1.386 . S
C1314 C1316 1.391 . S
C1315 C1314 1.386 . S
C1315 C1319 1.393 . S
C1316 H1305 0.950 . S
C1316 C1314 1.391 . S
C1316 C1317 1.400 . S
C1317 C1311 1.491 . S
C1317 C1316 1.400 . S
C1317 C1318 1.398 . S
C1318 H1306 0.950 . S
C1318 C1317 1.398 . S
C1318 C1319 1.391 . S
C1319 H1307 0.950 . S
C1319 C1315 1.393 . S
C1319 C1318 1.391 . S
H1320 C1328 0.950 . S
H1321 C1333 0.950 . S
H1322 C1330 0.950 . S
H1323 C1332 0.950 . S
H1324 C1334 0.950 . S
H1325 C1336 0.950 . S
H1326 C1338 0.950 . S
H1327 C1339 0.950 . S
C1328 H1320 0.950 . S
C1328 C1329 1.386 . S
C1328 C1330 1.391 . S
C1329 C1328 1.386 . S
C1329 C1333 1.393 . S
C1330 H1322 0.950 . S
C1330 C1328 1.391 . S
C1330 C1331 1.400 . S
C1331 C1330 1.400 . S
C1331 C1332 1.398 . S
C1331 C1337 1.491 . S
C1332 H1323 0.950 . S
C1332 C1331 1.398 . S
C1332 C1333 1.391 . S
C1333 H1321 0.950 . S
C1333 C1329 1.393 . S
C1333 C1332 1.391 . S
C1334 H1324 0.950 . S
C1334 C1335 1.386 . S
C1334 C1336 1.391 . S
C1335 C1334 1.386 . S
C1335 C1339 1.393 . S
C1336 H1325 0.950 . S
C1336 C1334 1.391 . S
C1336 C1337 1.400 . S
C1337 C1331 1.491 . S
C1337 C1336 1.400 . S
C1337 C1338 1.398 . S
C1338 H1326 0.950 . S
C1338 C1337 1.398 . S
C1338 C1339 1.391 . S
C1339 H1327 0.950 . S
C1339 C1335 1.393 . S
C1339 C1338 1.391 . S
H1340 C1348 0.950 . S
H1341 C1353 0.950 . S
H1342 C1350 0.950 . S
H1343 C1352 0.950 . S
H1344 C1354 0.950 . S
H1345 C1356 0.950 . S
H1346 C1358 0.950 . S
H1347 C1359 0.950 . S
C1348 H1340 0.950 . S
C1348 C1349 1.386 . S
C1348 C1350 1.391 . S
C1349 C1348 1.386 . S
C1349 C1353 1.393 . S
C1350 H1342 0.950 . S
C1350 C1348 1.391 . S
C1350 C1351 1.400 . S
C1351 C1350 1.400 . S
C1351 C1352 1.398 . S
C1351 C1357 1.491 . S
C1352 H1343 0.950 . S
C1352 C1351 1.398 . S
C1352 C1353 1.391 . S
C1353 H1341 0.950 . S
C1353 C1349 1.393 . S
C1353 C1352 1.391 . S
C1354 H1344 0.950 . S
C1354 C1355 1.386 . S
C1354 C1356 1.391 . S
C1355 C1354 1.386 . S
C1355 C1359 1.393 . S
C1356 H1345 0.950 . S
C1356 C1354 1.391 . S
C1356 C1357 1.400 . S
C1357 C1351 1.491 . S
C1357 C1356 1.400 . S
C1357 C1358 1.398 . S
C1358 H1346 0.950 . S
C1358 C1357 1.398 . S
C1358 C1359 1.391 . S
C1359 H1347 0.950 . S
C1359 C1355 1.393 . S
C1359 C1358 1.391 . S
H1360 C1368 0.950 . S
H1361 C1373 0.950 . S
H1362 C1370 0.950 . S
H1363 C1372 0.950 . S
H1364 C1374 0.950 . S
H1365 C1376 0.950 1_554 S
H1366 C1378 0.950 . S
H1367 C1379 0.950 . S
C1368 H1360 0.950 . S
C1368 C1369 1.386 . S
C1368 C1370 1.391 1_554 S
C1369 C1368 1.386 . S
C1369 C1373 1.393 . S
C1370 H1362 0.950 . S
C1370 C1368 1.391 1_556 S
C1370 C1371 1.397 1_556 S
C1371 C1370 1.397 1_554 S
C1371 C1372 1.415 . S
C1371 C1377 1.478 1_554 S
C1372 H1363 0.950 . S
C1372 C1371 1.415 . S
C1372 C1373 1.391 . S
C1373 H1361 0.950 . S
C1373 C1369 1.393 . S
C1373 C1372 1.391 . S
C1374 H1364 0.950 . S
C1374 C1375 1.386 . S
C1374 C1376 1.391 . S
C1375 C1374 1.386 . S
C1375 C1379 1.393 . S
C1376 H1365 0.950 1_556 S
C1376 C1374 1.391 . S
C1376 C1377 1.400 . S
C1377 C1371 1.478 1_556 S
C1377 C1376 1.400 . S
C1377 C1378 1.398 . S
C1378 H1366 0.950 . S
C1378 C1377 1.398 . S
C1378 C1379 1.391 . S
C1379 H1367 0.950 . S
C1379 C1375 1.393 . S
C1379 C1378 1.391 . S
H1380 C1388 0.950 . S
H1381 C1393 0.950 . S
H1382 C1390 0.950 . S
H1383 C1392 0.950 . S
H1384 C1394 0.950 . S
H1385 C1396 0.950 . S
H1386 C1398 0.950 . S
H1387 C1399 0.950 . S
C1388 H1380 0.950 . S
C1388 C1389 1.386 . S
C1388 C1390 1.391 . S
C1389 C1388 1.386 . S
C1389 C1393 1.393 . S
C1390 H1382 0.950 . S
C1390 C1388 1.391 . S
C1390 C1391 1.400 . S
C1391 C1390 1.400 . S
C1391 C1392 1.398 . S
C1391 C1397 1.491 . S
C1392 H1383 0.950 . S
C1392 C1391 1.398 . S
C1392 C1393 1.391 . S
C1393 H1381 0.950 . S
C1393 C1389 1.393 . S
C1393 C1392 1.391 . S
C1394 H1384 0.950 . S
C1394 C1395 1.386 . S
C1394 C1396 1.391 . S
C1395 C1394 1.386 . S
C1395 C1399 1.393 . S
C1396 H1385 0.950 . S
C1396 C1394 1.391 . S
C1396 C1397 1.400 . S
C1397 C1391 1.491 . S
C1397 C1396 1.400 . S
C1397 C1398 1.398 . S
C1398 H1386 0.950 . S
C1398 C1397 1.398 . S
C1398 C1399 1.391 . S
C1399 H1387 0.950 . S
C1399 C1395 1.393 . S
C1399 C1398 1.391 . S
H1400 C1408 0.950 . S
H1401 C1413 0.950 . S
H1402 C1410 0.950 . S
H1403 C1412 0.950 . S
H1404 C1414 0.950 . S
H1405 C1416 0.950 . S
H1406 C1418 0.950 . S
H1407 C1419 0.950 . S
C1408 H1400 0.950 . S
C1408 C1409 1.386 . S
C1408 C1410 1.391 . S
C1409 C1408 1.386 . S
C1409 C1413 1.393 . S
C1410 H1402 0.950 . S
C1410 C1408 1.391 . S
C1410 C1411 1.400 . S
C1411 C1410 1.400 . S
C1411 C1412 1.398 . S
C1411 C1417 1.491 . S
C1412 H1403 0.950 . S
C1412 C1411 1.398 . S
C1412 C1413 1.391 . S
C1413 H1401 0.950 . S
C1413 C1409 1.393 . S
C1413 C1412 1.391 . S
C1414 H1404 0.950 . S
C1414 C1415 1.386 . S
C1414 C1416 1.391 . S
C1415 C1414 1.386 . S
C1415 C1419 1.393 . S
C1416 H1405 0.950 . S
C1416 C1414 1.391 . S
C1416 C1417 1.400 . S
C1417 C1411 1.491 . S
C1417 C1416 1.400 . S
C1417 C1418 1.398 . S
C1418 H1406 0.950 . S
C1418 C1417 1.398 . S
C1418 C1419 1.391 . S
C1419 H1407 0.950 . S
C1419 C1415 1.393 . S
C1419 C1418 1.391 . S
H1420 C1428 0.950 . S
H1421 C1433 0.950 . S
H1422 C1430 0.950 . S
H1423 C1432 0.950 . S
H1424 C1434 0.950 . S
H1425 C1436 0.950 . S
H1426 C1438 0.950 . S
H1427 C1439 0.950 . S
C1428 H1420 0.950 . S
C1428 C1429 1.386 . S
C1428 C1430 1.391 . S
C1429 C1428 1.386 . S
C1429 C1433 1.393 . S
C1430 H1422 0.950 . S
C1430 C1428 1.391 . S
C1430 C1431 1.400 . S
C1431 C1430 1.400 . S
C1431 C1432 1.398 . S
C1431 C1437 1.491 . S
C1432 H1423 0.950 . S
C1432 C1431 1.398 . S
C1432 C1433 1.391 . S
C1433 H1421 0.950 . S
C1433 C1429 1.393 . S
C1433 C1432 1.391 . S
C1434 H1424 0.950 . S
C1434 C1435 1.386 . S
C1434 C1436 1.391 . S
C1435 C1434 1.386 . S
C1435 C1439 1.393 . S
C1436 H1425 0.950 . S
C1436 C1434 1.391 . S
C1436 C1437 1.400 . S
C1437 C1431 1.491 . S
C1437 C1436 1.400 . S
C1437 C1438 1.398 . S
C1438 H1426 0.950 . S
C1438 C1437 1.398 . S
C1438 C1439 1.391 . S
C1439 H1427 0.950 . S
C1439 C1435 1.393 . S
C1439 C1438 1.391 . S
H1440 C1448 0.950 . S
H1441 C1453 0.950 . S
H1442 C1450 0.950 . S
H1443 C1452 0.950 . S
H1444 C1454 0.950 . S
H1445 C1456 0.950 . S
H1446 C1458 0.950 . S
H1447 C1459 0.950 . S
C1448 H1440 0.950 . S
C1448 C1449 1.386 . S
C1448 C1450 1.391 . S
C1449 C1448 1.386 . S
C1449 C1453 1.393 . S
C1450 H1442 0.950 . S
C1450 C1448 1.391 . S
C1450 C1451 1.400 . S
C1451 C1450 1.400 . S
C1451 C1452 1.398 . S
C1451 C1457 1.491 1_565 S
C1452 H1443 0.950 . S
C1452 C1451 1.398 . S
C1452 C1453 1.391 . S
C1453 H1441 0.950 . S
C1453 C1449 1.393 . S
C1453 C1452 1.391 . S
C1454 H1444 0.950 . S
C1454 C1455 1.386 . S
C1454 C1456 1.391 . S
C1455 C1454 1.386 . S
C1455 C1459 1.393 . S
C1456 H1445 0.950 . S
C1456 C1454 1.391 . S
C1456 C1457 1.400 . S
C1457 C1451 1.491 1_545 S
C1457 C1456 1.400 . S
C1457 C1458 1.398 . S
C1458 H1446 0.950 . S
C1458 C1457 1.398 . S
C1458 C1459 1.391 . S
C1459 H1447 0.950 . S
C1459 C1455 1.393 . S
C1459 C1458 1.391 . S
H1460 C1468 0.950 . S
H1461 C1473 0.950 . S
H1462 C1470 0.950 . S
H1463 C1472 0.950 . S
H1464 C1474 0.950 . S
H1465 C1476 0.950 . S
H1466 C1478 0.950 . S
H1467 C1479 0.950 . S
C1468 H1460 0.950 . S
C1468 C1469 1.386 . S
C1468 C1470 1.391 . S
C1469 C1468 1.386 . S
C1469 C1473 1.393 . S
C1470 H1462 0.950 . S
C1470 C1468 1.391 . S
C1470 C1471 1.400 . S
C1471 C1470 1.400 . S
C1471 C1472 1.398 . S
C1471 C1477 1.491 . S
C1472 H1463 0.950 . S
C1472 C1471 1.398 . S
C1472 C1473 1.391 . S
C1473 H1461 0.950 . S
C1473 C1469 1.393 . S
C1473 C1472 1.391 . S
C1474 H1464 0.950 . S
C1474 C1475 1.386 . S
C1474 C1476 1.391 . S
C1475 C1474 1.386 . S
C1475 C1479 1.393 . S
C1476 H1465 0.950 . S
C1476 C1474 1.391 . S
C1476 C1477 1.400 . S
C1477 C1471 1.491 . S
C1477 C1476 1.400 . S
C1477 C1478 1.398 . S
C1478 H1466 0.950 . S
C1478 C1477 1.398 . S
C1478 C1479 1.391 . S
C1479 H1467 0.950 . S
C1479 C1475 1.393 . S
C1479 C1478 1.391 . S
H1480 C1488 0.950 . S
H1481 C1493 0.950 . S
H1482 C1490 0.950 1_556 S
H1483 C1492 0.950 1_545 S
H1484 C1494 0.950 . S
H1485 C1496 0.950 . S
H1486 C1498 0.950 1_565 S
H1487 C1499 0.950 . S
C1488 H1480 0.950 . S
C1488 C1489 1.386 . S
C1488 C1490 1.391 . S
C1489 C1488 1.386 . S
C1489 C1493 1.393 . S
C1490 H1482 0.950 1_554 S
C1490 C1488 1.391 . S
C1490 C1491 1.400 . S
C1491 C1490 1.400 . S
C1491 C1492 1.398 . S
C1491 C1497 1.478 1_564 S
C1492 H1483 0.950 1_565 S
C1492 C1491 1.398 . S
C1492 C1493 1.391 . S
C1493 H1481 0.950 . S
C1493 C1489 1.393 . S
C1493 C1492 1.391 . S
C1494 H1484 0.950 . S
C1494 C1495 1.386 . S
C1494 C1496 1.391 1_556 S
C1495 C1494 1.386 . S
C1495 C1499 1.393 . S
C1496 H1485 0.950 . S
C1496 C1494 1.391 1_554 S
C1496 C1497 1.394 1_554 S
C1497 C1491 1.478 1_546 S
C1497 C1496 1.394 1_556 S
C1497 C1498 1.419 . S
C1498 H1486 0.950 1_545 S
C1498 C1497 1.419 . S
C1498 C1499 1.391 . S
C1499 H1487 0.950 . S
C1499 C1495 1.393 . S
C1499 C1498 1.391 . S
H1500 C1508 0.950 . S
H1501 C1513 0.950 . S
H1502 C1510 0.950 . S
H1503 C1512 0.950 . S
H1504 C1514 0.950 . S
H1505 C1516 0.950 . S
H1506 C1518 0.950 . S
H1507 C1519 0.950 . S
C1508 H1500 0.950 . S
C1508 C1509 1.386 . S
C1508 C1510 1.391 . S
C1509 C1508 1.386 . S
C1509 C1513 1.393 . S
C1510 H1502 0.950 . S
C1510 C1508 1.391 . S
C1510 C1511 1.400 . S
C1511 C1510 1.400 . S
C1511 C1512 1.398 . S
C1511 C1517 1.491 . S
C1512 H1503 0.950 . S
C1512 C1511 1.398 . S
C1512 C1513 1.391 . S
C1513 H1501 0.950 . S
C1513 C1509 1.393 . S
C1513 C1512 1.391 . S
C1514 H1504 0.950 . S
C1514 C1515 1.386 . S
C1514 C1516 1.391 . S
C1515 C1514 1.386 . S
C1515 C1519 1.393 . S
C1516 H1505 0.950 . S
C1516 C1514 1.391 . S
C1516 C1517 1.400 . S
C1517 C1511 1.491 . S
C1517 C1516 1.400 . S
C1517 C1518 1.398 . S
C1518 H1506 0.950 . S
C1518 C1517 1.398 . S
C1518 C1519 1.391 . S
C1519 H1507 0.950 . S
C1519 C1515 1.393 . S
C1519 C1518 1.391 . S
H1520 C1528 0.950 . S
H1521 C1533 0.950 . S
H1522 C1530 0.950 . S
H1523 C1532 0.950 1_545 S
H1524 C1534 0.950 . S
H1525 C1536 0.950 . S
H1526 C1538 0.950 1_565 S
H1527 C1539 0.950 . S
C1528 H1520 0.950 . S
C1528 C1529 1.386 . S
C1528 C1530 1.391 . S
C1529 C1528 1.386 . S
C1529 C1533 1.393 . S
C1530 H1522 0.950 . S
C1530 C1528 1.391 . S
C1530 C1531 1.400 . S
C1531 C1530 1.400 . S
C1531 C1532 1.398 . S
C1531 C1537 1.491 1_565 S
C1532 H1523 0.950 1_565 S
C1532 C1531 1.398 . S
C1532 C1533 1.391 . S
C1533 H1521 0.950 . S
C1533 C1529 1.393 . S
C1533 C1532 1.391 . S
C1534 H1524 0.950 . S
C1534 C1535 1.386 . S
C1534 C1536 1.391 . S
C1535 C1534 1.386 . S
C1535 C1539 1.393 . S
C1536 H1525 0.950 . S
C1536 C1534 1.391 . S
C1536 C1537 1.400 . S
C1537 C1531 1.491 1_545 S
C1537 C1536 1.400 . S
C1537 C1538 1.398 . S
C1538 H1526 0.950 1_545 S
C1538 C1537 1.398 . S
C1538 C1539 1.391 . S
C1539 H1527 0.950 . S
C1539 C1535 1.393 . S
C1539 C1538 1.391 . S
H1540 C1548 0.950 . S
H1541 C1553 0.950 . S
H1542 C1550 0.950 . S
H1543 C1552 0.950 . S
H1544 C1554 0.950 . S
H1545 C1556 0.950 . S
H1546 C1558 0.950 . S
H1547 C1559 0.950 . S
C1548 H1540 0.950 . S
C1548 C1549 1.386 . S
C1548 C1550 1.391 . S
C1549 C1548 1.386 . S
C1549 C1553 1.393 . S
C1550 H1542 0.950 . S
C1550 C1548 1.391 . S
C1550 C1551 1.400 . S
C1551 C1550 1.400 . S
C1551 C1552 1.398 . S
C1551 C1557 1.491 . S
C1552 H1543 0.950 . S
C1552 C1551 1.398 . S
C1552 C1553 1.391 . S
C1553 H1541 0.950 . S
C1553 C1549 1.393 . S
C1553 C1552 1.391 . S
C1554 H1544 0.950 . S
C1554 C1555 1.386 . S
C1554 C1556 1.391 . S
C1555 C1554 1.386 . S
C1555 C1559 1.393 . S
C1556 H1545 0.950 . S
C1556 C1554 1.391 . S
C1556 C1557 1.400 . S
C1557 C1551 1.491 . S
C1557 C1556 1.400 . S
C1557 C1558 1.398 . S
C1558 H1546 0.950 . S
C1558 C1557 1.398 . S
C1558 C1559 1.391 . S
C1559 H1547 0.950 . S
C1559 C1555 1.393 . S
C1559 C1558 1.391 . S
H1560 C1568 0.950 . S
H1561 C1573 0.950 . S
H1562 C1570 0.950 . S
H1563 C1572 0.950 . S
H1564 C1574 0.950 . S
H1565 C1576 0.950 1_556 S
H1566 C1578 0.950 1_556 S
H1567 C1579 0.950 . S
C1568 H1560 0.950 . S
C1568 C1569 1.386 . S
C1568 C1570 1.391 . S
C1569 C1568 1.386 . S
C1569 C1573 1.393 . S
C1570 H1562 0.950 . S
C1570 C1568 1.391 . S
C1570 C1571 1.400 . S
C1571 C1570 1.400 . S
C1571 C1572 1.398 . S
C1571 C1577 1.491 1_545 S
C1572 H1563 0.950 . S
C1572 C1571 1.398 . S
C1572 C1573 1.391 . S
C1573 H1561 0.950 . S
C1573 C1569 1.393 . S
C1573 C1572 1.391 . S
C1574 H1564 0.950 . S
C1574 C1575 1.386 . S
C1574 C1576 1.391 . S
C1575 C1574 1.386 . S
C1575 C1579 1.393 . S
C1576 H1565 0.950 1_554 S
C1576 C1574 1.391 . S
C1576 C1577 1.400 1_554 S
C1577 C1571 1.491 1_565 S
C1577 C1576 1.400 1_556 S
C1577 C1578 1.398 1_556 S
C1578 H1566 0.950 1_554 S
C1578 C1577 1.398 1_554 S
C1578 C1579 1.391 . S
C1579 H1567 0.950 . S
C1579 C1575 1.393 . S
C1579 C1578 1.391 . S
H1580 C1588 0.950 . S
H1581 C1593 0.950 . S
H1582 C1590 0.950 . S
H1583 C1592 0.950 . S
H1584 C1594 0.950 . S
H1585 C1596 0.950 . S
H1586 C1598 0.950 . S
H1587 C1599 0.950 . S
C1588 H1580 0.950 . S
C1588 C1589 1.386 . S
C1588 C1590 1.391 . S
C1589 C1588 1.386 . S
C1589 C1593 1.393 . S
C1590 H1582 0.950 . S
C1590 C1588 1.391 . S
C1590 C1591 1.400 . S
C1591 C1590 1.400 . S
C1591 C1592 1.398 . S
C1591 C1597 1.491 . S
C1592 H1583 0.950 . S
C1592 C1591 1.398 . S
C1592 C1593 1.391 . S
C1593 H1581 0.950 . S
C1593 C1589 1.393 . S
C1593 C1592 1.391 . S
C1594 H1584 0.950 . S
C1594 C1595 1.386 . S
C1594 C1596 1.391 . S
C1595 C1594 1.386 . S
C1595 C1599 1.393 . S
C1596 H1585 0.950 . S
C1596 C1594 1.391 . S
C1596 C1597 1.400 . S
C1597 C1591 1.491 . S
C1597 C1596 1.400 . S
C1597 C1598 1.398 . S
C1598 H1586 0.950 . S
C1598 C1597 1.398 . S
C1598 C1599 1.391 . S
C1599 H1587 0.950 . S
C1599 C1595 1.393 . S
C1599 C1598 1.391 . S
C649 C15 1.641 . S
C655 C6 1.641 . S
C669 C46 1.548 1_556 S
C675 C55 1.548 . S
C689 C95 1.871 . S
C695 C86 1.871 . S
C709 C126 1.752 . S
C715 C135 1.752 . S
C729 C175 1.565 . S
C735 C166 1.565 . S
C749 C215 1.866 . S
C755 C206 1.866 . S
C769 C255 1.731 . S
C775 C246 1.731 1_556 S
C789 C286 1.648 . S
C795 C295 1.648 . S
C809 C326 1.621 . S
C815 C335 1.621 . S
C829 C366 1.557 . S
C835 C375 1.557 1_554 S
C849 C406 1.938 1_556 S
C855 C415 1.938 . S
C869 C455 1.746 . S
C875 C446 1.746 . S
C889 C486 1.557 . S
C895 C495 1.557 . S
C909 C526 1.947 . S
C915 C535 1.947 . S
C929 C566 1.743 . S
C935 C575 1.743 1_554 S
C949 C615 1.643 . S
C955 C606 1.643 . S
C969 C10 1.996 . S
C975 C459 2.009 . S
C989 C49 1.542 . S
C995 C618 1.580 . S
C1009 C90 2.015 . S
C1015 C379 2.058 . S
C1029 C129 1.509 . S
C1035 C539 1.523 . S
C1049 C170 1.931 . S
C1055 C538 1.876 . S
C1069 C458 1.468 . S
C1075 C209 1.525 . S
C1089 C250 1.973 . S
C1095 C619 1.950 . S
C1109 C289 1.528 . S
C1115 C378 1.497 . S
C1129 C130 1.957 . S
C1135 C339 1.964 . S
C1149 C50 1.918 . S
C1155 C418 1.886 . S
C1169 C499 2.060 . S
C1175 C210 2.014 . S
C1189 C290 1.990 . S
C1195 C579 2.016 . S
C1209 C338 1.583 . S
C1215 C169 1.538 . S
C1229 C249 1.509 . S
C1235 C419 1.523 . S
C1249 C89 1.514 . S
C1255 C578 1.479 . S
C1269 C9 1.520 . S
C1275 C498 1.507 . S
C1289 C19 2.029 . S
C1295 C179 2.031 . S
C1309 C58 1.743 . S
C1315 C218 1.742 . S
C1329 C99 1.738 . S
C1335 C259 1.732 . S
C1349 C138 1.449 . S
C1355 C298 1.437 . S
C1369 C490 2.003 . S
C1375 C330 1.989 . S
C1389 C530 1.642 . S
C1395 C369 1.625 . S
C1409 C409 1.957 . S
C1415 C570 1.959 . S
C1429 C609 1.489 . S
C1435 C449 1.498 . S
C1449 C59 2.030 . S
C1455 C299 2.022 . S
C1469 C178 1.734 . S
C1475 C98 1.740 . S
C1489 C219 1.730 . S
C1495 C139 1.740 . S
C1509 C18 1.439 . S
C1515 C258 1.438 . S
C1529 C610 1.998 . S
C1535 C370 2.001 . S
C1549 C489 1.619 . S
C1555 C410 1.635 . S
C1569 C529 1.952 . S
C1575 C450 1.951 . S
C1589 C569 1.503 . S
C1595 C329 1.477 . S
