# Generated by pormake.
# Topology uob, (4)-cn, num edge types: 1
# Building blocks:
#     Node 0, Type 0, BuildingBlock: ICAMEG_clean_sbu_1, # of connection points: 4
#     Node 1, Type 0, BuildingBlock: ICAMEG_clean_sbu_1, # of connection points: 4
#     Node 2, Type 0, BuildingBlock: ICAMEG_clean_sbu_1, # of connection points: 4
#     Node 3, Type 0, BuildingBlock: ICAMEG_clean_sbu_1, # of connection points: 4
#     Node 4, Type 0, BuildingBlock: ICAMEG_clean_sbu_1, # of connection points: 4
#     Node 5, Type 0, BuildingBlock: ICAMEG_clean_sbu_1, # of connection points: 4
#     Node 6, Type 0, BuildingBlock: ICAMEG_clean_sbu_1, # of connection points: 4
#     Node 7, Type 0, BuildingBlock: ICAMEG_clean_sbu_1, # of connection points: 4
#     Node 8, Type 0, BuildingBlock: ICAMEG_clean_sbu_1, # of connection points: 4
#     Node 9, Type 0, BuildingBlock: ICAMEG_clean_sbu_1, # of connection points: 4
#     Node 10, Type 0, BuildingBlock: ICAMEG_clean_sbu_1, # of connection points: 4
#     Node 11, Type 0, BuildingBlock: ICAMEG_clean_sbu_1, # of connection points: 4
#     Node 12, Type 0, BuildingBlock: ICAMEG_clean_sbu_1, # of connection points: 4
#     Node 13, Type 0, BuildingBlock: ICAMEG_clean_sbu_1, # of connection points: 4
#     Node 14, Type 0, BuildingBlock: ICAMEG_clean_sbu_1, # of connection points: 4
#     Node 15, Type 0, BuildingBlock: ICAMEG_clean_sbu_1, # of connection points: 4
#     Edge 16, Type (0, 0), BuildingBlock: AJUNOK_clean_linker_0, # of connection points: 2
#     Edge 17, Type (0, 0), BuildingBlock: AJUNOK_clean_linker_0, # of connection points: 2
#     Edge 18, Type (0, 0), BuildingBlock: AJUNOK_clean_linker_0, # of connection points: 2
#     Edge 19, Type (0, 0), BuildingBlock: AJUNOK_clean_linker_0, # of connection points: 2
#     Edge 20, Type (0, 0), BuildingBlock: AJUNOK_clean_linker_0, # of connection points: 2
#     Edge 21, Type (0, 0), BuildingBlock: AJUNOK_clean_linker_0, # of connection points: 2
#     Edge 22, Type (0, 0), BuildingBlock: AJUNOK_clean_linker_0, # of connection points: 2
#     Edge 23, Type (0, 0), BuildingBlock: AJUNOK_clean_linker_0, # of connection points: 2
#     Edge 24, Type (0, 0), BuildingBlock: AJUNOK_clean_linker_0, # of connection points: 2
#     Edge 25, Type (0, 0), BuildingBlock: AJUNOK_clean_linker_0, # of connection points: 2
#     Edge 26, Type (0, 0), BuildingBlock: AJUNOK_clean_linker_0, # of connection points: 2
#     Edge 27, Type (0, 0), BuildingBlock: AJUNOK_clean_linker_0, # of connection points: 2
#     Edge 28, Type (0, 0), BuildingBlock: AJUNOK_clean_linker_0, # of connection points: 2
#     Edge 29, Type (0, 0), BuildingBlock: AJUNOK_clean_linker_0, # of connection points: 2
#     Edge 30, Type (0, 0), BuildingBlock: AJUNOK_clean_linker_0, # of connection points: 2
#     Edge 31, Type (0, 0), BuildingBlock: AJUNOK_clean_linker_0, # of connection points: 2
#     Edge 32, Type (0, 0), BuildingBlock: AJUNOK_clean_linker_0, # of connection points: 2
#     Edge 33, Type (0, 0), BuildingBlock: AJUNOK_clean_linker_0, # of connection points: 2
#     Edge 34, Type (0, 0), BuildingBlock: AJUNOK_clean_linker_0, # of connection points: 2
#     Edge 35, Type (0, 0), BuildingBlock: AJUNOK_clean_linker_0, # of connection points: 2
#     Edge 36, Type (0, 0), BuildingBlock: AJUNOK_clean_linker_0, # of connection points: 2
#     Edge 37, Type (0, 0), BuildingBlock: AJUNOK_clean_linker_0, # of connection points: 2
#     Edge 38, Type (0, 0), BuildingBlock: AJUNOK_clean_linker_0, # of connection points: 2
#     Edge 39, Type (0, 0), BuildingBlock: AJUNOK_clean_linker_0, # of connection points: 2
#     Edge 40, Type (0, 0), BuildingBlock: AJUNOK_clean_linker_0, # of connection points: 2
#     Edge 41, Type (0, 0), BuildingBlock: AJUNOK_clean_linker_0, # of connection points: 2
#     Edge 42, Type (0, 0), BuildingBlock: AJUNOK_clean_linker_0, # of connection points: 2
#     Edge 43, Type (0, 0), BuildingBlock: AJUNOK_clean_linker_0, # of connection points: 2
#     Edge 44, Type (0, 0), BuildingBlock: AJUNOK_clean_linker_0, # of connection points: 2
#     Edge 45, Type (0, 0), BuildingBlock: AJUNOK_clean_linker_0, # of connection points: 2
#     Edge 46, Type (0, 0), BuildingBlock: AJUNOK_clean_linker_0, # of connection points: 2
#     Edge 47, Type (0, 0), BuildingBlock: AJUNOK_clean_linker_0, # of connection points: 2
# Relax obj value: 0.095
# Max RMSD: 0.128
# Mean RMSD: 0.128
data_MOF--net-uob--node1-ICAMEG_clean_sbu_1--edge1-AJUNOK_clean_linker_0
_symmetry_space_group_name_H-M    P1
_symmetry_Int_Tables_number       1
_symmetry_cell_setting            triclinic
loop_
_symmetry_equiv_pos_as_xyz
'x, y, z'
_cell_length_a     43.285948
_cell_length_b     43.311856
_cell_length_c     22.396425
_cell_angle_alpha  89.995706
_cell_angle_beta   89.982452
_cell_angle_gamma 89.964795
loop_
_atom_site_label
_atom_site_type_symbol
_atom_site_fract_x
_atom_site_fract_y
_atom_site_fract_z
_atom_type_partial_charge
Co0 Co 0.09597 0.09627 0.27642 0.0
Co1 Co 0.13071 0.02741 0.31849 0.0
O2 O 0.12946 0.06577 0.27223 0.0
C3 C 0.09443 0.07555 0.15188 0.0
O4 O 0.10053 0.04755 0.17088 0.0
C5 C 0.18738 0.06031 0.35948 0.0
O6 O 0.17164 0.08621 0.35805 0.0
O7 O 0.11713 0.04923 0.39208 0.0
O8 O 0.09694 0.09493 0.36444 0.0
H9 H 0.08888 0.94922 0.46315 0.0
H10 H 0.15125 0.10943 0.2027 0.0
O11 O 0.09351 0.09816 0.18791 0.0
H12 H 0.14859 0.19161 0.35503 0.0
H13 H 0.04061 0.19334 0.21412 0.0
H14 H 0.03849 0.1028 0.34748 0.0
H15 H 0.10804 0.15164 0.35215 0.0
H16 H 0.08264 0.1549 0.21146 0.0
O17 O 0.17493 0.03519 0.34204 0.0
H18 H 0.08783 0.997 0.40322 0.0
H19 H 0.17652 0.97631 0.33254 0.0
H20 H 0.99613 0.14083 0.35215 0.0
H21 H 0.19217 0.14908 0.20367 0.0
H22 H 0.99701 0.1865 0.28505 0.0
H23 H 0.19102 0.19049 0.28036 0.0
O24 O 0.06353 0.06355 0.27609 0.0
H25 H 0.19501 0.01494 0.13343 0.0
H26 H 0.11318 0.96866 0.25741 0.0
H27 H 0.12914 0.94261 0.16448 0.0
H28 H 0.17042 0.96579 0.10178 0.0
H29 H 0.17792 0.04035 0.22639 0.0
H30 H 0.1787 0.9285 0.39226 0.0
H31 H 0.13459 0.91463 0.45799 0.0
O32 O 0.08664 0.01845 0.2975 0.0
C33 C 0.10487 0.07532 0.40377 0.0
C34 C 0.10821 0.95497 0.43458 0.0
C35 C 0.15863 0.94335 0.39483 0.0
N36 N 0.13203 0.98937 0.36423 0.0
C37 C 0.10772 0.98195 0.40042 0.0
C38 C 0.1573 0.9705 0.36125 0.0
C39 C 0.13388 0.93559 0.43169 0.0
C40 C 0.15047 0.12755 0.23585 0.0
N41 N 0.12721 0.12834 0.27707 0.0
C42 C 0.17375 0.14986 0.23634 0.0
C43 C 0.17312 0.17307 0.27943 0.0
C44 C 0.14933 0.1737 0.32136 0.0
C45 C 0.12646 0.15098 0.31957 0.0
C46 C 0.04004 0.17364 0.24382 0.0
C47 C 0.03922 0.12281 0.31872 0.0
C48 C 0.06378 0.15179 0.24253 0.0
N49 N 0.06325 0.12686 0.27996 0.0
C50 C 0.01509 0.14419 0.32132 0.0
C51 C 0.01558 0.16978 0.2836 0.0
C52 C 0.06278 0.03441 0.28434 0.0
C53 C 0.17695 0.00465 0.16028 0.0
C54 C 0.13079 0.97905 0.22996 0.0
C55 C 0.13993 0.9641 0.1776 0.0
C56 C 0.16313 0.97709 0.14251 0.0
N57 N 0.14432 0.00613 0.24693 0.0
C58 C 0.16723 0.0189 0.21299 0.0
Co59 Co 0.91473 0.59468 0.53238 0.0
Co60 Co 0.9816 0.63108 0.58016 0.0
O61 O 0.94443 0.62887 0.53062 0.0
C62 C 0.93648 0.59472 0.40851 0.0
O63 O 0.96438 0.60055 0.42841 0.0
C64 C 0.94811 0.6885 0.616 0.0
O65 O 0.92287 0.67187 0.6209 0.0
O66 O 0.95794 0.61869 0.65264 0.0
O67 O 0.91515 0.59462 0.62049 0.0
H68 H 0.05634 0.59237 0.73467 0.0
H69 H 0.90111 0.65063 0.46108 0.0
O70 O 0.91363 0.59332 0.4439 0.0
H71 H 0.81703 0.64395 0.60916 0.0
H72 H 0.81939 0.53793 0.46511 0.0
H73 H 0.90944 0.53596 0.59983 0.0
H74 H 0.85801 0.60442 0.60605 0.0
H75 H 0.85674 0.5809 0.46556 0.0
O76 O 0.97316 0.67579 0.59875 0.0
H77 H 0.0098 0.59023 0.67126 0.0
H78 H 0.03256 0.67696 0.59468 0.0
H79 H 0.87256 0.49259 0.60116 0.0
H80 H 0.86043 0.69056 0.46222 0.0
H81 H 0.8271 0.49342 0.53348 0.0
H82 H 0.81805 0.6874 0.53677 0.0
O83 O 0.94832 0.56307 0.53156 0.0
H84 H 0.99893 0.69229 0.39272 0.0
H85 H 0.04144 0.61179 0.52468 0.0
H86 H 0.06979 0.62617 0.43338 0.0
H87 H 0.04855 0.66679 0.36667 0.0
H88 H 0.97118 0.67681 0.48416 0.0
H89 H 0.07909 0.68029 0.65784 0.0
H90 H 0.09133 0.63767 0.72825 0.0
O91 O 0.99132 0.5867 0.56344 0.0
C92 C 0.93269 0.60423 0.66196 0.0
C93 C 0.05127 0.61107 0.70413 0.0
C94 C 0.06402 0.66044 0.66108 0.0
N95 N 0.01849 0.63344 0.62921 0.0
C96 C 0.02499 0.60997 0.66803 0.0
C97 C 0.03755 0.65851 0.62562 0.0
C98 C 0.07089 0.63651 0.70053 0.0
C99 C 0.8826 0.64899 0.49334 0.0
N100 N 0.88187 0.62516 0.5333 0.0
C101 C 0.85969 0.67171 0.49391 0.0
C102 C 0.83594 0.66994 0.5358 0.0
C103 C 0.83537 0.64558 0.57645 0.0
C104 C 0.85869 0.62331 0.5746 0.0
C105 C 0.839 0.53737 0.49506 0.0
C106 C 0.8896 0.53659 0.57055 0.0
C107 C 0.86021 0.56166 0.49555 0.0
N108 N 0.88499 0.56117 0.53338 0.0
C109 C 0.86884 0.51192 0.57137 0.0
C110 C 0.84336 0.5124 0.53338 0.0
C111 C 0.97687 0.56274 0.54564 0.0
C112 C 0.00842 0.67455 0.42139 0.0
C113 C 0.03191 0.62916 0.49561 0.0
C114 C 0.04814 0.63738 0.44412 0.0
C115 C 0.03624 0.66021 0.40677 0.0
N116 N 0.00461 0.64326 0.50959 0.0
C117 C 0.99286 0.66575 0.47331 0.0
Co118 Co 0.41416 0.41713 0.78689 0.0
Co119 Co 0.37743 0.48271 0.83995 0.0
O120 O 0.37944 0.44618 0.7887 0.0
C121 C 0.40958 0.43805 0.66258 0.0
O122 O 0.40503 0.46613 0.68277 0.0
C123 C 0.3211 0.44796 0.87495 0.0
O124 O 0.33857 0.42321 0.87696 0.0
O125 O 0.39022 0.45814 0.91084 0.0
O126 O 0.41735 0.41789 0.87515 0.0
H127 H 0.41696 0.55617 -0.00418 0.0
H128 H 0.35616 0.40181 0.7233 0.0
O129 O 0.41243 0.41547 0.69833 0.0
H130 H 0.36906 0.31995 0.87433 0.0
H131 H 0.46981 0.3219 0.7154 0.0
H132 H 0.47602 0.41417 0.84368 0.0
H133 H 0.40809 0.36104 0.86358 0.0
H134 H 0.42627 0.35856 0.72082 0.0
O135 O 0.33285 0.47372 0.85921 0.0
H136 H 0.41893 0.5103 0.93064 0.0
H137 H 0.33078 0.53251 0.85928 0.0
H138 H 0.52003 0.37805 0.83996 0.0
H139 H 0.31666 0.361 0.73223 0.0
H140 H 0.51706 0.33146 0.77554 0.0
H141 H 0.32292 0.31979 0.80841 0.0
O142 O 0.44472 0.4514 0.78158 0.0
H143 H 0.31567 0.50217 0.65396 0.0
H144 H 0.39665 0.54303 0.78682 0.0
H145 H 0.38216 0.57229 0.69663 0.0
H146 H 0.34137 0.55183 0.62941 0.0
H147 H 0.33115 0.47356 0.74441 0.0
H148 H 0.32769 0.57845 0.92419 0.0
H149 H 0.3711 0.59061 -0.00716 0.0
O150 O 0.42182 0.49273 0.82274 0.0
C151 C 0.40668 0.43396 0.91799 0.0
C152 C 0.39795 0.55117 0.96597 0.0
C153 C 0.34783 0.56366 0.9258 0.0
N154 N 0.37513 0.51891 0.89078 0.0
C155 C 0.39897 0.52528 0.92883 0.0
C156 C 0.34967 0.53758 0.88925 0.0
C157 C 0.3722 0.57047 0.9643 0.0
C158 C 0.35921 0.38373 0.75605 0.0
N159 N 0.38447 0.38371 0.79262 0.0
C160 C 0.33671 0.36077 0.76109 0.0
C161 C 0.34022 0.33768 0.8039 0.0
C162 C 0.36609 0.33777 0.84093 0.0
C163 C 0.38809 0.36113 0.8347 0.0
C164 C 0.47129 0.34198 0.74404 0.0
C165 C 0.47441 0.39376 0.81615 0.0
C166 C 0.44668 0.36278 0.74741 0.0
N167 N 0.44828 0.38807 0.7838 0.0
C168 C 0.49947 0.37347 0.81395 0.0
C169 C 0.4978 0.34736 0.77774 0.0
C170 C 0.44527 0.47931 0.7998 0.0
C171 C 0.33345 0.51134 0.68292 0.0
C172 C 0.37905 0.53392 0.75767 0.0
C173 C 0.37083 0.55064 0.70677 0.0
C174 C 0.34791 0.53918 0.66912 0.0
N175 N 0.36486 0.50659 0.77079 0.0
C176 C 0.34224 0.4953 0.73429 0.0
Co177 Co 0.59303 0.90722 0.02741 0.0
Co178 Co 0.52431 0.87751 0.0825 0.0
O179 O 0.56015 0.87611 0.02928 0.0
C180 C 0.56795 0.9125 0.90535 0.0
O181 O 0.54024 0.91423 0.92888 0.0
C182 C 0.55553 0.81908 0.11785 0.0
O183 O 0.58192 0.83379 0.11322 0.0
O184 O 0.55049 0.88963 0.15167 0.0
O185 O 0.59548 0.90753 0.11595 0.0
H186 H 0.45671 0.92472 0.2405 0.0
H187 H 0.5992 0.85019 0.95531 0.0
O188 O 0.59149 0.90797 0.93819 0.0
H189 H 0.68751 0.84882 0.09436 0.0
H190 H 0.69131 0.95409 0.94838 0.0
H191 H 0.60622 0.96517 0.09321 0.0
H192 H 0.65053 0.89216 0.09499 0.0
H193 H 0.64973 0.91525 0.95334 0.0
O194 O 0.53036 0.83285 0.10476 0.0
H195 H 0.50122 0.92242 0.17177 0.0
H196 H 0.47109 0.83544 0.10667 0.0
H197 H 0.64738 0.00448 0.09003 0.0
H198 H 0.63578 0.80649 0.95282 0.0
H199 H 0.69038 0.99903 0.01728 0.0
H200 H 0.68025 0.80559 0.02285 0.0
O201 O 0.56256 0.94193 0.03066 0.0
H202 H 0.49801 0.81469 0.90104 0.0
H203 H 0.464 0.89904 0.03341 0.0
H204 H 0.43212 0.88507 0.9462 0.0
H205 H 0.44908 0.84252 0.87938 0.0
H206 H 0.52936 0.82982 0.98831 0.0
H207 H 0.42647 0.83656 0.17524 0.0
H208 H 0.419 0.88154 0.2426 0.0
O209 O 0.51736 0.92195 0.0621 0.0
C210 C 0.5775 0.90078 0.15896 0.0
C211 C 0.45969 0.90502 0.2113 0.0
C212 C 0.44274 0.85553 0.17474 0.0
N213 N 0.48872 0.87884 0.1352 0.0
C214 C 0.4848 0.90363 0.17219 0.0
C215 C 0.46812 0.85495 0.1362 0.0
C216 C 0.43855 0.88077 0.2125 0.0
C217 C 0.61866 0.85008 0.98554 0.0
N218 N 0.6228 0.87375 0.02504 0.0
C219 C 0.63923 0.82523 0.98408 0.0
C220 C 0.66415 0.82472 0.02345 0.0
C221 C 0.66823 0.84895 0.06361 0.0
C222 C 0.64717 0.8734 0.06385 0.0
C223 C 0.67278 0.95665 0.98047 0.0
C224 C 0.62494 0.96256 0.06168 0.0
C225 C 0.64918 0.93473 0.98351 0.0
N226 N 0.62584 0.93768 0.02424 0.0
C227 C 0.64814 0.98493 0.05996 0.0
C228 C 0.67224 0.98187 0.01912 0.0
C229 C 0.53403 0.94446 0.0443 0.0
C230 C 0.49041 0.83331 0.92973 0.0
C231 C 0.47169 0.88082 0.00405 0.0
C232 C 0.45346 0.87285 0.95499 0.0
C233 C 0.46297 0.84895 0.91758 0.0
N234 N 0.49863 0.8655 0.01549 0.0
C235 C 0.50804 0.84194 0.97921 0.0
Co236 Co 0.10126 0.41182 0.04158 0.0
Co237 Co 0.13439 0.47916 0.98816 0.0
O238 O 0.1344 0.44259 0.03945 0.0
C239 C 0.10423 0.43388 0.16497 0.0
O240 O 0.10762 0.46191 0.14373 0.0
C241 C 0.19179 0.44642 0.95253 0.0
O242 O 0.17516 0.4211 0.95144 0.0
O243 O 0.12215 0.45415 0.91769 0.0
O244 O 0.09807 0.41207 0.95334 0.0
H245 H 0.09102 0.5508 0.83283 0.0
H246 H 0.15987 0.3997 0.10564 0.0
O247 O 0.1029 0.41079 0.13014 0.0
H248 H 0.15129 0.31658 0.9561 0.0
H249 H 0.05002 0.31475 0.11568 0.0
H250 H 0.03984 0.40544 0.98411 0.0
H251 H 0.11021 0.35574 0.966 0.0
H252 H 0.09189 0.3532 0.10906 0.0
O253 O 0.17921 0.47189 0.96779 0.0
H254 H 0.09112 0.50512 0.89866 0.0
H255 H 0.17883 0.53069 0.96767 0.0
H256 H 0.99745 0.36754 0.98913 0.0
H257 H 0.20141 0.36087 0.09755 0.0
H258 H 1.00241 0.32173 0.05522 0.0
H259 H 0.19732 0.31904 0.02212 0.0
O260 O 0.06906 0.44452 0.04635 0.0
H261 H 0.19676 0.5023 0.17183 0.0
H262 H 0.11173 0.5379 0.04242 0.0
H263 H 0.12545 0.56808 0.13197 0.0
H264 H 0.16823 0.55027 0.19741 0.0
H265 H 0.18214 0.47272 0.08201 0.0
H266 H 0.1798 0.57652 0.90222 0.0
H267 H 0.1356 0.58686 0.83435 0.0
O268 O 0.08976 0.48729 0.00654 0.0
C269 C 0.10727 0.429 0.9105 0.0
C270 C 0.11036 0.5466 0.86235 0.0
C271 C 0.16021 0.56101 0.90124 0.0
N272 N 0.13483 0.51541 0.93731 0.0
C273 C 0.11051 0.52083 0.89985 0.0
C274 C 0.15956 0.535 0.93812 0.0
C275 C 0.1354 0.56681 0.86319 0.0
C276 C 0.15778 0.38134 0.07322 0.0
N277 N 0.13259 0.37989 0.03657 0.0
C278 C 0.18142 0.3595 0.06866 0.0
C279 C 0.17913 0.33606 0.02626 0.0
C280 C 0.15332 0.33468 0.98918 0.0
C281 C 0.13016 0.35695 -0.00507 0.0
C282 C 0.04768 0.33447 0.08634 0.0
C283 C 0.04234 0.38538 0.01238 0.0
C284 C 0.07134 0.35628 0.08228 0.0
N285 N 0.06863 0.38116 0.04507 0.0
C286 C 0.01818 0.36407 0.0153 0.0
C287 C 0.02096 0.33842 0.05245 0.0
C288 C 0.0671 0.47254 0.02938 0.0
C289 C 0.17815 0.51034 0.14356 0.0
C290 C 0.13038 0.53001 0.07067 0.0
C291 C 0.13807 0.54722 0.12127 0.0
C292 C 0.16209 0.53723 0.15794 0.0
N293 N 0.14624 0.50366 0.0569 0.0
C294 C 0.16986 0.49376 0.09253 0.0
Co295 Co 0.58922 0.59967 0.29408 0.0
Co296 Co 0.52315 0.63284 0.23542 0.0
O297 O 0.55846 0.63276 0.28973 0.0
C298 C 0.56615 0.59918 0.41817 0.0
O299 O 0.53816 0.59495 0.39724 0.0
C300 C 0.55526 0.69103 0.20182 0.0
O301 O 0.58106 0.67508 0.20007 0.0
O302 O 0.54998 0.62139 0.16679 0.0
O303 O 0.59058 0.59607 0.20565 0.0
H304 H 0.45628 0.58977 0.07213 0.0
H305 H 0.60007 0.65878 0.35741 0.0
O306 O 0.58895 0.60249 0.38297 0.0
H307 H 0.68665 0.64857 0.21562 0.0
H308 H 0.68531 0.5492 0.37503 0.0
H309 H 0.5971 0.53822 0.23747 0.0
H310 H 0.64671 0.60813 0.22226 0.0
H311 H 0.6465 0.59067 0.366 0.0
O312 O 0.53015 0.67776 0.21691 0.0
H313 H 0.50047 0.59028 0.14164 0.0
H314 H 0.4707 0.67615 0.21279 0.0
H315 H 0.63546 0.49628 0.24476 0.0
H316 H 0.63971 0.6996 0.35272 0.0
H317 H 0.68002 0.50166 0.31387 0.0
H318 H 0.68334 0.69467 0.28128 0.0
O319 O 0.55648 0.5672 0.29671 0.0
H320 H 0.49585 0.69399 0.41847 0.0
H321 H 0.46258 0.61067 0.28327 0.0
H322 H 0.43017 0.62413 0.36993 0.0
H323 H 0.44672 0.66618 0.4382 0.0
H324 H 0.52773 0.67942 0.33157 0.0
H325 H 0.4264 0.67681 0.14352 0.0
H326 H 0.41887 0.63327 0.07277 0.0
O327 O 0.5151 0.58816 0.25203 0.0
C328 C 0.57502 0.60608 0.16146 0.0
C329 C 0.45928 0.60885 0.10281 0.0
C330 C 0.44253 0.65771 0.14283 0.0
N331 N 0.48808 0.63315 0.18144 0.0
C332 C 0.48422 0.60924 0.14236 0.0
C333 C 0.46772 0.65728 0.18179 0.0
C334 C 0.43831 0.63327 0.10317 0.0
C335 C 0.61915 0.65633 0.32664 0.0
N336 N 0.62118 0.63101 0.29047 0.0
C337 C 0.64146 0.67958 0.324 0.0
C338 C 0.66591 0.67681 0.28385 0.0
C339 C 0.66777 0.65096 0.24697 0.0
C340 C 0.64504 0.62818 0.25083 0.0
C341 C 0.66613 0.54668 0.34444 0.0
C342 C 0.6166 0.54087 0.26714 0.0
C343 C 0.6441 0.5701 0.33906 0.0
N344 N 0.61994 0.56717 0.30017 0.0
C345 C 0.63817 0.51698 0.27131 0.0
C346 C 0.66313 0.52 0.31014 0.0
C347 C 0.52901 0.56538 0.27623 0.0
C348 C 0.48838 0.67562 0.38906 0.0
C349 C 0.47009 0.6287 0.31305 0.0
C350 C 0.45156 0.63638 0.3619 0.0
C351 C 0.46084 0.65999 0.40014 0.0
N352 N 0.49706 0.64413 0.30245 0.0
C353 C 0.5063 0.66732 0.33972 0.0
Co354 Co 0.40621 0.0938 0.53578 0.0
Co355 Co 0.3725 0.0269 0.48186 0.0
O356 O 0.37335 0.0628 0.53472 0.0
C357 C 0.41088 0.07066 0.65961 0.0
O358 O 0.41423 0.04264 0.63825 0.0
C359 C 0.31461 0.05974 0.4479 0.0
O360 O 0.33085 0.08531 0.4459 0.0
O361 O 0.38443 0.05242 0.41153 0.0
O362 O 0.40709 0.09515 0.44737 0.0
H363 H 0.41436 0.95664 0.3226 0.0
H364 H 0.34901 0.10371 0.60592 0.0
O365 O 0.40626 0.09341 0.62488 0.0
H366 H 0.35384 0.19102 0.4649 0.0
H367 H 0.4585 0.18992 0.61168 0.0
H368 H 0.46495 0.10308 0.46985 0.0
H369 H 0.39489 0.15153 0.46617 0.0
H370 H 0.41732 0.15064 0.60787 0.0
O371 O 0.32762 0.03451 0.46322 0.0
H372 H 0.41474 1.00183 0.38961 0.0
H373 H 0.32801 0.97526 0.46171 0.0
H374 H 0.50654 0.14194 0.47191 0.0
H375 H 0.30761 0.14288 0.60668 0.0
H376 H 0.50344 0.1858 0.54314 0.0
H377 H 0.30983 0.18687 0.53565 0.0
O378 O 0.43919 0.06144 0.53434 0.0
H379 H 0.31118 1.00336 0.66669 0.0
H380 H 0.39343 0.96651 0.53231 0.0
H381 H 0.37954 0.93555 0.62065 0.0
H382 H 0.33802 0.95392 0.68853 0.0
H383 H 0.3262 0.03375 0.57817 0.0
H384 H 0.32643 0.93002 0.39489 0.0
H385 H 0.36995 0.92038 0.32493 0.0
O386 O 0.41711 0.01838 0.49847 0.0
C387 C 0.39826 0.07818 0.40431 0.0
C388 C 0.39528 0.96057 0.35294 0.0
C389 C 0.34592 0.94565 0.39345 0.0
N390 N 0.37147 0.99112 0.42971 0.0
C391 C 0.3954 0.98608 0.39109 0.0
C392 C 0.34686 0.97139 0.431 0.0
C393 C 0.37035 0.94024 0.35424 0.0
C394 C 0.35026 0.12294 0.57524 0.0
N395 N 0.37442 0.12541 0.53624 0.0
C396 C 0.3267 0.14498 0.57572 0.0
C397 C 0.32794 0.16963 0.53581 0.0
C398 C 0.35261 0.17196 0.49607 0.0
C399 C 0.37575 0.14948 0.49686 0.0
C400 C 0.46005 0.171 0.58026 0.0
C401 C 0.46334 0.12219 0.50074 0.0
C402 C 0.4368 0.14868 0.5779 0.0
N403 N 0.4385 0.12484 0.53803 0.0
C404 C 0.48701 0.14408 0.50182 0.0
C405 C 0.48527 0.16867 0.54181 0.0
C406 C 0.44055 0.03327 0.51761 0.0
C407 C 0.32933 0.99512 0.6375 0.0
C408 C 0.37568 0.97481 0.56195 0.0
C409 C 0.36773 0.9571 0.61175 0.0
C410 C 0.34441 0.9674 0.64976 0.0
N411 N 0.36082 1.00197 0.55024 0.0
C412 C 0.33789 0.01219 0.58725 0.0
Co413 Co 0.91079 0.90686 0.78262 0.0
Co414 Co 0.97961 0.87511 0.73267 0.0
O415 O 0.94291 0.87502 0.78368 0.0
C416 C 0.93357 0.91265 0.90655 0.0
O417 O 0.96174 0.91525 0.88549 0.0
C418 C 0.94739 0.81711 0.69695 0.0
O419 O 0.92112 0.83211 0.701 0.0
O420 O 0.9551 0.88786 0.66148 0.0
O421 O 0.90972 0.9062 0.69433 0.0
H422 H 0.05184 0.91973 0.57963 0.0
H423 H 0.9028 0.85045 0.85575 0.0
O424 O 0.91084 0.90832 0.87166 0.0
H425 H 0.81515 0.85051 0.71519 0.0
H426 H 0.8127 0.95746 0.85405 0.0
H427 H 0.89935 0.96351 0.71158 0.0
H428 H 0.85334 0.89271 0.71392 0.0
H429 H 0.85359 0.91775 0.8541 0.0
O430 O 0.97266 0.83056 0.71044 0.0
H431 H 0.00593 0.91909 0.64496 0.0
H432 H 0.03165 0.83106 0.71214 0.0
H433 H 0.85883 1.00353 0.70961 0.0
H434 H 0.86495 0.80795 0.8591 0.0
H435 H 0.81507 1.00063 0.78117 0.0
H436 H 0.82078 0.80775 0.78831 0.0
O437 O 0.94212 0.94092 0.77977 0.0
H438 H 1.00019 0.81231 0.91694 0.0
H439 H 0.03998 0.89429 0.78517 0.0
H440 H 0.06968 0.87958 0.87478 0.0
H441 H 0.0498 0.83821 0.94133 0.0
H442 H 0.97108 0.82818 0.82731 0.0
H443 H 0.07761 0.83055 0.64699 0.0
H444 H 0.08801 0.8752 0.58032 0.0
O445 O 0.98747 0.91948 0.75297 0.0
C446 C 0.92831 0.89928 0.6525 0.0
C447 C 0.04758 0.90017 0.60857 0.0
C448 C 0.06203 0.8501 0.64631 0.0
N449 N 0.01617 0.87511 0.68243 0.0
C450 C 0.02168 0.89971 0.64577 0.0
C451 C 0.03591 0.85047 0.68292 0.0
C452 C 0.06786 0.87517 0.60894 0.0
C453 C 0.8835 0.85066 0.82514 0.0
N454 N 0.88023 0.87411 0.78481 0.0
C455 C 0.86221 0.82647 0.8271 0.0
C456 C 0.83746 0.82636 0.78732 0.0
C457 C 0.83429 0.85033 0.74625 0.0
C458 C 0.85605 0.87413 0.74558 0.0
C459 C 0.8316 0.95892 0.82253 0.0
C460 C 0.88032 0.96202 0.74271 0.0
C461 C 0.85485 0.93654 0.82241 0.0
N462 N 0.87865 0.93813 0.78241 0.0
C463 C 0.85748 0.98479 0.74146 0.0
C464 C 0.83294 0.98315 0.78164 0.0
C465 C 0.97101 0.94266 0.76837 0.0
C466 C 0.00905 0.83044 0.88843 0.0
C467 C 0.03099 0.87668 0.81446 0.0
C468 C 0.04801 0.86824 0.86485 0.0
C469 C 0.03687 0.84499 0.9021 0.0
N470 N 1.00365 0.86246 0.80156 0.0
C471 C 0.99268 0.8395 0.83762 0.0
Co472 Co 0.60399 0.59911 0.78991 0.0
Co473 Co 0.63352 0.52828 0.83362 0.0
O474 O 0.63438 0.56571 0.785 0.0
C475 C 0.59569 0.57742 0.66631 0.0
O476 O 0.59377 0.54926 0.68753 0.0
C477 C 0.69293 0.55768 0.86872 0.0
O478 O 0.67792 0.58401 0.86978 0.0
O479 O 0.62301 0.55204 0.90681 0.0
O480 O 0.60599 0.59875 0.87838 0.0
H481 H 0.5892 0.45612 0.98701 0.0
H482 H 0.65925 0.60627 0.71297 0.0
O483 O 0.60096 0.6001 0.70089 0.0
H484 H 0.66586 0.69044 0.86067 0.0
H485 H 0.5564 0.69957 0.72385 0.0
H486 H 0.55007 0.61339 0.86706 0.0
H487 H 0.622 0.65411 0.86208 0.0
H488 H 0.59419 0.65698 0.72027 0.0
O489 O 0.67884 0.53308 0.85305 0.0
H490 H 0.59038 0.50277 0.92381 0.0
H491 H 0.67513 0.47376 0.84651 0.0
H492 H 0.51189 0.65556 0.87254 0.0
H493 H 0.70336 0.64226 0.70957 0.0
H494 H 0.51491 0.69909 0.80052 0.0
H495 H 0.70691 0.68466 0.78394 0.0
O496 O 0.56859 0.5693 0.79325 0.0
H497 H 0.69338 0.50638 0.64622 0.0
H498 H 0.60819 0.4716 0.77601 0.0
H499 H 0.62007 0.44255 0.68405 0.0
H500 H 0.66301 0.45989 0.61853 0.0
H501 H 0.68045 0.53491 0.7383 0.0
H502 H 0.67508 0.42694 0.90928 0.0
H503 H 0.63181 0.41786 0.98006 0.0
O504 O 0.58852 0.52277 0.8163 0.0
C505 C 0.61274 0.57897 0.91834 0.0
C506 C 0.60816 0.4598 0.9563 0.0
C507 C 0.65638 0.44345 0.91275 0.0
N508 N 0.63281 0.49096 0.88151 0.0
C509 C 0.60892 0.48613 0.9203 0.0
C510 C 0.65636 0.47005 0.87749 0.0
C511 C 0.63209 0.43835 0.95241 0.0
C512 C 0.6605 0.62484 0.74512 0.0
N513 N 0.638 0.62821 0.78743 0.0
C514 C 0.68559 0.64507 0.74313 0.0
C515 C 0.68758 0.66883 0.78492 0.0
C516 C 0.66456 0.67208 0.828 0.0
C517 C 0.63981 0.65141 0.82864 0.0
C518 C 0.55483 0.68074 0.75548 0.0
C519 C 0.55159 0.63227 0.83574 0.0
C520 C 0.57611 0.65651 0.75357 0.0
N521 N 0.57435 0.63271 0.79354 0.0
C522 C 0.52988 0.65608 0.83898 0.0
C523 C 0.53157 0.68047 0.79853 0.0
C524 C 0.56578 0.54039 0.80353 0.0
C525 C 0.67465 0.49856 0.67446 0.0
C526 C 0.62677 0.47937 0.74751 0.0
C527 C 0.63347 0.46278 0.69563 0.0
C528 C 0.65758 0.4725 0.65891 0.0
N529 N 0.64365 0.50487 0.76248 0.0
C530 C 0.66729 0.51457 0.72671 0.0
Co531 Co 0.4165 0.1027 0.03118 0.0
Co532 Co 0.48539 0.13312 0.0835 0.0
O533 O 0.44903 0.13413 0.03155 0.0
C534 C 0.43856 0.09764 0.90681 0.0
O535 O 0.46663 0.09367 0.92755 0.0
C536 C 0.45462 0.19153 0.11887 0.0
O537 O 0.42864 0.1759 0.11847 0.0
O538 O 0.45989 0.12222 0.15413 0.0
O539 O 0.41585 0.10135 0.1197 0.0
H540 H 0.55438 0.08818 0.24164 0.0
H541 H 0.40807 0.1604 0.96203 0.0
O542 O 0.41614 0.10298 0.94204 0.0
H543 H 0.32241 0.15873 0.10721 0.0
H544 H 0.31798 0.05443 0.95671 0.0
H545 H 0.40518 0.04435 0.09697 0.0
H546 H 0.36021 0.11612 0.10371 0.0
H547 H 0.35876 0.09414 0.96044 0.0
O548 O 0.47969 0.1782 0.10343 0.0
H549 H 0.50907 0.08964 0.17491 0.0
H550 H 0.53919 0.17501 0.10226 0.0
H551 H 0.36481 0.00421 0.09503 0.0
H552 H 0.3706 0.20334 0.96357 0.0
H553 H 0.3208 0.00912 0.0245 0.0
H554 H 0.32745 0.20271 0.03671 0.0
O555 O 0.44745 0.0686 0.03067 0.0
H556 H 0.51187 0.19443 0.90022 0.0
H557 H 0.54326 0.10789 0.02986 0.0
H558 H 0.57455 0.12053 0.94111 0.0
H559 H 0.55894 0.16414 0.87569 0.0
H560 H 0.48108 0.18079 0.98916 0.0
H561 H 0.58466 0.17471 0.16869 0.0
H562 H 0.59253 0.13097 0.23888 0.0
O563 O 0.4918 0.08827 0.06597 0.0
C564 C 0.43361 0.10962 0.16199 0.0
C565 C 0.55123 0.10734 0.21122 0.0
C566 C 0.5682 0.15593 0.17033 0.0
N567 N 0.52153 0.13237 0.13468 0.0
C568 C 0.52566 0.10826 0.17323 0.0
C569 C 0.54236 0.15605 0.13299 0.0
C570 C 0.57261 0.13137 0.20967 0.0
C571 C 0.38918 0.15984 -0.00641 0.0
N572 N 0.38622 0.13572 0.03247 0.0
C573 C 0.36811 0.18427 -0.00558 0.0
C574 C 0.34393 0.18392 0.03551 0.0
C575 C 0.3411 0.15925 0.07511 0.0
C576 C 0.36261 0.13523 0.073 0.0
C577 C 0.33696 0.0521 0.98783 0.0
C578 C 0.38592 0.04682 0.06664 0.0
C579 C 0.36013 0.07451 -0.00986 0.0
N580 N 0.38409 0.07178 0.02953 0.0
C581 C 0.36321 0.02394 0.06553 0.0
C582 C 0.33856 0.02668 0.02587 0.0
C583 C 0.47569 0.06583 0.04613 0.0
C584 C 0.51895 0.17543 0.92847 0.0
C585 C 0.53625 0.12682 0.00147 0.0
C586 C 0.5541 0.13392 0.95137 0.0
C587 C 0.54534 0.1584 0.91469 0.0
N588 N 0.51047 0.1437 0.01477 0.0
C589 C 0.50168 0.16768 0.97897 0.0
Co590 Co 0.90381 0.91605 0.2788 0.0
Co591 Co 0.87445 0.98544 0.33099 0.0
O592 O 0.87292 0.94905 0.27951 0.0
C593 C 0.90763 0.93849 0.15482 0.0
O594 O 0.9112 0.96648 0.17615 0.0
C595 C 0.81677 0.95432 0.36765 0.0
O596 O 0.8331 0.92881 0.36651 0.0
O597 O 0.88606 0.96022 0.4016 0.0
O598 O 0.90569 0.91552 0.36731 0.0
H599 H 0.92175 0.05569 0.48428 0.0
H600 H 0.84558 0.90857 0.21076 0.0
O601 O 0.90307 0.91576 0.18967 0.0
H602 H 0.84596 0.82387 0.35791 0.0
H603 H 0.9498 0.81671 0.20301 0.0
H604 H 0.96178 0.90288 0.34489 0.0
H605 H 0.88969 0.86024 0.35206 0.0
H606 H 0.91117 0.85854 0.20707 0.0
O607 O 0.82948 0.97975 0.35258 0.0
H608 H 0.91948 0.01001 0.41862 0.0
H609 H 0.8319 0.03842 0.35308 0.0
H610 H 1.00081 0.8614 0.34279 0.0
H611 H 0.80152 0.87252 0.21466 0.0
H612 H 0.99497 0.81792 0.27137 0.0
H613 H 0.80145 0.82993 0.28892 0.0
O614 O 0.93845 0.94647 0.27763 0.0
H615 H 0.81158 0.01124 0.1493 0.0
H616 H 0.8988 0.04335 0.2765 0.0
H617 H 0.88532 0.07442 0.18793 0.0
H618 H 0.84137 0.05843 0.12371 0.0
H619 H 0.82607 0.98071 0.23805 0.0
H620 H 0.83308 0.08428 0.41844 0.0
H621 H 0.87832 0.09319 0.48448 0.0
O622 O 0.91925 0.99148 0.31139 0.0
C623 C 0.89826 0.93376 0.40942 0.0
C624 C 0.90196 0.05212 0.45556 0.0
C625 C 0.85218 0.06814 0.41867 0.0
N626 N 0.87571 0.02171 0.38172 0.0
C627 C 0.90059 0.02635 0.41815 0.0
C628 C 0.8516 0.0421 0.38185 0.0
C629 C 0.87757 0.07313 0.4557 0.0
C630 C 0.84589 0.88985 0.24266 0.0
N631 N 0.87025 0.88641 0.28088 0.0
C632 C 0.82082 0.8696 0.24486 0.0
C633 C 0.82078 0.84572 0.28658 0.0
C634 C 0.84574 0.84233 0.32533 0.0
C635 C 0.87041 0.86302 0.32186 0.0
C636 C 0.95257 0.83548 0.23444 0.0
C637 C 0.9589 0.88387 0.31421 0.0
C638 C 0.9308 0.85927 0.23688 0.0
N639 N 0.93407 0.88299 0.27664 0.0
C640 C 0.98116 0.86052 0.31299 0.0
C641 C 0.97789 0.83617 0.27283 0.0
C642 C 0.94154 0.97484 0.29208 0.0
C643 C 0.83074 0.01848 0.177 0.0
C644 C 0.87974 0.03619 0.24862 0.0
C645 C 0.87216 0.05391 0.19862 0.0
C646 C 0.84748 0.04494 0.16263 0.0
N647 N 0.86315 0.01033 0.26247 0.0
C648 C 0.83897 1.00135 0.22738 0.0
Co649 Co 0.09971 0.40656 0.53864 0.0
Co650 Co 0.02928 0.37461 0.57893 0.0
O651 O 0.06748 0.37497 0.53218 0.0
C652 C 0.07939 0.41086 0.41401 0.0
O653 O 0.05104 0.40601 0.43251 0.0
C654 C 0.06065 0.31666 0.61523 0.0
O655 O 0.08616 0.33296 0.61742 0.0
O656 O 0.05166 0.38603 0.65328 0.0
O657 O 0.09817 0.40429 0.62659 0.0
H658 H 0.9528 0.41707 0.72647 0.0
H659 H 0.11 0.35172 0.46214 0.0
O660 O 0.10192 0.41025 0.45026 0.0
H661 H 0.1916 0.34736 0.61552 0.0
H662 H 0.19925 0.45806 0.47855 0.0
H663 H 0.1105 0.46098 0.61642 0.0
H664 H 0.15432 0.39044 0.61379 0.0
H665 H 0.15841 0.41851 0.47281 0.0
O666 O 0.03552 0.32957 0.59889 0.0
H667 H 1.00046 0.41737 0.66602 0.0
H668 H 0.97692 0.33033 0.59157 0.0
H669 H 0.15098 0.50081 0.62426 0.0
H670 H 0.14696 0.30832 0.46195 0.0
H671 H 0.19574 0.49955 0.55485 0.0
H672 H 0.18801 0.30588 0.53927 0.0
O673 O 0.0685 0.44065 0.53984 0.0
H674 H 0.01216 0.31396 0.39074 0.0
H675 H 0.97244 0.39781 0.51845 0.0
H676 H 0.94514 0.3849 0.42506 0.0
H677 H 0.96499 0.34267 0.36052 0.0
H678 H 0.03887 0.32783 0.48431 0.0
H679 H 0.9291 0.32898 0.65151 0.0
H680 H 0.91675 0.37263 0.71943 0.0
O681 O 0.02235 0.4194 0.56084 0.0
C682 C 0.07823 0.39696 0.66571 0.0
C683 C 0.95787 0.39797 0.69687 0.0
C684 C 0.94459 0.34851 0.65486 0.0
N685 N 0.99132 0.37402 0.62496 0.0
C686 C 0.98476 0.39806 0.66239 0.0
C687 C 0.97172 0.34937 0.62111 0.0
C688 C 0.93767 0.37301 0.69296 0.0
C689 C 0.12803 0.35099 0.49548 0.0
N690 N 0.13011 0.37365 0.53769 0.0
C691 C 0.1488 0.32629 0.49532 0.0
C692 C 0.17182 0.32492 0.53875 0.0
C693 C 0.17383 0.34818 0.58157 0.0
C694 C 0.15264 0.3725 0.5804 0.0
C695 C 0.17988 0.45885 0.5091 0.0
C696 C 0.13001 0.46015 0.5864 0.0
C697 C 0.15663 0.43656 0.50596 0.0
N698 N 0.13209 0.4374 0.54438 0.0
C699 C 0.15282 0.48281 0.59092 0.0
C700 C 0.1779 0.48211 0.55192 0.0
C701 C 0.03936 0.44263 0.54835 0.0
C702 C 1.00324 0.33236 0.41855 0.0
C703 C 0.98125 0.37948 0.4905 0.0
C704 C 0.96566 0.37222 0.43775 0.0
C705 C 0.9768 0.34851 0.40158 0.0
N706 N 0.00716 0.36352 0.50682 0.0
C707 C 0.0182 0.34023 0.47166 0.0
Co708 Co 0.60047 0.91565 0.53342 0.0
Co709 Co 0.62982 0.98534 0.48255 0.0
O710 O 0.63066 0.94926 0.53491 0.0
C711 C 0.59216 0.9391 0.65627 0.0
O712 O 0.5891 0.96692 0.63385 0.0
C713 C 0.68845 0.95431 0.45106 0.0
O714 O 0.67246 0.92861 0.45252 0.0
O715 O 0.61951 0.95974 0.41162 0.0
O716 O 0.60148 0.91421 0.44475 0.0
H717 H 0.58473 0.05438 0.3247 0.0
H718 H 0.65659 0.91013 0.60853 0.0
O719 O 0.59841 0.91626 0.62266 0.0
H720 H 0.66258 0.82381 0.46541 0.0
H721 H 0.55438 0.81626 0.60862 0.0
H722 H 0.5457 0.89972 0.46007 0.0
H723 H 0.61806 0.85939 0.46439 0.0
H724 H 0.59191 0.85906 0.60744 0.0
O725 O 0.67515 0.97981 0.46374 0.0
H726 H 0.58612 0.00917 0.39167 0.0
H727 H 0.67237 0.03844 0.46201 0.0
H728 H 0.50774 0.85729 0.45918 0.0
H729 H 0.70141 0.87494 0.61142 0.0
H730 H 0.51195 0.81513 0.53398 0.0
H731 H 0.70466 0.8315 0.53928 0.0
O732 O 0.56511 0.94546 0.52914 0.0
H733 H 0.68926 0.01219 0.66791 0.0
H734 H 0.60445 0.04354 0.53402 0.0
H735 H 0.61613 0.07504 0.62295 0.0
H736 H 0.65887 0.05943 0.69054 0.0
H737 H 0.67655 0.98121 0.57875 0.0
H738 H 0.67204 0.08386 0.39545 0.0
H739 H 0.62791 0.0921 0.32632 0.0
O740 O 0.58471 0.99119 0.49945 0.0
C741 C 0.60878 0.93272 0.40294 0.0
C742 C 0.60403 0.0511 0.35477 0.0
C743 C 0.65305 0.06762 0.39442 0.0
N744 N 0.62917 0.02133 0.43103 0.0
C745 C 0.60489 0.02561 0.39293 0.0
C746 C 0.65314 0.04184 0.43192 0.0
C747 C 0.62829 0.07224 0.35565 0.0
C748 C 0.65768 0.89106 0.57746 0.0
N749 N 0.63467 0.88672 0.53657 0.0
C750 C 0.68317 0.87129 0.57914 0.0
C751 C 0.685 0.84694 0.53861 0.0
C752 C 0.6614 0.84263 0.49712 0.0
C753 C 0.63627 0.86288 0.4967 0.0
C754 C 0.55229 0.83448 0.57579 0.0
C755 C 0.54774 0.88141 0.49244 0.0
C756 C 0.57342 0.85884 0.57501 0.0
N757 N 0.57101 0.88188 0.53353 0.0
C758 C 0.52615 0.85746 0.49187 0.0
C759 C 0.52851 0.83385 0.53388 0.0
C760 C 0.56215 0.974 0.51535 0.0
C761 C 0.67062 0.01926 0.63875 0.0
C762 C 0.62296 0.03654 0.5634 0.0
C763 C 0.62954 0.05451 0.61358 0.0
C764 C 0.65354 0.04575 0.65146 0.0
N765 N 0.63985 0.01062 0.55123 0.0
C766 C 0.66339 1.00187 0.58814 0.0
Co767 Co 0.09265 0.09781 0.77895 0.0
Co768 Co 0.02439 0.13078 0.72922 0.0
O769 O 0.06139 0.13049 0.7794 0.0
C770 C 0.07042 0.09831 0.90244 0.0
O771 O 0.04238 0.10204 0.88137 0.0
C772 C 0.05777 0.18754 0.69331 0.0
O773 O 0.08277 0.17039 0.69282 0.0
O774 O 0.04853 0.11813 0.65769 0.0
O775 O 0.09255 0.09677 0.69075 0.0
H776 H 0.95072 0.08781 0.57712 0.0
H777 H 0.10353 0.15506 0.84805 0.0
O778 O 0.09353 0.09741 0.86757 0.0
H779 H 0.18764 0.15105 0.69969 0.0
H780 H 0.19025 0.04587 0.84896 0.0
H781 H 0.1008 0.03886 0.71339 0.0
H782 H 0.14906 0.10927 0.7053 0.0
H783 H 0.15088 0.08707 0.84707 0.0
O784 O 0.03198 0.17549 0.70824 0.0
H785 H 0.99707 0.08757 0.64121 0.0
H786 H 0.97313 0.17575 0.71015 0.0
H787 H 0.13968 0.99722 0.71359 0.0
H788 H 0.14177 0.19724 0.84433 0.0
H789 H 0.18485 1.00061 0.78166 0.0
H790 H 0.18409 0.19547 0.76951 0.0
O791 O 0.06037 0.06504 0.78067 0.0
H792 H 1.00375 0.1935 0.9136 0.0
H793 H 0.96599 0.10882 0.78582 0.0
H794 H 0.93692 0.12284 0.87663 0.0
H795 H 0.95582 0.16543 0.94127 0.0
H796 H 0.03221 0.17858 0.82256 0.0
H797 H 0.92664 0.17706 0.64644 0.0
H798 H 0.91514 0.1328 0.57948 0.0
O799 O 0.01613 0.08625 0.74825 0.0
C800 C 0.07447 0.10486 0.64892 0.0
C801 C 0.95543 0.10719 0.60626 0.0
C802 C 0.94193 0.1573 0.64511 0.0
N803 N 0.98764 0.1315 0.67973 0.0
C804 C 0.98158 0.10714 0.64277 0.0
C805 C 0.96831 0.15645 0.68099 0.0
C806 C 0.93549 0.13245 0.60756 0.0
C807 C 0.1221 0.15396 0.81584 0.0
N808 N 0.12413 0.12967 0.77711 0.0
C809 C 0.1436 0.17797 0.81377 0.0
C810 C 0.16733 0.17698 0.77173 0.0
C811 C 0.16931 0.15208 0.73251 0.0
C812 C 0.14736 0.12851 0.73582 0.0
C813 C 0.17076 0.04421 0.81887 0.0
C814 C 0.12051 0.04061 0.74283 0.0
C815 C 0.14841 0.06747 0.81758 0.0
N816 N 0.12384 0.06561 0.77943 0.0
C817 C 0.1424 0.01691 0.74288 0.0
C818 C 0.16771 0.01881 0.78113 0.0
C819 C 0.03179 0.06324 0.76722 0.0
C820 C 0.99523 0.17497 0.88569 0.0
C821 C 0.97433 0.1274 0.81369 0.0
C822 C 0.95776 0.13526 0.86501 0.0
C823 C 0.96836 0.15918 0.90123 0.0
N824 N 1.00067 0.14299 0.79879 0.0
C825 C 0.01117 0.16651 0.83397 0.0
Co826 Co 0.9119 0.59438 0.03519 0.0
Co827 Co 0.87912 0.52478 -0.00804 0.0
O828 O 0.87928 0.56294 0.0387 0.0
C829 C 0.91345 0.57255 0.15866 0.0
O830 O 0.90932 0.5446 0.13756 0.0
C831 C 0.8215 0.5563 0.95154 0.0
O832 O 0.83724 0.5822 0.9508 0.0
O833 O 0.89204 0.54742 0.91882 0.0
O834 O 0.91114 0.59347 0.94708 0.0
H835 H 0.92283 0.44908 0.84442 0.0
H836 H 0.85608 0.60553 0.10872 0.0
O837 O 0.91401 0.59569 0.12385 0.0
H838 H 0.85658 0.68858 0.95808 0.0
H839 H 0.96404 0.69279 0.09952 0.0
H840 H 0.96901 0.60324 0.96397 0.0
H841 H 0.89832 0.6498 0.96051 0.0
H842 H 0.92353 0.65278 0.10197 0.0
O843 O 0.8345 0.53145 0.96913 0.0
H844 H 0.92262 0.49636 0.90591 0.0
H845 H 0.83519 0.47214 0.97791 0.0
H846 H 0.00989 0.64283 0.95958 0.0
H847 H 0.81398 0.64398 0.10819 0.0
H848 H 0.00754 0.68803 0.02772 0.0
H849 H 0.81404 0.68582 0.03235 0.0
O850 O 0.94537 0.56263 0.03508 0.0
H851 H 0.81636 0.50975 0.17833 0.0
H852 H 0.8985 0.46618 0.05121 0.0
H853 H 0.88411 0.43945 0.14444 0.0
H854 H 0.84272 0.46129 0.20874 0.0
H855 H 0.8319 0.53592 0.08513 0.0
H856 H 0.83421 0.42481 0.91665 0.0
H857 H 0.87835 0.41298 0.84945 0.0
O858 O 0.92345 0.51695 0.01305 0.0
C859 C 0.90368 0.57383 0.90747 0.0
C860 C 0.90348 0.45397 0.87357 0.0
C861 C 0.85372 0.44037 0.91402 0.0
N862 N 0.8789 0.48699 0.94543 0.0
C863 C 0.90326 0.48066 0.90858 0.0
C864 C 0.85432 0.46727 0.94839 0.0
C865 C 0.8785 0.43373 0.87637 0.0
C866 C 0.85639 0.62385 0.07594 0.0
N867 N 0.8797 0.62554 0.03495 0.0
C868 C 0.83244 0.64547 0.07571 0.0
C869 C 0.83246 0.66892 0.03309 0.0
C870 C 0.85632 0.67048 -0.00861 0.0
C871 C 0.87986 0.64842 -0.00708 0.0
C872 C 0.96525 0.67328 0.06942 0.0
C873 C 0.96769 0.62299 -0.00669 0.0
C874 C 0.94239 0.65054 0.07062 0.0
N875 N 0.94368 0.62593 0.03249 0.0
C876 C 0.99096 0.64526 -0.00917 0.0
C877 C 0.98965 0.67059 0.02913 0.0
C878 C 0.94677 0.53352 0.02689 0.0
C879 C 0.83445 0.50003 0.15075 0.0
C880 C 0.88076 0.47595 0.07933 0.0
C881 C 0.87253 0.46062 0.13184 0.0
C882 C 0.84927 0.47286 0.16782 0.0
N883 N 0.86632 0.50273 0.06317 0.0
C884 C 0.8433 0.51471 0.09791 0.0
Co885 Co 0.4098 0.40659 0.2887 0.0
Co886 Co 0.48144 0.3769 0.25024 0.0
O887 O 0.44287 0.37579 0.29573 0.0
C888 C 0.43081 0.41236 0.41292 0.0
O889 O 0.45903 0.40732 0.3939 0.0
C890 C 0.45211 0.3184 0.2097 0.0
O891 O 0.42562 0.33316 0.21013 0.0
O892 O 0.45931 0.38905 0.17602 0.0
O893 O 0.41106 0.4032 0.20068 0.0
H894 H 0.55729 0.42265 0.10526 0.0
H895 H 0.40134 0.35257 0.3682 0.0
O896 O 0.40806 0.41138 0.37714 0.0
H897 H 0.31845 0.34473 0.21794 0.0
H898 H 0.30951 0.45652 0.34943 0.0
H899 H 0.39658 0.45923 0.20769 0.0
H900 H 0.35523 0.3882 0.21565 0.0
H901 H 0.35145 0.41813 0.35598 0.0
O902 O 0.47658 0.33214 0.2271 0.0
H903 H 0.50936 0.42111 0.16482 0.0
H904 H 0.53576 0.33484 0.23911 0.0
H905 H 0.35503 0.49793 0.1991 0.0
H906 H 0.36491 0.30881 0.37242 0.0
H907 H 0.31108 0.49676 0.27044 0.0
H908 H 0.32316 0.30467 0.2968 0.0
O909 O 0.43997 0.44161 0.28509 0.0
H910 H 0.49849 0.31334 0.43484 0.0
H911 H 0.53697 0.40058 0.3145 0.0
H912 H 0.56372 0.3867 0.408 0.0
H913 H 0.54449 0.34275 0.46881 0.0
H914 H 0.4723 0.32823 0.34128 0.0
H915 H 0.58385 0.33528 0.17996 0.0
H916 H 0.59489 0.37947 0.11252 0.0
O917 O 0.48725 0.42136 0.27093 0.0
C918 C 0.43214 0.39798 0.16241 0.0
C919 C 0.55277 0.40329 0.13455 0.0
C920 C 0.56766 0.35424 0.17641 0.0
N921 N 0.5198 0.37792 0.20544 0.0
C922 C 0.52571 0.40233 0.16849 0.0
C923 C 0.54035 0.35406 0.20966 0.0
C924 C 0.57384 0.37904 0.13861 0.0
C925 C 0.38306 0.35104 0.33547 0.0
N926 N 0.38029 0.37298 0.29197 0.0
C927 C 0.36258 0.32617 0.33794 0.0
C928 C 0.33917 0.32384 0.29545 0.0
C929 C 0.33653 0.3463 0.25118 0.0
C930 C 0.35745 0.37083 0.25005 0.0
C931 C 0.32853 0.45729 0.3181 0.0
C932 C 0.37752 0.45852 0.23872 0.0
C933 C 0.35242 0.43567 0.3217 0.0
N934 N 0.37653 0.43649 0.28229 0.0
C935 C 0.35405 0.48051 0.23371 0.0
C936 C 0.32942 0.47985 0.27376 0.0
C937 C 0.46925 0.44424 0.27976 0.0
C938 C 0.50714 0.33248 0.40865 0.0
C939 C 0.52843 0.3815 0.34083 0.0
C940 C 0.54371 0.37369 0.39364 0.0
C941 C 0.53292 0.34902 0.42773 0.0
N942 N 0.50319 0.36513 0.3224 0.0
C943 C 0.49248 0.34092 0.35555 0.0
C944 C 0.26838 0.08653 0.40322 0.0
C945 C 0.28161 0.05976 0.42842 0.0
C946 C 0.23788 0.08665 0.38151 0.0
C947 C 0.21942 0.05993 0.38355 0.0
H948 H 0.28177 0.10756 0.39943 0.0
H949 H 0.2289 0.10772 0.362 0.0
S950 S 0.24164 0.98464 0.45032 0.0
N951 N 0.27268 0.00638 0.45785 0.0
N952 N 0.21582 0.00663 0.41676 0.0
C953 C 0.23203 0.03326 0.40997 0.0
C954 C 0.26294 0.03318 0.43248 0.0
C955 C 0.92141 0.76588 0.67998 0.0
C956 C 0.94784 0.78464 0.675 0.0
C957 C 0.92154 0.73505 0.66012 0.0
C958 C 0.94802 0.72174 0.63391 0.0
H959 H 0.90055 0.7749 0.70028 0.0
H960 H 0.90075 0.72149 0.66604 0.0
S961 S 0.02237 0.76213 0.6052 0.0
N962 N 1.0006 0.78823 0.63852 0.0
N963 N 1.00084 0.73081 0.60075 0.0
C964 C 0.97432 0.74064 0.62713 0.0
C965 C 0.97424 0.77189 0.6478 0.0
C966 C 0.27141 0.47414 0.90332 0.0
C967 C 0.28806 0.4466 0.89395 0.0
C968 C 0.24058 0.47379 0.9228 0.0
C969 C 0.22482 0.44587 0.93339 0.0
H970 H 0.2823 0.49634 0.89606 0.0
H971 H 0.22897 0.49572 0.92912 0.0
S972 S 0.25771 0.36712 0.91545 0.0
N973 N 0.28627 0.39045 0.89676 0.0
N974 N 0.22842 0.38978 0.93308 0.0
C975 C 0.24113 0.41809 0.92407 0.0
C976 C 0.27265 0.41845 0.90449 0.0
C977 C 0.5819 0.76846 0.13868 0.0
C978 C 0.55493 0.78665 0.14006 0.0
C979 C 0.5819 0.73781 0.15939 0.0
C980 C 0.55497 0.72406 0.18277 0.0
H981 H 0.60318 0.77782 0.12077 0.0
H982 H 0.60319 0.72475 0.15643 0.0
S983 S 0.47874 0.76261 0.20068 0.0
N984 N 0.50092 0.78906 0.16958 0.0
N985 N 0.5009 0.73189 0.20873 0.0
C986 C 0.528 0.74228 0.18563 0.0
C987 C 0.52798 0.77339 0.1642 0.0
C988 C 0.74191 0.58408 0.90129 0.0
C989 C 0.72592 0.55653 0.88835 0.0
C990 C 0.77264 0.58376 0.92158 0.0
C991 C 0.78878 0.55587 0.93034 0.0
H992 H 0.73062 0.60623 0.89581 0.0
H993 H 0.78373 0.60566 0.93088 0.0
S994 S 0.7579 0.47716 0.90184 0.0
N995 N 0.72903 0.50046 0.885 0.0
N996 N 0.78643 0.49987 0.92307 0.0
C997 C 0.77315 0.52814 0.91726 0.0
C998 C 0.7419 0.52846 0.89626 0.0
C999 C 0.42625 0.26903 0.17858 0.0
C1000 C 0.45361 0.28608 0.18684 0.0
C1001 C 0.42684 0.23874 0.15616 0.0
C1002 C 0.45481 0.22414 0.14054 0.0
H1003 H 0.40406 0.27906 0.18986 0.0
H1004 H 0.40506 0.2267 0.15122 0.0
S1005 S 0.53305 0.25902 0.15158 0.0
N1006 N 0.50955 0.28618 0.17622 0.0
N1007 N 0.51068 0.22956 0.13407 0.0
C1008 C 0.48236 0.24105 0.14799 0.0
C1009 C 0.48176 0.27185 0.17117 0.0
C1010 C 0.76723 0.98137 0.39511 0.0
C1011 C 0.78407 0.95369 0.38885 0.0
C1012 C 0.7366 0.98143 0.41607 0.0
C1013 C 0.72138 0.9538 0.43145 0.0
H1014 H 0.77775 1.0033 0.38384 0.0
H1015 H 0.72467 1.00335 0.41955 0.0
S1016 S 0.75522 0.87497 0.42474 0.0
N1017 N 0.78311 0.8978 0.40085 0.0
N1018 N 0.72587 0.89796 0.44006 0.0
C1019 C 0.738 0.92596 0.42579 0.0
C1020 C 0.76919 0.92589 0.40458 0.0
C1021 C 0.03256 0.26795 0.64336 0.0
C1022 C 0.06069 0.28365 0.63436 0.0
C1023 C 0.03186 0.23714 0.66301 0.0
C1024 C 0.05925 0.22052 0.67414 0.0
H1025 H 0.01077 0.27958 0.63566 0.0
H1026 H 0.00956 0.22623 0.66904 0.0
S1027 S 0.13914 0.25079 0.65747 0.0
N1028 N 0.11678 0.28 0.63817 0.0
N1029 N 0.11547 0.22232 0.67487 0.0
C1030 C 0.08758 0.2359 0.66525 0.0
C1031 C 0.0883 0.26734 0.64548 0.0
C1032 C 0.00486 0.03598 0.28914 0.0
C1033 C 0.03217 0.01868 0.28172 0.0
C1034 C 0.97582 0.02169 0.29176 0.0
C1035 C 0.97262 0.98944 0.28618 0.0
H1036 H 0.00585 0.0608 0.29461 0.0
H1037 H 0.95575 0.03617 0.29878 0.0
S1038 S 0.03674 0.93363 0.26185 0.0
N1039 N 0.05392 0.96753 0.26638 0.0
N1040 N 0.99954 0.94075 0.2699 0.0
C1041 C 0.99968 0.97193 0.27675 0.0
C1042 C 0.02932 0.98649 0.27494 0.0
C1043 C 0.97736 0.50488 0.5342 0.0
C1044 C 0.99376 0.53262 0.54328 0.0
C1045 C 0.99228 0.47606 0.5353 0.0
C1046 C 0.02437 0.47361 0.54458 0.0
H1047 H 0.9526 0.50523 0.52728 0.0
H1048 H 0.97841 0.45553 0.52893 0.0
S1049 S 0.07836 0.53901 0.56979 0.0
N1050 N 0.04424 0.55545 0.56193 0.0
N1051 N 0.07215 0.50167 0.56209 0.0
C1052 C 0.04118 0.50115 0.55242 0.0
C1053 C 0.02594 0.53047 0.55232 0.0
C1054 C 0.50263 0.48031 0.78202 0.0
C1055 C 0.4753 0.49628 0.79712 0.0
C1056 C 0.53158 0.49483 0.78363 0.0
C1057 C 0.53458 0.52613 0.79944 0.0
H1058 H 0.50189 0.45611 0.76998 0.0
H1059 H 0.5518 0.4813 0.7724 0.0
S1060 S 0.47059 0.57888 0.84178 0.0
N1061 N 0.45347 0.54562 0.82807 0.0
N1062 N 0.50769 0.57283 0.82958 0.0
C1063 C 0.5075 0.54265 0.81317 0.0
C1064 C 0.47799 0.52777 0.81245 0.0
C1065 C 0.53545 1.00153 0.06051 0.0
C1066 C 0.51951 0.97533 0.04011 0.0
C1067 C 0.52128 0.03068 0.06144 0.0
C1068 C 0.49065 0.03489 0.04138 0.0
H1069 H 0.55875 0.99936 0.07764 0.0
H1070 H 0.5344 0.04992 0.07904 0.0
S1071 S 0.44048 0.97384 0.97636 0.0
N1072 N 0.47264 0.95568 -0.00543 0.0
N1073 N 0.44587 0.0102 -0.00426 0.0
C1074 C 0.47496 0.00891 0.01847 0.0
C1075 C 0.4894 0.97923 0.01804 0.0
C1076 C 0.03298 0.51875 0.01182 0.0
C1077 C 0.03656 0.48844 0.03388 0.0
C1078 C 1.00405 0.53343 0.01131 0.0
C1079 C 0.97738 0.51833 0.03215 0.0
H1080 H 0.05255 0.53118 -0.00634 0.0
H1081 H 1.00244 0.55645 -0.0073 0.0
S1082 S 0.97422 0.44047 0.1008 0.0
N1083 N 0.0108 0.44498 0.08202 0.0
N1084 N 0.9567 0.47257 0.0801 0.0
C1085 C 0.98067 0.48856 0.0562 0.0
C1086 C 0.01015 0.47366 0.05738 0.0
C1087 C 0.51408 0.47941 0.30067 0.0
C1088 C 0.48324 0.47558 0.28212 0.0
C1089 C 0.52838 0.50852 0.29994 0.0
C1090 C 0.51263 0.53505 0.27968 0.0
H1091 H 0.52738 0.45972 0.3158 0.0
H1092 H 0.5522 0.51001 0.31445 0.0
S1093 S 0.43151 0.53719 0.22467 0.0
N1094 N 0.43743 0.50078 0.24285 0.0
N1095 N 0.46419 0.55507 0.23985 0.0
C1096 C 0.48168 0.53144 0.26109 0.0
C1097 C 0.46704 0.50189 0.26279 0.0
C1098 C 0.49832 0.03412 0.53103 0.0
C1099 C 0.47112 0.01722 0.51948 0.0
C1100 C 0.52753 0.01998 0.52999 0.0
C1101 C 0.53086 0.9882 0.51836 0.0
H1102 H 0.49722 0.05867 0.53999 0.0
H1103 H 0.54766 0.03412 0.53854 0.0
S1104 S 0.46737 0.93324 0.48514 0.0
N1105 N 0.44988 0.96665 0.49531 0.0
N1106 N 0.50444 0.94025 0.49517 0.0
C1107 C 0.50393 0.97091 0.50774 0.0
C1108 C 0.47422 0.98535 0.50776 0.0
C1109 C 0.9849 0.02922 0.75537 0.0
C1110 C 0.01617 0.03255 0.77209 0.0
C1111 C 0.97023 1.00027 0.75598 0.0
C1112 C 0.98625 0.97334 0.77267 0.0
H1113 H 0.97165 0.04904 0.74066 0.0
H1114 H 0.94639 0.99888 0.74153 0.0
S1115 S 0.06726 0.96938 0.82637 0.0
N1116 N 0.06183 0.00616 0.81041 0.0
N1117 N 0.03424 0.95217 0.81091 0.0
C1118 C 0.0171 0.9764 0.79133 0.0
C1119 C 0.03202 0.00584 0.79127 0.0
C1120 C 0.06606 0.10953 0.53926 0.0
C1121 C 0.0839 0.09809 0.58681 0.0
C1122 C 0.07343 0.10245 0.48022 0.0
C1123 C 0.09863 0.08327 0.46636 0.0
H1124 H 0.04604 0.12396 0.54746 0.0
H1125 H 0.0588 0.11164 0.44534 0.0
S1126 S 0.15433 0.04914 0.57321 0.0
N1127 N 0.12939 0.06806 0.61524 0.0
N1128 N 0.14258 0.05431 0.50387 0.0
C1129 C 0.11712 0.07213 0.51296 0.0
C1130 C 0.10995 0.07969 0.57326 0.0
C1131 C 0.94088 0.60972 0.77171 0.0
C1132 C 0.92353 0.59745 0.72427 0.0
C1133 C 0.93385 0.60241 0.83086 0.0
C1134 C 0.9095 0.58219 0.84489 0.0
H1135 H 0.96028 0.62491 0.76331 0.0
H1136 H 0.9481 0.61221 0.8657 0.0
S1137 S 0.85519 0.54568 0.73836 0.0
N1138 N 0.87929 0.56555 0.69621 0.0
N1139 N 0.86676 0.55146 0.80761 0.0
C1140 C 0.89144 0.57029 0.79838 0.0
C1141 C 0.89826 0.57805 0.73805 0.0
C1142 C 0.39901 0.42266 0.08469 0.0
C1143 C 0.42506 0.40462 0.09918 0.0
C1144 C 0.39337 0.43212 0.0261 0.0
C1145 C 0.41317 0.42339 0.9794 0.0
H1146 H 0.38305 0.43019 0.11891 0.0
H1147 H 0.37322 0.44629 0.01742 0.0
S1148 S 0.48319 0.37408 -0.00744 0.0
N1149 N 0.46994 0.37695 0.06137 0.0
N1150 N 0.45907 0.39429 0.95107 0.0
C1151 C 0.43866 0.40436 -0.00719 0.0
C1152 C 0.44465 0.39505 0.05268 0.0
C1153 C 0.57848 0.90291 0.32805 0.0
C1154 C 0.60332 0.9227 0.34093 0.0
C1155 C 0.5708 0.89543 0.26922 0.0
C1156 C 0.58803 0.90697 0.22083 0.0
H1157 H 0.5641 0.89389 0.36343 0.0
H1158 H 0.55085 0.88083 0.26179 0.0
S1159 S 0.65814 0.95634 0.23171 0.0
N1160 N 0.64681 0.95163 0.30147 0.0
N1161 N 0.6332 0.93685 0.1907 0.0
C1162 C 0.61413 0.92538 0.23345 0.0
C1163 C 0.62154 0.93346 0.29348 0.0
C1164 C 0.11037 0.42344 0.74232 0.0
C1165 C 0.08621 0.40285 0.7287 0.0
C1166 C 0.11709 0.43152 0.80116 0.0
C1167 C 0.10033 0.4189 0.84896 0.0
H1168 H 0.12394 0.43404 0.70733 0.0
H1169 H 0.13558 0.44788 0.80907 0.0
S1170 S 0.03667 0.36153 0.83766 0.0
N1171 N 0.04664 0.36853 0.76788 0.0
N1172 N 0.0597 0.38311 0.87885 0.0
C1173 C 0.07693 0.39723 0.83618 0.0
C1174 C 0.06975 0.38937 0.776 0.0
C1175 C 0.57627 0.61777 0.05245 0.0
C1176 C 0.5868 0.59981 0.10059 0.0
C1177 C 0.58596 0.61173 -0.0059 0.0
C1178 C 0.60613 0.58708 0.98123 0.0
H1179 H 0.56024 0.63664 0.05969 0.0
H1180 H 0.57678 0.62609 0.95879 0.0
S1181 S 0.64251 0.53457 0.09177 0.0
N1182 N 0.62035 0.55761 0.13186 0.0
N1183 N 0.63806 0.5459 0.022 0.0
C1184 C 0.61772 0.56957 0.02911 0.0
C1185 C 0.60818 0.57601 0.08876 0.0
C1186 C 0.39535 0.07068 0.29375 0.0
C1187 C 0.40558 0.08835 0.34264 0.0
C1188 C 0.40388 0.07826 0.23536 0.0
C1189 C 0.4233 0.10353 0.22355 0.0
H1190 H 0.38102 0.05047 0.30045 0.0
H1191 H 0.39585 0.0636 0.19943 0.0
S1192 S 0.45411 0.1592 0.3342 0.0
N1193 N 0.43436 0.13402 0.37414 0.0
N1194 N 0.45077 0.14762 0.26435 0.0
C1195 C 0.43294 0.12203 0.27144 0.0
C1196 C 0.42395 0.11462 0.33094 0.0
C1197 C 0.93895 0.89921 0.54272 0.0
C1198 C 0.91882 0.90619 0.59026 0.0
C1199 C 0.93174 0.90758 0.48406 0.0
C1200 C 0.90439 0.92362 0.47083 0.0
H1201 H 0.96076 0.88765 0.55074 0.0
H1202 H 0.94819 0.90225 0.44915 0.0
S1203 S 0.84224 0.94486 0.57681 0.0
N1204 N 0.86884 0.92807 0.61841 0.0
N1205 N 0.856 0.94429 0.50813 0.0
C1206 C 0.88359 0.92999 0.51712 0.0
C1207 C 0.89061 0.9211 0.57682 0.0
C1208 C 0.09872 0.07174 0.98394 0.0
C1209 C 0.07545 0.09253 0.96623 0.0
C1210 C 0.10432 0.06575 0.04433 0.0
C1211 C 0.08737 0.08103 0.08875 0.0
H1212 H 0.11255 0.05979 0.95084 0.0
H1213 H 0.12243 0.04962 0.05632 0.0
S1214 S 0.02365 0.13714 0.06569 0.0
N1215 N 0.03487 0.12774 -0.00244 0.0
N1216 N 0.04596 0.11722 0.11148 0.0
C1217 C 0.06398 0.10179 0.07169 0.0
C1218 C 0.05782 0.10734 0.01021 0.0
C1219 C 0.94577 0.60602 0.30124 0.0
C1220 C 0.93132 0.58807 0.34518 0.0
C1221 C 0.93956 0.60098 0.24072 0.0
C1222 C 0.91938 0.5773 0.22248 0.0
H1223 H 0.96134 0.6245 0.31376 0.0
H1224 H 0.95084 0.61554 0.20796 0.0
S1225 S 0.87707 0.52299 0.32068 0.0
N1226 N 0.89663 0.54533 0.36693 0.0
N1227 N 0.88564 0.53532 0.25289 0.0
C1228 C 0.90543 0.55871 0.26602 0.0
C1229 C 0.91122 0.56427 0.32758 0.0
C1230 C 0.43669 0.41044 0.58086 0.0
C1231 C 0.41462 0.43249 0.59863 0.0
C1232 C 0.44223 0.40445 0.52045 0.0
C1233 C 0.42525 0.41968 0.476 0.0
H1234 H 0.45006 0.39796 0.6139 0.0
H1235 H 0.45947 0.38738 0.50851 0.0
S1236 S 0.36504 0.47952 0.49918 0.0
N1237 N 0.37617 0.47 0.56729 0.0
N1238 N 0.38583 0.45802 0.45334 0.0
C1239 C 0.40306 0.44173 0.4931 0.0
C1240 C 0.39797 0.44837 0.55462 0.0
C1241 C 0.60269 0.9104 0.75041 0.0
C1242 C 0.58596 0.93337 0.72001 0.0
C1243 C 0.59649 0.9036 0.81037 0.0
C1244 C 0.57271 0.91884 0.84137 0.0
H1245 H 0.62093 0.89782 0.72787 0.0
H1246 H 0.6103 0.88615 0.83254 0.0
S1247 S 0.52164 0.98027 0.78142 0.0
N1248 N 0.54454 0.97124 0.72503 0.0
N1249 N 0.53227 0.95779 0.83737 0.0
C1250 C 0.55548 0.94151 0.81124 0.0
C1251 C 0.56231 0.94899 0.75062 0.0
C1252 C 0.06987 0.40127 0.30634 0.0
C1253 C 0.08547 0.41771 0.351 0.0
C1254 C 0.07645 0.40652 0.24606 0.0
C1255 C 0.09818 0.42897 0.2287 0.0
H1256 H 0.05301 0.3838 0.31806 0.0
H1257 H 0.06416 0.39315 0.21278 0.0
S1258 S 0.14403 0.47918 0.32885 0.0
N1259 N 0.12305 0.4577 0.37435 0.0
N1260 N 0.13463 0.46825 0.26056 0.0
C1261 C 0.11335 0.4461 0.27289 0.0
C1262 C 0.10721 0.44024 0.3343 0.0
C1263 C 0.56549 0.5662 0.57427 0.0
C1264 C 0.58859 0.58344 0.60314 0.0
C1265 C 0.55727 0.57245 0.51499 0.0
C1266 C 0.57244 0.59562 0.48232 0.0
H1267 H 0.55339 0.54801 0.59789 0.0
H1268 H 0.53962 0.55841 0.49405 0.0
S1269 S 0.63445 0.64726 0.53753 0.0
N1270 N 0.62605 0.62503 0.59521 0.0
N1271 N 0.61142 0.63599 0.48295 0.0
C1272 C 0.59557 0.613 0.51065 0.0
C1273 C 0.60342 0.60713 0.57135 0.0
C1274 C 0.4397 0.06059 0.75391 0.0
C1275 C 0.41651 0.0769 0.72328 0.0
C1276 C 0.44749 0.06819 0.81284 0.0
C1277 C 0.43184 0.09187 0.84338 0.0
H1278 H 0.45243 0.04233 0.73176 0.0
H1279 H 0.46542 0.05502 0.835 0.0
S1280 S 0.3689 0.14098 0.78336 0.0
N1281 N 0.37801 0.11773 0.72762 0.0
N1282 N 0.39193 0.13131 0.83911 0.0
C1283 C 0.40834 0.10804 0.81351 0.0
C1284 C 0.40087 0.10075 0.75322 0.0
C1285 C 0.93648 0.94827 0.06055 0.0
C1286 C 0.91299 0.93235 0.09108 0.0
C1287 C 0.9438 0.94097 0.00125 0.0
C1288 C 0.92733 0.91807 0.97026 0.0
H1289 H 0.94976 0.96599 0.08304 0.0
H1290 H 0.96199 0.9538 0.97916 0.0
S1291 S 0.86349 0.8701 0.03004 0.0
N1292 N 0.87348 0.89259 0.08635 0.0
N1293 N 0.88645 0.87966 0.97411 0.0
C1294 C 0.90358 0.90225 0.0001 0.0
C1295 C 0.89662 0.90918 0.06079 0.0
loop_
_geom_bond_atom_site_label_1
_geom_bond_atom_site_label_2
_geom_bond_distance
_geom_bond_site_symmetry_2
_ccdc_geom_bond_type
Co0 O2 2.143 . S
Co0 O8 2.074 . S
Co0 O11 2.093 . S
Co0 O24 2.097 . S
Co0 N41 2.151 . S
Co0 N49 2.214 . S
Co1 O2 2.160 . S
Co1 O7 2.058 . S
Co1 O17 2.057 . S
Co1 O32 2.037 . S
Co1 N36 2.145 1_545 S
Co1 N57 2.257 . S
O2 Co0 2.143 . S
O2 Co1 2.160 . S
C3 O4 1.278 . S
C3 O11 1.224 . S
O4 C3 1.278 . S
C5 O6 1.245 . S
C5 O17 1.232 . S
O6 C5 1.245 . S
O7 Co1 2.058 . S
O7 C33 1.269 . S
O8 Co0 2.074 . S
O8 C33 1.257 . S
H9 C34 0.930 . S
H10 C40 0.930 . S
O11 Co0 2.093 . S
O11 C3 1.224 . S
H12 C44 0.929 . S
H13 C46 0.930 . S
H14 C47 0.930 . S
H15 C45 0.929 . S
H16 C48 0.928 . S
O17 Co1 2.057 . S
O17 C5 1.232 . S
H18 C37 0.929 . S
H19 C38 0.929 . S
H20 C50 0.931 . S
H21 C42 0.929 . S
H22 C51 0.930 . S
H23 C43 0.931 . S
O24 Co0 2.097 . S
O24 C52 1.214 . S
H25 C53 0.929 . S
H26 C54 0.929 . S
H27 C55 0.930 . S
H28 C56 0.929 . S
H29 C58 0.930 . S
H30 C35 0.930 . S
H31 C39 0.930 . S
O32 Co1 2.037 . S
O32 C52 1.234 . S
C33 O7 1.269 . S
C33 O8 1.257 . S
C34 H9 0.930 . S
C34 C37 1.388 . S
C34 C39 1.418 . S
C35 H30 0.930 . S
C35 C38 1.404 . S
C35 C39 1.353 . S
N36 Co1 2.145 1_565 S
N36 C37 1.397 . S
N36 C38 1.334 . S
C37 H18 0.929 . S
C37 C34 1.388 . S
C37 N36 1.397 . S
C38 H19 0.929 . S
C38 C35 1.404 . S
C38 N36 1.334 . S
C39 H31 0.930 . S
C39 C34 1.418 . S
C39 C35 1.353 . S
C40 H10 0.930 . S
C40 N41 1.330 . S
C40 C42 1.446 . S
N41 Co0 2.151 . S
N41 C40 1.330 . S
N41 C45 1.418 . S
C42 H21 0.929 . S
C42 C40 1.446 . S
C42 C43 1.332 . S
C43 H23 0.931 . S
C43 C42 1.332 . S
C43 C44 1.267 . S
C44 H12 0.929 . S
C44 C43 1.267 . S
C44 C45 1.251 . S
C45 H15 0.929 . S
C45 N41 1.418 . S
C45 C44 1.251 . S
C46 H13 0.930 . S
C46 C48 1.406 1_655 S
C46 C51 1.261 . S
C47 H14 0.930 . S
C47 N49 1.325 . S
C47 C50 1.357 1_455 S
C48 H16 0.928 . S
C48 C46 1.406 1_455 S
C48 N49 1.261 . S
N49 Co0 2.214 . S
N49 C47 1.325 . S
N49 C48 1.261 . S
C50 H20 0.931 . S
C50 C47 1.357 1_655 S
C50 C51 1.312 . S
C51 H22 0.930 . S
C51 C46 1.261 . S
C51 C50 1.312 . S
C52 O24 1.214 . S
C52 O32 1.234 . S
C53 H25 0.929 . S
C53 C56 1.391 . S
C53 C58 1.391 1_565 S
C54 H26 0.929 . S
C54 C55 1.390 . S
C54 N57 1.391 1_565 S
C55 H27 0.930 . S
C55 C54 1.390 . S
C55 C56 1.392 . S
C56 H28 0.929 . S
C56 C53 1.391 . S
C56 C55 1.392 . S
N57 Co1 2.257 . S
N57 C54 1.391 1_545 S
N57 C58 1.388 . S
C58 H29 0.930 . S
C58 C53 1.391 1_545 S
C58 N57 1.388 . S
Co59 O61 2.143 . S
Co59 O67 2.074 . S
Co59 O70 2.093 . S
Co59 O83 2.097 . S
Co59 N100 2.151 . S
Co59 N108 2.214 . S
Co60 O61 2.160 . S
Co60 O66 2.058 . S
Co60 O76 2.057 . S
Co60 O91 2.037 . S
Co60 N95 2.145 1_655 S
Co60 N116 2.257 . S
O61 Co59 2.143 . S
O61 Co60 2.160 . S
C62 O63 1.278 . S
C62 O70 1.224 . S
O63 C62 1.278 . S
C64 O65 1.245 . S
C64 O76 1.232 . S
O65 C64 1.245 . S
O66 Co60 2.058 . S
O66 C92 1.269 . S
O67 Co59 2.074 . S
O67 C92 1.257 . S
H68 C93 0.930 . S
H69 C99 0.930 . S
O70 Co59 2.093 . S
O70 C62 1.224 . S
H71 C103 0.929 . S
H72 C105 0.930 . S
H73 C106 0.930 . S
H74 C104 0.929 . S
H75 C107 0.928 . S
O76 Co60 2.057 . S
O76 C64 1.232 . S
H77 C96 0.929 . S
H78 C97 0.929 . S
H79 C109 0.931 . S
H80 C101 0.929 . S
H81 C110 0.930 . S
H82 C102 0.931 . S
O83 Co59 2.097 . S
O83 C111 1.214 . S
H84 C112 0.929 . S
H85 C113 0.929 . S
H86 C114 0.930 . S
H87 C115 0.929 . S
H88 C117 0.930 . S
H89 C94 0.930 . S
H90 C98 0.930 . S
O91 Co60 2.037 . S
O91 C111 1.234 . S
C92 O66 1.269 . S
C92 O67 1.257 . S
C93 H68 0.930 . S
C93 C96 1.388 . S
C93 C98 1.418 . S
C94 H89 0.930 . S
C94 C97 1.404 . S
C94 C98 1.353 . S
N95 Co60 2.145 1_455 S
N95 C96 1.397 . S
N95 C97 1.334 . S
C96 H77 0.929 . S
C96 C93 1.388 . S
C96 N95 1.397 . S
C97 H78 0.929 . S
C97 C94 1.404 . S
C97 N95 1.334 . S
C98 H90 0.930 . S
C98 C93 1.418 . S
C98 C94 1.353 . S
C99 H69 0.930 . S
C99 N100 1.330 . S
C99 C101 1.446 . S
N100 Co59 2.151 . S
N100 C99 1.330 . S
N100 C104 1.418 . S
C101 H80 0.929 . S
C101 C99 1.446 . S
C101 C102 1.332 . S
C102 H82 0.931 . S
C102 C101 1.332 . S
C102 C103 1.267 . S
C103 H71 0.929 . S
C103 C102 1.267 . S
C103 C104 1.251 . S
C104 H74 0.929 . S
C104 N100 1.418 . S
C104 C103 1.251 . S
C105 H72 0.930 . S
C105 C107 1.406 . S
C105 C110 1.261 . S
C106 H73 0.930 . S
C106 N108 1.325 . S
C106 C109 1.357 . S
C107 H75 0.928 . S
C107 C105 1.406 . S
C107 N108 1.261 . S
N108 Co59 2.214 . S
N108 C106 1.325 . S
N108 C107 1.261 . S
C109 H79 0.931 . S
C109 C106 1.357 . S
C109 C110 1.312 . S
C110 H81 0.930 . S
C110 C105 1.261 . S
C110 C109 1.312 . S
C111 O83 1.214 . S
C111 O91 1.234 . S
C112 H84 0.929 . S
C112 C115 1.391 . S
C112 C117 1.391 1_455 S
C113 H85 0.929 . S
C113 C114 1.390 . S
C113 N116 1.391 1_455 S
C114 H86 0.930 . S
C114 C113 1.390 . S
C114 C115 1.392 . S
C115 H87 0.929 . S
C115 C112 1.391 . S
C115 C114 1.392 . S
N116 Co60 2.257 . S
N116 C113 1.391 1_655 S
N116 C117 1.388 . S
C117 H88 0.930 . S
C117 C112 1.391 1_655 S
C117 N116 1.388 . S
Co118 O120 2.143 . S
Co118 O126 2.074 . S
Co118 O129 2.093 . S
Co118 O142 2.097 . S
Co118 N159 2.151 . S
Co118 N167 2.214 . S
Co119 O120 2.160 . S
Co119 O125 2.058 . S
Co119 O135 2.057 . S
Co119 O150 2.037 . S
Co119 N154 2.145 . S
Co119 N175 2.257 . S
O120 Co118 2.143 . S
O120 Co119 2.160 . S
C121 O122 1.278 . S
C121 O129 1.224 . S
O122 C121 1.278 . S
C123 O124 1.245 . S
C123 O135 1.232 . S
O124 C123 1.245 . S
O125 Co119 2.058 . S
O125 C151 1.269 . S
O126 Co118 2.074 . S
O126 C151 1.257 . S
H127 C152 0.930 . S
H128 C158 0.930 . S
O129 Co118 2.093 . S
O129 C121 1.224 . S
H130 C162 0.929 . S
H131 C164 0.930 . S
H132 C165 0.930 . S
H133 C163 0.929 . S
H134 C166 0.928 . S
O135 Co119 2.057 . S
O135 C123 1.232 . S
H136 C155 0.929 . S
H137 C156 0.929 . S
H138 C168 0.931 . S
H139 C160 0.929 . S
H140 C169 0.930 . S
H141 C161 0.931 . S
O142 Co118 2.097 . S
O142 C170 1.214 . S
H143 C171 0.929 . S
H144 C172 0.929 . S
H145 C173 0.930 . S
H146 C174 0.929 . S
H147 C176 0.930 . S
H148 C153 0.930 1_554 S
H149 C157 0.930 . S
O150 Co119 2.037 . S
O150 C170 1.234 . S
C151 O125 1.269 . S
C151 O126 1.257 . S
C152 H127 0.930 . S
C152 C155 1.388 1_554 S
C152 C157 1.418 . S
C153 H148 0.930 1_556 S
C153 C156 1.404 . S
C153 C157 1.353 1_556 S
N154 Co119 2.145 . S
N154 C155 1.397 . S
N154 C156 1.334 . S
C155 H136 0.929 . S
C155 C152 1.388 1_556 S
C155 N154 1.397 . S
C156 H137 0.929 . S
C156 C153 1.404 . S
C156 N154 1.334 . S
C157 H149 0.930 . S
C157 C152 1.418 . S
C157 C153 1.353 1_554 S
C158 H128 0.930 . S
C158 N159 1.330 . S
C158 C160 1.446 . S
N159 Co118 2.151 . S
N159 C158 1.330 . S
N159 C163 1.418 . S
C160 H139 0.929 . S
C160 C158 1.446 . S
C160 C161 1.332 . S
C161 H141 0.931 . S
C161 C160 1.332 . S
C161 C162 1.267 . S
C162 H130 0.929 . S
C162 C161 1.267 . S
C162 C163 1.251 . S
C163 H133 0.929 . S
C163 N159 1.418 . S
C163 C162 1.251 . S
C164 H131 0.930 . S
C164 C166 1.406 . S
C164 C169 1.261 . S
C165 H132 0.930 . S
C165 N167 1.325 . S
C165 C168 1.357 . S
C166 H134 0.928 . S
C166 C164 1.406 . S
C166 N167 1.261 . S
N167 Co118 2.214 . S
N167 C165 1.325 . S
N167 C166 1.261 . S
C168 H138 0.931 . S
C168 C165 1.357 . S
C168 C169 1.312 . S
C169 H140 0.930 . S
C169 C164 1.261 . S
C169 C168 1.312 . S
C170 O142 1.214 . S
C170 O150 1.234 . S
C171 H143 0.929 . S
C171 C174 1.391 . S
C171 C176 1.391 . S
C172 H144 0.929 . S
C172 C173 1.390 . S
C172 N175 1.391 . S
C173 H145 0.930 . S
C173 C172 1.390 . S
C173 C174 1.392 . S
C174 H146 0.929 . S
C174 C171 1.391 . S
C174 C173 1.392 . S
N175 Co119 2.257 . S
N175 C172 1.391 . S
N175 C176 1.388 . S
C176 H147 0.930 . S
C176 C171 1.391 . S
C176 N175 1.388 . S
Co177 O179 2.143 . S
Co177 O185 2.074 . S
Co177 O188 2.093 1_554 S
Co177 O201 2.097 . S
Co177 N218 2.151 . S
Co177 N226 2.214 . S
Co178 O179 2.160 . S
Co178 O184 2.058 . S
Co178 O194 2.057 . S
Co178 O209 2.037 . S
Co178 N213 2.145 . S
Co178 N234 2.257 . S
O179 Co177 2.143 . S
O179 Co178 2.160 . S
C180 O181 1.278 . S
C180 O188 1.224 . S
O181 C180 1.278 . S
C182 O183 1.245 . S
C182 O194 1.232 . S
O183 C182 1.245 . S
O184 Co178 2.058 . S
O184 C210 1.269 . S
O185 Co177 2.074 . S
O185 C210 1.257 . S
H186 C211 0.930 . S
H187 C217 0.930 1_556 S
O188 Co177 2.093 1_556 S
O188 C180 1.224 . S
H189 C221 0.929 . S
H190 C223 0.930 . S
H191 C224 0.930 . S
H192 C222 0.929 . S
H193 C225 0.928 1_556 S
O194 Co178 2.057 . S
O194 C182 1.232 . S
H195 C214 0.929 . S
H196 C215 0.929 . S
H197 C227 0.931 . S
H198 C219 0.929 1_556 S
H199 C228 0.930 . S
H200 C220 0.931 . S
O201 Co177 2.097 . S
O201 C229 1.214 . S
H202 C230 0.929 . S
H203 C231 0.929 . S
H204 C232 0.929 1_556 S
H205 C233 0.929 . S
H206 C235 0.930 . S
H207 C212 0.930 . S
H208 C216 0.930 . S
O209 Co178 2.037 . S
O209 C229 1.234 . S
C210 O184 1.269 . S
C210 O185 1.257 . S
C211 H186 0.930 . S
C211 C214 1.388 . S
C211 C216 1.418 . S
C212 H207 0.930 . S
C212 C215 1.404 . S
C212 C216 1.353 . S
N213 Co178 2.145 . S
N213 C214 1.397 . S
N213 C215 1.334 . S
C214 H195 0.929 . S
C214 C211 1.388 . S
C214 N213 1.397 . S
C215 H196 0.929 . S
C215 C212 1.404 . S
C215 N213 1.334 . S
C216 H208 0.930 . S
C216 C211 1.418 . S
C216 C212 1.353 . S
C217 H187 0.930 1_554 S
C217 N218 1.330 . S
C217 C219 1.446 . S
N218 Co177 2.151 . S
N218 C217 1.330 . S
N218 C222 1.418 . S
C219 H198 0.929 1_554 S
C219 C217 1.446 . S
C219 C220 1.332 . S
C220 H200 0.931 . S
C220 C219 1.332 . S
C220 C221 1.267 . S
C221 H189 0.929 . S
C221 C220 1.267 . S
C221 C222 1.251 . S
C222 H192 0.929 . S
C222 N218 1.418 . S
C222 C221 1.251 . S
C223 H190 0.930 . S
C223 C225 1.406 1_545 S
C223 C228 1.261 . S
C224 H191 0.930 . S
C224 N226 1.325 . S
C224 C227 1.357 1_565 S
C225 H193 0.928 1_554 S
C225 C223 1.406 1_565 S
C225 N226 1.261 . S
N226 Co177 2.214 . S
N226 C224 1.325 . S
N226 C225 1.261 . S
C227 H197 0.931 . S
C227 C224 1.357 1_545 S
C227 C228 1.312 . S
C228 H199 0.930 . S
C228 C223 1.261 . S
C228 C227 1.312 . S
C229 O201 1.214 . S
C229 O209 1.234 . S
C230 H202 0.929 . S
C230 C233 1.391 . S
C230 C235 1.391 1_556 S
C231 H203 0.929 . S
C231 C232 1.399 . S
C231 N234 1.391 . S
C232 H204 0.929 1_554 S
C232 C231 1.399 . S
C232 C233 1.383 1_554 S
C233 H205 0.929 . S
C233 C230 1.391 . S
C233 C232 1.383 1_556 S
N234 Co178 2.257 . S
N234 C231 1.391 . S
N234 C235 1.388 . S
C235 H206 0.930 . S
C235 C230 1.391 1_554 S
C235 N234 1.388 . S
Co236 O238 2.143 . S
Co236 O244 2.074 1_554 S
Co236 O247 2.093 . S
Co236 O260 2.097 . S
Co236 N277 2.151 . S
Co236 N285 2.214 . S
Co237 O238 2.160 1_556 S
Co237 O243 2.058 . S
Co237 O253 2.057 . S
Co237 O268 2.037 . S
Co237 N272 2.145 . S
Co237 N293 2.257 1_556 S
O238 Co236 2.143 . S
O238 Co237 2.160 1_554 S
C239 O240 1.278 . S
C239 O247 1.224 . S
O240 C239 1.278 . S
C241 O242 1.245 1_556 S
C241 O253 1.232 . S
O242 C241 1.245 1_554 S
O243 Co237 2.058 . S
O243 C269 1.269 . S
O244 Co236 2.074 1_556 S
O244 C269 1.257 . S
H245 C270 0.930 . S
H246 C276 0.930 . S
O247 Co236 2.093 . S
O247 C239 1.224 . S
H248 C280 0.929 . S
H249 C282 0.930 . S
H250 C283 0.930 . S
H251 C281 0.929 . S
H252 C284 0.928 . S
O253 Co237 2.057 . S
O253 C241 1.232 . S
H254 C273 0.929 . S
H255 C274 0.929 . S
H256 C286 0.931 . S
H257 C278 0.929 . S
H258 C287 0.930 . S
H259 C279 0.931 . S
O260 Co236 2.097 . S
O260 C288 1.214 . S
H261 C289 0.929 . S
H262 C290 0.929 . S
H263 C291 0.930 . S
H264 C292 0.929 . S
H265 C294 0.930 . S
H266 C271 0.930 . S
H267 C275 0.930 . S
O268 Co237 2.037 . S
O268 C288 1.234 1_556 S
C269 O243 1.269 . S
C269 O244 1.257 . S
C270 H245 0.930 . S
C270 C273 1.388 . S
C270 C275 1.418 . S
C271 H266 0.930 . S
C271 C274 1.404 . S
C271 C275 1.353 . S
N272 Co237 2.145 . S
N272 C273 1.397 . S
N272 C274 1.334 . S
C273 H254 0.929 . S
C273 C270 1.388 . S
C273 N272 1.397 . S
C274 H255 0.929 . S
C274 C271 1.404 . S
C274 N272 1.334 . S
C275 H267 0.930 . S
C275 C270 1.418 . S
C275 C271 1.353 . S
C276 H246 0.930 . S
C276 N277 1.330 . S
C276 C278 1.446 . S
N277 Co236 2.151 . S
N277 C276 1.330 . S
N277 C281 1.418 1_554 S
C278 H257 0.929 . S
C278 C276 1.446 . S
C278 C279 1.332 . S
C279 H259 0.931 . S
C279 C278 1.332 . S
C279 C280 1.267 1_554 S
C280 H248 0.929 . S
C280 C279 1.267 1_556 S
C280 C281 1.251 . S
C281 H251 0.929 . S
C281 N277 1.418 1_556 S
C281 C280 1.251 . S
C282 H249 0.930 . S
C282 C284 1.406 1_655 S
C282 C287 1.261 . S
C283 H250 0.930 . S
C283 N285 1.325 1_556 S
C283 C286 1.357 1_455 S
C284 H252 0.928 . S
C284 C282 1.406 1_455 S
C284 N285 1.261 . S
N285 Co236 2.214 . S
N285 C283 1.325 1_554 S
N285 C284 1.261 . S
C286 H256 0.931 . S
C286 C283 1.357 1_655 S
C286 C287 1.312 1_556 S
C287 H258 0.930 . S
C287 C282 1.261 . S
C287 C286 1.312 1_554 S
C288 O260 1.214 . S
C288 O268 1.234 1_554 S
C289 H261 0.929 . S
C289 C292 1.391 . S
C289 C294 1.391 . S
C290 H262 0.929 . S
C290 C291 1.390 . S
C290 N293 1.391 . S
C291 H263 0.930 . S
C291 C290 1.390 . S
C291 C292 1.392 . S
C292 H264 0.929 . S
C292 C289 1.391 . S
C292 C291 1.392 . S
N293 Co237 2.257 1_554 S
N293 C290 1.391 . S
N293 C294 1.388 . S
C294 H265 0.930 . S
C294 C289 1.391 . S
C294 N293 1.388 . S
Co295 O297 2.143 . S
Co295 O303 2.074 . S
Co295 O306 2.093 . S
Co295 O319 2.097 . S
Co295 N336 2.151 . S
Co295 N344 2.214 . S
Co296 O297 2.160 . S
Co296 O302 2.058 . S
Co296 O312 2.057 . S
Co296 O327 2.037 . S
Co296 N331 2.145 . S
Co296 N352 2.257 . S
O297 Co295 2.143 . S
O297 Co296 2.160 . S
C298 O299 1.278 . S
C298 O306 1.224 . S
O299 C298 1.278 . S
C300 O301 1.245 . S
C300 O312 1.232 . S
O301 C300 1.245 . S
O302 Co296 2.058 . S
O302 C328 1.269 . S
O303 Co295 2.074 . S
O303 C328 1.257 . S
H304 C329 0.930 . S
H305 C335 0.930 . S
O306 Co295 2.093 . S
O306 C298 1.224 . S
H307 C339 0.929 . S
H308 C341 0.930 . S
H309 C342 0.930 . S
H310 C340 0.929 . S
H311 C343 0.928 . S
O312 Co296 2.057 . S
O312 C300 1.232 . S
H313 C332 0.929 . S
H314 C333 0.929 . S
H315 C345 0.931 . S
H316 C337 0.929 . S
H317 C346 0.930 . S
H318 C338 0.931 . S
O319 Co295 2.097 . S
O319 C347 1.214 . S
H320 C348 0.929 . S
H321 C349 0.929 . S
H322 C350 0.930 . S
H323 C351 0.929 . S
H324 C353 0.930 . S
H325 C330 0.930 . S
H326 C334 0.930 . S
O327 Co296 2.037 . S
O327 C347 1.234 . S
C328 O302 1.269 . S
C328 O303 1.257 . S
C329 H304 0.930 . S
C329 C332 1.388 . S
C329 C334 1.418 . S
C330 H325 0.930 . S
C330 C333 1.404 . S
C330 C334 1.353 . S
N331 Co296 2.145 . S
N331 C332 1.397 . S
N331 C333 1.334 . S
C332 H313 0.929 . S
C332 C329 1.388 . S
C332 N331 1.397 . S
C333 H314 0.929 . S
C333 C330 1.404 . S
C333 N331 1.334 . S
C334 H326 0.930 . S
C334 C329 1.418 . S
C334 C330 1.353 . S
C335 H305 0.930 . S
C335 N336 1.330 . S
C335 C337 1.446 . S
N336 Co295 2.151 . S
N336 C335 1.330 . S
N336 C340 1.418 . S
C337 H316 0.929 . S
C337 C335 1.446 . S
C337 C338 1.332 . S
C338 H318 0.931 . S
C338 C337 1.332 . S
C338 C339 1.267 . S
C339 H307 0.929 . S
C339 C338 1.267 . S
C339 C340 1.251 . S
C340 H310 0.929 . S
C340 N336 1.418 . S
C340 C339 1.251 . S
C341 H308 0.930 . S
C341 C343 1.406 . S
C341 C346 1.261 . S
C342 H309 0.930 . S
C342 N344 1.325 . S
C342 C345 1.357 . S
C343 H311 0.928 . S
C343 C341 1.406 . S
C343 N344 1.261 . S
N344 Co295 2.214 . S
N344 C342 1.325 . S
N344 C343 1.261 . S
C345 H315 0.931 . S
C345 C342 1.357 . S
C345 C346 1.312 . S
C346 H317 0.930 . S
C346 C341 1.261 . S
C346 C345 1.312 . S
C347 O319 1.214 . S
C347 O327 1.234 . S
C348 H320 0.929 . S
C348 C351 1.391 . S
C348 C353 1.391 . S
C349 H321 0.929 . S
C349 C350 1.390 . S
C349 N352 1.391 . S
C350 H322 0.930 . S
C350 C349 1.390 . S
C350 C351 1.392 . S
C351 H323 0.929 . S
C351 C348 1.391 . S
C351 C350 1.392 . S
N352 Co296 2.257 . S
N352 C349 1.391 . S
N352 C353 1.388 . S
C353 H324 0.930 . S
C353 C348 1.391 . S
C353 N352 1.388 . S
Co354 O356 2.143 . S
Co354 O362 2.074 . S
Co354 O365 2.093 . S
Co354 O378 2.097 . S
Co354 N395 2.151 . S
Co354 N403 2.214 . S
Co355 O356 2.160 . S
Co355 O361 2.058 . S
Co355 O371 2.057 . S
Co355 O386 2.037 . S
Co355 N390 2.145 1_545 S
Co355 N411 2.257 . S
O356 Co354 2.143 . S
O356 Co355 2.160 . S
C357 O358 1.278 . S
C357 O365 1.224 . S
O358 C357 1.278 . S
C359 O360 1.245 . S
C359 O371 1.232 . S
O360 C359 1.245 . S
O361 Co355 2.058 . S
O361 C387 1.269 . S
O362 Co354 2.074 . S
O362 C387 1.257 . S
H363 C388 0.930 . S
H364 C394 0.930 . S
O365 Co354 2.093 . S
O365 C357 1.224 . S
H366 C398 0.929 . S
H367 C400 0.930 . S
H368 C401 0.930 . S
H369 C399 0.929 . S
H370 C402 0.928 . S
O371 Co355 2.057 . S
O371 C359 1.232 . S
H372 C391 0.929 . S
H373 C392 0.929 . S
H374 C404 0.931 . S
H375 C396 0.929 . S
H376 C405 0.930 . S
H377 C397 0.931 . S
O378 Co354 2.097 . S
O378 C406 1.214 . S
H379 C407 0.929 . S
H380 C408 0.929 . S
H381 C409 0.930 . S
H382 C410 0.929 . S
H383 C412 0.930 . S
H384 C389 0.930 . S
H385 C393 0.930 . S
O386 Co355 2.037 . S
O386 C406 1.234 . S
C387 O361 1.269 . S
C387 O362 1.257 . S
C388 H363 0.930 . S
C388 C391 1.388 . S
C388 C393 1.418 . S
C389 H384 0.930 . S
C389 C392 1.404 . S
C389 C393 1.353 . S
N390 Co355 2.145 1_565 S
N390 C391 1.397 . S
N390 C392 1.334 . S
C391 H372 0.929 . S
C391 C388 1.388 . S
C391 N390 1.397 . S
C392 H373 0.929 . S
C392 C389 1.404 . S
C392 N390 1.334 . S
C393 H385 0.930 . S
C393 C388 1.418 . S
C393 C389 1.353 . S
C394 H364 0.930 . S
C394 N395 1.330 . S
C394 C396 1.446 . S
N395 Co354 2.151 . S
N395 C394 1.330 . S
N395 C399 1.418 . S
C396 H375 0.929 . S
C396 C394 1.446 . S
C396 C397 1.332 . S
C397 H377 0.931 . S
C397 C396 1.332 . S
C397 C398 1.267 . S
C398 H366 0.929 . S
C398 C397 1.267 . S
C398 C399 1.251 . S
C399 H369 0.929 . S
C399 N395 1.418 . S
C399 C398 1.251 . S
C400 H367 0.930 . S
C400 C402 1.406 . S
C400 C405 1.261 . S
C401 H368 0.930 . S
C401 N403 1.325 . S
C401 C404 1.357 . S
C402 H370 0.928 . S
C402 C400 1.406 . S
C402 N403 1.261 . S
N403 Co354 2.214 . S
N403 C401 1.325 . S
N403 C402 1.261 . S
C404 H374 0.931 . S
C404 C401 1.357 . S
C404 C405 1.312 . S
C405 H376 0.930 . S
C405 C400 1.261 . S
C405 C404 1.312 . S
C406 O378 1.214 . S
C406 O386 1.234 . S
C407 H379 0.929 . S
C407 C410 1.391 . S
C407 C412 1.391 1_565 S
C408 H380 0.929 . S
C408 C409 1.390 . S
C408 N411 1.391 1_565 S
C409 H381 0.930 . S
C409 C408 1.390 . S
C409 C410 1.392 . S
C410 H382 0.929 . S
C410 C407 1.391 . S
C410 C409 1.392 . S
N411 Co355 2.257 . S
N411 C408 1.391 1_545 S
N411 C412 1.388 . S
C412 H383 0.930 . S
C412 C407 1.391 1_545 S
C412 N411 1.388 . S
Co413 O415 2.143 . S
Co413 O421 2.074 . S
Co413 O424 2.093 . S
Co413 O437 2.097 . S
Co413 N454 2.151 . S
Co413 N462 2.214 . S
Co414 O415 2.160 . S
Co414 O420 2.058 . S
Co414 O430 2.057 . S
Co414 O445 2.037 . S
Co414 N449 2.145 1_655 S
Co414 N470 2.257 . S
O415 Co413 2.143 . S
O415 Co414 2.160 . S
C416 O417 1.278 . S
C416 O424 1.224 . S
O417 C416 1.278 . S
C418 O419 1.245 . S
C418 O430 1.232 . S
O419 C418 1.245 . S
O420 Co414 2.058 . S
O420 C446 1.269 . S
O421 Co413 2.074 . S
O421 C446 1.257 . S
H422 C447 0.930 . S
H423 C453 0.930 . S
O424 Co413 2.093 . S
O424 C416 1.224 . S
H425 C457 0.929 . S
H426 C459 0.930 . S
H427 C460 0.930 . S
H428 C458 0.929 . S
H429 C461 0.928 . S
O430 Co414 2.057 . S
O430 C418 1.232 . S
H431 C450 0.929 . S
H432 C451 0.929 . S
H433 C463 0.931 . S
H434 C455 0.929 . S
H435 C464 0.930 . S
H436 C456 0.931 . S
O437 Co413 2.097 . S
O437 C465 1.214 . S
H438 C466 0.929 . S
H439 C467 0.929 . S
H440 C468 0.930 . S
H441 C469 0.929 . S
H442 C471 0.930 . S
H443 C448 0.930 . S
H444 C452 0.930 . S
O445 Co414 2.037 . S
O445 C465 1.234 . S
C446 O420 1.269 . S
C446 O421 1.257 . S
C447 H422 0.930 . S
C447 C450 1.388 . S
C447 C452 1.418 . S
C448 H443 0.930 . S
C448 C451 1.404 . S
C448 C452 1.353 . S
N449 Co414 2.145 1_455 S
N449 C450 1.397 . S
N449 C451 1.334 . S
C450 H431 0.929 . S
C450 C447 1.388 . S
C450 N449 1.397 . S
C451 H432 0.929 . S
C451 C448 1.404 . S
C451 N449 1.334 . S
C452 H444 0.930 . S
C452 C447 1.418 . S
C452 C448 1.353 . S
C453 H423 0.930 . S
C453 N454 1.330 . S
C453 C455 1.446 . S
N454 Co413 2.151 . S
N454 C453 1.330 . S
N454 C458 1.418 . S
C455 H434 0.929 . S
C455 C453 1.446 . S
C455 C456 1.332 . S
C456 H436 0.931 . S
C456 C455 1.332 . S
C456 C457 1.267 . S
C457 H425 0.929 . S
C457 C456 1.267 . S
C457 C458 1.251 . S
C458 H428 0.929 . S
C458 N454 1.418 . S
C458 C457 1.251 . S
C459 H426 0.930 . S
C459 C461 1.406 1_545 S
C459 C464 1.261 . S
C460 H427 0.930 . S
C460 N462 1.325 . S
C460 C463 1.357 1_565 S
C461 H429 0.928 . S
C461 C459 1.406 1_565 S
C461 N462 1.261 . S
N462 Co413 2.214 . S
N462 C460 1.325 . S
N462 C461 1.261 . S
C463 H433 0.931 . S
C463 C460 1.357 1_545 S
C463 C464 1.312 . S
C464 H435 0.930 . S
C464 C459 1.261 . S
C464 C463 1.312 . S
C465 O437 1.214 . S
C465 O445 1.234 . S
C466 H438 0.929 . S
C466 C469 1.391 . S
C466 C471 1.391 1_455 S
C467 H439 0.929 . S
C467 C468 1.390 . S
C467 N470 1.391 1_455 S
C468 H440 0.930 . S
C468 C467 1.390 . S
C468 C469 1.392 . S
C469 H441 0.929 . S
C469 C466 1.391 . S
C469 C468 1.392 . S
N470 Co414 2.257 . S
N470 C467 1.391 1_655 S
N470 C471 1.388 . S
C471 H442 0.930 . S
C471 C466 1.391 1_655 S
C471 N470 1.388 . S
Co472 O474 2.143 . S
Co472 O480 2.074 . S
Co472 O483 2.093 . S
Co472 O496 2.097 . S
Co472 N513 2.151 . S
Co472 N521 2.214 . S
Co473 O474 2.160 . S
Co473 O479 2.058 . S
Co473 O489 2.057 . S
Co473 O504 2.037 . S
Co473 N508 2.145 . S
Co473 N529 2.257 . S
O474 Co472 2.143 . S
O474 Co473 2.160 . S
C475 O476 1.278 . S
C475 O483 1.224 . S
O476 C475 1.278 . S
C477 O478 1.245 . S
C477 O489 1.232 . S
O478 C477 1.245 . S
O479 Co473 2.058 . S
O479 C505 1.269 . S
O480 Co472 2.074 . S
O480 C505 1.257 . S
H481 C506 0.930 . S
H482 C512 0.930 . S
O483 Co472 2.093 . S
O483 C475 1.224 . S
H484 C516 0.929 . S
H485 C518 0.930 . S
H486 C519 0.930 . S
H487 C517 0.929 . S
H488 C520 0.928 . S
O489 Co473 2.057 . S
O489 C477 1.232 . S
H490 C509 0.929 . S
H491 C510 0.929 . S
H492 C522 0.931 . S
H493 C514 0.929 . S
H494 C523 0.930 . S
H495 C515 0.931 . S
O496 Co472 2.097 . S
O496 C524 1.214 . S
H497 C525 0.929 . S
H498 C526 0.929 . S
H499 C527 0.930 . S
H500 C528 0.929 . S
H501 C530 0.930 . S
H502 C507 0.930 1_554 S
H503 C511 0.930 . S
O504 Co473 2.037 . S
O504 C524 1.234 . S
C505 O479 1.269 . S
C505 O480 1.257 . S
C506 H481 0.930 . S
C506 C509 1.388 1_554 S
C506 C511 1.418 . S
C507 H502 0.930 1_556 S
C507 C510 1.404 . S
C507 C511 1.353 1_556 S
N508 Co473 2.145 . S
N508 C509 1.397 . S
N508 C510 1.334 . S
C509 H490 0.929 . S
C509 C506 1.388 1_556 S
C509 N508 1.397 . S
C510 H491 0.929 . S
C510 C507 1.404 . S
C510 N508 1.334 . S
C511 H503 0.930 . S
C511 C506 1.418 . S
C511 C507 1.353 1_554 S
C512 H482 0.930 . S
C512 N513 1.330 . S
C512 C514 1.446 . S
N513 Co472 2.151 . S
N513 C512 1.330 . S
N513 C517 1.418 . S
C514 H493 0.929 . S
C514 C512 1.446 . S
C514 C515 1.332 . S
C515 H495 0.931 . S
C515 C514 1.332 . S
C515 C516 1.267 . S
C516 H484 0.929 . S
C516 C515 1.267 . S
C516 C517 1.251 . S
C517 H487 0.929 . S
C517 N513 1.418 . S
C517 C516 1.251 . S
C518 H485 0.930 . S
C518 C520 1.406 . S
C518 C523 1.261 . S
C519 H486 0.930 . S
C519 N521 1.325 . S
C519 C522 1.357 . S
C520 H488 0.928 . S
C520 C518 1.406 . S
C520 N521 1.261 . S
N521 Co472 2.214 . S
N521 C519 1.325 . S
N521 C520 1.261 . S
C522 H492 0.931 . S
C522 C519 1.357 . S
C522 C523 1.312 . S
C523 H494 0.930 . S
C523 C518 1.261 . S
C523 C522 1.312 . S
C524 O496 1.214 . S
C524 O504 1.234 . S
C525 H497 0.929 . S
C525 C528 1.391 . S
C525 C530 1.391 . S
C526 H498 0.929 . S
C526 C527 1.390 . S
C526 N529 1.391 . S
C527 H499 0.930 . S
C527 C526 1.390 . S
C527 C528 1.392 . S
C528 H500 0.929 . S
C528 C525 1.391 . S
C528 C527 1.392 . S
N529 Co473 2.257 . S
N529 C526 1.391 . S
N529 C530 1.388 . S
C530 H501 0.930 . S
C530 C525 1.391 . S
C530 N529 1.388 . S
Co531 O533 2.143 . S
Co531 O539 2.074 . S
Co531 O542 2.093 1_554 S
Co531 O555 2.097 . S
Co531 N572 2.151 . S
Co531 N580 2.214 . S
Co532 O533 2.160 . S
Co532 O538 2.058 . S
Co532 O548 2.057 . S
Co532 O563 2.037 . S
Co532 N567 2.145 . S
Co532 N588 2.257 . S
O533 Co531 2.143 . S
O533 Co532 2.160 . S
C534 O535 1.278 . S
C534 O542 1.224 . S
O535 C534 1.278 . S
C536 O537 1.245 . S
C536 O548 1.232 . S
O537 C536 1.245 . S
O538 Co532 2.058 . S
O538 C564 1.269 . S
O539 Co531 2.074 . S
O539 C564 1.257 . S
H540 C565 0.930 . S
H541 C571 0.930 1_556 S
O542 Co531 2.093 1_556 S
O542 C534 1.224 . S
H543 C575 0.929 . S
H544 C577 0.930 . S
H545 C578 0.930 . S
H546 C576 0.929 . S
H547 C579 0.928 1_556 S
O548 Co532 2.057 . S
O548 C536 1.232 . S
H549 C568 0.929 . S
H550 C569 0.929 . S
H551 C581 0.931 . S
H552 C573 0.929 1_556 S
H553 C582 0.930 . S
H554 C574 0.931 . S
O555 Co531 2.097 . S
O555 C583 1.214 . S
H556 C584 0.929 . S
H557 C585 0.929 . S
H558 C586 0.929 1_556 S
H559 C587 0.929 . S
H560 C589 0.930 . S
H561 C566 0.930 . S
H562 C570 0.930 . S
O563 Co532 2.037 . S
O563 C583 1.234 . S
C564 O538 1.269 . S
C564 O539 1.257 . S
C565 H540 0.930 . S
C565 C568 1.388 . S
C565 C570 1.418 . S
C566 H561 0.930 . S
C566 C569 1.404 . S
C566 C570 1.353 . S
N567 Co532 2.145 . S
N567 C568 1.397 . S
N567 C569 1.334 . S
C568 H549 0.929 . S
C568 C565 1.388 . S
C568 N567 1.397 . S
C569 H550 0.929 . S
C569 C566 1.404 . S
C569 N567 1.334 . S
C570 H562 0.930 . S
C570 C565 1.418 . S
C570 C566 1.353 . S
C571 H541 0.930 1_554 S
C571 N572 1.330 . S
C571 C573 1.446 . S
N572 Co531 2.151 . S
N572 C571 1.330 . S
N572 C576 1.418 . S
C573 H552 0.929 1_554 S
C573 C571 1.446 . S
C573 C574 1.332 . S
C574 H554 0.931 . S
C574 C573 1.332 . S
C574 C575 1.267 . S
C575 H543 0.929 . S
C575 C574 1.267 . S
C575 C576 1.251 . S
C576 H546 0.929 . S
C576 N572 1.418 . S
C576 C575 1.251 . S
C577 H544 0.930 . S
C577 C579 1.406 1_565 S
C577 C582 1.261 . S
C578 H545 0.930 . S
C578 N580 1.325 . S
C578 C581 1.357 1_545 S
C579 H547 0.928 1_554 S
C579 C577 1.406 1_545 S
C579 N580 1.261 . S
N580 Co531 2.214 . S
N580 C578 1.325 . S
N580 C579 1.261 . S
C581 H551 0.931 . S
C581 C578 1.357 1_565 S
C581 C582 1.312 . S
C582 H553 0.930 . S
C582 C577 1.261 . S
C582 C581 1.312 . S
C583 O555 1.214 . S
C583 O563 1.234 . S
C584 H556 0.929 . S
C584 C587 1.391 . S
C584 C589 1.391 1_556 S
C585 H557 0.929 . S
C585 C586 1.399 . S
C585 N588 1.391 . S
C586 H558 0.929 1_554 S
C586 C585 1.399 . S
C586 C587 1.383 1_554 S
C587 H559 0.929 . S
C587 C584 1.391 . S
C587 C586 1.383 1_556 S
N588 Co532 2.257 . S
N588 C585 1.391 . S
N588 C589 1.388 . S
C589 H560 0.930 . S
C589 C584 1.391 1_554 S
C589 N588 1.388 . S
Co590 O592 2.143 . S
Co590 O598 2.074 . S
Co590 O601 2.093 . S
Co590 O614 2.097 . S
Co590 N631 2.151 . S
Co590 N639 2.214 . S
Co591 O592 2.160 . S
Co591 O597 2.058 . S
Co591 O607 2.057 . S
Co591 O622 2.037 . S
Co591 N626 2.145 1_565 S
Co591 N647 2.257 . S
O592 Co590 2.143 . S
O592 Co591 2.160 . S
C593 O594 1.278 . S
C593 O601 1.224 . S
O594 C593 1.278 . S
C595 O596 1.245 . S
C595 O607 1.232 . S
O596 C595 1.245 . S
O597 Co591 2.058 . S
O597 C623 1.269 . S
O598 Co590 2.074 . S
O598 C623 1.257 . S
H599 C624 0.930 . S
H600 C630 0.930 . S
O601 Co590 2.093 . S
O601 C593 1.224 . S
H602 C634 0.929 . S
H603 C636 0.930 . S
H604 C637 0.930 . S
H605 C635 0.929 . S
H606 C638 0.928 . S
O607 Co591 2.057 . S
O607 C595 1.232 . S
H608 C627 0.929 . S
H609 C628 0.929 . S
H610 C640 0.931 . S
H611 C632 0.929 . S
H612 C641 0.930 . S
H613 C633 0.931 . S
O614 Co590 2.097 . S
O614 C642 1.214 . S
H615 C643 0.929 . S
H616 C644 0.929 . S
H617 C645 0.930 . S
H618 C646 0.929 . S
H619 C648 0.930 . S
H620 C625 0.930 . S
H621 C629 0.930 . S
O622 Co591 2.037 . S
O622 C642 1.234 . S
C623 O597 1.269 . S
C623 O598 1.257 . S
C624 H599 0.930 . S
C624 C627 1.388 . S
C624 C629 1.418 . S
C625 H620 0.930 . S
C625 C628 1.404 . S
C625 C629 1.353 . S
N626 Co591 2.145 1_545 S
N626 C627 1.397 . S
N626 C628 1.334 . S
C627 H608 0.929 . S
C627 C624 1.388 . S
C627 N626 1.397 . S
C628 H609 0.929 . S
C628 C625 1.404 . S
C628 N626 1.334 . S
C629 H621 0.930 . S
C629 C624 1.418 . S
C629 C625 1.353 . S
C630 H600 0.930 . S
C630 N631 1.330 . S
C630 C632 1.446 . S
N631 Co590 2.151 . S
N631 C630 1.330 . S
N631 C635 1.418 . S
C632 H611 0.929 . S
C632 C630 1.446 . S
C632 C633 1.332 . S
C633 H613 0.931 . S
C633 C632 1.332 . S
C633 C634 1.267 . S
C634 H602 0.929 . S
C634 C633 1.267 . S
C634 C635 1.251 . S
C635 H605 0.929 . S
C635 N631 1.418 . S
C635 C634 1.251 . S
C636 H603 0.930 . S
C636 C638 1.406 1_455 S
C636 C641 1.261 . S
C637 H604 0.930 . S
C637 N639 1.325 . S
C637 C640 1.357 1_655 S
C638 H606 0.928 . S
C638 C636 1.406 1_655 S
C638 N639 1.261 . S
N639 Co590 2.214 . S
N639 C637 1.325 . S
N639 C638 1.261 . S
C640 H610 0.931 . S
C640 C637 1.357 1_455 S
C640 C641 1.312 . S
C641 H612 0.930 . S
C641 C636 1.261 . S
C641 C640 1.312 . S
C642 O614 1.214 . S
C642 O622 1.234 . S
C643 H615 0.929 . S
C643 C646 1.391 . S
C643 C648 1.391 1_545 S
C644 H616 0.929 . S
C644 C645 1.390 . S
C644 N647 1.391 1_545 S
C645 H617 0.930 . S
C645 C644 1.390 . S
C645 C646 1.392 . S
C646 H618 0.929 . S
C646 C643 1.391 . S
C646 C645 1.392 . S
N647 Co591 2.257 . S
N647 C644 1.391 1_565 S
N647 C648 1.388 . S
C648 H619 0.930 . S
C648 C643 1.391 1_565 S
C648 N647 1.388 . S
Co649 O651 2.143 . S
Co649 O657 2.074 . S
Co649 O660 2.093 . S
Co649 O673 2.097 . S
Co649 N690 2.151 . S
Co649 N698 2.214 . S
Co650 O651 2.160 . S
Co650 O656 2.058 . S
Co650 O666 2.057 . S
Co650 O681 2.037 . S
Co650 N685 2.145 1_455 S
Co650 N706 2.257 . S
O651 Co649 2.143 . S
O651 Co650 2.160 . S
C652 O653 1.278 . S
C652 O660 1.224 . S
O653 C652 1.278 . S
C654 O655 1.245 . S
C654 O666 1.232 . S
O655 C654 1.245 . S
O656 Co650 2.058 . S
O656 C682 1.269 . S
O657 Co649 2.074 . S
O657 C682 1.257 . S
H658 C683 0.930 . S
H659 C689 0.930 . S
O660 Co649 2.093 . S
O660 C652 1.224 . S
H661 C693 0.929 . S
H662 C695 0.930 . S
H663 C696 0.930 . S
H664 C694 0.929 . S
H665 C697 0.928 . S
O666 Co650 2.057 . S
O666 C654 1.232 . S
H667 C686 0.929 . S
H668 C687 0.929 . S
H669 C699 0.931 . S
H670 C691 0.929 . S
H671 C700 0.930 . S
H672 C692 0.931 . S
O673 Co649 2.097 . S
O673 C701 1.214 . S
H674 C702 0.929 . S
H675 C703 0.929 . S
H676 C704 0.930 . S
H677 C705 0.929 . S
H678 C707 0.930 . S
H679 C684 0.930 . S
H680 C688 0.930 . S
O681 Co650 2.037 . S
O681 C701 1.234 . S
C682 O656 1.269 . S
C682 O657 1.257 . S
C683 H658 0.930 . S
C683 C686 1.388 . S
C683 C688 1.418 . S
C684 H679 0.930 . S
C684 C687 1.404 . S
C684 C688 1.353 . S
N685 Co650 2.145 1_655 S
N685 C686 1.397 . S
N685 C687 1.334 . S
C686 H667 0.929 . S
C686 C683 1.388 . S
C686 N685 1.397 . S
C687 H668 0.929 . S
C687 C684 1.404 . S
C687 N685 1.334 . S
C688 H680 0.930 . S
C688 C683 1.418 . S
C688 C684 1.353 . S
C689 H659 0.930 . S
C689 N690 1.330 . S
C689 C691 1.446 . S
N690 Co649 2.151 . S
N690 C689 1.330 . S
N690 C694 1.418 . S
C691 H670 0.929 . S
C691 C689 1.446 . S
C691 C692 1.332 . S
C692 H672 0.931 . S
C692 C691 1.332 . S
C692 C693 1.267 . S
C693 H661 0.929 . S
C693 C692 1.267 . S
C693 C694 1.251 . S
C694 H664 0.929 . S
C694 N690 1.418 . S
C694 C693 1.251 . S
C695 H662 0.930 . S
C695 C697 1.406 . S
C695 C700 1.261 . S
C696 H663 0.930 . S
C696 N698 1.325 . S
C696 C699 1.357 . S
C697 H665 0.928 . S
C697 C695 1.406 . S
C697 N698 1.261 . S
N698 Co649 2.214 . S
N698 C696 1.325 . S
N698 C697 1.261 . S
C699 H669 0.931 . S
C699 C696 1.357 . S
C699 C700 1.312 . S
C700 H671 0.930 . S
C700 C695 1.261 . S
C700 C699 1.312 . S
C701 O673 1.214 . S
C701 O681 1.234 . S
C702 H674 0.929 . S
C702 C705 1.391 . S
C702 C707 1.391 1_655 S
C703 H675 0.929 . S
C703 C704 1.390 . S
C703 N706 1.391 1_655 S
C704 H676 0.930 . S
C704 C703 1.390 . S
C704 C705 1.392 . S
C705 H677 0.929 . S
C705 C702 1.391 . S
C705 C704 1.392 . S
N706 Co650 2.257 . S
N706 C703 1.391 1_455 S
N706 C707 1.388 . S
C707 H678 0.930 . S
C707 C702 1.391 1_455 S
C707 N706 1.388 . S
Co708 O710 2.143 . S
Co708 O716 2.074 . S
Co708 O719 2.093 . S
Co708 O732 2.097 . S
Co708 N749 2.151 . S
Co708 N757 2.214 . S
Co709 O710 2.160 . S
Co709 O715 2.058 . S
Co709 O725 2.057 . S
Co709 O740 2.037 . S
Co709 N744 2.145 1_565 S
Co709 N765 2.257 . S
O710 Co708 2.143 . S
O710 Co709 2.160 . S
C711 O712 1.278 . S
C711 O719 1.224 . S
O712 C711 1.278 . S
C713 O714 1.245 . S
C713 O725 1.232 . S
O714 C713 1.245 . S
O715 Co709 2.058 . S
O715 C741 1.269 . S
O716 Co708 2.074 . S
O716 C741 1.257 . S
H717 C742 0.930 . S
H718 C748 0.930 . S
O719 Co708 2.093 . S
O719 C711 1.224 . S
H720 C752 0.929 . S
H721 C754 0.930 . S
H722 C755 0.930 . S
H723 C753 0.929 . S
H724 C756 0.928 . S
O725 Co709 2.057 . S
O725 C713 1.232 . S
H726 C745 0.929 . S
H727 C746 0.929 . S
H728 C758 0.931 . S
H729 C750 0.929 . S
H730 C759 0.930 . S
H731 C751 0.931 . S
O732 Co708 2.097 . S
O732 C760 1.214 . S
H733 C761 0.929 . S
H734 C762 0.929 . S
H735 C763 0.930 . S
H736 C764 0.929 . S
H737 C766 0.930 . S
H738 C743 0.930 . S
H739 C747 0.930 . S
O740 Co709 2.037 . S
O740 C760 1.234 . S
C741 O715 1.269 . S
C741 O716 1.257 . S
C742 H717 0.930 . S
C742 C745 1.388 . S
C742 C747 1.418 . S
C743 H738 0.930 . S
C743 C746 1.404 . S
C743 C747 1.353 . S
N744 Co709 2.145 1_545 S
N744 C745 1.397 . S
N744 C746 1.334 . S
C745 H726 0.929 . S
C745 C742 1.388 . S
C745 N744 1.397 . S
C746 H727 0.929 . S
C746 C743 1.404 . S
C746 N744 1.334 . S
C747 H739 0.930 . S
C747 C742 1.418 . S
C747 C743 1.353 . S
C748 H718 0.930 . S
C748 N749 1.330 . S
C748 C750 1.446 . S
N749 Co708 2.151 . S
N749 C748 1.330 . S
N749 C753 1.418 . S
C750 H729 0.929 . S
C750 C748 1.446 . S
C750 C751 1.332 . S
C751 H731 0.931 . S
C751 C750 1.332 . S
C751 C752 1.267 . S
C752 H720 0.929 . S
C752 C751 1.267 . S
C752 C753 1.251 . S
C753 H723 0.929 . S
C753 N749 1.418 . S
C753 C752 1.251 . S
C754 H721 0.930 . S
C754 C756 1.406 . S
C754 C759 1.261 . S
C755 H722 0.930 . S
C755 N757 1.325 . S
C755 C758 1.357 . S
C756 H724 0.928 . S
C756 C754 1.406 . S
C756 N757 1.261 . S
N757 Co708 2.214 . S
N757 C755 1.325 . S
N757 C756 1.261 . S
C758 H728 0.931 . S
C758 C755 1.357 . S
C758 C759 1.312 . S
C759 H730 0.930 . S
C759 C754 1.261 . S
C759 C758 1.312 . S
C760 O732 1.214 . S
C760 O740 1.234 . S
C761 H733 0.929 . S
C761 C764 1.391 . S
C761 C766 1.391 1_545 S
C762 H734 0.929 . S
C762 C763 1.390 . S
C762 N765 1.391 1_545 S
C763 H735 0.930 . S
C763 C762 1.390 . S
C763 C764 1.392 . S
C764 H736 0.929 . S
C764 C761 1.391 . S
C764 C763 1.392 . S
N765 Co709 2.257 . S
N765 C762 1.391 1_565 S
N765 C766 1.388 . S
C766 H737 0.930 . S
C766 C761 1.391 1_565 S
C766 N765 1.388 . S
Co767 O769 2.143 . S
Co767 O775 2.074 . S
Co767 O778 2.093 . S
Co767 O791 2.097 . S
Co767 N808 2.151 . S
Co767 N816 2.214 . S
Co768 O769 2.160 . S
Co768 O774 2.058 . S
Co768 O784 2.057 . S
Co768 O799 2.037 . S
Co768 N803 2.145 1_455 S
Co768 N824 2.257 . S
O769 Co767 2.143 . S
O769 Co768 2.160 . S
C770 O771 1.278 . S
C770 O778 1.224 . S
O771 C770 1.278 . S
C772 O773 1.245 . S
C772 O784 1.232 . S
O773 C772 1.245 . S
O774 Co768 2.058 . S
O774 C800 1.269 . S
O775 Co767 2.074 . S
O775 C800 1.257 . S
H776 C801 0.930 . S
H777 C807 0.930 . S
O778 Co767 2.093 . S
O778 C770 1.224 . S
H779 C811 0.929 . S
H780 C813 0.930 . S
H781 C814 0.930 . S
H782 C812 0.929 . S
H783 C815 0.928 . S
O784 Co768 2.057 . S
O784 C772 1.232 . S
H785 C804 0.929 . S
H786 C805 0.929 . S
H787 C817 0.931 . S
H788 C809 0.929 . S
H789 C818 0.930 . S
H790 C810 0.931 . S
O791 Co767 2.097 . S
O791 C819 1.214 . S
H792 C820 0.929 . S
H793 C821 0.929 . S
H794 C822 0.930 . S
H795 C823 0.929 . S
H796 C825 0.930 . S
H797 C802 0.930 . S
H798 C806 0.930 . S
O799 Co768 2.037 . S
O799 C819 1.234 . S
C800 O774 1.269 . S
C800 O775 1.257 . S
C801 H776 0.930 . S
C801 C804 1.388 . S
C801 C806 1.418 . S
C802 H797 0.930 . S
C802 C805 1.404 . S
C802 C806 1.353 . S
N803 Co768 2.145 1_655 S
N803 C804 1.397 . S
N803 C805 1.334 . S
C804 H785 0.929 . S
C804 C801 1.388 . S
C804 N803 1.397 . S
C805 H786 0.929 . S
C805 C802 1.404 . S
C805 N803 1.334 . S
C806 H798 0.930 . S
C806 C801 1.418 . S
C806 C802 1.353 . S
C807 H777 0.930 . S
C807 N808 1.330 . S
C807 C809 1.446 . S
N808 Co767 2.151 . S
N808 C807 1.330 . S
N808 C812 1.418 . S
C809 H788 0.929 . S
C809 C807 1.446 . S
C809 C810 1.332 . S
C810 H790 0.931 . S
C810 C809 1.332 . S
C810 C811 1.267 . S
C811 H779 0.929 . S
C811 C810 1.267 . S
C811 C812 1.251 . S
C812 H782 0.929 . S
C812 N808 1.418 . S
C812 C811 1.251 . S
C813 H780 0.930 . S
C813 C815 1.406 1_565 S
C813 C818 1.261 . S
C814 H781 0.930 . S
C814 N816 1.325 . S
C814 C817 1.357 1_545 S
C815 H783 0.928 . S
C815 C813 1.406 1_545 S
C815 N816 1.261 . S
N816 Co767 2.214 . S
N816 C814 1.325 . S
N816 C815 1.261 . S
C817 H787 0.931 . S
C817 C814 1.357 1_565 S
C817 C818 1.312 . S
C818 H789 0.930 . S
C818 C813 1.261 . S
C818 C817 1.312 . S
C819 O791 1.214 . S
C819 O799 1.234 . S
C820 H792 0.929 . S
C820 C823 1.391 . S
C820 C825 1.391 1_655 S
C821 H793 0.929 . S
C821 C822 1.390 . S
C821 N824 1.391 1_655 S
C822 H794 0.930 . S
C822 C821 1.390 . S
C822 C823 1.392 . S
C823 H795 0.929 . S
C823 C820 1.391 . S
C823 C822 1.392 . S
N824 Co768 2.257 . S
N824 C821 1.391 1_455 S
N824 C825 1.388 . S
C825 H796 0.930 . S
C825 C820 1.391 1_455 S
C825 N824 1.388 . S
Co826 O828 2.143 . S
Co826 O834 2.074 1_554 S
Co826 O837 2.093 . S
Co826 O850 2.097 . S
Co826 N867 2.151 . S
Co826 N875 2.214 . S
Co827 O828 2.160 1_556 S
Co827 O833 2.058 . S
Co827 O843 2.057 . S
Co827 O858 2.037 . S
Co827 N862 2.145 . S
Co827 N883 2.257 1_556 S
O828 Co826 2.143 . S
O828 Co827 2.160 1_554 S
C829 O830 1.278 . S
C829 O837 1.224 . S
O830 C829 1.278 . S
C831 O832 1.245 1_556 S
C831 O843 1.232 . S
O832 C831 1.245 1_554 S
O833 Co827 2.058 . S
O833 C859 1.269 . S
O834 Co826 2.074 1_556 S
O834 C859 1.257 . S
H835 C860 0.930 . S
H836 C866 0.930 . S
O837 Co826 2.093 . S
O837 C829 1.224 . S
H838 C870 0.929 . S
H839 C872 0.930 . S
H840 C873 0.930 . S
H841 C871 0.929 . S
H842 C874 0.928 . S
O843 Co827 2.057 . S
O843 C831 1.232 . S
H844 C863 0.929 . S
H845 C864 0.929 . S
H846 C876 0.931 . S
H847 C868 0.929 . S
H848 C877 0.930 . S
H849 C869 0.931 . S
O850 Co826 2.097 . S
O850 C878 1.214 . S
H851 C879 0.929 . S
H852 C880 0.929 . S
H853 C881 0.930 . S
H854 C882 0.929 . S
H855 C884 0.930 . S
H856 C861 0.930 . S
H857 C865 0.930 . S
O858 Co827 2.037 . S
O858 C878 1.234 1_556 S
C859 O833 1.269 . S
C859 O834 1.257 . S
C860 H835 0.930 . S
C860 C863 1.388 . S
C860 C865 1.418 . S
C861 H856 0.930 . S
C861 C864 1.404 . S
C861 C865 1.353 . S
N862 Co827 2.145 . S
N862 C863 1.397 . S
N862 C864 1.334 . S
C863 H844 0.929 . S
C863 C860 1.388 . S
C863 N862 1.397 . S
C864 H845 0.929 . S
C864 C861 1.404 . S
C864 N862 1.334 . S
C865 H857 0.930 . S
C865 C860 1.418 . S
C865 C861 1.353 . S
C866 H836 0.930 . S
C866 N867 1.330 . S
C866 C868 1.446 . S
N867 Co826 2.151 . S
N867 C866 1.330 . S
N867 C871 1.418 1_554 S
C868 H847 0.929 . S
C868 C866 1.446 . S
C868 C869 1.332 . S
C869 H849 0.931 . S
C869 C868 1.332 . S
C869 C870 1.267 1_554 S
C870 H838 0.929 . S
C870 C869 1.267 1_556 S
C870 C871 1.251 . S
C871 H841 0.929 . S
C871 N867 1.418 1_556 S
C871 C870 1.251 . S
C872 H839 0.930 . S
C872 C874 1.406 1_455 S
C872 C877 1.261 . S
C873 H840 0.930 . S
C873 N875 1.325 1_556 S
C873 C876 1.357 1_655 S
C874 H842 0.928 . S
C874 C872 1.406 1_655 S
C874 N875 1.261 . S
N875 Co826 2.214 . S
N875 C873 1.325 1_554 S
N875 C874 1.261 . S
C876 H846 0.931 . S
C876 C873 1.357 1_455 S
C876 C877 1.312 1_556 S
C877 H848 0.930 . S
C877 C872 1.261 . S
C877 C876 1.312 1_554 S
C878 O850 1.214 . S
C878 O858 1.234 1_554 S
C879 H851 0.929 . S
C879 C882 1.391 . S
C879 C884 1.391 . S
C880 H852 0.929 . S
C880 C881 1.390 . S
C880 N883 1.391 . S
C881 H853 0.930 . S
C881 C880 1.390 . S
C881 C882 1.392 . S
C882 H854 0.929 . S
C882 C879 1.391 . S
C882 C881 1.392 . S
N883 Co827 2.257 1_554 S
N883 C880 1.391 . S
N883 C884 1.388 . S
C884 H855 0.930 . S
C884 C879 1.391 . S
C884 N883 1.388 . S
Co885 O887 2.143 . S
Co885 O893 2.074 . S
Co885 O896 2.093 . S
Co885 O909 2.097 . S
Co885 N926 2.151 . S
Co885 N934 2.214 . S
Co886 O887 2.160 . S
Co886 O892 2.058 . S
Co886 O902 2.057 . S
Co886 O917 2.037 . S
Co886 N921 2.145 . S
Co886 N942 2.257 . S
O887 Co885 2.143 . S
O887 Co886 2.160 . S
C888 O889 1.278 . S
C888 O896 1.224 . S
O889 C888 1.278 . S
C890 O891 1.245 . S
C890 O902 1.232 . S
O891 C890 1.245 . S
O892 Co886 2.058 . S
O892 C918 1.269 . S
O893 Co885 2.074 . S
O893 C918 1.257 . S
H894 C919 0.930 . S
H895 C925 0.930 . S
O896 Co885 2.093 . S
O896 C888 1.224 . S
H897 C929 0.929 . S
H898 C931 0.930 . S
H899 C932 0.930 . S
H900 C930 0.929 . S
H901 C933 0.928 . S
O902 Co886 2.057 . S
O902 C890 1.232 . S
H903 C922 0.929 . S
H904 C923 0.929 . S
H905 C935 0.931 . S
H906 C927 0.929 . S
H907 C936 0.930 . S
H908 C928 0.931 . S
O909 Co885 2.097 . S
O909 C937 1.214 . S
H910 C938 0.929 . S
H911 C939 0.929 . S
H912 C940 0.930 . S
H913 C941 0.929 . S
H914 C943 0.930 . S
H915 C920 0.930 . S
H916 C924 0.930 . S
O917 Co886 2.037 . S
O917 C937 1.234 . S
C918 O892 1.269 . S
C918 O893 1.257 . S
C919 H894 0.930 . S
C919 C922 1.388 . S
C919 C924 1.418 . S
C920 H915 0.930 . S
C920 C923 1.404 . S
C920 C924 1.353 . S
N921 Co886 2.145 . S
N921 C922 1.397 . S
N921 C923 1.334 . S
C922 H903 0.929 . S
C922 C919 1.388 . S
C922 N921 1.397 . S
C923 H904 0.929 . S
C923 C920 1.404 . S
C923 N921 1.334 . S
C924 H916 0.930 . S
C924 C919 1.418 . S
C924 C920 1.353 . S
C925 H895 0.930 . S
C925 N926 1.330 . S
C925 C927 1.446 . S
N926 Co885 2.151 . S
N926 C925 1.330 . S
N926 C930 1.418 . S
C927 H906 0.929 . S
C927 C925 1.446 . S
C927 C928 1.332 . S
C928 H908 0.931 . S
C928 C927 1.332 . S
C928 C929 1.267 . S
C929 H897 0.929 . S
C929 C928 1.267 . S
C929 C930 1.251 . S
C930 H900 0.929 . S
C930 N926 1.418 . S
C930 C929 1.251 . S
C931 H898 0.930 . S
C931 C933 1.406 . S
C931 C936 1.261 . S
C932 H899 0.930 . S
C932 N934 1.325 . S
C932 C935 1.357 . S
C933 H901 0.928 . S
C933 C931 1.406 . S
C933 N934 1.261 . S
N934 Co885 2.214 . S
N934 C932 1.325 . S
N934 C933 1.261 . S
C935 H905 0.931 . S
C935 C932 1.357 . S
C935 C936 1.312 . S
C936 H907 0.930 . S
C936 C931 1.261 . S
C936 C935 1.312 . S
C937 O909 1.214 . S
C937 O917 1.234 . S
C938 H910 0.929 . S
C938 C941 1.391 . S
C938 C943 1.391 . S
C939 H911 0.929 . S
C939 C940 1.390 . S
C939 N942 1.391 . S
C940 H912 0.930 . S
C940 C939 1.390 . S
C940 C941 1.392 . S
C941 H913 0.929 . S
C941 C938 1.391 . S
C941 C940 1.392 . S
N942 Co886 2.257 . S
N942 C939 1.391 . S
N942 C943 1.388 . S
C943 H914 0.930 . S
C943 C938 1.391 . S
C943 N942 1.388 . S
C944 C945 1.369 . S
C944 C946 1.419 . S
C944 H948 0.930 . S
C945 C944 1.369 . S
C945 C954 1.429 . S
C946 C944 1.419 . S
C946 C947 1.363 . S
C946 H949 0.929 . S
C947 C946 1.363 . S
C947 C953 1.428 . S
H948 C944 0.930 . S
H949 C946 0.929 . S
S950 N951 1.613 . S
S950 N952 1.610 . S
N951 S950 1.613 . S
N951 C954 1.350 . S
N952 S950 1.610 . S
N952 C953 1.351 . S
C953 C947 1.428 . S
C953 N952 1.351 . S
C953 C954 1.434 . S
C954 C945 1.429 . S
C954 N951 1.350 . S
C954 C953 1.434 . S
C955 C956 1.369 . S
C955 C957 1.419 . S
C955 H959 0.930 . S
C956 C955 1.369 . S
C956 C965 1.429 . S
C957 C955 1.419 . S
C957 C958 1.363 . S
C957 H960 0.929 . S
C958 C957 1.363 . S
C958 C964 1.428 . S
H959 C955 0.930 . S
H960 C957 0.929 . S
S961 N962 1.613 . S
S961 N963 1.610 . S
N962 S961 1.613 . S
N962 C965 1.350 . S
N963 S961 1.610 . S
N963 C964 1.351 . S
C964 C958 1.428 . S
C964 N963 1.351 . S
C964 C965 1.434 . S
C965 C956 1.429 . S
C965 N962 1.350 . S
C965 C964 1.434 . S
C966 C967 1.369 . S
C966 C968 1.419 . S
C966 H970 0.930 . S
C967 C966 1.369 . S
C967 C976 1.429 . S
C968 C966 1.419 . S
C968 C969 1.363 . S
C968 H971 0.929 . S
C969 C968 1.363 . S
C969 C975 1.428 . S
H970 C966 0.930 . S
H971 C968 0.929 . S
S972 N973 1.613 . S
S972 N974 1.610 . S
N973 S972 1.613 . S
N973 C976 1.350 . S
N974 S972 1.610 . S
N974 C975 1.351 . S
C975 C969 1.428 . S
C975 N974 1.351 . S
C975 C976 1.434 . S
C976 C967 1.429 . S
C976 N973 1.350 . S
C976 C975 1.434 . S
C977 C978 1.369 . S
C977 C979 1.419 . S
C977 H981 0.930 . S
C978 C977 1.369 . S
C978 C987 1.429 . S
C979 C977 1.419 . S
C979 C980 1.363 . S
C979 H982 0.929 . S
C980 C979 1.363 . S
C980 C986 1.428 . S
H981 C977 0.930 . S
H982 C979 0.929 . S
S983 N984 1.613 . S
S983 N985 1.610 . S
N984 S983 1.613 . S
N984 C987 1.350 . S
N985 S983 1.610 . S
N985 C986 1.351 . S
C986 C980 1.428 . S
C986 N985 1.351 . S
C986 C987 1.434 . S
C987 C978 1.429 . S
C987 N984 1.350 . S
C987 C986 1.434 . S
C988 C989 1.369 . S
C988 C990 1.419 . S
C988 H992 0.930 . S
C989 C988 1.369 . S
C989 C998 1.429 . S
C990 C988 1.419 . S
C990 C991 1.363 . S
C990 H993 0.929 1_556 S
C991 C990 1.363 . S
C991 C997 1.428 . S
H992 C988 0.930 . S
H993 C990 0.929 1_554 S
S994 N995 1.613 . S
S994 N996 1.610 . S
N995 S994 1.613 . S
N995 C998 1.350 . S
N996 S994 1.610 . S
N996 C997 1.351 . S
C997 C991 1.428 . S
C997 N996 1.351 . S
C997 C998 1.434 . S
C998 C989 1.429 . S
C998 N995 1.350 . S
C998 C997 1.434 . S
C999 C1000 1.369 . S
C999 C1001 1.419 . S
C999 H1003 0.930 . S
C1000 C999 1.369 . S
C1000 C1009 1.429 . S
C1001 C999 1.419 . S
C1001 C1002 1.363 . S
C1001 H1004 0.929 . S
C1002 C1001 1.363 . S
C1002 C1008 1.428 . S
H1003 C999 0.930 . S
H1004 C1001 0.929 . S
S1005 N1006 1.613 . S
S1005 N1007 1.610 . S
N1006 S1005 1.613 . S
N1006 C1009 1.350 . S
N1007 S1005 1.610 . S
N1007 C1008 1.351 . S
C1008 C1002 1.428 . S
C1008 N1007 1.351 . S
C1008 C1009 1.434 . S
C1009 C1000 1.429 . S
C1009 N1006 1.350 . S
C1009 C1008 1.434 . S
C1010 C1011 1.369 . S
C1010 C1012 1.419 . S
C1010 H1014 0.930 . S
C1011 C1010 1.369 . S
C1011 C1020 1.429 . S
C1012 C1010 1.419 . S
C1012 C1013 1.363 . S
C1012 H1015 0.929 . S
C1013 C1012 1.363 . S
C1013 C1019 1.428 . S
H1014 C1010 0.930 . S
H1015 C1012 0.929 . S
S1016 N1017 1.613 . S
S1016 N1018 1.610 . S
N1017 S1016 1.613 . S
N1017 C1020 1.350 . S
N1018 S1016 1.610 . S
N1018 C1019 1.351 . S
C1019 C1013 1.428 . S
C1019 N1018 1.351 . S
C1019 C1020 1.434 . S
C1020 C1011 1.429 . S
C1020 N1017 1.350 . S
C1020 C1019 1.434 . S
C1021 C1022 1.369 . S
C1021 C1023 1.419 . S
C1021 H1025 0.930 . S
C1022 C1021 1.369 . S
C1022 C1031 1.429 . S
C1023 C1021 1.419 . S
C1023 C1024 1.363 . S
C1023 H1026 0.929 . S
C1024 C1023 1.363 . S
C1024 C1030 1.428 . S
H1025 C1021 0.930 . S
H1026 C1023 0.929 . S
S1027 N1028 1.613 . S
S1027 N1029 1.610 . S
N1028 S1027 1.613 . S
N1028 C1031 1.350 . S
N1029 S1027 1.610 . S
N1029 C1030 1.351 . S
C1030 C1024 1.428 . S
C1030 N1029 1.351 . S
C1030 C1031 1.434 . S
C1031 C1022 1.429 . S
C1031 N1028 1.350 . S
C1031 C1030 1.434 . S
C1032 C1033 1.369 . S
C1032 C1034 1.419 1_455 S
C1032 H1036 0.930 . S
C1033 C1032 1.369 . S
C1033 C1042 1.429 1_545 S
C1034 C1032 1.419 1_655 S
C1034 C1035 1.363 1_545 S
C1034 H1037 0.929 . S
C1035 C1034 1.363 1_565 S
C1035 C1041 1.428 . S
H1036 C1032 0.930 . S
H1037 C1034 0.929 . S
S1038 N1039 1.613 . S
S1038 N1040 1.610 1_455 S
N1039 S1038 1.613 . S
N1039 C1042 1.350 . S
N1040 S1038 1.610 1_655 S
N1040 C1041 1.351 . S
C1041 C1035 1.428 . S
C1041 N1040 1.351 . S
C1041 C1042 1.434 1_655 S
C1042 C1033 1.429 1_565 S
C1042 N1039 1.350 . S
C1042 C1041 1.434 1_455 S
C1043 C1044 1.369 . S
C1043 C1045 1.419 . S
C1043 H1047 0.930 . S
C1044 C1043 1.369 . S
C1044 C1053 1.429 1_655 S
C1045 C1043 1.419 . S
C1045 C1046 1.363 1_655 S
C1045 H1048 0.929 . S
C1046 C1045 1.363 1_455 S
C1046 C1052 1.428 . S
H1047 C1043 0.930 . S
H1048 C1045 0.929 . S
S1049 N1050 1.613 . S
S1049 N1051 1.610 . S
N1050 S1049 1.613 . S
N1050 C1053 1.350 . S
N1051 S1049 1.610 . S
N1051 C1052 1.351 . S
C1052 C1046 1.428 . S
C1052 N1051 1.351 . S
C1052 C1053 1.434 . S
C1053 C1044 1.429 1_455 S
C1053 N1050 1.350 . S
C1053 C1052 1.434 . S
C1054 C1055 1.369 . S
C1054 C1056 1.419 . S
C1054 H1058 0.930 . S
C1055 C1054 1.369 . S
C1055 C1064 1.429 . S
C1056 C1054 1.419 . S
C1056 C1057 1.363 . S
C1056 H1059 0.929 . S
C1057 C1056 1.363 . S
C1057 C1063 1.428 . S
H1058 C1054 0.930 . S
H1059 C1056 0.929 . S
S1060 N1061 1.613 . S
S1060 N1062 1.610 . S
N1061 S1060 1.613 . S
N1061 C1064 1.350 . S
N1062 S1060 1.610 . S
N1062 C1063 1.351 . S
C1063 C1057 1.428 . S
C1063 N1062 1.351 . S
C1063 C1064 1.434 . S
C1064 C1055 1.429 . S
C1064 N1061 1.350 . S
C1064 C1063 1.434 . S
C1065 C1066 1.369 . S
C1065 C1067 1.419 1_565 S
C1065 H1069 0.930 . S
C1066 C1065 1.369 . S
C1066 C1075 1.429 . S
C1067 C1065 1.419 1_545 S
C1067 C1068 1.363 . S
C1067 H1070 0.929 . S
C1068 C1067 1.363 . S
C1068 C1074 1.428 . S
H1069 C1065 0.930 . S
H1070 C1067 0.929 . S
S1071 N1072 1.613 . S
S1071 N1073 1.610 1_565 S
N1072 S1071 1.613 . S
N1072 C1075 1.350 . S
N1073 S1071 1.610 1_545 S
N1073 C1074 1.351 . S
C1074 C1068 1.428 . S
C1074 N1073 1.351 . S
C1074 C1075 1.434 1_545 S
C1075 C1066 1.429 . S
C1075 N1072 1.350 . S
C1075 C1074 1.434 1_565 S
C1076 C1077 1.369 1_556 S
C1076 C1078 1.419 1_455 S
C1076 H1080 0.930 . S
C1077 C1076 1.369 1_554 S
C1077 C1086 1.429 . S
C1078 C1076 1.419 1_655 S
C1078 C1079 1.363 1_556 S
C1078 H1081 0.929 . S
C1079 C1078 1.363 1_554 S
C1079 C1085 1.428 . S
H1080 C1076 0.930 . S
H1081 C1078 0.929 . S
S1082 N1083 1.613 . S
S1082 N1084 1.610 1_455 S
N1083 S1082 1.613 . S
N1083 C1086 1.350 . S
N1084 S1082 1.610 1_655 S
N1084 C1085 1.351 . S
C1085 C1079 1.428 . S
C1085 N1084 1.351 . S
C1085 C1086 1.434 1_655 S
C1086 C1077 1.429 . S
C1086 N1083 1.350 . S
C1086 C1085 1.434 1_455 S
C1087 C1088 1.369 . S
C1087 C1089 1.419 . S
C1087 H1091 0.930 . S
C1088 C1087 1.369 . S
C1088 C1097 1.429 . S
C1089 C1087 1.419 . S
C1089 C1090 1.363 . S
C1089 H1092 0.929 . S
C1090 C1089 1.363 . S
C1090 C1096 1.428 . S
H1091 C1087 0.930 . S
H1092 C1089 0.929 . S
S1093 N1094 1.613 . S
S1093 N1095 1.610 . S
N1094 S1093 1.613 . S
N1094 C1097 1.350 . S
N1095 S1093 1.610 . S
N1095 C1096 1.351 . S
C1096 C1090 1.428 . S
C1096 N1095 1.351 . S
C1096 C1097 1.434 . S
C1097 C1088 1.429 . S
C1097 N1094 1.350 . S
C1097 C1096 1.434 . S
C1098 C1099 1.369 . S
C1098 C1100 1.419 . S
C1098 H1102 0.930 . S
C1099 C1098 1.369 . S
C1099 C1108 1.429 1_545 S
C1100 C1098 1.419 . S
C1100 C1101 1.363 1_545 S
C1100 H1103 0.929 . S
C1101 C1100 1.363 1_565 S
C1101 C1107 1.428 . S
H1102 C1098 0.930 . S
H1103 C1100 0.929 . S
S1104 N1105 1.613 . S
S1104 N1106 1.610 . S
N1105 S1104 1.613 . S
N1105 C1108 1.350 . S
N1106 S1104 1.610 . S
N1106 C1107 1.351 . S
C1107 C1101 1.428 . S
C1107 N1106 1.351 . S
C1107 C1108 1.434 . S
C1108 C1099 1.429 1_565 S
C1108 N1105 1.350 . S
C1108 C1107 1.434 . S
C1109 C1110 1.369 1_655 S
C1109 C1111 1.419 1_545 S
C1109 H1113 0.930 . S
C1110 C1109 1.369 1_455 S
C1110 C1119 1.429 . S
C1111 C1109 1.419 1_565 S
C1111 C1112 1.363 . S
C1111 H1114 0.929 . S
C1112 C1111 1.363 . S
C1112 C1118 1.428 1_655 S
H1113 C1109 0.930 . S
H1114 C1111 0.929 . S
S1115 N1116 1.613 1_565 S
S1115 N1117 1.610 . S
N1116 S1115 1.613 1_545 S
N1116 C1119 1.350 . S
N1117 S1115 1.610 . S
N1117 C1118 1.351 . S
C1118 C1112 1.428 1_455 S
C1118 N1117 1.351 . S
C1118 C1119 1.434 1_565 S
C1119 C1110 1.429 . S
C1119 N1116 1.350 . S
C1119 C1118 1.434 1_545 S
C1120 C1121 1.369 . S
C1120 C1122 1.419 . S
C1120 H1124 0.930 . S
C1121 C1120 1.369 . S
C1121 C1130 1.429 . S
C1122 C1120 1.419 . S
C1122 C1123 1.363 . S
C1122 H1125 0.929 . S
C1123 C1122 1.363 . S
C1123 C1129 1.428 . S
H1124 C1120 0.930 . S
H1125 C1122 0.929 . S
S1126 N1127 1.613 . S
S1126 N1128 1.610 . S
N1127 S1126 1.613 . S
N1127 C1130 1.350 . S
N1128 S1126 1.610 . S
N1128 C1129 1.351 . S
C1129 C1123 1.428 . S
C1129 N1128 1.351 . S
C1129 C1130 1.434 . S
C1130 C1121 1.429 . S
C1130 N1127 1.350 . S
C1130 C1129 1.434 . S
C1131 C1132 1.369 . S
C1131 C1133 1.419 . S
C1131 H1135 0.930 . S
C1132 C1131 1.369 . S
C1132 C1141 1.429 . S
C1133 C1131 1.419 . S
C1133 C1134 1.363 . S
C1133 H1136 0.929 . S
C1134 C1133 1.363 . S
C1134 C1140 1.428 . S
H1135 C1131 0.930 . S
H1136 C1133 0.929 . S
S1137 N1138 1.613 . S
S1137 N1139 1.610 . S
N1138 S1137 1.613 . S
N1138 C1141 1.350 . S
N1139 S1137 1.610 . S
N1139 C1140 1.351 . S
C1140 C1134 1.428 . S
C1140 N1139 1.351 . S
C1140 C1141 1.434 . S
C1141 C1132 1.429 . S
C1141 N1138 1.350 . S
C1141 C1140 1.434 . S
C1142 C1143 1.369 . S
C1142 C1144 1.419 . S
C1142 H1146 0.930 . S
C1143 C1142 1.369 . S
C1143 C1152 1.429 . S
C1144 C1142 1.419 . S
C1144 C1145 1.363 1_554 S
C1144 H1147 0.929 1_554 S
C1145 C1144 1.363 1_556 S
C1145 C1151 1.428 1_556 S
H1146 C1142 0.930 . S
H1147 C1144 0.929 1_556 S
S1148 N1149 1.613 . S
S1148 N1150 1.610 1_554 S
N1149 S1148 1.613 . S
N1149 C1152 1.350 . S
N1150 S1148 1.610 1_556 S
N1150 C1151 1.351 1_556 S
C1151 C1145 1.428 1_554 S
C1151 N1150 1.351 1_554 S
C1151 C1152 1.434 . S
C1152 C1143 1.429 . S
C1152 N1149 1.350 . S
C1152 C1151 1.434 . S
C1153 C1154 1.369 . S
C1153 C1155 1.419 . S
C1153 H1157 0.930 . S
C1154 C1153 1.369 . S
C1154 C1163 1.429 . S
C1155 C1153 1.419 . S
C1155 C1156 1.363 . S
C1155 H1158 0.929 . S
C1156 C1155 1.363 . S
C1156 C1162 1.428 . S
H1157 C1153 0.930 . S
H1158 C1155 0.929 . S
S1159 N1160 1.613 . S
S1159 N1161 1.610 . S
N1160 S1159 1.613 . S
N1160 C1163 1.350 . S
N1161 S1159 1.610 . S
N1161 C1162 1.351 . S
C1162 C1156 1.428 . S
C1162 N1161 1.351 . S
C1162 C1163 1.434 . S
C1163 C1154 1.429 . S
C1163 N1160 1.350 . S
C1163 C1162 1.434 . S
C1164 C1165 1.369 . S
C1164 C1166 1.419 . S
C1164 H1168 0.930 . S
C1165 C1164 1.369 . S
C1165 C1174 1.429 . S
C1166 C1164 1.419 . S
C1166 C1167 1.363 . S
C1166 H1169 0.929 . S
C1167 C1166 1.363 . S
C1167 C1173 1.428 . S
H1168 C1164 0.930 . S
H1169 C1166 0.929 . S
S1170 N1171 1.613 . S
S1170 N1172 1.610 . S
N1171 S1170 1.613 . S
N1171 C1174 1.350 . S
N1172 S1170 1.610 . S
N1172 C1173 1.351 . S
C1173 C1167 1.428 . S
C1173 N1172 1.351 . S
C1173 C1174 1.434 . S
C1174 C1165 1.429 . S
C1174 N1171 1.350 . S
C1174 C1173 1.434 . S
C1175 C1176 1.369 . S
C1175 C1177 1.419 . S
C1175 H1179 0.930 . S
C1176 C1175 1.369 . S
C1176 C1185 1.429 . S
C1177 C1175 1.419 . S
C1177 C1178 1.363 1_554 S
C1177 H1180 0.929 1_554 S
C1178 C1177 1.363 1_556 S
C1178 C1184 1.428 1_556 S
H1179 C1175 0.930 . S
H1180 C1177 0.929 1_556 S
S1181 N1182 1.613 . S
S1181 N1183 1.610 1_554 S
N1182 S1181 1.613 . S
N1182 C1185 1.350 . S
N1183 S1181 1.610 1_556 S
N1183 C1184 1.351 1_556 S
C1184 C1178 1.428 1_554 S
C1184 N1183 1.351 1_554 S
C1184 C1185 1.434 . S
C1185 C1176 1.429 . S
C1185 N1182 1.350 . S
C1185 C1184 1.434 . S
C1186 C1187 1.369 . S
C1186 C1188 1.419 . S
C1186 H1190 0.930 . S
C1187 C1186 1.369 . S
C1187 C1196 1.429 . S
C1188 C1186 1.419 . S
C1188 C1189 1.363 . S
C1188 H1191 0.929 . S
C1189 C1188 1.363 . S
C1189 C1195 1.428 . S
H1190 C1186 0.930 . S
H1191 C1188 0.929 . S
S1192 N1193 1.613 . S
S1192 N1194 1.610 . S
N1193 S1192 1.613 . S
N1193 C1196 1.350 . S
N1194 S1192 1.610 . S
N1194 C1195 1.351 . S
C1195 C1189 1.428 . S
C1195 N1194 1.351 . S
C1195 C1196 1.434 . S
C1196 C1187 1.429 . S
C1196 N1193 1.350 . S
C1196 C1195 1.434 . S
C1197 C1198 1.369 . S
C1197 C1199 1.419 . S
C1197 H1201 0.930 . S
C1198 C1197 1.369 . S
C1198 C1207 1.429 . S
C1199 C1197 1.419 . S
C1199 C1200 1.363 . S
C1199 H1202 0.929 . S
C1200 C1199 1.363 . S
C1200 C1206 1.428 . S
H1201 C1197 0.930 . S
H1202 C1199 0.929 . S
S1203 N1204 1.613 . S
S1203 N1205 1.610 . S
N1204 S1203 1.613 . S
N1204 C1207 1.350 . S
N1205 S1203 1.610 . S
N1205 C1206 1.351 . S
C1206 C1200 1.428 . S
C1206 N1205 1.351 . S
C1206 C1207 1.434 . S
C1207 C1198 1.429 . S
C1207 N1204 1.350 . S
C1207 C1206 1.434 . S
C1208 C1209 1.369 1_554 S
C1208 C1210 1.419 . S
C1208 H1212 0.930 1_554 S
C1209 C1208 1.369 1_556 S
C1209 C1218 1.429 1_556 S
C1210 C1208 1.419 . S
C1210 C1211 1.363 . S
C1210 H1213 0.929 . S
C1211 C1210 1.363 . S
C1211 C1217 1.428 . S
H1212 C1208 0.930 1_556 S
H1213 C1210 0.929 . S
S1214 N1215 1.613 . S
S1214 N1216 1.610 . S
N1215 S1214 1.613 . S
N1215 C1218 1.350 . S
N1216 S1214 1.610 . S
N1216 C1217 1.351 . S
C1217 C1211 1.428 . S
C1217 N1216 1.351 . S
C1217 C1218 1.434 . S
C1218 C1209 1.429 1_554 S
C1218 N1215 1.350 . S
C1218 C1217 1.434 . S
C1219 C1220 1.369 . S
C1219 C1221 1.419 . S
C1219 H1223 0.930 . S
C1220 C1219 1.369 . S
C1220 C1229 1.429 . S
C1221 C1219 1.419 . S
C1221 C1222 1.363 . S
C1221 H1224 0.929 . S
C1222 C1221 1.363 . S
C1222 C1228 1.428 . S
H1223 C1219 0.930 . S
H1224 C1221 0.929 . S
S1225 N1226 1.613 . S
S1225 N1227 1.610 . S
N1226 S1225 1.613 . S
N1226 C1229 1.350 . S
N1227 S1225 1.610 . S
N1227 C1228 1.351 . S
C1228 C1222 1.428 . S
C1228 N1227 1.351 . S
C1228 C1229 1.434 . S
C1229 C1220 1.429 . S
C1229 N1226 1.350 . S
C1229 C1228 1.434 . S
C1230 C1231 1.369 . S
C1230 C1232 1.419 . S
C1230 H1234 0.930 . S
C1231 C1230 1.369 . S
C1231 C1240 1.429 . S
C1232 C1230 1.419 . S
C1232 C1233 1.363 . S
C1232 H1235 0.929 . S
C1233 C1232 1.363 . S
C1233 C1239 1.428 . S
H1234 C1230 0.930 . S
H1235 C1232 0.929 . S
S1236 N1237 1.613 . S
S1236 N1238 1.610 . S
N1237 S1236 1.613 . S
N1237 C1240 1.350 . S
N1238 S1236 1.610 . S
N1238 C1239 1.351 . S
C1239 C1233 1.428 . S
C1239 N1238 1.351 . S
C1239 C1240 1.434 . S
C1240 C1231 1.429 . S
C1240 N1237 1.350 . S
C1240 C1239 1.434 . S
C1241 C1242 1.369 . S
C1241 C1243 1.419 . S
C1241 H1245 0.930 . S
C1242 C1241 1.369 . S
C1242 C1251 1.429 . S
C1243 C1241 1.419 . S
C1243 C1244 1.363 . S
C1243 H1246 0.929 . S
C1244 C1243 1.363 . S
C1244 C1250 1.428 . S
H1245 C1241 0.930 . S
H1246 C1243 0.929 . S
S1247 N1248 1.613 . S
S1247 N1249 1.610 . S
N1248 S1247 1.613 . S
N1248 C1251 1.350 . S
N1249 S1247 1.610 . S
N1249 C1250 1.351 . S
C1250 C1244 1.428 . S
C1250 N1249 1.351 . S
C1250 C1251 1.434 . S
C1251 C1242 1.429 . S
C1251 N1248 1.350 . S
C1251 C1250 1.434 . S
C1252 C1253 1.369 . S
C1252 C1254 1.419 . S
C1252 H1256 0.930 . S
C1253 C1252 1.369 . S
C1253 C1262 1.429 . S
C1254 C1252 1.419 . S
C1254 C1255 1.363 . S
C1254 H1257 0.929 . S
C1255 C1254 1.363 . S
C1255 C1261 1.428 . S
H1256 C1252 0.930 . S
H1257 C1254 0.929 . S
S1258 N1259 1.613 . S
S1258 N1260 1.610 . S
N1259 S1258 1.613 . S
N1259 C1262 1.350 . S
N1260 S1258 1.610 . S
N1260 C1261 1.351 . S
C1261 C1255 1.428 . S
C1261 N1260 1.351 . S
C1261 C1262 1.434 . S
C1262 C1253 1.429 . S
C1262 N1259 1.350 . S
C1262 C1261 1.434 . S
C1263 C1264 1.369 . S
C1263 C1265 1.419 . S
C1263 H1267 0.930 . S
C1264 C1263 1.369 . S
C1264 C1273 1.429 . S
C1265 C1263 1.419 . S
C1265 C1266 1.363 . S
C1265 H1268 0.929 . S
C1266 C1265 1.363 . S
C1266 C1272 1.428 . S
H1267 C1263 0.930 . S
H1268 C1265 0.929 . S
S1269 N1270 1.613 . S
S1269 N1271 1.610 . S
N1270 S1269 1.613 . S
N1270 C1273 1.350 . S
N1271 S1269 1.610 . S
N1271 C1272 1.351 . S
C1272 C1266 1.428 . S
C1272 N1271 1.351 . S
C1272 C1273 1.434 . S
C1273 C1264 1.429 . S
C1273 N1270 1.350 . S
C1273 C1272 1.434 . S
C1274 C1275 1.369 . S
C1274 C1276 1.419 . S
C1274 H1278 0.930 . S
C1275 C1274 1.369 . S
C1275 C1284 1.429 . S
C1276 C1274 1.419 . S
C1276 C1277 1.363 . S
C1276 H1279 0.929 . S
C1277 C1276 1.363 . S
C1277 C1283 1.428 . S
H1278 C1274 0.930 . S
H1279 C1276 0.929 . S
S1280 N1281 1.613 . S
S1280 N1282 1.610 . S
N1281 S1280 1.613 . S
N1281 C1284 1.350 . S
N1282 S1280 1.610 . S
N1282 C1283 1.351 . S
C1283 C1277 1.428 . S
C1283 N1282 1.351 . S
C1283 C1284 1.434 . S
C1284 C1275 1.429 . S
C1284 N1281 1.350 . S
C1284 C1283 1.434 . S
C1285 C1286 1.369 . S
C1285 C1287 1.419 . S
C1285 H1289 0.930 . S
C1286 C1285 1.369 . S
C1286 C1295 1.429 . S
C1287 C1285 1.419 . S
C1287 C1288 1.363 1_554 S
C1287 H1290 0.929 1_554 S
C1288 C1287 1.363 1_556 S
C1288 C1294 1.428 1_556 S
H1289 C1285 0.930 . S
H1290 C1287 0.929 1_556 S
S1291 N1292 1.613 . S
S1291 N1293 1.610 1_554 S
N1292 S1291 1.613 . S
N1292 C1295 1.350 . S
N1293 S1291 1.610 1_556 S
N1293 C1294 1.351 1_556 S
C1294 C1288 1.428 1_554 S
C1294 N1293 1.351 1_554 S
C1294 C1295 1.434 . S
C1295 C1286 1.429 . S
C1295 N1292 1.350 . S
C1295 C1294 1.434 . S
C945 C359 1.543 . S
C947 C5 1.540 . S
C956 C418 1.537 . S
C958 C64 1.544 . S
C967 C123 1.543 . S
C969 C241 1.538 . S
C978 C182 1.538 . S
C980 C300 1.544 . S
C989 C477 1.544 . S
C991 C831 1.539 . S
C1000 C890 1.537 . S
C1002 C536 1.544 . S
C1011 C595 1.545 . S
C1013 C713 1.538 . S
C1022 C654 1.540 . S
C1024 C772 1.541 . S
C1033 C52 1.473 . S
C1035 C642 1.472 . S
C1044 C111 1.474 . S
C1046 C701 1.472 . S
C1055 C170 1.474 . S
C1057 C524 1.472 . S
C1066 C229 1.473 . S
C1068 C583 1.471 . S
C1077 C288 1.472 . S
C1079 C878 1.472 . S
C1088 C937 1.472 . S
C1090 C347 1.474 . S
C1099 C406 1.474 . S
C1101 C760 1.471 . S
C1110 C819 1.472 . S
C1112 C465 1.474 . S
C1121 C800 0.808 . S
C1123 C33 0.793 . S
C1132 C92 0.804 . S
C1134 C859 0.798 . S
C1143 C918 0.794 . S
C1145 C151 0.803 . S
C1154 C741 0.792 . S
C1156 C210 0.805 . S
C1165 C682 0.797 . S
C1167 C269 0.800 . S
C1176 C328 0.806 . S
C1178 C505 0.794 . S
C1187 C387 0.808 . S
C1189 C564 0.793 . S
C1198 C446 0.801 . S
C1200 C623 0.800 . S
C1209 C770 1.574 . S
C1211 C3 1.573 . S
C1220 C62 1.568 . S
C1222 C829 1.569 . S
C1231 C121 1.571 . S
C1233 C888 1.571 . S
C1242 C711 1.568 . S
C1244 C180 1.569 . S
C1253 C652 1.569 . S
C1255 C239 1.570 . S
C1264 C475 1.574 . S
C1266 C298 1.573 . S
C1275 C357 1.574 . S
C1277 C534 1.573 . S
C1286 C593 1.574 . S
C1288 C416 1.574 . S
