# Generated by pormake.
# Topology yfb, (5)-cn, num edge types: 1
# Building blocks:
#     Node 0, Type 0, BuildingBlock: XOMCOT_clean_sbu_0, # of connection points: 5
#     Node 1, Type 0, BuildingBlock: XOMCOT_clean_sbu_0, # of connection points: 5
#     Node 2, Type 0, BuildingBlock: XOMCOT_clean_sbu_0, # of connection points: 5
#     Node 3, Type 0, BuildingBlock: XOMCOT_clean_sbu_0, # of connection points: 5
#     Node 4, Type 0, BuildingBlock: XOMCOT_clean_sbu_0, # of connection points: 5
#     Node 5, Type 0, BuildingBlock: XOMCOT_clean_sbu_0, # of connection points: 5
#     Node 6, Type 0, BuildingBlock: XOMCOT_clean_sbu_0, # of connection points: 5
#     Node 7, Type 0, BuildingBlock: XOMCOT_clean_sbu_0, # of connection points: 5
#     Node 8, Type 0, BuildingBlock: XOMCOT_clean_sbu_0, # of connection points: 5
#     Node 9, Type 0, BuildingBlock: XOMCOT_clean_sbu_0, # of connection points: 5
#     Node 10, Type 0, BuildingBlock: XOMCOT_clean_sbu_0, # of connection points: 5
#     Node 11, Type 0, BuildingBlock: XOMCOT_clean_sbu_0, # of connection points: 5
#     Node 12, Type 0, BuildingBlock: XOMCOT_clean_sbu_0, # of connection points: 5
#     Node 13, Type 0, BuildingBlock: XOMCOT_clean_sbu_0, # of connection points: 5
#     Node 14, Type 0, BuildingBlock: XOMCOT_clean_sbu_0, # of connection points: 5
#     Node 15, Type 0, BuildingBlock: XOMCOT_clean_sbu_0, # of connection points: 5
#     Edge 16, Type (0, 0), BuildingBlock: UVAHIK_clean_linker_0, # of connection points: 2
#     Edge 17, Type (0, 0), BuildingBlock: UVAHIK_clean_linker_0, # of connection points: 2
#     Edge 18, Type (0, 0), BuildingBlock: UVAHIK_clean_linker_0, # of connection points: 2
#     Edge 19, Type (0, 0), BuildingBlock: UVAHIK_clean_linker_0, # of connection points: 2
#     Edge 20, Type (0, 0), BuildingBlock: UVAHIK_clean_linker_0, # of connection points: 2
#     Edge 21, Type (0, 0), BuildingBlock: UVAHIK_clean_linker_0, # of connection points: 2
#     Edge 22, Type (0, 0), BuildingBlock: UVAHIK_clean_linker_0, # of connection points: 2
#     Edge 23, Type (0, 0), BuildingBlock: UVAHIK_clean_linker_0, # of connection points: 2
#     Edge 24, Type (0, 0), BuildingBlock: UVAHIK_clean_linker_0, # of connection points: 2
#     Edge 25, Type (0, 0), BuildingBlock: UVAHIK_clean_linker_0, # of connection points: 2
#     Edge 26, Type (0, 0), BuildingBlock: UVAHIK_clean_linker_0, # of connection points: 2
#     Edge 27, Type (0, 0), BuildingBlock: UVAHIK_clean_linker_0, # of connection points: 2
#     Edge 28, Type (0, 0), BuildingBlock: UVAHIK_clean_linker_0, # of connection points: 2
#     Edge 29, Type (0, 0), BuildingBlock: UVAHIK_clean_linker_0, # of connection points: 2
#     Edge 30, Type (0, 0), BuildingBlock: UVAHIK_clean_linker_0, # of connection points: 2
#     Edge 31, Type (0, 0), BuildingBlock: UVAHIK_clean_linker_0, # of connection points: 2
#     Edge 32, Type (0, 0), BuildingBlock: UVAHIK_clean_linker_0, # of connection points: 2
#     Edge 33, Type (0, 0), BuildingBlock: UVAHIK_clean_linker_0, # of connection points: 2
#     Edge 34, Type (0, 0), BuildingBlock: UVAHIK_clean_linker_0, # of connection points: 2
#     Edge 35, Type (0, 0), BuildingBlock: UVAHIK_clean_linker_0, # of connection points: 2
#     Edge 36, Type (0, 0), BuildingBlock: UVAHIK_clean_linker_0, # of connection points: 2
#     Edge 37, Type (0, 0), BuildingBlock: UVAHIK_clean_linker_0, # of connection points: 2
#     Edge 38, Type (0, 0), BuildingBlock: UVAHIK_clean_linker_0, # of connection points: 2
#     Edge 39, Type (0, 0), BuildingBlock: UVAHIK_clean_linker_0, # of connection points: 2
#     Edge 40, Type (0, 0), BuildingBlock: UVAHIK_clean_linker_0, # of connection points: 2
#     Edge 41, Type (0, 0), BuildingBlock: UVAHIK_clean_linker_0, # of connection points: 2
#     Edge 42, Type (0, 0), BuildingBlock: UVAHIK_clean_linker_0, # of connection points: 2
#     Edge 43, Type (0, 0), BuildingBlock: UVAHIK_clean_linker_0, # of connection points: 2
#     Edge 44, Type (0, 0), BuildingBlock: UVAHIK_clean_linker_0, # of connection points: 2
#     Edge 45, Type (0, 0), BuildingBlock: UVAHIK_clean_linker_0, # of connection points: 2
#     Edge 46, Type (0, 0), BuildingBlock: UVAHIK_clean_linker_0, # of connection points: 2
#     Edge 47, Type (0, 0), BuildingBlock: UVAHIK_clean_linker_0, # of connection points: 2
#     Edge 48, Type (0, 0), BuildingBlock: UVAHIK_clean_linker_0, # of connection points: 2
#     Edge 49, Type (0, 0), BuildingBlock: UVAHIK_clean_linker_0, # of connection points: 2
#     Edge 50, Type (0, 0), BuildingBlock: UVAHIK_clean_linker_0, # of connection points: 2
#     Edge 51, Type (0, 0), BuildingBlock: UVAHIK_clean_linker_0, # of connection points: 2
#     Edge 52, Type (0, 0), BuildingBlock: UVAHIK_clean_linker_0, # of connection points: 2
#     Edge 53, Type (0, 0), BuildingBlock: UVAHIK_clean_linker_0, # of connection points: 2
#     Edge 54, Type (0, 0), BuildingBlock: UVAHIK_clean_linker_0, # of connection points: 2
#     Edge 55, Type (0, 0), BuildingBlock: UVAHIK_clean_linker_0, # of connection points: 2
# Relax obj value: 0.747
# Max RMSD: 0.295
# Mean RMSD: 0.295
data_MOF--net-yfb--node1-XOMCOT_clean_sbu_0--edge1-UVAHIK_clean_linker_0
_symmetry_space_group_name_H-M    P1
_symmetry_Int_Tables_number       1
_symmetry_cell_setting            triclinic
loop_
_symmetry_equiv_pos_as_xyz
'x, y, z'
_cell_length_a     52.991884
_cell_length_b     52.981195
_cell_length_c     55.366518
_cell_angle_alpha  89.968954
_cell_angle_beta   90.01086
_cell_angle_gamma 89.988399
loop_
_atom_site_label
_atom_site_type_symbol
_atom_site_fract_x
_atom_site_fract_y
_atom_site_fract_z
_atom_type_partial_charge
Co0 Co 0.65474 0.06838 0.09687 0.0
C1 C 0.61638 0.03151 0.08149 0.0
C2 C 0.61436 0.03853 0.11945 0.0
C3 C 0.59317 0.0252 0.11262 0.0
N4 N 0.6291 0.04233 0.09991 0.0
N5 N 0.59448 0.02096 0.08865 0.0
H6 H 0.62107 0.03415 0.06275 0.0
H7 H 0.61754 0.04691 0.137 0.0
C8 C 0.6715 0.03948 0.1406 0.0
O9 O 0.66559 0.01845 0.12937 0.0
N10 N 0.67959 0.09481 0.09374 0.0
C11 C 0.69495 0.09882 0.07471 0.0
C12 C 0.71047 0.11889 0.07986 0.0
C13 C 0.68547 0.11286 0.10998 0.0
N14 N 0.70442 0.12764 0.10194 0.0
C15 C 0.6743 0.03907 0.05763 0.0
C16 C 0.72095 0.02945 0.07769 0.0
C17 C 0.71757 0.02508 0.05288 0.0
C18 C 0.69344 0.02911 0.04322 0.0
C19 C 0.70157 0.04028 0.09128 0.0
N20 N 0.67847 0.04519 0.08127 0.0
H21 H 0.65716 0.04454 0.0487 0.0
H22 H 0.7063 0.04685 0.1091 0.0
H23 H 0.69491 0.08799 0.05818 0.0
H24 H 0.67624 0.11502 0.1273 0.0
O25 O 0.63781 0.08073 0.06847 0.0
O26 O 0.62958 0.09328 0.10591 0.0
O27 O 0.66821 0.06074 0.13014 0.0
C28 C 0.62443 0.09456 0.08295 0.0
H29 H 0.57724 0.02066 0.12405 0.0
H30 H 0.72472 0.12687 0.0681 0.0
H31 H 0.739 0.02636 0.08633 0.0
H32 H 0.6897 0.02691 0.02412 0.0
Co33 Co 0.43007 0.65211 0.10091 0.0
C34 C 0.46672 0.61412 0.08431 0.0
C35 C 0.46051 0.6115 0.12237 0.0
C36 C 0.47375 0.59046 0.11501 0.0
N37 N 0.45628 0.62654 0.10311 0.0
N38 N 0.47746 0.59213 0.09098 0.0
H39 H 0.46362 0.61908 0.06569 0.0
H40 H 0.45245 0.61435 0.14011 0.0
C41 C 0.45895 0.66787 0.14487 0.0
O42 O 0.47997 0.66255 0.13335 0.0
N43 N 0.4035 0.67689 0.09859 0.0
C44 C 0.39908 0.69242 0.07975 0.0
C45 C 0.3793 0.70807 0.08551 0.0
C46 C 0.38597 0.6828 0.11533 0.0
N47 N 0.37114 0.70194 0.10777 0.0
C48 C 0.45955 0.67345 0.06253 0.0
C49 C 0.46715 0.71979 0.08402 0.0
C50 C 0.47165 0.71744 0.05915 0.0
C51 C 0.4688 0.69348 0.04873 0.0
C52 C 0.45704 0.69958 0.09693 0.0
N53 N 0.45302 0.67666 0.0862 0.0
H54 H 0.45486 0.65636 0.05313 0.0
H55 H 0.45007 0.70355 0.11478 0.0
H56 H 0.40953 0.69245 0.06299 0.0
H57 H 0.38425 0.67351 0.13267 0.0
O58 O 0.41779 0.63617 0.07197 0.0
O59 O 0.40536 0.62657 0.10919 0.0
O60 O 0.43766 0.66442 0.13454 0.0
C61 C 0.404 0.62227 0.08609 0.0
H62 H 0.47854 0.57436 0.12614 0.0
H63 H 0.37114 0.72251 0.07407 0.0
H64 H 0.46939 0.7377 0.09317 0.0
H65 H 0.4713 0.69056 0.02954 0.0
Co66 Co 0.84949 0.4299 0.10363 0.0
C67 C 0.8868 0.46691 0.08671 0.0
C68 C 0.8913 0.459 0.12434 0.0
C69 C 0.91213 0.47225 0.11648 0.0
N70 N 0.87528 0.45578 0.10565 0.0
N71 N 0.90929 0.477 0.09272 0.0
H72 H 0.8807 0.46479 0.06827 0.0
H73 H 0.88919 0.45023 0.14187 0.0
C74 C 0.83501 0.45916 0.14795 0.0
O75 O 0.84183 0.48007 0.13697 0.0
N76 N 0.82439 0.40354 0.10147 0.0
C77 C 0.80789 0.39977 0.08328 0.0
C78 C 0.79352 0.3789 0.08847 0.0
C79 C 0.82024 0.38455 0.11725 0.0
N80 N 0.80134 0.36935 0.10974 0.0
C81 C 0.82804 0.45774 0.0642 0.0
C82 C 0.78298 0.46908 0.08656 0.0
C83 C 0.7842 0.47061 0.06129 0.0
C84 C 0.8077 0.46624 0.05034 0.0
C85 C 0.80325 0.45921 0.09953 0.0
N86 N 0.82546 0.45309 0.08836 0.0
H87 H 0.84465 0.45178 0.05462 0.0
H88 H 0.79954 0.45402 0.11793 0.0
H89 H 0.80665 0.41097 0.06703 0.0
H90 H 0.83098 0.38176 0.13367 0.0
O91 O 0.86574 0.41693 0.07501 0.0
O92 O 0.8746 0.405 0.11252 0.0
O93 O 0.83702 0.43796 0.13712 0.0
C94 C 0.87921 0.40316 0.08952 0.0
H95 H 0.92887 0.47628 0.12699 0.0
H96 H 0.77914 0.37071 0.077 0.0
H97 H 0.76567 0.47303 0.09621 0.0
H98 H 0.80993 0.46671 0.03093 0.0
Co99 Co 0.07064 0.84667 0.10368 0.0
C100 C 0.03475 0.88414 0.08441 0.0
C101 C 0.0381 0.88707 0.12276 0.0
C102 C 0.02521 0.90789 0.11436 0.0
N103 N 0.04386 0.87187 0.10399 0.0
N104 N 0.02332 0.90609 0.09015 0.0
H105 H 0.03936 0.87915 0.06605 0.0
H106 H 0.04499 0.88463 0.14099 0.0
C107 C 0.04263 0.83277 0.1486 0.0
O108 O 0.02152 0.83577 0.13646 0.0
N109 N 0.09784 0.82244 0.10303 0.0
C110 C 0.10252 0.80585 0.08513 0.0
C111 C 0.12337 0.79183 0.0912 0.0
C112 C 0.11626 0.8188 0.11949 0.0
N113 N 0.13198 0.80001 0.11272 0.0
C114 C 0.03895 0.82204 0.06876 0.0
C115 C 0.03782 0.77606 0.09224 0.0
C116 C 0.03075 0.77711 0.06789 0.0
C117 C 0.03011 0.80074 0.05652 0.0
C118 C 0.04693 0.79764 0.10365 0.0
N119 N 0.04809 0.82027 0.09177 0.0
H120 H 0.04104 0.83917 0.05859 0.0
H121 H 0.05573 0.79519 0.12105 0.0
H122 H 0.09165 0.8042 0.06868 0.0
H123 H 0.1182 0.82969 0.13593 0.0
O124 O 0.08227 0.85969 0.07321 0.0
O125 O 0.09472 0.87359 0.10907 0.0
O126 O 0.06379 0.83724 0.13839 0.0
C127 C 0.09595 0.87539 0.08563 0.0
H128 H 0.01946 0.92399 0.12505 0.0
H129 H 0.1321 0.77732 0.08025 0.0
H130 H 0.03853 0.75823 0.1018 0.0
H131 H 0.02527 0.80244 0.03758 0.0
Co132 Co 0.65798 0.42857 0.39676 0.0
C133 C 0.62062 0.46246 0.41885 0.0
C134 C 0.61562 0.46033 0.38064 0.0
C135 C 0.59472 0.4719 0.39054 0.0
N136 N 0.63213 0.45462 0.39841 0.0
N137 N 0.59779 0.47281 0.41467 0.0
H138 H 0.62735 0.45818 0.43671 0.0
H139 H 0.61726 0.45408 0.36212 0.0
C140 C 0.66918 0.4592 0.35281 0.0
O141 O 0.66576 0.47959 0.36591 0.0
N142 N 0.68287 0.40199 0.39541 0.0
C143 C 0.70089 0.39737 0.41203 0.0
C144 C 0.71436 0.37648 0.40504 0.0
C145 C 0.68515 0.38347 0.37883 0.0
N146 N 0.70442 0.36774 0.38425 0.0
C147 C 0.68301 0.45901 0.43239 0.0
C148 C 0.72772 0.46402 0.40726 0.0
C149 C 0.72728 0.47005 0.43189 0.0
C150 C 0.70421 0.46864 0.44415 0.0
C151 C 0.70619 0.45419 0.39627 0.0
N152 N 0.68416 0.45127 0.40889 0.0
H153 H 0.66669 0.45514 0.44323 0.0
H154 H 0.70833 0.44638 0.37841 0.0
H155 H 0.70373 0.40812 0.42839 0.0
H156 H 0.67276 0.38131 0.36342 0.0
O157 O 0.64627 0.41512 0.42703 0.0
O158 O 0.63145 0.40415 0.39107 0.0
O159 O 0.66595 0.43741 0.36222 0.0
C160 C 0.63035 0.40184 0.41447 0.0
H161 H 0.57757 0.47677 0.38098 0.0
H162 H 0.72955 0.36767 0.41504 0.0
H163 H 0.74516 0.46473 0.39707 0.0
H164 H 0.70306 0.47239 0.46334 0.0
Co165 Co 0.07015 0.65418 0.40279 0.0
C166 C 0.03397 0.61437 0.41628 0.0
C167 C 0.04143 0.61425 0.37837 0.0
C168 C 0.02943 0.59199 0.38434 0.0
N169 N 0.04421 0.6285 0.39844 0.0
N170 N 0.02477 0.59225 0.40823 0.0
H171 H 0.0367 0.61788 0.43525 0.0
H172 H 0.05014 0.61831 0.36114 0.0
C173 C 0.04382 0.67193 0.35844 0.0
O174 O 0.02245 0.66688 0.36948 0.0
N175 N 0.09664 0.67873 0.40725 0.0
C176 C 0.1004 0.69306 0.42704 0.0
C177 C 0.12046 0.70892 0.42281 0.0
C178 C 0.11483 0.68548 0.39147 0.0
N179 N 0.12946 0.70404 0.40054 0.0
C180 C 0.03481 0.67403 0.43758 0.0
C181 C 0.03564 0.72271 0.41981 0.0
C182 C 0.0254 0.71842 0.44281 0.0
C183 C 0.02376 0.69342 0.45096 0.0
C184 C 0.04595 0.70271 0.40675 0.0
N185 N 0.04625 0.67872 0.41596 0.0
H186 H 0.0363 0.65592 0.44605 0.0
H187 H 0.05632 0.70725 0.39056 0.0
H188 H 0.08914 0.69222 0.44331 0.0
H189 H 0.11713 0.67724 0.37372 0.0
O190 O 0.08017 0.63794 0.43238 0.0
O191 O 0.09533 0.62871 0.39598 0.0
O192 O 0.06479 0.66723 0.36894 0.0
C193 C 0.09496 0.62415 0.41909 0.0
H194 H 0.02642 0.57599 0.37253 0.0
H195 H 0.12816 0.72269 0.43523 0.0
H196 H 0.03803 0.74165 0.41283 0.0
H197 H 0.01583 0.68902 0.46849 0.0
Co198 Co 0.84363 0.0662 0.39768 0.0
C199 C 0.88222 0.03022 0.41445 0.0
C200 C 0.88463 0.03617 0.37634 0.0
C201 C 0.90595 0.02343 0.38379 0.0
N202 N 0.86953 0.04026 0.39558 0.0
N203 N 0.90443 0.01989 0.40785 0.0
H204 H 0.87728 0.03342 0.43306 0.0
H205 H 0.88165 0.04409 0.35856 0.0
C206 C 0.82858 0.03786 0.35313 0.0
O207 O 0.8336 0.0167 0.36456 0.0
N208 N 0.81858 0.09253 0.39992 0.0
C209 C 0.80269 0.09655 0.41855 0.0
C210 C 0.78712 0.11642 0.41286 0.0
C211 C 0.81297 0.11039 0.38339 0.0
N212 N 0.79366 0.12505 0.39085 0.0
C213 C 0.82223 0.03565 0.43519 0.0
C214 C 0.77588 0.02883 0.41347 0.0
C215 C 0.77818 0.02377 0.43826 0.0
C216 C 0.80215 0.02619 0.44875 0.0
C217 C 0.7962 0.03907 0.40078 0.0
N218 N 0.81908 0.04279 0.41167 0.0
H219 H 0.83933 0.03999 0.44471 0.0
H220 H 0.79236 0.0464 0.38301 0.0
H221 H 0.80239 0.08579 0.43513 0.0
H222 H 0.82263 0.11249 0.36628 0.0
O223 O 0.85887 0.07817 0.42708 0.0
O224 O 0.86913 0.09128 0.39025 0.0
O225 O 0.83194 0.05903 0.3637 0.0
C226 C 0.87296 0.09228 0.41345 0.0
H227 H 0.92213 0.0189 0.37267 0.0
H228 H 0.7725 0.12436 0.42421 0.0
H229 H 0.75797 0.02692 0.40426 0.0
H230 H 0.80505 0.02323 0.46789 0.0
Co231 Co 0.43182 0.85115 0.39333 0.0
C232 C 0.46946 0.8881 0.41002 0.0
C233 C 0.46259 0.89166 0.37214 0.0
C234 C 0.4762 0.91237 0.37971 0.0
N235 N 0.45855 0.8762 0.39114 0.0
N236 N 0.48031 0.91012 0.40363 0.0
H237 H 0.46648 0.88287 0.4286 0.0
H238 H 0.45408 0.8894 0.35452 0.0
C239 C 0.45889 0.83634 0.34832 0.0
O240 O 0.48014 0.84066 0.35983 0.0
N241 N 0.40464 0.82701 0.39581 0.0
C242 C 0.40074 0.8109 0.41431 0.0
C243 C 0.37953 0.79689 0.40955 0.0
C244 C 0.38535 0.82311 0.38033 0.0
N245 N 0.36989 0.80461 0.38829 0.0
C246 C 0.46309 0.82724 0.42913 0.0
C247 C 0.46449 0.78092 0.40637 0.0
C248 C 0.47033 0.78221 0.43099 0.0
C249 C 0.47109 0.80598 0.442 0.0
C250 C 0.45612 0.80242 0.39435 0.0
N251 N 0.45467 0.82525 0.40586 0.0
H252 H 0.46062 0.84443 0.43911 0.0
H253 H 0.44774 0.79961 0.37684 0.0
H254 H 0.41231 0.80962 0.43033 0.0
H255 H 0.38258 0.83365 0.36379 0.0
O256 O 0.42126 0.86591 0.42345 0.0
O257 O 0.40748 0.87767 0.38723 0.0
O258 O 0.43781 0.84018 0.35892 0.0
C259 C 0.40718 0.88079 0.41055 0.0
H260 H 0.48088 0.9287 0.36885 0.0
H261 H 0.37124 0.78275 0.42124 0.0
H262 H 0.46371 0.76292 0.39712 0.0
H263 H 0.47503 0.80782 0.46111 0.0
Co264 Co 0.34151 0.9303 0.89968 0.0
C265 C 0.38047 0.96513 0.91803 0.0
C266 C 0.38345 0.96023 0.87982 0.0
C267 C 0.40458 0.9729 0.88783 0.0
N268 N 0.36806 0.95563 0.89874 0.0
N269 N 0.40266 0.97583 0.91194 0.0
H270 H 0.37525 0.96148 0.9365 0.0
H271 H 0.38072 0.95289 0.86179 0.0
C272 C 0.32828 0.95946 0.85503 0.0
O273 O 0.33326 0.98042 0.86679 0.0
N274 N 0.31578 0.90456 0.90077 0.0
C275 C 0.29865 0.90113 0.91849 0.0
C276 C 0.28332 0.88124 0.91235 0.0
C277 C 0.31113 0.8863 0.88438 0.0
N278 N 0.29124 0.87199 0.89101 0.0
C279 C 0.3198 0.96159 0.93644 0.0
C280 C 0.27428 0.9696 0.91347 0.0
C281 C 0.27617 0.97518 0.93818 0.0
C282 C 0.29974 0.97207 0.94931 0.0
C283 C 0.29455 0.95843 0.90147 0.0
N284 N 0.31703 0.9542 0.91296 0.0
H285 H 0.33649 0.9568 0.94643 0.0
H286 H 0.29097 0.95089 0.88373 0.0
H287 H 0.29744 0.91221 0.93483 0.0
H288 H 0.32202 0.88354 0.86805 0.0
O289 O 0.35513 0.91743 0.92946 0.0
O290 O 0.36679 0.9048 0.89296 0.0
O291 O 0.33125 0.93812 0.86542 0.0
C292 C 0.3695 0.90309 0.91629 0.0
H293 H 0.42082 0.97795 0.87702 0.0
H294 H 0.268 0.87361 0.92304 0.0
H295 H 0.25664 0.97187 0.90385 0.0
H296 H 0.30224 0.97534 0.96846 0.0
Co297 Co 0.56321 0.34172 0.89807 0.0
C298 C 0.5284 0.38049 0.91681 0.0
C299 C 0.53333 0.38397 0.87865 0.0
C300 C 0.52079 0.40506 0.88691 0.0
N301 N 0.53782 0.36826 0.89738 0.0
N302 N 0.51787 0.40285 0.91099 0.0
H303 H 0.53213 0.37505 0.93523 0.0
H304 H 0.54075 0.38154 0.86062 0.0
C305 C 0.53531 0.32979 0.85263 0.0
O306 O 0.51415 0.33383 0.86441 0.0
N307 N 0.58912 0.31609 0.899 0.0
C308 C 0.59241 0.29871 0.91651 0.0
C309 C 0.61347 0.28467 0.91121 0.0
C310 C 0.60858 0.31287 0.8836 0.0
N311 N 0.62364 0.29363 0.89061 0.0
C312 C 0.53033 0.3185 0.93272 0.0
C313 C 0.52696 0.27276 0.9091 0.0
C314 C 0.52069 0.27388 0.93367 0.0
C315 C 0.52102 0.29748 0.94505 0.0
C316 C 0.53666 0.29406 0.89759 0.0
N317 N 0.53908 0.31652 0.90959 0.0
H318 H 0.53335 0.3354 0.94299 0.0
H319 H 0.54506 0.29133 0.88006 0.0
H320 H 0.58068 0.29674 0.93237 0.0
H321 H 0.61191 0.32464 0.86793 0.0
O322 O 0.57493 0.3539 0.92875 0.0
O323 O 0.58887 0.36732 0.89322 0.0
O324 O 0.55648 0.33289 0.86327 0.0
C325 C 0.58984 0.36875 0.9167 0.0
H326 H 0.51593 0.42152 0.8763 0.0
H327 H 0.62143 0.26982 0.92229 0.0
H328 H 0.52681 0.25498 0.89946 0.0
H329 H 0.5168 0.2993 0.96411 0.0
Co330 Co 0.15152 0.56805 0.89817 0.0
C331 C 0.11508 0.52995 0.91493 0.0
C332 C 0.11137 0.53685 0.87706 0.0
C333 C 0.09085 0.52296 0.88464 0.0
N334 N 0.12678 0.54107 0.89606 0.0
N335 N 0.09322 0.51879 0.90854 0.0
H336 H 0.12026 0.53294 0.93351 0.0
H337 H 0.11352 0.54541 0.85944 0.0
C338 C 0.16694 0.54075 0.85345 0.0
O339 O 0.16278 0.51949 0.86503 0.0
N340 N 0.17538 0.59544 0.90046 0.0
C341 C 0.19101 0.60012 0.91912 0.0
C342 C 0.20506 0.6212 0.91386 0.0
C343 C 0.17965 0.61402 0.8843 0.0
N344 N 0.19787 0.62991 0.89204 0.0
C345 C 0.1753 0.53725 0.93443 0.0
C346 C 0.22157 0.53457 0.91169 0.0
C347 C 0.22001 0.52812 0.93617 0.0
C348 C 0.19622 0.52833 0.9472 0.0
C349 C 0.20038 0.54388 0.89976 0.0
N350 N 0.17751 0.54558 0.91115 0.0
H351 H 0.1582 0.5402 0.94442 0.0
H352 H 0.2034 0.55233 0.88231 0.0
H353 H 0.192 0.58911 0.93554 0.0
H354 H 0.16963 0.61591 0.86736 0.0
O355 O 0.13643 0.5788 0.92808 0.0
O356 O 0.12484 0.59212 0.89166 0.0
O357 O 0.1628 0.56184 0.86393 0.0
C358 C 0.12155 0.59265 0.91496 0.0
H359 H 0.07453 0.51812 0.87384 0.0
H360 H 0.21893 0.62998 0.92551 0.0
H361 H 0.23954 0.53468 0.90238 0.0
H362 H 0.19414 0.52414 0.96624 0.0
Co363 Co 0.93056 0.16047 0.91024 0.0
C364 C 0.96751 0.1228 0.92452 0.0
C365 C 0.96235 0.12246 0.8861 0.0
C366 C 0.9765 0.10162 0.89265 0.0
N367 N 0.95667 0.13554 0.90621 0.0
N368 N 0.97954 0.10185 0.91688 0.0
H369 H 0.96431 0.12734 0.94333 0.0
H370 H 0.95498 0.12656 0.86831 0.0
C371 C 0.93981 0.2009 0.87407 0.0
O372 O 0.9351 0.2171 0.89144 0.0
N373 N 0.90361 0.1851 0.9144 0.0
C374 C 0.90034 0.20274 0.93178 0.0
C375 C 0.87941 0.21695 0.92636 0.0
C376 C 0.88411 0.18859 0.89898 0.0
N377 N 0.8693 0.20802 0.9058 0.0
C378 C 0.95196 0.18119 0.95341 0.0
C379 C 0.98777 0.21139 0.93158 0.0
C380 C 0.98219 0.21501 0.95606 0.0
C381 C 0.96542 0.19841 0.96734 0.0
C382 C 0.97442 0.19314 0.91851 0.0
N383 N 0.95453 0.18074 0.92886 0.0
H384 H 0.93773 0.16997 0.96226 0.0
H385 H 0.9793 0.19009 0.89983 0.0
H386 H 0.91216 0.20581 0.94726 0.0
H387 H 0.88124 0.17762 0.88272 0.0
O388 O 0.9169 0.14091 0.93636 0.0
O389 O 0.90584 0.13637 0.89809 0.0
O390 O 0.93994 0.17713 0.87843 0.0
C391 C 0.90342 0.12908 0.92045 0.0
H392 H 0.98267 0.0867 0.88069 0.0
H393 H 0.87202 0.23256 0.9368 0.0
H394 H 0.00138 0.22328 0.92245 0.0
H395 H 0.96087 0.20033 0.98633 0.0
Co396 Co 0.34393 0.57117 0.6024 0.0
C397 C 0.38172 0.5353 0.58398 0.0
C398 C 0.38735 0.54286 0.62148 0.0
C399 C 0.40825 0.53028 0.61278 0.0
N400 N 0.3705 0.54583 0.60342 0.0
N401 N 0.4048 0.52591 0.58903 0.0
H402 H 0.37448 0.53682 0.56593 0.0
H403 H 0.38577 0.55149 0.63911 0.0
C404 C 0.33287 0.54359 0.64824 0.0
O405 O 0.33798 0.52242 0.63688 0.0
N406 N 0.3182 0.59693 0.6011 0.0
C407 C 0.30086 0.59992 0.58349 0.0
C408 C 0.28551 0.61988 0.58938 0.0
C409 C 0.31366 0.61554 0.61716 0.0
N410 N 0.29362 0.62963 0.61044 0.0
C411 C 0.32017 0.53883 0.56746 0.0
C412 C 0.27563 0.53291 0.59267 0.0
C413 C 0.27617 0.52669 0.5681 0.0
C414 C 0.29919 0.52851 0.55582 0.0
C415 C 0.29686 0.54354 0.6035 0.0
N416 N 0.31882 0.54689 0.59087 0.0
H417 H 0.33626 0.54319 0.55646 0.0
H418 H 0.29428 0.55174 0.62112 0.0
H419 H 0.29949 0.58846 0.5674 0.0
H420 H 0.32468 0.61866 0.63335 0.0
O421 O 0.35672 0.58263 0.57173 0.0
O422 O 0.36929 0.59697 0.60746 0.0
O423 O 0.33495 0.56467 0.63719 0.0
C424 C 0.37136 0.59751 0.58405 0.0
H425 H 0.42563 0.52704 0.62258 0.0
H426 H 0.27003 0.62718 0.57869 0.0
H427 H 0.25823 0.53189 0.60289 0.0
H428 H 0.30039 0.52463 0.53665 0.0
Co429 Co 0.93223 0.34226 0.60043 0.0
C430 C 0.97068 0.37724 0.58205 0.0
C431 C 0.96125 0.38549 0.6187 0.0
C432 C 0.97446 0.40569 0.60926 0.0
N433 N 0.95886 0.36753 0.60157 0.0
N434 N 0.97995 0.4006 0.586 0.0
H435 H 0.97017 0.36877 0.56447 0.0
H436 H 0.95163 0.3852 0.63592 0.0
C437 C 0.95916 0.33021 0.64691 0.0
O438 O 0.98072 0.33691 0.63712 0.0
N439 N 0.90527 0.31781 0.59893 0.0
C440 C 0.90117 0.30098 0.58109 0.0
C441 C 0.88078 0.28629 0.58718 0.0
C442 C 0.88694 0.31362 0.61537 0.0
N443 N 0.87192 0.2943 0.60863 0.0
C444 C 0.96117 0.31759 0.56354 0.0
C445 C 0.96871 0.27316 0.58854 0.0
C446 C 0.97321 0.2736 0.56362 0.0
C447 C 0.97055 0.29655 0.55138 0.0
C448 C 0.95927 0.29461 0.60004 0.0
N449 N 0.95507 0.31652 0.58752 0.0
H450 H 0.95588 0.33354 0.55268 0.0
H451 H 0.95272 0.29224 0.61828 0.0
H452 H 0.91213 0.29946 0.56471 0.0
H453 H 0.88474 0.32431 0.6319 0.0
O454 O 0.92074 0.35687 0.57049 0.0
O455 O 0.90776 0.36858 0.60695 0.0
O456 O 0.93869 0.33163 0.63481 0.0
C457 C 0.90687 0.37167 0.58366 0.0
H458 H 0.97726 0.42373 0.61802 0.0
H459 H 0.87264 0.27128 0.57645 0.0
H460 H 0.97032 0.25575 0.59869 0.0
H461 H 0.97298 0.29762 0.53198 0.0
Co462 Co 0.15469 0.93397 0.59981 0.0
C463 C 0.11741 0.97042 0.58122 0.0
C464 C 0.11405 0.96576 0.61942 0.0
C465 C 0.09325 0.97882 0.6112 0.0
N466 N 0.12948 0.96069 0.60063 0.0
N467 N 0.09535 0.98154 0.58708 0.0
H468 H 0.12259 0.96642 0.56279 0.0
H469 H 0.11634 0.95826 0.63745 0.0
C470 C 0.16862 0.96182 0.64474 0.0
O471 O 0.16515 0.98295 0.63273 0.0
N472 N 0.17893 0.9068 0.59871 0.0
C473 C 0.19532 0.90216 0.58063 0.0
C474 C 0.20928 0.88117 0.58644 0.0
C475 C 0.18265 0.88825 0.61503 0.0
N476 N 0.20127 0.87245 0.60799 0.0
C477 C 0.17915 0.96555 0.56464 0.0
C478 C 0.22509 0.96708 0.58815 0.0
C479 C 0.22404 0.97391 0.56374 0.0
C480 C 0.20044 0.97437 0.55235 0.0
C481 C 0.20355 0.95796 0.5996 0.0
N482 N 0.18092 0.95664 0.58774 0.0
H483 H 0.16209 0.96321 0.55443 0.0
H484 H 0.20607 0.94925 0.61703 0.0
H485 H 0.19686 0.91314 0.56423 0.0
H486 H 0.17192 0.88628 0.63156 0.0
O487 O 0.14115 0.92267 0.5694 0.0
O488 O 0.12801 0.90971 0.60542 0.0
O489 O 0.1645 0.94063 0.63444 0.0
C490 C 0.12578 0.90881 0.582 0.0
H491 H 0.07696 0.98407 0.62186 0.0
H492 H 0.22361 0.87244 0.5753 0.0
H493 H 0.24292 0.96649 0.59771 0.0
H494 H 0.19876 0.97899 0.53336 0.0
Co495 Co 0.56893 0.15598 0.59912 0.0
C496 C 0.53314 0.11819 0.58027 0.0
C497 C 0.53787 0.11466 0.61846 0.0
C498 C 0.52476 0.09392 0.61022 0.0
N499 N 0.54287 0.13016 0.59969 0.0
N500 N 0.52193 0.09618 0.58613 0.0
H501 H 0.53701 0.12348 0.56186 0.0
H502 H 0.54526 0.11702 0.63653 0.0
C503 C 0.53939 0.16968 0.6432 0.0
O504 O 0.51863 0.16516 0.63096 0.0
N505 N 0.59541 0.18096 0.59842 0.0
C506 C 0.59989 0.19764 0.58055 0.0
C507 C 0.62057 0.2119 0.58667 0.0
C508 C 0.61371 0.18485 0.61494 0.0
N509 N 0.62924 0.20382 0.60821 0.0
C510 C 0.53864 0.1788 0.56216 0.0
C511 C 0.53166 0.22439 0.58528 0.0
C512 C 0.52609 0.22275 0.56056 0.0
C513 C 0.52871 0.19917 0.54932 0.0
C514 C 0.54229 0.20379 0.59725 0.0
N515 N 0.54593 0.18124 0.58569 0.0
H516 H 0.54307 0.16206 0.55211 0.0
H517 H 0.54983 0.20707 0.61503 0.0
H518 H 0.58914 0.1991 0.56402 0.0
H519 H 0.61575 0.17392 0.63135 0.0
O520 O 0.58168 0.1422 0.5694 0.0
O521 O 0.59365 0.1299 0.60592 0.0
O522 O 0.5609 0.16628 0.6333 0.0
C523 C 0.59547 0.12732 0.58258 0.0
H524 H 0.51939 0.07762 0.62084 0.0
H525 H 0.62921 0.22643 0.57567 0.0
H526 H 0.52978 0.24203 0.59497 0.0
H527 H 0.52546 0.19686 0.53015 0.0
C528 C 0.69382 0.06102 0.17476 0.0
C529 C 0.68563 0.03857 0.1637 0.0
C530 C 0.70887 0.06027 0.19547 0.0
C531 C 0.75292 0.01879 0.22851 0.0
H532 H 0.74328 0.06723 0.28015 0.0
C533 C 0.80733 0.01426 0.31944 0.0
C534 C 0.81484 0.03729 0.3298 0.0
C535 C 0.79207 0.01391 0.2988 0.0
C536 C 0.74643 0.05376 0.26575 0.0
H537 H 0.68639 0.99771 0.16616 0.0
H538 H 0.71246 0.99643 0.20251 0.0
H539 H 0.71467 0.06732 0.24571 0.0
H540 H 0.81297 0.07803 0.32597 0.0
H541 H 0.78676 0.07738 0.28989 0.0
H542 H 0.78475 0.00528 0.24859 0.0
C543 C 0.7075 0.01461 0.19491 0.0
C544 C 0.72998 0.05378 0.24602 0.0
C545 C 0.69239 0.01536 0.17418 0.0
C546 C 0.80746 0.05993 0.31857 0.0
C547 C 0.79223 0.05958 0.29797 0.0
C548 C 0.7694 0.01876 0.24827 0.0
C549 C 0.71613 0.03706 0.20567 0.0
C550 C 0.73309 0.03639 0.22709 0.0
C551 C 0.78398 0.03658 0.28807 0.0
C552 C 0.76644 0.03635 0.26707 0.0
H553 H 0.68905 0.07925 0.16715 0.0
H554 H 0.71539 0.07791 0.20311 0.0
H555 H 0.75608 0.00537 0.21407 0.0
H556 H 0.81262 0.99647 0.32765 0.0
H557 H 0.78594 0.99587 0.29173 0.0
C558 C 0.48232 0.81472 0.31487 0.0
C559 C 0.45929 0.82211 0.3253 0.0
C560 C 0.48271 0.79844 0.295 0.0
C561 C 0.44392 0.74947 0.26594 0.0
H562 H 0.49098 0.75686 0.2128 0.0
C563 C 0.43724 0.69023 0.17883 0.0
C564 C 0.45978 0.68244 0.16768 0.0
C565 C 0.43778 0.70639 0.19873 0.0
C566 C 0.47797 0.75433 0.22769 0.0
H567 H 0.41855 0.81911 0.32229 0.0
H568 H 0.41927 0.79102 0.28748 0.0
H569 H 0.49045 0.78821 0.24507 0.0
H570 H 0.50061 0.68481 0.16933 0.0
H571 H 0.50154 0.7128 0.20432 0.0
H572 H 0.43142 0.71562 0.24861 0.0
C573 C 0.43704 0.79744 0.29495 0.0
C574 C 0.47761 0.77235 0.24613 0.0
C575 C 0.43664 0.81373 0.31478 0.0
C576 C 0.4829 0.69048 0.17744 0.0
C577 C 0.48344 0.7067 0.19737 0.0
C578 C 0.44429 0.73146 0.24753 0.0
C579 C 0.46008 0.78918 0.28515 0.0
C580 C 0.46049 0.77019 0.26541 0.0
C581 C 0.46086 0.71516 0.208 0.0
C582 C 0.46123 0.73372 0.22812 0.0
H583 H 0.50011 0.82081 0.32252 0.0
H584 H 0.50078 0.79234 0.28797 0.0
H585 H 0.43085 0.74696 0.28079 0.0
H586 H 0.41907 0.68445 0.17177 0.0
H587 H 0.42004 0.71271 0.20631 0.0
C588 C 0.69011 0.48454 0.32016 0.0
C589 C 0.68188 0.46107 0.32904 0.0
C590 C 0.70525 0.48585 0.2995 0.0
C591 C 0.72714 0.44889 0.24654 0.0
H592 H 0.78597 0.49228 0.25029 0.0
C593 C 0.80996 0.43822 0.1806 0.0
C594 C 0.8199 0.46043 0.17043 0.0
C595 C 0.7931 0.43941 0.19993 0.0
C596 C 0.7695 0.48028 0.24886 0.0
H597 H 0.68219 0.42067 0.32251 0.0
H598 H 0.70859 0.42297 0.28671 0.0
H599 H 0.75493 0.49281 0.28286 0.0
H600 H 0.82069 0.50126 0.17333 0.0
H601 H 0.79123 0.50329 0.20719 0.0
H602 H 0.74187 0.4361 0.21273 0.0
C603 C 0.70325 0.4404 0.29555 0.0
C604 C 0.75165 0.48063 0.26747 0.0
C605 C 0.68816 0.43908 0.31618 0.0
C606 C 0.8134 0.4838 0.18073 0.0
C607 C 0.79654 0.48497 0.20016 0.0
C608 C 0.74499 0.44849 0.22799 0.0
C609 C 0.71242 0.46374 0.28725 0.0
C610 C 0.7304 0.46474 0.26665 0.0
C611 C 0.7858 0.4628 0.20962 0.0
C612 C 0.76652 0.46396 0.22907 0.0
H613 H 0.68557 0.50186 0.3296 0.0
H614 H 0.71167 0.50416 0.29334 0.0
H615 H 0.71078 0.43673 0.24514 0.0
H616 H 0.81464 0.41987 0.17323 0.0
H617 H 0.78557 0.42196 0.20715 0.0
C618 C 0.02071 0.69371 0.32483 0.0
C619 C 0.04365 0.68666 0.33566 0.0
C620 C 0.02045 0.70963 0.30467 0.0
C621 C 0.05924 0.75773 0.27376 0.0
H622 H 0.01244 0.74725 0.22088 0.0
C623 C 0.06499 0.81296 0.18375 0.0
C624 C 0.04227 0.81963 0.17225 0.0
C625 C 0.06483 0.79787 0.20447 0.0
C626 C 0.02539 0.75066 0.23566 0.0
H627 H 0.08438 0.69027 0.33332 0.0
H628 H 0.08389 0.71774 0.298 0.0
H629 H 0.01309 0.71763 0.25458 0.0
H630 H 0.00151 0.8165 0.17419 0.0
H631 H 0.00124 0.79047 0.21053 0.0
H632 H 0.07158 0.79073 0.25481 0.0
C633 C 0.06608 0.71129 0.30533 0.0
C634 C 0.0258 0.73363 0.25496 0.0
C635 C 0.06635 0.69534 0.32546 0.0
C636 C 0.01936 0.81165 0.18251 0.0
C637 C 0.01921 0.79654 0.20324 0.0
C638 C 0.05882 0.77477 0.25446 0.0
C639 C 0.04311 0.71891 0.29488 0.0
C640 C 0.04277 0.73691 0.27423 0.0
C641 C 0.04196 0.78908 0.21421 0.0
C642 C 0.04192 0.77143 0.23515 0.0
H643 H 0.00287 0.68743 0.33224 0.0
H644 H 0.00241 0.71528 0.29721 0.0
H645 H 0.07224 0.76109 0.28851 0.0
H646 H 0.08301 0.8187 0.17632 0.0
H647 H 0.08272 0.79232 0.21232 0.0
C648 C 0.30709 0.98366 0.82168 0.0
C649 C 0.31448 0.96044 0.83175 0.0
C650 C 0.29139 0.98439 0.80136 0.0
C651 C 0.24413 0.9456 0.76949 0.0
H652 H 0.25329 0.99381 0.71754 0.0
C653 C 0.18922 0.93966 0.67957 0.0
C654 C 0.18186 0.9623 0.66833 0.0
C655 C 0.20433 0.94003 0.70025 0.0
C656 C 0.25025 0.98046 0.73207 0.0
H657 H 0.31203 0.91975 0.82766 0.0
H658 H 0.28501 0.92108 0.79214 0.0
H659 H 0.28297 0.99323 0.75124 0.0
H660 H 0.18381 0.00313 0.67065 0.0
H661 H 0.20986 0.00376 0.70696 0.0
H662 H 0.21146 0.9328 0.75038 0.0
C663 C 0.29093 0.93873 0.80021 0.0
C664 C 0.26731 0.9801 0.75135 0.0
C665 C 0.30663 0.93799 0.82047 0.0
C666 C 0.1892 0.98533 0.67878 0.0
C667 C 0.20432 0.9857 0.69949 0.0
C668 C 0.22707 0.94599 0.75025 0.0
C669 C 0.28272 0.96192 0.79069 0.0
C670 C 0.26455 0.96255 0.77021 0.0
C671 C 0.21243 0.96305 0.71024 0.0
C672 C 0.22998 0.96333 0.73123 0.0
H673 H 0.31275 0.0013 0.82993 0.0
H674 H 0.28531 0.00257 0.79454 0.0
H675 H 0.24116 0.93218 0.78397 0.0
H676 H 0.184 0.92156 0.67197 0.0
H677 H 0.2104 0.92222 0.70791 0.0
C678 C 0.55738 0.30958 0.81765 0.0
C679 C 0.53475 0.31692 0.82889 0.0
C680 C 0.55699 0.29463 0.79688 0.0
C681 C 0.51664 0.2488 0.76508 0.0
H682 H 0.56534 0.25753 0.71351 0.0
C683 C 0.56033 0.1915 0.67795 0.0
C684 C 0.53807 0.18358 0.66638 0.0
C685 C 0.55926 0.2074 0.69803 0.0
C686 C 0.55179 0.25467 0.7279 0.0
H687 H 0.49392 0.3152 0.82646 0.0
H688 H 0.49327 0.28939 0.78997 0.0
H689 H 0.56432 0.28759 0.74679 0.0
H690 H 0.49718 0.18536 0.66753 0.0
H691 H 0.49535 0.21314 0.70262 0.0
H692 H 0.50416 0.21582 0.74614 0.0
C693 C 0.51132 0.29483 0.79751 0.0
C694 C 0.55117 0.27194 0.74695 0.0
C695 C 0.51171 0.30981 0.81831 0.0
C696 C 0.51469 0.19108 0.67601 0.0
C697 C 0.51363 0.20697 0.69616 0.0
C698 C 0.51723 0.23154 0.74599 0.0
C699 C 0.53397 0.28668 0.78681 0.0
C700 C 0.53371 0.26911 0.76587 0.0
C701 C 0.53593 0.21574 0.70707 0.0
C702 C 0.53496 0.23417 0.72728 0.0
H703 H 0.57549 0.31465 0.82532 0.0
H704 H 0.57479 0.28851 0.78927 0.0
H705 H 0.50321 0.24583 0.77955 0.0
H706 H 0.57868 0.18602 0.6711 0.0
H707 H 0.57677 0.21341 0.70632 0.0
C708 C 0.31117 0.56545 0.68251 0.0
C709 C 0.31933 0.5429 0.67163 0.0
C710 C 0.29525 0.56487 0.7026 0.0
C711 C 0.2706 0.52386 0.75131 0.0
H712 H 0.21397 0.57025 0.74973 0.0
C713 C 0.18917 0.51754 0.82022 0.0
C714 C 0.18116 0.54047 0.83043 0.0
C715 C 0.20526 0.51739 0.80021 0.0
C716 C 0.22978 0.55732 0.75056 0.0
H717 H 0.31809 0.50204 0.67409 0.0
H718 H 0.29024 0.50106 0.70912 0.0
H719 H 0.24504 0.57109 0.71731 0.0
H720 H 0.18307 0.58125 0.82703 0.0
H721 H 0.21113 0.58096 0.79226 0.0
H722 H 0.25533 0.51014 0.78461 0.0
C723 C 0.29624 0.5192 0.70215 0.0
C724 C 0.24764 0.55785 0.73202 0.0
C725 C 0.31218 0.51977 0.68203 0.0
C726 C 0.18881 0.56323 0.8196 0.0
C727 C 0.20487 0.56307 0.7996 0.0
C728 C 0.25273 0.52335 0.76988 0.0
C729 C 0.28711 0.54174 0.7123 0.0
C730 C 0.26832 0.5412 0.73222 0.0
C731 C 0.21364 0.54017 0.78993 0.0
C732 C 0.23215 0.54012 0.76975 0.0
H733 H 0.31641 0.58362 0.67507 0.0
H734 H 0.28898 0.58258 0.7103 0.0
H735 H 0.28644 0.51096 0.75212 0.0
H736 H 0.18358 0.49966 0.82806 0.0
H737 H 0.21133 0.49942 0.79292 0.0
C738 C 0.96113 0.23279 0.84831 0.0
C739 C 0.94647 0.21083 0.85005 0.0
C740 C 0.96527 0.24427 0.82598 0.0
C741 C 0.95652 0.23568 0.75916 0.0
H742 H 0.9599 0.30884 0.75978 0.0
C743 C 0.93953 0.29966 0.67573 0.0
C744 C 0.9589 0.31697 0.67044 0.0
C745 C 0.93976 0.28599 0.6973 0.0
C746 C 0.95919 0.28841 0.75939 0.0
H747 H 0.925 0.18325 0.82992 0.0
H748 H 0.931 0.20394 0.79088 0.0
H749 H 0.95688 0.28592 0.79774 0.0
H750 H 0.99346 0.33378 0.68377 0.0
H751 H 0.99328 0.31048 0.72214 0.0
H752 H 0.95736 0.23869 0.72049 0.0
C753 C 0.94013 0.21197 0.80658 0.0
C754 C 0.95765 0.27514 0.78116 0.0
C755 C 0.93657 0.20008 0.82895 0.0
C756 C 0.97831 0.3206 0.68738 0.0
C757 C 0.9782 0.30731 0.70927 0.0
C758 C 0.95749 0.24904 0.73736 0.0
C759 C 0.95417 0.23454 0.80483 0.0
C760 C 0.95635 0.24854 0.78143 0.0
C761 C 0.95905 0.28972 0.71428 0.0
C762 C 0.95886 0.27551 0.73731 0.0
H763 H 0.96922 0.24127 0.86436 0.0
H764 H 0.97692 0.26104 0.82544 0.0
H765 H 0.95601 0.21528 0.75847 0.0
H766 H 0.92441 0.29627 0.66296 0.0
H767 H 0.9247 0.27267 0.70086 0.0
C768 C 0.44774 0.97896 0.9234 0.0
C769 C 0.42215 0.98324 0.92868 0.0
C770 C 0.46631 0.98338 0.94085 0.0
C771 C 0.47428 0.98826 0.00704 0.0
H772 H 0.53974 0.01579 0.99029 0.0
C773 C 0.54913 0.01772 0.07818 0.0
C774 C 0.57457 0.01286 0.07268 0.0
C775 C 0.53023 0.01309 0.06109 0.0
C776 C 0.52166 0.00779 0.99522 0.0
H777 H 0.39616 0.99675 0.95595 0.0
H778 H 0.42854 0.00479 0.98631 0.0
H779 H 0.50755 0.01133 0.95915 0.0
H780 H 0.59991 0.99793 0.04553 0.0
H781 H 0.56698 0.98968 0.01578 0.0
H782 H 0.48841 0.98484 0.04316 0.0
C783 C 0.43423 0.99743 0.96889 0.0
C784 C 0.50318 0.00527 0.97736 0.0
C785 C 0.41568 0.99294 0.95148 0.0
C786 C 0.58053 0.00221 0.05014 0.0
C787 C 0.56168 0.9976 0.03308 0.0
C788 C 0.49275 0.99084 0.02492 0.0
C789 C 0.45973 0.99227 0.96395 0.0
C790 C 0.47927 0.99544 0.98303 0.0
C791 C 0.53637 0.00349 0.03814 0.0
C792 C 0.51669 0.00055 0.0192 0.0
H793 H 0.45335 0.97115 0.90616 0.0
H794 H 0.48574 0.97896 0.9365 0.0
H795 H 0.45622 0.98022 0.01198 0.0
H796 H 0.54392 0.02623 0.09523 0.0
H797 H 0.51093 0.018 0.0655 0.0
C798 C 0.51545 0.44785 0.9229 0.0
C799 C 0.51084 0.42226 0.92797 0.0
C800 C 0.51157 0.46627 0.9406 0.0
C801 C 0.47981 0.47846 0.99903 0.0
H802 H 0.53203 0.52912 0.00664 0.0
C803 C 0.4804 0.54691 0.08002 0.0
C804 C 0.48515 0.5724 0.07463 0.0
C805 C 0.48467 0.52817 0.06269 0.0
C806 C 0.51717 0.51524 0.00463 0.0
H807 H 0.49737 0.39613 0.95516 0.0
H808 H 0.49075 0.42819 0.98611 0.0
H809 H 0.53554 0.49788 0.97449 0.0
H810 H 0.4993 0.59803 0.04733 0.0
H811 H 0.50652 0.56547 0.01703 0.0
H812 H 0.46139 0.49587 0.02911 0.0
C813 C 0.49733 0.43406 0.96846 0.0
C814 C 0.51914 0.49738 0.98616 0.0
C815 C 0.50129 0.41566 0.9508 0.0
C816 C 0.49528 0.57858 0.05193 0.0
C817 C 0.49958 0.55988 0.03464 0.0
C818 C 0.47782 0.49634 0.01749 0.0
C819 C 0.50288 0.45953 0.96372 0.0
C820 C 0.50046 0.4788 0.98311 0.0
C821 C 0.49385 0.53451 0.03963 0.0
C822 C 0.49647 0.51497 0.02051 0.0
H823 H 0.52303 0.45357 0.9056 0.0
H824 H 0.51567 0.48578 0.93627 0.0
H825 H 0.46495 0.46458 0.997 0.0
H826 H 0.47238 0.5415 0.09723 0.0
H827 H 0.48041 0.50875 0.06724 0.0
C828 C 0.04846 0.51603 0.92095 0.0
C829 C 0.07404 0.51066 0.92525 0.0
C830 C 0.0304 0.51172 0.93891 0.0
C831 C 0.02542 0.50632 0.00514 0.0
H832 H 0.95803 0.48177 0.99145 0.0
C833 C 0.95393 0.47899 0.07974 0.0
C834 C 0.92838 0.48475 0.07572 0.0
C835 C 0.97187 0.48319 0.06166 0.0
C836 C 0.97668 0.48896 0.99552 0.0
H837 H 0.10052 0.49517 0.95107 0.0
H838 H 0.06903 0.48728 0.98232 0.0
H839 H 0.98872 0.48512 0.95879 0.0
H840 H 0.90187 0.50076 0.05018 0.0
H841 H 0.93318 0.50832 0.01868 0.0
H842 H 0.01339 0.51012 0.04187 0.0
C843 C 0.06297 0.49539 0.96532 0.0
C844 C 0.99428 0.49082 0.9768 0.0
C845 C 0.08098 0.49975 0.9474 0.0
C846 C 0.92137 0.49584 0.05366 0.0
C847 C 0.93927 0.50004 0.03559 0.0
C848 C 0.00783 0.50444 0.02385 0.0
C849 C 0.03756 0.5019 0.96151 0.0
C850 C 0.01888 0.49948 0.9814 0.0
C851 C 0.96464 0.49326 0.03919 0.0
C852 C 0.98325 0.49575 0.01926 0.0
H853 H 0.04255 0.52478 0.90421 0.0
H854 H 0.01103 0.51712 0.93545 0.0
H855 H 0.04406 0.51353 0.00923 0.0
H856 H 0.95992 0.47008 0.09637 0.0
H857 H 0.99122 0.47756 0.06493 0.0
C858 C 0.98545 0.05628 0.92523 0.0
C859 C 0.98822 0.08163 0.93225 0.0
C860 C 0.99048 0.03674 0.94157 0.0
C861 C 0.02174 0.02216 1.00003 0.0
H862 H 0.97245 0.96816 0.00322 0.0
C863 C 0.0199 0.95133 0.07917 0.0
C864 C 0.01658 0.92573 0.07325 0.0
C865 C 0.01615 0.97014 0.06179 0.0
C866 C 0.98653 0.98295 0.00242 0.0
H867 H -0.00017 0.10625 0.96143 0.0
H868 H 0.00838 0.07229 0.98996 0.0
H869 H 0.96832 0.00083 0.97243 0.0
H870 H 0.00565 0.89999 0.04473 0.0
H871 H 0.99931 0.93275 0.01435 0.0
H872 H 0.03985 0.00436 0.03011 0.0
C873 C 0.00237 0.06743 0.97186 0.0
C874 C 0.98422 0.00165 0.9847 0.0
C875 C 0.99728 0.08692 0.95556 0.0
C876 C 0.00856 0.9195 0.04979 0.0
C877 C 0.00476 0.9383 0.03243 0.0
C878 C 0.02404 0.00347 0.01774 0.0
C879 C 0.99852 0.0421 0.96524 0.0
C880 C 0.00173 0.02155 0.98335 0.0
C881 C 0.00892 0.96383 0.03811 0.0
C882 C 0.00639 0.98371 0.01924 0.0
H883 H 0.97832 0.05151 0.9075 0.0
H884 H 0.98768 0.01742 0.93578 0.0
H885 H 0.03576 0.03701 0.9993 0.0
H886 H 0.02629 0.95683 0.09696 0.0
H887 H 0.01915 0.98965 0.06687 0.0
C888 C 0.44434 0.50334 0.57845 0.0
C889 C 0.42384 0.51867 0.57166 0.0
C890 C 0.46347 0.49763 0.56184 0.0
C891 C 0.49284 0.52211 0.50644 0.0
H892 H 0.51769 0.45394 0.49767 0.0
C893 C 0.55929 0.49557 0.42766 0.0
C894 C 0.57868 0.47822 0.43253 0.0
C895 C 0.54052 0.50036 0.44486 0.0
C896 C 0.51123 0.47316 0.50011 0.0
H897 H 0.40759 0.53974 0.54171 0.0
H898 H 0.4406 0.52982 0.5132 0.0
H899 H 0.4853 0.4623 0.52798 0.0
H900 H 0.59293 0.45168 0.45924 0.0
H901 H 0.56109 0.46074 0.48929 0.0
H902 H 0.51885 0.53314 0.47887 0.0
C903 C 0.44197 0.52232 0.53137 0.0
C904 C 0.49265 0.4779 0.51747 0.0
C905 C 0.42282 0.52779 0.54779 0.0
C906 C 0.57876 0.46567 0.45495 0.0
C907 C 0.56013 0.47052 0.47213 0.0
C908 C 0.51153 0.51743 0.48924 0.0
C909 C 0.4626 0.50739 0.53823 0.0
C910 C 0.48314 0.50239 0.52067 0.0
C911 C 0.54074 0.48788 0.46733 0.0
C912 C 0.52087 0.49287 0.48574 0.0
H913 H 0.44561 0.49585 0.5966 0.0
H914 H 0.47921 0.48606 0.56762 0.0
H915 H 0.4861 0.54126 0.50876 0.0
H916 H 0.55869 0.50552 0.41059 0.0
H917 H 0.52567 0.5136 0.44041 0.0
C918 C 0.97849 0.41617 0.54383 0.0
C919 C 0.98752 0.4185 0.56764 0.0
C920 C 0.98414 0.43429 0.5264 0.0
C921 C 0.0053 0.50062 0.51962 0.0
H922 H 0.01071 0.48097 0.45236 0.0
C923 C 0.00322 0.57503 0.4439 0.0
C924 C 0.01855 0.57126 0.42358 0.0
C925 C -7e-05 0.55583 0.46091 0.0
C926 C 0.00957 0.48687 0.47105 0.0
H927 H 0.01032 0.44153 0.59143 0.0
H928 H 0.02095 0.47298 0.56068 0.0
H929 H 0.00677 0.44873 0.48327 0.0
H930 H 0.04254 0.54455 0.40501 0.0
H931 H 0.03738 0.51105 0.43491 0.0
H932 H 0.00914 0.53872 0.50748 0.0
C933 C 0.00887 0.45735 0.55572 0.0
C934 C 0.00693 0.46831 0.48883 0.0
C935 C 0.00291 0.43927 0.57335 0.0
C936 C 0.03017 0.54771 0.42028 0.0
C937 C 0.02722 0.52857 0.43749 0.0
C938 C 0.00827 0.51917 0.50185 0.0
C939 C 0.99935 0.4552 0.53203 0.0
C940 C 0.00433 0.47492 0.51334 0.0
C941 C 0.01233 0.53249 0.45825 0.0
C942 C 0.01006 0.51259 0.47726 0.0
H943 H 0.96625 0.40081 0.53864 0.0
H944 H 0.97588 0.43219 0.50862 0.0
H945 H 0.00314 0.50655 0.53821 0.0
H946 H 0.99416 0.5931 0.44679 0.0
H947 H 0.9878 0.55943 0.47626 0.0
C948 C 0.94977 0.01767 0.41867 0.0
C949 C 0.92436 0.01273 0.42425 0.0
C950 C 0.96867 0.01374 0.43593 0.0
C951 C 0.98221 0.98172 0.49419 0.0
H952 H 0.03315 0.03382 0.50081 0.0
C953 C 0.05029 0.98416 0.57543 0.0
C954 C 0.07587 0.98855 0.57015 0.0
C955 C 0.03177 0.98792 0.55779 0.0
C956 C 0.01919 0.019 0.49907 0.0
H957 H 0.89908 0.99867 0.45188 0.0
H958 H 0.93191 0.99208 0.48204 0.0
H959 H 0.00151 0.03718 0.46896 0.0
H960 H 0.10187 0.00145 0.54262 0.0
H961 H 0.0696 0.00791 0.51178 0.0
H962 H -0.00017 0.96361 0.52437 0.0
C963 C 0.93731 0.99889 0.46434 0.0
C964 C 0.0011 0.02087 0.48075 0.0
C965 C 0.91845 0.00283 0.44712 0.0
C966 C 0.08235 0.99775 0.54715 0.0
C967 C 0.06383 0.00159 0.52955 0.0
C968 C 0.00027 0.97988 0.51253 0.0
C969 C 0.96261 0.00472 0.45912 0.0
C970 C 0.98236 0.00227 0.47811 0.0
C971 C 0.03837 0.99626 0.53451 0.0
C972 C 0.01894 0.99852 0.51522 0.0
H973 H 0.95498 0.02553 0.40134 0.0
H974 H 0.98802 0.01808 0.43119 0.0
H975 H 0.96828 0.96688 0.49247 0.0
H976 H 0.04464 0.97684 0.59285 0.0
H977 H 0.01227 0.98398 0.56229 0.0
C978 C 0.49849 0.92282 0.44279 0.0
C979 C 0.48819 0.92949 0.42029 0.0
C980 C 0.50281 0.94112 0.46046 0.0
C981 C 0.48075 0.00413 0.47899 0.0
H982 H 0.53863 0.00198 0.5218 0.0
C983 C 0.50477 0.08386 0.54645 0.0
C984 C 0.51444 0.07698 0.56916 0.0
C985 C 0.50054 0.06565 0.52867 0.0
C986 C 0.52219 0.00263 0.51019 0.0
H987 H 0.4752 0.96087 0.39841 0.0
H988 H 0.48329 0.99293 0.42904 0.0
H989 H 0.53515 0.97136 0.4891 0.0
H990 H 0.52651 0.0454 0.59124 0.0
H991 H 0.51873 0.0135 0.56033 0.0
H992 H 0.46784 0.03545 0.50007 0.0
C993 C 0.48764 0.97342 0.43315 0.0
C994 C 0.52023 0.98513 0.4914 0.0
C995 C 0.48335 0.95509 0.41545 0.0
C996 C 0.51885 0.05131 0.57403 0.0
C997 C 0.51472 0.03308 0.5562 0.0
C998 C 0.48273 0.02165 0.49776 0.0
C999 C 0.49694 0.96658 0.45604 0.0
C1000 C 0.49949 0.98566 0.47557 0.0
C1001 C 0.50596 0.04011 0.53317 0.0
C1002 C 0.50345 0.02109 0.5136 0.0
H1003 H 0.50258 0.90327 0.44696 0.0
H1004 H 0.50985 0.93514 0.47792 0.0
H1005 H 0.46428 0.00477 0.46743 0.0
H1006 H 0.50103 0.10347 0.54226 0.0
H1007 H 0.49391 0.07173 0.5111 0.0
C1008 C 0.50386 0.24868 0.96895 0.0
C1009 C 0.51934 0.25038 0.94835 0.0
C1010 C 0.50645 0.22843 0.98507 0.0
C1011 C 0.53757 0.16555 0.99205 0.0
H1012 H 0.54465 0.18525 0.05911 0.0
C1013 C 0.58619 0.09854 0.05766 0.0
C1014 C 0.60352 0.10972 0.07348 0.0
C1015 C 0.56813 0.11323 0.0459 0.0
C1016 C 0.54283 0.17941 0.04045 0.0
H1017 H 0.54927 0.23159 0.92843 0.0
H1018 H 0.55353 0.19674 0.95599 0.0
H1019 H 0.52692 0.21495 0.03011 0.0
H1020 H 0.61523 0.1445 0.09045 0.0
H1021 H 0.5848 0.17071 0.06878 0.0
H1022 H 0.55545 0.13105 0.00158 0.0
C1023 C 0.53901 0.21061 0.95963 0.0
C1024 C 0.53224 0.19633 0.02388 0.0
C1025 C 0.53648 0.23072 0.94365 0.0
C1026 C 0.6019 0.13559 0.07832 0.0
C1027 C 0.58429 0.1505 0.06598 0.0
C1028 C 0.54849 0.14885 0.00846 0.0
C1029 C 0.52452 0.20948 0.98085 0.0
C1030 C 0.5304 0.18992 0.99929 0.0
C1031 C 0.56764 0.1396 0.04903 0.0
C1032 C 0.55207 0.15582 0.03276 0.0
H1033 H 0.49035 0.26341 0.97302 0.0
H1034 H 0.4948 0.22796 0.00113 0.0
H1035 H 0.53594 0.1598 0.97334 0.0
H1036 H 0.58696 0.07845 0.05402 0.0
H1037 H 0.55515 0.10396 0.03369 0.0
C1038 C 0.26311 0.54338 0.94688 0.0
C1039 C 0.24329 0.52631 0.95108 0.0
C1040 C 0.28346 0.54484 0.96267 0.0
C1041 C 0.29927 0.53442 0.02615 0.0
H1042 H 0.36439 0.55716 0.00302 0.0
C1043 C 0.36271 0.60032 0.08166 0.0
C1044 C 0.3884 0.60201 0.07604 0.0
C1045 C 0.34725 0.58342 0.06909 0.0
C1046 C 0.34666 0.55027 0.01012 0.0
H1047 H 0.22994 0.4966 0.9748 0.0
H1048 H 0.26585 0.49913 0.00261 0.0
H1049 H 0.3344 0.53967 0.97483 0.0
H1050 H 0.41885 0.58618 0.05491 0.0
H1051 H 0.39241 0.55548 0.03414 0.0
H1052 H 0.31169 0.54479 0.06155 0.0
C1053 C 0.26537 0.51151 0.98705 0.0
C1054 C 0.32923 0.54054 0.99374 0.0
C1055 C 0.24486 0.51003 0.97112 0.0
C1056 C 0.3989 0.58538 0.05915 0.0
C1057 C 0.38366 0.56796 0.04715 0.0
C1058 C 0.31694 0.54377 0.04269 0.0
C1059 C 0.28468 0.52929 0.98321 0.0
C1060 C 0.3049 0.53368 0.00135 0.0
C1061 C 0.35741 0.5675 0.05112 0.0
C1062 C 0.34048 0.55288 0.03472 0.0
H1063 H 0.26231 0.55678 0.93212 0.0
H1064 H 0.29757 0.55923 0.95941 0.0
H1065 H 0.28071 0.52925 0.03267 0.0
H1066 H 0.35433 0.61311 0.09465 0.0
H1067 H 0.32716 0.58397 0.07256 0.0
C1068 C 0.98031 0.2615 0.95931 0.0
C1069 C 0.9891 0.23856 0.96868 0.0
C1070 C 0.97859 0.28276 0.97406 0.0
C1071 C 0.97152 0.2963 0.03949 0.0
H1072 H 0.95718 0.36264 0.01363 0.0
C1073 C 0.89933 0.36107 0.08509 0.0
C1074 C 0.89934 0.38695 0.08016 0.0
C1075 C 0.91709 0.3453 0.07412 0.0
C1076 C 0.96155 0.34451 0.0216 0.0
H1077 H 0.00578 0.22039 0.99981 0.0
H1078 H 0.00474 0.25803 0.02519 0.0
H1079 H 0.9802 0.33269 0.98941 0.0
H1080 H 0.91848 0.41727 0.06153 0.0
H1081 H 0.95074 0.39025 0.04379 0.0
H1082 H 0.95417 0.30857 0.07218 0.0
C1083 C 0.9978 0.25943 0.00686 0.0
C1084 C 0.97444 0.32699 0.00735 0.0
C1085 C 0.99885 0.23793 0.99224 0.0
C1086 C 0.91805 0.39718 0.06523 0.0
C1087 C 0.93638 0.38158 0.05492 0.0
C1088 C 0.9594 0.3141 0.05405 0.0
C1089 C 0.98616 0.28172 0.99846 0.0
C1090 C 0.97839 0.30216 0.01556 0.0
C1091 C 0.93576 0.35525 0.05859 0.0
C1092 C 0.95301 0.33805 0.0449 0.0
H1093 H 0.97234 0.26237 0.94129 0.0
H1094 H 0.96927 0.29921 0.9667 0.0
H1095 H 0.97405 0.27751 0.04675 0.0
H1096 H 0.88485 0.35289 0.09649 0.0
H1097 H 0.91537 0.3252 0.07714 0.0
C1098 C 0.23051 0.96685 0.94723 0.0
C1099 C 0.2531 0.97944 0.95312 0.0
C1100 C 0.21043 0.9662 0.96345 0.0
C1101 C 0.16765 0.97191 0.99927 0.0
H1102 H 0.19087 0.94086 0.0587 0.0
C1103 C 0.11045 0.89691 0.04815 0.0
C1104 C 0.11138 0.89476 0.0734 0.0
C1105 C 0.12515 0.91477 0.0362 0.0
C1106 C 0.18394 0.95009 0.04256 0.0
H1107 H 0.27102 0.00327 0.98006 0.0
H1108 H 0.23615 0.00102 0.0089 0.0
H1109 H 0.22113 0.96132 0.03198 0.0
H1110 H 0.12794 0.91008 0.10605 0.0
H1111 H 0.15388 0.94145 0.08504 0.0
H1112 H 0.13062 0.95974 0.00928 0.0
C1113 C 0.23423 0.99176 0.99156 0.0
C1114 C 0.2013 0.96185 0.02725 0.0
C1115 C 0.25423 0.99286 0.97508 0.0
C1116 C 0.12698 0.91122 0.08654 0.0
C1117 C 0.14181 0.92915 0.07452 0.0
C1118 C 0.15027 0.96032 0.01464 0.0
C1119 C 0.21246 0.97775 0.98615 0.0
C1120 C 0.19347 0.97182 0.00495 0.0
C1121 C 0.14116 0.931 0.04918 0.0
C1122 C 0.15841 0.94819 0.03587 0.0
H1123 H 0.2288 0.95581 0.93088 0.0
H1124 H 0.19403 0.95494 0.9589 0.0
H1125 H 0.16109 0.97973 0.98231 0.0
H1126 H 0.09856 0.88457 0.03749 0.0
H1127 H 0.12455 0.91527 0.01665 0.0
C1128 C 0.59434 0.37107 0.41321 0.0
C1129 C 0.61107 0.3862 0.42654 0.0
C1130 C 0.5761 0.35647 0.42505 0.0
C1131 C 0.54432 0.3485 0.4846 0.0
H1132 H 0.54159 0.27773 0.46708 0.0
C1133 C 0.50899 0.24525 0.5237 0.0
C1134 C 0.52237 0.24599 0.5457 0.0
C1135 C 0.5106 0.26529 0.50728 0.0
C1136 C 0.54153 0.29756 0.47185 0.0
H1137 H 0.62148 0.39839 0.4626 0.0
H1138 H 0.59023 0.37278 0.48312 0.0
H1139 H 0.56308 0.30753 0.4406 0.0
H1140 H 0.54646 0.26967 0.5681 0.0
H1141 H 0.54821 0.30451 0.5402 0.0
H1142 H 0.52433 0.3381 0.51673 0.0
C1143 C 0.59078 0.37236 0.46357 0.0
C1144 C 0.5539 0.31465 0.45669 0.0
C1145 C 0.60897 0.38681 0.4518 0.0
C1146 C 0.53544 0.26827 0.55171 0.0
C1147 C 0.53659 0.28839 0.53556 0.0
C1148 C 0.53212 0.33139 0.49981 0.0
C1149 C 0.57419 0.35692 0.45039 0.0
C1150 C 0.55642 0.34009 0.46348 0.0
C1151 C 0.52509 0.28671 0.5128 0.0
C1152 C 0.53158 0.30559 0.49408 0.0
H1153 H 0.59543 0.37038 0.39369 0.0
H1154 H 0.56353 0.34481 0.41439 0.0
H1155 H 0.5454 0.36811 0.49002 0.0
H1156 H 0.49822 0.22872 0.51862 0.0
H1157 H 0.50137 0.26365 0.48989 0.0
C1158 C 0.09846 0.58755 0.44678 0.0
C1159 C 0.10977 0.60368 0.4299 0.0
C1160 C 0.11287 0.56956 0.45898 0.0
C1161 C 0.17855 0.54257 0.4636 0.0
H1162 H 0.16046 0.53801 0.53126 0.0
C1163 C 0.25051 0.50783 0.53418 0.0
C1164 C 0.25226 0.52392 0.55431 0.0
C1165 C 0.22961 0.50914 0.51871 0.0
C1166 C 0.16582 0.53902 0.51241 0.0
H1167 H 0.14445 0.61333 0.41158 0.0
H1168 H 0.1702 0.58327 0.43404 0.0
H1169 H 0.13128 0.55695 0.50312 0.0
H1170 H 0.23296 0.5535 0.57423 0.0
H1171 H 0.19713 0.55579 0.54767 0.0
H1172 H 0.21423 0.52687 0.4736 0.0
C1173 C 0.15008 0.58352 0.43735 0.0
C1174 C 0.14883 0.54959 0.49605 0.0
C1175 C 0.13544 0.60098 0.42459 0.0
C1176 C 0.23208 0.54032 0.55931 0.0
C1177 C 0.21137 0.54167 0.54393 0.0
C1178 C 0.1958 0.53246 0.48011 0.0
C1179 C 0.13911 0.56797 0.4552 0.0
C1180 C 0.1553 0.55243 0.47153 0.0
C1181 C 0.21012 0.52662 0.52306 0.0
C1182 C 0.19002 0.53158 0.50489 0.0
H1183 H 0.07848 0.58907 0.45074 0.0
H1184 H 0.10348 0.55743 0.47189 0.0
H1185 H 0.18397 0.54364 0.44478 0.0
H1186 H 0.26568 0.49488 0.52993 0.0
H1187 H 0.22909 0.49704 0.50296 0.0
C1188 C 0.90947 0.09653 0.441 0.0
C1189 C 0.89314 0.10754 0.42412 0.0
C1190 C 0.92697 0.1113 0.45341 0.0
C1191 C 0.9526 0.17739 0.45852 0.0
H1192 H 0.95803 0.1586 0.52597 0.0
C1193 C 0.99026 0.24799 0.5289 0.0
C1194 C 0.9751 0.24973 0.54968 0.0
C1195 C 0.98791 0.22736 0.51325 0.0
C1196 C 0.95673 0.16419 0.50719 0.0
H1197 H 0.88257 0.14212 0.40608 0.0
H1198 H 0.91186 0.1685 0.42887 0.0
H1199 H 0.93874 0.12971 0.49779 0.0
H1200 H 0.94619 0.23069 0.57065 0.0
H1201 H 0.94199 0.19528 0.54366 0.0
H1202 H 0.96849 0.21294 0.46862 0.0
C1203 C 0.91211 0.14834 0.43201 0.0
C1204 C 0.94598 0.14736 0.4908 0.0
C1205 C 0.89513 0.13334 0.41903 0.0
C1206 C 0.95862 0.22976 0.55515 0.0
C1207 C 0.95618 0.20933 0.53953 0.0
C1208 C 0.96292 0.19447 0.47506 0.0
C1209 C 0.92785 0.13762 0.44986 0.0
C1210 C 0.943 0.154 0.46633 0.0
C1211 C 0.97025 0.20815 0.51802 0.0
C1212 C 0.96426 0.1884 0.49977 0.0
H1213 H 0.90844 0.07649 0.44485 0.0
H1214 H 0.93927 0.10212 0.46632 0.0
H1215 H 0.95132 0.18298 0.43975 0.0
H1216 H 0.00324 0.26302 0.52429 0.0
H1217 H 0.99934 0.22687 0.49705 0.0
C1218 C 0.40283 0.91523 0.4405 0.0
C1219 C 0.39211 0.90058 0.42213 0.0
C1220 C 0.38802 0.93223 0.45351 0.0
C1221 C 0.32232 0.95914 0.45808 0.0
H1222 H 0.33837 0.95834 0.52635 0.0
C1223 C 0.25009 0.99218 0.52974 0.0
C1224 C 0.24758 0.97531 0.54922 0.0
C1225 C 0.27084 0.99048 0.51411 0.0
C1226 C 0.33357 0.9588 0.50734 0.0
H1227 H 0.35806 0.89255 0.40207 0.0
H1228 H 0.33157 0.92083 0.42581 0.0
H1229 H 0.36812 0.94105 0.49784 0.0
H1230 H 0.26506 0.94351 0.56751 0.0
H1231 H 0.30063 0.94053 0.54065 0.0
H1232 H 0.28659 0.97475 0.46815 0.0
C1233 C 0.35156 0.92022 0.42973 0.0
C1234 C 0.3509 0.9492 0.49079 0.0
C1235 C 0.36663 0.90381 0.4162 0.0
C1236 C 0.26665 0.95734 0.55317 0.0
C1237 C 0.28719 0.9556 0.53764 0.0
C1238 C 0.30471 0.9683 0.47476 0.0
C1239 C 0.36192 0.93421 0.44903 0.0
C1240 C 0.34521 0.94842 0.46596 0.0
C1241 C 0.28939 0.97181 0.51765 0.0
C1242 C 0.30977 0.9673 0.49967 0.0
H1243 H 0.42264 0.91328 0.44501 0.0
H1244 H 0.39697 0.94322 0.46758 0.0
H1245 H 0.31749 0.95958 0.43909 0.0
H1246 H 0.23573 0.00627 0.52626 0.0
H1247 H 0.27208 0.0034 0.499 0.0
C1248 C 0.48684 0.73905 0.02099 0.0
C1249 C 0.47459 0.7403 0.04357 0.0
C1250 C 0.4849 0.75899 0.00446 0.0
C1251 C 0.45364 0.79287 0.97022 0.0
H1252 H 0.455 0.86344 0.9887 0.0
C1253 C 0.4035 0.87013 0.91364 0.0
C1254 C 0.38843 0.88638 0.92758 0.0
C1255 C 0.42113 0.85421 0.92479 0.0
C1256 C 0.45459 0.84383 0.9832 0.0
H1257 H 0.45184 0.76466 0.06661 0.0
H1258 H 0.4497 0.79933 0.03855 0.0
H1259 H 0.47515 0.832 0.01454 0.0
H1260 H 0.38033 0.89908 0.96401 0.0
H1261 H 0.4105 0.87126 0.98335 0.0
H1262 H 0.43151 0.80439 0.93981 0.0
C1263 C 0.46068 0.78288 0.03357 0.0
C1264 C 0.46627 0.82589 0.99791 0.0
C1265 C 0.46211 0.76286 0.04982 0.0
C1266 C 0.3916 0.88674 0.95274 0.0
C1267 C 0.40917 0.87097 0.96383 0.0
C1268 C 0.44176 0.81081 0.95557 0.0
C1269 C 0.47127 0.78083 0.01045 0.0
C1270 C 0.46498 0.80015 0.99207 0.0
C1271 C 0.42407 0.85441 0.95005 0.0
C1272 C 0.44115 0.83634 0.96249 0.0
H1273 H 0.4971 0.7223 0.01564 0.0
H1274 H 0.49336 0.75705 0.98675 0.0
H1275 H 0.45219 0.77311 0.96541 0.0
H1276 H 0.40154 0.86955 0.89418 0.0
H1277 H 0.4324 0.84173 0.91368 0.0
C1278 C 0.73834 0.46015 0.05565 0.0
C1279 C 0.76056 0.47117 0.04648 0.0
C1280 C 0.71799 0.455 0.0406 0.0
C1281 C 0.69046 0.46214 0.97941 0.0
H1282 H 0.66742 0.3941 0.99306 0.0
C1283 C 0.62629 0.39912 0.91716 0.0
C1284 C 0.60718 0.38594 0.92947 0.0
C1285 C 0.64395 0.4135 0.93006 0.0
C1286 C 0.67347 0.4132 0.98912 0.0
H1287 H 0.77707 0.48812 0.01437 0.0
H1288 H 0.7419 0.47757 0.98775 0.0
H1289 H 0.6996 0.41295 0.0183 0.0
H1290 H 0.59051 0.37882 0.96462 0.0
H1291 H 0.62113 0.40371 0.98691 0.0
H1292 H 0.66429 0.46175 0.94967 0.0
C1293 C 0.74041 0.47314 0.0068 0.0
C1294 C 0.69184 0.4241 0.00366 0.0
C1295 C 0.76074 0.47886 0.02207 0.0
C1296 C 0.60525 0.38841 0.95464 0.0
C1297 C 0.62277 0.40267 0.96742 0.0
C1298 C 0.672 0.45106 0.96463 0.0
C1299 C 0.71937 0.46002 0.01576 0.0
C1300 C 0.70023 0.44886 0.99934 0.0
C1301 C 0.64269 0.41479 0.95538 0.0
C1302 C 0.66306 0.42664 0.96971 0.0
H1303 H 0.737 0.45359 0.0741 0.0
H1304 H 0.70167 0.4456 0.04823 0.0
H1305 H 0.69667 0.48119 0.97556 0.0
H1306 H 0.62812 0.39764 0.89773 0.0
H1307 H 0.65918 0.42265 0.92038 0.0
C1308 C 0.01211 0.75114 0.03402 0.0
C1309 C 0.02914 0.75357 0.05337 0.0
C1310 C 0.01357 0.73037 0.01839 0.0
C1311 C 0.04464 0.66736 0.01155 0.0
H1312 H 0.0435 0.68322 0.94324 0.0
C1313 C 0.087 0.59737 0.94475 0.0
C1314 C 0.10173 0.60788 0.92631 0.0
C1315 C 0.07017 0.6124 0.95773 0.0
C1316 C 0.04403 0.67845 0.96224 0.0
H1317 H 0.06099 0.73592 0.07142 0.0
H1318 H 0.06353 0.70029 0.04457 0.0
H1319 H 0.02889 0.71439 0.97232 0.0
H1320 H 0.11001 0.64176 0.90608 0.0
H1321 H 0.082 0.66862 0.92973 0.0
H1322 H 0.06189 0.63257 0.00203 0.0
C1323 C 0.04853 0.71384 0.04166 0.0
C1324 C 0.0352 0.69622 0.97893 0.0
C1325 C 0.04704 0.73441 0.05719 0.0
C1326 C 0.09869 0.63335 0.92025 0.0
C1327 C 0.08243 0.64864 0.93375 0.0
C1328 C 0.05389 0.64985 0.99498 0.0
C1329 C 0.03215 0.7117 0.02181 0.0
C1330 C 0.03633 0.69123 0.00386 0.0
C1331 C 0.06844 0.63851 0.95315 0.0
C1332 C 0.05453 0.65545 0.97012 0.0
H1333 H 0.99806 0.76556 0.03064 0.0
H1334 H 0.00051 0.72919 0.00339 0.0
H1335 H 0.04519 0.66262 0.03057 0.0
H1336 H 0.08882 0.57757 0.94939 0.0
H1337 H 0.05914 0.60363 0.97188 0.0
C1338 C 0.76331 0.03139 0.04222 0.0
C1339 C 0.73965 0.02081 0.03651 0.0
C1340 C 0.78269 0.03193 0.02523 0.0
C1341 C 0.8232 0.02326 0.98682 0.0
H1342 H 0.80282 0.06885 0.93556 0.0
C1343 C 0.88821 0.09924 0.95177 0.0
C1344 C 0.88672 0.10819 0.92795 0.0
C1345 C 0.87195 0.08048 0.9599 0.0
C1346 C 0.80886 0.05552 0.94921 0.0
H1347 H 0.71908 0.00036 0.00869 0.0
H1348 H 0.75261 0.00304 0.97848 0.0
H1349 H 0.77078 0.0479 0.96004 0.0
H1350 H 0.86758 0.10386 0.89362 0.0
H1351 H 0.83874 0.07079 0.90797 0.0
H1352 H 0.86124 0.03155 0.97677 0.0
C1353 C 0.75591 0.01059 0.99638 0.0
C1354 C 0.79047 0.04352 0.96324 0.0
C1355 C 0.73666 0.00935 0.01367 0.0
C1356 C 0.86905 0.09737 0.91212 0.0
C1357 C 0.85256 0.0785 0.92034 0.0
C1358 C 0.84156 0.03492 0.97259 0.0
C1359 C 0.77885 0.02244 0.0019 0.0
C1360 C 0.79755 0.02839 0.98294 0.0
C1361 C 0.85369 0.07003 0.94445 0.0
C1362 C 0.83462 0.05236 0.95458 0.0
H1363 H 0.76658 0.04093 0.0592 0.0
H1364 H 0.80012 0.0415 0.02982 0.0
H1365 H 0.82906 0.01151 0.00182 0.0
H1366 H 0.90172 0.10705 0.96441 0.0
H1367 H 0.87308 0.07493 0.9787 0.0
C1368 C 0.48589 0.75561 0.46586 0.0
C1369 C 0.46977 0.75894 0.44593 0.0
C1370 C 0.48257 0.73506 0.48153 0.0
C1371 C 0.44769 0.67394 0.48695 0.0
H1372 H 0.44929 0.688 0.55558 0.0
C1373 C 0.40368 0.60336 0.55227 0.0
C1374 C 0.39014 0.6133 0.57177 0.0
C1375 C 0.4203 0.61851 0.53921 0.0
C1376 C 0.44854 0.68378 0.53647 0.0
H1377 H 0.43733 0.74344 0.42711 0.0
H1378 H 0.43148 0.70831 0.45407 0.0
H1379 H 0.46551 0.71916 0.52723 0.0
H1380 H 0.38359 0.64647 0.59359 0.0
H1381 H 0.41102 0.67376 0.56966 0.0
H1382 H 0.42866 0.63988 0.49557 0.0
C1383 C 0.44728 0.72081 0.45736 0.0
C1384 C 0.45831 0.70151 0.52021 0.0
C1385 C 0.45067 0.74108 0.44176 0.0
C1386 C 0.39394 0.63847 0.57855 0.0
C1387 C 0.4099 0.65399 0.56492 0.0
C1388 C 0.43745 0.65655 0.50306 0.0
C1389 C 0.46295 0.71761 0.4776 0.0
C1390 C 0.4572 0.69714 0.49518 0.0
C1391 C 0.42292 0.64434 0.54469 0.0
C1392 C 0.43707 0.66146 0.52805 0.0
H1393 H 0.50073 0.76913 0.46957 0.0
H1394 H 0.49508 0.73306 0.49688 0.0
H1395 H 0.4471 0.66963 0.46784 0.0
H1396 H 0.40126 0.58385 0.547 0.0
H1397 H 0.43059 0.60999 0.52443 0.0
C1398 C 0.77107 0.45566 0.44088 0.0
C1399 C 0.75116 0.47242 0.44575 0.0
C1400 C 0.79156 0.45383 0.4565 0.0
C1401 C 0.80635 0.46244 0.52057 0.0
H1402 H 0.87095 0.43729 0.49843 0.0
C1403 C 0.86613 0.39424 0.5774 0.0
C1404 C 0.89191 0.39178 0.57246 0.0
C1405 C 0.85148 0.41138 0.56423 0.0
C1406 C 0.85336 0.44482 0.50526 0.0
H1407 H 0.73807 0.50169 0.47006 0.0
H1408 H 0.77426 0.49868 0.49742 0.0
H1409 H 0.84236 0.45647 0.46988 0.0
H1410 H 0.92325 0.40639 0.55185 0.0
H1411 H 0.89833 0.43751 0.53001 0.0
H1412 H 0.81756 0.45116 0.55607 0.0
C1413 C 0.77369 0.48665 0.48162 0.0
C1414 C 0.83672 0.45553 0.48866 0.0
C1415 C 0.75303 0.48844 0.46593 0.0
C1416 C 0.90325 0.40777 0.55552 0.0
C1417 C 0.88886 0.42545 0.54293 0.0
C1418 C 0.82325 0.45216 0.53732 0.0
C1419 C 0.79283 0.46876 0.47745 0.0
C1420 C 0.81253 0.46331 0.49587 0.0
C1421 C 0.86257 0.42683 0.54636 0.0
C1422 C 0.84654 0.44216 0.52971 0.0
H1423 H 0.77008 0.44257 0.42589 0.0
H1424 H 0.80556 0.43944 0.45287 0.0
H1425 H 0.78789 0.46825 0.52683 0.0
H1426 H 0.85709 0.38195 0.59044 0.0
H1427 H 0.83132 0.41151 0.56728 0.0
C1428 C 0.01373 0.76381 0.45094 0.0
C1429 C 0.02119 0.73997 0.45965 0.0
C1430 C 0.01586 0.78523 0.46556 0.0
C1431 C 0.02827 0.80817 0.52771 0.0
H1432 H 0.07418 0.85446 0.496 0.0
C1433 C 0.09791 0.8708 0.58054 0.0
C1434 C 0.10645 0.89331 0.57004 0.0
C1435 C 0.08117 0.85515 0.56799 0.0
C1436 C 0.06086 0.84227 0.50514 0.0
H1437 H 0.03471 0.71999 0.49148 0.0
H1438 H 0.03753 0.75699 0.51686 0.0
H1439 H 0.05347 0.8219 0.47261 0.0
H1440 H 0.10291 0.91824 0.53922 0.0
H1441 H 0.07287 0.89167 0.51779 0.0
H1442 H 0.03598 0.82831 0.56039 0.0
C1443 C 0.03016 0.75913 0.49872 0.0
C1444 C 0.04897 0.82352 0.49163 0.0
C1445 C 0.02842 0.73781 0.48405 0.0
C1446 C 0.09696 0.90066 0.54746 0.0
C1447 C 0.07982 0.88536 0.53517 0.0
C1448 C 0.03989 0.82721 0.54123 0.0
C1449 C 0.02503 0.78317 0.48929 0.0
C1450 C 0.03316 0.80583 0.50288 0.0
C1451 C 0.07226 0.86201 0.54491 0.0
C1452 C 0.05697 0.84404 0.53024 0.0
H1453 H 0.00752 0.76616 0.43245 0.0
H1454 H 0.0115 0.80357 0.45796 0.0
H1455 H 0.01604 0.79481 0.53679 0.0
H1456 H 0.105 0.86476 0.59797 0.0
H1457 H 0.07612 0.83721 0.57601 0.0
C1458 C 0.61105 0.10486 0.54607 0.0
C1459 C 0.61169 0.10801 0.57123 0.0
C1460 C 0.62639 0.08703 0.53487 0.0
C1461 C 0.68605 0.05347 0.54258 0.0
H1462 H 0.66383 0.02086 0.48356 0.0
C1463 C 0.73288 0.03357 0.44784 0.0
C1464 C 0.75531 0.02072 0.4538 0.0
C1465 C 0.71299 0.03503 0.46422 0.0
C1466 C 0.67022 0.02951 0.5002 0.0
H1467 H 0.62852 0.09453 0.60452 0.0
H1468 H 0.65561 0.06318 0.58479 0.0
H1469 H 0.63292 0.04116 0.50984 0.0
H1470 H 0.77316 0.9975 0.48132 0.0
H1471 H 0.73869 0.0013 0.51046 0.0
H1472 H 0.7235 0.04264 0.53232 0.0
C1473 C 0.64324 0.07468 0.57378 0.0
C1474 C 0.65259 0.04128 0.51517 0.0
C1475 C 0.62774 0.09259 0.58506 0.0
C1476 C 0.75653 0.00807 0.4762 0.0
C1477 C 0.73674 0.01005 0.49287 0.0
C1478 C 0.70367 0.04148 0.52768 0.0
C1479 C 0.64278 0.07179 0.54851 0.0
C1480 C 0.66046 0.05447 0.53589 0.0
C1481 C 0.71507 0.02409 0.4872 0.0
C1482 C 0.69603 0.03043 0.50581 0.0
H1483 H 0.59885 0.11639 0.53489 0.0
H1484 H 0.62591 0.08574 0.51535 0.0
H1485 H 0.69277 0.06351 0.55835 0.0
H1486 H 0.73111 0.04412 0.43119 0.0
H1487 H 0.69666 0.04631 0.45948 0.0
C1488 C 0.81029 0.3281 0.12855 0.0
C1489 C 0.79285 0.34603 0.1202 0.0
C1490 C 0.8023 0.30369 0.1345 0.0
C1491 C 0.74705 0.26358 0.14786 0.0
H1492 H 0.78058 0.21423 0.10745 0.0
C1493 C 0.70003 0.16962 0.12041 0.0
C1494 C 0.7153 0.14934 0.11335 0.0
C1495 C 0.71097 0.1925 0.12749 0.0
C1496 C 0.7713 0.22739 0.11946 0.0
H1497 H 0.75337 0.35337 0.11322 0.0
H1498 H 0.73925 0.31091 0.1241 0.0
H1499 H 0.79737 0.25664 0.11015 0.0
H1500 H 0.7536 0.13598 0.10981 0.0
H1501 H 0.77291 0.17519 0.12367 0.0
H1502 H 0.72087 0.2344 0.15717 0.0
C1503 C 0.75907 0.31556 0.1259 0.0
C1504 C 0.78097 0.25184 0.12089 0.0
C1505 C 0.76712 0.33976 0.11954 0.0
C1506 C 0.74157 0.15159 0.11503 0.0
C1507 C 0.75254 0.17416 0.12271 0.0
C1508 C 0.73759 0.23892 0.1468 0.0
C1509 C 0.77668 0.29704 0.13264 0.0
C1510 C 0.7686 0.27034 0.1346 0.0
C1511 C 0.73745 0.19531 0.12811 0.0
C1512 C 0.7492 0.22063 0.13205 0.0
H1513 H 0.83024 0.33249 0.12902 0.0
H1514 H 0.81623 0.28973 0.13968 0.0
H1515 H 0.73723 0.27751 0.15867 0.0
H1516 H 0.6797 0.16823 0.11897 0.0
H1517 H 0.69861 0.20829 0.13118 0.0
C1518 C 0.1723 0.80921 0.13316 0.0
C1519 C 0.15478 0.79166 0.12425 0.0
C1520 C 0.19646 0.80131 0.14008 0.0
C1521 C 0.23628 0.746 0.15462 0.0
H1522 H 0.28654 0.7795 0.1152 0.0
C1523 C 0.32941 0.69798 0.12678 0.0
C1524 C 0.34991 0.71299 0.11982 0.0
C1525 C 0.30683 0.70923 0.13427 0.0
C1526 C 0.27311 0.77023 0.12696 0.0
H1527 H 0.1478 0.75209 0.11739 0.0
H1528 H 0.18978 0.73815 0.12992 0.0
H1529 H 0.24423 0.79658 0.11736 0.0
H1530 H 0.36405 0.75106 0.11695 0.0
H1531 H 0.32536 0.77089 0.13152 0.0
H1532 H 0.26508 0.71946 0.16411 0.0
C1533 C 0.18502 0.75797 0.13142 0.0
C1534 C 0.24872 0.78008 0.1281 0.0
C1535 C 0.1611 0.76593 0.12409 0.0
C1536 C 0.34826 0.73926 0.1221 0.0
C1537 C 0.32599 0.75052 0.13019 0.0
C1538 C 0.26087 0.73635 0.15385 0.0
C1539 C 0.20323 0.77568 0.13865 0.0
C1540 C 0.22988 0.76768 0.14135 0.0
C1541 C 0.30456 0.73574 0.13539 0.0
C1542 C 0.27946 0.7479 0.1394 0.0
H1543 H 0.16785 0.82915 0.13327 0.0
H1544 H 0.21017 0.81531 0.14563 0.0
H1545 H 0.22208 0.73616 0.16509 0.0
H1546 H 0.33036 0.67766 0.12488 0.0
H1547 H 0.29081 0.69712 0.13779 0.0
C1548 C 0.73679 0.33736 0.37143 0.0
C1549 C 0.71131 0.34448 0.37268 0.0
C1550 C 0.74352 0.31298 0.36436 0.0
C1551 C 0.7194 0.25015 0.3709 0.0
H1552 H 0.77758 0.23049 0.33285 0.0
C1553 C 0.75664 0.14924 0.37767 0.0
C1554 C 0.78291 0.14659 0.37899 0.0
C1555 C 0.7459 0.17176 0.36956 0.0
C1556 C 0.76137 0.23563 0.34368 0.0
H1557 H 0.67292 0.33232 0.36629 0.0
H1558 H 0.68463 0.28929 0.35431 0.0
H1559 H 0.76237 0.27402 0.33126 0.0
H1560 H 0.8187 0.16469 0.37214 0.0
H1561 H 0.8002 0.20467 0.35912 0.0
H1562 H 0.71925 0.21272 0.38485 0.0
C1563 C 0.69938 0.3027 0.35862 0.0
C1564 C 0.75256 0.26053 0.34258 0.0
C1565 C 0.69269 0.32728 0.36531 0.0
C1566 C 0.79837 0.16637 0.37103 0.0
C1567 C 0.78766 0.18921 0.36348 0.0
C1568 C 0.72841 0.22545 0.37233 0.0
C1569 C 0.72483 0.29513 0.35877 0.0
C1570 C 0.73179 0.26812 0.35656 0.0
C1571 C 0.76124 0.19248 0.36331 0.0
C1572 C 0.74987 0.21792 0.35914 0.0
H1573 H 0.75144 0.3504 0.37692 0.0
H1574 H 0.76325 0.30764 0.36485 0.0
H1575 H 0.70362 0.25556 0.3822 0.0
H1576 H 0.74446 0.13401 0.38353 0.0
H1577 H 0.72553 0.17316 0.36898 0.0
C1578 C 0.32803 0.81379 0.37097 0.0
C1579 C 0.34639 0.79625 0.37817 0.0
C1580 C 0.30346 0.80576 0.36571 0.0
C1581 C 0.26322 0.75083 0.35204 0.0
H1582 H 0.21576 0.78153 0.3964 0.0
C1583 C 0.17101 0.70128 0.38087 0.0
C1584 C 0.15093 0.71587 0.38957 0.0
C1585 C 0.19352 0.71286 0.37365 0.0
C1586 C 0.22835 0.77307 0.38333 0.0
H1587 H 0.35433 0.75666 0.38381 0.0
H1588 H 0.31161 0.74246 0.37397 0.0
H1589 H 0.25779 0.79901 0.39243 0.0
H1590 H 0.13753 0.75376 0.39596 0.0
H1591 H 0.17604 0.77428 0.38192 0.0
H1592 H 0.23386 0.72483 0.34286 0.0
C1593 C 0.31603 0.76237 0.37257 0.0
C1594 C 0.25258 0.78313 0.38116 0.0
C1595 C 0.34038 0.77045 0.37831 0.0
C1596 C 0.153 0.74223 0.38951 0.0
C1597 C 0.17518 0.75387 0.3817 0.0
C1598 C 0.23875 0.74101 0.35383 0.0
C1599 C 0.29712 0.78002 0.36706 0.0
C1600 C 0.27044 0.77175 0.36598 0.0
C1601 C 0.19615 0.73935 0.3745 0.0
C1602 C 0.22115 0.75158 0.37001 0.0
H1603 H 0.33225 0.83379 0.37097 0.0
H1604 H 0.28918 0.81972 0.3615 0.0
H1605 H 0.27667 0.74177 0.34013 0.0
H1606 H 0.16976 0.68088 0.381 0.0
H1607 H 0.20919 0.70089 0.36858 0.0
C1608 C 0.29727 0.82931 0.87464 0.0
C1609 C 0.28146 0.84989 0.87942 0.0
C1610 C 0.28697 0.80605 0.86787 0.0
C1611 C 0.22631 0.77153 0.87369 0.0
H1612 H 0.26366 0.71886 0.84078 0.0
C1613 C 0.18944 0.66962 0.87019 0.0
C1614 C 0.20659 0.65276 0.88085 0.0
C1615 C 0.19742 0.69364 0.86292 0.0
C1616 C 0.25294 0.73349 0.8498 0.0
H1617 H 0.24302 0.86334 0.87908 0.0
H1618 H 0.22494 0.82334 0.86571 0.0
H1619 H 0.27948 0.76219 0.84011 0.0
H1620 H 0.24566 0.64683 0.89063 0.0
H1621 H 0.25976 0.68859 0.87754 0.0
H1622 H 0.19992 0.74275 0.88347 0.0
C1623 C 0.24516 0.82452 0.86823 0.0
C1624 C 0.26206 0.75829 0.84962 0.0
C1625 C 0.25544 0.84752 0.87561 0.0
C1626 C 0.23211 0.65963 0.8826 0.0
C1627 C 0.24017 0.6834 0.87495 0.0
C1628 C 0.21701 0.7469 0.87348 0.0
C1629 C 0.26065 0.80312 0.8653 0.0
C1630 C 0.24926 0.77754 0.86219 0.0
C1631 C 0.22276 0.70093 0.86575 0.0
C1632 C 0.23056 0.72751 0.86213 0.0
H1633 H 0.3174 0.8308 0.87775 0.0
H1634 H 0.29959 0.79009 0.86609 0.0
H1635 H 0.21606 0.7855 0.88403 0.0
H1636 H 0.16965 0.66477 0.8688 0.0
H1637 H 0.18364 0.70682 0.85585 0.0
C1638 C 0.84376 0.24354 0.89122 0.0
C1639 C 0.84706 0.21748 0.89413 0.0
C1640 C 0.82089 0.25319 0.8828 0.0
C1641 C 0.75749 0.2347 0.858 0.0
H1642 H 0.73633 0.29477 0.89248 0.0
C1643 C 0.65472 0.26056 0.88128 0.0
C1644 C 0.64752 0.28606 0.88066 0.0
C1645 C 0.67938 0.25346 0.8756 0.0
C1646 C 0.74208 0.27828 0.8823 0.0
H1647 H 0.82973 0.18088 0.88977 0.0
H1648 H 0.78913 0.19757 0.87619 0.0
H1649 H 0.7793 0.27986 0.89667 0.0
H1650 H 0.65996 0.324 0.87242 0.0
H1651 H 0.70342 0.31164 0.86281 0.0
H1652 H 0.71934 0.23243 0.84509 0.0
C1653 C 0.80435 0.21072 0.8796 0.0
C1654 C 0.76684 0.26969 0.88463 0.0
C1655 C 0.82753 0.20107 0.88749 0.0
C1656 C 0.66503 0.30421 0.87289 0.0
C1657 C 0.68987 0.29716 0.86756 0.0
C1658 C 0.73252 0.24312 0.85599 0.0
C1659 C 0.80049 0.23699 0.87776 0.0
C1660 C 0.77484 0.24751 0.87287 0.0
C1661 C 0.69744 0.27179 0.86953 0.0
C1662 C 0.7245 0.26477 0.86847 0.0
H1663 H 0.85881 0.25646 0.89595 0.0
H1664 H 0.81901 0.27345 0.88091 0.0
H1665 H 0.763 0.21785 0.84828 0.0
H1666 H 0.64145 0.24625 0.88708 0.0
H1667 H 0.6847 0.23381 0.87746 0.0
C1668 C 0.29958 0.6724 0.62674 0.0
C1669 C 0.28375 0.65188 0.62175 0.0
C1670 C 0.28926 0.69575 0.63326 0.0
C1671 C 0.22892 0.73062 0.62629 0.0
H1672 H 0.26562 0.78299 0.66026 0.0
C1673 C 0.19211 0.83257 0.62932 0.0
C1674 C 0.20961 0.84955 0.61941 0.0
C1675 C 0.19985 0.80848 0.63664 0.0
C1676 C 0.25507 0.76845 0.65092 0.0
H1677 H 0.24523 0.63865 0.62149 0.0
H1678 H 0.22711 0.67881 0.63435 0.0
H1679 H 0.28135 0.73962 0.661 0.0
H1680 H 0.24902 0.8556 0.61104 0.0
H1681 H 0.26268 0.81372 0.62417 0.0
H1682 H 0.20281 0.75952 0.61609 0.0
C1683 C 0.24737 0.67751 0.6322 0.0
C1684 C 0.26415 0.74363 0.65116 0.0
C1685 C 0.25767 0.65442 0.6251 0.0
C1686 C 0.23519 0.84272 0.61849 0.0
C1687 C 0.243 0.81886 0.62617 0.0
C1688 C 0.21966 0.75528 0.62641 0.0
C1689 C 0.26291 0.69883 0.63535 0.0
C1690 C 0.25158 0.72448 0.63825 0.0
C1691 C 0.22529 0.80121 0.63457 0.0
C1692 C 0.23299 0.77457 0.63816 0.0
H1693 H 0.31975 0.67079 0.62399 0.0
H1694 H 0.30191 0.71165 0.63523 0.0
H1695 H 0.21887 0.71672 0.61568 0.0
H1696 H 0.17227 0.83739 0.63007 0.0
H1697 H 0.18583 0.79522 0.64311 0.0
C1698 C 0.84718 0.25891 0.62446 0.0
C1699 C 0.84981 0.28487 0.62046 0.0
C1700 C 0.82411 0.24893 0.63203 0.0
C1701 C 0.75819 0.26656 0.65092 0.0
H1702 H 0.74184 0.20461 0.6171 0.0
C1703 C 0.65897 0.23776 0.61868 0.0
C1704 C 0.65204 0.2122 0.61977 0.0
C1705 C 0.6828 0.24553 0.62642 0.0
C1706 C 0.7462 0.22163 0.62709 0.0
H1707 H 0.83115 0.32104 0.62201 0.0
H1708 H 0.7903 0.30375 0.63405 0.0
H1709 H 0.78472 0.22031 0.61633 0.0
H1710 H 0.66398 0.17491 0.63091 0.0
H1711 H 0.70606 0.18842 0.6441 0.0
H1712 H 0.71885 0.26853 0.66002 0.0
C1713 C 0.80611 0.29095 0.63225 0.0
C1714 C 0.77091 0.23069 0.62676 0.0
C1715 C 0.82944 0.30096 0.62526 0.0
C1716 C 0.66886 0.19473 0.63 0.0
C1717 C 0.69291 0.20244 0.6374 0.0
C1718 C 0.7333 0.25767 0.65089 0.0
C1719 C 0.80291 0.26467 0.63498 0.0
C1720 C 0.77722 0.25357 0.63824 0.0
C1721 C 0.70032 0.22782 0.63508 0.0
C1722 C 0.72701 0.23536 0.63858 0.0
H1723 H 0.86283 0.24628 0.62097 0.0
H1724 H 0.82272 0.22873 0.63467 0.0
H1725 H 0.76233 0.28394 0.66039 0.0
H1726 H 0.6462 0.25158 0.61103 0.0
H1727 H 0.68805 0.26516 0.62423 0.0
loop_
_geom_bond_atom_site_label_1
_geom_bond_atom_site_label_2
_geom_bond_distance
_geom_bond_site_symmetry_2
_ccdc_geom_bond_type
Co0 N4 2.148 . S
Co0 N10 2.128 . S
Co0 N20 2.194 . S
Co0 O25 2.351 . S
Co0 O26 2.155 . S
Co0 O27 2.096 . S
C1 N4 1.301 . S
C1 N5 1.328 . S
C1 H6 0.930 . S
C2 C3 1.333 . S
C2 N4 1.317 . S
C2 H7 0.930 . S
C3 C2 1.333 . S
C3 N5 1.350 . S
C3 H29 0.931 . S
N4 Co0 2.148 . S
N4 C1 1.301 . S
N4 C2 1.317 . S
N5 C1 1.328 . S
N5 C3 1.350 . S
H6 C1 0.930 . S
H7 C2 0.930 . S
C8 O9 1.224 . S
C8 O27 1.247 . S
O9 C8 1.224 . S
N10 Co0 2.128 . S
N10 C11 1.355 . S
N10 C13 1.311 . S
C11 N10 1.355 . S
C11 C12 1.363 . S
C11 H23 0.929 . S
C12 C11 1.363 . S
C12 N14 1.375 . S
C12 H30 0.931 . S
C13 N10 1.311 . S
C13 N14 1.347 . S
C13 H24 0.929 . S
N14 C12 1.375 . S
N14 C13 1.347 . S
C15 C18 1.365 . S
C15 N20 1.328 . S
C15 H21 0.929 . S
C16 C17 1.362 . S
C16 C19 1.378 . S
C16 H31 0.929 . S
C17 C16 1.362 . S
C17 C18 1.366 . S
C18 C15 1.365 . S
C18 C17 1.366 . S
C18 H32 0.930 . S
C19 C16 1.378 . S
C19 N20 1.315 . S
C19 H22 0.930 . S
N20 Co0 2.194 . S
N20 C15 1.328 . S
N20 C19 1.315 . S
H21 C15 0.929 . S
H22 C19 0.930 . S
H23 C11 0.929 . S
H24 C13 0.929 . S
O25 Co0 2.351 . S
O25 C28 1.244 . S
O26 Co0 2.155 . S
O26 C28 1.240 . S
O27 Co0 2.096 . S
O27 C8 1.247 . S
C28 O25 1.244 . S
C28 O26 1.240 . S
H29 C3 0.931 . S
H30 C12 0.931 . S
H31 C16 0.929 . S
H32 C18 0.930 . S
Co33 N37 2.148 . S
Co33 N43 2.128 . S
Co33 N53 2.194 . S
Co33 O58 2.351 . S
Co33 O59 2.155 . S
Co33 O60 2.096 . S
C34 N37 1.301 . S
C34 N38 1.328 . S
C34 H39 0.930 . S
C35 C36 1.333 . S
C35 N37 1.317 . S
C35 H40 0.930 . S
C36 C35 1.333 . S
C36 N38 1.350 . S
C36 H62 0.931 . S
N37 Co33 2.148 . S
N37 C34 1.301 . S
N37 C35 1.317 . S
N38 C34 1.328 . S
N38 C36 1.350 . S
H39 C34 0.930 . S
H40 C35 0.930 . S
C41 O42 1.224 . S
C41 O60 1.247 . S
O42 C41 1.224 . S
N43 Co33 2.128 . S
N43 C44 1.355 . S
N43 C46 1.311 . S
C44 N43 1.355 . S
C44 C45 1.363 . S
C44 H56 0.929 . S
C45 C44 1.363 . S
C45 N47 1.375 . S
C45 H63 0.931 . S
C46 N43 1.311 . S
C46 N47 1.347 . S
C46 H57 0.929 . S
N47 C45 1.375 . S
N47 C46 1.347 . S
C48 C51 1.365 . S
C48 N53 1.328 . S
C48 H54 0.929 . S
C49 C50 1.362 . S
C49 C52 1.378 . S
C49 H64 0.929 . S
C50 C49 1.362 . S
C50 C51 1.366 . S
C51 C48 1.365 . S
C51 C50 1.366 . S
C51 H65 0.930 . S
C52 C49 1.378 . S
C52 N53 1.315 . S
C52 H55 0.930 . S
N53 Co33 2.194 . S
N53 C48 1.328 . S
N53 C52 1.315 . S
H54 C48 0.929 . S
H55 C52 0.930 . S
H56 C44 0.929 . S
H57 C46 0.929 . S
O58 Co33 2.351 . S
O58 C61 1.244 . S
O59 Co33 2.155 . S
O59 C61 1.240 . S
O60 Co33 2.096 . S
O60 C41 1.247 . S
C61 O58 1.244 . S
C61 O59 1.240 . S
H62 C36 0.931 . S
H63 C45 0.931 . S
H64 C49 0.929 . S
H65 C51 0.930 . S
Co66 N70 2.148 . S
Co66 N76 2.128 . S
Co66 N86 2.194 . S
Co66 O91 2.351 . S
Co66 O92 2.155 . S
Co66 O93 2.096 . S
C67 N70 1.301 . S
C67 N71 1.328 . S
C67 H72 0.930 . S
C68 C69 1.333 . S
C68 N70 1.317 . S
C68 H73 0.930 . S
C69 C68 1.333 . S
C69 N71 1.350 . S
C69 H95 0.931 . S
N70 Co66 2.148 . S
N70 C67 1.301 . S
N70 C68 1.317 . S
N71 C67 1.328 . S
N71 C69 1.350 . S
H72 C67 0.930 . S
H73 C68 0.930 . S
C74 O75 1.224 . S
C74 O93 1.247 . S
O75 C74 1.224 . S
N76 Co66 2.128 . S
N76 C77 1.355 . S
N76 C79 1.311 . S
C77 N76 1.355 . S
C77 C78 1.363 . S
C77 H89 0.929 . S
C78 C77 1.363 . S
C78 N80 1.375 . S
C78 H96 0.931 . S
C79 N76 1.311 . S
C79 N80 1.347 . S
C79 H90 0.929 . S
N80 C78 1.375 . S
N80 C79 1.347 . S
C81 C84 1.365 . S
C81 N86 1.328 . S
C81 H87 0.929 . S
C82 C83 1.362 . S
C82 C85 1.378 . S
C82 H97 0.929 . S
C83 C82 1.362 . S
C83 C84 1.366 . S
C84 C81 1.365 . S
C84 C83 1.366 . S
C84 H98 0.930 . S
C85 C82 1.378 . S
C85 N86 1.315 . S
C85 H88 0.930 . S
N86 Co66 2.194 . S
N86 C81 1.328 . S
N86 C85 1.315 . S
H87 C81 0.929 . S
H88 C85 0.930 . S
H89 C77 0.929 . S
H90 C79 0.929 . S
O91 Co66 2.351 . S
O91 C94 1.244 . S
O92 Co66 2.155 . S
O92 C94 1.240 . S
O93 Co66 2.096 . S
O93 C74 1.247 . S
C94 O91 1.244 . S
C94 O92 1.240 . S
H95 C69 0.931 . S
H96 C78 0.931 . S
H97 C82 0.929 . S
H98 C84 0.930 . S
Co99 N103 2.148 . S
Co99 N109 2.128 . S
Co99 N119 2.194 . S
Co99 O124 2.351 . S
Co99 O125 2.155 . S
Co99 O126 2.096 . S
C100 N103 1.301 . S
C100 N104 1.328 . S
C100 H105 0.930 . S
C101 C102 1.333 . S
C101 N103 1.317 . S
C101 H106 0.930 . S
C102 C101 1.333 . S
C102 N104 1.350 . S
C102 H128 0.931 . S
N103 Co99 2.148 . S
N103 C100 1.301 . S
N103 C101 1.317 . S
N104 C100 1.328 . S
N104 C102 1.350 . S
H105 C100 0.930 . S
H106 C101 0.930 . S
C107 O108 1.224 . S
C107 O126 1.247 . S
O108 C107 1.224 . S
N109 Co99 2.128 . S
N109 C110 1.355 . S
N109 C112 1.311 . S
C110 N109 1.355 . S
C110 C111 1.363 . S
C110 H122 0.929 . S
C111 C110 1.363 . S
C111 N113 1.375 . S
C111 H129 0.931 . S
C112 N109 1.311 . S
C112 N113 1.347 . S
C112 H123 0.929 . S
N113 C111 1.375 . S
N113 C112 1.347 . S
C114 C117 1.365 . S
C114 N119 1.328 . S
C114 H120 0.929 . S
C115 C116 1.362 . S
C115 C118 1.378 . S
C115 H130 0.929 . S
C116 C115 1.362 . S
C116 C117 1.366 . S
C117 C114 1.365 . S
C117 C116 1.366 . S
C117 H131 0.930 . S
C118 C115 1.378 . S
C118 N119 1.315 . S
C118 H121 0.930 . S
N119 Co99 2.194 . S
N119 C114 1.328 . S
N119 C118 1.315 . S
H120 C114 0.929 . S
H121 C118 0.930 . S
H122 C110 0.929 . S
H123 C112 0.929 . S
O124 Co99 2.351 . S
O124 C127 1.244 . S
O125 Co99 2.155 . S
O125 C127 1.240 . S
O126 Co99 2.096 . S
O126 C107 1.247 . S
C127 O124 1.244 . S
C127 O125 1.240 . S
H128 C102 0.931 . S
H129 C111 0.931 . S
H130 C115 0.929 . S
H131 C117 0.930 . S
Co132 N136 2.148 . S
Co132 N142 2.128 . S
Co132 N152 2.194 . S
Co132 O157 2.351 . S
Co132 O158 2.155 . S
Co132 O159 2.096 . S
C133 N136 1.301 . S
C133 N137 1.328 . S
C133 H138 0.930 . S
C134 C135 1.333 . S
C134 N136 1.317 . S
C134 H139 0.930 . S
C135 C134 1.333 . S
C135 N137 1.350 . S
C135 H161 0.931 . S
N136 Co132 2.148 . S
N136 C133 1.301 . S
N136 C134 1.317 . S
N137 C133 1.328 . S
N137 C135 1.350 . S
H138 C133 0.930 . S
H139 C134 0.930 . S
C140 O141 1.224 . S
C140 O159 1.247 . S
O141 C140 1.224 . S
N142 Co132 2.128 . S
N142 C143 1.355 . S
N142 C145 1.311 . S
C143 N142 1.355 . S
C143 C144 1.363 . S
C143 H155 0.929 . S
C144 C143 1.363 . S
C144 N146 1.375 . S
C144 H162 0.931 . S
C145 N142 1.311 . S
C145 N146 1.347 . S
C145 H156 0.929 . S
N146 C144 1.375 . S
N146 C145 1.347 . S
C147 C150 1.365 . S
C147 N152 1.328 . S
C147 H153 0.929 . S
C148 C149 1.362 . S
C148 C151 1.378 . S
C148 H163 0.929 . S
C149 C148 1.362 . S
C149 C150 1.366 . S
C150 C147 1.365 . S
C150 C149 1.366 . S
C150 H164 0.930 . S
C151 C148 1.378 . S
C151 N152 1.315 . S
C151 H154 0.930 . S
N152 Co132 2.194 . S
N152 C147 1.328 . S
N152 C151 1.315 . S
H153 C147 0.929 . S
H154 C151 0.930 . S
H155 C143 0.929 . S
H156 C145 0.929 . S
O157 Co132 2.351 . S
O157 C160 1.244 . S
O158 Co132 2.155 . S
O158 C160 1.240 . S
O159 Co132 2.096 . S
O159 C140 1.247 . S
C160 O157 1.244 . S
C160 O158 1.240 . S
H161 C135 0.931 . S
H162 C144 0.931 . S
H163 C148 0.929 . S
H164 C150 0.930 . S
Co165 N169 2.148 . S
Co165 N175 2.128 . S
Co165 N185 2.194 . S
Co165 O190 2.351 . S
Co165 O191 2.155 . S
Co165 O192 2.096 . S
C166 N169 1.301 . S
C166 N170 1.328 . S
C166 H171 0.930 . S
C167 C168 1.333 . S
C167 N169 1.317 . S
C167 H172 0.930 . S
C168 C167 1.333 . S
C168 N170 1.350 . S
C168 H194 0.931 . S
N169 Co165 2.148 . S
N169 C166 1.301 . S
N169 C167 1.317 . S
N170 C166 1.328 . S
N170 C168 1.350 . S
H171 C166 0.930 . S
H172 C167 0.930 . S
C173 O174 1.224 . S
C173 O192 1.247 . S
O174 C173 1.224 . S
N175 Co165 2.128 . S
N175 C176 1.355 . S
N175 C178 1.311 . S
C176 N175 1.355 . S
C176 C177 1.363 . S
C176 H188 0.929 . S
C177 C176 1.363 . S
C177 N179 1.375 . S
C177 H195 0.931 . S
C178 N175 1.311 . S
C178 N179 1.347 . S
C178 H189 0.929 . S
N179 C177 1.375 . S
N179 C178 1.347 . S
C180 C183 1.365 . S
C180 N185 1.328 . S
C180 H186 0.929 . S
C181 C182 1.362 . S
C181 C184 1.378 . S
C181 H196 0.929 . S
C182 C181 1.362 . S
C182 C183 1.366 . S
C183 C180 1.365 . S
C183 C182 1.366 . S
C183 H197 0.930 . S
C184 C181 1.378 . S
C184 N185 1.315 . S
C184 H187 0.930 . S
N185 Co165 2.194 . S
N185 C180 1.328 . S
N185 C184 1.315 . S
H186 C180 0.929 . S
H187 C184 0.930 . S
H188 C176 0.929 . S
H189 C178 0.929 . S
O190 Co165 2.351 . S
O190 C193 1.244 . S
O191 Co165 2.155 . S
O191 C193 1.240 . S
O192 Co165 2.096 . S
O192 C173 1.247 . S
C193 O190 1.244 . S
C193 O191 1.240 . S
H194 C168 0.931 . S
H195 C177 0.931 . S
H196 C181 0.929 . S
H197 C183 0.930 . S
Co198 N202 2.148 . S
Co198 N208 2.128 . S
Co198 N218 2.194 . S
Co198 O223 2.351 . S
Co198 O224 2.155 . S
Co198 O225 2.096 . S
C199 N202 1.301 . S
C199 N203 1.328 . S
C199 H204 0.930 . S
C200 C201 1.333 . S
C200 N202 1.317 . S
C200 H205 0.930 . S
C201 C200 1.333 . S
C201 N203 1.350 . S
C201 H227 0.931 . S
N202 Co198 2.148 . S
N202 C199 1.301 . S
N202 C200 1.317 . S
N203 C199 1.328 . S
N203 C201 1.350 . S
H204 C199 0.930 . S
H205 C200 0.930 . S
C206 O207 1.224 . S
C206 O225 1.247 . S
O207 C206 1.224 . S
N208 Co198 2.128 . S
N208 C209 1.355 . S
N208 C211 1.311 . S
C209 N208 1.355 . S
C209 C210 1.363 . S
C209 H221 0.929 . S
C210 C209 1.363 . S
C210 N212 1.375 . S
C210 H228 0.931 . S
C211 N208 1.311 . S
C211 N212 1.347 . S
C211 H222 0.929 . S
N212 C210 1.375 . S
N212 C211 1.347 . S
C213 C216 1.365 . S
C213 N218 1.328 . S
C213 H219 0.929 . S
C214 C215 1.362 . S
C214 C217 1.378 . S
C214 H229 0.929 . S
C215 C214 1.362 . S
C215 C216 1.366 . S
C216 C213 1.365 . S
C216 C215 1.366 . S
C216 H230 0.930 . S
C217 C214 1.378 . S
C217 N218 1.315 . S
C217 H220 0.930 . S
N218 Co198 2.194 . S
N218 C213 1.328 . S
N218 C217 1.315 . S
H219 C213 0.929 . S
H220 C217 0.930 . S
H221 C209 0.929 . S
H222 C211 0.929 . S
O223 Co198 2.351 . S
O223 C226 1.244 . S
O224 Co198 2.155 . S
O224 C226 1.240 . S
O225 Co198 2.096 . S
O225 C206 1.247 . S
C226 O223 1.244 . S
C226 O224 1.240 . S
H227 C201 0.931 . S
H228 C210 0.931 . S
H229 C214 0.929 . S
H230 C216 0.930 . S
Co231 N235 2.148 . S
Co231 N241 2.128 . S
Co231 N251 2.194 . S
Co231 O256 2.351 . S
Co231 O257 2.155 . S
Co231 O258 2.096 . S
C232 N235 1.301 . S
C232 N236 1.328 . S
C232 H237 0.930 . S
C233 C234 1.333 . S
C233 N235 1.317 . S
C233 H238 0.930 . S
C234 C233 1.333 . S
C234 N236 1.350 . S
C234 H260 0.931 . S
N235 Co231 2.148 . S
N235 C232 1.301 . S
N235 C233 1.317 . S
N236 C232 1.328 . S
N236 C234 1.350 . S
H237 C232 0.930 . S
H238 C233 0.930 . S
C239 O240 1.224 . S
C239 O258 1.247 . S
O240 C239 1.224 . S
N241 Co231 2.128 . S
N241 C242 1.355 . S
N241 C244 1.311 . S
C242 N241 1.355 . S
C242 C243 1.363 . S
C242 H254 0.929 . S
C243 C242 1.363 . S
C243 N245 1.375 . S
C243 H261 0.931 . S
C244 N241 1.311 . S
C244 N245 1.347 . S
C244 H255 0.929 . S
N245 C243 1.375 . S
N245 C244 1.347 . S
C246 C249 1.365 . S
C246 N251 1.328 . S
C246 H252 0.929 . S
C247 C248 1.362 . S
C247 C250 1.378 . S
C247 H262 0.929 . S
C248 C247 1.362 . S
C248 C249 1.366 . S
C249 C246 1.365 . S
C249 C248 1.366 . S
C249 H263 0.930 . S
C250 C247 1.378 . S
C250 N251 1.315 . S
C250 H253 0.930 . S
N251 Co231 2.194 . S
N251 C246 1.328 . S
N251 C250 1.315 . S
H252 C246 0.929 . S
H253 C250 0.930 . S
H254 C242 0.929 . S
H255 C244 0.929 . S
O256 Co231 2.351 . S
O256 C259 1.244 . S
O257 Co231 2.155 . S
O257 C259 1.240 . S
O258 Co231 2.096 . S
O258 C239 1.247 . S
C259 O256 1.244 . S
C259 O257 1.240 . S
H260 C234 0.931 . S
H261 C243 0.931 . S
H262 C247 0.929 . S
H263 C249 0.930 . S
Co264 N268 2.148 . S
Co264 N274 2.128 . S
Co264 N284 2.194 . S
Co264 O289 2.351 . S
Co264 O290 2.155 . S
Co264 O291 2.096 . S
C265 N268 1.301 . S
C265 N269 1.328 . S
C265 H270 0.930 . S
C266 C267 1.333 . S
C266 N268 1.317 . S
C266 H271 0.930 . S
C267 C266 1.333 . S
C267 N269 1.350 . S
C267 H293 0.931 . S
N268 Co264 2.148 . S
N268 C265 1.301 . S
N268 C266 1.317 . S
N269 C265 1.328 . S
N269 C267 1.350 . S
H270 C265 0.930 . S
H271 C266 0.930 . S
C272 O273 1.224 . S
C272 O291 1.247 . S
O273 C272 1.224 . S
N274 Co264 2.128 . S
N274 C275 1.355 . S
N274 C277 1.311 . S
C275 N274 1.355 . S
C275 C276 1.363 . S
C275 H287 0.929 . S
C276 C275 1.363 . S
C276 N278 1.375 . S
C276 H294 0.931 . S
C277 N274 1.311 . S
C277 N278 1.347 . S
C277 H288 0.929 . S
N278 C276 1.375 . S
N278 C277 1.347 . S
C279 C282 1.365 . S
C279 N284 1.328 . S
C279 H285 0.929 . S
C280 C281 1.362 . S
C280 C283 1.378 . S
C280 H295 0.929 . S
C281 C280 1.362 . S
C281 C282 1.366 . S
C282 C279 1.365 . S
C282 C281 1.366 . S
C282 H296 0.930 . S
C283 C280 1.378 . S
C283 N284 1.315 . S
C283 H286 0.930 . S
N284 Co264 2.194 . S
N284 C279 1.328 . S
N284 C283 1.315 . S
H285 C279 0.929 . S
H286 C283 0.930 . S
H287 C275 0.929 . S
H288 C277 0.929 . S
O289 Co264 2.351 . S
O289 C292 1.244 . S
O290 Co264 2.155 . S
O290 C292 1.240 . S
O291 Co264 2.096 . S
O291 C272 1.247 . S
C292 O289 1.244 . S
C292 O290 1.240 . S
H293 C267 0.931 . S
H294 C276 0.931 . S
H295 C280 0.929 . S
H296 C282 0.930 . S
Co297 N301 2.148 . S
Co297 N307 2.128 . S
Co297 N317 2.194 . S
Co297 O322 2.351 . S
Co297 O323 2.155 . S
Co297 O324 2.096 . S
C298 N301 1.301 . S
C298 N302 1.328 . S
C298 H303 0.930 . S
C299 C300 1.333 . S
C299 N301 1.317 . S
C299 H304 0.930 . S
C300 C299 1.333 . S
C300 N302 1.350 . S
C300 H326 0.931 . S
N301 Co297 2.148 . S
N301 C298 1.301 . S
N301 C299 1.317 . S
N302 C298 1.328 . S
N302 C300 1.350 . S
H303 C298 0.930 . S
H304 C299 0.930 . S
C305 O306 1.224 . S
C305 O324 1.247 . S
O306 C305 1.224 . S
N307 Co297 2.128 . S
N307 C308 1.355 . S
N307 C310 1.311 . S
C308 N307 1.355 . S
C308 C309 1.363 . S
C308 H320 0.929 . S
C309 C308 1.363 . S
C309 N311 1.375 . S
C309 H327 0.931 . S
C310 N307 1.311 . S
C310 N311 1.347 . S
C310 H321 0.929 . S
N311 C309 1.375 . S
N311 C310 1.347 . S
C312 C315 1.365 . S
C312 N317 1.328 . S
C312 H318 0.929 . S
C313 C314 1.362 . S
C313 C316 1.378 . S
C313 H328 0.929 . S
C314 C313 1.362 . S
C314 C315 1.366 . S
C315 C312 1.365 . S
C315 C314 1.366 . S
C315 H329 0.930 . S
C316 C313 1.378 . S
C316 N317 1.315 . S
C316 H319 0.930 . S
N317 Co297 2.194 . S
N317 C312 1.328 . S
N317 C316 1.315 . S
H318 C312 0.929 . S
H319 C316 0.930 . S
H320 C308 0.929 . S
H321 C310 0.929 . S
O322 Co297 2.351 . S
O322 C325 1.244 . S
O323 Co297 2.155 . S
O323 C325 1.240 . S
O324 Co297 2.096 . S
O324 C305 1.247 . S
C325 O322 1.244 . S
C325 O323 1.240 . S
H326 C300 0.931 . S
H327 C309 0.931 . S
H328 C313 0.929 . S
H329 C315 0.930 . S
Co330 N334 2.148 . S
Co330 N340 2.128 . S
Co330 N350 2.194 . S
Co330 O355 2.351 . S
Co330 O356 2.155 . S
Co330 O357 2.096 . S
C331 N334 1.301 . S
C331 N335 1.328 . S
C331 H336 0.930 . S
C332 C333 1.333 . S
C332 N334 1.317 . S
C332 H337 0.930 . S
C333 C332 1.333 . S
C333 N335 1.350 . S
C333 H359 0.931 . S
N334 Co330 2.148 . S
N334 C331 1.301 . S
N334 C332 1.317 . S
N335 C331 1.328 . S
N335 C333 1.350 . S
H336 C331 0.930 . S
H337 C332 0.930 . S
C338 O339 1.224 . S
C338 O357 1.247 . S
O339 C338 1.224 . S
N340 Co330 2.128 . S
N340 C341 1.355 . S
N340 C343 1.311 . S
C341 N340 1.355 . S
C341 C342 1.363 . S
C341 H353 0.929 . S
C342 C341 1.363 . S
C342 N344 1.375 . S
C342 H360 0.931 . S
C343 N340 1.311 . S
C343 N344 1.347 . S
C343 H354 0.929 . S
N344 C342 1.375 . S
N344 C343 1.347 . S
C345 C348 1.365 . S
C345 N350 1.328 . S
C345 H351 0.929 . S
C346 C347 1.362 . S
C346 C349 1.378 . S
C346 H361 0.929 . S
C347 C346 1.362 . S
C347 C348 1.366 . S
C348 C345 1.365 . S
C348 C347 1.366 . S
C348 H362 0.930 . S
C349 C346 1.378 . S
C349 N350 1.315 . S
C349 H352 0.930 . S
N350 Co330 2.194 . S
N350 C345 1.328 . S
N350 C349 1.315 . S
H351 C345 0.929 . S
H352 C349 0.930 . S
H353 C341 0.929 . S
H354 C343 0.929 . S
O355 Co330 2.351 . S
O355 C358 1.244 . S
O356 Co330 2.155 . S
O356 C358 1.240 . S
O357 Co330 2.096 . S
O357 C338 1.247 . S
C358 O355 1.244 . S
C358 O356 1.240 . S
H359 C333 0.931 . S
H360 C342 0.931 . S
H361 C346 0.929 . S
H362 C348 0.930 . S
Co363 N367 2.148 . S
Co363 N373 2.128 . S
Co363 N383 2.194 . S
Co363 O388 2.351 . S
Co363 O389 2.155 . S
Co363 O390 2.096 . S
C364 N367 1.301 . S
C364 N368 1.328 . S
C364 H369 0.930 . S
C365 C366 1.333 . S
C365 N367 1.317 . S
C365 H370 0.930 . S
C366 C365 1.333 . S
C366 N368 1.350 . S
C366 H392 0.931 . S
N367 Co363 2.148 . S
N367 C364 1.301 . S
N367 C365 1.317 . S
N368 C364 1.328 . S
N368 C366 1.350 . S
H369 C364 0.930 . S
H370 C365 0.930 . S
C371 O372 1.224 . S
C371 O390 1.247 . S
O372 C371 1.224 . S
N373 Co363 2.128 . S
N373 C374 1.355 . S
N373 C376 1.311 . S
C374 N373 1.355 . S
C374 C375 1.363 . S
C374 H386 0.929 . S
C375 C374 1.363 . S
C375 N377 1.375 . S
C375 H393 0.931 . S
C376 N373 1.311 . S
C376 N377 1.347 . S
C376 H387 0.929 . S
N377 C375 1.375 . S
N377 C376 1.347 . S
C378 C381 1.365 . S
C378 N383 1.328 . S
C378 H384 0.929 . S
C379 C380 1.362 . S
C379 C382 1.378 . S
C379 H394 0.929 . S
C380 C379 1.362 . S
C380 C381 1.366 . S
C381 C378 1.365 . S
C381 C380 1.366 . S
C381 H395 0.930 . S
C382 C379 1.378 . S
C382 N383 1.315 . S
C382 H385 0.930 . S
N383 Co363 2.194 . S
N383 C378 1.328 . S
N383 C382 1.315 . S
H384 C378 0.929 . S
H385 C382 0.930 . S
H386 C374 0.929 . S
H387 C376 0.929 . S
O388 Co363 2.351 . S
O388 C391 1.244 . S
O389 Co363 2.155 . S
O389 C391 1.240 . S
O390 Co363 2.096 . S
O390 C371 1.247 . S
C391 O388 1.244 . S
C391 O389 1.240 . S
H392 C366 0.931 . S
H393 C375 0.931 . S
H394 C379 0.929 . S
H395 C381 0.930 . S
Co396 N400 2.148 . S
Co396 N406 2.128 . S
Co396 N416 2.194 . S
Co396 O421 2.351 . S
Co396 O422 2.155 . S
Co396 O423 2.096 . S
C397 N400 1.301 . S
C397 N401 1.328 . S
C397 H402 0.930 . S
C398 C399 1.333 . S
C398 N400 1.317 . S
C398 H403 0.930 . S
C399 C398 1.333 . S
C399 N401 1.350 . S
C399 H425 0.931 . S
N400 Co396 2.148 . S
N400 C397 1.301 . S
N400 C398 1.317 . S
N401 C397 1.328 . S
N401 C399 1.350 . S
H402 C397 0.930 . S
H403 C398 0.930 . S
C404 O405 1.224 . S
C404 O423 1.247 . S
O405 C404 1.224 . S
N406 Co396 2.128 . S
N406 C407 1.355 . S
N406 C409 1.311 . S
C407 N406 1.355 . S
C407 C408 1.363 . S
C407 H419 0.929 . S
C408 C407 1.363 . S
C408 N410 1.375 . S
C408 H426 0.931 . S
C409 N406 1.311 . S
C409 N410 1.347 . S
C409 H420 0.929 . S
N410 C408 1.375 . S
N410 C409 1.347 . S
C411 C414 1.365 . S
C411 N416 1.328 . S
C411 H417 0.929 . S
C412 C413 1.362 . S
C412 C415 1.378 . S
C412 H427 0.929 . S
C413 C412 1.362 . S
C413 C414 1.366 . S
C414 C411 1.365 . S
C414 C413 1.366 . S
C414 H428 0.930 . S
C415 C412 1.378 . S
C415 N416 1.315 . S
C415 H418 0.930 . S
N416 Co396 2.194 . S
N416 C411 1.328 . S
N416 C415 1.315 . S
H417 C411 0.929 . S
H418 C415 0.930 . S
H419 C407 0.929 . S
H420 C409 0.929 . S
O421 Co396 2.351 . S
O421 C424 1.244 . S
O422 Co396 2.155 . S
O422 C424 1.240 . S
O423 Co396 2.096 . S
O423 C404 1.247 . S
C424 O421 1.244 . S
C424 O422 1.240 . S
H425 C399 0.931 . S
H426 C408 0.931 . S
H427 C412 0.929 . S
H428 C414 0.930 . S
Co429 N433 2.148 . S
Co429 N439 2.128 . S
Co429 N449 2.194 . S
Co429 O454 2.351 . S
Co429 O455 2.155 . S
Co429 O456 2.096 . S
C430 N433 1.301 . S
C430 N434 1.328 . S
C430 H435 0.930 . S
C431 C432 1.333 . S
C431 N433 1.317 . S
C431 H436 0.930 . S
C432 C431 1.333 . S
C432 N434 1.350 . S
C432 H458 0.931 . S
N433 Co429 2.148 . S
N433 C430 1.301 . S
N433 C431 1.317 . S
N434 C430 1.328 . S
N434 C432 1.350 . S
H435 C430 0.930 . S
H436 C431 0.930 . S
C437 O438 1.224 . S
C437 O456 1.247 . S
O438 C437 1.224 . S
N439 Co429 2.128 . S
N439 C440 1.355 . S
N439 C442 1.311 . S
C440 N439 1.355 . S
C440 C441 1.363 . S
C440 H452 0.929 . S
C441 C440 1.363 . S
C441 N443 1.375 . S
C441 H459 0.931 . S
C442 N439 1.311 . S
C442 N443 1.347 . S
C442 H453 0.929 . S
N443 C441 1.375 . S
N443 C442 1.347 . S
C444 C447 1.365 . S
C444 N449 1.328 . S
C444 H450 0.929 . S
C445 C446 1.362 . S
C445 C448 1.378 . S
C445 H460 0.929 . S
C446 C445 1.362 . S
C446 C447 1.366 . S
C447 C444 1.365 . S
C447 C446 1.366 . S
C447 H461 0.930 . S
C448 C445 1.378 . S
C448 N449 1.315 . S
C448 H451 0.930 . S
N449 Co429 2.194 . S
N449 C444 1.328 . S
N449 C448 1.315 . S
H450 C444 0.929 . S
H451 C448 0.930 . S
H452 C440 0.929 . S
H453 C442 0.929 . S
O454 Co429 2.351 . S
O454 C457 1.244 . S
O455 Co429 2.155 . S
O455 C457 1.240 . S
O456 Co429 2.096 . S
O456 C437 1.247 . S
C457 O454 1.244 . S
C457 O455 1.240 . S
H458 C432 0.931 . S
H459 C441 0.931 . S
H460 C445 0.929 . S
H461 C447 0.930 . S
Co462 N466 2.148 . S
Co462 N472 2.128 . S
Co462 N482 2.194 . S
Co462 O487 2.351 . S
Co462 O488 2.155 . S
Co462 O489 2.096 . S
C463 N466 1.301 . S
C463 N467 1.328 . S
C463 H468 0.930 . S
C464 C465 1.333 . S
C464 N466 1.317 . S
C464 H469 0.930 . S
C465 C464 1.333 . S
C465 N467 1.350 . S
C465 H491 0.931 . S
N466 Co462 2.148 . S
N466 C463 1.301 . S
N466 C464 1.317 . S
N467 C463 1.328 . S
N467 C465 1.350 . S
H468 C463 0.930 . S
H469 C464 0.930 . S
C470 O471 1.224 . S
C470 O489 1.247 . S
O471 C470 1.224 . S
N472 Co462 2.128 . S
N472 C473 1.355 . S
N472 C475 1.311 . S
C473 N472 1.355 . S
C473 C474 1.363 . S
C473 H485 0.929 . S
C474 C473 1.363 . S
C474 N476 1.375 . S
C474 H492 0.931 . S
C475 N472 1.311 . S
C475 N476 1.347 . S
C475 H486 0.929 . S
N476 C474 1.375 . S
N476 C475 1.347 . S
C477 C480 1.365 . S
C477 N482 1.328 . S
C477 H483 0.929 . S
C478 C479 1.362 . S
C478 C481 1.378 . S
C478 H493 0.929 . S
C479 C478 1.362 . S
C479 C480 1.366 . S
C480 C477 1.365 . S
C480 C479 1.366 . S
C480 H494 0.930 . S
C481 C478 1.378 . S
C481 N482 1.315 . S
C481 H484 0.930 . S
N482 Co462 2.194 . S
N482 C477 1.328 . S
N482 C481 1.315 . S
H483 C477 0.929 . S
H484 C481 0.930 . S
H485 C473 0.929 . S
H486 C475 0.929 . S
O487 Co462 2.351 . S
O487 C490 1.244 . S
O488 Co462 2.155 . S
O488 C490 1.240 . S
O489 Co462 2.096 . S
O489 C470 1.247 . S
C490 O487 1.244 . S
C490 O488 1.240 . S
H491 C465 0.931 . S
H492 C474 0.931 . S
H493 C478 0.929 . S
H494 C480 0.930 . S
Co495 N499 2.148 . S
Co495 N505 2.128 . S
Co495 N515 2.194 . S
Co495 O520 2.351 . S
Co495 O521 2.155 . S
Co495 O522 2.096 . S
C496 N499 1.301 . S
C496 N500 1.328 . S
C496 H501 0.930 . S
C497 C498 1.333 . S
C497 N499 1.317 . S
C497 H502 0.930 . S
C498 C497 1.333 . S
C498 N500 1.350 . S
C498 H524 0.931 . S
N499 Co495 2.148 . S
N499 C496 1.301 . S
N499 C497 1.317 . S
N500 C496 1.328 . S
N500 C498 1.350 . S
H501 C496 0.930 . S
H502 C497 0.930 . S
C503 O504 1.224 . S
C503 O522 1.247 . S
O504 C503 1.224 . S
N505 Co495 2.128 . S
N505 C506 1.355 . S
N505 C508 1.311 . S
C506 N505 1.355 . S
C506 C507 1.363 . S
C506 H518 0.929 . S
C507 C506 1.363 . S
C507 N509 1.375 . S
C507 H525 0.931 . S
C508 N505 1.311 . S
C508 N509 1.347 . S
C508 H519 0.929 . S
N509 C507 1.375 . S
N509 C508 1.347 . S
C510 C513 1.365 . S
C510 N515 1.328 . S
C510 H516 0.929 . S
C511 C512 1.362 . S
C511 C514 1.378 . S
C511 H526 0.929 . S
C512 C511 1.362 . S
C512 C513 1.366 . S
C513 C510 1.365 . S
C513 C512 1.366 . S
C513 H527 0.930 . S
C514 C511 1.378 . S
C514 N515 1.315 . S
C514 H517 0.930 . S
N515 Co495 2.194 . S
N515 C510 1.328 . S
N515 C514 1.315 . S
H516 C510 0.929 . S
H517 C514 0.930 . S
H518 C506 0.929 . S
H519 C508 0.929 . S
O520 Co495 2.351 . S
O520 C523 1.244 . S
O521 Co495 2.155 . S
O521 C523 1.240 . S
O522 Co495 2.096 . S
O522 C503 1.247 . S
C523 O520 1.244 . S
C523 O521 1.240 . S
H524 C498 0.931 . S
H525 C507 0.931 . S
H526 C511 0.929 . S
H527 C513 0.930 . S
C528 C529 1.349 . S
C528 C530 1.327 . S
C528 H553 0.950 . S
C529 C528 1.349 . S
C529 C545 1.349 . S
C530 C528 1.327 . S
C530 C549 1.429 . S
C530 H554 0.950 . S
C531 C548 1.574 . S
C531 C550 1.368 . S
C531 H555 0.949 . S
H532 C536 0.949 . S
C533 C534 1.349 . S
C533 C535 1.327 . S
C533 H556 0.950 . S
C534 C533 1.349 . S
C534 C546 1.349 . S
C535 C533 1.327 . S
C535 C551 1.429 . S
C535 H557 0.950 . S
C536 H532 0.949 . S
C536 C544 1.574 . S
C536 C552 1.368 . S
H537 C545 0.950 . S
H538 C543 0.950 . S
H539 C544 0.949 . S
H540 C546 0.950 . S
H541 C547 0.950 . S
H542 C548 0.949 . S
C543 H538 0.950 . S
C543 C545 1.327 . S
C543 C549 1.429 . S
C544 C536 1.574 . S
C544 H539 0.949 . S
C544 C550 1.368 . S
C545 C529 1.349 . S
C545 H537 0.950 . S
C545 C543 1.327 . S
C546 C534 1.349 . S
C546 H540 0.950 . S
C546 C547 1.327 . S
C547 H541 0.950 . S
C547 C546 1.327 . S
C547 C551 1.429 . S
C548 C531 1.574 . S
C548 H542 0.949 . S
C548 C552 1.368 . S
C549 C530 1.429 . S
C549 C543 1.429 . S
C549 C550 1.523 . S
C550 C531 1.368 . S
C550 C544 1.368 . S
C550 C549 1.523 . S
C551 C535 1.429 . S
C551 C547 1.429 . S
C551 C552 1.523 . S
C552 C536 1.368 . S
C552 C548 1.368 . S
C552 C551 1.523 . S
H553 C528 0.950 . S
H554 C530 0.950 . S
H555 C531 0.949 . S
H556 C533 0.950 . S
H557 C535 0.950 . S
C558 C559 1.349 . S
C558 C560 1.327 . S
C558 H583 0.950 . S
C559 C558 1.349 . S
C559 C575 1.349 . S
C560 C558 1.327 . S
C560 C579 1.429 . S
C560 H584 0.950 . S
C561 C578 1.574 . S
C561 C580 1.368 . S
C561 H585 0.949 . S
H562 C566 0.949 . S
C563 C564 1.349 . S
C563 C565 1.327 . S
C563 H586 0.950 . S
C564 C563 1.349 . S
C564 C576 1.349 . S
C565 C563 1.327 . S
C565 C581 1.429 . S
C565 H587 0.950 . S
C566 H562 0.949 . S
C566 C574 1.574 . S
C566 C582 1.368 . S
H567 C575 0.950 . S
H568 C573 0.950 . S
H569 C574 0.949 . S
H570 C576 0.950 . S
H571 C577 0.950 . S
H572 C578 0.949 . S
C573 H568 0.950 . S
C573 C575 1.327 . S
C573 C579 1.429 . S
C574 C566 1.574 . S
C574 H569 0.949 . S
C574 C580 1.368 . S
C575 C559 1.349 . S
C575 H567 0.950 . S
C575 C573 1.327 . S
C576 C564 1.349 . S
C576 H570 0.950 . S
C576 C577 1.327 . S
C577 H571 0.950 . S
C577 C576 1.327 . S
C577 C581 1.429 . S
C578 C561 1.574 . S
C578 H572 0.949 . S
C578 C582 1.368 . S
C579 C560 1.429 . S
C579 C573 1.429 . S
C579 C580 1.523 . S
C580 C561 1.368 . S
C580 C574 1.368 . S
C580 C579 1.523 . S
C581 C565 1.429 . S
C581 C577 1.429 . S
C581 C582 1.523 . S
C582 C566 1.368 . S
C582 C578 1.368 . S
C582 C581 1.523 . S
H583 C558 0.950 . S
H584 C560 0.950 . S
H585 C561 0.949 . S
H586 C563 0.950 . S
H587 C565 0.950 . S
C588 C589 1.349 . S
C588 C590 1.327 . S
C588 H613 0.950 . S
C589 C588 1.349 . S
C589 C605 1.349 . S
C590 C588 1.327 . S
C590 C609 1.429 . S
C590 H614 0.950 . S
C591 C608 1.574 . S
C591 C610 1.368 . S
C591 H615 0.949 . S
H592 C596 0.949 . S
C593 C594 1.349 . S
C593 C595 1.327 . S
C593 H616 0.950 . S
C594 C593 1.349 . S
C594 C606 1.349 . S
C595 C593 1.327 . S
C595 C611 1.429 . S
C595 H617 0.950 . S
C596 H592 0.949 . S
C596 C604 1.574 . S
C596 C612 1.368 . S
H597 C605 0.950 . S
H598 C603 0.950 . S
H599 C604 0.949 . S
H600 C606 0.950 . S
H601 C607 0.950 . S
H602 C608 0.949 . S
C603 H598 0.950 . S
C603 C605 1.327 . S
C603 C609 1.429 . S
C604 C596 1.574 . S
C604 H599 0.949 . S
C604 C610 1.368 . S
C605 C589 1.349 . S
C605 H597 0.950 . S
C605 C603 1.327 . S
C606 C594 1.349 . S
C606 H600 0.950 . S
C606 C607 1.327 . S
C607 H601 0.950 . S
C607 C606 1.327 . S
C607 C611 1.429 . S
C608 C591 1.574 . S
C608 H602 0.949 . S
C608 C612 1.368 . S
C609 C590 1.429 . S
C609 C603 1.429 . S
C609 C610 1.523 . S
C610 C591 1.368 . S
C610 C604 1.368 . S
C610 C609 1.523 . S
C611 C595 1.429 . S
C611 C607 1.429 . S
C611 C612 1.523 . S
C612 C596 1.368 . S
C612 C608 1.368 . S
C612 C611 1.523 . S
H613 C588 0.950 . S
H614 C590 0.950 . S
H615 C591 0.949 . S
H616 C593 0.950 . S
H617 C595 0.950 . S
C618 C619 1.349 . S
C618 C620 1.327 . S
C618 H643 0.950 . S
C619 C618 1.349 . S
C619 C635 1.349 . S
C620 C618 1.327 . S
C620 C639 1.429 . S
C620 H644 0.950 . S
C621 C638 1.574 . S
C621 C640 1.368 . S
C621 H645 0.949 . S
H622 C626 0.949 . S
C623 C624 1.349 . S
C623 C625 1.327 . S
C623 H646 0.950 . S
C624 C623 1.349 . S
C624 C636 1.349 . S
C625 C623 1.327 . S
C625 C641 1.429 . S
C625 H647 0.950 . S
C626 H622 0.949 . S
C626 C634 1.574 . S
C626 C642 1.368 . S
H627 C635 0.950 . S
H628 C633 0.950 . S
H629 C634 0.949 . S
H630 C636 0.950 . S
H631 C637 0.950 . S
H632 C638 0.949 . S
C633 H628 0.950 . S
C633 C635 1.327 . S
C633 C639 1.429 . S
C634 C626 1.574 . S
C634 H629 0.949 . S
C634 C640 1.368 . S
C635 C619 1.349 . S
C635 H627 0.950 . S
C635 C633 1.327 . S
C636 C624 1.349 . S
C636 H630 0.950 . S
C636 C637 1.327 . S
C637 H631 0.950 . S
C637 C636 1.327 . S
C637 C641 1.429 . S
C638 C621 1.574 . S
C638 H632 0.949 . S
C638 C642 1.368 . S
C639 C620 1.429 . S
C639 C633 1.429 . S
C639 C640 1.523 . S
C640 C621 1.368 . S
C640 C634 1.368 . S
C640 C639 1.523 . S
C641 C625 1.429 . S
C641 C637 1.429 . S
C641 C642 1.523 . S
C642 C626 1.368 . S
C642 C638 1.368 . S
C642 C641 1.523 . S
H643 C618 0.950 . S
H644 C620 0.950 . S
H645 C621 0.949 . S
H646 C623 0.950 . S
H647 C625 0.950 . S
C648 C649 1.349 . S
C648 C650 1.327 . S
C648 H673 0.950 . S
C649 C648 1.349 . S
C649 C665 1.349 . S
C650 C648 1.327 . S
C650 C669 1.429 . S
C650 H674 0.950 . S
C651 C668 1.574 . S
C651 C670 1.368 . S
C651 H675 0.949 . S
H652 C656 0.949 . S
C653 C654 1.349 . S
C653 C655 1.327 . S
C653 H676 0.950 . S
C654 C653 1.349 . S
C654 C666 1.349 . S
C655 C653 1.327 . S
C655 C671 1.429 . S
C655 H677 0.950 . S
C656 H652 0.949 . S
C656 C664 1.574 . S
C656 C672 1.368 . S
H657 C665 0.950 . S
H658 C663 0.950 . S
H659 C664 0.949 . S
H660 C666 0.950 . S
H661 C667 0.950 . S
H662 C668 0.949 . S
C663 H658 0.950 . S
C663 C665 1.327 . S
C663 C669 1.429 . S
C664 C656 1.574 . S
C664 H659 0.949 . S
C664 C670 1.368 . S
C665 C649 1.349 . S
C665 H657 0.950 . S
C665 C663 1.327 . S
C666 C654 1.349 . S
C666 H660 0.950 . S
C666 C667 1.327 . S
C667 H661 0.950 . S
C667 C666 1.327 . S
C667 C671 1.429 . S
C668 C651 1.574 . S
C668 H662 0.949 . S
C668 C672 1.368 . S
C669 C650 1.429 . S
C669 C663 1.429 . S
C669 C670 1.523 . S
C670 C651 1.368 . S
C670 C664 1.368 . S
C670 C669 1.523 . S
C671 C655 1.429 . S
C671 C667 1.429 . S
C671 C672 1.523 . S
C672 C656 1.368 . S
C672 C668 1.368 . S
C672 C671 1.523 . S
H673 C648 0.950 . S
H674 C650 0.950 . S
H675 C651 0.949 . S
H676 C653 0.950 . S
H677 C655 0.950 . S
C678 C679 1.349 . S
C678 C680 1.327 . S
C678 H703 0.950 . S
C679 C678 1.349 . S
C679 C695 1.349 . S
C680 C678 1.327 . S
C680 C699 1.429 . S
C680 H704 0.950 . S
C681 C698 1.574 . S
C681 C700 1.368 . S
C681 H705 0.949 . S
H682 C686 0.949 . S
C683 C684 1.349 . S
C683 C685 1.327 . S
C683 H706 0.950 . S
C684 C683 1.349 . S
C684 C696 1.349 . S
C685 C683 1.327 . S
C685 C701 1.429 . S
C685 H707 0.950 . S
C686 H682 0.949 . S
C686 C694 1.574 . S
C686 C702 1.368 . S
H687 C695 0.950 . S
H688 C693 0.950 . S
H689 C694 0.949 . S
H690 C696 0.950 . S
H691 C697 0.950 . S
H692 C698 0.949 . S
C693 H688 0.950 . S
C693 C695 1.327 . S
C693 C699 1.429 . S
C694 C686 1.574 . S
C694 H689 0.949 . S
C694 C700 1.368 . S
C695 C679 1.349 . S
C695 H687 0.950 . S
C695 C693 1.327 . S
C696 C684 1.349 . S
C696 H690 0.950 . S
C696 C697 1.327 . S
C697 H691 0.950 . S
C697 C696 1.327 . S
C697 C701 1.429 . S
C698 C681 1.574 . S
C698 H692 0.949 . S
C698 C702 1.368 . S
C699 C680 1.429 . S
C699 C693 1.429 . S
C699 C700 1.523 . S
C700 C681 1.368 . S
C700 C694 1.368 . S
C700 C699 1.523 . S
C701 C685 1.429 . S
C701 C697 1.429 . S
C701 C702 1.523 . S
C702 C686 1.368 . S
C702 C698 1.368 . S
C702 C701 1.523 . S
H703 C678 0.950 . S
H704 C680 0.950 . S
H705 C681 0.949 . S
H706 C683 0.950 . S
H707 C685 0.950 . S
C708 C709 1.349 . S
C708 C710 1.327 . S
C708 H733 0.950 . S
C709 C708 1.349 . S
C709 C725 1.349 . S
C710 C708 1.327 . S
C710 C729 1.429 . S
C710 H734 0.950 . S
C711 C728 1.574 . S
C711 C730 1.368 . S
C711 H735 0.949 . S
H712 C716 0.949 . S
C713 C714 1.349 . S
C713 C715 1.327 . S
C713 H736 0.950 . S
C714 C713 1.349 . S
C714 C726 1.349 . S
C715 C713 1.327 . S
C715 C731 1.429 . S
C715 H737 0.950 . S
C716 H712 0.949 . S
C716 C724 1.574 . S
C716 C732 1.368 . S
H717 C725 0.950 . S
H718 C723 0.950 . S
H719 C724 0.949 . S
H720 C726 0.950 . S
H721 C727 0.950 . S
H722 C728 0.949 . S
C723 H718 0.950 . S
C723 C725 1.327 . S
C723 C729 1.429 . S
C724 C716 1.574 . S
C724 H719 0.949 . S
C724 C730 1.368 . S
C725 C709 1.349 . S
C725 H717 0.950 . S
C725 C723 1.327 . S
C726 C714 1.349 . S
C726 H720 0.950 . S
C726 C727 1.327 . S
C727 H721 0.950 . S
C727 C726 1.327 . S
C727 C731 1.429 . S
C728 C711 1.574 . S
C728 H722 0.949 . S
C728 C732 1.368 . S
C729 C710 1.429 . S
C729 C723 1.429 . S
C729 C730 1.523 . S
C730 C711 1.368 . S
C730 C724 1.368 . S
C730 C729 1.523 . S
C731 C715 1.429 . S
C731 C727 1.429 . S
C731 C732 1.523 . S
C732 C716 1.368 . S
C732 C728 1.368 . S
C732 C731 1.523 . S
H733 C708 0.950 . S
H734 C710 0.950 . S
H735 C711 0.949 . S
H736 C713 0.950 . S
H737 C715 0.950 . S
C738 C739 1.349 . S
C738 C740 1.327 . S
C738 H763 0.950 . S
C739 C738 1.349 . S
C739 C755 1.349 . S
C740 C738 1.327 . S
C740 C759 1.429 . S
C740 H764 0.950 . S
C741 C758 1.574 . S
C741 C760 1.368 . S
C741 H765 0.949 . S
H742 C746 0.949 . S
C743 C744 1.349 . S
C743 C745 1.327 . S
C743 H766 0.950 . S
C744 C743 1.349 . S
C744 C756 1.349 . S
C745 C743 1.327 . S
C745 C761 1.429 . S
C745 H767 0.950 . S
C746 H742 0.949 . S
C746 C754 1.574 . S
C746 C762 1.368 . S
H747 C755 0.950 . S
H748 C753 0.950 . S
H749 C754 0.949 . S
H750 C756 0.950 . S
H751 C757 0.950 . S
H752 C758 0.949 . S
C753 H748 0.950 . S
C753 C755 1.327 . S
C753 C759 1.429 . S
C754 C746 1.574 . S
C754 H749 0.949 . S
C754 C760 1.368 . S
C755 C739 1.349 . S
C755 H747 0.950 . S
C755 C753 1.327 . S
C756 C744 1.349 . S
C756 H750 0.950 . S
C756 C757 1.327 . S
C757 H751 0.950 . S
C757 C756 1.327 . S
C757 C761 1.429 . S
C758 C741 1.574 . S
C758 H752 0.949 . S
C758 C762 1.368 . S
C759 C740 1.429 . S
C759 C753 1.429 . S
C759 C760 1.523 . S
C760 C741 1.368 . S
C760 C754 1.368 . S
C760 C759 1.523 . S
C761 C745 1.429 . S
C761 C757 1.429 . S
C761 C762 1.523 . S
C762 C746 1.368 . S
C762 C758 1.368 . S
C762 C761 1.523 . S
H763 C738 0.950 . S
H764 C740 0.950 . S
H765 C741 0.949 . S
H766 C743 0.950 . S
H767 C745 0.950 . S
C768 C769 1.349 . S
C768 C770 1.327 . S
C768 H793 0.950 . S
C769 C768 1.349 . S
C769 C785 1.349 1_565 S
C770 C768 1.327 . S
C770 C789 1.429 . S
C770 H794 0.950 . S
C771 C788 1.548 1_556 S
C771 C790 1.393 1_545 S
C771 H795 0.953 . S
H772 C776 0.953 . S
C773 C774 1.349 . S
C773 C775 1.327 . S
C773 H796 0.950 . S
C774 C773 1.349 . S
C774 C786 1.349 1_545 S
C775 C773 1.327 . S
C775 C791 1.429 . S
C775 H797 0.950 . S
C776 H772 0.953 . S
C776 C784 1.548 1_554 S
C776 C792 1.393 1_565 S
H777 C785 0.950 . S
H778 C783 0.950 . S
H779 C784 0.949 . S
H780 C786 0.950 . S
H781 C787 0.950 . S
H782 C788 0.949 . S
C783 H778 0.950 . S
C783 C785 1.327 . S
C783 C789 1.429 1_545 S
C784 C776 1.548 1_556 S
C784 H779 0.949 . S
C784 C790 1.368 . S
C785 C769 1.349 1_545 S
C785 H777 0.950 . S
C785 C783 1.327 . S
C786 C774 1.349 1_565 S
C786 H780 0.950 . S
C786 C787 1.327 . S
C787 H781 0.950 . S
C787 C786 1.327 . S
C787 C791 1.429 1_565 S
C788 C771 1.548 1_554 S
C788 H782 0.949 . S
C788 C792 1.368 . S
C789 C770 1.429 . S
C789 C783 1.429 1_565 S
C789 C790 1.523 . S
C790 C771 1.393 1_565 S
C790 C784 1.368 . S
C790 C789 1.523 . S
C791 C775 1.429 . S
C791 C787 1.429 1_545 S
C791 C792 1.523 . S
C792 C776 1.393 1_545 S
C792 C788 1.368 . S
C792 C791 1.523 . S
H793 C768 0.950 . S
H794 C770 0.950 . S
H795 C771 0.953 . S
H796 C773 0.950 . S
H797 C775 0.950 . S
C798 C799 1.349 . S
C798 C800 1.327 . S
C798 H823 0.950 . S
C799 C798 1.349 . S
C799 C815 1.349 . S
C800 C798 1.327 . S
C800 C819 1.429 . S
C800 H824 0.950 . S
C801 C818 1.574 . S
C801 C820 1.368 1_554 S
C801 H825 0.949 . S
H802 C806 0.949 . S
C803 C804 1.349 . S
C803 C805 1.327 . S
C803 H826 0.950 . S
C804 C803 1.349 . S
C804 C816 1.349 . S
C805 C803 1.327 . S
C805 C821 1.429 . S
C805 H827 0.950 . S
C806 H802 0.949 . S
C806 C814 1.574 . S
C806 C822 1.368 1_556 S
H807 C815 0.950 . S
H808 C813 0.950 . S
H809 C814 0.949 . S
H810 C816 0.950 . S
H811 C817 0.950 . S
H812 C818 0.949 . S
C813 H808 0.950 . S
C813 C815 1.327 . S
C813 C819 1.429 . S
C814 C806 1.574 . S
C814 H809 0.949 . S
C814 C820 1.368 . S
C815 C799 1.349 . S
C815 H807 0.950 . S
C815 C813 1.327 . S
C816 C804 1.349 . S
C816 H810 0.950 . S
C816 C817 1.327 . S
C817 H811 0.950 . S
C817 C816 1.327 . S
C817 C821 1.429 . S
C818 C801 1.574 . S
C818 H812 0.949 . S
C818 C822 1.368 . S
C819 C800 1.429 . S
C819 C813 1.429 . S
C819 C820 1.523 . S
C820 C801 1.368 1_556 S
C820 C814 1.368 . S
C820 C819 1.523 . S
C821 C805 1.429 . S
C821 C817 1.429 . S
C821 C822 1.523 . S
C822 C806 1.368 1_554 S
C822 C818 1.368 . S
C822 C821 1.523 . S
H823 C798 0.950 . S
H824 C800 0.950 . S
H825 C801 0.949 . S
H826 C803 0.950 . S
H827 C805 0.950 . S
C828 C829 1.349 . S
C828 C830 1.327 . S
C828 H853 0.950 . S
C829 C828 1.349 . S
C829 C845 1.349 . S
C830 C828 1.327 . S
C830 C849 1.429 . S
C830 H854 0.950 . S
C831 C848 1.574 1_456 S
C831 C850 1.368 . S
C831 H855 0.949 . S
H832 C836 0.949 . S
C833 C834 1.349 . S
C833 C835 1.327 . S
C833 H856 0.950 . S
C834 C833 1.349 . S
C834 C846 1.349 . S
C835 C833 1.327 . S
C835 C851 1.429 . S
C835 H857 0.950 . S
C836 H832 0.949 . S
C836 C844 1.574 1_654 S
C836 C852 1.368 . S
H837 C845 0.950 . S
H838 C843 0.950 . S
H839 C844 0.949 . S
H840 C846 0.950 . S
H841 C847 0.950 . S
H842 C848 0.949 . S
C843 H838 0.950 . S
C843 C845 1.327 . S
C843 C849 1.429 . S
C844 C836 1.574 1_456 S
C844 H839 0.949 . S
C844 C850 1.368 . S
C845 C829 1.349 . S
C845 H837 0.950 . S
C845 C843 1.327 . S
C846 C834 1.349 . S
C846 H840 0.950 . S
C846 C847 1.327 . S
C847 H841 0.950 . S
C847 C846 1.327 . S
C847 C851 1.429 . S
C848 C831 1.574 1_654 S
C848 H842 0.949 . S
C848 C852 1.368 . S
C849 C830 1.429 . S
C849 C843 1.429 . S
C849 C850 1.523 . S
C850 C831 1.368 . S
C850 C844 1.368 . S
C850 C849 1.523 . S
C851 C835 1.429 . S
C851 C847 1.429 . S
C851 C852 1.523 . S
C852 C836 1.368 . S
C852 C848 1.368 . S
C852 C851 1.523 . S
H853 C828 0.950 . S
H854 C830 0.950 . S
H855 C831 0.949 . S
H856 C833 0.950 . S
H857 C835 0.950 . S
C858 C859 1.349 . S
C858 C860 1.327 . S
C858 H883 0.950 . S
C859 C858 1.349 . S
C859 C875 1.349 . S
C860 C858 1.327 . S
C860 C879 1.429 . S
C860 H884 0.950 . S
C861 C878 1.574 . S
C861 C880 1.368 1_554 S
C861 H885 0.949 . S
H862 C866 0.949 . S
C863 C864 1.349 . S
C863 C865 1.327 . S
C863 H886 0.950 . S
C864 C863 1.349 . S
C864 C876 1.349 . S
C865 C863 1.327 . S
C865 C881 1.429 . S
C865 H887 0.950 . S
C866 H862 0.949 . S
C866 C874 1.574 . S
C866 C882 1.368 1_556 S
H867 C875 0.950 . S
H868 C873 0.950 . S
H869 C874 0.949 . S
H870 C876 0.950 . S
H871 C877 0.950 . S
H872 C878 0.949 . S
C873 H868 0.950 . S
C873 C875 1.327 . S
C873 C879 1.429 . S
C874 C866 1.574 . S
C874 H869 0.949 . S
C874 C880 1.368 1_465 S
C875 C859 1.349 . S
C875 H867 0.950 . S
C875 C873 1.327 . S
C876 C864 1.349 . S
C876 H870 0.950 . S
C876 C877 1.327 . S
C877 H871 0.950 . S
C877 C876 1.327 . S
C877 C881 1.429 . S
C878 C861 1.574 . S
C878 H872 0.949 . S
C878 C882 1.368 1_645 S
C879 C860 1.429 . S
C879 C873 1.429 . S
C879 C880 1.523 . S
C880 C861 1.368 1_556 S
C880 C874 1.368 1_645 S
C880 C879 1.523 . S
C881 C865 1.429 . S
C881 C877 1.429 . S
C881 C882 1.523 . S
C882 C866 1.368 1_554 S
C882 C878 1.368 1_465 S
C882 C881 1.523 . S
H883 C858 0.950 . S
H884 C860 0.950 . S
H885 C861 0.949 . S
H886 C863 0.950 . S
H887 C865 0.950 . S
C888 C889 1.349 . S
C888 C890 1.327 . S
C888 H913 0.950 . S
C889 C888 1.349 . S
C889 C905 1.349 . S
C890 C888 1.327 . S
C890 C909 1.429 . S
C890 H914 0.950 . S
C891 C908 1.574 . S
C891 C910 1.368 . S
C891 H915 0.949 . S
H892 C896 0.949 . S
C893 C894 1.349 . S
C893 C895 1.327 . S
C893 H916 0.950 . S
C894 C893 1.349 . S
C894 C906 1.349 . S
C895 C893 1.327 . S
C895 C911 1.429 . S
C895 H917 0.950 . S
C896 H892 0.949 . S
C896 C904 1.574 . S
C896 C912 1.368 . S
H897 C905 0.950 . S
H898 C903 0.950 . S
H899 C904 0.949 . S
H900 C906 0.950 . S
H901 C907 0.950 . S
H902 C908 0.949 . S
C903 H898 0.950 . S
C903 C905 1.327 . S
C903 C909 1.429 . S
C904 C896 1.574 . S
C904 H899 0.949 . S
C904 C910 1.368 . S
C905 C889 1.349 . S
C905 H897 0.950 . S
C905 C903 1.327 . S
C906 C894 1.349 . S
C906 H900 0.950 . S
C906 C907 1.327 . S
C907 H901 0.950 . S
C907 C906 1.327 . S
C907 C911 1.429 . S
C908 C891 1.574 . S
C908 H902 0.949 . S
C908 C912 1.368 . S
C909 C890 1.429 . S
C909 C903 1.429 . S
C909 C910 1.523 . S
C910 C891 1.368 . S
C910 C904 1.368 . S
C910 C909 1.523 . S
C911 C895 1.429 . S
C911 C907 1.429 . S
C911 C912 1.523 . S
C912 C896 1.368 . S
C912 C908 1.368 . S
C912 C911 1.523 . S
H913 C888 0.950 . S
H914 C890 0.950 . S
H915 C891 0.949 . S
H916 C893 0.950 . S
H917 C895 0.950 . S
C918 C919 1.349 . S
C918 C920 1.327 . S
C918 H943 0.950 . S
C919 C918 1.349 . S
C919 C935 1.349 . S
C920 C918 1.327 . S
C920 C939 1.429 . S
C920 H944 0.950 . S
C921 C938 1.574 . S
C921 C940 1.368 1_455 S
C921 H945 0.949 . S
H922 C926 0.949 . S
C923 C924 1.349 . S
C923 C925 1.327 . S
C923 H946 0.950 . S
C924 C923 1.349 . S
C924 C936 1.349 . S
C925 C923 1.327 . S
C925 C941 1.429 . S
C925 H947 0.950 . S
C926 H922 0.949 . S
C926 C934 1.574 . S
C926 C942 1.368 1_655 S
H927 C935 0.950 1_455 S
H928 C933 0.950 . S
H929 C934 0.949 . S
H930 C936 0.950 1_655 S
H931 C937 0.950 . S
H932 C938 0.949 . S
C933 H928 0.950 . S
C933 C935 1.327 1_455 S
C933 C939 1.429 1_455 S
C934 C926 1.574 . S
C934 H929 0.949 . S
C934 C940 1.368 . S
C935 C919 1.349 . S
C935 H927 0.950 1_655 S
C935 C933 1.327 1_655 S
C936 C924 1.349 . S
C936 H930 0.950 1_455 S
C936 C937 1.327 1_455 S
C937 H931 0.950 . S
C937 C936 1.327 1_655 S
C937 C941 1.429 1_655 S
C938 C921 1.574 . S
C938 H932 0.949 . S
C938 C942 1.368 . S
C939 C920 1.429 . S
C939 C933 1.429 1_655 S
C939 C940 1.523 . S
C940 C921 1.368 1_655 S
C940 C934 1.368 . S
C940 C939 1.523 . S
C941 C925 1.429 . S
C941 C937 1.429 1_455 S
C941 C942 1.523 . S
C942 C926 1.368 1_455 S
C942 C938 1.368 . S
C942 C941 1.523 . S
H943 C918 0.950 . S
H944 C920 0.950 . S
H945 C921 0.949 . S
H946 C923 0.950 . S
H947 C925 0.950 . S
C948 C949 1.349 . S
C948 C950 1.327 . S
C948 H973 0.950 . S
C949 C948 1.349 . S
C949 C965 1.349 . S
C950 C948 1.327 . S
C950 C969 1.429 . S
C950 H974 0.950 . S
C951 C968 1.574 . S
C951 C970 1.368 . S
C951 H975 0.949 . S
H952 C956 0.949 . S
C953 C954 1.349 . S
C953 C955 1.327 . S
C953 H976 0.950 . S
C954 C953 1.349 . S
C954 C966 1.349 . S
C955 C953 1.327 . S
C955 C971 1.429 . S
C955 H977 0.950 . S
C956 H952 0.949 . S
C956 C964 1.574 . S
C956 C972 1.368 . S
H957 C965 0.950 . S
H958 C963 0.950 . S
H959 C964 0.949 . S
H960 C966 0.950 . S
H961 C967 0.950 . S
H962 C968 0.949 . S
C963 H958 0.950 . S
C963 C965 1.327 . S
C963 C969 1.429 . S
C964 C956 1.574 . S
C964 H959 0.949 . S
C964 C970 1.368 1_465 S
C965 C949 1.349 . S
C965 H957 0.950 . S
C965 C963 1.327 . S
C966 C954 1.349 . S
C966 H960 0.950 . S
C966 C967 1.327 . S
C967 H961 0.950 . S
C967 C966 1.327 . S
C967 C971 1.429 . S
C968 C951 1.574 . S
C968 H962 0.949 . S
C968 C972 1.368 1_645 S
C969 C950 1.429 . S
C969 C963 1.429 . S
C969 C970 1.523 . S
C970 C951 1.368 . S
C970 C964 1.368 1_645 S
C970 C969 1.523 . S
C971 C955 1.429 . S
C971 C967 1.429 . S
C971 C972 1.523 . S
C972 C956 1.368 . S
C972 C968 1.368 1_465 S
C972 C971 1.523 . S
H973 C948 0.950 . S
H974 C950 0.950 . S
H975 C951 0.949 . S
H976 C953 0.950 . S
H977 C955 0.950 . S
C978 C979 1.349 . S
C978 C980 1.327 . S
C978 H1003 0.950 . S
C979 C978 1.349 . S
C979 C995 1.349 . S
C980 C978 1.327 . S
C980 C999 1.429 . S
C980 H1004 0.950 . S
C981 C998 1.557 1_565 S
C981 C1000 1.384 . S
C981 H1005 0.950 . S
H982 C986 0.950 . S
C983 C984 1.349 . S
C983 C985 1.327 . S
C983 H1006 0.950 . S
C984 C983 1.349 . S
C984 C996 1.349 . S
C985 C983 1.327 . S
C985 C1001 1.429 . S
C985 H1007 0.950 . S
C986 H982 0.950 . S
C986 C994 1.557 1_545 S
C986 C1002 1.384 . S
H987 C995 0.950 . S
H988 C993 0.950 . S
H989 C994 0.949 . S
H990 C996 0.950 . S
H991 C997 0.950 . S
H992 C998 0.949 . S
C993 H988 0.950 . S
C993 C995 1.327 . S
C993 C999 1.429 . S
C994 C986 1.557 1_565 S
C994 H989 0.949 . S
C994 C1000 1.368 . S
C995 C979 1.349 . S
C995 H987 0.950 . S
C995 C993 1.327 . S
C996 C984 1.349 . S
C996 H990 0.950 . S
C996 C997 1.327 . S
C997 H991 0.950 . S
C997 C996 1.327 . S
C997 C1001 1.429 . S
C998 C981 1.557 1_545 S
C998 H992 0.949 . S
C998 C1002 1.368 . S
C999 C980 1.429 . S
C999 C993 1.429 . S
C999 C1000 1.523 . S
C1000 C981 1.384 . S
C1000 C994 1.368 . S
C1000 C999 1.523 . S
C1001 C985 1.429 . S
C1001 C997 1.429 . S
C1001 C1002 1.523 . S
C1002 C986 1.384 . S
C1002 C998 1.368 . S
C1002 C1001 1.523 . S
H1003 C978 0.950 . S
H1004 C980 0.950 . S
H1005 C981 0.950 . S
H1006 C983 0.950 . S
H1007 C985 0.950 . S
C1008 C1009 1.349 . S
C1008 C1010 1.327 . S
C1008 H1033 0.950 . S
C1009 C1008 1.349 . S
C1009 C1025 1.349 . S
C1010 C1008 1.327 . S
C1010 C1029 1.429 . S
C1010 H1034 0.950 1_556 S
C1011 C1028 1.574 1_556 S
C1011 C1030 1.368 1_556 S
C1011 H1035 0.949 . S
H1012 C1016 0.949 . S
C1013 C1014 1.349 . S
C1013 C1015 1.327 . S
C1013 H1036 0.950 . S
C1014 C1013 1.349 . S
C1014 C1026 1.349 . S
C1015 C1013 1.327 . S
C1015 C1031 1.429 . S
C1015 H1037 0.950 . S
C1016 H1012 0.949 . S
C1016 C1024 1.574 . S
C1016 C1032 1.368 . S
H1017 C1025 0.950 . S
H1018 C1023 0.950 . S
H1019 C1024 0.949 . S
H1020 C1026 0.950 . S
H1021 C1027 0.950 . S
H1022 C1028 0.949 . S
C1023 H1018 0.950 . S
C1023 C1025 1.327 . S
C1023 C1029 1.429 . S
C1024 C1016 1.574 . S
C1024 H1019 0.949 . S
C1024 C1030 1.368 . S
C1025 C1009 1.349 . S
C1025 H1017 0.950 . S
C1025 C1023 1.327 . S
C1026 C1014 1.349 . S
C1026 H1020 0.950 . S
C1026 C1027 1.327 . S
C1027 H1021 0.950 . S
C1027 C1026 1.327 . S
C1027 C1031 1.429 . S
C1028 C1011 1.574 1_554 S
C1028 H1022 0.949 . S
C1028 C1032 1.368 . S
C1029 C1010 1.429 . S
C1029 C1023 1.429 . S
C1029 C1030 1.523 1_556 S
C1030 C1011 1.368 1_554 S
C1030 C1024 1.368 . S
C1030 C1029 1.523 1_554 S
C1031 C1015 1.429 . S
C1031 C1027 1.429 . S
C1031 C1032 1.523 . S
C1032 C1016 1.368 . S
C1032 C1028 1.368 . S
C1032 C1031 1.523 . S
H1033 C1008 0.950 . S
H1034 C1010 0.950 1_554 S
H1035 C1011 0.949 . S
H1036 C1013 0.950 . S
H1037 C1015 0.950 . S
C1038 C1039 1.349 . S
C1038 C1040 1.327 . S
C1038 H1063 0.950 . S
C1039 C1038 1.349 . S
C1039 C1055 1.349 . S
C1040 C1038 1.327 . S
C1040 C1059 1.429 . S
C1040 H1064 0.950 . S
C1041 C1058 1.574 . S
C1041 C1060 1.368 . S
C1041 H1065 0.949 . S
H1042 C1046 0.949 . S
C1043 C1044 1.349 . S
C1043 C1045 1.327 . S
C1043 H1066 0.950 . S
C1044 C1043 1.349 . S
C1044 C1056 1.349 . S
C1045 C1043 1.327 . S
C1045 C1061 1.429 . S
C1045 H1067 0.950 . S
C1046 H1042 0.949 . S
C1046 C1054 1.574 1_554 S
C1046 C1062 1.368 . S
H1047 C1055 0.950 . S
H1048 C1053 0.918 1_554 S
H1049 C1054 0.949 . S
H1050 C1056 0.950 . S
H1051 C1057 0.950 . S
H1052 C1058 0.949 . S
C1053 H1048 0.918 1_556 S
C1053 C1055 1.327 . S
C1053 C1059 1.429 . S
C1054 C1046 1.574 1_556 S
C1054 H1049 0.949 . S
C1054 C1060 1.368 1_556 S
C1055 C1039 1.349 . S
C1055 H1047 0.950 . S
C1055 C1053 1.327 . S
C1056 C1044 1.349 . S
C1056 H1050 0.950 . S
C1056 C1057 1.327 . S
C1057 H1051 0.950 . S
C1057 C1056 1.327 . S
C1057 C1061 1.429 . S
C1058 C1041 1.574 . S
C1058 H1052 0.949 . S
C1058 C1062 1.368 . S
C1059 C1040 1.429 . S
C1059 C1053 1.429 . S
C1059 C1060 1.523 1_556 S
C1060 C1041 1.368 . S
C1060 C1054 1.368 1_554 S
C1060 C1059 1.523 1_554 S
C1061 C1045 1.429 . S
C1061 C1057 1.429 . S
C1061 C1062 1.523 . S
C1062 C1046 1.368 . S
C1062 C1058 1.368 . S
C1062 C1061 1.523 . S
H1063 C1038 0.950 . S
H1064 C1040 0.950 . S
H1065 C1041 0.949 . S
H1066 C1043 0.950 . S
H1067 C1045 0.950 . S
C1068 C1069 1.349 . S
C1068 C1070 1.327 . S
C1068 H1093 0.950 . S
C1069 C1068 1.349 . S
C1069 C1085 1.349 . S
C1070 C1068 1.327 . S
C1070 C1089 1.429 . S
C1070 H1094 0.950 . S
C1071 C1088 1.574 . S
C1071 C1090 1.368 . S
C1071 H1095 0.949 . S
H1072 C1076 0.949 . S
C1073 C1074 1.349 . S
C1073 C1075 1.327 . S
C1073 H1096 0.950 . S
C1074 C1073 1.349 . S
C1074 C1086 1.349 . S
C1075 C1073 1.327 . S
C1075 C1091 1.429 . S
C1075 H1097 0.950 . S
C1076 H1072 0.949 . S
C1076 C1084 1.574 1_554 S
C1076 C1092 1.368 . S
H1077 C1085 0.950 . S
H1078 C1083 0.950 1_554 S
H1079 C1084 0.949 . S
H1080 C1086 0.950 . S
H1081 C1087 0.950 . S
H1082 C1088 0.949 . S
C1083 H1078 0.950 1_556 S
C1083 C1085 1.327 . S
C1083 C1089 1.429 . S
C1084 C1076 1.574 1_556 S
C1084 H1079 0.949 . S
C1084 C1090 1.368 1_556 S
C1085 C1069 1.349 . S
C1085 H1077 0.950 . S
C1085 C1083 1.327 . S
C1086 C1074 1.349 . S
C1086 H1080 0.950 . S
C1086 C1087 1.327 . S
C1087 H1081 0.950 . S
C1087 C1086 1.327 . S
C1087 C1091 1.429 . S
C1088 C1071 1.574 . S
C1088 H1082 0.949 . S
C1088 C1092 1.368 . S
C1089 C1070 1.429 . S
C1089 C1083 1.429 . S
C1089 C1090 1.523 1_556 S
C1090 C1071 1.368 . S
C1090 C1084 1.368 1_554 S
C1090 C1089 1.523 1_554 S
C1091 C1075 1.429 . S
C1091 C1087 1.429 . S
C1091 C1092 1.523 . S
C1092 C1076 1.368 . S
C1092 C1088 1.368 . S
C1092 C1091 1.523 . S
H1093 C1068 0.950 . S
H1094 C1070 0.950 . S
H1095 C1071 0.949 . S
H1096 C1073 0.950 . S
H1097 C1075 0.950 . S
C1098 C1099 1.349 . S
C1098 C1100 1.327 . S
C1098 H1123 0.950 . S
C1099 C1098 1.349 . S
C1099 C1115 1.349 . S
C1100 C1098 1.327 . S
C1100 C1119 1.429 . S
C1100 H1124 0.950 . S
C1101 C1118 1.574 . S
C1101 C1120 1.368 . S
C1101 H1125 0.949 . S
H1102 C1106 0.949 . S
C1103 C1104 1.349 . S
C1103 C1105 1.327 . S
C1103 H1126 0.950 . S
C1104 C1103 1.349 . S
C1104 C1116 1.349 . S
C1105 C1103 1.327 . S
C1105 C1121 1.429 . S
C1105 H1127 0.950 . S
C1106 H1102 0.949 . S
C1106 C1114 1.574 . S
C1106 C1122 1.368 . S
H1107 C1115 0.950 . S
H1108 C1113 0.950 . S
H1109 C1114 0.949 1_556 S
H1110 C1116 0.950 . S
H1111 C1117 0.950 . S
H1112 C1118 0.949 . S
C1113 H1108 0.950 . S
C1113 C1115 1.327 . S
C1113 C1119 1.429 . S
C1114 C1106 1.574 . S
C1114 H1109 0.949 1_554 S
C1114 C1120 1.368 . S
C1115 C1099 1.349 . S
C1115 H1107 0.950 . S
C1115 C1113 1.327 . S
C1116 C1104 1.349 . S
C1116 H1110 0.950 . S
C1116 C1117 1.327 . S
C1117 H1111 0.950 . S
C1117 C1116 1.327 . S
C1117 C1121 1.429 . S
C1118 C1101 1.574 . S
C1118 H1112 0.949 . S
C1118 C1122 1.368 . S
C1119 C1100 1.429 . S
C1119 C1113 1.429 . S
C1119 C1120 1.523 1_556 S
C1120 C1101 1.368 . S
C1120 C1114 1.368 . S
C1120 C1119 1.523 1_554 S
C1121 C1105 1.429 . S
C1121 C1117 1.429 . S
C1121 C1122 1.523 . S
C1122 C1106 1.368 . S
C1122 C1118 1.368 . S
C1122 C1121 1.523 . S
H1123 C1098 0.950 . S
H1124 C1100 0.950 . S
H1125 C1101 0.949 . S
H1126 C1103 0.950 . S
H1127 C1105 0.950 . S
C1128 C1129 1.349 . S
C1128 C1130 1.327 . S
C1128 H1153 0.950 . S
C1129 C1128 1.349 . S
C1129 C1145 1.349 . S
C1130 C1128 1.327 . S
C1130 C1149 1.429 . S
C1130 H1154 0.950 . S
C1131 C1148 1.574 . S
C1131 C1150 1.368 . S
C1131 H1155 0.949 . S
H1132 C1136 0.949 . S
C1133 C1134 1.349 . S
C1133 C1135 1.327 . S
C1133 H1156 0.950 . S
C1134 C1133 1.349 . S
C1134 C1146 1.349 . S
C1135 C1133 1.327 . S
C1135 C1151 1.429 . S
C1135 H1157 0.950 . S
C1136 H1132 0.949 . S
C1136 C1144 1.574 . S
C1136 C1152 1.368 . S
H1137 C1145 0.950 . S
H1138 C1143 0.950 . S
H1139 C1144 0.949 . S
H1140 C1146 0.950 . S
H1141 C1147 0.950 . S
H1142 C1148 0.949 . S
C1143 H1138 0.950 . S
C1143 C1145 1.327 . S
C1143 C1149 1.429 . S
C1144 C1136 1.574 . S
C1144 H1139 0.949 . S
C1144 C1150 1.368 . S
C1145 C1129 1.349 . S
C1145 H1137 0.950 . S
C1145 C1143 1.327 . S
C1146 C1134 1.349 . S
C1146 H1140 0.950 . S
C1146 C1147 1.327 . S
C1147 H1141 0.950 . S
C1147 C1146 1.327 . S
C1147 C1151 1.429 . S
C1148 C1131 1.574 . S
C1148 H1142 0.949 . S
C1148 C1152 1.368 . S
C1149 C1130 1.429 . S
C1149 C1143 1.429 . S
C1149 C1150 1.523 . S
C1150 C1131 1.368 . S
C1150 C1144 1.368 . S
C1150 C1149 1.523 . S
C1151 C1135 1.429 . S
C1151 C1147 1.429 . S
C1151 C1152 1.523 . S
C1152 C1136 1.368 . S
C1152 C1148 1.368 . S
C1152 C1151 1.523 . S
H1153 C1128 0.950 . S
H1154 C1130 0.950 . S
H1155 C1131 0.949 . S
H1156 C1133 0.950 . S
H1157 C1135 0.950 . S
C1158 C1159 1.349 . S
C1158 C1160 1.327 . S
C1158 H1183 0.950 . S
C1159 C1158 1.349 . S
C1159 C1175 1.349 . S
C1160 C1158 1.327 . S
C1160 C1179 1.429 . S
C1160 H1184 0.950 . S
C1161 C1178 1.574 . S
C1161 C1180 1.368 . S
C1161 H1185 0.949 . S
H1162 C1166 0.949 . S
C1163 C1164 1.349 . S
C1163 C1165 1.327 . S
C1163 H1186 0.950 . S
C1164 C1163 1.349 . S
C1164 C1176 1.349 . S
C1165 C1163 1.327 . S
C1165 C1181 1.429 . S
C1165 H1187 0.950 . S
C1166 H1162 0.949 . S
C1166 C1174 1.574 . S
C1166 C1182 1.368 . S
H1167 C1175 0.950 . S
H1168 C1173 0.950 . S
H1169 C1174 0.949 . S
H1170 C1176 0.950 . S
H1171 C1177 0.950 . S
H1172 C1178 0.949 . S
C1173 H1168 0.950 . S
C1173 C1175 1.327 . S
C1173 C1179 1.429 . S
C1174 C1166 1.574 . S
C1174 H1169 0.949 . S
C1174 C1180 1.368 . S
C1175 C1159 1.349 . S
C1175 H1167 0.950 . S
C1175 C1173 1.327 . S
C1176 C1164 1.349 . S
C1176 H1170 0.950 . S
C1176 C1177 1.327 . S
C1177 H1171 0.950 . S
C1177 C1176 1.327 . S
C1177 C1181 1.429 . S
C1178 C1161 1.574 . S
C1178 H1172 0.949 . S
C1178 C1182 1.368 . S
C1179 C1160 1.429 . S
C1179 C1173 1.429 . S
C1179 C1180 1.523 . S
C1180 C1161 1.368 . S
C1180 C1174 1.368 . S
C1180 C1179 1.523 . S
C1181 C1165 1.429 . S
C1181 C1177 1.429 . S
C1181 C1182 1.523 . S
C1182 C1166 1.368 . S
C1182 C1178 1.368 . S
C1182 C1181 1.523 . S
H1183 C1158 0.950 . S
H1184 C1160 0.950 . S
H1185 C1161 0.949 . S
H1186 C1163 0.950 . S
H1187 C1165 0.950 . S
C1188 C1189 1.349 . S
C1188 C1190 1.327 . S
C1188 H1213 0.950 . S
C1189 C1188 1.349 . S
C1189 C1205 1.349 . S
C1190 C1188 1.327 . S
C1190 C1209 1.429 . S
C1190 H1214 0.950 . S
C1191 C1208 1.574 . S
C1191 C1210 1.368 . S
C1191 H1215 0.949 . S
H1192 C1196 0.949 . S
C1193 C1194 1.349 . S
C1193 C1195 1.327 . S
C1193 H1216 0.950 . S
C1194 C1193 1.349 . S
C1194 C1206 1.349 . S
C1195 C1193 1.327 . S
C1195 C1211 1.429 . S
C1195 H1217 0.950 . S
C1196 H1192 0.949 . S
C1196 C1204 1.574 . S
C1196 C1212 1.368 . S
H1197 C1205 0.950 . S
H1198 C1203 0.950 . S
H1199 C1204 0.949 . S
H1200 C1206 0.950 . S
H1201 C1207 0.950 . S
H1202 C1208 0.949 . S
C1203 H1198 0.950 . S
C1203 C1205 1.327 . S
C1203 C1209 1.429 . S
C1204 C1196 1.574 . S
C1204 H1199 0.949 . S
C1204 C1210 1.368 . S
C1205 C1189 1.349 . S
C1205 H1197 0.950 . S
C1205 C1203 1.327 . S
C1206 C1194 1.349 . S
C1206 H1200 0.950 . S
C1206 C1207 1.327 . S
C1207 H1201 0.950 . S
C1207 C1206 1.327 . S
C1207 C1211 1.429 . S
C1208 C1191 1.574 . S
C1208 H1202 0.949 . S
C1208 C1212 1.368 . S
C1209 C1190 1.429 . S
C1209 C1203 1.429 . S
C1209 C1210 1.523 . S
C1210 C1191 1.368 . S
C1210 C1204 1.368 . S
C1210 C1209 1.523 . S
C1211 C1195 1.429 . S
C1211 C1207 1.429 . S
C1211 C1212 1.523 . S
C1212 C1196 1.368 . S
C1212 C1208 1.368 . S
C1212 C1211 1.523 . S
H1213 C1188 0.950 . S
H1214 C1190 0.950 . S
H1215 C1191 0.949 . S
H1216 C1193 0.950 . S
H1217 C1195 0.950 . S
C1218 C1219 1.349 . S
C1218 C1220 1.327 . S
C1218 H1243 0.950 . S
C1219 C1218 1.349 . S
C1219 C1235 1.349 . S
C1220 C1218 1.327 . S
C1220 C1239 1.429 . S
C1220 H1244 0.950 . S
C1221 C1238 1.574 . S
C1221 C1240 1.368 . S
C1221 H1245 0.949 . S
H1222 C1226 0.949 . S
C1223 C1224 1.349 . S
C1223 C1225 1.327 . S
C1223 H1246 0.950 . S
C1224 C1223 1.349 . S
C1224 C1236 1.349 . S
C1225 C1223 1.327 . S
C1225 C1241 1.429 . S
C1225 H1247 0.950 . S
C1226 H1222 0.949 . S
C1226 C1234 1.574 . S
C1226 C1242 1.368 . S
H1227 C1235 0.950 . S
H1228 C1233 0.950 . S
H1229 C1234 0.949 . S
H1230 C1236 0.950 . S
H1231 C1237 0.950 . S
H1232 C1238 0.949 . S
C1233 H1228 0.950 . S
C1233 C1235 1.327 . S
C1233 C1239 1.429 . S
C1234 C1226 1.574 . S
C1234 H1229 0.949 . S
C1234 C1240 1.368 . S
C1235 C1219 1.349 . S
C1235 H1227 0.950 . S
C1235 C1233 1.327 . S
C1236 C1224 1.349 . S
C1236 H1230 0.950 . S
C1236 C1237 1.327 . S
C1237 H1231 0.950 . S
C1237 C1236 1.327 . S
C1237 C1241 1.429 . S
C1238 C1221 1.574 . S
C1238 H1232 0.949 . S
C1238 C1242 1.368 . S
C1239 C1220 1.429 . S
C1239 C1233 1.429 . S
C1239 C1240 1.523 . S
C1240 C1221 1.368 . S
C1240 C1234 1.368 . S
C1240 C1239 1.523 . S
C1241 C1225 1.429 . S
C1241 C1237 1.429 . S
C1241 C1242 1.523 . S
C1242 C1226 1.368 . S
C1242 C1238 1.368 . S
C1242 C1241 1.523 . S
H1243 C1218 0.950 . S
H1244 C1220 0.950 . S
H1245 C1221 0.949 . S
H1246 C1223 0.950 . S
H1247 C1225 0.950 . S
C1248 C1249 1.349 . S
C1248 C1250 1.327 . S
C1248 H1273 0.950 . S
C1249 C1248 1.349 . S
C1249 C1265 1.349 . S
C1250 C1248 1.327 . S
C1250 C1269 1.429 . S
C1250 H1274 0.950 . S
C1251 C1268 1.574 1_554 S
C1251 C1270 1.368 1_554 S
C1251 H1275 0.949 . S
H1252 C1256 0.949 . S
C1253 C1254 1.349 . S
C1253 C1255 1.327 . S
C1253 H1276 0.950 . S
C1254 C1253 1.349 . S
C1254 C1266 1.349 . S
C1255 C1253 1.327 . S
C1255 C1271 1.429 . S
C1255 H1277 0.950 . S
C1256 H1252 0.949 . S
C1256 C1264 1.574 . S
C1256 C1272 1.368 . S
H1257 C1265 0.950 . S
H1258 C1263 0.950 . S
H1259 C1264 0.949 . S
H1260 C1266 0.950 . S
H1261 C1267 0.950 . S
H1262 C1268 0.949 . S
C1263 H1258 0.950 . S
C1263 C1265 1.327 . S
C1263 C1269 1.429 . S
C1264 C1256 1.574 . S
C1264 H1259 0.949 . S
C1264 C1270 1.368 . S
C1265 C1249 1.349 . S
C1265 H1257 0.950 . S
C1265 C1263 1.327 . S
C1266 C1254 1.349 . S
C1266 H1260 0.950 . S
C1266 C1267 1.327 . S
C1267 H1261 0.950 . S
C1267 C1266 1.327 . S
C1267 C1271 1.429 . S
C1268 C1251 1.574 1_556 S
C1268 H1262 0.949 . S
C1268 C1272 1.368 . S
C1269 C1250 1.429 . S
C1269 C1263 1.429 . S
C1269 C1270 1.523 1_554 S
C1270 C1251 1.368 1_556 S
C1270 C1264 1.368 . S
C1270 C1269 1.523 1_556 S
C1271 C1255 1.429 . S
C1271 C1267 1.429 . S
C1271 C1272 1.523 . S
C1272 C1256 1.368 . S
C1272 C1268 1.368 . S
C1272 C1271 1.523 . S
H1273 C1248 0.950 . S
H1274 C1250 0.950 . S
H1275 C1251 0.949 . S
H1276 C1253 0.950 . S
H1277 C1255 0.950 . S
C1278 C1279 1.349 . S
C1278 C1280 1.327 . S
C1278 H1303 0.950 . S
C1279 C1278 1.349 . S
C1279 C1295 1.349 . S
C1280 C1278 1.327 . S
C1280 C1299 1.429 . S
C1280 H1304 0.950 . S
C1281 C1298 1.574 . S
C1281 C1300 1.368 . S
C1281 H1305 0.949 . S
H1282 C1286 0.949 . S
C1283 C1284 1.349 . S
C1283 C1285 1.327 . S
C1283 H1306 0.950 . S
C1284 C1283 1.349 . S
C1284 C1296 1.349 . S
C1285 C1283 1.327 . S
C1285 C1301 1.429 . S
C1285 H1307 0.950 . S
C1286 H1282 0.949 . S
C1286 C1294 1.574 1_556 S
C1286 C1302 1.368 . S
H1287 C1295 0.950 . S
H1288 C1293 0.950 1_556 S
H1289 C1294 0.949 . S
H1290 C1296 0.950 . S
H1291 C1297 0.950 . S
H1292 C1298 0.949 . S
C1293 H1288 0.950 1_554 S
C1293 C1295 1.327 . S
C1293 C1299 1.429 . S
C1294 C1286 1.574 1_554 S
C1294 H1289 0.949 . S
C1294 C1300 1.368 1_554 S
C1295 C1279 1.349 . S
C1295 H1287 0.950 . S
C1295 C1293 1.327 . S
C1296 C1284 1.349 . S
C1296 H1290 0.950 . S
C1296 C1297 1.327 . S
C1297 H1291 0.950 . S
C1297 C1296 1.327 . S
C1297 C1301 1.429 . S
C1298 C1281 1.574 . S
C1298 H1292 0.949 . S
C1298 C1302 1.368 . S
C1299 C1280 1.429 . S
C1299 C1293 1.429 . S
C1299 C1300 1.523 1_554 S
C1300 C1281 1.368 . S
C1300 C1294 1.368 1_556 S
C1300 C1299 1.523 1_556 S
C1301 C1285 1.429 . S
C1301 C1297 1.429 . S
C1301 C1302 1.523 . S
C1302 C1286 1.368 . S
C1302 C1298 1.368 . S
C1302 C1301 1.523 . S
H1303 C1278 0.950 . S
H1304 C1280 0.950 . S
H1305 C1281 0.949 . S
H1306 C1283 0.950 . S
H1307 C1285 0.950 . S
C1308 C1309 1.349 . S
C1308 C1310 1.327 . S
C1308 H1333 0.950 . S
C1309 C1308 1.349 . S
C1309 C1325 1.349 . S
C1310 C1308 1.327 . S
C1310 C1329 1.429 . S
C1310 H1334 0.950 1_554 S
C1311 C1328 1.574 1_554 S
C1311 C1330 1.368 1_554 S
C1311 H1335 0.949 . S
H1312 C1316 0.949 . S
C1313 C1314 1.349 . S
C1313 C1315 1.327 . S
C1313 H1336 0.950 . S
C1314 C1313 1.349 . S
C1314 C1326 1.349 . S
C1315 C1313 1.327 . S
C1315 C1331 1.429 . S
C1315 H1337 0.950 . S
C1316 H1312 0.949 . S
C1316 C1324 1.574 . S
C1316 C1332 1.368 . S
H1317 C1325 0.950 . S
H1318 C1323 0.950 . S
H1319 C1324 0.949 . S
H1320 C1326 0.950 . S
H1321 C1327 0.950 . S
H1322 C1328 0.949 . S
C1323 H1318 0.950 . S
C1323 C1325 1.327 . S
C1323 C1329 1.429 . S
C1324 C1316 1.574 . S
C1324 H1319 0.949 . S
C1324 C1330 1.368 . S
C1325 C1309 1.349 . S
C1325 H1317 0.950 . S
C1325 C1323 1.327 . S
C1326 C1314 1.349 . S
C1326 H1320 0.950 . S
C1326 C1327 1.327 . S
C1327 H1321 0.950 . S
C1327 C1326 1.327 . S
C1327 C1331 1.429 . S
C1328 C1311 1.574 1_556 S
C1328 H1322 0.949 . S
C1328 C1332 1.368 . S
C1329 C1310 1.429 . S
C1329 C1323 1.429 . S
C1329 C1330 1.523 1_554 S
C1330 C1311 1.368 1_556 S
C1330 C1324 1.368 . S
C1330 C1329 1.523 1_556 S
C1331 C1315 1.429 . S
C1331 C1327 1.429 . S
C1331 C1332 1.523 . S
C1332 C1316 1.368 . S
C1332 C1328 1.368 . S
C1332 C1331 1.523 . S
H1333 C1308 0.950 . S
H1334 C1310 0.950 1_556 S
H1335 C1311 0.949 . S
H1336 C1313 0.950 . S
H1337 C1315 0.950 . S
C1338 C1339 1.349 . S
C1338 C1340 1.327 . S
C1338 H1363 0.950 . S
C1339 C1338 1.349 . S
C1339 C1355 1.349 . S
C1340 C1338 1.327 . S
C1340 C1359 1.429 . S
C1340 H1364 0.950 . S
C1341 C1358 1.574 . S
C1341 C1360 1.368 . S
C1341 H1365 0.949 . S
H1342 C1346 0.949 . S
C1343 C1344 1.349 . S
C1343 C1345 1.327 . S
C1343 H1366 0.950 . S
C1344 C1343 1.349 . S
C1344 C1356 1.349 . S
C1345 C1343 1.327 . S
C1345 C1361 1.429 . S
C1345 H1367 0.950 . S
C1346 H1342 0.949 . S
C1346 C1354 1.574 . S
C1346 C1362 1.368 . S
H1347 C1355 0.950 . S
H1348 C1353 0.950 . S
H1349 C1354 0.936 1_554 S
H1350 C1356 0.950 . S
H1351 C1357 0.950 . S
H1352 C1358 0.949 . S
C1353 H1348 0.950 . S
C1353 C1355 1.327 . S
C1353 C1359 1.429 . S
C1354 C1346 1.574 . S
C1354 H1349 0.936 1_556 S
C1354 C1360 1.368 . S
C1355 C1339 1.349 . S
C1355 H1347 0.950 . S
C1355 C1353 1.327 . S
C1356 C1344 1.349 . S
C1356 H1350 0.950 . S
C1356 C1357 1.327 . S
C1357 H1351 0.950 . S
C1357 C1356 1.327 . S
C1357 C1361 1.429 . S
C1358 C1341 1.574 . S
C1358 H1352 0.949 . S
C1358 C1362 1.368 . S
C1359 C1340 1.429 . S
C1359 C1353 1.429 . S
C1359 C1360 1.523 1_554 S
C1360 C1341 1.368 . S
C1360 C1354 1.368 . S
C1360 C1359 1.523 1_556 S
C1361 C1345 1.429 . S
C1361 C1357 1.429 . S
C1361 C1362 1.523 . S
C1362 C1346 1.368 . S
C1362 C1358 1.368 . S
C1362 C1361 1.523 . S
H1363 C1338 0.950 . S
H1364 C1340 0.950 . S
H1365 C1341 0.949 . S
H1366 C1343 0.950 . S
H1367 C1345 0.950 . S
C1368 C1369 1.349 . S
C1368 C1370 1.327 . S
C1368 H1393 0.950 . S
C1369 C1368 1.349 . S
C1369 C1385 1.349 . S
C1370 C1368 1.327 . S
C1370 C1389 1.429 . S
C1370 H1394 0.950 . S
C1371 C1388 1.574 . S
C1371 C1390 1.368 . S
C1371 H1395 0.949 . S
H1372 C1376 0.949 . S
C1373 C1374 1.349 . S
C1373 C1375 1.327 . S
C1373 H1396 0.950 . S
C1374 C1373 1.349 . S
C1374 C1386 1.349 . S
C1375 C1373 1.327 . S
C1375 C1391 1.429 . S
C1375 H1397 0.950 . S
C1376 H1372 0.949 . S
C1376 C1384 1.574 . S
C1376 C1392 1.368 . S
H1377 C1385 0.950 . S
H1378 C1383 0.950 . S
H1379 C1384 0.949 . S
H1380 C1386 0.950 . S
H1381 C1387 0.950 . S
H1382 C1388 0.949 . S
C1383 H1378 0.950 . S
C1383 C1385 1.327 . S
C1383 C1389 1.429 . S
C1384 C1376 1.574 . S
C1384 H1379 0.949 . S
C1384 C1390 1.368 . S
C1385 C1369 1.349 . S
C1385 H1377 0.950 . S
C1385 C1383 1.327 . S
C1386 C1374 1.349 . S
C1386 H1380 0.950 . S
C1386 C1387 1.327 . S
C1387 H1381 0.950 . S
C1387 C1386 1.327 . S
C1387 C1391 1.429 . S
C1388 C1371 1.574 . S
C1388 H1382 0.949 . S
C1388 C1392 1.368 . S
C1389 C1370 1.429 . S
C1389 C1383 1.429 . S
C1389 C1390 1.523 . S
C1390 C1371 1.368 . S
C1390 C1384 1.368 . S
C1390 C1389 1.523 . S
C1391 C1375 1.429 . S
C1391 C1387 1.429 . S
C1391 C1392 1.523 . S
C1392 C1376 1.368 . S
C1392 C1388 1.368 . S
C1392 C1391 1.523 . S
H1393 C1368 0.950 . S
H1394 C1370 0.950 . S
H1395 C1371 0.949 . S
H1396 C1373 0.950 . S
H1397 C1375 0.950 . S
C1398 C1399 1.349 . S
C1398 C1400 1.327 . S
C1398 H1423 0.950 . S
C1399 C1398 1.349 . S
C1399 C1415 1.349 . S
C1400 C1398 1.327 . S
C1400 C1419 1.429 . S
C1400 H1424 0.950 . S
C1401 C1418 1.574 . S
C1401 C1420 1.368 . S
C1401 H1425 0.949 . S
H1402 C1406 0.949 . S
C1403 C1404 1.349 . S
C1403 C1405 1.327 . S
C1403 H1426 0.950 . S
C1404 C1403 1.349 . S
C1404 C1416 1.349 . S
C1405 C1403 1.327 . S
C1405 C1421 1.429 . S
C1405 H1427 0.950 . S
C1406 H1402 0.949 . S
C1406 C1414 1.574 . S
C1406 C1422 1.368 . S
H1407 C1415 0.950 . S
H1408 C1413 0.950 . S
H1409 C1414 0.949 . S
H1410 C1416 0.950 . S
H1411 C1417 0.950 . S
H1412 C1418 0.949 . S
C1413 H1408 0.950 . S
C1413 C1415 1.327 . S
C1413 C1419 1.429 . S
C1414 C1406 1.574 . S
C1414 H1409 0.949 . S
C1414 C1420 1.368 . S
C1415 C1399 1.349 . S
C1415 H1407 0.950 . S
C1415 C1413 1.327 . S
C1416 C1404 1.349 . S
C1416 H1410 0.950 . S
C1416 C1417 1.327 . S
C1417 H1411 0.950 . S
C1417 C1416 1.327 . S
C1417 C1421 1.429 . S
C1418 C1401 1.574 . S
C1418 H1412 0.949 . S
C1418 C1422 1.368 . S
C1419 C1400 1.429 . S
C1419 C1413 1.429 . S
C1419 C1420 1.523 . S
C1420 C1401 1.368 . S
C1420 C1414 1.368 . S
C1420 C1419 1.523 . S
C1421 C1405 1.429 . S
C1421 C1417 1.429 . S
C1421 C1422 1.523 . S
C1422 C1406 1.368 . S
C1422 C1418 1.368 . S
C1422 C1421 1.523 . S
H1423 C1398 0.950 . S
H1424 C1400 0.950 . S
H1425 C1401 0.949 . S
H1426 C1403 0.950 . S
H1427 C1405 0.950 . S
C1428 C1429 1.349 . S
C1428 C1430 1.327 . S
C1428 H1453 0.950 . S
C1429 C1428 1.349 . S
C1429 C1445 1.349 . S
C1430 C1428 1.327 . S
C1430 C1449 1.429 . S
C1430 H1454 0.950 . S
C1431 C1448 1.574 . S
C1431 C1450 1.368 . S
C1431 H1455 0.949 . S
H1432 C1436 0.949 . S
C1433 C1434 1.349 . S
C1433 C1435 1.327 . S
C1433 H1456 0.950 . S
C1434 C1433 1.349 . S
C1434 C1446 1.349 . S
C1435 C1433 1.327 . S
C1435 C1451 1.429 . S
C1435 H1457 0.950 . S
C1436 H1432 0.949 . S
C1436 C1444 1.574 . S
C1436 C1452 1.368 . S
H1437 C1445 0.950 . S
H1438 C1443 0.950 . S
H1439 C1444 0.949 . S
H1440 C1446 0.950 . S
H1441 C1447 0.950 . S
H1442 C1448 0.949 . S
C1443 H1438 0.950 . S
C1443 C1445 1.327 . S
C1443 C1449 1.429 . S
C1444 C1436 1.574 . S
C1444 H1439 0.949 . S
C1444 C1450 1.368 . S
C1445 C1429 1.349 . S
C1445 H1437 0.950 . S
C1445 C1443 1.327 . S
C1446 C1434 1.349 . S
C1446 H1440 0.950 . S
C1446 C1447 1.327 . S
C1447 H1441 0.950 . S
C1447 C1446 1.327 . S
C1447 C1451 1.429 . S
C1448 C1431 1.574 . S
C1448 H1442 0.949 . S
C1448 C1452 1.368 . S
C1449 C1430 1.429 . S
C1449 C1443 1.429 . S
C1449 C1450 1.523 . S
C1450 C1431 1.368 . S
C1450 C1444 1.368 . S
C1450 C1449 1.523 . S
C1451 C1435 1.429 . S
C1451 C1447 1.429 . S
C1451 C1452 1.523 . S
C1452 C1436 1.368 . S
C1452 C1448 1.368 . S
C1452 C1451 1.523 . S
H1453 C1428 0.950 . S
H1454 C1430 0.950 . S
H1455 C1431 0.949 . S
H1456 C1433 0.950 . S
H1457 C1435 0.950 . S
C1458 C1459 1.349 . S
C1458 C1460 1.327 . S
C1458 H1483 0.950 . S
C1459 C1458 1.349 . S
C1459 C1475 1.349 . S
C1460 C1458 1.327 . S
C1460 C1479 1.429 . S
C1460 H1484 0.950 . S
C1461 C1478 1.574 . S
C1461 C1480 1.368 . S
C1461 H1485 0.949 . S
H1462 C1466 0.949 . S
C1463 C1464 1.349 . S
C1463 C1465 1.327 . S
C1463 H1486 0.950 . S
C1464 C1463 1.349 . S
C1464 C1476 1.349 . S
C1465 C1463 1.327 . S
C1465 C1481 1.429 . S
C1465 H1487 0.950 . S
C1466 H1462 0.949 . S
C1466 C1474 1.574 . S
C1466 C1482 1.368 . S
H1467 C1475 0.950 . S
H1468 C1473 0.950 . S
H1469 C1474 0.949 . S
H1470 C1476 0.950 . S
H1471 C1477 0.950 . S
H1472 C1478 0.949 . S
C1473 H1468 0.950 . S
C1473 C1475 1.327 . S
C1473 C1479 1.429 . S
C1474 C1466 1.574 . S
C1474 H1469 0.949 . S
C1474 C1480 1.368 . S
C1475 C1459 1.349 . S
C1475 H1467 0.950 . S
C1475 C1473 1.327 . S
C1476 C1464 1.349 . S
C1476 H1470 0.950 . S
C1476 C1477 1.327 . S
C1477 H1471 0.950 . S
C1477 C1476 1.327 . S
C1477 C1481 1.429 . S
C1478 C1461 1.574 . S
C1478 H1472 0.949 . S
C1478 C1482 1.368 . S
C1479 C1460 1.429 . S
C1479 C1473 1.429 . S
C1479 C1480 1.523 . S
C1480 C1461 1.368 . S
C1480 C1474 1.368 . S
C1480 C1479 1.523 . S
C1481 C1465 1.429 . S
C1481 C1477 1.429 . S
C1481 C1482 1.523 . S
C1482 C1466 1.368 . S
C1482 C1478 1.368 . S
C1482 C1481 1.523 . S
H1483 C1458 0.950 . S
H1484 C1460 0.950 . S
H1485 C1461 0.949 . S
H1486 C1463 0.950 . S
H1487 C1465 0.950 . S
C1488 C1489 1.349 . S
C1488 C1490 1.327 . S
C1488 H1513 0.950 . S
C1489 C1488 1.349 . S
C1489 C1505 1.349 . S
C1490 C1488 1.327 . S
C1490 C1509 1.429 . S
C1490 H1514 0.950 . S
C1491 C1508 1.574 . S
C1491 C1510 1.368 . S
C1491 H1515 0.949 . S
H1492 C1496 0.949 . S
C1493 C1494 1.349 . S
C1493 C1495 1.327 . S
C1493 H1516 0.950 . S
C1494 C1493 1.349 . S
C1494 C1506 1.349 . S
C1495 C1493 1.327 . S
C1495 C1511 1.429 . S
C1495 H1517 0.950 . S
C1496 H1492 0.949 . S
C1496 C1504 1.574 . S
C1496 C1512 1.368 . S
H1497 C1505 0.950 . S
H1498 C1503 0.950 . S
H1499 C1504 0.949 . S
H1500 C1506 0.950 . S
H1501 C1507 0.950 . S
H1502 C1508 0.949 . S
C1503 H1498 0.950 . S
C1503 C1505 1.327 . S
C1503 C1509 1.429 . S
C1504 C1496 1.574 . S
C1504 H1499 0.949 . S
C1504 C1510 1.368 . S
C1505 C1489 1.349 . S
C1505 H1497 0.950 . S
C1505 C1503 1.327 . S
C1506 C1494 1.349 . S
C1506 H1500 0.950 . S
C1506 C1507 1.327 . S
C1507 H1501 0.950 . S
C1507 C1506 1.327 . S
C1507 C1511 1.429 . S
C1508 C1491 1.574 . S
C1508 H1502 0.949 . S
C1508 C1512 1.368 . S
C1509 C1490 1.429 . S
C1509 C1503 1.429 . S
C1509 C1510 1.523 . S
C1510 C1491 1.368 . S
C1510 C1504 1.368 . S
C1510 C1509 1.523 . S
C1511 C1495 1.429 . S
C1511 C1507 1.429 . S
C1511 C1512 1.523 . S
C1512 C1496 1.368 . S
C1512 C1508 1.368 . S
C1512 C1511 1.523 . S
H1513 C1488 0.950 . S
H1514 C1490 0.950 . S
H1515 C1491 0.949 . S
H1516 C1493 0.950 . S
H1517 C1495 0.950 . S
C1518 C1519 1.349 . S
C1518 C1520 1.327 . S
C1518 H1543 0.950 . S
C1519 C1518 1.349 . S
C1519 C1535 1.349 . S
C1520 C1518 1.327 . S
C1520 C1539 1.429 . S
C1520 H1544 0.950 . S
C1521 C1538 1.574 . S
C1521 C1540 1.368 . S
C1521 H1545 0.949 . S
H1522 C1526 0.949 . S
C1523 C1524 1.349 . S
C1523 C1525 1.327 . S
C1523 H1546 0.950 . S
C1524 C1523 1.349 . S
C1524 C1536 1.349 . S
C1525 C1523 1.327 . S
C1525 C1541 1.429 . S
C1525 H1547 0.950 . S
C1526 H1522 0.949 . S
C1526 C1534 1.574 . S
C1526 C1542 1.368 . S
H1527 C1535 0.950 . S
H1528 C1533 0.950 . S
H1529 C1534 0.949 . S
H1530 C1536 0.950 . S
H1531 C1537 0.950 . S
H1532 C1538 0.949 . S
C1533 H1528 0.950 . S
C1533 C1535 1.327 . S
C1533 C1539 1.429 . S
C1534 C1526 1.574 . S
C1534 H1529 0.949 . S
C1534 C1540 1.368 . S
C1535 C1519 1.349 . S
C1535 H1527 0.950 . S
C1535 C1533 1.327 . S
C1536 C1524 1.349 . S
C1536 H1530 0.950 . S
C1536 C1537 1.327 . S
C1537 H1531 0.950 . S
C1537 C1536 1.327 . S
C1537 C1541 1.429 . S
C1538 C1521 1.574 . S
C1538 H1532 0.949 . S
C1538 C1542 1.368 . S
C1539 C1520 1.429 . S
C1539 C1533 1.429 . S
C1539 C1540 1.523 . S
C1540 C1521 1.368 . S
C1540 C1534 1.368 . S
C1540 C1539 1.523 . S
C1541 C1525 1.429 . S
C1541 C1537 1.429 . S
C1541 C1542 1.523 . S
C1542 C1526 1.368 . S
C1542 C1538 1.368 . S
C1542 C1541 1.523 . S
H1543 C1518 0.950 . S
H1544 C1520 0.950 . S
H1545 C1521 0.949 . S
H1546 C1523 0.950 . S
H1547 C1525 0.950 . S
C1548 C1549 1.349 . S
C1548 C1550 1.327 . S
C1548 H1573 0.950 . S
C1549 C1548 1.349 . S
C1549 C1565 1.349 . S
C1550 C1548 1.327 . S
C1550 C1569 1.429 . S
C1550 H1574 0.950 . S
C1551 C1568 1.574 . S
C1551 C1570 1.368 . S
C1551 H1575 0.949 . S
H1552 C1556 0.949 . S
C1553 C1554 1.349 . S
C1553 C1555 1.327 . S
C1553 H1576 0.950 . S
C1554 C1553 1.349 . S
C1554 C1566 1.349 . S
C1555 C1553 1.327 . S
C1555 C1571 1.429 . S
C1555 H1577 0.950 . S
C1556 H1552 0.949 . S
C1556 C1564 1.574 . S
C1556 C1572 1.368 . S
H1557 C1565 0.950 . S
H1558 C1563 0.950 . S
H1559 C1564 0.949 . S
H1560 C1566 0.950 . S
H1561 C1567 0.950 . S
H1562 C1568 0.949 . S
C1563 H1558 0.950 . S
C1563 C1565 1.327 . S
C1563 C1569 1.429 . S
C1564 C1556 1.574 . S
C1564 H1559 0.949 . S
C1564 C1570 1.368 . S
C1565 C1549 1.349 . S
C1565 H1557 0.950 . S
C1565 C1563 1.327 . S
C1566 C1554 1.349 . S
C1566 H1560 0.950 . S
C1566 C1567 1.327 . S
C1567 H1561 0.950 . S
C1567 C1566 1.327 . S
C1567 C1571 1.429 . S
C1568 C1551 1.574 . S
C1568 H1562 0.949 . S
C1568 C1572 1.368 . S
C1569 C1550 1.429 . S
C1569 C1563 1.429 . S
C1569 C1570 1.523 . S
C1570 C1551 1.368 . S
C1570 C1564 1.368 . S
C1570 C1569 1.523 . S
C1571 C1555 1.429 . S
C1571 C1567 1.429 . S
C1571 C1572 1.523 . S
C1572 C1556 1.368 . S
C1572 C1568 1.368 . S
C1572 C1571 1.523 . S
H1573 C1548 0.950 . S
H1574 C1550 0.950 . S
H1575 C1551 0.949 . S
H1576 C1553 0.950 . S
H1577 C1555 0.950 . S
C1578 C1579 1.349 . S
C1578 C1580 1.327 . S
C1578 H1603 0.950 . S
C1579 C1578 1.349 . S
C1579 C1595 1.349 . S
C1580 C1578 1.327 . S
C1580 C1599 1.429 . S
C1580 H1604 0.950 . S
C1581 C1598 1.574 . S
C1581 C1600 1.368 . S
C1581 H1605 0.949 . S
H1582 C1586 0.949 . S
C1583 C1584 1.349 . S
C1583 C1585 1.327 . S
C1583 H1606 0.950 . S
C1584 C1583 1.349 . S
C1584 C1596 1.349 . S
C1585 C1583 1.327 . S
C1585 C1601 1.429 . S
C1585 H1607 0.950 . S
C1586 H1582 0.949 . S
C1586 C1594 1.574 . S
C1586 C1602 1.368 . S
H1587 C1595 0.950 . S
H1588 C1593 0.950 . S
H1589 C1594 0.949 . S
H1590 C1596 0.950 . S
H1591 C1597 0.950 . S
H1592 C1598 0.949 . S
C1593 H1588 0.950 . S
C1593 C1595 1.327 . S
C1593 C1599 1.429 . S
C1594 C1586 1.574 . S
C1594 H1589 0.949 . S
C1594 C1600 1.368 . S
C1595 C1579 1.349 . S
C1595 H1587 0.950 . S
C1595 C1593 1.327 . S
C1596 C1584 1.349 . S
C1596 H1590 0.950 . S
C1596 C1597 1.327 . S
C1597 H1591 0.950 . S
C1597 C1596 1.327 . S
C1597 C1601 1.429 . S
C1598 C1581 1.574 . S
C1598 H1592 0.949 . S
C1598 C1602 1.368 . S
C1599 C1580 1.429 . S
C1599 C1593 1.429 . S
C1599 C1600 1.523 . S
C1600 C1581 1.368 . S
C1600 C1594 1.368 . S
C1600 C1599 1.523 . S
C1601 C1585 1.429 . S
C1601 C1597 1.429 . S
C1601 C1602 1.523 . S
C1602 C1586 1.368 . S
C1602 C1598 1.368 . S
C1602 C1601 1.523 . S
H1603 C1578 0.950 . S
H1604 C1580 0.950 . S
H1605 C1581 0.949 . S
H1606 C1583 0.950 . S
H1607 C1585 0.950 . S
C1608 C1609 1.349 . S
C1608 C1610 1.327 . S
C1608 H1633 0.950 . S
C1609 C1608 1.349 . S
C1609 C1625 1.349 . S
C1610 C1608 1.327 . S
C1610 C1629 1.429 . S
C1610 H1634 0.950 . S
C1611 C1628 1.574 . S
C1611 C1630 1.368 . S
C1611 H1635 0.949 . S
H1612 C1616 0.949 . S
C1613 C1614 1.349 . S
C1613 C1615 1.327 . S
C1613 H1636 0.950 . S
C1614 C1613 1.349 . S
C1614 C1626 1.349 . S
C1615 C1613 1.327 . S
C1615 C1631 1.429 . S
C1615 H1637 0.950 . S
C1616 H1612 0.949 . S
C1616 C1624 1.574 . S
C1616 C1632 1.368 . S
H1617 C1625 0.950 . S
H1618 C1623 0.950 . S
H1619 C1624 0.949 . S
H1620 C1626 0.950 . S
H1621 C1627 0.950 . S
H1622 C1628 0.949 . S
C1623 H1618 0.950 . S
C1623 C1625 1.327 . S
C1623 C1629 1.429 . S
C1624 C1616 1.574 . S
C1624 H1619 0.949 . S
C1624 C1630 1.368 . S
C1625 C1609 1.349 . S
C1625 H1617 0.950 . S
C1625 C1623 1.327 . S
C1626 C1614 1.349 . S
C1626 H1620 0.950 . S
C1626 C1627 1.327 . S
C1627 H1621 0.950 . S
C1627 C1626 1.327 . S
C1627 C1631 1.429 . S
C1628 C1611 1.574 . S
C1628 H1622 0.949 . S
C1628 C1632 1.368 . S
C1629 C1610 1.429 . S
C1629 C1623 1.429 . S
C1629 C1630 1.523 . S
C1630 C1611 1.368 . S
C1630 C1624 1.368 . S
C1630 C1629 1.523 . S
C1631 C1615 1.429 . S
C1631 C1627 1.429 . S
C1631 C1632 1.523 . S
C1632 C1616 1.368 . S
C1632 C1628 1.368 . S
C1632 C1631 1.523 . S
H1633 C1608 0.950 . S
H1634 C1610 0.950 . S
H1635 C1611 0.949 . S
H1636 C1613 0.950 . S
H1637 C1615 0.950 . S
C1638 C1639 1.349 . S
C1638 C1640 1.327 . S
C1638 H1663 0.950 . S
C1639 C1638 1.349 . S
C1639 C1655 1.349 . S
C1640 C1638 1.327 . S
C1640 C1659 1.429 . S
C1640 H1664 0.950 . S
C1641 C1658 1.574 . S
C1641 C1660 1.368 . S
C1641 H1665 0.949 . S
H1642 C1646 0.949 . S
C1643 C1644 1.349 . S
C1643 C1645 1.327 . S
C1643 H1666 0.950 . S
C1644 C1643 1.349 . S
C1644 C1656 1.349 . S
C1645 C1643 1.327 . S
C1645 C1661 1.429 . S
C1645 H1667 0.950 . S
C1646 H1642 0.949 . S
C1646 C1654 1.574 . S
C1646 C1662 1.368 . S
H1647 C1655 0.950 . S
H1648 C1653 0.950 . S
H1649 C1654 0.949 . S
H1650 C1656 0.950 . S
H1651 C1657 0.950 . S
H1652 C1658 0.949 . S
C1653 H1648 0.950 . S
C1653 C1655 1.327 . S
C1653 C1659 1.429 . S
C1654 C1646 1.574 . S
C1654 H1649 0.949 . S
C1654 C1660 1.368 . S
C1655 C1639 1.349 . S
C1655 H1647 0.950 . S
C1655 C1653 1.327 . S
C1656 C1644 1.349 . S
C1656 H1650 0.950 . S
C1656 C1657 1.327 . S
C1657 H1651 0.950 . S
C1657 C1656 1.327 . S
C1657 C1661 1.429 . S
C1658 C1641 1.574 . S
C1658 H1652 0.949 . S
C1658 C1662 1.368 . S
C1659 C1640 1.429 . S
C1659 C1653 1.429 . S
C1659 C1660 1.523 . S
C1660 C1641 1.368 . S
C1660 C1654 1.368 . S
C1660 C1659 1.523 . S
C1661 C1645 1.429 . S
C1661 C1657 1.429 . S
C1661 C1662 1.523 . S
C1662 C1646 1.368 . S
C1662 C1658 1.368 . S
C1662 C1661 1.523 . S
H1663 C1638 0.950 . S
H1664 C1640 0.950 . S
H1665 C1641 0.949 . S
H1666 C1643 0.950 . S
H1667 C1645 0.950 . S
C1668 C1669 1.349 . S
C1668 C1670 1.327 . S
C1668 H1693 0.950 . S
C1669 C1668 1.349 . S
C1669 C1685 1.349 . S
C1670 C1668 1.327 . S
C1670 C1689 1.429 . S
C1670 H1694 0.950 . S
C1671 C1688 1.574 . S
C1671 C1690 1.368 . S
C1671 H1695 0.949 . S
H1672 C1676 0.949 . S
C1673 C1674 1.349 . S
C1673 C1675 1.327 . S
C1673 H1696 0.950 . S
C1674 C1673 1.349 . S
C1674 C1686 1.349 . S
C1675 C1673 1.327 . S
C1675 C1691 1.429 . S
C1675 H1697 0.950 . S
C1676 H1672 0.949 . S
C1676 C1684 1.574 . S
C1676 C1692 1.368 . S
H1677 C1685 0.950 . S
H1678 C1683 0.950 . S
H1679 C1684 0.949 . S
H1680 C1686 0.950 . S
H1681 C1687 0.950 . S
H1682 C1688 0.949 . S
C1683 H1678 0.950 . S
C1683 C1685 1.327 . S
C1683 C1689 1.429 . S
C1684 C1676 1.574 . S
C1684 H1679 0.949 . S
C1684 C1690 1.368 . S
C1685 C1669 1.349 . S
C1685 H1677 0.950 . S
C1685 C1683 1.327 . S
C1686 C1674 1.349 . S
C1686 H1680 0.950 . S
C1686 C1687 1.327 . S
C1687 H1681 0.950 . S
C1687 C1686 1.327 . S
C1687 C1691 1.429 . S
C1688 C1671 1.574 . S
C1688 H1682 0.949 . S
C1688 C1692 1.368 . S
C1689 C1670 1.429 . S
C1689 C1683 1.429 . S
C1689 C1690 1.523 . S
C1690 C1671 1.368 . S
C1690 C1684 1.368 . S
C1690 C1689 1.523 . S
C1691 C1675 1.429 . S
C1691 C1687 1.429 . S
C1691 C1692 1.523 . S
C1692 C1676 1.368 . S
C1692 C1688 1.368 . S
C1692 C1691 1.523 . S
H1693 C1668 0.950 . S
H1694 C1670 0.950 . S
H1695 C1671 0.949 . S
H1696 C1673 0.950 . S
H1697 C1675 0.950 . S
C1698 C1699 1.349 . S
C1698 C1700 1.327 . S
C1698 H1723 0.950 . S
C1699 C1698 1.349 . S
C1699 C1715 1.349 . S
C1700 C1698 1.327 . S
C1700 C1719 1.429 . S
C1700 H1724 0.950 . S
C1701 C1718 1.574 . S
C1701 C1720 1.368 . S
C1701 H1725 0.949 . S
H1702 C1706 0.949 . S
C1703 C1704 1.349 . S
C1703 C1705 1.327 . S
C1703 H1726 0.950 . S
C1704 C1703 1.349 . S
C1704 C1716 1.349 . S
C1705 C1703 1.327 . S
C1705 C1721 1.429 . S
C1705 H1727 0.950 . S
C1706 H1702 0.949 . S
C1706 C1714 1.574 . S
C1706 C1722 1.368 . S
H1707 C1715 0.950 . S
H1708 C1713 0.950 . S
H1709 C1714 0.949 . S
H1710 C1716 0.950 . S
H1711 C1717 0.950 . S
H1712 C1718 0.949 . S
C1713 H1708 0.950 . S
C1713 C1715 1.327 . S
C1713 C1719 1.429 . S
C1714 C1706 1.574 . S
C1714 H1709 0.949 . S
C1714 C1720 1.368 . S
C1715 C1699 1.349 . S
C1715 H1707 0.950 . S
C1715 C1713 1.327 . S
C1716 C1704 1.349 . S
C1716 H1710 0.950 . S
C1716 C1717 1.327 . S
C1717 H1711 0.950 . S
C1717 C1716 1.327 . S
C1717 C1721 1.429 . S
C1718 C1701 1.574 . S
C1718 H1712 0.949 . S
C1718 C1722 1.368 . S
C1719 C1700 1.429 . S
C1719 C1713 1.429 . S
C1719 C1720 1.523 . S
C1720 C1701 1.368 . S
C1720 C1714 1.368 . S
C1720 C1719 1.523 . S
C1721 C1705 1.429 . S
C1721 C1717 1.429 . S
C1721 C1722 1.523 . S
C1722 C1706 1.368 . S
C1722 C1718 1.368 . S
C1722 C1721 1.523 . S
H1723 C1698 0.950 . S
H1724 C1700 0.950 . S
H1725 C1701 0.949 . S
H1726 C1703 0.950 . S
H1727 C1705 0.950 . S
C529 C8 1.456 . S
C534 C206 1.456 . S
C559 C239 1.456 . S
C564 C41 1.456 . S
C589 C140 1.456 . S
C594 C74 1.456 . S
C619 C173 1.456 . S
C624 C107 1.456 . S
C649 C272 1.456 . S
C654 C470 1.456 . S
C679 C305 1.456 . S
C684 C503 1.456 . S
C709 C404 1.456 . S
C714 C338 1.456 . S
C739 C371 1.456 . S
C744 C437 1.456 . S
C769 N269 2.061 . S
C774 N5 2.061 . S
C799 N302 2.061 . S
C804 N38 2.061 . S
C829 N335 2.061 . S
C834 N71 2.061 . S
C859 N368 2.061 . S
C864 N104 2.061 . S
C889 N401 2.061 . S
C894 N137 2.061 . S
C919 N434 2.061 . S
C924 N170 2.061 . S
C949 N203 2.061 . S
C954 N467 2.061 . S
C979 N236 2.061 . S
C984 N500 2.061 . S
C1009 C314 0.435 . S
C1014 C28 0.390 . S
C1039 C347 0.435 . S
C1044 C61 0.390 . S
C1069 C380 0.435 . S
C1074 C94 0.390 . S
C1099 C281 0.435 . S
C1104 C127 0.390 . S
C1129 C160 0.390 . S
C1134 C512 0.435 . S
C1159 C193 0.390 . S
C1164 C413 0.435 . S
C1189 C226 0.390 . S
C1194 C446 0.435 . S
C1219 C259 0.390 . S
C1224 C479 0.435 . S
C1249 C50 0.435 . S
C1254 C292 0.390 . S
C1279 C83 0.435 . S
C1284 C325 0.390 . S
C1309 C116 0.435 . S
C1314 C358 0.390 . S
C1339 C17 0.435 . S
C1344 C391 0.390 . S
C1369 C248 0.435 . S
C1374 C424 0.390 . S
C1399 C149 0.435 . S
C1404 C457 0.390 . S
C1429 C182 0.435 . S
C1434 C490 0.390 . S
C1459 C523 0.390 . S
C1464 C215 0.435 . S
C1489 N80 0.560 . S
C1494 N14 0.560 . S
C1519 N113 0.560 . S
C1524 N47 0.560 . S
C1549 N146 0.560 . S
C1554 N212 0.560 . S
C1579 N245 0.560 . S
C1584 N179 0.560 . S
C1609 N278 0.560 . S
C1614 N344 0.560 . S
C1639 N377 0.560 . S
C1644 N311 0.560 . S
C1669 N410 0.560 . S
C1674 N476 0.560 . S
C1699 N443 0.560 . S
C1704 N509 0.560 . S
