# Generated by pormake.
# Topology uon, (4)-cn, num edge types: 1
# Building blocks:
#     Node 0, Type 0, BuildingBlock: KOZSID_clean_sbu_0, # of connection points: 4
#     Node 1, Type 0, BuildingBlock: KOZSID_clean_sbu_0, # of connection points: 4
#     Node 2, Type 0, BuildingBlock: KOZSID_clean_sbu_0, # of connection points: 4
#     Node 3, Type 0, BuildingBlock: KOZSID_clean_sbu_0, # of connection points: 4
#     Node 4, Type 0, BuildingBlock: KOZSID_clean_sbu_0, # of connection points: 4
#     Node 5, Type 0, BuildingBlock: KOZSID_clean_sbu_0, # of connection points: 4
#     Edge 6, Type (0, 0), BuildingBlock: FUNLAD_clean_linker_1, # of connection points: 2
#     Edge 7, Type (0, 0), BuildingBlock: FUNLAD_clean_linker_1, # of connection points: 2
#     Edge 8, Type (0, 0), BuildingBlock: FUNLAD_clean_linker_1, # of connection points: 2
#     Edge 9, Type (0, 0), BuildingBlock: FUNLAD_clean_linker_1, # of connection points: 2
#     Edge 10, Type (0, 0), BuildingBlock: FUNLAD_clean_linker_1, # of connection points: 2
#     Edge 11, Type (0, 0), BuildingBlock: FUNLAD_clean_linker_1, # of connection points: 2
#     Edge 12, Type (0, 0), BuildingBlock: FUNLAD_clean_linker_1, # of connection points: 2
#     Edge 13, Type (0, 0), BuildingBlock: FUNLAD_clean_linker_1, # of connection points: 2
#     Edge 14, Type (0, 0), BuildingBlock: FUNLAD_clean_linker_1, # of connection points: 2
#     Edge 15, Type (0, 0), BuildingBlock: FUNLAD_clean_linker_1, # of connection points: 2
#     Edge 16, Type (0, 0), BuildingBlock: FUNLAD_clean_linker_1, # of connection points: 2
#     Edge 17, Type (0, 0), BuildingBlock: FUNLAD_clean_linker_1, # of connection points: 2
# Relax obj value: 0.068
# Max RMSD: 0.128
# Mean RMSD: 0.128
data_MOF--net-uon--node1-KOZSID_clean_sbu_0--edge1-FUNLAD_clean_linker_1
_symmetry_space_group_name_H-M    P1
_symmetry_Int_Tables_number       1
_symmetry_cell_setting            triclinic
loop_
_symmetry_equiv_pos_as_xyz
'x, y, z'
_cell_length_a     39.409214
_cell_length_b     39.484173
_cell_length_c     34.676019
_cell_angle_alpha  90.163322
_cell_angle_beta   90.002939
_cell_angle_gamma 119.96885
loop_
_atom_site_label
_atom_site_type_symbol
_atom_site_fract_x
_atom_site_fract_y
_atom_site_fract_z
_atom_type_partial_charge
C0 C 0.16233 0.36827 0.02832 0.0
C1 C 0.12588 0.34924 0.0104 0.0
C2 C 0.13235 0.35699 0.97168 0.0
C3 C 0.17222 0.37999 0.96808 0.0
N4 N 0.19103 0.38707 1.002 0.0
Co5 Co 0.24818 0.41838 0.00953 0.0
N6 N 0.25507 0.44756 0.96094 0.0
C7 C 0.23015 0.43307 0.93081 0.0
C8 C 0.24512 0.45378 0.89759 0.0
C9 C 0.28186 0.48301 0.90724 0.0
C10 C 0.28701 0.47967 0.9466 0.0
N11 N 0.30568 0.44974 0.01708 0.0
C12 C 0.33293 0.48299 0.99937 0.0
C13 C 0.37032 0.49307 0.01233 0.0
C14 C 0.366 0.46519 0.03844 0.0
C15 C 0.32653 0.43951 0.04014 0.0
N16 N 0.2402 0.38821 0.05778 0.0
C17 C 0.26825 0.38518 0.07683 0.0
C18 C 0.25522 0.36582 0.11116 0.0
C19 C 0.21662 0.35603 0.11377 0.0
C20 C 0.2076 0.36918 0.08022 0.0
N21 N 0.2556 0.37942 0.98028 0.0
C22 C 0.26966 0.3253 0.93975 0.0
C23 C 0.23898 0.31275 0.96661 0.0
C24 C 0.23233 0.34012 0.9864 0.0
C25 C 0.29309 0.36569 0.93394 0.0
C26 C 0.28552 0.39189 0.95415 0.0
N27 N 0.24152 0.45731 0.0389 0.0
C28 C 0.25402 0.49577 0.09691 0.0
C29 C 0.22786 0.50818 0.0852 0.0
C30 C 0.20925 0.49485 0.04929 0.0
C31 C 0.21659 0.46968 0.02653 0.0
C32 C 0.2605 0.4707 0.07339 0.0
H33 H 0.20151 0.45954 0.99928 0.0
H34 H 0.28028 0.46136 0.08372 0.0
H35 H 0.20861 0.32954 0.00693 0.0
H36 H 0.30465 0.42249 0.9488 0.0
C37 C 0.1923 0.40104 0.93532 0.0
C38 C 0.16879 0.36422 0.06949 0.0
C39 C 0.32454 0.50305 0.96772 0.0
C40 C 0.30764 0.40876 0.06647 0.0
H41 H 0.09767 0.33122 0.02385 0.0
H42 H 0.11048 0.34813 0.94918 0.0
H43 H 0.23147 0.4477 0.86941 0.0
H44 H 0.30296 0.50254 0.88651 0.0
H45 H 0.39819 0.51725 1.00349 0.0
H46 H 0.38893 0.46422 0.05473 0.0
H47 H 0.27249 0.36207 0.13323 0.0
H48 H 0.19869 0.34246 0.13868 0.0
H49 H 0.22024 0.28188 0.97239 0.0
H50 H 0.31797 0.37765 0.91473 0.0
H51 H 0.26881 0.50412 0.12445 0.0
H52 H 0.18876 0.50349 0.03897 0.0
C53 C 0.78404 0.15367 0.36272 0.0
C54 C 0.75789 0.11624 0.3491 0.0
C55 C 0.74983 0.12 0.31151 0.0
C56 C 0.7703 0.15926 0.30422 0.0
N57 N 0.79084 0.18055 0.33484 0.0
Co58 Co 0.82051 0.23876 0.33736 0.0
N59 N 0.79108 0.24392 0.29315 0.0
C60 C 0.77017 0.21516 0.26756 0.0
C61 C 0.75486 0.22633 0.23828 0.0
C62 C 0.76737 0.26479 0.24519 0.0
C63 C 0.78969 0.27546 0.27905 0.0
N64 N 0.85115 0.29678 0.33981 0.0
C65 C 0.84585 0.32434 0.32174 0.0
C66 C 0.87553 0.36166 0.33216 0.0
C67 C 0.90096 0.35714 0.35548 0.0
C68 C 0.88542 0.3176 0.35882 0.0
N69 N 0.84888 0.23305 0.38173 0.0
C70 C 0.88386 0.26058 0.39532 0.0
C71 C 0.89539 0.24856 0.42739 0.0
C72 C 0.8656 0.21121 0.43443 0.0
C73 C 0.83728 0.20258 0.40635 0.0
N74 N 0.86021 0.24028 0.30149 0.0
C75 C 0.92514 0.25206 0.25663 0.0
C76 C 0.90995 0.22371 0.28589 0.0
C77 C 0.87747 0.2181 0.30776 0.0
C78 C 0.9054 0.27269 0.2491 0.0
C79 C 0.87345 0.26648 0.27172 0.0
N80 N 0.78183 0.23804 0.37359 0.0
C81 C 0.76885 0.25813 0.43487 0.0
C82 C 0.72863 0.23229 0.43092 0.0
C83 C 0.7154 0.20992 0.39685 0.0
C84 C 0.7425 0.21336 0.36853 0.0
C85 C 0.79474 0.26075 0.40606 0.0
H86 H 0.73177 0.19533 0.34301 0.0
H87 H 0.82549 0.28044 0.41075 0.0
H88 H 0.86707 0.19667 0.33056 0.0
H89 H 0.86039 0.2841 0.2656 0.0
C90 C 0.76275 0.17718 0.27356 0.0
C91 C 0.80167 0.16399 0.40186 0.0
C92 C 0.8154 0.31662 0.29227 0.0
C93 C 0.89987 0.29922 0.38291 0.0
H94 H 0.74384 0.08881 0.36413 0.0
H95 H 0.72867 0.09708 0.29293 0.0
H96 H 0.737 0.20872 0.21441 0.0
H97 H 0.76186 0.28243 0.22542 0.0
H98 H 0.8791 0.38957 0.32362 0.0
H99 H 0.92725 0.38003 0.369 0.0
H100 H 0.92126 0.2656 0.44487 0.0
H101 H 0.86478 0.19246 0.45756 0.0
H102 H 0.92362 0.20646 0.29246 0.0
H103 H 0.91441 0.29411 0.2264 0.0
H104 H 0.78048 0.27606 0.46053 0.0
H105 H 0.68471 0.18912 0.39229 0.0
C106 C 0.64156 0.78937 0.68761 0.0
C107 C 0.65735 0.76906 0.66914 0.0
C108 C 0.63575 0.75323 0.63647 0.0
C109 C 0.6086 0.76521 0.63642 0.0
N110 N 0.61233 0.78874 0.66636 0.0
Co111 Co 0.58038 0.81451 0.67603 0.0
N112 N 0.54353 0.78507 0.63264 0.0
C113 C 0.54432 0.75701 0.61076 0.0
C114 C 0.51311 0.73833 0.58634 0.0
C115 C 0.49137 0.7559 0.59237 0.0
C116 C 0.5114 0.78569 0.61927 0.0
N117 N 0.54891 0.84097 0.6853 0.0
C118 C 0.51686 0.83744 0.66654 0.0
C119 C 0.50562 0.86287 0.68225 0.0
C120 C 0.53131 0.883 0.71125 0.0
C121 C 0.55698 0.86923 0.71184 0.0
N122 N 0.61662 0.84257 0.72031 0.0
C123 C 0.61724 0.87122 0.74214 0.0
C124 C 0.64521 0.88465 0.77054 0.0
C125 C 0.66246 0.8621 0.76757 0.0
C126 C 0.64312 0.83534 0.73815 0.0
N127 N 0.61458 0.85759 0.63935 0.0
C128 C 0.65866 0.91849 0.58563 0.0
C129 C 0.6543 0.92676 0.62401 0.0
C130 C 0.63241 0.89628 0.64994 0.0
C131 C 0.64131 0.8791 0.5751 0.0
C132 C 0.61969 0.84952 0.60196 0.0
N133 N 0.54642 0.77213 0.71248 0.0
C134 C 0.51258 0.7523 0.77378 0.0
C135 C 0.49901 0.7129 0.76555 0.0
C136 C 0.50956 0.70372 0.73016 0.0
C137 C 0.53353 0.73356 0.70443 0.0
C138 C 0.5359 0.78108 0.74708 0.0
H139 H 0.54145 0.7249 0.67826 0.0
H140 H 0.54509 0.81051 0.75507 0.0
H141 H 0.63028 0.90513 0.67831 0.0
H142 H 0.60703 0.82035 0.59147 0.0
C143 C 0.57571 0.75005 0.61262 0.0
C144 C 0.65049 0.80347 0.7276 0.0
C145 C 0.49882 0.81361 0.63154 0.0
C146 C 0.58886 0.88224 0.73711 0.0
H147 H 0.68068 0.76434 0.67901 0.0
H148 H 0.63804 0.73336 0.61647 0.0
H149 H 0.50689 0.71474 0.56645 0.0
H150 H 0.46381 0.74723 0.57826 0.0
H151 H 0.48207 0.86763 0.67332 0.0
H152 H 0.53161 0.90554 0.72934 0.0
H153 H 0.6515 0.90729 0.79165 0.0
H154 H 0.68617 0.86476 0.78545 0.0
H155 H 0.66764 0.95647 0.63456 0.0
H156 H 0.64402 0.87095 0.54587 0.0
H157 H 0.50452 0.76111 0.80023 0.0
H158 H 0.4996 0.67357 0.72249 0.0
C159 C 0.84784 0.62653 0.02781 0.0
C160 C 0.88486 0.64188 0.01156 0.0
C161 C 0.87934 0.63067 0.97356 0.0
C162 C 0.83945 0.60953 0.96869 0.0
N163 N 0.81968 0.60696 1.00109 0.0
Co164 Co 0.76213 0.57969 1.00646 0.0
N165 N 0.75437 0.54528 0.96126 0.0
C166 C 0.78159 0.55367 0.93368 0.0
C167 C 0.76836 0.52807 0.9035 0.0
C168 C 0.73019 0.50221 0.91193 0.0
C169 C 0.72178 0.51289 0.94765 0.0
N170 N 0.70424 0.55304 0.01151 0.0
C171 C 0.67549 0.52027 0.99414 0.0
C172 C 0.63885 0.51306 1.0067 0.0
C173 C 0.645 0.54308 0.03082 0.0
C174 C 0.6848 0.56675 0.03242 0.0
N175 N 0.77111 0.61425 0.05189 0.0
C176 C 0.74417 0.62111 0.06811 0.0
C177 C 0.75733 0.64263 0.1014 0.0
C178 C 0.79483 0.64966 0.1065 0.0
C179 C 0.8031 0.63264 0.0754 0.0
N180 N 0.75946 0.61814 0.9721 0.0
C181 C 0.74712 0.67155 0.92869 0.0
C182 C 0.77689 0.68457 0.95669 0.0
C183 C 0.78277 0.65752 0.97786 0.0
C184 C 0.72461 0.63113 0.92229 0.0
C185 C 0.73137 0.60531 0.94391 0.0
N186 N 0.76392 0.54132 0.04112 0.0
C187 C 0.74297 0.50468 0.10029 0.0
C188 C 0.76905 0.49086 0.09483 0.0
C189 C 0.79213 0.50217 0.06131 0.0
C190 C 0.78876 0.52708 0.03458 0.0
C191 C 0.74121 0.5301 0.07358 0.0
H192 H 0.80653 0.53521 0.00887 0.0
H193 H 0.72178 0.54116 0.07971 0.0
H194 H 0.80543 0.6684 0.99962 0.0
H195 H 0.71249 0.57468 0.93849 0.0
C196 C 0.81997 0.58466 0.93784 0.0
C197 C 0.84066 0.63346 0.06786 0.0
C198 C 0.68143 0.49733 0.96346 0.0
C199 C 0.70488 0.59892 0.05707 0.0
H200 H 0.91286 0.6592 0.02576 0.0
H201 H 0.90171 0.63549 0.95267 0.0
H202 H 0.78427 0.52861 0.87784 0.0
H203 H 0.71106 0.48015 0.89176 0.0
H204 H 0.61031 0.48892 0.99924 0.0
H205 H 0.62304 0.54663 0.04615 0.0
H206 H 0.74059 0.64958 0.12143 0.0
H207 H 0.8124 0.66414 0.13144 0.0
H208 H 0.79514 0.7155 0.96271 0.0
H209 H 0.70069 0.61873 0.90187 0.0
H210 H 0.72451 0.49655 0.12566 0.0
H211 H 0.81211 0.49147 0.05543 0.0
C212 C 0.21727 0.85211 0.35926 0.0
C213 C 0.2294 0.889 0.34416 0.0
C214 C 0.23721 0.8875 0.3058 0.0
C215 C 0.22837 0.84966 0.29929 0.0
N216 N 0.21537 0.82738 0.33102 0.0
Co217 Co 0.19513 0.77031 0.33274 0.0
N218 N 0.22496 0.77205 0.28599 0.0
C219 C 0.23933 0.80118 0.25988 0.0
C220 C 0.25776 0.79473 0.22969 0.0
C221 C 0.25423 0.75904 0.23679 0.0
C222 C 0.23362 0.74532 0.27127 0.0
N223 N 0.17455 0.71296 0.33444 0.0
C224 C 0.18638 0.69038 0.31551 0.0
C225 C 0.16522 0.65199 0.32844 0.0
C226 C 0.13754 0.65006 0.3536 0.0
C227 C 0.14393 0.68743 0.35593 0.0
N228 N 0.16546 0.76935 0.37935 0.0
C229 C 0.13409 0.7377 0.39384 0.0
C230 C 0.11938 0.74611 0.42608 0.0
C231 C 0.14319 0.78552 0.43226 0.0
C232 C 0.17147 0.79899 0.40348 0.0
N233 N 0.15015 0.76091 0.30012 0.0
C234 C 0.08235 0.74305 0.25696 0.0
C235 C 0.09581 0.77113 0.28658 0.0
C236 C 0.12954 0.77962 0.30769 0.0
C237 C 0.10455 0.72502 0.24875 0.0
C238 C 0.13807 0.73429 0.27056 0.0
N239 N 0.23955 0.77943 0.36558 0.0
C240 C 0.26386 0.76694 0.42457 0.0
C241 C 0.30225 0.79574 0.41541 0.0
C242 C 0.30862 0.81553 0.38032 0.0
C243 C 0.27691 0.80735 0.35608 0.0
C244 C 0.23313 0.75905 0.3992 0.0
H245 H 0.28254 0.82387 0.32982 0.0
H246 H 0.20404 0.73662 0.40705 0.0
H247 H 0.13866 0.80102 0.33054 0.0
H248 H 0.15396 0.71946 0.26359 0.0
C249 C 0.23844 0.83577 0.26663 0.0
C250 C 0.20338 0.83984 0.39908 0.0
C251 C 0.21641 0.70432 0.2845 0.0
C252 C 0.12527 0.70037 0.3816 0.0
H253 H 0.23179 0.91426 0.3589 0.0
H254 H 0.24902 0.91144 0.28548 0.0
H255 H 0.27216 0.81371 0.2054 0.0
H256 H 0.26419 0.74427 0.21749 0.0
H257 H 0.16933 0.62772 0.32118 0.0
H258 H 0.11634 0.6247 0.3695 0.0
H259 H 0.09557 0.72574 0.44421 0.0
H260 H 0.14011 0.8021 0.45549 0.0
H261 H 0.08006 0.78626 0.29375 0.0
H262 H 0.09662 0.70393 0.22568 0.0
H263 H 0.25757 0.74999 0.45076 0.0
H264 H 0.33789 0.8377 0.37196 0.0
C265 C 0.36306 0.21426 0.68754 0.0
C266 C 0.34241 0.23135 0.67269 0.0
C267 C 0.3571 0.24456 0.63657 0.0
C268 C 0.38537 0.2344 0.63119 0.0
N269 N 0.38904 0.21526 0.66142 0.0
Co270 Co 0.4238 0.19247 0.66421 0.0
N271 N 0.45812 0.22728 0.62273 0.0
C272 C 0.44997 0.24988 0.59984 0.0
C273 C 0.48015 0.27336 0.57579 0.0
C274 C 0.50872 0.26426 0.58313 0.0
C275 C 0.49393 0.23465 0.61069 0.0
N276 N 0.45757 0.16817 0.66601 0.0
C277 C 0.49189 0.17774 0.64767 0.0
C278 C 0.50148 0.14866 0.65409 0.0
C279 C 0.47259 0.12054 0.6764 0.0
C280 C 0.44648 0.1332 0.68242 0.0
N281 N 0.38979 0.15945 0.70679 0.0
C282 C 0.38612 0.12547 0.71853 0.0
C283 C 0.36051 0.10947 0.74885 0.0
C284 C 0.34761 0.13537 0.75671 0.0
C285 C 0.36681 0.16626 0.73122 0.0
N286 N 0.39079 0.15249 0.6254 0.0
C287 C 0.34756 0.09043 0.57333 0.0
C288 C 0.32936 0.09636 0.60546 0.0
C289 C 0.35138 0.128 0.63076 0.0
C290 C 0.38718 0.11684 0.56732 0.0
C291 C 0.40819 0.14692 0.59368 0.0
N292 N 0.45693 0.23127 0.70315 0.0
C293 C 0.49457 0.24518 0.76172 0.0
C294 C 0.50435 0.28434 0.76048 0.0
C295 C 0.48966 0.2966 0.72993 0.0
C296 C 0.46624 0.2696 0.7013 0.0
C297 C 0.47054 0.21918 0.73336 0.0
H298 H 0.45581 0.2797 0.6777 0.0
H299 H 0.46294 0.18909 0.73612 0.0
H300 H 0.33664 0.13219 0.65497 0.0
H301 H 0.43893 0.16493 0.58843 0.0
C302 C 0.41479 0.25018 0.6034 0.0
C303 C 0.35919 0.19911 0.72691 0.0
C304 C 0.51152 0.20986 0.61891 0.0
C305 C 0.41264 0.11426 0.70534 0.0
H306 H 0.31986 0.23492 0.6867 0.0
H307 H 0.34984 0.26179 0.61766 0.0
H308 H 0.48132 0.29462 0.5554 0.0
H309 H 0.5366 0.27681 0.5684 0.0
H310 H 0.52541 0.146 0.64281 0.0
H311 H 0.47065 0.09373 0.68656 0.0
H312 H 0.35313 0.08291 0.76435 0.0
H313 H 0.32604 0.13145 0.77817 0.0
H314 H 0.29843 0.07712 0.61073 0.0
H315 H 0.40236 0.11355 0.5428 0.0
H316 H 0.50518 0.23448 0.78485 0.0
H317 H 0.49699 0.32684 0.72753 0.0
H318 H 0.26497 0.26699 0.93202 0.0
C319 C 0.27759 0.29609 0.91971 0.0
H320 H 0.31192 0.33249 0.87393 0.0
H321 H 0.41277 0.25933 0.82589 0.0
H322 H 0.46063 0.3168 0.86094 0.0
H323 H 0.44022 0.35526 0.90071 0.0
H324 H 0.37173 0.33701 0.90539 0.0
C325 C 0.29933 0.30393 0.88721 0.0
C326 C 0.31001 0.27597 0.86878 0.0
C327 C 0.35004 0.2861 0.86716 0.0
C328 C 0.36185 0.2634 0.84468 0.0
C329 C 0.40216 0.27522 0.84279 0.0
C330 C 0.42997 0.30811 0.86277 0.0
C331 C 0.41846 0.32985 0.88511 0.0
C332 C 0.37905 0.31912 0.88742 0.0
H333 H 0.33807 0.2365 0.74862 0.0
C334 C 0.34656 0.21522 0.75671 0.0
H335 H 0.3598 0.19302 0.8084 0.0
H336 H 0.23098 0.24792 0.86442 0.0
H337 H 0.18315 0.18972 0.83058 0.0
H338 H 0.20332 0.14888 0.79433 0.0
H339 H 0.27171 0.16631 0.79129 0.0
C340 C 0.34662 0.20917 0.79662 0.0
C341 C 0.33369 0.23028 0.82381 0.0
C342 C 0.29347 0.21907 0.82676 0.0
C343 C 0.28166 0.2421 0.84878 0.0
C344 C 0.24153 0.23109 0.84921 0.0
C345 C 0.21374 0.19778 0.82973 0.0
C346 C 0.22511 0.17482 0.80924 0.0
C347 C 0.26445 0.18523 0.80761 0.0
H348 H 0.97359 0.24071 0.24178 0.0
C349 C 0.96147 0.25947 0.23525 0.0
H350 H 0.97083 0.30909 0.20327 0.0
H351 H 0.14867 0.3897 0.16699 0.0
H352 H 0.14643 0.43518 0.2125 0.0
H353 H 0.08609 0.41784 0.24872 0.0
H354 H 0.02746 0.35487 0.23954 0.0
C355 C 0.98067 0.2885 0.20928 0.0
C356 C 0.01821 0.2968 0.18993 0.0
C357 C 0.05253 0.33374 0.19567 0.0
C358 C 0.08753 0.34385 0.17476 0.0
C359 C 0.12122 0.38073 0.18158 0.0
C360 C 0.12042 0.40709 0.20781 0.0
C361 C 0.08642 0.39731 0.22818 0.0
C362 C 0.05288 0.3611 0.22244 0.0
H363 H 0.11681 0.36469 0.08742 0.0
C364 C 0.13712 0.35472 0.09519 0.0
H365 H 0.13737 0.30874 0.12855 0.0
H366 H 0.95747 0.22492 0.16879 0.0
H367 H 0.95997 0.1797 0.12327 0.0
H368 H 0.02104 0.19646 0.08873 0.0
H369 H 0.07995 0.2588 0.09927 0.0
C370 C 0.12512 0.32776 0.12568 0.0
C371 C 0.08849 0.31709 0.14802 0.0
C372 C 0.05442 0.27998 0.14258 0.0
C373 C 0.01921 0.27 0.16313 0.0
C374 C 0.98528 0.23362 0.15519 0.0
C375 C 0.9862 0.20743 0.12881 0.0
C376 C 0.02058 0.21687 0.10934 0.0
C377 C 0.05427 0.25274 0.11583 0.0
H378 H 0.79141 0.15274 0.4629 0.0
C379 C 0.78685 0.13912 0.43465 0.0
H380 H 0.77766 0.08517 0.40978 0.0
H381 H 0.75999 0.98816 0.55723 0.0
H382 H 0.82409 0.00313 0.53443 0.0
H383 H 0.85652 0.05016 0.48164 0.0
H384 H 0.82514 0.08276 0.45147 0.0
C385 C 0.77122 0.09834 0.43406 0.0
C386 C 0.75311 0.07289 0.46868 0.0
C387 C 0.77151 0.05361 0.48593 0.0
C388 C 0.75253 0.02604 0.51621 0.0
C389 C 0.77241 0.00842 0.53351 0.0
C390 C 0.80941 0.01698 0.52088 0.0
C391 C 0.82768 0.04347 0.49117 0.0
C392 C 0.8092 0.06179 0.47393 0.0
H393 H 0.68627 0.9398 0.5283 0.0
C394 C 0.68103 0.94941 0.55597 0.0
H395 H 0.68789 0.99886 0.58688 0.0
H396 H 0.70869 0.10344 0.44178 0.0
H397 H 0.64494 0.08893 0.46495 0.0
H398 H 0.61252 0.04196 0.51786 0.0
H399 H 0.64348 0.00881 0.54749 0.0
C400 C 0.69423 0.98804 0.56069 0.0
C401 C 0.71475 0.01721 0.52905 0.0
C402 C 0.69681 0.03727 0.51249 0.0
C403 C 0.71581 0.06486 0.48221 0.0
C404 C 0.6962 0.08298 0.46533 0.0
C405 C 0.65944 0.07481 0.47828 0.0
C406 C 0.64116 0.04833 0.50801 0.0
C407 C 0.65938 0.02958 0.52488 0.0
H408 H 0.7516 0.72962 0.92051 0.0
C409 C 0.73881 0.7003 0.90849 0.0
H410 H 0.70282 0.66296 0.86366 0.0
H411 H 0.59993 0.73659 0.82427 0.0
H412 H 0.55377 0.67975 0.86061 0.0
H413 H 0.5758 0.64065 0.89705 0.0
H414 H 0.64424 0.65819 0.89743 0.0
C415 C 0.7159 0.69171 0.87674 0.0
C416 C 0.70429 0.71919 0.85926 0.0
C417 C 0.66428 0.70921 0.85992 0.0
C418 C 0.65158 0.73212 0.83929 0.0
C419 C 0.61129 0.72064 0.83979 0.0
C420 C 0.58441 0.68797 0.86046 0.0
C421 C 0.59682 0.66595 0.88095 0.0
C422 C 0.6362 0.67628 0.88081 0.0
H423 H 0.67363 0.76552 0.74219 0.0
C424 C 0.66468 0.78541 0.75367 0.0
H425 H 0.65041 0.80112 0.80892 0.0
H426 H 0.78279 0.74638 0.85043 0.0
H427 H 0.8292 0.80455 0.81592 0.0
H428 H 0.80777 0.84606 0.78319 0.0
H429 H 0.73957 0.82931 0.78425 0.0
C430 C 0.66491 0.78762 0.7942 0.0
C431 C 0.67885 0.76522 0.81798 0.0
C432 C 0.71908 0.7761 0.81846 0.0
C433 C 0.73172 0.75283 0.83859 0.0
C434 C 0.77172 0.76348 0.83672 0.0
C435 C 0.79869 0.79675 0.81685 0.0
C436 C 0.78661 0.82008 0.79833 0.0
C437 C 0.74733 0.81002 0.79901 0.0
H438 H 0.88888 0.62818 0.08946 0.0
C439 C 0.87046 0.64089 0.09537 0.0
H440 H 0.87373 0.68979 0.12667 0.0
H441 H 0.97814 0.63857 0.24027 0.0
H442 H 0.91768 0.57761 0.25078 0.0
H443 H 0.85766 0.56228 0.2148 0.0
H444 H 0.85768 0.60784 0.16807 0.0
C445 C 0.88379 0.6689 0.12512 0.0
C446 C 0.92009 0.67831 0.14757 0.0
C447 C 0.91974 0.65154 0.175 0.0
C448 C 0.95451 0.6605 0.19588 0.0
C449 C 0.95289 0.63319 0.22329 0.0
C450 C 0.9183 0.59812 0.22975 0.0
C451 C 0.8845 0.58948 0.20949 0.0
C452 C 0.88498 0.61584 0.18258 0.0
H453 H 0.03355 0.75314 0.24054 0.0
C454 C 0.04578 0.73422 0.23527 0.0
H455 H 0.03647 0.68329 0.20559 0.0
H456 H 0.9316 0.73591 0.09667 0.0
H457 H 0.99238 0.79591 0.08462 0.0
H458 H 0.05286 0.81061 0.1193 0.0
H459 H 0.05291 0.76562 0.16642 0.0
C460 C 0.02673 0.70425 0.2101 0.0
C461 C 0.98984 0.69632 0.18951 0.0
C462 C 0.99026 0.72294 0.16171 0.0
C463 C 0.95535 0.71412 0.14114 0.0
C464 C 0.95696 0.74114 0.11338 0.0
C465 C 0.99175 0.77567 0.10599 0.0
C466 C 0.02579 0.78396 0.12554 0.0
C467 C 0.02529 0.75794 0.15287 0.0
H468 H 0.3368 0.06412 0.515 0.0
C469 C 0.32673 0.05814 0.54473 0.0
H470 H 0.29155 0.01338 0.58397 0.0
H471 H 0.20625 0.93214 0.41656 0.0
H472 H 0.18029 0.97633 0.41977 0.0
H473 H 0.20136 0.02628 0.47105 0.0
H474 H 0.2487 0.03249 0.51942 0.0
C475 C 0.2999 0.02115 0.55405 0.0
C476 C 0.28501 0.98913 0.52429 0.0
C477 C 0.2569 0.98538 0.49648 0.0
C478 C 0.24446 0.95624 0.46699 0.0
C479 C 0.21672 0.95364 0.43948 0.0
C480 C 0.20152 0.97878 0.44104 0.0
C481 C 0.2134 0.00693 0.46991 0.0
C482 C 0.24069 0.01028 0.49741 0.0
H483 H 0.19988 0.85669 0.45797 0.0
C484 C 0.2162 0.86601 0.43121 0.0
H485 H 0.27151 0.91207 0.40874 0.0
H486 H 0.33767 0.98665 0.57379 0.0
H487 H 0.36319 0.942 0.57079 0.0
H488 H 0.34179 0.89183 0.51966 0.0
H489 H 0.29462 0.88588 0.47117 0.0
C490 C 0.25027 0.90309 0.43188 0.0
C491 C 0.26007 0.93074 0.46519 0.0
C492 C 0.28741 0.93381 0.49354 0.0
C493 C 0.29969 0.96279 0.52318 0.0
C494 C 0.32725 0.96518 0.5508 0.0
C495 C 0.34215 0.93975 0.54939 0.0
C496 C 0.33012 0.91151 0.52058 0.0
C497 C 0.3031 0.90844 0.4929 0.0
H498 H 0.2542 0.69096 0.25037 0.0
C499 C 0.22515 0.67884 0.2628 0.0
H500 H 0.16622 0.62947 0.25597 0.0
H501 H 0.24971 0.6111 0.09793 0.0
H502 H 0.25092 0.67044 0.07779 0.0
H503 H 0.23026 0.70571 0.12212 0.0
H504 H 0.20899 0.68228 0.18709 0.0
C505 C 0.19695 0.64156 0.24908 0.0
C506 C 0.20708 0.61888 0.22105 0.0
C507 C 0.21771 0.63184 0.18243 0.0
C508 C 0.22789 0.6104 0.15616 0.0
C509 C 0.24046 0.62539 0.11861 0.0
C510 C 0.24143 0.65953 0.1067 0.0
C511 C 0.22993 0.67947 0.1317 0.0
C512 C 0.21808 0.66587 0.16907 0.0
H513 H 0.19223 0.53519 0.10233 0.0
C514 C 0.21791 0.5332 0.11011 0.0
H515 H 0.2644 0.55214 0.15047 0.0
H516 H 0.18625 0.58446 0.29188 0.0
H517 H 0.18149 0.52324 0.31102 0.0
H518 H 0.19656 0.48488 0.26498 0.0
H519 H 0.21652 0.5075 0.19952 0.0
C520 C 0.23857 0.55316 0.14162 0.0
C521 C 0.22577 0.57496 0.1679 0.0
C522 C 0.21377 0.5613 0.20607 0.0
C523 C 0.20456 0.58324 0.23259 0.0
C524 C 0.19316 0.56888 0.27052 0.0
C525 C 0.19038 0.53378 0.28191 0.0
C526 C 0.19891 0.51221 0.256 0.0
C527 C 0.21048 0.52563 0.21853 0.0
H528 H 0.53617 0.2195 0.56161 0.0
C529 C 0.53801 0.21018 0.59061 0.0
H530 H 0.57756 0.19928 0.6252 0.0
H531 H 0.62282 0.13856 0.46999 0.0
H532 H 0.5751 0.07571 0.49636 0.0
H533 H 0.53611 0.07163 0.55359 0.0
H534 H 0.54437 0.13042 0.58461 0.0
C535 C 0.56919 0.20318 0.5965 0.0
C536 C 0.59461 0.20577 0.56317 0.0
C537 C 0.58968 0.17124 0.5453 0.0
C538 C 0.61213 0.17361 0.51208 0.0
C539 C 0.60647 0.13852 0.49506 0.0
C540 C 0.57925 0.10222 0.50996 0.0
C541 C 0.55725 0.09993 0.54216 0.0
C542 C 0.56228 0.13391 0.55972 0.0
H543 H 0.71664 0.24185 0.49116 0.0
C544 C 0.70255 0.22902 0.46376 0.0
H545 H 0.64768 0.19924 0.4353 0.0
H546 H 0.61304 0.27767 0.59137 0.0
H547 H 0.658 0.34052 0.56304 0.0
H548 H 0.69384 0.34463 0.50331 0.0
H549 H 0.68542 0.28607 0.47185 0.0
C550 C 0.66328 0.21262 0.46183 0.0
C551 C 0.6396 0.21056 0.49659 0.0
C552 C 0.64403 0.24515 0.51412 0.0
C553 C 0.62213 0.24274 0.54779 0.0
C554 C 0.62813 0.27777 0.56526 0.0
C555 C 0.65394 0.31405 0.54938 0.0
C556 C 0.67421 0.31637 0.51582 0.0
C557 C 0.66935 0.28246 0.49822 0.0
H558 H 0.45159 0.65292 0.77948 0.0
C559 C 0.47221 0.68103 0.79217 0.0
H560 H 0.49345 0.71295 0.84408 0.0
H561 H 0.34369 0.62201 0.9467 0.0
H562 H 0.35182 0.68698 0.94441 0.0
H563 H 0.40081 0.73738 0.90152 0.0
H564 H 0.44233 0.72335 0.86101 0.0
C565 C 0.4725 0.68534 0.83086 0.0
C566 C 0.44274 0.65423 0.85671 0.0
C567 C 0.41804 0.6626 0.87981 0.0
C568 C 0.38889 0.63312 0.90379 0.0
C569 C 0.36554 0.64286 0.92723 0.0
C570 C 0.37001 0.68013 0.92635 0.0
C571 C 0.39766 0.70853 0.90227 0.0
C572 C 0.42142 0.70006 0.87922 0.0
H573 H 0.38451 0.55159 0.96446 0.0
C574 C 0.35485 0.54003 0.95405 0.0
H575 H 0.32095 0.55874 0.92059 0.0
H576 H 0.49029 0.63036 0.82331 0.0
H577 H 0.48019 0.56462 0.82269 0.0
H578 H 0.4239 0.51113 0.8564 0.0
H579 H 0.37847 0.5233 0.89204 0.0
C580 C 0.34996 0.56311 0.9262 0.0
C581 C 0.38349 0.59478 0.90402 0.0
C582 C 0.40822 0.58636 0.8808 0.0
C583 C 0.43887 0.61653 0.85858 0.0
C584 C 0.46519 0.60812 0.83868 0.0
C585 C 0.45993 0.57054 0.83833 0.0
C586 C 0.42839 0.5405 0.8575 0.0
C587 C 0.4027 0.54808 0.87836 0.0
H588 H 0.74331 0.44561 0.1401 0.0
C589 C 0.77014 0.46394 0.1242 0.0
H590 H 0.83021 0.48187 0.11952 0.0
H591 H 0.7716 0.39406 0.2923 0.0
H592 H 0.75915 0.4467 0.30871 0.0
H593 H 0.76828 0.49638 0.2605 0.0
H594 H 0.78908 0.49335 0.19545 0.0
C595 C 0.80283 0.46336 0.13442 0.0
C596 C 0.80229 0.43665 0.16548 0.0
C597 C 0.79125 0.43951 0.20388 0.0
C598 C 0.78725 0.41156 0.23215 0.0
C599 C 0.77518 0.41456 0.26984 0.0
C600 C 0.76812 0.44471 0.27968 0.0
C601 C 0.77318 0.47264 0.25251 0.0
C602 C 0.78474 0.47031 0.2151 0.0
H603 H 0.84763 0.37509 0.26811 0.0
C604 C 0.81911 0.34897 0.27046 0.0
H605 H 0.75828 0.32951 0.25837 0.0
H606 H 0.82742 0.42454 0.09595 0.0
H607 H 0.84516 0.37538 0.08121 0.0
H608 H 0.84144 0.32917 0.13098 0.0
H609 H 0.81982 0.33168 0.1956 0.0
C610 C 0.7885 0.35052 0.2514 0.0
C611 C 0.79607 0.38185 0.22273 0.0
C612 C 0.81007 0.38087 0.1852 0.0
C613 C 0.81277 0.40797 0.15653 0.0
C614 C 0.82531 0.40516 0.11897 0.0
C615 C 0.83552 0.37699 0.11005 0.0
C616 C 0.83338 0.35095 0.13805 0.0
C617 C 0.82077 0.35266 0.17514 0.0
H618 H 0.36391 0.81198 0.42723 0.0
C619 C 0.33608 0.804 0.44087 0.0
H620 H 0.30622 0.79535 0.49357 0.0
H621 H 0.40556 0.74691 0.59668 0.0
H622 H 0.34135 0.68909 0.59812 0.0
H623 H 0.28801 0.68382 0.55678 0.0
H624 H 0.29853 0.73639 0.51391 0.0
C625 C 0.3337 0.8024 0.47973 0.0
C626 C 0.3665 0.80646 0.50501 0.0
C627 C 0.35998 0.77529 0.52999 0.0
C628 C 0.39102 0.77803 0.55345 0.0
C629 C 0.38341 0.74637 0.57796 0.0
C630 C 0.34656 0.71294 0.57916 0.0
C631 C 0.31652 0.71 0.55594 0.0
C632 C 0.32298 0.7406 0.53153 0.0
H633 H 0.45133 0.82657 0.62645 0.0
C634 C 0.46922 0.8172 0.61118 0.0
H635 H 0.48444 0.81019 0.5529 0.0
H636 H 0.38731 0.87512 0.4675 0.0
H637 H 0.45168 0.93308 0.46644 0.0
H638 H 0.50645 0.93585 0.50349 0.0
H639 H 0.49691 0.88084 0.54257 0.0
C640 C 0.46294 0.81191 0.5711 0.0
C641 C 0.42894 0.81154 0.55135 0.0
C642 C 0.43512 0.84324 0.52751 0.0
C643 C 0.40375 0.84112 0.50505 0.0
C644 C 0.41039 0.87435 0.48363 0.0
C645 C 0.44714 0.90801 0.48308 0.0
C646 C 0.47797 0.9096 0.50401 0.0
C647 C 0.47216 0.87775 0.52615 0.0
H648 H 0.55288 0.30453 0.80243 0.0
C649 C 0.53141 0.31129 0.79056 0.0
H650 H 0.50729 0.34832 0.79519 0.0
H651 H 0.60923 0.37256 0.95893 0.0
H652 H 0.56264 0.30432 0.97158 0.0
H653 H 0.51183 0.26416 0.92379 0.0
H654 H 0.50757 0.2917 0.86293 0.0
C655 C 0.52888 0.34127 0.80602 0.0
C656 C 0.55641 0.36635 0.83734 0.0
C657 C 0.55802 0.34997 0.87331 0.0
C658 C 0.58684 0.3734 0.90135 0.0
C659 C 0.58806 0.35609 0.93664 0.0
C660 C 0.56138 0.31701 0.94436 0.0
C661 C 0.53281 0.29439 0.91743 0.0
C662 C 0.53092 0.31052 0.88239 0.0
H663 H 0.621 0.46959 0.94366 0.0
C664 C 0.64772 0.46809 0.94339 0.0
H665 H 0.66782 0.42838 0.92652 0.0
H666 H 0.55942 0.40795 0.77319 0.0
H667 H 0.60365 0.47687 0.76203 0.0
H668 H 0.65279 0.51767 0.81085 0.0
H669 H 0.65798 0.48995 0.87096 0.0
C670 C 0.64584 0.43691 0.92209 0.0
C671 C 0.61329 0.4135 0.89415 0.0
C672 C 0.61017 0.43046 0.85914 0.0
C673 C 0.58175 0.40687 0.83082 0.0
C674 C 0.5801 0.42442 0.79581 0.0
C675 C 0.60541 0.46399 0.78894 0.0
C676 C 0.63307 0.48695 0.81642 0.0
C677 C 0.63566 0.47055 0.851 0.0
loop_
_geom_bond_atom_site_label_1
_geom_bond_atom_site_label_2
_geom_bond_distance
_geom_bond_site_symmetry_2
_ccdc_geom_bond_type
C0 C1 1.443 . S
C0 N4 1.376 . S
C0 C38 1.389 . S
C1 C0 1.443 . S
C1 C2 1.340 1_554 S
C1 H41 0.951 . S
C2 C1 1.340 1_556 S
C2 C3 1.439 . S
C2 H42 0.950 . S
C3 C2 1.439 . S
C3 N4 1.374 1_556 S
C3 C37 1.395 . S
N4 C0 1.376 . S
N4 C3 1.374 1_554 S
N4 Co5 2.008 . S
Co5 N4 2.008 . S
Co5 N6 1.995 1_554 S
Co5 N11 2.008 . S
Co5 N16 1.995 . S
Co5 N21 2.282 1_554 S
Co5 N27 2.282 . S
N6 Co5 1.995 1_556 S
N6 C7 1.376 . S
N6 C10 1.383 . S
C7 N6 1.376 . S
C7 C8 1.446 . S
C7 C37 1.391 . S
C8 C7 1.446 . S
C8 C9 1.339 . S
C8 H43 0.949 . S
C9 C8 1.339 . S
C9 C10 1.439 . S
C9 H44 0.950 . S
C10 N6 1.383 . S
C10 C9 1.439 . S
C10 C39 1.392 . S
N11 Co5 2.008 . S
N11 C12 1.376 1_554 S
N11 C15 1.374 . S
C12 N11 1.376 1_556 S
C12 C13 1.443 . S
C12 C39 1.389 . S
C13 C12 1.443 . S
C13 C14 1.340 1_556 S
C13 H45 0.951 . S
C14 C13 1.340 1_554 S
C14 C15 1.439 . S
C14 H46 0.950 . S
C15 N11 1.374 . S
C15 C14 1.439 . S
C15 C40 1.395 . S
N16 Co5 1.995 . S
N16 C17 1.376 . S
N16 C20 1.383 . S
C17 N16 1.376 . S
C17 C18 1.446 . S
C17 C40 1.391 . S
C18 C17 1.446 . S
C18 C19 1.339 . S
C18 H47 0.949 . S
C19 C18 1.339 . S
C19 C20 1.439 . S
C19 H48 0.950 . S
C20 N16 1.383 . S
C20 C19 1.439 . S
C20 C38 1.392 . S
N21 Co5 2.282 1_556 S
N21 C24 1.332 . S
N21 C26 1.332 . S
C22 C23 1.386 . S
C22 C25 1.388 . S
C23 C22 1.386 . S
C23 C24 1.382 . S
C23 H49 0.950 . S
C24 N21 1.332 . S
C24 C23 1.382 . S
C24 H35 0.952 1_556 S
C25 C22 1.388 . S
C25 C26 1.382 . S
C25 H50 0.950 . S
C26 N21 1.332 . S
C26 C25 1.382 . S
C26 H36 0.948 . S
N27 Co5 2.282 . S
N27 C31 1.332 . S
N27 C32 1.332 . S
C28 C29 1.388 . S
C28 C32 1.382 . S
C28 H51 0.950 . S
C29 C28 1.388 . S
C29 C30 1.386 . S
C30 C29 1.386 . S
C30 C31 1.382 . S
C30 H52 0.950 . S
C31 N27 1.332 . S
C31 C30 1.382 . S
C31 H33 0.952 . S
C32 N27 1.332 . S
C32 C28 1.382 . S
C32 H34 0.948 . S
H33 C31 0.952 . S
H34 C32 0.948 . S
H35 C24 0.952 1_554 S
H36 C26 0.948 . S
C37 C3 1.395 . S
C37 C7 1.391 . S
C38 C0 1.389 . S
C38 C20 1.392 . S
C39 C10 1.392 . S
C39 C12 1.389 . S
C40 C15 1.395 . S
C40 C17 1.391 . S
H41 C1 0.951 . S
H42 C2 0.950 . S
H43 C8 0.949 . S
H44 C9 0.950 . S
H45 C13 0.951 . S
H46 C14 0.950 . S
H47 C18 0.949 . S
H48 C19 0.950 . S
H49 C23 0.950 . S
H50 C25 0.950 . S
H51 C28 0.950 . S
H52 C30 0.950 . S
C53 C54 1.443 . S
C53 N57 1.376 . S
C53 C91 1.389 . S
C54 C53 1.443 . S
C54 C55 1.340 . S
C54 H94 0.951 . S
C55 C54 1.340 . S
C55 C56 1.439 . S
C55 H95 0.950 . S
C56 C55 1.439 . S
C56 N57 1.374 . S
C56 C90 1.395 . S
N57 C53 1.376 . S
N57 C56 1.374 . S
N57 Co58 2.008 . S
Co58 N57 2.008 . S
Co58 N59 1.995 . S
Co58 N64 2.008 . S
Co58 N69 1.995 . S
Co58 N74 2.282 . S
Co58 N80 2.282 . S
N59 Co58 1.995 . S
N59 C60 1.376 . S
N59 C63 1.383 . S
C60 N59 1.376 . S
C60 C61 1.446 . S
C60 C90 1.391 . S
C61 C60 1.446 . S
C61 C62 1.339 . S
C61 H96 0.949 . S
C62 C61 1.339 . S
C62 C63 1.439 . S
C62 H97 0.950 . S
C63 N59 1.383 . S
C63 C62 1.439 . S
C63 C92 1.392 . S
N64 Co58 2.008 . S
N64 C65 1.376 . S
N64 C68 1.374 . S
C65 N64 1.376 . S
C65 C66 1.443 . S
C65 C92 1.389 . S
C66 C65 1.443 . S
C66 C67 1.340 . S
C66 H98 0.951 . S
C67 C66 1.340 . S
C67 C68 1.439 . S
C67 H99 0.950 . S
C68 N64 1.374 . S
C68 C67 1.439 . S
C68 C93 1.395 . S
N69 Co58 1.995 . S
N69 C70 1.376 . S
N69 C73 1.383 . S
C70 N69 1.376 . S
C70 C71 1.446 . S
C70 C93 1.391 . S
C71 C70 1.446 . S
C71 C72 1.339 . S
C71 H100 0.949 . S
C72 C71 1.339 . S
C72 C73 1.439 . S
C72 H101 0.950 . S
C73 N69 1.383 . S
C73 C72 1.439 . S
C73 C91 1.392 . S
N74 Co58 2.282 . S
N74 C77 1.332 . S
N74 C79 1.332 . S
C75 C76 1.386 . S
C75 C78 1.388 . S
C76 C75 1.386 . S
C76 C77 1.382 . S
C76 H102 0.950 . S
C77 N74 1.332 . S
C77 C76 1.382 . S
C77 H88 0.952 . S
C78 C75 1.388 . S
C78 C79 1.382 . S
C78 H103 0.950 . S
C79 N74 1.332 . S
C79 C78 1.382 . S
C79 H89 0.948 . S
N80 Co58 2.282 . S
N80 C84 1.332 . S
N80 C85 1.332 . S
C81 C82 1.388 . S
C81 C85 1.382 . S
C81 H104 0.950 . S
C82 C81 1.388 . S
C82 C83 1.386 . S
C83 C82 1.386 . S
C83 C84 1.382 . S
C83 H105 0.950 . S
C84 N80 1.332 . S
C84 C83 1.382 . S
C84 H86 0.952 . S
C85 N80 1.332 . S
C85 C81 1.382 . S
C85 H87 0.948 . S
H86 C84 0.952 . S
H87 C85 0.948 . S
H88 C77 0.952 . S
H89 C79 0.948 . S
C90 C56 1.395 . S
C90 C60 1.391 . S
C91 C53 1.389 . S
C91 C73 1.392 . S
C92 C63 1.392 . S
C92 C65 1.389 . S
C93 C68 1.395 . S
C93 C70 1.391 . S
H94 C54 0.951 . S
H95 C55 0.950 . S
H96 C61 0.949 . S
H97 C62 0.950 . S
H98 C66 0.951 . S
H99 C67 0.950 . S
H100 C71 0.949 . S
H101 C72 0.950 . S
H102 C76 0.950 . S
H103 C78 0.950 . S
H104 C81 0.950 . S
H105 C83 0.950 . S
C106 C107 1.443 . S
C106 N110 1.376 . S
C106 C144 1.389 . S
C107 C106 1.443 . S
C107 C108 1.340 . S
C107 H147 0.951 . S
C108 C107 1.340 . S
C108 C109 1.439 . S
C108 H148 0.950 . S
C109 C108 1.439 . S
C109 N110 1.374 . S
C109 C143 1.395 . S
N110 C106 1.376 . S
N110 C109 1.374 . S
N110 Co111 2.008 . S
Co111 N110 2.008 . S
Co111 N112 1.995 . S
Co111 N117 2.008 . S
Co111 N122 1.995 . S
Co111 N127 2.282 . S
Co111 N133 2.282 . S
N112 Co111 1.995 . S
N112 C113 1.376 . S
N112 C116 1.383 . S
C113 N112 1.376 . S
C113 C114 1.446 . S
C113 C143 1.391 . S
C114 C113 1.446 . S
C114 C115 1.339 . S
C114 H149 0.949 . S
C115 C114 1.339 . S
C115 C116 1.439 . S
C115 H150 0.950 . S
C116 N112 1.383 . S
C116 C115 1.439 . S
C116 C145 1.392 . S
N117 Co111 2.008 . S
N117 C118 1.376 . S
N117 C121 1.374 . S
C118 N117 1.376 . S
C118 C119 1.443 . S
C118 C145 1.389 . S
C119 C118 1.443 . S
C119 C120 1.340 . S
C119 H151 0.951 . S
C120 C119 1.340 . S
C120 C121 1.439 . S
C120 H152 0.950 . S
C121 N117 1.374 . S
C121 C120 1.439 . S
C121 C146 1.395 . S
N122 Co111 1.995 . S
N122 C123 1.376 . S
N122 C126 1.383 . S
C123 N122 1.376 . S
C123 C124 1.446 . S
C123 C146 1.391 . S
C124 C123 1.446 . S
C124 C125 1.339 . S
C124 H153 0.949 . S
C125 C124 1.339 . S
C125 C126 1.439 . S
C125 H154 0.950 . S
C126 N122 1.383 . S
C126 C125 1.439 . S
C126 C144 1.392 . S
N127 Co111 2.282 . S
N127 C130 1.332 . S
N127 C132 1.332 . S
C128 C129 1.386 . S
C128 C131 1.388 . S
C129 C128 1.386 . S
C129 C130 1.382 . S
C129 H155 0.950 . S
C130 N127 1.332 . S
C130 C129 1.382 . S
C130 H141 0.952 . S
C131 C128 1.388 . S
C131 C132 1.382 . S
C131 H156 0.950 . S
C132 N127 1.332 . S
C132 C131 1.382 . S
C132 H142 0.948 . S
N133 Co111 2.282 . S
N133 C137 1.332 . S
N133 C138 1.332 . S
C134 C135 1.388 . S
C134 C138 1.382 . S
C134 H157 0.950 . S
C135 C134 1.388 . S
C135 C136 1.386 . S
C136 C135 1.386 . S
C136 C137 1.382 . S
C136 H158 0.950 . S
C137 N133 1.332 . S
C137 C136 1.382 . S
C137 H139 0.952 . S
C138 N133 1.332 . S
C138 C134 1.382 . S
C138 H140 0.948 . S
H139 C137 0.952 . S
H140 C138 0.948 . S
H141 C130 0.952 . S
H142 C132 0.948 . S
C143 C109 1.395 . S
C143 C113 1.391 . S
C144 C106 1.389 . S
C144 C126 1.392 . S
C145 C116 1.392 . S
C145 C118 1.389 . S
C146 C121 1.395 . S
C146 C123 1.391 . S
H147 C107 0.951 . S
H148 C108 0.950 . S
H149 C114 0.949 . S
H150 C115 0.950 . S
H151 C119 0.951 . S
H152 C120 0.950 . S
H153 C124 0.949 . S
H154 C125 0.950 . S
H155 C129 0.950 . S
H156 C131 0.950 . S
H157 C134 0.950 . S
H158 C136 0.950 . S
C159 C160 1.443 . S
C159 N163 1.376 . S
C159 C197 1.389 . S
C160 C159 1.443 . S
C160 C161 1.340 1_554 S
C160 H200 0.951 . S
C161 C160 1.340 1_556 S
C161 C162 1.439 . S
C161 H201 0.950 . S
C162 C161 1.439 . S
C162 N163 1.374 1_556 S
C162 C196 1.395 . S
N163 C159 1.376 . S
N163 C162 1.374 1_554 S
N163 Co164 2.008 . S
Co164 N163 2.008 . S
Co164 N165 1.995 1_554 S
Co164 N170 2.008 . S
Co164 N175 1.995 . S
Co164 N180 2.282 1_554 S
Co164 N186 2.282 . S
N165 Co164 1.995 1_556 S
N165 C166 1.376 . S
N165 C169 1.383 . S
C166 N165 1.376 . S
C166 C167 1.446 . S
C166 C196 1.391 . S
C167 C166 1.446 . S
C167 C168 1.339 . S
C167 H202 0.949 . S
C168 C167 1.339 . S
C168 C169 1.439 . S
C168 H203 0.950 . S
C169 N165 1.383 . S
C169 C168 1.439 . S
C169 C198 1.392 . S
N170 Co164 2.008 . S
N170 C171 1.376 1_554 S
N170 C174 1.374 . S
C171 N170 1.376 1_556 S
C171 C172 1.443 . S
C171 C198 1.389 . S
C172 C171 1.443 . S
C172 C173 1.340 1_556 S
C172 H204 0.951 . S
C173 C172 1.340 1_554 S
C173 C174 1.439 . S
C173 H205 0.950 . S
C174 N170 1.374 . S
C174 C173 1.439 . S
C174 C199 1.395 . S
N175 Co164 1.995 . S
N175 C176 1.376 . S
N175 C179 1.383 . S
C176 N175 1.376 . S
C176 C177 1.446 . S
C176 C199 1.391 . S
C177 C176 1.446 . S
C177 C178 1.339 . S
C177 H206 0.949 . S
C178 C177 1.339 . S
C178 C179 1.439 . S
C178 H207 0.950 . S
C179 N175 1.383 . S
C179 C178 1.439 . S
C179 C197 1.392 . S
N180 Co164 2.282 1_556 S
N180 C183 1.332 . S
N180 C185 1.332 . S
C181 C182 1.386 . S
C181 C184 1.388 . S
C182 C181 1.386 . S
C182 C183 1.382 . S
C182 H208 0.950 . S
C183 N180 1.332 . S
C183 C182 1.382 . S
C183 H194 0.952 1_556 S
C184 C181 1.388 . S
C184 C185 1.382 . S
C184 H209 0.950 . S
C185 N180 1.332 . S
C185 C184 1.382 . S
C185 H195 0.948 . S
N186 Co164 2.282 . S
N186 C190 1.332 . S
N186 C191 1.332 . S
C187 C188 1.388 . S
C187 C191 1.382 . S
C187 H210 0.950 . S
C188 C187 1.388 . S
C188 C189 1.386 . S
C189 C188 1.386 . S
C189 C190 1.382 . S
C189 H211 0.950 . S
C190 N186 1.332 . S
C190 C189 1.382 . S
C190 H192 0.952 . S
C191 N186 1.332 . S
C191 C187 1.382 . S
C191 H193 0.948 . S
H192 C190 0.952 . S
H193 C191 0.948 . S
H194 C183 0.952 1_554 S
H195 C185 0.948 . S
C196 C162 1.395 . S
C196 C166 1.391 . S
C197 C159 1.389 . S
C197 C179 1.392 . S
C198 C169 1.392 . S
C198 C171 1.389 . S
C199 C174 1.395 . S
C199 C176 1.391 . S
H200 C160 0.951 . S
H201 C161 0.950 . S
H202 C167 0.949 . S
H203 C168 0.950 . S
H204 C172 0.951 . S
H205 C173 0.950 . S
H206 C177 0.949 . S
H207 C178 0.950 . S
H208 C182 0.950 . S
H209 C184 0.950 . S
H210 C187 0.950 . S
H211 C189 0.950 . S
C212 C213 1.443 . S
C212 N216 1.376 . S
C212 C250 1.389 . S
C213 C212 1.443 . S
C213 C214 1.340 . S
C213 H253 0.951 . S
C214 C213 1.340 . S
C214 C215 1.439 . S
C214 H254 0.950 . S
C215 C214 1.439 . S
C215 N216 1.374 . S
C215 C249 1.395 . S
N216 C212 1.376 . S
N216 C215 1.374 . S
N216 Co217 2.008 . S
Co217 N216 2.008 . S
Co217 N218 1.995 . S
Co217 N223 2.008 . S
Co217 N228 1.995 . S
Co217 N233 2.282 . S
Co217 N239 2.282 . S
N218 Co217 1.995 . S
N218 C219 1.376 . S
N218 C222 1.383 . S
C219 N218 1.376 . S
C219 C220 1.446 . S
C219 C249 1.391 . S
C220 C219 1.446 . S
C220 C221 1.339 . S
C220 H255 0.949 . S
C221 C220 1.339 . S
C221 C222 1.439 . S
C221 H256 0.950 . S
C222 N218 1.383 . S
C222 C221 1.439 . S
C222 C251 1.392 . S
N223 Co217 2.008 . S
N223 C224 1.376 . S
N223 C227 1.374 . S
C224 N223 1.376 . S
C224 C225 1.443 . S
C224 C251 1.389 . S
C225 C224 1.443 . S
C225 C226 1.340 . S
C225 H257 0.951 . S
C226 C225 1.340 . S
C226 C227 1.439 . S
C226 H258 0.950 . S
C227 N223 1.374 . S
C227 C226 1.439 . S
C227 C252 1.395 . S
N228 Co217 1.995 . S
N228 C229 1.376 . S
N228 C232 1.383 . S
C229 N228 1.376 . S
C229 C230 1.446 . S
C229 C252 1.391 . S
C230 C229 1.446 . S
C230 C231 1.339 . S
C230 H259 0.949 . S
C231 C230 1.339 . S
C231 C232 1.439 . S
C231 H260 0.950 . S
C232 N228 1.383 . S
C232 C231 1.439 . S
C232 C250 1.392 . S
N233 Co217 2.282 . S
N233 C236 1.332 . S
N233 C238 1.332 . S
C234 C235 1.386 . S
C234 C237 1.388 . S
C235 C234 1.386 . S
C235 C236 1.382 . S
C235 H261 0.950 . S
C236 N233 1.332 . S
C236 C235 1.382 . S
C236 H247 0.952 . S
C237 C234 1.388 . S
C237 C238 1.382 . S
C237 H262 0.950 . S
C238 N233 1.332 . S
C238 C237 1.382 . S
C238 H248 0.948 . S
N239 Co217 2.282 . S
N239 C243 1.332 . S
N239 C244 1.332 . S
C240 C241 1.388 . S
C240 C244 1.382 . S
C240 H263 0.950 . S
C241 C240 1.388 . S
C241 C242 1.386 . S
C242 C241 1.386 . S
C242 C243 1.382 . S
C242 H264 0.950 . S
C243 N239 1.332 . S
C243 C242 1.382 . S
C243 H245 0.952 . S
C244 N239 1.332 . S
C244 C240 1.382 . S
C244 H246 0.948 . S
H245 C243 0.952 . S
H246 C244 0.948 . S
H247 C236 0.952 . S
H248 C238 0.948 . S
C249 C215 1.395 . S
C249 C219 1.391 . S
C250 C212 1.389 . S
C250 C232 1.392 . S
C251 C222 1.392 . S
C251 C224 1.389 . S
C252 C227 1.395 . S
C252 C229 1.391 . S
H253 C213 0.951 . S
H254 C214 0.950 . S
H255 C220 0.949 . S
H256 C221 0.950 . S
H257 C225 0.951 . S
H258 C226 0.950 . S
H259 C230 0.949 . S
H260 C231 0.950 . S
H261 C235 0.950 . S
H262 C237 0.950 . S
H263 C240 0.950 . S
H264 C242 0.950 . S
C265 C266 1.443 . S
C265 N269 1.376 . S
C265 C303 1.389 . S
C266 C265 1.443 . S
C266 C267 1.340 . S
C266 H306 0.951 . S
C267 C266 1.340 . S
C267 C268 1.439 . S
C267 H307 0.950 . S
C268 C267 1.439 . S
C268 N269 1.374 . S
C268 C302 1.395 . S
N269 C265 1.376 . S
N269 C268 1.374 . S
N269 Co270 2.008 . S
Co270 N269 2.008 . S
Co270 N271 1.995 . S
Co270 N276 2.008 . S
Co270 N281 1.995 . S
Co270 N286 2.282 . S
Co270 N292 2.282 . S
N271 Co270 1.995 . S
N271 C272 1.376 . S
N271 C275 1.383 . S
C272 N271 1.376 . S
C272 C273 1.446 . S
C272 C302 1.391 . S
C273 C272 1.446 . S
C273 C274 1.339 . S
C273 H308 0.949 . S
C274 C273 1.339 . S
C274 C275 1.439 . S
C274 H309 0.950 . S
C275 N271 1.383 . S
C275 C274 1.439 . S
C275 C304 1.392 . S
N276 Co270 2.008 . S
N276 C277 1.376 . S
N276 C280 1.374 . S
C277 N276 1.376 . S
C277 C278 1.443 . S
C277 C304 1.389 . S
C278 C277 1.443 . S
C278 C279 1.340 . S
C278 H310 0.951 . S
C279 C278 1.340 . S
C279 C280 1.439 . S
C279 H311 0.950 . S
C280 N276 1.374 . S
C280 C279 1.439 . S
C280 C305 1.395 . S
N281 Co270 1.995 . S
N281 C282 1.376 . S
N281 C285 1.383 . S
C282 N281 1.376 . S
C282 C283 1.446 . S
C282 C305 1.391 . S
C283 C282 1.446 . S
C283 C284 1.339 . S
C283 H312 0.949 . S
C284 C283 1.339 . S
C284 C285 1.439 . S
C284 H313 0.950 . S
C285 N281 1.383 . S
C285 C284 1.439 . S
C285 C303 1.392 . S
N286 Co270 2.282 . S
N286 C289 1.332 . S
N286 C291 1.332 . S
C287 C288 1.386 . S
C287 C290 1.388 . S
C288 C287 1.386 . S
C288 C289 1.382 . S
C288 H314 0.950 . S
C289 N286 1.332 . S
C289 C288 1.382 . S
C289 H300 0.952 . S
C290 C287 1.388 . S
C290 C291 1.382 . S
C290 H315 0.950 . S
C291 N286 1.332 . S
C291 C290 1.382 . S
C291 H301 0.948 . S
N292 Co270 2.282 . S
N292 C296 1.332 . S
N292 C297 1.332 . S
C293 C294 1.388 . S
C293 C297 1.382 . S
C293 H316 0.950 . S
C294 C293 1.388 . S
C294 C295 1.386 . S
C295 C294 1.386 . S
C295 C296 1.382 . S
C295 H317 0.950 . S
C296 N292 1.332 . S
C296 C295 1.382 . S
C296 H298 0.952 . S
C297 N292 1.332 . S
C297 C293 1.382 . S
C297 H299 0.948 . S
H298 C296 0.952 . S
H299 C297 0.948 . S
H300 C289 0.952 . S
H301 C291 0.948 . S
C302 C268 1.395 . S
C302 C272 1.391 . S
C303 C265 1.389 . S
C303 C285 1.392 . S
C304 C275 1.392 . S
C304 C277 1.389 . S
C305 C280 1.395 . S
C305 C282 1.391 . S
H306 C266 0.951 . S
H307 C267 0.950 . S
H308 C273 0.949 . S
H309 C274 0.950 . S
H310 C278 0.951 . S
H311 C279 0.950 . S
H312 C283 0.949 . S
H313 C284 0.950 . S
H314 C288 0.950 . S
H315 C290 0.950 . S
H316 C293 0.950 . S
H317 C295 0.950 . S
H318 C319 0.951 . S
C319 H318 0.951 . S
C319 C325 1.265 . S
H320 C325 0.950 . S
H321 C329 0.949 . S
H322 C330 0.950 . S
H323 C331 0.951 . S
H324 C332 0.951 . S
C325 C319 1.265 . S
C325 H320 0.950 . S
C325 C326 1.478 . S
C326 C325 1.478 . S
C326 C327 1.397 . S
C326 C343 1.394 . S
C327 C326 1.397 . S
C327 C328 1.438 . S
C327 C332 1.429 . S
C328 C327 1.438 . S
C328 C329 1.428 . S
C328 C341 1.394 . S
C329 H321 0.949 . S
C329 C328 1.428 . S
C329 C330 1.345 . S
C330 H322 0.950 . S
C330 C329 1.345 . S
C330 C331 1.424 . S
C331 H323 0.951 . S
C331 C330 1.424 . S
C331 C332 1.347 . S
C332 H324 0.951 . S
C332 C327 1.429 . S
C332 C331 1.347 . S
H333 C334 0.951 . S
C334 H333 0.951 . S
C334 C340 1.265 . S
H335 C340 0.950 . S
H336 C344 0.949 . S
H337 C345 0.950 . S
H338 C346 0.951 . S
H339 C347 0.951 . S
C340 C334 1.265 . S
C340 H335 0.950 . S
C340 C341 1.478 . S
C341 C328 1.394 . S
C341 C340 1.478 . S
C341 C342 1.397 . S
C342 C341 1.397 . S
C342 C343 1.438 . S
C342 C347 1.429 . S
C343 C326 1.394 . S
C343 C342 1.438 . S
C343 C344 1.428 . S
C344 H336 0.949 . S
C344 C343 1.428 . S
C344 C345 1.345 . S
C345 H337 0.950 . S
C345 C344 1.345 . S
C345 C346 1.424 . S
C346 H338 0.951 . S
C346 C345 1.424 . S
C346 C347 1.347 . S
C347 H339 0.951 . S
C347 C342 1.429 . S
C347 C346 1.347 . S
H348 C349 0.951 . S
C349 H348 0.951 . S
C349 C355 1.265 . S
H350 C355 0.950 . S
H351 C359 0.949 . S
H352 C360 0.950 . S
H353 C361 0.951 . S
H354 C362 0.951 1_655 S
C355 C349 1.265 . S
C355 H350 0.950 . S
C355 C356 1.478 . S
C356 C355 1.478 . S
C356 C357 1.397 1_655 S
C356 C373 1.394 . S
C357 C356 1.397 1_455 S
C357 C358 1.438 . S
C357 C362 1.429 . S
C358 C357 1.438 . S
C358 C359 1.428 . S
C358 C371 1.394 . S
C359 H351 0.949 . S
C359 C358 1.428 . S
C359 C360 1.345 . S
C360 H352 0.950 . S
C360 C359 1.345 . S
C360 C361 1.424 . S
C361 H353 0.951 . S
C361 C360 1.424 . S
C361 C362 1.347 . S
C362 H354 0.951 1_455 S
C362 C357 1.429 . S
C362 C361 1.347 . S
H363 C364 0.951 . S
C364 H363 0.951 . S
C364 C370 1.265 . S
H365 C370 0.950 . S
H366 C374 0.949 . S
H367 C375 0.950 . S
H368 C376 0.951 . S
H369 C377 0.951 . S
C370 C364 1.265 . S
C370 H365 0.950 . S
C370 C371 1.478 . S
C371 C358 1.394 . S
C371 C370 1.478 . S
C371 C372 1.397 . S
C372 C371 1.397 . S
C372 C373 1.438 1_455 S
C372 C377 1.429 . S
C373 C356 1.394 . S
C373 C372 1.438 1_655 S
C373 C374 1.428 . S
C374 H366 0.949 . S
C374 C373 1.428 . S
C374 C375 1.345 . S
C375 H367 0.950 . S
C375 C374 1.345 . S
C375 C376 1.424 1_655 S
C376 H368 0.951 . S
C376 C375 1.424 1_455 S
C376 C377 1.347 . S
C377 H369 0.951 . S
C377 C372 1.429 . S
C377 C376 1.347 . S
H378 C379 0.951 . S
C379 H378 0.951 . S
C379 C385 1.265 . S
H380 C385 0.950 . S
H381 C389 0.949 . S
H382 C390 0.950 . S
H383 C391 0.951 . S
H384 C392 0.951 . S
C385 C379 1.265 . S
C385 H380 0.950 . S
C385 C386 1.478 . S
C386 C385 1.478 . S
C386 C387 1.397 . S
C386 C403 1.394 . S
C387 C386 1.397 . S
C387 C388 1.438 1_545 S
C387 C392 1.429 . S
C388 C387 1.438 1_565 S
C388 C389 1.428 . S
C388 C401 1.394 . S
C389 H381 0.949 . S
C389 C388 1.428 . S
C389 C390 1.345 . S
C390 H382 0.950 . S
C390 C389 1.345 . S
C390 C391 1.424 . S
C391 H383 0.951 . S
C391 C390 1.424 . S
C391 C392 1.347 1_565 S
C392 H384 0.951 . S
C392 C387 1.429 . S
C392 C391 1.347 1_545 S
H393 C394 0.951 . S
C394 H393 0.951 . S
C394 C400 1.265 . S
H395 C400 0.950 . S
H396 C404 0.949 . S
H397 C405 0.950 . S
H398 C406 0.951 . S
H399 C407 0.951 . S
C400 C394 1.265 . S
C400 H395 0.950 . S
C400 C401 1.478 . S
C401 C388 1.394 . S
C401 C400 1.478 . S
C401 C402 1.397 1_565 S
C402 C401 1.397 1_545 S
C402 C403 1.438 . S
C402 C407 1.429 . S
C403 C386 1.394 . S
C403 C402 1.438 . S
C403 C404 1.428 . S
C404 H396 0.949 . S
C404 C403 1.428 . S
C404 C405 1.345 . S
C405 H397 0.950 . S
C405 C404 1.345 . S
C405 C406 1.424 . S
C406 H398 0.951 . S
C406 C405 1.424 . S
C406 C407 1.347 . S
C407 H399 0.951 . S
C407 C402 1.429 . S
C407 C406 1.347 . S
H408 C409 0.951 . S
C409 H408 0.951 . S
C409 C415 1.265 . S
H410 C415 0.950 . S
H411 C419 0.949 . S
H412 C420 0.950 . S
H413 C421 0.951 . S
H414 C422 0.951 . S
C415 C409 1.265 . S
C415 H410 0.950 . S
C415 C416 1.478 . S
C416 C415 1.478 . S
C416 C417 1.397 . S
C416 C433 1.394 . S
C417 C416 1.397 . S
C417 C418 1.438 . S
C417 C422 1.429 . S
C418 C417 1.438 . S
C418 C419 1.428 . S
C418 C431 1.394 . S
C419 H411 0.949 . S
C419 C418 1.428 . S
C419 C420 1.345 . S
C420 H412 0.950 . S
C420 C419 1.345 . S
C420 C421 1.424 . S
C421 H413 0.951 . S
C421 C420 1.424 . S
C421 C422 1.347 . S
C422 H414 0.951 . S
C422 C417 1.429 . S
C422 C421 1.347 . S
H423 C424 0.951 . S
C424 H423 0.951 . S
C424 C430 1.265 . S
H425 C430 0.950 . S
H426 C434 0.949 . S
H427 C435 0.950 . S
H428 C436 0.951 . S
H429 C437 0.951 . S
C430 C424 1.265 . S
C430 H425 0.950 . S
C430 C431 1.478 . S
C431 C418 1.394 . S
C431 C430 1.478 . S
C431 C432 1.397 . S
C432 C431 1.397 . S
C432 C433 1.438 . S
C432 C437 1.429 . S
C433 C416 1.394 . S
C433 C432 1.438 . S
C433 C434 1.428 . S
C434 H426 0.949 . S
C434 C433 1.428 . S
C434 C435 1.345 . S
C435 H427 0.950 . S
C435 C434 1.345 . S
C435 C436 1.424 . S
C436 H428 0.951 . S
C436 C435 1.424 . S
C436 C437 1.347 . S
C437 H429 0.951 . S
C437 C432 1.429 . S
C437 C436 1.347 . S
H438 C439 0.951 . S
C439 H438 0.951 . S
C439 C445 1.265 . S
H440 C445 0.950 . S
H441 C449 0.949 1_455 S
H442 C450 0.950 . S
H443 C451 0.951 . S
H444 C452 0.951 . S
C445 C439 1.265 . S
C445 H440 0.950 . S
C445 C446 1.478 . S
C446 C445 1.478 . S
C446 C447 1.397 . S
C446 C463 1.394 . S
C447 C446 1.397 . S
C447 C448 1.438 . S
C447 C452 1.429 . S
C448 C447 1.438 . S
C448 C449 1.428 . S
C448 C461 1.394 1_655 S
C449 H441 0.949 1_655 S
C449 C448 1.428 . S
C449 C450 1.345 . S
C450 H442 0.950 . S
C450 C449 1.345 . S
C450 C451 1.424 . S
C451 H443 0.951 . S
C451 C450 1.424 . S
C451 C452 1.347 . S
C452 H444 0.951 . S
C452 C447 1.429 . S
C452 C451 1.347 . S
H453 C454 0.951 . S
C454 H453 0.951 . S
C454 C460 1.265 . S
H455 C460 0.950 . S
H456 C464 0.949 . S
H457 C465 0.950 . S
H458 C466 0.951 . S
H459 C467 0.951 . S
C460 C454 1.265 . S
C460 H455 0.950 . S
C460 C461 1.478 . S
C461 C448 1.394 1_455 S
C461 C460 1.478 . S
C461 C462 1.397 . S
C462 C461 1.397 . S
C462 C463 1.438 1_455 S
C462 C467 1.429 . S
C463 C446 1.394 . S
C463 C462 1.438 1_655 S
C463 C464 1.428 . S
C464 H456 0.949 . S
C464 C463 1.428 . S
C464 C465 1.345 1_655 S
C465 H457 0.950 . S
C465 C464 1.345 1_455 S
C465 C466 1.424 . S
C466 H458 0.951 . S
C466 C465 1.424 . S
C466 C467 1.347 . S
C467 H459 0.951 . S
C467 C462 1.429 . S
C467 C466 1.347 . S
H468 C469 0.951 . S
C469 H468 0.951 . S
C469 C475 1.265 . S
H470 C475 0.950 . S
H471 C479 0.949 . S
H472 C480 0.950 . S
H473 C481 0.951 . S
H474 C482 0.951 . S
C475 C469 1.265 . S
C475 H470 0.950 . S
C475 C476 1.478 . S
C476 C475 1.478 . S
C476 C477 1.397 . S
C476 C493 1.394 1_545 S
C477 C476 1.397 . S
C477 C478 1.438 1_545 S
C477 C482 1.429 . S
C478 C477 1.438 1_565 S
C478 C479 1.428 . S
C478 C491 1.394 . S
C479 H471 0.949 . S
C479 C478 1.428 . S
C479 C480 1.345 1_565 S
C480 H472 0.950 . S
C480 C479 1.345 1_545 S
C480 C481 1.424 . S
C481 H473 0.951 . S
C481 C480 1.424 . S
C481 C482 1.347 . S
C482 H474 0.951 . S
C482 C477 1.429 . S
C482 C481 1.347 . S
H483 C484 0.951 . S
C484 H483 0.951 . S
C484 C490 1.265 . S
H485 C490 0.950 . S
H486 C494 0.949 . S
H487 C495 0.950 . S
H488 C496 0.951 . S
H489 C497 0.951 . S
C490 C484 1.265 . S
C490 H485 0.950 . S
C490 C491 1.478 . S
C491 C478 1.394 . S
C491 C490 1.478 . S
C491 C492 1.397 . S
C492 C491 1.397 . S
C492 C493 1.438 . S
C492 C497 1.429 . S
C493 C476 1.394 1_565 S
C493 C492 1.438 . S
C493 C494 1.428 . S
C494 H486 0.949 . S
C494 C493 1.428 . S
C494 C495 1.345 . S
C495 H487 0.950 . S
C495 C494 1.345 . S
C495 C496 1.424 . S
C496 H488 0.951 . S
C496 C495 1.424 . S
C496 C497 1.347 . S
C497 H489 0.951 . S
C497 C492 1.429 . S
C497 C496 1.347 . S
H498 C499 0.951 . S
C499 H498 0.951 . S
C499 C505 1.265 . S
H500 C505 0.950 . S
H501 C509 0.949 . S
H502 C510 0.950 . S
H503 C511 0.951 . S
H504 C512 0.951 . S
C505 C499 1.265 . S
C505 H500 0.950 . S
C505 C506 1.478 . S
C506 C505 1.478 . S
C506 C507 1.397 . S
C506 C523 1.394 . S
C507 C506 1.397 . S
C507 C508 1.438 . S
C507 C512 1.429 . S
C508 C507 1.438 . S
C508 C509 1.428 . S
C508 C521 1.394 . S
C509 H501 0.949 . S
C509 C508 1.428 . S
C509 C510 1.345 . S
C510 H502 0.950 . S
C510 C509 1.345 . S
C510 C511 1.424 . S
C511 H503 0.951 . S
C511 C510 1.424 . S
C511 C512 1.347 . S
C512 H504 0.951 . S
C512 C507 1.429 . S
C512 C511 1.347 . S
H513 C514 0.951 . S
C514 H513 0.951 . S
C514 C520 1.265 . S
H515 C520 0.950 . S
H516 C524 0.949 . S
H517 C525 0.950 . S
H518 C526 0.951 . S
H519 C527 0.951 . S
C520 C514 1.265 . S
C520 H515 0.950 . S
C520 C521 1.478 . S
C521 C508 1.394 . S
C521 C520 1.478 . S
C521 C522 1.397 . S
C522 C521 1.397 . S
C522 C523 1.438 . S
C522 C527 1.429 . S
C523 C506 1.394 . S
C523 C522 1.438 . S
C523 C524 1.428 . S
C524 H516 0.949 . S
C524 C523 1.428 . S
C524 C525 1.345 . S
C525 H517 0.950 . S
C525 C524 1.345 . S
C525 C526 1.424 . S
C526 H518 0.951 . S
C526 C525 1.424 . S
C526 C527 1.347 . S
C527 H519 0.951 . S
C527 C522 1.429 . S
C527 C526 1.347 . S
H528 C529 0.951 . S
C529 H528 0.951 . S
C529 C535 1.265 . S
H530 C535 0.950 . S
H531 C539 0.949 . S
H532 C540 0.950 . S
H533 C541 0.951 . S
H534 C542 0.951 . S
C535 C529 1.265 . S
C535 H530 0.950 . S
C535 C536 1.478 . S
C536 C535 1.478 . S
C536 C537 1.397 . S
C536 C553 1.394 . S
C537 C536 1.397 . S
C537 C538 1.438 . S
C537 C542 1.429 . S
C538 C537 1.438 . S
C538 C539 1.428 . S
C538 C551 1.394 . S
C539 H531 0.949 . S
C539 C538 1.428 . S
C539 C540 1.345 . S
C540 H532 0.950 . S
C540 C539 1.345 . S
C540 C541 1.424 . S
C541 H533 0.951 . S
C541 C540 1.424 . S
C541 C542 1.347 . S
C542 H534 0.951 . S
C542 C537 1.429 . S
C542 C541 1.347 . S
H543 C544 0.951 . S
C544 H543 0.951 . S
C544 C550 1.265 . S
H545 C550 0.950 . S
H546 C554 0.949 . S
H547 C555 0.950 . S
H548 C556 0.951 . S
H549 C557 0.951 . S
C550 C544 1.265 . S
C550 H545 0.950 . S
C550 C551 1.478 . S
C551 C538 1.394 . S
C551 C550 1.478 . S
C551 C552 1.397 . S
C552 C551 1.397 . S
C552 C553 1.438 . S
C552 C557 1.429 . S
C553 C536 1.394 . S
C553 C552 1.438 . S
C553 C554 1.428 . S
C554 H546 0.949 . S
C554 C553 1.428 . S
C554 C555 1.345 . S
C555 H547 0.950 . S
C555 C554 1.345 . S
C555 C556 1.424 . S
C556 H548 0.951 . S
C556 C555 1.424 . S
C556 C557 1.347 . S
C557 H549 0.951 . S
C557 C552 1.429 . S
C557 C556 1.347 . S
H558 C559 0.951 . S
C559 H558 0.951 . S
C559 C565 1.265 . S
H560 C565 0.950 . S
H561 C569 0.949 . S
H562 C570 0.950 . S
H563 C571 0.951 . S
H564 C572 0.951 . S
C565 C559 1.265 . S
C565 H560 0.950 . S
C565 C566 1.478 . S
C566 C565 1.478 . S
C566 C567 1.397 . S
C566 C583 1.394 . S
C567 C566 1.397 . S
C567 C568 1.438 . S
C567 C572 1.429 . S
C568 C567 1.438 . S
C568 C569 1.428 . S
C568 C581 1.394 . S
C569 H561 0.949 . S
C569 C568 1.428 . S
C569 C570 1.345 . S
C570 H562 0.950 . S
C570 C569 1.345 . S
C570 C571 1.424 . S
C571 H563 0.951 . S
C571 C570 1.424 . S
C571 C572 1.347 . S
C572 H564 0.951 . S
C572 C567 1.429 . S
C572 C571 1.347 . S
H573 C574 0.951 . S
C574 H573 0.951 . S
C574 C580 1.265 . S
H575 C580 0.950 . S
H576 C584 0.949 . S
H577 C585 0.950 . S
H578 C586 0.951 . S
H579 C587 0.951 . S
C580 C574 1.265 . S
C580 H575 0.950 . S
C580 C581 1.478 . S
C581 C568 1.394 . S
C581 C580 1.478 . S
C581 C582 1.397 . S
C582 C581 1.397 . S
C582 C583 1.438 . S
C582 C587 1.429 . S
C583 C566 1.394 . S
C583 C582 1.438 . S
C583 C584 1.428 . S
C584 H576 0.949 . S
C584 C583 1.428 . S
C584 C585 1.345 . S
C585 H577 0.950 . S
C585 C584 1.345 . S
C585 C586 1.424 . S
C586 H578 0.951 . S
C586 C585 1.424 . S
C586 C587 1.347 . S
C587 H579 0.951 . S
C587 C582 1.429 . S
C587 C586 1.347 . S
H588 C589 0.951 . S
C589 H588 0.951 . S
C589 C595 1.265 . S
H590 C595 0.950 . S
H591 C599 0.949 . S
H592 C600 0.950 . S
H593 C601 0.951 . S
H594 C602 0.951 . S
C595 C589 1.265 . S
C595 H590 0.950 . S
C595 C596 1.478 . S
C596 C595 1.478 . S
C596 C597 1.397 . S
C596 C613 1.394 . S
C597 C596 1.397 . S
C597 C598 1.438 . S
C597 C602 1.429 . S
C598 C597 1.438 . S
C598 C599 1.428 . S
C598 C611 1.394 . S
C599 H591 0.949 . S
C599 C598 1.428 . S
C599 C600 1.345 . S
C600 H592 0.950 . S
C600 C599 1.345 . S
C600 C601 1.424 . S
C601 H593 0.951 . S
C601 C600 1.424 . S
C601 C602 1.347 . S
C602 H594 0.951 . S
C602 C597 1.429 . S
C602 C601 1.347 . S
H603 C604 0.951 . S
C604 H603 0.951 . S
C604 C610 1.265 . S
H605 C610 0.950 . S
H606 C614 0.949 . S
H607 C615 0.950 . S
H608 C616 0.951 . S
H609 C617 0.951 . S
C610 C604 1.265 . S
C610 H605 0.950 . S
C610 C611 1.478 . S
C611 C598 1.394 . S
C611 C610 1.478 . S
C611 C612 1.397 . S
C612 C611 1.397 . S
C612 C613 1.438 . S
C612 C617 1.429 . S
C613 C596 1.394 . S
C613 C612 1.438 . S
C613 C614 1.428 . S
C614 H606 0.949 . S
C614 C613 1.428 . S
C614 C615 1.345 . S
C615 H607 0.950 . S
C615 C614 1.345 . S
C615 C616 1.424 . S
C616 H608 0.951 . S
C616 C615 1.424 . S
C616 C617 1.347 . S
C617 H609 0.951 . S
C617 C612 1.429 . S
C617 C616 1.347 . S
H618 C619 0.951 . S
C619 H618 0.951 . S
C619 C625 1.265 . S
H620 C625 0.950 . S
H621 C629 0.949 . S
H622 C630 0.950 . S
H623 C631 0.951 . S
H624 C632 0.951 . S
C625 C619 1.265 . S
C625 H620 0.950 . S
C625 C626 1.478 . S
C626 C625 1.478 . S
C626 C627 1.397 . S
C626 C643 1.394 . S
C627 C626 1.397 . S
C627 C628 1.438 . S
C627 C632 1.429 . S
C628 C627 1.438 . S
C628 C629 1.428 . S
C628 C641 1.394 . S
C629 H621 0.949 . S
C629 C628 1.428 . S
C629 C630 1.345 . S
C630 H622 0.950 . S
C630 C629 1.345 . S
C630 C631 1.424 . S
C631 H623 0.951 . S
C631 C630 1.424 . S
C631 C632 1.347 . S
C632 H624 0.951 . S
C632 C627 1.429 . S
C632 C631 1.347 . S
H633 C634 0.951 . S
C634 H633 0.951 . S
C634 C640 1.265 . S
H635 C640 0.950 . S
H636 C644 0.949 . S
H637 C645 0.950 . S
H638 C646 0.951 . S
H639 C647 0.951 . S
C640 C634 1.265 . S
C640 H635 0.950 . S
C640 C641 1.478 . S
C641 C628 1.394 . S
C641 C640 1.478 . S
C641 C642 1.397 . S
C642 C641 1.397 . S
C642 C643 1.438 . S
C642 C647 1.429 . S
C643 C626 1.394 . S
C643 C642 1.438 . S
C643 C644 1.428 . S
C644 H636 0.949 . S
C644 C643 1.428 . S
C644 C645 1.345 . S
C645 H637 0.950 . S
C645 C644 1.345 . S
C645 C646 1.424 . S
C646 H638 0.951 . S
C646 C645 1.424 . S
C646 C647 1.347 . S
C647 H639 0.951 . S
C647 C642 1.429 . S
C647 C646 1.347 . S
H648 C649 0.951 . S
C649 H648 0.951 . S
C649 C655 1.265 . S
H650 C655 0.950 . S
H651 C659 0.949 . S
H652 C660 0.950 . S
H653 C661 0.951 . S
H654 C662 0.951 . S
C655 C649 1.265 . S
C655 H650 0.950 . S
C655 C656 1.478 . S
C656 C655 1.478 . S
C656 C657 1.397 . S
C656 C673 1.394 . S
C657 C656 1.397 . S
C657 C658 1.438 . S
C657 C662 1.429 . S
C658 C657 1.438 . S
C658 C659 1.428 . S
C658 C671 1.394 . S
C659 H651 0.949 . S
C659 C658 1.428 . S
C659 C660 1.345 . S
C660 H652 0.950 . S
C660 C659 1.345 . S
C660 C661 1.424 . S
C661 H653 0.951 . S
C661 C660 1.424 . S
C661 C662 1.347 . S
C662 H654 0.951 . S
C662 C657 1.429 . S
C662 C661 1.347 . S
H663 C664 0.951 . S
C664 H663 0.951 . S
C664 C670 1.265 . S
H665 C670 0.950 . S
H666 C674 0.949 . S
H667 C675 0.950 . S
H668 C676 0.951 . S
H669 C677 0.951 . S
C670 C664 1.265 . S
C670 H665 0.950 . S
C670 C671 1.478 . S
C671 C658 1.394 . S
C671 C670 1.478 . S
C671 C672 1.397 . S
C672 C671 1.397 . S
C672 C673 1.438 . S
C672 C677 1.429 . S
C673 C656 1.394 . S
C673 C672 1.438 . S
C673 C674 1.428 . S
C674 H666 0.949 . S
C674 C673 1.428 . S
C674 C675 1.345 . S
C675 H667 0.950 . S
C675 C674 1.345 . S
C675 C676 1.424 . S
C676 H668 0.951 . S
C676 C675 1.424 . S
C676 C677 1.347 . S
C677 H669 0.951 . S
C677 C672 1.429 . S
C677 C676 1.347 . S
C319 C22 1.438 . S
C334 C303 1.429 . S
C349 C75 1.449 . S
C364 C38 1.423 . S
C379 C91 1.452 . S
C394 C128 1.422 . S
C409 C181 1.440 . S
C424 C144 1.427 . S
C439 C197 1.424 . S
C454 C234 1.446 . S
C469 C287 1.408 . S
C484 C250 1.454 . S
C499 C251 1.481 . S
C514 C29 1.505 . S
C529 C304 1.501 . S
C544 C82 1.494 . S
C559 C135 1.474 . S
C574 C39 1.501 . S
C589 C188 1.472 . S
C604 C92 1.507 . S
C619 C241 1.489 . S
C634 C145 1.489 . S
C649 C294 1.473 . S
C664 C198 1.503 . S
