# Generated by pormake.
# Topology dft, (4)-cn, num edge types: 1
# Building blocks:
#     Node 0, Type 0, BuildingBlock: ICAMEG_clean_sbu_1, # of connection points: 4
#     Node 1, Type 0, BuildingBlock: ICAMEG_clean_sbu_1, # of connection points: 4
#     Node 2, Type 0, BuildingBlock: ICAMEG_clean_sbu_1, # of connection points: 4
#     Node 3, Type 0, BuildingBlock: ICAMEG_clean_sbu_1, # of connection points: 4
#     Node 4, Type 0, BuildingBlock: ICAMEG_clean_sbu_1, # of connection points: 4
#     Node 5, Type 0, BuildingBlock: ICAMEG_clean_sbu_1, # of connection points: 4
#     Node 6, Type 0, BuildingBlock: ICAMEG_clean_sbu_1, # of connection points: 4
#     Node 7, Type 0, BuildingBlock: ICAMEG_clean_sbu_1, # of connection points: 4
#     Edge 8, Type (0, 0), BuildingBlock: MIFKUJ_clean_linker_0, # of connection points: 2
#     Edge 9, Type (0, 0), BuildingBlock: MIFKUJ_clean_linker_0, # of connection points: 2
#     Edge 10, Type (0, 0), BuildingBlock: MIFKUJ_clean_linker_0, # of connection points: 2
#     Edge 11, Type (0, 0), BuildingBlock: MIFKUJ_clean_linker_0, # of connection points: 2
#     Edge 12, Type (0, 0), BuildingBlock: MIFKUJ_clean_linker_0, # of connection points: 2
#     Edge 13, Type (0, 0), BuildingBlock: MIFKUJ_clean_linker_0, # of connection points: 2
#     Edge 14, Type (0, 0), BuildingBlock: MIFKUJ_clean_linker_0, # of connection points: 2
#     Edge 15, Type (0, 0), BuildingBlock: MIFKUJ_clean_linker_0, # of connection points: 2
#     Edge 16, Type (0, 0), BuildingBlock: MIFKUJ_clean_linker_0, # of connection points: 2
#     Edge 17, Type (0, 0), BuildingBlock: MIFKUJ_clean_linker_0, # of connection points: 2
#     Edge 18, Type (0, 0), BuildingBlock: MIFKUJ_clean_linker_0, # of connection points: 2
#     Edge 19, Type (0, 0), BuildingBlock: MIFKUJ_clean_linker_0, # of connection points: 2
#     Edge 20, Type (0, 0), BuildingBlock: MIFKUJ_clean_linker_0, # of connection points: 2
#     Edge 21, Type (0, 0), BuildingBlock: MIFKUJ_clean_linker_0, # of connection points: 2
#     Edge 22, Type (0, 0), BuildingBlock: MIFKUJ_clean_linker_0, # of connection points: 2
#     Edge 23, Type (0, 0), BuildingBlock: MIFKUJ_clean_linker_0, # of connection points: 2
# Relax obj value: 0.223
# Max RMSD: 0.222
# Mean RMSD: 0.222
data_MOF--net-dft--node1-ICAMEG_clean_sbu_1--edge1-MIFKUJ_clean_linker_0
_symmetry_space_group_name_H-M    P1
_symmetry_Int_Tables_number       1
_symmetry_cell_setting            triclinic
loop_
_symmetry_equiv_pos_as_xyz
'x, y, z'
_cell_length_a     44.247432
_cell_length_b     44.264068
_cell_length_c     60.531636
_cell_angle_alpha  89.994376
_cell_angle_beta   90.037969
_cell_angle_gamma 89.992332
loop_
_atom_site_label
_atom_site_type_symbol
_atom_site_fract_x
_atom_site_fract_y
_atom_site_fract_z
_atom_type_partial_charge
Co0 Co 0.28874 0.0658 0.15735 0.0
Co1 Co 0.34326 0.05193 0.19592 0.0
O2 O 0.3313 0.0577 0.16489 0.0
C3 C 0.31469 0.03266 0.1177 0.0
O4 O 0.33978 0.02613 0.12822 0.0
C5 C 0.39707 0.08191 0.17381 0.0
O6 O 0.38194 0.08581 0.15541 0.0
O7 O 0.32626 0.09261 0.20326 0.0
O8 O 0.28198 0.08659 0.18611 0.0
H9 H 0.325 0.05466 0.27782 0.0
H10 H 0.33772 0.0865 0.12681 0.0
O11 O 0.29303 0.04585 0.12767 0.0
H12 H 0.27973 0.17804 0.14526 0.0
H13 H 0.20239 0.09491 0.10732 0.0
H14 H 0.23098 0.06163 0.18219 0.0
H15 H 0.26493 0.12867 0.16053 0.0
H16 H 0.25581 0.08598 0.11678 0.0
O17 O 0.38424 0.07065 0.19077 0.0
H18 H 0.31143 0.06045 0.23854 0.0
H19 H 0.39966 0.03297 0.21948 0.0
H20 H 0.17735 0.07056 0.17349 0.0
H21 H 0.35344 0.13533 0.11141 0.0
H22 H 0.1627 0.08731 0.1358 0.0
H23 H 0.32427 0.18164 0.12045 0.0
O24 O 0.27693 0.0268 0.1713 0.0
H25 H 0.40244 0.97722 0.15027 0.0
H26 H 0.33927 0.99084 0.2165 0.0
H27 H 0.35894 0.9403 0.20757 0.0
H28 H 0.39096 0.93321 0.17429 0.0
H29 H 0.38191 0.02715 0.15961 0.0
H30 H 0.41424 0.02721 0.25856 0.0
H31 H 0.37674 0.03794 0.28805 0.0
O32 O 0.30336 0.03216 0.20267 0.0
C33 C 0.29882 0.10019 0.19994 0.0
C34 C 0.34152 0.04985 0.26512 0.0
C35 C 0.39162 0.0345 0.25431 0.0
N36 N 0.35465 0.04694 0.2267 0.0
C37 C 0.33395 0.05303 0.24284 0.0
C38 C 0.38325 0.03791 0.2322 0.0
C39 C 0.37056 0.0405 0.27085 0.0
C40 C 0.32475 0.10632 0.13082 0.0
N41 N 0.30028 0.10444 0.14448 0.0
C42 C 0.33386 0.13405 0.12208 0.0
C43 C 0.31754 0.16003 0.1272 0.0
C44 C 0.29256 0.15801 0.1411 0.0
C45 C 0.2843 0.12993 0.14971 0.0
C46 C 0.20847 0.08756 0.12379 0.0
C47 C 0.22487 0.06893 0.16576 0.0
C48 C 0.23869 0.08231 0.12922 0.0
N49 N 0.24659 0.07317 0.15003 0.0
C50 C 0.19442 0.07394 0.16093 0.0
C51 C 0.18622 0.08332 0.13978 0.0
C52 C 0.28194 0.02014 0.19152 0.0
C53 C 0.38861 0.98002 0.16487 0.0
C54 C 0.35295 0.98801 0.2019 0.0
C55 C 0.36415 0.95929 0.19698 0.0
C56 C 0.38213 0.95533 0.17832 0.0
N57 N 0.35951 0.01222 0.18871 0.0
C58 C 0.37701 0.00839 0.17033 0.0
Co59 Co 0.02438 0.29189 0.64559 0.0
Co60 Co 0.06559 0.34355 0.67639 0.0
O61 O 0.04608 0.33017 0.64899 0.0
C62 C 0.06604 0.29374 0.60627 0.0
O63 O 0.08832 0.30448 0.61826 0.0
C64 C 0.03786 0.40357 0.68397 0.0
O65 O 0.02935 0.39342 0.70339 0.0
O66 O 0.02822 0.3344 0.69399 0.0
O67 O 0.006 0.29662 0.67516 0.0
H68 H 0.09298 0.33792 0.75698 0.0
H69 H 0.01891 0.34072 0.61221 0.0
O70 O 0.04105 0.28661 0.6152 0.0
H71 H 0.91463 0.31942 0.63631 0.0
H72 H 0.96393 0.21405 0.60379 0.0
H73 H 0.01123 0.24011 0.67504 0.0
H74 H 0.95748 0.2908 0.65183 0.0
H75 H 0.99088 0.26232 0.60848 0.0
O76 O 0.05093 0.3858 0.6704 0.0
H77 H 0.06976 0.31998 0.72221 0.0
H78 H 0.10349 0.39704 0.68842 0.0
H79 H 0.98397 0.19164 0.67118 0.0
H80 H 0.9767 0.36964 0.59605 0.0
H81 H 0.96023 0.17839 0.63535 0.0
H82 H 0.92411 0.35911 0.60813 0.0
O83 O 0.05894 0.2688 0.6589 0.0
H84 H 0.12343 0.38696 0.61236 0.0
H85 H 0.13113 0.3295 0.68191 0.0
H86 H 0.17719 0.33962 0.66023 0.0
H87 H 0.17353 0.36872 0.62523 0.0
H88 H 0.07789 0.37583 0.63436 0.0
H89 H 0.12733 0.41539 0.72269 0.0
H90 H 0.12209 0.38574 0.75728 0.0
O91 O 0.08088 0.30187 0.68233 0.0
C92 C 0.00782 0.31425 0.69168 0.0
C93 C 0.09552 0.35085 0.74194 0.0
C94 C 0.11477 0.39442 0.72273 0.0
N95 N 0.08521 0.35742 0.7033 0.0
C96 C 0.08239 0.34088 0.72224 0.0
C97 C 0.10123 0.38387 0.70337 0.0
C98 C 0.11182 0.37777 0.74213 0.0
C99 C 0.99609 0.33594 0.61752 0.0
N100 N 0.99069 0.31414 0.63301 0.0
C101 C 0.97228 0.35242 0.60832 0.0
C102 C 0.94278 0.34651 0.61511 0.0
C103 C 0.93745 0.32427 0.63093 0.0
C104 C 0.96182 0.30824 0.63975 0.0
C105 C 0.97431 0.21953 0.61948 0.0
C106 C 1.00091 0.23444 0.65942 0.0
C107 C 0.9898 0.24677 0.6222 0.0
N108 N 0.00283 0.25395 0.642 0.0
C109 C 0.98554 0.20701 0.65733 0.0
C110 C 0.9722 0.19956 0.6372 0.0
C111 C 0.07788 0.27546 0.67414 0.0
C112 C 0.12533 0.37429 0.62759 0.0
C113 C 0.12931 0.34179 0.66655 0.0
C114 C 0.15549 0.34764 0.65442 0.0
C115 C 0.15342 0.36401 0.63481 0.0
N116 N 0.10183 0.35197 0.65939 0.0
C117 C 0.09963 0.36801 0.64017 0.0
Co118 Co 0.8194 0.0145 0.16543 0.0
Co119 Co 0.77842 0.0587 0.20015 0.0
O120 O 0.78344 0.03909 0.17129 0.0
C121 C 0.81297 0.04981 0.12336 0.0
O122 O 0.81095 0.07528 0.13438 0.0
C123 C 0.7175 0.03362 0.18949 0.0
O124 O 0.73056 0.0095 0.1813 0.0
O125 O 0.7811 0.01853 0.21497 0.0
O126 O 0.8223 0.00208 0.1971 0.0
H127 H 0.80327 0.07683 0.28008 0.0
H128 H 0.76454 0.00419 0.13824 0.0
O129 O 0.81716 0.02499 0.13344 0.0
H130 H 0.78621 0.90617 0.17358 0.0
H131 H 0.88377 0.94244 0.12143 0.0
H132 H 0.87803 0.00564 0.18837 0.0
H133 H 0.81911 0.9501 0.18035 0.0
H134 H 0.8381 0.97243 0.12932 0.0
O135 O 0.73333 0.05472 0.19787 0.0
H136 H 0.80959 0.05352 0.24338 0.0
H137 H 0.73565 0.10445 0.2185 0.0
H138 H 0.92401 0.97579 0.18119 0.0
H139 H 0.7314 0.96064 0.13065 0.0
H140 H 0.92711 0.94389 0.14751 0.0
H141 H 0.74204 0.91122 0.14848 0.0
O142 O 0.84552 0.05023 0.17171 0.0
H143 H 0.74231 0.13086 0.14176 0.0
H144 H 0.80786 0.11874 0.20706 0.0
H145 H 0.80645 0.16771 0.18766 0.0
H146 H 0.77336 0.17406 0.15485 0.0
H147 H 0.74481 0.08211 0.16142 0.0
H148 H 0.72853 0.12831 0.25495 0.0
H149 H 0.76251 0.11455 0.28604 0.0
O150 O 0.82332 0.06415 0.20344 0.0
C151 C 0.80349 1.00061 0.21298 0.0
C152 C 0.78832 0.08302 0.26666 0.0
C153 C 0.74637 0.1119 0.25256 0.0
N154 N 0.77308 0.07767 0.22879 0.0
C155 C 0.79182 0.06993 0.24583 0.0
C156 C 0.75048 0.09827 0.23197 0.0
C157 C 0.76544 0.10417 0.27 0.0
C158 C 0.76954 0.98268 0.14586 0.0
N159 N 0.79374 0.97976 0.15974 0.0
C160 C 0.7506 0.95813 0.14158 0.0
C161 C 0.75656 0.93042 0.15162 0.0
C162 C 0.78131 0.92758 0.16572 0.0
C163 C 0.79978 0.95261 0.16958 0.0
C164 C 0.8827 0.95624 0.13616 0.0
C165 C 0.87913 0.99176 0.17371 0.0
C166 C 0.85692 0.97337 0.14069 0.0
N167 N 0.85532 0.99073 0.15933 0.0
C168 C 0.90526 0.97493 0.16972 0.0
C169 C 0.90699 0.95706 0.15081 0.0
C170 C 0.84556 0.06448 0.19004 0.0
C171 C 0.7567 0.12842 0.15611 0.0
C172 C 0.79348 0.12127 0.19275 0.0
C173 C 0.79272 0.14909 0.18187 0.0
C174 C 0.77416 0.15263 0.16345 0.0
N175 N 0.77628 0.09762 0.18546 0.0
C176 C 0.75811 0.1009 0.16737 0.0
Co177 Co 0.09371 0.82977 0.66677 0.0
Co178 Co 0.0694 0.77683 0.70313 0.0
O179 O 0.07957 0.78846 0.67269 0.0
C180 C 0.0523 0.81705 0.62826 0.0
O181 O 0.03129 0.80575 0.64115 0.0
C182 C 0.09808 0.72097 0.68316 0.0
O183 O 0.11257 0.73697 0.66832 0.0
O184 O 0.11149 0.78695 0.71234 0.0
O185 O 0.113 0.83274 0.69665 0.0
H186 H 0.0689 0.79086 0.7855 0.0
H187 H 0.10914 0.7814 0.63475 0.0
O188 O 0.07638 0.82805 0.63639 0.0
H189 H 0.20696 0.82251 0.6596 0.0
H190 H 0.13552 0.91384 0.61966 0.0
H191 H 0.09434 0.88668 0.69268 0.0
H192 H 0.15911 0.84359 0.67369 0.0
H193 H 0.12105 0.86126 0.62789 0.0
O194 O 0.08159 0.73384 0.69759 0.0
H195 H 0.08024 0.80473 0.74694 0.0
H196 H 0.03875 0.72397 0.72419 0.0
H197 H 0.10874 0.93946 0.6852 0.0
H198 H 0.1564 0.76023 0.61975 0.0
H199 H 0.12929 0.95341 0.6484 0.0
H200 H 0.20579 0.78072 0.63227 0.0
O201 O 0.05516 0.84598 0.67908 0.0
H202 H 0.99176 0.72971 0.65323 0.0
H203 H 0.00761 0.79112 0.7202 0.0
H204 H 0.95571 0.7791 0.70826 0.0
H205 H 0.94753 0.74797 0.67464 0.0
H206 H 0.04325 0.74252 0.66562 0.0
H207 H 0.02724 0.70909 0.76252 0.0
H208 H 0.04222 0.74272 0.7935 0.0
O209 O 0.05577 0.81902 0.71031 0.0
C210 C 0.12344 0.81293 0.70987 0.0
C211 C 0.06221 0.77604 0.77215 0.0
C212 C 0.03886 0.73014 0.75925 0.0
N213 N 0.06006 0.76528 0.73331 0.0
C214 C 0.06852 0.78381 0.75027 0.0
C215 C 0.04554 0.73864 0.73758 0.0
C216 C 0.04726 0.74902 0.77662 0.0
C217 C 0.13051 0.7907 0.64009 0.0
N218 N 0.13133 0.81371 0.65511 0.0
C219 C 0.15721 0.77852 0.6316 0.0
C220 C 0.18491 0.79002 0.63864 0.0
C221 C 0.18558 0.81351 0.65394 0.0
C222 C 0.15842 0.82523 0.66196 0.0
C223 C 0.12648 0.90807 0.63573 0.0
C224 C 0.10347 0.89247 0.67668 0.0
C225 C 0.11821 0.87832 0.64049 0.0
N226 N 0.1068 0.87084 0.66075 0.0
C227 C 0.11149 0.92245 0.67252 0.0
C228 C 0.12298 0.93026 0.65186 0.0
C229 C 0.04671 0.84161 0.69898 0.0
C230 C 0.99504 0.74311 0.66799 0.0
C231 C 0.00426 0.77771 0.70548 0.0
C232 C 0.97481 0.7709 0.69883 0.0
C233 C 0.97023 0.75343 0.67998 0.0
N234 N 0.02851 0.76729 0.69374 0.0
C235 C 0.02417 0.75034 0.67514 0.0
Co236 Co 0.28575 0.05185 0.84312 0.0
Co237 Co 0.34116 0.0851 0.81247 0.0
O238 O 0.32612 0.06992 0.84068 0.0
C239 C 0.29421 0.08807 0.88481 0.0
O240 O 0.30938 0.1089 0.8741 0.0
C241 C 0.40194 0.05708 0.80971 0.0
O242 O 0.39304 0.04444 0.79118 0.0
O243 O 0.33371 0.04452 0.79889 0.0
O244 O 0.28741 0.03594 0.81231 0.0
H245 H 0.33707 0.0996 0.73024 0.0
H246 H 0.33317 0.03799 0.87634 0.0
O247 O 0.28242 0.06603 0.87444 0.0
H248 H 0.30697 0.94005 0.84279 0.0
H249 H 0.20196 0.9975 0.88299 0.0
H250 H 0.23192 0.04818 0.81386 0.0
H251 H 0.27981 0.98644 0.83189 0.0
H252 H 0.25362 0.01734 0.87839 0.0
O253 O 0.38327 0.07253 0.82113 0.0
H254 H 0.31935 0.08099 0.76637 0.0
H255 H 0.3951 0.121 0.79806 0.0
H256 H 0.18023 0.02811 0.81758 0.0
H257 H 0.36009 0.99209 0.88817 0.0
H258 H 0.16481 0.00287 0.85245 0.0
H259 H 0.34692 0.94261 0.87147 0.0
O260 O 0.26704 0.08978 0.83155 0.0
H261 H 0.3802 0.15413 0.87187 0.0
H262 H 0.32715 0.14919 0.80037 0.0
H263 H 0.33552 0.19867 0.81797 0.0
H264 H 0.36238 0.20139 0.85396 0.0
H265 H 0.37074 0.10508 0.85387 0.0
H266 H 0.41382 0.1398 0.76223 0.0
H267 H 0.38468 0.1292 0.728 0.0
O268 O 0.29946 0.0988 0.80373 0.0
C269 C 0.30884 0.03004 0.79904 0.0
C270 C 0.34999 0.10435 0.74503 0.0
C271 C 0.39306 0.12691 0.76299 0.0
N272 N 0.35615 0.09989 0.78431 0.0
C273 C 0.34005 0.09389 0.76554 0.0
C274 C 0.38238 0.11616 0.78322 0.0
C275 C 0.37669 0.12096 0.74379 0.0
C276 C 0.3268 0.01651 0.86929 0.0
N277 N 0.30458 0.01489 0.85363 0.0
C278 C 0.34224 0.99058 0.87602 0.0
C279 C 0.33493 0.96284 0.86657 0.0
C280 C 0.31235 0.96137 0.85057 0.0
C281 C 0.29717 0.98772 0.84439 0.0
C282 C 0.20832 0.00867 0.86779 0.0
C283 C 0.22551 0.03701 0.82902 0.0
C284 C 0.23753 0.02004 0.86511 0.0
N285 N 0.24573 0.03425 0.84597 0.0
C286 C 0.19615 0.02577 0.83105 0.0
C287 C 0.1875 0.01166 0.85063 0.0
C288 C 0.27392 0.10262 0.81327 0.0
C289 C 0.36847 0.15326 0.85619 0.0
C290 C 0.33838 0.15012 0.81616 0.0
C291 C 0.3433 0.17824 0.82599 0.0
C292 C 0.35842 0.17976 0.84615 0.0
N293 N 0.34823 0.12421 0.82612 0.0
C294 C 0.36315 0.12555 0.84586 0.0
Co295 Co 0.09149 0.29145 0.32631 0.0
Co296 Co 0.04955 0.34281 0.29756 0.0
O297 O 0.07012 0.33027 0.32479 0.0
C298 C 0.05663 0.2923 0.36859 0.0
O299 O 0.03163 0.29817 0.3577 0.0
C300 C 0.0825 0.39914 0.31082 0.0
O301 O 0.10642 0.3832 0.31618 0.0
O302 O 0.0882 0.33889 0.28081 0.0
O303 O 0.10339 0.29436 0.29468 0.0
H304 H 0.02373 0.33535 0.2169 0.0
H305 H 0.10599 0.33997 0.35843 0.0
O306 O 0.08128 0.28798 0.35831 0.0
H307 H 0.20231 0.31658 0.32123 0.0
H308 H 0.1589 0.21298 0.3613 0.0
H309 H 0.09595 0.23826 0.29665 0.0
H310 H 0.15583 0.28893 0.31151 0.0
H311 H 0.13169 0.26157 0.35956 0.0
O312 O 0.05872 0.38621 0.30374 0.0
H313 H 0.04868 0.3199 0.25155 0.0
H314 H 0.00754 0.39306 0.28556 0.0
H315 H 0.12315 0.1897 0.29758 0.0
H316 H 0.15205 0.36788 0.36891 0.0
H317 H 0.15496 0.17679 0.33005 0.0
H318 H 0.20064 0.35633 0.35019 0.0
O319 O 0.05389 0.26949 0.3176 0.0
H320 H 0.98627 0.37556 0.36209 0.0
H321 H 0.98587 0.32207 0.29065 0.0
H322 H 0.93871 0.3257 0.31215 0.0
H323 H 0.93869 0.35268 0.34813 0.0
H324 H 0.03301 0.37111 0.34014 0.0
H325 H 0.98239 0.40947 0.25124 0.0
H326 H 0.99031 0.38044 0.2166 0.0
O327 O 0.03885 0.30001 0.29025 0.0
C328 C 0.10499 0.3155 0.28048 0.0
C329 C 0.02006 0.34815 0.23189 0.0
C330 C 0.99688 0.38977 0.25116 0.0
N331 N 0.02949 0.35547 0.27058 0.0
C332 C 0.03409 0.33949 0.25157 0.0
C333 C 0.01127 0.38042 0.27053 0.0
C334 C 0.00133 0.37347 0.23173 0.0
C335 C 0.12709 0.33462 0.35034 0.0
N336 N 0.12819 0.31283 0.33438 0.0
C337 C 0.15308 0.35058 0.35629 0.0
C338 C 0.18033 0.34411 0.34577 0.0
C339 C 0.18128 0.32183 0.32952 0.0
C340 C 0.15485 0.30632 0.32402 0.0
C341 C 0.14512 0.21837 0.34705 0.0
C342 C 0.10979 0.2329 0.31084 0.0
C343 C 0.12954 0.24579 0.34602 0.0
N344 N 0.11234 0.25287 0.32798 0.0
C345 C 0.12509 0.2053 0.31128 0.0
C346 C 0.14292 0.19807 0.32951 0.0
C347 C 0.03822 0.27468 0.30029 0.0
C348 C 0.98597 0.3638 0.34642 0.0
C349 C 0.9861 0.33369 0.30634 0.0
C350 C 0.9593 0.33576 0.31841 0.0
C351 C 0.9593 0.35093 0.33859 0.0
N352 N 0.01217 0.34642 0.31411 0.0
C353 C 0.01234 0.3613 0.33388 0.0
Co354 Co 0.82668 0.08122 0.85175 0.0
Co355 Co 0.7821 0.06432 0.80789 0.0
O356 O 0.78743 0.06823 0.83999 0.0
C357 C 0.80295 0.03753 0.88667 0.0
O358 O 0.7865 0.02154 0.87294 0.0
C359 C 0.72434 0.09435 0.82241 0.0
O360 O 0.73937 0.1135 0.8348 0.0
O361 O 0.79357 0.10776 0.80394 0.0
O362 O 0.83498 0.10602 0.82496 0.0
H363 H 0.81177 0.0795 0.72854 0.0
H364 H 0.76976 0.09035 0.87673 0.0
O365 O 0.82008 0.05857 0.87982 0.0
H366 H 0.81632 0.1913 0.87219 0.0
H367 H 0.89945 0.11603 0.91068 0.0
H368 H 0.88806 0.08685 0.83251 0.0
H369 H 0.8415 0.14711 0.85576 0.0
H370 H 0.8497 0.1014 0.89595 0.0
O371 O 0.73835 0.07508 0.81067 0.0
H372 H 0.81813 0.08297 0.76892 0.0
H373 H 0.73398 0.03878 0.77865 0.0
H374 H 0.93823 0.10154 0.84657 0.0
H375 H 0.744 0.13381 0.89375 0.0
H376 H 0.9442 0.11624 0.88593 0.0
H377 H 0.76723 0.1848 0.89149 0.0
O378 O 0.84617 0.04544 0.83734 0.0
H379 H 0.72678 0.97818 0.84375 0.0
H380 H 0.80016 0.00642 0.78607 0.0
H381 H 0.78637 0.95292 0.79099 0.0
H382 H 0.74953 0.93845 0.82003 0.0
H383 H 0.7411 0.03149 0.83824 0.0
H384 H 0.72659 0.03508 0.73838 0.0
H385 H 0.76573 0.05541 0.71301 0.0
O386 O 0.82538 0.05198 0.80396 0.0
C387 C 0.81872 0.11888 0.81037 0.0
C388 C 0.79458 0.07051 0.73942 0.0
C389 C 0.74675 0.04562 0.74494 0.0
N390 N 0.77651 0.06102 0.77616 0.0
C391 C 0.79807 0.07237 0.76231 0.0
C392 C 0.75102 0.04789 0.76774 0.0
C393 C 0.76873 0.05702 0.73072 0.0
C394 C 0.78018 0.11237 0.87579 0.0
N395 N 0.80721 0.11607 0.86523 0.0
C396 C 0.76541 0.13695 0.88542 0.0
C397 C 0.77842 0.16555 0.88412 0.0
C398 C 0.80594 0.16921 0.87328 0.0
C399 C 0.82005 0.14409 0.86387 0.0
C400 C 0.89717 0.10962 0.89351 0.0
C401 C 0.8904 0.0933 0.84965 0.0
C402 C 0.86902 0.1012 0.88507 0.0
N403 N 0.86585 0.09334 0.86333 0.0
C404 C 0.91891 0.10155 0.85752 0.0
C405 C 0.92225 0.10977 0.87961 0.0
C406 C 0.84546 0.04038 0.81653 0.0
C407 C 0.7429 0.98418 0.83105 0.0
C408 C 0.7842 1.00035 0.79883 0.0
C409 C 0.77646 0.96999 0.80151 0.0
C410 C 0.75571 0.9619 0.81776 0.0
N411 N 0.77144 0.02211 0.81186 0.0
C412 C 0.75107 0.01434 0.82783 0.0
Co413 Co 0.02263 0.83192 0.3484 0.0
Co414 Co 0.06269 0.7825 0.31731 0.0
O415 O 0.04355 0.79321 0.3453 0.0
C416 C 0.05726 0.82689 0.39067 0.0
O417 O 0.08231 0.82208 0.37959 0.0
C418 C 0.0409 0.7199 0.31107 0.0
O419 O 0.02876 0.72924 0.29247 0.0
O420 O 0.0227 0.78706 0.30228 0.0
O421 O 0.01088 0.83218 0.31656 0.0
H422 H 0.08309 0.7937 0.23605 0.0
H423 H 0.00707 0.78041 0.37761 0.0
O424 O 0.03266 0.83225 0.38055 0.0
H425 H 0.91145 0.80927 0.3414 0.0
H426 H 0.95622 0.90775 0.38709 0.0
H427 H 0.01921 0.88795 0.32151 0.0
H428 H 0.95841 0.83717 0.33357 0.0
H429 H 0.98272 0.85909 0.38289 0.0
O430 O 0.05411 0.73875 0.32376 0.0
H431 H 0.05994 0.80706 0.2718 0.0
H432 H 0.10535 0.73394 0.30287 0.0
H433 H 0.99279 0.93674 0.32493 0.0
H434 H 0.9605 0.75211 0.38615 0.0
H435 H 0.96091 0.94687 0.35787 0.0
H436 H 0.91226 0.76645 0.36794 0.0
O437 O 0.06079 0.85348 0.34071 0.0
H438 H 0.13126 0.74817 0.37858 0.0
H439 H 0.12522 0.8053 0.30879 0.0
H440 H 0.17386 0.80204 0.32852 0.0
H441 H 0.17714 0.77317 0.36362 0.0
H442 H 0.08292 0.75241 0.35849 0.0
H443 H 0.12883 0.71967 0.26743 0.0
H444 H 0.11779 0.7497 0.23371 0.0
O445 O 0.0723 0.82595 0.31068 0.0
C446 C 0.00705 0.81121 0.30245 0.0
C447 C 0.08807 0.78043 0.25063 0.0
C448 C 0.11375 0.73889 0.26824 0.0
N449 N 0.08128 0.77132 0.2894 0.0
C450 C 0.07505 0.78791 0.27092 0.0
C451 C 0.10036 0.74706 0.28825 0.0
C452 C 0.10754 0.75574 0.24933 0.0
C453 C 0.98613 0.78692 0.36975 0.0
N454 N 0.98547 0.81051 0.3552 0.0
C455 C 0.95984 0.77077 0.3746 0.0
C456 C 0.93278 0.77881 0.36437 0.0
C457 C 0.9323 0.80283 0.34949 0.0
C458 C 0.95901 0.81851 0.34509 0.0
C459 C 0.97002 0.90359 0.37265 0.0
C460 C 0.0054 0.89214 0.3359 0.0
C461 C 0.98521 0.87612 0.37023 0.0
N462 N 0.00243 0.87059 0.35192 0.0
C463 C 0.99051 0.91985 0.33775 0.0
C464 C 0.97265 0.92553 0.35625 0.0
C465 C 0.07479 0.84976 0.32246 0.0
C466 C 0.13015 0.76069 0.36324 0.0
C467 C 0.12641 0.79279 0.32409 0.0
C468 C 0.15405 0.79096 0.33516 0.0
C469 C 0.15587 0.77476 0.35485 0.0
N470 N 0.10126 0.77888 0.3324 0.0
C471 C 0.10287 0.76305 0.35174 0.0
H472 H 0.36196 0.02601 0.08863 0.0
H473 H 0.361 0.03596 0.04877 0.0
H474 H 0.26457 0.04932 0.05165 0.0
H475 H 0.26524 0.03939 0.09125 0.0
H476 H 0.33098 0.01154 0.01243 0.0
H477 H 0.24621 0.1084 0.02282 0.0
H478 H 0.23133 0.14611 0.05086 0.0
H479 H 0.32169 0.14637 0.07671 0.0
H480 H 0.33689 0.10824 0.0492 0.0
H481 H 0.26369 0.04863 0.9112 0.0
H482 H 0.27033 0.04015 0.95059 0.0
H483 H 0.33266 0.11484 0.95393 0.0
H484 H 0.32652 0.12337 0.91404 0.0
H485 H 0.29033 0.11161 0.99008 0.0
H486 H 0.36288 0.04907 0.95301 0.0
H487 H 0.38017 0.01199 0.92539 0.0
H488 H 0.31969 0.94561 0.95223 0.0
H489 H 0.30188 0.98241 0.97994 0.0
C490 C 0.34045 0.03036 0.08069 0.0
C491 C 0.31372 0.03221 0.0932 0.0
C492 C 0.33997 0.03621 0.05792 0.0
C493 C 0.31282 0.04409 0.04736 0.0
C494 C 0.28588 0.04395 0.05955 0.0
C495 C 0.28631 0.03809 0.0822 0.0
C496 C 0.31255 0.05373 0.02385 0.0
C497 C 0.3222 0.03343 0.00755 0.0
C498 C 0.30157 0.08251 0.01747 0.0
C499 C 0.29261 0.10543 0.03404 0.0
C500 C 0.26286 0.11652 0.03453 0.0
C501 C 0.25434 0.13781 0.05042 0.0
C502 C 0.27549 0.14842 0.06572 0.0
C503 C 0.30521 0.1378 0.06512 0.0
C504 C 0.31377 0.11627 0.04944 0.0
C505 C 0.27866 0.06354 0.92022 0.0
C506 C 0.29483 0.08653 0.90932 0.0
C507 C 0.28245 0.05856 0.94279 0.0
C508 C 0.30235 0.07652 0.95509 0.0
C509 C 0.3173 0.10061 0.94465 0.0
C510 C 0.3137 0.10551 0.92189 0.0
C511 C 0.30809 0.06913 0.97863 0.0
C512 C 0.29935 0.08982 0.99495 0.0
C513 C 0.32019 0.0408 0.98501 0.0
C514 C 0.33091 0.01856 0.96845 0.0
C515 C 0.35312 0.02663 0.95293 0.0
C516 C 0.36305 0.00564 0.93728 0.0
C517 C 0.35099 0.97647 0.93703 0.0
C518 C 0.32902 0.96821 0.95245 0.0
C519 C 0.31905 0.9891 0.96817 0.0
H520 H 0.3587 0.96024 0.9249 0.0
H521 H 0.26891 0.16498 0.07796 0.0
H522 H 0.02018 0.28206 0.57765 0.0
H523 H 0.02126 0.28149 0.53772 0.0
H524 H 0.11654 0.30205 0.53861 0.0
H525 H 0.11553 0.30339 0.57927 0.0
H526 H 0.08759 0.33515 0.50788 0.0
H527 H 0.09137 0.23053 0.52596 0.0
H528 H 0.07635 0.18359 0.54494 0.0
H529 H 0.98828 0.18881 0.51536 0.0
H530 H 0.00263 0.23603 0.49644 0.0
H531 H 0.10643 0.29544 0.39484 0.0
H532 H 0.10883 0.29598 0.43502 0.0
H533 H 0.0117 0.2899 0.43839 0.0
H534 H 0.00895 0.28969 0.39778 0.0
H535 H 0.04418 0.24848 0.46661 0.0
H536 H 0.04129 0.35442 0.44921 0.0
H537 H 0.05769 0.40067 0.42995 0.0
H538 H 0.14645 0.39151 0.45787 0.0
H539 H 0.13069 0.34492 0.47706 0.0
C540 C 0.04158 0.28616 0.56955 0.0
C541 C 0.06793 0.29236 0.58181 0.0
C542 C 0.04212 0.28577 0.54657 0.0
C543 C 0.06908 0.29109 0.5351 0.0
C544 C 0.09549 0.29764 0.54715 0.0
C545 C 0.09494 0.29827 0.57035 0.0
C546 C 0.06899 0.29032 0.51053 0.0
C547 C 0.07863 0.31597 0.49885 0.0
C548 C 0.05668 0.26554 0.49871 0.0
C549 C 0.04803 0.23696 0.5099 0.0
C550 C 0.06874 0.22178 0.52361 0.0
C551 C 0.06035 0.19511 0.53434 0.0
C552 C 0.03137 0.18326 0.53139 0.0
C553 C 0.01073 0.19802 0.51764 0.0
C554 C 0.01899 0.22472 0.50688 0.0
C555 C 0.08547 0.29417 0.40403 0.0
C556 C 0.05743 0.29243 0.39307 0.0
C557 C 0.08695 0.29463 0.42703 0.0
C558 C 0.06048 0.29316 0.43965 0.0
C559 C 0.03239 0.29111 0.42888 0.0
C560 C 0.03084 0.29105 0.40573 0.0
C561 C 0.06245 0.29336 0.4641 0.0
C562 C 0.05324 0.26757 0.4757 0.0
C563 C 0.07541 0.31786 0.47579 0.0
C564 C 0.08489 0.346 0.4644 0.0
C565 C 0.06438 0.36211 0.45109 0.0
C566 C 0.07355 0.38842 0.44022 0.0
C567 C 0.10312 0.39898 0.44264 0.0
C568 C 0.12356 0.38329 0.45599 0.0
C569 C 0.11452 0.35694 0.46689 0.0
H570 H 0.11017 0.41935 0.4342 0.0
H571 H 0.02491 0.16261 0.53972 0.0
H572 H 0.80312 0.08443 0.91495 0.0
H573 H 0.80114 0.08366 0.95488 0.0
H574 H 0.79104 0.98674 0.95393 0.0
H575 H 0.79221 0.98748 0.91308 0.0
H576 H 0.75594 0.01496 0.98672 0.0
H577 H 0.85916 0.01566 0.96365 0.0
H578 H 0.9028 0.03313 0.94181 0.0
H579 H 0.89529 0.12135 0.97075 0.0
H580 H 0.85127 0.10456 0.99253 0.0
H581 H 0.8047 0.99985 0.09793 0.0
H582 H 0.79964 0.9968 0.05801 0.0
H583 H 0.80766 0.09367 0.05323 0.0
H584 H 0.81284 0.09705 0.09362 0.0
H585 H 0.84434 0.06259 0.0234 0.0
H586 H 0.74049 0.06178 0.04597 0.0
H587 H 0.69659 0.04426 0.06751 0.0
H588 H 0.70576 0.95554 0.03964 0.0
H589 H 0.75003 0.97242 0.01817 0.0
C590 C 0.8003 0.06284 0.92309 0.0
C591 C 0.79844 0.03589 0.91085 0.0
C592 C 0.79917 0.06249 0.946 0.0
C593 C 0.79679 0.03511 0.95742 0.0
C594 C 0.79321 0.00812 0.94537 0.0
C595 C 0.7939 0.00852 0.92212 0.0
C596 C 0.79961 0.0353 0.98187 0.0
C597 C 0.77549 0.02483 0.99478 0.0
C598 C 0.82488 0.04885 0.99235 0.0
C599 C 0.85179 0.05888 0.97965 0.0
C600 C 0.86672 0.03883 0.96529 0.0
C601 C 0.89152 0.04861 0.95291 0.0
C602 C 0.9018 0.07833 0.95488 0.0
C603 C 0.88731 0.09832 0.96926 0.0
C604 C 0.86245 0.08868 0.98165 0.0
C605 C 0.8054 0.02064 0.0885 0.0
C606 C 0.80931 0.04877 0.09902 0.0
C607 C 0.80229 0.0188 0.06563 0.0
C608 C 0.803 0.04498 0.05266 0.0
C609 C 0.80696 0.07317 0.063 0.0
C610 C 0.80985 0.07509 0.08604 0.0
C611 C 0.80054 0.04255 0.02827 0.0
C612 C 0.82484 0.05257 0.01537 0.0
C613 C 0.77554 0.02845 0.01787 0.0
C614 C 0.74877 0.0183 0.03062 0.0
C615 C 0.7333 0.03847 0.04457 0.0
C616 C 0.70833 0.02867 0.05675 0.0
C617 C 0.69844 0.99879 0.05499 0.0
C618 C 0.71347 0.97867 0.041 0.0
C619 C 0.73849 0.98835 0.02881 0.0
H620 H 0.6791 0.99124 0.06444 0.0
H621 H 0.92102 0.08585 0.94529 0.0
H622 H 0.10478 0.82619 0.42007 0.0
H623 H 0.10192 0.82202 0.46042 0.0
H624 H 0.00471 0.81607 0.45643 0.0
H625 H 0.00732 0.82137 0.41652 0.0
H626 H 0.01799 0.85124 0.4884 0.0
H627 H 0.05177 0.75303 0.46652 0.0
H628 H 0.08457 0.716 0.44779 0.0
H629 H 0.16053 0.74629 0.48601 0.0
H630 H 0.12826 0.78381 0.50476 0.0
H631 H 0.00227 0.8049 0.60231 0.0
H632 H 1.00031 0.80323 0.56165 0.0
H633 H 0.09559 0.82336 0.55878 0.0
H634 H 0.09778 0.82508 0.59878 0.0
H635 H 0.0799 0.7776 0.53045 0.0
H636 H 0.0451 0.87808 0.55028 0.0
H637 H 0.0112 0.91419 0.56893 0.0
H638 H 0.93507 0.87699 0.53431 0.0
H639 H 0.96852 0.84037 0.51566 0.0
C640 C 0.08285 0.82403 0.42784 0.0
C641 C 0.05633 0.82422 0.41507 0.0
C642 C 0.08121 0.82145 0.4509 0.0
C643 C 0.05307 0.81834 0.46153 0.0
C644 C 0.02666 0.81852 0.44872 0.0
C645 C 0.02824 0.82153 0.42582 0.0
C646 C 0.05086 0.81538 0.486 0.0
C647 C 0.03121 0.83476 0.4975 0.0
C648 C 0.06822 0.7941 0.49804 0.0
C649 C 0.08764 0.77142 0.48691 0.0
C650 C 0.07551 0.75193 0.47083 0.0
C651 C 0.094 0.73084 0.46022 0.0
C652 C 0.12462 0.72884 0.46567 0.0
C653 C 0.13681 0.74788 0.48179 0.0
C654 C 0.11842 0.76905 0.49243 0.0
C655 C 0.02273 0.80891 0.59296 0.0
C656 C 0.05006 0.81541 0.60383 0.0
C657 C 0.02161 0.80798 0.56978 0.0
C658 C 0.04784 0.81327 0.55721 0.0
C659 C 0.07511 0.81915 0.5681 0.0
C660 C 0.07621 0.82035 0.59106 0.0
C661 C 0.04729 0.81358 0.53269 0.0
C662 C 0.06646 0.79376 0.52121 0.0
C663 C 0.02928 0.8342 0.52065 0.0
C664 C 0.00924 0.85628 0.53179 0.0
C665 C 0.0211 0.87744 0.54679 0.0
C666 C 0.00198 0.89803 0.55733 0.0
C667 C 0.97099 0.89782 0.55287 0.0
C668 C 0.95907 0.87708 0.53779 0.0
C669 C 0.9781 0.85642 0.52723 0.0
H670 H 0.95622 0.91378 0.56104 0.0
H671 H 0.1389 0.7125 0.45743 0.0
H672 H 0.43453 0.09087 0.20904 0.0
H673 H 0.48969 0.08556 0.20986 0.0
H674 H 0.49017 0.06883 0.13973 0.0
H675 H 0.4351 0.07503 0.13862 0.0
H676 H 0.51973 0.02257 0.17177 0.0
H677 H 0.5183 0.12779 0.14968 0.0
H678 H 0.50292 0.18108 0.15346 0.0
H679 H 0.54305 0.18458 0.21802 0.0
H680 H 0.55826 0.13114 0.21476 0.0
H681 H 0.6789 0.00971 0.1588 0.0
H682 H 0.6249 0.02009 0.15456 0.0
H683 H 0.6272 0.07633 0.21283 0.0
H684 H 0.68147 0.06744 0.21625 0.0
H685 H 0.59521 0.10333 0.1852 0.0
H686 H 0.595 1.00097 0.21039 0.0
H687 H 0.60855 0.94692 0.2106 0.0
H688 H 0.56978 0.93624 0.14603 0.0
H689 H 0.55633 0.99034 0.14532 0.0
C690 C 0.44646 0.08677 0.19371 0.0
C691 C 0.4305 0.08358 0.17374 0.0
C692 C 0.47792 0.08365 0.19423 0.0
C693 C 0.4939 0.0767 0.17487 0.0
C694 C 0.47818 0.07423 0.15482 0.0
C695 C 0.44677 0.07803 0.1542 0.0
C696 C 0.52676 0.0703 0.17591 0.0
C697 C 0.5364 0.0402 0.17435 0.0
C698 C 0.54817 0.09323 0.18012 0.0
C699 C 0.53912 0.12537 0.18207 0.0
C700 C 0.52357 0.13983 0.16478 0.0
C701 C 0.51495 0.17009 0.1668 0.0
C702 C 0.52193 0.18619 0.18599 0.0
C703 C 0.53762 0.17208 0.20318 0.0
C704 C 0.54627 0.14181 0.20124 0.0
C705 C 0.66777 0.02406 0.17079 0.0
C706 C 0.68436 0.03765 0.18791 0.0
C707 C 0.63682 0.02993 0.16842 0.0
C708 C 0.6216 0.04871 0.18355 0.0
C709 C 0.63823 0.06188 0.20085 0.0
C710 C 0.66926 0.05664 0.20288 0.0
C711 C 0.58863 0.05531 0.18115 0.0
C712 C 0.5788 0.0855 0.18252 0.0
C713 C 0.56691 0.03231 0.17734 0.0
C714 C 0.57495 0.99977 0.17771 0.0
C715 C 0.58957 0.98714 0.19617 0.0
C716 C 0.5972 0.95649 0.19639 0.0
C717 C 0.59011 0.93818 0.17831 0.0
C718 C 0.5753 0.95047 0.16 0.0
C719 C 0.56765 0.98111 0.15969 0.0
H720 H 0.59604 0.91446 0.17852 0.0
H721 H 0.51524 0.20962 0.18753 0.0
H722 H 0.05883 0.43308 0.64721 0.0
H723 H 0.06793 0.48725 0.64312 0.0
H724 H 0.02912 0.50305 0.70742 0.0
H725 H 0.01945 0.44903 0.71152 0.0
H726 H 0.01373 0.5475 0.67901 0.0
H727 H 0.10525 0.49576 0.70064 0.0
H728 H 0.14495 0.45708 0.69637 0.0
H729 H 0.16952 0.4946 0.63349 0.0
H730 H 0.12964 0.53327 0.63724 0.0
H731 H 0.07816 0.68194 0.71465 0.0
H732 H 0.06852 0.62807 0.71085 0.0
H733 H 0.10494 0.6298 0.64481 0.0
H734 H 0.11483 0.68424 0.64849 0.0
H735 H 0.12114 0.57723 0.66936 0.0
H736 H 0.03192 0.63187 0.64946 0.0
H737 H 0.99292 0.67099 0.65466 0.0
H738 H 0.96437 0.62828 0.71481 0.0
H739 H 0.00351 0.58908 0.71013 0.0
C740 C 0.05168 0.44811 0.66033 0.0
C741 C 0.03866 0.43661 0.67981 0.0
C742 C 0.05707 0.47909 0.658 0.0
C743 C 0.04978 0.49917 0.67515 0.0
C744 C 0.03508 0.48799 0.69401 0.0
C745 C 0.02959 0.45703 0.69633 0.0
C746 C 0.05919 0.53141 0.67421 0.0
C747 C 0.03722 0.55396 0.677 0.0
C748 C 0.0898 0.53995 0.67112 0.0
C749 C 0.11427 0.51721 0.66911 0.0
C750 C 0.11902 0.49566 0.68585 0.0
C751 C 0.14153 0.47374 0.68352 0.0
C752 C 0.15966 0.47332 0.66464 0.0
C753 C 0.15541 0.49492 0.64809 0.0
C754 C 0.13287 0.51686 0.65031 0.0
C755 C 0.08448 0.67093 0.69935 0.0
C756 C 0.09691 0.68753 0.68174 0.0
C757 C 0.07891 0.64007 0.69722 0.0
C758 C 0.08545 0.62505 0.6774 0.0
C759 C 0.09957 0.64104 0.66021 0.0
C760 C 0.10523 0.67211 0.66235 0.0
C761 C 0.07573 0.59317 0.67448 0.0
C762 C 0.09761 0.57075 0.67103 0.0
C763 C 0.04504 0.5847 0.67699 0.0
C764 C 0.02079 0.60764 0.67951 0.0
C765 C 0.01741 0.63089 0.66385 0.0
C766 C 0.99529 0.65309 0.66671 0.0
C767 C 0.97624 0.65219 0.68509 0.0
C768 C 0.97916 0.62896 0.70059 0.0
C769 C 0.00128 0.60671 0.69782 0.0
H770 H 0.95919 0.66946 0.6873 0.0
H771 H 0.17705 0.45629 0.66285 0.0
H772 H 0.68811 0.05515 0.80005 0.0
H773 H 0.63346 0.05147 0.80065 0.0
H774 H 0.6288 0.12659 0.84587 0.0
H775 H 0.68431 0.13027 0.84565 0.0
H776 H 0.59027 0.08002 0.85774 0.0
H777 H 0.61059 0.13718 0.79239 0.0
H778 H 0.63602 0.14869 0.75714 0.0
H779 H 0.60221 0.06615 0.72925 0.0
H780 H 0.57692 0.05392 0.76443 0.0
H781 H 0.43017 0.09331 0.8401 0.0
H782 H 0.48441 0.10119 0.84473 0.0
H783 H 0.50228 0.03266 0.79577 0.0
H784 H 0.44801 0.0252 0.79064 0.0
H785 H 0.53376 0.0812 0.78693 0.0
H786 H 0.51603 0.02237 0.85256 0.0
H787 H 0.49118 0.00987 0.88785 0.0
H788 H 0.5201 0.09458 0.91521 0.0
H789 H 0.54479 0.10777 0.87996 0.0
C790 C 0.67568 0.07113 0.81008 0.0
C791 C 0.69076 0.09327 0.82265 0.0
C792 C 0.64427 0.06896 0.81037 0.0
C793 C 0.62693 0.08902 0.82303 0.0
C794 C 0.64175 0.11096 0.83588 0.0
C795 C 0.67344 0.11313 0.83565 0.0
C796 C 0.59338 0.08664 0.82258 0.0
C797 C 0.57778 0.08084 0.84233 0.0
C798 C 0.57715 0.08708 0.80241 0.0
C799 C 0.59201 0.09455 0.78111 0.0
C800 C 0.60872 0.1214 0.77878 0.0
C801 C 0.62309 0.12806 0.75881 0.0
C802 C 0.62077 0.10814 0.74098 0.0
C803 C 0.60399 0.08156 0.74307 0.0
C804 C 0.5896 0.07477 0.76302 0.0
C805 C 0.44561 0.0795 0.83059 0.0
C806 C 0.43468 0.05861 0.81496 0.0
C807 C 0.47671 0.08403 0.83329 0.0
C808 C 0.49757 0.06746 0.82067 0.0
C809 C 0.48668 0.04583 0.80565 0.0
C810 C 0.45561 0.04147 0.8028 0.0
C811 C 0.5306 0.07385 0.82204 0.0
C812 C 0.54612 0.08056 0.80241 0.0
C813 C 0.54667 0.07416 0.84231 0.0
C814 C 0.53198 0.06619 0.86355 0.0
C815 C 0.51689 0.03843 0.86604 0.0
C816 C 0.50287 0.03121 0.88605 0.0
C817 C 0.50399 0.05145 0.90374 0.0
C818 C 0.51921 0.07894 0.90148 0.0
C819 C 0.53324 0.08629 0.8815 0.0
H820 H 0.49311 0.04582 0.91921 0.0
H821 H 0.63193 0.11333 0.72553 0.0
H822 H 0.12011 0.43601 0.3352 0.0
H823 H 0.11769 0.49148 0.33811 0.0
H824 H 0.04272 0.49265 0.29256 0.0
H825 H 0.04481 0.43791 0.28969 0.0
H826 H 0.08706 0.53575 0.2829 0.0
H827 H 0.02952 0.49844 0.34594 0.0
H828 H 0.02415 0.46941 0.38049 0.0
H829 H 0.09448 0.5222 0.4105 0.0
H830 H 0.10056 0.55127 0.37598 0.0
H831 H 0.01285 0.67354 0.28949 0.0
H832 H 0.02366 0.61963 0.29265 0.0
H833 H 0.08817 0.63781 0.34442 0.0
H834 H 0.07702 0.69185 0.34169 0.0
H835 H 0.05769 0.58624 0.35288 0.0
H836 H 0.11236 0.62724 0.29244 0.0
H837 H 0.11976 0.6566 0.25827 0.0
H838 H 0.05939 0.59728 0.22356 0.0
H839 H 0.05115 0.56788 0.25765 0.0
C840 C 0.10325 0.44819 0.32576 0.0
C841 C 0.08256 0.43255 0.31232 0.0
C842 C 0.10183 0.4798 0.32748 0.0
C843 C 0.07994 0.49613 0.31559 0.0
C844 C 0.05979 0.48053 0.30185 0.0
C845 C 0.06094 0.44915 0.30034 0.0
C846 C 0.07723 0.52945 0.31741 0.0
C847 C 0.08055 0.5468 0.29817 0.0
C848 C 0.06971 0.54395 0.3375 0.0
C849 C 0.06574 0.52677 0.35831 0.0
C850 C 0.044 0.5037 0.35985 0.0
C851 C 0.0408 0.48726 0.37944 0.0
C852 C 0.05904 0.49388 0.39766 0.0
C853 C 0.08042 0.51705 0.39636 0.0
C854 C 0.08374 0.53352 0.37679 0.0
C855 C 0.02902 0.66608 0.30178 0.0
C856 C 0.04425 0.68706 0.31519 0.0
C857 C 0.03529 0.63524 0.30351 0.0
C858 C 0.05725 0.62473 0.31842 0.0
C859 C 0.07129 0.6454 0.3327 0.0
C860 C 0.06485 0.67631 0.33111 0.0
C861 C 0.06652 0.59243 0.31815 0.0
C862 C 0.06459 0.57532 0.33765 0.0
C863 C 0.07575 0.57813 0.29833 0.0
C864 C 0.08097 0.59547 0.27767 0.0
C865 C 0.1005 0.62055 0.27756 0.0
C866 C 0.10485 0.63721 0.2582 0.0
C867 C 0.09002 0.62883 0.23876 0.0
C868 C 0.07085 0.60375 0.23864 0.0
C869 C 0.06635 0.58706 0.25797 0.0
H870 H 0.09341 0.64176 0.22379 0.0
H871 H 0.05655 0.48111 0.4128 0.0
H872 H 0.16223 0.33668 0.27872 0.0
H873 H 0.20383 0.30676 0.26332 0.0
H874 H 0.13933 0.25019 0.22955 0.0
H875 H 0.09794 0.27985 0.24505 0.0
H876 H 0.17356 0.22315 0.26542 0.0
H877 H 0.18755 0.28446 0.19968 0.0
H878 H 0.19857 0.33197 0.18001 0.0
H879 H 0.28508 0.33723 0.21198 0.0
H880 H 0.27438 0.28994 0.23209 0.0
H881 H 0.23912 0.10761 0.20732 0.0
H882 H 0.21349 0.15141 0.22177 0.0
H883 H 0.2993 0.19364 0.23587 0.0
H884 H 0.32565 0.14946 0.22017 0.0
H885 H 0.26244 0.23275 0.21605 0.0
H886 H 0.25195 0.16827 0.27792 0.0
H887 H 0.24155 0.12142 0.29857 0.0
H888 H 0.14928 0.12318 0.2767 0.0
H889 H 0.15916 0.16972 0.25556 0.0
C890 C 0.15713 0.31916 0.26679 0.0
C891 C 0.12703 0.3106 0.26287 0.0
C892 C 0.18087 0.30187 0.25821 0.0
C893 C 0.17455 0.27608 0.24556 0.0
C894 C 0.14461 0.27004 0.23929 0.0
C895 C 0.12098 0.28725 0.24787 0.0
C896 C 0.19753 0.2521 0.24289 0.0
C897 C 0.19288 0.22507 0.25447 0.0
C898 C 0.22362 0.25547 0.2297 0.0
C899 C 0.23 0.28387 0.21761 0.0
C900 C 0.20879 0.29592 0.20271 0.0
C901 C 0.21501 0.32276 0.19142 0.0
C902 C 0.24246 0.33767 0.1948 0.0
C903 C 0.26379 0.3257 0.20941 0.0
C904 C 0.25767 0.29886 0.22074 0.0
C905 C 0.25278 0.12598 0.21365 0.0
C906 C 0.28451 0.1251 0.21245 0.0
C907 C 0.23797 0.15104 0.22216 0.0
C908 C 0.25437 0.17575 0.23025 0.0
C909 C 0.28618 0.17472 0.22981 0.0
C910 C 0.3012 0.14943 0.22104 0.0
C911 C 0.23758 0.203 0.23766 0.0
C912 C 0.24343 0.23082 0.22727 0.0
C913 C 0.21261 0.20053 0.25221 0.0
C914 C 0.2064 0.17253 0.26505 0.0
C915 C 0.22948 0.15859 0.27738 0.0
C916 C 0.22365 0.13208 0.28919 0.0
C917 C 0.19477 0.11935 0.28894 0.0
C918 C 0.17162 0.13311 0.2769 0.0
C919 C 0.17733 0.15959 0.26501 0.0
H920 H 0.19032 0.09879 0.29806 0.0
H921 H 0.24724 0.35845 0.18605 0.0
H922 H 0.01672 0.30087 0.73532 0.0
H923 H 0.97953 0.27601 0.75934 0.0
H924 H 0.9109 0.28889 0.70948 0.0
H925 H 0.94741 0.31507 0.68631 0.0
H926 H 0.88448 0.28876 0.74715 0.0
H927 H 0.961 0.22585 0.7126 0.0
H928 H 0.01135 0.20414 0.70518 0.0
H929 H 0.02072 0.18002 0.77338 0.0
H930 H 0.97119 0.20272 0.78157 0.0
H931 H 0.79977 0.14985 0.77282 0.0
H932 H 0.82662 0.19176 0.75441 0.0
H933 H 0.89378 0.19101 0.80607 0.0
H934 H 0.86863 0.14938 0.82364 0.0
H935 H 0.91859 0.18544 0.76644 0.0
H936 H 0.84306 0.24818 0.80146 0.0
H937 H 0.79095 0.26503 0.80898 0.0
H938 H 0.77826 0.28505 0.74018 0.0
H939 H 0.83019 0.2679 0.7322 0.0
C940 C 0.99335 0.29963 0.73005 0.0
C941 C 0.98489 0.30946 0.7089 0.0
C942 C 0.9722 0.28501 0.74358 0.0
C943 C 0.94263 0.27956 0.73587 0.0
C944 C 0.93357 0.29238 0.71574 0.0
C945 C 0.95451 0.30725 0.70243 0.0
C946 C 0.92217 0.25779 0.74714 0.0
C947 C 0.89198 0.26614 0.75134 0.0
C948 C 0.93174 0.22814 0.75259 0.0
C949 C 0.96253 0.21651 0.74777 0.0
C950 C 0.97409 0.21659 0.72613 0.0
C951 C 0.00255 0.20421 0.7218 0.0
C952 C 0.01946 0.19128 0.73884 0.0
C953 C 0.00794 0.19065 0.76028 0.0
C954 C 0.97974 0.20337 0.76481 0.0
C955 C 0.82003 0.15898 0.78033 0.0
C956 C 0.83188 0.14612 0.79976 0.0
C957 C 0.83526 0.18296 0.76987 0.0
C958 C 0.86224 0.19446 0.7789 0.0
C959 C 0.8731 0.1825 0.79875 0.0
C960 C 0.85838 0.15861 0.80889 0.0
C961 C 0.88142 0.21671 0.76711 0.0
C962 C 0.91126 0.20821 0.76247 0.0
C963 C 0.87153 0.24602 0.76139 0.0
C964 C 0.84039 0.25644 0.7662 0.0
C965 C 0.82907 0.25592 0.7879 0.0
C966 C 0.79958 0.26558 0.79225 0.0
C967 C 0.78127 0.27602 0.77506 0.0
C968 C 0.79245 0.27691 0.75348 0.0
C969 C 0.82191 0.26724 0.74904 0.0
H970 H 0.75845 0.28349 0.77846 0.0
H971 H 0.04132 0.18141 0.7354 0.0
H972 H 0.95435 0.78038 0.29781 0.0
H973 H 0.90759 0.80262 0.2829 0.0
H974 H 0.95866 0.87826 0.25808 0.0
H975 H 0.00504 0.85627 0.27291 0.0
H976 H 0.90783 0.88141 0.29789 0.0
H977 H 0.93475 0.85306 0.22098 0.0
H978 H 0.94425 0.81469 0.19226 0.0
H979 H 0.85706 0.77545 0.20439 0.0
H980 H 0.84727 0.8134 0.23342 0.0
H981 H 0.84999 0.00403 0.24111 0.0
H982 H 0.87369 0.96154 0.2598 0.0
H983 H 0.79909 0.90421 0.24082 0.0
H984 H 0.77566 0.94713 0.22151 0.0
H985 H 0.84938 0.87982 0.22799 0.0
H986 H 0.81706 0.91836 0.29671 0.0
H987 H 0.8069 0.95575 0.32594 0.0
H988 H 0.90189 0.97389 0.3318 0.0
H989 H 0.91264 0.93708 0.30233 0.0
C990 C 0.95571 0.80078 0.28796 0.0
C991 C 0.98317 0.8165 0.28615 0.0
C992 C 0.92902 0.81361 0.27969 0.0
C993 C 0.92983 0.84201 0.26942 0.0
C994 C 0.95771 0.85618 0.26578 0.0
C995 C 0.9842 0.8435 0.27406 0.0
C996 C 0.90203 0.85992 0.26633 0.0
C997 C 0.89482 0.88113 0.28269 0.0
C998 C 0.8845 0.85845 0.24693 0.0
C999 C 0.8905 0.8357 0.22958 0.0
C1000 C 0.91779 0.83601 0.21772 0.0
C1001 C 0.92318 0.81441 0.20133 0.0
C1002 C 0.90133 0.79255 0.19657 0.0
C1003 C 0.87401 0.79232 0.20814 0.0
C1004 C 0.86853 0.81387 0.22455 0.0
C1005 C 0.83797 0.98273 0.24191 0.0
C1006 C 0.81079 0.97886 0.23038 0.0
C1007 C 0.85153 0.95834 0.25256 0.0
C1008 C 0.8381 0.92958 0.25196 0.0
C1009 C 0.80978 0.92619 0.24166 0.0
C1010 C 0.79618 0.95074 0.23092 0.0
C1011 C 0.85601 0.90288 0.2591 0.0
C1012 C 0.86148 0.87981 0.24358 0.0
C1013 C 0.87193 0.90262 0.27941 0.0
C1014 C 0.86563 0.92492 0.2972 0.0
C1015 C 0.83578 0.93046 0.3041 0.0
C1016 C 0.82992 0.95157 0.32074 0.0
C1017 C 0.85372 0.96721 0.3307 0.0
C1018 C 0.88346 0.96176 0.32407 0.0
C1019 C 0.88945 0.94073 0.30741 0.0
H1020 H 0.84913 0.98353 0.34359 0.0
H1021 H 0.90553 0.77587 0.18387 0.0
H1022 H 0.12155 0.85232 0.7436 0.0
H1023 H 0.16448 0.88036 0.75869 0.0
H1024 H 0.22567 0.8259 0.72004 0.0
H1025 H 0.18245 0.79736 0.70522 0.0
H1026 H 0.2169 0.86778 0.78118 0.0
H1027 H 0.27798 0.87794 0.69855 0.0
H1028 H 0.26827 0.87414 0.65846 0.0
H1029 H 0.17604 0.90051 0.66873 0.0
H1030 H 0.18515 0.90454 0.70879 0.0
H1031 H 0.33488 0.97467 0.80117 0.0
H1032 H 0.31342 0.92802 0.78564 0.0
H1033 H 0.24788 0.9808 0.74962 0.0
H1034 H 0.26873 0.02713 0.7656 0.0
H1035 H 0.26866 0.93151 0.7254 0.0
H1036 H 0.22653 0.95387 0.79796 0.0
H1037 H 0.22442 0.96114 0.83826 0.0
H1038 H 0.26897 0.87615 0.8483 0.0
H1039 H 0.27113 0.86819 0.80794 0.0
C1040 C 0.14428 0.84549 0.73915 0.0
C1041 C 0.14892 0.82242 0.72367 0.0
C1042 C 0.16876 0.86162 0.7476 0.0
C1043 C 0.19824 0.85538 0.74033 0.0
C1044 C 0.2031 0.8311 0.72581 0.0
C1045 C 0.17851 0.81462 0.71758 0.0
C1046 C 0.223 0.87634 0.74651 0.0
C1047 C 0.22882 0.8812 0.76897 0.0
C1048 C 0.23819 0.89418 0.73059 0.0
C1049 C 0.23219 0.89116 0.70664 0.0
C1050 C 0.25561 0.88285 0.69222 0.0
C1051 C 0.2502 0.8807 0.66951 0.0
C1052 C 0.22152 0.88711 0.66105 0.0
C1053 C 0.19819 0.89559 0.67529 0.0
C1054 C 0.20342 0.89765 0.69801 0.0
C1055 C 0.31676 0.97625 0.78917 0.0
C1056 C 0.30375 0.00437 0.78416 0.0
C1057 C 0.30427 0.94963 0.78056 0.0
C1058 C 0.27893 0.95094 0.7666 0.0
C1059 C 0.26752 0.97926 0.76027 0.0
C1060 C 0.27958 0.00573 0.76921 0.0
C1061 C 0.26227 0.9232 0.76014 0.0
C1062 C 0.2579 0.91714 0.7376 0.0
C1063 C 0.24792 0.90459 0.776 0.0
C1064 C 0.24947 0.9107 0.79999 0.0
C1065 C 0.2363 0.93696 0.80875 0.0
C1066 C 0.23478 0.94104 0.8316 0.0
C1067 C 0.24649 0.91915 0.84586 0.0
C1068 C 0.25988 0.8931 0.83726 0.0
C1069 C 0.26124 0.88877 0.8144 0.0
H1070 H 0.24534 0.92246 0.86355 0.0
H1071 H 0.21733 0.88543 0.64347 0.0
H1072 H 0.85319 0.03152 0.7724 0.0
H1073 H 0.88936 0.99939 0.75379 0.0
H1074 H 0.928 0.97389 0.81648 0.0
H1075 H 0.8915 0.00676 0.83564 0.0
H1076 H 0.97187 0.98415 0.78403 0.0
H1077 H 0.88264 0.92447 0.79138 0.0
H1078 H 0.82813 0.91334 0.78945 0.0
H1079 H 0.82902 0.92881 0.71942 0.0
H1080 H 0.88362 0.94007 0.72095 0.0
H1081 H 0.04221 0.85055 0.7433 0.0
H1082 H 0.01047 0.88654 0.76295 0.0
H1083 H 0.97632 0.92032 0.70097 0.0
H1084 H 0.00865 0.8843 0.68092 0.0
H1085 H 0.93092 0.90558 0.73369 0.0
H1086 H 0.02234 0.96276 0.72705 0.0
H1087 H 0.07725 0.97115 0.73006 0.0
H1088 H 0.07258 0.95834 0.80029 0.0
H1089 H 0.01767 0.9493 0.79766 0.0
C1090 C 0.8693 0.01924 0.78244 0.0
C1091 C 0.86908 0.02157 0.80567 0.0
C1092 C 0.89002 1.00074 0.77166 0.0
C1093 C 0.91107 0.98379 0.7837 0.0
C1094 C 0.9118 0.98668 0.80685 0.0
C1095 C 0.8909 0.00539 0.81778 0.0
C1096 C 0.93154 0.96267 0.77177 0.0
C1097 C 0.96295 0.96666 0.7733 0.0
C1098 C 0.91993 0.94022 0.75739 0.0
C1099 C 0.88715 0.93335 0.75632 0.0
C1100 C 0.87117 0.92568 0.77559 0.0
C1101 C 0.84028 0.91929 0.77456 0.0
C1102 C 0.82508 0.9205 0.75434 0.0
C1103 C 0.84082 0.92792 0.73508 0.0
C1104 C 0.87176 0.93421 0.736 0.0
C1105 C 0.02805 0.86564 0.73373 0.0
C1106 C 0.02789 0.86446 0.71048 0.0
C1107 C 0.01001 0.88632 0.74506 0.0
C1108 C 0.99115 0.90618 0.73345 0.0
C1109 C 0.99081 0.90518 0.71023 0.0
C1110 C 0.00932 0.88471 0.6988 0.0
C1111 C 0.97119 0.9272 0.74581 0.0
C1112 C 0.93985 0.9231 0.74439 0.0
C1113 C 0.98294 0.94926 0.76044 0.0
C1114 C 0.01591 0.95506 0.76213 0.0
C1115 C 0.03305 0.96147 0.74312 0.0
C1116 C 0.06417 0.96638 0.74476 0.0
C1117 C 0.07841 0.96521 0.76535 0.0
C1118 C 0.06152 0.9592 0.78435 0.0
C1119 C 0.03039 0.9542 0.78279 0.0
H1120 H 0.10252 0.96902 0.76659 0.0
H1121 H 0.80113 0.91563 0.75359 0.0
H1122 H 0.22418 0.00326 0.17957 0.0
H1123 H 0.18698 0.97674 0.20258 0.0
H1124 H 0.25361 0.96629 0.25398 0.0
H1125 H 0.29033 0.99356 0.23172 0.0
H1126 H 0.21851 0.91291 0.2448 0.0
H1127 H 0.20797 0.01871 0.26048 0.0
H1128 H 0.20008 0.07236 0.25126 0.0
H1129 H 0.11221 0.05161 0.22524 0.0
H1130 H 0.11992 0.99762 0.23377 0.0
H1131 H 0.12927 0.87142 0.33596 0.0
H1132 H 0.16316 0.90417 0.3144 0.0
H1133 H 0.09379 0.91511 0.26494 0.0
H1134 H 0.0602 0.88209 0.2863 0.0
H1135 H 0.12923 0.96903 0.27283 0.0
H1136 H 0.14051 0.86323 0.25595 0.0
H1137 H 0.14794 0.8097 0.26582 0.0
H1138 H 0.23409 0.83099 0.29452 0.0
H1139 H 0.22695 0.88481 0.28514 0.0
C1140 C 0.23101 0.99507 0.19567 0.0
C1141 C 0.26032 1.00064 0.20375 0.0
C1142 C 0.2097 0.98 0.20881 0.0
C1143 C 0.21755 0.96973 0.23002 0.0
C1144 C 0.24711 0.97401 0.23766 0.0
C1145 C 0.26813 0.98958 0.22482 0.0
C1146 C 0.19486 0.95545 0.24471 0.0
C1147 C 0.19914 0.92526 0.25106 0.0
C1148 C 0.16942 0.97152 0.25266 0.0
C1149 C 0.16471 0.004 0.24748 0.0
C1150 C 0.18712 0.02549 0.25253 0.0
C1151 C 0.18265 0.05599 0.24747 0.0
C1152 C 0.15568 0.06539 0.23763 0.0
C1153 C 0.13313 0.04428 0.23281 0.0
C1154 C 0.13755 0.01371 0.23773 0.0
C1155 C 0.12103 0.88176 0.32089 0.0
C1156 C 0.09218 0.87473 0.31283 0.0
C1157 C 0.14036 0.90025 0.30854 0.0
C1158 C 0.13098 0.91195 0.28803 0.0
C1159 C 0.10138 0.9065 0.28076 0.0
C1160 C 0.08225 0.88771 0.29294 0.0
C1161 C 0.15302 0.92658 0.27296 0.0
C1162 C 0.14859 0.95673 0.26651 0.0
C1163 C 0.17836 0.91053 0.26485 0.0
C1164 C 0.18308 0.87809 0.27002 0.0
C1165 C 0.16097 0.85653 0.26448 0.0
C1166 C 0.16513 0.82614 0.26996 0.0
C1167 C 0.19145 0.81696 0.2808 0.0
C1168 C 0.21371 0.83815 0.28612 0.0
C1169 C 0.20963 0.8686 0.28072 0.0
H1170 H 0.1946 0.79342 0.28507 0.0
H1171 H 0.15223 0.08903 0.23379 0.0
H1172 H 0.05901 0.22168 0.69132 0.0
H1173 H 0.08865 0.18707 0.71471 0.0
H1174 H 0.1683 0.24077 0.7031 0.0
H1175 H 0.13866 0.27564 0.68034 0.0
H1176 H 0.17516 0.17315 0.70166 0.0
H1177 H 0.13034 0.25538 0.74353 0.0
H1178 H 0.08778 0.28458 0.75849 0.0
H1179 H 0.05802 0.20732 0.79523 0.0
H1180 H 0.09887 0.1767 0.77898 0.0
H1181 H 0.28368 0.14298 0.78003 0.0
H1182 H 0.24684 0.1685 0.75712 0.0
H1183 H 0.17452 0.12704 0.79401 0.0
H1184 H 0.21177 0.10277 0.81834 0.0
H1185 H 0.15802 0.18155 0.78246 0.0
H1186 H 0.19848 0.0987 0.74292 0.0
H1187 H 0.2388 0.06556 0.7287 0.0
H1188 H 0.27387 0.13865 0.68976 0.0
H1189 H 0.23407 0.17242 0.70404 0.0
C1190 C 0.08294 0.22565 0.69343 0.0
C1191 C 0.09654 0.25136 0.68414 0.0
C1192 C 0.09977 0.20604 0.70688 0.0
C1193 C 0.13055 0.2116 0.71085 0.0
C1194 C 0.14456 0.23613 0.70032 0.0
C1195 C 0.12762 0.25607 0.68736 0.0
C1196 C 0.14796 0.19339 0.72709 0.0
C1197 C 0.17146 0.17498 0.71932 0.0
C1198 C 0.14236 0.19499 0.75013 0.0
C1199 C 0.11736 0.21343 0.75951 0.0
C1200 C 0.11424 0.24424 0.75422 0.0
C1201 C 0.09035 0.2611 0.76294 0.0
C1202 C 0.06998 0.24775 0.77759 0.0
C1203 C 0.0735 0.2175 0.78357 0.0
C1204 C 0.09685 0.20029 0.77443 0.0
C1205 C 0.26002 0.13965 0.78373 0.0
C1206 C 0.25085 0.12061 0.80109 0.0
C1207 C 0.23884 0.15403 0.77031 0.0
C1208 C 0.2078 0.14894 0.77324 0.0
C1209 C 0.19835 0.13108 0.7912 0.0
C1210 C 0.21969 0.11718 0.8051 0.0
C1211 C 0.18573 0.16177 0.75707 0.0
C1212 C 0.1614 0.17918 0.76479 0.0
C1213 C 0.18997 0.15865 0.73394 0.0
C1214 C 0.21334 0.13815 0.72465 0.0
C1215 C 0.21483 0.10774 0.73136 0.0
C1216 C 0.23762 0.08885 0.72331 0.0
C1217 C 0.25891 0.1 0.70836 0.0
C1218 C 0.25736 0.13004 0.70134 0.0
C1219 C 0.23466 0.14907 0.70939 0.0
H1220 H 0.27659 0.08537 0.70219 0.0
H1221 H 0.05164 0.26092 0.78445 0.0
H1222 H 0.03481 0.21424 0.31178 0.0
H1223 H 0.00549 0.17455 0.2931 0.0
H1224 H 0.9714 0.24037 0.24683 0.0
H1225 H 0.99991 0.27972 0.26523 0.0
H1226 H 0.92706 0.2053 0.26045 0.0
H1227 H 0.0284 0.1917 0.23372 0.0
H1228 H 0.08319 0.18257 0.23697 0.0
H1229 H 0.06605 0.09624 0.26677 0.0
H1230 H 0.01108 0.10512 0.26413 0.0
H1231 H 0.86837 0.11718 0.1742 0.0
H1232 H 0.90595 0.14945 0.19262 0.0
H1233 H 0.92013 0.08055 0.24193 0.0
H1234 H 0.88221 0.04859 0.22374 0.0
H1235 H 0.9751 0.11398 0.22838 0.0
H1236 H 0.87337 0.12898 0.25529 0.0
H1237 H 0.81882 0.13842 0.25072 0.0
H1238 H 0.83782 0.22301 0.21899 0.0
H1239 H 0.89259 0.21389 0.22308 0.0
C1240 C 0.02087 0.22024 0.29774 0.0
C1241 C 0.01973 0.25028 0.29013 0.0
C1242 C 0.00428 0.19751 0.28698 0.0
C1243 C 0.98636 0.20443 0.26844 0.0
C1244 C 0.98494 0.23442 0.2611 0.0
C1245 C 0.0014 0.25698 0.27173 0.0
C1246 C 0.96885 0.18086 0.25642 0.0
C1247 C 0.93772 0.18549 0.25333 0.0
C1248 C 0.98254 0.15466 0.24739 0.0
C1249 C 0.01559 0.14925 0.24898 0.0
C1250 C 0.03629 0.1709 0.24118 0.0
C1251 C 0.06739 0.16575 0.24289 0.0
C1252 C 0.07809 0.13888 0.25213 0.0
C1253 C 0.05772 0.11708 0.25967 0.0
C1254 C 0.02658 0.12217 0.25808 0.0
C1255 C 0.88038 0.1086 0.18849 0.0
C1256 C 0.87288 0.08038 0.19746 0.0
C1257 C 0.90166 0.12703 0.19907 0.0
C1258 C 0.91578 0.11737 0.21867 0.0
C1259 C 0.90971 0.08831 0.22676 0.0
C1260 C 0.88811 0.07011 0.21638 0.0
C1261 C 0.93367 0.13892 0.23219 0.0
C1262 C 0.96464 0.1338 0.23562 0.0
C1263 C 0.91998 0.16484 0.24148 0.0
C1264 C 0.88708 0.17063 0.23932 0.0
C1265 C 0.86593 0.1495 0.24721 0.0
C1266 C 0.83498 0.15482 0.24475 0.0
C1267 C 0.82486 0.18128 0.23458 0.0
C1268 C 0.8457 0.20253 0.22688 0.0
C1269 C 0.8767 0.19731 0.22928 0.0
H1270 H 0.80087 0.18529 0.23265 0.0
H1271 H 0.10217 0.1349 0.25336 0.0
loop_
_geom_bond_atom_site_label_1
_geom_bond_atom_site_label_2
_geom_bond_distance
_geom_bond_site_symmetry_2
_ccdc_geom_bond_type
Co0 O2 2.143 . S
Co0 O8 2.074 . S
Co0 O11 2.093 . S
Co0 O24 2.097 . S
Co0 N41 2.151 . S
Co0 N49 2.214 . S
Co1 O2 2.160 . S
Co1 O7 2.058 . S
Co1 O17 2.057 . S
Co1 O32 2.037 . S
Co1 N36 2.145 . S
Co1 N57 2.257 . S
O2 Co0 2.143 . S
O2 Co1 2.160 . S
C3 O4 1.278 . S
C3 O11 1.224 . S
O4 C3 1.278 . S
C5 O6 1.245 . S
C5 O17 1.232 . S
O6 C5 1.245 . S
O7 Co1 2.058 . S
O7 C33 1.269 . S
O8 Co0 2.074 . S
O8 C33 1.257 . S
H9 C34 0.930 . S
H10 C40 0.930 . S
O11 Co0 2.093 . S
O11 C3 1.224 . S
H12 C44 0.929 . S
H13 C46 0.930 . S
H14 C47 0.930 . S
H15 C45 0.929 . S
H16 C48 0.928 . S
O17 Co1 2.057 . S
O17 C5 1.232 . S
H18 C37 0.929 . S
H19 C38 0.929 . S
H20 C50 0.931 . S
H21 C42 0.929 . S
H22 C51 0.930 . S
H23 C43 0.931 . S
O24 Co0 2.097 . S
O24 C52 1.214 . S
H25 C53 0.929 . S
H26 C54 0.929 . S
H27 C55 0.930 . S
H28 C56 0.929 . S
H29 C58 0.930 . S
H30 C35 0.930 . S
H31 C39 0.930 . S
O32 Co1 2.037 . S
O32 C52 1.234 . S
C33 O7 1.269 . S
C33 O8 1.257 . S
C34 H9 0.930 . S
C34 C37 1.388 . S
C34 C39 1.418 . S
C35 H30 0.930 . S
C35 C38 1.404 . S
C35 C39 1.353 . S
N36 Co1 2.145 . S
N36 C37 1.397 . S
N36 C38 1.334 . S
C37 H18 0.929 . S
C37 C34 1.388 . S
C37 N36 1.397 . S
C38 H19 0.929 . S
C38 C35 1.404 . S
C38 N36 1.334 . S
C39 H31 0.930 . S
C39 C34 1.418 . S
C39 C35 1.353 . S
C40 H10 0.930 . S
C40 N41 1.330 . S
C40 C42 1.446 . S
N41 Co0 2.151 . S
N41 C40 1.330 . S
N41 C45 1.418 . S
C42 H21 0.929 . S
C42 C40 1.446 . S
C42 C43 1.332 . S
C43 H23 0.931 . S
C43 C42 1.332 . S
C43 C44 1.267 . S
C44 H12 0.929 . S
C44 C43 1.267 . S
C44 C45 1.251 . S
C45 H15 0.929 . S
C45 N41 1.418 . S
C45 C44 1.251 . S
C46 H13 0.930 . S
C46 C48 1.406 . S
C46 C51 1.261 . S
C47 H14 0.930 . S
C47 N49 1.325 . S
C47 C50 1.357 . S
C48 H16 0.928 . S
C48 C46 1.406 . S
C48 N49 1.261 . S
N49 Co0 2.214 . S
N49 C47 1.325 . S
N49 C48 1.261 . S
C50 H20 0.931 . S
C50 C47 1.357 . S
C50 C51 1.312 . S
C51 H22 0.930 . S
C51 C46 1.261 . S
C51 C50 1.312 . S
C52 O24 1.214 . S
C52 O32 1.234 . S
C53 H25 0.929 . S
C53 C56 1.391 . S
C53 C58 1.391 1_565 S
C54 H26 0.929 . S
C54 C55 1.390 . S
C54 N57 1.391 1_565 S
C55 H27 0.930 . S
C55 C54 1.390 . S
C55 C56 1.392 . S
C56 H28 0.929 . S
C56 C53 1.391 . S
C56 C55 1.392 . S
N57 Co1 2.257 . S
N57 C54 1.391 1_545 S
N57 C58 1.388 . S
C58 H29 0.930 . S
C58 C53 1.391 1_545 S
C58 N57 1.388 . S
Co59 O61 2.143 . S
Co59 O67 2.074 . S
Co59 O70 2.093 . S
Co59 O83 2.097 . S
Co59 N100 2.151 1_455 S
Co59 N108 2.214 . S
Co60 O61 2.160 . S
Co60 O66 2.058 . S
Co60 O76 2.057 . S
Co60 O91 2.037 . S
Co60 N95 2.145 . S
Co60 N116 2.257 . S
O61 Co59 2.143 . S
O61 Co60 2.160 . S
C62 O63 1.278 . S
C62 O70 1.224 . S
O63 C62 1.278 . S
C64 O65 1.245 . S
C64 O76 1.232 . S
O65 C64 1.245 . S
O66 Co60 2.058 . S
O66 C92 1.269 1_455 S
O67 Co59 2.074 . S
O67 C92 1.257 1_455 S
H68 C93 0.930 . S
H69 C99 0.930 . S
O70 Co59 2.093 . S
O70 C62 1.224 . S
H71 C103 0.929 . S
H72 C105 0.930 . S
H73 C106 0.930 . S
H74 C104 0.929 . S
H75 C107 0.928 1_655 S
O76 Co60 2.057 . S
O76 C64 1.232 . S
H77 C96 0.929 . S
H78 C97 0.929 . S
H79 C109 0.931 . S
H80 C101 0.929 . S
H81 C110 0.930 . S
H82 C102 0.931 . S
O83 Co59 2.097 . S
O83 C111 1.214 . S
H84 C112 0.929 . S
H85 C113 0.929 . S
H86 C114 0.930 . S
H87 C115 0.929 . S
H88 C117 0.930 . S
H89 C94 0.930 . S
H90 C98 0.930 . S
O91 Co60 2.037 . S
O91 C111 1.234 . S
C92 O66 1.269 1_655 S
C92 O67 1.257 1_655 S
C93 H68 0.930 . S
C93 C96 1.388 . S
C93 C98 1.418 . S
C94 H89 0.930 . S
C94 C97 1.404 . S
C94 C98 1.353 . S
N95 Co60 2.145 . S
N95 C96 1.397 . S
N95 C97 1.334 . S
C96 H77 0.929 . S
C96 C93 1.388 . S
C96 N95 1.397 . S
C97 H78 0.929 . S
C97 C94 1.404 . S
C97 N95 1.334 . S
C98 H90 0.930 . S
C98 C93 1.418 . S
C98 C94 1.353 . S
C99 H69 0.930 . S
C99 N100 1.330 . S
C99 C101 1.446 . S
N100 Co59 2.151 1_655 S
N100 C99 1.330 . S
N100 C104 1.418 . S
C101 H80 0.929 . S
C101 C99 1.446 . S
C101 C102 1.332 . S
C102 H82 0.931 . S
C102 C101 1.332 . S
C102 C103 1.267 . S
C103 H71 0.929 . S
C103 C102 1.267 . S
C103 C104 1.251 . S
C104 H74 0.929 . S
C104 N100 1.418 . S
C104 C103 1.251 . S
C105 H72 0.930 . S
C105 C107 1.406 1_655 S
C105 C110 1.261 . S
C106 H73 0.930 . S
C106 N108 1.325 . S
C106 C109 1.357 . S
C107 H75 0.928 1_455 S
C107 C105 1.406 1_455 S
C107 N108 1.261 . S
N108 Co59 2.214 . S
N108 C106 1.325 . S
N108 C107 1.261 . S
C109 H79 0.931 . S
C109 C106 1.357 . S
C109 C110 1.312 1_455 S
C110 H81 0.930 . S
C110 C105 1.261 . S
C110 C109 1.312 1_655 S
C111 O83 1.214 . S
C111 O91 1.234 . S
C112 H84 0.929 . S
C112 C115 1.391 . S
C112 C117 1.391 . S
C113 H85 0.929 . S
C113 C114 1.390 . S
C113 N116 1.391 . S
C114 H86 0.930 . S
C114 C113 1.390 . S
C114 C115 1.392 . S
C115 H87 0.929 . S
C115 C112 1.391 . S
C115 C114 1.392 . S
N116 Co60 2.257 . S
N116 C113 1.391 . S
N116 C117 1.388 . S
C117 H88 0.930 . S
C117 C112 1.391 . S
C117 N116 1.388 . S
Co118 O120 2.143 . S
Co118 O126 2.074 . S
Co118 O129 2.093 . S
Co118 O142 2.097 . S
Co118 N159 2.151 1_545 S
Co118 N167 2.214 . S
Co119 O120 2.160 . S
Co119 O125 2.058 . S
Co119 O135 2.057 . S
Co119 O150 2.037 . S
Co119 N154 2.145 . S
Co119 N175 2.257 . S
O120 Co118 2.143 . S
O120 Co119 2.160 . S
C121 O122 1.278 . S
C121 O129 1.224 . S
O122 C121 1.278 . S
C123 O124 1.245 . S
C123 O135 1.232 . S
O124 C123 1.245 . S
O125 Co119 2.058 . S
O125 C151 1.269 1_545 S
O126 Co118 2.074 . S
O126 C151 1.257 1_545 S
H127 C152 0.930 . S
H128 C158 0.930 . S
O129 Co118 2.093 . S
O129 C121 1.224 . S
H130 C162 0.929 . S
H131 C164 0.930 . S
H132 C165 0.930 . S
H133 C163 0.929 . S
H134 C166 0.928 1_565 S
O135 Co119 2.057 . S
O135 C123 1.232 . S
H136 C155 0.929 . S
H137 C156 0.929 . S
H138 C168 0.931 . S
H139 C160 0.929 . S
H140 C169 0.930 . S
H141 C161 0.931 . S
O142 Co118 2.097 . S
O142 C170 1.214 . S
H143 C171 0.929 . S
H144 C172 0.929 . S
H145 C173 0.930 . S
H146 C174 0.929 . S
H147 C176 0.930 . S
H148 C153 0.930 . S
H149 C157 0.930 . S
O150 Co119 2.037 . S
O150 C170 1.234 . S
C151 O125 1.269 1_565 S
C151 O126 1.257 1_565 S
C152 H127 0.930 . S
C152 C155 1.388 . S
C152 C157 1.418 . S
C153 H148 0.930 . S
C153 C156 1.404 . S
C153 C157 1.353 . S
N154 Co119 2.145 . S
N154 C155 1.397 . S
N154 C156 1.334 . S
C155 H136 0.929 . S
C155 C152 1.388 . S
C155 N154 1.397 . S
C156 H137 0.929 . S
C156 C153 1.404 . S
C156 N154 1.334 . S
C157 H149 0.930 . S
C157 C152 1.418 . S
C157 C153 1.353 . S
C158 H128 0.930 . S
C158 N159 1.330 . S
C158 C160 1.446 . S
N159 Co118 2.151 1_565 S
N159 C158 1.330 . S
N159 C163 1.418 . S
C160 H139 0.929 . S
C160 C158 1.446 . S
C160 C161 1.332 . S
C161 H141 0.931 . S
C161 C160 1.332 . S
C161 C162 1.267 . S
C162 H130 0.929 . S
C162 C161 1.267 . S
C162 C163 1.251 . S
C163 H133 0.929 . S
C163 N159 1.418 . S
C163 C162 1.251 . S
C164 H131 0.930 . S
C164 C166 1.406 1_565 S
C164 C169 1.261 . S
C165 H132 0.930 . S
C165 N167 1.325 . S
C165 C168 1.357 . S
C166 H134 0.928 1_545 S
C166 C164 1.406 1_545 S
C166 N167 1.261 . S
N167 Co118 2.214 . S
N167 C165 1.325 . S
N167 C166 1.261 . S
C168 H138 0.931 . S
C168 C165 1.357 . S
C168 C169 1.312 1_545 S
C169 H140 0.930 . S
C169 C164 1.261 . S
C169 C168 1.312 1_565 S
C170 O142 1.214 . S
C170 O150 1.234 . S
C171 H143 0.929 . S
C171 C174 1.391 . S
C171 C176 1.391 . S
C172 H144 0.929 . S
C172 C173 1.390 . S
C172 N175 1.391 . S
C173 H145 0.930 . S
C173 C172 1.390 . S
C173 C174 1.392 . S
C174 H146 0.929 . S
C174 C171 1.391 . S
C174 C173 1.392 . S
N175 Co119 2.257 . S
N175 C172 1.391 . S
N175 C176 1.388 . S
C176 H147 0.930 . S
C176 C171 1.391 . S
C176 N175 1.388 . S
Co177 O179 2.143 . S
Co177 O185 2.074 . S
Co177 O188 2.093 . S
Co177 O201 2.097 . S
Co177 N218 2.151 . S
Co177 N226 2.214 . S
Co178 O179 2.160 . S
Co178 O184 2.058 . S
Co178 O194 2.057 . S
Co178 O209 2.037 . S
Co178 N213 2.145 . S
Co178 N234 2.257 . S
O179 Co177 2.143 . S
O179 Co178 2.160 . S
C180 O181 1.278 . S
C180 O188 1.224 . S
O181 C180 1.278 . S
C182 O183 1.245 . S
C182 O194 1.232 . S
O183 C182 1.245 . S
O184 Co178 2.058 . S
O184 C210 1.269 . S
O185 Co177 2.074 . S
O185 C210 1.257 . S
H186 C211 0.930 . S
H187 C217 0.930 . S
O188 Co177 2.093 . S
O188 C180 1.224 . S
H189 C221 0.929 . S
H190 C223 0.930 . S
H191 C224 0.930 . S
H192 C222 0.929 . S
H193 C225 0.928 . S
O194 Co178 2.057 . S
O194 C182 1.232 . S
H195 C214 0.929 . S
H196 C215 0.929 . S
H197 C227 0.931 . S
H198 C219 0.929 . S
H199 C228 0.930 . S
H200 C220 0.931 . S
O201 Co177 2.097 . S
O201 C229 1.214 . S
H202 C230 0.929 . S
H203 C231 0.929 . S
H204 C232 0.930 . S
H205 C233 0.929 . S
H206 C235 0.930 . S
H207 C212 0.930 . S
H208 C216 0.930 . S
O209 Co178 2.037 . S
O209 C229 1.234 . S
C210 O184 1.269 . S
C210 O185 1.257 . S
C211 H186 0.930 . S
C211 C214 1.388 . S
C211 C216 1.418 . S
C212 H207 0.930 . S
C212 C215 1.404 . S
C212 C216 1.353 . S
N213 Co178 2.145 . S
N213 C214 1.397 . S
N213 C215 1.334 . S
C214 H195 0.929 . S
C214 C211 1.388 . S
C214 N213 1.397 . S
C215 H196 0.929 . S
C215 C212 1.404 . S
C215 N213 1.334 . S
C216 H208 0.930 . S
C216 C211 1.418 . S
C216 C212 1.353 . S
C217 H187 0.930 . S
C217 N218 1.330 . S
C217 C219 1.446 . S
N218 Co177 2.151 . S
N218 C217 1.330 . S
N218 C222 1.418 . S
C219 H198 0.929 . S
C219 C217 1.446 . S
C219 C220 1.332 . S
C220 H200 0.931 . S
C220 C219 1.332 . S
C220 C221 1.267 . S
C221 H189 0.929 . S
C221 C220 1.267 . S
C221 C222 1.251 . S
C222 H192 0.929 . S
C222 N218 1.418 . S
C222 C221 1.251 . S
C223 H190 0.930 . S
C223 C225 1.406 . S
C223 C228 1.261 . S
C224 H191 0.930 . S
C224 N226 1.325 . S
C224 C227 1.357 . S
C225 H193 0.928 . S
C225 C223 1.406 . S
C225 N226 1.261 . S
N226 Co177 2.214 . S
N226 C224 1.325 . S
N226 C225 1.261 . S
C227 H197 0.931 . S
C227 C224 1.357 . S
C227 C228 1.312 . S
C228 H199 0.930 . S
C228 C223 1.261 . S
C228 C227 1.312 . S
C229 O201 1.214 . S
C229 O209 1.234 . S
C230 H202 0.929 . S
C230 C233 1.391 . S
C230 C235 1.391 1_655 S
C231 H203 0.929 . S
C231 C232 1.390 . S
C231 N234 1.391 1_655 S
C232 H204 0.930 . S
C232 C231 1.390 . S
C232 C233 1.392 . S
C233 H205 0.929 . S
C233 C230 1.391 . S
C233 C232 1.392 . S
N234 Co178 2.257 . S
N234 C231 1.391 1_455 S
N234 C235 1.388 . S
C235 H206 0.930 . S
C235 C230 1.391 1_455 S
C235 N234 1.388 . S
Co236 O238 2.143 . S
Co236 O244 2.074 . S
Co236 O247 2.093 . S
Co236 O260 2.097 . S
Co236 N277 2.151 1_545 S
Co236 N285 2.214 . S
Co237 O238 2.160 . S
Co237 O243 2.058 . S
Co237 O253 2.057 . S
Co237 O268 2.037 . S
Co237 N272 2.145 . S
Co237 N293 2.257 . S
O238 Co236 2.143 . S
O238 Co237 2.160 . S
C239 O240 1.278 . S
C239 O247 1.224 . S
O240 C239 1.278 . S
C241 O242 1.245 . S
C241 O253 1.232 . S
O242 C241 1.245 . S
O243 Co237 2.058 . S
O243 C269 1.269 1_545 S
O244 Co236 2.074 . S
O244 C269 1.257 1_545 S
H245 C270 0.930 . S
H246 C276 0.930 . S
O247 Co236 2.093 . S
O247 C239 1.224 . S
H248 C280 0.929 . S
H249 C282 0.930 . S
H250 C283 0.930 . S
H251 C281 0.929 . S
H252 C284 0.928 1_565 S
O253 Co237 2.057 . S
O253 C241 1.232 . S
H254 C273 0.929 . S
H255 C274 0.929 . S
H256 C286 0.931 . S
H257 C278 0.929 . S
H258 C287 0.930 . S
H259 C279 0.931 . S
O260 Co236 2.097 . S
O260 C288 1.214 . S
H261 C289 0.929 . S
H262 C290 0.929 . S
H263 C291 0.930 . S
H264 C292 0.929 . S
H265 C294 0.930 . S
H266 C271 0.930 . S
H267 C275 0.930 . S
O268 Co237 2.037 . S
O268 C288 1.234 . S
C269 O243 1.269 1_565 S
C269 O244 1.257 1_565 S
C270 H245 0.930 . S
C270 C273 1.388 . S
C270 C275 1.418 . S
C271 H266 0.930 . S
C271 C274 1.404 . S
C271 C275 1.353 . S
N272 Co237 2.145 . S
N272 C273 1.397 . S
N272 C274 1.334 . S
C273 H254 0.929 . S
C273 C270 1.388 . S
C273 N272 1.397 . S
C274 H255 0.929 . S
C274 C271 1.404 . S
C274 N272 1.334 . S
C275 H267 0.930 . S
C275 C270 1.418 . S
C275 C271 1.353 . S
C276 H246 0.930 . S
C276 N277 1.330 . S
C276 C278 1.446 . S
N277 Co236 2.151 1_565 S
N277 C276 1.330 . S
N277 C281 1.418 . S
C278 H257 0.929 . S
C278 C276 1.446 . S
C278 C279 1.332 . S
C279 H259 0.931 . S
C279 C278 1.332 . S
C279 C280 1.267 . S
C280 H248 0.929 . S
C280 C279 1.267 . S
C280 C281 1.251 . S
C281 H251 0.929 . S
C281 N277 1.418 . S
C281 C280 1.251 . S
C282 H249 0.930 . S
C282 C284 1.406 1_565 S
C282 C287 1.261 . S
C283 H250 0.930 . S
C283 N285 1.325 . S
C283 C286 1.357 . S
C284 H252 0.928 1_545 S
C284 C282 1.406 1_545 S
C284 N285 1.261 . S
N285 Co236 2.214 . S
N285 C283 1.325 . S
N285 C284 1.261 . S
C286 H256 0.931 . S
C286 C283 1.357 . S
C286 C287 1.312 1_545 S
C287 H258 0.930 . S
C287 C282 1.261 . S
C287 C286 1.312 1_565 S
C288 O260 1.214 . S
C288 O268 1.234 . S
C289 H261 0.929 . S
C289 C292 1.391 . S
C289 C294 1.391 . S
C290 H262 0.929 . S
C290 C291 1.390 . S
C290 N293 1.391 . S
C291 H263 0.930 . S
C291 C290 1.390 . S
C291 C292 1.392 . S
C292 H264 0.929 . S
C292 C289 1.391 . S
C292 C291 1.392 . S
N293 Co237 2.257 . S
N293 C290 1.391 . S
N293 C294 1.388 . S
C294 H265 0.930 . S
C294 C289 1.391 . S
C294 N293 1.388 . S
Co295 O297 2.143 . S
Co295 O303 2.074 . S
Co295 O306 2.093 . S
Co295 O319 2.097 . S
Co295 N336 2.151 . S
Co295 N344 2.214 . S
Co296 O297 2.160 . S
Co296 O302 2.058 . S
Co296 O312 2.057 . S
Co296 O327 2.037 . S
Co296 N331 2.145 . S
Co296 N352 2.257 . S
O297 Co295 2.143 . S
O297 Co296 2.160 . S
C298 O299 1.278 . S
C298 O306 1.224 . S
O299 C298 1.278 . S
C300 O301 1.245 . S
C300 O312 1.232 . S
O301 C300 1.245 . S
O302 Co296 2.058 . S
O302 C328 1.269 . S
O303 Co295 2.074 . S
O303 C328 1.257 . S
H304 C329 0.930 . S
H305 C335 0.930 . S
O306 Co295 2.093 . S
O306 C298 1.224 . S
H307 C339 0.929 . S
H308 C341 0.930 . S
H309 C342 0.930 . S
H310 C340 0.929 . S
H311 C343 0.928 . S
O312 Co296 2.057 . S
O312 C300 1.232 . S
H313 C332 0.929 . S
H314 C333 0.929 . S
H315 C345 0.931 . S
H316 C337 0.929 . S
H317 C346 0.930 . S
H318 C338 0.931 . S
O319 Co295 2.097 . S
O319 C347 1.214 . S
H320 C348 0.929 . S
H321 C349 0.929 . S
H322 C350 0.930 . S
H323 C351 0.929 . S
H324 C353 0.930 . S
H325 C330 0.930 . S
H326 C334 0.930 . S
O327 Co296 2.037 . S
O327 C347 1.234 . S
C328 O302 1.269 . S
C328 O303 1.257 . S
C329 H304 0.930 . S
C329 C332 1.388 . S
C329 C334 1.418 . S
C330 H325 0.930 . S
C330 C333 1.404 . S
C330 C334 1.353 . S
N331 Co296 2.145 . S
N331 C332 1.397 . S
N331 C333 1.334 . S
C332 H313 0.929 . S
C332 C329 1.388 . S
C332 N331 1.397 . S
C333 H314 0.929 . S
C333 C330 1.404 . S
C333 N331 1.334 . S
C334 H326 0.930 . S
C334 C329 1.418 . S
C334 C330 1.353 . S
C335 H305 0.930 . S
C335 N336 1.330 . S
C335 C337 1.446 . S
N336 Co295 2.151 . S
N336 C335 1.330 . S
N336 C340 1.418 . S
C337 H316 0.929 . S
C337 C335 1.446 . S
C337 C338 1.332 . S
C338 H318 0.931 . S
C338 C337 1.332 . S
C338 C339 1.267 . S
C339 H307 0.929 . S
C339 C338 1.267 . S
C339 C340 1.251 . S
C340 H310 0.929 . S
C340 N336 1.418 . S
C340 C339 1.251 . S
C341 H308 0.930 . S
C341 C343 1.406 . S
C341 C346 1.261 . S
C342 H309 0.930 . S
C342 N344 1.325 . S
C342 C345 1.357 . S
C343 H311 0.928 . S
C343 C341 1.406 . S
C343 N344 1.261 . S
N344 Co295 2.214 . S
N344 C342 1.325 . S
N344 C343 1.261 . S
C345 H315 0.931 . S
C345 C342 1.357 . S
C345 C346 1.312 . S
C346 H317 0.930 . S
C346 C341 1.261 . S
C346 C345 1.312 . S
C347 O319 1.214 . S
C347 O327 1.234 . S
C348 H320 0.929 . S
C348 C351 1.391 . S
C348 C353 1.391 1_655 S
C349 H321 0.929 . S
C349 C350 1.390 . S
C349 N352 1.391 1_655 S
C350 H322 0.930 . S
C350 C349 1.390 . S
C350 C351 1.392 . S
C351 H323 0.929 . S
C351 C348 1.391 . S
C351 C350 1.392 . S
N352 Co296 2.257 . S
N352 C349 1.391 1_455 S
N352 C353 1.388 . S
C353 H324 0.930 . S
C353 C348 1.391 1_455 S
C353 N352 1.388 . S
Co354 O356 2.143 . S
Co354 O362 2.074 . S
Co354 O365 2.093 . S
Co354 O378 2.097 . S
Co354 N395 2.151 . S
Co354 N403 2.214 . S
Co355 O356 2.160 . S
Co355 O361 2.058 . S
Co355 O371 2.057 . S
Co355 O386 2.037 . S
Co355 N390 2.145 . S
Co355 N411 2.257 . S
O356 Co354 2.143 . S
O356 Co355 2.160 . S
C357 O358 1.278 . S
C357 O365 1.224 . S
O358 C357 1.278 . S
C359 O360 1.245 . S
C359 O371 1.232 . S
O360 C359 1.245 . S
O361 Co355 2.058 . S
O361 C387 1.269 . S
O362 Co354 2.074 . S
O362 C387 1.257 . S
H363 C388 0.930 . S
H364 C394 0.930 . S
O365 Co354 2.093 . S
O365 C357 1.224 . S
H366 C398 0.929 . S
H367 C400 0.930 . S
H368 C401 0.930 . S
H369 C399 0.929 . S
H370 C402 0.928 . S
O371 Co355 2.057 . S
O371 C359 1.232 . S
H372 C391 0.929 . S
H373 C392 0.929 . S
H374 C404 0.931 . S
H375 C396 0.929 . S
H376 C405 0.930 . S
H377 C397 0.931 . S
O378 Co354 2.097 . S
O378 C406 1.214 . S
H379 C407 0.929 . S
H380 C408 0.929 . S
H381 C409 0.930 . S
H382 C410 0.929 . S
H383 C412 0.930 . S
H384 C389 0.930 . S
H385 C393 0.930 . S
O386 Co355 2.037 . S
O386 C406 1.234 . S
C387 O361 1.269 . S
C387 O362 1.257 . S
C388 H363 0.930 . S
C388 C391 1.388 . S
C388 C393 1.418 . S
C389 H384 0.930 . S
C389 C392 1.404 . S
C389 C393 1.353 . S
N390 Co355 2.145 . S
N390 C391 1.397 . S
N390 C392 1.334 . S
C391 H372 0.929 . S
C391 C388 1.388 . S
C391 N390 1.397 . S
C392 H373 0.929 . S
C392 C389 1.404 . S
C392 N390 1.334 . S
C393 H385 0.930 . S
C393 C388 1.418 . S
C393 C389 1.353 . S
C394 H364 0.930 . S
C394 N395 1.330 . S
C394 C396 1.446 . S
N395 Co354 2.151 . S
N395 C394 1.330 . S
N395 C399 1.418 . S
C396 H375 0.929 . S
C396 C394 1.446 . S
C396 C397 1.332 . S
C397 H377 0.931 . S
C397 C396 1.332 . S
C397 C398 1.267 . S
C398 H366 0.929 . S
C398 C397 1.267 . S
C398 C399 1.251 . S
C399 H369 0.929 . S
C399 N395 1.418 . S
C399 C398 1.251 . S
C400 H367 0.930 . S
C400 C402 1.406 . S
C400 C405 1.261 . S
C401 H368 0.930 . S
C401 N403 1.325 . S
C401 C404 1.357 . S
C402 H370 0.928 . S
C402 C400 1.406 . S
C402 N403 1.261 . S
N403 Co354 2.214 . S
N403 C401 1.325 . S
N403 C402 1.261 . S
C404 H374 0.931 . S
C404 C401 1.357 . S
C404 C405 1.312 . S
C405 H376 0.930 . S
C405 C400 1.261 . S
C405 C404 1.312 . S
C406 O378 1.214 . S
C406 O386 1.234 . S
C407 H379 0.929 . S
C407 C410 1.391 . S
C407 C412 1.391 1_565 S
C408 H380 0.929 . S
C408 C409 1.390 . S
C408 N411 1.391 1_565 S
C409 H381 0.930 . S
C409 C408 1.390 . S
C409 C410 1.392 . S
C410 H382 0.929 . S
C410 C407 1.391 . S
C410 C409 1.392 . S
N411 Co355 2.257 . S
N411 C408 1.391 1_545 S
N411 C412 1.388 . S
C412 H383 0.930 . S
C412 C407 1.391 1_545 S
C412 N411 1.388 . S
Co413 O415 2.143 . S
Co413 O421 2.074 . S
Co413 O424 2.093 . S
Co413 O437 2.097 . S
Co413 N454 2.151 1_455 S
Co413 N462 2.214 . S
Co414 O415 2.160 . S
Co414 O420 2.058 . S
Co414 O430 2.057 . S
Co414 O445 2.037 . S
Co414 N449 2.145 . S
Co414 N470 2.257 . S
O415 Co413 2.143 . S
O415 Co414 2.160 . S
C416 O417 1.278 . S
C416 O424 1.224 . S
O417 C416 1.278 . S
C418 O419 1.245 . S
C418 O430 1.232 . S
O419 C418 1.245 . S
O420 Co414 2.058 . S
O420 C446 1.269 1_455 S
O421 Co413 2.074 . S
O421 C446 1.257 1_455 S
H422 C447 0.930 . S
H423 C453 0.930 . S
O424 Co413 2.093 . S
O424 C416 1.224 . S
H425 C457 0.929 . S
H426 C459 0.930 . S
H427 C460 0.930 . S
H428 C458 0.929 . S
H429 C461 0.928 1_655 S
O430 Co414 2.057 . S
O430 C418 1.232 . S
H431 C450 0.929 . S
H432 C451 0.929 . S
H433 C463 0.931 . S
H434 C455 0.929 . S
H435 C464 0.930 . S
H436 C456 0.931 . S
O437 Co413 2.097 . S
O437 C465 1.214 . S
H438 C466 0.929 . S
H439 C467 0.929 . S
H440 C468 0.930 . S
H441 C469 0.929 . S
H442 C471 0.930 . S
H443 C448 0.930 . S
H444 C452 0.930 . S
O445 Co414 2.037 . S
O445 C465 1.234 . S
C446 O420 1.269 1_655 S
C446 O421 1.257 1_655 S
C447 H422 0.930 . S
C447 C450 1.388 . S
C447 C452 1.418 . S
C448 H443 0.930 . S
C448 C451 1.404 . S
C448 C452 1.353 . S
N449 Co414 2.145 . S
N449 C450 1.397 . S
N449 C451 1.334 . S
C450 H431 0.929 . S
C450 C447 1.388 . S
C450 N449 1.397 . S
C451 H432 0.929 . S
C451 C448 1.404 . S
C451 N449 1.334 . S
C452 H444 0.930 . S
C452 C447 1.418 . S
C452 C448 1.353 . S
C453 H423 0.930 . S
C453 N454 1.330 . S
C453 C455 1.446 . S
N454 Co413 2.151 1_655 S
N454 C453 1.330 . S
N454 C458 1.418 . S
C455 H434 0.929 . S
C455 C453 1.446 . S
C455 C456 1.332 . S
C456 H436 0.931 . S
C456 C455 1.332 . S
C456 C457 1.267 . S
C457 H425 0.929 . S
C457 C456 1.267 . S
C457 C458 1.251 . S
C458 H428 0.929 . S
C458 N454 1.418 . S
C458 C457 1.251 . S
C459 H426 0.930 . S
C459 C461 1.406 1_655 S
C459 C464 1.261 . S
C460 H427 0.930 . S
C460 N462 1.325 . S
C460 C463 1.357 . S
C461 H429 0.928 1_455 S
C461 C459 1.406 1_455 S
C461 N462 1.261 . S
N462 Co413 2.214 . S
N462 C460 1.325 . S
N462 C461 1.261 . S
C463 H433 0.931 . S
C463 C460 1.357 . S
C463 C464 1.312 1_455 S
C464 H435 0.930 . S
C464 C459 1.261 . S
C464 C463 1.312 1_655 S
C465 O437 1.214 . S
C465 O445 1.234 . S
C466 H438 0.929 . S
C466 C469 1.391 . S
C466 C471 1.391 . S
C467 H439 0.929 . S
C467 C468 1.390 . S
C467 N470 1.391 . S
C468 H440 0.930 . S
C468 C467 1.390 . S
C468 C469 1.392 . S
C469 H441 0.929 . S
C469 C466 1.391 . S
C469 C468 1.392 . S
N470 Co414 2.257 . S
N470 C467 1.391 . S
N470 C471 1.388 . S
C471 H442 0.930 . S
C471 C466 1.391 . S
C471 N470 1.388 . S
H472 C490 0.951 . S
H473 C492 0.951 . S
H474 C494 0.950 . S
H475 C495 0.950 . S
H476 C497 0.950 . S
H477 C500 0.950 . S
H478 C501 0.950 . S
H479 C503 0.950 . S
H480 C504 0.950 . S
H481 C505 0.951 . S
H482 C507 0.951 . S
H483 C509 0.950 . S
H484 C510 0.950 . S
H485 C512 0.950 . S
H486 C515 0.950 . S
H487 C516 0.950 . S
H488 C518 0.950 . S
H489 C519 0.950 . S
C490 H472 0.951 . S
C490 C491 1.366 . S
C490 C492 1.388 . S
C491 C490 1.366 . S
C491 C495 1.385 . S
C492 H473 0.951 . S
C492 C490 1.388 . S
C492 C493 1.366 . S
C493 C492 1.366 . S
C493 C494 1.414 . S
C493 C496 1.499 . S
C494 H474 0.950 . S
C494 C493 1.414 . S
C494 C495 1.374 . S
C495 H475 0.950 . S
C495 C491 1.385 . S
C495 C494 1.374 . S
C496 C493 1.499 . S
C496 C497 1.373 . S
C496 C498 1.389 . S
C497 H476 0.950 . S
C497 C496 1.373 . S
C497 C513 1.377 1_554 S
C498 C496 1.389 . S
C498 C499 1.524 . S
C498 C512 1.377 1_554 S
C499 C498 1.524 . S
C499 C500 1.397 . S
C499 C504 1.363 . S
C500 H477 0.950 . S
C500 C499 1.397 . S
C500 C501 1.334 . S
C501 H478 0.950 . S
C501 C500 1.334 . S
C501 C502 1.287 . S
C502 C501 1.287 . S
C502 C503 1.524 . S
C502 H521 0.913 . S
C503 H479 0.950 . S
C503 C502 1.524 . S
C503 C504 1.415 . S
C504 H480 0.950 . S
C504 C499 1.363 . S
C504 C503 1.415 . S
C505 H481 0.951 . S
C505 C506 1.366 . S
C505 C507 1.388 . S
C506 C505 1.366 . S
C506 C510 1.385 . S
C507 H482 0.951 . S
C507 C505 1.388 . S
C507 C508 1.366 . S
C508 C507 1.366 . S
C508 C509 1.414 . S
C508 C511 1.499 . S
C509 H483 0.950 . S
C509 C508 1.414 . S
C509 C510 1.374 . S
C510 H484 0.950 . S
C510 C506 1.385 . S
C510 C509 1.374 . S
C511 C508 1.499 . S
C511 C512 1.373 . S
C511 C513 1.389 . S
C512 H485 0.950 . S
C512 C498 1.377 1_556 S
C512 C511 1.373 . S
C513 C497 1.377 1_556 S
C513 C511 1.389 . S
C513 C514 1.524 . S
C514 C513 1.524 . S
C514 C515 1.397 . S
C514 C519 1.363 1_545 S
C515 H486 0.950 . S
C515 C514 1.397 . S
C515 C516 1.334 1_545 S
C516 H487 0.950 . S
C516 C515 1.334 1_565 S
C516 C517 1.287 . S
C517 C516 1.287 . S
C517 C518 1.524 . S
C517 H520 0.999 . S
C518 H488 0.950 . S
C518 C517 1.524 . S
C518 C519 1.415 . S
C519 H489 0.950 . S
C519 C514 1.363 1_565 S
C519 C518 1.415 . S
H520 C517 0.999 . S
H521 C502 0.913 . S
H522 C540 0.951 . S
H523 C542 0.951 . S
H524 C544 0.950 . S
H525 C545 0.950 . S
H526 C547 0.950 . S
H527 C550 0.950 . S
H528 C551 0.950 . S
H529 C553 0.950 . S
H530 C554 0.950 . S
H531 C555 0.951 . S
H532 C557 0.951 . S
H533 C559 0.950 . S
H534 C560 0.950 . S
H535 C562 0.950 . S
H536 C565 0.950 . S
H537 C566 0.950 . S
H538 C568 0.950 . S
H539 C569 0.950 . S
C540 H522 0.951 . S
C540 C541 1.366 . S
C540 C542 1.388 . S
C541 C540 1.366 . S
C541 C545 1.385 . S
C542 H523 0.951 . S
C542 C540 1.388 . S
C542 C543 1.366 . S
C543 C542 1.366 . S
C543 C544 1.414 . S
C543 C546 1.499 . S
C544 H524 0.950 . S
C544 C543 1.414 . S
C544 C545 1.374 . S
C545 H525 0.950 . S
C545 C541 1.385 . S
C545 C544 1.374 . S
C546 C543 1.499 . S
C546 C547 1.373 . S
C546 C548 1.389 . S
C547 H526 0.950 . S
C547 C546 1.373 . S
C547 C563 1.377 . S
C548 C546 1.389 . S
C548 C549 1.524 . S
C548 C562 1.377 . S
C549 C548 1.524 . S
C549 C550 1.397 . S
C549 C554 1.363 . S
C550 H527 0.950 . S
C550 C549 1.397 . S
C550 C551 1.334 . S
C551 H528 0.950 . S
C551 C550 1.334 . S
C551 C552 1.287 . S
C552 C551 1.287 . S
C552 C553 1.524 . S
C552 H571 0.913 . S
C553 H529 0.950 . S
C553 C552 1.524 . S
C553 C554 1.415 . S
C554 H530 0.950 . S
C554 C549 1.363 . S
C554 C553 1.415 . S
C555 H531 0.951 . S
C555 C556 1.366 . S
C555 C557 1.388 . S
C556 C555 1.366 . S
C556 C560 1.385 . S
C557 H532 0.951 . S
C557 C555 1.388 . S
C557 C558 1.366 . S
C558 C557 1.366 . S
C558 C559 1.414 . S
C558 C561 1.499 . S
C559 H533 0.950 . S
C559 C558 1.414 . S
C559 C560 1.374 . S
C560 H534 0.950 . S
C560 C556 1.385 . S
C560 C559 1.374 . S
C561 C558 1.499 . S
C561 C562 1.373 . S
C561 C563 1.389 . S
C562 H535 0.950 . S
C562 C548 1.377 . S
C562 C561 1.373 . S
C563 C547 1.377 . S
C563 C561 1.389 . S
C563 C564 1.524 . S
C564 C563 1.524 . S
C564 C565 1.397 . S
C564 C569 1.363 . S
C565 H536 0.950 . S
C565 C564 1.397 . S
C565 C566 1.334 . S
C566 H537 0.950 . S
C566 C565 1.334 . S
C566 C567 1.287 . S
C567 C566 1.287 . S
C567 C568 1.524 . S
C567 H570 0.999 . S
C568 H538 0.950 . S
C568 C567 1.524 . S
C568 C569 1.415 . S
C569 H539 0.950 . S
C569 C564 1.363 . S
C569 C568 1.415 . S
H570 C567 0.999 . S
H571 C552 0.913 . S
H572 C590 0.951 . S
H573 C592 0.951 . S
H574 C594 0.950 . S
H575 C595 0.950 . S
H576 C597 0.950 . S
H577 C600 0.950 . S
H578 C601 0.950 . S
H579 C603 0.950 . S
H580 C604 0.950 . S
H581 C605 0.951 . S
H582 C607 0.951 . S
H583 C609 0.950 . S
H584 C610 0.950 . S
H585 C612 0.950 . S
H586 C615 0.950 . S
H587 C616 0.950 . S
H588 C618 0.916 1_565 S
H589 C619 0.950 1_565 S
C590 H572 0.951 . S
C590 C591 1.366 . S
C590 C592 1.388 . S
C591 C590 1.366 . S
C591 C595 1.385 . S
C592 H573 0.951 . S
C592 C590 1.388 . S
C592 C593 1.366 . S
C593 C592 1.366 . S
C593 C594 1.414 . S
C593 C596 1.499 . S
C594 H574 0.950 . S
C594 C593 1.414 . S
C594 C595 1.374 . S
C595 H575 0.950 . S
C595 C591 1.385 . S
C595 C594 1.374 . S
C596 C593 1.499 . S
C596 C597 1.373 . S
C596 C598 1.389 . S
C597 H576 0.950 . S
C597 C596 1.373 . S
C597 C613 1.377 1_556 S
C598 C596 1.389 . S
C598 C599 1.524 . S
C598 C612 1.377 1_556 S
C599 C598 1.524 . S
C599 C600 1.397 . S
C599 C604 1.363 . S
C600 H577 0.950 . S
C600 C599 1.397 . S
C600 C601 1.334 . S
C601 H578 0.950 . S
C601 C600 1.334 . S
C601 C602 1.287 . S
C602 C601 1.287 . S
C602 C603 1.524 . S
C602 H621 0.913 . S
C603 H579 0.950 . S
C603 C602 1.524 . S
C603 C604 1.415 . S
C604 H580 0.950 . S
C604 C599 1.363 . S
C604 C603 1.415 . S
C605 H581 0.951 . S
C605 C606 1.366 . S
C605 C607 1.388 . S
C606 C605 1.366 . S
C606 C610 1.385 . S
C607 H582 0.951 . S
C607 C605 1.388 . S
C607 C608 1.366 . S
C608 C607 1.366 . S
C608 C609 1.414 . S
C608 C611 1.499 . S
C609 H583 0.950 . S
C609 C608 1.414 . S
C609 C610 1.374 . S
C610 H584 0.950 . S
C610 C606 1.385 . S
C610 C609 1.374 . S
C611 C608 1.499 . S
C611 C612 1.373 . S
C611 C613 1.389 . S
C612 H585 0.950 . S
C612 C598 1.377 1_554 S
C612 C611 1.373 . S
C613 C597 1.377 1_554 S
C613 C611 1.389 . S
C613 C614 1.524 . S
C614 C613 1.524 . S
C614 C615 1.397 . S
C614 C619 1.363 . S
C615 H586 0.950 . S
C615 C614 1.397 . S
C615 C616 1.334 . S
C616 H587 0.950 . S
C616 C615 1.334 . S
C616 C617 1.287 . S
C617 C616 1.287 . S
C617 C618 1.552 . S
C617 H620 0.999 . S
C618 H588 0.916 1_545 S
C618 C617 1.552 . S
C618 C619 1.426 . S
C619 H589 0.950 1_545 S
C619 C614 1.363 . S
C619 C618 1.426 . S
H620 C617 0.999 . S
H621 C602 0.913 . S
H622 C640 0.951 . S
H623 C642 0.951 . S
H624 C644 0.950 . S
H625 C645 0.950 . S
H626 C647 0.950 . S
H627 C650 0.950 . S
H628 C651 0.950 . S
H629 C653 0.950 . S
H630 C654 0.950 . S
H631 C655 0.951 . S
H632 C657 0.951 . S
H633 C659 0.950 . S
H634 C660 0.950 . S
H635 C662 0.950 . S
H636 C665 0.950 . S
H637 C666 0.950 . S
H638 C668 0.950 . S
H639 C669 0.950 . S
C640 H622 0.951 . S
C640 C641 1.366 . S
C640 C642 1.388 . S
C641 C640 1.366 . S
C641 C645 1.385 . S
C642 H623 0.951 . S
C642 C640 1.388 . S
C642 C643 1.366 . S
C643 C642 1.366 . S
C643 C644 1.414 . S
C643 C646 1.499 . S
C644 H624 0.950 . S
C644 C643 1.414 . S
C644 C645 1.374 . S
C645 H625 0.950 . S
C645 C641 1.385 . S
C645 C644 1.374 . S
C646 C643 1.499 . S
C646 C647 1.373 . S
C646 C648 1.389 . S
C647 H626 0.950 . S
C647 C646 1.373 . S
C647 C663 1.377 . S
C648 C646 1.389 . S
C648 C649 1.524 . S
C648 C662 1.377 . S
C649 C648 1.524 . S
C649 C650 1.397 . S
C649 C654 1.363 . S
C650 H627 0.950 . S
C650 C649 1.397 . S
C650 C651 1.334 . S
C651 H628 0.950 . S
C651 C650 1.334 . S
C651 C652 1.287 . S
C652 C651 1.287 . S
C652 C653 1.524 . S
C652 H671 0.913 . S
C653 H629 0.950 . S
C653 C652 1.524 . S
C653 C654 1.415 . S
C654 H630 0.950 . S
C654 C649 1.363 . S
C654 C653 1.415 . S
C655 H631 0.951 . S
C655 C656 1.366 . S
C655 C657 1.388 . S
C656 C655 1.366 . S
C656 C660 1.385 . S
C657 H632 0.951 . S
C657 C655 1.388 . S
C657 C658 1.366 . S
C658 C657 1.366 . S
C658 C659 1.414 . S
C658 C661 1.499 . S
C659 H633 0.950 . S
C659 C658 1.414 . S
C659 C660 1.374 . S
C660 H634 0.950 . S
C660 C656 1.385 . S
C660 C659 1.374 . S
C661 C658 1.499 . S
C661 C662 1.373 . S
C661 C663 1.389 . S
C662 H635 0.950 . S
C662 C648 1.377 . S
C662 C661 1.373 . S
C663 C647 1.377 . S
C663 C661 1.389 . S
C663 C664 1.524 . S
C664 C663 1.524 . S
C664 C665 1.397 . S
C664 C669 1.363 1_455 S
C665 H636 0.950 . S
C665 C664 1.397 . S
C665 C666 1.334 1_455 S
C666 H637 0.950 . S
C666 C665 1.334 1_655 S
C666 C667 1.287 . S
C667 C666 1.287 . S
C667 C668 1.524 . S
C667 H670 0.999 . S
C668 H638 0.950 . S
C668 C667 1.524 . S
C668 C669 1.415 . S
C669 H639 0.950 . S
C669 C664 1.363 1_655 S
C669 C668 1.415 . S
H670 C667 0.999 . S
H671 C652 0.913 . S
H672 C690 0.951 . S
H673 C692 0.951 . S
H674 C694 0.950 . S
H675 C695 0.950 . S
H676 C697 0.950 . S
H677 C700 0.950 . S
H678 C701 0.950 . S
H679 C703 0.950 . S
H680 C704 0.950 . S
H681 C705 0.951 1_565 S
H682 C707 0.951 . S
H683 C709 0.950 . S
H684 C710 0.950 . S
H685 C712 0.950 . S
H686 C715 0.950 1_545 S
H687 C716 0.950 . S
H688 C718 0.950 . S
H689 C719 0.950 . S
C690 H672 0.951 . S
C690 C691 1.366 . S
C690 C692 1.388 . S
C691 C690 1.366 . S
C691 C695 1.385 . S
C692 H673 0.951 . S
C692 C690 1.388 . S
C692 C693 1.366 . S
C693 C692 1.366 . S
C693 C694 1.414 . S
C693 C696 1.499 . S
C694 H674 0.950 . S
C694 C693 1.414 . S
C694 C695 1.374 . S
C695 H675 0.950 . S
C695 C691 1.385 . S
C695 C694 1.374 . S
C696 C693 1.499 . S
C696 C697 1.373 . S
C696 C698 1.389 . S
C697 H676 0.950 . S
C697 C696 1.373 . S
C697 C713 1.377 . S
C698 C696 1.389 . S
C698 C699 1.524 . S
C698 C712 1.377 . S
C699 C698 1.524 . S
C699 C700 1.397 . S
C699 C704 1.363 . S
C700 H677 0.950 . S
C700 C699 1.397 . S
C700 C701 1.334 . S
C701 H678 0.950 . S
C701 C700 1.334 . S
C701 C702 1.287 . S
C702 C701 1.287 . S
C702 C703 1.524 . S
C702 H721 0.913 . S
C703 H679 0.950 . S
C703 C702 1.524 . S
C703 C704 1.415 . S
C704 H680 0.950 . S
C704 C699 1.363 . S
C704 C703 1.415 . S
C705 H681 0.951 1_545 S
C705 C706 1.366 . S
C705 C707 1.388 . S
C706 C705 1.366 . S
C706 C710 1.385 . S
C707 H682 0.951 . S
C707 C705 1.388 . S
C707 C708 1.366 . S
C708 C707 1.366 . S
C708 C709 1.414 . S
C708 C711 1.499 . S
C709 H683 0.950 . S
C709 C708 1.414 . S
C709 C710 1.374 . S
C710 H684 0.950 . S
C710 C706 1.385 . S
C710 C709 1.374 . S
C711 C708 1.499 . S
C711 C712 1.373 . S
C711 C713 1.389 . S
C712 H685 0.950 . S
C712 C698 1.377 . S
C712 C711 1.373 . S
C713 C697 1.377 . S
C713 C711 1.389 . S
C713 C714 1.524 1_545 S
C714 C713 1.524 1_565 S
C714 C715 1.397 . S
C714 C719 1.363 . S
C715 H686 0.950 1_565 S
C715 C714 1.397 . S
C715 C716 1.334 . S
C716 H687 0.950 . S
C716 C715 1.334 . S
C716 C717 1.287 . S
C717 C716 1.287 . S
C717 C718 1.524 . S
C717 H720 0.999 . S
C718 H688 0.950 . S
C718 C717 1.524 . S
C718 C719 1.415 . S
C719 H689 0.950 . S
C719 C714 1.363 . S
C719 C718 1.415 . S
H720 C717 0.999 . S
H721 C702 0.913 . S
H722 C740 0.951 . S
H723 C742 0.951 . S
H724 C744 0.950 . S
H725 C745 0.960 . S
H726 C747 0.950 . S
H727 C750 0.950 . S
H728 C751 0.950 . S
H729 C753 0.950 . S
H730 C754 0.950 . S
H731 C755 0.951 . S
H732 C757 0.951 . S
H733 C759 0.950 . S
H734 C760 0.950 . S
H735 C762 0.950 . S
H736 C765 0.950 . S
H737 C766 0.950 . S
H738 C768 0.950 . S
H739 C769 0.950 . S
C740 H722 0.951 . S
C740 C741 1.366 . S
C740 C742 1.388 . S
C741 C740 1.366 . S
C741 C745 1.385 . S
C742 H723 0.951 . S
C742 C740 1.388 . S
C742 C743 1.366 . S
C743 C742 1.366 . S
C743 C744 1.414 . S
C743 C746 1.499 . S
C744 H724 0.950 . S
C744 C743 1.414 . S
C744 C745 1.374 . S
C745 H725 0.960 . S
C745 C741 1.385 . S
C745 C744 1.374 . S
C746 C743 1.499 . S
C746 C747 1.373 . S
C746 C748 1.389 . S
C747 H726 0.950 . S
C747 C746 1.373 . S
C747 C763 1.377 . S
C748 C746 1.389 . S
C748 C749 1.524 . S
C748 C762 1.377 . S
C749 C748 1.524 . S
C749 C750 1.397 . S
C749 C754 1.363 . S
C750 H727 0.950 . S
C750 C749 1.397 . S
C750 C751 1.334 . S
C751 H728 0.950 . S
C751 C750 1.334 . S
C751 C752 1.287 . S
C752 C751 1.287 . S
C752 C753 1.524 . S
C752 H771 0.913 . S
C753 H729 0.950 . S
C753 C752 1.524 . S
C753 C754 1.415 . S
C754 H730 0.950 . S
C754 C749 1.363 . S
C754 C753 1.415 . S
C755 H731 0.951 . S
C755 C756 1.366 . S
C755 C757 1.388 . S
C756 C755 1.366 . S
C756 C760 1.385 . S
C757 H732 0.951 . S
C757 C755 1.388 . S
C757 C758 1.366 . S
C758 C757 1.366 . S
C758 C759 1.414 . S
C758 C761 1.499 . S
C759 H733 0.950 . S
C759 C758 1.414 . S
C759 C760 1.374 . S
C760 H734 0.950 . S
C760 C756 1.385 . S
C760 C759 1.374 . S
C761 C758 1.499 . S
C761 C762 1.373 . S
C761 C763 1.389 . S
C762 H735 0.950 . S
C762 C748 1.377 . S
C762 C761 1.373 . S
C763 C747 1.377 . S
C763 C761 1.389 . S
C763 C764 1.524 . S
C764 C763 1.524 . S
C764 C765 1.397 . S
C764 C769 1.363 1_455 S
C765 H736 0.950 . S
C765 C764 1.397 . S
C765 C766 1.334 1_455 S
C766 H737 0.950 . S
C766 C765 1.334 1_655 S
C766 C767 1.287 . S
C767 C766 1.287 . S
C767 C768 1.524 . S
C767 H770 0.999 . S
C768 H738 0.950 . S
C768 C767 1.524 . S
C768 C769 1.415 . S
C769 H739 0.950 . S
C769 C764 1.363 1_655 S
C769 C768 1.415 . S
H770 C767 0.999 . S
H771 C752 0.913 . S
H772 C790 0.951 . S
H773 C792 0.951 . S
H774 C794 0.950 . S
H775 C795 0.950 . S
H776 C797 0.950 . S
H777 C800 0.950 . S
H778 C801 0.950 . S
H779 C803 0.950 1_565 S
H780 C804 0.950 1_565 S
H781 C805 0.951 . S
H782 C807 0.951 . S
H783 C809 0.950 1_565 S
H784 C810 0.950 1_565 S
H785 C812 0.950 . S
H786 C815 0.950 . S
H787 C816 0.950 . S
H788 C818 0.950 . S
H789 C819 0.950 . S
C790 H772 0.951 . S
C790 C791 1.366 . S
C790 C792 1.388 . S
C791 C790 1.366 . S
C791 C795 1.385 . S
C792 H773 0.951 . S
C792 C790 1.388 . S
C792 C793 1.366 . S
C793 C792 1.366 . S
C793 C794 1.414 . S
C793 C796 1.499 . S
C794 H774 0.950 . S
C794 C793 1.414 . S
C794 C795 1.374 . S
C795 H775 0.950 . S
C795 C791 1.385 . S
C795 C794 1.374 . S
C796 C793 1.499 . S
C796 C797 1.373 . S
C796 C798 1.389 . S
C797 H776 0.950 . S
C797 C796 1.373 . S
C797 C813 1.377 . S
C798 C796 1.389 . S
C798 C799 1.524 . S
C798 C812 1.377 . S
C799 C798 1.524 . S
C799 C800 1.397 . S
C799 C804 1.363 . S
C800 H777 0.950 . S
C800 C799 1.397 . S
C800 C801 1.334 . S
C801 H778 0.950 . S
C801 C800 1.334 . S
C801 C802 1.287 . S
C802 C801 1.287 . S
C802 C803 1.524 . S
C802 H821 0.913 . S
C803 H779 0.950 1_545 S
C803 C802 1.524 . S
C803 C804 1.415 . S
C804 H780 0.950 1_545 S
C804 C799 1.363 . S
C804 C803 1.415 . S
C805 H781 0.951 . S
C805 C806 1.366 . S
C805 C807 1.388 . S
C806 C805 1.366 . S
C806 C810 1.385 . S
C807 H782 0.951 . S
C807 C805 1.388 . S
C807 C808 1.366 . S
C808 C807 1.366 . S
C808 C809 1.414 . S
C808 C811 1.499 . S
C809 H783 0.950 1_545 S
C809 C808 1.414 . S
C809 C810 1.374 . S
C810 H784 0.950 1_545 S
C810 C806 1.385 . S
C810 C809 1.374 . S
C811 C808 1.499 . S
C811 C812 1.373 . S
C811 C813 1.389 . S
C812 H785 0.950 . S
C812 C798 1.377 . S
C812 C811 1.373 . S
C813 C797 1.377 . S
C813 C811 1.389 . S
C813 C814 1.524 . S
C814 C813 1.524 . S
C814 C815 1.397 . S
C814 C819 1.363 . S
C815 H786 0.950 . S
C815 C814 1.397 . S
C815 C816 1.334 . S
C816 H787 0.950 . S
C816 C815 1.334 . S
C816 C817 1.287 . S
C817 C816 1.287 . S
C817 C818 1.524 . S
C817 H820 0.999 . S
C818 H788 0.950 . S
C818 C817 1.524 . S
C818 C819 1.415 . S
C819 H789 0.950 . S
C819 C814 1.363 . S
C819 C818 1.415 . S
H820 C817 0.999 . S
H821 C802 0.913 . S
H822 C840 0.951 . S
H823 C842 0.951 . S
H824 C844 0.950 . S
H825 C845 0.950 . S
H826 C847 0.950 . S
H827 C850 0.950 . S
H828 C851 0.950 . S
H829 C853 0.950 . S
H830 C854 0.950 . S
H831 C855 0.951 1_655 S
H832 C857 0.951 . S
H833 C859 0.950 . S
H834 C860 0.950 . S
H835 C862 0.950 . S
H836 C865 0.950 . S
H837 C866 0.950 . S
H838 C868 0.976 . S
H839 C869 0.950 . S
C840 H822 0.951 . S
C840 C841 1.366 . S
C840 C842 1.388 . S
C841 C840 1.366 . S
C841 C845 1.385 . S
C842 H823 0.951 . S
C842 C840 1.388 . S
C842 C843 1.366 . S
C843 C842 1.366 . S
C843 C844 1.414 . S
C843 C846 1.499 . S
C844 H824 0.950 . S
C844 C843 1.414 . S
C844 C845 1.374 . S
C845 H825 0.950 . S
C845 C841 1.385 . S
C845 C844 1.374 . S
C846 C843 1.499 . S
C846 C847 1.373 . S
C846 C848 1.389 . S
C847 H826 0.950 . S
C847 C846 1.373 . S
C847 C863 1.377 . S
C848 C846 1.389 . S
C848 C849 1.524 . S
C848 C862 1.377 . S
C849 C848 1.524 . S
C849 C850 1.397 . S
C849 C854 1.363 . S
C850 H827 0.950 . S
C850 C849 1.397 . S
C850 C851 1.334 . S
C851 H828 0.950 . S
C851 C850 1.334 . S
C851 C852 1.287 . S
C852 C851 1.287 . S
C852 C853 1.524 . S
C852 H871 0.913 . S
C853 H829 0.950 . S
C853 C852 1.524 . S
C853 C854 1.415 . S
C854 H830 0.950 . S
C854 C849 1.363 . S
C854 C853 1.415 . S
C855 H831 0.951 1_455 S
C855 C856 1.366 . S
C855 C857 1.388 . S
C856 C855 1.366 . S
C856 C860 1.385 . S
C857 H832 0.951 . S
C857 C855 1.388 . S
C857 C858 1.366 . S
C858 C857 1.366 . S
C858 C859 1.414 . S
C858 C861 1.499 . S
C859 H833 0.950 . S
C859 C858 1.414 . S
C859 C860 1.374 . S
C860 H834 0.950 . S
C860 C856 1.385 . S
C860 C859 1.374 . S
C861 C858 1.499 . S
C861 C862 1.373 . S
C861 C863 1.389 . S
C862 H835 0.950 . S
C862 C848 1.377 . S
C862 C861 1.373 . S
C863 C847 1.377 . S
C863 C861 1.389 . S
C863 C864 1.524 . S
C864 C863 1.524 . S
C864 C865 1.397 . S
C864 C869 1.363 . S
C865 H836 0.950 . S
C865 C864 1.397 . S
C865 C866 1.334 . S
C866 H837 0.950 . S
C866 C865 1.334 . S
C866 C867 1.287 . S
C867 C866 1.287 . S
C867 C868 1.524 . S
C867 H870 0.999 . S
C868 H838 0.976 . S
C868 C867 1.524 . S
C868 C869 1.415 . S
C869 H839 0.950 . S
C869 C864 1.363 . S
C869 C868 1.415 . S
H870 C867 0.999 . S
H871 C852 0.913 . S
H872 C890 0.951 . S
H873 C892 0.951 . S
H874 C894 0.950 . S
H875 C895 0.950 . S
H876 C897 0.950 . S
H877 C900 0.950 . S
H878 C901 0.950 . S
H879 C903 0.950 . S
H880 C904 0.950 . S
H881 C905 0.951 . S
H882 C907 0.951 . S
H883 C909 0.950 . S
H884 C910 0.950 . S
H885 C912 0.950 . S
H886 C915 0.950 . S
H887 C916 0.950 . S
H888 C918 0.950 . S
H889 C919 0.950 . S
C890 H872 0.951 . S
C890 C891 1.366 . S
C890 C892 1.388 . S
C891 C890 1.366 . S
C891 C895 1.385 . S
C892 H873 0.951 . S
C892 C890 1.388 . S
C892 C893 1.366 . S
C893 C892 1.366 . S
C893 C894 1.414 . S
C893 C896 1.499 . S
C894 H874 0.950 . S
C894 C893 1.414 . S
C894 C895 1.374 . S
C895 H875 0.950 . S
C895 C891 1.385 . S
C895 C894 1.374 . S
C896 C893 1.499 . S
C896 C897 1.373 . S
C896 C898 1.389 . S
C897 H876 0.950 . S
C897 C896 1.373 . S
C897 C913 1.377 . S
C898 C896 1.389 . S
C898 C899 1.524 . S
C898 C912 1.377 . S
C899 C898 1.524 . S
C899 C900 1.397 . S
C899 C904 1.363 . S
C900 H877 0.950 . S
C900 C899 1.397 . S
C900 C901 1.334 . S
C901 H878 0.950 . S
C901 C900 1.334 . S
C901 C902 1.287 . S
C902 C901 1.287 . S
C902 C903 1.524 . S
C902 H921 0.913 . S
C903 H879 0.950 . S
C903 C902 1.524 . S
C903 C904 1.415 . S
C904 H880 0.950 . S
C904 C899 1.363 . S
C904 C903 1.415 . S
C905 H881 0.951 . S
C905 C906 1.366 . S
C905 C907 1.388 . S
C906 C905 1.366 . S
C906 C910 1.385 . S
C907 H882 0.951 . S
C907 C905 1.388 . S
C907 C908 1.366 . S
C908 C907 1.366 . S
C908 C909 1.414 . S
C908 C911 1.499 . S
C909 H883 0.950 . S
C909 C908 1.414 . S
C909 C910 1.374 . S
C910 H884 0.950 . S
C910 C906 1.385 . S
C910 C909 1.374 . S
C911 C908 1.499 . S
C911 C912 1.373 . S
C911 C913 1.389 . S
C912 H885 0.950 . S
C912 C898 1.377 . S
C912 C911 1.373 . S
C913 C897 1.377 . S
C913 C911 1.389 . S
C913 C914 1.524 . S
C914 C913 1.524 . S
C914 C915 1.397 . S
C914 C919 1.363 . S
C915 H886 0.950 . S
C915 C914 1.397 . S
C915 C916 1.334 . S
C916 H887 0.950 . S
C916 C915 1.334 . S
C916 C917 1.287 . S
C917 C916 1.287 . S
C917 C918 1.524 . S
C917 H920 0.999 . S
C918 H888 0.950 . S
C918 C917 1.524 . S
C918 C919 1.415 . S
C919 H889 0.950 . S
C919 C914 1.363 . S
C919 C918 1.415 . S
H920 C917 0.999 . S
H921 C902 0.913 . S
H922 C940 0.951 1_455 S
H923 C942 0.951 . S
H924 C944 0.950 . S
H925 C945 0.950 . S
H926 C947 0.950 . S
H927 C950 0.950 . S
H928 C951 0.950 . S
H929 C953 0.950 . S
H930 C954 0.950 . S
H931 C955 0.951 . S
H932 C957 0.951 . S
H933 C959 0.950 . S
H934 C960 0.950 . S
H935 C962 0.950 . S
H936 C965 0.950 . S
H937 C966 0.950 . S
H938 C968 0.950 . S
H939 C969 0.950 . S
C940 H922 0.951 1_655 S
C940 C941 1.366 . S
C940 C942 1.388 . S
C941 C940 1.366 . S
C941 C945 1.385 . S
C942 H923 0.951 . S
C942 C940 1.388 . S
C942 C943 1.366 . S
C943 C942 1.366 . S
C943 C944 1.414 . S
C943 C946 1.499 . S
C944 H924 0.950 . S
C944 C943 1.414 . S
C944 C945 1.374 . S
C945 H925 0.950 . S
C945 C941 1.385 . S
C945 C944 1.374 . S
C946 C943 1.499 . S
C946 C947 1.373 . S
C946 C948 1.389 . S
C947 H926 0.950 . S
C947 C946 1.373 . S
C947 C963 1.377 . S
C948 C946 1.389 . S
C948 C949 1.524 . S
C948 C962 1.377 . S
C949 C948 1.524 . S
C949 C950 1.397 . S
C949 C954 1.363 . S
C950 H927 0.950 . S
C950 C949 1.397 . S
C950 C951 1.334 1_655 S
C951 H928 0.950 . S
C951 C950 1.334 1_455 S
C951 C952 1.287 . S
C952 C951 1.287 . S
C952 C953 1.524 . S
C952 H971 0.913 . S
C953 H929 0.950 . S
C953 C952 1.524 . S
C953 C954 1.415 1_455 S
C954 H930 0.950 . S
C954 C949 1.363 . S
C954 C953 1.415 1_655 S
C955 H931 0.951 . S
C955 C956 1.366 . S
C955 C957 1.388 . S
C956 C955 1.366 . S
C956 C960 1.385 . S
C957 H932 0.951 . S
C957 C955 1.388 . S
C957 C958 1.366 . S
C958 C957 1.366 . S
C958 C959 1.414 . S
C958 C961 1.499 . S
C959 H933 0.950 . S
C959 C958 1.414 . S
C959 C960 1.374 . S
C960 H934 0.950 . S
C960 C956 1.385 . S
C960 C959 1.374 . S
C961 C958 1.499 . S
C961 C962 1.373 . S
C961 C963 1.389 . S
C962 H935 0.950 . S
C962 C948 1.377 . S
C962 C961 1.373 . S
C963 C947 1.377 . S
C963 C961 1.389 . S
C963 C964 1.524 . S
C964 C963 1.524 . S
C964 C965 1.397 . S
C964 C969 1.363 . S
C965 H936 0.950 . S
C965 C964 1.397 . S
C965 C966 1.334 . S
C966 H937 0.950 . S
C966 C965 1.334 . S
C966 C967 1.287 . S
C967 C966 1.287 . S
C967 C968 1.524 . S
C967 H970 0.999 . S
C968 H938 0.950 . S
C968 C967 1.524 . S
C968 C969 1.415 . S
C969 H939 0.950 . S
C969 C964 1.363 . S
C969 C968 1.415 . S
H970 C967 0.999 . S
H971 C952 0.913 . S
H972 C990 0.951 . S
H973 C992 0.951 . S
H974 C994 0.950 . S
H975 C995 0.950 1_455 S
H976 C997 0.950 . S
H977 C1000 0.950 . S
H978 C1001 0.950 . S
H979 C1003 0.950 . S
H980 C1004 0.950 . S
H981 C1005 0.951 1_545 S
H982 C1007 0.951 . S
H983 C1009 0.950 . S
H984 C1010 0.950 . S
H985 C1012 0.950 . S
H986 C1015 0.950 . S
H987 C1016 0.950 . S
H988 C1018 0.950 . S
H989 C1019 0.950 . S
C990 H972 0.951 . S
C990 C991 1.366 . S
C990 C992 1.388 . S
C991 C990 1.366 . S
C991 C995 1.385 . S
C992 H973 0.951 . S
C992 C990 1.388 . S
C992 C993 1.366 . S
C993 C992 1.366 . S
C993 C994 1.414 . S
C993 C996 1.499 . S
C994 H974 0.950 . S
C994 C993 1.414 . S
C994 C995 1.374 . S
C995 H975 0.950 1_655 S
C995 C991 1.385 . S
C995 C994 1.374 . S
C996 C993 1.499 . S
C996 C997 1.373 . S
C996 C998 1.389 . S
C997 H976 0.950 . S
C997 C996 1.373 . S
C997 C1013 1.377 . S
C998 C996 1.389 . S
C998 C999 1.524 . S
C998 C1012 1.377 . S
C999 C998 1.524 . S
C999 C1000 1.397 . S
C999 C1004 1.363 . S
C1000 H977 0.950 . S
C1000 C999 1.397 . S
C1000 C1001 1.334 . S
C1001 H978 0.950 . S
C1001 C1000 1.334 . S
C1001 C1002 1.287 . S
C1002 C1001 1.287 . S
C1002 C1003 1.524 . S
C1002 H1021 0.913 . S
C1003 H979 0.950 . S
C1003 C1002 1.524 . S
C1003 C1004 1.415 . S
C1004 H980 0.950 . S
C1004 C999 1.363 . S
C1004 C1003 1.415 . S
C1005 H981 0.951 1_565 S
C1005 C1006 1.366 . S
C1005 C1007 1.388 . S
C1006 C1005 1.366 . S
C1006 C1010 1.385 . S
C1007 H982 0.951 . S
C1007 C1005 1.388 . S
C1007 C1008 1.366 . S
C1008 C1007 1.366 . S
C1008 C1009 1.414 . S
C1008 C1011 1.499 . S
C1009 H983 0.950 . S
C1009 C1008 1.414 . S
C1009 C1010 1.374 . S
C1010 H984 0.950 . S
C1010 C1006 1.385 . S
C1010 C1009 1.374 . S
C1011 C1008 1.499 . S
C1011 C1012 1.373 . S
C1011 C1013 1.389 . S
C1012 H985 0.950 . S
C1012 C998 1.377 . S
C1012 C1011 1.373 . S
C1013 C997 1.377 . S
C1013 C1011 1.389 . S
C1013 C1014 1.524 . S
C1014 C1013 1.524 . S
C1014 C1015 1.397 . S
C1014 C1019 1.363 . S
C1015 H986 0.950 . S
C1015 C1014 1.397 . S
C1015 C1016 1.334 1_565 S
C1016 H987 0.950 . S
C1016 C1015 1.334 1_545 S
C1016 C1017 1.287 . S
C1017 C1016 1.287 . S
C1017 C1018 1.524 . S
C1017 H1020 0.999 . S
C1018 H988 0.950 . S
C1018 C1017 1.524 . S
C1018 C1019 1.415 1_545 S
C1019 H989 0.950 . S
C1019 C1014 1.363 . S
C1019 C1018 1.415 1_565 S
H1020 C1017 0.999 . S
H1021 C1002 0.913 . S
H1022 C1040 0.951 . S
H1023 C1042 0.951 . S
H1024 C1044 0.950 . S
H1025 C1045 0.950 . S
H1026 C1047 0.950 . S
H1027 C1050 0.950 . S
H1028 C1051 0.950 . S
H1029 C1053 0.950 . S
H1030 C1054 0.950 . S
H1031 C1055 0.951 . S
H1032 C1057 0.951 . S
H1033 C1059 0.950 . S
H1034 C1060 0.950 1_545 S
H1035 C1062 0.950 . S
H1036 C1065 0.950 . S
H1037 C1066 0.950 . S
H1038 C1068 0.950 . S
H1039 C1069 0.950 . S
C1040 H1022 0.951 . S
C1040 C1041 1.366 . S
C1040 C1042 1.388 . S
C1041 C1040 1.366 . S
C1041 C1045 1.385 . S
C1042 H1023 0.951 . S
C1042 C1040 1.388 . S
C1042 C1043 1.366 . S
C1043 C1042 1.366 . S
C1043 C1044 1.414 . S
C1043 C1046 1.499 . S
C1044 H1024 0.950 . S
C1044 C1043 1.414 . S
C1044 C1045 1.374 . S
C1045 H1025 0.950 . S
C1045 C1041 1.385 . S
C1045 C1044 1.374 . S
C1046 C1043 1.499 . S
C1046 C1047 1.373 . S
C1046 C1048 1.389 . S
C1047 H1026 0.950 . S
C1047 C1046 1.373 . S
C1047 C1063 1.377 . S
C1048 C1046 1.389 . S
C1048 C1049 1.524 . S
C1048 C1062 1.377 . S
C1049 C1048 1.524 . S
C1049 C1050 1.397 . S
C1049 C1054 1.363 . S
C1050 H1027 0.950 . S
C1050 C1049 1.397 . S
C1050 C1051 1.334 . S
C1051 H1028 0.950 . S
C1051 C1050 1.334 . S
C1051 C1052 1.287 . S
C1052 C1051 1.287 . S
C1052 C1053 1.524 . S
C1052 H1071 0.913 . S
C1053 H1029 0.950 . S
C1053 C1052 1.524 . S
C1053 C1054 1.415 . S
C1054 H1030 0.950 . S
C1054 C1049 1.363 . S
C1054 C1053 1.415 . S
C1055 H1031 0.951 . S
C1055 C1056 1.366 . S
C1055 C1057 1.388 . S
C1056 C1055 1.366 . S
C1056 C1060 1.385 . S
C1057 H1032 0.951 . S
C1057 C1055 1.388 . S
C1057 C1058 1.366 . S
C1058 C1057 1.366 . S
C1058 C1059 1.414 . S
C1058 C1061 1.499 . S
C1059 H1033 0.950 . S
C1059 C1058 1.414 . S
C1059 C1060 1.374 . S
C1060 H1034 0.950 1_565 S
C1060 C1056 1.385 . S
C1060 C1059 1.374 . S
C1061 C1058 1.499 . S
C1061 C1062 1.373 . S
C1061 C1063 1.389 . S
C1062 H1035 0.950 . S
C1062 C1048 1.377 . S
C1062 C1061 1.373 . S
C1063 C1047 1.377 . S
C1063 C1061 1.389 . S
C1063 C1064 1.524 . S
C1064 C1063 1.524 . S
C1064 C1065 1.397 . S
C1064 C1069 1.363 . S
C1065 H1036 0.950 . S
C1065 C1064 1.397 . S
C1065 C1066 1.334 . S
C1066 H1037 0.950 . S
C1066 C1065 1.334 . S
C1066 C1067 1.287 . S
C1067 C1066 1.287 . S
C1067 C1068 1.524 . S
C1067 H1070 0.999 . S
C1068 H1038 0.950 . S
C1068 C1067 1.524 . S
C1068 C1069 1.415 . S
C1069 H1039 0.950 . S
C1069 C1064 1.363 . S
C1069 C1068 1.415 . S
H1070 C1067 0.999 . S
H1071 C1052 0.913 . S
H1072 C1090 0.951 . S
H1073 C1092 0.951 . S
H1074 C1094 0.950 . S
H1075 C1095 0.950 . S
H1076 C1097 0.950 . S
H1077 C1100 0.950 . S
H1078 C1101 0.950 . S
H1079 C1103 0.950 . S
H1080 C1104 0.950 . S
H1081 C1105 0.951 . S
H1082 C1107 0.951 . S
H1083 C1109 0.950 . S
H1084 C1110 0.950 . S
H1085 C1112 0.950 . S
H1086 C1115 0.950 . S
H1087 C1116 0.950 . S
H1088 C1118 0.950 . S
H1089 C1119 0.963 . S
C1090 H1072 0.951 . S
C1090 C1091 1.366 1_565 S
C1090 C1092 1.388 . S
C1091 C1090 1.366 1_545 S
C1091 C1095 1.385 . S
C1092 H1073 0.951 . S
C1092 C1090 1.388 . S
C1092 C1093 1.366 . S
C1093 C1092 1.366 . S
C1093 C1094 1.414 1_565 S
C1093 C1096 1.499 . S
C1094 H1074 0.950 . S
C1094 C1093 1.414 1_545 S
C1094 C1095 1.374 . S
C1095 H1075 0.950 . S
C1095 C1091 1.385 . S
C1095 C1094 1.374 . S
C1096 C1093 1.499 . S
C1096 C1097 1.373 . S
C1096 C1098 1.389 . S
C1097 H1076 0.950 . S
C1097 C1096 1.373 . S
C1097 C1113 1.377 . S
C1098 C1096 1.389 . S
C1098 C1099 1.524 . S
C1098 C1112 1.377 . S
C1099 C1098 1.524 . S
C1099 C1100 1.397 . S
C1099 C1104 1.363 . S
C1100 H1077 0.950 . S
C1100 C1099 1.397 . S
C1100 C1101 1.334 . S
C1101 H1078 0.950 . S
C1101 C1100 1.334 . S
C1101 C1102 1.287 . S
C1102 C1101 1.287 . S
C1102 C1103 1.524 . S
C1102 H1121 0.913 . S
C1103 H1079 0.950 . S
C1103 C1102 1.524 . S
C1103 C1104 1.415 . S
C1104 H1080 0.950 . S
C1104 C1099 1.363 . S
C1104 C1103 1.415 . S
C1105 H1081 0.951 . S
C1105 C1106 1.366 . S
C1105 C1107 1.388 . S
C1106 C1105 1.366 . S
C1106 C1110 1.385 1_455 S
C1107 H1082 0.951 . S
C1107 C1105 1.388 . S
C1107 C1108 1.366 1_455 S
C1108 C1107 1.366 1_655 S
C1108 C1109 1.414 . S
C1108 C1111 1.499 . S
C1109 H1083 0.950 . S
C1109 C1108 1.414 . S
C1109 C1110 1.374 . S
C1110 H1084 0.950 . S
C1110 C1106 1.385 1_655 S
C1110 C1109 1.374 . S
C1111 C1108 1.499 . S
C1111 C1112 1.373 . S
C1111 C1113 1.389 . S
C1112 H1085 0.950 . S
C1112 C1098 1.377 . S
C1112 C1111 1.373 . S
C1113 C1097 1.377 . S
C1113 C1111 1.389 . S
C1113 C1114 1.524 . S
C1114 C1113 1.524 . S
C1114 C1115 1.397 . S
C1114 C1119 1.363 . S
C1115 H1086 0.950 . S
C1115 C1114 1.397 . S
C1115 C1116 1.334 . S
C1116 H1087 0.950 . S
C1116 C1115 1.334 . S
C1116 C1117 1.287 1_655 S
C1117 C1116 1.287 1_455 S
C1117 C1118 1.524 1_565 S
C1117 H1120 0.999 1_565 S
C1118 H1088 0.950 . S
C1118 C1117 1.524 1_545 S
C1118 C1119 1.415 1_445 S
C1119 H1089 0.963 . S
C1119 C1114 1.363 . S
C1119 C1118 1.415 1_665 S
H1120 C1117 0.999 1_545 S
H1121 C1102 0.913 . S
H1122 C1140 0.951 . S
H1123 C1142 0.952 . S
H1124 C1144 0.950 . S
H1125 C1145 0.951 . S
H1126 C1147 0.950 . S
H1127 C1150 0.950 . S
H1128 C1151 0.950 . S
H1129 C1153 0.950 . S
H1130 C1154 0.950 1_565 S
H1131 C1155 0.951 . S
H1132 C1157 0.951 . S
H1133 C1159 0.950 . S
H1134 C1160 0.950 . S
H1135 C1162 0.950 . S
H1136 C1165 0.950 . S
H1137 C1166 0.950 . S
H1138 C1168 0.950 . S
H1139 C1169 0.950 . S
C1140 H1122 0.951 . S
C1140 C1141 1.366 . S
C1140 C1142 1.373 1_545 S
C1141 C1140 1.366 . S
C1141 C1145 1.400 . S
C1142 H1123 0.952 . S
C1142 C1140 1.373 1_565 S
C1142 C1143 1.380 . S
C1143 C1142 1.380 . S
C1143 C1144 1.414 . S
C1143 C1146 1.499 . S
C1144 H1124 0.950 . S
C1144 C1143 1.414 . S
C1144 C1145 1.358 1_565 S
C1145 H1125 0.951 . S
C1145 C1141 1.400 . S
C1145 C1144 1.358 1_545 S
C1146 C1143 1.499 . S
C1146 C1147 1.373 . S
C1146 C1148 1.389 . S
C1147 H1126 0.950 . S
C1147 C1146 1.373 . S
C1147 C1163 1.377 . S
C1148 C1146 1.389 . S
C1148 C1149 1.524 1_565 S
C1148 C1162 1.377 . S
C1149 C1148 1.524 1_545 S
C1149 C1150 1.397 . S
C1149 C1154 1.363 . S
C1150 H1127 0.950 . S
C1150 C1149 1.397 . S
C1150 C1151 1.334 . S
C1151 H1128 0.950 . S
C1151 C1150 1.334 . S
C1151 C1152 1.287 . S
C1152 C1151 1.287 . S
C1152 C1153 1.524 . S
C1152 H1171 0.913 . S
C1153 H1129 0.950 . S
C1153 C1152 1.524 . S
C1153 C1154 1.415 . S
C1154 H1130 0.950 1_545 S
C1154 C1149 1.363 . S
C1154 C1153 1.415 . S
C1155 H1131 0.951 . S
C1155 C1156 1.366 . S
C1155 C1157 1.388 . S
C1156 C1155 1.366 . S
C1156 C1160 1.385 . S
C1157 H1132 0.951 . S
C1157 C1155 1.388 . S
C1157 C1158 1.366 . S
C1158 C1157 1.366 . S
C1158 C1159 1.414 . S
C1158 C1161 1.499 . S
C1159 H1133 0.950 . S
C1159 C1158 1.414 . S
C1159 C1160 1.374 . S
C1160 H1134 0.950 . S
C1160 C1156 1.385 . S
C1160 C1159 1.374 . S
C1161 C1158 1.499 . S
C1161 C1162 1.373 . S
C1161 C1163 1.389 . S
C1162 H1135 0.950 . S
C1162 C1148 1.377 . S
C1162 C1161 1.373 . S
C1163 C1147 1.377 . S
C1163 C1161 1.389 . S
C1163 C1164 1.524 . S
C1164 C1163 1.524 . S
C1164 C1165 1.397 . S
C1164 C1169 1.363 . S
C1165 H1136 0.950 . S
C1165 C1164 1.397 . S
C1165 C1166 1.334 . S
C1166 H1137 0.950 . S
C1166 C1165 1.334 . S
C1166 C1167 1.287 . S
C1167 C1166 1.287 . S
C1167 C1168 1.524 . S
C1167 H1170 0.999 . S
C1168 H1138 0.950 . S
C1168 C1167 1.524 . S
C1168 C1169 1.415 . S
C1169 H1139 0.950 . S
C1169 C1164 1.363 . S
C1169 C1168 1.415 . S
H1170 C1167 0.999 . S
H1171 C1152 0.913 . S
H1172 C1190 0.951 . S
H1173 C1192 0.951 . S
H1174 C1194 0.950 . S
H1175 C1195 0.950 . S
H1176 C1197 0.950 . S
H1177 C1200 0.950 . S
H1178 C1201 0.950 . S
H1179 C1203 0.950 . S
H1180 C1204 0.950 . S
H1181 C1205 0.951 . S
H1182 C1207 0.951 . S
H1183 C1209 0.950 . S
H1184 C1210 0.950 . S
H1185 C1212 0.950 . S
H1186 C1215 0.950 . S
H1187 C1216 0.950 . S
H1188 C1218 0.950 . S
H1189 C1219 0.950 . S
C1190 H1172 0.951 . S
C1190 C1191 1.366 . S
C1190 C1192 1.388 . S
C1191 C1190 1.366 . S
C1191 C1195 1.385 . S
C1192 H1173 0.951 . S
C1192 C1190 1.388 . S
C1192 C1193 1.366 . S
C1193 C1192 1.366 . S
C1193 C1194 1.414 . S
C1193 C1196 1.499 . S
C1194 H1174 0.950 . S
C1194 C1193 1.414 . S
C1194 C1195 1.374 . S
C1195 H1175 0.950 . S
C1195 C1191 1.385 . S
C1195 C1194 1.374 . S
C1196 C1193 1.499 . S
C1196 C1197 1.373 . S
C1196 C1198 1.389 . S
C1197 H1176 0.950 . S
C1197 C1196 1.373 . S
C1197 C1213 1.377 . S
C1198 C1196 1.389 . S
C1198 C1199 1.524 . S
C1198 C1212 1.377 . S
C1199 C1198 1.524 . S
C1199 C1200 1.397 . S
C1199 C1204 1.363 . S
C1200 H1177 0.950 . S
C1200 C1199 1.397 . S
C1200 C1201 1.334 . S
C1201 H1178 0.950 . S
C1201 C1200 1.334 . S
C1201 C1202 1.287 . S
C1202 C1201 1.287 . S
C1202 C1203 1.524 . S
C1202 H1221 0.913 . S
C1203 H1179 0.950 . S
C1203 C1202 1.524 . S
C1203 C1204 1.415 . S
C1204 H1180 0.950 . S
C1204 C1199 1.363 . S
C1204 C1203 1.415 . S
C1205 H1181 0.951 . S
C1205 C1206 1.366 . S
C1205 C1207 1.388 . S
C1206 C1205 1.366 . S
C1206 C1210 1.385 . S
C1207 H1182 0.951 . S
C1207 C1205 1.388 . S
C1207 C1208 1.366 . S
C1208 C1207 1.366 . S
C1208 C1209 1.414 . S
C1208 C1211 1.499 . S
C1209 H1183 0.950 . S
C1209 C1208 1.414 . S
C1209 C1210 1.374 . S
C1210 H1184 0.950 . S
C1210 C1206 1.385 . S
C1210 C1209 1.374 . S
C1211 C1208 1.499 . S
C1211 C1212 1.373 . S
C1211 C1213 1.389 . S
C1212 H1185 0.950 . S
C1212 C1198 1.377 . S
C1212 C1211 1.373 . S
C1213 C1197 1.377 . S
C1213 C1211 1.389 . S
C1213 C1214 1.524 . S
C1214 C1213 1.524 . S
C1214 C1215 1.397 . S
C1214 C1219 1.363 . S
C1215 H1186 0.950 . S
C1215 C1214 1.397 . S
C1215 C1216 1.334 . S
C1216 H1187 0.950 . S
C1216 C1215 1.334 . S
C1216 C1217 1.287 . S
C1217 C1216 1.287 . S
C1217 C1218 1.524 . S
C1217 H1220 0.999 . S
C1218 H1188 0.950 . S
C1218 C1217 1.524 . S
C1218 C1219 1.415 . S
C1219 H1189 0.950 . S
C1219 C1214 1.363 . S
C1219 C1218 1.415 . S
H1220 C1217 0.999 . S
H1221 C1202 0.913 . S
H1222 C1240 0.951 . S
H1223 C1242 0.951 . S
H1224 C1244 0.950 . S
H1225 C1245 0.950 . S
H1226 C1247 0.950 . S
H1227 C1250 0.950 . S
H1228 C1251 0.950 . S
H1229 C1253 0.950 . S
H1230 C1254 0.950 . S
H1231 C1255 0.951 . S
H1232 C1257 0.951 . S
H1233 C1259 0.950 . S
H1234 C1260 0.950 . S
H1235 C1262 0.950 . S
H1236 C1265 0.950 . S
H1237 C1266 0.950 . S
H1238 C1268 0.950 . S
H1239 C1269 0.950 . S
C1240 H1222 0.951 . S
C1240 C1241 1.366 . S
C1240 C1242 1.388 . S
C1241 C1240 1.366 . S
C1241 C1245 1.385 1_455 S
C1242 H1223 0.951 . S
C1242 C1240 1.388 . S
C1242 C1243 1.366 1_455 S
C1243 C1242 1.366 1_655 S
C1243 C1244 1.414 . S
C1243 C1246 1.499 . S
C1244 H1224 0.950 . S
C1244 C1243 1.414 . S
C1244 C1245 1.374 . S
C1245 H1225 0.950 . S
C1245 C1241 1.385 1_655 S
C1245 C1244 1.374 . S
C1246 C1243 1.499 . S
C1246 C1247 1.373 . S
C1246 C1248 1.389 . S
C1247 H1226 0.950 . S
C1247 C1246 1.373 . S
C1247 C1263 1.377 . S
C1248 C1246 1.389 . S
C1248 C1249 1.524 1_655 S
C1248 C1262 1.377 . S
C1249 C1248 1.524 1_455 S
C1249 C1250 1.397 . S
C1249 C1254 1.363 . S
C1250 H1227 0.950 . S
C1250 C1249 1.397 . S
C1250 C1251 1.334 . S
C1251 H1228 0.950 . S
C1251 C1250 1.334 . S
C1251 C1252 1.287 . S
C1252 C1251 1.287 . S
C1252 C1253 1.524 . S
C1252 H1271 0.913 . S
C1253 H1229 0.950 . S
C1253 C1252 1.524 . S
C1253 C1254 1.415 . S
C1254 H1230 0.950 . S
C1254 C1249 1.363 . S
C1254 C1253 1.415 . S
C1255 H1231 0.951 . S
C1255 C1256 1.366 . S
C1255 C1257 1.388 . S
C1256 C1255 1.366 . S
C1256 C1260 1.385 . S
C1257 H1232 0.951 . S
C1257 C1255 1.388 . S
C1257 C1258 1.366 . S
C1258 C1257 1.366 . S
C1258 C1259 1.414 . S
C1258 C1261 1.499 . S
C1259 H1233 0.950 . S
C1259 C1258 1.414 . S
C1259 C1260 1.374 . S
C1260 H1234 0.950 . S
C1260 C1256 1.385 . S
C1260 C1259 1.374 . S
C1261 C1258 1.499 . S
C1261 C1262 1.373 . S
C1261 C1263 1.389 . S
C1262 H1235 0.950 . S
C1262 C1248 1.377 . S
C1262 C1261 1.373 . S
C1263 C1247 1.377 . S
C1263 C1261 1.389 . S
C1263 C1264 1.524 . S
C1264 C1263 1.524 . S
C1264 C1265 1.397 . S
C1264 C1269 1.363 . S
C1265 H1236 0.950 . S
C1265 C1264 1.397 . S
C1265 C1266 1.334 . S
C1266 H1237 0.950 . S
C1266 C1265 1.334 . S
C1266 C1267 1.287 . S
C1267 C1266 1.287 . S
C1267 C1268 1.524 . S
C1267 H1270 0.999 . S
C1268 H1238 0.950 . S
C1268 C1267 1.524 . S
C1268 C1269 1.415 . S
C1269 H1239 0.950 . S
C1269 C1264 1.363 . S
C1269 C1268 1.415 . S
H1270 C1267 0.999 . S
H1271 C1252 0.913 . S
C491 C3 1.557 . S
C506 C239 1.557 . S
C541 C62 1.557 . S
C556 C298 1.557 . S
C591 C357 1.557 . S
C606 C121 1.557 . S
C641 C416 1.557 . S
C656 C180 1.557 . S
C691 C5 1.480 . S
C706 C123 1.480 . S
C741 C64 1.481 . S
C756 C182 1.481 . S
C791 C359 1.480 . S
C806 C241 1.481 . S
C841 C300 1.480 . S
C856 C418 1.480 . S
C891 C328 0.759 . S
C906 C33 0.760 . S
C941 C92 0.761 . S
C956 C387 0.759 . S
C991 C446 0.759 . S
C1006 C151 0.760 . S
C1041 C210 0.761 . S
C1056 C269 0.760 . S
C1091 C406 1.787 . S
C1106 C229 1.787 . S
C1141 C52 1.787 . S
C1156 C465 1.787 . S
C1191 C111 1.787 . S
C1206 C288 1.787 . S
C1241 C347 1.787 . S
C1256 C170 1.787 . S
