# Generated by pormake.
# Topology smu, (6)-cn, num edge types: 1
# Building blocks:
#     Node 0, Type 0, BuildingBlock: NUHQIS_clean_sbu_0, # of connection points: 6
#     Node 1, Type 0, BuildingBlock: NUHQIS_clean_sbu_0, # of connection points: 6
#     Node 2, Type 0, BuildingBlock: NUHQIS_clean_sbu_0, # of connection points: 6
#     Node 3, Type 0, BuildingBlock: NUHQIS_clean_sbu_0, # of connection points: 6
#     Node 4, Type 0, BuildingBlock: NUHQIS_clean_sbu_0, # of connection points: 6
#     Node 5, Type 0, BuildingBlock: NUHQIS_clean_sbu_0, # of connection points: 6
#     Edge 6, Type (0, 0), BuildingBlock: XIVTED_clean_linker_0, # of connection points: 2
#     Edge 7, Type (0, 0), BuildingBlock: XIVTED_clean_linker_0, # of connection points: 2
#     Edge 8, Type (0, 0), BuildingBlock: XIVTED_clean_linker_0, # of connection points: 2
#     Edge 9, Type (0, 0), BuildingBlock: XIVTED_clean_linker_0, # of connection points: 2
#     Edge 10, Type (0, 0), BuildingBlock: XIVTED_clean_linker_0, # of connection points: 2
#     Edge 11, Type (0, 0), BuildingBlock: XIVTED_clean_linker_0, # of connection points: 2
#     Edge 12, Type (0, 0), BuildingBlock: XIVTED_clean_linker_0, # of connection points: 2
#     Edge 13, Type (0, 0), BuildingBlock: XIVTED_clean_linker_0, # of connection points: 2
#     Edge 14, Type (0, 0), BuildingBlock: XIVTED_clean_linker_0, # of connection points: 2
#     Edge 15, Type (0, 0), BuildingBlock: XIVTED_clean_linker_0, # of connection points: 2
#     Edge 16, Type (0, 0), BuildingBlock: XIVTED_clean_linker_0, # of connection points: 2
#     Edge 17, Type (0, 0), BuildingBlock: XIVTED_clean_linker_0, # of connection points: 2
#     Edge 18, Type (0, 0), BuildingBlock: XIVTED_clean_linker_0, # of connection points: 2
#     Edge 19, Type (0, 0), BuildingBlock: XIVTED_clean_linker_0, # of connection points: 2
#     Edge 20, Type (0, 0), BuildingBlock: XIVTED_clean_linker_0, # of connection points: 2
#     Edge 21, Type (0, 0), BuildingBlock: XIVTED_clean_linker_0, # of connection points: 2
#     Edge 22, Type (0, 0), BuildingBlock: XIVTED_clean_linker_0, # of connection points: 2
#     Edge 23, Type (0, 0), BuildingBlock: XIVTED_clean_linker_0, # of connection points: 2
# Relax obj value: 0.221
# Max RMSD: 0.313
# Mean RMSD: 0.313
data_MOF--net-smu--node1-NUHQIS_clean_sbu_0--edge1-XIVTED_clean_linker_0
_symmetry_space_group_name_H-M    P1
_symmetry_Int_Tables_number       1
_symmetry_cell_setting            triclinic
loop_
_symmetry_equiv_pos_as_xyz
'x, y, z'
_cell_length_a     39.683502
_cell_length_b     39.774324
_cell_length_c     27.824462
_cell_angle_alpha  90.113388
_cell_angle_beta   90.214874
_cell_angle_gamma 119.89034
loop_
_atom_site_label
_atom_site_type_symbol
_atom_site_fract_x
_atom_site_fract_y
_atom_site_fract_z
_atom_type_partial_charge
Tb0 Tb 0.32092 0.11648 0.26831 0.0
Eu1 Eu 0.3843 0.08605 0.26653 0.0
C2 C 0.34459 0.08966 0.36352 0.0
C3 C 0.40878 0.17375 0.27 0.0
C4 C 0.25096 0.15942 0.26087 0.0
C5 C 0.19663 0.16603 0.28941 0.0
C6 C 0.22116 0.15044 0.29416 0.0
C7 C 0.25451 0.18286 0.22128 0.0
C8 C 0.22979 0.19836 0.21638 0.0
C9 C 0.20138 0.1911 0.25126 0.0
C10 C 0.28214 0.15091 0.27358 0.0
O11 O 0.32524 0.10413 0.19153 0.0
O12 O 0.34971 0.06265 0.19943 0.0
O13 O 0.32482 0.03223 0.27967 0.0
O14 O 0.28323 0.05513 0.25738 0.0
C15 C 0.3316 0.07669 0.17434 0.0
O16 O 0.425 0.0755 0.22589 0.0
O17 O 0.42113 0.06726 0.30288 0.0
O18 O 0.378 0.09848 0.34382 0.0
O19 O 0.317 0.09098 0.33877 0.0
O20 O 0.37709 0.16072 0.29511 0.0
O21 O 0.41449 0.14919 0.24513 0.0
C22 C 0.28977 0.02693 0.26962 0.0
O23 O 0.27358 0.1194 0.29723 0.0
O24 O 0.312 0.16182 0.24529 0.0
C25 C 0.48366 0.09059 0.26685 0.0
C26 C 0.56605 0.12822 0.27111 0.0
C27 C 0.54655 0.121 0.2267 0.0
C28 C 0.50594 0.10229 0.2246 0.0
C29 C 0.50312 0.098 0.31133 0.0
C30 C 0.5438 0.11662 0.31343 0.0
C31 C 0.44045 0.06947 0.264 0.0
H32 H 0.17457 0.15925 0.31639 0.0
H33 H 0.21806 0.13295 0.32544 0.0
H34 H 0.27757 0.19084 0.19541 0.0
H35 H 0.23426 0.21764 0.18663 0.0
H36 H 0.56263 0.12892 0.19335 0.0
H37 H 0.49196 0.09661 0.18967 0.0
H38 H 0.48694 0.0892 0.3446 0.0
H39 H 0.55783 0.12204 0.34828 0.0
Tb40 Tb 0.81905 0.71051 0.26022 0.0
Eu41 Eu 0.72659 0.64555 0.27137 0.0
C42 C 0.77895 0.69491 0.3613 0.0
C43 C 0.79169 0.62325 0.26459 0.0
C44 C 0.9299 0.7836 0.26152 0.0
C45 C 0.99049 0.80475 0.3055 0.0
C46 C 0.95065 0.77888 0.29957 0.0
C47 C 0.94919 0.81609 0.23169 0.0
C48 C 0.98891 0.84188 0.2376 0.0
C49 C 1.01035 0.8356 0.27329 0.0
C50 C 0.89147 0.75153 0.24624 0.0
O51 O 0.79364 0.69135 0.18805 0.0
O52 O 0.73229 0.67852 0.20471 0.0
O53 O 0.72816 0.70312 0.28182 0.0
O54 O 0.79321 0.74709 0.2652 0.0
C55 C 0.76123 0.69038 0.17486 0.0
O56 O 0.67154 0.6051 0.23728 0.0
O57 O 0.67625 0.60644 0.31487 0.0
O58 O 0.7537 0.65999 0.34539 0.0
O59 O 0.80584 0.721 0.33302 0.0
O60 O 0.81222 0.65635 0.28666 0.0
O61 O 0.75859 0.61532 0.24489 0.0
C62 C 0.75744 0.73874 0.27517 0.0
O63 O 0.87531 0.72009 0.27191 0.0
O64 O 0.86594 0.75946 0.22803 0.0
C65 C 0.63396 0.54509 0.27783 0.0
C66 C 0.5896 0.46292 0.27838 0.0
C67 C 0.60448 0.48312 0.23515 0.0
C68 C 0.62629 0.52368 0.23485 0.0
C69 C 0.6196 0.52491 0.32112 0.0
C70 C 0.59783 0.48435 0.32143 0.0
C71 C 0.65494 0.58819 0.27741 0.0
H72 H 1.00615 0.79907 0.33331 0.0
H73 H 0.93675 0.75393 0.32297 0.0
H74 H 0.93409 0.8203 0.20182 0.0
H75 H 1.00321 0.86586 0.21281 0.0
H76 H 0.59831 0.46769 0.20125 0.0
H77 H 0.63654 0.5382 0.20069 0.0
H78 H 0.62479 0.5405 0.35478 0.0
H79 H 0.5873 0.46978 0.35549 0.0
Tb80 Tb 0.91651 0.21039 0.2661 0.0
Eu81 Eu 0.94333 0.30309 0.2716 0.0
C82 C 0.94921 0.25718 0.36231 0.0
C83 C 0.85628 0.2378 0.27463 0.0
C84 C 0.86992 0.09563 0.26402 0.0
C85 C 0.86379 0.03706 0.29959 0.0
C86 C 0.88212 0.07748 0.2975 0.0
C87 C 0.8395 0.07265 0.23208 0.0
C88 C 0.82127 0.0322 0.23401 0.0
C89 C 0.83294 0.01394 0.26812 0.0
C90 C 0.88709 0.13815 0.26464 0.0
O91 O 0.92377 0.22776 0.18991 0.0
O92 O 0.95363 0.29462 0.19518 0.0
O93 O 0.99896 0.29953 0.27608 0.0
O94 O 0.97605 0.23855 0.2424 0.0
C95 C 0.94214 0.26267 0.17035 0.0
O96 O 0.96521 0.36123 0.24209 0.0
O97 O 0.94759 0.35021 0.31641 0.0
O98 O 0.93699 0.28043 0.347 0.0
O99 O 0.94757 0.22971 0.3345 0.0
O100 O 0.87059 0.21856 0.29645 0.0
O101 O 0.87975 0.2698 0.25213 0.0
C102 C 1.00465 0.27248 0.2563 0.0
O103 O 0.9188 0.16105 0.28848 0.0
O104 O 0.87252 0.15608 0.24044 0.0
C105 C 0.93711 0.39673 0.27646 0.0
C106 C 0.89984 0.44156 0.26982 0.0
C107 C 0.90167 0.421 0.2296 0.0
C108 C 0.92016 0.39882 0.23285 0.0
C109 C 0.93455 0.41657 0.31674 0.0
C110 C 0.91604 0.43854 0.31356 0.0
C111 C 0.95808 0.37477 0.28108 0.0
H112 H 0.87389 0.02391 0.32577 0.0
H113 H 0.9054 0.09449 0.32272 0.0
H114 H 0.82939 0.08589 0.20604 0.0
H115 H 0.79744 0.01524 0.20947 0.0
H116 H 0.88974 0.42287 0.19529 0.0
H117 H 0.92152 0.38372 0.20114 0.0
H118 H 0.94716 0.41529 0.35082 0.0
H119 H 0.91453 0.45329 0.34553 0.0
Tb120 Tb 0.12879 0.31741 0.77193 0.0
Eu121 Eu 0.09609 0.37876 0.76927 0.0
C122 C 0.09641 0.3329 0.67358 0.0
C123 C 0.18438 0.40556 0.77302 0.0
C124 C 0.16959 0.24678 0.76657 0.0
C125 C 0.19944 0.21774 0.71798 0.0
C126 C 0.18799 0.24562 0.724 0.0
C127 C 0.16192 0.21904 0.8022 0.0
C128 C 0.17349 0.19153 0.79639 0.0
C129 C 0.19296 0.19083 0.75459 0.0
C130 C 0.16469 0.28016 0.7789 0.0
O131 O 0.09779 0.30805 0.83933 0.0
O132 O 0.1051 0.36848 0.8468 0.0
O133 O 0.04281 0.31864 0.77708 0.0
O134 O 0.06831 0.27956 0.75401 0.0
C135 C 0.09493 0.33426 0.86483 0.0
O136 O 0.0817 0.4172 0.80942 0.0
O137 O 0.0777 0.41529 0.73202 0.0
O138 O 0.0822 0.35192 0.69639 0.0
O139 O 0.1186 0.32109 0.69467 0.0
O140 O 0.17175 0.3742 0.79867 0.0
O141 O 0.15937 0.41118 0.74901 0.0
C142 C 0.03887 0.28475 0.76437 0.0
O143 O 0.17339 0.30762 0.74751 0.0
O144 O 0.13518 0.27388 0.80554 0.0
C145 C 0.09901 0.47662 0.76969 0.0
C146 C 0.13823 0.55882 0.76755 0.0
C147 C 0.12817 0.53889 0.81155 0.0
C148 C 0.10867 0.49831 0.8126 0.0
C149 C 0.1093 0.49655 0.72569 0.0
C150 C 0.12872 0.5371 0.72465 0.0
C151 C 0.07763 0.43352 0.77096 0.0
H152 H 0.21403 0.21776 0.68516 0.0
H153 H 0.19484 0.26705 0.69619 0.0
H154 H 0.14874 0.21984 0.83592 0.0
H155 H 0.16875 0.17198 0.82591 0.0
H156 H 0.13452 0.55462 0.84524 0.0
H157 H 0.10085 0.48391 0.8471 0.0
H158 H 0.10222 0.48085 0.69191 0.0
H159 H 0.13641 0.55146 0.69013 0.0
Tb160 Tb 0.21851 0.90354 0.76071 0.0
Eu161 Eu 0.31198 0.9365 0.76812 0.0
C162 C 0.27171 0.93561 0.66888 0.0
C163 C 0.25111 0.84845 0.7602 0.0
C164 C 0.10637 0.86057 0.76391 0.0
C165 C 0.04755 0.85926 0.73604 0.0
C166 C 0.08747 0.87351 0.73247 0.0
C167 C 0.08484 0.83466 0.80076 0.0
C168 C 0.04483 0.82049 0.80445 0.0
C169 C 0.02557 0.83162 0.77103 0.0
C170 C 0.14552 0.86766 0.75145 0.0
O171 O 0.23215 0.91385 0.8386 0.0
O172 O 0.29788 0.95724 0.83515 0.0
O173 O 0.30519 0.98999 0.75694 0.0
O174 O 0.23966 0.96389 0.77512 0.0
C175 C 0.26484 0.94144 0.85817 0.0
O176 O 0.36251 0.94834 0.81183 0.0
O177 O 0.36853 0.9562 0.73478 0.0
O178 O 0.29667 0.92751 0.68938 0.0
O179 O 0.24155 0.93226 0.69237 0.0
O180 O 0.23346 0.86172 0.7334 0.0
O181 O 0.27984 0.87281 0.78742 0.0
C182 C 0.27432 0.99356 0.76618 0.0
O183 O 0.16879 0.89914 0.72808 0.0
O184 O 0.16413 0.85703 0.781 0.0
C185 C 0.40722 0.93443 0.77439 0.0
C186 C 0.45054 0.89557 0.776 0.0
C187 C 0.46381 0.93096 0.80063 0.0
C188 C 0.4424 0.95016 0.79974 0.0
C189 C 0.39323 0.89868 0.75056 0.0
C190 C 0.41475 0.87943 0.7513 0.0
C191 C 0.38505 0.95511 0.77492 0.0
H192 H 0.03367 0.86898 0.71036 0.0
H193 H 0.10311 0.89304 0.70328 0.0
H194 H 0.09841 0.82366 0.82509 0.0
H195 H 0.02867 0.79916 0.83177 0.0
H196 H 0.49079 0.94386 0.82084 0.0
H197 H 0.45334 0.97736 0.819 0.0
H198 H 0.3658 0.88577 0.73127 0.0
H199 H 0.40378 0.85237 0.73176 0.0
Tb200 Tb 0.71747 0.8142 0.76956 0.0
Eu201 Eu 0.65475 0.72135 0.75572 0.0
C202 C 0.70545 0.77427 0.66891 0.0
C203 C 0.62924 0.78403 0.76619 0.0
C204 C 0.79118 0.92494 0.77987 0.0
C205 C 0.83331 0.98181 0.73233 0.0
C206 C 0.80563 0.94229 0.73506 0.0
C207 C 0.8061 0.94725 0.82176 0.0
C208 C 0.83341 0.98666 0.81908 0.0
C209 C 0.84669 1.00478 0.77429 0.0
C210 C 0.75605 0.8865 0.78417 0.0
O211 O 0.69705 0.78848 0.84104 0.0
O212 O 0.68554 0.72753 0.82472 0.0
O213 O 0.71416 0.72594 0.74703 0.0
O214 O 0.75539 0.78985 0.77172 0.0
C215 C 0.69645 0.75644 0.85461 0.0
O216 O 0.61852 0.66384 0.78585 0.0
O217 O 0.61485 0.67275 0.70982 0.0
O218 O 0.66989 0.74994 0.68312 0.0
O219 O 0.73116 0.80028 0.69874 0.0
O220 O 0.66218 0.80577 0.74468 0.0
O221 O 0.62172 0.75036 0.7831 0.0
C222 C 0.74881 0.75506 0.7595 0.0
O223 O 0.73475 0.8705 0.74609 0.0
O224 O 0.75615 0.86109 0.81357 0.0
C225 C 0.55637 0.62679 0.74939 0.0
C226 C 0.47431 0.58178 0.75615 0.0
C227 C 0.4981 0.58705 0.79632 0.0
C228 C 0.53854 0.60907 0.79293 0.0
C229 C 0.53265 0.62194 0.70928 0.0
C230 C 0.49209 0.59979 0.71266 0.0
C231 C 0.59945 0.64908 0.74595 0.0
H232 H 0.84344 0.99453 0.69726 0.0
H233 H 0.79442 0.9258 0.70209 0.0
H234 H 0.79492 0.93468 0.85668 0.0
H235 H 0.84243 1.00323 0.8522 0.0
H236 H 0.48547 0.57414 0.83059 0.0
H237 H 0.55586 0.612 0.82451 0.0
H238 H 0.5454 0.63488 0.67507 0.0
H239 H 0.47473 0.59597 0.68084 0.0
H240 H 0.30268 0.01827 0.87623 0.0
H241 H 0.30711 1.00163 0.15284 0.0
H242 H 0.22883 0.90853 0.9446 0.0
H243 H 0.31642 0.1052 0.0906 0.0
H244 H 0.28171 0.96762 0.077 0.0
H245 H 0.31084 0.05133 0.95293 0.0
C246 C 0.28764 1.00112 0.9074 0.0
C247 C 0.26494 0.96051 0.90402 0.0
C248 C 0.28879 0.9976 0.07998 0.0
C249 C 0.27525 0.99837 0.99245 0.0
C250 C 0.30364 0.0173 0.12319 0.0
C251 C 0.31414 0.05655 0.12816 0.0
C252 C 0.28548 0.01744 0.04047 0.0
C253 C 0.30872 0.07502 0.08842 0.0
C254 C 0.29227 0.02013 0.95111 0.0
C255 C 0.24639 0.93984 0.94559 0.0
N256 N 0.29547 0.0555 0.04582 0.0
N257 N 0.25264 0.95895 0.98844 0.0
H258 H 0.77751 0.81441 0.62568 0.0
H259 H 0.72107 0.6512 0.42469 0.0
H260 H 0.66187 0.71736 0.60373 0.0
H261 H 0.82112 0.76539 0.40821 0.0
H262 H 0.70443 0.67283 0.49802 0.0
H263 H 0.79831 0.79595 0.5518 0.0
C264 C 0.75637 0.78964 0.60511 0.0
C265 C 0.7178 0.76752 0.6211 0.0
C266 C 0.73019 0.69316 0.47859 0.0
C267 C 0.74173 0.74572 0.53747 0.0
C268 C 0.73999 0.68072 0.43677 0.0
C269 C 0.77264 0.70646 0.40991 0.0
C270 C 0.75325 0.73164 0.49436 0.0
C271 C 0.79576 0.74445 0.42771 0.0
C272 C 0.76834 0.77903 0.56312 0.0
C273 C 0.69185 0.73545 0.59308 0.0
N274 N 0.7856 0.75594 0.46881 0.0
N275 N 0.70437 0.7254 0.55311 0.0
H276 H 0.95768 0.32242 0.11036 0.0
H277 H 0.06816 0.26564 0.91393 0.0
H278 H 0.96163 0.21613 0.11756 0.0
H279 H 0.07318 0.37647 0.9217 0.0
H280 H 0.02685 0.24482 0.98542 0.0
H281 H 0.99498 0.33908 0.03634 0.0
C282 C 0.96576 0.30216 0.0958 0.0
C283 C 0.9564 0.26777 0.12023 0.0
C284 C 0.03719 0.27375 0.97158 0.0
C285 C 1.00025 0.28723 0.03558 0.0
C286 C 0.06103 0.28581 0.93093 0.0
C287 C 0.07437 0.32299 0.91166 0.0
C288 C 0.02635 0.29893 0.99302 0.0
C289 C 0.06386 0.34765 0.93517 0.0
C290 C 0.98743 0.31188 0.05366 0.0
C291 C 0.96779 0.24271 0.09962 0.0
N292 N 0.0404 0.33511 0.97431 0.0
N293 N 0.98948 0.25312 0.05869 0.0
H294 H 0.27735 0.06421 0.41487 0.0
H295 H 0.33614 0.95652 0.6132 0.0
H296 H 0.38957 0.07151 0.42114 0.0
H297 H 0.22893 0.95962 0.61642 0.0
H298 H 0.35469 0.9959 0.54043 0.0
H299 H 0.25862 0.02516 0.48785 0.0
C300 C 0.29832 0.05815 0.43193 0.0
C301 C 0.33519 0.07133 0.4117 0.0
C302 C 0.32701 0.9878 0.55693 0.0
C303 C 0.31352 0.02584 0.49503 0.0
C304 C 0.31622 0.96499 0.59832 0.0
C305 C 0.28086 0.95462 0.62112 0.0
C306 C 0.30231 1.00037 0.53801 0.0
C307 C 0.25644 0.96679 0.60017 0.0
C308 C 0.28746 0.03558 0.4735 0.0
C309 C 0.36091 0.06219 0.4354 0.0
N310 N 0.26768 0.98909 0.55997 0.0
N311 N 0.3495 0.03983 0.47555 0.0
H312 H 0.72882 0.71229 0.87539 0.0
H313 H 0.7111 0.71566 0.15246 0.0
H314 H 0.69925 0.79242 0.94134 0.0
H315 H 0.80157 0.69963 0.09009 0.0
H316 H 0.70212 0.73942 0.07573 0.0
H317 H 0.75162 0.70293 0.95283 0.0
C318 C 0.72721 0.7281 0.90622 0.0
C319 C 0.71175 0.75301 0.90191 0.0
C320 C 0.72422 0.73113 0.07891 0.0
C321 C 0.73738 0.7417 0.99108 0.0
C322 C 0.72929 0.71726 0.12263 0.0
C323 C 0.75713 0.70545 0.12779 0.0
C324 C 0.74619 0.73208 0.03925 0.0
C325 C 0.77974 0.70831 0.08772 0.0
C326 C 0.74057 0.72288 0.95033 0.0
C327 C 0.71078 0.77287 0.9431 0.0
N328 N 0.77328 0.7207 0.04476 0.0
N329 N 0.72273 0.76619 0.98631 0.0
H330 H 0.97285 0.32153 0.41805 0.0
H331 H 0.0734 0.2635 0.62665 0.0
H332 H 0.97453 0.21388 0.41285 0.0
H333 H 0.08686 0.37705 0.60742 0.0
H334 H 0.03765 0.24303 0.54956 0.0
H335 H 1.01281 0.33984 0.49 0.0
C336 C 0.98115 0.30137 0.43237 0.0
C337 C 0.96998 0.26593 0.40927 0.0
C338 C 0.04909 0.2726 0.5619 0.0
C339 C 1.01665 0.28717 0.49235 0.0
C340 C 0.06986 0.28439 0.60553 0.0
C341 C 0.08321 0.32208 0.62324 0.0
C342 C 0.04169 0.29874 0.53624 0.0
C343 C 0.07701 0.34772 0.59513 0.0
C344 C 1.00442 0.31208 0.47344 0.0
C345 C 0.98233 0.24144 0.42953 0.0
N346 N 0.05657 0.33554 0.55343 0.0
N347 N 1.00493 0.25245 0.47005 0.0
H348 H 0.6205 0.18891 0.21718 0.0
H349 H 0.8012 0.17657 0.32602 0.0
H350 H 0.61039 0.10953 0.32917 0.0
H351 H 0.81432 0.26574 0.22715 0.0
H352 H 0.73119 0.15138 0.32659 0.0
H353 H 0.69117 0.21687 0.21898 0.0
C354 C 0.63308 0.1773 0.24213 0.0
C355 C 0.60929 0.14671 0.27305 0.0
C356 C 0.74933 0.17656 0.3049 0.0
C357 C 0.69041 0.17883 0.27542 0.0
C358 C 0.78942 0.191 0.30452 0.0
C359 C 0.81383 0.22342 0.27651 0.0
C360 C 0.73322 0.19438 0.27679 0.0
C361 C 0.7967 0.24077 0.24939 0.0
C362 C 0.6735 0.19346 0.24331 0.0
C363 C 0.62744 0.13332 0.30505 0.0
N364 N 0.75746 0.22595 0.25004 0.0
N365 N 0.66677 0.1493 0.30523 0.0
H366 H 0.52403 0.41919 0.3315 0.0
H367 H 0.47774 0.21406 0.22015 0.0
H368 H 0.59671 0.40828 0.22476 0.0
H369 H 0.40535 0.2297 0.32283 0.0
H370 H 0.52311 0.28438 0.22239 0.0
H371 H 0.4819 0.34909 0.3303 0.0
C372 C 0.53142 0.40205 0.3081 0.0
C373 C 0.5642 0.41986 0.27837 0.0
C374 C 0.49731 0.27229 0.24448 0.0
C375 C 0.51537 0.33902 0.2762 0.0
C376 C 0.47145 0.23216 0.24327 0.0
C377 C 0.43765 0.21585 0.27135 0.0
C378 C 0.4893 0.29618 0.27404 0.0
C379 C 0.43096 0.24079 0.30053 0.0
C380 C 0.5071 0.36191 0.30715 0.0
C381 C 0.5716 0.39595 0.24801 0.0
N382 N 0.45644 0.27951 0.30105 0.0
N383 N 0.54741 0.35679 0.24772 0.0
H384 H 0.83372 0.42917 0.22082 0.0
H385 H 0.85743 0.63221 0.30714 0.0
H386 H 0.92697 0.51319 0.31027 0.0
H387 H 0.7596 0.55073 0.22125 0.0
H388 H 0.88278 0.58808 0.3065 0.0
H389 H 0.80617 0.47249 0.2177 0.0
C390 C 0.84848 0.4567 0.23965 0.0
C391 C 0.88258 0.46731 0.26627 0.0
C392 C 0.85573 0.5796 0.28774 0.0
C393 C 0.85108 0.51679 0.26303 0.0
C394 C 0.8411 0.60491 0.28811 0.0
C395 C 0.80615 0.59524 0.26429 0.0
C396 C 0.83551 0.54401 0.26331 0.0
C397 C 0.78658 0.55934 0.24022 0.0
C398 C 0.8326 0.48129 0.23804 0.0
C399 C 0.90026 0.50326 0.29013 0.0
N400 N 0.80155 0.53497 0.24031 0.0
N401 N 0.88433 0.52651 0.28795 0.0
H402 H 0.19622 0.61247 0.82659 0.0
H403 H 0.19541 0.79347 0.70226 0.0
H404 H 0.12365 0.60375 0.70584 0.0
H405 H 0.27473 0.80692 0.81705 0.0
H406 H 0.16969 0.72385 0.70354 0.0
H407 H 0.22567 0.68324 0.82455 0.0
C408 C 0.18641 0.62537 0.7997 0.0
C409 C 0.15737 0.60197 0.76628 0.0
C410 C 0.19285 0.74188 0.72838 0.0
C411 C 0.19119 0.68302 0.7636 0.0
C412 C 0.20766 0.78182 0.72767 0.0
C413 C 0.23739 0.80625 0.75962 0.0
C414 C 0.20761 0.7258 0.76143 0.0
C415 C 0.2519 0.78923 0.7917 0.0
C416 C 0.20342 0.6658 0.79841 0.0
C417 C 0.14626 0.62045 0.7319 0.0
N418 N 0.23675 0.74999 0.79193 0.0
N419 N 0.16306 0.65972 0.73159 0.0
H420 H 0.42754 0.81759 0.78283 0.0
H421 H 0.64478 0.85758 0.75142 0.0
H422 H 0.52926 0.93048 0.76618 0.0
H423 H 0.55042 0.74416 0.78836 0.0
H424 H 0.60067 0.88287 0.75399 0.0
H425 H 0.46956 0.78841 0.78161 0.0
C426 C 0.45861 0.83623 0.77882 0.0
C427 C 0.47488 0.87667 0.77496 0.0
C428 C 0.58933 0.85242 0.76162 0.0
C429 C 0.52295 0.84349 0.77378 0.0
C430 C 0.61461 0.8378 0.76001 0.0
C431 C 0.60133 0.79851 0.76942 0.0
C432 C 0.55003 0.82775 0.77254 0.0
C433 C 0.56189 0.77463 0.78087 0.0
C434 C 0.48255 0.81956 0.77846 0.0
C435 C 0.51535 0.89933 0.77017 0.0
N436 N 0.53748 0.78961 0.7819 0.0
N437 N 0.53779 0.88247 0.76968 0.0
H438 H 0.22274 0.47457 0.72359 0.0
H439 H 0.43333 0.51302 0.80419 0.0
H440 H 0.24259 0.40057 0.81888 0.0
H441 H 0.41694 0.5926 0.71526 0.0
H442 H 0.36313 0.47192 0.80962 0.0
H443 H 0.29328 0.51857 0.71966 0.0
C444 C 0.24185 0.46768 0.74389 0.0
C445 C 0.22665 0.43383 0.77168 0.0
C446 C 0.37477 0.4984 0.78897 0.0
C447 C 0.30728 0.48385 0.76711 0.0
C448 C 0.415 0.52209 0.78609 0.0
C449 C 0.43127 0.55656 0.75942 0.0
C450 C 0.35028 0.50898 0.76492 0.0
C451 C 0.40579 0.56615 0.73586 0.0
C452 C 0.2821 0.49277 0.74156 0.0
C453 C 0.25284 0.42632 0.79706 0.0
N454 N 0.36658 0.54252 0.73917 0.0
N455 N 0.29171 0.45101 0.79405 0.0
H456 H 0.16714 0.20359 0.17256 0.0
H457 H 0.06003 0.29294 0.32637 0.0
H458 H 0.18282 0.2243 0.32547 0.0
H459 H 0.03591 0.25981 0.17725 0.0
H460 H 0.11466 0.2803 0.32357 0.0
H461 H 0.12746 0.23484 0.17088 0.0
C462 C 0.16249 0.21497 0.20572 0.0
C463 C 0.17796 0.21087 0.24928 0.0
C464 C 0.09802 0.27673 0.29114 0.0
C465 C 0.13249 0.24674 0.24771 0.0
C466 C 0.06728 0.28453 0.29261 0.0
C467 C 0.04379 0.27755 0.25191 0.0
C468 C 0.10503 0.26192 0.24867 0.0
C469 C 0.05356 0.2656 0.20933 0.0
C470 C 0.13978 0.23278 0.20479 0.0
C471 C 0.17078 0.22606 0.29121 0.0
N472 N 0.08315 0.25777 0.20893 0.0
N473 N 0.14843 0.24312 0.28943 0.0
H474 H 0.05891 0.85762 0.19627 0.0
H475 H 0.25389 0.98374 0.34874 0.0
H476 H 0.06032 0.86535 0.35107 0.0
H477 H 0.24535 0.98563 0.19463 0.0
H478 H 0.18582 0.93087 0.35141 0.0
H479 H 0.12946 0.8961 0.19611 0.0
C480 C 0.07407 0.86771 0.23031 0.0
C481 C 0.05353 0.85886 0.27371 0.0
C482 C 0.19924 0.94209 0.31693 0.0
C483 C 0.13487 0.90262 0.27386 0.0
C484 C 0.23817 0.97176 0.3154 0.0
C485 C 0.25527 0.98821 0.27126 0.0
C486 C 0.1776 0.92921 0.27396 0.0
C487 C 0.23344 0.97297 0.22916 0.0
C488 C 0.11448 0.8894 0.23022 0.0
C489 C 0.07496 0.87165 0.31677 0.0
N490 N 0.19571 0.94455 0.23155 0.0
N491 N 0.1145 0.89321 0.31575 0.0
H492 H 0.81169 0.96821 0.34864 0.0
H493 H 0.74923 0.77491 0.19847 0.0
H494 H 0.80898 0.96166 0.1937 0.0
H495 H 0.75637 0.77988 0.35291 0.0
H496 H 0.75933 0.84059 0.19715 0.0
H497 H 0.78221 0.89763 0.352 0.0
C498 C 0.80488 0.95194 0.31532 0.0
C499 C 0.81318 0.97096 0.2708 0.0
C500 C 0.75767 0.82713 0.23151 0.0
C501 C 0.77895 0.89012 0.27442 0.0
C502 C 0.75125 0.78938 0.23222 0.0
C503 C 0.75097 0.77185 0.27587 0.0
C504 C 0.76482 0.84783 0.27483 0.0
C505 C 0.75552 0.79231 0.31864 0.0
C506 C 0.78776 0.91162 0.31729 0.0
C507 C 0.80293 0.94829 0.22882 0.0
N508 N 0.76277 0.82954 0.31707 0.0
N509 N 0.78666 0.90916 0.23168 0.0
H510 H 0.15786 0.11584 0.78561 0.0
H511 H 0.30661 0.05353 0.70097 0.0
H512 H 0.26217 0.20269 0.71588 0.0
H513 H 0.24475 0.01812 0.83512 0.0
H514 H 0.29063 0.10615 0.69575 0.0
H515 H 0.18604 0.07402 0.79083 0.0
C516 C 0.18673 0.12621 0.77136 0.0
C517 C 0.20794 0.16327 0.75122 0.0
C518 C 0.28169 0.08744 0.7269 0.0
C519 C 0.24017 0.11493 0.75635 0.0
C520 C 0.29112 0.05784 0.73013 0.0
C521 C 0.27695 0.03168 0.76857 0.0
C522 C 0.25762 0.08994 0.76199 0.0
C523 C 0.25623 0.03774 0.80495 0.0
C524 C 0.2028 0.10227 0.77437 0.0
C525 C 0.24474 0.17435 0.73173 0.0
N526 N 0.24666 0.06577 0.80038 0.0
N527 N 0.25984 0.15023 0.73482 0.0
H528 H 0.97679 0.81443 0.84805 0.0
H529 H 0.78534 0.74045 0.68592 0.0
H530 H 0.97629 0.80552 0.69342 0.0
H531 H 0.79108 0.76235 0.8382 0.0
H532 H 0.85233 0.75202 0.68919 0.0
H533 H 0.90604 0.78441 0.84634 0.0
C534 C 0.96176 0.80592 0.81377 0.0
C535 C 0.98253 0.81294 0.77081 0.0
C536 C 0.83849 0.75321 0.72211 0.0
C537 C 0.90148 0.77855 0.76845 0.0
C538 C 0.80019 0.74606 0.72028 0.0
C539 C 0.78277 0.74982 0.76204 0.0
C540 C 0.85912 0.76427 0.76598 0.0
C541 C 0.80342 0.75848 0.80547 0.0
C542 C 0.92136 0.78882 0.81275 0.0
C543 C 0.96151 0.80144 0.72735 0.0
N544 N 0.84059 0.76572 0.80628 0.0
N545 N 0.92217 0.785 0.72725 0.0
H546 H 1.00518 0.24496 0.84488 0.0
H547 H 0.84684 0.05522 0.70633 0.0
H548 H 0.99024 0.24276 0.69132 0.0
H549 H 0.90507 0.05281 0.83676 0.0
H550 H 0.88762 0.12591 0.70507 0.0
H551 H 0.9542 0.17659 0.84829 0.0
C552 C 0.98991 0.23039 0.81218 0.0
C553 C 1.00109 0.24934 0.76789 0.0
C554 C 0.89124 0.10973 0.73394 0.0
C555 C 0.94392 0.17134 0.77118 0.0
C556 C 0.86832 0.06933 0.73449 0.0
C557 C 0.87245 0.04769 0.77167 0.0
C558 C 0.91807 0.12876 0.77119 0.0
C559 C 0.90022 0.06802 0.80777 0.0
C560 C 0.96135 0.19134 0.814 0.0
C561 C 0.98166 0.22907 0.72618 0.0
N562 N 0.92181 0.10733 0.8067 0.0
N563 N 0.95398 0.19095 0.72876 0.0
loop_
_geom_bond_atom_site_label_1
_geom_bond_atom_site_label_2
_geom_bond_distance
_geom_bond_site_symmetry_2
_ccdc_geom_bond_type
Tb0 C10 2.825 . S
Tb0 O11 2.347 . S
Tb0 O14 2.366 . S
Tb0 O19 2.418 . S
Tb0 O20 2.384 . S
Tb0 O23 2.479 . S
Tb0 O24 2.471 . S
Eu1 O12 2.418 . S
Eu1 O13 2.384 . S
Eu1 O16 2.479 . S
Eu1 O17 2.471 . S
Eu1 O18 2.347 . S
Eu1 O21 2.366 . S
Eu1 C31 2.825 . S
C2 O18 1.259 . S
C2 O19 1.265 . S
C3 O20 1.255 . S
C3 O21 1.265 . S
C4 C6 1.380 . S
C4 C7 1.374 . S
C4 C10 1.507 . S
C5 C6 1.384 . S
C5 C9 1.387 . S
C5 H32 0.930 . S
C6 C4 1.380 . S
C6 C5 1.384 . S
C6 H33 0.931 . S
C7 C4 1.374 . S
C7 C8 1.390 . S
C7 H34 0.930 . S
C8 C7 1.390 . S
C8 C9 1.391 . S
C8 H35 0.930 . S
C9 C5 1.387 . S
C9 C8 1.391 . S
C10 Tb0 2.825 . S
C10 C4 1.507 . S
C10 O23 1.238 . S
C10 O24 1.247 . S
O11 Tb0 2.347 . S
O11 C15 1.259 . S
O12 Eu1 2.418 . S
O12 C15 1.265 . S
O13 Eu1 2.384 . S
O13 C22 1.255 . S
O14 Tb0 2.366 . S
O14 C22 1.265 . S
C15 O11 1.259 . S
C15 O12 1.265 . S
O16 Eu1 2.479 . S
O16 C31 1.238 . S
O17 Eu1 2.471 . S
O17 C31 1.247 . S
O18 Eu1 2.347 . S
O18 C2 1.259 . S
O19 Tb0 2.418 . S
O19 C2 1.265 . S
O20 Tb0 2.384 . S
O20 C3 1.255 . S
O21 Eu1 2.366 . S
O21 C3 1.265 . S
C22 O13 1.255 . S
C22 O14 1.265 . S
O23 Tb0 2.479 . S
O23 C10 1.238 . S
O24 Tb0 2.471 . S
O24 C10 1.247 . S
C25 C28 1.380 . S
C25 C29 1.374 . S
C25 C31 1.507 . S
C26 C27 1.387 . S
C26 C30 1.391 . S
C27 C26 1.387 . S
C27 C28 1.384 . S
C27 H36 0.930 . S
C28 C25 1.380 . S
C28 C27 1.384 . S
C28 H37 0.931 . S
C29 C25 1.374 . S
C29 C30 1.390 . S
C29 H38 0.930 . S
C30 C26 1.391 . S
C30 C29 1.390 . S
C30 H39 0.930 . S
C31 Eu1 2.825 . S
C31 O16 1.238 . S
C31 O17 1.247 . S
C31 C25 1.507 . S
H32 C5 0.930 . S
H33 C6 0.931 . S
H34 C7 0.930 . S
H35 C8 0.930 . S
H36 C27 0.930 . S
H37 C28 0.931 . S
H38 C29 0.930 . S
H39 C30 0.930 . S
Tb40 C50 2.825 . S
Tb40 O51 2.347 . S
Tb40 O54 2.366 . S
Tb40 O59 2.418 . S
Tb40 O60 2.384 . S
Tb40 O63 2.479 . S
Tb40 O64 2.471 . S
Eu41 O52 2.418 . S
Eu41 O53 2.384 . S
Eu41 O56 2.479 . S
Eu41 O57 2.471 . S
Eu41 O58 2.347 . S
Eu41 O61 2.366 . S
Eu41 C71 2.825 . S
C42 O58 1.259 . S
C42 O59 1.265 . S
C43 O60 1.255 . S
C43 O61 1.265 . S
C44 C46 1.380 . S
C44 C47 1.374 . S
C44 C50 1.507 . S
C45 C46 1.384 . S
C45 C49 1.387 . S
C45 H72 0.930 1_655 S
C46 C44 1.380 . S
C46 C45 1.384 . S
C46 H73 0.931 . S
C47 C44 1.374 . S
C47 C48 1.390 . S
C47 H74 0.930 . S
C48 C47 1.390 . S
C48 C49 1.391 . S
C48 H75 0.930 . S
C49 C45 1.387 . S
C49 C48 1.391 . S
C50 Tb40 2.825 . S
C50 C44 1.507 . S
C50 O63 1.238 . S
C50 O64 1.247 . S
O51 Tb40 2.347 . S
O51 C55 1.259 . S
O52 Eu41 2.418 . S
O52 C55 1.265 . S
O53 Eu41 2.384 . S
O53 C62 1.255 . S
O54 Tb40 2.366 . S
O54 C62 1.265 . S
C55 O51 1.259 . S
C55 O52 1.265 . S
O56 Eu41 2.479 . S
O56 C71 1.238 . S
O57 Eu41 2.471 . S
O57 C71 1.247 . S
O58 Eu41 2.347 . S
O58 C42 1.259 . S
O59 Tb40 2.418 . S
O59 C42 1.265 . S
O60 Tb40 2.384 . S
O60 C43 1.255 . S
O61 Eu41 2.366 . S
O61 C43 1.265 . S
C62 O53 1.255 . S
C62 O54 1.265 . S
O63 Tb40 2.479 . S
O63 C50 1.238 . S
O64 Tb40 2.471 . S
O64 C50 1.247 . S
C65 C68 1.380 . S
C65 C69 1.374 . S
C65 C71 1.507 . S
C66 C67 1.387 . S
C66 C70 1.391 . S
C67 C66 1.387 . S
C67 C68 1.384 . S
C67 H76 0.930 . S
C68 C65 1.380 . S
C68 C67 1.384 . S
C68 H77 0.931 . S
C69 C65 1.374 . S
C69 C70 1.390 . S
C69 H78 0.930 . S
C70 C66 1.391 . S
C70 C69 1.390 . S
C70 H79 0.930 . S
C71 Eu41 2.825 . S
C71 O56 1.238 . S
C71 O57 1.247 . S
C71 C65 1.507 . S
H72 C45 0.930 1_455 S
H73 C46 0.931 . S
H74 C47 0.930 . S
H75 C48 0.930 . S
H76 C67 0.930 . S
H77 C68 0.931 . S
H78 C69 0.930 . S
H79 C70 0.930 . S
Tb80 C90 2.825 . S
Tb80 O91 2.347 . S
Tb80 O94 2.366 . S
Tb80 O99 2.418 . S
Tb80 O100 2.384 . S
Tb80 O103 2.479 . S
Tb80 O104 2.471 . S
Eu81 O92 2.418 . S
Eu81 O93 2.384 . S
Eu81 O96 2.479 . S
Eu81 O97 2.471 . S
Eu81 O98 2.347 . S
Eu81 O101 2.366 . S
Eu81 C111 2.825 . S
C82 O98 1.259 . S
C82 O99 1.265 . S
C83 O100 1.255 . S
C83 O101 1.265 . S
C84 C86 1.380 . S
C84 C87 1.374 . S
C84 C90 1.507 . S
C85 C86 1.384 . S
C85 C89 1.387 . S
C85 H112 0.930 1_545 S
C86 C84 1.380 . S
C86 C85 1.384 . S
C86 H113 0.931 . S
C87 C84 1.374 . S
C87 C88 1.390 . S
C87 H114 0.930 . S
C88 C87 1.390 . S
C88 C89 1.391 . S
C88 H115 0.930 . S
C89 C85 1.387 . S
C89 C88 1.391 . S
C90 Tb80 2.825 . S
C90 C84 1.507 . S
C90 O103 1.238 . S
C90 O104 1.247 . S
O91 Tb80 2.347 . S
O91 C95 1.259 . S
O92 Eu81 2.418 . S
O92 C95 1.265 . S
O93 Eu81 2.384 . S
O93 C102 1.255 . S
O94 Tb80 2.366 . S
O94 C102 1.265 . S
C95 O91 1.259 . S
C95 O92 1.265 . S
O96 Eu81 2.479 . S
O96 C111 1.238 . S
O97 Eu81 2.471 . S
O97 C111 1.247 . S
O98 Eu81 2.347 . S
O98 C82 1.259 . S
O99 Tb80 2.418 . S
O99 C82 1.265 . S
O100 Tb80 2.384 . S
O100 C83 1.255 . S
O101 Eu81 2.366 . S
O101 C83 1.265 . S
C102 O93 1.255 . S
C102 O94 1.265 . S
O103 Tb80 2.479 . S
O103 C90 1.238 . S
O104 Tb80 2.471 . S
O104 C90 1.247 . S
C105 C108 1.380 . S
C105 C109 1.374 . S
C105 C111 1.507 . S
C106 C107 1.387 . S
C106 C110 1.391 . S
C107 C106 1.387 . S
C107 C108 1.384 . S
C107 H116 0.930 . S
C108 C105 1.380 . S
C108 C107 1.384 . S
C108 H117 0.931 . S
C109 C105 1.374 . S
C109 C110 1.390 . S
C109 H118 0.930 . S
C110 C106 1.391 . S
C110 C109 1.390 . S
C110 H119 0.930 . S
C111 Eu81 2.825 . S
C111 O96 1.238 . S
C111 O97 1.247 . S
C111 C105 1.507 . S
H112 C85 0.930 1_565 S
H113 C86 0.931 . S
H114 C87 0.930 . S
H115 C88 0.930 . S
H116 C107 0.930 . S
H117 C108 0.931 . S
H118 C109 0.930 . S
H119 C110 0.930 . S
Tb120 C130 2.825 . S
Tb120 O131 2.347 . S
Tb120 O134 2.366 . S
Tb120 O139 2.418 . S
Tb120 O140 2.384 . S
Tb120 O143 2.479 . S
Tb120 O144 2.471 . S
Eu121 O132 2.418 . S
Eu121 O133 2.384 . S
Eu121 O136 2.479 . S
Eu121 O137 2.471 . S
Eu121 O138 2.347 . S
Eu121 O141 2.366 . S
Eu121 C151 2.825 . S
C122 O138 1.259 . S
C122 O139 1.265 . S
C123 O140 1.255 . S
C123 O141 1.265 . S
C124 C126 1.380 . S
C124 C127 1.374 . S
C124 C130 1.507 . S
C125 C126 1.384 . S
C125 C129 1.387 . S
C125 H152 0.930 . S
C126 C124 1.380 . S
C126 C125 1.384 . S
C126 H153 0.931 . S
C127 C124 1.374 . S
C127 C128 1.390 . S
C127 H154 0.930 . S
C128 C127 1.390 . S
C128 C129 1.391 . S
C128 H155 0.930 . S
C129 C125 1.387 . S
C129 C128 1.391 . S
C130 Tb120 2.825 . S
C130 C124 1.507 . S
C130 O143 1.238 . S
C130 O144 1.247 . S
O131 Tb120 2.347 . S
O131 C135 1.259 . S
O132 Eu121 2.418 . S
O132 C135 1.265 . S
O133 Eu121 2.384 . S
O133 C142 1.255 . S
O134 Tb120 2.366 . S
O134 C142 1.265 . S
C135 O131 1.259 . S
C135 O132 1.265 . S
O136 Eu121 2.479 . S
O136 C151 1.238 . S
O137 Eu121 2.471 . S
O137 C151 1.247 . S
O138 Eu121 2.347 . S
O138 C122 1.259 . S
O139 Tb120 2.418 . S
O139 C122 1.265 . S
O140 Tb120 2.384 . S
O140 C123 1.255 . S
O141 Eu121 2.366 . S
O141 C123 1.265 . S
C142 O133 1.255 . S
C142 O134 1.265 . S
O143 Tb120 2.479 . S
O143 C130 1.238 . S
O144 Tb120 2.471 . S
O144 C130 1.247 . S
C145 C148 1.380 . S
C145 C149 1.374 . S
C145 C151 1.507 . S
C146 C147 1.387 . S
C146 C150 1.391 . S
C147 C146 1.387 . S
C147 C148 1.384 . S
C147 H156 0.930 . S
C148 C145 1.380 . S
C148 C147 1.384 . S
C148 H157 0.931 . S
C149 C145 1.374 . S
C149 C150 1.390 . S
C149 H158 0.930 . S
C150 C146 1.391 . S
C150 C149 1.390 . S
C150 H159 0.930 . S
C151 Eu121 2.825 . S
C151 O136 1.238 . S
C151 O137 1.247 . S
C151 C145 1.507 . S
H152 C125 0.930 . S
H153 C126 0.931 . S
H154 C127 0.930 . S
H155 C128 0.930 . S
H156 C147 0.930 . S
H157 C148 0.931 . S
H158 C149 0.930 . S
H159 C150 0.930 . S
Tb160 C170 2.825 . S
Tb160 O171 2.347 . S
Tb160 O174 2.366 . S
Tb160 O179 2.418 . S
Tb160 O180 2.384 . S
Tb160 O183 2.479 . S
Tb160 O184 2.471 . S
Eu161 O172 2.418 . S
Eu161 O173 2.384 . S
Eu161 O176 2.479 . S
Eu161 O177 2.471 . S
Eu161 O178 2.347 . S
Eu161 O181 2.366 . S
Eu161 C191 2.825 . S
C162 O178 1.259 . S
C162 O179 1.265 . S
C163 O180 1.255 . S
C163 O181 1.265 . S
C164 C166 1.380 . S
C164 C167 1.374 . S
C164 C170 1.507 . S
C165 C166 1.384 . S
C165 C169 1.387 . S
C165 H192 0.930 1_455 S
C166 C164 1.380 . S
C166 C165 1.384 . S
C166 H193 0.931 . S
C167 C164 1.374 . S
C167 C168 1.390 . S
C167 H194 0.930 . S
C168 C167 1.390 . S
C168 C169 1.391 . S
C168 H195 0.930 . S
C169 C165 1.387 . S
C169 C168 1.391 . S
C170 Tb160 2.825 . S
C170 C164 1.507 . S
C170 O183 1.238 . S
C170 O184 1.247 . S
O171 Tb160 2.347 . S
O171 C175 1.259 . S
O172 Eu161 2.418 . S
O172 C175 1.265 . S
O173 Eu161 2.384 . S
O173 C182 1.255 . S
O174 Tb160 2.366 . S
O174 C182 1.265 . S
C175 O171 1.259 . S
C175 O172 1.265 . S
O176 Eu161 2.479 . S
O176 C191 1.238 . S
O177 Eu161 2.471 . S
O177 C191 1.247 . S
O178 Eu161 2.347 . S
O178 C162 1.259 . S
O179 Tb160 2.418 . S
O179 C162 1.265 . S
O180 Tb160 2.384 . S
O180 C163 1.255 . S
O181 Eu161 2.366 . S
O181 C163 1.265 . S
C182 O173 1.255 . S
C182 O174 1.265 . S
O183 Tb160 2.479 . S
O183 C170 1.238 . S
O184 Tb160 2.471 . S
O184 C170 1.247 . S
C185 C188 1.380 . S
C185 C189 1.374 . S
C185 C191 1.507 . S
C186 C187 1.387 . S
C186 C190 1.391 . S
C187 C186 1.387 . S
C187 C188 1.384 . S
C187 H196 0.930 . S
C188 C185 1.380 . S
C188 C187 1.384 . S
C188 H197 0.931 . S
C189 C185 1.374 . S
C189 C190 1.390 . S
C189 H198 0.930 . S
C190 C186 1.391 . S
C190 C189 1.390 . S
C190 H199 0.930 . S
C191 Eu161 2.825 . S
C191 O176 1.238 . S
C191 O177 1.247 . S
C191 C185 1.507 . S
H192 C165 0.930 1_655 S
H193 C166 0.931 . S
H194 C167 0.930 . S
H195 C168 0.930 . S
H196 C187 0.930 . S
H197 C188 0.931 . S
H198 C189 0.930 . S
H199 C190 0.930 . S
Tb200 C210 2.825 . S
Tb200 O211 2.347 . S
Tb200 O214 2.366 . S
Tb200 O219 2.418 . S
Tb200 O220 2.384 . S
Tb200 O223 2.479 . S
Tb200 O224 2.471 . S
Eu201 O212 2.418 . S
Eu201 O213 2.384 . S
Eu201 O216 2.479 . S
Eu201 O217 2.471 . S
Eu201 O218 2.347 . S
Eu201 O221 2.366 . S
Eu201 C231 2.825 . S
C202 O218 1.259 . S
C202 O219 1.265 . S
C203 O220 1.255 . S
C203 O221 1.265 . S
C204 C206 1.380 . S
C204 C207 1.374 . S
C204 C210 1.507 . S
C205 C206 1.384 . S
C205 C209 1.387 . S
C205 H232 0.930 1_565 S
C206 C204 1.380 . S
C206 C205 1.384 . S
C206 H233 0.931 . S
C207 C204 1.374 . S
C207 C208 1.390 . S
C207 H234 0.930 . S
C208 C207 1.390 . S
C208 C209 1.391 . S
C208 H235 0.930 . S
C209 C205 1.387 . S
C209 C208 1.391 . S
C210 Tb200 2.825 . S
C210 C204 1.507 . S
C210 O223 1.238 . S
C210 O224 1.247 . S
O211 Tb200 2.347 . S
O211 C215 1.259 . S
O212 Eu201 2.418 . S
O212 C215 1.265 . S
O213 Eu201 2.384 . S
O213 C222 1.255 . S
O214 Tb200 2.366 . S
O214 C222 1.265 . S
C215 O211 1.259 . S
C215 O212 1.265 . S
O216 Eu201 2.479 . S
O216 C231 1.238 . S
O217 Eu201 2.471 . S
O217 C231 1.247 . S
O218 Eu201 2.347 . S
O218 C202 1.259 . S
O219 Tb200 2.418 . S
O219 C202 1.265 . S
O220 Tb200 2.384 . S
O220 C203 1.255 . S
O221 Eu201 2.366 . S
O221 C203 1.265 . S
C222 O213 1.255 . S
C222 O214 1.265 . S
O223 Tb200 2.479 . S
O223 C210 1.238 . S
O224 Tb200 2.471 . S
O224 C210 1.247 . S
C225 C228 1.380 . S
C225 C229 1.374 . S
C225 C231 1.507 . S
C226 C227 1.387 . S
C226 C230 1.391 . S
C227 C226 1.387 . S
C227 C228 1.384 . S
C227 H236 0.930 . S
C228 C225 1.380 . S
C228 C227 1.384 . S
C228 H237 0.931 . S
C229 C225 1.374 . S
C229 C230 1.390 . S
C229 H238 0.930 . S
C230 C226 1.391 . S
C230 C229 1.390 . S
C230 H239 0.930 . S
C231 Eu201 2.825 . S
C231 O216 1.238 . S
C231 O217 1.247 . S
C231 C225 1.507 . S
H232 C205 0.930 1_545 S
H233 C206 0.931 . S
H234 C207 0.930 . S
H235 C208 0.930 . S
H236 C227 0.930 . S
H237 C228 0.931 . S
H238 C229 0.930 . S
H239 C230 0.930 . S
H240 C246 0.930 . S
H241 C250 0.930 . S
H242 C255 0.929 . S
H243 C253 0.929 . S
H244 C248 0.929 1_565 S
H245 C254 0.929 1_545 S
C246 H240 0.930 . S
C246 C247 1.367 . S
C246 C254 1.378 . S
C247 C246 1.367 . S
C247 C255 1.433 . S
C248 H244 0.929 1_545 S
C248 C250 1.378 . S
C248 C252 1.350 . S
C249 C252 1.463 1_566 S
C249 C254 1.350 . S
C249 N257 1.427 . S
C250 H241 0.930 . S
C250 C248 1.378 . S
C250 C251 1.367 . S
C251 C250 1.367 . S
C251 C253 1.433 . S
C252 C248 1.350 . S
C252 C249 1.463 1_544 S
C252 N256 1.427 . S
C253 H243 0.929 . S
C253 C251 1.433 . S
C253 N256 1.384 . S
C254 H245 0.929 1_565 S
C254 C246 1.378 . S
C254 C249 1.350 . S
C255 H242 0.929 . S
C255 C247 1.433 . S
C255 N257 1.384 . S
N256 C252 1.427 . S
N256 C253 1.384 . S
N257 C249 1.427 . S
N257 C255 1.384 . S
H258 C264 0.930 . S
H259 C268 0.930 . S
H260 C273 0.929 . S
H261 C271 0.929 . S
H262 C266 0.929 . S
H263 C272 0.929 . S
C264 H258 0.930 . S
C264 C265 1.367 . S
C264 C272 1.378 . S
C265 C264 1.367 . S
C265 C273 1.433 . S
C266 H262 0.929 . S
C266 C268 1.378 . S
C266 C270 1.350 . S
C267 C270 1.463 . S
C267 C272 1.350 . S
C267 N275 1.427 . S
C268 H259 0.930 . S
C268 C266 1.378 . S
C268 C269 1.367 . S
C269 C268 1.367 . S
C269 C271 1.433 . S
C270 C266 1.350 . S
C270 C267 1.463 . S
C270 N274 1.427 . S
C271 H261 0.929 . S
C271 C269 1.433 . S
C271 N274 1.384 . S
C272 H263 0.929 . S
C272 C264 1.378 . S
C272 C267 1.350 . S
C273 H260 0.929 . S
C273 C265 1.433 . S
C273 N275 1.384 . S
N274 C270 1.427 . S
N274 C271 1.384 . S
N275 C267 1.427 . S
N275 C273 1.384 . S
H276 C282 0.930 . S
H277 C286 0.930 . S
H278 C291 0.929 . S
H279 C289 0.929 . S
H280 C284 0.929 1_554 S
H281 C290 0.929 1_556 S
C282 H276 0.930 . S
C282 C283 1.367 . S
C282 C290 1.378 . S
C283 C282 1.367 . S
C283 C291 1.433 . S
C284 H280 0.929 1_556 S
C284 C286 1.378 . S
C284 C288 1.350 . S
C285 C288 1.463 1_654 S
C285 C290 1.350 . S
C285 N293 1.427 . S
C286 H277 0.930 . S
C286 C284 1.378 . S
C286 C287 1.367 . S
C287 C286 1.367 . S
C287 C289 1.433 . S
C288 C284 1.350 . S
C288 C285 1.463 1_456 S
C288 N292 1.427 . S
C289 H279 0.929 . S
C289 C287 1.433 . S
C289 N292 1.384 . S
C290 H281 0.929 1_554 S
C290 C282 1.378 . S
C290 C285 1.350 . S
C291 H278 0.929 . S
C291 C283 1.433 . S
C291 N293 1.384 . S
N292 C288 1.427 . S
N292 C289 1.384 . S
N293 C285 1.427 . S
N293 C291 1.384 . S
H294 C300 0.930 . S
H295 C304 0.930 . S
H296 C309 0.929 . S
H297 C307 0.929 . S
H298 C302 0.929 . S
H299 C308 0.929 . S
C300 H294 0.930 . S
C300 C301 1.367 . S
C300 C308 1.378 . S
C301 C300 1.367 . S
C301 C309 1.433 . S
C302 H298 0.929 . S
C302 C304 1.378 . S
C302 C306 1.350 . S
C303 C306 1.463 1_545 S
C303 C308 1.350 . S
C303 N311 1.427 . S
C304 H295 0.930 . S
C304 C302 1.378 . S
C304 C305 1.367 . S
C305 C304 1.367 . S
C305 C307 1.433 . S
C306 C302 1.350 . S
C306 C303 1.463 1_565 S
C306 N310 1.427 . S
C307 H297 0.929 . S
C307 C305 1.433 . S
C307 N310 1.384 . S
C308 H299 0.929 . S
C308 C300 1.378 . S
C308 C303 1.350 . S
C309 H296 0.929 . S
C309 C301 1.433 . S
C309 N311 1.384 . S
N310 C306 1.427 . S
N310 C307 1.384 . S
N311 C303 1.427 . S
N311 C309 1.384 . S
H312 C318 0.930 . S
H313 C322 0.930 . S
H314 C327 0.929 . S
H315 C325 0.929 . S
H316 C320 0.929 . S
H317 C326 0.929 . S
C318 H312 0.930 . S
C318 C319 1.367 . S
C318 C326 1.378 . S
C319 C318 1.367 . S
C319 C327 1.433 . S
C320 H316 0.929 . S
C320 C322 1.378 . S
C320 C324 1.350 . S
C321 C324 1.463 1_556 S
C321 C326 1.350 . S
C321 N329 1.427 . S
C322 H313 0.930 . S
C322 C320 1.378 . S
C322 C323 1.367 . S
C323 C322 1.367 . S
C323 C325 1.433 . S
C324 C320 1.350 . S
C324 C321 1.463 1_554 S
C324 N328 1.427 . S
C325 H315 0.929 . S
C325 C323 1.433 . S
C325 N328 1.384 . S
C326 H317 0.929 . S
C326 C318 1.378 . S
C326 C321 1.350 . S
C327 H314 0.929 . S
C327 C319 1.433 . S
C327 N329 1.384 . S
N328 C324 1.427 . S
N328 C325 1.384 . S
N329 C321 1.427 . S
N329 C327 1.384 . S
H330 C336 0.930 . S
H331 C340 0.930 . S
H332 C345 0.929 . S
H333 C343 0.929 . S
H334 C338 0.929 1_655 S
H335 C344 0.929 1_455 S
C336 H330 0.930 . S
C336 C337 1.367 . S
C336 C344 1.378 . S
C337 C336 1.367 . S
C337 C345 1.433 . S
C338 H334 0.929 1_455 S
C338 C340 1.378 . S
C338 C342 1.350 . S
C339 C342 1.463 1_655 S
C339 C344 1.350 . S
C339 N347 1.427 . S
C340 H331 0.930 . S
C340 C338 1.378 . S
C340 C341 1.367 . S
C341 C340 1.367 . S
C341 C343 1.433 . S
C342 C338 1.350 . S
C342 C339 1.463 1_455 S
C342 N346 1.427 . S
C343 H333 0.929 . S
C343 C341 1.433 . S
C343 N346 1.384 . S
C344 H335 0.929 1_655 S
C344 C336 1.378 . S
C344 C339 1.350 . S
C345 H332 0.929 . S
C345 C337 1.433 . S
C345 N347 1.384 . S
N346 C342 1.427 . S
N346 C343 1.384 . S
N347 C339 1.427 . S
N347 C345 1.384 . S
H348 C354 0.930 . S
H349 C358 0.930 . S
H350 C363 0.929 . S
H351 C361 0.929 . S
H352 C356 0.929 . S
H353 C362 0.929 . S
C354 H348 0.930 . S
C354 C355 1.367 . S
C354 C362 1.378 . S
C355 C354 1.367 . S
C355 C363 1.433 . S
C356 H352 0.929 . S
C356 C358 1.378 . S
C356 C360 1.350 . S
C357 C360 1.463 . S
C357 C362 1.350 . S
C357 N365 1.427 . S
C358 H349 0.930 . S
C358 C356 1.378 . S
C358 C359 1.367 . S
C359 C358 1.367 . S
C359 C361 1.433 . S
C360 C356 1.350 . S
C360 C357 1.463 . S
C360 N364 1.427 . S
C361 H351 0.929 . S
C361 C359 1.433 . S
C361 N364 1.384 . S
C362 H353 0.929 . S
C362 C354 1.378 . S
C362 C357 1.350 . S
C363 H350 0.929 . S
C363 C355 1.433 . S
C363 N365 1.384 . S
N364 C360 1.427 . S
N364 C361 1.384 . S
N365 C357 1.427 . S
N365 C363 1.384 . S
H366 C372 0.930 . S
H367 C376 0.930 . S
H368 C381 0.929 . S
H369 C379 0.929 . S
H370 C374 0.929 . S
H371 C380 0.929 . S
C372 H366 0.930 . S
C372 C373 1.367 . S
C372 C380 1.378 . S
C373 C372 1.367 . S
C373 C381 1.433 . S
C374 H370 0.929 . S
C374 C376 1.378 . S
C374 C378 1.350 . S
C375 C378 1.463 . S
C375 C380 1.350 . S
C375 N383 1.427 . S
C376 H367 0.930 . S
C376 C374 1.378 . S
C376 C377 1.367 . S
C377 C376 1.367 . S
C377 C379 1.433 . S
C378 C374 1.350 . S
C378 C375 1.463 . S
C378 N382 1.427 . S
C379 H369 0.929 . S
C379 C377 1.433 . S
C379 N382 1.384 . S
C380 H371 0.929 . S
C380 C372 1.378 . S
C380 C375 1.350 . S
C381 H368 0.929 . S
C381 C373 1.433 . S
C381 N383 1.384 . S
N382 C378 1.427 . S
N382 C379 1.384 . S
N383 C375 1.427 . S
N383 C381 1.384 . S
H384 C390 0.930 . S
H385 C394 0.930 . S
H386 C399 0.929 . S
H387 C397 0.929 . S
H388 C392 0.929 . S
H389 C398 0.929 . S
C390 H384 0.930 . S
C390 C391 1.367 . S
C390 C398 1.378 . S
C391 C390 1.367 . S
C391 C399 1.433 . S
C392 H388 0.929 . S
C392 C394 1.378 . S
C392 C396 1.350 . S
C393 C396 1.463 . S
C393 C398 1.350 . S
C393 N401 1.427 . S
C394 H385 0.930 . S
C394 C392 1.378 . S
C394 C395 1.367 . S
C395 C394 1.367 . S
C395 C397 1.433 . S
C396 C392 1.350 . S
C396 C393 1.463 . S
C396 N400 1.427 . S
C397 H387 0.929 . S
C397 C395 1.433 . S
C397 N400 1.384 . S
C398 H389 0.929 . S
C398 C390 1.378 . S
C398 C393 1.350 . S
C399 H386 0.929 . S
C399 C391 1.433 . S
C399 N401 1.384 . S
N400 C396 1.427 . S
N400 C397 1.384 . S
N401 C393 1.427 . S
N401 C399 1.384 . S
H402 C408 0.930 . S
H403 C412 0.930 . S
H404 C417 0.929 . S
H405 C415 0.929 . S
H406 C410 0.929 . S
H407 C416 0.929 . S
C408 H402 0.930 . S
C408 C409 1.367 . S
C408 C416 1.378 . S
C409 C408 1.367 . S
C409 C417 1.433 . S
C410 H406 0.929 . S
C410 C412 1.378 . S
C410 C414 1.350 . S
C411 C414 1.463 . S
C411 C416 1.350 . S
C411 N419 1.427 . S
C412 H403 0.930 . S
C412 C410 1.378 . S
C412 C413 1.367 . S
C413 C412 1.367 . S
C413 C415 1.433 . S
C414 C410 1.350 . S
C414 C411 1.463 . S
C414 N418 1.427 . S
C415 H405 0.929 . S
C415 C413 1.433 . S
C415 N418 1.384 . S
C416 H407 0.929 . S
C416 C408 1.378 . S
C416 C411 1.350 . S
C417 H404 0.929 . S
C417 C409 1.433 . S
C417 N419 1.384 . S
N418 C414 1.427 . S
N418 C415 1.384 . S
N419 C411 1.427 . S
N419 C417 1.384 . S
H420 C426 0.930 . S
H421 C430 0.930 . S
H422 C435 0.929 . S
H423 C433 0.929 . S
H424 C428 0.929 . S
H425 C434 0.929 . S
C426 H420 0.930 . S
C426 C427 1.367 . S
C426 C434 1.378 . S
C427 C426 1.367 . S
C427 C435 1.433 . S
C428 H424 0.929 . S
C428 C430 1.378 . S
C428 C432 1.350 . S
C429 C432 1.463 . S
C429 C434 1.350 . S
C429 N437 1.427 . S
C430 H421 0.930 . S
C430 C428 1.378 . S
C430 C431 1.367 . S
C431 C430 1.367 . S
C431 C433 1.433 . S
C432 C428 1.350 . S
C432 C429 1.463 . S
C432 N436 1.427 . S
C433 H423 0.929 . S
C433 C431 1.433 . S
C433 N436 1.384 . S
C434 H425 0.929 . S
C434 C426 1.378 . S
C434 C429 1.350 . S
C435 H422 0.929 . S
C435 C427 1.433 . S
C435 N437 1.384 . S
N436 C432 1.427 . S
N436 C433 1.384 . S
N437 C429 1.427 . S
N437 C435 1.384 . S
H438 C444 0.930 . S
H439 C448 0.930 . S
H440 C453 0.929 . S
H441 C451 0.929 . S
H442 C446 0.929 . S
H443 C452 0.929 . S
C444 H438 0.930 . S
C444 C445 1.367 . S
C444 C452 1.378 . S
C445 C444 1.367 . S
C445 C453 1.433 . S
C446 H442 0.929 . S
C446 C448 1.378 . S
C446 C450 1.350 . S
C447 C450 1.463 . S
C447 C452 1.350 . S
C447 N455 1.427 . S
C448 H439 0.930 . S
C448 C446 1.378 . S
C448 C449 1.367 . S
C449 C448 1.367 . S
C449 C451 1.433 . S
C450 C446 1.350 . S
C450 C447 1.463 . S
C450 N454 1.427 . S
C451 H441 0.929 . S
C451 C449 1.433 . S
C451 N454 1.384 . S
C452 H443 0.929 . S
C452 C444 1.378 . S
C452 C447 1.350 . S
C453 H440 0.929 . S
C453 C445 1.433 . S
C453 N455 1.384 . S
N454 C450 1.427 . S
N454 C451 1.384 . S
N455 C447 1.427 . S
N455 C453 1.384 . S
H456 C462 0.930 . S
H457 C466 0.930 . S
H458 C471 0.929 . S
H459 C469 0.929 . S
H460 C464 0.929 . S
H461 C470 0.929 . S
C462 H456 0.930 . S
C462 C463 1.367 . S
C462 C470 1.378 . S
C463 C462 1.367 . S
C463 C471 1.433 . S
C464 H460 0.929 . S
C464 C466 1.378 . S
C464 C468 1.350 . S
C465 C468 1.463 . S
C465 C470 1.350 . S
C465 N473 1.427 . S
C466 H457 0.930 . S
C466 C464 1.378 . S
C466 C467 1.367 1_455 S
C467 C466 1.367 1_655 S
C467 C469 1.433 . S
C468 C464 1.350 . S
C468 C465 1.463 . S
C468 N472 1.427 1_455 S
C469 H459 0.929 . S
C469 C467 1.433 . S
C469 N472 1.384 . S
C470 H461 0.929 . S
C470 C462 1.378 . S
C470 C465 1.350 . S
C471 H458 0.929 . S
C471 C463 1.433 . S
C471 N473 1.384 . S
N472 C468 1.427 1_655 S
N472 C469 1.384 . S
N473 C465 1.427 . S
N473 C471 1.384 . S
H474 C480 0.930 . S
H475 C484 0.930 . S
H476 C489 0.929 . S
H477 C487 0.929 . S
H478 C482 0.929 . S
H479 C488 0.929 . S
C480 H474 0.930 . S
C480 C481 1.367 . S
C480 C488 1.378 . S
C481 C480 1.367 . S
C481 C489 1.433 . S
C482 H478 0.929 . S
C482 C484 1.378 . S
C482 C486 1.350 . S
C483 C486 1.463 . S
C483 C488 1.350 . S
C483 N491 1.427 . S
C484 H475 0.930 . S
C484 C482 1.378 . S
C484 C485 1.367 1_565 S
C485 C484 1.367 1_545 S
C485 C487 1.433 . S
C486 C482 1.350 . S
C486 C483 1.463 . S
C486 N490 1.436 . S
C487 H477 0.929 . S
C487 C485 1.433 . S
C487 N490 1.385 1_545 S
C488 H479 0.929 . S
C488 C480 1.378 . S
C488 C483 1.350 . S
C489 H476 0.929 . S
C489 C481 1.433 . S
C489 N491 1.384 . S
N490 C486 1.436 . S
N490 C487 1.385 1_565 S
N491 C483 1.427 . S
N491 C489 1.384 . S
H492 C498 0.930 . S
H493 C502 0.930 . S
H494 C507 0.929 . S
H495 C505 0.929 . S
H496 C500 0.929 . S
H497 C506 0.929 . S
C498 H492 0.930 . S
C498 C499 1.367 . S
C498 C506 1.378 . S
C499 C498 1.367 . S
C499 C507 1.433 . S
C500 H496 0.929 . S
C500 C502 1.378 . S
C500 C504 1.350 . S
C501 C504 1.463 . S
C501 C506 1.350 . S
C501 N509 1.427 . S
C502 H493 0.930 . S
C502 C500 1.378 . S
C502 C503 1.367 . S
C503 C502 1.367 . S
C503 C505 1.433 . S
C504 C500 1.350 . S
C504 C501 1.463 . S
C504 N508 1.427 . S
C505 H495 0.929 . S
C505 C503 1.433 . S
C505 N508 1.384 . S
C506 H497 0.929 . S
C506 C498 1.378 . S
C506 C501 1.350 . S
C507 H494 0.929 . S
C507 C499 1.433 . S
C507 N509 1.384 . S
N508 C504 1.427 . S
N508 C505 1.384 . S
N509 C501 1.427 . S
N509 C507 1.384 . S
H510 C516 0.930 . S
H511 C520 0.930 . S
H512 C525 0.929 . S
H513 C523 0.929 . S
H514 C518 0.929 . S
H515 C524 0.929 1_565 S
C516 H510 0.930 . S
C516 C517 1.367 . S
C516 C524 1.378 . S
C517 C516 1.367 . S
C517 C525 1.433 . S
C518 H514 0.929 . S
C518 C520 1.378 . S
C518 C522 1.350 . S
C519 C522 1.463 . S
C519 C524 1.350 . S
C519 N527 1.427 . S
C520 H511 0.930 . S
C520 C518 1.378 . S
C520 C521 1.367 1_545 S
C521 C520 1.367 1_565 S
C521 C523 1.433 . S
C522 C518 1.350 . S
C522 C519 1.463 . S
C522 N526 1.427 1_545 S
C523 H513 0.929 . S
C523 C521 1.433 . S
C523 N526 1.384 . S
C524 H515 0.929 1_545 S
C524 C516 1.378 . S
C524 C519 1.350 . S
C525 H512 0.929 . S
C525 C517 1.433 . S
C525 N527 1.384 . S
N526 C522 1.427 1_565 S
N526 C523 1.384 . S
N527 C519 1.427 . S
N527 C525 1.384 . S
H528 C534 0.930 . S
H529 C538 0.930 . S
H530 C543 0.929 . S
H531 C541 0.929 . S
H532 C536 0.929 . S
H533 C542 0.929 . S
C534 H528 0.930 . S
C534 C535 1.367 . S
C534 C542 1.378 . S
C535 C534 1.367 . S
C535 C543 1.433 . S
C536 H532 0.929 . S
C536 C538 1.378 . S
C536 C540 1.350 . S
C537 C540 1.463 . S
C537 C542 1.350 . S
C537 N545 1.427 . S
C538 H529 0.930 . S
C538 C536 1.378 . S
C538 C539 1.367 . S
C539 C538 1.367 . S
C539 C541 1.433 . S
C540 C536 1.350 . S
C540 C537 1.463 . S
C540 N544 1.427 . S
C541 H531 0.929 . S
C541 C539 1.433 . S
C541 N544 1.384 . S
C542 H533 0.929 . S
C542 C534 1.378 . S
C542 C537 1.350 . S
C543 H530 0.929 . S
C543 C535 1.433 . S
C543 N545 1.384 . S
N544 C540 1.427 . S
N544 C541 1.384 . S
N545 C537 1.427 . S
N545 C543 1.384 . S
H546 C552 0.930 . S
H547 C556 0.930 . S
H548 C561 0.929 . S
H549 C559 0.929 . S
H550 C554 0.929 . S
H551 C560 0.929 . S
C552 H546 0.930 . S
C552 C553 1.367 . S
C552 C560 1.378 . S
C553 C552 1.367 . S
C553 C561 1.433 1_455 S
C554 H550 0.929 . S
C554 C556 1.378 . S
C554 C558 1.350 . S
C555 C558 1.463 . S
C555 C560 1.350 1_655 S
C555 N563 1.427 . S
C556 H547 0.930 . S
C556 C554 1.378 . S
C556 C557 1.367 . S
C557 C556 1.367 . S
C557 C559 1.433 . S
C558 C554 1.350 . S
C558 C555 1.463 . S
C558 N562 1.427 . S
C559 H549 0.929 . S
C559 C557 1.433 . S
C559 N562 1.384 . S
C560 H551 0.929 . S
C560 C552 1.378 . S
C560 C555 1.350 1_455 S
C561 H548 0.929 . S
C561 C553 1.433 1_655 S
C561 N563 1.384 . S
N562 C558 1.427 . S
N562 C559 1.384 . S
N563 C555 1.427 . S
N563 C561 1.384 . S
C247 C175 2.395 . S
C251 C15 2.394 . S
C265 C202 2.445 . S
C269 C42 2.450 . S
C283 C95 2.403 . S
C287 C135 2.408 . S
C301 C2 2.448 . S
C305 C162 2.454 . S
C319 C215 2.395 . S
C323 C55 2.394 . S
C337 C82 2.447 . S
C341 C122 2.445 . S
C355 C26 1.918 . S
C359 C83 1.872 . S
C373 C66 1.924 . S
C377 C3 1.879 . S
C391 C106 1.917 . S
C395 C43 1.869 . S
C409 C146 1.918 . S
C413 C163 1.871 . S
C427 C186 1.919 . S
C431 C203 1.869 . S
C445 C123 1.877 . S
C449 C226 1.920 . S
C463 C9 1.192 . S
C467 C102 1.252 . S
C481 C49 1.190 1_455 S
C485 C22 1.251 . S
C499 C89 1.170 1_565 S
C503 C62 1.239 . S
C517 C129 1.195 . S
C521 C182 1.254 . S
C535 C169 1.192 1_655 S
C539 C222 1.252 . S
C553 C142 1.238 . S
C557 C209 1.169 1_545 S
