# Generated by pormake.
# Topology ukb, (4)-cn, num edge types: 1
# Building blocks:
#     Node 0, Type 0, BuildingBlock: GALJAG_clean_sbu_0, # of connection points: 4
#     Node 1, Type 0, BuildingBlock: GALJAG_clean_sbu_0, # of connection points: 4
#     Node 2, Type 0, BuildingBlock: GALJAG_clean_sbu_0, # of connection points: 4
#     Node 3, Type 0, BuildingBlock: GALJAG_clean_sbu_0, # of connection points: 4
#     Node 4, Type 0, BuildingBlock: GALJAG_clean_sbu_0, # of connection points: 4
#     Node 5, Type 0, BuildingBlock: GALJAG_clean_sbu_0, # of connection points: 4
#     Node 6, Type 0, BuildingBlock: GALJAG_clean_sbu_0, # of connection points: 4
#     Node 7, Type 0, BuildingBlock: GALJAG_clean_sbu_0, # of connection points: 4
#     Node 8, Type 0, BuildingBlock: GALJAG_clean_sbu_0, # of connection points: 4
#     Node 9, Type 0, BuildingBlock: GALJAG_clean_sbu_0, # of connection points: 4
#     Node 10, Type 0, BuildingBlock: GALJAG_clean_sbu_0, # of connection points: 4
#     Node 11, Type 0, BuildingBlock: GALJAG_clean_sbu_0, # of connection points: 4
#     Node 12, Type 0, BuildingBlock: GALJAG_clean_sbu_0, # of connection points: 4
#     Node 13, Type 0, BuildingBlock: GALJAG_clean_sbu_0, # of connection points: 4
#     Node 14, Type 0, BuildingBlock: GALJAG_clean_sbu_0, # of connection points: 4
#     Node 15, Type 0, BuildingBlock: GALJAG_clean_sbu_0, # of connection points: 4
#     Edge 16, Type (0, 0), BuildingBlock: EYOCIG_clean_linker_4, # of connection points: 2
#     Edge 17, Type (0, 0), BuildingBlock: EYOCIG_clean_linker_4, # of connection points: 2
#     Edge 18, Type (0, 0), BuildingBlock: EYOCIG_clean_linker_4, # of connection points: 2
#     Edge 19, Type (0, 0), BuildingBlock: EYOCIG_clean_linker_4, # of connection points: 2
#     Edge 20, Type (0, 0), BuildingBlock: EYOCIG_clean_linker_4, # of connection points: 2
#     Edge 21, Type (0, 0), BuildingBlock: EYOCIG_clean_linker_4, # of connection points: 2
#     Edge 22, Type (0, 0), BuildingBlock: EYOCIG_clean_linker_4, # of connection points: 2
#     Edge 23, Type (0, 0), BuildingBlock: EYOCIG_clean_linker_4, # of connection points: 2
#     Edge 24, Type (0, 0), BuildingBlock: EYOCIG_clean_linker_4, # of connection points: 2
#     Edge 25, Type (0, 0), BuildingBlock: EYOCIG_clean_linker_4, # of connection points: 2
#     Edge 26, Type (0, 0), BuildingBlock: EYOCIG_clean_linker_4, # of connection points: 2
#     Edge 27, Type (0, 0), BuildingBlock: EYOCIG_clean_linker_4, # of connection points: 2
#     Edge 28, Type (0, 0), BuildingBlock: EYOCIG_clean_linker_4, # of connection points: 2
#     Edge 29, Type (0, 0), BuildingBlock: EYOCIG_clean_linker_4, # of connection points: 2
#     Edge 30, Type (0, 0), BuildingBlock: EYOCIG_clean_linker_4, # of connection points: 2
#     Edge 31, Type (0, 0), BuildingBlock: EYOCIG_clean_linker_4, # of connection points: 2
#     Edge 32, Type (0, 0), BuildingBlock: EYOCIG_clean_linker_4, # of connection points: 2
#     Edge 33, Type (0, 0), BuildingBlock: EYOCIG_clean_linker_4, # of connection points: 2
#     Edge 34, Type (0, 0), BuildingBlock: EYOCIG_clean_linker_4, # of connection points: 2
#     Edge 35, Type (0, 0), BuildingBlock: EYOCIG_clean_linker_4, # of connection points: 2
#     Edge 36, Type (0, 0), BuildingBlock: EYOCIG_clean_linker_4, # of connection points: 2
#     Edge 37, Type (0, 0), BuildingBlock: EYOCIG_clean_linker_4, # of connection points: 2
#     Edge 38, Type (0, 0), BuildingBlock: EYOCIG_clean_linker_4, # of connection points: 2
#     Edge 39, Type (0, 0), BuildingBlock: EYOCIG_clean_linker_4, # of connection points: 2
#     Edge 40, Type (0, 0), BuildingBlock: EYOCIG_clean_linker_4, # of connection points: 2
#     Edge 41, Type (0, 0), BuildingBlock: EYOCIG_clean_linker_4, # of connection points: 2
#     Edge 42, Type (0, 0), BuildingBlock: EYOCIG_clean_linker_4, # of connection points: 2
#     Edge 43, Type (0, 0), BuildingBlock: EYOCIG_clean_linker_4, # of connection points: 2
#     Edge 44, Type (0, 0), BuildingBlock: EYOCIG_clean_linker_4, # of connection points: 2
#     Edge 45, Type (0, 0), BuildingBlock: EYOCIG_clean_linker_4, # of connection points: 2
#     Edge 46, Type (0, 0), BuildingBlock: EYOCIG_clean_linker_4, # of connection points: 2
#     Edge 47, Type (0, 0), BuildingBlock: EYOCIG_clean_linker_4, # of connection points: 2
# Relax obj value: 0.140
# Max RMSD: 0.093
# Mean RMSD: 0.093
data_MOF--net-ukb--node1-GALJAG_clean_sbu_0--edge1-EYOCIG_clean_linker_4
_symmetry_space_group_name_H-M    P1
_symmetry_Int_Tables_number       1
_symmetry_cell_setting            triclinic
loop_
_symmetry_equiv_pos_as_xyz
'x, y, z'
_cell_length_a     35.142441
_cell_length_b     35.175949
_cell_length_c     30.203385
_cell_angle_alpha  90.03177
_cell_angle_beta   90.001278
_cell_angle_gamma 89.99069
loop_
_atom_site_label
_atom_site_type_symbol
_atom_site_fract_x
_atom_site_fract_y
_atom_site_fract_z
_atom_type_partial_charge
In0 In 0.52628 0.20209 0.18453 0.0
O1 O 0.5722 0.15778 0.17081 0.0
O2 O 0.5619 0.17313 0.23804 0.0
C3 C 0.51022 0.2222 0.10056 0.0
C4 C 0.46501 0.16295 0.21235 0.0
C5 C 0.554 0.26892 0.21355 0.0
O6 O 0.53754 0.20058 0.11027 0.0
O7 O 0.49036 0.23333 0.13281 0.0
O8 O 0.52156 0.25713 0.22505 0.0
O9 O 0.57225 0.24732 0.18802 0.0
C10 C 0.58061 0.15321 0.21102 0.0
O11 O 0.47562 0.19317 0.23114 0.0
O12 O 0.48458 0.15287 0.17946 0.0
In13 In 0.29846 0.52623 0.68436 0.0
O14 O 0.30733 0.47556 0.73094 0.0
O15 O 0.3478 0.4846 0.67948 0.0
C16 C 0.23125 0.55362 0.71297 0.0
C17 C 0.34716 0.58049 0.71155 0.0
C18 C 0.27904 0.5107 0.59996 0.0
O19 O 0.2429 0.52102 0.72397 0.0
O20 O 0.25317 0.57217 0.68814 0.0
O21 O 0.30045 0.53804 0.61021 0.0
O22 O 0.26778 0.49058 0.63189 0.0
C23 C 0.33766 0.46501 0.71229 0.0
O24 O 0.3428 0.57221 0.67126 0.0
O25 O 0.3271 0.56169 0.73832 0.0
In26 In 0.97461 0.29744 0.18479 0.0
O27 O 0.02616 0.3071 0.22984 0.0
O28 O 0.01524 0.34748 0.1788 0.0
C29 C 0.94771 0.23058 0.21486 0.0
C30 C 0.92014 0.34587 0.21208 0.0
C31 C 0.99022 0.27726 0.10068 0.0
O32 O 0.98004 0.24288 0.2261 0.0
O33 O 0.92922 0.25167 0.18901 0.0
O34 O 0.96278 0.29868 0.11062 0.0
O35 O 0.01035 0.26632 0.13276 0.0
C36 C 0.03576 0.33762 0.21098 0.0
O37 O 0.92761 0.34073 0.1717 0.0
O38 O 0.93982 0.32671 0.23888 0.0
In39 In 0.20272 0.97394 0.68482 0.0
O40 O 0.19321 0.02517 0.73031 0.0
O41 O 0.15282 0.01475 0.67906 0.0
C42 C 0.26958 0.9468 0.71467 0.0
C43 C 0.15404 0.91982 0.71216 0.0
C44 C 0.22296 0.98957 0.60077 0.0
O45 O 0.25757 0.97927 0.72569 0.0
O46 O 0.24821 0.92828 0.68915 0.0
O47 O 0.20161 0.96208 0.61065 0.0
O48 O 0.23377 0.00975 0.63288 0.0
C49 C 0.16271 0.03497 0.71148 0.0
O50 O 0.15901 0.92736 0.67177 0.0
O51 O 0.17352 0.93924 0.73892 0.0
In52 In 0.52656 0.29826 0.8065 0.0
O53 O 0.57329 0.3418 0.81973 0.0
O54 O 0.56168 0.32728 0.75254 0.0
C55 C 0.51058 0.27849 0.8906 0.0
C56 C 0.46523 0.33785 0.77961 0.0
C57 C 0.55392 0.23126 0.77733 0.0
O58 O 0.53785 0.30013 0.88076 0.0
O59 O 0.49078 0.26714 0.85842 0.0
O60 O 0.52165 0.24338 0.76562 0.0
O61 O 0.57215 0.2526 0.80317 0.0
C62 C 0.58111 0.34666 0.7794 0.0
O63 O 0.47525 0.30739 0.76088 0.0
O64 O 0.48545 0.34798 0.81194 0.0
In65 In 0.20294 0.52619 0.30544 0.0
O66 O 0.1934 0.47568 0.25881 0.0
O67 O 0.15359 0.48465 0.31101 0.0
C68 C 0.26988 0.55325 0.27566 0.0
C69 C 0.15386 0.58037 0.27905 0.0
C70 C 0.22315 0.51077 0.38961 0.0
O71 O 0.25815 0.52055 0.26524 0.0
O72 O 0.24818 0.57207 0.30051 0.0
O73 O 0.20205 0.53839 0.37955 0.0
O74 O 0.23373 0.49033 0.35761 0.0
C75 C 0.16327 0.46515 0.27791 0.0
O76 O 0.15867 0.57211 0.31926 0.0
O77 O 0.17367 0.56162 0.25197 0.0
In78 In 0.97437 0.20256 0.80589 0.0
O79 O 0.92739 0.15924 0.81874 0.0
O80 O 0.93925 0.17388 0.75166 0.0
C81 C 0.99009 0.22187 0.89025 0.0
C82 C 0.03517 0.16233 0.7788 0.0
C83 C 0.94814 0.26994 0.77661 0.0
O84 O 0.96228 0.20106 0.87999 0.0
O85 O 0.01053 0.23263 0.85836 0.0
O86 O 0.98054 0.25765 0.7657 0.0
O87 O 0.92921 0.24858 0.80172 0.0
C88 C 0.91971 0.15448 0.77835 0.0
O89 O 0.02543 0.1929 0.76013 0.0
O90 O 0.01498 0.15245 0.81124 0.0
In91 In 0.2987 0.97394 0.30633 0.0
O92 O 0.34265 0.9275 0.319 0.0
O93 O 0.32783 0.93932 0.25197 0.0
C94 C 0.27915 0.98953 0.39063 0.0
C95 C 0.3379 0.03547 0.27956 0.0
C96 C 0.23164 0.94641 0.27745 0.0
O97 O 0.30077 0.96231 0.38051 0.0
O98 O 0.26772 0.00947 0.35863 0.0
O99 O 0.24352 0.97878 0.26593 0.0
O100 O 0.25327 0.92814 0.30292 0.0
C101 C 0.34746 0.91993 0.27859 0.0
O102 O 0.30742 0.02536 0.2609 0.0
O103 O 0.34822 0.01525 0.31177 0.0
In104 In 0.47462 0.79783 0.8059 0.0
O105 O 0.52537 0.8073 0.75957 0.0
O106 O 0.51558 0.84769 0.81095 0.0
C107 C 0.44763 0.73076 0.7765 0.0
C108 C 0.41991 0.84624 0.77937 0.0
C109 C 0.49079 0.77809 0.89001 0.0
O110 O 0.48004 0.74284 0.7653 0.0
O111 O 0.42909 0.75216 0.80197 0.0
O112 O 0.46311 0.7992 0.88013 0.0
O113 O 0.5109 0.76724 0.85785 0.0
C114 C 0.53545 0.83777 0.77823 0.0
O115 O 0.42811 0.84149 0.81961 0.0
O116 O 0.439 0.82671 0.75233 0.0
In117 In 0.70275 0.47367 0.30595 0.0
O118 O 0.6591 0.42702 0.31867 0.0
O119 O 0.67414 0.43864 0.25164 0.0
C120 C 0.72225 0.48904 0.39033 0.0
C121 C 0.66281 0.53467 0.27882 0.0
C122 C 0.76992 0.44662 0.27685 0.0
O123 O 0.7008 0.46174 0.38006 0.0
O124 O 0.7335 0.50921 0.35844 0.0
O125 O 0.75807 0.47917 0.26594 0.0
O126 O 0.74823 0.42799 0.30188 0.0
C127 C 0.65454 0.41924 0.27828 0.0
O128 O 0.6934 0.5248 0.26022 0.0
O129 O 0.65279 0.51453 0.31123 0.0
In130 In 0.02652 0.70253 0.80554 0.0
O131 O 0.07283 0.65838 0.8179 0.0
O132 O 0.06164 0.67419 0.75104 0.0
C133 C 0.01163 0.72161 0.89019 0.0
C134 C 0.96518 0.66326 0.77809 0.0
C135 C 0.05334 0.76984 0.77688 0.0
O136 O 0.03901 0.70037 0.87956 0.0
O137 O 0.99116 0.73285 0.85854 0.0
O138 O 0.02068 0.75809 0.76621 0.0
O139 O 0.07223 0.74798 0.80143 0.0
C140 C 0.08077 0.65416 0.77751 0.0
O141 O 0.97543 0.6937 0.75954 0.0
O142 O 0.98513 0.65304 0.81059 0.0
In143 In 0.79805 0.02599 0.30556 0.0
O144 O 0.80758 0.97552 0.25887 0.0
O145 O 0.84754 0.98457 0.31089 0.0
C146 C 0.73104 0.0529 0.27579 0.0
C147 C 0.84689 0.08049 0.27941 0.0
C148 C 0.77782 0.01016 0.38962 0.0
O149 O 0.74307 0.0204 0.26495 0.0
O150 O 0.75247 0.07159 0.30108 0.0
O151 O 0.79895 0.0378 0.37974 0.0
O152 O 0.76722 0.98989 0.35749 0.0
C153 C 0.83778 0.96505 0.27784 0.0
O154 O 0.84212 0.07207 0.31958 0.0
O155 O 0.82718 0.06172 0.25225 0.0
In156 In 0.47463 0.70246 0.18421 0.0
O157 O 0.42799 0.65892 0.17061 0.0
O158 O 0.43925 0.67343 0.23789 0.0
C159 C 0.4907 0.7224 0.10017 0.0
C160 C 0.53545 0.66224 0.21138 0.0
C161 C 0.44784 0.76963 0.2136 0.0
O162 O 0.46297 0.70135 0.11001 0.0
O163 O 0.51091 0.73308 0.13232 0.0
O164 O 0.48028 0.75752 0.22466 0.0
O165 O 0.42915 0.74817 0.18835 0.0
C166 C 0.42001 0.654 0.21089 0.0
O167 O 0.52533 0.69251 0.23048 0.0
O168 O 0.51563 0.65268 0.17848 0.0
In169 In 0.79864 0.47401 0.68483 0.0
O170 O 0.80782 0.52527 0.73042 0.0
O171 O 0.84789 0.51559 0.67866 0.0
C172 C 0.7318 0.44673 0.71467 0.0
C173 C 0.84779 0.42016 0.71197 0.0
C174 C 0.77835 0.48905 0.60063 0.0
O175 O 0.74365 0.4793 0.72551 0.0
O176 O 0.75335 0.42815 0.68941 0.0
O177 O 0.79993 0.4618 0.61073 0.0
O178 O 0.76731 0.50928 0.63259 0.0
C179 C 0.83798 0.53561 0.71124 0.0
O180 O 0.84276 0.42782 0.67163 0.0
O181 O 0.82817 0.43937 0.73882 0.0
In182 In 0.02674 0.79759 0.18501 0.0
O183 O 0.07367 0.84102 0.1724 0.0
O184 O 0.06146 0.82653 0.23943 0.0
C185 C 0.01187 0.77747 0.10069 0.0
C186 C 0.96543 0.83766 0.21095 0.0
C187 C 0.05315 0.73051 0.21494 0.0
O188 O 0.03925 0.79884 0.11098 0.0
O189 O 0.99141 0.7666 0.13252 0.0
O190 O 0.02067 0.74274 0.22567 0.0
O191 O 0.07205 0.7518 0.18973 0.0
C192 C 0.08115 0.84588 0.21282 0.0
O193 O 0.97521 0.80731 0.23006 0.0
O194 O 0.98585 0.84741 0.17866 0.0
In195 In 0.70251 0.02649 0.68415 0.0
O196 O 0.69335 0.97502 0.72938 0.0
O197 O 0.65244 0.98583 0.67883 0.0
C198 C 0.76962 0.05367 0.71328 0.0
C199 C 0.6543 0.08093 0.712 0.0
C200 C 0.72203 0.01066 0.59988 0.0
O201 O 0.75752 0.02137 0.72481 0.0
O202 O 0.74821 0.07199 0.68761 0.0
O203 O 0.70051 0.03798 0.60993 0.0
O204 O 0.7334 0.99076 0.63194 0.0
C205 C 0.66264 0.96537 0.71089 0.0
O206 O 0.65909 0.07344 0.67156 0.0
O207 O 0.67368 0.06125 0.73858 0.0
C208 C 0.40884 0.11923 0.2399 0.0
C209 C 0.43421 0.14011 0.22855 0.0
C210 C 0.38161 0.09191 0.25281 0.0
C211 C 0.36075 0.06644 0.26386 0.0
C212 C 0.3815 0.40895 0.73994 0.0
C213 C 0.36055 0.43426 0.72855 0.0
C214 C 0.40885 0.38174 0.75287 0.0
C215 C 0.4343 0.36083 0.76394 0.0
C216 C 0.09182 0.38203 0.23744 0.0
C217 C 0.0665 0.36094 0.22642 0.0
C218 C 0.11911 0.40929 0.2504 0.0
C219 C 0.14013 0.43454 0.2618 0.0
C220 C 0.11827 0.09076 0.73851 0.0
C221 C 0.13939 0.06556 0.72725 0.0
C222 C 0.09099 0.11797 0.7516 0.0
C223 C 0.06577 0.13905 0.76295 0.0
C224 C 0.59125 0.88201 0.75073 0.0
C225 C 0.56605 0.86094 0.76214 0.0
C226 C 0.61847 0.9093 0.73772 0.0
C227 C 0.6395 0.93461 0.72657 0.0
C228 C 0.59122 0.61776 0.23852 0.0
C229 C 0.56602 0.63888 0.22723 0.0
C230 C 0.61848 0.5905 0.25157 0.0
C231 C 0.63958 0.56529 0.2629 0.0
C232 C 0.90902 0.61942 0.75069 0.0
C233 C 0.93436 0.64036 0.762 0.0
C234 C 0.88181 0.59206 0.73781 0.0
C235 C 0.86096 0.56656 0.7268 0.0
C236 C 0.88192 0.9092 0.25024 0.0
C237 C 0.8609 0.93444 0.26167 0.0
C238 C 0.90923 0.88197 0.23727 0.0
C239 C 0.93462 0.86095 0.2263 0.0
C240 C 0.58632 0.33264 0.23984 0.0
C241 C 0.56997 0.304 0.22906 0.0
C242 C 0.60869 0.36416 0.2524 0.0
C243 C 0.62971 0.38938 0.26379 0.0
C244 C 0.16728 0.58577 0.73895 0.0
C245 C 0.19601 0.56944 0.7283 0.0
C246 C 0.13575 0.60818 0.75145 0.0
C247 C 0.11058 0.62928 0.76288 0.0
C248 C 0.8933 0.13553 0.25469 0.0
C249 C 0.87206 0.11036 0.2657 0.0
C250 C 0.91579 0.16697 0.24213 0.0
C251 C 0.93208 0.19556 0.231 0.0
C252 C 0.33324 0.91478 0.74173 0.0
C253 C 0.30464 0.93109 0.73065 0.0
C254 C 0.36473 0.89236 0.75433 0.0
C255 C 0.38997 0.87124 0.76546 0.0
C256 C 0.58607 0.16749 0.75078 0.0
C257 C 0.56978 0.19617 0.76165 0.0
C258 C 0.60843 0.13598 0.7381 0.0
C259 C 0.62946 0.11077 0.72661 0.0
C260 C 0.36503 0.60771 0.23608 0.0
C261 C 0.39019 0.62891 0.22491 0.0
C262 C 0.33361 0.58521 0.24869 0.0
C263 C 0.305 0.56889 0.25975 0.0
C264 C 0.89435 0.3655 0.73742 0.0
C265 C 0.87301 0.39052 0.72618 0.0
C266 C 0.91677 0.33401 0.74996 0.0
C267 C 0.93285 0.30523 0.76084 0.0
C268 C 0.13622 0.89178 0.23877 0.0
C269 C 0.111 0.87073 0.22738 0.0
C270 C 0.16778 0.91416 0.25128 0.0
C271 C 0.19648 0.9305 0.26199 0.0
C272 C 0.39333 0.63548 0.73704 0.0
C273 C 0.37217 0.61032 0.72575 0.0
C274 C 0.41572 0.66697 0.74967 0.0
C275 C 0.43196 0.69564 0.76066 0.0
C276 C 0.86519 0.39205 0.23773 0.0
C277 C 0.89035 0.37089 0.22642 0.0
C278 C 0.83374 0.41454 0.25031 0.0
C279 C 0.80508 0.43089 0.26117 0.0
C280 C 0.08516 0.83378 0.75059 0.0
C281 C 0.06892 0.80507 0.76137 0.0
C282 C 0.10764 0.86518 0.73795 0.0
C283 C 0.1289 0.89019 0.72655 0.0
C284 C 0.6357 0.10697 0.23606 0.0
C285 C 0.6105 0.12814 0.2249 0.0
C286 C 0.66722 0.08463 0.24871 0.0
C287 C 0.6959 0.06845 0.25982 0.0
C288 C 0.41613 0.83362 0.24012 0.0
C289 C 0.43232 0.80487 0.22929 0.0
C290 C 0.39372 0.86513 0.2527 0.0
C291 C 0.37251 0.89023 0.26408 0.0
C292 C 0.66798 0.41481 0.74145 0.0
C293 C 0.69666 0.43105 0.73047 0.0
C294 C 0.63638 0.39253 0.75401 0.0
C295 C 0.61108 0.37151 0.76522 0.0
C296 C 0.10721 0.63517 0.25424 0.0
C297 C 0.12857 0.6101 0.26525 0.0
C298 C 0.08468 0.66662 0.24183 0.0
C299 C 0.06848 0.6953 0.23088 0.0
C300 C 0.86476 0.10838 0.75254 0.0
C301 C 0.88992 0.12952 0.76391 0.0
C302 C 0.83333 0.08588 0.73992 0.0
C303 C 0.8047 0.0695 0.72905 0.0
C304 C 0.50054 0.24479 0.01802 0.0
C305 C 0.50391 0.23519 0.05613 0.0
C306 C 0.50067 0.25631 0.97325 0.0
C307 C 0.50422 0.26577 0.93513 0.0
C308 C 0.24559 0.50132 0.47228 0.0
C309 C 0.23601 0.5046 0.43414 0.0
C310 C 0.25704 0.50133 0.5171 0.0
C311 C 0.26643 0.50464 0.55531 0.0
C312 C 0.99984 0.25495 0.01799 0.0
C313 C 0.99648 0.26445 0.05615 0.0
C314 C 0.99981 0.24363 0.97313 0.0
C315 C 0.99639 0.23435 0.93491 0.0
C316 C 0.25708 0.99909 0.47341 0.0
C317 C 0.26651 0.99567 0.43525 0.0
C318 C 0.24555 0.99914 0.51819 0.0
C319 C 0.23591 0.99579 0.5563 0.0
C320 C 0.5007 0.756 0.9727 0.0
C321 C 0.49724 0.76539 0.93453 0.0
C322 C 0.50067 0.74463 0.01753 0.0
C323 C 0.49718 0.73517 0.05568 0.0
C324 C 0.75585 0.49827 0.51796 0.0
C325 C 0.76547 0.49502 0.55608 0.0
C326 C 0.74434 0.49829 0.47316 0.0
C327 C 0.7349 0.49503 0.43498 0.0
C328 C 0.0028 0.75497 0.01798 0.0
C329 C 0.006 0.76462 0.0561 0.0
C330 C 0.00274 0.74346 0.97318 0.0
C331 C 0.00589 0.73409 0.93495 0.0
C332 C 0.74395 0.00079 0.51707 0.0
C333 C 0.73459 0.00434 0.55526 0.0
C334 C 0.75535 0.00059 0.47224 0.0
C335 C 0.7649 0.00386 0.43409 0.0
loop_
_geom_bond_atom_site_label_1
_geom_bond_atom_site_label_2
_geom_bond_distance
_geom_bond_site_symmetry_2
_ccdc_geom_bond_type
In0 O1 2.294 . S
In0 O2 2.326 . S
In0 O6 2.266 . S
In0 O7 2.326 . S
In0 O8 2.266 . S
In0 O9 2.326 . S
In0 O11 2.294 . S
In0 O12 2.326 . S
O1 In0 2.294 . S
O1 C10 1.240 . S
O2 In0 2.326 . S
O2 C10 1.252 . S
C3 O6 1.252 . S
C3 O7 1.260 . S
C4 O11 1.240 . S
C4 O12 1.252 . S
C5 O8 1.252 . S
C5 O9 1.260 . S
O6 In0 2.266 . S
O6 C3 1.252 . S
O7 In0 2.326 . S
O7 C3 1.260 . S
O8 In0 2.266 . S
O8 C5 1.252 . S
O9 In0 2.326 . S
O9 C5 1.260 . S
C10 O1 1.240 . S
C10 O2 1.252 . S
O11 In0 2.294 . S
O11 C4 1.240 . S
O12 In0 2.326 . S
O12 C4 1.252 . S
In13 O14 2.294 . S
In13 O15 2.326 . S
In13 O19 2.266 . S
In13 O20 2.326 . S
In13 O21 2.266 . S
In13 O22 2.326 . S
In13 O24 2.294 . S
In13 O25 2.326 . S
O14 In13 2.294 . S
O14 C23 1.240 . S
O15 In13 2.326 . S
O15 C23 1.252 . S
C16 O19 1.252 . S
C16 O20 1.260 . S
C17 O24 1.240 . S
C17 O25 1.252 . S
C18 O21 1.252 . S
C18 O22 1.260 . S
O19 In13 2.266 . S
O19 C16 1.252 . S
O20 In13 2.326 . S
O20 C16 1.260 . S
O21 In13 2.266 . S
O21 C18 1.252 . S
O22 In13 2.326 . S
O22 C18 1.260 . S
C23 O14 1.240 . S
C23 O15 1.252 . S
O24 In13 2.294 . S
O24 C17 1.240 . S
O25 In13 2.326 . S
O25 C17 1.252 . S
In26 O27 2.294 1_655 S
In26 O28 2.326 1_655 S
In26 O32 2.266 . S
In26 O33 2.326 . S
In26 O34 2.266 . S
In26 O35 2.326 1_655 S
In26 O37 2.294 . S
In26 O38 2.326 . S
O27 In26 2.294 1_455 S
O27 C36 1.240 . S
O28 In26 2.326 1_455 S
O28 C36 1.252 . S
C29 O32 1.252 . S
C29 O33 1.260 . S
C30 O37 1.240 . S
C30 O38 1.252 . S
C31 O34 1.252 . S
C31 O35 1.260 1_655 S
O32 In26 2.266 . S
O32 C29 1.252 . S
O33 In26 2.326 . S
O33 C29 1.260 . S
O34 In26 2.266 . S
O34 C31 1.252 . S
O35 In26 2.326 1_455 S
O35 C31 1.260 1_455 S
C36 O27 1.240 . S
C36 O28 1.252 . S
O37 In26 2.294 . S
O37 C30 1.240 . S
O38 In26 2.326 . S
O38 C30 1.252 . S
In39 O40 2.294 1_565 S
In39 O41 2.326 1_565 S
In39 O45 2.266 . S
In39 O46 2.326 . S
In39 O47 2.266 . S
In39 O48 2.326 1_565 S
In39 O50 2.294 . S
In39 O51 2.326 . S
O40 In39 2.294 1_545 S
O40 C49 1.240 . S
O41 In39 2.326 1_545 S
O41 C49 1.252 . S
C42 O45 1.252 . S
C42 O46 1.260 . S
C43 O50 1.240 . S
C43 O51 1.252 . S
C44 O47 1.252 . S
C44 O48 1.260 1_565 S
O45 In39 2.266 . S
O45 C42 1.252 . S
O46 In39 2.326 . S
O46 C42 1.260 . S
O47 In39 2.266 . S
O47 C44 1.252 . S
O48 In39 2.326 1_545 S
O48 C44 1.260 1_545 S
C49 O40 1.240 . S
C49 O41 1.252 . S
O50 In39 2.294 . S
O50 C43 1.240 . S
O51 In39 2.326 . S
O51 C43 1.252 . S
In52 O53 2.294 . S
In52 O54 2.326 . S
In52 O58 2.266 . S
In52 O59 2.326 . S
In52 O60 2.266 . S
In52 O61 2.326 . S
In52 O63 2.294 . S
In52 O64 2.326 . S
O53 In52 2.294 . S
O53 C62 1.240 . S
O54 In52 2.326 . S
O54 C62 1.252 . S
C55 O58 1.252 . S
C55 O59 1.260 . S
C56 O63 1.240 . S
C56 O64 1.252 . S
C57 O60 1.252 . S
C57 O61 1.260 . S
O58 In52 2.266 . S
O58 C55 1.252 . S
O59 In52 2.326 . S
O59 C55 1.260 . S
O60 In52 2.266 . S
O60 C57 1.252 . S
O61 In52 2.326 . S
O61 C57 1.260 . S
C62 O53 1.240 . S
C62 O54 1.252 . S
O63 In52 2.294 . S
O63 C56 1.240 . S
O64 In52 2.326 . S
O64 C56 1.252 . S
In65 O66 2.294 . S
In65 O67 2.326 . S
In65 O71 2.266 . S
In65 O72 2.326 . S
In65 O73 2.266 . S
In65 O74 2.326 . S
In65 O76 2.294 . S
In65 O77 2.326 . S
O66 In65 2.294 . S
O66 C75 1.240 . S
O67 In65 2.326 . S
O67 C75 1.252 . S
C68 O71 1.252 . S
C68 O72 1.260 . S
C69 O76 1.240 . S
C69 O77 1.252 . S
C70 O73 1.252 . S
C70 O74 1.260 . S
O71 In65 2.266 . S
O71 C68 1.252 . S
O72 In65 2.326 . S
O72 C68 1.260 . S
O73 In65 2.266 . S
O73 C70 1.252 . S
O74 In65 2.326 . S
O74 C70 1.260 . S
C75 O66 1.240 . S
C75 O67 1.252 . S
O76 In65 2.294 . S
O76 C69 1.240 . S
O77 In65 2.326 . S
O77 C69 1.252 . S
In78 O79 2.294 . S
In78 O80 2.326 . S
In78 O84 2.266 . S
In78 O85 2.326 1_655 S
In78 O86 2.266 . S
In78 O87 2.326 . S
In78 O89 2.294 1_655 S
In78 O90 2.326 1_655 S
O79 In78 2.294 . S
O79 C88 1.240 . S
O80 In78 2.326 . S
O80 C88 1.252 . S
C81 O84 1.252 . S
C81 O85 1.260 1_655 S
C82 O89 1.240 . S
C82 O90 1.252 . S
C83 O86 1.252 . S
C83 O87 1.260 . S
O84 In78 2.266 . S
O84 C81 1.252 . S
O85 In78 2.326 1_455 S
O85 C81 1.260 1_455 S
O86 In78 2.266 . S
O86 C83 1.252 . S
O87 In78 2.326 . S
O87 C83 1.260 . S
C88 O79 1.240 . S
C88 O80 1.252 . S
O89 In78 2.294 1_455 S
O89 C82 1.240 . S
O90 In78 2.326 1_455 S
O90 C82 1.252 . S
In91 O92 2.294 . S
In91 O93 2.326 . S
In91 O97 2.266 . S
In91 O98 2.326 1_565 S
In91 O99 2.266 . S
In91 O100 2.326 . S
In91 O102 2.294 1_565 S
In91 O103 2.326 1_565 S
O92 In91 2.294 . S
O92 C101 1.240 . S
O93 In91 2.326 . S
O93 C101 1.252 . S
C94 O97 1.252 . S
C94 O98 1.260 1_565 S
C95 O102 1.240 . S
C95 O103 1.252 . S
C96 O99 1.252 . S
C96 O100 1.260 . S
O97 In91 2.266 . S
O97 C94 1.252 . S
O98 In91 2.326 1_545 S
O98 C94 1.260 1_545 S
O99 In91 2.266 . S
O99 C96 1.252 . S
O100 In91 2.326 . S
O100 C96 1.260 . S
C101 O92 1.240 . S
C101 O93 1.252 . S
O102 In91 2.294 1_545 S
O102 C95 1.240 . S
O103 In91 2.326 1_545 S
O103 C95 1.252 . S
In104 O105 2.294 . S
In104 O106 2.326 . S
In104 O110 2.266 . S
In104 O111 2.326 . S
In104 O112 2.266 . S
In104 O113 2.326 . S
In104 O115 2.294 . S
In104 O116 2.326 . S
O105 In104 2.294 . S
O105 C114 1.240 . S
O106 In104 2.326 . S
O106 C114 1.252 . S
C107 O110 1.252 . S
C107 O111 1.260 . S
C108 O115 1.240 . S
C108 O116 1.252 . S
C109 O112 1.252 . S
C109 O113 1.260 . S
O110 In104 2.266 . S
O110 C107 1.252 . S
O111 In104 2.326 . S
O111 C107 1.260 . S
O112 In104 2.266 . S
O112 C109 1.252 . S
O113 In104 2.326 . S
O113 C109 1.260 . S
C114 O105 1.240 . S
C114 O106 1.252 . S
O115 In104 2.294 . S
O115 C108 1.240 . S
O116 In104 2.326 . S
O116 C108 1.252 . S
In117 O118 2.294 . S
In117 O119 2.326 . S
In117 O123 2.266 . S
In117 O124 2.326 . S
In117 O125 2.266 . S
In117 O126 2.326 . S
In117 O128 2.294 . S
In117 O129 2.326 . S
O118 In117 2.294 . S
O118 C127 1.240 . S
O119 In117 2.326 . S
O119 C127 1.252 . S
C120 O123 1.252 . S
C120 O124 1.260 . S
C121 O128 1.240 . S
C121 O129 1.252 . S
C122 O125 1.252 . S
C122 O126 1.260 . S
O123 In117 2.266 . S
O123 C120 1.252 . S
O124 In117 2.326 . S
O124 C120 1.260 . S
O125 In117 2.266 . S
O125 C122 1.252 . S
O126 In117 2.326 . S
O126 C122 1.260 . S
C127 O118 1.240 . S
C127 O119 1.252 . S
O128 In117 2.294 . S
O128 C121 1.240 . S
O129 In117 2.326 . S
O129 C121 1.252 . S
In130 O131 2.294 . S
In130 O132 2.326 . S
In130 O136 2.266 . S
In130 O137 2.326 1_455 S
In130 O138 2.266 . S
In130 O139 2.326 . S
In130 O141 2.294 1_455 S
In130 O142 2.326 1_455 S
O131 In130 2.294 . S
O131 C140 1.240 . S
O132 In130 2.326 . S
O132 C140 1.252 . S
C133 O136 1.252 . S
C133 O137 1.260 1_455 S
C134 O141 1.240 . S
C134 O142 1.252 . S
C135 O138 1.252 . S
C135 O139 1.260 . S
O136 In130 2.266 . S
O136 C133 1.252 . S
O137 In130 2.326 1_655 S
O137 C133 1.260 1_655 S
O138 In130 2.266 . S
O138 C135 1.252 . S
O139 In130 2.326 . S
O139 C135 1.260 . S
C140 O131 1.240 . S
C140 O132 1.252 . S
O141 In130 2.294 1_655 S
O141 C134 1.240 . S
O142 In130 2.326 1_655 S
O142 C134 1.252 . S
In143 O144 2.294 1_545 S
In143 O145 2.326 1_545 S
In143 O149 2.266 . S
In143 O150 2.326 . S
In143 O151 2.266 . S
In143 O152 2.326 1_545 S
In143 O154 2.294 . S
In143 O155 2.326 . S
O144 In143 2.294 1_565 S
O144 C153 1.240 . S
O145 In143 2.326 1_565 S
O145 C153 1.252 . S
C146 O149 1.252 . S
C146 O150 1.260 . S
C147 O154 1.240 . S
C147 O155 1.252 . S
C148 O151 1.252 . S
C148 O152 1.260 1_545 S
O149 In143 2.266 . S
O149 C146 1.252 . S
O150 In143 2.326 . S
O150 C146 1.260 . S
O151 In143 2.266 . S
O151 C148 1.252 . S
O152 In143 2.326 1_565 S
O152 C148 1.260 1_565 S
C153 O144 1.240 . S
C153 O145 1.252 . S
O154 In143 2.294 . S
O154 C147 1.240 . S
O155 In143 2.326 . S
O155 C147 1.252 . S
In156 O157 2.294 . S
In156 O158 2.326 . S
In156 O162 2.266 . S
In156 O163 2.326 . S
In156 O164 2.266 . S
In156 O165 2.326 . S
In156 O167 2.294 . S
In156 O168 2.326 . S
O157 In156 2.294 . S
O157 C166 1.240 . S
O158 In156 2.326 . S
O158 C166 1.252 . S
C159 O162 1.252 . S
C159 O163 1.260 . S
C160 O167 1.240 . S
C160 O168 1.252 . S
C161 O164 1.252 . S
C161 O165 1.260 . S
O162 In156 2.266 . S
O162 C159 1.252 . S
O163 In156 2.326 . S
O163 C159 1.260 . S
O164 In156 2.266 . S
O164 C161 1.252 . S
O165 In156 2.326 . S
O165 C161 1.260 . S
C166 O157 1.240 . S
C166 O158 1.252 . S
O167 In156 2.294 . S
O167 C160 1.240 . S
O168 In156 2.326 . S
O168 C160 1.252 . S
In169 O170 2.294 . S
In169 O171 2.326 . S
In169 O175 2.266 . S
In169 O176 2.326 . S
In169 O177 2.266 . S
In169 O178 2.326 . S
In169 O180 2.294 . S
In169 O181 2.326 . S
O170 In169 2.294 . S
O170 C179 1.240 . S
O171 In169 2.326 . S
O171 C179 1.252 . S
C172 O175 1.252 . S
C172 O176 1.260 . S
C173 O180 1.240 . S
C173 O181 1.252 . S
C174 O177 1.252 . S
C174 O178 1.260 . S
O175 In169 2.266 . S
O175 C172 1.252 . S
O176 In169 2.326 . S
O176 C172 1.260 . S
O177 In169 2.266 . S
O177 C174 1.252 . S
O178 In169 2.326 . S
O178 C174 1.260 . S
C179 O170 1.240 . S
C179 O171 1.252 . S
O180 In169 2.294 . S
O180 C173 1.240 . S
O181 In169 2.326 . S
O181 C173 1.252 . S
In182 O183 2.294 . S
In182 O184 2.326 . S
In182 O188 2.266 . S
In182 O189 2.326 1_455 S
In182 O190 2.266 . S
In182 O191 2.326 . S
In182 O193 2.294 1_455 S
In182 O194 2.326 1_455 S
O183 In182 2.294 . S
O183 C192 1.240 . S
O184 In182 2.326 . S
O184 C192 1.252 . S
C185 O188 1.252 . S
C185 O189 1.260 1_455 S
C186 O193 1.240 . S
C186 O194 1.252 . S
C187 O190 1.252 . S
C187 O191 1.260 . S
O188 In182 2.266 . S
O188 C185 1.252 . S
O189 In182 2.326 1_655 S
O189 C185 1.260 1_655 S
O190 In182 2.266 . S
O190 C187 1.252 . S
O191 In182 2.326 . S
O191 C187 1.260 . S
C192 O183 1.240 . S
C192 O184 1.252 . S
O193 In182 2.294 1_655 S
O193 C186 1.240 . S
O194 In182 2.326 1_655 S
O194 C186 1.252 . S
In195 O196 2.294 1_545 S
In195 O197 2.326 1_545 S
In195 O201 2.266 . S
In195 O202 2.326 . S
In195 O203 2.266 . S
In195 O204 2.326 1_545 S
In195 O206 2.294 . S
In195 O207 2.326 . S
O196 In195 2.294 1_565 S
O196 C205 1.240 . S
O197 In195 2.326 1_565 S
O197 C205 1.252 . S
C198 O201 1.252 . S
C198 O202 1.260 . S
C199 O206 1.240 . S
C199 O207 1.252 . S
C200 O203 1.252 . S
C200 O204 1.260 1_545 S
O201 In195 2.266 . S
O201 C198 1.252 . S
O202 In195 2.326 . S
O202 C198 1.260 . S
O203 In195 2.266 . S
O203 C200 1.252 . S
O204 In195 2.326 1_565 S
O204 C200 1.260 1_565 S
C205 O196 1.240 . S
C205 O197 1.252 . S
O206 In195 2.294 . S
O206 C199 1.240 . S
O207 In195 2.326 . S
O207 C199 1.252 . S
C208 C209 1.170 . S
C208 C210 1.380 . S
C209 C208 1.170 . S
C210 C208 1.380 . S
C210 C211 1.170 . S
C211 C210 1.170 . S
C212 C213 1.170 . S
C212 C214 1.380 . S
C213 C212 1.170 . S
C214 C212 1.380 . S
C214 C215 1.170 . S
C215 C214 1.170 . S
C216 C217 1.170 . S
C216 C218 1.380 . S
C217 C216 1.170 . S
C218 C216 1.380 . S
C218 C219 1.170 . S
C219 C218 1.170 . S
C220 C221 1.170 . S
C220 C222 1.380 . S
C221 C220 1.170 . S
C222 C220 1.380 . S
C222 C223 1.170 . S
C223 C222 1.170 . S
C224 C225 1.170 . S
C224 C226 1.380 . S
C225 C224 1.170 . S
C226 C224 1.380 . S
C226 C227 1.170 . S
C227 C226 1.170 . S
C228 C229 1.170 . S
C228 C230 1.380 . S
C229 C228 1.170 . S
C230 C228 1.380 . S
C230 C231 1.170 . S
C231 C230 1.170 . S
C232 C233 1.170 . S
C232 C234 1.380 . S
C233 C232 1.170 . S
C234 C232 1.380 . S
C234 C235 1.170 . S
C235 C234 1.170 . S
C236 C237 1.170 . S
C236 C238 1.380 . S
C237 C236 1.170 . S
C238 C236 1.380 . S
C238 C239 1.170 . S
C239 C238 1.170 . S
C240 C241 1.170 . S
C240 C242 1.380 . S
C241 C240 1.170 . S
C242 C240 1.380 . S
C242 C243 1.170 . S
C243 C242 1.170 . S
C244 C245 1.170 . S
C244 C246 1.380 . S
C245 C244 1.170 . S
C246 C244 1.380 . S
C246 C247 1.170 . S
C247 C246 1.170 . S
C248 C249 1.170 . S
C248 C250 1.380 . S
C249 C248 1.170 . S
C250 C248 1.380 . S
C250 C251 1.170 . S
C251 C250 1.170 . S
C252 C253 1.170 . S
C252 C254 1.380 . S
C253 C252 1.170 . S
C254 C252 1.380 . S
C254 C255 1.170 . S
C255 C254 1.170 . S
C256 C257 1.170 . S
C256 C258 1.380 . S
C257 C256 1.170 . S
C258 C256 1.380 . S
C258 C259 1.170 . S
C259 C258 1.170 . S
C260 C261 1.170 . S
C260 C262 1.380 . S
C261 C260 1.170 . S
C262 C260 1.380 . S
C262 C263 1.170 . S
C263 C262 1.170 . S
C264 C265 1.170 . S
C264 C266 1.380 . S
C265 C264 1.170 . S
C266 C264 1.380 . S
C266 C267 1.170 . S
C267 C266 1.170 . S
C268 C269 1.170 . S
C268 C270 1.380 . S
C269 C268 1.170 . S
C270 C268 1.380 . S
C270 C271 1.170 . S
C271 C270 1.170 . S
C272 C273 1.170 . S
C272 C274 1.380 . S
C273 C272 1.170 . S
C274 C272 1.380 . S
C274 C275 1.170 . S
C275 C274 1.170 . S
C276 C277 1.170 . S
C276 C278 1.380 . S
C277 C276 1.170 . S
C278 C276 1.380 . S
C278 C279 1.170 . S
C279 C278 1.170 . S
C280 C281 1.170 . S
C280 C282 1.380 . S
C281 C280 1.170 . S
C282 C280 1.380 . S
C282 C283 1.170 . S
C283 C282 1.170 . S
C284 C285 1.170 . S
C284 C286 1.380 . S
C285 C284 1.170 . S
C286 C284 1.380 . S
C286 C287 1.170 . S
C287 C286 1.170 . S
C288 C289 1.170 . S
C288 C290 1.380 . S
C289 C288 1.170 . S
C290 C288 1.380 . S
C290 C291 1.170 . S
C291 C290 1.170 . S
C292 C293 1.170 . S
C292 C294 1.380 . S
C293 C292 1.170 . S
C294 C292 1.380 . S
C294 C295 1.170 . S
C295 C294 1.170 . S
C296 C297 1.170 . S
C296 C298 1.380 . S
C297 C296 1.170 . S
C298 C296 1.380 . S
C298 C299 1.170 . S
C299 C298 1.170 . S
C300 C301 1.170 . S
C300 C302 1.380 . S
C301 C300 1.170 . S
C302 C300 1.380 . S
C302 C303 1.170 . S
C303 C302 1.170 . S
C304 C305 1.170 . S
C304 C306 1.380 1_554 S
C305 C304 1.170 . S
C306 C304 1.380 1_556 S
C306 C307 1.170 . S
C307 C306 1.170 . S
C308 C309 1.170 . S
C308 C310 1.380 . S
C309 C308 1.170 . S
C310 C308 1.380 . S
C310 C311 1.170 . S
C311 C310 1.170 . S
C312 C313 1.170 . S
C312 C314 1.380 1_554 S
C313 C312 1.170 . S
C314 C312 1.380 1_556 S
C314 C315 1.170 . S
C315 C314 1.170 . S
C316 C317 1.170 . S
C316 C318 1.380 . S
C317 C316 1.170 . S
C318 C316 1.380 . S
C318 C319 1.171 . S
C319 C318 1.171 . S
C320 C321 1.170 . S
C320 C322 1.380 1_556 S
C321 C320 1.170 . S
C322 C320 1.380 1_554 S
C322 C323 1.170 . S
C323 C322 1.170 . S
C324 C325 1.170 . S
C324 C326 1.380 . S
C325 C324 1.170 . S
C326 C324 1.380 . S
C326 C327 1.170 . S
C327 C326 1.170 . S
C328 C329 1.170 . S
C328 C330 1.380 1_554 S
C329 C328 1.170 . S
C330 C328 1.380 1_556 S
C330 C331 1.170 . S
C331 C330 1.170 . S
C332 C333 1.170 . S
C332 C334 1.380 . S
C333 C332 1.170 . S
C334 C332 1.380 . S
C334 C335 1.170 . S
C335 C334 1.170 . S
C209 C4 1.312 . S
C211 C95 1.313 . S
C213 C23 1.310 . S
C215 C56 1.311 . S
C217 C36 1.308 . S
C219 C75 1.307 . S
C221 C49 1.301 . S
C223 C82 1.301 . S
C225 C114 1.302 . S
C227 C205 1.309 . S
C229 C160 1.305 . S
C231 C121 1.302 . S
C233 C134 1.308 . S
C235 C179 1.315 . S
C237 C153 1.305 . S
C239 C186 1.313 . S
C241 C5 1.584 . S
C243 C127 1.599 . S
C245 C16 1.590 . S
C247 C140 1.604 . S
C249 C147 1.600 . S
C251 C29 1.593 . S
C253 C42 1.588 . S
C255 C108 1.597 . S
C257 C57 1.585 . S
C259 C199 1.599 . S
C261 C166 1.603 . S
C263 C68 1.598 . S
C265 C173 1.607 . S
C267 C83 1.603 . S
C269 C192 1.603 . S
C271 C96 1.588 . S
C273 C17 1.597 . S
C275 C107 1.596 . S
C277 C30 1.604 . S
C279 C122 1.584 . S
C281 C135 1.596 . S
C283 C43 1.610 . S
C285 C10 1.599 . S
C287 C146 1.602 . S
C289 C161 1.600 . S
C291 C101 1.609 . S
C293 C172 1.594 . S
C295 C62 1.597 . S
C297 C69 1.601 . S
C299 C187 1.604 . S
C301 C88 1.604 . S
C303 C198 1.584 . S
C305 C3 1.630 . S
C307 C55 1.625 . S
C309 C70 1.619 . S
C311 C18 1.615 . S
C313 C31 1.631 . S
C315 C81 1.629 . S
C317 C94 1.628 . S
C319 C44 1.630 . S
C321 C109 1.625 . S
C323 C159 1.630 . S
C325 C174 1.621 . S
C327 C120 1.616 . S
C329 C185 1.623 . S
C331 C133 1.615 . S
C333 C200 1.618 . S
C335 C148 1.631 . S
