# Generated by pormake.
# Topology dft, (4)-cn, num edge types: 1
# Building blocks:
#     Node 0, Type 0, BuildingBlock: UXUYUI_clean_sbu_0, # of connection points: 4
#     Node 1, Type 0, BuildingBlock: UXUYUI_clean_sbu_0, # of connection points: 4
#     Node 2, Type 0, BuildingBlock: UXUYUI_clean_sbu_0, # of connection points: 4
#     Node 3, Type 0, BuildingBlock: UXUYUI_clean_sbu_0, # of connection points: 4
#     Node 4, Type 0, BuildingBlock: UXUYUI_clean_sbu_0, # of connection points: 4
#     Node 5, Type 0, BuildingBlock: UXUYUI_clean_sbu_0, # of connection points: 4
#     Node 6, Type 0, BuildingBlock: UXUYUI_clean_sbu_0, # of connection points: 4
#     Node 7, Type 0, BuildingBlock: UXUYUI_clean_sbu_0, # of connection points: 4
#     Edge 8, Type (0, 0), BuildingBlock: ZUJKAS_clean_linker_0, # of connection points: 2
#     Edge 9, Type (0, 0), BuildingBlock: ZUJKAS_clean_linker_0, # of connection points: 2
#     Edge 10, Type (0, 0), BuildingBlock: ZUJKAS_clean_linker_0, # of connection points: 2
#     Edge 11, Type (0, 0), BuildingBlock: ZUJKAS_clean_linker_0, # of connection points: 2
#     Edge 12, Type (0, 0), BuildingBlock: ZUJKAS_clean_linker_0, # of connection points: 2
#     Edge 13, Type (0, 0), BuildingBlock: ZUJKAS_clean_linker_0, # of connection points: 2
#     Edge 14, Type (0, 0), BuildingBlock: ZUJKAS_clean_linker_0, # of connection points: 2
#     Edge 15, Type (0, 0), BuildingBlock: ZUJKAS_clean_linker_0, # of connection points: 2
#     Edge 16, Type (0, 0), BuildingBlock: ZUJKAS_clean_linker_0, # of connection points: 2
#     Edge 17, Type (0, 0), BuildingBlock: ZUJKAS_clean_linker_0, # of connection points: 2
#     Edge 18, Type (0, 0), BuildingBlock: ZUJKAS_clean_linker_0, # of connection points: 2
#     Edge 19, Type (0, 0), BuildingBlock: ZUJKAS_clean_linker_0, # of connection points: 2
#     Edge 20, Type (0, 0), BuildingBlock: ZUJKAS_clean_linker_0, # of connection points: 2
#     Edge 21, Type (0, 0), BuildingBlock: ZUJKAS_clean_linker_0, # of connection points: 2
#     Edge 22, Type (0, 0), BuildingBlock: ZUJKAS_clean_linker_0, # of connection points: 2
#     Edge 23, Type (0, 0), BuildingBlock: ZUJKAS_clean_linker_0, # of connection points: 2
# Relax obj value: 0.226
# Max RMSD: 0.178
# Mean RMSD: 0.177
data_MOF--net-dft--node1-UXUYUI_clean_sbu_0--edge1-ZUJKAS_clean_linker_0
_symmetry_space_group_name_H-M    P1
_symmetry_Int_Tables_number       1
_symmetry_cell_setting            triclinic
loop_
_symmetry_equiv_pos_as_xyz
'x, y, z'
_cell_length_a     60.27089
_cell_length_b     60.170999
_cell_length_c     69.765622
_cell_angle_alpha  89.982585
_cell_angle_beta   89.990474
_cell_angle_gamma 89.979749
loop_
_atom_site_label
_atom_site_type_symbol
_atom_site_fract_x
_atom_site_fract_y
_atom_site_fract_z
_atom_type_partial_charge
Li0 Li 0.27912 0.01555 0.19641 0.0
Li1 Li 0.3137 0.995 0.19905 0.0
Li2 Li 0.29378 0.99723 0.16877 0.0
Li3 Li 0.27963 0.97507 0.19547 0.0
C4 C 0.31823 0.03327 0.16963 0.0
N5 N 0.33996 0.05484 0.14013 0.0
C6 C 0.34115 0.03084 0.1674 0.0
C7 C 0.30637 0.04676 0.15692 0.0
C8 C 0.35183 0.04188 0.15239 0.0
C9 C 0.31765 0.05747 0.14207 0.0
C10 C 0.29855 0.99687 0.23392 0.0
C11 C 0.32045 0.98155 0.25967 0.0
N12 N 0.32174 0.00207 0.26778 0.0
C13 C 0.30007 0.01779 0.24251 0.0
C14 C 0.30876 0.97857 0.24258 0.0
C15 C 0.31186 0.02007 0.25964 0.0
C16 C 0.24703 0.03558 0.21927 0.0
N17 N 0.26294 0.04006 0.20604 0.0
C18 C 0.25505 0.07888 0.20766 0.0
C19 C 0.26728 0.06116 0.20022 0.0
C20 C 0.23833 0.07475 0.22126 0.0
C21 C 0.23439 0.05273 0.22704 0.0
H22 H 0.24414 0.0186 0.22372 0.0
H23 H 0.28029 0.06425 0.18991 0.0
C24 C 0.3539 0.9756 0.21073 0.0
N25 N 0.34203 0.99477 0.21068 0.0
C26 C 0.37486 0.97495 0.21909 0.0
C27 C 0.37099 0.01384 0.22724 0.0
C28 C 0.35003 0.0137 0.21874 0.0
C29 C 0.38378 0.99431 0.2273 0.0
H30 H 0.34719 0.96086 0.20412 0.0
H31 H 0.3402 0.02874 0.21836 0.0
C32 C 0.24245 0.00447 0.1789 0.0
N33 N 0.20095 0.02377 0.18142 0.0
C34 C 0.22587 0.99453 0.18999 0.0
C35 C 0.23787 0.02413 0.16898 0.0
C36 C 0.205 0.00456 0.19109 0.0
C37 C 0.21681 0.03367 0.17048 0.0
C38 C 0.30702 0.94865 0.17698 0.0
C39 C 0.30181 0.9412 0.15855 0.0
C40 C 0.3109 0.9332 0.19158 0.0
C41 C 0.30049 0.91838 0.15504 0.0
C42 C 0.30937 0.91052 0.1875 0.0
N43 N 0.30425 0.90364 0.16947 0.0
C44 C 0.31765 0.99526 0.13405 0.0
C45 C 0.27906 0.00168 0.13051 0.0
C46 C 0.32062 0.99593 0.11422 0.0
N47 N 0.29715 -0.00169 0.14174 0.0
C48 C 0.28123 0.00234 0.11061 0.0
C49 C 0.30225 -0.00052 0.1022 0.0
H50 H 0.33169 0.9923 0.14336 0.0
H51 H 0.2629 0.00363 0.137 0.0
C52 C 0.26095 0.9446 0.22133 0.0
N53 N 0.26357 0.94924 0.20242 0.0
C54 C 0.24906 0.92588 0.22705 0.0
C55 C 0.24266 0.91711 0.19368 0.0
C56 C 0.25453 0.93614 0.18862 0.0
C57 C 0.23975 0.91179 0.21314 0.0
H58 H 0.26783 0.95562 0.232 0.0
H59 H 0.25657 0.94049 0.17368 0.0
O60 O 0.30741 0.02233 0.18406 0.0
O61 O 0.28752 0.99438 0.21692 0.0
O62 O 0.26314 0.99518 0.17798 0.0
O63 O 0.3082 0.97095 0.18074 0.0
H64 H 0.35057 0.02036 0.17701 0.0
H65 H 0.2886 0.04866 0.15833 0.0
H66 H 0.36954 0.04008 0.15044 0.0
H67 H 0.30867 0.06783 0.13204 0.0
H68 H 0.32856 0.96757 0.26646 0.0
H69 H 0.29247 0.03218 0.23594 0.0
H70 H 0.30798 0.96231 0.236 0.0
H71 H 0.31325 0.03618 0.26641 0.0
H72 H 0.25881 0.09564 0.20301 0.0
H73 H 0.22148 0.04875 0.23727 0.0
H74 H 0.38406 0.95949 0.21901 0.0
H75 H 0.37736 0.0292 0.23316 0.0
H76 H 0.22913 0.97937 0.19783 0.0
H77 H 0.25055 0.03213 0.16045 0.0
H78 H 0.19205 0.99712 0.19969 0.0
H79 H 0.21309 0.04898 0.16301 0.0
H80 H 0.29865 0.95287 0.14708 0.0
H81 H 0.31461 0.93864 0.206 0.0
H82 H 0.29641 0.91238 0.14086 0.0
H83 H 0.31215 0.89839 0.1987 0.0
H84 H 0.33715 0.99384 0.10841 0.0
H85 H 0.26654 0.00465 0.10191 0.0
H86 H 0.24677 0.92279 0.24221 0.0
H87 H 0.2359 0.90668 0.18246 0.0
Li88 Li -0.00159 0.29509 0.66947 0.0
Li89 Li 0.99408 0.31479 0.69985 0.0
Li90 Li 0.01604 0.28096 0.69781 0.0
Li91 Li 0.9757 0.28011 0.69549 0.0
C92 C 0.03382 0.32104 0.67205 0.0
N93 N 0.0571 0.34415 0.64436 0.0
C94 C 0.03153 0.34409 0.67054 0.0
C95 C 0.04805 0.30976 0.65957 0.0
C96 C 0.04344 0.35547 0.65643 0.0
C97 C 0.05962 0.32174 0.64563 0.0
C98 C 0.94919 0.30627 0.67624 0.0
C99 C 0.91067 0.30709 0.68561 0.0
N100 N 0.90478 0.30092 0.66756 0.0
C101 C 0.94275 0.3 0.65777 0.0
C102 C 0.93302 0.30994 0.69027 0.0
C103 C 0.92022 0.29737 0.65367 0.0
C104 C 0.00124 0.2792 0.63169 0.0
N105 N 0.00031 0.298 0.64242 0.0
C106 C 0.00052 0.32056 0.61423 0.0
C107 C -0.00035 0.31844 0.63414 0.0
C108 C 0.00147 0.30141 0.60269 0.0
C109 C 0.00175 0.28051 0.61173 0.0
H110 H 0.00114 0.26314 0.63862 0.0
H111 H -0.00167 0.3331 0.64302 0.0
C112 C 0.01 0.35096 0.72143 0.0
N113 N 0.99226 0.34306 0.71152 0.0
C114 C 0.00895 0.37175 0.73022 0.0
C115 C 0.97145 0.37582 0.71833 0.0
C116 C 0.97321 0.35494 0.70984 0.0
C117 C 0.98954 0.38452 0.72855 0.0
H118 H 0.02501 0.34116 0.72233 0.0
H119 H 0.95945 0.3483 0.70176 0.0
C120 C 0.00717 0.24408 0.6793 0.0
N121 N 0.02804 0.20325 0.68107 0.0
C122 C -0.0021 0.22684 0.69008 0.0
C123 C 0.02695 0.24052 0.6693 0.0
C124 C 0.00872 0.20632 0.6908 0.0
C125 C 0.03729 0.21978 0.67043 0.0
C126 C 0.9951 0.29925 0.73486 0.0
C127 C 0.01534 0.30033 0.7446 0.0
C128 C 0.97637 0.30956 0.74267 0.0
C129 C 0.01652 0.3118 0.76198 0.0
C130 C 0.97825 0.32091 0.76005 0.0
N131 N -0.00189 0.32179 0.76927 0.0
C132 C 0.06186 0.27153 0.70295 0.0
C133 C 0.03681 0.24878 0.72032 0.0
C134 C 0.07994 0.25997 0.71051 0.0
N135 N 0.04086 0.26563 0.70785 0.0
C136 C 0.05434 0.2367 0.72813 0.0
C137 C 0.07628 0.24224 0.72326 0.0
H138 H 0.06457 0.28526 0.69325 0.0
H139 H 0.0199 0.24468 0.72411 0.0
C140 C 0.9396 0.2521 0.68688 0.0
N141 N 0.95022 0.26303 0.70123 0.0
C142 C 0.92103 0.23907 0.69089 0.0
C143 C 0.92488 0.24869 0.72439 0.0
C144 C 0.94333 0.26154 0.71972 0.0
C145 C 0.91352 0.23717 0.70989 0.0
H146 H 0.94566 0.25343 0.67233 0.0
H147 H 0.95238 0.27002 0.73088 0.0
O148 O 0.02219 0.30958 0.68568 0.0
O149 O 0.97119 0.30858 0.68062 0.0
O150 O 0.99709 0.26444 0.67873 0.0
O151 O 0.99369 0.28843 0.71765 0.0
H152 H 0.02054 0.35309 0.68003 0.0
H153 H 0.04993 0.29191 0.66049 0.0
H154 H 0.04176 0.3733 0.65504 0.0
H155 H 0.07058 0.3132 0.6358 0.0
H156 H 0.898 0.30969 0.69637 0.0
H157 H 0.955 0.29704 0.64674 0.0
H158 H 0.93771 0.31455 0.7047 0.0
H159 H 0.915 0.29245 0.63946 0.0
H160 H 0.00048 0.33704 0.60801 0.0
H161 H 0.00187 0.26525 0.60353 0.0
H162 H 0.02338 0.37804 0.73771 0.0
H163 H 0.95617 0.38513 0.7168 0.0
H164 H 0.98265 0.22934 0.69797 0.0
H165 H 0.03437 0.25371 0.66094 0.0
H166 H 0.0018 0.19286 0.69917 0.0
H167 H 0.05269 0.21683 0.66288 0.0
H168 H 0.03005 0.29261 0.73873 0.0
H169 H 0.96063 0.30915 0.73521 0.0
H170 H 0.03209 0.31284 0.76963 0.0
H171 H 0.96393 0.32912 0.76618 0.0
H172 H 0.09657 0.26502 0.7066 0.0
H173 H 0.05069 0.22298 0.73766 0.0
H174 H 0.91269 0.23054 0.67928 0.0
H175 H 0.91995 0.24731 0.73927 0.0
Li176 Li 0.68286 0.00171 0.20169 0.0
Li177 Li 0.71747 0.98138 0.197 0.0
Li178 Li 0.71711 0.02303 0.19604 0.0
Li179 Li 0.70227 0.00064 0.16994 0.0
C180 C 0.70797 0.00847 0.23654 0.0
N181 N 0.7041 0.02017 0.27472 0.0
C182 C 0.7113 0.99259 0.2509 0.0
C183 C 0.70303 0.03038 0.24166 0.0
C184 C 0.70916 -0.0012 0.2701 0.0
C185 C 0.70106 0.03595 0.26102 0.0
C186 C 0.68574 0.95353 0.18633 0.0
C187 C 0.6956 0.91607 0.17743 0.0
N188 N 0.68115 0.90813 0.19075 0.0
C189 C 0.67089 0.945 0.19984 0.0
C190 C 0.69809 0.93897 0.17492 0.0
C191 C 0.66883 0.92199 0.20189 0.0
C192 C 0.63722 0.00487 0.20168 0.0
N193 N 0.65467 0.00142 0.21361 0.0
C194 C 0.63033 0.99665 0.24033 0.0
C195 C 0.65169 0.9973 0.23261 0.0
C196 C 0.61201 -0.00013 0.22826 0.0
C197 C 0.61561 0.00414 0.20873 0.0
H198 H 0.64015 0.00799 0.18662 0.0
H199 H 0.66574 0.9941 0.24175 0.0
C200 C 0.75441 0.95286 0.19818 0.0
N201 N 0.73378 0.95631 0.20542 0.0
C202 C 0.76709 0.93489 0.20446 0.0
C203 C 0.73699 0.92431 0.2255 0.0
C204 C 0.72493 0.94252 0.21883 0.0
C205 C 0.75844 0.92042 0.2184 0.0
H206 H 0.76113 0.96419 0.18766 0.0
H207 H 0.70856 0.9458 0.22449 0.0
C208 C 0.67832 0.04678 0.18397 0.0
N209 N 0.65842 0.08813 0.18583 0.0
C210 C 0.67728 0.06027 0.16768 0.0
C211 C 0.66884 0.05417 0.2011 0.0
C212 C 0.66727 0.08117 0.16893 0.0
C213 C 0.65895 0.07516 0.20178 0.0
C214 C 0.74525 0.00303 0.1628 0.0
C215 C 0.75471 0.0232 0.15714 0.0
C216 C 0.74772 0.98425 0.15121 0.0
C217 C 0.76624 0.02431 0.13979 0.0
C218 C 0.75933 0.98605 0.13394 0.0
N219 N 0.76826 0.00588 0.12863 0.0
C220 C 0.74792 0.04683 0.21746 0.0
C221 C 0.73119 0.06816 0.19281 0.0
C222 C 0.76066 0.06498 0.22317 0.0
N223 N 0.73339 0.04881 0.20269 0.0
C224 C 0.74372 0.08673 0.19795 0.0
C225 C 0.75864 0.08526 0.21337 0.0
H226 H 0.74968 0.03108 0.22477 0.0
H227 H 0.72 0.06912 0.18077 0.0
C228 C 0.68949 0.98179 0.13442 0.0
N229 N 0.69836 5e-05 0.14292 0.0
C230 C 0.68762 0.98076 0.11449 0.0
C231 C 0.70367 0.01751 0.11253 0.0
C232 C 0.70521 0.01782 0.13247 0.0
C233 C 0.6949 -0.00126 0.10327 0.0
H234 H 0.68399 0.96797 0.14309 0.0
H235 H 0.71231 0.03208 0.13962 0.0
O236 O 0.71003 0.0026 0.21765 0.0
O237 O 0.68815 0.976 0.18426 0.0
O238 O 0.68798 0.0262 0.18291 0.0
O239 O 0.7336 0.00171 0.17959 0.0
H240 H 0.7154 0.97563 0.24728 0.0
H241 H 0.70106 0.04307 0.23085 0.0
H242 H 0.71155 0.98664 0.28134 0.0
H243 H 0.69721 0.05284 0.26514 0.0
H244 H 0.70517 0.90461 0.1688 0.0
H245 H 0.66115 0.956 0.20875 0.0
H246 H 0.70964 0.94528 0.16438 0.0
H247 H 0.65748 0.91516 0.21235 0.0
H248 H 0.62813 0.99306 0.25543 0.0
H249 H 0.60186 0.00688 0.19901 0.0
H250 H 0.78347 0.93236 0.19847 0.0
H251 H 0.72983 0.91373 0.23643 0.0
H252 H 0.6842 0.05474 0.15421 0.0
H253 H 0.66882 0.04377 0.2137 0.0
H254 H 0.66651 0.09183 0.15647 0.0
H255 H 0.65161 0.08108 0.21498 0.0
H256 H 0.75303 0.03787 0.16597 0.0
H257 H 0.74054 0.96851 0.15539 0.0
H258 H 0.77354 0.03983 0.13517 0.0
H259 H 0.7612 0.9717 0.12475 0.0
H260 H 0.77231 0.06302 0.23487 0.0
H261 H 0.74172 0.10207 0.19001 0.0
H262 H 0.68047 0.9661 0.10795 0.0
H263 H 0.70977 0.03161 0.10444 0.0
Li264 Li 0.98032 0.71642 0.69543 0.0
Li265 Li 0.02076 0.71622 0.69459 0.0
Li266 Li -0.00106 0.70178 0.66778 0.0
Li267 Li 0.00117 0.68205 0.69831 0.0
C268 C 0.99099 0.75298 0.67768 0.0
N269 N 0.97076 0.79411 0.67976 0.0
C270 C -0.00034 0.76946 0.68965 0.0
C271 C 0.97213 0.75746 0.66667 0.0
C272 C 0.98917 0.79015 0.6905 0.0
C273 C 0.96211 0.77834 0.66797 0.0
C274 C -0.00054 0.69768 0.73322 0.0
C275 C 0.01551 0.67641 0.75904 0.0
N276 N 0.99524 0.67515 0.76754 0.0
C277 C 0.97879 0.69621 0.74223 0.0
C278 C 0.018 0.68776 0.74171 0.0
C279 C 0.97701 0.68476 0.75958 0.0
C280 C 0.93498 0.72951 0.69731 0.0
N281 N 0.95564 0.73268 0.70459 0.0
C282 C 0.94234 0.76085 0.72571 0.0
C283 C 0.95958 0.7478 0.71863 0.0
C284 C 0.92084 0.75828 0.71827 0.0
C285 C 0.91722 0.74225 0.70396 0.0
H286 H 0.93232 0.71724 0.68626 0.0
H287 H 0.97619 0.74976 0.72424 0.0
C288 C 0.05871 0.74223 0.68721 0.0
N289 N 0.04619 0.7329 0.70127 0.0
C290 C 0.07698 0.75536 0.69192 0.0
C291 C 0.06879 0.74936 0.72546 0.0
C292 C 0.05081 0.7362 0.7201 0.0
C293 C 0.08212 0.75924 0.71129 0.0
H294 H 0.05434 0.73964 0.67235 0.0
H295 H 0.04022 0.72907 0.73096 0.0
C296 C 0.96271 0.67677 0.66906 0.0
N297 N 0.94027 0.65413 0.64058 0.0
C298 C 0.96408 0.65361 0.66796 0.0
C299 C 0.94985 0.6884 0.65574 0.0
C300 C 0.95261 0.64247 0.65345 0.0
C301 C 0.93868 0.67666 0.64142 0.0
C302 C 0.04745 0.68894 0.67626 0.0
C303 C 0.05493 0.69402 0.65781 0.0
C304 C 0.06283 0.68534 0.69094 0.0
C305 C 0.07772 0.69558 0.65438 0.0
C306 C 0.08547 0.6871 0.68694 0.0
N307 N 0.09239 0.69214 0.6689 0.0
C308 C -0.00141 0.71793 0.63004 0.0
C309 C -0.0019 0.6786 0.63227 0.0
C310 C -0.00158 0.71681 0.61008 0.0
N311 N -0.00176 0.699 0.64066 0.0
C312 C -0.00252 0.67671 0.61233 0.0
C313 C -0.0023 0.69601 0.60104 0.0
H314 H -0.00084 0.73392 0.63708 0.0
H315 H -0.00151 0.66382 0.64107 0.0
C316 C 0.98318 0.6463 0.71922 0.0
N317 N 0.00171 0.65386 0.71023 0.0
C318 C 0.98329 0.62559 0.7282 0.0
C319 C 0.02153 0.62092 0.71845 0.0
C320 C 0.02069 0.64173 0.70972 0.0
C321 C 0.00261 0.61255 0.72771 0.0
H322 H 0.96827 0.65631 0.71923 0.0
H323 H 0.03511 0.64812 0.70238 0.0
O324 O 0.00062 0.73241 0.67706 0.0
O325 O 0.00147 0.70843 0.71603 0.0
O326 O 0.97391 0.68798 0.6831 0.0
O327 O 0.02519 0.68757 0.67995 0.0
H328 H 0.01416 0.76624 0.69835 0.0
H329 H 0.96515 0.74484 0.65743 0.0
H330 H 0.99562 0.80302 0.69978 0.0
H331 H 0.94741 0.78199 0.65964 0.0
H332 H 0.02968 0.66852 0.7657 0.0
H333 H 0.96422 0.70359 0.73579 0.0
H334 H 0.03407 0.68854 0.73484 0.0
H335 H 0.9611 0.6834 0.76667 0.0
H336 H 0.9458 0.77273 0.73697 0.0
H337 H 0.90095 0.73986 0.69771 0.0
H338 H 0.08687 0.76249 0.68052 0.0
H339 H 0.07176 0.75231 0.74056 0.0
H340 H 0.97402 0.64433 0.67808 0.0
H341 H 0.94881 0.70634 0.65624 0.0
H342 H 0.95358 0.62457 0.65238 0.0
H343 H 0.9288 0.68547 0.63093 0.0
H344 H 0.04331 0.69686 0.64626 0.0
H345 H 0.05733 0.6816 0.70535 0.0
H346 H 0.08375 0.69957 0.64019 0.0
H347 H 0.09754 0.68453 0.6982 0.0
H348 H -0.00141 0.73204 0.60179 0.0
H349 H -0.00278 0.66038 0.6058 0.0
H350 H 0.96825 0.61957 0.73493 0.0
H351 H 0.03678 0.61142 0.71785 0.0
Li352 Li 0.27931 0.02312 0.80412 0.0
Li353 Li 0.29345 0.00015 0.83025 0.0
Li354 Li 0.31208 0.00136 0.79914 0.0
Li355 Li 0.27664 0.98262 0.80313 0.0
C356 C 0.30956 0.04786 0.82112 0.0
N357 N 0.31067 0.09309 0.82781 0.0
C358 C 0.30462 0.05619 0.83932 0.0
C359 C 0.31524 0.0625 0.80635 0.0
C360 C 0.30524 0.07913 0.84241 0.0
C361 C 0.31564 0.08532 0.81001 0.0
C362 C 0.24146 0.99549 0.8221 0.0
C363 C 0.21504 0.96745 0.83155 0.0
N364 N 0.19893 0.97837 0.82166 0.0
C365 C 0.22463 0.00649 0.8121 0.0
C366 C 0.23663 0.97587 0.832 0.0
C367 C 0.20324 -0.00244 0.81204 0.0
C368 C 0.26034 0.05475 0.77936 0.0
N369 N 0.26419 0.04978 0.79805 0.0
C370 C 0.24395 0.08179 0.80822 0.0
C371 C 0.25627 0.06277 0.81244 0.0
C372 C 0.23939 0.08721 0.78902 0.0
C373 C 0.24793 0.07347 0.77449 0.0
H374 H 0.26635 0.04382 0.76824 0.0
H375 H 0.25918 0.05812 0.82719 0.0
C376 C 0.3183 0.00081 0.86473 0.0
N377 N 0.29756 -0.00085 0.8572 0.0
C378 C 0.32132 0.00071 0.88458 0.0
C379 C 0.28156 -0.00231 0.88847 0.0
C380 C 0.27933 -0.00234 0.86858 0.0
C381 C 0.30276 -0.00071 0.89669 0.0
H382 H 0.33245 0.00245 0.85531 0.0
H383 H 0.26303 0.99671 0.86222 0.0
C384 C 0.29394 0.00164 0.76447 0.0
N385 N 0.31241 -0.0022 0.72837 0.0
C386 C 0.29177 0.98184 0.75416 0.0
C387 C 0.30535 0.01954 0.75636 0.0
C388 C 0.30125 0.98022 0.73594 0.0
C389 C 0.31463 0.01725 0.73811 0.0
C390 C 0.3165 0.96321 0.82843 0.0
C391 C 0.3396 0.96479 0.82948 0.0
C392 C 0.30504 0.95018 0.84175 0.0
C393 C 0.35087 0.95341 0.84398 0.0
C394 C 0.31691 0.9391 0.85605 0.0
N395 N 0.33938 0.94094 0.85686 0.0
C396 C 0.3552 0.01573 0.79005 0.0
C397 C 0.34417 0.98222 0.77497 0.0
C398 C 0.37616 0.01429 0.7817 0.0
N399 N 0.3398 -0.00022 0.7866 0.0
C400 C 0.36475 0.98034 0.76599 0.0
C401 C 0.38125 0.99634 0.76952 0.0
H402 H 0.3514 0.02925 0.7997 0.0
H403 H 0.33172 0.96953 0.77284 0.0
C404 C 0.2419 0.96315 0.78253 0.0
N405 N 0.25933 0.95859 0.79423 0.0
C406 C 0.22898 0.94594 0.77522 0.0
C407 C 0.25248 0.91964 0.79183 0.0
C408 C 0.26487 0.9374 0.79893 0.0
C409 C 0.23427 0.9238 0.77976 0.0
H410 H 0.23814 0.98019 0.77883 0.0
H411 H 0.27907 0.93429 0.80799 0.0
O412 O 0.30877 0.02549 0.81773 0.0
O413 O 0.2626 0.00375 0.82205 0.0
O414 O 0.28496 0.00348 0.78241 0.0
O415 O 0.30513 0.97448 0.81453 0.0
H416 H 0.30014 0.04511 0.8509 0.0
H417 H 0.31912 0.05632 0.79219 0.0
H418 H 0.30135 0.08582 0.8564 0.0
H419 H 0.31987 0.09686 0.79869 0.0
H420 H 0.21111 0.95219 0.83902 0.0
H421 H 0.22807 0.02165 0.80431 0.0
H422 H 0.2495 0.96708 0.83971 0.0
H423 H 0.19007 0.00584 0.80429 0.0
H424 H 0.23786 0.09197 0.81989 0.0
H425 H 0.24443 0.07665 0.75952 0.0
H426 H 0.33792 0.00225 0.89038 0.0
H427 H 0.26685 0.99641 0.89732 0.0
H428 H 0.28307 0.96778 0.76022 0.0
H429 H 0.30722 0.03496 0.76415 0.0
H430 H 0.2998 0.96497 0.72784 0.0
H431 H 0.32363 0.03092 0.73171 0.0
H432 H 0.34874 0.97483 0.81932 0.0
H433 H 0.28715 0.94887 0.84118 0.0
H434 H 0.36874 0.95456 0.84502 0.0
H435 H 0.30825 0.9291 0.86654 0.0
H436 H 0.38843 0.02672 0.78532 0.0
H437 H 0.36774 0.96634 0.7566 0.0
H438 H 0.21493 0.94996 0.76619 0.0
H439 H 0.25736 0.90284 0.79546 0.0
Li440 Li 0.0028 0.31497 0.29878 0.0
Li441 Li -0.00124 0.29541 0.32928 0.0
Li442 Li 0.02073 0.27995 0.30297 0.0
Li443 Li 0.98038 0.28155 0.30124 0.0
C444 C 0.04802 0.30603 0.3218 0.0
N445 N 0.09256 0.3007 0.32998 0.0
C446 C 0.05477 0.30027 0.34031 0.0
C447 C 0.06394 0.30922 0.30748 0.0
C448 C 0.07737 0.29764 0.34416 0.0
C449 C 0.08637 0.30638 0.31189 0.0
C450 C 0.96386 0.32215 0.32718 0.0
C451 C 0.93916 0.32364 0.35435 0.0
N452 N 0.94178 0.34607 0.35509 0.0
C453 C 0.96628 0.34522 0.32818 0.0
C454 C 0.95014 0.31125 0.34032 0.0
C455 C 0.95498 0.35702 0.3424 0.0
C456 C 0.98715 0.35131 0.27722 0.0
N457 N 0.00493 0.34314 0.28693 0.0
C458 C 0.02617 0.37548 0.27965 0.0
C459 C 0.02422 0.35469 0.28827 0.0
C460 C 0.00805 0.38445 0.26963 0.0
C461 C 0.9884 0.37202 0.2683 0.0
H462 H 0.97195 0.34179 0.2766 0.0
H463 H 0.03801 0.34785 0.29619 0.0
C464 C 0.99671 0.27952 0.36708 0.0
N465 N -0.0025 0.29835 0.35637 0.0
C466 C 0.99645 0.28078 0.38704 0.0
C467 C -0.00229 0.32083 0.3846 0.0
C468 C -0.00166 0.31876 0.36467 0.0
C469 C 0.99683 0.30165 0.39612 0.0
H470 H 0.99668 0.26348 0.36013 0.0
H471 H -0.00048 0.33345 0.35581 0.0
C472 C 0.00141 0.29936 0.26384 0.0
N473 N -0.00088 0.32195 0.2294 0.0
C474 C 0.98114 0.30141 0.25425 0.0
C475 C 0.02053 0.30874 0.25587 0.0
C476 C 0.98034 0.31289 0.23685 0.0
C477 C 0.01902 0.32014 0.23847 0.0
C478 C 0.98883 0.24462 0.31924 0.0
C479 C 0.99703 0.22776 0.30743 0.0
C480 C 0.9695 0.24104 0.32988 0.0
C481 C 0.98563 0.20758 0.30636 0.0
C482 C 0.95856 0.22066 0.32837 0.0
N483 N 0.96678 0.2045 0.31674 0.0
C484 C 0.05702 0.25211 0.3114 0.0
C485 C 0.05175 0.25967 0.27836 0.0
C486 C 0.0754 0.23883 0.30731 0.0
N487 N 0.04579 0.26232 0.29699 0.0
C488 C 0.06993 0.24646 0.2736 0.0
C489 C 0.08203 0.23581 0.28817 0.0
H490 H 0.05164 0.25427 0.32607 0.0
H491 H 0.04219 0.26754 0.26717 0.0
C492 C 0.93457 0.27063 0.29857 0.0
N493 N 0.9552 0.26647 0.29159 0.0
C494 C 0.91632 0.25893 0.2915 0.0
C495 C 0.94094 0.23929 0.26997 0.0
C496 C 0.95868 0.25127 0.27752 0.0
C497 C 0.91943 0.24302 0.27702 0.0
H498 H 0.93228 0.28297 0.30962 0.0
H499 H 0.97532 0.24839 0.27225 0.0
O500 O 0.02595 0.3084 0.31768 0.0
O501 O 0.97487 0.3103 0.31341 0.0
O502 O 0.00247 0.28855 0.28107 0.0
O503 O -0.00061 0.26471 0.32007 0.0
H504 H 0.04272 0.29771 0.35157 0.0
H505 H 0.05901 0.31348 0.29302 0.0
H506 H 0.08282 0.29311 0.3584 0.0
H507 H 0.09885 0.30862 0.30091 0.0
H508 H 0.92861 0.3154 0.3647 0.0
H509 H 0.9769 0.35393 0.31819 0.0
H510 H 0.94827 0.29338 0.3399 0.0
H511 H 0.95675 0.37487 0.34338 0.0
H512 H 0.04163 0.38454 0.28094 0.0
H513 H 0.97394 0.37853 0.26099 0.0
H514 H 0.9964 0.26549 0.39522 0.0
H515 H -0.00219 0.33729 0.39084 0.0
H516 H 0.96613 0.29448 0.26028 0.0
H517 H 0.0363 0.30755 0.26319 0.0
H518 H 0.96475 0.31468 0.22933 0.0
H519 H 0.03364 0.32761 0.23221 0.0
H520 H 0.0119 0.2303 0.29901 0.0
H521 H 0.96287 0.25398 0.339 0.0
H522 H 0.99172 0.19442 0.2972 0.0
H523 H 0.94349 0.21771 0.33641 0.0
H524 H 0.08431 0.23105 0.319 0.0
H525 H 0.07412 0.24419 0.25864 0.0
H526 H 0.89996 0.26242 0.29717 0.0
H527 H 0.94407 0.22697 0.25898 0.0
Li528 Li 0.70326 0.99625 0.83045 0.0
Li529 Li 0.71688 0.97606 0.80249 0.0
Li530 Li 0.71608 0.01754 0.80234 0.0
Li531 Li 0.68241 0.99544 0.79919 0.0
C532 C 0.7499 0.00383 0.83116 0.0
N533 N 0.78337 0.01756 0.8555 0.0
C534 C 0.76609 0.98878 0.83728 0.0
C535 C 0.75099 0.02595 0.83716 0.0
C536 C 0.7828 0.99601 0.84967 0.0
C537 C 0.76797 0.03256 0.84952 0.0
C538 C 0.68949 0.948 0.81878 0.0
C539 C 0.68547 0.91158 0.80477 0.0
N540 N 0.69145 0.90225 0.82176 0.0
C541 C 0.69542 0.93805 0.83614 0.0
C542 C 0.68428 0.93468 0.803 0.0
C543 C 0.69637 0.91489 0.83734 0.0
C544 C 0.68291 0.0055 0.866 0.0
N545 N 0.70087 0.99593 0.85759 0.0
C546 C 0.71536 0.98532 0.88811 0.0
C547 C 0.71684 0.98573 0.86817 0.0
C548 C 0.69717 0.99537 0.89726 0.0
C549 C 0.68078 0.00554 0.88593 0.0
H550 H 0.67023 0.0131 0.8572 0.0
H551 H 0.73061 0.97769 0.86112 0.0
C552 C 0.73592 0.94694 0.77565 0.0
N553 N 0.73356 0.95096 0.79469 0.0
C554 C 0.74846 0.9289 0.76935 0.0
C555 C 0.75594 0.91945 0.80242 0.0
C556 C 0.74319 0.93767 0.80807 0.0
C557 C 0.75884 0.91498 0.7828 0.0
H558 H 0.72827 0.95788 0.76532 0.0
H559 H 0.74112 0.94135 0.82313 0.0
C560 C 0.68269 0.04202 0.82244 0.0
N561 N 0.67208 0.08464 0.83408 0.0
C562 C 0.66648 0.05419 0.81267 0.0
C563 C 0.69319 0.05141 0.83836 0.0
C564 C 0.66144 0.07575 0.81871 0.0
C565 C 0.68768 0.07301 0.84396 0.0
C566 C 0.69913 -0.00137 0.76374 0.0
C567 C 0.70038 0.0189 0.75401 0.0
C568 C 0.68845 0.98059 0.75512 0.0
C569 C 0.69063 0.02088 0.73592 0.0
C570 C 0.67888 0.98325 0.73703 0.0
N571 N 0.68015 0.00317 0.72789 0.0
C572 C 0.75351 0.03904 0.78932 0.0
C573 C 0.72234 0.06303 0.79071 0.0
C574 C 0.76659 0.056 0.78178 0.0
N575 N 0.73187 0.04282 0.79363 0.0
C576 C 0.73484 0.08052 0.7832 0.0
C577 C 0.75722 0.07703 0.7785 0.0
H578 H 0.76055 0.02271 0.79158 0.0
H579 H 0.70497 0.06548 0.79371 0.0
C580 C 0.64043 0.97722 0.79223 0.0
N581 N 0.65391 0.99453 0.78775 0.0
C582 C 0.61952 0.97547 0.78386 0.0
C583 C 0.62673 0.00944 0.7664 0.0
C584 C 0.64747 0.01059 0.77523 0.0
C585 C 0.61243 0.9917 0.77071 0.0
H586 H 0.64584 0.96486 0.80244 0.0
H587 H 0.65848 0.02424 0.77199 0.0
O588 O 0.73343 0.99696 0.819 0.0
O589 O 0.68883 0.97066 0.81723 0.0
O590 O 0.68772 0.02083 0.81675 0.0
O591 O 0.70847 0.99642 0.78152 0.0
H592 H 0.76571 0.97165 0.8326 0.0
H593 H 0.73907 0.03799 0.83212 0.0
H594 H 0.79533 0.98449 0.85463 0.0
H595 H 0.76896 0.04963 0.85429 0.0
H596 H 0.68165 0.90108 0.79263 0.0
H597 H 0.69936 0.94809 0.84852 0.0
H598 H 0.67957 0.9421 0.78949 0.0
H599 H 0.70106 0.90697 0.85066 0.0
H600 H 0.72843 0.97739 0.89628 0.0
H601 H 0.66631 0.01316 0.89238 0.0
H602 H 0.75003 0.92593 0.7541 0.0
H603 H 0.76388 0.90933 0.81327 0.0
H604 H 0.65795 0.04713 0.8005 0.0
H605 H 0.70525 0.04207 0.8465 0.0
H606 H 0.64904 0.08539 0.81118 0.0
H607 H 0.69574 0.08048 0.85623 0.0
H608 H 0.70867 0.03301 0.76037 0.0
H609 H 0.68735 0.96477 0.7624 0.0
H610 H 0.69138 0.03651 0.72828 0.0
H611 H 0.67041 0.96947 0.73027 0.0
H612 H 0.78386 0.05268 0.77857 0.0
H613 H 0.72692 0.09641 0.78063 0.0
H614 H 0.60885 0.96181 0.78799 0.0
H615 H 0.622 0.02225 0.75629 0.0
Li616 Li 0.97631 0.717 0.30109 0.0
Li617 Li 0.01676 0.71695 0.30134 0.0
Li618 Li 0.99568 0.6827 0.29789 0.0
Li619 Li 0.997 0.7024 0.32849 0.0
C620 C -0.00041 0.69836 0.26305 0.0
N621 N 0.00634 0.67601 0.22894 0.0
C622 C 0.02064 0.69798 0.25464 0.0
C623 C 0.98195 0.68744 0.25406 0.0
C624 C 0.02371 0.6866 0.23739 0.0
C625 C 0.98571 0.6762 0.23685 0.0
C626 C 0.00555 0.75358 0.31957 0.0
C627 C 0.03427 0.77828 0.33074 0.0
N628 N 0.02554 0.79488 0.31986 0.0
C629 C 0.99679 0.77091 0.30858 0.0
C630 C 0.02436 0.7573 0.33084 0.0
C631 C 0.00716 0.79167 0.3089 0.0
C632 C 0.93928 0.74465 0.30737 0.0
N633 N 0.95103 0.73358 0.29376 0.0
C634 C 0.92691 0.74675 0.26916 0.0
C635 C 0.94529 0.73442 0.27495 0.0
C636 C 0.91444 0.75845 0.28285 0.0
C637 C 0.92074 0.75719 0.30221 0.0
H638 H 0.94446 0.74386 0.32219 0.0
H639 H 0.9551 0.72568 0.26443 0.0
C640 C 0.06279 0.72627 0.29851 0.0
N641 N 0.04215 0.73267 0.29298 0.0
C642 C 0.08139 0.73789 0.29205 0.0
C643 C 0.05704 0.76234 0.27431 0.0
C644 C 0.03897 0.75013 0.28095 0.0
C645 C 0.07864 0.75625 0.27981 0.0
H646 H 0.06483 0.71203 0.30778 0.0
H647 H 0.02235 0.75457 0.27656 0.0
C648 C 0.94874 0.69046 0.31861 0.0
N649 N 0.90365 0.69536 0.32443 0.0
C650 C 0.94068 0.69687 0.33657 0.0
C651 C 0.93385 0.68641 0.30364 0.0
C652 C 0.91783 0.69926 0.33921 0.0
C653 C 0.91112 0.68904 0.30686 0.0
C654 C 0.03327 0.6772 0.32801 0.0
C655 C 0.03142 0.6541 0.32938 0.0
C656 C 0.04633 0.68877 0.34121 0.0
C657 C 0.04257 0.64295 0.34408 0.0
C658 C 0.05717 0.67702 0.35572 0.0
N659 N 0.05508 0.65455 0.35685 0.0
C660 C 0.01411 0.64684 0.27738 0.0
C661 C 0.97658 0.64211 0.28679 0.0
C662 C 0.01423 0.62599 0.26866 0.0
N663 N 0.99545 0.6544 0.28618 0.0
C664 C 0.97598 0.62116 0.27833 0.0
C665 C 0.99503 0.61279 0.26925 0.0
H666 H 0.02893 0.65697 0.27732 0.0
H667 H 0.96207 0.64848 0.29401 0.0
C668 C 0.99604 0.71828 0.36635 0.0
N669 N 0.99675 0.69946 0.35559 0.0
C670 C 0.99516 0.71693 0.38629 0.0
C671 C 0.99595 0.67685 0.38374 0.0
C672 C 0.99636 0.67897 0.36382 0.0
C673 C 0.99522 0.69601 0.39517 0.0
H674 H 0.99589 0.73434 0.35942 0.0
H675 H 0.99623 0.66429 0.3549 0.0
O676 O 0.99632 0.70909 0.28011 0.0
O677 O 0.99589 0.73303 0.31918 0.0
O678 O 0.97109 0.68842 0.31563 0.0
O679 O 0.02235 0.68843 0.3138 0.0
H680 H 0.03452 0.70619 0.26142 0.0
H681 H 0.96561 0.68729 0.26049 0.0
H682 H 0.03993 0.6861 0.23076 0.0
H683 H 0.97226 0.66753 0.22982 0.0
H684 H 0.04893 0.78135 0.33928 0.0
H685 H 0.98229 0.7683 0.29972 0.0
H686 H 0.03135 0.74406 0.33941 0.0
H687 H 0.00063 0.8052 0.30038 0.0
H688 H 0.92252 0.74713 0.25411 0.0
H689 H 0.91179 0.76623 0.31318 0.0
H690 H 0.09773 0.73235 0.2964 0.0
H691 H 0.05405 0.77653 0.26513 0.0
H692 H 0.95193 0.70012 0.3483 0.0
H693 H 0.9398 0.68169 0.28959 0.0
H694 H 0.91136 0.70429 0.35301 0.0
H695 H 0.89944 0.68615 0.29536 0.0
H696 H 0.02134 0.64488 0.31933 0.0
H697 H 0.04789 0.70665 0.34038 0.0
H698 H 0.04121 0.62509 0.34538 0.0
H699 H 0.06722 0.68578 0.36612 0.0
H700 H 0.02935 0.61997 0.26206 0.0
H701 H 0.96082 0.61152 0.279 0.0
H702 H 0.9946 0.73205 0.3947 0.0
H703 H 0.99572 0.66045 0.39015 0.0
H704 H 0.28149 0.02678 0.0764 0.0
H705 H 0.28447 0.02615 0.04149 0.0
H706 H 0.33268 0.97334 0.04512 0.0
H707 H 0.32903 0.97309 0.08 0.0
H708 H 0.32045 0.03311 0.01805 0.0
H709 H 0.28731 0.9477 0.00826 0.0
H710 H 0.28518 0.96245 0.03069 0.0
H711 H 0.31086 0.9494 0.02393 0.0
C712 C 0.29252 0.01482 0.06978 0.0
C713 C 0.30485 -0.00017 0.08102 0.0
C714 C 0.29435 0.01463 0.04983 0.0
C715 C 0.30852 -0.00054 0.04071 0.0
C716 C 0.3213 0.98487 0.05186 0.0
H717 H 0.33277 0.97656 0.91866 0.0
H718 H 0.33624 0.97706 0.95372 0.0
C719 C 0.3194 0.98496 0.07182 0.0
C720 C 0.30981 -0.00103 0.01952 0.0
H721 H 0.30042 0.96603 0.9805 0.0
C722 C 0.31611 0.01843 0.00984 0.0
C723 C 0.30414 0.97979 0.00885 0.0
C724 C 0.2963 0.9587 0.01842 0.0
C725 C 0.31681 0.01925 0.98975 0.0
C726 C 0.31089 0.00017 0.97913 0.0
C727 C 0.30503 0.98058 0.98876 0.0
C728 C 0.30951 0.00054 0.95799 0.0
C729 C 0.32386 0.04049 0.98001 0.0
C730 C 0.29325 0.01347 0.94892 0.0
C731 C 0.29119 0.01316 0.929 0.0
C732 C 0.30536 -9e-05 0.9178 0.0
C733 C 0.32176 0.98708 0.92693 0.0
C734 C 0.32371 0.98728 0.9469 0.0
H735 H 0.33284 0.05173 0.98997 0.0
H736 H 0.33469 0.03692 0.9675 0.0
H737 H 0.30892 0.04936 0.97472 0.0
H738 H 0.28196 0.02358 0.95729 0.0
H739 H 0.27853 0.02336 0.92235 0.0
H740 H 0.98011 0.33207 0.57996 0.0
H741 H 0.98001 0.33431 0.54508 0.0
H742 H 0.02164 0.27609 0.54206 0.0
H743 H 0.02333 0.27474 0.57693 0.0
H744 H 0.03491 0.30563 0.51708 0.0
H745 H 0.94381 0.29649 0.51015 0.0
H746 H 0.95145 0.32019 0.52423 0.0
H747 H 0.95803 0.29265 0.53263 0.0
C748 C 0.98958 0.31993 0.57195 0.0
C749 C 0.00161 0.3031 0.58138 0.0
C750 C 0.98917 0.32102 0.55194 0.0
C751 C 0.00032 0.30502 0.54092 0.0
C752 C 0.0127 0.28849 0.55026 0.0
H753 H 0.97508 0.2749 0.42189 0.0
H754 H 0.97684 0.27618 0.45674 0.0
C755 C 0.01344 0.2876 0.57024 0.0
C756 C -0.0007 0.30551 0.51967 0.0
H757 H 0.96353 0.3056 0.48174 0.0
C758 C 0.0193 0.30555 0.50934 0.0
C759 C 0.97893 0.30507 0.50958 0.0
C760 C 0.95685 0.30336 0.51971 0.0
C761 C 0.01952 0.30515 0.48924 0.0
C762 C -0.00086 0.30557 0.47914 0.0
C763 C 0.97914 0.30554 0.48947 0.0
C764 C -0.00188 0.30512 0.45789 0.0
C765 C 0.0416 0.30351 0.4791 0.0
C766 C 0.00924 0.32115 0.44687 0.0
C767 C 0.00879 0.3201 0.42687 0.0
C768 C 0.99677 0.30328 0.41743 0.0
C769 C 0.98498 0.28775 0.42857 0.0
C770 C 0.98575 0.2886 0.44855 0.0
H771 H 0.05467 0.29665 0.48865 0.0
H772 H 0.04046 0.29284 0.46616 0.0
H773 H 0.04695 0.32037 0.4746 0.0
H774 H 0.01838 0.33443 0.45373 0.0
H775 H 0.01823 0.33226 0.41885 0.0
H776 H 0.70627 0.96106 0.92177 0.0
H777 H 0.70435 0.96123 0.9568 0.0
H778 H 0.68221 0.02938 0.95576 0.0
H779 H 0.6842 0.02941 0.92073 0.0
H780 H 0.72755 0.98913 0.98182 0.0
H781 H 0.63649 -0.00103 0.99052 0.0
H782 H 0.64906 0.99073 0.96813 0.0
H783 H 0.64925 0.0194 0.97533 0.0
C784 C 0.70103 0.9761 0.929 0.0
C785 C 0.69537 0.99523 0.91848 0.0
C786 C 0.69984 0.97613 0.94899 0.0
C787 C 0.69285 0.99521 0.95883 0.0
C788 C 0.68717 0.01432 0.9484 0.0
H789 H 0.68271 0.03188 0.07851 0.0
H790 H 0.68244 0.0307 0.04345 0.0
C791 C 0.68833 0.01431 0.9284 0.0
C792 C 0.69244 0.99537 0.98003 0.0
H793 H 0.65839 0.00234 0.01868 0.0
C794 C 0.71242 0.99188 0.9899 0.0
C795 C 0.67267 -0.00095 0.99048 0.0
C796 C 0.65059 0.00206 0.98062 0.0
C797 C 0.71326 0.99236 0.00999 0.0
C798 C 0.69349 0.99604 0.02044 0.0
C799 C 0.6735 -0.00048 0.01059 0.0
C800 C 0.69329 0.99649 0.04164 0.0
C801 C 0.73536 0.98943 0.01983 0.0
C802 C 0.69915 0.97753 0.05219 0.0
C803 C 0.69946 0.97818 0.07221 0.0
C804 C 0.69379 -0.0022 0.08202 0.0
C805 C 0.68749 0.01663 0.07138 0.0
C806 C 0.68718 0.01595 0.05136 0.0
H807 H 0.74946 0.99228 0.00986 0.0
H808 H 0.73699 0.00099 0.03216 0.0
H809 H 0.73665 0.97219 0.02536 0.0
H810 H 0.70357 0.96225 0.04494 0.0
H811 H 0.70455 0.96345 0.07997 0.0
H812 H 0.02302 0.67287 0.41861 0.0
H813 H 0.02238 0.67146 0.4537 0.0
H814 H 0.96416 0.71328 0.45415 0.0
H815 H 0.96541 0.71549 0.41913 0.0
H816 H 0.99227 0.72748 0.4793 0.0
H817 H 0.98417 0.63665 0.48918 0.0
H818 H 0.00825 0.64354 0.47533 0.0
H819 H 0.98103 0.64975 0.46609 0.0
C820 C 0.01 0.68157 0.42627 0.0
C821 C 0.99425 0.69426 0.41627 0.0
C822 C 0.00954 0.68063 0.44628 0.0
C823 C 0.99295 0.69189 0.45659 0.0
C824 C 0.97707 0.70439 0.44653 0.0
H825 H 0.96877 0.67268 0.57877 0.0
H826 H 0.96701 0.67185 0.54365 0.0
C827 C 0.97779 0.70567 0.42656 0.0
C828 C 0.99281 0.6917 0.47787 0.0
H829 H 0.99443 0.6576 0.51697 0.0
C830 C 0.99255 0.71217 0.48752 0.0
C831 C 0.99281 0.67175 0.48864 0.0
C832 C 0.99133 0.6492 0.47927 0.0
C833 C 0.99265 0.71329 0.50759 0.0
C834 C 0.99396 0.69337 0.51835 0.0
C835 C 0.99378 0.67288 0.50872 0.0
C836 C 0.99536 0.69346 0.53958 0.0
C837 C 0.99088 0.73581 0.517 0.0
C838 C 0.01213 0.70549 0.54894 0.0
C839 C 0.0129 0.70627 0.56892 0.0
C840 C -0.00273 0.69455 0.5799 0.0
C841 C 0.98101 0.68182 0.57057 0.0
C842 C 0.98 0.68136 0.55056 0.0
H843 H 0.98285 0.74812 0.50735 0.0
H844 H 0.98121 0.73497 0.53053 0.0
H845 H 0.00777 0.74203 0.52034 0.0
H846 H 0.02461 0.71434 0.54079 0.0
H847 H 0.02581 0.7159 0.57582 0.0
H848 H 0.39969 0.01448 0.25987 0.0
H849 H 0.43837 0.01579 0.27092 0.0
H850 H 0.45818 0.97573 0.2226 0.0
H851 H 0.41996 0.97454 0.21141 0.0
H852 H 0.47684 0.96261 0.25922 0.0
H853 H 0.48687 0.05284 0.24272 0.0
H854 H 0.46438 0.04426 0.25801 0.0
H855 H 0.46407 0.03694 0.2331 0.0
C856 C 0.41234 0.00599 0.25163 0.0
C857 C 0.40679 0.99439 0.23477 0.0
C858 C 0.43435 0.0067 0.25798 0.0
C859 C 0.45104 0.99591 0.24752 0.0
C860 C 0.44546 0.98401 0.23095 0.0
H861 H 0.57797 0.97626 0.21308 0.0
H862 H 0.53953 0.97505 0.22403 0.0
C863 C 0.42358 0.98329 0.2246 0.0
C864 C 0.47465 -0.00241 0.25291 0.0
H865 H 0.51914 0.03211 0.24801 0.0
C866 C 0.48608 0.97792 0.25729 0.0
C867 C 0.48657 0.01764 0.25054 0.0
C868 C 0.47499 0.03918 0.24577 0.0
C869 C 0.5093 0.97743 0.25786 0.0
C870 C 0.52125 0.99702 0.2537 0.0
C871 C 0.50983 0.01711 0.2511 0.0
C872 C 0.54501 0.99628 0.24862 0.0
C873 C 0.52088 0.95569 0.26185 0.0
C874 C 0.56072 0.00885 0.25874 0.0
C875 C 0.58276 0.00959 0.25245 0.0
C876 C 0.58916 -0.00186 0.23577 0.0
C877 C 0.5734 0.98538 0.22587 0.0
C878 C 0.55154 0.98447 0.23224 0.0
H879 H 0.5104 0.9446 0.27081 0.0
H880 H 0.52414 0.94705 0.24808 0.0
H881 H 0.53699 0.9584 0.26922 0.0
H882 H 0.55586 0.0183 0.27127 0.0
H883 H 0.59462 0.01965 0.26025 0.0
H884 H 0.9737 0.42125 0.71057 0.0
H885 H 0.97498 0.45958 0.72166 0.0
H886 H 0.00486 0.43824 0.77478 0.0
H887 H 0.00382 0.39955 0.76359 0.0
H888 H 0.95761 0.48108 0.7535 0.0
H889 H 0.05015 0.48221 0.75344 0.0
H890 H 0.03465 0.45974 0.74283 0.0
H891 H 0.03656 0.46207 0.76843 0.0
C892 C 0.9802 0.42463 0.72475 0.0
C893 C 0.98874 0.40744 0.73619 0.0
C894 C 0.98095 0.44654 0.73107 0.0
C895 C 0.9902 0.45175 0.74895 0.0
C896 C -0.00202 0.43458 0.76079 0.0
H897 H 0.98545 0.59805 0.76195 0.0
H898 H 0.98326 0.55951 0.77343 0.0
C899 C -0.00262 0.41255 0.75439 0.0
C900 C 0.99284 0.4754 0.75418 0.0
H901 H 0.03192 0.51634 0.75547 0.0
C902 C 0.97382 0.48885 0.75442 0.0
C903 C 0.01406 0.48534 0.75541 0.0
C904 C 0.03509 0.47171 0.75493 0.0
C905 C 0.97546 0.51209 0.75411 0.0
C906 C 0.99673 0.52201 0.754 0.0
C907 C 0.01568 0.50858 0.75553 0.0
C908 C -0.00021 0.54558 0.74864 0.0
C909 C 0.95453 0.52571 0.75222 0.0
C910 C 0.01041 0.55049 0.73127 0.0
C911 C 0.0118 0.57231 0.72479 0.0
C912 C 0.00255 0.58971 0.73555 0.0
C913 C 0.99247 0.58489 0.75327 0.0
C914 C 0.99122 0.56295 0.75983 0.0
H915 H 0.9396 0.51519 0.75004 0.0
H916 H 0.95203 0.53561 0.76546 0.0
H917 H 0.95591 0.53745 0.74 0.0
H918 H 0.01702 0.53729 0.72236 0.0
H919 H 0.0194 0.57545 0.71098 0.0
H920 H 0.58984 0.95489 0.75836 0.0
H921 H 0.55058 0.95263 0.74971 0.0
H922 H 0.5446 0.0237 0.75552 0.0
H923 H 0.58358 0.02612 0.76471 0.0
H924 H 0.51883 0.96933 0.77754 0.0
H925 H 0.5084 0.00805 0.70582 0.0
H926 H 0.53436 0.9961 0.71379 0.0
H927 H 0.52587 0.02293 0.72232 0.0
C928 C 0.58023 0.97008 0.7576 0.0
C929 C 0.58977 0.99066 0.76247 0.0
C930 C 0.5579 0.96876 0.75244 0.0
C931 C 0.54485 0.98802 0.7518 0.0
C932 C 0.55457 0.00872 0.75556 0.0
H933 H 0.41031 0.02882 0.75781 0.0
H934 H 0.44972 0.02445 0.75079 0.0
C935 C 0.57686 0.01005 0.76084 0.0
C936 C 0.52051 0.98622 0.75041 0.0
H937 H 0.47559 0.00327 0.72457 0.0
C938 C 0.50931 0.97637 0.76581 0.0
C939 C 0.50834 0.99573 0.7352 0.0
C940 C 0.5198 0.00618 0.71824 0.0
C941 C 0.48614 0.97666 0.76691 0.0
C942 C 0.47383 0.98639 0.75178 0.0
C943 C 0.48506 0.99569 0.73606 0.0
C944 C 0.44942 0.98857 0.75293 0.0
C945 C 0.47522 0.9677 0.78482 0.0
C946 C 0.436 0.9698 0.75565 0.0
C947 C 0.41363 0.97226 0.76031 0.0
C948 C 0.4041 0.99356 0.76183 0.0
C949 C 0.41721 0.01222 0.75738 0.0
C950 C 0.4397 0.00974 0.75309 0.0
H951 H 0.48716 0.96612 0.79687 0.0
H952 H 0.46137 0.9786 0.7895 0.0
H953 H 0.46842 0.95092 0.78183 0.0
H954 H 0.44309 0.95327 0.75509 0.0
H955 H 0.40419 0.95746 0.76367 0.0
H956 H 0.02464 0.42103 0.28731 0.0
H957 H 0.02351 0.45935 0.27616 0.0
H958 H 0.99266 0.43818 0.22342 0.0
H959 H 0.99351 0.39951 0.23469 0.0
H960 H 0.04038 0.48091 0.24433 0.0
H961 H 0.94786 0.48224 0.24507 0.0
H962 H 0.96344 0.45966 0.25545 0.0
H963 H 0.96117 0.46214 0.22988 0.0
C964 C 0.01796 0.42444 0.27319 0.0
C965 C 0.00907 0.40732 0.2619 0.0
C966 C 0.0173 0.44635 0.26684 0.0
C967 C 0.00779 0.45161 0.24906 0.0
C968 C -0.00028 0.43448 0.23733 0.0
H969 H 0.01236 0.59789 0.23521 0.0
H970 H 0.01472 0.5592 0.22412 0.0
C971 C 0.00022 0.41247 0.24377 0.0
C972 C 0.00514 0.47529 0.24386 0.0
H973 H 0.9661 0.5163 0.24262 0.0
C974 C 0.02418 0.4887 0.24347 0.0
C975 C 0.98393 0.48526 0.24272 0.0
C976 C 0.96287 0.4717 0.24339 0.0
C977 C 0.02256 0.51195 0.24371 0.0
C978 C 0.00131 0.52191 0.24388 0.0
C979 C 0.98234 0.50851 0.24251 0.0
C980 C -0.00171 0.54553 0.24907 0.0
C981 C 0.04352 0.52554 0.24542 0.0
C982 C 0.98769 0.55063 0.26641 0.0
C983 C 0.9862 0.57253 0.27267 0.0
C984 C 0.99532 0.58982 0.2617 0.0
C985 C 0.00543 0.58481 0.24404 0.0
C986 C 0.00679 0.56279 0.2377 0.0
H987 H 0.05844 0.51501 0.24764 0.0
H988 H 0.04597 0.53531 0.2321 0.0
H989 H 0.04221 0.5374 0.25756 0.0
H990 H 0.98115 0.53752 0.27546 0.0
H991 H 0.97858 0.57583 0.28644 0.0
H992 H 0.09258 0.19578 0.30439 0.0
H993 H 0.12228 0.17037 0.29508 0.0
H994 H 0.14295 0.21612 0.25094 0.0
H995 H 0.11392 0.2421 0.26072 0.0
H996 H 0.12617 0.15063 0.26019 0.0
H997 H 0.20168 0.20011 0.27579 0.0
H998 H 0.17469 0.20744 0.28508 0.0
H999 H 0.18207 0.21435 0.26082 0.0
C1000 C 0.10378 0.20071 0.29302 0.0
C1001 C 0.10088 0.22099 0.28331 0.0
C1002 C 0.12064 0.1861 0.28763 0.0
C1003 C 0.13497 0.19148 0.27248 0.0
C1004 C 0.13236 0.21183 0.26293 0.0
H1005 H 0.22123 0.11069 0.20225 0.0
H1006 H 0.19724 0.1399 0.21528 0.0
C1007 C 0.11555 0.22651 0.26836 0.0
C1008 C 0.15149 0.17507 0.26574 0.0
H1009 H 0.20672 0.16733 0.25693 0.0
C1010 C 0.14379 0.15423 0.25962 0.0
C1011 C 0.17447 0.17985 0.26501 0.0
C1012 C 0.18378 0.20157 0.2722 0.0
C1013 C 0.15843 0.13815 0.2525 0.0
C1014 C 0.18128 0.14308 0.25148 0.0
C1015 C 0.1891 0.16379 0.25768 0.0
C1016 C 0.1972 0.12664 0.24408 0.0
C1017 C 0.1495 0.11601 0.24592 0.0
C1018 C 0.20521 0.10985 0.25612 0.0
C1019 C 0.21898 0.09325 0.24879 0.0
C1020 C 0.22487 0.09317 0.22927 0.0
C1021 C 0.21719 0.11041 0.21737 0.0
C1022 C 0.20345 0.12705 0.22474 0.0
H1023 H 0.13111 0.1152 0.24674 0.0
H1024 H 0.15472 0.1128 0.23091 0.0
H1025 H 0.15654 0.10257 0.25497 0.0
H1026 H 0.2005 0.1094 0.2711 0.0
H1027 H 0.22491 0.08041 0.25839 0.0
H1028 H 0.87979 0.24507 0.73528 0.0
H1029 H 0.85099 0.21902 0.7457 0.0
H1030 H 0.87558 0.17016 0.7058 0.0
H1031 H 0.9048 0.19577 0.69571 0.0
H1032 H 0.81726 0.19553 0.72463 0.0
H1033 H 0.8789 0.13935 0.75873 0.0
H1034 H 0.88551 0.16744 0.75166 0.0
H1035 H 0.88439 0.1457 0.73402 0.0
C1036 C 0.87906 0.22877 0.72874 0.0
C1037 C 0.8947 0.22238 0.71482 0.0
C1038 C 0.86252 0.214 0.73461 0.0
C1039 C 0.86144 0.19262 0.7267 0.0
C1040 C 0.87639 0.18652 0.71223 0.0
H1041 H 0.78638 0.07374 0.74874 0.0
H1042 H 0.81029 0.10283 0.73569 0.0
C1043 C 0.89293 0.20125 0.70637 0.0
C1044 C 0.84531 0.17632 0.73417 0.0
H1045 H 0.84186 0.12646 0.75721 0.0
C1046 C 0.82256 0.18044 0.73182 0.0
C1047 C 0.85239 0.15679 0.74363 0.0
C1048 C 0.87661 0.15207 0.74735 0.0
C1049 C 0.80663 0.16515 0.73828 0.0
C1050 C 0.81376 0.14549 0.74751 0.0
C1051 C 0.8365 0.14152 0.75002 0.0
C1052 C 0.79802 0.12856 0.75458 0.0
C1053 C 0.78238 0.16986 0.7348 0.0
C1054 C 0.7832 0.13347 0.7695 0.0
C1055 C 0.76959 0.11684 0.77707 0.0
C1056 C 0.77075 0.09502 0.76992 0.0
C1057 C 0.78537 0.09031 0.75475 0.0
C1058 C 0.79892 0.10691 0.7472 0.0
H1059 H 0.77995 0.18298 0.72379 0.0
H1060 H 0.77357 0.15458 0.73013 0.0
H1061 H 0.77465 0.17564 0.74834 0.0
H1062 H 0.78261 0.14999 0.77563 0.0
H1063 H 0.75866 0.12089 0.78888 0.0
H1064 H 0.91237 0.78604 0.25189 0.0
H1065 H 0.88183 0.81032 0.24243 0.0
H1066 H 0.8434 0.78755 0.29073 0.0
H1067 H 0.87391 0.76295 0.30027 0.0
H1068 H 0.83681 0.79977 0.2338 0.0
H1069 H 0.84542 0.85601 0.29675 0.0
H1070 H 0.86669 0.83637 0.29007 0.0
H1071 H 0.84195 0.82692 0.30185 0.0
C1072 C 0.89733 0.78595 0.26037 0.0
C1073 C 0.89556 0.77261 0.27685 0.0
C1074 C 0.87994 0.79989 0.25498 0.0
C1075 C 0.86051 0.80084 0.26599 0.0
C1076 C 0.85843 0.78726 0.28224 0.0
H1077 H 0.74521 0.87775 0.22606 0.0
H1078 H 0.76793 0.84727 0.23869 0.0
C1079 C 0.87587 0.77328 0.28767 0.0
C1080 C 0.84277 0.81656 0.26054 0.0
H1081 H 0.8181 0.86514 0.274 0.0
C1082 C 0.83249 0.81394 0.24264 0.0
C1083 C 0.8374 0.83507 0.27212 0.0
C1084 C 0.8485 0.83897 0.29122 0.0
C1085 C 0.81731 0.82972 0.23577 0.0
C1086 C 0.81219 0.84839 0.24723 0.0
C1087 C 0.82204 0.8507 0.26534 0.0
C1088 C 0.79811 0.86667 0.24005 0.0
C1089 C 0.8076 0.82682 0.21599 0.0
C1090 C 0.80752 0.88768 0.23702 0.0
C1091 C 0.79462 0.90508 0.22996 0.0
C1092 C 0.77202 0.90181 0.22588 0.0
C1093 C 0.76255 0.88078 0.22916 0.0
C1094 C 0.77552 0.86333 0.23621 0.0
H1095 H 0.81621 0.81359 0.20773 0.0
H1096 H 0.78984 0.8222 0.21726 0.0
H1097 H 0.80858 0.84261 0.20779 0.0
H1098 H 0.82493 0.89056 0.24 0.0
H1099 H 0.8023 0.92118 0.22791 0.0
H1100 H 0.11134 0.75489 0.74118 0.0
H1101 H 0.13892 0.78191 0.75199 0.0
H1102 H 0.12278 0.82435 0.70415 0.0
H1103 H 0.0944 0.79808 0.69381 0.0
H1104 H 0.17602 0.7999 0.73496 0.0
H1105 H 0.11324 0.8652 0.74965 0.0
H1106 H 0.10578 0.83671 0.74487 0.0
H1107 H 0.11257 0.85517 0.72544 0.0
C1108 C 0.11354 0.77005 0.73303 0.0
C1109 C 0.10044 0.77444 0.71677 0.0
C1110 C 0.12943 0.78537 0.73914 0.0
C1111 C 0.13254 0.80531 0.72909 0.0
C1112 C 0.12028 0.80927 0.71235 0.0
H1113 H 0.21673 0.92008 0.74372 0.0
H1114 H 0.19306 0.89041 0.73131 0.0
C1115 C 0.10426 0.79407 0.70631 0.0
C1116 C 0.14814 0.82225 0.73641 0.0
H1117 H 0.15104 0.87608 0.75161 0.0
C1118 C 0.17058 0.81653 0.73867 0.0
C1119 C 0.14089 0.84387 0.74139 0.0
C1120 C 0.11678 0.85058 0.74041 0.0
C1121 C 0.18607 0.83207 0.74544 0.0
C1122 C 0.17883 0.85373 0.75005 0.0
C1123 C 0.15644 0.85943 0.74789 0.0
C1124 C 0.1942 0.87083 0.75727 0.0
C1125 C 0.21009 0.82543 0.74738 0.0
C1126 C 0.20252 0.86954 0.77599 0.0
C1127 C 0.21577 0.88661 0.78326 0.0
C1128 C 0.2209 0.90523 0.77188 0.0
C1129 C 0.21278 0.90619 0.75298 0.0
C1130 C 0.19943 0.88919 0.7458 0.0
H1131 H 0.21357 0.80911 0.74056 0.0
H1132 H 0.22098 0.83822 0.74081 0.0
H1133 H 0.21443 0.82429 0.76281 0.0
H1134 H 0.19833 0.85558 0.78511 0.0
H1135 H 0.22149 0.88549 0.79794 0.0
H1136 H 0.76213 0.87303 0.79796 0.0
H1137 H 0.78724 0.84317 0.78787 0.0
H1138 H 0.81302 0.88516 0.74301 0.0
H1139 H 0.78839 0.91515 0.75314 0.0
H1140 H 0.80184 0.83991 0.73178 0.0
H1141 H 0.85599 0.84524 0.79633 0.0
H1142 H 0.82666 0.84233 0.80041 0.0
H1143 H 0.83717 0.86726 0.78962 0.0
C1144 C 0.77324 0.87593 0.78602 0.0
C1145 C 0.7733 0.89648 0.77637 0.0
C1146 C 0.78749 0.85886 0.78026 0.0
C1147 C 0.80201 0.8621 0.7648 0.0
C1148 C 0.80184 0.88238 0.75494 0.0
H1149 H 0.92211 0.80264 0.72643 0.0
H1150 H 0.89196 0.82602 0.7383 0.0
C1151 C 0.78768 0.89944 0.7607 0.0
C1152 C 0.81786 0.84464 0.75904 0.0
H1153 H 0.86569 0.81888 0.77286 0.0
C1154 C 0.81569 0.83509 0.7408 0.0
C1155 C 0.83595 0.83865 0.77085 0.0
C1156 C 0.8393 0.84895 0.79036 0.0
C1157 C 0.83142 0.81989 0.73389 0.0
C1158 C 0.84963 0.81409 0.74562 0.0
C1159 C 0.85159 0.82334 0.76399 0.0
C1160 C 0.86764 0.7996 0.73861 0.0
C1161 C 0.82895 0.81077 0.71386 0.0
C1162 C 0.86388 0.777 0.73499 0.0
C1163 C 0.88114 0.76352 0.72834 0.0
C1164 C 0.90241 0.77247 0.72526 0.0
C1165 C 0.90603 0.79516 0.72894 0.0
C1166 C 0.88882 0.80856 0.73563 0.0
H1167 H 0.81592 0.81963 0.70558 0.0
H1168 H 0.8449 0.812 0.70596 0.0
H1169 H 0.82436 0.79293 0.71466 0.0
H1170 H 0.84768 0.76978 0.73746 0.0
H1171 H 0.8779 0.74605 0.72589 0.0
H1172 H 0.2475 0.8832 0.24302 0.0
H1173 H 0.22354 0.85311 0.25434 0.0
H1174 H 0.17815 0.86564 0.20784 0.0
H1175 H 0.20151 0.89621 0.19674 0.0
H1176 H 0.17583 0.86093 0.26378 0.0
H1177 H 0.18984 0.79611 0.20829 0.0
H1178 H 0.20977 0.8178 0.21327 0.0
H1179 H 0.18523 0.82394 0.1997 0.0
C1180 C 0.23242 0.87958 0.23519 0.0
C1181 C 0.22638 0.89221 0.21902 0.0
C1182 C 0.21888 0.86228 0.2416 0.0
C1183 C 0.19927 0.85711 0.23179 0.0
C1184 C 0.19346 0.86921 0.21538 0.0
H1185 H 0.08497 0.77441 0.24423 0.0
H1186 H 0.11559 0.79788 0.2336 0.0
C1187 C 0.20687 0.88663 0.20904 0.0
C1188 C 0.18388 0.84033 0.23957 0.0
H1189 H 0.15982 0.79035 0.22976 0.0
C1190 C 0.17246 0.84536 0.25652 0.0
C1191 C 0.17954 0.82021 0.2299 0.0
C1192 C 0.19181 0.814 0.21184 0.0
C1193 C 0.15608 0.83109 0.26374 0.0
C1194 C 0.15154 0.81097 0.25398 0.0
C1195 C 0.16338 0.80574 0.23723 0.0
C1196 C 0.1337 0.79576 0.26033 0.0
C1197 C 0.14314 0.83821 0.28122 0.0
C1198 C 0.13394 0.78642 0.27875 0.0
C1199 C 0.11622 0.77336 0.28503 0.0
C1200 C 0.09808 0.76912 0.27287 0.0
C1201 C 0.09839 0.77777 0.25413 0.0
C1202 C 0.116 0.79099 0.24795 0.0
H1203 H 0.14472 0.85633 0.28394 0.0
H1204 H 0.12527 0.83412 0.27968 0.0
H1205 H 0.14963 0.82932 0.29398 0.0
H1206 H 0.14769 0.7895 0.28838 0.0
H1207 H 0.1165 0.76706 0.29957 0.0
H1208 H 0.08087 0.226 0.75971 0.0
H1209 H 0.11058 0.20236 0.77212 0.0
H1210 H 0.14425 0.20601 0.7177 0.0
H1211 H 0.1143 0.22914 0.70491 0.0
H1212 H 0.12328 0.15983 0.7527 0.0
H1213 H 0.19237 0.22056 0.76054 0.0
H1214 H 0.16355 0.2289 0.76058 0.0
H1215 H 0.17677 0.22121 0.73853 0.0
C1216 C 0.09455 0.22176 0.75034 0.0
C1217 C 0.09513 0.22935 0.73126 0.0
C1218 C 0.11158 0.20842 0.75752 0.0
C1219 C 0.1296 0.20268 0.74585 0.0
C1220 C 0.13058 0.21061 0.72698 0.0
H1221 H 0.24324 0.11624 0.75886 0.0
H1222 H 0.21672 0.14477 0.74895 0.0
C1223 C 0.11348 0.22384 0.71973 0.0
C1224 C 0.14649 0.18698 0.75296 0.0
H1225 H 0.20083 0.18272 0.76614 0.0
C1226 C 0.14022 0.1648 0.75576 0.0
C1227 C 0.16854 0.1936 0.75668 0.0
C1228 C 0.17583 0.21739 0.75407 0.0
C1229 C 0.15557 0.14886 0.76195 0.0
C1230 C 0.17761 0.1555 0.76599 0.0
C1231 C 0.18389 0.17773 0.76315 0.0
C1232 C 0.19443 0.13943 0.77282 0.0
C1233 C 0.14817 0.12496 0.76357 0.0
C1234 C 0.19098 0.12745 0.78981 0.0
C1235 C 0.20588 0.11088 0.79533 0.0
C1236 C 0.22471 0.10622 0.78411 0.0
C1237 C 0.22868 0.11908 0.76761 0.0
C1238 C 0.21365 0.13552 0.76201 0.0
H1239 H 0.13299 0.12173 0.75497 0.0
H1240 H 0.16141 0.11341 0.75873 0.0
H1241 H 0.14427 0.12117 0.77877 0.0
H1242 H 0.17648 0.13057 0.79858 0.0
H1243 H 0.20217 0.10124 0.80804 0.0
H1244 H 0.91013 0.23323 0.23966 0.0
H1245 H 0.88008 0.20986 0.22742 0.0
H1246 H 0.85626 0.19983 0.28509 0.0
H1247 H 0.88617 0.22327 0.29741 0.0
H1248 H 0.87364 0.16615 0.23603 0.0
H1249 H 0.79944 0.21507 0.25669 0.0
H1250 H 0.82705 0.22672 0.2566 0.0
H1251 H 0.8179 0.20982 0.27636 0.0
C1252 C 0.89839 0.22613 0.24971 0.0
C1253 C 0.90047 0.23005 0.26949 0.0
C1254 C 0.8812 0.2129 0.2427 0.0
C1255 C 0.86577 0.20339 0.25532 0.0
C1256 C 0.86765 0.20748 0.27506 0.0
H1257 H 0.76766 0.10022 0.24948 0.0
H1258 H 0.79302 0.13016 0.25868 0.0
C1259 C 0.88478 0.22081 0.28208 0.0
C1260 C 0.84879 0.18781 0.248 0.0
H1261 H 0.79311 0.17736 0.24725 0.0
C1262 C 0.85602 0.16873 0.23828 0.0
C1263 C 0.82583 0.19122 0.25101 0.0
C1264 C 0.81705 0.21192 0.26057 0.0
C1265 C 0.84094 0.15261 0.23195 0.0
C1266 C 0.81804 0.15583 0.23526 0.0
C1267 C 0.81073 0.17502 0.24477 0.0
C1268 C 0.80156 0.13896 0.22954 0.0
C1269 C 0.84964 0.13191 0.2223 0.0
C1270 C 0.79771 0.1344 0.21011 0.0
C1271 C 0.78332 0.11729 0.20482 0.0
C1272 C 0.77258 0.10448 0.2189 0.0
C1273 C 0.77596 0.1096 0.23834 0.0
C1274 C 0.79028 0.12677 0.24361 0.0
H1275 H 0.86787 0.13007 0.22406 0.0
H1276 H 0.84138 0.11688 0.22816 0.0
H1277 H 0.84594 0.13274 0.20673 0.0
H1278 H 0.80616 0.14382 0.19907 0.0
H1279 H 0.78114 0.11364 0.18973 0.0
loop_
_geom_bond_atom_site_label_1
_geom_bond_atom_site_label_2
_geom_bond_distance
_geom_bond_site_symmetry_2
_ccdc_geom_bond_type
Li0 N17 1.990 . S
Li0 O60 1.956 . S
Li0 O61 1.970 . S
Li0 O62 1.982 . S
Li1 N25 1.989 1_545 S
Li1 O60 1.987 . S
Li1 O61 1.957 . S
Li1 O63 1.945 1_545 S
Li2 N47 1.990 . S
Li2 O60 1.961 . S
Li2 O62 1.957 . S
Li2 O63 1.970 1_545 S
Li3 N53 1.990 . S
Li3 O61 1.961 1_565 S
Li3 O62 1.950 1_565 S
Li3 O63 1.956 . S
C4 C6 1.348 . S
C4 C7 1.356 . S
C4 O60 1.325 . S
N5 C8 1.314 . S
N5 C9 1.279 . S
C6 C4 1.348 . S
C6 C8 1.353 . S
C6 H64 0.929 . S
C7 C4 1.356 . S
C7 C9 1.358 . S
C7 H65 0.930 . S
C8 N5 1.314 . S
C8 C6 1.353 . S
C8 H66 0.930 . S
C9 N5 1.279 . S
C9 C7 1.358 . S
C9 H67 0.930 . S
C10 C13 1.381 . S
C10 C14 1.323 1_545 S
C10 O61 1.326 . S
C11 N12 1.283 . S
C11 C14 1.358 . S
C11 H68 0.930 . S
N12 C11 1.283 . S
N12 C15 1.311 1_565 S
C13 C10 1.381 . S
C13 C15 1.353 . S
C13 H69 0.929 . S
C14 C10 1.323 1_565 S
C14 C11 1.358 . S
C14 H70 0.930 . S
C15 N12 1.311 1_545 S
C15 C13 1.353 . S
C15 H71 0.930 . S
C16 N17 1.314 . S
C16 C21 1.353 . S
C16 H22 0.930 . S
N17 Li0 1.990 . S
N17 C16 1.314 . S
N17 C19 1.279 . S
C18 C19 1.358 . S
C18 C20 1.356 . S
C18 H72 0.930 . S
C19 N17 1.279 . S
C19 C18 1.358 . S
C19 H23 0.930 . S
C20 C18 1.356 . S
C20 C21 1.348 . S
C21 C16 1.353 . S
C21 C20 1.348 . S
C21 H73 0.929 . S
H22 C16 0.930 . S
H23 C19 0.930 . S
C24 N25 1.324 . S
C24 C26 1.353 . S
C24 H30 0.930 . S
N25 Li1 1.989 1_565 S
N25 C24 1.324 . S
N25 C28 1.270 1_565 S
C26 C24 1.353 . S
C26 C29 1.335 1_565 S
C26 H74 0.929 . S
C27 C28 1.358 . S
C27 C29 1.365 . S
C27 H75 0.930 . S
C28 N25 1.270 1_545 S
C28 C27 1.358 . S
C28 H31 0.930 . S
C29 C26 1.335 1_545 S
C29 C27 1.365 . S
H30 C24 0.930 . S
H31 C28 0.930 . S
C32 C34 1.307 1_545 S
C32 C35 1.396 . S
C32 O62 1.325 . S
N33 C36 1.314 1_545 S
N33 C37 1.279 . S
C34 C32 1.307 1_565 S
C34 C36 1.353 . S
C34 H76 0.929 . S
C35 C32 1.396 . S
C35 C37 1.358 . S
C35 H77 0.930 . S
C36 N33 1.314 1_565 S
C36 C34 1.353 . S
C36 H78 0.930 . S
C37 N33 1.279 . S
C37 C35 1.358 . S
C37 H79 0.930 . S
C38 C39 1.348 . S
C38 C40 1.356 . S
C38 O63 1.325 . S
C39 C38 1.348 . S
C39 C41 1.353 . S
C39 H80 0.929 . S
C40 C38 1.356 . S
C40 C42 1.358 . S
C40 H81 0.930 . S
C41 C39 1.353 . S
C41 N43 1.314 . S
C41 H82 0.930 . S
C42 C40 1.358 . S
C42 N43 1.279 . S
C42 H83 0.930 . S
N43 C41 1.314 . S
N43 C42 1.279 . S
C44 C46 1.353 . S
C44 N47 1.314 . S
C44 H50 0.930 . S
C45 N47 1.279 1_565 S
C45 C48 1.358 . S
C45 H51 0.930 . S
C46 C44 1.353 . S
C46 C49 1.361 . S
C46 H84 0.929 . S
N47 Li2 1.990 . S
N47 C44 1.314 . S
N47 C45 1.279 1_545 S
C48 C45 1.358 . S
C48 C49 1.349 1_565 S
C48 H85 0.930 . S
C49 C46 1.361 . S
C49 C48 1.349 1_545 S
H50 C44 0.930 . S
H51 C45 0.930 . S
C52 N53 1.314 . S
C52 C54 1.353 . S
C52 H58 0.930 . S
N53 Li3 1.990 . S
N53 C52 1.314 . S
N53 C56 1.279 . S
C54 C52 1.353 . S
C54 C57 1.348 . S
C54 H86 0.929 . S
C55 C56 1.358 . S
C55 C57 1.356 . S
C55 H87 0.930 . S
C56 N53 1.279 . S
C56 C55 1.358 . S
C56 H59 0.930 . S
C57 C54 1.348 . S
C57 C55 1.356 . S
H58 C52 0.930 . S
H59 C56 0.930 . S
O60 Li0 1.956 . S
O60 Li1 1.987 . S
O60 Li2 1.961 . S
O60 C4 1.325 . S
O61 Li0 1.970 . S
O61 Li1 1.957 . S
O61 Li3 1.961 1_545 S
O61 C10 1.326 . S
O62 Li0 1.982 . S
O62 Li2 1.957 . S
O62 Li3 1.950 1_545 S
O62 C32 1.325 . S
O63 Li1 1.945 1_565 S
O63 Li2 1.970 1_565 S
O63 Li3 1.956 . S
O63 C38 1.325 . S
H64 C6 0.929 . S
H65 C7 0.930 . S
H66 C8 0.930 . S
H67 C9 0.930 . S
H68 C11 0.930 . S
H69 C13 0.929 . S
H70 C14 0.930 . S
H71 C15 0.930 . S
H72 C18 0.930 . S
H73 C21 0.929 . S
H74 C26 0.929 . S
H75 C27 0.930 . S
H76 C34 0.929 . S
H77 C35 0.930 . S
H78 C36 0.930 . S
H79 C37 0.930 . S
H80 C39 0.929 . S
H81 C40 0.930 . S
H82 C41 0.930 . S
H83 C42 0.930 . S
H84 C46 0.929 . S
H85 C48 0.930 . S
H86 C54 0.929 . S
H87 C55 0.930 . S
Li88 N105 1.990 . S
Li88 O148 1.956 . S
Li88 O149 1.970 1_455 S
Li88 O150 1.961 1_455 S
Li89 N113 1.991 . S
Li89 O148 1.963 1_655 S
Li89 O149 1.963 . S
Li89 O151 1.960 1_655 S
Li90 N135 1.990 . S
Li90 O148 1.961 . S
Li90 O150 1.954 1_455 S
Li90 O151 1.970 . S
Li91 N141 1.990 . S
Li91 O149 1.961 . S
Li91 O150 1.972 . S
Li91 O151 1.956 1_655 S
C92 C94 1.348 . S
C92 C95 1.356 . S
C92 O148 1.325 . S
N93 C96 1.314 . S
N93 C97 1.279 . S
C94 C92 1.348 . S
C94 C96 1.353 . S
C94 H152 0.929 . S
C95 C92 1.356 . S
C95 C97 1.358 . S
C95 H153 0.930 . S
C96 N93 1.314 . S
C96 C94 1.353 . S
C96 H154 0.930 . S
C97 N93 1.279 . S
C97 C95 1.358 . S
C97 H155 0.930 . S
C98 C101 1.348 . S
C98 C102 1.356 . S
C98 O149 1.325 . S
C99 N100 1.279 . S
C99 C102 1.358 . S
C99 H156 0.930 . S
N100 C99 1.279 . S
N100 C103 1.314 . S
C101 C98 1.348 . S
C101 C103 1.353 . S
C101 H157 0.929 . S
C102 C98 1.356 . S
C102 C99 1.358 . S
C102 H158 0.930 . S
C103 N100 1.314 . S
C103 C101 1.353 . S
C103 H159 0.930 . S
C104 N105 1.314 1_655 S
C104 C109 1.353 . S
C104 H110 0.930 . S
N105 Li88 1.990 . S
N105 C104 1.314 1_455 S
N105 C107 1.279 . S
C106 C107 1.358 . S
C106 C108 1.381 . S
C106 H160 0.930 . S
C107 N105 1.279 . S
C107 C106 1.358 . S
C107 H111 0.930 . S
C108 C106 1.381 . S
C108 C109 1.327 1_455 S
C109 C104 1.353 . S
C109 C108 1.327 1_655 S
C109 H161 0.929 . S
H110 C104 0.930 . S
H111 C107 0.930 . S
C112 N113 1.314 1_455 S
C112 C114 1.353 . S
C112 H118 0.930 . S
N113 Li89 1.991 . S
N113 C112 1.314 1_655 S
N113 C116 1.279 . S
C114 C112 1.353 . S
C114 C117 1.367 . S
C114 H162 0.929 . S
C115 C116 1.358 . S
C115 C117 1.334 1_655 S
C115 H163 0.930 . S
C116 N113 1.279 . S
C116 C115 1.358 . S
C116 H119 0.930 . S
C117 C114 1.367 . S
C117 C115 1.334 1_455 S
H118 C112 0.930 . S
H119 C116 0.930 . S
C120 C122 1.328 1_455 S
C120 C123 1.381 . S
C120 O150 1.324 1_455 S
N121 C124 1.314 1_455 S
N121 C125 1.279 . S
C122 C120 1.328 1_655 S
C122 C124 1.353 . S
C122 H164 0.929 . S
C123 C120 1.381 . S
C123 C125 1.358 . S
C123 H165 0.930 . S
C124 N121 1.314 1_655 S
C124 C122 1.353 . S
C124 H166 0.930 . S
C125 N121 1.279 . S
C125 C123 1.358 . S
C125 H167 0.930 . S
C126 C127 1.368 . S
C126 C128 1.333 1_455 S
C126 O151 1.327 . S
C127 C126 1.368 . S
C127 C129 1.353 . S
C127 H168 0.929 . S
C128 C126 1.333 1_655 S
C128 C130 1.358 . S
C128 H169 0.930 . S
C129 C127 1.353 . S
C129 N131 1.314 1_455 S
C129 H170 0.930 . S
C130 C128 1.358 . S
C130 N131 1.279 . S
C130 H171 0.930 . S
N131 C129 1.314 1_655 S
N131 C130 1.279 . S
C132 C134 1.353 . S
C132 N135 1.314 . S
C132 H138 0.930 . S
C133 N135 1.279 . S
C133 C136 1.358 . S
C133 H139 0.930 . S
C134 C132 1.353 . S
C134 C137 1.348 . S
C134 H172 0.929 . S
N135 Li90 1.990 . S
N135 C132 1.314 . S
N135 C133 1.279 . S
C136 C133 1.358 . S
C136 C137 1.356 . S
C136 H173 0.930 . S
C137 C134 1.348 . S
C137 C136 1.356 . S
H138 C132 0.930 . S
H139 C133 0.930 . S
C140 N141 1.314 . S
C140 C142 1.353 . S
C140 H146 0.930 . S
N141 Li91 1.990 . S
N141 C140 1.314 . S
N141 C144 1.279 . S
C142 C140 1.353 . S
C142 C145 1.348 . S
C142 H174 0.929 . S
C143 C144 1.358 . S
C143 C145 1.356 . S
C143 H175 0.930 . S
C144 N141 1.279 . S
C144 C143 1.358 . S
C144 H147 0.930 . S
C145 C142 1.348 . S
C145 C143 1.356 . S
H146 C140 0.930 . S
H147 C144 0.930 . S
O148 Li88 1.956 . S
O148 Li89 1.963 1_455 S
O148 Li90 1.961 . S
O148 C92 1.325 . S
O149 Li88 1.970 1_655 S
O149 Li89 1.963 . S
O149 Li91 1.961 . S
O149 C98 1.325 . S
O150 Li88 1.961 1_655 S
O150 Li90 1.954 1_655 S
O150 Li91 1.972 . S
O150 C120 1.324 1_655 S
O151 Li89 1.960 1_455 S
O151 Li90 1.970 . S
O151 Li91 1.956 1_455 S
O151 C126 1.327 . S
H152 C94 0.929 . S
H153 C95 0.930 . S
H154 C96 0.930 . S
H155 C97 0.930 . S
H156 C99 0.930 . S
H157 C101 0.929 . S
H158 C102 0.930 . S
H159 C103 0.930 . S
H160 C106 0.930 . S
H161 C109 0.929 . S
H162 C114 0.929 . S
H163 C115 0.930 . S
H164 C122 0.929 . S
H165 C123 0.930 . S
H166 C124 0.930 . S
H167 C125 0.930 . S
H168 C127 0.929 . S
H169 C128 0.930 . S
H170 C129 0.930 . S
H171 C130 0.930 . S
H172 C134 0.929 . S
H173 C136 0.930 . S
H174 C142 0.929 . S
H175 C143 0.930 . S
Li176 N193 1.990 . S
Li176 O236 1.956 . S
Li176 O237 1.970 1_545 S
Li176 O238 1.961 . S
Li177 N201 1.990 . S
Li177 O236 1.970 1_565 S
Li177 O237 1.956 . S
Li177 O239 1.961 1_565 S
Li178 N223 1.990 . S
Li178 O236 1.961 . S
Li178 O238 1.956 . S
Li178 O239 1.970 . S
Li179 N229 1.990 . S
Li179 O237 1.961 1_545 S
Li179 O238 1.970 . S
Li179 O239 1.956 . S
C180 C182 1.348 1_545 S
C180 C183 1.356 . S
C180 O236 1.325 . S
N181 C184 1.314 1_545 S
N181 C185 1.279 . S
C182 C180 1.348 1_565 S
C182 C184 1.353 . S
C182 H240 0.929 . S
C183 C180 1.356 . S
C183 C185 1.358 . S
C183 H241 0.930 . S
C184 N181 1.314 1_565 S
C184 C182 1.353 . S
C184 H242 0.930 . S
C185 N181 1.279 . S
C185 C183 1.358 . S
C185 H243 0.930 . S
C186 C189 1.348 . S
C186 C190 1.356 . S
C186 O237 1.325 . S
C187 N188 1.279 . S
C187 C190 1.358 . S
C187 H244 0.930 . S
N188 C187 1.279 . S
N188 C191 1.314 . S
C189 C186 1.348 . S
C189 C191 1.353 . S
C189 H245 0.929 . S
C190 C186 1.356 . S
C190 C187 1.358 . S
C190 H246 0.930 . S
C191 N188 1.314 . S
C191 C189 1.353 . S
C191 H247 0.930 . S
C192 N193 1.314 . S
C192 C197 1.353 . S
C192 H198 0.930 . S
N193 Li176 1.990 . S
N193 C192 1.314 . S
N193 C195 1.279 1_545 S
C194 C195 1.358 . S
C194 C196 1.356 1_565 S
C194 H248 0.930 . S
C195 N193 1.279 1_565 S
C195 C194 1.358 . S
C195 H199 0.930 . S
C196 C194 1.356 1_545 S
C196 C197 1.348 . S
C197 C192 1.353 . S
C197 C196 1.348 . S
C197 H249 0.929 . S
H198 C192 0.930 . S
H199 C195 0.930 . S
C200 N201 1.314 . S
C200 C202 1.353 . S
C200 H206 0.930 . S
N201 Li177 1.990 . S
N201 C200 1.314 . S
N201 C204 1.279 . S
C202 C200 1.353 . S
C202 C205 1.348 . S
C202 H250 0.929 . S
C203 C204 1.358 . S
C203 C205 1.356 . S
C203 H251 0.930 . S
C204 N201 1.279 . S
C204 C203 1.358 . S
C204 H207 0.930 . S
C205 C202 1.348 . S
C205 C203 1.356 . S
H206 C200 0.930 . S
H207 C204 0.930 . S
C208 C210 1.348 . S
C208 C211 1.356 . S
C208 O238 1.325 . S
N209 C212 1.314 . S
N209 C213 1.279 . S
C210 C208 1.348 . S
C210 C212 1.353 . S
C210 H252 0.929 . S
C211 C208 1.356 . S
C211 C213 1.358 . S
C211 H253 0.930 . S
C212 N209 1.314 . S
C212 C210 1.353 . S
C212 H254 0.930 . S
C213 N209 1.279 . S
C213 C211 1.358 . S
C213 H255 0.930 . S
C214 C215 1.348 . S
C214 C216 1.356 1_545 S
C214 O239 1.325 . S
C215 C214 1.348 . S
C215 C217 1.353 . S
C215 H256 0.929 . S
C216 C214 1.356 1_565 S
C216 C218 1.358 . S
C216 H257 0.930 . S
C217 C215 1.353 . S
C217 N219 1.347 . S
C217 H258 0.930 . S
C218 C216 1.358 . S
C218 N219 1.248 1_565 S
C218 H259 0.930 . S
N219 C217 1.347 . S
N219 C218 1.248 1_545 S
C220 C222 1.353 . S
C220 N223 1.314 . S
C220 H226 0.930 . S
C221 N223 1.279 . S
C221 C224 1.358 . S
C221 H227 0.930 . S
C222 C220 1.353 . S
C222 C225 1.348 . S
C222 H260 0.929 . S
N223 Li178 1.990 . S
N223 C220 1.314 . S
N223 C221 1.279 . S
C224 C221 1.358 . S
C224 C225 1.356 . S
C224 H261 0.930 . S
C225 C222 1.348 . S
C225 C224 1.356 . S
H226 C220 0.930 . S
H227 C221 0.930 . S
C228 N229 1.314 1_565 S
C228 C230 1.353 . S
C228 H234 0.930 . S
N229 Li179 1.990 . S
N229 C228 1.314 1_545 S
N229 C232 1.279 . S
C230 C228 1.353 . S
C230 C233 1.348 1_565 S
C230 H262 0.929 . S
C231 C232 1.358 . S
C231 C233 1.356 . S
C231 H263 0.930 . S
C232 N229 1.279 . S
C232 C231 1.358 . S
C232 H235 0.930 . S
C233 C230 1.348 1_545 S
C233 C231 1.356 . S
H234 C228 0.930 . S
H235 C232 0.930 . S
O236 Li176 1.956 . S
O236 Li177 1.970 1_545 S
O236 Li178 1.961 . S
O236 C180 1.325 . S
O237 Li176 1.970 1_565 S
O237 Li177 1.956 . S
O237 Li179 1.961 1_565 S
O237 C186 1.325 . S
O238 Li176 1.961 . S
O238 Li178 1.956 . S
O238 Li179 1.970 . S
O238 C208 1.325 . S
O239 Li177 1.961 1_545 S
O239 Li178 1.970 . S
O239 Li179 1.956 . S
O239 C214 1.325 . S
H240 C182 0.929 . S
H241 C183 0.930 . S
H242 C184 0.930 . S
H243 C185 0.930 . S
H244 C187 0.930 . S
H245 C189 0.929 . S
H246 C190 0.930 . S
H247 C191 0.930 . S
H248 C194 0.930 . S
H249 C197 0.929 . S
H250 C202 0.929 . S
H251 C203 0.930 . S
H252 C210 0.929 . S
H253 C211 0.930 . S
H254 C212 0.930 . S
H255 C213 0.930 . S
H256 C215 0.929 . S
H257 C216 0.930 . S
H258 C217 0.930 . S
H259 C218 0.930 . S
H260 C222 0.929 . S
H261 C224 0.930 . S
H262 C230 0.929 . S
H263 C231 0.930 . S
Li264 N281 1.990 . S
Li264 O324 1.956 1_655 S
Li264 O325 1.952 1_655 S
Li264 O326 1.961 . S
Li265 N289 1.990 . S
Li265 O324 1.970 . S
Li265 O325 1.977 . S
Li265 O327 1.961 . S
Li266 N311 1.989 1_455 S
Li266 O324 1.962 . S
Li266 O326 1.940 1_455 S
Li266 O327 1.988 . S
Li267 N317 1.990 . S
Li267 O325 1.963 . S
Li267 O326 1.970 1_455 S
Li267 O327 1.956 . S
C268 C270 1.348 . S
C268 C271 1.356 1_455 S
C268 O324 1.325 . S
N269 C272 1.314 1_655 S
N269 C273 1.279 . S
C270 C268 1.348 . S
C270 C272 1.353 . S
C270 H328 0.929 . S
C271 C268 1.356 1_655 S
C271 C273 1.358 . S
C271 H329 0.930 . S
C272 N269 1.314 1_455 S
C272 C270 1.353 . S
C272 H330 0.930 . S
C273 N269 1.279 . S
C273 C271 1.358 . S
C273 H331 0.930 . S
C274 C277 1.348 1_455 S
C274 C278 1.356 . S
C274 O325 1.326 . S
C275 N276 1.279 . S
C275 C278 1.358 . S
C275 H332 0.930 . S
N276 C275 1.279 . S
N276 C279 1.314 1_455 S
C277 C274 1.348 1_655 S
C277 C279 1.353 . S
C277 H333 0.929 . S
C278 C274 1.356 . S
C278 C275 1.358 . S
C278 H334 0.930 . S
C279 N276 1.314 1_655 S
C279 C277 1.353 . S
C279 H335 0.930 . S
C280 N281 1.314 . S
C280 C285 1.353 . S
C280 H286 0.930 . S
N281 Li264 1.990 . S
N281 C280 1.314 . S
N281 C283 1.279 . S
C282 C283 1.358 . S
C282 C284 1.356 . S
C282 H336 0.930 . S
C283 N281 1.279 . S
C283 C282 1.358 . S
C283 H287 0.930 . S
C284 C282 1.356 . S
C284 C285 1.348 . S
C285 C280 1.353 . S
C285 C284 1.348 . S
C285 H337 0.929 . S
H286 C280 0.930 . S
H287 C283 0.930 . S
C288 N289 1.314 . S
C288 C290 1.353 . S
C288 H294 0.930 . S
N289 Li265 1.990 . S
N289 C288 1.314 . S
N289 C292 1.279 . S
C290 C288 1.353 . S
C290 C293 1.348 . S
C290 H338 0.929 . S
C291 C292 1.358 . S
C291 C293 1.356 . S
C291 H339 0.930 . S
C292 N289 1.279 . S
C292 C291 1.358 . S
C292 H295 0.930 . S
C293 C290 1.348 . S
C293 C291 1.356 . S
H294 C288 0.930 . S
H295 C292 0.930 . S
C296 C298 1.348 . S
C296 C299 1.356 . S
C296 O326 1.325 . S
N297 C300 1.314 . S
N297 C301 1.279 . S
C298 C296 1.348 . S
C298 C300 1.353 . S
C298 H340 0.929 . S
C299 C296 1.356 . S
C299 C301 1.358 . S
C299 H341 0.930 . S
C300 N297 1.314 . S
C300 C298 1.353 . S
C300 H342 0.930 . S
C301 N297 1.279 . S
C301 C299 1.358 . S
C301 H343 0.930 . S
C302 C303 1.348 . S
C302 C304 1.356 . S
C302 O327 1.325 . S
C303 C302 1.348 . S
C303 C305 1.353 . S
C303 H344 0.929 . S
C304 C302 1.356 . S
C304 C306 1.358 . S
C304 H345 0.930 . S
C305 C303 1.353 . S
C305 N307 1.314 . S
C305 H346 0.930 . S
C306 C304 1.358 . S
C306 N307 1.279 . S
C306 H347 0.930 . S
N307 C305 1.314 . S
N307 C306 1.279 . S
C308 C310 1.353 . S
C308 N311 1.314 1_455 S
C308 H314 0.930 . S
C309 N311 1.279 . S
C309 C312 1.358 . S
C309 H315 0.930 . S
C310 C308 1.353 . S
C310 C313 1.348 . S
C310 H348 0.929 . S
N311 Li266 1.989 1_655 S
N311 C308 1.314 1_655 S
N311 C309 1.279 . S
C312 C309 1.358 . S
C312 C313 1.356 1_655 S
C312 H349 0.930 . S
C313 C310 1.348 . S
C313 C312 1.356 1_455 S
H314 C308 0.930 . S
H315 C309 0.930 . S
C316 N317 1.314 1_655 S
C316 C318 1.353 . S
C316 H322 0.930 . S
N317 Li267 1.990 . S
N317 C316 1.314 1_455 S
N317 C320 1.279 . S
C318 C316 1.353 . S
C318 C321 1.348 1_655 S
C318 H350 0.929 . S
C319 C320 1.358 . S
C319 C321 1.356 . S
C319 H351 0.930 . S
C320 N317 1.279 . S
C320 C319 1.358 . S
C320 H323 0.930 . S
C321 C318 1.348 1_455 S
C321 C319 1.356 . S
H322 C316 0.930 . S
H323 C320 0.930 . S
O324 Li264 1.956 1_455 S
O324 Li265 1.970 . S
O324 Li266 1.962 . S
O324 C268 1.325 . S
O325 Li264 1.952 1_455 S
O325 Li265 1.977 . S
O325 Li267 1.963 . S
O325 C274 1.326 . S
O326 Li264 1.961 . S
O326 Li266 1.940 1_655 S
O326 Li267 1.970 1_655 S
O326 C296 1.325 . S
O327 Li265 1.961 . S
O327 Li266 1.988 . S
O327 Li267 1.956 . S
O327 C302 1.325 . S
H328 C270 0.929 . S
H329 C271 0.930 . S
H330 C272 0.930 . S
H331 C273 0.930 . S
H332 C275 0.930 . S
H333 C277 0.929 . S
H334 C278 0.930 . S
H335 C279 0.930 . S
H336 C282 0.930 . S
H337 C285 0.929 . S
H338 C290 0.929 . S
H339 C291 0.930 . S
H340 C298 0.929 . S
H341 C299 0.930 . S
H342 C300 0.930 . S
H343 C301 0.930 . S
H344 C303 0.929 . S
H345 C304 0.930 . S
H346 C305 0.930 . S
H347 C306 0.930 . S
H348 C310 0.929 . S
H349 C312 0.930 . S
H350 C318 0.929 . S
H351 C319 0.930 . S
Li352 N369 1.990 . S
Li352 O412 1.956 . S
Li352 O413 1.970 . S
Li352 O414 1.961 . S
Li353 N377 1.990 . S
Li353 O412 1.970 . S
Li353 O413 1.956 . S
Li353 O415 1.961 1_545 S
Li354 N399 1.990 . S
Li354 O412 1.961 . S
Li354 O414 1.956 . S
Li354 O415 1.970 1_545 S
Li355 N405 1.990 . S
Li355 O413 1.961 1_565 S
Li355 O414 1.970 1_565 S
Li355 O415 1.956 . S
C356 C358 1.348 . S
C356 C359 1.356 . S
C356 O412 1.325 . S
N357 C360 1.314 . S
N357 C361 1.279 . S
C358 C356 1.348 . S
C358 C360 1.353 . S
C358 H416 0.929 . S
C359 C356 1.356 . S
C359 C361 1.358 . S
C359 H417 0.930 . S
C360 N357 1.314 . S
C360 C358 1.353 . S
C360 H418 0.930 . S
C361 N357 1.279 . S
C361 C359 1.358 . S
C361 H419 0.930 . S
C362 C365 1.348 . S
C362 C366 1.356 1_545 S
C362 O413 1.325 . S
C363 N364 1.248 1_565 S
C363 C366 1.358 . S
C363 H420 0.930 . S
N364 C363 1.248 1_545 S
N364 C367 1.347 . S
C365 C362 1.348 . S
C365 C367 1.353 . S
C365 H421 0.929 . S
C366 C362 1.356 1_565 S
C366 C363 1.358 . S
C366 H422 0.930 . S
C367 N364 1.347 . S
C367 C365 1.353 . S
C367 H423 0.930 . S
C368 N369 1.314 . S
C368 C373 1.353 . S
C368 H374 0.930 . S
N369 Li352 1.990 . S
N369 C368 1.314 . S
N369 C371 1.279 . S
C370 C371 1.358 . S
C370 C372 1.356 . S
C370 H424 0.930 . S
C371 N369 1.279 . S
C371 C370 1.358 . S
C371 H375 0.930 . S
C372 C370 1.356 . S
C372 C373 1.348 . S
C373 C368 1.353 . S
C373 C372 1.348 . S
C373 H425 0.929 . S
H374 C368 0.930 . S
H375 C371 0.930 . S
C376 N377 1.314 1_565 S
C376 C378 1.353 . S
C376 H382 0.930 . S
N377 Li353 1.990 . S
N377 C376 1.314 1_545 S
N377 C380 1.279 . S
C378 C376 1.353 . S
C378 C381 1.348 1_565 S
C378 H426 0.929 . S
C379 C380 1.358 . S
C379 C381 1.356 . S
C379 H427 0.930 . S
C380 N377 1.279 . S
C380 C379 1.358 . S
C380 H383 0.930 . S
C381 C378 1.348 1_545 S
C381 C379 1.356 . S
H382 C376 0.930 . S
H383 C380 0.930 . S
C384 C386 1.348 1_545 S
C384 C387 1.356 . S
C384 O414 1.325 . S
N385 C388 1.314 1_545 S
N385 C389 1.279 . S
C386 C384 1.348 1_565 S
C386 C388 1.353 . S
C386 H428 0.929 . S
C387 C384 1.356 . S
C387 C389 1.358 . S
C387 H429 0.930 . S
C388 N385 1.314 1_565 S
C388 C386 1.353 . S
C388 H430 0.930 . S
C389 N385 1.279 . S
C389 C387 1.358 . S
C389 H431 0.930 . S
C390 C391 1.348 . S
C390 C392 1.356 . S
C390 O415 1.325 . S
C391 C390 1.348 . S
C391 C393 1.353 . S
C391 H432 0.929 . S
C392 C390 1.356 . S
C392 C394 1.358 . S
C392 H433 0.930 . S
C393 C391 1.353 . S
C393 N395 1.314 . S
C393 H434 0.930 . S
C394 C392 1.358 . S
C394 N395 1.279 . S
C394 H435 0.930 . S
N395 C393 1.314 . S
N395 C394 1.279 . S
C396 C398 1.353 . S
C396 N399 1.314 . S
C396 H402 0.930 . S
C397 N399 1.279 1_565 S
C397 C400 1.358 . S
C397 H403 0.930 . S
C398 C396 1.353 . S
C398 C401 1.348 . S
C398 H436 0.929 . S
N399 Li354 1.990 . S
N399 C396 1.314 . S
N399 C397 1.279 1_545 S
C400 C397 1.358 . S
C400 C401 1.356 1_565 S
C400 H437 0.930 . S
C401 C398 1.348 . S
C401 C400 1.356 1_545 S
H402 C396 0.930 . S
H403 C397 0.930 . S
C404 N405 1.314 . S
C404 C406 1.353 . S
C404 H410 0.930 . S
N405 Li355 1.990 . S
N405 C404 1.314 . S
N405 C408 1.279 . S
C406 C404 1.353 . S
C406 C409 1.348 . S
C406 H438 0.929 . S
C407 C408 1.358 . S
C407 C409 1.356 . S
C407 H439 0.930 . S
C408 N405 1.279 . S
C408 C407 1.358 . S
C408 H411 0.930 . S
C409 C406 1.348 . S
C409 C407 1.356 . S
H410 C404 0.930 . S
H411 C408 0.930 . S
O412 Li352 1.956 . S
O412 Li353 1.970 . S
O412 Li354 1.961 . S
O412 C356 1.325 . S
O413 Li352 1.970 . S
O413 Li353 1.956 . S
O413 Li355 1.961 1_545 S
O413 C362 1.325 . S
O414 Li352 1.961 . S
O414 Li354 1.956 . S
O414 Li355 1.970 1_545 S
O414 C384 1.325 . S
O415 Li353 1.961 1_565 S
O415 Li354 1.970 1_565 S
O415 Li355 1.956 . S
O415 C390 1.325 . S
H416 C358 0.929 . S
H417 C359 0.930 . S
H418 C360 0.930 . S
H419 C361 0.930 . S
H420 C363 0.930 . S
H421 C365 0.929 . S
H422 C366 0.930 . S
H423 C367 0.930 . S
H424 C370 0.930 . S
H425 C373 0.929 . S
H426 C378 0.929 . S
H427 C379 0.930 . S
H428 C386 0.929 . S
H429 C387 0.930 . S
H430 C388 0.930 . S
H431 C389 0.930 . S
H432 C391 0.929 . S
H433 C392 0.930 . S
H434 C393 0.930 . S
H435 C394 0.930 . S
H436 C398 0.929 . S
H437 C400 0.930 . S
H438 C406 0.929 . S
H439 C407 0.930 . S
Li440 N457 1.990 . S
Li440 O500 1.956 . S
Li440 O501 1.970 1_455 S
Li440 O502 1.963 . S
Li441 N465 1.989 1_455 S
Li441 O500 1.988 . S
Li441 O501 1.940 1_455 S
Li441 O503 1.962 . S
Li442 N487 1.990 . S
Li442 O500 1.961 . S
Li442 O502 1.977 . S
Li442 O503 1.970 . S
Li443 N493 1.990 . S
Li443 O501 1.961 . S
Li443 O502 1.951 1_655 S
Li443 O503 1.956 1_655 S
C444 C446 1.348 . S
C444 C447 1.356 . S
C444 O500 1.325 . S
N445 C448 1.314 . S
N445 C449 1.279 . S
C446 C444 1.348 . S
C446 C448 1.353 . S
C446 H504 0.929 . S
C447 C444 1.356 . S
C447 C449 1.358 . S
C447 H505 0.930 . S
C448 N445 1.314 . S
C448 C446 1.353 . S
C448 H506 0.930 . S
C449 N445 1.279 . S
C449 C447 1.358 . S
C449 H507 0.930 . S
C450 C453 1.348 . S
C450 C454 1.356 . S
C450 O501 1.325 . S
C451 N452 1.279 . S
C451 C454 1.358 . S
C451 H508 0.930 . S
N452 C451 1.279 . S
N452 C455 1.314 . S
C453 C450 1.348 . S
C453 C455 1.353 . S
C453 H509 0.929 . S
C454 C450 1.356 . S
C454 C451 1.358 . S
C454 H510 0.930 . S
C455 N452 1.314 . S
C455 C453 1.353 . S
C455 H511 0.930 . S
C456 N457 1.314 1_655 S
C456 C461 1.353 . S
C456 H462 0.930 . S
N457 Li440 1.990 . S
N457 C456 1.314 1_455 S
N457 C459 1.279 . S
C458 C459 1.358 . S
C458 C460 1.356 . S
C458 H512 0.930 . S
C459 N457 1.279 . S
C459 C458 1.358 . S
C459 H463 0.930 . S
C460 C458 1.356 . S
C460 C461 1.348 1_455 S
C461 C456 1.353 . S
C461 C460 1.348 1_655 S
C461 H513 0.929 . S
H462 C456 0.930 . S
H463 C459 0.930 . S
C464 N465 1.314 1_455 S
C464 C466 1.353 . S
C464 H470 0.930 . S
N465 Li441 1.989 1_655 S
N465 C464 1.314 1_655 S
N465 C468 1.279 . S
C466 C464 1.353 . S
C466 C469 1.348 . S
C466 H514 0.929 . S
C467 C468 1.358 . S
C467 C469 1.356 1_655 S
C467 H515 0.930 . S
C468 N465 1.279 . S
C468 C467 1.358 . S
C468 H471 0.930 . S
C469 C466 1.348 . S
C469 C467 1.356 1_455 S
H470 C464 0.930 . S
H471 C468 0.930 . S
C472 C474 1.348 1_455 S
C472 C475 1.356 . S
C472 O502 1.326 . S
N473 C476 1.314 1_455 S
N473 C477 1.279 . S
C474 C472 1.348 1_655 S
C474 C476 1.353 . S
C474 H516 0.929 . S
C475 C472 1.356 . S
C475 C477 1.358 . S
C475 H517 0.930 . S
C476 N473 1.314 1_655 S
C476 C474 1.353 . S
C476 H518 0.930 . S
C477 N473 1.279 . S
C477 C475 1.358 . S
C477 H519 0.930 . S
C478 C479 1.348 . S
C478 C480 1.356 1_455 S
C478 O503 1.325 . S
C479 C478 1.348 . S
C479 C481 1.353 . S
C479 H520 0.929 . S
C480 C478 1.356 1_655 S
C480 C482 1.358 . S
C480 H521 0.930 . S
C481 C479 1.353 . S
C481 N483 1.314 1_455 S
C481 H522 0.930 . S
C482 C480 1.358 . S
C482 N483 1.279 . S
C482 H523 0.930 . S
N483 C481 1.314 1_655 S
N483 C482 1.279 . S
C484 C486 1.353 . S
C484 N487 1.314 . S
C484 H490 0.930 . S
C485 N487 1.279 . S
C485 C488 1.358 . S
C485 H491 0.930 . S
C486 C484 1.353 . S
C486 C489 1.348 . S
C486 H524 0.929 . S
N487 Li442 1.990 . S
N487 C484 1.314 . S
N487 C485 1.279 . S
C488 C485 1.358 . S
C488 C489 1.356 . S
C488 H525 0.930 . S
C489 C486 1.348 . S
C489 C488 1.356 . S
H490 C484 0.930 . S
H491 C485 0.930 . S
C492 N493 1.314 . S
C492 C494 1.353 . S
C492 H498 0.930 . S
N493 Li443 1.990 . S
N493 C492 1.314 . S
N493 C496 1.279 . S
C494 C492 1.353 . S
C494 C497 1.348 . S
C494 H526 0.929 . S
C495 C496 1.358 . S
C495 C497 1.356 . S
C495 H527 0.930 . S
C496 N493 1.279 . S
C496 C495 1.358 . S
C496 H499 0.930 . S
C497 C494 1.348 . S
C497 C495 1.356 . S
H498 C492 0.930 . S
H499 C496 0.930 . S
O500 Li440 1.956 . S
O500 Li441 1.988 . S
O500 Li442 1.961 . S
O500 C444 1.325 . S
O501 Li440 1.970 1_655 S
O501 Li441 1.940 1_655 S
O501 Li443 1.961 . S
O501 C450 1.325 . S
O502 Li440 1.963 . S
O502 Li442 1.977 . S
O502 Li443 1.951 1_455 S
O502 C472 1.326 . S
O503 Li441 1.962 . S
O503 Li442 1.970 . S
O503 Li443 1.956 1_455 S
O503 C478 1.325 . S
H504 C446 0.929 . S
H505 C447 0.930 . S
H506 C448 0.930 . S
H507 C449 0.930 . S
H508 C451 0.930 . S
H509 C453 0.929 . S
H510 C454 0.930 . S
H511 C455 0.930 . S
H512 C458 0.930 . S
H513 C461 0.929 . S
H514 C466 0.929 . S
H515 C467 0.930 . S
H516 C474 0.929 . S
H517 C475 0.930 . S
H518 C476 0.930 . S
H519 C477 0.930 . S
H520 C479 0.929 . S
H521 C480 0.930 . S
H522 C481 0.930 . S
H523 C482 0.930 . S
H524 C486 0.929 . S
H525 C488 0.930 . S
H526 C494 0.929 . S
H527 C495 0.930 . S
Li528 N545 1.990 . S
Li528 O588 1.957 . S
Li528 O589 1.970 1_545 S
Li528 O590 1.961 . S
Li529 N553 1.990 . S
Li529 O588 1.950 1_565 S
Li529 O589 1.956 . S
Li529 O591 1.961 1_565 S
Li530 N575 1.990 . S
Li530 O588 1.982 . S
Li530 O590 1.956 . S
Li530 O591 1.970 . S
Li531 N581 1.989 1_545 S
Li531 O589 1.944 1_545 S
Li531 O590 1.987 . S
Li531 O591 1.957 . S
C532 C534 1.307 1_545 S
C532 C535 1.396 . S
C532 O588 1.325 . S
N533 C536 1.314 1_545 S
N533 C537 1.279 . S
C534 C532 1.307 1_565 S
C534 C536 1.353 . S
C534 H592 0.929 . S
C535 C532 1.396 . S
C535 C537 1.358 . S
C535 H593 0.930 . S
C536 N533 1.314 1_565 S
C536 C534 1.353 . S
C536 H594 0.930 . S
C537 N533 1.279 . S
C537 C535 1.358 . S
C537 H595 0.930 . S
C538 C541 1.348 . S
C538 C542 1.356 . S
C538 O589 1.325 . S
C539 N540 1.279 . S
C539 C542 1.358 . S
C539 H596 0.930 . S
N540 C539 1.279 . S
N540 C543 1.314 . S
C541 C538 1.348 . S
C541 C543 1.353 . S
C541 H597 0.929 . S
C542 C538 1.356 . S
C542 C539 1.358 . S
C542 H598 0.930 . S
C543 N540 1.314 . S
C543 C541 1.353 . S
C543 H599 0.930 . S
C544 N545 1.314 . S
C544 C549 1.353 . S
C544 H550 0.930 . S
N545 Li528 1.990 . S
N545 C544 1.314 . S
N545 C547 1.279 1_545 S
C546 C547 1.358 . S
C546 C548 1.349 1_565 S
C546 H600 0.930 . S
C547 N545 1.279 1_565 S
C547 C546 1.358 . S
C547 H551 0.930 . S
C548 C546 1.349 1_545 S
C548 C549 1.361 . S
C549 C544 1.353 . S
C549 C548 1.361 . S
C549 H601 0.929 . S
H550 C544 0.930 . S
H551 C547 0.930 . S
C552 N553 1.314 . S
C552 C554 1.353 . S
C552 H558 0.930 . S
N553 Li529 1.990 . S
N553 C552 1.314 . S
N553 C556 1.279 . S
C554 C552 1.353 . S
C554 C557 1.348 . S
C554 H602 0.929 . S
C555 C556 1.358 . S
C555 C557 1.356 . S
C555 H603 0.930 . S
C556 N553 1.279 . S
C556 C555 1.358 . S
C556 H559 0.930 . S
C557 C554 1.348 . S
C557 C555 1.356 . S
H558 C552 0.930 . S
H559 C556 0.930 . S
C560 C562 1.348 . S
C560 C563 1.356 . S
C560 O590 1.325 . S
N561 C564 1.314 . S
N561 C565 1.279 . S
C562 C560 1.348 . S
C562 C564 1.353 . S
C562 H604 0.929 . S
C563 C560 1.356 . S
C563 C565 1.358 . S
C563 H605 0.930 . S
C564 N561 1.314 . S
C564 C562 1.353 . S
C564 H606 0.930 . S
C565 N561 1.279 . S
C565 C563 1.358 . S
C565 H607 0.930 . S
C566 C567 1.382 . S
C566 C568 1.323 1_545 S
C566 O591 1.326 . S
C567 C566 1.382 . S
C567 C569 1.353 . S
C567 H608 0.929 . S
C568 C566 1.323 1_565 S
C568 C570 1.358 . S
C568 H609 0.930 . S
C569 C567 1.353 . S
C569 N571 1.311 1_545 S
C569 H610 0.930 . S
C570 C568 1.358 . S
C570 N571 1.282 . S
C570 H611 0.930 . S
N571 C569 1.311 1_565 S
N571 C570 1.282 . S
C572 C574 1.353 . S
C572 N575 1.314 . S
C572 H578 0.930 . S
C573 N575 1.279 . S
C573 C576 1.358 . S
C573 H579 0.930 . S
C574 C572 1.353 . S
C574 C577 1.348 . S
C574 H612 0.929 . S
N575 Li530 1.990 . S
N575 C572 1.314 . S
N575 C573 1.279 . S
C576 C573 1.358 . S
C576 C577 1.356 . S
C576 H613 0.930 . S
C577 C574 1.348 . S
C577 C576 1.356 . S
H578 C572 0.930 . S
H579 C573 0.930 . S
C580 N581 1.324 . S
C580 C582 1.353 . S
C580 H586 0.930 . S
N581 Li531 1.989 1_565 S
N581 C580 1.324 . S
N581 C584 1.270 1_565 S
C582 C580 1.353 . S
C582 C585 1.335 1_565 S
C582 H614 0.929 . S
C583 C584 1.358 . S
C583 C585 1.365 . S
C583 H615 0.930 . S
C584 N581 1.270 1_545 S
C584 C583 1.358 . S
C584 H587 0.930 . S
C585 C582 1.335 1_545 S
C585 C583 1.365 . S
H586 C580 0.930 . S
H587 C584 0.930 . S
O588 Li528 1.957 . S
O588 Li529 1.950 1_545 S
O588 Li530 1.982 . S
O588 C532 1.325 . S
O589 Li528 1.970 1_565 S
O589 Li529 1.956 . S
O589 Li531 1.944 1_565 S
O589 C538 1.325 . S
O590 Li528 1.961 . S
O590 Li530 1.956 . S
O590 Li531 1.987 . S
O590 C560 1.325 . S
O591 Li529 1.961 1_545 S
O591 Li530 1.970 . S
O591 Li531 1.957 . S
O591 C566 1.326 . S
H592 C534 0.929 . S
H593 C535 0.930 . S
H594 C536 0.930 . S
H595 C537 0.930 . S
H596 C539 0.930 . S
H597 C541 0.929 . S
H598 C542 0.930 . S
H599 C543 0.930 . S
H600 C546 0.930 . S
H601 C549 0.929 . S
H602 C554 0.929 . S
H603 C555 0.930 . S
H604 C562 0.929 . S
H605 C563 0.930 . S
H606 C564 0.930 . S
H607 C565 0.930 . S
H608 C567 0.929 . S
H609 C568 0.930 . S
H610 C569 0.930 . S
H611 C570 0.930 . S
H612 C574 0.929 . S
H613 C576 0.930 . S
H614 C582 0.929 . S
H615 C583 0.930 . S
Li616 N633 1.990 . S
Li616 O676 1.956 1_655 S
Li616 O677 1.972 . S
Li616 O678 1.961 . S
Li617 N641 1.990 . S
Li617 O676 1.970 . S
Li617 O677 1.954 1_455 S
Li617 O679 1.961 . S
Li618 N663 1.991 . S
Li618 O676 1.960 1_655 S
Li618 O678 1.963 . S
Li618 O679 1.963 1_655 S
Li619 N669 1.990 . S
Li619 O677 1.961 1_455 S
Li619 O678 1.970 1_455 S
Li619 O679 1.956 . S
C620 C622 1.368 . S
C620 C623 1.333 1_455 S
C620 O676 1.327 . S
N621 C624 1.314 1_655 S
N621 C625 1.279 . S
C622 C620 1.368 . S
C622 C624 1.353 . S
C622 H680 0.929 . S
C623 C620 1.333 1_655 S
C623 C625 1.358 . S
C623 H681 0.930 . S
C624 N621 1.314 1_455 S
C624 C622 1.353 . S
C624 H682 0.930 . S
C625 N621 1.279 . S
C625 C623 1.358 . S
C625 H683 0.930 . S
C626 C629 1.328 1_455 S
C626 C630 1.381 . S
C626 O677 1.324 1_455 S
C627 N628 1.279 . S
C627 C630 1.358 . S
C627 H684 0.930 . S
N628 C627 1.279 . S
N628 C631 1.314 1_455 S
C629 C626 1.328 1_655 S
C629 C631 1.353 . S
C629 H685 0.929 . S
C630 C626 1.381 . S
C630 C627 1.358 . S
C630 H686 0.930 . S
C631 N628 1.314 1_655 S
C631 C629 1.353 . S
C631 H687 0.930 . S
C632 N633 1.314 . S
C632 C637 1.353 . S
C632 H638 0.930 . S
N633 Li616 1.990 . S
N633 C632 1.314 . S
N633 C635 1.279 . S
C634 C635 1.358 . S
C634 C636 1.356 . S
C634 H688 0.930 . S
C635 N633 1.279 . S
C635 C634 1.358 . S
C635 H639 0.930 . S
C636 C634 1.356 . S
C636 C637 1.348 . S
C637 C632 1.353 . S
C637 C636 1.348 . S
C637 H689 0.929 . S
H638 C632 0.930 . S
H639 C635 0.930 . S
C640 N641 1.314 . S
C640 C642 1.353 . S
C640 H646 0.930 . S
N641 Li617 1.990 . S
N641 C640 1.314 . S
N641 C644 1.279 . S
C642 C640 1.353 . S
C642 C645 1.348 . S
C642 H690 0.929 . S
C643 C644 1.358 . S
C643 C645 1.356 . S
C643 H691 0.930 . S
C644 N641 1.279 . S
C644 C643 1.358 . S
C644 H647 0.930 . S
C645 C642 1.348 . S
C645 C643 1.356 . S
H646 C640 0.930 . S
H647 C644 0.930 . S
C648 C650 1.348 . S
C648 C651 1.356 . S
C648 O678 1.325 . S
N649 C652 1.314 . S
N649 C653 1.279 . S
C650 C648 1.348 . S
C650 C652 1.353 . S
C650 H692 0.929 . S
C651 C648 1.356 . S
C651 C653 1.358 . S
C651 H693 0.930 . S
C652 N649 1.314 . S
C652 C650 1.353 . S
C652 H694 0.930 . S
C653 N649 1.279 . S
C653 C651 1.358 . S
C653 H695 0.930 . S
C654 C655 1.348 . S
C654 C656 1.356 . S
C654 O679 1.325 . S
C655 C654 1.348 . S
C655 C657 1.353 . S
C655 H696 0.929 . S
C656 C654 1.356 . S
C656 C658 1.358 . S
C656 H697 0.930 . S
C657 C655 1.353 . S
C657 N659 1.314 . S
C657 H698 0.930 . S
C658 C656 1.358 . S
C658 N659 1.279 . S
C658 H699 0.930 . S
N659 C657 1.314 . S
N659 C658 1.279 . S
C660 C662 1.353 . S
C660 N663 1.314 1_455 S
C660 H666 0.930 . S
C661 N663 1.279 . S
C661 C664 1.358 . S
C661 H667 0.930 . S
C662 C660 1.353 . S
C662 C665 1.367 . S
C662 H700 0.929 . S
N663 Li618 1.991 . S
N663 C660 1.314 1_655 S
N663 C661 1.279 . S
C664 C661 1.358 . S
C664 C665 1.334 1_655 S
C664 H701 0.930 . S
C665 C662 1.367 . S
C665 C664 1.334 1_455 S
H666 C660 0.930 . S
H667 C661 0.930 . S
C668 N669 1.314 1_655 S
C668 C670 1.353 . S
C668 H674 0.930 . S
N669 Li619 1.990 . S
N669 C668 1.314 1_455 S
N669 C672 1.279 . S
C670 C668 1.353 . S
C670 C673 1.327 1_655 S
C670 H702 0.929 . S
C671 C672 1.358 . S
C671 C673 1.382 . S
C671 H703 0.930 . S
C672 N669 1.279 . S
C672 C671 1.358 . S
C672 H675 0.930 . S
C673 C670 1.327 1_455 S
C673 C671 1.382 . S
H674 C668 0.930 . S
H675 C672 0.930 . S
O676 Li616 1.956 1_455 S
O676 Li617 1.970 . S
O676 Li618 1.960 1_455 S
O676 C620 1.327 . S
O677 Li616 1.972 . S
O677 Li617 1.954 1_655 S
O677 Li619 1.961 1_655 S
O677 C626 1.324 1_655 S
O678 Li616 1.961 . S
O678 Li618 1.963 . S
O678 Li619 1.970 1_655 S
O678 C648 1.325 . S
O679 Li617 1.961 . S
O679 Li618 1.963 1_455 S
O679 Li619 1.956 . S
O679 C654 1.325 . S
H680 C622 0.929 . S
H681 C623 0.930 . S
H682 C624 0.930 . S
H683 C625 0.930 . S
H684 C627 0.930 . S
H685 C629 0.929 . S
H686 C630 0.930 . S
H687 C631 0.930 . S
H688 C634 0.930 . S
H689 C637 0.929 . S
H690 C642 0.929 . S
H691 C643 0.930 . S
H692 C650 0.929 . S
H693 C651 0.930 . S
H694 C652 0.930 . S
H695 C653 0.930 . S
H696 C655 0.929 . S
H697 C656 0.930 . S
H698 C657 0.930 . S
H699 C658 0.930 . S
H700 C662 0.929 . S
H701 C664 0.930 . S
H702 C670 0.929 . S
H703 C671 0.930 . S
H704 C712 0.929 . S
H705 C714 0.930 . S
H706 C716 0.930 . S
H707 C719 0.929 . S
H708 C722 0.930 . S
H709 C724 0.960 . S
H710 C724 0.960 . S
H711 C724 0.960 . S
C712 H704 0.929 . S
C712 C713 1.388 . S
C712 C714 1.384 . S
C713 C712 1.388 . S
C713 C719 1.379 1_545 S
C714 H705 0.930 . S
C714 C712 1.384 . S
C714 C715 1.372 . S
C715 C714 1.372 . S
C715 C716 1.400 1_545 S
C715 C720 1.490 . S
C716 H706 0.930 . S
C716 C715 1.400 1_565 S
C716 C719 1.386 . S
H717 C733 0.930 . S
H718 C734 0.931 . S
C719 H707 0.929 . S
C719 C713 1.379 1_565 S
C719 C716 1.386 . S
C720 C715 1.490 . S
C720 C722 1.395 . S
C720 C723 1.403 1_545 S
H721 C727 0.930 . S
C722 H708 0.930 . S
C722 C720 1.395 . S
C722 C725 1.403 1_554 S
C723 C720 1.403 1_565 S
C723 C724 1.524 . S
C723 C727 1.400 1_554 S
C724 H709 0.960 . S
C724 H710 0.960 . S
C724 H711 0.960 . S
C724 C723 1.524 . S
C725 C722 1.403 1_556 S
C725 C726 1.392 . S
C725 C729 1.495 . S
C726 C725 1.392 . S
C726 C727 1.385 1_545 S
C726 C728 1.478 . S
C727 H721 0.930 . S
C727 C723 1.400 1_556 S
C727 C726 1.385 1_565 S
C728 C726 1.478 . S
C728 C730 1.381 . S
C728 C734 1.383 1_545 S
C729 C725 1.495 . S
C729 H735 0.959 . S
C729 H736 0.961 . S
C729 H737 0.960 . S
C730 C728 1.381 . S
C730 C731 1.394 . S
C730 H738 0.930 . S
C731 C730 1.394 . S
C731 C732 1.383 . S
C731 H739 0.929 . S
C732 C731 1.383 . S
C732 C733 1.377 1_545 S
C733 H717 0.930 . S
C733 C732 1.377 1_565 S
C733 C734 1.379 . S
C734 H718 0.931 . S
C734 C728 1.383 1_565 S
C734 C733 1.379 . S
H735 C729 0.959 . S
H736 C729 0.961 . S
H737 C729 0.960 . S
H738 C730 0.930 . S
H739 C731 0.929 . S
H740 C748 0.929 . S
H741 C750 0.930 . S
H742 C752 0.930 . S
H743 C755 0.929 . S
H744 C758 0.930 . S
H745 C760 0.960 . S
H746 C760 0.960 . S
H747 C760 0.960 . S
C748 H740 0.929 . S
C748 C749 1.380 1_655 S
C748 C750 1.384 . S
C749 C748 1.380 1_455 S
C749 C755 1.388 . S
C750 H741 0.930 . S
C750 C748 1.384 . S
C750 C751 1.374 . S
C751 C750 1.374 . S
C751 C752 1.397 1_655 S
C751 C756 1.490 1_655 S
C752 H742 0.930 . S
C752 C751 1.397 1_455 S
C752 C755 1.386 . S
H753 C769 0.930 . S
H754 C770 0.931 . S
C755 H743 0.929 . S
C755 C749 1.388 . S
C755 C752 1.386 . S
C756 C751 1.490 1_455 S
C756 C758 1.400 . S
C756 C759 1.397 1_455 S
H757 C763 0.930 . S
C758 H744 0.930 . S
C758 C756 1.400 . S
C758 C761 1.403 . S
C759 C756 1.397 1_655 S
C759 C760 1.524 . S
C759 C763 1.400 . S
C760 H745 0.960 . S
C760 H746 0.960 . S
C760 H747 0.960 . S
C760 C759 1.524 . S
C761 C758 1.403 . S
C761 C762 1.392 . S
C761 C765 1.495 . S
C762 C761 1.392 . S
C762 C763 1.385 1_455 S
C762 C764 1.478 . S
C763 H757 0.930 . S
C763 C759 1.400 . S
C763 C762 1.385 1_655 S
C764 C762 1.478 . S
C764 C766 1.381 1_455 S
C764 C770 1.383 . S
C765 C761 1.495 . S
C765 H771 0.959 . S
C765 H772 0.961 . S
C765 H773 0.960 . S
C766 C764 1.381 1_655 S
C766 C767 1.394 . S
C766 H774 0.930 . S
C767 C766 1.394 . S
C767 C768 1.383 1_655 S
C767 H775 0.929 . S
C768 C767 1.383 1_455 S
C768 C769 1.377 . S
C769 H753 0.930 . S
C769 C768 1.377 . S
C769 C770 1.379 . S
C770 H754 0.931 . S
C770 C764 1.383 . S
C770 C769 1.379 . S
H771 C765 0.959 . S
H772 C765 0.961 . S
H773 C765 0.960 . S
H774 C766 0.930 . S
H775 C767 0.929 . S
H776 C784 0.929 . S
H777 C786 0.930 . S
H778 C788 0.930 . S
H779 C791 0.929 . S
H780 C794 0.930 . S
H781 C796 0.960 . S
H782 C796 0.960 . S
H783 C796 0.960 . S
C784 H776 0.929 . S
C784 C785 1.362 1_565 S
C784 C786 1.384 . S
C785 C784 1.362 1_545 S
C785 C791 1.405 . S
C786 H777 0.930 . S
C786 C784 1.384 . S
C786 C787 1.381 . S
C787 C786 1.381 . S
C787 C788 1.391 1_565 S
C787 C792 1.490 . S
C788 H778 0.930 . S
C788 C787 1.391 1_545 S
C788 C791 1.386 . S
H789 C805 0.930 . S
H790 C806 0.931 . S
C791 H779 0.929 . S
C791 C785 1.405 . S
C791 C788 1.386 . S
C792 C787 1.490 . S
C792 C794 1.403 . S
C792 C795 1.395 1_565 S
H793 C799 0.930 . S
C794 H780 0.930 . S
C794 C792 1.403 . S
C794 C797 1.403 1_556 S
C795 C792 1.395 1_545 S
C795 C796 1.524 . S
C795 C799 1.400 1_556 S
C796 H781 0.960 . S
C796 H782 0.960 . S
C796 H783 0.960 . S
C796 C795 1.524 . S
C797 C794 1.403 1_554 S
C797 C798 1.392 . S
C797 C801 1.495 . S
C798 C797 1.392 . S
C798 C799 1.385 1_565 S
C798 C800 1.478 . S
C799 H793 0.930 . S
C799 C795 1.400 1_554 S
C799 C798 1.385 1_545 S
C800 C798 1.478 . S
C800 C802 1.396 . S
C800 C806 1.367 1_565 S
C801 C797 1.495 . S
C801 H807 0.959 . S
C801 H808 0.961 . S
C801 H809 0.960 . S
C802 C800 1.396 . S
C802 C803 1.394 . S
C802 H810 0.930 . S
C803 C802 1.394 . S
C803 C804 1.383 1_565 S
C803 H811 0.929 . S
C804 C803 1.383 1_545 S
C804 C805 1.377 . S
C805 H789 0.930 . S
C805 C804 1.377 . S
C805 C806 1.379 . S
C806 H790 0.931 . S
C806 C800 1.367 1_545 S
C806 C805 1.379 . S
H807 C801 0.959 . S
H808 C801 0.961 . S
H809 C801 0.960 . S
H810 C802 0.930 . S
H811 C803 0.929 . S
H812 C820 0.929 . S
H813 C822 0.930 . S
H814 C824 0.930 . S
H815 C827 0.929 . S
H816 C830 0.930 . S
H817 C832 0.960 . S
H818 C832 0.960 . S
H819 C832 0.960 1_655 S
C820 H812 0.929 . S
C820 C821 1.403 . S
C820 C822 1.384 . S
C821 C820 1.403 . S
C821 C827 1.366 1_455 S
C822 H813 0.930 . S
C822 C820 1.384 . S
C822 C823 1.372 . S
C823 C822 1.372 . S
C823 C824 1.400 1_455 S
C823 C828 1.490 . S
C824 H814 0.930 . S
C824 C823 1.400 1_655 S
C824 C827 1.386 . S
H825 C841 0.930 . S
H826 C842 0.931 . S
C827 H815 0.929 . S
C827 C821 1.366 1_655 S
C827 C824 1.386 . S
C828 C823 1.490 . S
C828 C830 1.395 1_455 S
C828 C831 1.403 . S
H829 C835 0.930 . S
C830 H816 0.930 . S
C830 C828 1.395 1_655 S
C830 C833 1.403 . S
C831 C828 1.403 . S
C831 C832 1.524 . S
C831 C835 1.400 . S
C832 H817 0.960 . S
C832 H818 0.960 . S
C832 H819 0.960 1_455 S
C832 C831 1.524 . S
C833 C830 1.403 . S
C833 C834 1.392 1_655 S
C833 C837 1.495 . S
C834 C833 1.392 1_455 S
C834 C835 1.385 . S
C834 C836 1.479 . S
C835 H829 0.930 . S
C835 C831 1.400 . S
C835 C834 1.385 . S
C836 C834 1.479 . S
C836 C838 1.411 . S
C836 C842 1.354 1_455 S
C837 C833 1.495 . S
C837 H843 0.959 . S
C837 H844 0.961 . S
C837 H845 0.960 1_655 S
C838 C836 1.411 . S
C838 C839 1.394 . S
C838 H846 0.930 . S
C839 C838 1.394 . S
C839 C840 1.383 . S
C839 H847 0.929 . S
C840 C839 1.383 . S
C840 C841 1.377 1_455 S
C841 H825 0.930 . S
C841 C840 1.377 1_655 S
C841 C842 1.379 . S
C842 H826 0.931 . S
C842 C836 1.354 1_655 S
C842 C841 1.379 . S
H843 C837 0.959 . S
H844 C837 0.961 . S
H845 C837 0.960 1_455 S
H846 C838 0.930 . S
H847 C839 0.929 . S
H848 C856 0.929 . S
H849 C858 0.930 . S
H850 C860 0.930 . S
H851 C863 0.929 . S
H852 C866 0.930 . S
H853 C868 0.960 . S
H854 C868 0.960 . S
H855 C868 0.960 . S
C856 H848 0.929 . S
C856 C857 1.377 1_565 S
C856 C858 1.384 . S
C857 C856 1.377 1_545 S
C857 C863 1.390 . S
C858 H849 0.930 . S
C858 C856 1.384 . S
C858 C859 1.372 1_565 S
C859 C858 1.372 1_545 S
C859 C860 1.400 . S
C859 C864 1.490 . S
C860 H850 0.930 . S
C860 C859 1.400 . S
C860 C863 1.386 . S
H861 C877 0.930 . S
H862 C878 0.931 . S
C863 H851 0.929 . S
C863 C857 1.390 . S
C863 C860 1.386 . S
C864 C859 1.490 . S
C864 C866 1.388 1_545 S
C864 C867 1.409 . S
H865 C871 0.930 . S
C866 H852 0.930 . S
C866 C864 1.388 1_565 S
C866 C869 1.403 . S
C867 C864 1.409 . S
C867 C868 1.524 . S
C867 C871 1.400 . S
C868 H853 0.960 . S
C868 H854 0.960 . S
C868 H855 0.960 . S
C868 C867 1.524 . S
C869 C866 1.403 . S
C869 C870 1.392 . S
C869 C873 1.495 . S
C870 C869 1.392 . S
C870 C871 1.385 1_565 S
C870 C872 1.478 . S
C871 H865 0.930 . S
C871 C867 1.400 . S
C871 C870 1.385 1_545 S
C872 C870 1.478 . S
C872 C874 1.381 . S
C872 C878 1.383 1_565 S
C873 C869 1.495 . S
C873 H879 0.959 . S
C873 H880 0.961 . S
C873 H881 0.960 . S
C874 C872 1.381 . S
C874 C875 1.394 . S
C874 H882 0.930 . S
C875 C874 1.394 . S
C875 C876 1.386 . S
C875 H883 0.929 . S
C876 C875 1.386 . S
C876 C877 1.375 1_565 S
C877 H861 0.930 . S
C877 C876 1.375 1_545 S
C877 C878 1.379 . S
C878 H862 0.931 . S
C878 C872 1.383 1_545 S
C878 C877 1.379 . S
H879 C873 0.959 . S
H880 C873 0.961 . S
H881 C873 0.960 . S
H882 C874 0.930 . S
H883 C875 0.929 . S
H884 C892 0.929 . S
H885 C894 0.930 . S
H886 C896 0.932 . S
H887 C899 0.934 . S
H888 C902 0.930 . S
H889 C904 0.960 . S
H890 C904 0.960 . S
H891 C904 0.960 . S
C892 H884 0.929 . S
C892 C893 1.377 . S
C892 C894 1.384 . S
C893 C892 1.377 . S
C893 C899 1.387 1_455 S
C894 H885 0.930 . S
C894 C892 1.384 . S
C894 C895 1.372 . S
C895 C894 1.372 . S
C895 C896 1.398 1_455 S
C895 C900 1.492 . S
C896 H886 0.932 . S
C896 C895 1.398 1_655 S
C896 C899 1.386 . S
H897 C913 0.930 . S
H898 C914 0.931 . S
C899 H887 0.934 . S
C899 C893 1.387 1_655 S
C899 C896 1.386 . S
C900 C895 1.492 . S
C900 C902 1.363 1_455 S
C900 C903 1.433 . S
H901 C907 0.930 . S
C902 H888 0.930 . S
C902 C900 1.363 1_655 S
C902 C905 1.403 . S
C903 C900 1.433 . S
C903 C904 1.524 . S
C903 C907 1.400 . S
C904 H889 0.960 . S
C904 H890 0.960 . S
C904 H891 0.960 . S
C904 C903 1.524 . S
C905 C902 1.403 . S
C905 C906 1.392 . S
C905 C909 1.495 . S
C906 C905 1.392 . S
C906 C907 1.385 1_655 S
C906 C908 1.478 . S
C907 H901 0.930 . S
C907 C903 1.400 . S
C907 C906 1.385 1_455 S
C908 C906 1.478 . S
C908 C910 1.381 1_655 S
C908 C914 1.383 . S
C909 C905 1.495 . S
C909 H915 0.959 . S
C909 H916 0.961 . S
C909 H917 0.960 . S
C910 C908 1.381 1_455 S
C910 C911 1.394 . S
C910 H918 0.930 . S
C911 C910 1.394 . S
C911 C912 1.380 1_455 S
C911 H919 0.929 . S
C912 C911 1.380 1_655 S
C912 C913 1.381 . S
C913 H897 0.930 . S
C913 C912 1.381 . S
C913 C914 1.379 . S
C914 H898 0.931 . S
C914 C908 1.383 . S
C914 C913 1.379 . S
H915 C909 0.959 . S
H916 C909 0.961 . S
H917 C909 0.960 . S
H918 C910 0.930 . S
H919 C911 0.929 . S
H920 C928 0.929 . S
H921 C930 0.930 . S
H922 C932 0.930 . S
H923 C935 0.929 . S
H924 C938 0.930 . S
H925 C940 0.960 . S
H926 C940 0.960 . S
H927 C940 0.960 . S
C928 H920 0.929 . S
C928 C929 1.377 1_565 S
C928 C930 1.384 . S
C929 C928 1.377 1_545 S
C929 C935 1.390 . S
C930 H921 0.930 . S
C930 C928 1.384 . S
C930 C931 1.363 1_565 S
C931 C930 1.363 1_545 S
C931 C932 1.408 . S
C931 C936 1.489 1_545 S
C932 H922 0.930 . S
C932 C931 1.408 . S
C932 C935 1.386 . S
H933 C949 0.930 . S
H934 C950 0.931 . S
C935 H923 0.929 . S
C935 C929 1.390 . S
C935 C932 1.386 . S
C936 C931 1.489 1_565 S
C936 C938 1.407 . S
C936 C939 1.391 1_565 S
H937 C943 0.930 . S
C938 H924 0.930 . S
C938 C936 1.407 . S
C938 C941 1.403 . S
C939 C936 1.391 1_545 S
C939 C940 1.524 . S
C939 C943 1.400 . S
C940 H925 0.960 . S
C940 H926 0.960 . S
C940 H927 0.960 . S
C940 C939 1.524 . S
C941 C938 1.403 . S
C941 C942 1.392 . S
C941 C945 1.495 . S
C942 C941 1.392 . S
C942 C943 1.385 1_565 S
C942 C944 1.478 . S
C943 H937 0.930 . S
C943 C939 1.400 . S
C943 C942 1.385 1_545 S
C944 C942 1.478 . S
C944 C946 1.381 . S
C944 C950 1.383 1_565 S
C945 C941 1.495 . S
C945 H951 0.959 . S
C945 H952 0.961 . S
C945 H953 0.960 . S
C946 C944 1.381 . S
C946 C947 1.394 . S
C946 H954 0.930 . S
C947 C946 1.394 . S
C947 C948 1.383 1_565 S
C947 H955 0.929 . S
C948 C947 1.383 1_545 S
C948 C949 1.377 . S
C949 H933 0.930 . S
C949 C948 1.377 . S
C949 C950 1.379 . S
C950 H934 0.931 . S
C950 C944 1.383 1_545 S
C950 C949 1.379 . S
H951 C945 0.959 . S
H952 C945 0.961 . S
H953 C945 0.960 . S
H954 C946 0.930 . S
H955 C947 0.929 . S
H956 C964 0.929 . S
H957 C966 0.930 . S
H958 C968 0.932 . S
H959 C971 0.930 . S
H960 C974 0.930 . S
H961 C976 0.960 . S
H962 C976 0.960 . S
H963 C976 0.960 . S
C964 H956 0.929 . S
C964 C965 1.380 . S
C964 C966 1.384 . S
C965 C964 1.380 . S
C965 C971 1.388 1_455 S
C966 H957 0.930 . S
C966 C964 1.384 . S
C966 C967 1.375 . S
C967 C966 1.375 . S
C967 C968 1.397 1_455 S
C967 C972 1.492 . S
C968 H958 0.932 . S
C968 C967 1.397 1_655 S
C968 C971 1.386 . S
H969 C985 0.930 . S
H970 C986 0.931 . S
C971 H959 0.930 . S
C971 C965 1.388 1_655 S
C971 C968 1.386 . S
C972 C967 1.492 . S
C972 C974 1.395 . S
C972 C975 1.403 1_455 S
H973 C979 0.930 . S
C974 H960 0.930 . S
C974 C972 1.395 . S
C974 C977 1.403 . S
C975 C972 1.403 1_655 S
C975 C976 1.524 . S
C975 C979 1.400 . S
C976 H961 0.960 . S
C976 H962 0.960 . S
C976 H963 0.960 . S
C976 C975 1.524 . S
C977 C974 1.403 . S
C977 C978 1.392 . S
C977 C981 1.495 . S
C978 C977 1.392 . S
C978 C979 1.385 1_455 S
C978 C980 1.478 . S
C979 H973 0.930 . S
C979 C975 1.400 . S
C979 C978 1.385 1_655 S
C980 C978 1.478 . S
C980 C982 1.381 . S
C980 C986 1.383 . S
C981 C977 1.495 . S
C981 H987 0.959 . S
C981 H988 0.961 . S
C981 H989 0.960 . S
C982 C980 1.381 . S
C982 C983 1.394 . S
C982 H990 0.930 . S
C983 C982 1.394 . S
C983 C984 1.383 . S
C983 H991 0.934 . S
C984 C983 1.383 . S
C984 C985 1.377 . S
C985 H969 0.930 . S
C985 C984 1.377 . S
C985 C986 1.379 . S
C986 H970 0.931 . S
C986 C980 1.383 . S
C986 C985 1.379 . S
H987 C981 0.959 . S
H988 C981 0.961 . S
H989 C981 0.960 . S
H990 C982 0.930 . S
H991 C983 0.934 . S
H992 C1000 0.929 . S
H993 C1002 0.930 . S
H994 C1004 0.930 . S
H995 C1007 0.929 . S
H996 C1010 0.930 . S
H997 C1012 0.960 . S
H998 C1012 0.960 . S
H999 C1012 0.960 . S
C1000 H992 0.929 . S
C1000 C1001 1.377 . S
C1000 C1002 1.384 . S
C1001 C1000 1.377 . S
C1001 C1007 1.390 . S
C1002 H993 0.930 . S
C1002 C1000 1.384 . S
C1002 C1003 1.372 . S
C1003 C1002 1.372 . S
C1003 C1004 1.400 . S
C1003 C1008 1.490 . S
C1004 H994 0.930 . S
C1004 C1003 1.400 . S
C1004 C1007 1.386 . S
H1005 C1021 0.930 . S
H1006 C1022 0.931 . S
C1007 H995 0.929 . S
C1007 C1001 1.390 . S
C1007 C1004 1.386 . S
C1008 C1003 1.490 . S
C1008 C1010 1.395 . S
C1008 C1011 1.403 . S
H1009 C1015 0.930 . S
C1010 H996 0.930 . S
C1010 C1008 1.395 . S
C1010 C1013 1.403 . S
C1011 C1008 1.403 . S
C1011 C1012 1.524 . S
C1011 C1015 1.400 . S
C1012 H997 0.960 . S
C1012 H998 0.960 . S
C1012 H999 0.960 . S
C1012 C1011 1.524 . S
C1013 C1010 1.403 . S
C1013 C1014 1.392 . S
C1013 C1017 1.495 . S
C1014 C1013 1.392 . S
C1014 C1015 1.385 . S
C1014 C1016 1.478 . S
C1015 H1009 0.930 . S
C1015 C1011 1.400 . S
C1015 C1014 1.385 . S
C1016 C1014 1.478 . S
C1016 C1018 1.381 . S
C1016 C1022 1.383 . S
C1017 C1013 1.495 . S
C1017 H1023 0.959 . S
C1017 H1024 0.961 . S
C1017 H1025 0.960 . S
C1018 C1016 1.381 . S
C1018 C1019 1.394 . S
C1018 H1026 0.930 . S
C1019 C1018 1.394 . S
C1019 C1020 1.383 . S
C1019 H1027 0.929 . S
C1020 C1019 1.383 . S
C1020 C1021 1.377 . S
C1021 H1005 0.930 . S
C1021 C1020 1.377 . S
C1021 C1022 1.379 . S
C1022 H1006 0.931 . S
C1022 C1016 1.383 . S
C1022 C1021 1.379 . S
H1023 C1017 0.959 . S
H1024 C1017 0.961 . S
H1025 C1017 0.960 . S
H1026 C1018 0.930 . S
H1027 C1019 0.929 . S
H1028 C1036 0.929 . S
H1029 C1038 0.930 . S
H1030 C1040 0.930 . S
H1031 C1043 0.929 . S
H1032 C1046 0.930 . S
H1033 C1048 0.960 . S
H1034 C1048 0.960 . S
H1035 C1048 0.960 . S
C1036 H1028 0.929 . S
C1036 C1037 1.377 . S
C1036 C1038 1.384 . S
C1037 C1036 1.377 . S
C1037 C1043 1.390 . S
C1038 H1029 0.930 . S
C1038 C1036 1.384 . S
C1038 C1039 1.372 . S
C1039 C1038 1.372 . S
C1039 C1040 1.400 . S
C1039 C1044 1.490 . S
C1040 H1030 0.930 . S
C1040 C1039 1.400 . S
C1040 C1043 1.386 . S
H1041 C1057 0.930 . S
H1042 C1058 0.931 . S
C1043 H1031 0.929 . S
C1043 C1037 1.390 . S
C1043 C1040 1.386 . S
C1044 C1039 1.490 . S
C1044 C1046 1.395 . S
C1044 C1047 1.403 . S
H1045 C1051 0.930 . S
C1046 H1032 0.930 . S
C1046 C1044 1.395 . S
C1046 C1049 1.403 . S
C1047 C1044 1.403 . S
C1047 C1048 1.524 . S
C1047 C1051 1.400 . S
C1048 H1033 0.960 . S
C1048 H1034 0.960 . S
C1048 H1035 0.960 . S
C1048 C1047 1.524 . S
C1049 C1046 1.403 . S
C1049 C1050 1.392 . S
C1049 C1053 1.495 . S
C1050 C1049 1.392 . S
C1050 C1051 1.385 . S
C1050 C1052 1.478 . S
C1051 H1045 0.930 . S
C1051 C1047 1.400 . S
C1051 C1050 1.385 . S
C1052 C1050 1.478 . S
C1052 C1054 1.381 . S
C1052 C1058 1.383 . S
C1053 C1049 1.495 . S
C1053 H1059 0.959 . S
C1053 H1060 0.961 . S
C1053 H1061 0.960 . S
C1054 C1052 1.381 . S
C1054 C1055 1.394 . S
C1054 H1062 0.930 . S
C1055 C1054 1.394 . S
C1055 C1056 1.383 . S
C1055 H1063 0.929 . S
C1056 C1055 1.383 . S
C1056 C1057 1.377 . S
C1057 H1041 0.930 . S
C1057 C1056 1.377 . S
C1057 C1058 1.379 . S
C1058 H1042 0.931 . S
C1058 C1052 1.383 . S
C1058 C1057 1.379 . S
H1059 C1053 0.959 . S
H1060 C1053 0.961 . S
H1061 C1053 0.960 . S
H1062 C1054 0.930 . S
H1063 C1055 0.929 . S
H1064 C1072 0.929 . S
H1065 C1074 0.930 . S
H1066 C1076 0.930 . S
H1067 C1079 0.929 . S
H1068 C1082 0.930 . S
H1069 C1084 0.960 . S
H1070 C1084 0.960 . S
H1071 C1084 0.960 . S
C1072 H1064 0.929 . S
C1072 C1073 1.377 . S
C1072 C1074 1.384 . S
C1073 C1072 1.377 . S
C1073 C1079 1.390 . S
C1074 H1065 0.930 . S
C1074 C1072 1.384 . S
C1074 C1075 1.372 . S
C1075 C1074 1.372 . S
C1075 C1076 1.400 . S
C1075 C1080 1.490 . S
C1076 H1066 0.930 . S
C1076 C1075 1.400 . S
C1076 C1079 1.386 . S
H1077 C1093 0.930 . S
H1078 C1094 0.931 . S
C1079 H1067 0.929 . S
C1079 C1073 1.390 . S
C1079 C1076 1.386 . S
C1080 C1075 1.490 . S
C1080 C1082 1.395 . S
C1080 C1083 1.403 . S
H1081 C1087 0.930 . S
C1082 H1068 0.930 . S
C1082 C1080 1.395 . S
C1082 C1085 1.403 . S
C1083 C1080 1.403 . S
C1083 C1084 1.524 . S
C1083 C1087 1.400 . S
C1084 H1069 0.960 . S
C1084 H1070 0.960 . S
C1084 H1071 0.960 . S
C1084 C1083 1.524 . S
C1085 C1082 1.403 . S
C1085 C1086 1.392 . S
C1085 C1089 1.495 . S
C1086 C1085 1.392 . S
C1086 C1087 1.385 . S
C1086 C1088 1.478 . S
C1087 H1081 0.930 . S
C1087 C1083 1.400 . S
C1087 C1086 1.385 . S
C1088 C1086 1.478 . S
C1088 C1090 1.381 . S
C1088 C1094 1.383 . S
C1089 C1085 1.495 . S
C1089 H1095 0.959 . S
C1089 H1096 0.961 . S
C1089 H1097 0.960 . S
C1090 C1088 1.381 . S
C1090 C1091 1.394 . S
C1090 H1098 0.930 . S
C1091 C1090 1.394 . S
C1091 C1092 1.383 . S
C1091 H1099 0.929 . S
C1092 C1091 1.383 . S
C1092 C1093 1.377 . S
C1093 H1077 0.930 . S
C1093 C1092 1.377 . S
C1093 C1094 1.379 . S
C1094 H1078 0.931 . S
C1094 C1088 1.383 . S
C1094 C1093 1.379 . S
H1095 C1089 0.959 . S
H1096 C1089 0.961 . S
H1097 C1089 0.960 . S
H1098 C1090 0.930 . S
H1099 C1091 0.929 . S
H1100 C1108 0.929 . S
H1101 C1110 0.930 . S
H1102 C1112 0.930 . S
H1103 C1115 0.929 . S
H1104 C1118 0.930 . S
H1105 C1120 0.960 . S
H1106 C1120 0.960 . S
H1107 C1120 0.960 . S
C1108 H1100 0.929 . S
C1108 C1109 1.377 . S
C1108 C1110 1.384 . S
C1109 C1108 1.377 . S
C1109 C1115 1.390 . S
C1110 H1101 0.930 . S
C1110 C1108 1.384 . S
C1110 C1111 1.372 . S
C1111 C1110 1.372 . S
C1111 C1112 1.400 . S
C1111 C1116 1.490 . S
C1112 H1102 0.930 . S
C1112 C1111 1.400 . S
C1112 C1115 1.386 . S
H1113 C1129 0.930 . S
H1114 C1130 0.931 . S
C1115 H1103 0.929 . S
C1115 C1109 1.390 . S
C1115 C1112 1.386 . S
C1116 C1111 1.490 . S
C1116 C1118 1.395 . S
C1116 C1119 1.403 . S
H1117 C1123 0.930 . S
C1118 H1104 0.930 . S
C1118 C1116 1.395 . S
C1118 C1121 1.403 . S
C1119 C1116 1.403 . S
C1119 C1120 1.524 . S
C1119 C1123 1.400 . S
C1120 H1105 0.960 . S
C1120 H1106 0.960 . S
C1120 H1107 0.960 . S
C1120 C1119 1.524 . S
C1121 C1118 1.403 . S
C1121 C1122 1.392 . S
C1121 C1125 1.495 . S
C1122 C1121 1.392 . S
C1122 C1123 1.385 . S
C1122 C1124 1.478 . S
C1123 H1117 0.930 . S
C1123 C1119 1.400 . S
C1123 C1122 1.385 . S
C1124 C1122 1.478 . S
C1124 C1126 1.381 . S
C1124 C1130 1.383 . S
C1125 C1121 1.495 . S
C1125 H1131 0.959 . S
C1125 H1132 0.961 . S
C1125 H1133 0.960 . S
C1126 C1124 1.381 . S
C1126 C1127 1.394 . S
C1126 H1134 0.930 . S
C1127 C1126 1.394 . S
C1127 C1128 1.383 . S
C1127 H1135 0.929 . S
C1128 C1127 1.383 . S
C1128 C1129 1.377 . S
C1129 H1113 0.930 . S
C1129 C1128 1.377 . S
C1129 C1130 1.379 . S
C1130 H1114 0.931 . S
C1130 C1124 1.383 . S
C1130 C1129 1.379 . S
H1131 C1125 0.959 . S
H1132 C1125 0.961 . S
H1133 C1125 0.960 . S
H1134 C1126 0.930 . S
H1135 C1127 0.929 . S
H1136 C1144 0.929 . S
H1137 C1146 0.930 . S
H1138 C1148 0.930 . S
H1139 C1151 0.929 . S
H1140 C1154 0.930 . S
H1141 C1156 0.960 . S
H1142 C1156 0.960 . S
H1143 C1156 0.960 . S
C1144 H1136 0.929 . S
C1144 C1145 1.377 . S
C1144 C1146 1.384 . S
C1145 C1144 1.377 . S
C1145 C1151 1.390 . S
C1146 H1137 0.930 . S
C1146 C1144 1.384 . S
C1146 C1147 1.372 . S
C1147 C1146 1.372 . S
C1147 C1148 1.400 . S
C1147 C1152 1.490 . S
C1148 H1138 0.930 . S
C1148 C1147 1.400 . S
C1148 C1151 1.386 . S
H1149 C1165 0.930 . S
H1150 C1166 0.931 . S
C1151 H1139 0.929 . S
C1151 C1145 1.390 . S
C1151 C1148 1.386 . S
C1152 C1147 1.490 . S
C1152 C1154 1.395 . S
C1152 C1155 1.403 . S
H1153 C1159 0.930 . S
C1154 H1140 0.930 . S
C1154 C1152 1.395 . S
C1154 C1157 1.403 . S
C1155 C1152 1.403 . S
C1155 C1156 1.524 . S
C1155 C1159 1.400 . S
C1156 H1141 0.960 . S
C1156 H1142 0.960 . S
C1156 H1143 0.960 . S
C1156 C1155 1.524 . S
C1157 C1154 1.403 . S
C1157 C1158 1.392 . S
C1157 C1161 1.495 . S
C1158 C1157 1.392 . S
C1158 C1159 1.385 . S
C1158 C1160 1.478 . S
C1159 H1153 0.930 . S
C1159 C1155 1.400 . S
C1159 C1158 1.385 . S
C1160 C1158 1.478 . S
C1160 C1162 1.381 . S
C1160 C1166 1.383 . S
C1161 C1157 1.495 . S
C1161 H1167 0.959 . S
C1161 H1168 0.961 . S
C1161 H1169 0.960 . S
C1162 C1160 1.381 . S
C1162 C1163 1.394 . S
C1162 H1170 0.930 . S
C1163 C1162 1.394 . S
C1163 C1164 1.383 . S
C1163 H1171 0.929 . S
C1164 C1163 1.383 . S
C1164 C1165 1.377 . S
C1165 H1149 0.930 . S
C1165 C1164 1.377 . S
C1165 C1166 1.379 . S
C1166 H1150 0.931 . S
C1166 C1160 1.383 . S
C1166 C1165 1.379 . S
H1167 C1161 0.959 . S
H1168 C1161 0.961 . S
H1169 C1161 0.960 . S
H1170 C1162 0.930 . S
H1171 C1163 0.929 . S
H1172 C1180 0.929 . S
H1173 C1182 0.930 . S
H1174 C1184 0.930 . S
H1175 C1187 0.929 . S
H1176 C1190 0.930 . S
H1177 C1192 0.960 . S
H1178 C1192 0.960 . S
H1179 C1192 0.960 . S
C1180 H1172 0.929 . S
C1180 C1181 1.377 . S
C1180 C1182 1.384 . S
C1181 C1180 1.377 . S
C1181 C1187 1.390 . S
C1182 H1173 0.930 . S
C1182 C1180 1.384 . S
C1182 C1183 1.372 . S
C1183 C1182 1.372 . S
C1183 C1184 1.400 . S
C1183 C1188 1.490 . S
C1184 H1174 0.930 . S
C1184 C1183 1.400 . S
C1184 C1187 1.386 . S
H1185 C1201 0.930 . S
H1186 C1202 0.931 . S
C1187 H1175 0.929 . S
C1187 C1181 1.390 . S
C1187 C1184 1.386 . S
C1188 C1183 1.490 . S
C1188 C1190 1.395 . S
C1188 C1191 1.403 . S
H1189 C1195 0.930 . S
C1190 H1176 0.930 . S
C1190 C1188 1.395 . S
C1190 C1193 1.403 . S
C1191 C1188 1.403 . S
C1191 C1192 1.524 . S
C1191 C1195 1.400 . S
C1192 H1177 0.960 . S
C1192 H1178 0.960 . S
C1192 H1179 0.960 . S
C1192 C1191 1.524 . S
C1193 C1190 1.403 . S
C1193 C1194 1.392 . S
C1193 C1197 1.495 . S
C1194 C1193 1.392 . S
C1194 C1195 1.385 . S
C1194 C1196 1.478 . S
C1195 H1189 0.930 . S
C1195 C1191 1.400 . S
C1195 C1194 1.385 . S
C1196 C1194 1.478 . S
C1196 C1198 1.381 . S
C1196 C1202 1.383 . S
C1197 C1193 1.495 . S
C1197 H1203 0.959 . S
C1197 H1204 0.961 . S
C1197 H1205 0.960 . S
C1198 C1196 1.381 . S
C1198 C1199 1.394 . S
C1198 H1206 0.930 . S
C1199 C1198 1.394 . S
C1199 C1200 1.383 . S
C1199 H1207 0.929 . S
C1200 C1199 1.383 . S
C1200 C1201 1.377 . S
C1201 H1185 0.930 . S
C1201 C1200 1.377 . S
C1201 C1202 1.379 . S
C1202 H1186 0.931 . S
C1202 C1196 1.383 . S
C1202 C1201 1.379 . S
H1203 C1197 0.959 . S
H1204 C1197 0.961 . S
H1205 C1197 0.960 . S
H1206 C1198 0.930 . S
H1207 C1199 0.929 . S
H1208 C1216 0.929 . S
H1209 C1218 0.930 . S
H1210 C1220 0.930 . S
H1211 C1223 0.929 . S
H1212 C1226 0.930 . S
H1213 C1228 0.960 . S
H1214 C1228 0.960 . S
H1215 C1228 0.960 . S
C1216 H1208 0.929 . S
C1216 C1217 1.377 . S
C1216 C1218 1.384 . S
C1217 C1216 1.377 . S
C1217 C1223 1.390 . S
C1218 H1209 0.930 . S
C1218 C1216 1.384 . S
C1218 C1219 1.372 . S
C1219 C1218 1.372 . S
C1219 C1220 1.400 . S
C1219 C1224 1.490 . S
C1220 H1210 0.930 . S
C1220 C1219 1.400 . S
C1220 C1223 1.386 . S
H1221 C1237 0.930 . S
H1222 C1238 0.931 . S
C1223 H1211 0.929 . S
C1223 C1217 1.390 . S
C1223 C1220 1.386 . S
C1224 C1219 1.490 . S
C1224 C1226 1.395 . S
C1224 C1227 1.403 . S
H1225 C1231 0.930 . S
C1226 H1212 0.930 . S
C1226 C1224 1.395 . S
C1226 C1229 1.403 . S
C1227 C1224 1.403 . S
C1227 C1228 1.524 . S
C1227 C1231 1.400 . S
C1228 H1213 0.960 . S
C1228 H1214 0.960 . S
C1228 H1215 0.960 . S
C1228 C1227 1.524 . S
C1229 C1226 1.403 . S
C1229 C1230 1.392 . S
C1229 C1233 1.495 . S
C1230 C1229 1.392 . S
C1230 C1231 1.385 . S
C1230 C1232 1.478 . S
C1231 H1225 0.930 . S
C1231 C1227 1.400 . S
C1231 C1230 1.385 . S
C1232 C1230 1.478 . S
C1232 C1234 1.381 . S
C1232 C1238 1.383 . S
C1233 C1229 1.495 . S
C1233 H1239 0.959 . S
C1233 H1240 0.961 . S
C1233 H1241 0.960 . S
C1234 C1232 1.381 . S
C1234 C1235 1.394 . S
C1234 H1242 0.930 . S
C1235 C1234 1.394 . S
C1235 C1236 1.383 . S
C1235 H1243 0.929 . S
C1236 C1235 1.383 . S
C1236 C1237 1.377 . S
C1237 H1221 0.930 . S
C1237 C1236 1.377 . S
C1237 C1238 1.379 . S
C1238 H1222 0.931 . S
C1238 C1232 1.383 . S
C1238 C1237 1.379 . S
H1239 C1233 0.959 . S
H1240 C1233 0.961 . S
H1241 C1233 0.960 . S
H1242 C1234 0.930 . S
H1243 C1235 0.929 . S
H1244 C1252 0.929 . S
H1245 C1254 0.930 . S
H1246 C1256 0.930 . S
H1247 C1259 0.929 . S
H1248 C1262 0.930 . S
H1249 C1264 0.960 . S
H1250 C1264 0.960 . S
H1251 C1264 0.960 . S
C1252 H1244 0.929 . S
C1252 C1253 1.377 . S
C1252 C1254 1.384 . S
C1253 C1252 1.377 . S
C1253 C1259 1.390 . S
C1254 H1245 0.930 . S
C1254 C1252 1.384 . S
C1254 C1255 1.372 . S
C1255 C1254 1.372 . S
C1255 C1256 1.400 . S
C1255 C1260 1.490 . S
C1256 H1246 0.930 . S
C1256 C1255 1.400 . S
C1256 C1259 1.386 . S
H1257 C1273 0.930 . S
H1258 C1274 0.931 . S
C1259 H1247 0.929 . S
C1259 C1253 1.390 . S
C1259 C1256 1.386 . S
C1260 C1255 1.490 . S
C1260 C1262 1.395 . S
C1260 C1263 1.403 . S
H1261 C1267 0.930 . S
C1262 H1248 0.930 . S
C1262 C1260 1.395 . S
C1262 C1265 1.403 . S
C1263 C1260 1.403 . S
C1263 C1264 1.524 . S
C1263 C1267 1.400 . S
C1264 H1249 0.960 . S
C1264 H1250 0.960 . S
C1264 H1251 0.960 . S
C1264 C1263 1.524 . S
C1265 C1262 1.403 . S
C1265 C1266 1.392 . S
C1265 C1269 1.495 . S
C1266 C1265 1.392 . S
C1266 C1267 1.385 . S
C1266 C1268 1.478 . S
C1267 H1261 0.930 . S
C1267 C1263 1.400 . S
C1267 C1266 1.385 . S
C1268 C1266 1.478 . S
C1268 C1270 1.381 . S
C1268 C1274 1.383 . S
C1269 C1265 1.495 . S
C1269 H1275 0.959 . S
C1269 H1276 0.961 . S
C1269 H1277 0.960 . S
C1270 C1268 1.381 . S
C1270 C1271 1.394 . S
C1270 H1278 0.930 . S
C1271 C1270 1.394 . S
C1271 C1272 1.383 . S
C1271 H1279 0.929 . S
C1272 C1271 1.383 . S
C1272 C1273 1.377 . S
C1273 H1257 0.930 . S
C1273 C1272 1.377 . S
C1273 C1274 1.379 . S
C1274 H1258 0.931 . S
C1274 C1268 1.383 . S
C1274 C1273 1.379 . S
H1275 C1269 0.959 . S
H1276 C1269 0.961 . S
H1277 C1269 0.960 . S
H1278 C1270 0.930 . S
H1279 C1271 0.929 . S
C713 C49 1.618 . S
C732 C381 1.616 . S
C749 C108 1.615 . S
C768 C469 1.612 . S
C785 C548 1.618 . S
C804 C233 1.615 . S
C821 C673 1.615 . S
C840 C313 1.613 . S
C857 C29 0.555 . S
C876 C196 0.549 1_565 S
C893 C117 0.550 . S
C912 C321 0.532 1_655 S
C929 C585 0.554 . S
C948 C401 0.526 . S
C965 C460 0.549 . S
C984 C665 0.552 . S
C1001 C489 1.163 . S
C1020 C20 1.139 . S
C1037 C145 1.165 . S
C1056 C577 1.175 . S
C1073 C636 1.161 . S
C1092 C205 1.138 . S
C1109 C293 1.165 . S
C1128 C409 1.173 . S
C1145 C557 1.161 . S
C1164 C284 1.164 . S
C1181 C57 1.167 . S
C1200 C645 1.133 . S
C1217 C137 1.162 . S
C1236 C372 1.148 . S
C1253 C497 1.162 . S
C1272 C225 1.147 . S
