# Generated by pormake.
# Topology bcu-g, (3)-cn, num edge types: 1
# Building blocks:
#     Node 0, Type 0, BuildingBlock: WUSLED_clean_sbu_0, # of connection points: 3
#     Node 1, Type 0, BuildingBlock: WUSLED_clean_sbu_0, # of connection points: 3
#     Node 2, Type 0, BuildingBlock: WUSLED_clean_sbu_0, # of connection points: 3
#     Node 3, Type 0, BuildingBlock: WUSLED_clean_sbu_0, # of connection points: 3
#     Node 4, Type 0, BuildingBlock: WUSLED_clean_sbu_0, # of connection points: 3
#     Node 5, Type 0, BuildingBlock: WUSLED_clean_sbu_0, # of connection points: 3
#     Node 6, Type 0, BuildingBlock: WUSLED_clean_sbu_0, # of connection points: 3
#     Node 7, Type 0, BuildingBlock: WUSLED_clean_sbu_0, # of connection points: 3
#     Node 8, Type 0, BuildingBlock: WUSLED_clean_sbu_0, # of connection points: 3
#     Node 9, Type 0, BuildingBlock: WUSLED_clean_sbu_0, # of connection points: 3
#     Node 10, Type 0, BuildingBlock: WUSLED_clean_sbu_0, # of connection points: 3
#     Node 11, Type 0, BuildingBlock: WUSLED_clean_sbu_0, # of connection points: 3
#     Node 12, Type 0, BuildingBlock: WUSLED_clean_sbu_0, # of connection points: 3
#     Node 13, Type 0, BuildingBlock: WUSLED_clean_sbu_0, # of connection points: 3
#     Node 14, Type 0, BuildingBlock: WUSLED_clean_sbu_0, # of connection points: 3
#     Node 15, Type 0, BuildingBlock: WUSLED_clean_sbu_0, # of connection points: 3
#     Edge 16, Type (0, 0), BuildingBlock: AJUNOK_clean_linker_0, # of connection points: 2
#     Edge 17, Type (0, 0), BuildingBlock: AJUNOK_clean_linker_0, # of connection points: 2
#     Edge 18, Type (0, 0), BuildingBlock: AJUNOK_clean_linker_0, # of connection points: 2
#     Edge 19, Type (0, 0), BuildingBlock: AJUNOK_clean_linker_0, # of connection points: 2
#     Edge 20, Type (0, 0), BuildingBlock: AJUNOK_clean_linker_0, # of connection points: 2
#     Edge 21, Type (0, 0), BuildingBlock: AJUNOK_clean_linker_0, # of connection points: 2
#     Edge 22, Type (0, 0), BuildingBlock: AJUNOK_clean_linker_0, # of connection points: 2
#     Edge 23, Type (0, 0), BuildingBlock: AJUNOK_clean_linker_0, # of connection points: 2
#     Edge 24, Type (0, 0), BuildingBlock: AJUNOK_clean_linker_0, # of connection points: 2
#     Edge 25, Type (0, 0), BuildingBlock: AJUNOK_clean_linker_0, # of connection points: 2
#     Edge 26, Type (0, 0), BuildingBlock: AJUNOK_clean_linker_0, # of connection points: 2
#     Edge 27, Type (0, 0), BuildingBlock: AJUNOK_clean_linker_0, # of connection points: 2
#     Edge 28, Type (0, 0), BuildingBlock: AJUNOK_clean_linker_0, # of connection points: 2
#     Edge 29, Type (0, 0), BuildingBlock: AJUNOK_clean_linker_0, # of connection points: 2
#     Edge 30, Type (0, 0), BuildingBlock: AJUNOK_clean_linker_0, # of connection points: 2
#     Edge 31, Type (0, 0), BuildingBlock: AJUNOK_clean_linker_0, # of connection points: 2
#     Edge 32, Type (0, 0), BuildingBlock: AJUNOK_clean_linker_0, # of connection points: 2
#     Edge 33, Type (0, 0), BuildingBlock: AJUNOK_clean_linker_0, # of connection points: 2
#     Edge 34, Type (0, 0), BuildingBlock: AJUNOK_clean_linker_0, # of connection points: 2
#     Edge 35, Type (0, 0), BuildingBlock: AJUNOK_clean_linker_0, # of connection points: 2
#     Edge 36, Type (0, 0), BuildingBlock: AJUNOK_clean_linker_0, # of connection points: 2
#     Edge 37, Type (0, 0), BuildingBlock: AJUNOK_clean_linker_0, # of connection points: 2
#     Edge 38, Type (0, 0), BuildingBlock: AJUNOK_clean_linker_0, # of connection points: 2
#     Edge 39, Type (0, 0), BuildingBlock: AJUNOK_clean_linker_0, # of connection points: 2
# Relax obj value: 0.201
# Max RMSD: 0.160
# Mean RMSD: 0.116
data_MOF--net-bcu-g--node1-WUSLED_clean_sbu_0--edge1-AJUNOK_clean_linker_0
_symmetry_space_group_name_H-M    P1
_symmetry_Int_Tables_number       1
_symmetry_cell_setting            triclinic
loop_
_symmetry_equiv_pos_as_xyz
'x, y, z'
_cell_length_a     45.230788
_cell_length_b     45.207279
_cell_length_c     52.956359
_cell_angle_alpha  89.805982
_cell_angle_beta   90.34643
_cell_angle_gamma 90.27911
loop_
_atom_site_label
_atom_site_type_symbol
_atom_site_fract_x
_atom_site_fract_y
_atom_site_fract_z
_atom_type_partial_charge
C0 C 0.58566 0.18727 0.11499 0.0
C1 C 0.5619 0.16846 0.12121 0.0
C2 C 0.55273 0.15879 0.07628 0.0
C3 C 0.54546 0.15438 0.10194 0.0
C4 C 0.57679 0.17739 0.07055 0.0
C5 C 0.59273 0.19162 0.08958 0.0
U6 U 0.62073 0.20142 0.18189 0.0
O7 O 0.64325 0.24152 0.1968 0.0
O8 O 0.66897 0.20185 0.18716 0.0
C9 C 0.66958 0.22951 0.19463 0.0
C10 C 0.60576 0.2007 0.13384 0.0
C11 C 0.69457 0.23909 0.21083 0.0
C12 C 0.74736 0.24921 0.21335 0.0
C13 C 0.72208 0.24266 0.1992 0.0
C14 C 0.71776 0.25128 0.25115 0.0
C15 C 0.74592 0.25281 0.23969 0.0
C16 C 0.69234 0.24419 0.23684 0.0
C17 C 0.58191 0.15451 0.23632 0.0
C18 C 0.59938 0.12679 0.27258 0.0
C19 C 0.55007 0.11785 0.25593 0.0
C20 C 0.55451 0.13998 0.23795 0.0
C21 C 0.573 0.11026 0.27252 0.0
C22 C 0.60388 0.14893 0.25448 0.0
C23 C 0.5887 0.16904 0.21233 0.0
O24 O 0.59509 0.22001 0.14989 0.0
O25 O 0.62519 0.18276 0.14398 0.0
O26 O 0.61141 0.15881 0.19977 0.0
O27 O 0.5843 0.19761 0.20956 0.0
H28 H 0.55639 0.16436 0.1408 0.0
H29 H 0.52724 0.13999 0.10706 0.0
H30 H 0.58403 0.18039 0.05126 0.0
H31 H 0.61137 0.20548 0.08441 0.0
H32 H 0.7683 0.25019 0.20359 0.0
H33 H 0.72424 0.23945 0.17902 0.0
H34 H 0.7153 0.25496 0.2712 0.0
H35 H 0.67125 0.24203 0.24612 0.0
H36 H 0.61731 0.12092 0.28526 0.0
H37 H 0.52978 0.105 0.25543 0.0
H38 H 0.5375 0.14379 0.22381 0.0
H39 H 0.62522 0.15982 0.25336 0.0
C40 C 0.66779 0.53965 0.07339 0.0
C41 C 0.67879 0.5106 0.07375 0.0
C42 C 0.69391 0.51546 0.02962 0.0
C43 C 0.6918 0.49863 0.05202 0.0
C44 C 0.68239 0.54426 0.02938 0.0
C45 C 0.6694 0.5561 0.05095 0.0
U46 U 0.62845 0.54529 0.13883 0.0
O47 O 0.64233 0.57237 0.17158 0.0
O48 O 0.60007 0.58207 0.15151 0.0
C49 C 0.61878 0.58916 0.16964 0.0
C50 C 0.65668 0.55467 0.09621 0.0
C51 C 0.61332 0.61394 0.18707 0.0
C52 C 0.60846 0.66677 0.19465 0.0
C53 C 0.6115 0.64303 0.17791 0.0
C54 C 0.60807 0.63253 0.22989 0.0
C55 C 0.60722 0.66189 0.22092 0.0
C56 C 0.61132 0.60883 0.21313 0.0
C57 C 0.5996 0.46631 0.16323 0.0
C58 C 0.57951 0.44403 0.20131 0.0
C59 C 0.59134 0.41337 0.16534 0.0
C60 C 0.60033 0.43836 0.15205 0.0
C61 C 0.58081 0.41576 0.19012 0.0
C62 C 0.58897 0.46925 0.18794 0.0
C63 C 0.61231 0.49078 0.14857 0.0
O64 O 0.62787 0.55708 0.09836 0.0
O65 O 0.67009 0.54886 0.11773 0.0
O66 O 0.6379 0.50185 0.15578 0.0
O67 O 0.59471 0.50984 0.13731 0.0
H68 H 0.67783 0.49742 0.09085 0.0
H69 H 0.70037 0.47631 0.05276 0.0
H70 H 0.68421 0.55806 0.01271 0.0
H71 H 0.6613 0.57861 0.05031 0.0
H72 H 0.60715 0.68897 0.187 0.0
H73 H 0.61306 0.64746 0.15784 0.0
H74 H 0.60711 0.62791 0.24995 0.0
H75 H 0.61258 0.58651 0.22056 0.0
H76 H 0.57171 0.44652 0.22048 0.0
H77 H 0.59391 0.392 0.15647 0.0
H78 H 0.6089 0.43567 0.13312 0.0
H79 H 0.58852 0.49071 0.19696 0.0
C80 C 0.91562 0.16986 0.20451 0.0
C81 C 0.91141 0.18104 0.22888 0.0
C82 C 0.86238 0.15782 0.23044 0.0
C83 C 0.88505 0.17481 0.24183 0.0
C84 C 0.86756 0.1456 0.20653 0.0
C85 C 0.89388 0.15152 0.19379 0.0
U86 U 0.98819 0.20855 0.17566 0.0
O87 O 0.98337 0.22651 0.1374 0.0
O88 O 0.01412 0.18985 0.14424 0.0
C89 C 1.00285 0.2085 0.12771 0.0
C90 C 0.9399 0.1797 0.18806 0.0
C91 C 0.02226 0.22153 0.10837 0.0
C92 C 0.02889 0.23158 0.06374 0.0
C93 C 0.01391 0.21729 0.08319 0.0
C94 C 0.06204 0.25405 0.09426 0.0
C95 C 0.05331 0.25002 0.06883 0.0
C96 C 0.04649 0.24002 0.11396 0.0
C97 C 0.02435 0.25505 0.23135 0.0
C98 C 0.05442 0.29101 0.25382 0.0
C99 C 1.00422 0.28105 0.26732 0.0
C100 C 1.00112 0.25976 0.2483 0.0
C101 C 0.03038 0.2978 0.26927 0.0
C102 C 0.05146 0.26959 0.23509 0.0
C103 C 0.0195 0.24129 0.20664 0.0
O104 O 0.94015 0.20755 0.18093 0.0
O105 O 0.96635 0.16789 0.19017 0.0
O106 O 0.02433 0.21281 0.20388 0.0
O107 O 0.99718 0.25136 0.1932 0.0
H108 H 0.92786 0.1954 0.23741 0.0
H109 H 0.88184 0.18446 0.26024 0.0
H110 H 0.85087 0.13207 0.19734 0.0
H111 H 0.89667 0.14279 0.17491 0.0
H112 H 0.0205 0.22888 0.0447 0.0
H113 H 0.9949 0.20361 0.07854 0.0
H114 H 0.08065 0.26822 0.09891 0.0
H115 H 0.053 0.24397 0.13338 0.0
H116 H 0.07457 0.30404 0.25478 0.0
H117 H 0.98533 0.28633 0.27892 0.0
H118 H 0.97995 0.24888 0.24555 0.0
H119 H 0.06949 0.26644 0.22198 0.0
C120 C 0.93838 0.89389 0.07722 0.0
C121 C 0.93341 0.92438 0.07479 0.0
C122 C 0.9105 0.91661 0.03319 0.0
C123 C 0.91951 0.93564 0.05296 0.0
C124 C 0.9157 0.88615 0.03593 0.0
C125 C 0.92944 0.875 0.05763 0.0
U126 U 0.97892 0.87757 0.1438 0.0
O127 O 1.00413 0.83615 0.14923 0.0
O128 O 0.96184 0.84245 0.16876 0.0
C129 C 0.9841 0.8247 0.1643 0.0
C130 C 0.95123 0.88014 0.10008 0.0
C131 C 0.9933 0.80348 0.18419 0.0
C132 C 1.0016 0.75174 0.19495 0.0
C133 C 0.99714 0.77397 0.17695 0.0
C134 C 0.99964 0.78826 0.22816 0.0
C135 C 1.00237 0.75835 0.22086 0.0
C136 C 0.99507 0.81066 0.20997 0.0
C137 C 0.00988 0.95277 0.17645 0.0
C138 C 0.0306 0.98139 0.21096 0.0
C139 C 0.01126 0.00645 0.17391 0.0
C140 C 1.00435 0.97898 0.163 0.0
C141 C 0.02357 0.00787 0.19838 0.0
C142 C 0.02355 0.95418 0.20019 0.0
C143 C 1.00036 0.92357 0.16737 0.0
O144 O 0.98006 0.87734 0.10205 0.0
O145 O 0.93779 0.88345 0.12182 0.0
O146 O 0.01576 0.90899 0.15055 0.0
O147 O 0.97293 0.91453 0.17035 0.0
H148 H 0.93987 0.93932 0.08981 0.0
H149 H 0.91526 0.95915 0.05182 0.0
H150 H 0.90928 0.87083 0.02118 0.0
H151 H 0.93287 0.85135 0.05922 0.0
H152 H 1.0039 0.72916 0.18853 0.0
H153 H 0.99563 0.76785 0.15721 0.0
H154 H 0.99972 0.79422 0.24795 0.0
H155 H 0.99196 0.83328 0.21608 0.0
H156 H 0.04084 0.98171 0.22951 0.0
H157 H 1.00578 0.02653 0.16375 0.0
H158 H 0.99394 0.97825 0.14453 0.0
H159 H 0.02811 0.93411 0.21076 0.0
C160 C 0.58252 0.21996 0.39705 0.0
C161 C 0.57229 0.2492 0.39472 0.0
C162 C 0.55218 0.24684 0.43741 0.0
C163 C 0.55715 0.26251 0.41477 0.0
C164 C 0.56042 0.21691 0.43867 0.0
C165 C 0.57561 0.20375 0.41881 0.0
U166 U 0.62035 0.20812 0.33173 0.0
O167 O 0.64068 0.16717 0.31695 0.0
O168 O 0.66845 0.20563 0.3268 0.0
C169 C 0.66762 0.17798 0.31923 0.0
C170 C 0.60373 0.20697 0.37919 0.0
C171 C 0.69106 0.16812 0.30196 0.0
C172 C 0.73577 0.13896 0.29701 0.0
C173 C 0.70985 0.14541 0.31014 0.0
C174 C 0.72348 0.17651 0.2662 0.0
C175 C 0.74405 0.15572 0.2757 0.0
C176 C 0.6974 0.18284 0.27937 0.0
C177 C 0.58254 0.25861 0.27841 0.0
C178 C 0.59911 0.28721 0.24237 0.0
C179 C 0.5511 0.29682 0.26068 0.0
C180 C 0.55567 0.27395 0.27797 0.0
C181 C 0.57332 0.30432 0.24351 0.0
C182 C 0.60375 0.2644 0.25985 0.0
C183 C 0.58986 0.24237 0.30155 0.0
O184 O 0.59351 0.18828 0.36225 0.0
O185 O 0.62412 0.22492 0.37037 0.0
O186 O 0.61298 0.25151 0.31456 0.0
O187 O 0.58443 0.21382 0.30341 0.0
H188 H 0.57722 0.26213 0.378 0.0
H189 H 0.55075 0.2855 0.41307 0.0
H190 H 0.55599 0.20384 0.45541 0.0
H191 H 0.58319 0.18117 0.42095 0.0
H192 H 0.74953 0.12123 0.30404 0.0
H193 H 0.70509 0.13337 0.32739 0.0
H194 H 0.72843 0.18944 0.24955 0.0
H195 H 0.68284 0.20006 0.27265 0.0
H196 H 0.6165 0.29291 0.22921 0.0
H197 H 0.53124 0.31003 0.26194 0.0
H198 H 0.53922 0.26996 0.2924 0.0
H199 H 0.62461 0.25286 0.26014 0.0
C200 C 0.93987 0.52477 0.4382 0.0
C201 C 0.94029 0.49463 0.44458 0.0
C202 C 0.91215 0.50479 0.48295 0.0
C203 C 0.92656 0.48472 0.46686 0.0
C204 C 0.91185 0.53488 0.47633 0.0
C205 C 0.92566 0.54473 0.45428 0.0
U206 U 0.98053 0.54231 0.37154 0.0
O207 O 1.00438 0.58494 0.36773 0.0
O208 O 0.96214 0.57798 0.34787 0.0
C209 C 0.98408 0.59626 0.35276 0.0
C210 C 0.95335 0.53662 0.41491 0.0
C211 C 0.99334 0.61724 0.33271 0.0
C212 C 1.00086 0.66892 0.32113 0.0
C213 C 0.99632 0.64706 0.33944 0.0
C214 C 1.00101 0.63138 0.2887 0.0
C215 C 1.00311 0.66157 0.29543 0.0
C216 C 0.99606 0.60939 0.30717 0.0
C217 C 0.01159 0.46818 0.33932 0.0
C218 C 0.037 0.43679 0.30946 0.0
C219 C 1.00506 0.41476 0.34097 0.0
C220 C 0.99911 0.443 0.35072 0.0
C221 C 0.02325 0.41155 0.31963 0.0
C222 C 0.031 0.46475 0.31907 0.0
C223 C 1.00338 0.49862 0.34594 0.0
O224 O 0.98215 0.5401 0.41328 0.0
O225 O 0.93966 0.53379 0.39308 0.0
O226 O 0.01835 0.51304 0.36338 0.0
O227 O 0.97561 0.50673 0.34355 0.0
H228 H 0.95101 0.47885 0.43237 0.0
H229 H 0.92681 0.46133 0.47132 0.0
H230 H 0.90111 0.55086 0.48835 0.0
H231 H 0.92512 0.5681 0.44968 0.0
H232 H 1.00128 0.69177 0.32713 0.0
H233 H 0.99385 0.6537 0.35896 0.0
H234 H 1.00267 0.62484 0.26911 0.0
H235 H 0.99364 0.58652 0.30144 0.0
H236 H 0.05181 0.43505 0.29354 0.0
H237 H 0.99435 0.39564 0.34932 0.0
H238 H 0.98414 0.44522 0.36647 0.0
H239 H 0.04087 0.48393 0.31005 0.0
C240 C 0.91496 0.24259 0.31569 0.0
C241 C 0.9125 0.23671 0.28974 0.0
C242 C 0.86152 0.25443 0.28995 0.0
C243 C 0.88598 0.24311 0.27683 0.0
C244 C 0.86495 0.26197 0.31546 0.0
C245 C 0.8914 0.25616 0.32814 0.0
U246 U 0.98851 0.20497 0.34456 0.0
O247 O 0.98339 0.18529 0.38209 0.0
O248 O 0.01295 0.2235 0.37729 0.0
C249 C 1.00244 0.20331 0.39282 0.0
C250 C 0.93974 0.23224 0.33148 0.0
C251 C 0.02296 0.18936 0.41096 0.0
C252 C 0.03824 0.18454 0.45484 0.0
C253 C 0.02321 0.19988 0.43581 0.0
C254 C 0.05387 0.1481 0.42432 0.0
C255 C 0.05324 0.15824 0.4494 0.0
C256 C 0.03889 0.16364 0.40515 0.0
C257 C 0.0262 0.16252 0.28829 0.0
C258 C 0.05597 0.1279 0.26463 0.0
C259 C 1.00527 0.13733 0.25198 0.0
C260 C 1.00258 0.15803 0.27141 0.0
C261 C 0.03148 0.12107 0.24941 0.0
C262 C 0.05335 0.14866 0.2839 0.0
C263 C 0.02155 0.1748 0.31351 0.0
O264 O 0.94058 0.20412 0.33773 0.0
O265 O 0.96581 0.24524 0.33047 0.0
O266 O 0.02528 0.20335 0.31713 0.0
O267 O 0.99956 0.16324 0.32636 0.0
H268 H 0.9305 0.22629 0.27979 0.0
H269 H 0.88399 0.23774 0.25699 0.0
H270 H 0.8467 0.27128 0.32588 0.0
H271 H 0.89292 0.26097 0.34815 0.0
H272 H 0.03718 0.19264 0.47404 0.0
H273 H 0.01069 0.21938 0.44073 0.0
H274 H 0.06547 0.12794 0.4197 0.0
H275 H 0.03881 0.15503 0.38608 0.0
H276 H 0.07613 0.11517 0.26323 0.0
H277 H 0.98604 0.13198 0.24054 0.0
H278 H 0.98139 0.16839 0.27464 0.0
H279 H 0.07167 0.15165 0.29696 0.0
C280 C 0.67002 0.88225 0.44426 0.0
C281 C 0.66155 0.91107 0.45075 0.0
C282 C 0.69529 0.91001 0.48715 0.0
C283 C 0.67394 0.92476 0.47218 0.0
C284 C 0.70344 0.88118 0.48032 0.0
C285 C 0.69088 0.86751 0.45925 0.0
U286 U 0.62852 0.87016 0.37949 0.0
O287 O 0.64337 0.83914 0.35039 0.0
O288 O 0.60112 0.83084 0.37005 0.0
C289 C 0.62081 0.82119 0.35391 0.0
C290 C 0.65767 0.86612 0.42247 0.0
C291 C 0.61243 0.80038 0.33369 0.0
C292 C 0.60738 0.74892 0.32094 0.0
C293 C 0.61098 0.7702 0.33981 0.0
C294 C 0.60524 0.78781 0.28945 0.0
C295 C 0.60511 0.75738 0.29546 0.0
C296 C 0.6091 0.80918 0.30841 0.0
C297 C 0.59769 0.9472 0.35124 0.0
C298 C 0.57949 0.97055 0.31292 0.0
C299 C 0.58786 0.99984 0.35058 0.0
C300 C 0.59669 0.97453 0.36352 0.0
C301 C 0.57934 0.99826 0.32509 0.0
C302 C 0.58877 0.94511 0.32592 0.0
C303 C 0.61045 0.92236 0.36528 0.0
O304 O 0.62877 0.8637 0.42075 0.0
O305 O 0.67059 0.87036 0.40061 0.0
O306 O 0.63609 0.91151 0.35842 0.0
O307 O 0.59354 0.90417 0.37825 0.0
H308 H 0.64532 0.92279 0.43947 0.0
H309 H 0.66643 0.94666 0.47718 0.0
H310 H 0.71991 0.86916 0.49111 0.0
H311 H 0.69759 0.84522 0.45458 0.0
H312 H 0.60761 0.72576 0.32623 0.0
H313 H 0.61385 0.76295 0.35919 0.0
H314 H 0.60295 0.79507 0.27003 0.0
H315 H 0.61023 0.83237 0.30329 0.0
H316 H 0.57315 0.96872 0.29323 0.0
H317 H 0.58911 0.02086 0.36028 0.0
H318 H 0.6039 0.97652 0.38301 0.0
H319 H 0.58962 0.92414 0.31612 0.0
C320 C 0.38814 0.01885 0.84243 0.0
C321 C 0.39697 0.01616 0.81711 0.0
C322 C 0.34556 0.00737 0.80385 0.0
C323 C 0.37587 0.01042 0.79801 0.0
C324 C 0.33718 0.00972 0.82932 0.0
C325 C 0.35818 0.0151 0.84827 0.0
U326 U 0.46448 0.02764 0.87748 0.0
O327 O 0.48026 0.06662 0.89901 0.0
O328 O 0.47332 0.02354 0.91854 0.0
C329 C 0.48169 0.05136 0.92015 0.0
C330 C 0.40857 0.02797 0.86308 0.0
C331 C 0.48888 0.06543 0.9446 0.0
C332 C 0.47476 0.09291 0.98216 0.0
C333 C 0.46699 0.07853 0.95955 0.0
C334 C 0.52615 0.08069 0.97532 0.0
C335 C 0.50444 0.09416 0.99014 0.0
C336 C 0.51843 0.06648 0.95275 0.0
C337 C 0.53419 0.99579 0.84222 0.0
C338 C 0.58695 0.00641 0.8439 0.0
C339 C 0.56793 0.96941 0.815 0.0
C340 C 0.53943 0.97433 0.82381 0.0
C341 C 0.59185 0.98622 0.82418 0.0
C342 C 0.5582 0.01129 0.85284 0.0
C343 C 0.50315 1.00318 0.84732 0.0
O344 O 0.42011 0.00694 0.87717 0.0
O345 O 0.42725 0.04957 0.85821 0.0
O346 O 0.49572 0.03122 0.84601 0.0
O347 O 0.48941 0.9884 0.86519 0.0
H348 H 0.41998 0.01904 0.81204 0.0
H349 H 0.38323 0.00872 0.77865 0.0
H350 H 0.31415 0.00859 0.83465 0.0
H351 H 0.35078 0.01737 0.86759 0.0
H352 H 0.45772 0.10338 0.99324 0.0
H353 H 0.44405 0.07801 0.95357 0.0
H354 H 0.54919 0.08171 0.98097 0.0
H355 H 0.53564 0.05664 0.94144 0.0
H356 H 0.60506 0.01951 0.85144 0.0
H357 H 0.57109 0.95315 0.8003 0.0
H358 H 0.52119 0.96213 0.81542 0.0
H359 H 0.5546 0.0279 0.86718 0.0
C360 C 0.83371 0.3203 0.8123 0.0
C361 C 0.83587 0.32275 0.78595 0.0
C362 C 0.84471 0.26924 0.78277 0.0
C363 C 0.84196 0.29753 0.77135 0.0
C364 C 0.84258 0.26756 0.80926 0.0
C365 C 0.83769 0.29268 0.8237 0.0
U366 U 0.79506 0.3928 0.83674 0.0
O367 O 0.77681 0.3921 0.8749 0.0
O368 O 0.81074 0.42527 0.86521 0.0
C369 C 0.79346 0.41405 0.88277 0.0
C370 C 0.82671 0.34509 0.8292 0.0
C371 C 0.78048 0.43316 0.90221 0.0
C372 C 0.76756 0.43759 0.94645 0.0
C373 C 0.7808 0.42212 0.92691 0.0
C374 C 0.75416 0.47654 0.91713 0.0
C375 C 0.75384 0.46496 0.94199 0.0
C376 C 0.76714 0.46058 0.89727 0.0
C377 C 0.74188 0.4244 0.78115 0.0
C378 C 0.69425 0.44442 0.76921 0.0
C379 C 0.72497 0.42072 0.73785 0.0
C380 C 0.74686 0.41612 0.7561 0.0
C381 C 0.69809 0.43392 0.74451 0.0
C382 C 0.716 0.43946 0.78751 0.0
C383 C 0.76109 0.41297 0.80107 0.0
O384 O 0.83661 0.37187 0.82408 0.0
O385 O 0.79993 0.34472 0.8385 0.0
O386 O 0.75194 0.39275 0.81713 0.0
O387 O 0.78831 0.42272 0.80422 0.0
H388 H 0.83293 0.34397 0.77671 0.0
H389 H 0.84462 0.30057 0.75126 0.0
H390 H 0.84385 0.24664 0.81916 0.0
H391 H 0.83623 0.29032 0.84404 0.0
H392 H 0.76752 0.42757 0.96505 0.0
H393 H 0.79091 0.40095 0.93109 0.0
H394 H 0.74456 0.4979 0.91297 0.0
H395 H 0.76664 0.46951 0.87827 0.0
H396 H 0.67356 0.45435 0.77482 0.0
H397 H 0.7283 0.41244 0.71891 0.0
H398 H 0.76668 0.4042 0.75105 0.0
H399 H 0.7119 0.44581 0.80689 0.0
C400 C 0.12508 0.34456 0.94069 0.0
C401 C 0.09437 0.3406 0.94287 0.0
C402 C 0.10155 0.31638 0.98373 0.0
C403 C 0.08268 0.32648 0.96433 0.0
C404 C 0.13206 0.32095 0.98163 0.0
C405 C 0.14368 0.3349 0.96031 0.0
U406 U 0.13851 0.38474 0.87443 0.0
O407 O 0.18015 0.40876 0.86605 0.0
O408 O 0.16985 0.36655 0.84706 0.0
C409 C 0.18916 0.38796 0.85065 0.0
C410 C 0.13934 0.35637 0.91782 0.0
C411 C 0.20997 0.39517 0.8302 0.0
C412 C 0.26129 0.39578 0.8167 0.0
C413 C 0.24025 0.39362 0.83581 0.0
C414 C 0.22213 0.40298 0.78598 0.0
C415 C 0.2526 0.3998 0.7914 0.0
C416 C 0.20094 0.4003 0.80519 0.0
C417 C 0.06332 0.41967 0.84446 0.0
C418 C 0.03624 0.4344 0.80678 0.0
C419 C 0.0116 0.43315 0.8473 0.0
C420 C 0.03793 0.42431 0.85892 0.0
C421 C 0.01041 0.43787 0.82109 0.0
C422 C 0.06252 0.42516 0.81839 0.0
C423 C 0.08968 0.40698 0.85651 0.0
O424 O 0.1335 0.34345 0.89616 0.0
O425 O 0.14361 0.38505 0.91594 0.0
O426 O 0.10742 0.4224 0.87125 0.0
O427 O 0.09847 0.38011 0.85094 0.0
H428 H 0.07965 0.34777 0.92787 0.0
H429 H 0.05903 0.32297 0.96563 0.0
H430 H 0.14699 0.31301 0.9962 0.0
H431 H 0.16744 0.33747 0.95882 0.0
H432 H 0.28438 0.39304 0.82169 0.0
H433 H 0.24765 0.38945 0.85499 0.0
H434 H 0.21459 0.40704 0.76685 0.0
H435 H 0.17765 0.40156 0.80045 0.0
H436 H 0.03574 0.43744 0.78648 0.0
H437 H 0.99193 0.43554 0.85868 0.0
H438 H 0.03818 0.42 0.87906 0.0
H439 H 0.08194 0.42154 0.80696 0.0
C440 C 0.82138 0.99117 0.9029 0.0
C441 C 0.83955 0.96663 0.8984 0.0
C442 C 0.84872 0.9615 0.94375 0.0
C443 C 0.85309 0.95177 0.91882 0.0
C444 C 0.82988 0.98542 0.94806 0.0
C445 C 0.81631 1.0 0.92786 0.0
U446 U 0.80099 0.03167 0.83708 0.0
O447 O 0.75758 0.05254 0.82939 0.0
O448 O 0.79628 0.07984 0.83869 0.0
C449 C 0.76825 0.07946 0.83222 0.0
C450 C 0.809 0.01002 0.88267 0.0
C451 C 0.75908 0.10264 0.81406 0.0
C452 C 0.73197 0.14847 0.80744 0.0
C453 C 0.73738 0.12277 0.82152 0.0
C454 C 0.76832 0.13326 0.777 0.0
C455 C 0.74851 0.15491 0.78566 0.0
C456 C 0.77391 0.10754 0.79121 0.0
C457 C 0.84718 0.99485 0.78109 0.0
C458 C 0.873 0.99295 0.74121 0.0
C459 C 0.89094 0.96439 0.77693 0.0
C460 C 0.86733 0.97464 0.79157 0.0
C461 C 0.89454 0.97466 0.75204 0.0
C462 C 0.84942 1.00281 0.7556 0.0
C463 C 0.82706 0.01251 0.79642 0.0
O464 O 0.82606 0.03053 0.87278 0.0
O465 O 0.78863 0.9997 0.86713 0.0
O466 O 0.8388 0.03249 0.81144 0.0
O467 O 0.80189 1.00125 0.80436 0.0
H468 H 0.84386 0.95955 0.87926 0.0
H469 H 0.86773 0.93342 0.91513 0.0
H470 H 0.82635 0.99339 0.96708 0.0
H471 H 0.80249 0.01896 0.93173 0.0
H472 H 0.71521 0.16355 0.81401 0.0
H473 H 0.72541 0.11926 0.83895 0.0
H474 H 0.78038 0.13689 0.75976 0.0
H475 H 0.79059 0.09216 0.78494 0.0
H476 H 0.87565 1.00142 0.72218 0.0
H477 H 0.90761 0.95047 0.78561 0.0
H478 H 0.86596 0.96841 0.81129 0.0
H479 H 0.83419 0.01863 0.74734 0.0
C480 C 0.38714 0.38282 0.67596 0.0
C481 C 0.39494 0.37986 0.70161 0.0
C482 C 0.34462 0.39288 0.714 0.0
C483 C 0.37383 0.385 0.72051 0.0
C484 C 0.33768 0.39751 0.68839 0.0
C485 C 0.35861 0.39239 0.66967 0.0
U486 U 0.46017 0.37146 0.63662 0.0
O487 O 0.47023 0.33144 0.61461 0.0
O488 O 0.46243 0.37391 0.59496 0.0
C489 C 0.467 0.34532 0.59292 0.0
C490 C 0.40633 0.37299 0.65509 0.0
C491 C 0.4811 0.33341 0.57012 0.0
C492 C 0.47461 0.30748 0.53024 0.0
C493 C 0.4627 0.32059 0.55173 0.0
C494 C 0.52377 0.32072 0.54473 0.0
C495 C 0.50534 0.30699 0.52653 0.0
C496 C 0.51176 0.33361 0.56648 0.0
C497 C 0.53276 0.40533 0.66941 0.0
C498 C 0.5861 0.40117 0.66642 0.0
C499 C 0.5644 0.43182 0.69883 0.0
C500 C 0.53633 0.42467 0.6898 0.0
C501 C 0.58962 0.42004 0.68738 0.0
C502 C 0.55776 0.39377 0.65748 0.0
C503 C 0.50247 0.39615 0.6632 0.0
O504 O 0.41687 0.39338 0.63983 0.0
O505 O 0.42498 0.35139 0.65963 0.0
O506 O 0.49549 0.36796 0.66515 0.0
O507 O 0.48769 0.41056 0.64564 0.0
H508 H 0.41688 0.37259 0.707 0.0
H509 H 0.37996 0.38152 0.74009 0.0
H510 H 0.31572 0.40443 0.68274 0.0
H511 H 0.35209 0.39486 0.65005 0.0
H512 H 0.45973 0.29712 0.5168 0.0
H513 H 0.43893 0.32025 0.55421 0.0
H514 H 0.54749 0.32158 0.54217 0.0
H515 H 0.52633 0.34356 0.5804 0.0
H516 H 0.60523 0.39169 0.65735 0.0
H517 H 0.56625 0.44557 0.71548 0.0
H518 H 0.51721 0.43343 0.69944 0.0
H519 H 0.55536 0.37859 0.64181 0.0
C520 C 0.82284 0.43292 0.61377 0.0
C521 C 0.84823 0.45013 0.6183 0.0
C522 C 0.85094 0.46275 0.57337 0.0
C523 C 0.86212 0.46504 0.59822 0.0
C524 C 0.82476 0.44663 0.56929 0.0
C525 C 0.81094 0.43186 0.58925 0.0
U526 U 0.80429 0.3905 0.6785 0.0
O527 O 0.76092 0.37008 0.68713 0.0
O528 O 0.79873 0.34229 0.67737 0.0
C529 C 0.77095 0.34305 0.68427 0.0
C530 C 0.81012 0.41267 0.6328 0.0
C531 C 0.76177 0.32017 0.70265 0.0
C532 C 0.73641 0.27321 0.70925 0.0
C533 C 0.74242 0.29797 0.69424 0.0
C534 C 0.76781 0.29317 0.74223 0.0
C535 C 0.7497 0.26987 0.73316 0.0
C536 C 0.774 0.31801 0.72703 0.0
C537 C 0.85341 0.42812 0.73285 0.0
C538 C 0.87337 0.43736 0.77468 0.0
C539 C 0.90301 0.44805 0.73777 0.0
C540 C 0.87949 0.43924 0.72213 0.0
C541 C 0.90064 0.4458 0.76425 0.0
C542 C 0.85006 0.42849 0.7591 0.0
C543 C 0.83236 0.41001 0.71843 0.0
O544 O 0.8274 0.39205 0.64217 0.0
O545 O 0.79038 0.42244 0.64887 0.0
O546 O 0.84319 0.38993 0.7032 0.0
O547 O 0.80673 0.42092 0.71124 0.0
H548 H 0.85782 0.45119 0.63707 0.0
H549 H 0.88205 0.47771 0.60196 0.0
H550 H 0.81572 0.44427 0.5504 0.0
H551 H 0.79155 0.41843 0.58529 0.0
H552 H 0.72197 0.25618 0.70173 0.0
H553 H 0.7328 0.2992 0.67548 0.0
H554 H 0.77892 0.29137 0.7603 0.0
H555 H 0.78924 0.33477 0.73386 0.0
H556 H 0.87068 0.43564 0.79496 0.0
H557 H 0.92377 0.45409 0.72906 0.0
H558 H 0.8825 0.43894 0.70186 0.0
H559 H 0.8302 0.4196 0.76766 0.0
C560 C 0.12339 0.06307 0.57869 0.0
C561 C 0.09269 0.06382 0.57446 0.0
C562 C 0.10039 0.09215 0.53549 0.0
C563 C 0.08127 0.07819 0.55287 0.0
C564 C 0.13102 0.09032 0.53962 0.0
C565 C 0.14229 0.07612 0.56097 0.0
U566 U 0.1347 0.02163 0.64472 0.0
O567 O 0.17501 0.99564 0.6537 0.0
O568 O 0.16647 0.0379 0.6731 0.0
C569 C 0.18474 0.01579 0.6696 0.0
C570 C 0.13729 0.05036 0.60152 0.0
C571 C 0.20635 0.00827 0.68967 0.0
C572 C 0.25822 1.00167 0.70098 0.0
C573 C 0.23596 1.00447 0.68268 0.0
C574 C 0.22152 1.00535 0.73386 0.0
C575 C 0.25145 1.00248 0.72684 0.0
C576 C 0.19917 0.00832 0.71543 0.0
C577 C 0.05765 0.98976 0.6733 0.0
C578 C 0.03279 0.97049 0.71043 0.0
C579 C 1.00423 0.98427 0.67337 0.0
C580 C 0.03026 0.99206 0.66093 0.0
C581 C 1.0053 0.97396 0.69833 0.0
C582 C 0.05894 0.97835 0.69794 0.0
C583 C 0.08385 1.00203 0.66077 0.0
O584 O 0.1325 0.06336 0.62324 0.0
O585 O 0.13984 0.02148 0.60327 0.0
O586 O 0.10158 0.98551 0.64726 0.0
O587 O 0.09417 0.02832 0.66685 0.0
H588 H 0.07769 0.0538 0.5879 0.0
H589 H 0.05755 0.07909 0.55011 0.0
H590 H 0.1464 0.10004 0.52633 0.0
H591 H 0.16603 0.07566 0.56385 0.0
H592 H 0.28089 0.99933 0.69485 0.0
H593 H 0.24208 1.00472 0.66293 0.0
H594 H 0.21549 0.00653 0.75358 0.0
H595 H 0.17652 0.01158 0.72129 0.0
H596 H 0.03387 0.96302 0.72988 0.0
H597 H 0.98317 0.98771 0.66397 0.0
H598 H 0.02891 1.00112 0.64198 0.0
H599 H 0.07991 0.9766 0.7078 0.0
C600 C 0.83549 0.09974 0.70905 0.0
C601 C 0.82982 0.10272 0.7349 0.0
C602 C 0.8483 0.15356 0.73346 0.0
C603 C 0.83689 0.12938 0.7472 0.0
C604 C 0.85602 0.14944 0.70812 0.0
C605 C 0.84968 0.12278 0.69607 0.0
U606 U 0.79598 0.02643 0.68161 0.0
O607 O 0.77876 0.03041 0.64305 0.0
O608 O 0.81579 1.0004 0.65078 0.0
C609 C 0.79722 0.01099 0.63387 0.0
C610 C 0.82471 0.0747 0.69394 0.0
C611 C 0.78473 0.99062 0.61498 0.0
C612 C 0.78222 0.97744 0.57066 0.0
C613 C 0.79622 0.99211 0.59054 0.0
C614 C 0.74554 0.95814 0.59958 0.0
C615 C 0.7561 0.96121 0.57472 0.0
C616 C 0.75968 0.97294 0.61963 0.0
C617 C 0.74889 0.99094 0.737 0.0
C618 C 0.71445 0.9598 0.75999 0.0
C619 C 0.72107 0.01115 0.77192 0.0
C620 C 0.74245 0.01464 0.75309 0.0
C621 C 0.70595 0.98409 0.77454 0.0
C622 C 0.73596 0.96318 0.74145 0.0
C623 C 0.76284 0.99545 0.71236 0.0
O624 O 0.83635 0.04825 0.69662 0.0
O625 O 0.79692 0.07463 0.6866 0.0
O626 O 0.79132 0.99054 0.70991 0.0
O627 O 0.75292 0.0176 0.69863 0.0
H628 H 0.81911 0.08499 0.74524 0.0
H629 H 0.83178 0.13175 0.76703 0.0
H630 H 0.8659 0.16727 0.69732 0.0
H631 H 0.85461 0.12068 0.67616 0.0
H632 H 0.79147 0.97947 0.55192 0.0
H633 H 0.81546 1.00571 0.5866 0.0
H634 H 0.72563 0.9455 0.6033 0.0
H635 H 0.75044 0.97158 0.63843 0.0
H636 H 0.7027 0.93892 0.76149 0.0
H637 H 0.71445 0.03021 0.78283 0.0
H638 H 0.75208 0.03629 0.7498 0.0
H639 H 0.74045 0.94476 0.72901 0.0
C640 C 0.5871 0.05767 0.27511 0.0
C641 C 0.57197 0.08162 0.28563 0.0
C642 C 0.58804 0.0303 0.28741 0.0
C643 C 0.57388 0.02598 0.31072 0.0
H644 H 0.5988 0.06034 0.25744 0.0
H645 H 0.60105 0.01284 0.27911 0.0
S646 S 0.52859 0.08141 0.34456 0.0
N647 N 0.54069 0.09922 0.31933 0.0
N648 N 0.54207 0.04757 0.34272 0.0
C649 C 0.55747 0.04959 0.32082 0.0
C650 C 0.55655 0.07748 0.30818 0.0
C651 C 0.58639 0.38502 0.22919 0.0
C652 C 0.57442 0.38835 0.20475 0.0
C653 C 0.5852 0.35776 0.24176 0.0
C654 C 0.57207 0.33295 0.23035 0.0
H655 H 0.59803 0.40315 0.2382 0.0
H656 H 0.59536 0.35581 0.26028 0.0
S657 S 0.53423 0.33045 0.16835 0.0
N658 N 0.5462 0.36492 0.17084 0.0
N659 N 0.54472 0.31351 0.19457 0.0
C660 C 0.5587 0.33611 0.20665 0.0
C661 C 0.5597 0.36389 0.19382 0.0
C662 C 0.03373 0.3288 0.30852 0.0
C663 C 0.03 0.32656 0.28227 0.0
C664 C 0.03192 0.35642 0.32059 0.0
C665 C 0.02619 0.38249 0.30673 0.0
H666 H 0.03792 0.30914 0.31971 0.0
H667 H 0.03501 0.35739 0.34087 0.0
S668 S 0.01389 0.38742 0.23738 0.0
N669 N 0.02036 0.35206 0.24276 0.0
N670 N 0.01595 0.40365 0.26521 0.0
C671 C 0.02248 0.38021 0.28037 0.0
C672 C 0.02463 0.3523 0.2682 0.0
C673 C 0.04191 0.0888 0.21198 0.0
C674 C 0.03055 0.09238 0.23637 0.0
C675 C 0.03991 0.06127 0.19973 0.0
C676 C 0.02676 0.03662 0.21169 0.0
H677 H 0.05204 0.10736 0.20229 0.0
H678 H 0.0487 0.05924 0.18084 0.0
S679 S 0.99464 0.03525 0.2761 0.0
N680 N 0.00681 0.06945 0.27242 0.0
N681 N 1.00238 0.01806 0.24951 0.0
C682 C 0.01585 0.04015 0.23634 0.0
C683 C 0.01794 0.06797 0.24866 0.0
C684 C 0.67514 0.98138 0.81381 0.0
C685 C 0.67718 0.98321 0.78742 0.0
C686 C 0.64742 0.98195 0.82573 0.0
C687 C 0.62106 0.98449 0.81155 0.0
H688 H 0.69501 0.97964 0.82523 0.0
H689 H 0.64659 0.98043 0.84613 0.0
S690 S 0.61541 0.99121 0.74174 0.0
N691 N 0.65115 0.98792 0.74746 0.0
N692 N 0.59929 0.98991 0.7696 0.0
C693 C 0.62313 0.98636 0.78506 0.0
C694 C 0.65116 0.9855 0.77306 0.0
C695 C 0.63748 0.40084 0.70416 0.0
C696 C 0.61909 0.42514 0.69904 0.0
C697 C 0.66372 0.40427 0.71795 0.0
C698 C 0.67247 0.43209 0.72721 0.0
H699 H 0.63093 0.37876 0.69845 0.0
H700 H 0.67659 0.38474 0.72236 0.0
S701 S 0.63377 0.50316 0.71709 0.0
N702 N 0.61266 0.4784 0.70272 0.0
N703 N 0.66193 0.48461 0.72913 0.0
C704 C 0.6549 0.45674 0.72159 0.0
C705 C 0.62824 0.45332 0.70737 0.0
C706 C 0.95839 0.42271 0.81249 0.0
C707 C 0.9816 0.44285 0.80836 0.0
C708 C 0.93194 0.42468 0.79882 0.0
C709 C 0.92746 0.44708 0.78064 0.0
H710 H 0.96116 0.40447 0.8256 0.0
H711 H 0.91541 0.40762 0.8018 0.0
S712 S 0.98 0.50776 0.76548 0.0
N713 N 0.99774 0.48736 0.78656 0.0
N714 N 0.94749 0.49166 0.76123 0.0
C715 C 0.94997 0.4683 0.7773 0.0
C716 C 0.97715 0.46605 0.79107 0.0
C717 C 0.94159 0.9976 0.73877 0.0
C718 C 0.92333 0.97238 0.73938 0.0
C719 C 0.96839 0.99747 0.72581 0.0
C720 C 0.97776 0.97217 0.71293 0.0
H721 H 0.93487 0.01771 0.74818 0.0
H722 H 0.9817 0.01746 0.7255 0.0
S723 S 0.93769 0.90074 0.70827 0.0
N724 N 0.91615 0.92155 0.72593 0.0
N725 N 0.96677 0.92139 0.70114 0.0
C726 C 0.95978 0.94676 0.71333 0.0
C727 C 0.93245 0.94683 0.72673 0.0
C728 C 0.51889 0.09698 0.03604 0.0
C729 C 0.51336 0.11126 0.01286 0.0
C730 C 0.5302 0.11271 0.05695 0.0
C731 C 0.53662 0.14324 0.05532 0.0
H732 H 0.51517 0.07338 0.03781 0.0
H733 H 0.53514 0.1006 0.07413 0.0
S734 S 0.52357 0.19097 0.99909 0.0
N735 N 0.51363 0.15755 0.98973 0.0
N736 N 0.53401 0.18734 0.02887 0.0
C737 C 0.52986 0.15783 0.03241 0.0
C738 C 0.51851 0.14179 0.01123 0.0
C739 C 0.75161 0.47907 0.98796 0.0
C740 C 0.73896 0.48028 0.96352 0.0
C741 C 0.73686 0.49018 0.00912 0.0
C742 C 0.70898 0.50356 1.00682 0.0
H743 H 0.77315 0.46924 0.99089 0.0
H744 H 0.74754 0.48853 0.02743 0.0
S745 S 0.66603 0.51303 0.94742 0.0
N746 N 0.69651 0.49613 0.93856 0.0
N747 N 0.66934 0.51783 0.97819 0.0
C748 C 0.69633 0.5057 0.98252 0.0
C749 C 0.71118 0.494 0.96095 0.0
C750 C 0.07576 0.29625 0.04988 0.0
C751 C 0.06812 0.26608 0.04757 0.0
C752 C 0.08667 0.31249 0.02918 0.0
C753 C 0.08992 0.29925 1.0054 0.0
H754 H 0.0725 0.30769 0.06757 0.0
H755 H 0.09214 0.33566 0.03166 0.0
S756 S 0.077 0.22048 0.98982 0.0
N757 N 0.06804 0.22309 0.0199 0.0
N758 N 0.08714 0.25408 0.98102 0.0
C759 C 0.08344 0.26907 1.00297 0.0
C760 C 0.07288 0.25238 0.02403 0.0
C761 C 0.85603 0.92324 0.97778 0.0
C762 C 0.86566 0.94897 0.96532 0.0
C763 C 0.87063 0.91293 0.99964 0.0
C764 C 0.89538 0.92802 0.00987 0.0
H765 H 0.83677 0.91137 0.97088 0.0
H766 H 0.86208 0.89329 0.00887 0.0
S767 S 0.92991 0.99572 0.98297 0.0
N768 N 0.90153 0.98889 0.96408 0.0
N769 N 0.92952 0.9693 1.00459 0.0
C770 C 0.90539 0.95352 0.99712 0.0
C771 C 0.89041 0.96402 0.97502 0.0
C772 C 0.50451 0.29516 0.47991 0.0
C773 C 0.51779 0.29172 0.50394 0.0
C774 C 0.51561 0.28068 0.45851 0.0
C775 C 0.54037 0.26202 0.46024 0.0
H776 H 0.48549 0.30939 0.47755 0.0
H777 H 0.50457 0.28393 0.44051 0.0
S778 S 0.58308 0.24514 0.51863 0.0
N779 N 0.55656 0.26736 0.52811 0.0
N780 N 0.57819 0.24142 0.48791 0.0
C781 C 0.55386 0.25844 0.48411 0.0
C782 C 0.54244 0.27297 0.50589 0.0
C783 C 0.85291 0.49257 0.53309 0.0
C784 C 0.86743 0.47502 0.55132 0.0
C785 C 0.8676 0.50244 0.51124 0.0
C786 C 0.89718 0.4946 0.50651 0.0
H787 H 0.82999 0.49862 0.53568 0.0
H788 H 0.85553 0.5158 0.4977 0.0
S789 S 0.9451 0.44939 0.54838 0.0
N790 N 0.91312 0.45052 0.56321 0.0
N791 N 0.94059 0.46894 0.52225 0.0
C792 C 0.91194 0.47729 0.52467 0.0
C793 C 0.89713 0.46758 0.54703 0.0
C794 C 0.06719 0.09671 0.49723 0.0
C795 C 0.0888 0.10912 0.51333 0.0
C796 C 0.05654 0.11228 0.47601 0.0
C797 C 0.06682 0.14096 0.47033 0.0
H798 H 0.05861 0.07472 0.50095 0.0
H799 H 0.03964 0.10211 0.46429 0.0
S800 S 0.12312 0.18352 0.50624 0.0
N801 N 0.11999 0.15203 0.5219 0.0
N802 N 0.09989 0.18102 0.48216 0.0
C803 C 0.08842 0.15356 0.48614 0.0
C804 C 0.09944 0.13772 0.50757 0.0
C805 C 0.71472 0.9073 0.53185 0.0
C806 C 0.7094 0.92414 0.50978 0.0
C807 C 0.72942 0.91941 0.55289 0.0
C808 C 0.73939 0.9489 0.55277 0.0
H809 H 0.70752 0.88445 0.53293 0.0
H810 H 0.73348 0.90541 0.56918 0.0
S811 S 0.73017 1.00299 0.50044 0.0
N812 N 0.71538 0.97213 0.48946 0.0
N813 N 0.74152 0.99519 0.52936 0.0
C814 C 0.7336 0.96621 0.53116 0.0
C815 C 0.71894 0.95382 0.50964 0.0
C816 C 0.82655 0.27145 0.2557 0.0
C817 C 0.83163 0.25553 0.2781 0.0
C818 C 0.79838 0.2719 0.2443 0.0
C819 C 0.77419 0.25606 0.25458 0.0
H820 H 0.84446 0.28362 0.24693 0.0
H821 H 0.79569 0.2845 0.22702 0.0
S822 S 0.77619 0.2123 0.31417 0.0
N823 N 0.81035 0.22449 0.31078 0.0
N824 N 0.75762 0.22545 0.28974 0.0
C825 C 0.77901 0.24096 0.27758 0.0
C826 C 0.80766 0.24053 0.28913 0.0
C827 C 0.58595 0.70924 0.27762 0.0
C828 C 0.60448 0.73426 0.27536 0.0
C829 C 0.58659 0.68626 0.2598 0.0
C830 C 0.60588 0.68723 0.239 0.0
H831 H 0.57087 0.70736 0.29337 0.0
H832 H 0.57186 0.66754 0.26237 0.0
S833 S 0.6605 0.74677 0.22553 0.0
N834 N 0.64356 0.75792 0.25129 0.0
N835 N 0.64496 0.71486 0.21798 0.0
C836 C 0.62457 0.7121 0.2366 0.0
C837 C 0.62383 0.73552 0.25469 0.0
C838 C 0.80684 0.15884 0.22757 0.0
C839 C 0.83256 0.15477 0.24229 0.0
C840 C 0.77855 0.15796 0.23831 0.0
C841 C 0.77448 0.15328 0.26441 0.0
H842 H 0.80854 0.1635 0.20756 0.0
H843 H 0.75973 0.16127 0.22592 0.0
S844 S 0.83499 0.13935 0.31106 0.0
N845 N 0.85221 0.1436 0.28392 0.0
N846 N 0.79952 0.1435 0.30459 0.0
C847 C 0.80019 0.14836 0.27926 0.0
C848 C 0.829 0.14889 0.26815 0.0
C849 C 0.98698 0.70777 0.23636 0.0
C850 C 1.00411 0.73363 0.23984 0.0
C851 C 0.98755 0.68435 0.2539 0.0
C852 C 1.00525 0.6856 0.27584 0.0
H853 H 0.97235 0.70582 0.22018 0.0
H854 H 0.9732 0.66549 0.25058 0.0
S855 S 0.05686 0.74681 0.2926 0.0
N856 N 0.04104 0.758 0.26609 0.0
N857 N 0.04228 0.71409 0.29894 0.0
C858 C 0.02322 0.71095 0.27918 0.0
C859 C 0.02258 0.73487 0.2613 0.0
C860 C 0.30124 0.01974 0.74291 0.0
C861 C 0.27581 1.00198 0.74617 0.0
C862 C 0.32396 0.02065 0.76116 0.0
C863 C 0.32241 1.00376 0.78355 0.0
H864 H 0.30327 0.03377 0.72638 0.0
H865 H 0.34244 0.03551 0.75803 0.0
S866 S 0.26242 0.95054 0.79965 0.0
N867 N 0.25171 0.96514 0.7725 0.0
N868 N 0.29438 0.96643 0.80658 0.0
C869 C 0.29762 0.98497 0.78653 0.0
C870 C 0.2744 0.98421 0.76798 0.0
C871 C 0.86343 0.18861 0.76798 0.0
C872 C 0.8495 0.18369 0.74465 0.0
C873 C 0.86346 0.21672 0.77914 0.0
C874 C 0.84859 0.24105 0.76798 0.0
H875 H 0.87447 0.17059 0.77766 0.0
H876 H 0.87508 0.21913 0.79694 0.0
S877 S 0.81168 0.23983 0.70493 0.0
N878 N 0.82273 0.20553 0.70945 0.0
N879 N 0.82205 0.25802 0.73045 0.0
C880 C 0.83575 0.23645 0.74392 0.0
C881 C 0.83619 0.20788 0.73239 0.0
C882 C 0.30316 0.41281 0.77429 0.0
C883 C 0.27534 0.39898 0.77094 0.0
C884 C 0.3255 0.41069 0.756 0.0
C885 C 0.32091 0.39485 0.73347 0.0
H886 H 0.30775 0.42547 0.79121 0.0
H887 H 0.34641 0.42181 0.7594 0.0
S888 S 0.25319 0.35252 0.71625 0.0
N889 N 0.24542 0.36734 0.74383 0.0
N890 N 0.287 0.36375 0.70949 0.0
C891 C 0.29335 0.38072 0.72998 0.0
C892 C 0.27071 0.38273 0.74862 0.0
C893 C 0.74792 0.18652 0.74617 0.0
C894 C 0.74644 0.1845 0.77268 0.0
C895 C 0.74815 0.21399 0.73371 0.0
C896 C 0.74702 0.24095 0.74708 0.0
H897 H 0.74908 0.16668 0.73482 0.0
H898 H 0.75006 0.21397 0.71335 0.0
S899 S 0.74097 0.2483 0.81661 0.0
N900 N 0.74312 0.21231 0.81189 0.0
N901 N 0.74212 0.26363 0.78832 0.0
C902 C 0.74456 0.23929 0.77351 0.0
C903 C 0.74455 0.21126 0.78629 0.0
loop_
_geom_bond_atom_site_label_1
_geom_bond_atom_site_label_2
_geom_bond_distance
_geom_bond_site_symmetry_2
_ccdc_geom_bond_type
C0 C1 1.264 . S
C0 C5 1.479 . S
C0 C10 1.465 . S
C1 C0 1.264 . S
C1 C3 1.339 . S
C1 H28 0.931 . S
C2 C3 1.395 . S
C2 C4 1.320 . S
C3 C1 1.339 . S
C3 C2 1.395 . S
C3 H29 0.929 . S
C4 C2 1.320 . S
C4 C5 1.405 . S
C4 H30 0.930 . S
C5 C0 1.479 . S
C5 C4 1.405 . S
C5 H31 0.931 . S
U6 O7 2.454 . S
U6 O8 2.458 . S
U6 C9 2.984 . S
U6 C10 2.847 . S
U6 C23 2.882 . S
U6 O24 2.441 . S
U6 O25 2.420 . S
U6 O26 2.455 . S
U6 O27 2.449 . S
O7 U6 2.454 . S
O7 C9 1.353 . S
O8 U6 2.458 . S
O8 C9 1.286 . S
C9 U6 2.984 . S
C9 O7 1.353 . S
C9 O8 1.286 . S
C9 C11 1.363 . S
C10 C0 1.465 . S
C10 U6 2.847 . S
C10 O24 1.249 . S
C10 O25 1.202 . S
C11 C9 1.363 . S
C11 C13 1.408 . S
C11 C16 1.342 . S
C12 C13 1.310 . S
C12 C15 1.461 . S
C12 H32 0.932 . S
C13 C11 1.408 . S
C13 C12 1.310 . S
C13 H33 0.930 . S
C14 C15 1.474 . S
C14 C16 1.285 . S
C14 H34 0.929 . S
C15 C12 1.461 . S
C15 C14 1.474 . S
C16 C11 1.342 . S
C16 C14 1.285 . S
C16 H35 0.930 . S
C17 C20 1.424 . S
C17 C22 1.245 . S
C17 C23 1.428 . S
C18 C21 1.260 . S
C18 C22 1.477 . S
C18 H36 0.932 . S
C19 C20 1.384 . S
C19 C21 1.479 . S
C19 H37 0.929 . S
C20 C17 1.424 . S
C20 C19 1.384 . S
C20 H38 0.928 . S
C21 C18 1.260 . S
C21 C19 1.479 . S
C22 C17 1.245 . S
C22 C18 1.477 . S
C22 H39 0.932 . S
C23 U6 2.882 . S
C23 C17 1.428 . S
C23 O26 1.301 . S
C23 O27 1.282 . S
O24 U6 2.441 . S
O24 C10 1.249 . S
O25 U6 2.420 . S
O25 C10 1.202 . S
O26 U6 2.455 . S
O26 C23 1.301 . S
O27 U6 2.449 . S
O27 C23 1.282 . S
H28 C1 0.931 . S
H29 C3 0.929 . S
H30 C4 0.930 . S
H31 C5 0.931 . S
H32 C12 0.932 . S
H33 C13 0.930 . S
H34 C14 0.929 . S
H35 C16 0.930 . S
H36 C18 0.932 . S
H37 C19 0.929 . S
H38 C20 0.928 . S
H39 C22 0.932 . S
C40 C41 1.264 . S
C40 C45 1.479 . S
C40 C50 1.465 . S
C41 C40 1.264 . S
C41 C43 1.339 . S
C41 H68 0.931 . S
C42 C43 1.395 . S
C42 C44 1.320 . S
C43 C41 1.339 . S
C43 C42 1.395 . S
C43 H69 0.929 . S
C44 C42 1.320 . S
C44 C45 1.405 . S
C44 H70 0.930 . S
C45 C40 1.479 . S
C45 C44 1.405 . S
C45 H71 0.931 . S
U46 O47 2.454 . S
U46 O48 2.458 . S
U46 C49 2.984 . S
U46 C50 2.847 . S
U46 C63 2.882 . S
U46 O64 2.441 . S
U46 O65 2.420 . S
U46 O66 2.455 . S
U46 O67 2.449 . S
O47 U46 2.454 . S
O47 C49 1.353 . S
O48 U46 2.458 . S
O48 C49 1.286 . S
C49 U46 2.984 . S
C49 O47 1.353 . S
C49 O48 1.286 . S
C49 C51 1.363 . S
C50 C40 1.465 . S
C50 U46 2.847 . S
C50 O64 1.249 . S
C50 O65 1.202 . S
C51 C49 1.363 . S
C51 C53 1.408 . S
C51 C56 1.342 . S
C52 C53 1.310 . S
C52 C55 1.461 . S
C52 H72 0.932 . S
C53 C51 1.408 . S
C53 C52 1.310 . S
C53 H73 0.930 . S
C54 C55 1.474 . S
C54 C56 1.285 . S
C54 H74 0.929 . S
C55 C52 1.461 . S
C55 C54 1.474 . S
C56 C51 1.342 . S
C56 C54 1.285 . S
C56 H75 0.930 . S
C57 C60 1.424 . S
C57 C62 1.245 . S
C57 C63 1.428 . S
C58 C61 1.260 . S
C58 C62 1.477 . S
C58 H76 0.932 . S
C59 C60 1.384 . S
C59 C61 1.479 . S
C59 H77 0.929 . S
C60 C57 1.424 . S
C60 C59 1.384 . S
C60 H78 0.928 . S
C61 C58 1.260 . S
C61 C59 1.479 . S
C62 C57 1.245 . S
C62 C58 1.477 . S
C62 H79 0.932 . S
C63 U46 2.882 . S
C63 C57 1.428 . S
C63 O66 1.301 . S
C63 O67 1.282 . S
O64 U46 2.441 . S
O64 C50 1.249 . S
O65 U46 2.420 . S
O65 C50 1.202 . S
O66 U46 2.455 . S
O66 C63 1.301 . S
O67 U46 2.449 . S
O67 C63 1.282 . S
H68 C41 0.931 . S
H69 C43 0.929 . S
H70 C44 0.930 . S
H71 C45 0.931 . S
H72 C52 0.932 . S
H73 C53 0.930 . S
H74 C54 0.929 . S
H75 C56 0.930 . S
H76 C58 0.932 . S
H77 C59 0.929 . S
H78 C60 0.928 . S
H79 C62 0.932 . S
C80 C81 1.264 . S
C80 C85 1.479 . S
C80 C90 1.465 . S
C81 C80 1.264 . S
C81 C83 1.339 . S
C81 H108 0.931 . S
C82 C83 1.395 . S
C82 C84 1.320 . S
C83 C81 1.339 . S
C83 C82 1.395 . S
C83 H109 0.929 . S
C84 C82 1.320 . S
C84 C85 1.405 . S
C84 H110 0.930 . S
C85 C80 1.479 . S
C85 C84 1.405 . S
C85 H111 0.931 . S
U86 O87 2.454 . S
U86 O88 2.458 . S
U86 C89 2.984 . S
U86 C90 2.847 1_455 S
U86 C103 2.882 . S
U86 O104 2.441 1_455 S
U86 O105 2.420 1_455 S
U86 O106 2.455 . S
U86 O107 2.449 . S
O87 U86 2.454 . S
O87 C89 1.353 . S
O88 U86 2.458 . S
O88 C89 1.286 . S
C89 U86 2.984 . S
C89 O87 1.353 . S
C89 O88 1.286 . S
C89 C91 1.363 . S
C90 C80 1.465 . S
C90 U86 2.847 1_655 S
C90 O104 1.249 . S
C90 O105 1.202 . S
C91 C89 1.363 . S
C91 C93 1.408 . S
C91 C96 1.342 . S
C92 C93 1.310 . S
C92 C95 1.461 . S
C92 H112 0.932 . S
C93 C91 1.408 . S
C93 C92 1.310 . S
C93 H113 0.930 . S
C94 C95 1.474 . S
C94 C96 1.285 . S
C94 H114 0.929 . S
C95 C92 1.461 . S
C95 C94 1.474 . S
C96 C91 1.342 . S
C96 C94 1.285 . S
C96 H115 0.930 . S
C97 C100 1.424 . S
C97 C102 1.245 . S
C97 C103 1.428 . S
C98 C101 1.260 . S
C98 C102 1.477 . S
C98 H116 0.932 . S
C99 C100 1.384 . S
C99 C101 1.479 . S
C99 H117 0.929 . S
C100 C97 1.424 . S
C100 C99 1.384 . S
C100 H118 0.928 . S
C101 C98 1.260 . S
C101 C99 1.479 . S
C102 C97 1.245 . S
C102 C98 1.477 . S
C102 H119 0.932 . S
C103 U86 2.882 . S
C103 C97 1.428 . S
C103 O106 1.301 . S
C103 O107 1.282 . S
O104 U86 2.441 1_655 S
O104 C90 1.249 . S
O105 U86 2.420 1_655 S
O105 C90 1.202 . S
O106 U86 2.455 . S
O106 C103 1.301 . S
O107 U86 2.449 . S
O107 C103 1.282 . S
H108 C81 0.931 . S
H109 C83 0.929 . S
H110 C84 0.930 . S
H111 C85 0.931 . S
H112 C92 0.932 . S
H113 C93 0.930 . S
H114 C94 0.929 . S
H115 C96 0.930 . S
H116 C98 0.932 . S
H117 C99 0.929 . S
H118 C100 0.928 . S
H119 C102 0.932 . S
C120 C121 1.264 . S
C120 C125 1.479 . S
C120 C130 1.465 . S
C121 C120 1.264 . S
C121 C123 1.339 . S
C121 H148 0.931 . S
C122 C123 1.395 . S
C122 C124 1.320 . S
C123 C121 1.339 . S
C123 C122 1.395 . S
C123 H149 0.929 . S
C124 C122 1.320 . S
C124 C125 1.405 . S
C124 H150 0.930 . S
C125 C120 1.479 . S
C125 C124 1.405 . S
C125 H151 0.931 . S
U126 O127 2.454 . S
U126 O128 2.458 1_655 S
U126 C129 2.985 1_655 S
U126 C130 2.847 . S
U126 C143 2.882 . S
U126 O144 2.441 . S
U126 O145 2.420 . S
U126 O146 2.455 . S
U126 O147 2.449 . S
O127 U126 2.454 . S
O127 C129 1.355 1_655 S
O128 U126 2.458 1_455 S
O128 C129 1.285 . S
C129 U126 2.985 1_455 S
C129 O127 1.355 1_455 S
C129 O128 1.285 . S
C129 C131 1.362 . S
C130 C120 1.465 . S
C130 U126 2.847 . S
C130 O144 1.249 . S
C130 O145 1.202 . S
C131 C129 1.362 . S
C131 C133 1.408 . S
C131 C136 1.342 . S
C132 C133 1.310 . S
C132 C135 1.461 . S
C132 H152 0.932 . S
C133 C131 1.408 . S
C133 C132 1.310 . S
C133 H153 0.930 1_455 S
C134 C135 1.474 . S
C134 C136 1.285 . S
C134 H154 0.929 . S
C135 C132 1.461 . S
C135 C134 1.474 . S
C136 C131 1.342 . S
C136 C134 1.285 . S
C136 H155 0.930 . S
C137 C140 1.424 . S
C137 C142 1.245 . S
C137 C143 1.428 1_455 S
C138 C141 1.260 1_565 S
C138 C142 1.477 . S
C138 H156 0.932 . S
C139 C140 1.384 1_545 S
C139 C141 1.479 . S
C139 H157 0.929 . S
C140 C137 1.424 . S
C140 C139 1.384 1_565 S
C140 H158 0.926 1_455 S
C141 C138 1.260 1_545 S
C141 C139 1.479 . S
C142 C137 1.245 . S
C142 C138 1.477 . S
C142 H159 0.932 . S
C143 U126 2.882 . S
C143 C137 1.428 1_655 S
C143 O146 1.301 . S
C143 O147 1.282 . S
O144 U126 2.441 . S
O144 C130 1.249 . S
O145 U126 2.420 . S
O145 C130 1.202 . S
O146 U126 2.455 . S
O146 C143 1.301 . S
O147 U126 2.449 . S
O147 C143 1.282 . S
H148 C121 0.931 . S
H149 C123 0.929 . S
H150 C124 0.930 . S
H151 C125 0.931 . S
H152 C132 0.932 . S
H153 C133 0.930 1_655 S
H154 C134 0.929 . S
H155 C136 0.930 . S
H156 C138 0.932 . S
H157 C139 0.929 . S
H158 C140 0.926 1_655 S
H159 C142 0.932 . S
C160 C161 1.264 . S
C160 C165 1.479 . S
C160 C170 1.465 . S
C161 C160 1.264 . S
C161 C163 1.339 . S
C161 H188 0.931 . S
C162 C163 1.395 . S
C162 C164 1.320 . S
C163 C161 1.339 . S
C163 C162 1.395 . S
C163 H189 0.929 . S
C164 C162 1.320 . S
C164 C165 1.405 . S
C164 H190 0.930 . S
C165 C160 1.479 . S
C165 C164 1.405 . S
C165 H191 0.931 . S
U166 O167 2.454 . S
U166 O168 2.458 . S
U166 C169 2.984 . S
U166 C170 2.847 . S
U166 C183 2.882 . S
U166 O184 2.441 . S
U166 O185 2.420 . S
U166 O186 2.455 . S
U166 O187 2.449 . S
O167 U166 2.454 . S
O167 C169 1.353 . S
O168 U166 2.458 . S
O168 C169 1.286 . S
C169 U166 2.984 . S
C169 O167 1.353 . S
C169 O168 1.286 . S
C169 C171 1.363 . S
C170 C160 1.465 . S
C170 U166 2.847 . S
C170 O184 1.249 . S
C170 O185 1.202 . S
C171 C169 1.363 . S
C171 C173 1.408 . S
C171 C176 1.342 . S
C172 C173 1.310 . S
C172 C175 1.461 . S
C172 H192 0.932 . S
C173 C171 1.408 . S
C173 C172 1.310 . S
C173 H193 0.930 . S
C174 C175 1.474 . S
C174 C176 1.285 . S
C174 H194 0.929 . S
C175 C172 1.461 . S
C175 C174 1.474 . S
C176 C171 1.342 . S
C176 C174 1.285 . S
C176 H195 0.930 . S
C177 C180 1.424 . S
C177 C182 1.245 . S
C177 C183 1.428 . S
C178 C181 1.260 . S
C178 C182 1.477 . S
C178 H196 0.932 . S
C179 C180 1.384 . S
C179 C181 1.479 . S
C179 H197 0.929 . S
C180 C177 1.424 . S
C180 C179 1.384 . S
C180 H198 0.928 . S
C181 C178 1.260 . S
C181 C179 1.479 . S
C182 C177 1.245 . S
C182 C178 1.477 . S
C182 H199 0.932 . S
C183 U166 2.882 . S
C183 C177 1.428 . S
C183 O186 1.301 . S
C183 O187 1.282 . S
O184 U166 2.441 . S
O184 C170 1.249 . S
O185 U166 2.420 . S
O185 C170 1.202 . S
O186 U166 2.455 . S
O186 C183 1.301 . S
O187 U166 2.449 . S
O187 C183 1.282 . S
H188 C161 0.931 . S
H189 C163 0.929 . S
H190 C164 0.930 . S
H191 C165 0.931 . S
H192 C172 0.932 . S
H193 C173 0.930 . S
H194 C174 0.929 . S
H195 C176 0.930 . S
H196 C178 0.932 . S
H197 C179 0.929 . S
H198 C180 0.928 . S
H199 C182 0.932 . S
C200 C201 1.264 . S
C200 C205 1.479 . S
C200 C210 1.465 . S
C201 C200 1.264 . S
C201 C203 1.339 . S
C201 H228 0.931 . S
C202 C203 1.395 . S
C202 C204 1.320 . S
C203 C201 1.339 . S
C203 C202 1.395 . S
C203 H229 0.929 . S
C204 C202 1.320 . S
C204 C205 1.405 . S
C204 H230 0.930 . S
C205 C200 1.479 . S
C205 C204 1.405 . S
C205 H231 0.931 . S
U206 O207 2.454 . S
U206 O208 2.458 1_655 S
U206 C209 2.984 . S
U206 C210 2.847 . S
U206 C223 2.882 . S
U206 O224 2.441 . S
U206 O225 2.420 . S
U206 O226 2.455 . S
U206 O227 2.449 . S
O207 U206 2.454 . S
O207 C209 1.352 . S
O208 U206 2.458 1_455 S
O208 C209 1.286 1_455 S
C209 U206 2.984 . S
C209 O207 1.352 . S
C209 O208 1.286 1_655 S
C209 C211 1.364 1_655 S
C210 C200 1.465 . S
C210 U206 2.847 . S
C210 O224 1.249 . S
C210 O225 1.202 . S
C211 C209 1.364 1_455 S
C211 C213 1.408 . S
C211 C216 1.342 . S
C212 C213 1.310 . S
C212 C215 1.461 . S
C212 H232 0.932 . S
C213 C211 1.408 . S
C213 C212 1.310 . S
C213 H233 0.930 1_455 S
C214 C215 1.474 . S
C214 C216 1.285 . S
C214 H234 0.929 . S
C215 C212 1.461 . S
C215 C214 1.474 . S
C216 C211 1.342 . S
C216 C214 1.285 . S
C216 H235 0.930 . S
C217 C220 1.424 . S
C217 C222 1.245 . S
C217 C223 1.428 1_455 S
C218 C221 1.260 . S
C218 C222 1.477 . S
C218 H236 0.932 . S
C219 C220 1.384 . S
C219 C221 1.479 . S
C219 H237 0.929 . S
C220 C217 1.424 . S
C220 C219 1.384 . S
C220 H238 0.923 1_455 S
C221 C218 1.260 . S
C221 C219 1.479 . S
C222 C217 1.245 . S
C222 C218 1.477 . S
C222 H239 0.932 . S
C223 U206 2.882 . S
C223 C217 1.428 1_655 S
C223 O226 1.301 . S
C223 O227 1.282 . S
O224 U206 2.441 . S
O224 C210 1.249 . S
O225 U206 2.420 . S
O225 C210 1.202 . S
O226 U206 2.455 . S
O226 C223 1.301 . S
O227 U206 2.449 . S
O227 C223 1.282 . S
H228 C201 0.931 . S
H229 C203 0.929 . S
H230 C204 0.930 . S
H231 C205 0.931 . S
H232 C212 0.932 . S
H233 C213 0.930 1_655 S
H234 C214 0.929 . S
H235 C216 0.930 . S
H236 C218 0.932 . S
H237 C219 0.929 . S
H238 C220 0.923 1_655 S
H239 C222 0.932 . S
C240 C241 1.264 . S
C240 C245 1.479 . S
C240 C250 1.465 . S
C241 C240 1.264 . S
C241 C243 1.339 . S
C241 H268 0.931 . S
C242 C243 1.395 . S
C242 C244 1.320 . S
C243 C241 1.339 . S
C243 C242 1.395 . S
C243 H269 0.929 . S
C244 C242 1.320 . S
C244 C245 1.405 . S
C244 H270 0.930 . S
C245 C240 1.479 . S
C245 C244 1.405 . S
C245 H271 0.931 . S
U246 O247 2.454 . S
U246 O248 2.458 . S
U246 C249 2.984 . S
U246 C250 2.847 1_455 S
U246 C263 2.882 . S
U246 O264 2.441 1_455 S
U246 O265 2.420 1_455 S
U246 O266 2.455 . S
U246 O267 2.449 . S
O247 U246 2.454 . S
O247 C249 1.353 . S
O248 U246 2.458 . S
O248 C249 1.286 . S
C249 U246 2.984 . S
C249 O247 1.353 . S
C249 O248 1.286 . S
C249 C251 1.363 . S
C250 C240 1.465 . S
C250 U246 2.847 1_655 S
C250 O264 1.249 . S
C250 O265 1.202 . S
C251 C249 1.363 . S
C251 C253 1.408 . S
C251 C256 1.342 . S
C252 C253 1.310 . S
C252 C255 1.461 . S
C252 H272 0.932 . S
C253 C251 1.408 . S
C253 C252 1.310 . S
C253 H273 0.930 . S
C254 C255 1.474 . S
C254 C256 1.285 . S
C254 H274 0.929 . S
C255 C252 1.461 . S
C255 C254 1.474 . S
C256 C251 1.342 . S
C256 C254 1.285 . S
C256 H275 0.930 . S
C257 C260 1.424 . S
C257 C262 1.245 . S
C257 C263 1.428 . S
C258 C261 1.260 . S
C258 C262 1.477 . S
C258 H276 0.932 . S
C259 C260 1.384 . S
C259 C261 1.479 . S
C259 H277 0.929 . S
C260 C257 1.424 . S
C260 C259 1.384 . S
C260 H278 0.928 . S
C261 C258 1.260 . S
C261 C259 1.479 . S
C262 C257 1.245 . S
C262 C258 1.477 . S
C262 H279 0.932 . S
C263 U246 2.882 . S
C263 C257 1.428 . S
C263 O266 1.301 . S
C263 O267 1.282 . S
O264 U246 2.441 1_655 S
O264 C250 1.249 . S
O265 U246 2.420 1_655 S
O265 C250 1.202 . S
O266 U246 2.455 . S
O266 C263 1.301 . S
O267 U246 2.449 . S
O267 C263 1.282 . S
H268 C241 0.931 . S
H269 C243 0.929 . S
H270 C244 0.930 . S
H271 C245 0.931 . S
H272 C252 0.932 . S
H273 C253 0.930 . S
H274 C254 0.929 . S
H275 C256 0.930 . S
H276 C258 0.932 . S
H277 C259 0.929 . S
H278 C260 0.928 . S
H279 C262 0.932 . S
C280 C281 1.264 . S
C280 C285 1.479 . S
C280 C290 1.465 . S
C281 C280 1.264 . S
C281 C283 1.339 . S
C281 H308 0.931 . S
C282 C283 1.395 . S
C282 C284 1.320 . S
C283 C281 1.339 . S
C283 C282 1.395 . S
C283 H309 0.929 . S
C284 C282 1.320 . S
C284 C285 1.405 . S
C284 H310 0.930 . S
C285 C280 1.479 . S
C285 C284 1.405 . S
C285 H311 0.931 . S
U286 O287 2.454 . S
U286 O288 2.458 . S
U286 C289 2.984 . S
U286 C290 2.847 . S
U286 C303 2.882 . S
U286 O304 2.441 . S
U286 O305 2.420 . S
U286 O306 2.455 . S
U286 O307 2.449 . S
O287 U286 2.454 . S
O287 C289 1.353 . S
O288 U286 2.458 . S
O288 C289 1.286 . S
C289 U286 2.984 . S
C289 O287 1.353 . S
C289 O288 1.286 . S
C289 C291 1.363 . S
C290 C280 1.465 . S
C290 U286 2.847 . S
C290 O304 1.249 . S
C290 O305 1.202 . S
C291 C289 1.363 . S
C291 C293 1.408 . S
C291 C296 1.342 . S
C292 C293 1.310 . S
C292 C295 1.461 . S
C292 H312 0.932 . S
C293 C291 1.408 . S
C293 C292 1.310 . S
C293 H313 0.930 . S
C294 C295 1.474 . S
C294 C296 1.285 . S
C294 H314 0.929 . S
C295 C292 1.461 . S
C295 C294 1.474 . S
C296 C291 1.342 . S
C296 C294 1.285 . S
C296 H315 0.930 . S
C297 C300 1.424 . S
C297 C302 1.245 . S
C297 C303 1.428 . S
C298 C301 1.260 1_565 S
C298 C302 1.477 . S
C298 H316 0.932 . S
C299 C300 1.384 1_545 S
C299 C301 1.479 . S
C299 H317 0.929 . S
C300 C297 1.424 . S
C300 C299 1.384 1_565 S
C300 H318 0.928 . S
C301 C298 1.260 1_545 S
C301 C299 1.479 . S
C302 C297 1.245 . S
C302 C298 1.477 . S
C302 H319 0.932 . S
C303 U286 2.882 . S
C303 C297 1.428 . S
C303 O306 1.301 . S
C303 O307 1.282 . S
O304 U286 2.441 . S
O304 C290 1.249 . S
O305 U286 2.420 . S
O305 C290 1.202 . S
O306 U286 2.455 . S
O306 C303 1.301 . S
O307 U286 2.449 . S
O307 C303 1.282 . S
H308 C281 0.931 . S
H309 C283 0.929 . S
H310 C284 0.930 . S
H311 C285 0.931 . S
H312 C292 0.932 . S
H313 C293 0.930 . S
H314 C294 0.929 . S
H315 C296 0.930 . S
H316 C298 0.932 . S
H317 C299 0.929 . S
H318 C300 0.928 . S
H319 C302 0.932 . S
C320 C321 1.264 1_545 S
C320 C325 1.479 . S
C320 C330 1.465 . S
C321 C320 1.264 1_565 S
C321 C323 1.339 . S
C321 H348 0.931 . S
C322 C323 1.395 . S
C322 C324 1.320 . S
C323 C321 1.339 . S
C323 C322 1.395 . S
C323 H349 0.929 . S
C324 C322 1.320 . S
C324 C325 1.405 1_565 S
C324 H350 0.930 . S
C325 C320 1.479 . S
C325 C324 1.405 1_545 S
C325 H351 0.931 . S
U326 O327 2.454 . S
U326 O328 2.458 . S
U326 C329 2.984 . S
U326 C330 2.847 . S
U326 C343 2.882 . S
U326 O344 2.441 . S
U326 O345 2.420 . S
U326 O346 2.455 . S
U326 O347 2.449 . S
O327 U326 2.454 . S
O327 C329 1.353 . S
O328 U326 2.458 . S
O328 C329 1.286 . S
C329 U326 2.984 . S
C329 O327 1.353 . S
C329 O328 1.286 . S
C329 C331 1.363 . S
C330 C320 1.465 . S
C330 U326 2.847 . S
C330 O344 1.249 . S
C330 O345 1.202 . S
C331 C329 1.363 . S
C331 C333 1.408 . S
C331 C336 1.342 . S
C332 C333 1.310 . S
C332 C335 1.461 . S
C332 H352 0.932 . S
C333 C331 1.408 . S
C333 C332 1.310 . S
C333 H353 0.930 . S
C334 C335 1.474 . S
C334 C336 1.285 . S
C334 H354 0.929 . S
C335 C332 1.461 . S
C335 C334 1.474 . S
C336 C331 1.342 . S
C336 C334 1.285 . S
C336 H355 0.930 . S
C337 C340 1.424 . S
C337 C342 1.245 . S
C337 C343 1.428 1_565 S
C338 C341 1.260 . S
C338 C342 1.477 . S
C338 H356 0.932 . S
C339 C340 1.384 . S
C339 C341 1.479 . S
C339 H357 0.929 . S
C340 C337 1.424 . S
C340 C339 1.384 . S
C340 H358 0.928 . S
C341 C338 1.260 . S
C341 C339 1.479 . S
C342 C337 1.245 . S
C342 C338 1.477 . S
C342 H359 0.932 1_565 S
C343 U326 2.882 . S
C343 C337 1.428 1_545 S
C343 O346 1.301 . S
C343 O347 1.282 . S
O344 U326 2.441 . S
O344 C330 1.249 . S
O345 U326 2.420 . S
O345 C330 1.202 . S
O346 U326 2.455 . S
O346 C343 1.301 . S
O347 U326 2.449 . S
O347 C343 1.282 . S
H348 C321 0.931 . S
H349 C323 0.929 . S
H350 C324 0.930 . S
H351 C325 0.931 . S
H352 C332 0.932 . S
H353 C333 0.930 . S
H354 C334 0.929 . S
H355 C336 0.930 . S
H356 C338 0.932 . S
H357 C339 0.929 . S
H358 C340 0.928 . S
H359 C342 0.932 1_545 S
C360 C361 1.264 . S
C360 C365 1.479 . S
C360 C370 1.465 . S
C361 C360 1.264 . S
C361 C363 1.339 . S
C361 H388 0.931 . S
C362 C363 1.395 . S
C362 C364 1.320 . S
C363 C361 1.339 . S
C363 C362 1.395 . S
C363 H389 0.929 . S
C364 C362 1.320 . S
C364 C365 1.405 . S
C364 H390 0.930 . S
C365 C360 1.479 . S
C365 C364 1.405 . S
C365 H391 0.931 . S
U366 O367 2.454 . S
U366 O368 2.458 . S
U366 C369 2.984 . S
U366 C370 2.847 . S
U366 C383 2.882 . S
U366 O384 2.441 . S
U366 O385 2.420 . S
U366 O386 2.455 . S
U366 O387 2.449 . S
O367 U366 2.454 . S
O367 C369 1.353 . S
O368 U366 2.458 . S
O368 C369 1.286 . S
C369 U366 2.984 . S
C369 O367 1.353 . S
C369 O368 1.286 . S
C369 C371 1.363 . S
C370 C360 1.465 . S
C370 U366 2.847 . S
C370 O384 1.249 . S
C370 O385 1.202 . S
C371 C369 1.363 . S
C371 C373 1.408 . S
C371 C376 1.342 . S
C372 C373 1.310 . S
C372 C375 1.461 . S
C372 H392 0.932 . S
C373 C371 1.408 . S
C373 C372 1.310 . S
C373 H393 0.930 . S
C374 C375 1.474 . S
C374 C376 1.285 . S
C374 H394 0.929 . S
C375 C372 1.461 . S
C375 C374 1.474 . S
C376 C371 1.342 . S
C376 C374 1.285 . S
C376 H395 0.930 . S
C377 C380 1.424 . S
C377 C382 1.245 . S
C377 C383 1.428 . S
C378 C381 1.260 . S
C378 C382 1.477 . S
C378 H396 0.932 . S
C379 C380 1.384 . S
C379 C381 1.479 . S
C379 H397 0.929 . S
C380 C377 1.424 . S
C380 C379 1.384 . S
C380 H398 0.928 . S
C381 C378 1.260 . S
C381 C379 1.479 . S
C382 C377 1.245 . S
C382 C378 1.477 . S
C382 H399 0.932 . S
C383 U366 2.882 . S
C383 C377 1.428 . S
C383 O386 1.301 . S
C383 O387 1.282 . S
O384 U366 2.441 . S
O384 C370 1.249 . S
O385 U366 2.420 . S
O385 C370 1.202 . S
O386 U366 2.455 . S
O386 C383 1.301 . S
O387 U366 2.449 . S
O387 C383 1.282 . S
H388 C361 0.931 . S
H389 C363 0.929 . S
H390 C364 0.930 . S
H391 C365 0.931 . S
H392 C372 0.932 . S
H393 C373 0.930 . S
H394 C374 0.929 . S
H395 C376 0.930 . S
H396 C378 0.932 . S
H397 C379 0.929 . S
H398 C380 0.928 . S
H399 C382 0.932 . S
C400 C401 1.264 . S
C400 C405 1.479 . S
C400 C410 1.465 . S
C401 C400 1.264 . S
C401 C403 1.339 . S
C401 H428 0.931 . S
C402 C403 1.395 . S
C402 C404 1.320 . S
C403 C401 1.339 . S
C403 C402 1.395 . S
C403 H429 0.929 . S
C404 C402 1.320 . S
C404 C405 1.405 . S
C404 H430 0.930 . S
C405 C400 1.479 . S
C405 C404 1.405 . S
C405 H431 0.931 . S
U406 O407 2.454 . S
U406 O408 2.458 . S
U406 C409 2.984 . S
U406 C410 2.847 . S
U406 C423 2.882 . S
U406 O424 2.441 . S
U406 O425 2.420 . S
U406 O426 2.455 . S
U406 O427 2.449 . S
O407 U406 2.454 . S
O407 C409 1.353 . S
O408 U406 2.458 . S
O408 C409 1.286 . S
C409 U406 2.984 . S
C409 O407 1.353 . S
C409 O408 1.286 . S
C409 C411 1.363 . S
C410 C400 1.465 . S
C410 U406 2.847 . S
C410 O424 1.249 . S
C410 O425 1.202 . S
C411 C409 1.363 . S
C411 C413 1.408 . S
C411 C416 1.342 . S
C412 C413 1.310 . S
C412 C415 1.461 . S
C412 H432 0.932 . S
C413 C411 1.408 . S
C413 C412 1.310 . S
C413 H433 0.930 . S
C414 C415 1.474 . S
C414 C416 1.285 . S
C414 H434 0.929 . S
C415 C412 1.461 . S
C415 C414 1.474 . S
C416 C411 1.342 . S
C416 C414 1.285 . S
C416 H435 0.930 . S
C417 C420 1.424 . S
C417 C422 1.245 . S
C417 C423 1.428 . S
C418 C421 1.260 1_455 S
C418 C422 1.477 . S
C418 H436 0.932 . S
C419 C420 1.384 1_655 S
C419 C421 1.479 . S
C419 H437 0.929 . S
C420 C417 1.424 . S
C420 C419 1.384 1_455 S
C420 H438 0.928 . S
C421 C418 1.260 1_655 S
C421 C419 1.479 . S
C422 C417 1.245 . S
C422 C418 1.477 . S
C422 H439 0.932 . S
C423 U406 2.882 . S
C423 C417 1.428 . S
C423 O426 1.301 . S
C423 O427 1.282 . S
O424 U406 2.441 . S
O424 C410 1.249 . S
O425 U406 2.420 . S
O425 C410 1.202 . S
O426 U406 2.455 . S
O426 C423 1.301 . S
O427 U406 2.449 . S
O427 C423 1.282 . S
H428 C401 0.931 . S
H429 C403 0.929 . S
H430 C404 0.930 . S
H431 C405 0.931 . S
H432 C412 0.932 . S
H433 C413 0.930 . S
H434 C414 0.929 . S
H435 C416 0.930 . S
H436 C418 0.932 . S
H437 C419 0.929 . S
H438 C420 0.928 . S
H439 C422 0.932 . S
C440 C441 1.264 . S
C440 C445 1.479 . S
C440 C450 1.465 . S
C441 C440 1.264 . S
C441 C443 1.339 . S
C441 H468 0.931 . S
C442 C443 1.395 . S
C442 C444 1.320 . S
C443 C441 1.339 . S
C443 C442 1.395 . S
C443 H469 0.929 . S
C444 C442 1.320 . S
C444 C445 1.405 . S
C444 H470 0.930 . S
C445 C440 1.479 . S
C445 C444 1.405 . S
C445 H471 0.931 . S
U446 O447 2.454 1_565 S
U446 O448 2.458 1_565 S
U446 C449 2.984 1_565 S
U446 C450 2.847 . S
U446 C463 2.882 . S
U446 O464 2.441 . S
U446 O465 2.420 . S
U446 O466 2.455 . S
U446 O467 2.449 . S
O447 U446 2.454 1_545 S
O447 C449 1.353 . S
O448 U446 2.458 1_545 S
O448 C449 1.286 . S
C449 U446 2.984 1_545 S
C449 O447 1.353 . S
C449 O448 1.286 . S
C449 C451 1.363 . S
C450 C440 1.465 . S
C450 U446 2.847 . S
C450 O464 1.249 . S
C450 O465 1.202 . S
C451 C449 1.363 . S
C451 C453 1.408 . S
C451 C456 1.342 . S
C452 C453 1.310 . S
C452 C455 1.461 . S
C452 H472 0.932 . S
C453 C451 1.408 . S
C453 C452 1.310 . S
C453 H473 0.930 . S
C454 C455 1.474 . S
C454 C456 1.285 . S
C454 H474 0.929 . S
C455 C452 1.461 . S
C455 C454 1.474 . S
C456 C451 1.342 . S
C456 C454 1.285 . S
C456 H475 0.930 . S
C457 C460 1.424 . S
C457 C462 1.245 . S
C457 C463 1.428 . S
C458 C461 1.260 . S
C458 C462 1.477 . S
C458 H476 0.932 . S
C459 C460 1.384 . S
C459 C461 1.479 . S
C459 H477 0.929 . S
C460 C457 1.424 . S
C460 C459 1.384 . S
C460 H478 0.928 . S
C461 C458 1.260 . S
C461 C459 1.479 . S
C462 C457 1.245 . S
C462 C458 1.477 . S
C462 H479 0.932 . S
C463 U446 2.882 . S
C463 C457 1.428 . S
C463 O466 1.301 . S
C463 O467 1.282 . S
O464 U446 2.441 . S
O464 C450 1.249 . S
O465 U446 2.420 . S
O465 C450 1.202 . S
O466 U446 2.455 . S
O466 C463 1.301 . S
O467 U446 2.449 . S
O467 C463 1.282 . S
H468 C441 0.931 . S
H469 C443 0.929 . S
H470 C444 0.930 . S
H471 C445 0.931 . S
H472 C452 0.932 . S
H473 C453 0.930 . S
H474 C454 0.929 . S
H475 C456 0.930 . S
H476 C458 0.932 . S
H477 C459 0.929 . S
H478 C460 0.928 . S
H479 C462 0.932 . S
C480 C481 1.264 . S
C480 C485 1.479 . S
C480 C490 1.465 . S
C481 C480 1.264 . S
C481 C483 1.339 . S
C481 H508 0.931 . S
C482 C483 1.395 . S
C482 C484 1.320 . S
C483 C481 1.339 . S
C483 C482 1.395 . S
C483 H509 0.929 . S
C484 C482 1.320 . S
C484 C485 1.405 . S
C484 H510 0.930 . S
C485 C480 1.479 . S
C485 C484 1.405 . S
C485 H511 0.931 . S
U486 O487 2.454 . S
U486 O488 2.458 . S
U486 C489 2.984 . S
U486 C490 2.847 . S
U486 C503 2.882 . S
U486 O504 2.441 . S
U486 O505 2.420 . S
U486 O506 2.455 . S
U486 O507 2.449 . S
O487 U486 2.454 . S
O487 C489 1.353 . S
O488 U486 2.458 . S
O488 C489 1.286 . S
C489 U486 2.984 . S
C489 O487 1.353 . S
C489 O488 1.286 . S
C489 C491 1.363 . S
C490 C480 1.465 . S
C490 U486 2.847 . S
C490 O504 1.249 . S
C490 O505 1.202 . S
C491 C489 1.363 . S
C491 C493 1.408 . S
C491 C496 1.342 . S
C492 C493 1.310 . S
C492 C495 1.461 . S
C492 H512 0.932 . S
C493 C491 1.408 . S
C493 C492 1.310 . S
C493 H513 0.930 . S
C494 C495 1.474 . S
C494 C496 1.285 . S
C494 H514 0.929 . S
C495 C492 1.461 . S
C495 C494 1.474 . S
C496 C491 1.342 . S
C496 C494 1.285 . S
C496 H515 0.930 . S
C497 C500 1.424 . S
C497 C502 1.245 . S
C497 C503 1.428 . S
C498 C501 1.260 . S
C498 C502 1.477 . S
C498 H516 0.932 . S
C499 C500 1.384 . S
C499 C501 1.479 . S
C499 H517 0.929 . S
C500 C497 1.424 . S
C500 C499 1.384 . S
C500 H518 0.928 . S
C501 C498 1.260 . S
C501 C499 1.479 . S
C502 C497 1.245 . S
C502 C498 1.477 . S
C502 H519 0.932 . S
C503 U486 2.882 . S
C503 C497 1.428 . S
C503 O506 1.301 . S
C503 O507 1.282 . S
O504 U486 2.441 . S
O504 C490 1.249 . S
O505 U486 2.420 . S
O505 C490 1.202 . S
O506 U486 2.455 . S
O506 C503 1.301 . S
O507 U486 2.449 . S
O507 C503 1.282 . S
H508 C481 0.931 . S
H509 C483 0.929 . S
H510 C484 0.930 . S
H511 C485 0.931 . S
H512 C492 0.932 . S
H513 C493 0.930 . S
H514 C494 0.929 . S
H515 C496 0.930 . S
H516 C498 0.932 . S
H517 C499 0.929 . S
H518 C500 0.928 . S
H519 C502 0.932 . S
C520 C521 1.264 . S
C520 C525 1.479 . S
C520 C530 1.465 . S
C521 C520 1.264 . S
C521 C523 1.339 . S
C521 H548 0.931 . S
C522 C523 1.395 . S
C522 C524 1.320 . S
C523 C521 1.339 . S
C523 C522 1.395 . S
C523 H549 0.929 . S
C524 C522 1.320 . S
C524 C525 1.405 . S
C524 H550 0.930 . S
C525 C520 1.479 . S
C525 C524 1.405 . S
C525 H551 0.931 . S
U526 O527 2.454 . S
U526 O528 2.458 . S
U526 C529 2.984 . S
U526 C530 2.847 . S
U526 C543 2.882 . S
U526 O544 2.441 . S
U526 O545 2.420 . S
U526 O546 2.455 . S
U526 O547 2.449 . S
O527 U526 2.454 . S
O527 C529 1.353 . S
O528 U526 2.458 . S
O528 C529 1.286 . S
C529 U526 2.984 . S
C529 O527 1.353 . S
C529 O528 1.286 . S
C529 C531 1.363 . S
C530 C520 1.465 . S
C530 U526 2.847 . S
C530 O544 1.249 . S
C530 O545 1.202 . S
C531 C529 1.363 . S
C531 C533 1.408 . S
C531 C536 1.342 . S
C532 C533 1.310 . S
C532 C535 1.461 . S
C532 H552 0.932 . S
C533 C531 1.408 . S
C533 C532 1.310 . S
C533 H553 0.930 . S
C534 C535 1.474 . S
C534 C536 1.285 . S
C534 H554 0.929 . S
C535 C532 1.461 . S
C535 C534 1.474 . S
C536 C531 1.342 . S
C536 C534 1.285 . S
C536 H555 0.930 . S
C537 C540 1.424 . S
C537 C542 1.245 . S
C537 C543 1.428 . S
C538 C541 1.260 . S
C538 C542 1.477 . S
C538 H556 0.932 . S
C539 C540 1.384 . S
C539 C541 1.479 . S
C539 H557 0.929 . S
C540 C537 1.424 . S
C540 C539 1.384 . S
C540 H558 0.928 . S
C541 C538 1.260 . S
C541 C539 1.479 . S
C542 C537 1.245 . S
C542 C538 1.477 . S
C542 H559 0.932 . S
C543 U526 2.882 . S
C543 C537 1.428 . S
C543 O546 1.301 . S
C543 O547 1.282 . S
O544 U526 2.441 . S
O544 C530 1.249 . S
O545 U526 2.420 . S
O545 C530 1.202 . S
O546 U526 2.455 . S
O546 C543 1.301 . S
O547 U526 2.449 . S
O547 C543 1.282 . S
H548 C521 0.931 . S
H549 C523 0.929 . S
H550 C524 0.930 . S
H551 C525 0.931 . S
H552 C532 0.932 . S
H553 C533 0.930 . S
H554 C534 0.929 . S
H555 C536 0.930 . S
H556 C538 0.932 . S
H557 C539 0.929 . S
H558 C540 0.928 . S
H559 C542 0.932 . S
C560 C561 1.264 . S
C560 C565 1.479 . S
C560 C570 1.465 . S
C561 C560 1.264 . S
C561 C563 1.339 . S
C561 H588 0.931 . S
C562 C563 1.395 . S
C562 C564 1.320 . S
C563 C561 1.339 . S
C563 C562 1.395 . S
C563 H589 0.929 . S
C564 C562 1.320 . S
C564 C565 1.405 . S
C564 H590 0.930 . S
C565 C560 1.479 . S
C565 C564 1.405 . S
C565 H591 0.931 . S
U566 O567 2.454 . S
U566 O568 2.458 . S
U566 C569 2.984 . S
U566 C570 2.847 1_565 S
U566 C583 2.882 . S
U566 O584 2.441 1_565 S
U566 O585 2.420 . S
U566 O586 2.455 . S
U566 O587 2.449 . S
O567 U566 2.454 . S
O567 C569 1.353 . S
O568 U566 2.458 . S
O568 C569 1.286 . S
C569 U566 2.984 . S
C569 O567 1.353 . S
C569 O568 1.286 . S
C569 C571 1.363 . S
C570 C560 1.465 . S
C570 U566 2.847 1_545 S
C570 O584 1.249 . S
C570 O585 1.202 1_545 S
C571 C569 1.363 . S
C571 C573 1.408 . S
C571 C576 1.342 . S
C572 C573 1.310 . S
C572 C575 1.461 . S
C572 H592 0.932 . S
C573 C571 1.408 . S
C573 C572 1.310 . S
C573 H593 0.930 . S
C574 C575 1.474 . S
C574 C576 1.285 . S
C574 H594 0.929 . S
C575 C572 1.461 . S
C575 C574 1.474 . S
C576 C571 1.342 . S
C576 C574 1.285 . S
C576 H595 0.930 . S
C577 C580 1.424 . S
C577 C582 1.245 . S
C577 C583 1.428 . S
C578 C581 1.260 1_455 S
C578 C582 1.477 . S
C578 H596 0.932 . S
C579 C580 1.384 1_655 S
C579 C581 1.479 . S
C579 H597 0.929 . S
C580 C577 1.424 . S
C580 C579 1.384 1_455 S
C580 H598 0.928 . S
C581 C578 1.260 1_655 S
C581 C579 1.479 . S
C582 C577 1.245 . S
C582 C578 1.477 . S
C582 H599 0.932 . S
C583 U566 2.882 . S
C583 C577 1.428 . S
C583 O586 1.301 . S
C583 O587 1.282 . S
O584 U566 2.441 1_545 S
O584 C570 1.249 . S
O585 U566 2.420 . S
O585 C570 1.202 1_565 S
O586 U566 2.455 . S
O586 C583 1.301 . S
O587 U566 2.449 . S
O587 C583 1.282 . S
H588 C561 0.931 . S
H589 C563 0.929 . S
H590 C564 0.930 . S
H591 C565 0.931 . S
H592 C572 0.932 . S
H593 C573 0.930 . S
H594 C574 0.929 . S
H595 C576 0.930 . S
H596 C578 0.932 . S
H597 C579 0.929 . S
H598 C580 0.928 . S
H599 C582 0.932 . S
C600 C601 1.264 . S
C600 C605 1.479 . S
C600 C610 1.465 . S
C601 C600 1.264 . S
C601 C603 1.339 . S
C601 H628 0.931 . S
C602 C603 1.395 . S
C602 C604 1.320 . S
C603 C601 1.339 . S
C603 C602 1.395 . S
C603 H629 0.929 . S
C604 C602 1.320 . S
C604 C605 1.405 . S
C604 H630 0.930 . S
C605 C600 1.479 . S
C605 C604 1.405 . S
C605 H631 0.931 . S
U606 O607 2.454 . S
U606 O608 2.458 1_545 S
U606 C609 2.984 1_545 S
U606 C610 2.847 . S
U606 C623 2.882 1_545 S
U606 O624 2.441 . S
U606 O625 2.420 . S
U606 O626 2.455 1_545 S
U606 O627 2.449 . S
O607 U606 2.454 . S
O607 C609 1.353 1_545 S
O608 U606 2.458 1_565 S
O608 C609 1.286 . S
C609 U606 2.984 1_565 S
C609 O607 1.353 1_565 S
C609 O608 1.286 . S
C609 C611 1.363 . S
C610 C600 1.465 . S
C610 U606 2.847 . S
C610 O624 1.249 . S
C610 O625 1.202 . S
C611 C609 1.363 . S
C611 C613 1.408 . S
C611 C616 1.342 . S
C612 C613 1.310 . S
C612 C615 1.461 . S
C612 H632 0.932 . S
C613 C611 1.408 . S
C613 C612 1.310 . S
C613 H633 0.930 . S
C614 C615 1.474 . S
C614 C616 1.285 . S
C614 H634 0.929 . S
C615 C612 1.461 . S
C615 C614 1.474 . S
C616 C611 1.342 . S
C616 C614 1.285 . S
C616 H635 0.930 . S
C617 C620 1.424 . S
C617 C622 1.245 . S
C617 C623 1.428 . S
C618 C621 1.260 . S
C618 C622 1.477 . S
C618 H636 0.932 . S
C619 C620 1.384 . S
C619 C621 1.479 . S
C619 H637 0.929 . S
C620 C617 1.424 . S
C620 C619 1.384 . S
C620 H638 0.928 . S
C621 C618 1.260 . S
C621 C619 1.479 . S
C622 C617 1.245 . S
C622 C618 1.477 . S
C622 H639 0.932 . S
C623 U606 2.882 1_565 S
C623 C617 1.428 . S
C623 O626 1.301 . S
C623 O627 1.282 1_565 S
O624 U606 2.441 . S
O624 C610 1.249 . S
O625 U606 2.420 . S
O625 C610 1.202 . S
O626 U606 2.455 1_565 S
O626 C623 1.301 . S
O627 U606 2.449 . S
O627 C623 1.282 1_545 S
H628 C601 0.931 . S
H629 C603 0.929 . S
H630 C604 0.930 . S
H631 C605 0.931 . S
H632 C612 0.932 . S
H633 C613 0.930 . S
H634 C614 0.929 . S
H635 C616 0.930 . S
H636 C618 0.932 . S
H637 C619 0.929 . S
H638 C620 0.928 . S
H639 C622 0.932 . S
C640 C641 1.369 . S
C640 C642 1.419 . S
C640 H644 0.930 . S
C641 C640 1.369 . S
C641 C650 1.429 . S
C642 C640 1.419 . S
C642 C643 1.363 . S
C642 H645 0.929 . S
C643 C642 1.363 . S
C643 C649 1.428 . S
H644 C640 0.930 . S
H645 C642 0.929 . S
S646 N647 1.613 . S
S646 N648 1.610 . S
N647 S646 1.613 . S
N647 C650 1.350 . S
N648 S646 1.610 . S
N648 C649 1.351 . S
C649 C643 1.428 . S
C649 N648 1.351 . S
C649 C650 1.434 . S
C650 C641 1.429 . S
C650 N647 1.350 . S
C650 C649 1.434 . S
C651 C652 1.369 . S
C651 C653 1.419 . S
C651 H655 0.930 . S
C652 C651 1.369 . S
C652 C661 1.429 . S
C653 C651 1.419 . S
C653 C654 1.363 . S
C653 H656 0.929 . S
C654 C653 1.363 . S
C654 C660 1.428 . S
H655 C651 0.930 . S
H656 C653 0.929 . S
S657 N658 1.613 . S
S657 N659 1.610 . S
N658 S657 1.613 . S
N658 C661 1.350 . S
N659 S657 1.610 . S
N659 C660 1.351 . S
C660 C654 1.428 . S
C660 N659 1.351 . S
C660 C661 1.434 . S
C661 C652 1.429 . S
C661 N658 1.350 . S
C661 C660 1.434 . S
C662 C663 1.369 . S
C662 C664 1.419 . S
C662 H666 0.930 . S
C663 C662 1.369 . S
C663 C672 1.429 . S
C664 C662 1.419 . S
C664 C665 1.363 . S
C664 H667 0.929 . S
C665 C664 1.363 . S
C665 C671 1.428 . S
H666 C662 0.930 . S
H667 C664 0.929 . S
S668 N669 1.613 . S
S668 N670 1.610 . S
N669 S668 1.613 . S
N669 C672 1.350 . S
N670 S668 1.610 . S
N670 C671 1.351 . S
C671 C665 1.428 . S
C671 N670 1.351 . S
C671 C672 1.434 . S
C672 C663 1.429 . S
C672 N669 1.350 . S
C672 C671 1.434 . S
C673 C674 1.369 . S
C673 C675 1.419 . S
C673 H677 0.930 . S
C674 C673 1.369 . S
C674 C683 1.429 . S
C675 C673 1.419 . S
C675 C676 1.363 . S
C675 H678 0.929 . S
C676 C675 1.363 . S
C676 C682 1.428 . S
H677 C673 0.930 . S
H678 C675 0.929 . S
S679 N680 1.613 . S
S679 N681 1.610 . S
N680 S679 1.613 . S
N680 C683 1.350 . S
N681 S679 1.610 . S
N681 C682 1.351 . S
C682 C676 1.428 . S
C682 N681 1.351 . S
C682 C683 1.434 . S
C683 C674 1.429 . S
C683 N680 1.350 . S
C683 C682 1.434 . S
C684 C685 1.369 . S
C684 C686 1.419 . S
C684 H688 0.930 . S
C685 C684 1.369 . S
C685 C694 1.429 . S
C686 C684 1.419 . S
C686 C687 1.363 . S
C686 H689 0.929 . S
C687 C686 1.363 . S
C687 C693 1.428 . S
H688 C684 0.930 . S
H689 C686 0.929 . S
S690 N691 1.613 . S
S690 N692 1.610 . S
N691 S690 1.613 . S
N691 C694 1.350 . S
N692 S690 1.610 . S
N692 C693 1.351 . S
C693 C687 1.428 . S
C693 N692 1.351 . S
C693 C694 1.434 . S
C694 C685 1.429 . S
C694 N691 1.350 . S
C694 C693 1.434 . S
C695 C696 1.369 . S
C695 C697 1.419 . S
C695 H699 0.930 . S
C696 C695 1.369 . S
C696 C705 1.429 . S
C697 C695 1.419 . S
C697 C698 1.363 . S
C697 H700 0.929 . S
C698 C697 1.363 . S
C698 C704 1.428 . S
H699 C695 0.930 . S
H700 C697 0.929 . S
S701 N702 1.613 . S
S701 N703 1.610 . S
N702 S701 1.613 . S
N702 C705 1.350 . S
N703 S701 1.610 . S
N703 C704 1.351 . S
C704 C698 1.428 . S
C704 N703 1.351 . S
C704 C705 1.434 . S
C705 C696 1.429 . S
C705 N702 1.350 . S
C705 C704 1.434 . S
C706 C707 1.369 . S
C706 C708 1.419 . S
C706 H710 0.930 . S
C707 C706 1.369 . S
C707 C716 1.429 . S
C708 C706 1.419 . S
C708 C709 1.363 . S
C708 H711 0.929 . S
C709 C708 1.363 . S
C709 C715 1.428 . S
H710 C706 0.930 . S
H711 C708 0.929 . S
S712 N713 1.613 . S
S712 N714 1.610 . S
N713 S712 1.613 . S
N713 C716 1.350 . S
N714 S712 1.610 . S
N714 C715 1.351 . S
C715 C709 1.428 . S
C715 N714 1.351 . S
C715 C716 1.434 . S
C716 C707 1.429 . S
C716 N713 1.350 . S
C716 C715 1.434 . S
C717 C718 1.369 . S
C717 C719 1.419 . S
C717 H721 0.930 . S
C718 C717 1.369 . S
C718 C727 1.429 . S
C719 C717 1.419 . S
C719 C720 1.363 . S
C719 H722 0.929 . S
C720 C719 1.363 . S
C720 C726 1.428 . S
H721 C717 0.930 . S
H722 C719 0.929 . S
S723 N724 1.613 . S
S723 N725 1.610 . S
N724 S723 1.613 . S
N724 C727 1.350 . S
N725 S723 1.610 . S
N725 C726 1.351 . S
C726 C720 1.428 . S
C726 N725 1.351 . S
C726 C727 1.434 . S
C727 C718 1.429 . S
C727 N724 1.350 . S
C727 C726 1.434 . S
C728 C729 1.369 . S
C728 C730 1.419 . S
C728 H732 0.930 . S
C729 C728 1.369 . S
C729 C738 1.429 . S
C730 C728 1.419 . S
C730 C731 1.363 . S
C730 H733 0.929 . S
C731 C730 1.363 . S
C731 C737 1.428 . S
H732 C728 0.930 . S
H733 C730 0.929 . S
S734 N735 1.613 . S
S734 N736 1.610 1_556 S
N735 S734 1.613 . S
N735 C738 1.350 1_556 S
N736 S734 1.610 1_554 S
N736 C737 1.351 . S
C737 C731 1.428 . S
C737 N736 1.351 . S
C737 C738 1.434 . S
C738 C729 1.429 . S
C738 N735 1.350 1_554 S
C738 C737 1.434 . S
C739 C740 1.369 . S
C739 C741 1.419 . S
C739 H743 0.930 . S
C740 C739 1.369 . S
C740 C749 1.429 . S
C741 C739 1.419 . S
C741 C742 1.363 . S
C741 H744 0.929 1_556 S
C742 C741 1.363 . S
C742 C748 1.428 . S
H743 C739 0.930 . S
H744 C741 0.929 1_554 S
S745 N746 1.613 . S
S745 N747 1.610 . S
N746 S745 1.613 . S
N746 C749 1.350 . S
N747 S745 1.610 . S
N747 C748 1.351 . S
C748 C742 1.428 . S
C748 N747 1.351 . S
C748 C749 1.434 . S
C749 C740 1.429 . S
C749 N746 1.350 . S
C749 C748 1.434 . S
C750 C751 1.369 . S
C750 C752 1.419 . S
C750 H754 0.930 . S
C751 C750 1.369 . S
C751 C760 1.429 . S
C752 C750 1.419 . S
C752 C753 1.363 . S
C752 H755 0.929 . S
C753 C752 1.363 . S
C753 C759 1.428 1_554 S
H754 C750 0.930 . S
H755 C752 0.929 . S
S756 N757 1.613 . S
S756 N758 1.610 . S
N757 S756 1.613 . S
N757 C760 1.350 1_556 S
N758 S756 1.610 . S
N758 C759 1.351 . S
C759 C753 1.428 1_556 S
C759 N758 1.351 . S
C759 C760 1.434 1_556 S
C760 C751 1.429 . S
C760 N757 1.350 1_554 S
C760 C759 1.434 1_554 S
C761 C762 1.369 . S
C761 C763 1.419 . S
C761 H765 0.930 . S
C762 C761 1.369 . S
C762 C771 1.429 . S
C763 C761 1.419 . S
C763 C764 1.363 . S
C763 H766 0.929 . S
C764 C763 1.363 . S
C764 C770 1.428 . S
H765 C761 0.930 . S
H766 C763 0.929 . S
S767 N768 1.613 . S
S767 N769 1.610 . S
N768 S767 1.613 . S
N768 C771 1.350 . S
N769 S767 1.610 . S
N769 C770 1.351 . S
C770 C764 1.428 . S
C770 N769 1.351 . S
C770 C771 1.434 . S
C771 C762 1.429 . S
C771 N768 1.350 . S
C771 C770 1.434 . S
C772 C773 1.369 . S
C772 C774 1.419 . S
C772 H776 0.930 . S
C773 C772 1.369 . S
C773 C782 1.429 . S
C774 C772 1.419 . S
C774 C775 1.363 . S
C774 H777 0.929 . S
C775 C774 1.363 . S
C775 C781 1.428 . S
H776 C772 0.930 . S
H777 C774 0.929 . S
S778 N779 1.613 . S
S778 N780 1.610 . S
N779 S778 1.613 . S
N779 C782 1.350 . S
N780 S778 1.610 . S
N780 C781 1.351 . S
C781 C775 1.428 . S
C781 N780 1.351 . S
C781 C782 1.434 . S
C782 C773 1.429 . S
C782 N779 1.350 . S
C782 C781 1.434 . S
C783 C784 1.369 . S
C783 C785 1.419 . S
C783 H787 0.930 . S
C784 C783 1.369 . S
C784 C793 1.429 . S
C785 C783 1.419 . S
C785 C786 1.363 . S
C785 H788 0.929 . S
C786 C785 1.363 . S
C786 C792 1.428 . S
H787 C783 0.930 . S
H788 C785 0.929 . S
S789 N790 1.613 . S
S789 N791 1.610 . S
N790 S789 1.613 . S
N790 C793 1.350 . S
N791 S789 1.610 . S
N791 C792 1.351 . S
C792 C786 1.428 . S
C792 N791 1.351 . S
C792 C793 1.434 . S
C793 C784 1.429 . S
C793 N790 1.350 . S
C793 C792 1.434 . S
C794 C795 1.369 . S
C794 C796 1.419 . S
C794 H798 0.930 . S
C795 C794 1.369 . S
C795 C804 1.429 . S
C796 C794 1.419 . S
C796 C797 1.363 . S
C796 H799 0.929 . S
C797 C796 1.363 . S
C797 C803 1.428 . S
H798 C794 0.930 . S
H799 C796 0.929 . S
S800 N801 1.613 . S
S800 N802 1.610 . S
N801 S800 1.613 . S
N801 C804 1.350 . S
N802 S800 1.610 . S
N802 C803 1.351 . S
C803 C797 1.428 . S
C803 N802 1.351 . S
C803 C804 1.434 . S
C804 C795 1.429 . S
C804 N801 1.350 . S
C804 C803 1.434 . S
C805 C806 1.369 . S
C805 C807 1.419 . S
C805 H809 0.930 . S
C806 C805 1.369 . S
C806 C815 1.429 . S
C807 C805 1.419 . S
C807 C808 1.363 . S
C807 H810 0.929 . S
C808 C807 1.363 . S
C808 C814 1.428 . S
H809 C805 0.930 . S
H810 C807 0.929 . S
S811 N812 1.613 . S
S811 N813 1.610 . S
N812 S811 1.613 . S
N812 C815 1.350 . S
N813 S811 1.610 . S
N813 C814 1.351 . S
C814 C808 1.428 . S
C814 N813 1.351 . S
C814 C815 1.434 . S
C815 C806 1.429 . S
C815 N812 1.350 . S
C815 C814 1.434 . S
C816 C817 1.369 . S
C816 C818 1.419 . S
C816 H820 0.930 . S
C817 C816 1.369 . S
C817 C826 1.429 . S
C818 C816 1.419 . S
C818 C819 1.363 . S
C818 H821 0.929 . S
C819 C818 1.363 . S
C819 C825 1.428 . S
H820 C816 0.930 . S
H821 C818 0.929 . S
S822 N823 1.613 . S
S822 N824 1.610 . S
N823 S822 1.613 . S
N823 C826 1.350 . S
N824 S822 1.610 . S
N824 C825 1.351 . S
C825 C819 1.428 . S
C825 N824 1.351 . S
C825 C826 1.434 . S
C826 C817 1.429 . S
C826 N823 1.350 . S
C826 C825 1.434 . S
C827 C828 1.369 . S
C827 C829 1.419 . S
C827 H831 0.930 . S
C828 C827 1.369 . S
C828 C837 1.429 . S
C829 C827 1.419 . S
C829 C830 1.363 . S
C829 H832 0.929 . S
C830 C829 1.363 . S
C830 C836 1.428 . S
H831 C827 0.930 . S
H832 C829 0.929 . S
S833 N834 1.613 . S
S833 N835 1.610 . S
N834 S833 1.613 . S
N834 C837 1.350 . S
N835 S833 1.610 . S
N835 C836 1.351 . S
C836 C830 1.428 . S
C836 N835 1.351 . S
C836 C837 1.434 . S
C837 C828 1.429 . S
C837 N834 1.350 . S
C837 C836 1.434 . S
C838 C839 1.369 . S
C838 C840 1.419 . S
C838 H842 0.930 . S
C839 C838 1.369 . S
C839 C848 1.429 . S
C840 C838 1.419 . S
C840 C841 1.363 . S
C840 H843 0.929 . S
C841 C840 1.363 . S
C841 C847 1.428 . S
H842 C838 0.930 . S
H843 C840 0.929 . S
S844 N845 1.613 . S
S844 N846 1.610 . S
N845 S844 1.613 . S
N845 C848 1.350 . S
N846 S844 1.610 . S
N846 C847 1.351 . S
C847 C841 1.428 . S
C847 N846 1.351 . S
C847 C848 1.434 . S
C848 C839 1.429 . S
C848 N845 1.350 . S
C848 C847 1.434 . S
C849 C850 1.369 . S
C849 C851 1.419 . S
C849 H853 0.930 1_455 S
C850 C849 1.369 . S
C850 C859 1.429 . S
C851 C849 1.419 . S
C851 C852 1.363 . S
C851 H854 0.929 1_455 S
C852 C851 1.363 . S
C852 C858 1.428 . S
H853 C849 0.930 1_655 S
H854 C851 0.929 1_655 S
S855 N856 1.613 . S
S855 N857 1.610 . S
N856 S855 1.613 . S
N856 C859 1.350 . S
N857 S855 1.610 . S
N857 C858 1.351 . S
C858 C852 1.428 . S
C858 N857 1.351 . S
C858 C859 1.434 . S
C859 C850 1.429 . S
C859 N856 1.350 . S
C859 C858 1.434 . S
C860 C861 1.369 . S
C860 C862 1.419 . S
C860 H864 0.930 1_565 S
C861 C860 1.369 . S
C861 C870 1.429 . S
C862 C860 1.419 . S
C862 C863 1.363 . S
C862 H865 0.929 1_565 S
C863 C862 1.363 . S
C863 C869 1.428 . S
H864 C860 0.930 1_545 S
H865 C862 0.929 1_545 S
S866 N867 1.613 . S
S866 N868 1.610 . S
N867 S866 1.613 . S
N867 C870 1.350 . S
N868 S866 1.610 . S
N868 C869 1.351 . S
C869 C863 1.428 . S
C869 N868 1.351 . S
C869 C870 1.434 . S
C870 C861 1.429 . S
C870 N867 1.350 . S
C870 C869 1.434 . S
C871 C872 1.369 . S
C871 C873 1.419 . S
C871 H875 0.930 . S
C872 C871 1.369 . S
C872 C881 1.429 . S
C873 C871 1.419 . S
C873 C874 1.363 . S
C873 H876 0.929 . S
C874 C873 1.363 . S
C874 C880 1.428 . S
H875 C871 0.930 . S
H876 C873 0.929 . S
S877 N878 1.613 . S
S877 N879 1.610 . S
N878 S877 1.613 . S
N878 C881 1.350 . S
N879 S877 1.610 . S
N879 C880 1.351 . S
C880 C874 1.428 . S
C880 N879 1.351 . S
C880 C881 1.434 . S
C881 C872 1.429 . S
C881 N878 1.350 . S
C881 C880 1.434 . S
C882 C883 1.369 . S
C882 C884 1.419 . S
C882 H886 0.930 . S
C883 C882 1.369 . S
C883 C892 1.429 . S
C884 C882 1.419 . S
C884 C885 1.363 . S
C884 H887 0.929 . S
C885 C884 1.363 . S
C885 C891 1.428 . S
H886 C882 0.930 . S
H887 C884 0.929 . S
S888 N889 1.613 . S
S888 N890 1.610 . S
N889 S888 1.613 . S
N889 C892 1.350 . S
N890 S888 1.610 . S
N890 C891 1.351 . S
C891 C885 1.428 . S
C891 N890 1.351 . S
C891 C892 1.434 . S
C892 C883 1.429 . S
C892 N889 1.350 . S
C892 C891 1.434 . S
C893 C894 1.369 . S
C893 C895 1.419 . S
C893 H897 0.930 . S
C894 C893 1.369 . S
C894 C903 1.429 . S
C895 C893 1.419 . S
C895 C896 1.363 . S
C895 H898 0.929 . S
C896 C895 1.363 . S
C896 C902 1.428 . S
H897 C893 0.930 . S
H898 C895 0.929 . S
S899 N900 1.613 . S
S899 N901 1.610 . S
N900 S899 1.613 . S
N900 C903 1.350 . S
N901 S899 1.610 . S
N901 C902 1.351 . S
C902 C896 1.428 . S
C902 N901 1.351 . S
C902 C903 1.434 . S
C903 C894 1.429 . S
C903 N900 1.350 . S
C903 C902 1.434 . S
C641 C21 1.234 . S
C643 C301 1.602 . S
C652 C61 1.641 . S
C654 C181 1.278 . S
C663 C101 1.520 . S
C665 C221 1.642 . S
C674 C261 1.472 . S
C676 C141 1.602 . S
C685 C621 1.279 . S
C687 C341 1.638 . S
C696 C501 1.668 . S
C698 C381 1.278 . S
C707 C421 1.531 . S
C709 C541 1.459 . S
C718 C461 1.463 . S
C720 C581 1.522 . S
C729 C335 2.961 1_554 S
C731 C2 2.746 . S
C740 C375 2.744 . S
C742 C42 2.812 1_556 S
C751 C95 2.789 . S
C753 C402 3.023 1_554 S
C762 C442 2.997 . S
C764 C122 2.920 1_556 S
C773 C495 2.858 . S
C775 C162 2.633 . S
C784 C522 2.981 . S
C786 C202 2.908 . S
C795 C562 3.099 . S
C797 C255 2.867 . S
C806 C282 2.814 . S
C808 C615 2.758 . S
C817 C242 2.751 . S
C819 C15 2.662 . S
C828 C295 2.053 . S
C830 C55 2.062 . S
C839 C82 2.725 . S
C841 C175 2.641 . S
C850 C135 2.109 . S
C852 C215 2.116 . S
C861 C575 2.099 . S
C863 C322 2.093 . S
C872 C602 2.642 . S
C874 C362 2.623 . S
C883 C415 2.032 . S
C885 C482 2.031 . S
C894 C455 2.713 . S
C896 C535 2.694 . S
