# Generated by pormake.
# Topology sol, (6)-cn, num edge types: 1
# Building blocks:
#     Node 0, Type 0, BuildingBlock: OJICUG_clean_sbu_0, # of connection points: 6
#     Node 1, Type 0, BuildingBlock: OJICUG_clean_sbu_0, # of connection points: 6
#     Node 2, Type 0, BuildingBlock: OJICUG_clean_sbu_0, # of connection points: 6
#     Node 3, Type 0, BuildingBlock: OJICUG_clean_sbu_0, # of connection points: 6
#     Node 4, Type 0, BuildingBlock: OJICUG_clean_sbu_0, # of connection points: 6
#     Node 5, Type 0, BuildingBlock: OJICUG_clean_sbu_0, # of connection points: 6
#     Node 6, Type 0, BuildingBlock: OJICUG_clean_sbu_0, # of connection points: 6
#     Node 7, Type 0, BuildingBlock: OJICUG_clean_sbu_0, # of connection points: 6
#     Edge 8, Type (0, 0), BuildingBlock: CIFDUS_clean_linker_0, # of connection points: 2
#     Edge 9, Type (0, 0), BuildingBlock: CIFDUS_clean_linker_0, # of connection points: 2
#     Edge 10, Type (0, 0), BuildingBlock: CIFDUS_clean_linker_0, # of connection points: 2
#     Edge 11, Type (0, 0), BuildingBlock: CIFDUS_clean_linker_0, # of connection points: 2
#     Edge 12, Type (0, 0), BuildingBlock: CIFDUS_clean_linker_0, # of connection points: 2
#     Edge 13, Type (0, 0), BuildingBlock: CIFDUS_clean_linker_0, # of connection points: 2
#     Edge 14, Type (0, 0), BuildingBlock: CIFDUS_clean_linker_0, # of connection points: 2
#     Edge 15, Type (0, 0), BuildingBlock: CIFDUS_clean_linker_0, # of connection points: 2
#     Edge 16, Type (0, 0), BuildingBlock: CIFDUS_clean_linker_0, # of connection points: 2
#     Edge 17, Type (0, 0), BuildingBlock: CIFDUS_clean_linker_0, # of connection points: 2
#     Edge 18, Type (0, 0), BuildingBlock: CIFDUS_clean_linker_0, # of connection points: 2
#     Edge 19, Type (0, 0), BuildingBlock: CIFDUS_clean_linker_0, # of connection points: 2
#     Edge 20, Type (0, 0), BuildingBlock: CIFDUS_clean_linker_0, # of connection points: 2
#     Edge 21, Type (0, 0), BuildingBlock: CIFDUS_clean_linker_0, # of connection points: 2
#     Edge 22, Type (0, 0), BuildingBlock: CIFDUS_clean_linker_0, # of connection points: 2
#     Edge 23, Type (0, 0), BuildingBlock: CIFDUS_clean_linker_0, # of connection points: 2
#     Edge 24, Type (0, 0), BuildingBlock: CIFDUS_clean_linker_0, # of connection points: 2
#     Edge 25, Type (0, 0), BuildingBlock: CIFDUS_clean_linker_0, # of connection points: 2
#     Edge 26, Type (0, 0), BuildingBlock: CIFDUS_clean_linker_0, # of connection points: 2
#     Edge 27, Type (0, 0), BuildingBlock: CIFDUS_clean_linker_0, # of connection points: 2
#     Edge 28, Type (0, 0), BuildingBlock: CIFDUS_clean_linker_0, # of connection points: 2
#     Edge 29, Type (0, 0), BuildingBlock: CIFDUS_clean_linker_0, # of connection points: 2
#     Edge 30, Type (0, 0), BuildingBlock: CIFDUS_clean_linker_0, # of connection points: 2
#     Edge 31, Type (0, 0), BuildingBlock: CIFDUS_clean_linker_0, # of connection points: 2
# Relax obj value: 0.163
# Max RMSD: 0.156
# Mean RMSD: 0.156
data_MOF--net-sol--node1-OJICUG_clean_sbu_0--edge1-CIFDUS_clean_linker_0
_symmetry_space_group_name_H-M    P1
_symmetry_Int_Tables_number       1
_symmetry_cell_setting            triclinic
loop_
_symmetry_equiv_pos_as_xyz
'x, y, z'
_cell_length_a     30.689382
_cell_length_b     25.172895
_cell_length_c     27.008429
_cell_angle_alpha  89.666465
_cell_angle_beta   90.57593
_cell_angle_gamma 90.207228
loop_
_atom_site_label
_atom_site_type_symbol
_atom_site_fract_x
_atom_site_fract_y
_atom_site_fract_z
_atom_type_partial_charge
Sc0 Sc 0.22628 0.21434 0.07557 0.0
Sc1 Sc 0.1174 0.2125 0.03122 0.0
Sc2 Sc 0.14933 0.13553 0.13474 0.0
O3 O 0.16441 0.18674 0.0799 0.0
C4 C 0.24236 0.0942 0.0995 0.0
C5 C 0.19758 0.20276 0.96051 0.0
C6 C 0.08908 0.09071 0.04794 0.0
C7 C 0.17141 0.3172 0.05404 0.0
C8 C 0.21621 0.20906 0.19303 0.0
C9 C 0.07059 0.21738 0.13507 0.0
O10 O 0.25335 0.13591 0.07595 0.0
O11 O 0.15695 0.19518 0.96727 0.0
O12 O 0.11336 0.08389 0.08586 0.0
O13 O 0.20275 0.29374 0.07594 0.0
O14 O 0.18185 0.1811 0.19071 0.0
O15 O 0.07507 0.23504 0.09118 0.0
O16 O 0.23795 0.22149 0.15488 0.0
O17 O 0.14104 0.29327 0.0309 0.0
O18 O 0.0926 0.1792 0.15306 0.0
O19 O 0.22409 0.21241 0.99591 0.0
O20 O 0.2068 0.08934 0.12295 0.0
O21 O 0.08626 0.13515 0.02537 0.0
Sc22 Sc 0.32423 0.34884 0.62868 0.0
Sc23 Sc 0.38269 0.26146 0.55371 0.0
Sc24 Sc 0.26913 0.24786 0.56595 0.0
O25 O 0.32525 0.28668 0.58205 0.0
C26 C 0.25708 0.27052 0.68075 0.0
C27 C 0.40539 0.282 0.66679 0.0
C28 C 0.33461 0.15296 0.57602 0.0
C29 C 0.39726 0.3884 0.55608 0.0
C30 C 0.23751 0.36563 0.56386 0.0
C31 C 0.31903 0.25359 0.46152 0.0
O32 O 0.28715 0.30522 0.68242 0.0
O33 O 0.40976 0.25345 0.62824 0.0
O34 O 0.29815 0.17387 0.58527 0.0
O35 O 0.3633 0.39852 0.58094 0.0
O36 O 0.23531 0.31924 0.54604 0.0
O37 O 0.3568 0.26623 0.4782 0.0
O38 O 0.26644 0.38052 0.59486 0.0
O39 O 0.40884 0.34112 0.54632 0.0
O40 O 0.28733 0.24169 0.48962 0.0
O41 O 0.38048 0.32208 0.66814 0.0
O42 O 0.24413 0.24932 0.64063 0.0
O43 O 0.36642 0.17816 0.55759 0.0
Sc44 Sc 0.65691 0.33012 0.87232 0.0
Sc45 Sc 0.62483 0.26138 0.98025 0.0
Sc46 Sc 0.73291 0.25304 0.93668 0.0
O47 O 0.67164 0.28213 0.93026 0.0
C48 C 0.71935 0.24852 0.81931 0.0
C49 C 0.57494 0.25285 0.87716 0.0
C50 C 0.67579 0.15358 0.96577 0.0
C51 C 0.59999 0.38298 0.95587 0.0
C52 C 0.752 0.37036 0.90368 0.0
C53 C 0.70709 0.27554 0.05048 0.0
O54 O 0.68635 0.27864 0.81957 0.0
O55 O 0.58032 0.23675 0.92156 0.0
O56 O 0.70774 0.17435 0.94319 0.0
O57 O 0.62399 0.38708 0.91792 0.0
O58 O 0.76232 0.33018 0.92987 0.0
O59 O 0.6662 0.28158 0.04344 0.0
O60 O 0.71599 0.37466 0.88039 0.0
O61 O 0.59647 0.34004 0.98073 0.0
O62 O 0.73289 0.26314 0.0158 0.0
O63 O 0.59792 0.28873 0.85711 0.0
O64 O 0.74156 0.23823 0.85815 0.0
O65 O 0.64559 0.17997 0.98564 0.0
Sc66 Sc 0.85658 0.14667 0.37285 0.0
Sc67 Sc 0.89663 0.21827 0.4758 0.0
Sc68 Sc 0.7833 0.21413 0.44731 0.0
O69 O 0.84552 0.19258 0.43249 0.0
C70 C 0.7821 0.22109 0.32882 0.0
C71 C 0.93426 0.23011 0.36702 0.0
C72 C 0.83701 0.32025 0.46592 0.0
C73 C 0.92465 0.09879 0.45167 0.0
C74 C 0.76906 0.0957 0.41512 0.0
C75 C 0.82379 0.19691 0.55675 0.0
O76 O 0.81661 0.19405 0.32423 0.0
O77 O 0.93493 0.24304 0.41248 0.0
O78 O 0.80315 0.29503 0.45215 0.0
O79 O 0.89926 0.09432 0.4143 0.0
O80 O 0.75851 0.13441 0.44241 0.0
O81 O 0.8637 0.1985 0.54422 0.0
O82 O 0.80291 0.09535 0.38847 0.0
O83 O 0.92735 0.14109 0.47715 0.0
O84 O 0.79269 0.20279 0.52573 0.0
O85 O 0.90922 0.19477 0.34948 0.0
O86 O 0.76479 0.2295 0.37063 0.0
O87 O 0.87262 0.2984 0.47861 0.0
Sc88 Sc 0.77524 0.75215 0.94321 0.0
Sc89 Sc 0.88748 0.75916 0.97413 0.0
Sc90 Sc 0.8444 0.83147 0.87245 0.0
O91 O 0.83576 0.78142 0.93035 0.0
C92 C 0.77369 0.75429 0.8249 0.0
C93 C 0.8355 0.65151 0.95771 0.0
C94 C 0.92785 0.75748 0.86599 0.0
C95 C 0.81284 0.76633 0.05401 0.0
C96 C 0.75413 0.87061 0.9175 0.0
C97 C 0.9091 0.88188 0.95343 0.0
O98 O 0.75691 0.7424 0.86628 0.0
O99 O 0.86835 0.67674 0.97437 0.0
O100 O 0.90061 0.79043 0.84843 0.0
O101 O 0.78336 0.75693 0.02192 0.0
O102 O 0.78722 0.87568 0.88988 0.0
O103 O 0.91336 0.83876 0.97781 0.0
O104 O 0.74637 0.82966 0.94372 0.0
O105 O 0.85271 0.77253 0.04258 0.0
O106 O 0.88379 0.88618 0.91591 0.0
O107 O 0.80057 0.6734 0.94246 0.0
O108 O 0.8076 0.78303 0.82136 0.0
O109 O 0.9281 0.74206 0.91095 0.0
Sc110 Sc 0.71878 0.71346 0.43222 0.0
Sc111 Sc 0.61131 0.7141 0.47716 0.0
Sc112 Sc 0.64032 0.6329 0.37707 0.0
O113 O 0.65694 0.68609 0.42947 0.0
C114 C 0.70414 0.70646 0.31531 0.0
C115 C 0.66615 0.81748 0.45267 0.0
C116 C 0.56271 0.71579 0.37324 0.0
C117 C 0.69319 0.70193 0.54764 0.0
C118 C 0.73484 0.59336 0.41075 0.0
C119 C 0.58203 0.59171 0.46496 0.0
O120 O 0.72703 0.71953 0.35279 0.0
O121 O 0.63639 0.79437 0.47702 0.0
O122 O 0.58191 0.67417 0.35891 0.0
O123 O 0.71862 0.7116 0.51172 0.0
O124 O 0.69863 0.58787 0.3881 0.0
O125 O 0.57826 0.63773 0.48385 0.0
O126 O 0.74615 0.63536 0.4333 0.0
O127 O 0.65207 0.69573 0.54174 0.0
O128 O 0.60751 0.58229 0.42927 0.0
O129 O 0.69606 0.79299 0.43032 0.0
O130 O 0.67014 0.67792 0.31879 0.0
O131 O 0.56974 0.73744 0.41511 0.0
Sc132 Sc 0.36222 0.63594 0.12653 0.0
Sc133 Sc 0.39247 0.71459 0.02423 0.0
Sc134 Sc 0.28464 0.71501 0.06852 0.0
O135 O 0.34633 0.68777 0.07236 0.0
C136 C 0.26713 0.59628 0.09404 0.0
C137 C 0.41907 0.59166 0.03954 0.0
C138 C 0.31065 0.70325 0.95348 0.0
C139 C 0.44169 0.71669 0.12776 0.0
C140 C 0.29912 0.71059 0.18555 0.0
C141 C 0.33912 0.81857 0.04794 0.0
O142 O 0.30294 0.59193 0.11769 0.0
O143 O 0.4237 0.63714 0.01911 0.0
O144 O 0.28519 0.71303 0.98916 0.0
O145 O 0.42163 0.67587 0.14323 0.0
O146 O 0.27572 0.72136 0.14777 0.0
O147 O 0.3688 0.79543 0.02387 0.0
O148 O 0.33371 0.6834 0.18301 0.0
O149 O 0.43482 0.73785 0.08547 0.0
O150 O 0.30838 0.79426 0.06955 0.0
O151 O 0.39366 0.5837 0.07574 0.0
O152 O 0.2567 0.63688 0.06856 0.0
O153 O 0.35163 0.69663 0.95973 0.0
Sc154 Sc 0.2293 0.7467 0.5562 0.0
Sc155 Sc 0.1169 0.76133 0.52829 0.0
Sc156 Sc 0.16599 0.83384 0.62549 0.0
O157 O 0.17075 0.78099 0.56967 0.0
C158 C 0.23406 0.75293 0.67404 0.0
C159 C 0.16327 0.65045 0.54585 0.0
C160 C 0.0804 0.76394 0.63843 0.0
C161 C 0.19013 0.76288 0.44634 0.0
C162 C 0.25627 0.86569 0.57497 0.0
C163 C 0.10083 0.88518 0.54499 0.0
O164 O 0.2481 0.73609 0.63301 0.0
O165 O 0.1312 0.67805 0.53103 0.0
O166 O 0.1097 0.79531 0.65438 0.0
O167 O 0.21988 0.75222 0.47779 0.0
O168 O 0.22351 0.87499 0.60211 0.0
O169 O 0.0949 0.84205 0.52163 0.0
O170 O 0.26256 0.82187 0.55313 0.0
O171 O 0.15066 0.77042 0.45851 0.0
O172 O 0.12645 0.88869 0.58223 0.0
O173 O 0.20007 0.6695 0.55856 0.0
O174 O 0.20339 0.7864 0.67687 0.0
O175 O 0.07772 0.74889 0.59359 0.0
H176 H 0.08975 0.24753 0.22715 0.0
H177 H 0.98517 0.24419 0.11952 0.0
H178 H 0.93245 0.26292 0.18486 0.0
H179 H 0.91603 0.25863 0.2735 0.0
H180 H 0.02054 0.25324 0.38131 0.0
H181 H 0.07404 0.26147 0.31494 0.0
C182 C 0.05547 0.25237 0.21799 0.0
C183 C 0.04079 0.24333 0.16928 0.0
C184 C 0.02568 0.26118 0.25579 0.0
C185 C 0.99679 0.25065 0.15702 0.0
C186 C 0.96681 0.26093 0.19438 0.0
C187 C 0.95056 0.261 0.28242 0.0
C188 C 0.96473 0.25409 0.33176 0.0
C189 C 0.98077 0.26309 0.24409 0.0
C190 C 0.00917 0.25822 0.34347 0.0
C191 C 0.03962 0.26225 0.30551 0.0
H192 H 0.47675 0.21778 0.68139 0.0
H193 H 0.38287 0.31317 0.75883 0.0
H194 H 0.42228 0.30014 0.83604 0.0
H195 H 0.48995 0.27563 0.87853 0.0
H196 H 0.58646 0.18516 0.80168 0.0
H197 H 0.53915 0.18037 0.72836 0.0
C198 C 0.46472 0.23506 0.71529 0.0
C199 C 0.42788 0.26799 0.71378 0.0
C200 C 0.48789 0.22789 0.76007 0.0
C201 C 0.41212 0.28922 0.75835 0.0
C202 C 0.43438 0.28145 0.80285 0.0
C203 C 0.49945 0.25261 0.84656 0.0
C204 C 0.54099 0.2302 0.84533 0.0
C205 C 0.47318 0.25268 0.80381 0.0
C206 C 0.55397 0.20177 0.8034 0.0
C207 C 0.52731 0.19993 0.76121 0.0
H208 H 0.91652 0.73359 0.77013 0.0
H209 H 0.01448 0.74269 0.88538 0.0
H210 H 0.07195 0.7376 0.82322 0.0
H211 H 0.09304 0.74675 0.73608 0.0
H212 H 0.99469 0.74056 0.6209 0.0
H213 H 0.93823 0.72764 0.68326 0.0
C214 C 0.95053 0.73314 0.78161 0.0
C215 C 0.96159 0.73946 0.83187 0.0
C216 C 0.98301 0.73158 0.74576 0.0
C217 C 0.00545 0.73794 0.84678 0.0
C218 C 0.03817 0.7356 0.81125 0.0
C219 C 0.05927 0.74178 0.72466 0.0
C220 C 0.04765 0.74592 0.67426 0.0
C221 C 0.02719 0.73504 0.76062 0.0
C222 C 0.00416 0.738 0.65959 0.0
C223 C 0.97196 0.73086 0.69519 0.0
H224 H 0.58779 0.74421 0.28299 0.0
H225 H 0.47637 0.74247 0.37874 0.0
H226 H 0.42805 0.75697 0.30693 0.0
H227 H 0.41773 0.74847 0.21701 0.0
H228 H 0.52892 0.7391 0.12143 0.0
H229 H 0.57782 0.75204 0.19291 0.0
C230 C 0.55297 0.74879 0.28808 0.0
C231 C 0.53524 0.74172 0.33555 0.0
C232 C 0.52571 0.75441 0.24659 0.0
C233 C 0.49042 0.74795 0.34243 0.0
C234 C 0.46295 0.75562 0.30134 0.0
C235 C 0.45269 0.75113 0.21184 0.0
C236 C 0.47009 0.74235 0.16457 0.0
C237 C 0.48017 0.75574 0.25322 0.0
C238 C 0.51512 0.74599 0.15758 0.0
C239 C 0.5429 0.75271 0.1985 0.0
H240 H 0.01909 0.09317 0.98402 0.0
H241 H 0.09443 -0.01312 0.07704 0.0
H242 H 0.04466 0.91432 0.05749 0.0
H243 H 0.9795 0.88087 0.01535 0.0
H244 H 0.9038 0.98563 0.92139 0.0
H245 H 0.95375 0.05885 0.94043 0.0
C246 C 0.02491 0.05403 0.99964 0.0
C247 C 0.06066 0.04578 0.032 0.0
C248 C 0.9958 0.01221 0.98858 0.0
C249 C 0.0673 -0.0053 0.05212 0.0
C250 C 0.03873 0.95305 0.04108 0.0
C251 C 0.97355 0.91976 0.99924 0.0
C252 C 0.9376 0.92758 0.96718 0.0
C253 C 0.00268 0.96145 0.00977 0.0
C254 C 0.93102 0.97831 0.9463 0.0
C255 C 0.9597 0.02023 0.95705 0.0
H256 H 0.50448 0.59936 0.51332 0.0
H257 H 0.59459 0.48515 0.45449 0.0
H258 H 0.54506 0.41289 0.47618 0.0
H259 H 0.47586 0.38195 0.51031 0.0
H260 H 0.38473 0.49559 0.56824 0.0
H261 H 0.43474 0.56803 0.54787 0.0
C262 C 0.51352 0.55861 0.50578 0.0
C263 C 0.5534 0.54783 0.48246 0.0
C264 C 0.48444 0.51708 0.51758 0.0
C265 C 0.56419 0.49474 0.47236 0.0
C266 C 0.5358 0.45332 0.48462 0.0
C267 C 0.46665 0.42253 0.5183 0.0
C268 C 0.4263 0.433 0.54072 0.0
C269 C 0.49567 0.46404 0.50679 0.0
C270 C 0.41537 0.48607 0.55089 0.0
C271 C 0.44408 0.52763 0.53943 0.0
H272 H 0.49302 0.59533 0.98356 0.0
H273 H 0.40847 0.48654 0.06154 0.0
H274 H 0.45785 0.41358 0.04456 0.0
H275 H 0.52555 0.38048 0.00932 0.0
H276 H 0.61007 0.48779 0.92989 0.0
H277 H 0.56048 0.56138 0.94624 0.0
C278 C 0.4851 0.55556 0.99632 0.0
C279 C 0.44696 0.5467 0.02388 0.0
C280 C 0.51398 0.51352 0.98685 0.0
C281 C 0.43756 0.4948 0.0404 0.0
C282 C 0.4659 0.45293 0.03088 0.0
C283 C 0.53346 0.42005 0.99601 0.0
C284 C 0.57179 0.42858 0.96886 0.0
C285 C 0.50444 0.46193 0.00471 0.0
C286 C 0.58094 0.48005 0.95111 0.0
C287 C 0.55248 0.52215 0.96027 0.0
H288 H 0.99337 0.0977 0.51702 0.0
H289 H 0.92217 -0.00205 0.41451 0.0
H290 H 0.97158 0.92464 0.43251 0.0
H291 H 0.03432 0.88834 0.47751 0.0
H292 H 0.10567 -0.01289 0.58066 0.0
H293 H 0.05709 0.06135 0.56163 0.0
C294 C 0.98844 0.05987 0.49877 0.0
C295 C 0.95381 0.05355 0.46453 0.0
C296 C 0.01723 0.01773 0.50904 0.0
C297 C 0.94837 0.0042 0.44102 0.0
C298 C 0.97672 0.96215 0.45121 0.0
C299 C 0.03965 0.92617 0.49565 0.0
C300 C 0.07383 0.93188 0.53051 0.0
C301 C 0.01128 0.9685 0.48505 0.0
C302 C 0.07977 0.98135 0.55367 0.0
C303 C 0.05186 0.02386 0.54294 0.0
H304 H 0.32596 0.87306 0.12995 0.0
H305 H 0.35126 0.89225 0.9743 0.0
H306 H 0.33009 0.98617 0.97862 0.0
H307 H 0.29057 0.05621 0.02387 0.0
H308 H 0.25962 0.03109 0.17777 0.0
H309 H 0.29724 0.94609 0.17742 0.0
C310 C 0.32781 0.89834 0.0973 0.0
C311 C 0.33911 0.87638 0.05179 0.0
C312 C 0.31395 0.95079 0.09977 0.0
C313 C 0.34235 0.90891 0.00967 0.0
C314 C 0.32985 0.96222 0.01209 0.0
C315 C 0.29312 0.03248 0.05744 0.0
C316 C 0.27182 0.04876 0.10048 0.0
C317 C 0.31343 0.98271 0.05644 0.0
C318 C 0.27516 0.01833 0.14402 0.0
C319 C 0.29667 0.96996 0.14388 0.0
H320 H 0.17135 0.57552 0.47617 0.0
H321 H 0.1433 0.60026 0.63024 0.0
H322 H 0.15329 0.50563 0.64749 0.0
H323 H 0.18692 0.42273 0.6221 0.0
H324 H 0.22092 0.39868 0.46963 0.0
H325 H 0.1904 0.48562 0.44737 0.0
C326 C 0.16594 0.5594 0.51296 0.0
C327 C 0.15709 0.59369 0.55216 0.0
C328 C 0.17324 0.50548 0.52271 0.0
C329 C 0.15027 0.57368 0.59991 0.0
C330 C 0.15616 0.51991 0.60971 0.0
C331 C 0.18597 0.43594 0.58375 0.0
C332 C 0.2064 0.4057 0.54753 0.0
C333 C 0.17012 0.48628 0.57196 0.0
C334 C 0.20517 0.42202 0.49786 0.0
C335 C 0.18826 0.47181 0.48535 0.0
H336 H 0.80145 0.40992 0.97859 0.0
H337 H 0.76718 0.43328 0.82467 0.0
H338 H 0.79961 0.52173 0.82599 0.0
H339 H 0.82287 0.59755 0.87501 0.0
H340 H 0.85281 0.57836 0.03013 0.0
H341 H 0.83767 0.48263 0.02452 0.0
C342 C 0.80245 0.4339 0.9451 0.0
C343 C 0.78134 0.41617 0.90192 0.0
C344 C 0.81966 0.4855 0.94668 0.0
C345 C 0.78266 0.44703 0.85852 0.0
C346 C 0.80106 0.49747 0.85927 0.0
C347 C 0.82715 0.57189 0.90716 0.0
C348 C 0.83798 0.59404 0.95297 0.0
C349 C 0.81731 0.51801 0.90378 0.0
C350 C 0.8442 0.56136 0.99458 0.0
C351 C 0.83527 0.50698 0.99139 0.0
H352 H 0.71942 0.05249 0.48819 0.0
H353 H 0.75438 0.03566 0.33462 0.0
H354 H 0.71618 0.95105 0.33049 0.0
H355 H 0.68427 0.87616 0.37361 0.0
H356 H 0.6535 0.88731 0.52844 0.0
H357 H 0.6773 0.98059 0.52895 0.0
C358 C 0.71784 0.03057 0.45376 0.0
C359 C 0.74047 0.04917 0.41217 0.0
C360 C 0.69675 0.98108 0.45197 0.0
C361 C 0.73808 0.02109 0.36745 0.0
C362 C 0.71612 0.97295 0.36494 0.0
C363 C 0.68189 0.89955 0.40715 0.0
C364 C 0.66817 0.87542 0.45106 0.0
C365 C 0.69709 0.95166 0.40747 0.0
C366 C 0.66424 0.90562 0.49426 0.0
C367 C 0.67825 0.95857 0.49462 0.0
H368 H 0.67392 0.09219 0.88671 0.0
H369 H 0.67339 0.08753 0.04604 0.0
H370 H 0.6895 -0.00802 0.04506 0.0
H371 H 0.71852 0.91585 0.99824 0.0
H372 H 0.72392 0.9253 0.83891 0.0
H373 H 0.68991 0.01258 0.83999 0.0
C374 C 0.67613 0.06963 0.92105 0.0
C375 C 0.67333 0.09589 0.96628 0.0
C376 C 0.68658 0.01591 0.92 0.0
C377 C 0.67568 0.06728 0.01087 0.0
C378 C 0.68518 0.01302 0.01024 0.0
C379 C 0.71086 0.93656 0.96391 0.0
C380 C 0.72418 0.91538 0.91866 0.0
C381 C 0.69291 -0.01235 0.965 0.0
C382 C 0.7144 0.94188 0.87412 0.0
C383 C 0.6951 -0.00838 0.87472 0.0
H384 H 0.78538 0.55689 0.48642 0.0
H385 H 0.75024 0.52959 0.33353 0.0
H386 H 0.78848 0.445 0.33513 0.0
H387 H 0.81936 0.37293 0.38371 0.0
H388 H 0.84937 0.39442 0.53835 0.0
H389 H 0.82662 0.48789 0.53262 0.0
C390 C 0.78716 0.53279 0.45333 0.0
C391 C 0.76457 0.54829 0.41025 0.0
C392 C 0.80786 0.48329 0.45509 0.0
C393 C 0.76684 0.51739 0.36732 0.0
C394 C 0.78868 0.46927 0.36817 0.0
C395 C 0.82193 0.39874 0.41573 0.0
C396 C 0.83521 0.37775 0.46137 0.0
C397 C 0.80739 0.45088 0.41241 0.0
C398 C 0.83905 0.41059 0.50289 0.0
C399 C 0.82571 0.46358 0.49964 0.0
H400 H 0.18563 0.3759 0.13381 0.0
H401 H 0.15825 0.38671 0.97739 0.0
H402 H 0.17842 0.48121 0.97766 0.0
H403 H 0.21784 0.55427 0.01996 0.0
H404 H 0.24967 0.53841 0.1753 0.0
H405 H 0.21299 0.45256 0.17846 0.0
C406 C 0.1831 0.3995 0.10011 0.0
C407 C 0.17156 0.37506 0.05555 0.0
C408 C 0.196 0.45253 0.10042 0.0
C409 C 0.16742 0.40535 0.01203 0.0
C410 C 0.17927 0.45903 0.01217 0.0
C411 C 0.21555 0.53244 0.05459 0.0
C412 C 0.23701 0.55142 0.09706 0.0
C413 C 0.19575 0.4822 0.0557 0.0
C414 C 0.234 0.52349 0.142 0.0
C415 C 0.21309 0.4746 0.14385 0.0
H416 H 0.2864 0.92897 0.64621 0.0
H417 H 0.29563 0.89869 0.48985 0.0
H418 H 0.33218 0.98457 0.47761 0.0
H419 H 0.34586 0.07509 0.50956 0.0
H420 H 0.32972 0.10596 0.66503 0.0
H421 H 0.31265 0.01251 0.6802 0.0
C422 C 0.29746 0.94081 0.60969 0.0
C423 C 0.28768 0.90893 0.56877 0.0
C424 C 0.317 -0.00967 0.60299 0.0
C425 C 0.3027 0.92337 0.5217 0.0
C426 C 0.32326 0.97245 0.51473 0.0
C427 C 0.34029 0.06052 0.54686 0.0
C428 C 0.33869 0.09642 0.58624 0.0
C429 C 0.3284 0.00737 0.55475 0.0
C430 C 0.33096 0.07827 0.63448 0.0
C431 C 0.32091 0.02517 0.64301 0.0
H432 H 0.15246 0.20291 0.87176 0.0
H433 H 0.28264 0.21117 0.93405 0.0
H434 H 0.31189 0.23224 0.85321 0.0
H435 H 0.30066 0.25504 0.76622 0.0
H436 H 0.17239 0.24319 0.7008 0.0
H437 H 0.14232 0.21681 0.7813 0.0
C438 C 0.18728 0.20844 0.86752 0.0
C439 C 0.21503 0.2062 0.90941 0.0
C440 C 0.20426 0.22067 0.82046 0.0
C441 C 0.2602 0.21323 0.90289 0.0
C442 C 0.27712 0.22548 0.85657 0.0
C443 C 0.26609 0.24667 0.76962 0.0
C444 C 0.23857 0.25202 0.7281 0.0
C445 C 0.24939 0.23064 0.81545 0.0
C446 C 0.19409 0.23972 0.73253 0.0
C447 C 0.17695 0.22467 0.77849 0.0
H448 H 0.29982 0.22211 0.2291 0.0
H449 H 0.16441 0.23594 0.26873 0.0
H450 H 0.18508 0.25565 0.35378 0.0
H451 H 0.24017 0.26181 0.418 0.0
H452 H 0.3762 0.2443 0.3831 0.0
H453 H 0.35688 0.23397 0.29502 0.0
C454 C 0.27503 0.23027 0.25632 0.0
C455 C 0.23058 0.22721 0.24267 0.0
C456 C 0.2872 0.24043 0.306 0.0
C457 C 0.19875 0.23752 0.27834 0.0
C458 C 0.21053 0.2488 0.32703 0.0
C459 C 0.26586 0.25579 0.39132 0.0
C460 C 0.30957 0.2529 0.40738 0.0
C461 C 0.25448 0.24905 0.34146 0.0
C462 C 0.34227 0.24641 0.37185 0.0
C463 C 0.33117 0.24028 0.32153 0.0
H464 H 0.8212 0.2501 0.24359 0.0
H465 H 0.69487 0.23697 0.31097 0.0
H466 H 0.65967 0.25818 0.23137 0.0
H467 H 0.66514 0.27122 0.14032 0.0
H468 H 0.79274 0.28561 0.0753 0.0
H469 H 0.82678 0.27385 0.15611 0.0
C470 C 0.78594 0.2524 0.24099 0.0
C471 C 0.76068 0.24122 0.28293 0.0
C472 C 0.76605 0.26465 0.19532 0.0
C473 C 0.71508 0.24531 0.27919 0.0
C474 C 0.69494 0.25719 0.23359 0.0
C475 C 0.70033 0.27285 0.14399 0.0
C476 C 0.72618 0.27839 0.10135 0.0
C477 C 0.72009 0.26568 0.19102 0.0
C478 C 0.77184 0.28057 0.10709 0.0
C479 C 0.79151 0.27377 0.15341 0.0
H480 H 0.74292 0.18953 0.59611 0.0
H481 H 0.87887 0.19856 0.63802 0.0
H482 H 0.85856 0.20904 0.72479 0.0
H483 H 0.80172 0.22642 0.78733 0.0
H484 H 0.66639 0.22251 0.74242 0.0
H485 H 0.68701 0.19905 0.6585 0.0
C486 C 0.76832 0.1931 0.62412 0.0
C487 C 0.81242 0.19394 0.61016 0.0
C488 C 0.75644 0.20058 0.67359 0.0
C489 C 0.84465 0.19802 0.64742 0.0
C490 C 0.83304 0.20431 0.69712 0.0
C491 C 0.77682 0.21942 0.75932 0.0
C492 C 0.73261 0.2267 0.77096 0.0
C493 C 0.78899 0.20726 0.71047 0.0
C494 C 0.70066 0.2178 0.73425 0.0
C495 C 0.71241 0.20437 0.68623 0.0
H496 H 0.73105 0.75553 0.08944 0.0
H497 H 0.86471 0.77446 0.13788 0.0
H498 H 0.84235 0.76173 0.22402 0.0
H499 H 0.78527 0.73778 0.28473 0.0
H500 H 0.65301 0.71415 0.23302 0.0
H501 H 0.67459 0.73619 0.149 0.0
C502 C 0.75551 0.75737 0.11865 0.0
C503 C 0.79966 0.76552 0.10687 0.0
C504 C 0.74266 0.7487 0.16764 0.0
C505 C 0.83053 0.76813 0.14566 0.0
C506 C 0.81776 0.7606 0.19495 0.0
C507 C 0.76115 0.73803 0.25512 0.0
C508 C 0.71759 0.72398 0.26523 0.0
C509 C 0.774 0.74971 0.20628 0.0
C510 C 0.68677 0.72432 0.22636 0.0
C511 C 0.69907 0.73698 0.17821 0.0
H512 H 0.8114 0.73337 0.73707 0.0
H513 H 0.68677 0.7349 0.80918 0.0
H514 H 0.65011 0.7147 0.73044 0.0
H515 H 0.65341 0.70391 0.6391 0.0
H516 H 0.77969 0.69937 0.56977 0.0
H517 H 0.8153 0.7128 0.64909 0.0
C518 C 0.77622 0.72889 0.73563 0.0
C519 C 0.75184 0.73629 0.77871 0.0
C520 C 0.75547 0.71688 0.69049 0.0
C521 C 0.70633 0.72945 0.77645 0.0
C522 C 0.68532 0.71811 0.73137 0.0
C523 C 0.68869 0.705 0.64148 0.0
C524 C 0.71352 0.70158 0.59799 0.0
C525 C 0.7095 0.71271 0.68782 0.0
C526 C 0.75937 0.70275 0.60215 0.0
C527 C 0.78003 0.71048 0.64767 0.0
H528 H 0.19532 0.73851 0.76225 0.0
H529 H 0.3196 0.72625 0.69049 0.0
H530 H 0.35491 0.70599 0.7703 0.0
H531 H 0.3508 0.69904 0.86216 0.0
H532 H 0.22433 0.7081 0.93077 0.0
H533 H 0.18996 0.72177 0.85083 0.0
C534 C 0.23011 0.731 0.76402 0.0
C535 C 0.25489 0.73454 0.72076 0.0
C536 C 0.24998 0.71898 0.80969 0.0
C537 C 0.2998 0.72379 0.72341 0.0
C538 C 0.32003 0.71244 0.76907 0.0
C539 C 0.31571 0.70322 0.85953 0.0
C540 C 0.2906 0.70345 0.90298 0.0
C541 C 0.29554 0.71093 0.81276 0.0
C542 C 0.24495 0.70851 0.89846 0.0
C543 C 0.22498 0.71639 0.85256 0.0
H544 H 0.27182 0.7605 0.41013 0.0
H545 H 0.13697 0.76567 0.36326 0.0
H546 H 0.15918 0.7548 0.27696 0.0
H547 H 0.21691 0.73552 0.21604 0.0
H548 H 0.35068 0.7256 0.26638 0.0
H549 H 0.32872 0.74667 0.35019 0.0
C550 C 0.24706 0.7596 0.3812 0.0
C551 C 0.20268 0.76321 0.3934 0.0
C552 C 0.25991 0.7521 0.33222 0.0
C553 C 0.17134 0.76277 0.35505 0.0
C554 C 0.18403 0.75631 0.30571 0.0
C555 C 0.24123 0.73869 0.24529 0.0
C556 C 0.28535 0.72862 0.23499 0.0
C557 C 0.22821 0.74969 0.29401 0.0
C558 C 0.3165 0.73265 0.27331 0.0
C559 C 0.30398 0.74474 0.32131 0.0
loop_
_geom_bond_atom_site_label_1
_geom_bond_atom_site_label_2
_geom_bond_distance
_geom_bond_site_symmetry_2
_ccdc_geom_bond_type
Sc0 O3 2.025 . S
Sc0 O10 2.105 . S
Sc0 O13 2.105 . S
Sc0 O16 2.105 . S
Sc0 O19 2.105 . S
Sc1 O3 2.025 . S
Sc1 O11 2.105 1_554 S
Sc1 O15 2.105 . S
Sc1 O17 2.105 . S
Sc1 O21 2.105 . S
Sc2 O3 2.025 . S
Sc2 O12 2.105 . S
Sc2 O14 2.105 . S
Sc2 O18 2.105 . S
Sc2 O20 2.105 . S
O3 Sc0 2.025 . S
O3 Sc1 2.025 . S
O3 Sc2 2.025 . S
C4 O10 1.268 . S
C4 O20 1.268 . S
C5 O11 1.268 . S
C5 O19 1.268 1_556 S
C6 O12 1.268 . S
C6 O21 1.268 . S
C7 O13 1.268 . S
C7 O17 1.268 . S
C8 O14 1.268 . S
C8 O16 1.268 . S
C9 O15 1.268 . S
C9 O18 1.268 . S
O10 Sc0 2.105 . S
O10 C4 1.268 . S
O11 Sc1 2.105 1_556 S
O11 C5 1.268 . S
O12 Sc2 2.105 . S
O12 C6 1.268 . S
O13 Sc0 2.105 . S
O13 C7 1.268 . S
O14 Sc2 2.105 . S
O14 C8 1.268 . S
O15 Sc1 2.105 . S
O15 C9 1.268 . S
O16 Sc0 2.105 . S
O16 C8 1.268 . S
O17 Sc1 2.105 . S
O17 C7 1.268 . S
O18 Sc2 2.105 . S
O18 C9 1.268 . S
O19 Sc0 2.105 . S
O19 C5 1.268 1_554 S
O20 Sc2 2.105 . S
O20 C4 1.268 . S
O21 Sc1 2.105 . S
O21 C6 1.268 . S
Sc22 O25 2.025 . S
Sc22 O32 2.105 . S
Sc22 O35 2.105 . S
Sc22 O38 2.105 . S
Sc22 O41 2.105 . S
Sc23 O25 2.025 . S
Sc23 O33 2.105 . S
Sc23 O37 2.105 . S
Sc23 O39 2.105 . S
Sc23 O43 2.105 . S
Sc24 O25 2.025 . S
Sc24 O34 2.105 . S
Sc24 O36 2.105 . S
Sc24 O40 2.105 . S
Sc24 O42 2.105 . S
O25 Sc22 2.025 . S
O25 Sc23 2.025 . S
O25 Sc24 2.025 . S
C26 O32 1.268 . S
C26 O42 1.268 . S
C27 O33 1.268 . S
C27 O41 1.268 . S
C28 O34 1.268 . S
C28 O43 1.268 . S
C29 O35 1.268 . S
C29 O39 1.268 . S
C30 O36 1.268 . S
C30 O38 1.268 . S
C31 O37 1.268 . S
C31 O40 1.268 . S
O32 Sc22 2.105 . S
O32 C26 1.268 . S
O33 Sc23 2.105 . S
O33 C27 1.268 . S
O34 Sc24 2.105 . S
O34 C28 1.268 . S
O35 Sc22 2.105 . S
O35 C29 1.268 . S
O36 Sc24 2.105 . S
O36 C30 1.268 . S
O37 Sc23 2.105 . S
O37 C31 1.268 . S
O38 Sc22 2.105 . S
O38 C30 1.268 . S
O39 Sc23 2.105 . S
O39 C29 1.268 . S
O40 Sc24 2.105 . S
O40 C31 1.268 . S
O41 Sc22 2.105 . S
O41 C27 1.268 . S
O42 Sc24 2.105 . S
O42 C26 1.268 . S
O43 Sc23 2.105 . S
O43 C28 1.268 . S
Sc44 O47 2.025 . S
Sc44 O54 2.105 . S
Sc44 O57 2.105 . S
Sc44 O60 2.105 . S
Sc44 O63 2.105 . S
Sc45 O47 2.025 . S
Sc45 O55 2.105 . S
Sc45 O59 2.105 1_556 S
Sc45 O61 2.105 . S
Sc45 O65 2.105 . S
Sc46 O47 2.025 . S
Sc46 O56 2.105 . S
Sc46 O58 2.105 . S
Sc46 O62 2.105 . S
Sc46 O64 2.105 . S
O47 Sc44 2.025 . S
O47 Sc45 2.025 . S
O47 Sc46 2.025 . S
C48 O54 1.268 . S
C48 O64 1.268 . S
C49 O55 1.268 . S
C49 O63 1.268 . S
C50 O56 1.268 . S
C50 O65 1.268 . S
C51 O57 1.268 . S
C51 O61 1.268 . S
C52 O58 1.268 . S
C52 O60 1.268 . S
C53 O59 1.268 . S
C53 O62 1.268 1_554 S
O54 Sc44 2.105 . S
O54 C48 1.268 . S
O55 Sc45 2.105 . S
O55 C49 1.268 . S
O56 Sc46 2.105 . S
O56 C50 1.268 . S
O57 Sc44 2.105 . S
O57 C51 1.268 . S
O58 Sc46 2.105 . S
O58 C52 1.268 . S
O59 Sc45 2.105 1_554 S
O59 C53 1.268 . S
O60 Sc44 2.105 . S
O60 C52 1.268 . S
O61 Sc45 2.105 . S
O61 C51 1.268 . S
O62 Sc46 2.105 . S
O62 C53 1.268 1_556 S
O63 Sc44 2.105 . S
O63 C49 1.268 . S
O64 Sc46 2.105 . S
O64 C48 1.268 . S
O65 Sc45 2.105 . S
O65 C50 1.268 . S
Sc66 O69 2.025 . S
Sc66 O76 2.105 . S
Sc66 O79 2.105 . S
Sc66 O82 2.105 . S
Sc66 O85 2.105 . S
Sc67 O69 2.025 . S
Sc67 O77 2.105 . S
Sc67 O81 2.105 . S
Sc67 O83 2.105 . S
Sc67 O87 2.105 . S
Sc68 O69 2.025 . S
Sc68 O78 2.105 . S
Sc68 O80 2.105 . S
Sc68 O84 2.105 . S
Sc68 O86 2.105 . S
O69 Sc66 2.025 . S
O69 Sc67 2.025 . S
O69 Sc68 2.025 . S
C70 O76 1.268 . S
C70 O86 1.268 . S
C71 O77 1.268 . S
C71 O85 1.268 . S
C72 O78 1.268 . S
C72 O87 1.268 . S
C73 O79 1.268 . S
C73 O83 1.268 . S
C74 O80 1.268 . S
C74 O82 1.268 . S
C75 O81 1.268 . S
C75 O84 1.268 . S
O76 Sc66 2.105 . S
O76 C70 1.268 . S
O77 Sc67 2.105 . S
O77 C71 1.268 . S
O78 Sc68 2.105 . S
O78 C72 1.268 . S
O79 Sc66 2.105 . S
O79 C73 1.268 . S
O80 Sc68 2.105 . S
O80 C74 1.268 . S
O81 Sc67 2.105 . S
O81 C75 1.268 . S
O82 Sc66 2.105 . S
O82 C74 1.268 . S
O83 Sc67 2.105 . S
O83 C73 1.268 . S
O84 Sc68 2.105 . S
O84 C75 1.268 . S
O85 Sc66 2.105 . S
O85 C71 1.268 . S
O86 Sc68 2.105 . S
O86 C70 1.268 . S
O87 Sc67 2.105 . S
O87 C72 1.268 . S
Sc88 O91 2.025 . S
Sc88 O98 2.105 . S
Sc88 O101 2.105 . S
Sc88 O104 2.105 . S
Sc88 O107 2.105 . S
Sc89 O91 2.025 . S
Sc89 O99 2.105 . S
Sc89 O103 2.105 . S
Sc89 O105 2.105 1_556 S
Sc89 O109 2.105 . S
Sc90 O91 2.025 . S
Sc90 O100 2.105 . S
Sc90 O102 2.105 . S
Sc90 O106 2.105 . S
Sc90 O108 2.105 . S
O91 Sc88 2.025 . S
O91 Sc89 2.025 . S
O91 Sc90 2.025 . S
C92 O98 1.268 . S
C92 O108 1.268 . S
C93 O99 1.268 . S
C93 O107 1.268 . S
C94 O100 1.268 . S
C94 O109 1.268 . S
C95 O101 1.268 1_554 S
C95 O105 1.268 . S
C96 O102 1.268 . S
C96 O104 1.268 . S
C97 O103 1.268 . S
C97 O106 1.268 . S
O98 Sc88 2.105 . S
O98 C92 1.268 . S
O99 Sc89 2.105 . S
O99 C93 1.268 . S
O100 Sc90 2.105 . S
O100 C94 1.268 . S
O101 Sc88 2.105 . S
O101 C95 1.268 1_556 S
O102 Sc90 2.105 . S
O102 C96 1.268 . S
O103 Sc89 2.105 . S
O103 C97 1.268 . S
O104 Sc88 2.105 . S
O104 C96 1.268 . S
O105 Sc89 2.105 1_554 S
O105 C95 1.268 . S
O106 Sc90 2.105 . S
O106 C97 1.268 . S
O107 Sc88 2.105 . S
O107 C93 1.268 . S
O108 Sc90 2.105 . S
O108 C92 1.268 . S
O109 Sc89 2.105 . S
O109 C94 1.268 . S
Sc110 O113 2.025 . S
Sc110 O120 2.105 . S
Sc110 O123 2.105 . S
Sc110 O126 2.105 . S
Sc110 O129 2.105 . S
Sc111 O113 2.025 . S
Sc111 O121 2.105 . S
Sc111 O125 2.105 . S
Sc111 O127 2.105 . S
Sc111 O131 2.105 . S
Sc112 O113 2.025 . S
Sc112 O122 2.105 . S
Sc112 O124 2.105 . S
Sc112 O128 2.105 . S
Sc112 O130 2.105 . S
O113 Sc110 2.025 . S
O113 Sc111 2.025 . S
O113 Sc112 2.025 . S
C114 O120 1.268 . S
C114 O130 1.268 . S
C115 O121 1.268 . S
C115 O129 1.268 . S
C116 O122 1.268 . S
C116 O131 1.268 . S
C117 O123 1.268 . S
C117 O127 1.268 . S
C118 O124 1.268 . S
C118 O126 1.268 . S
C119 O125 1.268 . S
C119 O128 1.268 . S
O120 Sc110 2.105 . S
O120 C114 1.268 . S
O121 Sc111 2.105 . S
O121 C115 1.268 . S
O122 Sc112 2.105 . S
O122 C116 1.268 . S
O123 Sc110 2.105 . S
O123 C117 1.268 . S
O124 Sc112 2.105 . S
O124 C118 1.268 . S
O125 Sc111 2.105 . S
O125 C119 1.268 . S
O126 Sc110 2.105 . S
O126 C118 1.268 . S
O127 Sc111 2.105 . S
O127 C117 1.268 . S
O128 Sc112 2.105 . S
O128 C119 1.268 . S
O129 Sc110 2.105 . S
O129 C115 1.268 . S
O130 Sc112 2.105 . S
O130 C114 1.268 . S
O131 Sc111 2.105 . S
O131 C116 1.268 . S
Sc132 O135 2.025 . S
Sc132 O142 2.105 . S
Sc132 O145 2.105 . S
Sc132 O148 2.105 . S
Sc132 O151 2.105 . S
Sc133 O135 2.025 . S
Sc133 O143 2.105 . S
Sc133 O147 2.105 . S
Sc133 O149 2.105 . S
Sc133 O153 2.105 1_554 S
Sc134 O135 2.025 . S
Sc134 O144 2.105 . S
Sc134 O146 2.105 . S
Sc134 O150 2.105 . S
Sc134 O152 2.105 . S
O135 Sc132 2.025 . S
O135 Sc133 2.025 . S
O135 Sc134 2.025 . S
C136 O142 1.268 . S
C136 O152 1.268 . S
C137 O143 1.268 . S
C137 O151 1.268 . S
C138 O144 1.268 1_556 S
C138 O153 1.268 . S
C139 O145 1.268 . S
C139 O149 1.268 . S
C140 O146 1.268 . S
C140 O148 1.268 . S
C141 O147 1.268 . S
C141 O150 1.268 . S
O142 Sc132 2.105 . S
O142 C136 1.268 . S
O143 Sc133 2.105 . S
O143 C137 1.268 . S
O144 Sc134 2.105 . S
O144 C138 1.268 1_554 S
O145 Sc132 2.105 . S
O145 C139 1.268 . S
O146 Sc134 2.105 . S
O146 C140 1.268 . S
O147 Sc133 2.105 . S
O147 C141 1.268 . S
O148 Sc132 2.105 . S
O148 C140 1.268 . S
O149 Sc133 2.105 . S
O149 C139 1.268 . S
O150 Sc134 2.105 . S
O150 C141 1.268 . S
O151 Sc132 2.105 . S
O151 C137 1.268 . S
O152 Sc134 2.105 . S
O152 C136 1.268 . S
O153 Sc133 2.105 1_556 S
O153 C138 1.268 . S
Sc154 O157 2.025 . S
Sc154 O164 2.105 . S
Sc154 O167 2.105 . S
Sc154 O170 2.105 . S
Sc154 O173 2.105 . S
Sc155 O157 2.025 . S
Sc155 O165 2.105 . S
Sc155 O169 2.105 . S
Sc155 O171 2.105 . S
Sc155 O175 2.105 . S
Sc156 O157 2.025 . S
Sc156 O166 2.105 . S
Sc156 O168 2.105 . S
Sc156 O172 2.105 . S
Sc156 O174 2.105 . S
O157 Sc154 2.025 . S
O157 Sc155 2.025 . S
O157 Sc156 2.025 . S
C158 O164 1.268 . S
C158 O174 1.268 . S
C159 O165 1.268 . S
C159 O173 1.268 . S
C160 O166 1.268 . S
C160 O175 1.268 . S
C161 O167 1.268 . S
C161 O171 1.268 . S
C162 O168 1.268 . S
C162 O170 1.268 . S
C163 O169 1.268 . S
C163 O172 1.268 . S
O164 Sc154 2.105 . S
O164 C158 1.268 . S
O165 Sc155 2.105 . S
O165 C159 1.268 . S
O166 Sc156 2.105 . S
O166 C160 1.268 . S
O167 Sc154 2.105 . S
O167 C161 1.268 . S
O168 Sc156 2.105 . S
O168 C162 1.268 . S
O169 Sc155 2.105 . S
O169 C163 1.268 . S
O170 Sc154 2.105 . S
O170 C162 1.268 . S
O171 Sc155 2.105 . S
O171 C161 1.268 . S
O172 Sc156 2.105 . S
O172 C163 1.268 . S
O173 Sc154 2.105 . S
O173 C159 1.268 . S
O174 Sc156 2.105 . S
O174 C158 1.268 . S
O175 Sc155 2.105 . S
O175 C160 1.268 . S
H176 C182 0.930 . S
H177 C185 0.930 . S
H178 C186 0.930 . S
H179 C187 0.930 . S
H180 C190 0.930 . S
H181 C191 0.930 . S
C182 H176 0.930 . S
C182 C183 1.355 . S
C182 C184 1.415 . S
C183 C182 1.355 . S
C183 C185 1.419 . S
C184 C182 1.415 . S
C184 C189 1.425 1_455 S
C184 C191 1.409 . S
C185 H177 0.930 . S
C185 C183 1.419 . S
C185 C186 1.362 1_455 S
C186 H178 0.930 . S
C186 C185 1.362 1_655 S
C186 C189 1.409 . S
C187 H179 0.930 . S
C187 C188 1.355 . S
C187 C189 1.415 . S
C188 C187 1.355 . S
C188 C190 1.419 . S
C189 C184 1.425 1_655 S
C189 C186 1.409 . S
C189 C187 1.415 . S
C190 H180 0.930 . S
C190 C188 1.419 . S
C190 C191 1.362 1_655 S
C191 H181 0.930 . S
C191 C184 1.409 . S
C191 C190 1.362 1_455 S
H192 C198 0.930 . S
H193 C201 0.930 . S
H194 C202 0.930 . S
H195 C203 0.930 . S
H196 C206 0.930 . S
H197 C207 0.930 . S
C198 H192 0.930 . S
C198 C199 1.355 . S
C198 C200 1.415 . S
C199 C198 1.355 . S
C199 C201 1.419 . S
C200 C198 1.415 . S
C200 C205 1.425 . S
C200 C207 1.409 . S
C201 H193 0.930 . S
C201 C199 1.419 . S
C201 C202 1.362 . S
C202 H194 0.930 . S
C202 C201 1.362 . S
C202 C205 1.409 . S
C203 H195 0.930 . S
C203 C204 1.355 . S
C203 C205 1.415 . S
C204 C203 1.355 . S
C204 C206 1.419 . S
C205 C200 1.425 . S
C205 C202 1.409 . S
C205 C203 1.415 . S
C206 H196 0.930 . S
C206 C204 1.419 . S
C206 C207 1.362 . S
C207 H197 0.930 . S
C207 C200 1.409 . S
C207 C206 1.362 . S
H208 C214 0.930 . S
H209 C217 0.930 . S
H210 C218 0.930 . S
H211 C219 0.930 . S
H212 C222 0.930 . S
H213 C223 0.930 . S
C214 H208 0.930 . S
C214 C215 1.355 . S
C214 C216 1.415 . S
C215 C214 1.355 . S
C215 C217 1.419 . S
C216 C214 1.415 . S
C216 C221 1.425 1_655 S
C216 C223 1.409 1_655 S
C217 H209 0.930 . S
C217 C215 1.419 . S
C217 C218 1.362 . S
C218 H210 0.930 . S
C218 C217 1.362 . S
C218 C221 1.409 1_655 S
C219 H211 0.930 . S
C219 C220 1.355 . S
C219 C221 1.415 . S
C220 C219 1.355 . S
C220 C222 1.419 . S
C221 C216 1.425 1_455 S
C221 C218 1.409 1_455 S
C221 C219 1.415 . S
C222 H212 0.930 . S
C222 C220 1.419 . S
C222 C223 1.362 . S
C223 H213 0.930 . S
C223 C216 1.409 1_455 S
C223 C222 1.362 . S
H224 C230 0.930 . S
H225 C233 0.930 . S
H226 C234 0.930 . S
H227 C235 0.930 . S
H228 C238 0.930 . S
H229 C239 0.930 . S
C230 H224 0.930 . S
C230 C231 1.355 . S
C230 C232 1.415 . S
C231 C230 1.355 . S
C231 C233 1.419 . S
C232 C230 1.415 . S
C232 C237 1.425 . S
C232 C239 1.409 . S
C233 H225 0.930 . S
C233 C231 1.419 . S
C233 C234 1.362 . S
C234 H226 0.930 . S
C234 C233 1.362 . S
C234 C237 1.409 . S
C235 H227 0.930 . S
C235 C236 1.355 . S
C235 C237 1.415 . S
C236 C235 1.355 . S
C236 C238 1.419 . S
C237 C232 1.425 . S
C237 C234 1.409 . S
C237 C235 1.415 . S
C238 H228 0.930 . S
C238 C236 1.419 . S
C238 C239 1.362 . S
C239 H229 0.930 . S
C239 C232 1.409 . S
C239 C238 1.362 . S
H240 C246 0.930 . S
H241 C249 0.930 . S
H242 C250 0.930 1_665 S
H243 C251 0.930 . S
H244 C254 0.930 . S
H245 C255 0.930 1_445 S
C246 H240 0.930 . S
C246 C247 1.355 1_556 S
C246 C248 1.415 . S
C247 C246 1.355 1_554 S
C247 C249 1.419 . S
C248 C246 1.415 . S
C248 C253 1.425 1_446 S
C248 C255 1.409 1_445 S
C249 H241 0.930 . S
C249 C247 1.419 . S
C249 C250 1.362 . S
C250 H242 0.930 1_445 S
C250 C249 1.362 . S
C250 C253 1.409 1_445 S
C251 H243 0.930 . S
C251 C252 1.355 1_554 S
C251 C253 1.415 . S
C252 C251 1.355 1_556 S
C252 C254 1.419 . S
C253 C248 1.425 1_664 S
C253 C250 1.409 1_665 S
C253 C251 1.415 . S
C254 H244 0.930 . S
C254 C252 1.419 . S
C254 C255 1.362 . S
C255 H245 0.930 1_665 S
C255 C248 1.409 1_665 S
C255 C254 1.362 . S
H256 C262 0.930 . S
H257 C265 0.930 . S
H258 C266 0.930 . S
H259 C267 0.930 . S
H260 C270 0.930 . S
H261 C271 0.930 . S
C262 H256 0.930 . S
C262 C263 1.355 . S
C262 C264 1.415 . S
C263 C262 1.355 . S
C263 C265 1.419 . S
C264 C262 1.415 . S
C264 C269 1.425 . S
C264 C271 1.409 . S
C265 H257 0.930 . S
C265 C263 1.419 . S
C265 C266 1.362 . S
C266 H258 0.930 . S
C266 C265 1.362 . S
C266 C269 1.409 . S
C267 H259 0.930 . S
C267 C268 1.355 . S
C267 C269 1.415 . S
C268 C267 1.355 . S
C268 C270 1.419 . S
C269 C264 1.425 . S
C269 C266 1.409 . S
C269 C267 1.415 . S
C270 H260 0.930 . S
C270 C268 1.419 . S
C270 C271 1.362 . S
C271 H261 0.930 . S
C271 C264 1.409 . S
C271 C270 1.362 . S
H272 C278 0.930 . S
H273 C281 0.930 . S
H274 C282 0.930 . S
H275 C283 0.930 . S
H276 C286 0.930 . S
H277 C287 0.930 . S
C278 H272 0.930 . S
C278 C279 1.355 . S
C278 C280 1.414 . S
C279 C278 1.355 . S
C279 C281 1.419 . S
C280 C278 1.414 . S
C280 C285 1.425 1_554 S
C280 C287 1.410 1_554 S
C281 H273 0.930 . S
C281 C279 1.419 . S
C281 C282 1.362 . S
C282 H274 0.930 . S
C282 C281 1.362 . S
C282 C285 1.410 1_554 S
C283 H275 0.930 . S
C283 C284 1.355 . S
C283 C285 1.414 . S
C284 C283 1.355 . S
C284 C286 1.419 . S
C285 C280 1.425 1_556 S
C285 C282 1.410 1_556 S
C285 C283 1.414 . S
C286 H276 0.930 . S
C286 C284 1.419 . S
C286 C287 1.362 . S
C287 H277 0.930 . S
C287 C280 1.410 1_556 S
C287 C286 1.362 . S
H288 C294 0.930 1_455 S
H289 C297 0.930 . S
H290 C298 0.930 . S
H291 C299 0.930 1_655 S
H292 C302 0.930 . S
H293 C303 0.930 . S
C294 H288 0.930 1_655 S
C294 C295 1.355 . S
C294 C296 1.415 1_655 S
C295 C294 1.355 . S
C295 C297 1.419 . S
C296 C294 1.415 1_455 S
C296 C301 1.425 1_445 S
C296 C303 1.409 . S
C297 H289 0.930 . S
C297 C295 1.419 . S
C297 C298 1.362 1_545 S
C298 H290 0.930 . S
C298 C297 1.362 1_565 S
C298 C301 1.409 . S
C299 H291 0.930 1_455 S
C299 C300 1.355 . S
C299 C301 1.415 1_455 S
C300 C299 1.355 . S
C300 C302 1.419 . S
C301 C296 1.425 1_665 S
C301 C298 1.409 . S
C301 C299 1.415 1_655 S
C302 H292 0.930 . S
C302 C300 1.419 . S
C302 C303 1.362 1_565 S
C303 H293 0.930 . S
C303 C296 1.409 . S
C303 C302 1.362 1_545 S
H304 C310 0.930 . S
H305 C313 0.930 . S
H306 C314 0.930 . S
H307 C315 0.930 . S
H308 C318 0.930 . S
H309 C319 0.930 . S
C310 H304 0.930 . S
C310 C311 1.355 . S
C310 C312 1.415 . S
C311 C310 1.355 . S
C311 C313 1.419 . S
C312 C310 1.415 . S
C312 C317 1.425 . S
C312 C319 1.409 . S
C313 H305 0.930 . S
C313 C311 1.419 . S
C313 C314 1.362 . S
C314 H306 0.930 . S
C314 C313 1.362 . S
C314 C317 1.409 . S
C315 H307 0.930 . S
C315 C316 1.355 . S
C315 C317 1.415 1_545 S
C316 C315 1.355 . S
C316 C318 1.419 . S
C317 C312 1.425 . S
C317 C314 1.409 . S
C317 C315 1.415 1_565 S
C318 H308 0.930 . S
C318 C316 1.419 . S
C318 C319 1.362 1_545 S
C319 H309 0.930 . S
C319 C312 1.409 . S
C319 C318 1.362 1_565 S
H320 C326 0.930 . S
H321 C329 0.930 . S
H322 C330 0.930 . S
H323 C331 0.930 . S
H324 C334 0.930 . S
H325 C335 0.930 . S
C326 H320 0.930 . S
C326 C327 1.355 . S
C326 C328 1.415 . S
C327 C326 1.355 . S
C327 C329 1.419 . S
C328 C326 1.415 . S
C328 C333 1.425 . S
C328 C335 1.409 . S
C329 H321 0.930 . S
C329 C327 1.419 . S
C329 C330 1.362 . S
C330 H322 0.930 . S
C330 C329 1.362 . S
C330 C333 1.409 . S
C331 H323 0.930 . S
C331 C332 1.355 . S
C331 C333 1.415 . S
C332 C331 1.355 . S
C332 C334 1.419 . S
C333 C328 1.425 . S
C333 C330 1.409 . S
C333 C331 1.415 . S
C334 H324 0.930 . S
C334 C332 1.419 . S
C334 C335 1.362 . S
C335 H325 0.930 . S
C335 C328 1.409 . S
C335 C334 1.362 . S
H336 C342 0.930 . S
H337 C345 0.930 . S
H338 C346 0.930 . S
H339 C347 0.930 . S
H340 C350 0.930 . S
H341 C351 0.930 . S
C342 H336 0.930 . S
C342 C343 1.355 . S
C342 C344 1.415 . S
C343 C342 1.355 . S
C343 C345 1.419 . S
C344 C342 1.415 . S
C344 C349 1.425 . S
C344 C351 1.409 . S
C345 H337 0.930 . S
C345 C343 1.419 . S
C345 C346 1.362 . S
C346 H338 0.930 . S
C346 C345 1.362 . S
C346 C349 1.409 . S
C347 H339 0.930 . S
C347 C348 1.355 . S
C347 C349 1.415 . S
C348 C347 1.355 . S
C348 C350 1.419 . S
C349 C344 1.425 . S
C349 C346 1.409 . S
C349 C347 1.415 . S
C350 H340 0.930 . S
C350 C348 1.419 . S
C350 C351 1.362 . S
C351 H341 0.930 . S
C351 C344 1.409 . S
C351 C350 1.362 . S
H352 C358 0.930 . S
H353 C361 0.930 . S
H354 C362 0.930 1_565 S
H355 C363 0.930 . S
H356 C366 0.930 . S
H357 C367 0.930 . S
C358 H352 0.930 . S
C358 C359 1.355 . S
C358 C360 1.415 1_545 S
C359 C358 1.355 . S
C359 C361 1.419 . S
C360 C358 1.415 1_565 S
C360 C365 1.425 . S
C360 C367 1.409 . S
C361 H353 0.930 . S
C361 C359 1.419 . S
C361 C362 1.362 . S
C362 H354 0.930 1_545 S
C362 C361 1.362 . S
C362 C365 1.409 1_545 S
C363 H355 0.930 . S
C363 C364 1.355 . S
C363 C365 1.415 . S
C364 C363 1.355 . S
C364 C366 1.419 . S
C365 C360 1.425 . S
C365 C362 1.409 1_565 S
C365 C363 1.415 . S
C366 H356 0.930 . S
C366 C364 1.419 . S
C366 C367 1.362 . S
C367 H357 0.930 . S
C367 C360 1.409 . S
C367 C366 1.362 . S
H368 C374 0.930 . S
H369 C377 0.930 . S
H370 C378 0.929 . S
H371 C379 0.930 . S
H372 C382 0.930 . S
H373 C383 0.930 . S
C374 H368 0.930 . S
C374 C375 1.355 . S
C374 C376 1.415 . S
C375 C374 1.355 . S
C375 C377 1.419 . S
C376 C374 1.415 . S
C376 C381 1.425 . S
C376 C383 1.409 . S
C377 H369 0.930 . S
C377 C375 1.419 . S
C377 C378 1.362 . S
C378 H370 0.929 . S
C378 C377 1.362 . S
C378 C381 1.409 . S
C379 H371 0.930 . S
C379 C380 1.355 . S
C379 C381 1.415 1_565 S
C380 C379 1.355 . S
C380 C382 1.419 . S
C381 C376 1.425 . S
C381 C378 1.409 . S
C381 C379 1.415 1_545 S
C382 H372 0.930 . S
C382 C380 1.419 . S
C382 C383 1.362 1_565 S
C383 H373 0.930 . S
C383 C376 1.409 . S
C383 C382 1.362 1_545 S
H384 C390 0.930 . S
H385 C393 0.930 . S
H386 C394 0.930 . S
H387 C395 0.930 . S
H388 C398 0.930 . S
H389 C399 0.930 . S
C390 H384 0.930 . S
C390 C391 1.355 . S
C390 C392 1.415 . S
C391 C390 1.355 . S
C391 C393 1.419 . S
C392 C390 1.415 . S
C392 C397 1.425 . S
C392 C399 1.409 . S
C393 H385 0.930 . S
C393 C391 1.419 . S
C393 C394 1.362 . S
C394 H386 0.930 . S
C394 C393 1.362 . S
C394 C397 1.409 . S
C395 H387 0.930 . S
C395 C396 1.355 . S
C395 C397 1.415 . S
C396 C395 1.355 . S
C396 C398 1.419 . S
C397 C392 1.425 . S
C397 C394 1.409 . S
C397 C395 1.415 . S
C398 H388 0.930 . S
C398 C396 1.419 . S
C398 C399 1.362 . S
C399 H389 0.930 . S
C399 C392 1.409 . S
C399 C398 1.362 . S
H400 C406 0.930 . S
H401 C409 0.930 . S
H402 C410 0.930 . S
H403 C411 0.930 . S
H404 C414 0.930 . S
H405 C415 0.930 . S
C406 H400 0.930 . S
C406 C407 1.355 . S
C406 C408 1.415 . S
C407 C406 1.355 . S
C407 C409 1.419 . S
C408 C406 1.415 . S
C408 C413 1.425 . S
C408 C415 1.409 . S
C409 H401 0.930 . S
C409 C407 1.419 . S
C409 C410 1.362 . S
C410 H402 0.930 . S
C410 C409 1.362 . S
C410 C413 1.409 . S
C411 H403 0.930 . S
C411 C412 1.355 . S
C411 C413 1.415 . S
C412 C411 1.355 . S
C412 C414 1.419 . S
C413 C408 1.425 . S
C413 C410 1.409 . S
C413 C411 1.415 . S
C414 H404 0.930 . S
C414 C412 1.419 . S
C414 C415 1.362 . S
C415 H405 0.930 . S
C415 C408 1.409 . S
C415 C414 1.362 . S
H416 C422 0.930 . S
H417 C425 0.930 . S
H418 C426 0.930 . S
H419 C427 0.930 . S
H420 C430 0.930 . S
H421 C431 0.930 . S
C422 H416 0.930 . S
C422 C423 1.355 . S
C422 C424 1.415 1_565 S
C423 C422 1.355 . S
C423 C425 1.419 . S
C424 C422 1.415 1_545 S
C424 C429 1.425 . S
C424 C431 1.409 . S
C425 H417 0.930 . S
C425 C423 1.419 . S
C425 C426 1.362 1_565 S
C426 H418 0.930 . S
C426 C425 1.362 1_545 S
C426 C429 1.409 . S
C427 H419 0.930 . S
C427 C428 1.355 . S
C427 C429 1.415 . S
C428 C427 1.355 . S
C428 C430 1.419 . S
C429 C424 1.425 . S
C429 C426 1.409 . S
C429 C427 1.415 . S
C430 H420 0.930 . S
C430 C428 1.419 . S
C430 C431 1.362 . S
C431 H421 0.930 . S
C431 C424 1.409 . S
C431 C430 1.362 . S
H432 C438 0.930 . S
H433 C441 0.930 . S
H434 C442 0.930 . S
H435 C443 0.930 . S
H436 C446 0.930 . S
H437 C447 0.930 . S
C438 H432 0.930 . S
C438 C439 1.355 . S
C438 C440 1.415 . S
C439 C438 1.355 . S
C439 C441 1.419 . S
C440 C438 1.415 . S
C440 C445 1.425 . S
C440 C447 1.409 . S
C441 H433 0.930 . S
C441 C439 1.419 . S
C441 C442 1.362 . S
C442 H434 0.930 . S
C442 C441 1.362 . S
C442 C445 1.409 . S
C443 H435 0.930 . S
C443 C444 1.355 . S
C443 C445 1.415 . S
C444 C443 1.355 . S
C444 C446 1.419 . S
C445 C440 1.425 . S
C445 C442 1.409 . S
C445 C443 1.415 . S
C446 H436 0.930 . S
C446 C444 1.419 . S
C446 C447 1.362 . S
C447 H437 0.930 . S
C447 C440 1.409 . S
C447 C446 1.362 . S
H448 C454 0.930 . S
H449 C457 0.930 . S
H450 C458 0.930 . S
H451 C459 0.930 . S
H452 C462 0.930 . S
H453 C463 0.930 . S
C454 H448 0.930 . S
C454 C455 1.355 . S
C454 C456 1.415 . S
C455 C454 1.355 . S
C455 C457 1.419 . S
C456 C454 1.415 . S
C456 C461 1.425 . S
C456 C463 1.409 . S
C457 H449 0.930 . S
C457 C455 1.419 . S
C457 C458 1.362 . S
C458 H450 0.930 . S
C458 C457 1.362 . S
C458 C461 1.409 . S
C459 H451 0.930 . S
C459 C460 1.355 . S
C459 C461 1.415 . S
C460 C459 1.355 . S
C460 C462 1.419 . S
C461 C456 1.425 . S
C461 C458 1.409 . S
C461 C459 1.415 . S
C462 H452 0.930 . S
C462 C460 1.419 . S
C462 C463 1.362 . S
C463 H453 0.930 . S
C463 C456 1.409 . S
C463 C462 1.362 . S
H464 C470 0.930 . S
H465 C473 0.930 . S
H466 C474 0.930 . S
H467 C475 0.930 . S
H468 C478 0.930 . S
H469 C479 0.930 . S
C470 H464 0.930 . S
C470 C471 1.355 . S
C470 C472 1.415 . S
C471 C470 1.355 . S
C471 C473 1.419 . S
C472 C470 1.415 . S
C472 C477 1.425 . S
C472 C479 1.409 . S
C473 H465 0.930 . S
C473 C471 1.419 . S
C473 C474 1.362 . S
C474 H466 0.930 . S
C474 C473 1.362 . S
C474 C477 1.409 . S
C475 H467 0.930 . S
C475 C476 1.355 . S
C475 C477 1.415 . S
C476 C475 1.355 . S
C476 C478 1.419 . S
C477 C472 1.425 . S
C477 C474 1.409 . S
C477 C475 1.415 . S
C478 H468 0.930 . S
C478 C476 1.419 . S
C478 C479 1.362 . S
C479 H469 0.930 . S
C479 C472 1.409 . S
C479 C478 1.362 . S
H480 C486 0.930 . S
H481 C489 0.930 . S
H482 C490 0.930 . S
H483 C491 0.930 . S
H484 C494 0.930 . S
H485 C495 0.930 . S
C486 H480 0.930 . S
C486 C487 1.355 . S
C486 C488 1.415 . S
C487 C486 1.355 . S
C487 C489 1.419 . S
C488 C486 1.415 . S
C488 C493 1.425 . S
C488 C495 1.409 . S
C489 H481 0.930 . S
C489 C487 1.419 . S
C489 C490 1.362 . S
C490 H482 0.930 . S
C490 C489 1.362 . S
C490 C493 1.409 . S
C491 H483 0.930 . S
C491 C492 1.355 . S
C491 C493 1.415 . S
C492 C491 1.355 . S
C492 C494 1.419 . S
C493 C488 1.425 . S
C493 C490 1.409 . S
C493 C491 1.415 . S
C494 H484 0.930 . S
C494 C492 1.419 . S
C494 C495 1.362 . S
C495 H485 0.930 . S
C495 C488 1.409 . S
C495 C494 1.362 . S
H496 C502 0.930 . S
H497 C505 0.930 . S
H498 C506 0.930 . S
H499 C507 0.930 . S
H500 C510 0.930 . S
H501 C511 0.930 . S
C502 H496 0.930 . S
C502 C503 1.355 . S
C502 C504 1.415 . S
C503 C502 1.355 . S
C503 C505 1.419 . S
C504 C502 1.415 . S
C504 C509 1.425 . S
C504 C511 1.409 . S
C505 H497 0.930 . S
C505 C503 1.419 . S
C505 C506 1.362 . S
C506 H498 0.930 . S
C506 C505 1.362 . S
C506 C509 1.409 . S
C507 H499 0.930 . S
C507 C508 1.355 . S
C507 C509 1.415 . S
C508 C507 1.355 . S
C508 C510 1.419 . S
C509 C504 1.425 . S
C509 C506 1.409 . S
C509 C507 1.415 . S
C510 H500 0.930 . S
C510 C508 1.419 . S
C510 C511 1.362 . S
C511 H501 0.930 . S
C511 C504 1.409 . S
C511 C510 1.362 . S
H512 C518 0.930 . S
H513 C521 0.930 . S
H514 C522 0.930 . S
H515 C523 0.930 . S
H516 C526 0.930 . S
H517 C527 0.930 . S
C518 H512 0.930 . S
C518 C519 1.355 . S
C518 C520 1.415 . S
C519 C518 1.355 . S
C519 C521 1.419 . S
C520 C518 1.415 . S
C520 C525 1.425 . S
C520 C527 1.409 . S
C521 H513 0.930 . S
C521 C519 1.419 . S
C521 C522 1.362 . S
C522 H514 0.930 . S
C522 C521 1.362 . S
C522 C525 1.409 . S
C523 H515 0.930 . S
C523 C524 1.355 . S
C523 C525 1.415 . S
C524 C523 1.355 . S
C524 C526 1.419 . S
C525 C520 1.425 . S
C525 C522 1.409 . S
C525 C523 1.415 . S
C526 H516 0.930 . S
C526 C524 1.419 . S
C526 C527 1.362 . S
C527 H517 0.930 . S
C527 C520 1.409 . S
C527 C526 1.362 . S
H528 C534 0.930 . S
H529 C537 0.930 . S
H530 C538 0.930 . S
H531 C539 0.930 . S
H532 C542 0.930 . S
H533 C543 0.930 . S
C534 H528 0.930 . S
C534 C535 1.355 . S
C534 C536 1.415 . S
C535 C534 1.355 . S
C535 C537 1.419 . S
C536 C534 1.415 . S
C536 C541 1.425 . S
C536 C543 1.409 . S
C537 H529 0.930 . S
C537 C535 1.419 . S
C537 C538 1.362 . S
C538 H530 0.930 . S
C538 C537 1.362 . S
C538 C541 1.409 . S
C539 H531 0.930 . S
C539 C540 1.355 . S
C539 C541 1.415 . S
C540 C539 1.355 . S
C540 C542 1.419 . S
C541 C536 1.425 . S
C541 C538 1.409 . S
C541 C539 1.415 . S
C542 H532 0.930 . S
C542 C540 1.419 . S
C542 C543 1.362 . S
C543 H533 0.930 . S
C543 C536 1.409 . S
C543 C542 1.362 . S
H544 C550 0.930 . S
H545 C553 0.930 . S
H546 C554 0.930 . S
H547 C555 0.930 . S
H548 C558 0.930 . S
H549 C559 0.930 . S
C550 H544 0.930 . S
C550 C551 1.355 . S
C550 C552 1.415 . S
C551 C550 1.355 . S
C551 C553 1.419 . S
C552 C550 1.415 . S
C552 C557 1.425 . S
C552 C559 1.409 . S
C553 H545 0.930 . S
C553 C551 1.419 . S
C553 C554 1.362 . S
C554 H546 0.930 . S
C554 C553 1.362 . S
C554 C557 1.409 . S
C555 H547 0.930 . S
C555 C556 1.355 . S
C555 C557 1.415 . S
C556 C555 1.355 . S
C556 C558 1.419 . S
C557 C552 1.425 . S
C557 C554 1.409 . S
C557 C555 1.415 . S
C558 H548 0.930 . S
C558 C556 1.419 . S
C558 C559 1.362 . S
C559 H549 0.930 . S
C559 C552 1.409 . S
C559 C558 1.362 . S
C183 C9 0.806 . S
C188 C71 0.865 . S
C199 C27 0.878 . S
C204 C49 0.796 . S
C215 C94 0.891 . S
C220 C160 0.781 . S
C231 C116 0.803 . S
C236 C139 0.867 . S
C247 C6 1.907 . S
C252 C97 1.907 . S
C263 C119 1.917 . S
C268 C29 1.917 . S
C279 C137 1.936 . S
C284 C51 1.936 . S
C295 C73 1.929 . S
C300 C163 1.929 . S
C311 C141 1.006 . S
C316 C4 0.997 . S
C327 C159 1.046 . S
C332 C30 1.028 . S
C343 C52 1.006 . S
C348 C93 1.020 . S
C359 C74 0.989 . S
C364 C115 0.989 . S
C375 C50 1.038 . S
C380 C96 1.020 . S
C391 C118 1.007 . S
C396 C72 0.966 . S
C407 C7 1.046 . S
C412 C136 1.028 . S
C423 C162 1.062 . S
C428 C28 1.063 . S
C439 C5 1.630 . S
C444 C26 1.626 . S
C455 C8 1.647 . S
C460 C31 1.610 . S
C471 C70 1.629 . S
C476 C53 1.595 . S
C487 C75 1.626 . S
C492 C48 1.640 . S
C503 C95 1.598 . S
C508 C114 1.650 . S
C519 C92 1.645 . S
C524 C117 1.579 . S
C535 C158 1.646 . S
C540 C138 1.579 . S
C551 C161 1.613 . S
C556 C140 1.647 . S
