# Generated by pormake.
# Topology pyr-e, (6)-cn, num edge types: 1
# Building blocks:
#     Node 0, Type 0, BuildingBlock: IZENUY_clean_sbu_0, # of connection points: 6
#     Node 1, Type 0, BuildingBlock: IZENUY_clean_sbu_0, # of connection points: 6
#     Node 2, Type 0, BuildingBlock: IZENUY_clean_sbu_0, # of connection points: 6
#     Node 3, Type 0, BuildingBlock: IZENUY_clean_sbu_0, # of connection points: 6
#     Node 4, Type 0, BuildingBlock: IZENUY_clean_sbu_0, # of connection points: 6
#     Node 5, Type 0, BuildingBlock: IZENUY_clean_sbu_0, # of connection points: 6
#     Node 6, Type 0, BuildingBlock: IZENUY_clean_sbu_0, # of connection points: 6
#     Node 7, Type 0, BuildingBlock: IZENUY_clean_sbu_0, # of connection points: 6
#     Node 8, Type 0, BuildingBlock: IZENUY_clean_sbu_0, # of connection points: 6
#     Node 9, Type 0, BuildingBlock: IZENUY_clean_sbu_0, # of connection points: 6
#     Node 10, Type 0, BuildingBlock: IZENUY_clean_sbu_0, # of connection points: 6
#     Node 11, Type 0, BuildingBlock: IZENUY_clean_sbu_0, # of connection points: 6
#     Node 12, Type 0, BuildingBlock: IZENUY_clean_sbu_0, # of connection points: 6
#     Node 13, Type 0, BuildingBlock: IZENUY_clean_sbu_0, # of connection points: 6
#     Node 14, Type 0, BuildingBlock: IZENUY_clean_sbu_0, # of connection points: 6
#     Node 15, Type 0, BuildingBlock: IZENUY_clean_sbu_0, # of connection points: 6
#     Node 16, Type 0, BuildingBlock: IZENUY_clean_sbu_0, # of connection points: 6
#     Node 17, Type 0, BuildingBlock: IZENUY_clean_sbu_0, # of connection points: 6
#     Node 18, Type 0, BuildingBlock: IZENUY_clean_sbu_0, # of connection points: 6
#     Node 19, Type 0, BuildingBlock: IZENUY_clean_sbu_0, # of connection points: 6
#     Node 20, Type 0, BuildingBlock: IZENUY_clean_sbu_0, # of connection points: 6
#     Node 21, Type 0, BuildingBlock: IZENUY_clean_sbu_0, # of connection points: 6
#     Node 22, Type 0, BuildingBlock: IZENUY_clean_sbu_0, # of connection points: 6
#     Node 23, Type 0, BuildingBlock: IZENUY_clean_sbu_0, # of connection points: 6
#     Edge 24, Type (0, 0), BuildingBlock: UVAHIK_clean_linker_0, # of connection points: 2
#     Edge 25, Type (0, 0), BuildingBlock: UVAHIK_clean_linker_0, # of connection points: 2
#     Edge 26, Type (0, 0), BuildingBlock: UVAHIK_clean_linker_0, # of connection points: 2
#     Edge 27, Type (0, 0), BuildingBlock: UVAHIK_clean_linker_0, # of connection points: 2
#     Edge 28, Type (0, 0), BuildingBlock: UVAHIK_clean_linker_0, # of connection points: 2
#     Edge 29, Type (0, 0), BuildingBlock: UVAHIK_clean_linker_0, # of connection points: 2
#     Edge 30, Type (0, 0), BuildingBlock: UVAHIK_clean_linker_0, # of connection points: 2
#     Edge 31, Type (0, 0), BuildingBlock: UVAHIK_clean_linker_0, # of connection points: 2
#     Edge 32, Type (0, 0), BuildingBlock: UVAHIK_clean_linker_0, # of connection points: 2
#     Edge 33, Type (0, 0), BuildingBlock: UVAHIK_clean_linker_0, # of connection points: 2
#     Edge 34, Type (0, 0), BuildingBlock: UVAHIK_clean_linker_0, # of connection points: 2
#     Edge 35, Type (0, 0), BuildingBlock: UVAHIK_clean_linker_0, # of connection points: 2
#     Edge 36, Type (0, 0), BuildingBlock: UVAHIK_clean_linker_0, # of connection points: 2
#     Edge 37, Type (0, 0), BuildingBlock: UVAHIK_clean_linker_0, # of connection points: 2
#     Edge 38, Type (0, 0), BuildingBlock: UVAHIK_clean_linker_0, # of connection points: 2
#     Edge 39, Type (0, 0), BuildingBlock: UVAHIK_clean_linker_0, # of connection points: 2
#     Edge 40, Type (0, 0), BuildingBlock: UVAHIK_clean_linker_0, # of connection points: 2
#     Edge 41, Type (0, 0), BuildingBlock: UVAHIK_clean_linker_0, # of connection points: 2
#     Edge 42, Type (0, 0), BuildingBlock: UVAHIK_clean_linker_0, # of connection points: 2
#     Edge 43, Type (0, 0), BuildingBlock: UVAHIK_clean_linker_0, # of connection points: 2
#     Edge 44, Type (0, 0), BuildingBlock: UVAHIK_clean_linker_0, # of connection points: 2
#     Edge 45, Type (0, 0), BuildingBlock: UVAHIK_clean_linker_0, # of connection points: 2
#     Edge 46, Type (0, 0), BuildingBlock: UVAHIK_clean_linker_0, # of connection points: 2
#     Edge 47, Type (0, 0), BuildingBlock: UVAHIK_clean_linker_0, # of connection points: 2
#     Edge 48, Type (0, 0), BuildingBlock: UVAHIK_clean_linker_0, # of connection points: 2
#     Edge 49, Type (0, 0), BuildingBlock: UVAHIK_clean_linker_0, # of connection points: 2
#     Edge 50, Type (0, 0), BuildingBlock: UVAHIK_clean_linker_0, # of connection points: 2
#     Edge 51, Type (0, 0), BuildingBlock: UVAHIK_clean_linker_0, # of connection points: 2
#     Edge 52, Type (0, 0), BuildingBlock: UVAHIK_clean_linker_0, # of connection points: 2
#     Edge 53, Type (0, 0), BuildingBlock: UVAHIK_clean_linker_0, # of connection points: 2
#     Edge 54, Type (0, 0), BuildingBlock: UVAHIK_clean_linker_0, # of connection points: 2
#     Edge 55, Type (0, 0), BuildingBlock: UVAHIK_clean_linker_0, # of connection points: 2
#     Edge 56, Type (0, 0), BuildingBlock: UVAHIK_clean_linker_0, # of connection points: 2
#     Edge 57, Type (0, 0), BuildingBlock: UVAHIK_clean_linker_0, # of connection points: 2
#     Edge 58, Type (0, 0), BuildingBlock: UVAHIK_clean_linker_0, # of connection points: 2
#     Edge 59, Type (0, 0), BuildingBlock: UVAHIK_clean_linker_0, # of connection points: 2
#     Edge 60, Type (0, 0), BuildingBlock: UVAHIK_clean_linker_0, # of connection points: 2
#     Edge 61, Type (0, 0), BuildingBlock: UVAHIK_clean_linker_0, # of connection points: 2
#     Edge 62, Type (0, 0), BuildingBlock: UVAHIK_clean_linker_0, # of connection points: 2
#     Edge 63, Type (0, 0), BuildingBlock: UVAHIK_clean_linker_0, # of connection points: 2
#     Edge 64, Type (0, 0), BuildingBlock: UVAHIK_clean_linker_0, # of connection points: 2
#     Edge 65, Type (0, 0), BuildingBlock: UVAHIK_clean_linker_0, # of connection points: 2
#     Edge 66, Type (0, 0), BuildingBlock: UVAHIK_clean_linker_0, # of connection points: 2
#     Edge 67, Type (0, 0), BuildingBlock: UVAHIK_clean_linker_0, # of connection points: 2
#     Edge 68, Type (0, 0), BuildingBlock: UVAHIK_clean_linker_0, # of connection points: 2
#     Edge 69, Type (0, 0), BuildingBlock: UVAHIK_clean_linker_0, # of connection points: 2
#     Edge 70, Type (0, 0), BuildingBlock: UVAHIK_clean_linker_0, # of connection points: 2
#     Edge 71, Type (0, 0), BuildingBlock: UVAHIK_clean_linker_0, # of connection points: 2
#     Edge 72, Type (0, 0), BuildingBlock: UVAHIK_clean_linker_0, # of connection points: 2
#     Edge 73, Type (0, 0), BuildingBlock: UVAHIK_clean_linker_0, # of connection points: 2
#     Edge 74, Type (0, 0), BuildingBlock: UVAHIK_clean_linker_0, # of connection points: 2
#     Edge 75, Type (0, 0), BuildingBlock: UVAHIK_clean_linker_0, # of connection points: 2
#     Edge 76, Type (0, 0), BuildingBlock: UVAHIK_clean_linker_0, # of connection points: 2
#     Edge 77, Type (0, 0), BuildingBlock: UVAHIK_clean_linker_0, # of connection points: 2
#     Edge 78, Type (0, 0), BuildingBlock: UVAHIK_clean_linker_0, # of connection points: 2
#     Edge 79, Type (0, 0), BuildingBlock: UVAHIK_clean_linker_0, # of connection points: 2
#     Edge 80, Type (0, 0), BuildingBlock: UVAHIK_clean_linker_0, # of connection points: 2
#     Edge 81, Type (0, 0), BuildingBlock: UVAHIK_clean_linker_0, # of connection points: 2
#     Edge 82, Type (0, 0), BuildingBlock: UVAHIK_clean_linker_0, # of connection points: 2
#     Edge 83, Type (0, 0), BuildingBlock: UVAHIK_clean_linker_0, # of connection points: 2
#     Edge 84, Type (0, 0), BuildingBlock: UVAHIK_clean_linker_0, # of connection points: 2
#     Edge 85, Type (0, 0), BuildingBlock: UVAHIK_clean_linker_0, # of connection points: 2
#     Edge 86, Type (0, 0), BuildingBlock: UVAHIK_clean_linker_0, # of connection points: 2
#     Edge 87, Type (0, 0), BuildingBlock: UVAHIK_clean_linker_0, # of connection points: 2
#     Edge 88, Type (0, 0), BuildingBlock: UVAHIK_clean_linker_0, # of connection points: 2
#     Edge 89, Type (0, 0), BuildingBlock: UVAHIK_clean_linker_0, # of connection points: 2
#     Edge 90, Type (0, 0), BuildingBlock: UVAHIK_clean_linker_0, # of connection points: 2
#     Edge 91, Type (0, 0), BuildingBlock: UVAHIK_clean_linker_0, # of connection points: 2
#     Edge 92, Type (0, 0), BuildingBlock: UVAHIK_clean_linker_0, # of connection points: 2
#     Edge 93, Type (0, 0), BuildingBlock: UVAHIK_clean_linker_0, # of connection points: 2
#     Edge 94, Type (0, 0), BuildingBlock: UVAHIK_clean_linker_0, # of connection points: 2
#     Edge 95, Type (0, 0), BuildingBlock: UVAHIK_clean_linker_0, # of connection points: 2
# Relax obj value: 0.536
# Max RMSD: 0.236
# Mean RMSD: 0.236
data_MOF--net-pyr-e--node1-IZENUY_clean_sbu_0--edge1-UVAHIK_clean_linker_0
_symmetry_space_group_name_H-M    P1
_symmetry_Int_Tables_number       1
_symmetry_cell_setting            triclinic
loop_
_symmetry_equiv_pos_as_xyz
'x, y, z'
_cell_length_a     56.833861
_cell_length_b     56.83892
_cell_length_c     56.835768
_cell_angle_alpha  90.040053
_cell_angle_beta   90.003621
_cell_angle_gamma 89.967231
loop_
_atom_site_label
_atom_site_type_symbol
_atom_site_fract_x
_atom_site_fract_y
_atom_site_fract_z
_atom_type_partial_charge
Fe0 Fe 0.03917 0.24891 0.04072 0.0
Fe1 Fe 0.00305 0.23769 0.00188 0.0
O2 O 0.01732 0.25812 0.02063 0.0
Fe3 Fe 0.00966 0.28814 0.01927 0.0
O4 O 0.03916 0.29587 0.00979 0.0
O5 O 0.0567 0.27602 0.03808 0.0
O6 O 0.05704 0.23708 0.01731 0.0
C7 C 0.05061 0.22161 0.0028 0.0
C8 C 0.01749 0.28163 0.0679 0.0
O9 O 0.02895 0.21829 0.99847 0.0
C10 C 0.9664 0.26801 0.01726 0.0
O11 O 0.02569 0.2202 0.04642 0.0
O12 O 0.99225 0.22088 0.02681 0.0
O13 O 0.01678 0.29469 0.04996 0.0
O14 O 0.02277 0.2602 0.06591 0.0
C15 C 0.00756 0.27453 0.97165 0.0
O16 O 0.9746 0.25346 0.00236 0.0
O17 O 0.97994 0.28151 0.02862 0.0
C18 C 0.00503 0.21266 0.04297 0.0
O19 O 0.01285 0.2533 0.97551 0.0
O20 O 0.00107 0.28771 0.98831 0.0
C21 C 0.05738 0.29105 0.02159 0.0
Fe22 Fe 0.50204 0.75856 0.49827 0.0
Fe23 Fe 0.49176 0.70716 0.51086 0.0
O24 O 0.48575 0.7374 0.51435 0.0
Fe25 Fe 0.46328 0.74645 0.53392 0.0
O26 O 0.44712 0.76002 0.51011 0.0
O27 O 0.4773 0.77942 0.49559 0.0
O28 O 0.49259 0.74615 0.47031 0.0
C29 C 0.49536 0.72488 0.46468 0.0
C30 C 0.49887 0.78052 0.54078 0.0
O31 O 0.50031 0.70945 0.47989 0.0
C32 C 0.48447 0.71205 0.55975 0.0
O33 O 0.52965 0.74134 0.49804 0.0
O34 O 0.5217 0.71108 0.52072 0.0
O35 O 0.47749 0.77436 0.54169 0.0
O36 O 0.51247 0.77232 0.52526 0.0
C37 C 0.44385 0.70603 0.51253 0.0
O38 O 0.48455 0.69946 0.54135 0.0
O39 O 0.47826 0.73335 0.55892 0.0
C40 C 0.53644 0.72454 0.51109 0.0
O41 O 0.46203 0.7014 0.5007 0.0
O42 O 0.44483 0.72023 0.52967 0.0
C43 C 0.45526 0.7761 0.49717 0.0
Fe44 Fe 0.52957 0.24751 0.94375 0.0
Fe45 Fe 0.49689 0.25844 0.98564 0.0
O46 O 0.51016 0.23791 0.96606 0.0
Fe47 Fe 0.50388 0.20769 0.96864 0.0
O48 O 0.53279 0.19775 0.95848 0.0
O49 O 0.55371 0.22998 0.95528 0.0
O50 O 0.54129 0.27212 0.96104 0.0
C51 C 0.54165 0.27566 0.98306 0.0
C52 C 0.50292 0.21207 0.92097 0.0
O53 O 0.52532 0.26831 0.99613 0.0
C54 C 0.46002 0.22915 0.97672 0.0
O55 O 0.50667 0.26535 0.93088 0.0
O56 O 0.49525 0.28238 0.96375 0.0
O57 O 0.49169 0.20656 0.93927 0.0
O58 O 0.52132 0.22458 0.92237 0.0
C59 C 0.50813 0.21943 0.01484 0.0
O60 O 0.46746 0.25001 0.97639 0.0
O61 O 0.47385 0.21196 0.97929 0.0
C62 C 0.49522 0.2811 0.94147 0.0
O63 O 0.49625 0.23798 0.01098 0.0
O64 O 0.5157 0.20713 0.99803 0.0
C65 C 0.55252 0.20805 0.95831 0.0
Fe66 Fe 0.9941 0.74545 0.48904 0.0
Fe67 Fe 0.98588 0.79452 0.46809 0.0
O68 O 0.9798 0.76413 0.46844 0.0
Fe69 Fe 0.95953 0.7526 0.44786 0.0
O70 O 0.94895 0.72925 0.46736 0.0
O71 O 0.9663 0.73585 0.50135 0.0
O72 O 0.99514 0.76796 0.51259 0.0
C73 C 0.9836 0.78695 0.5153 0.0
C74 C 0.99402 0.7191 0.44661 0.0
O75 O 0.97527 0.79777 0.49781 0.0
C76 C 0.9853 0.78544 0.42118 0.0
O77 O 0.02309 0.75351 0.47827 0.0
O78 O 0.01631 0.79154 0.47791 0.0
O79 O 0.98193 0.7339 0.43536 0.0
O80 O 0.99545 0.71994 0.4689 0.0
C81 C 0.93685 0.79284 0.46007 0.0
O82 O 0.9971 0.7927 0.43843 0.0
O83 O 0.9665 0.77392 0.42436 0.0
C84 C 0.03035 0.77437 0.47652 0.0
O85 O 0.95638 0.80338 0.45811 0.0
O86 O 0.93592 0.77072 0.45936 0.0
C87 C 0.94971 0.72709 0.48952 0.0
Fe88 Fe 0.01842 0.0235 0.29594 0.0
Fe89 Fe 0.04504 0.04616 0.25521 0.0
O90 O 0.02346 0.02622 0.26545 0.0
Fe91 Fe 0.00693 0.00876 0.24539 0.0
O92 O 0.98008 0.00825 0.26382 0.0
O93 O 0.98831 0.03297 0.29243 0.0
O94 O 0.02553 0.05408 0.3031 0.0
C95 C 0.02544 0.07232 0.2904 0.0
C96 C 0.01575 0.97665 0.27983 0.0
O97 O 0.03065 0.07116 0.26891 0.0
C98 C 0.05275 0.00894 0.22564 0.0
O99 O 0.0483 0.01387 0.30098 0.0
O100 O 0.06508 0.04193 0.28037 0.0
O101 O 0.01784 0.98166 0.25833 0.0
O102 O 0.01035 0.99236 0.29466 0.0
C103 C 0.0073 0.05125 0.22288 0.0
O104 O 0.06099 0.02277 0.24085 0.0
O105 O 0.03072 0.00616 0.22349 0.0
C106 C 0.06645 0.02507 0.29493 0.0
O107 O 0.02879 0.05369 0.22837 0.0
O108 O 0.99508 0.03464 0.23107 0.0
C109 C 0.97349 0.02232 0.27988 0.0
Fe110 Fe 0.49734 0.98822 0.74186 0.0
Fe111 Fe 0.48517 0.97846 0.79353 0.0
O112 O 0.48027 0.9731 0.76334 0.0
Fe113 Fe 0.45826 0.95276 0.7549 0.0
O114 O 0.47409 0.9425 0.72872 0.0
O115 O 0.50821 0.96088 0.72952 0.0
O116 O 0.52439 0.98901 0.76012 0.0
C117 C 0.5302 0.97593 0.77729 0.0
C118 C 0.45128 0.98766 0.72242 0.0
O119 O 0.51494 0.96773 0.79109 0.0
C120 C 0.43721 0.97764 0.79278 0.0
O121 O 0.48752 0.01674 0.75249 0.0
O122 O 0.49427 0.00902 0.78968 0.0
O123 O 0.44284 0.97514 0.73861 0.0
O124 O 0.47337 0.98992 0.71998 0.0
C125 C 0.4767 0.92954 0.79248 0.0
O126 O 0.45548 0.98933 0.79749 0.0
O127 O 0.43835 0.95963 0.77961 0.0
C128 C 0.48917 0.02341 0.77355 0.0
O129 O 0.47695 0.94898 0.80325 0.0
O130 O 0.47216 0.92876 0.77081 0.0
C131 C 0.49549 0.94404 0.72266 0.0
Fe132 Fe 0.50621 0.50106 0.75317 0.0
Fe133 Fe 0.52551 0.48843 0.7043 0.0
O134 O 0.52713 0.4863 0.73518 0.0
Fe135 Fe 0.54977 0.46939 0.74802 0.0
O136 O 0.53225 0.46053 0.77351 0.0
O137 O 0.49654 0.47349 0.76618 0.0
O138 O 0.48182 0.49804 0.73198 0.0
C139 C 0.47906 0.48358 0.71519 0.0
C140 C 0.54931 0.50754 0.77709 0.0
O141 O 0.49654 0.47535 0.70427 0.0
C142 C 0.57288 0.49199 0.71022 0.0
O143 O 0.51454 0.52961 0.74133 0.0
O144 O 0.51357 0.5183 0.70433 0.0
O145 O 0.56111 0.49506 0.76304 0.0
O146 O 0.52703 0.50655 0.77745 0.0
C147 C 0.53767 0.4408 0.71156 0.0
O148 O 0.55443 0.50168 0.70262 0.0
O149 O 0.57159 0.47523 0.72483 0.0
C150 C 0.51496 0.53439 0.71965 0.0
O151 O 0.53728 0.4589 0.69861 0.0
O152 O 0.53957 0.44268 0.73358 0.0
C153 C 0.51018 0.45908 0.77616 0.0
Fe154 Fe 0.95653 0.53338 0.24241 0.0
Fe155 Fe 0.99791 0.50074 0.25478 0.0
O156 O 0.98092 0.51621 0.23364 0.0
Fe157 Fe 0.98829 0.51432 0.20358 0.0
O158 O 0.97808 0.54398 0.19614 0.0
O159 O 0.96907 0.56009 0.23007 0.0
O160 O 0.96946 0.54199 0.27075 0.0
C161 C 0.99053 0.54206 0.27807 0.0
C162 C 0.94051 0.51085 0.20106 0.0
O163 O 0.0055 0.52781 0.26992 0.0
C164 C 0.99613 0.46796 0.21989 0.0
O165 O 0.94234 0.50796 0.25511 0.0
O166 O 0.97301 0.49525 0.27492 0.0
O167 O 0.96004 0.50133 0.19645 0.0
O168 O 0.93922 0.52762 0.21571 0.0
C169 C 0.03182 0.51861 0.22288 0.0
O170 O 0.99129 0.47258 0.24104 0.0
O171 O 0.00012 0.48433 0.20535 0.0
C172 C 0.95101 0.4954 0.27117 0.0
O173 O 0.02595 0.50367 0.2384 0.0
O174 O 0.0167 0.52728 0.2092 0.0
C175 C 0.9753 0.56204 0.20886 0.0
Fe176 Fe 0.25328 0.04047 0.04079 0.0
Fe177 Fe 0.24238 -0.00071 0.00704 0.0
O178 O 0.26295 0.01734 0.02227 0.0
Fe179 Fe 0.2934 0.01242 0.01878 0.0
O180 O 0.30148 0.02205 0.04846 0.0
O181 O 0.26781 0.02792 0.06637 0.0
O182 O 0.22666 0.02504 0.05036 0.0
C183 C 0.22132 0.0034 0.05013 0.0
C184 C 0.29186 0.06033 0.01681 0.0
O185 O 0.22899 0.98976 0.03437 0.0
C186 C 0.27581 0.00592 0.97307 0.0
O187 O 0.2382 0.05454 0.01652 0.0
O188 O 0.22031 0.02282 0.00329 0.0
O189 O 0.29756 0.04151 0.00657 0.0
O190 O 0.27828 0.06004 0.03447 0.0
C191 C 0.27758 0.96731 0.02231 0.0
O192 O 0.25435 0.0077 0.97848 0.0
O193 O 0.29118 0.00182 0.98856 0.0
C194 C 0.2226 0.045 0.004 0.0
O195 O 0.26083 0.97249 0.00844 0.0
O196 O 0.29071 0.98313 0.03065 0.0
C197 C 0.2894 0.0229 0.06712 0.0
Fe198 Fe 0.75173 0.44869 0.95012 0.0
Fe199 Fe 0.74037 0.48343 0.99003 0.0
O200 O 0.7611 0.46852 0.97219 0.0
Fe201 Fe 0.79145 0.47327 0.97632 0.0
O202 O 0.79457 0.48453 0.94668 0.0
O203 O 0.7766 0.4546 0.93017 0.0
O204 O 0.73609 0.47182 0.93506 0.0
C205 C 0.72045 0.48468 0.9442 0.0
C206 C 0.78874 0.42455 0.96861 0.0
O207 O 0.71827 0.4862 0.9664 0.0
C208 C 0.77693 0.47074 0.02187 0.0
O209 O 0.72504 0.43953 0.96565 0.0
O210 O 0.72795 0.45592 0.00054 0.0
O211 O 0.80015 0.4436 0.96732 0.0
O212 O 0.76695 0.42429 0.96433 0.0
C213 C 0.7722 0.51858 0.98327 0.0
O214 O 0.75916 0.48329 0.01662 0.0
O215 O 0.7899 0.46224 0.00601 0.0
C216 C 0.71955 0.44035 0.98718 0.0
O217 O 0.75119 0.51205 0.98079 0.0
O218 O 0.78847 0.50374 0.98637 0.0
C219 C 0.78968 0.47262 0.92859 0.0
Fe220 Fe 0.7134 0.52011 0.48615 0.0
Fe221 Fe 0.7525 0.54334 0.45769 0.0
O222 O 0.74357 0.5234 0.47984 0.0
Fe223 Fe 0.76483 0.50684 0.49558 0.0
O224 O 0.75214 0.47914 0.4859 0.0
O225 O 0.71555 0.48892 0.494 0.0
O226 O 0.70709 0.51065 0.45631 0.0
C227 C 0.71146 0.52296 0.43839 0.0
C228 C 0.73153 0.51959 0.53055 0.0
O229 O 0.72598 0.53979 0.43954 0.0
C230 C 0.78695 0.54923 0.49303 0.0
O231 O 0.70587 0.5508 0.47973 0.0
O232 O 0.73982 0.56822 0.47332 0.0
O233 O 0.74801 0.50631 0.5234 0.0
O234 O 0.71784 0.52938 0.51615 0.0
C235 C 0.78138 0.50618 0.44854 0.0
O236 O 0.78071 0.55053 0.47169 0.0
O237 O 0.77883 0.53348 0.50633 0.0
C238 C 0.71861 0.56908 0.47984 0.0
O239 O 0.76547 0.51965 0.44092 0.0
O240 O 0.78534 0.50439 0.47046 0.0
C241 C 0.73086 0.47366 0.48877 0.0
Fe242 Fe 0.24689 0.94718 0.54163 0.0
Fe243 Fe 0.25708 0.98813 0.50737 0.0
O244 O 0.23697 0.96965 0.52252 0.0
Fe245 Fe 0.20645 0.9736 0.5185 0.0
O246 O 0.19791 0.96287 0.54758 0.0
O247 O 0.23111 0.95969 0.56663 0.0
O248 O 0.27269 0.96352 0.55188 0.0
C249 C 0.27813 0.98509 0.55071 0.0
C250 C 0.20967 0.92591 0.51626 0.0
O251 O 0.27035 0.99815 0.53457 0.0
C252 C 0.22427 0.98288 0.47305 0.0
O253 O 0.26328 0.93327 0.51823 0.0
O254 O 0.27963 0.96517 0.50355 0.0
O255 O 0.2037 0.94456 0.50576 0.0
O256 O 0.22277 0.92674 0.53435 0.0
C257 C 0.22063 0.01898 0.52249 0.0
O258 O 0.24543 0.97954 0.47872 0.0
O259 O 0.20868 0.98529 0.48867 0.0
C260 C 0.27845 0.94296 0.50528 0.0
O261 O 0.23779 0.01434 0.50889 0.0
O262 O 0.2081 0.00278 0.53103 0.0
C263 C 0.2092 0.96303 0.5667 0.0
Fe264 Fe 0.94361 0.74566 0.954 0.0
Fe265 Fe 0.96586 0.70305 0.97751 0.0
O266 O 0.96391 0.73388 0.97444 0.0
Fe267 Fe 0.98222 0.75261 0.99158 0.0
O268 O 0.95992 0.77613 0.9944 0.0
O269 O 0.92851 0.76147 0.97697 0.0
O270 O 0.92157 0.72215 0.95788 0.0
C271 C 0.91843 0.70813 0.97495 0.0
C272 C 0.98344 0.77488 0.94877 0.0
O273 O 0.93564 0.70123 0.98711 0.0
C274 C 0.01228 0.71507 0.97779 0.0
O275 O 0.95781 0.73063 0.92958 0.0
O276 O 0.95794 0.69628 0.94695 0.0
O277 O 0.99499 0.76602 0.96552 0.0
O278 O 0.96163 0.77118 0.94656 0.0
C279 C 0.97066 0.71912 0.02417 0.0
O280 O 0.99611 0.70341 0.96807 0.0
O281 O 0.00755 0.73211 0.99152 0.0
C282 C 0.96035 0.70865 0.92864 0.0
O283 O 0.97412 0.70368 0.00857 0.0
O284 O 0.97089 0.7407 0.01907 0.0
C285 C 0.93781 0.77593 0.99101 0.0
Fe286 Fe 0.54052 0.25597 0.46016 0.0
Fe287 Fe 0.51406 0.29514 0.48543 0.0
O288 O 0.52012 0.26488 0.4819 0.0
Fe289 Fe 0.50558 0.2439 0.49989 0.0
O290 O 0.53315 0.23239 0.51097 0.0
O291 O 0.55133 0.23055 0.47681 0.0
O292 O 0.56407 0.27286 0.47364 0.0
C293 C 0.56291 0.29473 0.47707 0.0
C294 C 0.50603 0.22274 0.45458 0.0
O295 O 0.54328 0.30518 0.47621 0.0
C296 C 0.46968 0.27456 0.49142 0.0
O297 O 0.53308 0.27981 0.43948 0.0
O298 O 0.50254 0.29708 0.45578 0.0
O299 O 0.50396 0.22112 0.47676 0.0
O300 O 0.51843 0.23864 0.44538 0.0
C301 C 0.51769 0.28112 0.53108 0.0
O302 O 0.48378 0.29116 0.49554 0.0
O303 O 0.47679 0.25368 0.48987 0.0
C304 C 0.51428 0.29173 0.43772 0.0
O305 O 0.52525 0.29442 0.51502 0.0
O306 O 0.50503 0.26327 0.52623 0.0
C307 C 0.54996 0.22521 0.4984 0.0
Fe308 Fe 0.47836 0.79036 0.02629 0.0
Fe309 Fe 0.49443 0.74072 0.01304 0.0
O310 O 0.47753 0.75976 0.03124 0.0
Fe311 Fe 0.46014 0.74855 0.05437 0.0
O312 O 0.43333 0.76139 0.04241 0.0
O313 O 0.44865 0.79631 0.03716 0.0
O314 O 0.46584 0.78635 0.99732 0.0
C315 C 0.47547 0.77414 0.98145 0.0
C316 C 0.48174 0.78897 0.07409 0.0
O317 O 0.49143 0.75933 0.98656 0.0
C318 C 0.49926 0.72067 0.05826 0.0
O319 O 0.50833 0.79041 0.01478 0.0
O320 O 0.52172 0.75504 0.02203 0.0
O321 O 0.46538 0.77375 0.07424 0.0
O322 O 0.49092 0.79554 0.055 0.0
C323 C 0.45302 0.71647 0.0167 0.0
O324 O 0.50001 0.71868 0.03609 0.0
O325 O 0.48552 0.73507 0.06798 0.0
C326 C 0.52511 0.77689 0.02019 0.0
O327 O 0.46836 0.72529 0.00329 0.0
O328 O 0.45218 0.72157 0.03843 0.0
C329 C 0.4309 0.7831 0.03884 0.0
Fe330 Fe 0.03453 0.24462 0.54533 0.0
Fe331 Fe 0.00714 0.20616 0.52001 0.0
O332 O 0.01275 0.2363 0.52477 0.0
Fe333 Fe 0.99678 0.2582 0.5091 0.0
O334 O 0.02166 0.27906 0.50796 0.0
O335 O 0.05136 0.25877 0.52238 0.0
O336 O 0.05313 0.21863 0.54119 0.0
C337 C 0.05485 0.20457 0.52405 0.0
C338 C 0.99865 0.27777 0.55299 0.0
O339 O 0.03733 0.20055 0.5111 0.0
C340 C 0.96226 0.22361 0.5193 0.0
O341 O 0.01873 0.23077 0.56941 0.0
O342 O 0.01295 0.19748 0.55056 0.0
O343 O 0.98556 0.27093 0.53639 0.0
O344 O 0.02014 0.27213 0.55343 0.0
C345 C 0.00554 0.22576 0.47443 0.0
O346 O 0.97675 0.20962 0.52856 0.0
O347 O 0.96928 0.24106 0.50733 0.0
C348 C 0.0128 0.20937 0.56945 0.0
O349 O 0.00033 0.20958 0.48879 0.0
O350 O 0.00692 0.24696 0.48089 0.0
C351 C 0.04362 0.27525 0.50968 0.0
Fe352 Fe 0.96339 0.96312 0.74871 0.0
Fe353 Fe 0.98993 0.99462 0.71435 0.0
O354 O 0.98424 0.98555 0.74349 0.0
Fe355 Fe -0.00052 -0.0009 0.76722 0.0
O356 O -0.00012 0.97266 0.78588 0.0
O357 O 0.98514 0.945 0.76323 0.0
O358 O 0.97016 0.94671 0.72163 0.0
C359 C 0.98796 0.94711 0.70817 0.0
C360 C 0.95465 0.99637 0.78467 0.0
O361 O 0.00018 0.96555 0.70612 0.0
C362 C 0.9888 0.0369 0.73664 0.0
O363 O 0.93995 0.97969 0.73461 0.0
O364 O 0.96033 0.98851 0.70319 0.0
O365 O 0.97218 0.0093 0.78039 0.0
O366 O 0.95311 0.97571 0.77649 0.0
C367 C 0.03486 0.99493 0.73523 0.0
O368 O 0.97978 0.02397 0.72107 0.0
O369 O 0.00166 0.02818 0.7527 0.0
C370 C 0.94083 0.98713 0.71378 0.0
O371 O 0.02072 0.00255 0.71985 0.0
O372 O 0.02779 0.98956 0.75554 0.0
C373 C 0.99721 0.95111 0.78081 0.0
Fe374 Fe 0.50418 0.00546 0.26253 0.0
Fe375 Fe 0.53627 0.04693 0.24952 0.0
O376 O 0.51893 0.02259 0.24106 0.0
Fe377 Fe 0.51629 0.01531 0.211 0.0
O378 O 0.4864 0.00356 0.21359 0.0
O379 O 0.47555 0.01233 0.24964 0.0
O380 O 0.49939 0.03009 0.28306 0.0
C381 C 0.49943 0.05215 0.2798 0.0
C382 C 0.5204 0.9715 0.22954 0.0
O383 O 0.51129 0.06109 0.26333 0.0
C384 C 0.56404 0.02879 0.21487 0.0
O385 O 0.53186 0.99766 0.27665 0.0
O386 O 0.54581 0.03375 0.27732 0.0
O387 O 0.52926 0.98668 0.216 0.0
O388 O 0.50646 0.97768 0.24587 0.0
C389 C 0.51289 0.06304 0.20844 0.0
O390 O 0.56259 0.03431 0.2363 0.0
O391 O 0.54566 0.02577 0.2027 0.0
C392 C 0.54673 0.01249 0.28394 0.0
O393 O 0.52965 0.06447 0.22311 0.0
O394 O 0.50313 0.04354 0.20434 0.0
C395 C 0.47041 0.0078 0.22849 0.0
Fe396 Fe 0.4535 0.52987 0.25242 0.0
Fe397 Fe 0.48104 0.50378 0.29017 0.0
O398 O 0.47607 0.51006 0.26023 0.0
Fe399 Fe 0.49354 0.49643 0.23821 0.0
O400 O 0.50386 0.52473 0.22755 0.0
O401 O 0.46876 0.54097 0.22632 0.0
O402 O 0.46716 0.55371 0.26875 0.0
C403 C 0.47182 0.55259 0.29041 0.0
C404 C 0.44762 0.49594 0.219 0.0
O405 O 0.47208 0.53292 0.30086 0.0
C406 C 0.48651 0.45978 0.26819 0.0
O407 O 0.43413 0.52219 0.27712 0.0
O408 O 0.4516 0.49193 0.29353 0.0
O409 O 0.46975 0.49538 0.21611 0.0
O410 O 0.43861 0.50725 0.2358 0.0
C411 C 0.526 0.50748 0.27436 0.0
O412 O 0.49101 0.47357 0.28504 0.0
O413 O 0.48419 0.46728 0.24747 0.0
C414 C 0.43316 0.50342 0.28907 0.0
O415 O 0.51059 0.51523 0.28827 0.0
O416 O 0.52038 0.49514 0.25661 0.0
C417 C 0.49042 0.54118 0.22107 0.0
Fe418 Fe 0.00787 0.49955 0.73689 0.0
Fe419 Fe 0.04397 0.46119 0.74887 0.0
O420 O 0.02488 0.48403 0.758 0.0
Fe421 Fe 0.0227 0.49122 0.78812 0.0
O422 O 0.99152 0.49926 0.7867 0.0
O423 O 0.98049 0.49022 0.75066 0.0
O424 O 0.00479 0.47438 0.71671 0.0
C425 C 0.00582 0.45256 0.7211 0.0
C426 C 0.02099 0.53527 0.76945 0.0
O427 O 0.01946 0.44476 0.73675 0.0
C428 C 0.07142 0.48338 0.7815 0.0
O429 O 0.03425 0.50981 0.722 0.0
O430 O 0.05083 0.47487 0.72052 0.0
O431 O 0.03192 0.52121 0.78267 0.0
O432 O 0.00774 0.52753 0.75326 0.0
C433 C 0.02474 0.44319 0.79106 0.0
O434 O 0.0696 0.47622 0.76057 0.0
O435 O 0.05356 0.48464 0.79477 0.0
C436 C 0.05024 0.49632 0.7145 0.0
O437 O 0.04076 0.44345 0.77562 0.0
O438 O 0.01326 0.46162 0.7957 0.0
C439 C 0.97559 0.49415 0.77198 0.0
Fe440 Fe 0.74392 0.9546 0.97446 0.0
Fe441 Fe 0.70437 0.98585 0.99253 0.0
O442 O 0.73471 0.98027 0.98931 0.0
Fe443 Fe 0.7556 0.00039 0.00088 0.0
O444 O 0.76844 0.00532 0.972 0.0
O445 O 0.77058 0.96793 0.96224 0.0
O446 O 0.72881 0.96326 0.94743 0.0
C447 C 0.70698 0.96733 0.94659 0.0
C448 C 0.77544 0.95563 0.01069 0.0
O449 O 0.69561 0.97113 0.96531 0.0
C450 C 0.72301 0.00107 0.03604 0.0
O451 O 0.71903 0.93658 0.98434 0.0
O452 O 0.70021 0.95913 0.00953 0.0
O453 O 0.77769 0.97765 0.00792 0.0
O454 O 0.7594 0.94437 0.00033 0.0
C455 C 0.72033 0.02949 0.98108 0.0
O456 O 0.70729 0.00179 0.02033 0.0
O457 O 0.74415 0.99682 0.0307 0.0
C458 C 0.70548 0.93891 0.00191 0.0
O459 O 0.70704 0.01261 0.9756 0.0
O460 O 0.73714 0.02667 0.99554 0.0
C461 C 0.7764 0.98917 0.95897 0.0
Fe462 Fe 0.20726 0.51042 0.00425 0.0
Fe463 Fe 0.25968 0.50247 0.99508 0.0
O464 O 0.23679 0.51851 0.00898 0.0
Fe465 Fe 0.24326 0.54254 0.02756 0.0
O466 O 0.22881 0.52888 0.05259 0.0
O467 O 0.19676 0.51989 0.03322 0.0
O468 O 0.2125 0.48183 0.01706 0.0
C469 C 0.22705 0.46727 0.00882 0.0
C470 C 0.20346 0.55809 0.00179 0.0
O471 O 0.24375 0.47407 0.99563 0.0
C472 C 0.27548 0.54986 0.9928 0.0
O473 O 0.2121 0.49931 0.97434 0.0
O474 O 0.24838 0.50963 0.96597 0.0
O475 O 0.21675 0.55944 0.01968 0.0
O476 O 0.20058 0.53873 0.99128 0.0
C477 C 0.27829 0.5089 0.03896 0.0
O478 O 0.27959 0.52792 0.99215 0.0
O479 O 0.25806 0.55778 0.00399 0.0
C480 C 0.2279 0.50415 0.95943 0.0
O481 O 0.27238 0.49437 0.02323 0.0
O482 O 0.27084 0.52991 0.03855 0.0
C483 C 0.20755 0.52263 0.05249 0.0
Fe484 Fe 0.25376 0.4593 0.53102 0.0
Fe485 Fe 0.28947 0.48637 0.5017 0.0
O486 O 0.26 0.48077 0.5095 0.0
Fe487 Fe 0.23688 0.49647 0.49549 0.0
O488 O 0.2267 0.50843 0.52332 0.0
O489 O 0.22777 0.47467 0.54235 0.0
O490 O 0.27069 0.47466 0.55331 0.0
C491 C 0.29213 0.47979 0.55095 0.0
C492 C 0.21915 0.45012 0.49898 0.0
O493 O 0.3016 0.47976 0.5308 0.0
C494 C 0.26584 0.48771 0.45838 0.0
O495 O 0.27871 0.44013 0.52339 0.0
O496 O 0.29365 0.45635 0.49168 0.0
O497 O 0.21556 0.47204 0.49689 0.0
O498 O 0.23667 0.44251 0.51021 0.0
C499 C 0.27228 0.5309 0.50284 0.0
O500 O 0.28288 0.49409 0.47114 0.0
O501 O 0.24551 0.48521 0.46681 0.0
C502 C 0.29045 0.43853 0.5045 0.0
O503 O 0.2868 0.51649 0.51134 0.0
O504 O 0.2543 0.52379 0.49162 0.0
C505 C 0.22148 0.49604 0.54101 0.0
Fe506 Fe 0.73849 0.00444 0.50477 0.0
Fe507 Fe 0.74909 0.04259 0.46808 0.0
O508 O 0.75887 0.0228 0.48997 0.0
Fe509 Fe 0.78901 0.02125 0.49698 0.0
O510 O 0.78862 0.98976 0.50409 0.0
O511 O 0.75313 0.97808 0.49401 0.0
O512 O 0.71831 0.00176 0.47943 0.0
C513 C 0.72232 0.0043 0.45762 0.0
C514 C 0.77014 0.0181 0.5408 0.0
O515 O 0.73779 0.01852 0.45056 0.0
C516 C 0.78098 0.06994 0.49126 0.0
O517 O 0.72274 0.02987 0.51622 0.0
O518 O 0.72037 0.04775 0.48193 0.0
O519 O 0.78315 0.02959 0.52708 0.0
O520 O 0.75506 0.00372 0.53278 0.0
C521 C 0.79173 0.02518 0.44926 0.0
O522 O 0.75999 0.06791 0.4843 0.0
O523 O 0.79476 0.05243 0.49137 0.0
C524 C 0.71397 0.04555 0.50317 0.0
O525 O 0.77602 0.04094 0.45034 0.0
O526 O 0.79667 0.01292 0.46708 0.0
C527 C 0.77461 0.97371 0.4976 0.0
C528 C 0.97332 0.19188 0.06535 0.0
C529 C 0.99664 0.19278 0.05724 0.0
C530 C 0.96643 0.17437 0.08126 0.0
C531 C 0.96993 0.14899 0.12974 0.0
H532 H 0.98681 0.08326 0.12215 0.0
C533 C 0.00561 0.09007 0.20283 0.0
C534 C 0.99727 0.06693 0.20484 0.0
C535 C 0.99775 0.10455 0.18467 0.0
C536 C 0.98152 0.10143 0.1244 0.0
H537 H 0.03064 0.17554 0.05805 0.0
H538 H 0.01846 0.14461 0.08516 0.0
H539 H 0.98732 0.10949 0.08801 0.0
H540 H 0.97373 0.04089 0.18992 0.0
H541 H 0.9606 0.06613 0.15739 0.0
H542 H 0.96604 0.14136 0.16647 0.0
C543 C 0.00558 0.15749 0.07951 0.0
C544 C 0.98189 0.11641 0.10493 0.0
C545 C 0.01259 0.17526 0.06417 0.0
C546 C 0.98037 0.05871 0.18876 0.0
C547 C 0.97289 0.07307 0.1702 0.0
C548 C 0.96997 0.1341 0.14928 0.0
C549 C 0.98263 0.15719 0.08861 0.0
C550 C 0.97687 0.14046 0.10761 0.0
C551 C 0.98173 0.09603 0.1679 0.0
C552 C 0.97653 0.11039 0.14688 0.0
H553 H 0.96077 0.20532 0.06029 0.0
H554 H 0.94868 0.1745 0.08819 0.0
H555 H 0.9662 0.16752 0.13225 0.0
H556 H 0.01853 0.09686 0.2151 0.0
H557 H 0.00504 0.12209 0.1831 0.0
C558 C 0.49134 0.81793 0.56202 0.0
C559 C 0.50685 0.79952 0.55648 0.0
C560 C 0.49764 0.83498 0.57847 0.0
C561 C 0.52116 0.87447 0.60653 0.0
H562 H 0.53022 0.84922 0.66927 0.0
C563 C 0.52256 0.93361 0.68937 0.0
C564 C 0.50477 0.9271 0.70527 0.0
C565 C 0.52938 0.91826 0.67134 0.0
C566 C 0.5281 0.85652 0.65179 0.0
H567 H 0.54125 0.78461 0.56333 0.0
H568 H 0.55199 0.81422 0.59313 0.0
H569 H 0.53069 0.82268 0.63526 0.0
H570 H 0.48119 0.89901 0.71568 0.0
H571 H 0.49345 0.87207 0.68456 0.0
H572 H 0.51757 0.90815 0.62308 0.0
C573 C 0.53517 0.81557 0.58428 0.0
C574 C 0.52852 0.8414 0.63237 0.0
C575 C 0.52908 0.79875 0.56727 0.0
C576 C 0.49483 0.90455 0.70357 0.0
C577 C 0.50197 0.88906 0.68589 0.0
C578 C 0.52114 0.88963 0.62588 0.0
C579 C 0.51937 0.8337 0.59011 0.0
C580 C 0.52419 0.85015 0.60969 0.0
C581 C 0.51893 0.89595 0.6693 0.0
C582 C 0.52375 0.88067 0.64876 0.0
H583 H 0.47414 0.81894 0.55385 0.0
H584 H 0.48505 0.84863 0.58285 0.0
H585 H 0.51775 0.88159 0.58917 0.0
H586 H 0.53049 0.95092 0.69025 0.0
H587 H 0.54248 0.92395 0.65873 0.0
C588 C 0.51535 0.42196 0.79859 0.0
C589 C 0.50091 0.44104 0.7924 0.0
C590 C 0.50739 0.40483 0.8141 0.0
C591 C 0.46821 0.39408 0.86304 0.0
H592 H 0.48384 0.32925 0.84864 0.0
C593 C 0.4872 0.32357 0.9333 0.0
C594 C 0.48452 0.29981 0.92717 0.0
C595 C 0.48133 0.34121 0.91714 0.0
C596 C 0.47874 0.34711 0.85292 0.0
H597 H 0.46667 0.45709 0.79763 0.0
H598 H 0.45274 0.4269 0.82533 0.0
H599 H 0.4883 0.35908 0.81862 0.0
H600 H 0.47131 0.27573 0.90078 0.0
H601 H 0.45995 0.30639 0.8731 0.0
H602 H 0.45916 0.38206 0.89764 0.0
C603 C 0.47024 0.42539 0.81793 0.0
C604 C 0.48159 0.36426 0.8357 0.0
C605 C 0.47817 0.44254 0.80206 0.0
C606 C 0.47388 0.29398 0.90569 0.0
C607 C 0.46751 0.31155 0.88982 0.0
C608 C 0.46529 0.3768 0.88038 0.0
C609 C 0.4848 0.40632 0.82396 0.0
C610 C 0.4772 0.38801 0.84082 0.0
C611 C 0.47231 0.33531 0.8948 0.0
C612 C 0.47124 0.3532 0.87572 0.0
H613 H 0.53292 0.42018 0.7914 0.0
H614 H 0.51914 0.39053 0.81869 0.0
H615 H 0.46471 0.41229 0.86742 0.0
H616 H 0.49543 0.32844 0.94979 0.0
H617 H 0.4854 0.35928 0.92158 0.0
C618 C 0.00727 0.677 0.44433 0.0
C619 C 0.00378 0.69892 0.43346 0.0
C620 C 0.01301 0.65721 0.43079 0.0
C621 C 0.03206 0.63789 0.3711 0.0
H622 H 0.98728 0.58735 0.38061 0.0
C623 C 0.97889 0.56816 0.31144 0.0
C624 C 0.99677 0.55719 0.29833 0.0
C625 C 0.98441 0.58225 0.33073 0.0
C626 C 6e-05 0.60122 0.37786 0.0
H627 H 0.00545 0.71777 0.40033 0.0
H628 H 0.01544 0.68347 0.37686 0.0
H629 H 0.99057 0.61851 0.40989 0.0
H630 H 0.03453 0.55246 0.29522 0.0
H631 H 0.04419 0.57763 0.32892 0.0
H632 H 0.04053 0.62121 0.33836 0.0
C633 C 0.01374 0.6814 0.39573 0.0
C634 C 0.00214 0.61893 0.39476 0.0
C635 C 0.00777 0.70104 0.40916 0.0
C636 C 0.02036 0.56067 0.30499 0.0
C637 C 0.0259 0.57506 0.32422 0.0
C638 C 0.03006 0.62008 0.35424 0.0
C639 C 0.0157 0.65914 0.40625 0.0
C640 C 0.0175 0.63794 0.39112 0.0
C641 C 0.00793 0.58592 0.33731 0.0
C642 C 0.01336 0.60209 0.35704 0.0
H643 H 0.00436 0.67488 0.46304 0.0
H644 H 0.01457 0.64028 0.43938 0.0
H645 H 0.04423 0.65221 0.36796 0.0
H646 H 0.96053 0.56583 0.30688 0.0
H647 H 0.9702 0.59073 0.34021 0.0
C648 C 0.09353 0.00146 0.21116 0.0
C649 C 0.06917 0.99825 0.20844 0.0
C650 C 0.10917 0.99357 0.19402 0.0
C651 C 0.1115 0.98116 0.13078 0.0
H652 H 0.17607 0.96555 0.14648 0.0
C653 C 0.18773 0.97747 0.06226 0.0
C654 C 0.20459 0.99467 0.06787 0.0
C655 C 0.17077 0.97088 0.07889 0.0
C656 C 0.15802 0.96954 0.14182 0.0
H657 H 0.04224 0.98299 0.18609 0.0
H658 H 0.06975 0.96889 0.15612 0.0
H659 H 0.14612 0.96542 0.17724 0.0
H660 H 0.21778 0.0176 0.09533 0.0
H661 H 0.18868 0.00559 0.1245 0.0
H662 H 0.12375 0.98578 0.09538 0.0
C663 C 0.07664 0.97792 0.17142 0.0
C664 C 0.14089 0.96965 0.15942 0.0
C665 C 0.06089 0.98591 0.18864 0.0
C666 C 0.20486 0.00441 0.09055 0.0
C667 C 0.18836 0.99743 0.10726 0.0
C668 C 0.12861 0.98069 0.11309 0.0
C669 C 0.10095 0.98207 0.17372 0.0
C670 C 0.11767 0.97658 0.15432 0.0
C671 C 0.17095 0.98091 0.10148 0.0
C672 C 0.15217 0.97587 0.11871 0.0
H673 H 0.10058 0.01076 0.22623 0.0
H674 H 0.12767 0.9975 0.19628 0.0
H675 H 0.09386 0.98671 0.1262 0.0
H676 H 0.18715 0.96978 0.04483 0.0
H677 H 0.1574 0.95818 0.07408 0.0
C678 C 0.41046 0.99547 0.70839 0.0
C679 C 0.43483 0.99746 0.70473 0.0
C680 C 0.39458 0.00235 0.69107 0.0
C681 C 0.39065 0.00922 0.62703 0.0
H682 H 0.32706 0.02805 0.64325 0.0
C683 C 0.31236 0.01101 0.5607 0.0
C684 C 0.29538 0.99443 0.56764 0.0
C685 C 0.32998 0.01806 0.57642 0.0
C686 C 0.34484 0.02313 0.63844 0.0
H687 H 0.46159 0.00951 0.68037 0.0
H688 H 0.43366 0.02192 0.65 0.0
H689 H 0.35798 0.02992 0.67299 0.0
H690 H 0.28271 0.97308 0.59654 0.0
H691 H 0.31296 0.98603 0.62421 0.0
H692 H 0.37714 0.0021 0.5925 0.0
C693 C 0.42693 0.0146 0.66624 0.0
C694 C 0.36252 0.024 0.65545 0.0
C695 C 0.44293 0.0076 0.68368 0.0
C696 C 0.29567 0.9858 0.59076 0.0
C697 C 0.31285 0.9933 0.60659 0.0
C698 C 0.373 0.00875 0.60989 0.0
C699 C 0.40255 0.01163 0.66959 0.0
C700 C 0.38539 0.01597 0.65028 0.0
C701 C 0.33036 0.00916 0.59945 0.0
C702 C 0.34978 0.01476 0.61576 0.0
H703 H 0.40352 0.98789 0.72444 0.0
H704 H 0.37604 -0.00065 0.69421 0.0
H705 H 0.40797 0.00276 0.62242 0.0
H706 H 0.31255 0.01781 0.5429 0.0
H707 H 0.34341 0.03025 0.57058 0.0
C708 C 0.55758 0.51169 0.81969 0.0
C709 C 0.56203 0.51873 0.79651 0.0
C710 C 0.57331 0.51762 0.83762 0.0
C711 C 0.60847 0.53147 0.87466 0.0
H712 H 0.67265 0.52789 0.85198 0.0
C713 C 0.6867 0.51249 0.93733 0.0
C714 C 0.703 0.49604 0.92859 0.0
C715 C 0.66985 0.52251 0.92239 0.0
C716 C 0.65483 0.52883 0.85867 0.0
H717 H 0.58466 0.53932 0.77395 0.0
H718 H 0.61115 0.55141 0.80547 0.0
H719 H 0.64105 0.53301 0.82423 0.0
H720 H 0.7145 0.47739 0.89728 0.0
H721 H 0.68494 0.49399 0.87171 0.0
H722 H 0.62244 0.52483 0.90897 0.0
C723 C 0.59638 0.54023 0.80983 0.0
C724 C 0.63656 0.53228 0.84271 0.0
C725 C 0.58108 0.5336 0.79179 0.0
C726 C 0.70231 0.49008 0.90462 0.0
C727 C 0.68542 0.49985 0.88984 0.0
C728 C 0.62679 0.52746 0.89062 0.0
C729 C 0.59351 0.53118 0.83275 0.0
C730 C 0.61299 0.53272 0.85032 0.0
C731 C 0.66891 0.51615 0.89847 0.0
C732 C 0.65009 0.52508 0.88263 0.0
H733 H 0.54305 0.49999 0.82359 0.0
H734 H 0.57043 0.51002 0.85482 0.0
H735 H 0.59068 0.53246 0.88137 0.0
H736 H 0.6869 0.51757 0.9557 0.0
H737 H 0.65753 0.53515 0.92959 0.0
C738 C 0.94129 0.48218 0.3121 0.0
C739 C 0.93465 0.48496 0.28844 0.0
C740 C 0.92432 0.47726 0.32926 0.0
C741 C 0.86181 0.48891 0.33829 0.0
H742 H 0.86971 0.45354 0.39607 0.0
C743 C 0.7901 0.49162 0.40813 0.0
C744 C 0.79765 0.49549 0.43133 0.0
C745 C 0.80603 0.48452 0.39087 0.0
C746 C 0.8673 0.46355 0.38004 0.0
H747 H 0.90564 0.48231 0.26381 0.0
H748 H 0.87623 0.47316 0.29358 0.0
H749 H 0.89956 0.45075 0.36506 0.0
H750 H 0.8275 0.4937 0.455 0.0
H751 H 0.85561 0.48201 0.42462 0.0
H752 H 0.83025 0.50247 0.35327 0.0
C753 C 0.89434 0.47551 0.29904 0.0
C754 C 0.88436 0.46191 0.36229 0.0
C755 C 0.9112 0.48064 0.28198 0.0
C756 C 0.82121 0.49085 0.43723 0.0
C757 C 0.83728 0.48405 0.41983 0.0
C758 C 0.84492 0.4906 0.35594 0.0
C759 C 0.9005 0.47486 0.32298 0.0
C760 C 0.88183 0.4747 0.34127 0.0
C761 C 0.82999 0.48152 0.3963 0.0
C762 C 0.84746 0.47808 0.37711 0.0
H763 H 0.95925 0.48543 0.31759 0.0
H764 H 0.92963 0.47692 0.34755 0.0
H765 H 0.85958 0.49951 0.32262 0.0
H766 H 0.77195 0.49467 0.40317 0.0
H767 H 0.79968 0.48211 0.37307 0.0
C768 C 0.21101 0.08042 0.98105 0.0
C769 C 0.20446 0.06026 0.9936 0.0
C770 C 0.19405 0.09682 0.9741 0.0
C771 C 0.16019 0.13706 0.97789 0.0
H772 H 0.09362 0.12282 0.97491 0.0
C773 C 0.09157 0.20571 0.00305 0.0
C774 C 0.06859 0.20484 0.99396 0.0
C775 C 0.10804 0.18852 0.99722 0.0
C776 C 0.11214 0.12722 0.9752 0.0
H777 H 0.17523 0.0409 0.00831 0.0
H778 H 0.14576 0.07008 0.99777 0.0
H779 H 0.12207 0.09101 0.97325 0.0
H780 H 0.04531 0.18574 0.97054 0.0
H781 H 0.07449 0.15604 0.95956 0.0
H782 H 0.15037 0.17326 0.97874 0.0
C783 C 0.1637 0.07303 0.99217 0.0
C784 C 0.12856 0.10885 0.97471 0.0
C785 C 0.18061 0.05626 0.99839 0.0
C786 C 0.06283 0.18686 0.97796 0.0
C787 C 0.07953 0.16972 0.97183 0.0
C788 C 0.14385 0.15539 0.97775 0.0
C789 C 0.17023 0.09391 0.98043 0.0
C790 C 0.15283 0.11342 0.97697 0.0
C791 C 0.10226 0.17008 0.98174 0.0
C792 C 0.11955 0.15074 0.97745 0.0
H793 H 0.22936 0.08373 0.97703 0.0
H794 H 0.19984 0.1121 0.96437 0.0
H795 H 0.17856 0.14164 0.97986 0.0
H796 H 0.09671 0.2192 0.0155 0.0
H797 H 0.12506 0.18927 0.00574 0.0
C798 C 0.58256 0.29119 0.9821 0.0
C799 C 0.5604 0.29058 0.99299 0.0
C800 C 0.59995 0.30649 0.99019 0.0
C801 C 0.60576 0.36405 0.01412 0.0
H802 H 0.67195 0.34787 0.01891 0.0
C803 C 0.70104 0.4148 0.01803 0.0
C804 C 0.7004 0.42512 0.99559 0.0
C805 C 0.68336 0.39904 0.0249 0.0
C806 C 0.65349 0.35261 0.01816 0.0
H807 H 0.5392 0.3049 0.02131 0.0
H808 H 0.56954 0.33247 0.03494 0.0
H809 H 0.64226 0.31658 0.0183 0.0
H810 H 0.68048 0.42814 0.96321 0.0
H811 H 0.64933 0.40135 0.97548 0.0
H812 H 0.61714 0.39994 0.01193 0.0
C813 C 0.57345 0.32077 0.0204 0.0
C814 C 0.63658 0.33477 0.01768 0.0
C815 C 0.55616 0.30504 0.01262 0.0
C816 C 0.68144 0.42026 0.98054 0.0
C817 C 0.66356 0.40512 0.98761 0.0
C818 C 0.62269 0.38184 0.01417 0.0
C819 C 0.59538 0.32177 0.00906 0.0
C820 C 0.61265 0.34034 0.01486 0.0
C821 C 0.66453 0.39412 0.00966 0.0
C822 C 0.6467 0.37618 0.01542 0.0
H823 H 0.58633 0.28008 0.96707 0.0
H824 H 0.61661 0.30714 0.98096 0.0
H825 H 0.58745 0.36878 0.01173 0.0
H826 H 0.71557 0.4183 0.02987 0.0
H827 H 0.68446 0.39057 0.04193 0.0
C828 C 0.90964 0.70981 0.49189 0.0
C829 C 0.93256 0.7114 0.50093 0.0
C830 C 0.89413 0.69281 0.50032 0.0
C831 C 0.89551 0.63339 0.51951 0.0
H832 H 0.82856 0.6423 0.52958 0.0
C833 C 0.8053 0.57398 0.52454 0.0
C834 C 0.8057 0.56494 0.50153 0.0
C835 C 0.82202 0.59066 0.5316 0.0
C836 C 0.84729 0.63954 0.52731 0.0
H837 H 0.95703 0.69721 0.5265 0.0
H838 H 0.92998 0.6667 0.54074 0.0
H839 H 0.85498 0.67638 0.53016 0.0
H840 H 0.82434 0.56515 0.46827 0.0
H841 H 0.85392 0.59361 0.48083 0.0
H842 H 0.88753 0.59684 0.51467 0.0
C843 C 0.924 0.67895 0.52742 0.0
C844 C 0.86234 0.65898 0.52754 0.0
C845 C 0.93939 0.69637 0.51933 0.0
C846 C 0.82361 0.57196 0.48607 0.0
C847 C 0.8406 0.58808 0.49329 0.0
C848 C 0.88041 0.61403 0.51886 0.0
C849 C 0.9014 0.67676 0.51764 0.0
C850 C 0.88645 0.65614 0.52286 0.0
C851 C 0.83971 0.59788 0.51594 0.0
C852 C 0.8561 0.61709 0.52198 0.0
H853 H 0.90396 0.72129 0.47777 0.0
H854 H 0.8769 0.69132 0.4923 0.0
H855 H 0.91399 0.63077 0.51563 0.0
H856 H 0.79156 0.56886 0.53671 0.0
H857 H 0.82099 0.59814 0.5491 0.0
C858 C 0.29364 0.90346 0.49347 0.0
C859 C 0.29665 0.92799 0.49421 0.0
C860 C 0.31166 0.88889 0.4854 0.0
C861 C 0.37557 0.8873 0.48246 0.0
H862 H 0.36408 0.82783 0.451 0.0
C863 C 0.44679 0.81548 0.47907 0.0
C864 C 0.43872 0.79355 0.48717 0.0
C865 C 0.43079 0.83306 0.47265 0.0
C866 C 0.3676 0.84442 0.45971 0.0
H867 H 0.32053 0.95655 0.48587 0.0
H868 H 0.35218 0.93096 0.47181 0.0
H869 H 0.33294 0.85741 0.45264 0.0
H870 H 0.4076 0.77232 0.49331 0.0
H871 H 0.37982 0.8029 0.48233 0.0
H872 H 0.40981 0.87394 0.4905 0.0
C873 C 0.33586 0.92307 0.47766 0.0
C874 C 0.34979 0.86134 0.46064 0.0
C875 C 0.31771 0.93771 0.48563 0.0
C876 C 0.41441 0.78909 0.48734 0.0
C877 C 0.39846 0.80658 0.48083 0.0
C878 C 0.39338 0.87038 0.48152 0.0
C879 C 0.33318 0.89847 0.47792 0.0
C880 C 0.3533 0.88261 0.47278 0.0
C881 C 0.40644 0.82896 0.47402 0.0
C882 C 0.38929 0.84843 0.47088 0.0
H883 H 0.27756 0.89539 0.49976 0.0
H884 H 0.3091 0.87002 0.48612 0.0
H885 H 0.37878 0.9034 0.49214 0.0
H886 H 0.46543 0.81945 0.47861 0.0
H887 H 0.43746 0.85006 0.46724 0.0
C888 C 0.01759 0.93879 0.81811 0.0
C889 C 0.00562 0.93274 0.79731 0.0
C890 C 0.02344 0.92151 0.83466 0.0
C891 C 0.02628 0.85634 0.84336 0.0
H892 H 0.00977 0.87163 0.90778 0.0
C893 C 0.98728 0.79087 0.90841 0.0
C894 C 0.99481 0.79093 0.93192 0.0
C895 C 0.99603 0.8073 0.8925 0.0
C896 C 0.01498 0.86721 0.88999 0.0
H897 H 0.99139 0.90357 0.77715 0.0
H898 H 0.001 0.87377 0.80602 0.0
H899 H 0.01146 0.90281 0.8784 0.0
H900 H 0.01786 0.80772 0.95721 0.0
H901 H 0.0327 0.83731 0.9293 0.0
H902 H 0.02811 0.82046 0.85477 0.0
C903 C 0.00628 0.89173 0.80952 0.0
C904 C 0.01598 0.88507 0.87311 0.0
C905 C 0.00054 0.90893 0.79299 0.0
C906 C 0.01186 0.80731 0.93912 0.0
C907 C 0.02026 0.82421 0.92324 0.0
C908 C 0.02502 0.83848 0.86017 0.0
C909 C 0.01743 0.89782 0.83076 0.0
C910 C 0.02078 0.87972 0.8494 0.0
C911 C 0.01219 0.82446 0.89985 0.0
C912 C 0.01857 0.84366 0.88345 0.0
H913 H 0.02195 0.95695 0.82191 0.0
H914 H 0.03231 0.92678 0.85068 0.0
H915 H 0.03063 0.85167 0.8254 0.0
H916 H 0.97425 0.7783 0.9024 0.0
H917 H 0.9893 0.80726 0.87466 0.0
C918 C 0.4884 0.18268 0.44778 0.0
C919 C 0.49585 0.20454 0.43896 0.0
C920 C 0.48104 0.16488 0.43238 0.0
C921 C 0.46319 0.15354 0.3703 0.0
H922 H 0.49457 0.09366 0.37931 0.0
C923 C 0.48894 0.09238 0.29442 0.0
C924 C 0.48928 0.06791 0.29794 0.0
C925 C 0.48272 0.10755 0.31272 0.0
C926 C 0.4852 0.11005 0.37674 0.0
H927 H 0.5001 0.22532 0.4072 0.0
H928 H 0.48752 0.19445 0.38057 0.0
H929 H 0.49624 0.12328 0.41021 0.0
H930 H 0.4818 0.04014 0.32305 0.0
H931 H 0.47093 0.06671 0.35501 0.0
H932 H 0.45309 0.14066 0.33635 0.0
C933 C 0.48721 0.19096 0.39929 0.0
C934 C 0.48615 0.12705 0.39449 0.0
C935 C 0.49469 0.20861 0.41459 0.0
C936 C 0.48187 0.05891 0.31977 0.0
C937 C 0.47576 0.07412 0.33813 0.0
C938 C 0.46227 0.13655 0.35254 0.0
C939 C 0.48074 0.16873 0.40792 0.0
C940 C 0.47586 0.14929 0.39113 0.0
C941 C 0.47672 0.09862 0.33499 0.0
C942 C 0.47393 0.11492 0.35525 0.0
H943 H 0.48902 0.17903 0.46647 0.0
H944 H 0.47598 0.14798 0.43957 0.0
H945 H 0.4547 0.17035 0.36737 0.0
H946 H 0.49439 0.09991 0.27778 0.0
H947 H 0.48386 0.12634 0.30974 0.0
C948 C 0.51188 0.67959 0.06715 0.0
C949 C 0.51137 0.70348 0.07333 0.0
C950 C 0.5187 0.6627 0.08368 0.0
C951 C 0.53535 0.62861 0.12113 0.0
H952 H 0.50822 0.64387 0.18184 0.0
C953 C 0.52204 0.55963 0.19599 0.0
C954 C 0.49926 0.56022 0.20569 0.0
C955 C 0.52973 0.57776 0.18114 0.0
C956 C 0.51601 0.63934 0.16503 0.0
H957 H 0.51998 0.72884 0.10041 0.0
H958 H 0.5332 0.69959 0.12881 0.0
H959 H 0.51187 0.67427 0.15238 0.0
H960 H 0.4669 0.58049 0.20768 0.0
H961 H 0.48012 0.6116 0.18191 0.0
H962 H 0.53762 0.59306 0.13359 0.0
C963 C 0.52729 0.69364 0.11171 0.0
C964 C 0.51845 0.6569 0.14815 0.0
C965 C 0.51989 0.71043 0.09541 0.0
C966 C 0.48453 0.57938 0.20051 0.0
C967 C 0.4922 0.5974 0.18587 0.0
C968 C 0.53268 0.61092 0.13807 0.0
C969 C 0.52556 0.66948 0.10653 0.0
C970 C 0.5274 0.65165 0.12566 0.0
C971 C 0.51485 0.59686 0.17602 0.0
C972 C 0.52211 0.61598 0.15984 0.0
H973 H 0.5053 0.67383 0.0502 0.0
H974 H 0.51693 0.64432 0.07901 0.0
H975 H 0.54275 0.62401 0.10419 0.0
H976 H 0.53382 0.54511 0.19969 0.0
H977 H 0.54729 0.57692 0.17379 0.0
C978 C 0.98461 0.41477 0.7145 0.0
C979 C 0.99391 0.43572 0.70543 0.0
C980 C 0.97538 0.39771 0.6994 0.0
C981 C 0.96298 0.3848 0.63531 0.0
H982 H 0.98123 0.32202 0.65451 0.0
C983 C 0.96857 0.30619 0.56955 0.0
C984 C 0.98997 0.29391 0.57151 0.0
C985 C 0.96175 0.32222 0.58712 0.0
C986 C 0.97592 0.33943 0.64886 0.0
H987 H 0.00012 0.45584 0.67373 0.0
H988 H 0.98569 0.42558 0.6472 0.0
H989 H 0.9827 0.35366 0.68273 0.0
H990 H 0.0205 0.28819 0.59382 0.0
H991 H 0.009 0.31594 0.62367 0.0
H992 H 0.95851 0.37051 0.60067 0.0
C993 C 0.98445 0.42244 0.66593 0.0
C994 C 0.97641 0.35768 0.66522 0.0
C995 C 0.99299 0.43979 0.68112 0.0
C996 C 0.00398 0.29745 0.59157 0.0
C997 C 0.9972 0.31321 0.60896 0.0
C998 C 0.96295 0.36652 0.61876 0.0
C999 C 0.97606 0.40085 0.6748 0.0
C1000 C 0.97087 0.38086 0.6585 0.0
C1001 C 0.97611 0.32591 0.60699 0.0
C1002 C 0.97049 0.34387 0.62516 0.0
H1003 H 0.98477 0.41146 0.73327 0.0
H1004 H 0.96838 0.38176 0.70706 0.0
H1005 H 0.95783 0.40221 0.62958 0.0
H1006 H 0.95739 0.30378 0.55431 0.0
H1007 H 0.94537 0.33176 0.58514 0.0
C1008 C 0.94072 0.01271 0.82313 0.0
C1009 C 0.93582 0.00453 0.80037 0.0
C1010 C 0.92233 0.01629 0.83919 0.0
C1011 C 0.87921 0.02736 0.86952 0.0
H1012 H 0.83164 0.97875 0.86441 0.0
C1013 C 0.79976 0.0177 0.93428 0.0
C1014 C 0.79436 0.99445 0.94085 0.0
C1015 C 0.81642 0.02212 0.91662 0.0
C1016 C 0.84481 0.99241 0.86619 0.0
H1017 H 0.90826 0.99571 0.77565 0.0
H1018 H 0.87619 0.00322 0.803 0.0
H1019 H 0.86177 0.9817 0.83461 0.0
H1020 H 0.80287 0.95772 0.93456 0.0
H1021 H 0.83186 0.96539 0.9044 0.0
H1022 H 0.86261 0.03707 0.90205 0.0
C1023 C 0.89407 0.00585 0.80903 0.0
C1024 C 0.86195 0.99439 0.84882 0.0
C1025 C 0.91239 0.00173 0.79327 0.0
C1026 C 0.80629 0.97584 0.92977 0.0
C1027 C 0.8229 0.98023 0.91234 0.0
C1028 C 0.86203 0.02525 0.88711 0.0
C1029 C 0.89881 0.01211 0.83251 0.0
C1030 C 0.87956 0.0117 0.85032 0.0
C1031 C 0.82794 0.00336 0.90527 0.0
C1032 C 0.84493 0.00742 0.88582 0.0
H1033 H 0.95875 0.01487 0.82893 0.0
H1034 H 0.92669 0.02099 0.85712 0.0
H1035 H 0.89235 0.04105 0.87113 0.0
H1036 H 0.79088 0.03243 0.94251 0.0
H1037 H 0.81989 0.04013 0.9115 0.0
C1038 C 0.56731 0.98243 0.30939 0.0
C1039 C 0.56481 0.00576 0.30148 0.0
C1040 C 0.58514 0.97652 0.32543 0.0
C1041 C 0.64241 0.99841 0.34704 0.0
H1042 H 0.63017 0.96121 0.40282 0.0
C1043 C 0.68207 0.9912 0.44555 0.0
C1044 C 0.70595 0.9944 0.44007 0.0
C1045 C 0.66582 0.98611 0.42777 0.0
C1046 C 0.63388 0.97161 0.38731 0.0
H1047 H 0.57885 0.04119 0.30464 0.0
H1048 H 0.60936 0.03098 0.33244 0.0
H1049 H 0.59935 0.96587 0.3731 0.0
H1050 H 0.73197 0.99251 0.4123 0.0
H1051 H 0.70388 0.98262 0.38147 0.0
H1052 H 0.67619 0.00551 0.36152 0.0
C1053 C 0.59795 0.01713 0.32602 0.0
C1054 C 0.6163 0.97406 0.37018 0.0
C1055 C 0.58027 0.023 0.31016 0.0
C1056 C 0.71358 0.9905 0.41691 0.0
C1057 C 0.69744 0.98498 0.39925 0.0
C1058 C 0.65984 0.99609 0.3641 0.0
C1059 C 0.60081 0.99382 0.33366 0.0
C1060 C 0.62019 0.9881 0.35022 0.0
C1061 C 0.67321 0.98378 0.40423 0.0
C1062 C 0.65567 0.98314 0.38476 0.0
H1063 H 0.55569 0.96873 0.30304 0.0
H1064 H 0.58694 0.9584 0.33103 0.0
H1065 H 0.6461 0.009 0.33163 0.0
H1066 H 0.67571 0.99417 0.46327 0.0
H1067 H 0.64733 0.98551 0.43232 0.0
C1068 C 0.30172 0.51835 0.07485 0.0
C1069 C 0.29545 0.50206 0.05733 0.0
C1070 C 0.31771 0.51229 0.09238 0.0
C1071 C 0.36606 0.47224 0.10685 0.0
H1072 H 0.35354 0.49531 0.16982 0.0
C1073 C 0.4381 0.48768 0.17681 0.0
C1074 C 0.43171 0.48685 0.20065 0.0
C1075 C 0.42131 0.48331 0.15934 0.0
C1076 C 0.35724 0.48825 0.15251 0.0
H1077 H 0.30119 0.46655 0.0445 0.0
H1078 H 0.32929 0.45591 0.07542 0.0
H1079 H 0.32388 0.49968 0.13957 0.0
H1080 H 0.40369 0.47851 0.22508 0.0
H1081 H 0.37469 0.46992 0.19472 0.0
H1082 H 0.39959 0.46088 0.11993 0.0
C1083 C 0.3218 0.47343 0.07536 0.0
C1084 C 0.3403 0.4911 0.13505 0.0
C1085 C 0.30566 0.47951 0.05774 0.0
C1086 C 0.40892 0.47965 0.20678 0.0
C1087 C 0.3923 0.47486 0.18938 0.0
C1088 C 0.38309 0.46929 0.12443 0.0
C1089 C 0.32784 0.48975 0.09295 0.0
C1090 C 0.34475 0.48375 0.11189 0.0
C1091 C 0.39797 0.47771 0.16546 0.0
C1092 C 0.37906 0.47775 0.14736 0.0
H1093 H 0.29429 0.5359 0.07509 0.0
H1094 H 0.32234 0.52542 0.1054 0.0
H1095 H 0.36999 0.46642 0.08913 0.0
H1096 H 0.45558 0.49323 0.17165 0.0
H1097 H 0.4263 0.48581 0.14113 0.0
C1098 C 0.19053 0.52437 0.55527 0.0
C1099 C 0.20598 0.50553 0.5596 0.0
C1100 C 0.17451 0.53159 0.57261 0.0
C1101 C 0.16193 0.52684 0.63645 0.0
H1102 H 0.09619 0.52607 0.61814 0.0
C1103 C 0.08979 0.49312 0.69626 0.0
C1104 C 0.06813 0.50491 0.69774 0.0
C1105 C 0.10691 0.50041 0.68036 0.0
C1106 C 0.11446 0.52693 0.62348 0.0
H1107 H 0.21763 0.48032 0.58576 0.0
H1108 H 0.19002 0.49288 0.61579 0.0
H1109 H 0.12676 0.52634 0.58783 0.0
H1110 H 0.04746 0.53383 0.68391 0.0
H1111 H 0.07749 0.54629 0.6553 0.0
H1112 H 0.14969 0.52596 0.67204 0.0
C1113 C 0.19015 0.50214 0.59914 0.0
C1114 C 0.13197 0.5271 0.60615 0.0
C1115 C 0.20583 0.49477 0.58182 0.0
C1116 C 0.06402 0.52443 0.6831 0.0
C1117 C 0.08112 0.53152 0.66677 0.0
C1118 C 0.14449 0.52661 0.65371 0.0
C1119 C 0.17406 0.52037 0.59465 0.0
C1120 C 0.15586 0.52596 0.6125 0.0
C1121 C 0.10273 0.51954 0.66532 0.0
C1122 C 0.12063 0.52559 0.64738 0.0
H1123 H 0.19026 0.53298 0.53828 0.0
H1124 H 0.16231 0.54571 0.56871 0.0
H1125 H 0.1802 0.52643 0.64185 0.0
H1126 H 0.09358 0.47815 0.70745 0.0
H1127 H 0.12324 0.49062 0.6794 0.0
C1128 C 0.78942 0.92279 0.03598 0.0
C1129 C 0.79461 0.94189 0.02131 0.0
C1130 C 0.80694 0.90662 0.04198 0.0
C1131 C 0.83837 0.86527 0.03366 0.0
H1132 H 0.90519 0.87692 0.02681 0.0
C1133 C 0.89889 0.79588 0.99487 0.0
C1134 C 0.92264 0.79435 0.00156 0.0
C1135 C 0.88455 0.81375 0.00355 0.0
C1136 C 0.88665 0.87328 0.02924 0.0
H1137 H 0.82215 0.9599 0.00224 0.0
H1138 H 0.8524 0.9311 0.0113 0.0
H1139 H 0.87854 0.9098 0.03343 0.0
H1140 H 0.94977 0.81017 0.02325 0.0
H1141 H 0.9244 0.84131 0.03891 0.0
H1142 H 0.84648 0.8288 0.0301 0.0
C1143 C 0.83522 0.92883 0.01917 0.0
C1144 C 0.87125 0.89223 0.03267 0.0
C1145 C 0.81783 0.9454 0.01383 0.0
C1146 C 0.93157 0.81091 0.01766 0.0
C1147 C 0.91706 0.82881 0.02655 0.0
C1148 C 0.85377 0.84639 0.03075 0.0
C1149 C 0.8298 0.90867 0.03257 0.0
C1150 C 0.84676 0.88858 0.03389 0.0
C1151 C 0.89338 0.83051 0.01946 0.0
C1152 C 0.87795 0.8502 0.02735 0.0
H1153 H 0.77158 0.91987 0.04205 0.0
H1154 H 0.80218 0.8919 0.05306 0.0
H1155 H 0.81975 0.86143 0.03432 0.0
H1156 H 0.89136 0.78356 0.98243 0.0
H1157 H 0.86663 0.81474 0.99714 0.0
C1158 C 0.41355 0.69758 0.01705 0.0
C1159 C 0.43614 0.69924 0.00719 0.0
C1160 C 0.39728 0.68156 0.0081 0.0
C1161 C 0.39076 0.62489 0.98484 0.0
H1162 H 0.32979 0.64573 0.96236 0.0
C1163 C 0.31476 0.55896 0.97455 0.0
C1164 C 0.29337 0.56676 0.98425 0.0
C1165 C 0.33291 0.57496 0.96991 0.0
C1166 C 0.34669 0.63956 0.96864 0.0
H1167 H 0.45954 0.68545 0.98038 0.0
H1168 H 0.43111 0.65648 0.96535 0.0
H1169 H 0.36083 0.67453 0.96954 0.0
H1170 H 0.27374 0.5977 0.99514 0.0
H1171 H 0.30527 0.62517 0.98788 0.0
H1172 H 0.37629 0.59025 0.986 0.0
C1173 C 0.42605 0.66801 0.97967 0.0
C1174 C 0.36446 0.65605 0.97254 0.0
C1175 C 0.4422 0.68451 0.98824 0.0
C1176 C 0.29002 0.591 0.98782 0.0
C1177 C 0.30814 0.60688 0.9834 0.0
C1178 C 0.37284 0.60841 0.9814 0.0
C1179 C 0.40345 0.66657 0.98949 0.0
C1180 C 0.38637 0.64889 0.98128 0.0
C1181 C 0.33006 0.59904 0.97499 0.0
C1182 C 0.3503 0.61566 0.97404 0.0
H1183 H 0.40837 0.70887 0.03152 0.0
H1184 H 0.37996 0.68055 0.01601 0.0
H1185 H 0.40756 0.61908 0.99175 0.0
H1186 H 0.31783 0.54042 0.97137 0.0
H1187 H 0.34939 0.56834 0.96301 0.0
C1188 C 0.20762 0.40926 0.48834 0.0
C1189 C 0.20125 0.43296 0.49125 0.0
C1190 C 0.1905 0.39219 0.48438 0.0
C1191 C 0.15119 0.36008 0.49826 0.0
H1192 H 0.09493 0.36579 0.46009 0.0
C1193 C 0.05399 0.31571 0.49549 0.0
C1194 C 0.06064 0.29233 0.50006 0.0
C1195 C 0.07098 0.33254 0.48969 0.0
C1196 C 0.11053 0.36402 0.47089 0.0
H1197 H 0.17215 0.45764 0.49071 0.0
H1198 H 0.14201 0.42757 0.48425 0.0
H1199 H 0.12524 0.39643 0.45823 0.0
H1200 H 0.08984 0.26777 0.5001 0.0
H1201 H 0.1193 0.29688 0.48938 0.0
H1202 H 0.13652 0.32826 0.51152 0.0
C1203 C 0.16031 0.42228 0.48482 0.0
C1204 C 0.12785 0.38153 0.46981 0.0
C1205 C 0.17754 0.43948 0.4886 0.0
C1206 C 0.08426 0.28576 0.49711 0.0
C1207 C 0.10115 0.30246 0.49106 0.0
C1208 C 0.13397 0.34273 0.49938 0.0
C1209 C 0.16659 0.39837 0.48347 0.0
C1210 C 0.14837 0.37969 0.48351 0.0
C1211 C 0.09486 0.32621 0.48814 0.0
C1212 C 0.11343 0.34443 0.48574 0.0
H1213 H 0.22582 0.40377 0.48984 0.0
H1214 H 0.19594 0.37399 0.48282 0.0
H1215 H 0.16648 0.35841 0.50952 0.0
H1216 H 0.03587 0.32127 0.4976 0.0
H1217 H 0.06556 0.3507 0.48765 0.0
C1218 C 0.56046 0.19284 0.52644 0.0
C1219 C 0.56695 0.20815 0.50814 0.0
C1220 C 0.57576 0.17497 0.5337 0.0
C1221 C 0.63732 0.15501 0.53261 0.0
H1222 H 0.61187 0.09234 0.52357 0.0
C1223 C 0.69533 0.07107 0.53384 0.0
C1224 C 0.69441 0.06022 0.51166 0.0
C1225 C 0.67829 0.08774 0.54017 0.0
C1226 C 0.61909 0.10971 0.52663 0.0
H1227 H 0.59494 0.21774 0.4841 0.0
H1228 H 0.62182 0.18689 0.49713 0.0
H1229 H 0.58548 0.12638 0.52292 0.0
H1230 H 0.67449 0.05695 0.47933 0.0
H1231 H 0.64436 0.08536 0.49068 0.0
H1232 H 0.67108 0.13838 0.53528 0.0
C1233 C 0.60488 0.18856 0.50572 0.0
C1234 C 0.60403 0.12914 0.52634 0.0
C1235 C 0.58944 0.20608 0.49813 0.0
C1236 C 0.67556 0.06517 0.49651 0.0
C1237 C 0.65828 0.08128 0.50306 0.0
C1238 C 0.65234 0.13554 0.53331 0.0
C1239 C 0.59799 0.17251 0.52318 0.0
C1240 C 0.61315 0.15201 0.52844 0.0
C1241 C 0.6598 0.09316 0.52466 0.0
C1242 C 0.64344 0.11282 0.52943 0.0
H1243 H 0.54319 0.19401 0.53443 0.0
H1244 H 0.57008 0.16277 0.54719 0.0
H1245 H 0.64473 0.17249 0.53433 0.0
H1246 H 0.70985 0.0676 0.5457 0.0
H1247 H 0.67982 0.0968 0.55688 0.0
C1248 C 0.79005 0.38135 0.97903 0.0
C1249 C 0.80168 0.40277 0.97462 0.0
C1250 C 0.80276 0.36164 0.98682 0.0
C1251 C 0.85765 0.34766 0.01777 0.0
H1252 H 0.8563 0.28695 0.98674 0.0
C1253 C 0.9279 0.27189 0.99652 0.0
C1254 C 0.94102 0.27337 0.01739 0.0
C1255 C 0.90545 0.28186 0.99525 0.0
C1256 C 0.85681 0.30377 0.99569 0.0
H1257 H 0.83587 0.4199 0.97404 0.0
H1258 H 0.85764 0.38591 0.98737 0.0
H1259 H 0.82744 0.31712 0.97595 0.0
H1260 H 0.94011 0.28385 0.054 0.0
H1261 H 0.90047 0.30017 0.05221 0.0
H1262 H 0.88781 0.33552 0.03622 0.0
C1263 C 0.83875 0.38436 0.98526 0.0
C1264 C 0.84012 0.32092 0.98966 0.0
C1265 C 0.82622 0.40383 0.97745 0.0
C1266 C 0.93046 0.28285 0.03759 0.0
C1267 C 0.90781 0.29232 0.03648 0.0
C1268 C 0.87429 0.33071 0.02369 0.0
C1269 C 0.82717 0.36322 0.9905 0.0
C1270 C 0.8411 0.34334 -3e-05 0.0
C1271 C 0.89554 0.29314 0.01496 0.0
C1272 C 0.8747 0.30882 0.01211 0.0
H1273 H 0.77115 0.38 0.97702 0.0
H1274 H 0.79347 0.34545 0.99062 0.0
H1275 H 0.85854 0.36471 0.02627 0.0
H1276 H 0.93566 0.2647 0.98065 0.0
H1277 H 0.89672 0.28224 0.97832 0.0
C1278 C 0.57792 0.72697 0.4958 0.0
C1279 C 0.56162 0.71784 0.512 0.0
C1280 C 0.60078 0.71781 0.49457 0.0
C1281 C 0.64291 0.67771 0.52552 0.0
H1282 H 0.66132 0.6599 0.46226 0.0
C1283 C 0.68946 0.59195 0.50293 0.0
C1284 C 0.70756 0.59171 0.48614 0.0
C1285 C 0.67738 0.61269 0.50796 0.0
C1286 C 0.65677 0.66519 0.48 0.0
H1287 H 0.55706 0.69313 0.54073 0.0
H1288 H 0.59644 0.67703 0.53839 0.0
H1289 H 0.62913 0.68771 0.46796 0.0
H1290 H 0.72776 0.61302 0.46186 0.0
H1291 H 0.70586 0.64948 0.47013 0.0
H1292 H 0.66948 0.65378 0.53747 0.0
C1293 C 0.59185 0.69135 0.5267 0.0
C1294 C 0.63833 0.68117 0.48331 0.0
C1295 C 0.5691 0.70045 0.5279 0.0
C1296 C 0.71387 0.6128 0.47491 0.0
C1297 C 0.70136 0.63357 0.47958 0.0
C1298 C 0.66116 0.66158 0.5222 0.0
C1299 C 0.60781 0.69944 0.50961 0.0
C1300 C 0.63053 0.68685 0.50613 0.0
C1301 C 0.68286 0.6336 0.49602 0.0
C1302 C 0.66763 0.65449 0.49943 0.0
H1303 H 0.57274 0.74045 0.48336 0.0
H1304 H 0.61273 0.72463 0.4814 0.0
H1305 H 0.63775 0.68214 0.54332 0.0
H1306 H 0.68437 0.57596 0.51197 0.0
H1307 H 0.66303 0.61212 0.52049 0.0
C1308 C 0.30587 0.10122 0.02531 0.0
C1309 C 0.30287 0.0826 0.00934 0.0
C1310 C 0.31774 0.12164 0.0185 0.0
C1311 C 0.36126 0.14096 0.97436 0.0
H1312 H 0.35004 0.20244 0.00184 0.0
C1313 C 0.42524 0.21459 0.95548 0.0
C1314 C 0.43483 0.2241 0.97608 0.0
C1315 C 0.40383 0.20262 0.95623 0.0
C1316 C 0.35324 0.18539 0.99392 0.0
H1317 H 0.30833 0.07135 0.97333 0.0
H1318 H 0.32829 0.10719 0.96116 0.0
H1319 H 0.32227 0.17038 0.00927 0.0
H1320 H 0.42948 0.22998 0.01328 0.0
H1321 H 0.39194 0.20893 0.01476 0.0
H1322 H 0.39236 0.15565 0.95944 0.0
C1323 C 0.32235 0.10577 0.97921 0.0
C1324 C 0.33745 0.16699 0.99827 0.0
C1325 C 0.31088 0.08523 0.98614 0.0
C1326 C 0.42202 0.22314 0.99711 0.0
C1327 C 0.40059 0.21108 0.99792 0.0
C1328 C 0.37681 0.15932 0.96985 0.0
C1329 C 0.32651 0.124 0.99546 0.0
C1330 C 0.34156 0.1444 0.98892 0.0
C1331 C 0.39193 0.19968 0.97772 0.0
C1332 C 0.37325 0.18162 0.97991 0.0
H1333 H 0.29981 0.09966 0.04331 0.0
H1334 H 0.32084 0.13514 0.03159 0.0
H1335 H 0.36538 0.12376 0.96727 0.0
H1336 H 0.43513 0.21489 0.93917 0.0
H1337 H 0.39742 0.19425 0.94035 0.0
C1338 C 0.07208 0.7673 0.48896 0.0
C1339 C 0.05566 0.77952 0.47514 0.0
C1340 C 0.09532 0.77539 0.49056 0.0
C1341 C 0.13831 0.81694 0.46415 0.0
H1342 H 0.15301 0.83331 0.52872 0.0
C1343 C 0.18444 0.90221 0.48907 0.0
C1344 C 0.19899 0.90329 0.50903 0.0
C1345 C 0.17305 0.88134 0.48306 0.0
C1346 C 0.14964 0.82843 0.51061 0.0
H1347 H 0.05074 0.80833 0.45073 0.0
H1348 H 0.09113 0.82217 0.45313 0.0
H1349 H 0.12196 0.80498 0.52061 0.0
H1350 H 0.21394 0.88287 0.53764 0.0
H1351 H 0.19392 0.84634 0.52709 0.0
H1352 H 0.16516 0.84133 0.45411 0.0
C1353 C 0.0863 0.80651 0.46284 0.0
C1354 C 0.13184 0.81213 0.50597 0.0
C1355 C 0.06312 0.79873 0.46162 0.0
C1356 C 0.20266 0.88271 0.52228 0.0
C1357 C 0.19119 0.86178 0.51627 0.0
C1358 C 0.15617 0.83316 0.46878 0.0
C1359 C 0.10245 0.79545 0.47793 0.0
C1360 C 0.12526 0.80712 0.48268 0.0
C1361 C 0.17595 0.86098 0.49681 0.0
C1362 C 0.16122 0.83994 0.49203 0.0
H1363 H 0.06664 0.75246 0.4996 0.0
H1364 H 0.10746 0.76656 0.50231 0.0
H1365 H 0.13379 0.81312 0.44603 0.0
H1366 H 0.18136 0.91767 0.47836 0.0
H1367 H 0.16116 0.88147 0.46817 0.0
C1368 C 0.01615 0.93294 0.27226 0.0
C1369 C 0.01757 0.95204 0.28796 0.0
C1370 C 0.01675 0.90979 0.28074 0.0
C1371 C 0.03372 0.87518 0.3332 0.0
H1372 H 0.98268 0.83335 0.31605 0.0
C1373 C 0.97401 0.80368 0.38291 0.0
C1374 C 0.99143 0.79451 0.39776 0.0
C1375 C 0.98034 0.81702 0.36324 0.0
C1376 C 0.99711 0.84476 0.32098 0.0
H1377 H 0.02155 0.96185 0.32466 0.0
H1378 H 0.02252 0.92189 0.33929 0.0
H1379 H 0.98881 0.86966 0.29386 0.0
H1380 H 0.02888 0.78957 0.40255 0.0
H1381 H 0.04002 0.81159 0.36751 0.0
H1382 H 0.04101 0.85177 0.3614 0.0
C1383 C 0.02106 0.92461 0.32048 0.0
C1384 C 0.00078 0.86542 0.30807 0.0
C1385 C 0.02025 0.94756 0.3121 0.0
C1386 C 0.01516 0.79682 0.39146 0.0
C1387 C 0.0215 0.80959 0.37149 0.0
C1388 C 0.02997 0.85476 0.34617 0.0
C1389 C 0.01918 0.90545 0.30498 0.0
C1390 C 0.0185 0.8813 0.31476 0.0
C1391 C 0.00423 0.82099 0.35788 0.0
C1392 C 0.01103 0.83972 0.34085 0.0
H1393 H 0.01408 0.93589 0.25355 0.0
H1394 H 0.01527 0.89532 0.26843 0.0
H1395 H 0.04779 0.88691 0.33849 0.0
H1396 H 0.95557 0.80215 0.38752 0.0
H1397 H 0.96651 0.8256 0.35337 0.0
C1398 C 0.49517 0.06659 0.76629 0.0
C1399 C 0.48582 0.04826 0.77995 0.0
C1400 C 0.4938 0.0899 0.7743 0.0
C1401 C 0.46272 0.12908 0.81538 0.0
H1402 H 0.52381 0.15531 0.83051 0.0
C1403 C 0.47823 0.18424 0.89745 0.0
C1404 C 0.49668 0.20065 0.89839 0.0
C1405 C 0.47414 0.17122 0.87705 0.0
C1406 C 0.50652 0.14876 0.82591 0.0
H1407 H 0.46655 0.03976 0.81171 0.0
H1408 H 0.46352 0.08029 0.82526 0.0
H1409 H 0.52113 0.12185 0.80386 0.0
H1410 H 0.52418 0.21752 0.878 0.0
H1411 H 0.51677 0.195 0.84219 0.0
H1412 H 0.44808 0.15538 0.83797 0.0
C1413 C 0.47211 0.0768 0.8086 0.0
C1414 C 0.50504 0.12954 0.81062 0.0
C1415 C 0.47402 0.05361 0.80096 0.0
C1416 C 0.51001 0.20479 0.87796 0.0
C1417 C 0.50582 0.19181 0.85745 0.0
C1418 C 0.46415 0.14848 0.8304 0.0
C1419 C 0.48241 0.0951 0.79565 0.0
C1420 C 0.48324 0.11888 0.80614 0.0
C1421 C 0.48825 0.1744 0.85696 0.0
C1422 C 0.48618 0.15779 0.8368 0.0
H1423 H 0.50439 0.06279 0.75004 0.0
H1424 H 0.50198 0.10377 0.76413 0.0
H1425 H 0.44568 0.12124 0.81199 0.0
H1426 H 0.46749 0.1807 0.91279 0.0
H1427 H 0.46067 0.15777 0.87754 0.0
C1428 C 0.48131 0.7092 0.60386 0.0
C1429 C 0.49051 0.70092 0.58242 0.0
C1430 C 0.48633 0.69737 0.62493 0.0
C1431 C 0.48628 0.65524 0.65991 0.0
H1432 H 0.54898 0.63047 0.67059 0.0
C1433 C 0.52725 0.56379 0.69003 0.0
C1434 C 0.5159 0.55895 0.71139 0.0
C1435 C 0.52684 0.58633 0.68054 0.0
C1436 C 0.53143 0.63747 0.66807 0.0
H1437 H 0.51297 0.6746 0.56632 0.0
H1438 H 0.52193 0.65432 0.60285 0.0
H1439 H 0.54306 0.66159 0.64163 0.0
H1440 H 0.49577 0.574 0.74007 0.0
H1441 H 0.49444 0.6138 0.72295 0.0
H1442 H 0.47445 0.62993 0.68525 0.0
C1443 C 0.51078 0.66978 0.6035 0.0
C1444 C 0.52805 0.65525 0.65151 0.0
C1445 C 0.50545 0.68125 0.58253 0.0
C1446 C 0.50469 0.57734 0.72356 0.0
C1447 C 0.50388 0.6 0.71377 0.0
C1448 C 0.48966 0.63734 0.6765 0.0
C1449 C 0.50109 0.67751 0.62488 0.0
C1450 C 0.5053 0.66348 0.64644 0.0
C1451 C 0.5148 0.60461 0.69204 0.0
C1452 C 0.51212 0.62751 0.67983 0.0
H1453 H 0.46975 0.72435 0.60425 0.0
H1454 H 0.47861 0.70362 0.6412 0.0
H1455 H 0.46855 0.66123 0.6563 0.0
H1456 H 0.53618 0.54997 0.68037 0.0
H1457 H 0.53511 0.58919 0.66361 0.0
C1458 C 0.03084 0.31391 0.09374 0.0
C1459 C 0.01784 0.29311 0.09113 0.0
C1460 C 0.03002 0.32658 0.11466 0.0
C1461 C 0.9909 0.34176 0.1618 0.0
H1462 H 0.04661 0.37359 0.18505 0.0
C1463 C 0.98784 0.42454 0.22277 0.0
C1464 C -1e-05 0.44338 0.21232 0.0
C1465 C 0.9907 0.40156 0.21414 0.0
C1466 C 0.03091 0.36463 0.17901 0.0
H1467 H 0.99417 0.2688 0.10838 0.0
H1468 H 0.99211 0.29166 0.1453 0.0
H1469 H 0.05079 0.33994 0.15869 0.0
H1470 H 0.02527 0.45288 0.18537 0.0
H1471 H 0.03053 0.41306 0.17074 0.0
H1472 H 0.97103 0.36749 0.18107 0.0
C1473 C 0.00318 0.29784 0.13109 0.0
C1474 C 0.03329 0.34539 0.16396 0.0
C1475 C 0.00441 0.28478 0.11012 0.0
C1476 C 0.01556 0.43876 0.1937 0.0
C1477 C 0.01874 0.4159 0.18546 0.0
C1478 C 0.9885 0.36107 0.17697 0.0
C1479 C 0.0159 0.31897 0.13344 0.0
C1480 C 0.01332 0.33452 0.15425 0.0
C1481 C 0.00619 0.39709 0.19538 0.0
C1482 C 0.00851 0.37337 0.18473 0.0
H1483 H 0.04141 0.32063 0.07936 0.0
H1484 H 0.03972 0.34295 0.11575 0.0
H1485 H 0.97521 0.33377 0.1545 0.0
H1486 H 0.97566 0.42766 0.2371 0.0
H1487 H 0.98076 0.38734 0.22202 0.0
C1488 C 0.41391 0.00222 0.82104 0.0
C1489 C 0.41487 0.98342 0.80499 0.0
C1490 C 0.39338 0.00683 0.83372 0.0
C1491 C 0.34026 0.9772 0.85573 0.0
H1492 H 0.32468 0.04044 0.87609 0.0
C1493 C 0.2728 0.9955 0.93014 0.0
C1494 C 0.28382 0.0078 0.94851 0.0
C1495 C 0.28333 0.9946 0.9078 0.0
C1496 C 0.32862 0.0227 0.87032 0.0
H1497 H 0.39455 0.95535 0.78896 0.0
H1498 H 0.3586 0.96356 0.811 0.0
H1499 H 0.3539 0.03466 0.84516 0.0
H1500 H 0.31345 0.02984 0.95785 0.0
H1501 H 0.33127 0.02899 0.919 0.0
H1502 H 0.31548 0.9653 0.88154 0.0
C1503 C 0.3739 0.97449 0.81403 0.0
C1504 C 0.34548 0.01936 0.85275 0.0
C1505 C 0.3945 0.96984 0.80134 0.0
C1506 C 0.30459 0.0203 0.94392 0.0
C1507 C 0.31474 0.01989 0.92165 0.0
C1508 C 0.32324 0.98057 0.87321 0.0
C1509 C 0.37318 0.99286 0.83062 0.0
C1510 C 0.35223 0.99654 0.84593 0.0
C1511 C 0.30461 0.00654 0.9035 0.0
C1512 C 0.31797 0.00331 0.88132 0.0
H1513 H 0.42922 0.0131 0.82428 0.0
H1514 H 0.39366 0.02088 0.8466 0.0
H1515 H 0.34509 0.95937 0.85104 0.0
H1516 H 0.25686 0.98558 0.93338 0.0
H1517 H 0.27523 0.98414 0.89408 0.0
C1518 C 0.80396 0.45422 0.05222 0.0
C1519 C 0.7856 0.46973 0.04638 0.0
C1520 C 0.81543 0.45603 0.07382 0.0
C1521 C 0.82973 0.50129 0.11709 0.0
H1522 H 0.8608 0.44931 0.14855 0.0
C1523 C 0.89808 0.51646 0.19046 0.0
C1524 C 0.91928 0.50398 0.18761 0.0
C1525 C 0.87827 0.51065 0.17712 0.0
C1526 C 0.85222 0.46399 0.13994 0.0
H1527 H 0.76356 0.49803 0.05946 0.0
H1528 H 0.78349 0.50101 0.09745 0.0
H1529 H 0.83056 0.44132 0.11907 0.0
H1530 H 0.93599 0.47506 0.1691 0.0
H1531 H 0.90146 0.46506 0.1457 0.0
H1532 H 0.85181 0.52394 0.13746 0.0
C1533 C 0.78928 0.48774 0.08505 0.0
C1534 C 0.83489 0.45944 0.12309 0.0
C1535 C 0.77774 0.48591 0.06337 0.0
C1536 C 0.92 0.48512 0.17163 0.0
C1537 C 0.90014 0.47925 0.15837 0.0
C1538 C 0.84695 0.50584 0.13401 0.0
C1539 C 0.80879 0.47336 0.09017 0.0
C1540 C 0.82394 0.47803 0.11097 0.0
C1541 C 0.87916 0.49215 0.16076 0.0
C1542 C 0.85883 0.48724 0.14514 0.0
H1543 H 0.81029 0.44138 0.03961 0.0
H1544 H 0.83047 0.44477 0.07702 0.0
H1545 H 0.82195 0.51604 0.10788 0.0
H1546 H 0.89683 0.53098 0.20275 0.0
H1547 H 0.86228 0.52076 0.1795 0.0
C1548 C 0.59782 0.51738 0.6843 0.0
C1549 C 0.59578 0.49788 0.69934 0.0
C1550 C 0.61882 0.52169 0.6723 0.0
C1551 C 0.66824 0.48963 0.64762 0.0
H1552 H 0.69135 0.55212 0.63311 0.0
C1553 C 0.73306 0.50337 0.57163 0.0
C1554 C 0.72535 0.52071 0.55579 0.0
C1555 C 0.72368 0.50231 0.59439 0.0
C1556 C 0.68518 0.53454 0.63706 0.0
H1557 H 0.61459 0.46827 0.71448 0.0
H1558 H 0.65119 0.47574 0.69329 0.0
H1559 H 0.66185 0.54701 0.66393 0.0
H1560 H 0.70341 0.55173 0.55199 0.0
H1561 H 0.68693 0.54972 0.59123 0.0
H1562 H 0.69038 0.47724 0.61989 0.0
C1563 C 0.63648 0.4876 0.69075 0.0
C1564 C 0.66831 0.53163 0.6547 0.0
C1565 C 0.61553 0.48338 0.70291 0.0
C1566 C 0.70951 0.53797 0.56369 0.0
C1567 C 0.70022 0.53696 0.58635 0.0
C1568 C 0.68499 0.49254 0.62989 0.0
C1569 C 0.63818 0.50653 0.67498 0.0
C1570 C 0.65907 0.50924 0.65958 0.0
C1571 C 0.70655 0.51865 0.60171 0.0
C1572 C 0.69299 0.51514 0.6238 0.0
H1573 H 0.583 0.529 0.6813 0.0
H1574 H 0.61949 0.53629 0.66008 0.0
H1575 H 0.66132 0.47217 0.65084 0.0
H1576 H 0.74535 0.48989 0.56608 0.0
H1577 H 0.72915 0.48817 0.60593 0.0
C1578 C 0.09067 0.00087 0.32261 0.0
C1579 C 0.08917 0.01954 0.30647 0.0
C1580 C 0.11171 0.99613 0.33434 0.0
C1581 C 0.1648 0.02608 0.35462 0.0
H1582 H 0.18104 0.96324 0.37571 0.0
C1583 C 0.22584 0.97563 0.42941 0.0
C1584 C 0.21785 0.98886 0.44868 0.0
C1585 C 0.21666 0.97988 0.40686 0.0
C1586 C 0.17717 0.98086 0.36958 0.0
H1587 H 0.10901 0.04719 0.2892 0.0
H1588 H 0.14583 0.03888 0.30977 0.0
H1589 H 0.15202 0.96835 0.34447 0.0
H1590 H 0.19546 0.01779 0.45951 0.0
H1591 H 0.17983 0.02535 0.42058 0.0
H1592 H 0.18931 0.0386 0.38031 0.0
C1593 C 0.13058 0.02809 0.31351 0.0
C1594 C 0.16032 0.98381 0.35189 0.0
C1595 C 0.10948 0.03285 0.30172 0.0
C1596 C 0.20177 0.00722 0.44494 0.0
C1597 C 0.19299 0.01171 0.42256 0.0
C1598 C 0.18164 0.02312 0.37225 0.0
C1599 C 0.13184 0.00988 0.3302 0.0
C1600 C 0.15317 0.00649 0.34499 0.0
C1601 C 0.19984 0.99776 0.40335 0.0
C1602 C 0.18718 0.00054 0.38068 0.0
H1603 H 0.07544 0.99013 0.32659 0.0
H1604 H 0.11188 0.98222 0.34736 0.0
H1605 H 0.15973 0.0438 0.34978 0.0
H1606 H 0.23821 0.96135 0.43196 0.0
H1607 H 0.22222 0.96887 0.39233 0.0
C1608 C 0.17538 0.57809 0.97437 0.0
C1609 C 0.18853 0.5784 0.9953 0.0
C1610 C 0.15961 0.59623 0.96929 0.0
C1611 C 0.14056 0.65646 0.98706 0.0
H1612 H 0.08009 0.63456 0.96439 0.0
C1613 C 0.05301 0.70912 0.99387 0.0
C1614 C 0.03652 0.70593 0.97573 0.0
C1615 C 0.07435 0.69676 0.99354 0.0
C1616 C 0.09698 0.64111 0.97031 0.0
H1617 H 0.19622 0.5986 0.02679 0.0
H1618 H 0.16827 0.62993 0.01821 0.0
H1619 H 0.11221 0.60686 0.96862 0.0
H1620 H 0.03028 0.68922 0.94198 0.0
H1621 H 0.06753 0.66815 0.94118 0.0
H1622 H 0.12479 0.69071 0.9894 0.0
C1623 C 0.17038 0.61585 0.00554 0.0
C1624 C 0.11546 0.62518 0.97272 0.0
C1625 C 0.18631 0.59779 0.01053 0.0
C1626 C 0.04249 0.69168 0.95643 0.0
C1627 C 0.06378 0.67954 0.95601 0.0
C1628 C 0.12195 0.67246 0.98471 0.0
C1629 C 0.15645 0.61501 0.98511 0.0
C1630 C 0.13745 0.63258 0.98123 0.0
C1631 C 0.07954 0.68118 0.97498 0.0
C1632 C 0.09993 0.6649 0.97639 0.0
H1633 H 0.17694 0.56359 0.96208 0.0
H1634 H 0.14954 0.5953 0.95314 0.0
H1635 H 0.15736 0.66277 0.99347 0.0
H1636 H 0.04887 0.72 0.00896 0.0
H1637 H 0.08612 0.69835 0.00844 0.0
C1638 C 0.43508 0.28474 0.46713 0.0
C1639 C 0.44465 0.28023 0.48939 0.0
C1640 C 0.41345 0.29629 0.4651 0.0
C1641 C 0.36062 0.31648 0.49718 0.0
H1642 H 0.3694 0.37435 0.46219 0.0
C1643 C 0.30697 0.39971 0.51689 0.0
C1644 C 0.3031 0.41644 0.49912 0.0
C1645 C 0.32039 0.37963 0.51242 0.0
C1646 C 0.36623 0.35808 0.47156 0.0
H1647 H 0.43916 0.28297 0.52693 0.0
H1648 H 0.40095 0.3026 0.5235 0.0
H1649 H 0.39894 0.34358 0.45988 0.0
H1650 H 0.30908 0.42457 0.46235 0.0
H1651 H 0.33186 0.38908 0.45427 0.0
H1652 H 0.32801 0.33102 0.50908 0.0
C1653 C 0.40997 0.29715 0.50761 0.0
C1654 C 0.38326 0.34043 0.47025 0.0
C1655 C 0.43176 0.28593 0.50961 0.0
C1656 C 0.31206 0.41214 0.47649 0.0
C1657 C 0.3252 0.39183 0.47191 0.0
C1658 C 0.34336 0.33401 0.49821 0.0
C1659 C 0.40107 0.30328 0.48535 0.0
C1660 C 0.38096 0.31977 0.48358 0.0
C1661 C 0.32997 0.37554 0.48996 0.0
C1662 C 0.34632 0.35538 0.48603 0.0
H1663 H 0.44504 0.28078 0.45136 0.0
H1664 H 0.40695 0.30079 0.44775 0.0
H1665 H 0.35837 0.30062 0.50749 0.0
H1666 H 0.30036 0.40253 0.53454 0.0
H1667 H 0.32398 0.36782 0.52692 0.0
C1668 C 0.56945 0.77526 0.0195 0.0
C1669 C 0.54846 0.78744 0.0242 0.0
C1670 C 0.5912 0.78666 0.02209 0.0
C1671 C 0.61962 0.83837 0.04962 0.0
H1672 H 0.65608 0.84265 0.99219 0.0
C1673 C 0.67298 0.92019 0.02516 0.0
C1674 C 0.69307 0.91791 0.01096 0.0
C1675 C 0.65977 0.90038 0.03125 0.0
C1676 C 0.64654 0.84129 0.00862 0.0
H1677 H 0.5337 0.82043 0.03658 0.0
H1678 H 0.5713 0.83994 0.04144 0.0
H1679 H 0.62493 0.81343 0.99531 0.0
H1680 H 0.71605 0.89287 0.99349 0.0
H1681 H 0.69322 0.85833 0.00444 0.0
H1682 H 0.64057 0.86679 0.06266 0.0
C1683 C 0.57115 0.82178 0.03562 0.0
C1684 C 0.62869 0.82448 0.01038 0.0
C1685 C 0.54959 0.81067 0.03257 0.0
C1686 C 0.70043 0.89527 0.00415 0.0
C1687 C 0.68731 0.87546 0.01036 0.0
C1688 C 0.63755 0.85506 0.04794 0.0
C1689 C 0.59216 0.8101 0.03004 0.0
C1690 C 0.61445 0.82354 0.03052 0.0
C1691 C 0.66647 0.87783 0.02344 0.0
C1692 C 0.65059 0.85736 0.02705 0.0
H1693 H 0.569 0.75731 0.01309 0.0
H1694 H 0.60721 0.77732 0.01762 0.0
H1695 H 0.60902 0.83779 0.06546 0.0
H1696 H 0.66686 0.93737 0.03073 0.0
H1697 H 0.64367 0.90293 0.04111 0.0
C1698 C 0.92094 0.22684 0.5037 0.0
C1699 C 0.93698 0.21738 0.52 0.0
C1700 C 0.89782 0.21837 0.50258 0.0
C1701 C 0.85436 0.18071 0.53439 0.0
H1702 H 0.83624 0.1605 0.47179 0.0
C1703 C 0.8079 0.09448 0.51518 0.0
C1704 C 0.79068 0.09313 0.49755 0.0
C1705 C 0.81942 0.11562 0.51973 0.0
C1706 C 0.84066 0.16652 0.48933 0.0
H1707 H 0.94088 0.19282 0.54894 0.0
H1708 H 0.90097 0.17802 0.5469 0.0
H1709 H 0.86889 0.18789 0.47661 0.0
H1710 H 0.77129 0.11289 0.47136 0.0
H1711 H 0.79218 0.15008 0.47887 0.0
H1712 H 0.82719 0.15793 0.54712 0.0
C1713 C 0.90601 0.19202 0.53502 0.0
C1714 C 0.85939 0.18224 0.49212 0.0
C1715 C 0.92904 0.20035 0.53603 0.0
C1716 C 0.78449 0.11357 0.4851 0.0
C1717 C 0.79644 0.13474 0.48934 0.0
C1718 C 0.83578 0.16488 0.5316 0.0
C1719 C 0.89026 0.20047 0.51792 0.0
C1720 C 0.86713 0.18865 0.51475 0.0
C1721 C 0.81426 0.13582 0.50649 0.0
C1722 C 0.82945 0.15685 0.5091 0.0
H1723 H 0.92651 0.24005 0.49115 0.0
H1724 H 0.88604 0.22537 0.48934 0.0
H1725 H 0.85955 0.18573 0.55203 0.0
H1726 H 0.81289 0.07898 0.5251 0.0
H1727 H 0.83326 0.11582 0.53284 0.0
C1728 C 0.01001 0.20848 0.61376 0.0
C1729 C 0.0075 0.19718 0.59185 0.0
C1730 C 0.00527 0.19632 0.6347 0.0
C1731 C 0.9741 0.1435 0.65677 0.0
H1732 H 0.01955 0.14435 0.7076 0.0
C1733 C 0.00993 0.07424 0.72836 0.0
C1734 C 0.98869 0.06233 0.73219 0.0
C1735 C 0.0099 0.09628 0.7174 0.0
C1736 C 0.00664 0.14394 0.6936 0.0
H1737 H 0.99777 0.16436 0.57485 0.0
H1738 H 0.98985 0.14337 0.61098 0.0
H1739 H 0.02376 0.17182 0.6748 0.0
H1740 H 0.95079 0.06471 0.73007 0.0
H1741 H 0.95052 0.10384 0.71251 0.0
H1742 H 0.95793 0.11466 0.67416 0.0
C1743 C 0.99515 0.16164 0.61213 0.0
C1744 C 0.00892 0.15988 0.67493 0.0
C1745 C -8e-05 0.17366 0.59135 0.0
C1746 C 0.96737 0.07364 0.72717 0.0
C1747 C 0.9673 0.09592 0.71683 0.0
C1748 C 0.97194 0.12751 0.6752 0.0
C1749 C 0.99772 0.17277 0.63405 0.0
C1750 C 0.99315 0.15919 0.6559 0.0
C1751 C 0.98857 0.10689 0.71045 0.0
C1752 C 0.9886 0.12695 0.69352 0.0
H1753 H 0.01578 0.22661 0.61474 0.0
H1754 H 0.00736 0.20537 0.65135 0.0
H1755 H 0.96137 0.14285 0.6426 0.0
H1756 H 0.02659 0.06564 0.73186 0.0
H1757 H 0.02667 0.10398 0.7127 0.0
C1758 C 0.47553 0.79833 0.11688 0.0
C1759 C 0.48865 0.80108 0.09609 0.0
C1760 C 0.48137 0.81114 0.1371 0.0
C1761 C 0.52852 0.84787 0.1639 0.0
H1762 H 0.47646 0.8821 0.19166 0.0
C1763 C 0.53737 0.93943 0.20461 0.0
C1764 C 0.52208 0.9464 0.22276 0.0
C1765 C 0.5359 0.91687 0.19502 0.0
C1766 C 0.4912 0.8723 0.18459 0.0
H1767 H 0.5189 0.8185 0.08061 0.0
H1768 H 0.52882 0.84091 0.11557 0.0
H1769 H 0.46858 0.85087 0.16352 0.0
H1770 H 0.49461 0.93444 0.24643 0.0
H1771 H 0.49213 0.89497 0.22968 0.0
H1772 H 0.55116 0.87013 0.18421 0.0
C1773 C 0.51414 0.8288 0.11641 0.0
C1774 C 0.48667 0.85438 0.1684 0.0
C1775 C 0.50826 0.81612 0.09624 0.0
C1776 C 0.50653 0.92971 0.23233 0.0
C1777 C 0.505 0.90713 0.22266 0.0
C1778 C 0.53306 0.86581 0.1801 0.0
C1779 C 0.50055 0.82677 0.13696 0.0
C1780 C 0.5053 0.84254 0.15725 0.0
C1781 C 0.5191 0.90076 0.20335 0.0
C1782 C 0.51446 0.87878 0.18999 0.0
H1783 H 0.4604 0.78676 0.11739 0.0
H1784 H 0.47067 0.80908 0.15273 0.0
H1785 H 0.54324 0.83874 0.15593 0.0
H1786 H 0.54971 0.95178 0.19697 0.0
H1787 H 0.54692 0.91262 0.18006 0.0
C1788 C 0.46406 0.42407 0.27848 0.0
C1789 C 0.48571 0.4346 0.27324 0.0
C1790 C 0.4634 0.40242 0.2901 0.0
C1791 C 0.4989 0.35199 0.31128 0.0
H1792 H 0.46531 0.36221 0.36976 0.0
C1793 C 0.52454 0.3053 0.39715 0.0
C1794 C 0.50761 0.30201 0.41482 0.0
C1795 C 0.51862 0.31672 0.37622 0.0
C1796 C 0.47431 0.35855 0.35337 0.0
H1797 H 0.52353 0.43073 0.2746 0.0
H1798 H 0.5225 0.3926 0.29449 0.0
H1799 H 0.4602 0.38958 0.33755 0.0
H1800 H 0.47085 0.30659 0.42385 0.0
H1801 H 0.46021 0.3256 0.38697 0.0
H1802 H 0.51332 0.32111 0.32725 0.0
C1803 C 0.50603 0.40079 0.28947 0.0
C1804 C 0.47137 0.37436 0.33486 0.0
C1805 C 0.50667 0.42256 0.27811 0.0
C1806 C 0.48436 0.30925 0.41067 0.0
C1807 C 0.47831 0.32025 0.38955 0.0
C1808 C 0.50158 0.33591 0.32971 0.0
C1809 C 0.48442 0.39106 0.29654 0.0
C1810 C 0.48417 0.37165 0.3139 0.0
C1811 C 0.4955 0.32472 0.37228 0.0
C1812 C 0.48992 0.33944 0.35131 0.0
H1813 H 0.44774 0.43339 0.27522 0.0
H1814 H 0.44653 0.39526 0.29533 0.0
H1815 H 0.50886 0.34945 0.29523 0.0
H1816 H 0.54263 0.2999 0.39987 0.0
H1817 H 0.53247 0.32012 0.3636 0.0
C1818 C 0.00196 0.57498 0.76677 0.0
C1819 C 0.01932 0.56031 0.77657 0.0
C1820 C 0.99696 0.59685 0.77687 0.0
C1821 C 0.97664 0.62712 0.81577 0.0
H1822 H 0.02133 0.66835 0.84676 0.0
C1823 C 0.95801 0.67326 0.90293 0.0
C1824 C 0.96484 0.69681 0.90597 0.0
C1825 C 0.9638 0.66116 0.88241 0.0
C1826 C 0.00863 0.65727 0.83787 0.0
H1827 H 0.04661 0.55815 0.8032 0.0
H1828 H 0.03781 0.59617 0.82082 0.0
H1829 H 0.03529 0.63959 0.81781 0.0
H1830 H 0.98282 0.72629 0.88982 0.0
H1831 H 0.99354 0.70471 0.85388 0.0
H1832 H 0.95015 0.64395 0.83664 0.0
C1833 C 0.02803 0.5908 0.80537 0.0
C1834 C 0.01662 0.64071 0.82146 0.0
C1835 C 0.03297 0.5689 0.79535 0.0
C1836 C 0.97722 0.70818 0.88783 0.0
C1837 C 0.98344 0.69585 0.86738 0.0
C1838 C 0.96871 0.64348 0.83229 0.0
C1839 C 0.00932 0.60457 0.79685 0.0
C1840 C 0.00077 0.625 0.81076 0.0
C1841 C 0.97687 0.67218 0.86459 0.0
C1842 C 0.9847 0.65819 0.84402 0.0
H1843 H 0.99125 0.56903 0.75218 0.0
H1844 H 0.98268 0.60725 0.76971 0.0
H1845 H 0.96398 0.61515 0.80806 0.0
H1846 H 0.94843 0.66406 0.91658 0.0
H1847 H 0.95876 0.64284 0.88085 0.0
C1848 C 0.60766 0.02116 0.2141 0.0
C1849 C 0.58705 0.02895 0.20283 0.0
C1850 C 0.62903 0.02024 0.20173 0.0
C1851 C 0.66025 0.04604 0.15219 0.0
H1852 H 0.68523 0.98433 0.13715 0.0
C1853 C 0.69817 0.02466 0.063 0.0
C1854 C 0.71635 0.00819 0.06012 0.0
C1855 C 0.68921 0.02964 0.08522 0.0
C1856 C 0.67902 0.00178 0.14166 0.0
H1857 H 0.57272 0.04266 0.17024 0.0
H1858 H 0.60996 0.04178 0.14906 0.0
H1859 H 0.65609 0.98856 0.16864 0.0
H1860 H 0.74013 0.98465 0.07833 0.0
H1861 H 0.72405 0.99318 0.11769 0.0
H1862 H 0.68222 0.05924 0.12467 0.0
C1863 C 0.60961 0.0361 0.16726 0.0
C1864 C 0.66232 0.00417 0.15964 0.0
C1865 C 0.58829 0.03645 0.17933 0.0
C1866 C 0.72615 0.99749 0.08013 0.0
C1867 C 0.71688 0.00226 0.10256 0.0
C1868 C 0.67708 0.04372 0.13446 0.0
C1869 C 0.63012 0.02779 0.17822 0.0
C1870 C 0.652 0.02615 0.16422 0.0
C1871 C 0.69804 0.01817 0.10525 0.0
C1872 C 0.68569 0.02139 0.12811 0.0
H1873 H 0.6071 0.0152 0.23219 0.0
H1874 H 0.64465 0.01366 0.21045 0.0
H1875 H 0.65265 0.0632 0.15556 0.0
H1876 H 0.69036 0.03329 0.0479 0.0
H1877 H 0.67447 0.04167 0.0865 0.0
C1878 C 0.2313 0.51593 0.91702 0.0
C1879 C 0.22252 0.50064 0.93432 0.0
C1880 C 0.22303 0.5144 0.89382 0.0
C1881 C 0.18882 0.47667 0.8527 0.0
H1882 H 0.1587 0.53484 0.83369 0.0
C1883 C 0.09641 0.50314 0.8115 0.0
C1884 C 0.09479 0.48854 0.79163 0.0
C1885 C 0.11799 0.50685 0.82251 0.0
C1886 C 0.16732 0.51854 0.83851 0.0
H1887 H 0.1998 0.47073 0.9408 0.0
H1888 H 0.18572 0.46784 0.90055 0.0
H1889 H 0.1878 0.53535 0.86527 0.0
H1890 H 0.11465 0.4671 0.76709 0.0
H1891 H 0.15258 0.47314 0.78689 0.0
H1892 H 0.16706 0.45962 0.82712 0.0
C1893 C 0.19882 0.48106 0.90468 0.0
C1894 C 0.18413 0.51885 0.85645 0.0
C1895 C 0.20668 0.48287 0.92781 0.0
C1896 C 0.1154 0.47839 0.78244 0.0
C1897 C 0.13705 0.48182 0.79374 0.0
C1898 C 0.1721 0.47638 0.83467 0.0
C1899 C 0.20633 0.49722 0.88758 0.0
C1900 C 0.19414 0.49775 0.86452 0.0
C1901 C 0.13846 0.49585 0.81408 0.0
C1902 C 0.16033 0.49714 0.82825 0.0
H1903 H 0.2435 0.5298 0.9217 0.0
H1904 H 0.22908 0.52708 0.88096 0.0
H1905 H 0.19645 0.46018 0.85845 0.0
H1906 H 0.08087 0.51141 0.81885 0.0
H1907 H 0.11842 0.51748 0.83834 0.0
C1908 C 0.39233 0.5129 0.30225 0.0
C1909 C 0.41068 0.49649 0.3001 0.0
C1910 C 0.37154 0.50692 0.31382 0.0
C1911 C 0.34967 0.46518 0.35835 0.0
H1912 H 0.29078 0.49733 0.34577 0.0
C1913 C 0.27518 0.46142 0.42509 0.0
C1914 C 0.2703 0.48415 0.43333 0.0
C1915 C 0.28646 0.4583 0.40347 0.0
C1916 C 0.30702 0.48798 0.34928 0.0
H1917 H 0.42113 0.46049 0.30711 0.0
H1918 H 0.3845 0.44974 0.32673 0.0
H1919 H 0.32283 0.49971 0.31723 0.0
H1920 H 0.27184 0.5213 0.42541 0.0
H1921 H 0.29101 0.51594 0.38726 0.0
H1922 H 0.334 0.45389 0.39059 0.0
C1923 C 0.38643 0.46751 0.32013 0.0
C1924 C 0.32547 0.48949 0.33309 0.0
C1925 C 0.40742 0.47363 0.30886 0.0
C1926 C 0.27508 0.50362 0.41903 0.0
C1927 C 0.28603 0.50051 0.39726 0.0
C1928 C 0.33113 0.46338 0.37431 0.0
C1929 C 0.3684 0.48423 0.3232 0.0
C1930 C 0.34737 0.47893 0.3379 0.0
C1931 C 0.29282 0.47791 0.38981 0.0
C1932 C 0.30995 0.47549 0.37036 0.0
H1933 H 0.39431 0.53068 0.2957 0.0
H1934 H 0.35835 0.52046 0.31619 0.0
H1935 H 0.36628 0.45702 0.36289 0.0
H1936 H 0.272 0.44625 0.43619 0.0
H1937 H 0.29154 0.44072 0.3981 0.0
C1938 C 0.78417 0.03848 0.57682 0.0
C1939 C 0.77686 0.01765 0.56581 0.0
C1940 C 0.79588 0.03769 0.5984 0.0
C1941 C 0.83827 0.02995 0.62851 0.0
H1942 H 0.83556 0.97917 0.67392 0.0
C1943 C 0.92031 -0.00057 0.67698 0.0
C1944 C 0.91893 0.9925 0.70066 0.0
C1945 C 0.90001 0.00449 0.66422 0.0
C1946 C 0.83636 0.9937 0.66163 0.0
H1947 H 0.7746 0.9798 0.56918 0.0
H1948 H 0.796 0.97817 0.60631 0.0
H1949 H 0.80287 0.98505 0.6466 0.0
H1950 H 0.89498 0.98557 0.72956 0.0
H1951 H 0.85927 0.99464 0.70711 0.0
H1952 H 0.87159 0.03867 0.64346 0.0
C1953 C 0.79216 0.99525 0.59883 0.0
C1954 C 0.81774 0.99692 0.64577 0.0
C1955 C 0.7799 0.99613 0.57748 0.0
C1956 C 0.89664 0.99081 0.71132 0.0
C1957 C 0.8762 0.99592 0.69846 0.0
C1958 C 0.85667 0.02686 0.64441 0.0
C1959 C 0.80122 0.01596 0.60904 0.0
C1960 C 0.81878 0.01467 0.62852 0.0
C1961 C 0.87771 0.00293 0.67477 0.0
C1962 C 0.85636 0.00821 0.6606 0.0
H1963 H 0.78184 0.05531 0.56817 0.0
H1964 H 0.80185 0.05407 0.60607 0.0
H1965 H 0.84005 0.04364 0.6154 0.0
H1966 H 0.93712 0.00085 0.66812 0.0
H1967 H 0.90184 0.00931 0.64588 0.0
C1968 C 0.98991 0.30197 0.94272 0.0
C1969 C 0.00633 0.28414 0.94755 0.0
C1970 C 0.99044 0.31405 0.92144 0.0
C1971 C 0.03209 0.33247 0.8764 0.0
H1972 H 0.97579 0.35801 0.84743 0.0
C1973 C 0.03607 0.40203 0.80224 0.0
C1974 C 0.02117 0.4216 0.80527 0.0
C1975 C 0.03344 0.38197 0.8162 0.0
C1976 C 0.99167 0.35105 0.85534 0.0
H1977 H 0.03552 0.26413 0.93344 0.0
H1978 H 0.03659 0.28552 0.89582 0.0
H1979 H 0.97235 0.32701 0.87689 0.0
H1980 H 0.99139 0.43507 0.82499 0.0
H1981 H 0.98687 0.40007 0.84941 0.0
H1982 H 0.05136 0.35697 0.85529 0.0
C1983 C 0.02333 0.29012 0.90871 0.0
C1984 C 0.98972 0.33324 0.87217 0.0
C1985 C 0.02262 0.27777 0.9301 0.0
C1986 C 0.00322 0.42038 0.82223 0.0
C1987 C 0.00051 0.40024 0.83611 0.0
C1988 C 0.03405 0.35023 0.85948 0.0
C1989 C 0.00751 0.30874 0.90439 0.0
C1990 C 0.00985 0.32425 0.88344 0.0
C1991 C 0.01575 0.3809 0.83342 0.0
C1992 C 0.01381 0.36018 0.84926 0.0
H1993 H 0.97702 0.30717 0.95579 0.0
H1994 H 0.97818 0.32843 0.91893 0.0
H1995 H 0.04793 0.32616 0.88491 0.0
H1996 H 0.05002 0.40227 0.78927 0.0
H1997 H 0.0453 0.36728 0.81353 0.0
C1998 C 0.51567 0.71123 0.42868 0.0
C1999 C 0.49473 0.71761 0.43998 0.0
C2000 C 0.51501 0.69876 0.4075 0.0
C2001 C 0.50826 0.65501 0.3787 0.0
H2002 H 0.45828 0.65668 0.33228 0.0
C2003 C 0.48076 0.57272 0.32843 0.0
C2004 C 0.47543 0.57435 0.30434 0.0
C2005 C 0.48461 0.5929 0.3418 0.0
C2006 C 0.47255 0.65617 0.3449 0.0
H2007 H 0.45676 0.71698 0.43808 0.0
H2008 H 0.4554 0.69468 0.40132 0.0
H2009 H 0.4628 0.68939 0.35994 0.0
H2010 H 0.46991 0.59864 0.27541 0.0
H2011 H 0.47668 0.63413 0.29899 0.0
H2012 H 0.5179 0.62181 0.36394 0.0
C2013 C 0.47239 0.6998 0.40825 0.0
C2014 C 0.47501 0.6748 0.36088 0.0
C2015 C 0.4731 0.71256 0.42929 0.0
C2016 C 0.47394 0.59677 0.29395 0.0
C2017 C 0.47774 0.61709 0.30743 0.0
C2018 C 0.50582 0.63651 0.36278 0.0
C2019 C 0.49335 0.69194 0.39759 0.0
C2020 C 0.49258 0.67417 0.37833 0.0
C2021 C 0.48329 0.61531 0.33148 0.0
C2022 C 0.48755 0.63653 0.34614 0.0
H2023 H 0.53252 0.71481 0.43686 0.0
H2024 H 0.53148 0.69342 0.39954 0.0
H2025 H 0.52181 0.65366 0.39202 0.0
H2026 H 0.48202 0.55579 0.33707 0.0
H2027 H 0.48839 0.59092 0.36037 0.0
C2028 C 0.52066 0.10426 0.19471 0.0
C2029 C 0.50744 0.08339 0.19311 0.0
C2030 C 0.51767 0.12222 0.17818 0.0
C2031 C 0.50111 0.12818 0.11671 0.0
H2032 H 0.50519 0.19538 0.12815 0.0
C2033 C 0.49422 0.21627 0.05678 0.0
C2034 C 0.50974 0.20935 0.03877 0.0
C2035 C 0.49328 0.2036 0.07792 0.0
C2036 C 0.50389 0.17666 0.12478 0.0
H2037 H 0.47941 0.06586 0.17398 0.0
H2038 H 0.47422 0.09719 0.14523 0.0
H2039 H 0.50229 0.16807 0.16155 0.0
H2040 H 0.53783 0.18511 0.02961 0.0
H2041 H 0.53616 0.16322 0.06626 0.0
H2042 H 0.50309 0.13652 0.08014 0.0
C2043 C 0.48717 0.09946 0.15904 0.0
C2044 C 0.50234 0.16107 0.14382 0.0
C2045 C 0.49013 0.08154 0.17554 0.0
C2046 C 0.52539 0.19066 0.04295 0.0
C2047 C 0.52441 0.17806 0.06391 0.0
C2048 C 0.50287 0.14365 0.09783 0.0
C2049 C 0.50141 0.11966 0.15974 0.0
C2050 C 0.50112 0.13664 0.13993 0.0
C2051 C 0.50781 0.18386 0.08125 0.0
C2052 C 0.50463 0.168 0.10165 0.0
H2053 H 0.53403 0.10635 0.20813 0.0
H2054 H 0.52898 0.13752 0.17911 0.0
H2055 H 0.50051 0.10947 0.11311 0.0
H2056 H 0.48197 0.23062 0.05408 0.0
H2057 H 0.48037 0.20843 0.09109 0.0
C2058 C 0.97788 0.90688 0.69317 0.0
C2059 C 0.99214 0.92707 0.692 0.0
C2060 C 0.97988 0.88914 0.67626 0.0
C2061 C 0.99662 0.88237 0.61469 0.0
H2062 H 0.98873 0.81562 0.62659 0.0
C2063 C 0.9978 0.79168 0.55702 0.0
C2064 C 0.98326 0.79907 0.53839 0.0
C2065 C -0.00023 0.80533 0.57748 0.0
C2066 C 0.99111 0.83419 0.62305 0.0
H2067 H 0.02076 0.94368 0.67295 0.0
H2068 H 0.02422 0.91268 0.64347 0.0
H2069 H 0.99282 0.84297 0.65974 0.0
H2070 H 0.95816 0.82571 0.52738 0.0
H2071 H 0.96159 0.84927 0.56287 0.0
H2072 H 0.99468 0.87379 0.57813 0.0
C2073 C 0.01125 0.91079 0.6573 0.0
C2074 C 0.99332 0.84984 0.64198 0.0
C2075 C 0.00931 0.92851 0.67425 0.0
C2076 C 0.9698 0.81964 0.5412 0.0
C2077 C 0.97183 0.83324 0.5615 0.0
C2078 C 0.99426 0.86682 0.59587 0.0
C2079 C 0.99615 0.8912 0.65777 0.0
C2080 C 0.99586 0.87414 0.63797 0.0
C2081 C 0.98731 0.82661 0.57957 0.0
C2082 C 0.99112 0.84263 0.59982 0.0
H2083 H 0.96458 0.9051 0.7067 0.0
H2084 H 0.96788 0.87436 0.67703 0.0
H2085 H 0.99828 0.90099 0.61098 0.0
H2086 H 0.00838 0.7759 0.55543 0.0
H2087 H 0.0118 0.7998 0.59118 0.0
C2088 C 0.82038 0.00343 0.42355 0.0
C2089 C 0.80646 0.02343 0.42788 0.0
C2090 C 0.83506 0.00249 0.40379 0.0
C2091 C 0.86989 0.04047 0.36748 0.0
H2092 H 0.87132 0.99014 0.32142 0.0
C2093 C 0.93807 0.04344 0.29409 0.0
C2094 C 0.94907 0.02216 0.28828 0.0
C2095 C 0.9172 0.04348 0.30702 0.0
C2096 C 0.87135 0.00423 0.33424 0.0
H2097 H 0.79666 0.0579 0.41463 0.0
H2098 H 0.82278 0.05644 0.38062 0.0
H2099 H 0.84201 0.98946 0.35297 0.0
H2100 H 0.94675 0.98425 0.29044 0.0
H2101 H 0.91098 0.98416 0.31407 0.0
H2102 H 0.89984 0.05469 0.35014 0.0
C2103 C 0.82211 0.04146 0.39238 0.0
C2104 C 0.8545 0.00383 0.35222 0.0
C2105 C 0.80716 0.04223 0.41183 0.0
C2106 C 0.9383 0.00087 0.29447 0.0
C2107 C 0.91775 0.00089 0.30803 0.0
C2108 C 0.88699 0.04064 0.3499 0.0
C2109 C 0.83633 0.0217 0.38831 0.0
C2110 C 0.85367 0.02198 0.36894 0.0
C2111 C 0.90738 0.02225 0.31522 0.0
C2112 C 0.88803 0.02254 0.33298 0.0
H2113 H 0.82008 0.98861 0.43553 0.0
H2114 H 0.84601 0.98713 0.40104 0.0
H2115 H 0.86978 0.0545 0.38039 0.0
H2116 H 0.94614 0.06007 0.28943 0.0
H2117 H 0.90934 0.06028 0.31141 0.0
C2118 C 0.56963 0.99197 0.7883 0.0
C2119 C 0.55503 0.9726 0.7838 0.0
C2120 C 0.59107 0.98884 0.80011 0.0
C2121 C 0.63808 0.97787 0.82396 0.0
H2122 H 0.62982 0.93333 0.87493 0.0
C2123 C 0.70475 0.96487 0.90214 0.0
C2124 C 0.69361 0.96544 0.92425 0.0
C2125 C 0.69131 0.96371 0.88139 0.0
C2126 C 0.63252 0.94573 0.86071 0.0
H2127 H 0.55202 0.93474 0.78589 0.0
H2128 H 0.58992 0.92901 0.80509 0.0
H2129 H 0.60071 0.93537 0.844 0.0
H2130 H 0.65961 0.96521 0.94177 0.0
H2131 H 0.63662 0.96311 0.90611 0.0
H2132 H 0.66938 0.9891 0.84202 0.0
C2133 C 0.58461 0.94674 0.80056 0.0
C2134 C 0.61592 0.94674 0.84271 0.0
C2135 C 0.56301 0.94994 0.78933 0.0
C2136 C 0.66889 0.96473 0.92514 0.0
C2137 C 0.65563 0.96338 0.90463 0.0
C2138 C 0.65476 0.97688 0.84216 0.0
C2139 C 0.59834 0.96622 0.80728 0.0
C2140 C 0.6181 0.9632 0.82435 0.0
C2141 C 0.66659 0.96275 0.88252 0.0
C2142 C 0.65169 0.96128 0.86109 0.0
H2143 H 0.56365 0.00964 0.78437 0.0
H2144 H 0.60103 0.0043 0.80506 0.0
H2145 H 0.64051 0.99055 0.80997 0.0
H2146 H 0.72375 0.96555 0.90087 0.0
H2147 H 0.7002 0.96329 0.86454 0.0
C2148 C 0.43744 0.49617 0.70796 0.0
C2149 C 0.45543 0.47942 0.70528 0.0
C2150 C 0.41659 0.49416 0.69502 0.0
C2151 C 0.37088 0.48296 0.66868 0.0
H2152 H 0.3842 0.46588 0.60397 0.0
C2153 C 0.30045 0.47401 0.59404 0.0
C2154 C 0.30742 0.48234 0.57181 0.0
C2155 C 0.31647 0.47373 0.61279 0.0
C2156 C 0.38018 0.4708 0.62195 0.0
H2157 H 0.46485 0.44625 0.68895 0.0
H2158 H 0.4283 0.44237 0.66697 0.0
H2159 H 0.4152 0.4635 0.63309 0.0
H2160 H 0.33588 0.49866 0.55231 0.0
H2161 H 0.36349 0.49848 0.5849 0.0
H2162 H 0.33585 0.49102 0.65697 0.0
C2163 C 0.43054 0.4575 0.67835 0.0
C2164 C 0.39788 0.46907 0.63877 0.0
C2165 C 0.45144 0.45966 0.69101 0.0
C2166 C 0.33011 0.49171 0.56909 0.0
C2167 C 0.34597 0.49153 0.58774 0.0
C2168 C 0.35305 0.48467 0.65173 0.0
C2169 C 0.41332 0.47523 0.67941 0.0
C2170 C 0.39357 0.47533 0.6623 0.0
C2171 C 0.3396 0.48185 0.60956 0.0
C2172 C 0.3577 0.47898 0.62812 0.0
H2173 H 0.44004 0.51158 0.71887 0.0
H2174 H 0.40372 0.50818 0.69618 0.0
H2175 H 0.36699 0.48778 0.6867 0.0
H2176 H 0.28304 0.46675 0.59668 0.0
H2177 H 0.31108 0.4662 0.62944 0.0
C2178 C 0.06379 0.54438 0.20827 0.0
C2179 C 0.05669 0.52232 0.2167 0.0
C2180 C 0.08517 0.54687 0.19651 0.0
C2181 C 0.11427 0.54055 0.15327 0.0
H2182 H 0.17192 0.50468 0.16026 0.0
C2183 C 0.16979 0.51652 0.07397 0.0
C2184 C 0.19397 0.52166 0.07472 0.0
C2185 C 0.15619 0.51745 0.09431 0.0
C2186 C 0.15601 0.51499 0.15826 0.0
H2187 H 0.06703 0.48594 0.22128 0.0
H2188 H 0.1042 0.49004 0.19999 0.0
H2189 H 0.14363 0.50642 0.19293 0.0
H2190 H 0.22305 0.53063 0.09781 0.0
H2191 H 0.19899 0.5321 0.13369 0.0
H2192 H 0.12618 0.54868 0.11859 0.0
C2193 C 0.09353 0.50557 0.20286 0.0
C2194 C 0.13979 0.51588 0.17685 0.0
C2195 C 0.07223 0.50318 0.21504 0.0
C2196 C 0.20443 0.52674 0.09661 0.0
C2197 C 0.19073 0.52751 0.11713 0.0
C2198 C 0.13031 0.53955 0.1348 0.0
C2199 C 0.09962 0.52719 0.19243 0.0
C2200 C 0.11854 0.52839 0.17438 0.0
C2201 C 0.16638 0.52341 0.116 0.0
C2202 C 0.15105 0.52634 0.13687 0.0
H2203 H 0.05213 0.55943 0.20954 0.0
H2204 H 0.08964 0.5639 0.18926 0.0
H2205 H 0.09796 0.55002 0.15049 0.0
H2206 H 0.16114 0.51227 0.05753 0.0
H2207 H 0.13753 0.51378 0.09302 0.0
C2208 C 0.40507 0.81492 0.05354 0.0
C2209 C 0.40754 0.79414 0.04045 0.0
C2210 C 0.38384 0.82714 0.0536 0.0
C2211 C 0.33633 0.84228 0.01587 0.0
H2212 H 0.31114 0.87089 0.0725 0.0
C2213 C 0.27602 0.92423 0.01195 0.0
C2214 C 0.28404 0.94245 0.02666 0.0
C2215 C 0.28442 0.90122 0.01488 0.0
C2216 C 0.31783 0.86296 0.0565 0.0
H2217 H 0.38981 0.76942 0.01753 0.0
H2218 H 0.35246 0.79157 0.01685 0.0
H2219 H 0.33871 0.8381 0.07564 0.0
H2220 H 0.30606 0.95057 0.05679 0.0
H2221 H 0.3207 0.91086 0.06175 0.0
H2222 H 0.31694 0.8683 0.99674 0.0
C2223 C 0.36695 0.79801 0.02741 0.0
C2224 C 0.33349 0.84412 0.05832 0.0
C2225 C 0.38818 0.78538 0.02784 0.0
C2226 C 0.29965 0.93699 0.04502 0.0
C2227 C 0.30787 0.9141 0.04804 0.0
C2228 C 0.32078 0.86131 0.01403 0.0
C2229 C 0.36473 0.81911 0.04018 0.0
C2230 C 0.34368 0.83431 0.03807 0.0
C2231 C 0.30075 0.896 0.03276 0.0
C2232 C 0.31227 0.87256 0.03439 0.0
H2233 H 0.41976 0.82197 0.06345 0.0
H2234 H 0.38273 0.8435 0.06333 0.0
H2235 H 0.34407 0.83511 -1e-05 0.0
H2236 H 0.26394 0.92789 0.99767 0.0
H2237 H 0.27851 0.88762 0.00291 0.0
C2238 C 0.89188 0.68138 0.99748 0.0
C2239 C 0.89528 0.69677 0.97845 0.0
C2240 C 0.87113 0.66849 -0.00049 0.0
C2241 C 0.82553 0.64307 0.96215 0.0
H2242 H 0.80241 0.62096 0.0224 0.0
C2243 C 0.76631 0.56062 0.97127 0.0
C2244 C 0.7779 0.54377 0.98515 0.0
C2245 C 0.77377 0.58412 0.97156 0.0
C2246 C 0.8084 0.62724 0.00544 0.0
H2247 H 0.87887 0.71184 0.94745 0.0
H2248 H 0.84244 0.6893 0.9511 0.0
H2249 H 0.82821 0.65525 0.02088 0.0
H2250 H 0.80522 0.53828 0.01119 0.0
H2251 H 0.81781 0.57918 0.01209 0.0
H2252 H 0.80644 0.61437 0.94688 0.0
C2253 C 0.85605 0.68701 0.96425 0.0
C2254 C 0.82327 0.64675 0.00455 0.0
C2255 C 0.87688 0.69996 0.96221 0.0
C2256 C 0.79612 0.55092 0.00018 0.0
C2257 C 0.80317 0.57436 0.00087 0.0
C2258 C 0.81045 0.62367 0.96304 0.0
C2259 C 0.85318 0.67071 0.98263 0.0
C2260 C 0.83297 0.65413 0.98302 0.0
C2261 C 0.79243 0.59109 0.98623 0.0
C2262 C 0.80271 0.61493 0.98479 0.0
H2263 H 0.90559 0.67862 0.01043 0.0
H2264 H 0.86973 0.65588 0.01372 0.0
H2265 H 0.83275 0.64817 0.94528 0.0
H2266 H 0.75224 0.55545 0.9595 0.0
H2267 H 0.76532 0.59674 0.96005 0.0
C2268 C 0.60708 0.29889 0.47756 0.0
C2269 C 0.58457 0.30885 0.48026 0.0
C2270 C 0.62728 0.31276 0.48039 0.0
C2271 C 0.64733 0.36847 0.50728 0.0
H2272 H 0.69603 0.36794 0.45951 0.0
C2273 C 0.71645 0.43834 0.46769 0.0
C2274 C 0.72371 0.44894 0.48872 0.0
C2275 C 0.70452 0.41684 0.46817 0.0
C2276 C 0.68262 0.36821 0.47305 0.0
H2277 H 0.56569 0.34109 0.48837 0.0
H2278 H 0.60063 0.36502 0.49316 0.0
H2279 H 0.66425 0.33894 0.45787 0.0
H2280 H 0.72551 0.44539 0.52654 0.0
H2281 H 0.70529 0.40741 0.52748 0.0
H2282 H 0.66468 0.39838 0.52179 0.0
C2283 C 0.60278 0.34653 0.48906 0.0
C2284 C 0.66456 0.35147 0.47223 0.0
C2285 C 0.58271 0.33281 0.4861 0.0
C2286 C 0.72019 0.43726 0.51012 0.0
C2287 C 0.70843 0.41569 0.51062 0.0
C2288 C 0.6653 0.38512 0.50811 0.0
C2289 C 0.62529 0.33672 0.48626 0.0
C2290 C 0.64635 0.35191 0.48895 0.0
C2291 C 0.69962 0.40568 0.48974 0.0
C2292 C 0.68285 0.38561 0.49068 0.0
H2293 H 0.60909 0.28047 0.47311 0.0
H2294 H 0.64442 0.30472 0.4782 0.0
H2295 H 0.63371 0.36903 0.52061 0.0
H2296 H 0.71869 0.44739 0.45106 0.0
H2297 H 0.69775 0.40983 0.4518 0.0
C2298 C 0.0803 0.17608 0.50172 0.0
C2299 C 0.07624 0.18991 0.52186 0.0
C2300 C 0.09955 0.16072 0.50085 0.0
C2301 C 0.12973 0.12117 0.5361 0.0
H2302 H 0.18592 0.12562 0.49767 0.0
C2303 C 0.20081 0.05099 0.5447 0.0
C2304 C 0.21133 0.04307 0.52385 0.0
C2305 C 0.18784 0.07183 0.54492 0.0
C2306 C 0.17024 0.12395 0.50834 0.0
H2307 H 0.08967 0.19904 0.55649 0.0
H2308 H 0.12272 0.17171 0.55508 0.0
H2309 H 0.1558 0.15643 0.4953 0.0
H2310 H 0.21747 0.05097 0.4871 0.0
H2311 H 0.19388 0.08677 0.48706 0.0
H2312 H 0.143 0.08839 0.5484 0.0
C2313 C 0.11118 0.17308 0.53996 0.0
C2314 C 0.15312 0.14163 0.507 0.0
C2315 C 0.09225 0.18866 0.54071 0.0
C2316 C 0.20971 0.05691 0.50348 0.0
C2317 C 0.19618 0.07746 0.50351 0.0
C2318 C 0.14652 0.10333 0.53714 0.0
C2319 C 0.11476 0.15882 0.52019 0.0
C2320 C 0.13284 0.14031 0.52096 0.0
C2321 C 0.18442 0.08478 0.52407 0.0
C2322 C 0.1671 0.10448 0.52338 0.0
H2323 H 0.06835 0.17675 0.48689 0.0
H2324 H 0.10202 0.14966 0.48552 0.0
H2325 H 0.11406 0.11983 0.54688 0.0
H2326 H 0.20197 0.04061 0.56065 0.0
H2327 H 0.17978 0.07728 0.56129 0.0
C2328 C 0.99194 0.58858 0.17834 0.0
C2329 C 0.97676 0.5854 0.19756 0.0
C2330 C 0.99166 0.60951 0.16555 0.0
C2331 C 0.95083 0.65397 0.14665 0.0
H2332 H 0.00652 0.68271 0.11963 0.0
C2333 C 0.97879 0.7231 0.06751 0.0
C2334 C 0.96795 0.71121 0.04874 0.0
C2335 C 0.97848 0.71336 0.09019 0.0
C2336 C 0.99078 0.67525 0.12735 0.0
H2337 H 0.94996 0.60192 0.21908 0.0
H2338 H 0.94897 0.63854 0.19614 0.0
H2339 H 0.01052 0.65517 0.15247 0.0
H2340 H 0.94715 0.68078 0.03904 0.0
H2341 H 0.94606 0.6642 0.07852 0.0
H2342 H 0.93124 0.67284 0.12052 0.0
C2343 C 0.96127 0.62483 0.19122 0.0
C2344 C 0.99308 0.65938 0.14602 0.0
C2345 C 0.96189 0.60396 0.20437 0.0
C2346 C 0.95574 0.69023 0.05321 0.0
C2347 C 0.95497 0.68083 0.07584 0.0
C2348 C 0.94856 0.66958 0.12779 0.0
C2349 C 0.9759 0.62762 0.17145 0.0
C2350 C 0.97319 0.64799 0.15532 0.0
C2351 C 0.96678 0.69197 0.09446 0.0
C2352 C 0.96859 0.67975 0.11745 0.0
H2353 H 0.00368 0.5746 0.17281 0.0
H2354 H 0.00294 0.61102 0.15027 0.0
H2355 H 0.93521 0.64535 0.15334 0.0
H2356 H 0.9884 0.73926 0.06444 0.0
H2357 H 0.98775 0.72224 0.10428 0.0
C2358 C 0.55034 0.41483 0.67878 0.0
C2359 C 0.53841 0.41748 0.70024 0.0
C2360 C 0.54969 0.3935 0.66671 0.0
C2361 C 0.51184 0.34565 0.65343 0.0
H2362 H 0.568 0.31842 0.62582 0.0
C2363 C 0.50695 0.28153 0.57418 0.0
C2364 C 0.5219 0.28843 0.55572 0.0
C2365 C 0.5099 0.29102 0.5968 0.0
C2366 C 0.55213 0.3257 0.63345 0.0
H2367 H 0.51665 0.39994 0.72613 0.0
H2368 H 0.51471 0.3625 0.70428 0.0
H2369 H 0.57166 0.34755 0.65716 0.0
H2370 H 0.55243 0.30952 0.5468 0.0
H2371 H 0.5574 0.32601 0.58569 0.0
H2372 H 0.49232 0.32527 0.62844 0.0
C2373 C 0.52494 0.37693 0.6972 0.0
C2374 C 0.55425 0.34226 0.65147 0.0
C2375 C 0.52611 0.39822 0.70967 0.0
C2376 C 0.54047 0.30398 0.56057 0.0
C2377 C 0.5435 0.31325 0.58303 0.0
C2378 C 0.5097 0.32924 0.63516 0.0
C2379 C 0.53666 0.37449 0.67556 0.0
C2380 C 0.53418 0.35307 0.66095 0.0
C2381 C 0.52803 0.30729 0.60136 0.0
C2382 C 0.52989 0.31991 0.62424 0.0
H2383 H 0.55999 0.4294 0.67117 0.0
H2384 H 0.55864 0.39216 0.64993 0.0
H2385 H 0.49611 0.35386 0.6604 0.0
H2386 H 0.49249 0.26956 0.57094 0.0
H2387 H 0.49775 0.286 0.61059 0.0
C2388 C 0.46913 0.88624 0.79837 0.0
C2389 C 0.47819 0.90777 0.80658 0.0
C2390 C 0.46748 0.86688 0.81359 0.0
C2391 C 0.45883 0.85652 0.8757 0.0
H2392 H 0.48251 0.79311 0.86706 0.0
C2393 C 0.48903 0.77839 0.93977 0.0
C2394 C 0.47121 0.78073 0.95673 0.0
C2395 C 0.4865 0.78883 0.91762 0.0
C2396 C 0.47567 0.81072 0.86961 0.0
H2397 H 0.49456 0.92527 0.83634 0.0
H2398 H 0.49162 0.89177 0.8626 0.0
H2399 H 0.48647 0.82203 0.83514 0.0
H2400 H 0.43578 0.79332 0.96308 0.0
H2401 H 0.43104 0.81087 0.92428 0.0
H2402 H 0.44896 0.84609 0.91024 0.0
C2403 C 0.48537 0.88993 0.84467 0.0
C2404 C 0.47782 0.82714 0.85134 0.0
C2405 C 0.48705 0.90909 0.82961 0.0
C2406 C 0.44999 0.79169 0.95047 0.0
C2407 C 0.44731 0.80177 0.92827 0.0
C2408 C 0.45659 0.84023 0.89378 0.0
C2409 C 0.47484 0.86895 0.8371 0.0
C2410 C 0.47003 0.85036 0.85459 0.0
C2411 C 0.46598 0.8015 0.91203 0.0
C2412 C 0.46544 0.81728 0.89122 0.0
H2413 H 0.46228 0.88469 0.78066 0.0
H2414 H 0.45938 0.85078 0.80739 0.0
H2415 H 0.45245 0.87427 0.87851 0.0
H2416 H 0.50556 0.76995 0.94412 0.0
H2417 H 0.50126 0.78837 0.90559 0.0
C2418 C 0.03279 0.11574 0.29411 0.0
C2419 C 0.02114 0.0953 0.3017 0.0
C2420 C 0.03043 0.13679 0.30677 0.0
C2421 C 0.99422 0.16752 0.35108 0.0
H2422 H 0.05329 0.1886 0.37796 0.0
C2423 C 0.02369 0.19912 0.44524 0.0
C2424 C 0.00991 0.21908 0.44981 0.0
C2425 C 0.02645 0.19089 0.42233 0.0
C2426 C 0.0367 0.18331 0.3702 0.0
H2427 H 0.99679 0.08109 0.32735 0.0
H2428 H 0.99227 0.11783 0.34903 0.0
H2429 H 0.05357 0.16094 0.34496 0.0
H2430 H 0.98858 0.24651 0.43421 0.0
H2431 H 0.99256 0.23129 0.39373 0.0
H2432 H 0.97737 0.18887 0.37724 0.0
C2433 C 0.00335 0.11763 0.33352 0.0
C2434 C 0.03685 0.16757 0.35129 0.0
C2435 C 0.00611 0.09656 0.32125 0.0
C2436 C -0.00062 0.23113 0.43099 0.0
C2437 C 0.00163 0.22246 0.40797 0.0
C2438 C 0.99408 0.18356 0.36975 0.0
C2439 C 0.01589 0.1378 0.32675 0.0
C2440 C 0.01561 0.15872 0.34229 0.0
C2441 C 0.01504 0.20212 0.40355 0.0
C2442 C 0.01531 0.19073 0.38014 0.0
H2443 H 0.04449 0.11519 0.27908 0.0
H2444 H 0.04032 0.15211 0.30127 0.0
H2445 H 0.97762 0.16099 0.34437 0.0
H2446 H 0.03202 0.1896 0.4595 0.0
H2447 H 0.03661 0.175 0.41945 0.0
C2448 C 0.07097 0.0146 0.72099 0.0
C2449 C 0.05997 0.99417 0.72925 0.0
C2450 C 0.09269 0.01323 0.70962 0.0
C2451 C 0.12232 0.00287 0.66753 0.0
H2452 H 0.16996 0.95442 0.67404 0.0
C2453 C 0.17132 0.96837 0.58807 0.0
C2454 C 0.19594 0.96606 0.58897 0.0
C2455 C 0.1584 0.97277 0.60837 0.0
C2456 C 0.15698 0.96826 0.67221 0.0
H2457 H 0.06322 0.95652 0.73345 0.0
H2458 H 0.10083 0.95382 0.71268 0.0
H2459 H 0.142 0.96146 0.70621 0.0
H2460 H 0.2262 0.96588 0.61224 0.0
H2461 H 0.20325 0.97358 0.64816 0.0
H2462 H 0.13686 0.00945 0.63354 0.0
C2463 C 0.0932 0.97104 0.71556 0.0
C2464 C 0.14085 0.97216 0.6905 0.0
C2465 C 0.07165 0.97252 0.72743 0.0
C2466 C 0.20726 0.9676 0.61095 0.0
C2467 C 0.19417 0.97195 0.63148 0.0
C2468 C 0.13834 0.999 0.64941 0.0
C2469 C 0.10345 0.99128 0.70556 0.0
C2470 C 0.12295 0.98917 0.68813 0.0
C2471 C 0.16964 0.97504 0.63023 0.0
C2472 C 0.15535 0.98119 0.6512 0.0
H2473 H 0.06218 0.03148 0.72225 0.0
H2474 H 0.10036 0.02927 0.70277 0.0
H2475 H 0.10866 0.01586 0.66474 0.0
H2476 H 0.1619 0.96711 0.57155 0.0
H2477 H 0.13947 0.97456 0.60691 0.0
C2478 C 0.42772 0.0196 0.23039 0.0
C2479 C 0.44568 0.0056 0.22074 0.0
C2480 C 0.40518 0.01967 0.22022 0.0
C2481 C 0.36728 0.98695 0.17774 0.0
H2482 H 0.34429 0.04857 0.15959 0.0
C2483 C 0.32145 0.00471 0.09064 0.0
C2484 C 0.30143 0.01917 0.08987 0.0
C2485 C 0.33381 0.0016 0.11158 0.0
C2486 C 0.35014 0.03124 0.16495 0.0
H2487 H 0.45385 0.97969 0.19393 0.0
H2488 H 0.41499 0.97968 0.17648 0.0
H2489 H 0.37578 0.04531 0.18878 0.0
H2490 H 0.27839 0.04148 0.11052 0.0
H2491 H 0.3007 0.0366 0.14734 0.0
H2492 H 0.3428 0.97299 0.15273 0.0
C2493 C 0.418 0.99061 0.19181 0.0
C2494 C 0.36814 0.02936 0.1817 0.0
C2495 C 0.4404 0.99077 0.2017 0.0
C2496 C 0.29377 0.03022 0.11065 0.0
C2497 C 0.30651 0.02749 0.13164 0.0
C2498 C 0.34948 0.98886 0.16092 0.0
C2499 C 0.40022 0.00541 0.20056 0.0
C2500 C 0.37761 0.00722 0.18749 0.0
C2501 C 0.32668 0.01315 0.13223 0.0
C2502 C 0.34142 0.01105 0.15366 0.0
H2503 H 0.43137 0.03128 0.24501 0.0
H2504 H 0.39181 0.03121 0.22739 0.0
H2505 H 0.37385 0.96962 0.18219 0.0
H2506 H 0.32766 0.99582 0.07495 0.0
H2507 H 0.34944 0.99068 0.11143 0.0
C2508 C 0.5625 0.48822 0.28865 0.0
C2509 C 0.55053 0.50877 0.28217 0.0
C2510 C 0.58349 0.48964 0.30143 0.0
C2511 C 0.61395 0.53202 0.34082 0.0
H2512 H 0.66145 0.48308 0.34332 0.0
C2513 C 0.69505 0.53858 0.40072 0.0
C2514 C 0.69697 0.52004 0.41698 0.0
C2515 C 0.6799 0.53677 0.38149 0.0
C2516 C 0.64829 0.49685 0.3427 0.0
H2517 H 0.55149 0.54677 0.28218 0.0
H2518 H 0.589 0.54945 0.30282 0.0
H2519 H 0.63095 0.48158 0.31297 0.0
H2520 H 0.68546 0.4846 0.42515 0.0
H2521 H 0.65918 0.48132 0.39109 0.0
H2522 H 0.63161 0.54743 0.37029 0.0
C2523 C 0.58186 0.53217 0.29919 0.0
C2524 C 0.63073 0.49599 0.32543 0.0
C2525 C 0.56057 0.53072 0.28704 0.0
C2526 C 0.6842 0.49923 0.41301 0.0
C2527 C 0.66933 0.49728 0.39348 0.0
C2528 C 0.63172 0.53311 0.35769 0.0
C2529 C 0.59306 0.51169 0.30756 0.0
C2530 C 0.61312 0.51343 0.32443 0.0
C2531 C 0.6667 0.51624 0.37787 0.0
C2532 C 0.64886 0.51542 0.35897 0.0
H2533 H 0.55476 0.47111 0.28536 0.0
H2534 H 0.59133 0.47345 0.30768 0.0
H2535 H 0.60045 0.54544 0.34125 0.0
H2536 H 0.70466 0.55484 0.40326 0.0
H2537 H 0.67819 0.55158 0.36962 0.0
C2538 C 0.94485 0.50998 0.79867 0.0
C2539 C 0.95091 0.49506 0.77993 0.0
C2540 C 0.92231 0.5095 0.80822 0.0
C2541 C 0.87487 0.46894 0.81913 0.0
H2542 H 0.84382 0.52486 0.84302 0.0
C2543 C 0.79939 0.46271 0.88665 0.0
C2544 C 0.80219 0.47755 0.90627 0.0
C2545 C 0.81281 0.46617 0.86632 0.0
C2546 C 0.85223 0.50907 0.83644 0.0
H2547 H 0.93797 0.46849 0.75586 0.0
H2548 H 0.89827 0.46722 0.77307 0.0
H2549 H 0.8761 0.52876 0.81497 0.0
H2550 H 0.82047 0.50838 0.91944 0.0
H2551 H 0.84402 0.51419 0.88425 0.0
H2552 H 0.85195 0.44928 0.84155 0.0
C2553 C 0.91107 0.47942 0.78016 0.0
C2554 C 0.87063 0.51131 0.82032 0.0
C2555 C 0.93368 0.4802 0.77029 0.0
C2556 C 0.81794 0.49653 0.90472 0.0
C2557 C 0.83131 0.5 0.88441 0.0
C2558 C 0.85651 0.4667 0.83534 0.0
C2559 C 0.90532 0.49386 0.79945 0.0
C2560 C 0.8827 0.49131 0.81218 0.0
C2561 C 0.82923 0.48461 0.86513 0.0
C2562 C 0.84558 0.48679 0.84484 0.0
H2563 H 0.95774 0.52175 0.80635 0.0
H2564 H 0.91854 0.52061 0.82325 0.0
H2565 H 0.88398 0.45323 0.81332 0.0
H2566 H 0.78726 0.44803 0.88717 0.0
H2567 H 0.81059 0.45418 0.85167 0.0
C2568 C 0.70362 0.05688 0.95149 0.0
C2569 C 0.71289 0.05326 0.97405 0.0
C2570 C 0.692 0.0778 0.94608 0.0
C2571 C 0.67437 0.13693 0.96972 0.0
H2572 H 0.61635 0.12186 0.93716 0.0
C2573 C 0.57226 0.16939 0.96416 0.0
C2574 C 0.57414 0.19354 0.95927 0.0
C2575 C 0.59207 0.15502 0.96398 0.0
C2576 C 0.63248 0.1264 0.94627 0.0
H2577 H 0.71873 0.06899 0.00825 0.0
H2578 H 0.69743 0.1052 -0.00074 0.0
H2579 H 0.64713 0.09263 0.93964 0.0
H2580 H 0.59859 0.22173 0.95124 0.0
H2581 H 0.63352 0.19628 0.9508 0.0
H2582 H 0.65864 0.17044 0.97744 0.0
C2583 C 0.69966 0.09228 0.98543 0.0
C2584 C 0.65037 0.10973 0.94739 0.0
C2585 C 0.71182 0.0715 0.99066 0.0
C2586 C 0.59654 0.20315 0.95493 0.0
C2587 C 0.61653 0.18864 0.95474 0.0
C2588 C 0.65628 0.15369 0.96866 0.0
C2589 C 0.68874 0.09524 0.96338 0.0
C2590 C 0.67139 0.11452 0.95956 0.0
C2591 C 0.61436 0.16434 0.95884 0.0
C2592 C 0.63489 0.14827 0.9575 0.0
H2593 H 0.7045 0.04309 0.93834 0.0
H2594 H 0.68449 0.07976 0.92868 0.0
H2595 H 0.69043 0.14133 0.97898 0.0
H2596 H 0.55538 0.16141 0.96798 0.0
H2597 H 0.5899 0.13648 0.96782 0.0
C2598 C 0.08462 0.31385 0.99571 0.0
C2599 C 0.079 0.30489 0.01799 0.0
C2600 C 0.10519 0.32693 0.9924 0.0
C2601 C 0.16144 0.3444 0.02259 0.0
H2602 H 0.15778 0.3973 0.97975 0.0
C2603 C 0.21033 0.43301 0.03008 0.0
C2604 C 0.22026 0.44234 0.0095 0.0
C2605 C 0.19848 0.41152 0.02945 0.0
C2606 C 0.15921 0.38233 0.99146 0.0
H2607 H 0.09024 0.3026 0.05434 0.0
H2608 H 0.12523 0.32648 0.04903 0.0
H2609 H 0.12534 0.36959 0.9817 0.0
H2610 H 0.22667 0.43625 0.97241 0.0
H2611 H 0.20516 0.39886 0.97117 0.0
H2612 H 0.19465 0.35866 0.03359 0.0
C2613 C 0.11451 0.3227 0.03376 0.0
C2614 C 0.14063 0.36633 0.99257 0.0
C2615 C 0.09427 0.30917 0.03691 0.0
C2616 C 0.21944 0.4292 0.98858 0.0
C2617 C 0.20705 0.40796 0.98782 0.0
C2618 C 0.17979 0.36076 0.02184 0.0
C2619 C 0.12029 0.33183 0.01146 0.0
C2620 C 0.14123 0.34737 0.0085 0.0
C2621 C 0.19588 0.39936 0.00811 0.0
C2622 C 0.17863 0.38002 0.00651 0.0
H2623 H 0.07325 0.31051 0.98077 0.0
H2624 H 0.10919 0.33317 0.97487 0.0
H2625 H 0.16292 0.32972 0.03463 0.0
H2626 H 0.21061 0.44298 0.04633 0.0
H2627 H 0.18981 0.40532 0.04526 0.0
C2628 C 0.40559 0.6895 0.52643 0.0
C2629 C 0.42195 0.69268 0.50822 0.0
C2630 C 0.38537 0.67602 0.52285 0.0
C2631 C 0.36122 0.63015 0.48285 0.0
H2632 H 0.30527 0.64022 0.52063 0.0
C2633 C 0.28217 0.56675 0.4797 0.0
C2634 C 0.27981 0.55559 0.5016 0.0
C2635 C 0.2951 0.58763 0.47783 0.0
C2636 C 0.32068 0.63741 0.50977 0.0
H2637 H 0.42952 0.68514 0.47163 0.0
H2638 H 0.39371 0.66245 0.46496 0.0
H2639 H 0.3369 0.66924 0.52144 0.0
H2640 H 0.28753 0.55796 0.53881 0.0
H2641 H 0.30916 0.59503 0.53573 0.0
H2642 H 0.34472 0.59832 0.47118 0.0
C2643 C 0.39683 0.66961 0.48233 0.0
C2644 C 0.33897 0.65385 0.51041 0.0
C2645 C 0.41733 0.68271 0.48609 0.0
C2646 C 0.28893 0.56646 0.5218 0.0
C2647 C 0.30128 0.5876 0.52003 0.0
C2648 C 0.34271 0.61401 0.48184 0.0
C2649 C 0.3807 0.66575 0.50077 0.0
C2650 C 0.35986 0.65006 0.49756 0.0
C2651 C 0.30527 0.59787 0.49792 0.0
C2652 C 0.32259 0.61716 0.4958 0.0
H2653 H 0.40873 0.69684 0.54375 0.0
H2654 H 0.37382 0.67311 0.53769 0.0
H2655 H 0.37702 0.62629 0.47295 0.0
H2656 H 0.27563 0.55842 0.46385 0.0
H2657 H 0.29805 0.59523 0.46061 0.0
C2658 C 0.89438 0.79711 0.47124 0.0
C2659 C 0.91493 0.80675 0.46142 0.0
C2660 C 0.87417 0.81095 0.47391 0.0
C2661 C 0.84496 0.8647 0.45286 0.0
H2662 H 0.82123 0.87109 0.51653 0.0
C2663 C 0.80269 0.94228 0.50936 0.0
C2664 C 0.78371 0.94953 0.49532 0.0
C2665 C 0.81347 0.92058 0.50548 0.0
C2666 C 0.82744 0.86921 0.4986 0.0
H2667 H 0.93017 0.83807 0.44588 0.0
H2668 H 0.89483 0.86201 0.45015 0.0
H2669 H 0.85046 0.84072 0.50758 0.0
H2670 H 0.76055 0.93958 0.46672 0.0
H2671 H 0.78 0.90164 0.45943 0.0
H2672 H 0.82266 0.89379 0.44407 0.0
C2673 C 0.89436 0.84383 0.45587 0.0
C2674 C 0.84404 0.8518 0.49346 0.0
C2675 C 0.91464 0.83018 0.4536 0.0
C2676 C 0.77509 0.9343 0.47786 0.0
C2677 C 0.78624 0.91271 0.47363 0.0
C2678 C 0.82811 0.88188 0.45791 0.0
C2679 C 0.87404 0.83447 0.46634 0.0
C2680 C 0.85353 0.84993 0.47072 0.0
C2681 C 0.80577 0.90587 0.48719 0.0
C2682 C 0.81979 0.88479 0.481 0.0
H2683 H 0.89414 0.7791 0.47748 0.0
H2684 H 0.8587 0.80335 0.48205 0.0
H2685 H 0.85193 0.8635 0.43515 0.0
H2686 H 0.80961 0.95366 0.523 0.0
H2687 H 0.82864 0.91587 0.51602 0.0
loop_
_geom_bond_atom_site_label_1
_geom_bond_atom_site_label_2
_geom_bond_distance
_geom_bond_site_symmetry_2
_ccdc_geom_bond_type
Fe0 O2 1.918 . S
Fe0 O5 1.997 . S
Fe0 O6 2.002 . S
Fe0 O11 1.976 . S
Fe0 O14 1.996 . S
Fe1 O2 1.918 . S
Fe1 O9 1.997 . S
Fe1 O12 1.996 . S
Fe1 O16 1.976 1_455 S
Fe1 O19 2.016 . S
O2 Fe0 1.918 . S
O2 Fe1 1.918 . S
O2 Fe3 1.918 . S
Fe3 O2 1.918 . S
Fe3 O4 2.002 . S
Fe3 O13 1.976 . S
Fe3 O17 1.996 1_455 S
Fe3 O20 1.997 . S
O4 Fe3 2.002 . S
O4 C21 1.295 . S
O5 Fe0 1.997 . S
O5 C21 1.235 . S
O6 Fe0 2.002 . S
O6 C7 1.295 . S
C7 O6 1.295 . S
C7 O9 1.235 . S
C8 O13 1.287 . S
C8 O14 1.255 . S
O9 Fe1 1.997 . S
O9 C7 1.235 . S
C10 O16 1.287 . S
C10 O17 1.255 . S
O11 Fe0 1.976 . S
O11 C18 1.287 . S
O12 Fe1 1.996 . S
O12 C18 1.255 . S
O13 Fe3 1.976 . S
O13 C8 1.287 . S
O14 Fe0 1.996 . S
O14 C8 1.255 . S
C15 O19 1.291 1_556 S
C15 O20 1.235 1_556 S
O16 Fe1 1.976 1_655 S
O16 C10 1.287 . S
O17 Fe3 1.996 1_655 S
O17 C10 1.255 . S
C18 O11 1.287 . S
C18 O12 1.255 . S
O19 Fe1 2.016 . S
O19 C15 1.291 1_554 S
O20 Fe3 1.997 . S
O20 C15 1.235 1_554 S
C21 O4 1.295 . S
C21 O5 1.235 . S
Fe22 O24 1.918 . S
Fe22 O27 1.997 . S
Fe22 O28 2.002 . S
Fe22 O33 1.976 . S
Fe22 O36 1.996 . S
Fe23 O24 1.918 . S
Fe23 O31 1.997 . S
Fe23 O34 1.996 . S
Fe23 O38 1.976 . S
Fe23 O41 2.002 . S
O24 Fe22 1.918 . S
O24 Fe23 1.918 . S
O24 Fe25 1.918 . S
Fe25 O24 1.918 . S
Fe25 O26 2.002 . S
Fe25 O35 1.976 . S
Fe25 O39 1.996 . S
Fe25 O42 1.997 . S
O26 Fe25 2.002 . S
O26 C43 1.295 . S
O27 Fe22 1.997 . S
O27 C43 1.235 . S
O28 Fe22 2.002 . S
O28 C29 1.295 . S
C29 O28 1.295 . S
C29 O31 1.235 . S
C30 O35 1.287 . S
C30 O36 1.255 . S
O31 Fe23 1.997 . S
O31 C29 1.235 . S
C32 O38 1.287 . S
C32 O39 1.255 . S
O33 Fe22 1.976 . S
O33 C40 1.287 . S
O34 Fe23 1.996 . S
O34 C40 1.255 . S
O35 Fe25 1.976 . S
O35 C30 1.287 . S
O36 Fe22 1.996 . S
O36 C30 1.255 . S
C37 O41 1.295 . S
C37 O42 1.235 . S
O38 Fe23 1.976 . S
O38 C32 1.287 . S
O39 Fe25 1.996 . S
O39 C32 1.255 . S
C40 O33 1.287 . S
C40 O34 1.255 . S
O41 Fe23 2.002 . S
O41 C37 1.295 . S
O42 Fe25 1.997 . S
O42 C37 1.235 . S
C43 O26 1.295 . S
C43 O27 1.235 . S
Fe44 O46 1.918 . S
Fe44 O49 1.997 . S
Fe44 O50 2.002 . S
Fe44 O55 1.976 . S
Fe44 O58 1.996 . S
Fe45 O46 1.918 . S
Fe45 O53 1.997 . S
Fe45 O56 1.996 . S
Fe45 O60 1.976 . S
Fe45 O63 2.015 . S
O46 Fe44 1.918 . S
O46 Fe45 1.918 . S
O46 Fe47 1.918 . S
Fe47 O46 1.918 . S
Fe47 O48 2.002 . S
Fe47 O57 1.976 . S
Fe47 O61 1.996 . S
Fe47 O64 1.997 . S
O48 Fe47 2.002 . S
O48 C65 1.295 . S
O49 Fe44 1.997 . S
O49 C65 1.235 . S
O50 Fe44 2.002 . S
O50 C51 1.295 . S
C51 O50 1.295 . S
C51 O53 1.235 . S
C52 O57 1.287 . S
C52 O58 1.255 . S
O53 Fe45 1.997 . S
O53 C51 1.235 . S
C54 O60 1.287 . S
C54 O61 1.255 . S
O55 Fe44 1.976 . S
O55 C62 1.287 . S
O56 Fe45 1.996 . S
O56 C62 1.255 . S
O57 Fe47 1.976 . S
O57 C52 1.287 . S
O58 Fe44 1.996 . S
O58 C52 1.255 . S
C59 O63 1.291 1_554 S
C59 O64 1.235 1_554 S
O60 Fe45 1.976 . S
O60 C54 1.287 . S
O61 Fe47 1.996 . S
O61 C54 1.255 . S
C62 O55 1.287 . S
C62 O56 1.255 . S
O63 Fe45 2.015 . S
O63 C59 1.291 1_556 S
O64 Fe47 1.997 . S
O64 C59 1.235 1_556 S
C65 O48 1.295 . S
C65 O49 1.235 . S
Fe66 O68 1.918 . S
Fe66 O71 1.997 . S
Fe66 O72 2.002 . S
Fe66 O77 1.976 1_655 S
Fe66 O80 1.996 . S
Fe67 O68 1.918 . S
Fe67 O75 1.997 . S
Fe67 O78 1.996 1_655 S
Fe67 O82 1.976 . S
Fe67 O85 2.002 . S
O68 Fe66 1.918 . S
O68 Fe67 1.918 . S
O68 Fe69 1.918 . S
Fe69 O68 1.918 . S
Fe69 O70 2.002 . S
Fe69 O79 1.976 . S
Fe69 O83 1.996 . S
Fe69 O86 1.997 . S
O70 Fe69 2.002 . S
O70 C87 1.295 . S
O71 Fe66 1.997 . S
O71 C87 1.235 . S
O72 Fe66 2.002 . S
O72 C73 1.295 . S
C73 O72 1.295 . S
C73 O75 1.235 . S
C74 O79 1.287 . S
C74 O80 1.255 . S
O75 Fe67 1.997 . S
O75 C73 1.235 . S
C76 O82 1.287 . S
C76 O83 1.255 . S
O77 Fe66 1.976 1_455 S
O77 C84 1.287 . S
O78 Fe67 1.996 1_455 S
O78 C84 1.255 . S
O79 Fe69 1.976 . S
O79 C74 1.287 . S
O80 Fe66 1.996 . S
O80 C74 1.255 . S
C81 O85 1.295 . S
C81 O86 1.235 . S
O82 Fe67 1.976 . S
O82 C76 1.287 . S
O83 Fe69 1.996 . S
O83 C76 1.255 . S
C84 O77 1.287 . S
C84 O78 1.255 . S
O85 Fe67 2.002 . S
O85 C81 1.295 . S
O86 Fe69 1.997 . S
O86 C81 1.235 . S
C87 O70 1.295 . S
C87 O71 1.235 . S
Fe88 O90 1.918 . S
Fe88 O93 1.997 . S
Fe88 O94 2.002 . S
Fe88 O99 1.976 . S
Fe88 O102 1.996 1_545 S
Fe89 O90 1.918 . S
Fe89 O97 1.997 . S
Fe89 O100 1.996 . S
Fe89 O104 1.976 . S
Fe89 O107 2.002 . S
O90 Fe88 1.918 . S
O90 Fe89 1.918 . S
O90 Fe91 1.918 . S
Fe91 O90 1.918 . S
Fe91 O92 2.016 . S
Fe91 O101 1.976 1_545 S
Fe91 O105 1.996 . S
Fe91 O108 1.997 . S
O92 Fe91 2.016 . S
O92 C109 1.291 1_455 S
O93 Fe88 1.997 . S
O93 C109 1.235 1_455 S
O94 Fe88 2.002 . S
O94 C95 1.295 . S
C95 O94 1.295 . S
C95 O97 1.235 . S
C96 O101 1.287 . S
C96 O102 1.255 . S
O97 Fe89 1.997 . S
O97 C95 1.235 . S
C98 O104 1.287 . S
C98 O105 1.255 . S
O99 Fe88 1.976 . S
O99 C106 1.287 . S
O100 Fe89 1.996 . S
O100 C106 1.255 . S
O101 Fe91 1.976 1_565 S
O101 C96 1.287 . S
O102 Fe88 1.996 1_565 S
O102 C96 1.255 . S
C103 O107 1.295 . S
C103 O108 1.235 . S
O104 Fe89 1.976 . S
O104 C98 1.287 . S
O105 Fe91 1.996 . S
O105 C98 1.255 . S
C106 O99 1.287 . S
C106 O100 1.255 . S
O107 Fe89 2.002 . S
O107 C103 1.295 . S
O108 Fe91 1.997 . S
O108 C103 1.235 . S
C109 O92 1.291 1_655 S
C109 O93 1.235 1_655 S
Fe110 O112 1.918 . S
Fe110 O115 1.997 . S
Fe110 O116 2.002 . S
Fe110 O121 1.976 1_565 S
Fe110 O124 1.996 . S
Fe111 O112 1.918 . S
Fe111 O119 1.997 . S
Fe111 O122 1.996 1_565 S
Fe111 O126 1.976 . S
Fe111 O129 2.002 . S
O112 Fe110 1.918 . S
O112 Fe111 1.918 . S
O112 Fe113 1.918 . S
Fe113 O112 1.918 . S
Fe113 O114 2.002 . S
Fe113 O123 1.976 . S
Fe113 O127 1.996 . S
Fe113 O130 1.997 . S
O114 Fe113 2.002 . S
O114 C131 1.295 . S
O115 Fe110 1.997 . S
O115 C131 1.235 . S
O116 Fe110 2.002 . S
O116 C117 1.295 . S
C117 O116 1.295 . S
C117 O119 1.235 . S
C118 O123 1.287 . S
C118 O124 1.255 . S
O119 Fe111 1.997 . S
O119 C117 1.235 . S
C120 O126 1.287 . S
C120 O127 1.255 . S
O121 Fe110 1.976 1_545 S
O121 C128 1.287 . S
O122 Fe111 1.996 1_545 S
O122 C128 1.255 . S
O123 Fe113 1.976 . S
O123 C118 1.287 . S
O124 Fe110 1.996 . S
O124 C118 1.255 . S
C125 O129 1.295 . S
C125 O130 1.235 . S
O126 Fe111 1.976 . S
O126 C120 1.287 . S
O127 Fe113 1.996 . S
O127 C120 1.255 . S
C128 O121 1.287 . S
C128 O122 1.255 . S
O129 Fe111 2.002 . S
O129 C125 1.295 . S
O130 Fe113 1.997 . S
O130 C125 1.235 . S
C131 O114 1.295 . S
C131 O115 1.235 . S
Fe132 O134 1.918 . S
Fe132 O137 1.997 . S
Fe132 O138 2.002 . S
Fe132 O143 1.976 . S
Fe132 O146 1.996 . S
Fe133 O134 1.918 . S
Fe133 O141 1.997 . S
Fe133 O144 1.996 . S
Fe133 O148 1.976 . S
Fe133 O151 2.002 . S
O134 Fe132 1.918 . S
O134 Fe133 1.918 . S
O134 Fe135 1.918 . S
Fe135 O134 1.918 . S
Fe135 O136 2.002 . S
Fe135 O145 1.976 . S
Fe135 O149 1.996 . S
Fe135 O152 1.997 . S
O136 Fe135 2.002 . S
O136 C153 1.295 . S
O137 Fe132 1.997 . S
O137 C153 1.235 . S
O138 Fe132 2.002 . S
O138 C139 1.295 . S
C139 O138 1.295 . S
C139 O141 1.235 . S
C140 O145 1.287 . S
C140 O146 1.255 . S
O141 Fe133 1.997 . S
O141 C139 1.235 . S
C142 O148 1.287 . S
C142 O149 1.255 . S
O143 Fe132 1.976 . S
O143 C150 1.287 . S
O144 Fe133 1.996 . S
O144 C150 1.255 . S
O145 Fe135 1.976 . S
O145 C140 1.287 . S
O146 Fe132 1.996 . S
O146 C140 1.255 . S
C147 O151 1.295 . S
C147 O152 1.235 . S
O148 Fe133 1.976 . S
O148 C142 1.287 . S
O149 Fe135 1.996 . S
O149 C142 1.255 . S
C150 O143 1.287 . S
C150 O144 1.255 . S
O151 Fe133 2.002 . S
O151 C147 1.295 . S
O152 Fe135 1.997 . S
O152 C147 1.235 . S
C153 O136 1.295 . S
C153 O137 1.235 . S
Fe154 O156 1.918 . S
Fe154 O159 1.997 . S
Fe154 O160 2.002 . S
Fe154 O165 1.976 . S
Fe154 O168 1.996 . S
Fe155 O156 1.918 . S
Fe155 O163 1.997 . S
Fe155 O166 1.996 . S
Fe155 O170 1.976 . S
Fe155 O173 2.015 . S
O156 Fe154 1.918 . S
O156 Fe155 1.918 . S
O156 Fe157 1.918 . S
Fe157 O156 1.918 . S
Fe157 O158 2.002 . S
Fe157 O167 1.976 . S
Fe157 O171 1.996 . S
Fe157 O174 1.997 . S
O158 Fe157 2.002 . S
O158 C175 1.295 . S
O159 Fe154 1.997 . S
O159 C175 1.235 . S
O160 Fe154 2.002 . S
O160 C161 1.295 . S
C161 O160 1.295 . S
C161 O163 1.235 . S
C162 O167 1.287 . S
C162 O168 1.255 . S
O163 Fe155 1.997 . S
O163 C161 1.235 . S
C164 O170 1.287 . S
C164 O171 1.255 . S
O165 Fe154 1.976 . S
O165 C172 1.287 . S
O166 Fe155 1.996 . S
O166 C172 1.255 . S
O167 Fe157 1.976 . S
O167 C162 1.287 . S
O168 Fe154 1.996 . S
O168 C162 1.255 . S
C169 O173 1.291 1_455 S
C169 O174 1.235 1_455 S
O170 Fe155 1.976 . S
O170 C164 1.287 . S
O171 Fe157 1.996 . S
O171 C164 1.255 . S
C172 O165 1.287 . S
C172 O166 1.255 . S
O173 Fe155 2.015 . S
O173 C169 1.291 1_655 S
O174 Fe157 1.997 . S
O174 C169 1.235 1_655 S
C175 O158 1.295 . S
C175 O159 1.235 . S
Fe176 O178 1.918 . S
Fe176 O181 1.997 . S
Fe176 O182 2.002 . S
Fe176 O187 1.976 . S
Fe176 O190 1.996 . S
Fe177 O178 1.918 . S
Fe177 O185 1.997 . S
Fe177 O188 1.996 . S
Fe177 O192 1.976 1_554 S
Fe177 O195 2.016 . S
O178 Fe176 1.918 . S
O178 Fe177 1.918 . S
O178 Fe179 1.918 . S
Fe179 O178 1.918 . S
Fe179 O180 2.002 . S
Fe179 O189 1.976 . S
Fe179 O193 1.996 1_554 S
Fe179 O196 1.997 . S
O180 Fe179 2.002 . S
O180 C197 1.295 . S
O181 Fe176 1.997 . S
O181 C197 1.235 . S
O182 Fe176 2.002 . S
O182 C183 1.295 . S
C183 O182 1.295 . S
C183 O185 1.235 . S
C184 O189 1.287 . S
C184 O190 1.255 . S
O185 Fe177 1.997 . S
O185 C183 1.235 . S
C186 O192 1.287 . S
C186 O193 1.255 . S
O187 Fe176 1.976 . S
O187 C194 1.287 . S
O188 Fe177 1.996 . S
O188 C194 1.255 . S
O189 Fe179 1.976 . S
O189 C184 1.287 . S
O190 Fe176 1.996 . S
O190 C184 1.255 . S
C191 O195 1.291 1_565 S
C191 O196 1.235 1_565 S
O192 Fe177 1.976 1_556 S
O192 C186 1.287 . S
O193 Fe179 1.996 1_556 S
O193 C186 1.255 . S
C194 O187 1.287 . S
C194 O188 1.255 . S
O195 Fe177 2.016 . S
O195 C191 1.291 1_545 S
O196 Fe179 1.997 . S
O196 C191 1.235 1_545 S
C197 O180 1.295 . S
C197 O181 1.235 . S
Fe198 O200 1.918 . S
Fe198 O203 1.997 . S
Fe198 O204 2.002 . S
Fe198 O209 1.976 . S
Fe198 O212 1.996 . S
Fe199 O200 1.918 . S
Fe199 O207 1.997 . S
Fe199 O210 1.996 . S
Fe199 O214 1.976 1_556 S
Fe199 O217 2.002 . S
O200 Fe198 1.918 . S
O200 Fe199 1.918 . S
O200 Fe201 1.918 . S
Fe201 O200 1.918 . S
Fe201 O202 2.002 . S
Fe201 O211 1.976 . S
Fe201 O215 1.996 1_556 S
Fe201 O218 1.997 . S
O202 Fe201 2.002 . S
O202 C219 1.295 . S
O203 Fe198 1.997 . S
O203 C219 1.235 . S
O204 Fe198 2.002 . S
O204 C205 1.295 . S
C205 O204 1.295 . S
C205 O207 1.235 . S
C206 O211 1.287 . S
C206 O212 1.255 . S
O207 Fe199 1.997 . S
O207 C205 1.235 . S
C208 O214 1.287 . S
C208 O215 1.255 . S
O209 Fe198 1.976 . S
O209 C216 1.287 . S
O210 Fe199 1.996 . S
O210 C216 1.255 . S
O211 Fe201 1.976 . S
O211 C206 1.287 . S
O212 Fe198 1.996 . S
O212 C206 1.255 . S
C213 O217 1.295 . S
C213 O218 1.235 . S
O214 Fe199 1.976 1_554 S
O214 C208 1.287 . S
O215 Fe201 1.996 1_554 S
O215 C208 1.255 . S
C216 O209 1.287 . S
C216 O210 1.255 . S
O217 Fe199 2.002 . S
O217 C213 1.295 . S
O218 Fe201 1.997 . S
O218 C213 1.235 . S
C219 O202 1.295 . S
C219 O203 1.235 . S
Fe220 O222 1.918 . S
Fe220 O225 1.997 . S
Fe220 O226 2.002 . S
Fe220 O231 1.976 . S
Fe220 O234 1.996 . S
Fe221 O222 1.918 . S
Fe221 O229 1.997 . S
Fe221 O232 1.996 . S
Fe221 O236 1.976 . S
Fe221 O239 2.002 . S
O222 Fe220 1.918 . S
O222 Fe221 1.918 . S
O222 Fe223 1.918 . S
Fe223 O222 1.918 . S
Fe223 O224 2.002 . S
Fe223 O233 1.976 . S
Fe223 O237 1.996 . S
Fe223 O240 1.997 . S
O224 Fe223 2.002 . S
O224 C241 1.295 . S
O225 Fe220 1.997 . S
O225 C241 1.235 . S
O226 Fe220 2.002 . S
O226 C227 1.295 . S
C227 O226 1.295 . S
C227 O229 1.235 . S
C228 O233 1.287 . S
C228 O234 1.255 . S
O229 Fe221 1.997 . S
O229 C227 1.235 . S
C230 O236 1.287 . S
C230 O237 1.255 . S
O231 Fe220 1.976 . S
O231 C238 1.287 . S
O232 Fe221 1.996 . S
O232 C238 1.255 . S
O233 Fe223 1.976 . S
O233 C228 1.287 . S
O234 Fe220 1.996 . S
O234 C228 1.255 . S
C235 O239 1.295 . S
C235 O240 1.235 . S
O236 Fe221 1.976 . S
O236 C230 1.287 . S
O237 Fe223 1.996 . S
O237 C230 1.255 . S
C238 O231 1.287 . S
C238 O232 1.255 . S
O239 Fe221 2.002 . S
O239 C235 1.295 . S
O240 Fe223 1.997 . S
O240 C235 1.235 . S
C241 O224 1.295 . S
C241 O225 1.235 . S
Fe242 O244 1.918 . S
Fe242 O247 1.997 . S
Fe242 O248 2.002 . S
Fe242 O253 1.976 . S
Fe242 O256 1.996 . S
Fe243 O244 1.918 . S
Fe243 O251 1.997 . S
Fe243 O254 1.996 . S
Fe243 O258 1.976 . S
Fe243 O261 2.015 . S
O244 Fe242 1.918 . S
O244 Fe243 1.918 . S
O244 Fe245 1.918 . S
Fe245 O244 1.918 . S
Fe245 O246 2.002 . S
Fe245 O255 1.976 . S
Fe245 O259 1.996 . S
Fe245 O262 1.997 . S
O246 Fe245 2.002 . S
O246 C263 1.295 . S
O247 Fe242 1.997 . S
O247 C263 1.235 . S
O248 Fe242 2.002 . S
O248 C249 1.295 . S
C249 O248 1.295 . S
C249 O251 1.235 . S
C250 O255 1.287 . S
C250 O256 1.255 . S
O251 Fe243 1.997 . S
O251 C249 1.235 . S
C252 O258 1.287 . S
C252 O259 1.255 . S
O253 Fe242 1.976 . S
O253 C260 1.287 . S
O254 Fe243 1.996 . S
O254 C260 1.255 . S
O255 Fe245 1.976 . S
O255 C250 1.287 . S
O256 Fe242 1.996 . S
O256 C250 1.255 . S
C257 O261 1.291 1_545 S
C257 O262 1.235 1_545 S
O258 Fe243 1.976 . S
O258 C252 1.287 . S
O259 Fe245 1.996 . S
O259 C252 1.255 . S
C260 O253 1.287 . S
C260 O254 1.255 . S
O261 Fe243 2.015 . S
O261 C257 1.291 1_565 S
O262 Fe245 1.997 . S
O262 C257 1.235 1_565 S
C263 O246 1.295 . S
C263 O247 1.235 . S
Fe264 O266 1.918 . S
Fe264 O269 1.997 . S
Fe264 O270 2.002 . S
Fe264 O275 1.976 . S
Fe264 O278 1.996 . S
Fe265 O266 1.918 . S
Fe265 O273 1.997 . S
Fe265 O276 1.996 . S
Fe265 O280 1.976 1_655 S
Fe265 O283 2.002 . S
O266 Fe264 1.918 . S
O266 Fe265 1.918 . S
O266 Fe267 1.918 . S
Fe267 O266 1.918 . S
Fe267 O268 2.002 . S
Fe267 O277 1.976 . S
Fe267 O281 1.996 1_655 S
Fe267 O284 1.997 . S
O268 Fe267 2.002 . S
O268 C285 1.295 . S
O269 Fe264 1.997 . S
O269 C285 1.235 . S
O270 Fe264 2.002 . S
O270 C271 1.295 . S
C271 O270 1.295 . S
C271 O273 1.235 . S
C272 O277 1.287 . S
C272 O278 1.255 . S
O273 Fe265 1.997 . S
O273 C271 1.235 . S
C274 O280 1.287 . S
C274 O281 1.255 . S
O275 Fe264 1.976 . S
O275 C282 1.287 . S
O276 Fe265 1.996 . S
O276 C282 1.255 . S
O277 Fe267 1.976 . S
O277 C272 1.287 . S
O278 Fe264 1.996 . S
O278 C272 1.255 . S
C279 O283 1.295 1_554 S
C279 O284 1.235 1_554 S
O280 Fe265 1.976 1_455 S
O280 C274 1.287 . S
O281 Fe267 1.996 1_455 S
O281 C274 1.255 . S
C282 O275 1.287 . S
C282 O276 1.255 . S
O283 Fe265 2.002 . S
O283 C279 1.295 1_556 S
O284 Fe267 1.997 . S
O284 C279 1.235 1_556 S
C285 O268 1.295 . S
C285 O269 1.235 . S
Fe286 O288 1.918 . S
Fe286 O291 1.997 . S
Fe286 O292 2.002 . S
Fe286 O297 1.976 . S
Fe286 O300 1.996 . S
Fe287 O288 1.918 . S
Fe287 O295 1.997 . S
Fe287 O298 1.996 . S
Fe287 O302 1.976 . S
Fe287 O305 2.002 . S
O288 Fe286 1.918 . S
O288 Fe287 1.918 . S
O288 Fe289 1.918 . S
Fe289 O288 1.918 . S
Fe289 O290 2.002 . S
Fe289 O299 1.976 . S
Fe289 O303 1.996 . S
Fe289 O306 1.997 . S
O290 Fe289 2.002 . S
O290 C307 1.295 . S
O291 Fe286 1.997 . S
O291 C307 1.235 . S
O292 Fe286 2.002 . S
O292 C293 1.295 . S
C293 O292 1.295 . S
C293 O295 1.235 . S
C294 O299 1.287 . S
C294 O300 1.255 . S
O295 Fe287 1.997 . S
O295 C293 1.235 . S
C296 O302 1.287 . S
C296 O303 1.255 . S
O297 Fe286 1.976 . S
O297 C304 1.287 . S
O298 Fe287 1.996 . S
O298 C304 1.255 . S
O299 Fe289 1.976 . S
O299 C294 1.287 . S
O300 Fe286 1.996 . S
O300 C294 1.255 . S
C301 O305 1.295 . S
C301 O306 1.235 . S
O302 Fe287 1.976 . S
O302 C296 1.287 . S
O303 Fe289 1.996 . S
O303 C296 1.255 . S
C304 O297 1.287 . S
C304 O298 1.255 . S
O305 Fe287 2.002 . S
O305 C301 1.295 . S
O306 Fe289 1.997 . S
O306 C301 1.235 . S
C307 O290 1.295 . S
C307 O291 1.235 . S
Fe308 O310 1.918 . S
Fe308 O313 1.997 . S
Fe308 O314 2.002 . S
Fe308 O319 1.976 . S
Fe308 O322 1.996 . S
Fe309 O310 1.918 . S
Fe309 O317 1.997 . S
Fe309 O320 1.996 . S
Fe309 O324 1.976 . S
Fe309 O327 2.002 . S
O310 Fe308 1.918 . S
O310 Fe309 1.918 . S
O310 Fe311 1.918 . S
Fe311 O310 1.918 . S
Fe311 O312 2.002 . S
Fe311 O321 1.976 . S
Fe311 O325 1.996 . S
Fe311 O328 1.997 . S
O312 Fe311 2.002 . S
O312 C329 1.295 . S
O313 Fe308 1.997 . S
O313 C329 1.235 . S
O314 Fe308 2.002 . S
O314 C315 1.295 1_554 S
C315 O314 1.295 1_556 S
C315 O317 1.235 1_556 S
C316 O321 1.287 . S
C316 O322 1.255 . S
O317 Fe309 1.997 . S
O317 C315 1.235 1_554 S
C318 O324 1.287 . S
C318 O325 1.255 . S
O319 Fe308 1.976 . S
O319 C326 1.287 . S
O320 Fe309 1.996 . S
O320 C326 1.255 . S
O321 Fe311 1.976 . S
O321 C316 1.287 . S
O322 Fe308 1.996 . S
O322 C316 1.255 . S
C323 O327 1.295 . S
C323 O328 1.235 . S
O324 Fe309 1.976 . S
O324 C318 1.287 . S
O325 Fe311 1.996 . S
O325 C318 1.255 . S
C326 O319 1.287 . S
C326 O320 1.255 . S
O327 Fe309 2.002 . S
O327 C323 1.295 . S
O328 Fe311 1.997 . S
O328 C323 1.235 . S
C329 O312 1.295 . S
C329 O313 1.235 . S
Fe330 O332 1.918 . S
Fe330 O335 1.997 . S
Fe330 O336 2.002 . S
Fe330 O341 1.976 . S
Fe330 O344 1.996 . S
Fe331 O332 1.918 . S
Fe331 O339 1.997 . S
Fe331 O342 1.996 . S
Fe331 O346 1.976 1_455 S
Fe331 O349 2.002 . S
O332 Fe330 1.918 . S
O332 Fe331 1.918 . S
O332 Fe333 1.918 . S
Fe333 O332 1.918 . S
Fe333 O334 2.002 . S
Fe333 O343 1.976 . S
Fe333 O347 1.996 1_455 S
Fe333 O350 1.997 . S
O334 Fe333 2.002 . S
O334 C351 1.295 . S
O335 Fe330 1.997 . S
O335 C351 1.235 . S
O336 Fe330 2.002 . S
O336 C337 1.295 . S
C337 O336 1.295 . S
C337 O339 1.235 . S
C338 O343 1.287 . S
C338 O344 1.255 . S
O339 Fe331 1.997 . S
O339 C337 1.235 . S
C340 O346 1.287 . S
C340 O347 1.255 . S
O341 Fe330 1.976 . S
O341 C348 1.287 . S
O342 Fe331 1.996 . S
O342 C348 1.255 . S
O343 Fe333 1.976 . S
O343 C338 1.287 . S
O344 Fe330 1.996 . S
O344 C338 1.255 . S
C345 O349 1.295 . S
C345 O350 1.235 . S
O346 Fe331 1.976 1_655 S
O346 C340 1.287 . S
O347 Fe333 1.996 1_655 S
O347 C340 1.255 . S
C348 O341 1.287 . S
C348 O342 1.255 . S
O349 Fe331 2.002 . S
O349 C345 1.295 . S
O350 Fe333 1.997 . S
O350 C345 1.235 . S
C351 O334 1.295 . S
C351 O335 1.235 . S
Fe352 O354 1.918 . S
Fe352 O357 1.997 . S
Fe352 O358 2.002 . S
Fe352 O363 1.976 . S
Fe352 O366 1.996 . S
Fe353 O354 1.918 . S
Fe353 O361 1.997 . S
Fe353 O364 1.996 . S
Fe353 O368 1.976 1_565 S
Fe353 O371 2.002 . S
O354 Fe352 1.918 . S
O354 Fe353 1.918 . S
O354 Fe355 1.918 . S
Fe355 O354 1.918 . S
Fe355 O356 2.002 . S
Fe355 O365 1.976 . S
Fe355 O369 1.996 1_565 S
Fe355 O372 1.997 . S
O356 Fe355 2.002 . S
O356 C373 1.295 . S
O357 Fe352 1.997 . S
O357 C373 1.235 . S
O358 Fe352 2.002 . S
O358 C359 1.295 . S
C359 O358 1.295 . S
C359 O361 1.235 . S
C360 O365 1.287 . S
C360 O366 1.255 . S
O361 Fe353 1.997 . S
O361 C359 1.235 . S
C362 O368 1.287 . S
C362 O369 1.255 . S
O363 Fe352 1.976 . S
O363 C370 1.287 . S
O364 Fe353 1.996 . S
O364 C370 1.255 . S
O365 Fe355 1.976 . S
O365 C360 1.287 . S
O366 Fe352 1.996 . S
O366 C360 1.255 . S
C367 O371 1.295 1_455 S
C367 O372 1.235 1_455 S
O368 Fe353 1.976 1_545 S
O368 C362 1.287 . S
O369 Fe355 1.996 1_545 S
O369 C362 1.255 . S
C370 O363 1.287 . S
C370 O364 1.255 . S
O371 Fe353 2.002 . S
O371 C367 1.295 1_655 S
O372 Fe355 1.997 . S
O372 C367 1.235 1_655 S
C373 O356 1.295 . S
C373 O357 1.235 . S
Fe374 O376 1.918 . S
Fe374 O379 1.997 . S
Fe374 O380 2.002 . S
Fe374 O385 1.976 . S
Fe374 O388 1.996 1_545 S
Fe375 O376 1.918 . S
Fe375 O383 1.997 . S
Fe375 O386 1.996 . S
Fe375 O390 1.976 . S
Fe375 O393 2.002 . S
O376 Fe374 1.918 . S
O376 Fe375 1.918 . S
O376 Fe377 1.918 . S
Fe377 O376 1.918 . S
Fe377 O378 2.002 . S
Fe377 O387 1.976 1_545 S
Fe377 O391 1.996 . S
Fe377 O394 1.997 . S
O378 Fe377 2.002 . S
O378 C395 1.295 . S
O379 Fe374 1.997 . S
O379 C395 1.235 . S
O380 Fe374 2.002 . S
O380 C381 1.295 . S
C381 O380 1.295 . S
C381 O383 1.235 . S
C382 O387 1.287 . S
C382 O388 1.255 . S
O383 Fe375 1.997 . S
O383 C381 1.235 . S
C384 O390 1.287 . S
C384 O391 1.255 . S
O385 Fe374 1.976 . S
O385 C392 1.287 . S
O386 Fe375 1.996 . S
O386 C392 1.255 . S
O387 Fe377 1.976 1_565 S
O387 C382 1.287 . S
O388 Fe374 1.996 1_565 S
O388 C382 1.255 . S
C389 O393 1.295 . S
C389 O394 1.235 . S
O390 Fe375 1.976 . S
O390 C384 1.287 . S
O391 Fe377 1.996 . S
O391 C384 1.255 . S
C392 O385 1.287 . S
C392 O386 1.255 . S
O393 Fe375 2.002 . S
O393 C389 1.295 . S
O394 Fe377 1.997 . S
O394 C389 1.235 . S
C395 O378 1.295 . S
C395 O379 1.235 . S
Fe396 O398 1.918 . S
Fe396 O401 1.997 . S
Fe396 O402 2.002 . S
Fe396 O407 1.976 . S
Fe396 O410 1.996 . S
Fe397 O398 1.918 . S
Fe397 O405 1.997 . S
Fe397 O408 1.996 . S
Fe397 O412 1.976 . S
Fe397 O415 2.002 . S
O398 Fe396 1.918 . S
O398 Fe397 1.918 . S
O398 Fe399 1.918 . S
Fe399 O398 1.918 . S
Fe399 O400 2.002 . S
Fe399 O409 1.976 . S
Fe399 O413 1.996 . S
Fe399 O416 1.997 . S
O400 Fe399 2.002 . S
O400 C417 1.295 . S
O401 Fe396 1.997 . S
O401 C417 1.235 . S
O402 Fe396 2.002 . S
O402 C403 1.295 . S
C403 O402 1.295 . S
C403 O405 1.235 . S
C404 O409 1.287 . S
C404 O410 1.255 . S
O405 Fe397 1.997 . S
O405 C403 1.235 . S
C406 O412 1.287 . S
C406 O413 1.255 . S
O407 Fe396 1.976 . S
O407 C414 1.287 . S
O408 Fe397 1.996 . S
O408 C414 1.255 . S
O409 Fe399 1.976 . S
O409 C404 1.287 . S
O410 Fe396 1.996 . S
O410 C404 1.255 . S
C411 O415 1.295 . S
C411 O416 1.235 . S
O412 Fe397 1.976 . S
O412 C406 1.287 . S
O413 Fe399 1.996 . S
O413 C406 1.255 . S
C414 O407 1.287 . S
C414 O408 1.255 . S
O415 Fe397 2.002 . S
O415 C411 1.295 . S
O416 Fe399 1.997 . S
O416 C411 1.235 . S
C417 O400 1.295 . S
C417 O401 1.235 . S
Fe418 O420 1.918 . S
Fe418 O423 1.997 . S
Fe418 O424 2.002 . S
Fe418 O429 1.976 . S
Fe418 O432 1.996 . S
Fe419 O420 1.918 . S
Fe419 O427 1.997 . S
Fe419 O430 1.996 . S
Fe419 O434 1.976 . S
Fe419 O437 2.002 . S
O420 Fe418 1.918 . S
O420 Fe419 1.918 . S
O420 Fe421 1.918 . S
Fe421 O420 1.918 . S
Fe421 O422 2.002 . S
Fe421 O431 1.976 . S
Fe421 O435 1.996 . S
Fe421 O438 1.997 . S
O422 Fe421 2.002 . S
O422 C439 1.295 1_455 S
O423 Fe418 1.997 . S
O423 C439 1.235 1_455 S
O424 Fe418 2.002 . S
O424 C425 1.295 . S
C425 O424 1.295 . S
C425 O427 1.235 . S
C426 O431 1.287 . S
C426 O432 1.255 . S
O427 Fe419 1.997 . S
O427 C425 1.235 . S
C428 O434 1.287 . S
C428 O435 1.255 . S
O429 Fe418 1.976 . S
O429 C436 1.287 . S
O430 Fe419 1.996 . S
O430 C436 1.255 . S
O431 Fe421 1.976 . S
O431 C426 1.287 . S
O432 Fe418 1.996 . S
O432 C426 1.255 . S
C433 O437 1.295 . S
C433 O438 1.235 . S
O434 Fe419 1.976 . S
O434 C428 1.287 . S
O435 Fe421 1.996 . S
O435 C428 1.255 . S
C436 O429 1.287 . S
C436 O430 1.255 . S
O437 Fe419 2.002 . S
O437 C433 1.295 . S
O438 Fe421 1.997 . S
O438 C433 1.235 . S
C439 O422 1.295 1_655 S
C439 O423 1.235 1_655 S
Fe440 O442 1.918 . S
Fe440 O445 1.997 . S
Fe440 O446 2.002 . S
Fe440 O451 1.976 . S
Fe440 O454 1.996 . S
Fe441 O442 1.918 . S
Fe441 O449 1.997 . S
Fe441 O452 1.996 . S
Fe441 O456 1.976 1_556 S
Fe441 O459 2.002 . S
O442 Fe440 1.918 . S
O442 Fe441 1.918 . S
O442 Fe443 1.918 . S
Fe443 O442 1.918 . S
Fe443 O444 2.002 . S
Fe443 O453 1.976 . S
Fe443 O457 1.996 1_556 S
Fe443 O460 1.997 . S
O444 Fe443 2.002 . S
O444 C461 1.295 . S
O445 Fe440 1.997 . S
O445 C461 1.235 . S
O446 Fe440 2.002 . S
O446 C447 1.295 . S
C447 O446 1.295 . S
C447 O449 1.235 . S
C448 O453 1.287 . S
C448 O454 1.255 . S
O449 Fe441 1.997 . S
O449 C447 1.235 . S
C450 O456 1.287 . S
C450 O457 1.255 . S
O451 Fe440 1.976 . S
O451 C458 1.287 . S
O452 Fe441 1.996 . S
O452 C458 1.255 . S
O453 Fe443 1.976 . S
O453 C448 1.287 . S
O454 Fe440 1.996 . S
O454 C448 1.255 . S
C455 O459 1.295 1_545 S
C455 O460 1.235 1_545 S
O456 Fe441 1.976 1_554 S
O456 C450 1.287 . S
O457 Fe443 1.996 1_554 S
O457 C450 1.255 . S
C458 O451 1.287 . S
C458 O452 1.255 . S
O459 Fe441 2.002 . S
O459 C455 1.295 1_565 S
O460 Fe443 1.997 . S
O460 C455 1.235 1_565 S
C461 O444 1.295 . S
C461 O445 1.235 . S
Fe462 O464 1.918 . S
Fe462 O467 1.997 . S
Fe462 O468 2.002 . S
Fe462 O473 1.976 1_554 S
Fe462 O476 1.996 . S
Fe463 O464 1.918 . S
Fe463 O471 1.997 . S
Fe463 O474 1.996 1_554 S
Fe463 O478 1.976 . S
Fe463 O481 2.002 . S
O464 Fe462 1.918 . S
O464 Fe463 1.918 . S
O464 Fe465 1.918 . S
Fe465 O464 1.918 . S
Fe465 O466 2.002 . S
Fe465 O475 1.976 . S
Fe465 O479 1.996 . S
Fe465 O482 1.997 . S
O466 Fe465 2.002 . S
O466 C483 1.295 . S
O467 Fe462 1.997 . S
O467 C483 1.235 . S
O468 Fe462 2.002 . S
O468 C469 1.295 . S
C469 O468 1.295 . S
C469 O471 1.235 . S
C470 O475 1.287 . S
C470 O476 1.255 . S
O471 Fe463 1.997 . S
O471 C469 1.235 . S
C472 O478 1.287 . S
C472 O479 1.255 . S
O473 Fe462 1.976 1_556 S
O473 C480 1.287 . S
O474 Fe463 1.996 1_556 S
O474 C480 1.255 . S
O475 Fe465 1.976 . S
O475 C470 1.287 . S
O476 Fe462 1.996 . S
O476 C470 1.255 . S
C477 O481 1.295 . S
C477 O482 1.235 . S
O478 Fe463 1.976 . S
O478 C472 1.287 . S
O479 Fe465 1.996 . S
O479 C472 1.255 . S
C480 O473 1.287 . S
C480 O474 1.255 . S
O481 Fe463 2.002 . S
O481 C477 1.295 . S
O482 Fe465 1.997 . S
O482 C477 1.235 . S
C483 O466 1.295 . S
C483 O467 1.235 . S
Fe484 O486 1.918 . S
Fe484 O489 1.997 . S
Fe484 O490 2.002 . S
Fe484 O495 1.976 . S
Fe484 O498 1.996 . S
Fe485 O486 1.918 . S
Fe485 O493 1.997 . S
Fe485 O496 1.996 . S
Fe485 O500 1.976 . S
Fe485 O503 2.002 . S
O486 Fe484 1.918 . S
O486 Fe485 1.918 . S
O486 Fe487 1.918 . S
Fe487 O486 1.918 . S
Fe487 O488 2.002 . S
Fe487 O497 1.976 . S
Fe487 O501 1.996 . S
Fe487 O504 1.997 . S
O488 Fe487 2.002 . S
O488 C505 1.295 . S
O489 Fe484 1.997 . S
O489 C505 1.235 . S
O490 Fe484 2.002 . S
O490 C491 1.295 . S
C491 O490 1.295 . S
C491 O493 1.235 . S
C492 O497 1.287 . S
C492 O498 1.255 . S
O493 Fe485 1.997 . S
O493 C491 1.235 . S
C494 O500 1.287 . S
C494 O501 1.255 . S
O495 Fe484 1.976 . S
O495 C502 1.287 . S
O496 Fe485 1.996 . S
O496 C502 1.255 . S
O497 Fe487 1.976 . S
O497 C492 1.287 . S
O498 Fe484 1.996 . S
O498 C492 1.255 . S
C499 O503 1.295 . S
C499 O504 1.235 . S
O500 Fe485 1.976 . S
O500 C494 1.287 . S
O501 Fe487 1.996 . S
O501 C494 1.255 . S
C502 O495 1.287 . S
C502 O496 1.255 . S
O503 Fe485 2.002 . S
O503 C499 1.295 . S
O504 Fe487 1.997 . S
O504 C499 1.235 . S
C505 O488 1.295 . S
C505 O489 1.235 . S
Fe506 O508 1.918 . S
Fe506 O511 1.997 . S
Fe506 O512 2.002 . S
Fe506 O517 1.976 . S
Fe506 O520 1.996 . S
Fe507 O508 1.918 . S
Fe507 O515 1.997 . S
Fe507 O518 1.996 . S
Fe507 O522 1.976 . S
Fe507 O525 2.002 . S
O508 Fe506 1.918 . S
O508 Fe507 1.918 . S
O508 Fe509 1.918 . S
Fe509 O508 1.918 . S
Fe509 O510 2.002 . S
Fe509 O519 1.976 . S
Fe509 O523 1.996 . S
Fe509 O526 1.997 . S
O510 Fe509 2.002 . S
O510 C527 1.295 1_545 S
O511 Fe506 1.997 . S
O511 C527 1.235 1_545 S
O512 Fe506 2.002 . S
O512 C513 1.295 . S
C513 O512 1.295 . S
C513 O515 1.235 . S
C514 O519 1.287 . S
C514 O520 1.255 . S
O515 Fe507 1.997 . S
O515 C513 1.235 . S
C516 O522 1.287 . S
C516 O523 1.255 . S
O517 Fe506 1.976 . S
O517 C524 1.287 . S
O518 Fe507 1.996 . S
O518 C524 1.255 . S
O519 Fe509 1.976 . S
O519 C514 1.287 . S
O520 Fe506 1.996 . S
O520 C514 1.255 . S
C521 O525 1.295 . S
C521 O526 1.235 . S
O522 Fe507 1.976 . S
O522 C516 1.287 . S
O523 Fe509 1.996 . S
O523 C516 1.255 . S
C524 O517 1.287 . S
C524 O518 1.255 . S
O525 Fe507 2.002 . S
O525 C521 1.295 . S
O526 Fe509 1.997 . S
O526 C521 1.235 . S
C527 O510 1.295 1_565 S
C527 O511 1.235 1_565 S
C528 C529 1.349 . S
C528 C530 1.327 . S
C528 H553 0.950 . S
C529 C528 1.349 . S
C529 C545 1.349 . S
C530 C528 1.327 . S
C530 C549 1.429 . S
C530 H554 0.950 . S
C531 C548 1.574 . S
C531 C550 1.368 . S
C531 H555 0.949 . S
H532 C536 0.949 . S
C533 C534 1.349 . S
C533 C535 1.327 . S
C533 H556 0.950 . S
C534 C533 1.349 . S
C534 C546 1.349 . S
C535 C533 1.327 . S
C535 C551 1.429 . S
C535 H557 0.950 . S
C536 H532 0.949 . S
C536 C544 1.574 . S
C536 C552 1.368 . S
H537 C545 0.950 . S
H538 C543 0.950 . S
H539 C544 0.949 . S
H540 C546 0.950 . S
H541 C547 0.950 . S
H542 C548 0.949 . S
C543 H538 0.950 . S
C543 C545 1.327 . S
C543 C549 1.429 . S
C544 C536 1.574 . S
C544 H539 0.949 . S
C544 C550 1.368 . S
C545 C529 1.349 . S
C545 H537 0.950 . S
C545 C543 1.327 . S
C546 C534 1.349 . S
C546 H540 0.950 . S
C546 C547 1.327 . S
C547 H541 0.950 . S
C547 C546 1.327 . S
C547 C551 1.429 . S
C548 C531 1.574 . S
C548 H542 0.949 . S
C548 C552 1.368 . S
C549 C530 1.429 . S
C549 C543 1.429 . S
C549 C550 1.523 . S
C550 C531 1.368 . S
C550 C544 1.368 . S
C550 C549 1.523 . S
C551 C535 1.429 . S
C551 C547 1.429 . S
C551 C552 1.523 . S
C552 C536 1.368 . S
C552 C548 1.368 . S
C552 C551 1.523 . S
H553 C528 0.950 . S
H554 C530 0.950 . S
H555 C531 0.949 . S
H556 C533 0.950 . S
H557 C535 0.950 . S
C558 C559 1.349 . S
C558 C560 1.327 . S
C558 H583 0.950 . S
C559 C558 1.349 . S
C559 C575 1.349 . S
C560 C558 1.327 . S
C560 C579 1.429 . S
C560 H584 0.950 . S
C561 C578 1.574 . S
C561 C580 1.368 . S
C561 H585 0.949 . S
H562 C566 0.949 . S
C563 C564 1.349 . S
C563 C565 1.327 . S
C563 H586 0.950 . S
C564 C563 1.349 . S
C564 C576 1.349 . S
C565 C563 1.327 . S
C565 C581 1.429 . S
C565 H587 0.950 . S
C566 H562 0.949 . S
C566 C574 1.574 . S
C566 C582 1.368 . S
H567 C575 0.950 . S
H568 C573 0.950 . S
H569 C574 0.949 . S
H570 C576 0.950 . S
H571 C577 0.950 . S
H572 C578 0.949 . S
C573 H568 0.950 . S
C573 C575 1.327 . S
C573 C579 1.429 . S
C574 C566 1.574 . S
C574 H569 0.949 . S
C574 C580 1.368 . S
C575 C559 1.349 . S
C575 H567 0.950 . S
C575 C573 1.327 . S
C576 C564 1.349 . S
C576 H570 0.950 . S
C576 C577 1.327 . S
C577 H571 0.950 . S
C577 C576 1.327 . S
C577 C581 1.429 . S
C578 C561 1.574 . S
C578 H572 0.949 . S
C578 C582 1.368 . S
C579 C560 1.429 . S
C579 C573 1.429 . S
C579 C580 1.523 . S
C580 C561 1.368 . S
C580 C574 1.368 . S
C580 C579 1.523 . S
C581 C565 1.429 . S
C581 C577 1.429 . S
C581 C582 1.523 . S
C582 C566 1.368 . S
C582 C578 1.368 . S
C582 C581 1.523 . S
H583 C558 0.950 . S
H584 C560 0.950 . S
H585 C561 0.949 . S
H586 C563 0.950 . S
H587 C565 0.950 . S
C588 C589 1.349 . S
C588 C590 1.327 . S
C588 H613 0.950 . S
C589 C588 1.349 . S
C589 C605 1.349 . S
C590 C588 1.327 . S
C590 C609 1.429 . S
C590 H614 0.950 . S
C591 C608 1.574 . S
C591 C610 1.368 . S
C591 H615 0.949 . S
H592 C596 0.949 . S
C593 C594 1.349 . S
C593 C595 1.327 . S
C593 H616 0.950 . S
C594 C593 1.349 . S
C594 C606 1.349 . S
C595 C593 1.327 . S
C595 C611 1.429 . S
C595 H617 0.950 . S
C596 H592 0.949 . S
C596 C604 1.574 . S
C596 C612 1.368 . S
H597 C605 0.950 . S
H598 C603 0.950 . S
H599 C604 0.949 . S
H600 C606 0.950 . S
H601 C607 0.950 . S
H602 C608 0.949 . S
C603 H598 0.950 . S
C603 C605 1.327 . S
C603 C609 1.429 . S
C604 C596 1.574 . S
C604 H599 0.949 . S
C604 C610 1.368 . S
C605 C589 1.349 . S
C605 H597 0.950 . S
C605 C603 1.327 . S
C606 C594 1.349 . S
C606 H600 0.950 . S
C606 C607 1.327 . S
C607 H601 0.950 . S
C607 C606 1.327 . S
C607 C611 1.429 . S
C608 C591 1.574 . S
C608 H602 0.949 . S
C608 C612 1.368 . S
C609 C590 1.429 . S
C609 C603 1.429 . S
C609 C610 1.523 . S
C610 C591 1.368 . S
C610 C604 1.368 . S
C610 C609 1.523 . S
C611 C595 1.429 . S
C611 C607 1.429 . S
C611 C612 1.523 . S
C612 C596 1.368 . S
C612 C608 1.368 . S
C612 C611 1.523 . S
H613 C588 0.950 . S
H614 C590 0.950 . S
H615 C591 0.949 . S
H616 C593 0.950 . S
H617 C595 0.950 . S
C618 C619 1.349 . S
C618 C620 1.327 . S
C618 H643 0.950 . S
C619 C618 1.349 . S
C619 C635 1.349 . S
C620 C618 1.327 . S
C620 C639 1.429 . S
C620 H644 0.950 . S
C621 C638 1.574 . S
C621 C640 1.368 . S
C621 H645 0.949 . S
H622 C626 0.949 . S
C623 C624 1.349 . S
C623 C625 1.327 . S
C623 H646 0.950 . S
C624 C623 1.349 . S
C624 C636 1.349 . S
C625 C623 1.327 . S
C625 C641 1.429 . S
C625 H647 0.950 . S
C626 H622 0.949 . S
C626 C634 1.574 . S
C626 C642 1.368 . S
H627 C635 0.950 . S
H628 C633 0.950 . S
H629 C634 0.949 . S
H630 C636 0.950 . S
H631 C637 0.950 . S
H632 C638 0.949 . S
C633 H628 0.950 . S
C633 C635 1.327 . S
C633 C639 1.429 . S
C634 C626 1.574 . S
C634 H629 0.949 . S
C634 C640 1.368 . S
C635 C619 1.349 . S
C635 H627 0.950 . S
C635 C633 1.327 . S
C636 C624 1.349 . S
C636 H630 0.950 . S
C636 C637 1.327 . S
C637 H631 0.950 . S
C637 C636 1.327 . S
C637 C641 1.429 . S
C638 C621 1.574 . S
C638 H632 0.949 . S
C638 C642 1.368 . S
C639 C620 1.429 . S
C639 C633 1.429 . S
C639 C640 1.523 . S
C640 C621 1.368 . S
C640 C634 1.368 . S
C640 C639 1.523 . S
C641 C625 1.429 . S
C641 C637 1.429 . S
C641 C642 1.523 . S
C642 C626 1.368 . S
C642 C638 1.368 . S
C642 C641 1.523 . S
H643 C618 0.950 . S
H644 C620 0.950 . S
H645 C621 0.949 . S
H646 C623 0.950 . S
H647 C625 0.950 . S
C648 C649 1.349 . S
C648 C650 1.327 . S
C648 H673 0.950 . S
C649 C648 1.349 . S
C649 C665 1.349 . S
C650 C648 1.327 . S
C650 C669 1.429 . S
C650 H674 0.950 . S
C651 C668 1.574 . S
C651 C670 1.368 . S
C651 H675 0.949 1_545 S
H652 C656 0.949 . S
C653 C654 1.349 . S
C653 C655 1.327 . S
C653 H676 0.950 . S
C654 C653 1.349 . S
C654 C666 1.349 . S
C655 C653 1.327 . S
C655 C671 1.429 . S
C655 H677 0.950 . S
C656 H652 0.949 . S
C656 C664 1.574 . S
C656 C672 1.368 . S
H657 C665 0.950 1_565 S
H658 C663 0.950 1_565 S
H659 C664 0.949 . S
H660 C666 0.950 . S
H661 C667 0.950 . S
H662 C668 0.949 . S
C663 H658 0.950 1_545 S
C663 C665 1.327 . S
C663 C669 1.429 . S
C664 C656 1.574 . S
C664 H659 0.949 . S
C664 C670 1.368 . S
C665 C649 1.349 . S
C665 H657 0.950 1_545 S
C665 C663 1.327 . S
C666 C654 1.349 . S
C666 H660 0.950 . S
C666 C667 1.327 . S
C667 H661 0.950 . S
C667 C666 1.327 . S
C667 C671 1.429 . S
C668 C651 1.574 . S
C668 H662 0.949 . S
C668 C672 1.368 . S
C669 C650 1.429 . S
C669 C663 1.429 . S
C669 C670 1.523 . S
C670 C651 1.368 . S
C670 C664 1.368 . S
C670 C669 1.523 . S
C671 C655 1.429 . S
C671 C667 1.429 . S
C671 C672 1.523 . S
C672 C656 1.368 . S
C672 C668 1.368 . S
C672 C671 1.523 . S
H673 C648 0.950 . S
H674 C650 0.950 . S
H675 C651 0.949 1_565 S
H676 C653 0.950 . S
H677 C655 0.950 . S
C678 C679 1.349 . S
C678 C680 1.327 . S
C678 H703 0.950 . S
C679 C678 1.349 . S
C679 C695 1.349 . S
C680 C678 1.327 . S
C680 C699 1.429 . S
C680 H704 0.950 . S
C681 C698 1.574 . S
C681 C700 1.368 . S
C681 H705 0.934 1_565 S
H682 C686 0.949 . S
C683 C684 1.349 . S
C683 C685 1.327 . S
C683 H706 0.950 . S
C684 C683 1.349 . S
C684 C696 1.349 . S
C685 C683 1.327 . S
C685 C701 1.429 . S
C685 H707 0.950 . S
C686 H682 0.949 . S
C686 C694 1.574 . S
C686 C702 1.368 . S
H687 C695 0.950 1_545 S
H688 C693 0.950 1_545 S
H689 C694 0.949 . S
H690 C696 0.950 . S
H691 C697 0.950 . S
H692 C698 0.949 . S
C693 H688 0.950 1_565 S
C693 C695 1.327 . S
C693 C699 1.429 . S
C694 C686 1.574 . S
C694 H689 0.949 . S
C694 C700 1.368 . S
C695 C679 1.349 . S
C695 H687 0.950 1_565 S
C695 C693 1.327 . S
C696 C684 1.349 . S
C696 H690 0.950 . S
C696 C697 1.327 . S
C697 H691 0.950 . S
C697 C696 1.327 . S
C697 C701 1.429 . S
C698 C681 1.574 . S
C698 H692 0.949 . S
C698 C702 1.368 . S
C699 C680 1.429 . S
C699 C693 1.429 . S
C699 C700 1.523 . S
C700 C681 1.368 . S
C700 C694 1.368 . S
C700 C699 1.523 . S
C701 C685 1.429 . S
C701 C697 1.429 . S
C701 C702 1.523 . S
C702 C686 1.368 . S
C702 C698 1.368 . S
C702 C701 1.523 . S
H703 C678 0.950 . S
H704 C680 0.950 . S
H705 C681 0.934 1_545 S
H706 C683 0.950 . S
H707 C685 0.950 . S
C708 C709 1.349 . S
C708 C710 1.327 . S
C708 H733 0.950 . S
C709 C708 1.349 . S
C709 C725 1.349 . S
C710 C708 1.327 . S
C710 C729 1.429 . S
C710 H734 0.950 . S
C711 C728 1.574 . S
C711 C730 1.368 . S
C711 H735 0.949 . S
H712 C716 0.949 . S
C713 C714 1.349 . S
C713 C715 1.327 . S
C713 H736 0.950 . S
C714 C713 1.349 . S
C714 C726 1.349 . S
C715 C713 1.327 . S
C715 C731 1.429 . S
C715 H737 0.950 . S
C716 H712 0.949 . S
C716 C724 1.574 . S
C716 C732 1.368 . S
H717 C725 0.950 . S
H718 C723 0.950 . S
H719 C724 0.949 . S
H720 C726 0.950 . S
H721 C727 0.950 . S
H722 C728 0.949 . S
C723 H718 0.950 . S
C723 C725 1.327 . S
C723 C729 1.429 . S
C724 C716 1.574 . S
C724 H719 0.949 . S
C724 C730 1.368 . S
C725 C709 1.349 . S
C725 H717 0.950 . S
C725 C723 1.327 . S
C726 C714 1.349 . S
C726 H720 0.950 . S
C726 C727 1.327 . S
C727 H721 0.950 . S
C727 C726 1.327 . S
C727 C731 1.429 . S
C728 C711 1.574 . S
C728 H722 0.949 . S
C728 C732 1.368 . S
C729 C710 1.429 . S
C729 C723 1.429 . S
C729 C730 1.523 . S
C730 C711 1.368 . S
C730 C724 1.368 . S
C730 C729 1.523 . S
C731 C715 1.429 . S
C731 C727 1.429 . S
C731 C732 1.523 . S
C732 C716 1.368 . S
C732 C728 1.368 . S
C732 C731 1.523 . S
H733 C708 0.950 . S
H734 C710 0.950 . S
H735 C711 0.949 . S
H736 C713 0.950 . S
H737 C715 0.950 . S
C738 C739 1.349 . S
C738 C740 1.327 . S
C738 H763 0.950 . S
C739 C738 1.349 . S
C739 C755 1.349 . S
C740 C738 1.327 . S
C740 C759 1.429 . S
C740 H764 0.950 . S
C741 C758 1.574 . S
C741 C760 1.368 . S
C741 H765 0.949 . S
H742 C746 0.949 . S
C743 C744 1.349 . S
C743 C745 1.327 . S
C743 H766 0.950 . S
C744 C743 1.349 . S
C744 C756 1.349 . S
C745 C743 1.327 . S
C745 C761 1.429 . S
C745 H767 0.950 . S
C746 H742 0.949 . S
C746 C754 1.574 . S
C746 C762 1.368 . S
H747 C755 0.950 . S
H748 C753 0.950 . S
H749 C754 0.949 . S
H750 C756 0.950 . S
H751 C757 0.950 . S
H752 C758 0.949 . S
C753 H748 0.950 . S
C753 C755 1.327 . S
C753 C759 1.429 . S
C754 C746 1.574 . S
C754 H749 0.949 . S
C754 C760 1.368 . S
C755 C739 1.349 . S
C755 H747 0.950 . S
C755 C753 1.327 . S
C756 C744 1.349 . S
C756 H750 0.950 . S
C756 C757 1.327 . S
C757 H751 0.950 . S
C757 C756 1.327 . S
C757 C761 1.429 . S
C758 C741 1.574 . S
C758 H752 0.949 . S
C758 C762 1.368 . S
C759 C740 1.429 . S
C759 C753 1.429 . S
C759 C760 1.523 . S
C760 C741 1.368 . S
C760 C754 1.368 . S
C760 C759 1.523 . S
C761 C745 1.429 . S
C761 C757 1.429 . S
C761 C762 1.523 . S
C762 C746 1.368 . S
C762 C758 1.368 . S
C762 C761 1.523 . S
H763 C738 0.950 . S
H764 C740 0.950 . S
H765 C741 0.949 . S
H766 C743 0.950 . S
H767 C745 0.950 . S
C768 C769 1.349 . S
C768 C770 1.327 . S
C768 H793 0.950 1_554 S
C769 C768 1.349 . S
C769 C785 1.349 . S
C770 C768 1.327 . S
C770 C789 1.429 . S
C770 H794 0.950 1_554 S
C771 C788 1.574 . S
C771 C790 1.368 . S
C771 H795 0.949 . S
H772 C776 0.949 1_556 S
C773 C774 1.349 . S
C773 C775 1.327 . S
C773 H796 0.950 . S
C774 C773 1.349 . S
C774 C786 1.349 . S
C775 C773 1.327 . S
C775 C791 1.429 . S
C775 H797 0.950 . S
C776 H772 0.949 1_554 S
C776 C784 1.574 . S
C776 C792 1.368 . S
H777 C785 0.950 . S
H778 C783 0.950 . S
H779 C784 0.949 1_556 S
H780 C786 0.950 . S
H781 C787 0.950 . S
H782 C788 0.949 . S
C783 H778 0.950 . S
C783 C785 1.327 . S
C783 C789 1.429 . S
C784 C776 1.574 . S
C784 H779 0.949 1_554 S
C784 C790 1.368 . S
C785 C769 1.349 . S
C785 H777 0.950 . S
C785 C783 1.327 . S
C786 C774 1.349 . S
C786 H780 0.950 . S
C786 C787 1.327 . S
C787 H781 0.950 . S
C787 C786 1.327 . S
C787 C791 1.429 . S
C788 C771 1.574 . S
C788 H782 0.949 . S
C788 C792 1.368 . S
C789 C770 1.429 . S
C789 C783 1.429 . S
C789 C790 1.523 . S
C790 C771 1.368 . S
C790 C784 1.368 . S
C790 C789 1.523 . S
C791 C775 1.429 . S
C791 C787 1.429 . S
C791 C792 1.523 . S
C792 C776 1.368 . S
C792 C788 1.368 . S
C792 C791 1.523 . S
H793 C768 0.950 1_556 S
H794 C770 0.950 1_556 S
H795 C771 0.949 . S
H796 C773 0.950 . S
H797 C775 0.950 . S
C798 C799 1.349 . S
C798 C800 1.327 . S
C798 H823 0.950 . S
C799 C798 1.349 . S
C799 C815 1.349 . S
C800 C798 1.327 . S
C800 C819 1.429 . S
C800 H824 0.950 . S
C801 C818 1.574 . S
C801 C820 1.368 . S
C801 H825 0.948 1_556 S
H802 C806 0.949 . S
C803 C804 1.349 . S
C803 C805 1.327 . S
C803 H826 0.950 1_556 S
C804 C803 1.349 . S
C804 C816 1.349 . S
C805 C803 1.327 . S
C805 C821 1.429 . S
C805 H827 0.950 1_556 S
C806 H802 0.949 . S
C806 C814 1.574 . S
C806 C822 1.368 . S
H807 C815 0.950 . S
H808 C813 0.950 . S
H809 C814 0.949 . S
H810 C816 0.950 . S
H811 C817 0.950 . S
H812 C818 0.949 1_554 S
C813 H808 0.950 . S
C813 C815 1.327 . S
C813 C819 1.429 . S
C814 C806 1.574 . S
C814 H809 0.949 . S
C814 C820 1.368 . S
C815 C799 1.349 . S
C815 H807 0.950 . S
C815 C813 1.327 . S
C816 C804 1.349 . S
C816 H810 0.950 . S
C816 C817 1.327 . S
C817 H811 0.950 . S
C817 C816 1.327 . S
C817 C821 1.429 . S
C818 C801 1.574 . S
C818 H812 0.949 1_556 S
C818 C822 1.368 . S
C819 C800 1.429 . S
C819 C813 1.429 . S
C819 C820 1.523 . S
C820 C801 1.368 . S
C820 C814 1.368 . S
C820 C819 1.523 . S
C821 C805 1.429 . S
C821 C817 1.429 . S
C821 C822 1.523 . S
C822 C806 1.368 . S
C822 C818 1.368 . S
C822 C821 1.523 . S
H823 C798 0.950 . S
H824 C800 0.950 . S
H825 C801 0.948 1_554 S
H826 C803 0.950 1_554 S
H827 C805 0.950 1_554 S
C828 C829 1.349 . S
C828 C830 1.327 . S
C828 H853 0.950 . S
C829 C828 1.349 . S
C829 C845 1.349 . S
C830 C828 1.327 . S
C830 C849 1.429 . S
C830 H854 0.950 . S
C831 C848 1.574 . S
C831 C850 1.368 . S
C831 H855 0.949 . S
H832 C836 0.949 . S
C833 C834 1.349 . S
C833 C835 1.327 . S
C833 H856 0.950 . S
C834 C833 1.349 . S
C834 C846 1.349 . S
C835 C833 1.327 . S
C835 C851 1.429 . S
C835 H857 0.950 . S
C836 H832 0.949 . S
C836 C844 1.574 . S
C836 C852 1.368 . S
H837 C845 0.950 . S
H838 C843 0.950 . S
H839 C844 0.949 . S
H840 C846 0.950 . S
H841 C847 0.950 . S
H842 C848 0.949 . S
C843 H838 0.950 . S
C843 C845 1.327 . S
C843 C849 1.429 . S
C844 C836 1.574 . S
C844 H839 0.949 . S
C844 C850 1.368 . S
C845 C829 1.349 . S
C845 H837 0.950 . S
C845 C843 1.327 . S
C846 C834 1.349 . S
C846 H840 0.950 . S
C846 C847 1.327 . S
C847 H841 0.950 . S
C847 C846 1.327 . S
C847 C851 1.429 . S
C848 C831 1.574 . S
C848 H842 0.949 . S
C848 C852 1.368 . S
C849 C830 1.429 . S
C849 C843 1.429 . S
C849 C850 1.523 . S
C850 C831 1.368 . S
C850 C844 1.368 . S
C850 C849 1.523 . S
C851 C835 1.429 . S
C851 C847 1.429 . S
C851 C852 1.523 . S
C852 C836 1.368 . S
C852 C848 1.368 . S
C852 C851 1.523 . S
H853 C828 0.950 . S
H854 C830 0.950 . S
H855 C831 0.949 . S
H856 C833 0.950 . S
H857 C835 0.950 . S
C858 C859 1.349 . S
C858 C860 1.327 . S
C858 H883 0.950 . S
C859 C858 1.349 . S
C859 C875 1.349 . S
C860 C858 1.327 . S
C860 C879 1.429 . S
C860 H884 0.950 . S
C861 C878 1.574 . S
C861 C880 1.368 . S
C861 H885 0.949 . S
H862 C866 0.949 . S
C863 C864 1.349 . S
C863 C865 1.327 . S
C863 H886 0.950 . S
C864 C863 1.349 . S
C864 C876 1.349 . S
C865 C863 1.327 . S
C865 C881 1.429 . S
C865 H887 0.950 . S
C866 H862 0.949 . S
C866 C874 1.574 . S
C866 C882 1.368 . S
H867 C875 0.950 . S
H868 C873 0.950 . S
H869 C874 0.949 . S
H870 C876 0.950 . S
H871 C877 0.950 . S
H872 C878 0.949 . S
C873 H868 0.950 . S
C873 C875 1.327 . S
C873 C879 1.429 . S
C874 C866 1.574 . S
C874 H869 0.949 . S
C874 C880 1.368 . S
C875 C859 1.349 . S
C875 H867 0.950 . S
C875 C873 1.327 . S
C876 C864 1.349 . S
C876 H870 0.950 . S
C876 C877 1.327 . S
C877 H871 0.950 . S
C877 C876 1.327 . S
C877 C881 1.429 . S
C878 C861 1.574 . S
C878 H872 0.949 . S
C878 C882 1.368 . S
C879 C860 1.429 . S
C879 C873 1.429 . S
C879 C880 1.523 . S
C880 C861 1.368 . S
C880 C874 1.368 . S
C880 C879 1.523 . S
C881 C865 1.429 . S
C881 C877 1.429 . S
C881 C882 1.523 . S
C882 C866 1.368 . S
C882 C878 1.368 . S
C882 C881 1.523 . S
H883 C858 0.950 . S
H884 C860 0.950 . S
H885 C861 0.949 . S
H886 C863 0.950 . S
H887 C865 0.950 . S
C888 C889 1.349 . S
C888 C890 1.327 . S
C888 H913 0.950 . S
C889 C888 1.349 . S
C889 C905 1.349 . S
C890 C888 1.327 . S
C890 C909 1.429 . S
C890 H914 0.950 . S
C891 C908 1.574 . S
C891 C910 1.368 . S
C891 H915 0.949 . S
H892 C896 0.949 . S
C893 C894 1.349 . S
C893 C895 1.327 . S
C893 H916 0.950 . S
C894 C893 1.349 . S
C894 C906 1.349 . S
C895 C893 1.327 . S
C895 C911 1.429 . S
C895 H917 0.950 . S
C896 H892 0.949 . S
C896 C904 1.574 . S
C896 C912 1.368 . S
H897 C905 0.950 . S
H898 C903 0.950 . S
H899 C904 0.949 . S
H900 C906 0.950 . S
H901 C907 0.950 . S
H902 C908 0.949 . S
C903 H898 0.950 . S
C903 C905 1.327 . S
C903 C909 1.429 . S
C904 C896 1.574 . S
C904 H899 0.949 . S
C904 C910 1.368 . S
C905 C889 1.349 . S
C905 H897 0.950 . S
C905 C903 1.327 . S
C906 C894 1.349 . S
C906 H900 0.950 . S
C906 C907 1.327 . S
C907 H901 0.950 . S
C907 C906 1.327 . S
C907 C911 1.429 . S
C908 C891 1.574 . S
C908 H902 0.949 . S
C908 C912 1.368 . S
C909 C890 1.429 . S
C909 C903 1.429 . S
C909 C910 1.523 . S
C910 C891 1.368 . S
C910 C904 1.368 . S
C910 C909 1.523 . S
C911 C895 1.429 . S
C911 C907 1.429 . S
C911 C912 1.523 . S
C912 C896 1.368 . S
C912 C908 1.368 . S
C912 C911 1.523 . S
H913 C888 0.950 . S
H914 C890 0.950 . S
H915 C891 0.949 . S
H916 C893 0.950 . S
H917 C895 0.950 . S
C918 C919 1.349 . S
C918 C920 1.327 . S
C918 H943 0.950 . S
C919 C918 1.349 . S
C919 C935 1.349 . S
C920 C918 1.327 . S
C920 C939 1.429 . S
C920 H944 0.950 . S
C921 C938 1.574 . S
C921 C940 1.368 . S
C921 H945 0.949 . S
H922 C926 0.949 . S
C923 C924 1.349 . S
C923 C925 1.327 . S
C923 H946 0.950 . S
C924 C923 1.349 . S
C924 C936 1.349 . S
C925 C923 1.327 . S
C925 C941 1.429 . S
C925 H947 0.950 . S
C926 H922 0.949 . S
C926 C934 1.574 . S
C926 C942 1.368 . S
H927 C935 0.950 . S
H928 C933 0.950 . S
H929 C934 0.949 . S
H930 C936 0.950 . S
H931 C937 0.950 . S
H932 C938 0.949 . S
C933 H928 0.950 . S
C933 C935 1.327 . S
C933 C939 1.429 . S
C934 C926 1.574 . S
C934 H929 0.949 . S
C934 C940 1.368 . S
C935 C919 1.349 . S
C935 H927 0.950 . S
C935 C933 1.327 . S
C936 C924 1.349 . S
C936 H930 0.950 . S
C936 C937 1.327 . S
C937 H931 0.950 . S
C937 C936 1.327 . S
C937 C941 1.429 . S
C938 C921 1.574 . S
C938 H932 0.949 . S
C938 C942 1.368 . S
C939 C920 1.429 . S
C939 C933 1.429 . S
C939 C940 1.523 . S
C940 C921 1.368 . S
C940 C934 1.368 . S
C940 C939 1.523 . S
C941 C925 1.429 . S
C941 C937 1.429 . S
C941 C942 1.523 . S
C942 C926 1.368 . S
C942 C938 1.368 . S
C942 C941 1.523 . S
H943 C918 0.950 . S
H944 C920 0.950 . S
H945 C921 0.949 . S
H946 C923 0.950 . S
H947 C925 0.950 . S
C948 C949 1.349 . S
C948 C950 1.327 . S
C948 H973 0.950 . S
C949 C948 1.349 . S
C949 C965 1.349 . S
C950 C948 1.327 . S
C950 C969 1.429 . S
C950 H974 0.950 . S
C951 C968 1.574 . S
C951 C970 1.368 . S
C951 H975 0.949 . S
H952 C956 0.949 . S
C953 C954 1.349 . S
C953 C955 1.327 . S
C953 H976 0.950 . S
C954 C953 1.349 . S
C954 C966 1.349 . S
C955 C953 1.327 . S
C955 C971 1.429 . S
C955 H977 0.950 . S
C956 H952 0.949 . S
C956 C964 1.574 . S
C956 C972 1.368 . S
H957 C965 0.950 . S
H958 C963 0.950 . S
H959 C964 0.949 . S
H960 C966 0.950 . S
H961 C967 0.950 . S
H962 C968 0.949 . S
C963 H958 0.950 . S
C963 C965 1.327 . S
C963 C969 1.429 . S
C964 C956 1.574 . S
C964 H959 0.949 . S
C964 C970 1.368 . S
C965 C949 1.349 . S
C965 H957 0.950 . S
C965 C963 1.327 . S
C966 C954 1.349 . S
C966 H960 0.950 . S
C966 C967 1.327 . S
C967 H961 0.950 . S
C967 C966 1.327 . S
C967 C971 1.429 . S
C968 C951 1.574 . S
C968 H962 0.949 . S
C968 C972 1.368 . S
C969 C950 1.429 . S
C969 C963 1.429 . S
C969 C970 1.523 . S
C970 C951 1.368 . S
C970 C964 1.368 . S
C970 C969 1.523 . S
C971 C955 1.429 . S
C971 C967 1.429 . S
C971 C972 1.523 . S
C972 C956 1.368 . S
C972 C968 1.368 . S
C972 C971 1.523 . S
H973 C948 0.950 . S
H974 C950 0.950 . S
H975 C951 0.949 . S
H976 C953 0.950 . S
H977 C955 0.950 . S
C978 C979 1.349 . S
C978 C980 1.327 . S
C978 H1003 0.950 . S
C979 C978 1.349 . S
C979 C995 1.349 . S
C980 C978 1.327 . S
C980 C999 1.429 . S
C980 H1004 0.950 . S
C981 C998 1.574 . S
C981 C1000 1.368 . S
C981 H1005 0.949 . S
H982 C986 0.949 . S
C983 C984 1.349 . S
C983 C985 1.327 . S
C983 H1006 0.950 . S
C984 C983 1.349 . S
C984 C996 1.349 . S
C985 C983 1.327 . S
C985 C1001 1.429 . S
C985 H1007 0.950 . S
C986 H982 0.949 . S
C986 C994 1.574 . S
C986 C1002 1.368 . S
H987 C995 0.950 . S
H988 C993 0.950 . S
H989 C994 0.949 . S
H990 C996 0.950 . S
H991 C997 0.950 . S
H992 C998 0.949 . S
C993 H988 0.950 . S
C993 C995 1.327 . S
C993 C999 1.429 . S
C994 C986 1.574 . S
C994 H989 0.949 . S
C994 C1000 1.368 . S
C995 C979 1.349 . S
C995 H987 0.950 . S
C995 C993 1.327 . S
C996 C984 1.349 . S
C996 H990 0.950 . S
C996 C997 1.327 . S
C997 H991 0.950 . S
C997 C996 1.327 . S
C997 C1001 1.429 . S
C998 C981 1.574 . S
C998 H992 0.949 . S
C998 C1002 1.368 . S
C999 C980 1.429 . S
C999 C993 1.429 . S
C999 C1000 1.523 . S
C1000 C981 1.368 . S
C1000 C994 1.368 . S
C1000 C999 1.523 . S
C1001 C985 1.429 . S
C1001 C997 1.429 . S
C1001 C1002 1.523 . S
C1002 C986 1.368 . S
C1002 C998 1.368 . S
C1002 C1001 1.523 . S
H1003 C978 0.950 . S
H1004 C980 0.950 . S
H1005 C981 0.949 . S
H1006 C983 0.950 . S
H1007 C985 0.950 . S
C1008 C1009 1.349 . S
C1008 C1010 1.327 . S
C1008 H1033 0.950 . S
C1009 C1008 1.349 . S
C1009 C1025 1.349 . S
C1010 C1008 1.327 . S
C1010 C1029 1.429 . S
C1010 H1034 0.950 . S
C1011 C1028 1.574 . S
C1011 C1030 1.368 . S
C1011 H1035 0.949 . S
H1012 C1016 0.949 . S
C1013 C1014 1.349 . S
C1013 C1015 1.327 . S
C1013 H1036 0.950 . S
C1014 C1013 1.349 . S
C1014 C1026 1.349 . S
C1015 C1013 1.327 . S
C1015 C1031 1.429 . S
C1015 H1037 0.950 . S
C1016 H1012 0.949 . S
C1016 C1024 1.574 . S
C1016 C1032 1.368 . S
H1017 C1025 0.950 1_545 S
H1018 C1023 0.948 . S
H1019 C1024 0.949 . S
H1020 C1026 0.950 . S
H1021 C1027 0.950 . S
H1022 C1028 0.949 . S
C1023 H1018 0.948 . S
C1023 C1025 1.327 . S
C1023 C1029 1.429 . S
C1024 C1016 1.574 . S
C1024 H1019 0.949 . S
C1024 C1030 1.368 . S
C1025 C1009 1.349 . S
C1025 H1017 0.950 1_565 S
C1025 C1023 1.327 . S
C1026 C1014 1.349 . S
C1026 H1020 0.950 . S
C1026 C1027 1.327 . S
C1027 H1021 0.950 . S
C1027 C1026 1.327 . S
C1027 C1031 1.429 . S
C1028 C1011 1.574 . S
C1028 H1022 0.949 . S
C1028 C1032 1.368 . S
C1029 C1010 1.429 . S
C1029 C1023 1.429 . S
C1029 C1030 1.523 . S
C1030 C1011 1.368 . S
C1030 C1024 1.368 . S
C1030 C1029 1.523 . S
C1031 C1015 1.429 . S
C1031 C1027 1.429 . S
C1031 C1032 1.523 . S
C1032 C1016 1.368 . S
C1032 C1028 1.368 . S
C1032 C1031 1.523 . S
H1033 C1008 0.950 . S
H1034 C1010 0.950 . S
H1035 C1011 0.949 . S
H1036 C1013 0.950 . S
H1037 C1015 0.950 . S
C1038 C1039 1.349 . S
C1038 C1040 1.327 . S
C1038 H1063 0.950 1_545 S
C1039 C1038 1.349 . S
C1039 C1055 1.349 . S
C1040 C1038 1.327 . S
C1040 C1059 1.429 . S
C1040 H1064 0.950 1_545 S
C1041 C1058 1.574 . S
C1041 C1060 1.368 . S
C1041 H1065 0.949 . S
H1042 C1046 0.949 . S
C1043 C1044 1.349 . S
C1043 C1045 1.327 . S
C1043 H1066 0.950 . S
C1044 C1043 1.349 . S
C1044 C1056 1.349 . S
C1045 C1043 1.327 . S
C1045 C1061 1.429 . S
C1045 H1067 0.950 . S
C1046 H1042 0.949 . S
C1046 C1054 1.574 . S
C1046 C1062 1.368 . S
H1047 C1055 0.950 . S
H1048 C1053 0.950 . S
H1049 C1054 0.949 1_565 S
H1050 C1056 0.950 . S
H1051 C1057 0.950 . S
H1052 C1058 0.949 . S
C1053 H1048 0.950 . S
C1053 C1055 1.327 . S
C1053 C1059 1.429 . S
C1054 C1046 1.574 . S
C1054 H1049 0.949 1_545 S
C1054 C1060 1.368 . S
C1055 C1039 1.349 . S
C1055 H1047 0.950 . S
C1055 C1053 1.327 . S
C1056 C1044 1.349 . S
C1056 H1050 0.950 . S
C1056 C1057 1.327 . S
C1057 H1051 0.950 . S
C1057 C1056 1.327 . S
C1057 C1061 1.429 . S
C1058 C1041 1.574 . S
C1058 H1052 0.949 . S
C1058 C1062 1.368 . S
C1059 C1040 1.429 . S
C1059 C1053 1.429 . S
C1059 C1060 1.523 . S
C1060 C1041 1.368 . S
C1060 C1054 1.368 . S
C1060 C1059 1.523 . S
C1061 C1045 1.429 . S
C1061 C1057 1.429 . S
C1061 C1062 1.523 . S
C1062 C1046 1.368 . S
C1062 C1058 1.368 . S
C1062 C1061 1.523 . S
H1063 C1038 0.950 1_565 S
H1064 C1040 0.950 1_565 S
H1065 C1041 0.949 . S
H1066 C1043 0.950 . S
H1067 C1045 0.950 . S
C1068 C1069 1.349 . S
C1068 C1070 1.327 . S
C1068 H1093 0.950 . S
C1069 C1068 1.349 . S
C1069 C1085 1.349 . S
C1070 C1068 1.327 . S
C1070 C1089 1.429 . S
C1070 H1094 0.950 . S
C1071 C1088 1.574 . S
C1071 C1090 1.368 . S
C1071 H1095 0.949 . S
H1072 C1076 0.949 . S
C1073 C1074 1.349 . S
C1073 C1075 1.327 . S
C1073 H1096 0.950 . S
C1074 C1073 1.349 . S
C1074 C1086 1.349 . S
C1075 C1073 1.327 . S
C1075 C1091 1.429 . S
C1075 H1097 0.950 . S
C1076 H1072 0.949 . S
C1076 C1084 1.574 . S
C1076 C1092 1.368 . S
H1077 C1085 0.950 . S
H1078 C1083 0.950 . S
H1079 C1084 0.949 . S
H1080 C1086 0.950 . S
H1081 C1087 0.950 . S
H1082 C1088 0.949 . S
C1083 H1078 0.950 . S
C1083 C1085 1.327 . S
C1083 C1089 1.429 . S
C1084 C1076 1.574 . S
C1084 H1079 0.949 . S
C1084 C1090 1.368 . S
C1085 C1069 1.349 . S
C1085 H1077 0.950 . S
C1085 C1083 1.327 . S
C1086 C1074 1.349 . S
C1086 H1080 0.950 . S
C1086 C1087 1.327 . S
C1087 H1081 0.950 . S
C1087 C1086 1.327 . S
C1087 C1091 1.429 . S
C1088 C1071 1.574 . S
C1088 H1082 0.949 . S
C1088 C1092 1.368 . S
C1089 C1070 1.429 . S
C1089 C1083 1.429 . S
C1089 C1090 1.523 . S
C1090 C1071 1.368 . S
C1090 C1084 1.368 . S
C1090 C1089 1.523 . S
C1091 C1075 1.429 . S
C1091 C1087 1.429 . S
C1091 C1092 1.523 . S
C1092 C1076 1.368 . S
C1092 C1088 1.368 . S
C1092 C1091 1.523 . S
H1093 C1068 0.950 . S
H1094 C1070 0.950 . S
H1095 C1071 0.949 . S
H1096 C1073 0.950 . S
H1097 C1075 0.950 . S
C1098 C1099 1.349 . S
C1098 C1100 1.327 . S
C1098 H1123 0.950 . S
C1099 C1098 1.349 . S
C1099 C1115 1.349 . S
C1100 C1098 1.327 . S
C1100 C1119 1.429 . S
C1100 H1124 0.950 . S
C1101 C1118 1.574 . S
C1101 C1120 1.368 . S
C1101 H1125 0.949 . S
H1102 C1106 0.949 . S
C1103 C1104 1.349 . S
C1103 C1105 1.327 . S
C1103 H1126 0.950 . S
C1104 C1103 1.349 . S
C1104 C1116 1.349 . S
C1105 C1103 1.327 . S
C1105 C1121 1.429 . S
C1105 H1127 0.950 . S
C1106 H1102 0.949 . S
C1106 C1114 1.574 . S
C1106 C1122 1.368 . S
H1107 C1115 0.950 . S
H1108 C1113 0.950 . S
H1109 C1114 0.949 . S
H1110 C1116 0.950 . S
H1111 C1117 0.950 . S
H1112 C1118 0.949 . S
C1113 H1108 0.950 . S
C1113 C1115 1.327 . S
C1113 C1119 1.429 . S
C1114 C1106 1.574 . S
C1114 H1109 0.949 . S
C1114 C1120 1.368 . S
C1115 C1099 1.349 . S
C1115 H1107 0.950 . S
C1115 C1113 1.327 . S
C1116 C1104 1.349 . S
C1116 H1110 0.950 . S
C1116 C1117 1.327 . S
C1117 H1111 0.950 . S
C1117 C1116 1.327 . S
C1117 C1121 1.429 . S
C1118 C1101 1.574 . S
C1118 H1112 0.949 . S
C1118 C1122 1.368 . S
C1119 C1100 1.429 . S
C1119 C1113 1.429 . S
C1119 C1120 1.523 . S
C1120 C1101 1.368 . S
C1120 C1114 1.368 . S
C1120 C1119 1.523 . S
C1121 C1105 1.429 . S
C1121 C1117 1.429 . S
C1121 C1122 1.523 . S
C1122 C1106 1.368 . S
C1122 C1118 1.368 . S
C1122 C1121 1.523 . S
H1123 C1098 0.950 . S
H1124 C1100 0.950 . S
H1125 C1101 0.949 . S
H1126 C1103 0.950 . S
H1127 C1105 0.950 . S
C1128 C1129 1.351 1_554 S
C1128 C1130 1.327 1_554 S
C1128 H1153 0.947 . S
C1129 C1128 1.351 1_556 S
C1129 C1145 1.349 . S
C1130 C1128 1.327 1_556 S
C1130 C1149 1.429 . S
C1130 H1154 0.950 1_556 S
C1131 C1148 1.574 . S
C1131 C1150 1.368 . S
C1131 H1155 0.949 . S
H1132 C1136 0.949 1_554 S
C1133 C1134 1.349 . S
C1133 C1135 1.327 . S
C1133 H1156 0.950 . S
C1134 C1133 1.349 . S
C1134 C1146 1.349 . S
C1135 C1133 1.327 . S
C1135 C1151 1.429 . S
C1135 H1157 0.950 . S
C1136 H1132 0.949 1_556 S
C1136 C1144 1.574 . S
C1136 C1152 1.368 . S
H1137 C1145 0.950 . S
H1138 C1143 0.950 . S
H1139 C1144 0.949 1_554 S
H1140 C1146 0.950 . S
H1141 C1147 0.950 1_554 S
H1142 C1148 0.949 . S
C1143 H1138 0.950 . S
C1143 C1145 1.327 . S
C1143 C1149 1.429 . S
C1144 C1136 1.574 . S
C1144 H1139 0.949 1_556 S
C1144 C1150 1.368 . S
C1145 C1129 1.349 . S
C1145 H1137 0.950 . S
C1145 C1143 1.327 . S
C1146 C1134 1.349 . S
C1146 H1140 0.950 . S
C1146 C1147 1.327 . S
C1147 H1141 0.950 1_556 S
C1147 C1146 1.327 . S
C1147 C1151 1.429 . S
C1148 C1131 1.574 . S
C1148 H1142 0.949 . S
C1148 C1152 1.368 . S
C1149 C1130 1.429 . S
C1149 C1143 1.429 . S
C1149 C1150 1.523 . S
C1150 C1131 1.368 . S
C1150 C1144 1.368 . S
C1150 C1149 1.523 . S
C1151 C1135 1.429 . S
C1151 C1147 1.429 . S
C1151 C1152 1.523 . S
C1152 C1136 1.368 . S
C1152 C1148 1.368 . S
C1152 C1151 1.523 . S
H1153 C1128 0.947 . S
H1154 C1130 0.950 1_554 S
H1155 C1131 0.949 . S
H1156 C1133 0.950 . S
H1157 C1135 0.950 . S
C1158 C1159 1.349 . S
C1158 C1160 1.327 . S
C1158 H1183 0.950 . S
C1159 C1158 1.349 . S
C1159 C1175 1.349 . S
C1160 C1158 1.327 . S
C1160 C1179 1.429 . S
C1160 H1184 0.950 . S
C1161 C1178 1.574 . S
C1161 C1180 1.368 . S
C1161 H1185 0.949 1_554 S
H1162 C1166 0.949 . S
C1163 C1164 1.349 . S
C1163 C1165 1.327 . S
C1163 H1186 0.950 1_554 S
C1164 C1163 1.349 . S
C1164 C1176 1.349 . S
C1165 C1163 1.327 . S
C1165 C1181 1.429 . S
C1165 H1187 0.950 1_554 S
C1166 H1162 0.949 . S
C1166 C1174 1.574 . S
C1166 C1182 1.368 . S
H1167 C1175 0.950 . S
H1168 C1173 0.985 . S
H1169 C1174 0.949 . S
H1170 C1176 0.950 . S
H1171 C1177 0.950 . S
H1172 C1178 0.949 1_556 S
C1173 H1168 0.985 . S
C1173 C1175 1.327 . S
C1173 C1179 1.429 . S
C1174 C1166 1.574 . S
C1174 H1169 0.949 . S
C1174 C1180 1.368 . S
C1175 C1159 1.349 . S
C1175 H1167 0.950 . S
C1175 C1173 1.327 . S
C1176 C1164 1.349 . S
C1176 H1170 0.950 . S
C1176 C1177 1.327 . S
C1177 H1171 0.950 . S
C1177 C1176 1.327 . S
C1177 C1181 1.429 . S
C1178 C1161 1.574 . S
C1178 H1172 0.949 1_554 S
C1178 C1182 1.368 . S
C1179 C1160 1.429 . S
C1179 C1173 1.429 . S
C1179 C1180 1.523 . S
C1180 C1161 1.368 . S
C1180 C1174 1.368 . S
C1180 C1179 1.523 . S
C1181 C1165 1.429 . S
C1181 C1177 1.429 . S
C1181 C1182 1.523 . S
C1182 C1166 1.368 . S
C1182 C1178 1.368 . S
C1182 C1181 1.523 . S
H1183 C1158 0.950 . S
H1184 C1160 0.950 . S
H1185 C1161 0.949 1_556 S
H1186 C1163 0.950 1_556 S
H1187 C1165 0.950 1_556 S
C1188 C1189 1.349 . S
C1188 C1190 1.327 . S
C1188 H1213 0.950 . S
C1189 C1188 1.349 . S
C1189 C1205 1.349 . S
C1190 C1188 1.327 . S
C1190 C1209 1.429 . S
C1190 H1214 0.950 . S
C1191 C1208 1.574 . S
C1191 C1210 1.368 . S
C1191 H1215 0.949 . S
H1192 C1196 0.949 . S
C1193 C1194 1.349 . S
C1193 C1195 1.327 . S
C1193 H1216 0.950 . S
C1194 C1193 1.349 . S
C1194 C1206 1.349 . S
C1195 C1193 1.327 . S
C1195 C1211 1.429 . S
C1195 H1217 0.950 . S
C1196 H1192 0.949 . S
C1196 C1204 1.574 . S
C1196 C1212 1.368 . S
H1197 C1205 0.950 . S
H1198 C1203 0.950 . S
H1199 C1204 0.949 . S
H1200 C1206 0.950 . S
H1201 C1207 0.950 . S
H1202 C1208 0.949 . S
C1203 H1198 0.950 . S
C1203 C1205 1.327 . S
C1203 C1209 1.429 . S
C1204 C1196 1.574 . S
C1204 H1199 0.949 . S
C1204 C1210 1.368 . S
C1205 C1189 1.349 . S
C1205 H1197 0.950 . S
C1205 C1203 1.327 . S
C1206 C1194 1.349 . S
C1206 H1200 0.950 . S
C1206 C1207 1.327 . S
C1207 H1201 0.950 . S
C1207 C1206 1.327 . S
C1207 C1211 1.429 . S
C1208 C1191 1.574 . S
C1208 H1202 0.949 . S
C1208 C1212 1.368 . S
C1209 C1190 1.429 . S
C1209 C1203 1.429 . S
C1209 C1210 1.523 . S
C1210 C1191 1.368 . S
C1210 C1204 1.368 . S
C1210 C1209 1.523 . S
C1211 C1195 1.429 . S
C1211 C1207 1.429 . S
C1211 C1212 1.523 . S
C1212 C1196 1.368 . S
C1212 C1208 1.368 . S
C1212 C1211 1.523 . S
H1213 C1188 0.950 . S
H1214 C1190 0.950 . S
H1215 C1191 0.949 . S
H1216 C1193 0.950 . S
H1217 C1195 0.950 . S
C1218 C1219 1.349 . S
C1218 C1220 1.327 . S
C1218 H1243 0.950 . S
C1219 C1218 1.349 . S
C1219 C1235 1.349 . S
C1220 C1218 1.327 . S
C1220 C1239 1.429 . S
C1220 H1244 0.950 . S
C1221 C1238 1.574 . S
C1221 C1240 1.368 . S
C1221 H1245 0.949 . S
H1222 C1226 0.949 . S
C1223 C1224 1.349 . S
C1223 C1225 1.327 . S
C1223 H1246 0.950 . S
C1224 C1223 1.349 . S
C1224 C1236 1.349 . S
C1225 C1223 1.327 . S
C1225 C1241 1.429 . S
C1225 H1247 0.950 . S
C1226 H1222 0.949 . S
C1226 C1234 1.574 . S
C1226 C1242 1.368 . S
H1227 C1235 0.950 . S
H1228 C1233 0.950 . S
H1229 C1234 0.949 . S
H1230 C1236 0.950 . S
H1231 C1237 0.950 . S
H1232 C1238 0.949 . S
C1233 H1228 0.950 . S
C1233 C1235 1.327 . S
C1233 C1239 1.429 . S
C1234 C1226 1.574 . S
C1234 H1229 0.949 . S
C1234 C1240 1.368 . S
C1235 C1219 1.349 . S
C1235 H1227 0.950 . S
C1235 C1233 1.327 . S
C1236 C1224 1.349 . S
C1236 H1230 0.950 . S
C1236 C1237 1.327 . S
C1237 H1231 0.950 . S
C1237 C1236 1.327 . S
C1237 C1241 1.429 . S
C1238 C1221 1.574 . S
C1238 H1232 0.949 . S
C1238 C1242 1.368 . S
C1239 C1220 1.429 . S
C1239 C1233 1.429 . S
C1239 C1240 1.523 . S
C1240 C1221 1.368 . S
C1240 C1234 1.368 . S
C1240 C1239 1.523 . S
C1241 C1225 1.429 . S
C1241 C1237 1.429 . S
C1241 C1242 1.523 . S
C1242 C1226 1.368 . S
C1242 C1238 1.368 . S
C1242 C1241 1.523 . S
H1243 C1218 0.950 . S
H1244 C1220 0.950 . S
H1245 C1221 0.949 . S
H1246 C1223 0.950 . S
H1247 C1225 0.950 . S
C1248 C1249 1.349 . S
C1248 C1250 1.328 1_556 S
C1248 H1273 0.951 . S
C1249 C1248 1.349 . S
C1249 C1265 1.349 . S
C1250 C1248 1.328 1_554 S
C1250 C1269 1.430 1_554 S
C1250 H1274 0.947 . S
C1251 C1268 1.574 . S
C1251 C1270 1.368 . S
C1251 H1275 0.949 . S
H1252 C1256 0.949 . S
C1253 C1254 1.349 . S
C1253 C1255 1.327 . S
C1253 H1276 0.950 . S
C1254 C1253 1.349 . S
C1254 C1266 1.349 . S
C1255 C1253 1.327 . S
C1255 C1271 1.429 . S
C1255 H1277 0.950 1_554 S
C1256 H1252 0.949 . S
C1256 C1264 1.574 . S
C1256 C1272 1.368 . S
H1257 C1265 0.950 . S
H1258 C1263 0.950 . S
H1259 C1264 0.949 . S
H1260 C1266 0.950 . S
H1261 C1267 0.950 . S
H1262 C1268 0.949 . S
C1263 H1258 0.950 . S
C1263 C1265 1.327 . S
C1263 C1269 1.429 . S
C1264 C1256 1.574 . S
C1264 H1259 0.949 . S
C1264 C1270 1.368 1_554 S
C1265 C1249 1.349 . S
C1265 H1257 0.950 . S
C1265 C1263 1.327 . S
C1266 C1254 1.349 . S
C1266 H1260 0.950 . S
C1266 C1267 1.327 . S
C1267 H1261 0.950 . S
C1267 C1266 1.327 . S
C1267 C1271 1.429 . S
C1268 C1251 1.574 . S
C1268 H1262 0.949 . S
C1268 C1272 1.368 1_556 S
C1269 C1250 1.430 1_556 S
C1269 C1263 1.429 . S
C1269 C1270 1.523 . S
C1270 C1251 1.368 . S
C1270 C1264 1.368 1_556 S
C1270 C1269 1.523 . S
C1271 C1255 1.429 . S
C1271 C1267 1.429 . S
C1271 C1272 1.523 . S
C1272 C1256 1.368 . S
C1272 C1268 1.368 1_554 S
C1272 C1271 1.523 . S
H1273 C1248 0.951 . S
H1274 C1250 0.947 . S
H1275 C1251 0.949 . S
H1276 C1253 0.950 . S
H1277 C1255 0.950 1_556 S
C1278 C1279 1.349 . S
C1278 C1280 1.327 . S
C1278 H1303 0.950 . S
C1279 C1278 1.349 . S
C1279 C1295 1.349 . S
C1280 C1278 1.327 . S
C1280 C1299 1.429 . S
C1280 H1304 0.950 . S
C1281 C1298 1.574 . S
C1281 C1300 1.368 . S
C1281 H1305 0.949 . S
H1282 C1286 0.949 . S
C1283 C1284 1.349 . S
C1283 C1285 1.327 . S
C1283 H1306 0.950 . S
C1284 C1283 1.349 . S
C1284 C1296 1.349 . S
C1285 C1283 1.327 . S
C1285 C1301 1.429 . S
C1285 H1307 0.950 . S
C1286 H1282 0.949 . S
C1286 C1294 1.574 . S
C1286 C1302 1.368 . S
H1287 C1295 0.950 . S
H1288 C1293 0.950 . S
H1289 C1294 0.949 . S
H1290 C1296 0.950 . S
H1291 C1297 0.950 . S
H1292 C1298 0.949 . S
C1293 H1288 0.950 . S
C1293 C1295 1.327 . S
C1293 C1299 1.429 . S
C1294 C1286 1.574 . S
C1294 H1289 0.949 . S
C1294 C1300 1.368 . S
C1295 C1279 1.349 . S
C1295 H1287 0.950 . S
C1295 C1293 1.327 . S
C1296 C1284 1.349 . S
C1296 H1290 0.950 . S
C1296 C1297 1.327 . S
C1297 H1291 0.950 . S
C1297 C1296 1.327 . S
C1297 C1301 1.429 . S
C1298 C1281 1.574 . S
C1298 H1292 0.949 . S
C1298 C1302 1.368 . S
C1299 C1280 1.429 . S
C1299 C1293 1.429 . S
C1299 C1300 1.523 . S
C1300 C1281 1.368 . S
C1300 C1294 1.368 . S
C1300 C1299 1.523 . S
C1301 C1285 1.429 . S
C1301 C1297 1.429 . S
C1301 C1302 1.523 . S
C1302 C1286 1.368 . S
C1302 C1298 1.368 . S
C1302 C1301 1.523 . S
H1303 C1278 0.950 . S
H1304 C1280 0.950 . S
H1305 C1281 0.949 . S
H1306 C1283 0.950 . S
H1307 C1285 0.950 . S
C1308 C1309 1.349 . S
C1308 C1310 1.327 . S
C1308 H1333 0.950 . S
C1309 C1308 1.349 . S
C1309 C1325 1.349 . S
C1310 C1308 1.327 . S
C1310 C1329 1.429 . S
C1310 H1334 0.950 . S
C1311 C1328 1.574 . S
C1311 C1330 1.368 1_556 S
C1311 H1335 0.949 . S
H1312 C1316 0.949 . S
C1313 C1314 1.349 . S
C1313 C1315 1.327 . S
C1313 H1336 0.950 . S
C1314 C1313 1.349 . S
C1314 C1326 1.349 . S
C1315 C1313 1.327 . S
C1315 C1331 1.429 . S
C1315 H1337 0.950 . S
C1316 H1312 0.949 . S
C1316 C1324 1.574 . S
C1316 C1332 1.368 1_554 S
H1317 C1325 0.950 . S
H1318 C1323 0.950 1_556 S
H1319 C1324 0.949 . S
H1320 C1326 0.950 . S
H1321 C1327 0.950 . S
H1322 C1328 0.949 . S
C1323 H1318 0.950 1_554 S
C1323 C1325 1.327 . S
C1323 C1329 1.429 . S
C1324 C1316 1.574 . S
C1324 H1319 0.949 . S
C1324 C1330 1.368 . S
C1325 C1309 1.349 . S
C1325 H1317 0.950 . S
C1325 C1323 1.327 . S
C1326 C1314 1.349 . S
C1326 H1320 0.950 . S
C1326 C1327 1.327 . S
C1327 H1321 0.950 . S
C1327 C1326 1.327 . S
C1327 C1331 1.429 . S
C1328 C1311 1.574 . S
C1328 H1322 0.949 . S
C1328 C1332 1.368 . S
C1329 C1310 1.429 . S
C1329 C1323 1.429 . S
C1329 C1330 1.523 . S
C1330 C1311 1.368 1_554 S
C1330 C1324 1.368 . S
C1330 C1329 1.523 . S
C1331 C1315 1.429 . S
C1331 C1327 1.429 . S
C1331 C1332 1.523 . S
C1332 C1316 1.368 1_556 S
C1332 C1328 1.368 . S
C1332 C1331 1.523 . S
H1333 C1308 0.950 . S
H1334 C1310 0.950 . S
H1335 C1311 0.949 . S
H1336 C1313 0.950 . S
H1337 C1315 0.950 . S
C1338 C1339 1.349 . S
C1338 C1340 1.327 . S
C1338 H1363 0.950 . S
C1339 C1338 1.349 . S
C1339 C1355 1.349 . S
C1340 C1338 1.327 . S
C1340 C1359 1.429 . S
C1340 H1364 0.950 . S
C1341 C1358 1.574 . S
C1341 C1360 1.368 . S
C1341 H1365 0.949 . S
H1342 C1346 0.949 . S
C1343 C1344 1.349 . S
C1343 C1345 1.327 . S
C1343 H1366 0.950 . S
C1344 C1343 1.349 . S
C1344 C1356 1.349 . S
C1345 C1343 1.327 . S
C1345 C1361 1.429 . S
C1345 H1367 0.950 . S
C1346 H1342 0.949 . S
C1346 C1354 1.574 . S
C1346 C1362 1.368 . S
H1347 C1355 0.950 . S
H1348 C1353 0.950 . S
H1349 C1354 0.949 . S
H1350 C1356 0.950 . S
H1351 C1357 0.950 . S
H1352 C1358 0.949 . S
C1353 H1348 0.950 . S
C1353 C1355 1.327 . S
C1353 C1359 1.429 . S
C1354 C1346 1.574 . S
C1354 H1349 0.949 . S
C1354 C1360 1.368 . S
C1355 C1339 1.349 . S
C1355 H1347 0.950 . S
C1355 C1353 1.327 . S
C1356 C1344 1.349 . S
C1356 H1350 0.950 . S
C1356 C1357 1.327 . S
C1357 H1351 0.950 . S
C1357 C1356 1.327 . S
C1357 C1361 1.429 . S
C1358 C1341 1.574 . S
C1358 H1352 0.949 . S
C1358 C1362 1.368 . S
C1359 C1340 1.429 . S
C1359 C1353 1.429 . S
C1359 C1360 1.523 . S
C1360 C1341 1.368 . S
C1360 C1354 1.368 . S
C1360 C1359 1.523 . S
C1361 C1345 1.429 . S
C1361 C1357 1.429 . S
C1361 C1362 1.523 . S
C1362 C1346 1.368 . S
C1362 C1358 1.368 . S
C1362 C1361 1.523 . S
H1363 C1338 0.950 . S
H1364 C1340 0.950 . S
H1365 C1341 0.949 . S
H1366 C1343 0.950 . S
H1367 C1345 0.950 . S
C1368 C1369 1.349 . S
C1368 C1370 1.327 . S
C1368 H1393 0.950 . S
C1369 C1368 1.349 . S
C1369 C1385 1.349 . S
C1370 C1368 1.327 . S
C1370 C1389 1.429 . S
C1370 H1394 0.950 . S
C1371 C1388 1.574 . S
C1371 C1390 1.368 1_655 S
C1371 H1395 0.949 . S
H1372 C1376 0.949 . S
C1373 C1374 1.349 . S
C1373 C1375 1.327 . S
C1373 H1396 0.950 . S
C1374 C1373 1.349 . S
C1374 C1386 1.349 . S
C1375 C1373 1.327 . S
C1375 C1391 1.429 . S
C1375 H1397 0.950 . S
C1376 H1372 0.949 . S
C1376 C1384 1.574 . S
C1376 C1392 1.368 1_455 S
H1377 C1385 0.978 . S
H1378 C1383 0.950 1_655 S
H1379 C1384 0.949 . S
H1380 C1386 0.950 1_455 S
H1381 C1387 0.950 . S
H1382 C1388 0.949 . S
C1383 H1378 0.950 1_455 S
C1383 C1385 1.327 . S
C1383 C1389 1.429 . S
C1384 C1376 1.574 . S
C1384 H1379 0.949 . S
C1384 C1390 1.368 . S
C1385 C1369 1.349 . S
C1385 H1377 0.978 . S
C1385 C1383 1.327 . S
C1386 C1374 1.349 . S
C1386 H1380 0.950 1_655 S
C1386 C1387 1.327 1_655 S
C1387 H1381 0.950 . S
C1387 C1386 1.327 1_455 S
C1387 C1391 1.429 1_455 S
C1388 C1371 1.574 . S
C1388 H1382 0.949 . S
C1388 C1392 1.368 . S
C1389 C1370 1.429 . S
C1389 C1383 1.429 . S
C1389 C1390 1.523 . S
C1390 C1371 1.368 1_455 S
C1390 C1384 1.368 . S
C1390 C1389 1.523 . S
C1391 C1375 1.429 . S
C1391 C1387 1.429 1_655 S
C1391 C1392 1.523 . S
C1392 C1376 1.368 1_655 S
C1392 C1388 1.368 . S
C1392 C1391 1.523 . S
H1393 C1368 0.950 . S
H1394 C1370 0.950 . S
H1395 C1371 0.949 . S
H1396 C1373 0.950 . S
H1397 C1375 0.950 . S
C1398 C1399 1.349 . S
C1398 C1400 1.327 . S
C1398 H1423 0.950 . S
C1399 C1398 1.349 . S
C1399 C1415 1.349 . S
C1400 C1398 1.327 . S
C1400 C1419 1.429 . S
C1400 H1424 0.950 . S
C1401 C1418 1.574 . S
C1401 C1420 1.368 . S
C1401 H1425 0.949 . S
H1402 C1406 0.949 . S
C1403 C1404 1.349 . S
C1403 C1405 1.327 . S
C1403 H1426 0.950 . S
C1404 C1403 1.349 . S
C1404 C1416 1.349 . S
C1405 C1403 1.327 . S
C1405 C1421 1.429 . S
C1405 H1427 0.950 . S
C1406 H1402 0.949 . S
C1406 C1414 1.574 . S
C1406 C1422 1.368 . S
H1407 C1415 0.950 . S
H1408 C1413 0.950 . S
H1409 C1414 0.949 . S
H1410 C1416 0.950 . S
H1411 C1417 0.950 . S
H1412 C1418 0.949 . S
C1413 H1408 0.950 . S
C1413 C1415 1.327 . S
C1413 C1419 1.429 . S
C1414 C1406 1.574 . S
C1414 H1409 0.949 . S
C1414 C1420 1.368 . S
C1415 C1399 1.349 . S
C1415 H1407 0.950 . S
C1415 C1413 1.327 . S
C1416 C1404 1.349 . S
C1416 H1410 0.950 . S
C1416 C1417 1.327 . S
C1417 H1411 0.950 . S
C1417 C1416 1.327 . S
C1417 C1421 1.429 . S
C1418 C1401 1.574 . S
C1418 H1412 0.949 . S
C1418 C1422 1.368 . S
C1419 C1400 1.429 . S
C1419 C1413 1.429 . S
C1419 C1420 1.523 . S
C1420 C1401 1.368 . S
C1420 C1414 1.368 . S
C1420 C1419 1.523 . S
C1421 C1405 1.429 . S
C1421 C1417 1.429 . S
C1421 C1422 1.523 . S
C1422 C1406 1.368 . S
C1422 C1418 1.368 . S
C1422 C1421 1.523 . S
H1423 C1398 0.950 . S
H1424 C1400 0.950 . S
H1425 C1401 0.949 . S
H1426 C1403 0.950 . S
H1427 C1405 0.950 . S
C1428 C1429 1.349 . S
C1428 C1430 1.327 . S
C1428 H1453 0.950 . S
C1429 C1428 1.349 . S
C1429 C1445 1.349 . S
C1430 C1428 1.327 . S
C1430 C1449 1.429 . S
C1430 H1454 0.950 . S
C1431 C1448 1.574 . S
C1431 C1450 1.368 . S
C1431 H1455 0.949 . S
H1432 C1436 0.949 . S
C1433 C1434 1.349 . S
C1433 C1435 1.327 . S
C1433 H1456 0.950 . S
C1434 C1433 1.349 . S
C1434 C1446 1.349 . S
C1435 C1433 1.327 . S
C1435 C1451 1.429 . S
C1435 H1457 0.950 . S
C1436 H1432 0.949 . S
C1436 C1444 1.574 . S
C1436 C1452 1.368 . S
H1437 C1445 0.950 . S
H1438 C1443 0.950 . S
H1439 C1444 0.949 . S
H1440 C1446 0.950 . S
H1441 C1447 0.950 . S
H1442 C1448 0.949 . S
C1443 H1438 0.950 . S
C1443 C1445 1.327 . S
C1443 C1449 1.429 . S
C1444 C1436 1.574 . S
C1444 H1439 0.949 . S
C1444 C1450 1.368 . S
C1445 C1429 1.349 . S
C1445 H1437 0.950 . S
C1445 C1443 1.327 . S
C1446 C1434 1.349 . S
C1446 H1440 0.950 . S
C1446 C1447 1.327 . S
C1447 H1441 0.950 . S
C1447 C1446 1.327 . S
C1447 C1451 1.429 . S
C1448 C1431 1.574 . S
C1448 H1442 0.949 . S
C1448 C1452 1.368 . S
C1449 C1430 1.429 . S
C1449 C1443 1.429 . S
C1449 C1450 1.523 . S
C1450 C1431 1.368 . S
C1450 C1444 1.368 . S
C1450 C1449 1.523 . S
C1451 C1435 1.429 . S
C1451 C1447 1.429 . S
C1451 C1452 1.523 . S
C1452 C1436 1.368 . S
C1452 C1448 1.368 . S
C1452 C1451 1.523 . S
H1453 C1428 0.950 . S
H1454 C1430 0.950 . S
H1455 C1431 0.949 . S
H1456 C1433 0.950 . S
H1457 C1435 0.950 . S
C1458 C1459 1.349 . S
C1458 C1460 1.327 . S
C1458 H1483 0.950 . S
C1459 C1458 1.349 . S
C1459 C1475 1.382 . S
C1460 C1458 1.327 . S
C1460 C1479 1.429 . S
C1460 H1484 0.950 . S
C1461 C1478 1.574 . S
C1461 C1480 1.368 1_655 S
C1461 H1485 0.949 . S
H1462 C1466 0.949 . S
C1463 C1464 1.349 . S
C1463 C1465 1.327 . S
C1463 H1486 0.950 . S
C1464 C1463 1.349 . S
C1464 C1476 1.349 . S
C1465 C1463 1.327 . S
C1465 C1481 1.429 . S
C1465 H1487 0.950 . S
C1466 H1462 0.949 . S
C1466 C1474 1.574 . S
C1466 C1482 1.368 1_455 S
H1467 C1475 0.927 1_655 S
H1468 C1473 0.950 . S
H1469 C1474 0.949 . S
H1470 C1476 0.950 1_455 S
H1471 C1477 0.950 1_455 S
H1472 C1478 0.949 . S
C1473 H1468 0.950 . S
C1473 C1475 1.317 1_655 S
C1473 C1479 1.429 1_655 S
C1474 C1466 1.574 . S
C1474 H1469 0.949 . S
C1474 C1480 1.368 . S
C1475 C1459 1.382 . S
C1475 H1467 0.927 1_455 S
C1475 C1473 1.317 1_455 S
C1476 C1464 1.349 . S
C1476 H1470 0.950 1_655 S
C1476 C1477 1.327 . S
C1477 H1471 0.950 1_655 S
C1477 C1476 1.327 . S
C1477 C1481 1.429 . S
C1478 C1461 1.574 . S
C1478 H1472 0.949 . S
C1478 C1482 1.368 . S
C1479 C1460 1.429 . S
C1479 C1473 1.429 1_455 S
C1479 C1480 1.523 . S
C1480 C1461 1.368 1_455 S
C1480 C1474 1.368 . S
C1480 C1479 1.523 . S
C1481 C1465 1.429 . S
C1481 C1477 1.429 . S
C1481 C1482 1.523 . S
C1482 C1466 1.368 1_655 S
C1482 C1478 1.368 . S
C1482 C1481 1.523 . S
H1483 C1458 0.950 . S
H1484 C1460 0.950 . S
H1485 C1461 0.949 . S
H1486 C1463 0.950 . S
H1487 C1465 0.950 . S
C1488 C1489 1.349 . S
C1488 C1490 1.327 1_565 S
C1488 H1513 0.950 1_565 S
C1489 C1488 1.349 . S
C1489 C1505 1.349 . S
C1490 C1488 1.327 1_545 S
C1490 C1509 1.429 1_545 S
C1490 H1514 0.950 . S
C1491 C1508 1.574 . S
C1491 C1510 1.368 . S
C1491 H1515 0.949 . S
H1492 C1496 0.949 . S
C1493 C1494 1.349 . S
C1493 C1495 1.327 . S
C1493 H1516 0.950 . S
C1494 C1493 1.349 . S
C1494 C1506 1.349 . S
C1495 C1493 1.327 . S
C1495 C1511 1.429 . S
C1495 H1517 0.950 1_545 S
C1496 H1492 0.949 . S
C1496 C1504 1.574 . S
C1496 C1512 1.368 . S
H1497 C1505 0.950 . S
H1498 C1503 0.950 . S
H1499 C1504 0.949 . S
H1500 C1506 0.950 . S
H1501 C1507 0.950 . S
H1502 C1508 0.949 . S
C1503 H1498 0.950 . S
C1503 C1505 1.327 . S
C1503 C1509 1.429 . S
C1504 C1496 1.574 . S
C1504 H1499 0.949 . S
C1504 C1510 1.368 1_545 S
C1505 C1489 1.349 . S
C1505 H1497 0.950 . S
C1505 C1503 1.327 . S
C1506 C1494 1.349 . S
C1506 H1500 0.950 . S
C1506 C1507 1.327 . S
C1507 H1501 0.950 . S
C1507 C1506 1.327 . S
C1507 C1511 1.429 . S
C1508 C1491 1.574 . S
C1508 H1502 0.949 . S
C1508 C1512 1.368 1_565 S
C1509 C1490 1.429 1_565 S
C1509 C1503 1.429 . S
C1509 C1510 1.523 . S
C1510 C1491 1.368 . S
C1510 C1504 1.368 1_565 S
C1510 C1509 1.523 . S
C1511 C1495 1.429 . S
C1511 C1507 1.429 . S
C1511 C1512 1.523 . S
C1512 C1496 1.368 . S
C1512 C1508 1.368 1_545 S
C1512 C1511 1.523 . S
H1513 C1488 0.950 1_545 S
H1514 C1490 0.950 . S
H1515 C1491 0.949 . S
H1516 C1493 0.950 . S
H1517 C1495 0.950 1_565 S
C1518 C1519 1.349 . S
C1518 C1520 1.327 . S
C1518 H1543 0.950 . S
C1519 C1518 1.349 . S
C1519 C1535 1.349 . S
C1520 C1518 1.327 . S
C1520 C1539 1.429 . S
C1520 H1544 0.950 . S
C1521 C1538 1.574 . S
C1521 C1540 1.368 . S
C1521 H1545 0.949 . S
H1522 C1526 0.949 . S
C1523 C1524 1.349 . S
C1523 C1525 1.327 . S
C1523 H1546 0.950 . S
C1524 C1523 1.349 . S
C1524 C1536 1.349 . S
C1525 C1523 1.327 . S
C1525 C1541 1.429 . S
C1525 H1547 0.950 . S
C1526 H1522 0.949 . S
C1526 C1534 1.574 . S
C1526 C1542 1.368 . S
H1527 C1535 0.950 . S
H1528 C1533 0.950 . S
H1529 C1534 0.949 . S
H1530 C1536 0.950 . S
H1531 C1537 0.950 . S
H1532 C1538 0.949 . S
C1533 H1528 0.950 . S
C1533 C1535 1.327 . S
C1533 C1539 1.429 . S
C1534 C1526 1.574 . S
C1534 H1529 0.949 . S
C1534 C1540 1.368 . S
C1535 C1519 1.349 . S
C1535 H1527 0.950 . S
C1535 C1533 1.327 . S
C1536 C1524 1.349 . S
C1536 H1530 0.950 . S
C1536 C1537 1.327 . S
C1537 H1531 0.950 . S
C1537 C1536 1.327 . S
C1537 C1541 1.429 . S
C1538 C1521 1.574 . S
C1538 H1532 0.949 . S
C1538 C1542 1.368 . S
C1539 C1520 1.429 . S
C1539 C1533 1.429 . S
C1539 C1540 1.523 . S
C1540 C1521 1.368 . S
C1540 C1534 1.368 . S
C1540 C1539 1.523 . S
C1541 C1525 1.429 . S
C1541 C1537 1.429 . S
C1541 C1542 1.523 . S
C1542 C1526 1.368 . S
C1542 C1538 1.368 . S
C1542 C1541 1.523 . S
H1543 C1518 0.950 . S
H1544 C1520 0.950 . S
H1545 C1521 0.949 . S
H1546 C1523 0.950 . S
H1547 C1525 0.950 . S
C1548 C1549 1.349 . S
C1548 C1550 1.327 . S
C1548 H1573 0.950 . S
C1549 C1548 1.349 . S
C1549 C1565 1.349 . S
C1550 C1548 1.327 . S
C1550 C1569 1.429 . S
C1550 H1574 0.950 . S
C1551 C1568 1.574 . S
C1551 C1570 1.368 . S
C1551 H1575 0.949 . S
H1552 C1556 0.949 . S
C1553 C1554 1.349 . S
C1553 C1555 1.327 . S
C1553 H1576 0.950 . S
C1554 C1553 1.349 . S
C1554 C1566 1.349 . S
C1555 C1553 1.327 . S
C1555 C1571 1.429 . S
C1555 H1577 0.950 . S
C1556 H1552 0.949 . S
C1556 C1564 1.574 . S
C1556 C1572 1.368 . S
H1557 C1565 0.950 . S
H1558 C1563 0.950 . S
H1559 C1564 0.949 . S
H1560 C1566 0.950 . S
H1561 C1567 0.950 . S
H1562 C1568 0.949 . S
C1563 H1558 0.950 . S
C1563 C1565 1.327 . S
C1563 C1569 1.429 . S
C1564 C1556 1.574 . S
C1564 H1559 0.949 . S
C1564 C1570 1.368 . S
C1565 C1549 1.349 . S
C1565 H1557 0.950 . S
C1565 C1563 1.327 . S
C1566 C1554 1.349 . S
C1566 H1560 0.950 . S
C1566 C1567 1.327 . S
C1567 H1561 0.950 . S
C1567 C1566 1.327 . S
C1567 C1571 1.429 . S
C1568 C1551 1.574 . S
C1568 H1562 0.949 . S
C1568 C1572 1.368 . S
C1569 C1550 1.429 . S
C1569 C1563 1.429 . S
C1569 C1570 1.523 . S
C1570 C1551 1.368 . S
C1570 C1564 1.368 . S
C1570 C1569 1.523 . S
C1571 C1555 1.429 . S
C1571 C1567 1.429 . S
C1571 C1572 1.523 . S
C1572 C1556 1.368 . S
C1572 C1568 1.368 . S
C1572 C1571 1.523 . S
H1573 C1548 0.950 . S
H1574 C1550 0.950 . S
H1575 C1551 0.949 . S
H1576 C1553 0.950 . S
H1577 C1555 0.950 . S
C1578 C1579 1.349 . S
C1578 C1580 1.327 . S
C1578 H1603 0.950 . S
C1579 C1578 1.349 . S
C1579 C1595 1.349 . S
C1580 C1578 1.327 . S
C1580 C1599 1.429 . S
C1580 H1604 0.950 . S
C1581 C1598 1.574 . S
C1581 C1600 1.368 1_565 S
C1581 H1605 0.949 . S
H1582 C1586 0.949 . S
C1583 C1584 1.349 . S
C1583 C1585 1.327 . S
C1583 H1606 0.950 . S
C1584 C1583 1.349 . S
C1584 C1596 1.349 . S
C1585 C1583 1.327 . S
C1585 C1601 1.429 . S
C1585 H1607 0.950 . S
C1586 H1582 0.949 . S
C1586 C1594 1.574 . S
C1586 C1602 1.368 1_545 S
H1587 C1595 0.950 . S
H1588 C1593 0.950 1_565 S
H1589 C1594 0.949 . S
H1590 C1596 0.950 . S
H1591 C1597 0.940 1_545 S
H1592 C1598 0.949 . S
C1593 H1588 0.950 1_545 S
C1593 C1595 1.327 . S
C1593 C1599 1.429 . S
C1594 C1586 1.574 . S
C1594 H1589 0.949 . S
C1594 C1600 1.368 . S
C1595 C1579 1.349 . S
C1595 H1587 0.950 . S
C1595 C1593 1.327 . S
C1596 C1584 1.349 . S
C1596 H1590 0.950 . S
C1596 C1597 1.327 . S
C1597 H1591 0.940 1_565 S
C1597 C1596 1.327 . S
C1597 C1601 1.429 . S
C1598 C1581 1.574 . S
C1598 H1592 0.949 . S
C1598 C1602 1.368 . S
C1599 C1580 1.429 . S
C1599 C1593 1.429 . S
C1599 C1600 1.523 . S
C1600 C1581 1.368 1_545 S
C1600 C1594 1.368 . S
C1600 C1599 1.523 . S
C1601 C1585 1.429 . S
C1601 C1597 1.429 . S
C1601 C1602 1.523 . S
C1602 C1586 1.368 1_565 S
C1602 C1598 1.368 . S
C1602 C1601 1.523 . S
H1603 C1578 0.950 . S
H1604 C1580 0.950 . S
H1605 C1581 0.949 . S
H1606 C1583 0.950 . S
H1607 C1585 0.950 . S
C1608 C1609 1.349 . S
C1608 C1610 1.327 1_554 S
C1608 H1633 0.950 1_554 S
C1609 C1608 1.349 . S
C1609 C1625 1.349 . S
C1610 C1608 1.327 1_556 S
C1610 C1629 1.429 1_556 S
C1610 H1634 0.950 . S
C1611 C1628 1.574 . S
C1611 C1630 1.368 . S
C1611 H1635 0.949 . S
H1612 C1616 0.949 . S
C1613 C1614 1.349 . S
C1613 C1615 1.327 . S
C1613 H1636 0.950 . S
C1614 C1613 1.349 . S
C1614 C1626 1.349 . S
C1615 C1613 1.327 . S
C1615 C1631 1.429 . S
C1615 H1637 0.950 1_556 S
C1616 H1612 0.949 . S
C1616 C1624 1.574 . S
C1616 C1632 1.368 . S
H1617 C1625 0.950 . S
H1618 C1623 0.950 . S
H1619 C1624 0.949 . S
H1620 C1626 0.950 . S
H1621 C1627 0.950 . S
H1622 C1628 0.949 . S
C1623 H1618 0.950 . S
C1623 C1625 1.327 . S
C1623 C1629 1.429 . S
C1624 C1616 1.574 . S
C1624 H1619 0.949 . S
C1624 C1630 1.368 1_556 S
C1625 C1609 1.349 . S
C1625 H1617 0.950 . S
C1625 C1623 1.327 . S
C1626 C1614 1.349 . S
C1626 H1620 0.950 . S
C1626 C1627 1.327 . S
C1627 H1621 0.950 . S
C1627 C1626 1.327 . S
C1627 C1631 1.429 . S
C1628 C1611 1.574 . S
C1628 H1622 0.949 . S
C1628 C1632 1.368 1_554 S
C1629 C1610 1.429 1_554 S
C1629 C1623 1.429 . S
C1629 C1630 1.523 . S
C1630 C1611 1.368 . S
C1630 C1624 1.368 1_554 S
C1630 C1629 1.523 . S
C1631 C1615 1.429 . S
C1631 C1627 1.429 . S
C1631 C1632 1.523 . S
C1632 C1616 1.368 . S
C1632 C1628 1.368 1_556 S
C1632 C1631 1.523 . S
H1633 C1608 0.950 1_556 S
H1634 C1610 0.950 . S
H1635 C1611 0.949 . S
H1636 C1613 0.950 . S
H1637 C1615 0.950 1_554 S
C1638 C1639 1.349 . S
C1638 C1640 1.327 . S
C1638 H1663 0.950 . S
C1639 C1638 1.349 . S
C1639 C1655 1.349 . S
C1640 C1638 1.327 . S
C1640 C1659 1.429 . S
C1640 H1664 0.950 . S
C1641 C1658 1.574 . S
C1641 C1660 1.368 . S
C1641 H1665 0.949 . S
H1642 C1646 0.949 . S
C1643 C1644 1.349 . S
C1643 C1645 1.327 . S
C1643 H1666 0.950 . S
C1644 C1643 1.349 . S
C1644 C1656 1.349 . S
C1645 C1643 1.327 . S
C1645 C1661 1.429 . S
C1645 H1667 0.950 . S
C1646 H1642 0.949 . S
C1646 C1654 1.574 . S
C1646 C1662 1.368 . S
H1647 C1655 0.950 . S
H1648 C1653 0.950 . S
H1649 C1654 0.949 . S
H1650 C1656 0.950 . S
H1651 C1657 0.950 . S
H1652 C1658 0.949 . S
C1653 H1648 0.950 . S
C1653 C1655 1.327 . S
C1653 C1659 1.429 . S
C1654 C1646 1.574 . S
C1654 H1649 0.949 . S
C1654 C1660 1.368 . S
C1655 C1639 1.349 . S
C1655 H1647 0.950 . S
C1655 C1653 1.327 . S
C1656 C1644 1.349 . S
C1656 H1650 0.950 . S
C1656 C1657 1.327 . S
C1657 H1651 0.950 . S
C1657 C1656 1.327 . S
C1657 C1661 1.429 . S
C1658 C1641 1.574 . S
C1658 H1652 0.949 . S
C1658 C1662 1.368 . S
C1659 C1640 1.429 . S
C1659 C1653 1.429 . S
C1659 C1660 1.523 . S
C1660 C1641 1.368 . S
C1660 C1654 1.368 . S
C1660 C1659 1.523 . S
C1661 C1645 1.429 . S
C1661 C1657 1.429 . S
C1661 C1662 1.523 . S
C1662 C1646 1.368 . S
C1662 C1658 1.368 . S
C1662 C1661 1.523 . S
H1663 C1638 0.950 . S
H1664 C1640 0.950 . S
H1665 C1641 0.949 . S
H1666 C1643 0.950 . S
H1667 C1645 0.950 . S
C1668 C1669 1.349 . S
C1668 C1670 1.341 . S
C1668 H1693 0.950 1_554 S
C1669 C1668 1.349 . S
C1669 C1685 1.349 . S
C1670 C1668 1.341 . S
C1670 C1689 1.460 . S
C1670 H1694 0.904 1_554 S
C1671 C1688 1.574 . S
C1671 C1690 1.368 . S
C1671 H1695 0.949 . S
H1672 C1676 0.949 . S
C1673 C1674 1.349 1_554 S
C1673 C1675 1.327 . S
C1673 H1696 0.950 . S
C1674 C1673 1.349 1_556 S
C1674 C1686 1.349 . S
C1675 C1673 1.327 . S
C1675 C1691 1.429 1_554 S
C1675 H1697 0.950 . S
C1676 H1672 0.949 . S
C1676 C1684 1.574 . S
C1676 C1692 1.368 . S
H1677 C1685 0.950 . S
H1678 C1683 0.950 . S
H1679 C1684 0.949 . S
H1680 C1686 0.950 . S
H1681 C1687 0.950 . S
H1682 C1688 0.949 . S
C1683 H1678 0.950 . S
C1683 C1685 1.327 . S
C1683 C1689 1.429 . S
C1684 C1676 1.574 . S
C1684 H1679 0.949 . S
C1684 C1690 1.368 1_556 S
C1685 C1669 1.349 . S
C1685 H1677 0.950 . S
C1685 C1683 1.327 . S
C1686 C1674 1.349 . S
C1686 H1680 0.950 . S
C1686 C1687 1.327 . S
C1687 H1681 0.950 . S
C1687 C1686 1.327 . S
C1687 C1691 1.429 . S
C1688 C1671 1.574 . S
C1688 H1682 0.949 . S
C1688 C1692 1.368 1_554 S
C1689 C1670 1.460 . S
C1689 C1683 1.429 . S
C1689 C1690 1.523 . S
C1690 C1671 1.368 . S
C1690 C1684 1.368 1_554 S
C1690 C1689 1.523 . S
C1691 C1675 1.429 1_556 S
C1691 C1687 1.429 . S
C1691 C1692 1.523 . S
C1692 C1676 1.368 . S
C1692 C1688 1.368 1_556 S
C1692 C1691 1.523 . S
H1693 C1668 0.950 1_556 S
H1694 C1670 0.904 1_556 S
H1695 C1671 0.949 . S
H1696 C1673 0.950 . S
H1697 C1675 0.950 . S
C1698 C1699 1.349 . S
C1698 C1700 1.327 . S
C1698 H1723 0.950 . S
C1699 C1698 1.349 . S
C1699 C1715 1.349 . S
C1700 C1698 1.327 . S
C1700 C1719 1.429 . S
C1700 H1724 0.950 . S
C1701 C1718 1.574 . S
C1701 C1720 1.368 . S
C1701 H1725 0.949 . S
H1702 C1706 0.949 . S
C1703 C1704 1.349 . S
C1703 C1705 1.327 . S
C1703 H1726 0.950 . S
C1704 C1703 1.349 . S
C1704 C1716 1.349 . S
C1705 C1703 1.327 . S
C1705 C1721 1.429 . S
C1705 H1727 0.950 . S
C1706 H1702 0.949 . S
C1706 C1714 1.574 . S
C1706 C1722 1.368 . S
H1707 C1715 0.950 . S
H1708 C1713 0.950 . S
H1709 C1714 0.949 . S
H1710 C1716 0.950 . S
H1711 C1717 0.950 . S
H1712 C1718 0.949 . S
C1713 H1708 0.950 . S
C1713 C1715 1.327 . S
C1713 C1719 1.429 . S
C1714 C1706 1.574 . S
C1714 H1709 0.949 . S
C1714 C1720 1.368 . S
C1715 C1699 1.349 . S
C1715 H1707 0.950 . S
C1715 C1713 1.327 . S
C1716 C1704 1.349 . S
C1716 H1710 0.950 . S
C1716 C1717 1.327 . S
C1717 H1711 0.950 . S
C1717 C1716 1.327 . S
C1717 C1721 1.429 . S
C1718 C1701 1.574 . S
C1718 H1712 0.949 . S
C1718 C1722 1.368 . S
C1719 C1700 1.429 . S
C1719 C1713 1.429 . S
C1719 C1720 1.523 . S
C1720 C1701 1.368 . S
C1720 C1714 1.368 . S
C1720 C1719 1.523 . S
C1721 C1705 1.429 . S
C1721 C1717 1.429 . S
C1721 C1722 1.523 . S
C1722 C1706 1.368 . S
C1722 C1718 1.368 . S
C1722 C1721 1.523 . S
H1723 C1698 0.950 . S
H1724 C1700 0.950 . S
H1725 C1701 0.949 . S
H1726 C1703 0.950 . S
H1727 C1705 0.950 . S
C1728 C1729 1.349 . S
C1728 C1730 1.327 . S
C1728 H1753 0.950 . S
C1729 C1728 1.349 . S
C1729 C1745 1.349 . S
C1730 C1728 1.327 . S
C1730 C1749 1.429 . S
C1730 H1754 0.950 1_455 S
C1731 C1748 1.581 . S
C1731 C1750 1.368 . S
C1731 H1755 0.949 . S
H1732 C1736 0.949 . S
C1733 C1734 1.349 . S
C1733 C1735 1.327 . S
C1733 H1756 0.950 . S
C1734 C1733 1.349 . S
C1734 C1746 1.349 . S
C1735 C1733 1.327 . S
C1735 C1751 1.429 . S
C1735 H1757 0.950 . S
C1736 H1732 0.949 . S
C1736 C1744 1.574 . S
C1736 C1752 1.368 . S
H1737 C1745 0.950 . S
H1738 C1743 0.950 . S
H1739 C1744 0.949 . S
H1740 C1746 0.950 . S
H1741 C1747 0.950 . S
H1742 C1748 0.955 . S
C1743 H1738 0.950 . S
C1743 C1745 1.327 . S
C1743 C1749 1.429 . S
C1744 C1736 1.574 . S
C1744 H1739 0.949 . S
C1744 C1750 1.368 1_655 S
C1745 C1729 1.349 . S
C1745 H1737 0.950 . S
C1745 C1743 1.327 . S
C1746 C1734 1.349 . S
C1746 H1740 0.950 . S
C1746 C1747 1.327 . S
C1747 H1741 0.950 . S
C1747 C1746 1.327 . S
C1747 C1751 1.429 . S
C1748 C1731 1.581 . S
C1748 H1742 0.955 . S
C1748 C1752 1.355 1_455 S
C1749 C1730 1.429 . S
C1749 C1743 1.429 . S
C1749 C1750 1.523 . S
C1750 C1731 1.368 . S
C1750 C1744 1.368 1_455 S
C1750 C1749 1.523 . S
C1751 C1735 1.429 . S
C1751 C1747 1.429 . S
C1751 C1752 1.523 . S
C1752 C1736 1.368 . S
C1752 C1748 1.355 1_655 S
C1752 C1751 1.523 . S
H1753 C1728 0.950 . S
H1754 C1730 0.950 1_655 S
H1755 C1731 0.949 . S
H1756 C1733 0.950 . S
H1757 C1735 0.950 . S
C1758 C1759 1.349 . S
C1758 C1760 1.327 . S
C1758 H1783 0.950 . S
C1759 C1758 1.349 . S
C1759 C1775 1.349 . S
C1760 C1758 1.327 . S
C1760 C1779 1.429 . S
C1760 H1784 0.950 . S
C1761 C1778 1.574 . S
C1761 C1780 1.368 . S
C1761 H1785 0.949 . S
H1762 C1766 0.949 . S
C1763 C1764 1.349 . S
C1763 C1765 1.327 . S
C1763 H1786 0.950 . S
C1764 C1763 1.349 . S
C1764 C1776 1.349 . S
C1765 C1763 1.327 . S
C1765 C1781 1.429 . S
C1765 H1787 0.950 . S
C1766 H1762 0.949 . S
C1766 C1774 1.574 . S
C1766 C1782 1.368 . S
H1767 C1775 0.950 . S
H1768 C1773 0.950 . S
H1769 C1774 0.949 . S
H1770 C1776 0.950 . S
H1771 C1777 0.950 . S
H1772 C1778 0.949 . S
C1773 H1768 0.950 . S
C1773 C1775 1.327 . S
C1773 C1779 1.429 . S
C1774 C1766 1.574 . S
C1774 H1769 0.949 . S
C1774 C1780 1.368 . S
C1775 C1759 1.349 . S
C1775 H1767 0.950 . S
C1775 C1773 1.327 . S
C1776 C1764 1.349 . S
C1776 H1770 0.950 . S
C1776 C1777 1.327 . S
C1777 H1771 0.950 . S
C1777 C1776 1.327 . S
C1777 C1781 1.429 . S
C1778 C1761 1.574 . S
C1778 H1772 0.949 . S
C1778 C1782 1.368 . S
C1779 C1760 1.429 . S
C1779 C1773 1.429 . S
C1779 C1780 1.523 . S
C1780 C1761 1.368 . S
C1780 C1774 1.368 . S
C1780 C1779 1.523 . S
C1781 C1765 1.429 . S
C1781 C1777 1.429 . S
C1781 C1782 1.523 . S
C1782 C1766 1.368 . S
C1782 C1778 1.368 . S
C1782 C1781 1.523 . S
H1783 C1758 0.950 . S
H1784 C1760 0.950 . S
H1785 C1761 0.949 . S
H1786 C1763 0.950 . S
H1787 C1765 0.950 . S
C1788 C1789 1.349 . S
C1788 C1790 1.327 . S
C1788 H1813 0.950 . S
C1789 C1788 1.349 . S
C1789 C1805 1.349 . S
C1790 C1788 1.327 . S
C1790 C1809 1.429 . S
C1790 H1814 0.950 . S
C1791 C1808 1.574 . S
C1791 C1810 1.368 . S
C1791 H1815 0.949 . S
H1792 C1796 0.949 . S
C1793 C1794 1.349 . S
C1793 C1795 1.327 . S
C1793 H1816 0.950 . S
C1794 C1793 1.349 . S
C1794 C1806 1.349 . S
C1795 C1793 1.327 . S
C1795 C1811 1.429 . S
C1795 H1817 0.950 . S
C1796 H1792 0.949 . S
C1796 C1804 1.574 . S
C1796 C1812 1.368 . S
H1797 C1805 0.950 . S
H1798 C1803 0.950 . S
H1799 C1804 0.949 . S
H1800 C1806 0.950 . S
H1801 C1807 0.950 . S
H1802 C1808 0.949 . S
C1803 H1798 0.950 . S
C1803 C1805 1.327 . S
C1803 C1809 1.429 . S
C1804 C1796 1.574 . S
C1804 H1799 0.949 . S
C1804 C1810 1.368 . S
C1805 C1789 1.349 . S
C1805 H1797 0.950 . S
C1805 C1803 1.327 . S
C1806 C1794 1.349 . S
C1806 H1800 0.950 . S
C1806 C1807 1.327 . S
C1807 H1801 0.950 . S
C1807 C1806 1.327 . S
C1807 C1811 1.429 . S
C1808 C1791 1.574 . S
C1808 H1802 0.949 . S
C1808 C1812 1.368 . S
C1809 C1790 1.429 . S
C1809 C1803 1.429 . S
C1809 C1810 1.523 . S
C1810 C1791 1.368 . S
C1810 C1804 1.368 . S
C1810 C1809 1.523 . S
C1811 C1795 1.429 . S
C1811 C1807 1.429 . S
C1811 C1812 1.523 . S
C1812 C1796 1.368 . S
C1812 C1808 1.368 . S
C1812 C1811 1.523 . S
H1813 C1788 0.950 . S
H1814 C1790 0.950 . S
H1815 C1791 0.949 . S
H1816 C1793 0.950 . S
H1817 C1795 0.950 . S
C1818 C1819 1.349 . S
C1818 C1820 1.327 . S
C1818 H1843 0.950 . S
C1819 C1818 1.349 . S
C1819 C1835 1.349 . S
C1820 C1818 1.327 . S
C1820 C1839 1.429 . S
C1820 H1844 0.950 1_455 S
C1821 C1838 1.574 . S
C1821 C1840 1.368 . S
C1821 H1845 0.949 . S
H1822 C1826 0.949 . S
C1823 C1824 1.349 . S
C1823 C1825 1.327 1_655 S
C1823 H1846 0.950 1_655 S
C1824 C1823 1.349 . S
C1824 C1836 1.349 . S
C1825 C1823 1.327 1_455 S
C1825 C1841 1.429 1_455 S
C1825 H1847 0.950 . S
C1826 H1822 0.949 . S
C1826 C1834 1.574 . S
C1826 C1842 1.368 . S
H1827 C1835 0.950 . S
H1828 C1833 0.950 . S
H1829 C1834 0.949 . S
H1830 C1836 0.950 . S
H1831 C1837 0.950 . S
H1832 C1838 0.949 . S
C1833 H1828 0.950 . S
C1833 C1835 1.327 . S
C1833 C1839 1.429 . S
C1834 C1826 1.574 . S
C1834 H1829 0.949 . S
C1834 C1840 1.368 1_655 S
C1835 C1819 1.349 . S
C1835 H1827 0.950 . S
C1835 C1833 1.327 . S
C1836 C1824 1.349 . S
C1836 H1830 0.950 . S
C1836 C1837 1.327 . S
C1837 H1831 0.950 . S
C1837 C1836 1.327 . S
C1837 C1841 1.429 . S
C1838 C1821 1.574 . S
C1838 H1832 0.949 . S
C1838 C1842 1.368 1_455 S
C1839 C1820 1.429 . S
C1839 C1833 1.429 . S
C1839 C1840 1.523 . S
C1840 C1821 1.368 . S
C1840 C1834 1.368 1_455 S
C1840 C1839 1.523 . S
C1841 C1825 1.429 1_655 S
C1841 C1837 1.429 . S
C1841 C1842 1.523 . S
C1842 C1826 1.368 . S
C1842 C1838 1.368 1_655 S
C1842 C1841 1.523 . S
H1843 C1818 0.950 . S
H1844 C1820 0.950 1_655 S
H1845 C1821 0.949 . S
H1846 C1823 0.950 1_455 S
H1847 C1825 0.950 . S
C1848 C1849 1.349 1_565 S
C1848 C1850 1.327 . S
C1848 H1873 0.950 . S
C1849 C1848 1.349 1_545 S
C1849 C1865 1.349 . S
C1850 C1848 1.327 . S
C1850 C1869 1.429 1_565 S
C1850 H1874 0.950 . S
C1851 C1868 1.574 . S
C1851 C1870 1.368 . S
C1851 H1875 0.949 . S
H1852 C1856 0.949 . S
C1853 C1854 1.349 . S
C1853 C1855 1.342 . S
C1853 H1876 0.950 1_565 S
C1854 C1853 1.349 . S
C1854 C1866 1.349 . S
C1855 C1853 1.342 . S
C1855 C1871 1.462 . S
C1855 H1877 0.901 1_565 S
C1856 H1852 0.949 . S
C1856 C1864 1.574 . S
C1856 C1872 1.368 . S
H1857 C1865 0.950 . S
H1858 C1863 0.950 . S
H1859 C1864 0.949 . S
H1860 C1866 0.950 . S
H1861 C1867 0.950 . S
H1862 C1868 0.949 . S
C1863 H1858 0.950 . S
C1863 C1865 1.327 . S
C1863 C1869 1.429 . S
C1864 C1856 1.574 . S
C1864 H1859 0.949 . S
C1864 C1870 1.368 1_565 S
C1865 C1849 1.349 . S
C1865 H1857 0.950 . S
C1865 C1863 1.327 . S
C1866 C1854 1.349 . S
C1866 H1860 0.950 . S
C1866 C1867 1.327 . S
C1867 H1861 0.950 . S
C1867 C1866 1.327 . S
C1867 C1871 1.429 . S
C1868 C1851 1.574 . S
C1868 H1862 0.949 . S
C1868 C1872 1.368 1_545 S
C1869 C1850 1.429 1_545 S
C1869 C1863 1.429 . S
C1869 C1870 1.523 . S
C1870 C1851 1.368 . S
C1870 C1864 1.368 1_545 S
C1870 C1869 1.523 . S
C1871 C1855 1.462 . S
C1871 C1867 1.429 . S
C1871 C1872 1.523 . S
C1872 C1856 1.368 . S
C1872 C1868 1.368 1_565 S
C1872 C1871 1.523 . S
H1873 C1848 0.950 . S
H1874 C1850 0.950 . S
H1875 C1851 0.949 . S
H1876 C1853 0.950 1_545 S
H1877 C1855 0.901 1_545 S
C1878 C1879 1.349 . S
C1878 C1880 1.327 . S
C1878 H1903 0.950 . S
C1879 C1878 1.349 . S
C1879 C1895 1.349 . S
C1880 C1878 1.327 . S
C1880 C1899 1.429 . S
C1880 H1904 0.950 . S
C1881 C1898 1.574 . S
C1881 C1900 1.368 . S
C1881 H1905 0.949 . S
H1882 C1886 0.949 . S
C1883 C1884 1.349 . S
C1883 C1885 1.327 . S
C1883 H1906 0.950 . S
C1884 C1883 1.349 . S
C1884 C1896 1.349 . S
C1885 C1883 1.327 . S
C1885 C1901 1.429 . S
C1885 H1907 0.950 . S
C1886 H1882 0.949 . S
C1886 C1894 1.574 . S
C1886 C1902 1.368 . S
H1887 C1895 0.950 . S
H1888 C1893 0.950 . S
H1889 C1894 0.949 . S
H1890 C1896 0.950 . S
H1891 C1897 0.950 . S
H1892 C1898 0.949 . S
C1893 H1888 0.950 . S
C1893 C1895 1.327 . S
C1893 C1899 1.429 . S
C1894 C1886 1.574 . S
C1894 H1889 0.949 . S
C1894 C1900 1.368 . S
C1895 C1879 1.349 . S
C1895 H1887 0.950 . S
C1895 C1893 1.327 . S
C1896 C1884 1.349 . S
C1896 H1890 0.950 . S
C1896 C1897 1.327 . S
C1897 H1891 0.950 . S
C1897 C1896 1.327 . S
C1897 C1901 1.429 . S
C1898 C1881 1.574 . S
C1898 H1892 0.949 . S
C1898 C1902 1.368 . S
C1899 C1880 1.429 . S
C1899 C1893 1.429 . S
C1899 C1900 1.523 . S
C1900 C1881 1.368 . S
C1900 C1894 1.368 . S
C1900 C1899 1.523 . S
C1901 C1885 1.429 . S
C1901 C1897 1.429 . S
C1901 C1902 1.523 . S
C1902 C1886 1.368 . S
C1902 C1898 1.368 . S
C1902 C1901 1.523 . S
H1903 C1878 0.950 . S
H1904 C1880 0.950 . S
H1905 C1881 0.949 . S
H1906 C1883 0.950 . S
H1907 C1885 0.950 . S
C1908 C1909 1.349 . S
C1908 C1910 1.327 . S
C1908 H1933 0.950 . S
C1909 C1908 1.349 . S
C1909 C1925 1.349 . S
C1910 C1908 1.327 . S
C1910 C1929 1.429 . S
C1910 H1934 0.950 . S
C1911 C1928 1.574 . S
C1911 C1930 1.368 . S
C1911 H1935 0.949 . S
H1912 C1916 0.949 . S
C1913 C1914 1.349 . S
C1913 C1915 1.327 . S
C1913 H1936 0.950 . S
C1914 C1913 1.349 . S
C1914 C1926 1.349 . S
C1915 C1913 1.327 . S
C1915 C1931 1.429 . S
C1915 H1937 0.950 . S
C1916 H1912 0.949 . S
C1916 C1924 1.574 . S
C1916 C1932 1.368 . S
H1917 C1925 0.950 . S
H1918 C1923 0.950 . S
H1919 C1924 0.949 . S
H1920 C1926 0.950 . S
H1921 C1927 0.950 . S
H1922 C1928 0.949 . S
C1923 H1918 0.950 . S
C1923 C1925 1.327 . S
C1923 C1929 1.429 . S
C1924 C1916 1.574 . S
C1924 H1919 0.949 . S
C1924 C1930 1.368 . S
C1925 C1909 1.349 . S
C1925 H1917 0.950 . S
C1925 C1923 1.327 . S
C1926 C1914 1.349 . S
C1926 H1920 0.950 . S
C1926 C1927 1.327 . S
C1927 H1921 0.950 . S
C1927 C1926 1.327 . S
C1927 C1931 1.429 . S
C1928 C1911 1.574 . S
C1928 H1922 0.949 . S
C1928 C1932 1.368 . S
C1929 C1910 1.429 . S
C1929 C1923 1.429 . S
C1929 C1930 1.523 . S
C1930 C1911 1.368 . S
C1930 C1924 1.368 . S
C1930 C1929 1.523 . S
C1931 C1915 1.429 . S
C1931 C1927 1.429 . S
C1931 C1932 1.523 . S
C1932 C1916 1.368 . S
C1932 C1928 1.368 . S
C1932 C1931 1.523 . S
H1933 C1908 0.950 . S
H1934 C1910 0.950 . S
H1935 C1911 0.949 . S
H1936 C1913 0.950 . S
H1937 C1915 0.950 . S
C1938 C1939 1.349 . S
C1938 C1940 1.327 . S
C1938 H1963 0.950 . S
C1939 C1938 1.349 . S
C1939 C1955 1.349 . S
C1940 C1938 1.327 . S
C1940 C1959 1.429 . S
C1940 H1964 0.950 . S
C1941 C1958 1.562 1_545 S
C1941 C1960 1.387 . S
C1941 H1965 0.945 1_545 S
H1942 C1946 0.949 . S
C1943 C1944 1.349 . S
C1943 C1945 1.327 . S
C1943 H1966 0.950 . S
C1944 C1943 1.349 . S
C1944 C1956 1.349 . S
C1945 C1943 1.327 . S
C1945 C1961 1.429 . S
C1945 H1967 0.950 . S
C1946 H1942 0.949 . S
C1946 C1954 1.574 . S
C1946 C1962 1.368 1_545 S
H1947 C1955 0.950 . S
H1948 C1953 0.950 . S
H1949 C1954 0.949 . S
H1950 C1956 0.950 . S
H1951 C1957 0.950 1_545 S
H1952 C1958 0.949 . S
C1953 H1948 0.950 . S
C1953 C1955 1.327 . S
C1953 C1959 1.429 . S
C1954 C1946 1.574 . S
C1954 H1949 0.949 . S
C1954 C1960 1.368 . S
C1955 C1939 1.349 . S
C1955 H1947 0.950 . S
C1955 C1953 1.327 . S
C1956 C1944 1.349 . S
C1956 H1950 0.950 . S
C1956 C1957 1.327 . S
C1957 H1951 0.950 1_565 S
C1957 C1956 1.327 . S
C1957 C1961 1.429 . S
C1958 C1941 1.562 1_565 S
C1958 H1952 0.949 . S
C1958 C1962 1.368 . S
C1959 C1940 1.429 . S
C1959 C1953 1.429 . S
C1959 C1960 1.523 . S
C1960 C1941 1.387 . S
C1960 C1954 1.368 . S
C1960 C1959 1.523 . S
C1961 C1945 1.429 . S
C1961 C1957 1.429 . S
C1961 C1962 1.523 . S
C1962 C1946 1.368 1_565 S
C1962 C1958 1.368 . S
C1962 C1961 1.523 . S
H1963 C1938 0.950 . S
H1964 C1940 0.950 . S
H1965 C1941 0.945 1_565 S
H1966 C1943 0.950 . S
H1967 C1945 0.950 . S
C1968 C1969 1.349 . S
C1968 C1970 1.327 . S
C1968 H1993 0.950 . S
C1969 C1968 1.349 . S
C1969 C1985 1.349 . S
C1970 C1968 1.327 . S
C1970 C1989 1.429 . S
C1970 H1994 0.950 . S
C1971 C1988 1.574 . S
C1971 C1990 1.368 . S
C1971 H1995 0.949 . S
H1972 C1976 0.949 . S
C1973 C1974 1.349 . S
C1973 C1975 1.327 . S
C1973 H1996 0.950 . S
C1974 C1973 1.349 . S
C1974 C1986 1.349 . S
C1975 C1973 1.327 . S
C1975 C1991 1.429 . S
C1975 H1997 0.950 . S
C1976 H1972 0.949 . S
C1976 C1984 1.574 . S
C1976 C1992 1.368 . S
H1977 C1985 0.950 . S
H1978 C1983 0.950 . S
H1979 C1984 0.949 . S
H1980 C1986 0.950 . S
H1981 C1987 0.950 . S
H1982 C1988 0.949 . S
C1983 H1978 0.950 . S
C1983 C1985 1.327 . S
C1983 C1989 1.429 . S
C1984 C1976 1.574 . S
C1984 H1979 0.949 . S
C1984 C1990 1.368 . S
C1985 C1969 1.349 . S
C1985 H1977 0.950 . S
C1985 C1983 1.327 . S
C1986 C1974 1.349 . S
C1986 H1980 0.950 . S
C1986 C1987 1.327 . S
C1987 H1981 0.950 . S
C1987 C1986 1.327 . S
C1987 C1991 1.429 . S
C1988 C1971 1.574 . S
C1988 H1982 0.949 . S
C1988 C1992 1.368 . S
C1989 C1970 1.429 . S
C1989 C1983 1.429 . S
C1989 C1990 1.523 . S
C1990 C1971 1.368 . S
C1990 C1984 1.368 . S
C1990 C1989 1.523 . S
C1991 C1975 1.429 . S
C1991 C1987 1.429 . S
C1991 C1992 1.523 . S
C1992 C1976 1.368 . S
C1992 C1988 1.368 . S
C1992 C1991 1.523 . S
H1993 C1968 0.950 . S
H1994 C1970 0.950 . S
H1995 C1971 0.949 . S
H1996 C1973 0.950 . S
H1997 C1975 0.950 . S
C1998 C1999 1.349 . S
C1998 C2000 1.327 . S
C1998 H2023 0.950 . S
C1999 C1998 1.349 . S
C1999 C2015 1.349 . S
C2000 C1998 1.327 . S
C2000 C2019 1.429 . S
C2000 H2024 0.950 . S
C2001 C2018 1.574 . S
C2001 C2020 1.368 . S
C2001 H2025 0.949 . S
H2002 C2006 0.949 . S
C2003 C2004 1.349 . S
C2003 C2005 1.327 . S
C2003 H2026 0.950 . S
C2004 C2003 1.349 . S
C2004 C2016 1.349 . S
C2005 C2003 1.327 . S
C2005 C2021 1.429 . S
C2005 H2027 0.950 . S
C2006 H2002 0.949 . S
C2006 C2014 1.574 . S
C2006 C2022 1.368 . S
H2007 C2015 0.950 . S
H2008 C2013 0.950 . S
H2009 C2014 0.949 . S
H2010 C2016 0.950 . S
H2011 C2017 0.950 . S
H2012 C2018 0.949 . S
C2013 H2008 0.950 . S
C2013 C2015 1.327 . S
C2013 C2019 1.429 . S
C2014 C2006 1.574 . S
C2014 H2009 0.949 . S
C2014 C2020 1.368 . S
C2015 C1999 1.349 . S
C2015 H2007 0.950 . S
C2015 C2013 1.327 . S
C2016 C2004 1.349 . S
C2016 H2010 0.950 . S
C2016 C2017 1.327 . S
C2017 H2011 0.950 . S
C2017 C2016 1.327 . S
C2017 C2021 1.429 . S
C2018 C2001 1.574 . S
C2018 H2012 0.949 . S
C2018 C2022 1.368 . S
C2019 C2000 1.429 . S
C2019 C2013 1.429 . S
C2019 C2020 1.523 . S
C2020 C2001 1.368 . S
C2020 C2014 1.368 . S
C2020 C2019 1.523 . S
C2021 C2005 1.429 . S
C2021 C2017 1.429 . S
C2021 C2022 1.523 . S
C2022 C2006 1.368 . S
C2022 C2018 1.368 . S
C2022 C2021 1.523 . S
H2023 C1998 0.950 . S
H2024 C2000 0.950 . S
H2025 C2001 0.949 . S
H2026 C2003 0.950 . S
H2027 C2005 0.950 . S
C2028 C2029 1.349 . S
C2028 C2030 1.327 . S
C2028 H2053 0.950 . S
C2029 C2028 1.349 . S
C2029 C2045 1.349 . S
C2030 C2028 1.327 . S
C2030 C2049 1.429 . S
C2030 H2054 0.950 . S
C2031 C2048 1.574 . S
C2031 C2050 1.368 . S
C2031 H2055 0.949 . S
H2032 C2036 0.949 . S
C2033 C2034 1.349 . S
C2033 C2035 1.327 . S
C2033 H2056 0.950 . S
C2034 C2033 1.349 . S
C2034 C2046 1.349 . S
C2035 C2033 1.327 . S
C2035 C2051 1.429 . S
C2035 H2057 0.950 . S
C2036 H2032 0.949 . S
C2036 C2044 1.574 . S
C2036 C2052 1.368 . S
H2037 C2045 0.950 . S
H2038 C2043 0.950 . S
H2039 C2044 0.949 . S
H2040 C2046 0.950 . S
H2041 C2047 0.950 . S
H2042 C2048 0.949 . S
C2043 H2038 0.950 . S
C2043 C2045 1.327 . S
C2043 C2049 1.429 . S
C2044 C2036 1.574 . S
C2044 H2039 0.949 . S
C2044 C2050 1.368 . S
C2045 C2029 1.349 . S
C2045 H2037 0.950 . S
C2045 C2043 1.327 . S
C2046 C2034 1.349 . S
C2046 H2040 0.950 . S
C2046 C2047 1.327 . S
C2047 H2041 0.950 . S
C2047 C2046 1.327 . S
C2047 C2051 1.429 . S
C2048 C2031 1.574 . S
C2048 H2042 0.949 . S
C2048 C2052 1.368 . S
C2049 C2030 1.429 . S
C2049 C2043 1.429 . S
C2049 C2050 1.523 . S
C2050 C2031 1.368 . S
C2050 C2044 1.368 . S
C2050 C2049 1.523 . S
C2051 C2035 1.429 . S
C2051 C2047 1.429 . S
C2051 C2052 1.523 . S
C2052 C2036 1.368 . S
C2052 C2048 1.368 . S
C2052 C2051 1.523 . S
H2053 C2028 0.950 . S
H2054 C2030 0.950 . S
H2055 C2031 0.949 . S
H2056 C2033 0.950 . S
H2057 C2035 0.950 . S
C2058 C2059 1.349 . S
C2058 C2060 1.327 . S
C2058 H2083 0.950 . S
C2059 C2058 1.349 . S
C2059 C2075 1.349 . S
C2060 C2058 1.327 . S
C2060 C2079 1.429 . S
C2060 H2084 0.950 . S
C2061 C2078 1.574 . S
C2061 C2080 1.368 . S
C2061 H2085 0.949 . S
H2062 C2066 0.949 . S
C2063 C2064 1.349 . S
C2063 C2065 1.327 . S
C2063 H2086 0.950 . S
C2064 C2063 1.349 . S
C2064 C2076 1.349 . S
C2065 C2063 1.327 . S
C2065 C2081 1.429 . S
C2065 H2087 0.950 . S
C2066 H2062 0.949 . S
C2066 C2074 1.574 . S
C2066 C2082 1.368 . S
H2067 C2075 0.950 . S
H2068 C2073 0.950 . S
H2069 C2074 0.949 . S
H2070 C2076 0.950 . S
H2071 C2077 0.950 . S
H2072 C2078 0.949 . S
C2073 H2068 0.950 . S
C2073 C2075 1.327 . S
C2073 C2079 1.429 . S
C2074 C2066 1.574 . S
C2074 H2069 0.949 . S
C2074 C2080 1.368 . S
C2075 C2059 1.349 . S
C2075 H2067 0.950 . S
C2075 C2073 1.327 . S
C2076 C2064 1.349 . S
C2076 H2070 0.950 . S
C2076 C2077 1.327 . S
C2077 H2071 0.950 . S
C2077 C2076 1.327 . S
C2077 C2081 1.429 . S
C2078 C2061 1.574 . S
C2078 H2072 0.949 . S
C2078 C2082 1.368 . S
C2079 C2060 1.429 . S
C2079 C2073 1.429 . S
C2079 C2080 1.523 . S
C2080 C2061 1.368 . S
C2080 C2074 1.368 . S
C2080 C2079 1.523 . S
C2081 C2065 1.429 . S
C2081 C2077 1.429 . S
C2081 C2082 1.523 . S
C2082 C2066 1.368 . S
C2082 C2078 1.368 . S
C2082 C2081 1.523 . S
H2083 C2058 0.950 . S
H2084 C2060 0.950 . S
H2085 C2061 0.949 . S
H2086 C2063 0.950 . S
H2087 C2065 0.950 . S
C2088 C2089 1.349 . S
C2088 C2090 1.327 . S
C2088 H2113 0.950 . S
C2089 C2088 1.349 . S
C2089 C2105 1.349 . S
C2090 C2088 1.327 . S
C2090 C2109 1.429 . S
C2090 H2114 0.950 . S
C2091 C2108 1.574 . S
C2091 C2110 1.368 . S
C2091 H2115 0.949 . S
H2092 C2096 0.949 . S
C2093 C2094 1.349 . S
C2093 C2095 1.327 . S
C2093 H2116 0.950 . S
C2094 C2093 1.349 . S
C2094 C2106 1.349 . S
C2095 C2093 1.327 . S
C2095 C2111 1.429 . S
C2095 H2117 0.950 . S
C2096 H2092 0.949 . S
C2096 C2104 1.574 . S
C2096 C2112 1.368 . S
H2097 C2105 0.950 . S
H2098 C2103 0.950 . S
H2099 C2104 0.949 . S
H2100 C2106 0.950 . S
H2101 C2107 0.950 . S
H2102 C2108 0.949 . S
C2103 H2098 0.950 . S
C2103 C2105 1.327 . S
C2103 C2109 1.429 . S
C2104 C2096 1.574 . S
C2104 H2099 0.949 . S
C2104 C2110 1.368 . S
C2105 C2089 1.349 . S
C2105 H2097 0.950 . S
C2105 C2103 1.327 . S
C2106 C2094 1.349 . S
C2106 H2100 0.950 . S
C2106 C2107 1.327 . S
C2107 H2101 0.950 . S
C2107 C2106 1.327 . S
C2107 C2111 1.429 . S
C2108 C2091 1.574 . S
C2108 H2102 0.949 . S
C2108 C2112 1.368 . S
C2109 C2090 1.429 . S
C2109 C2103 1.429 . S
C2109 C2110 1.523 . S
C2110 C2091 1.368 . S
C2110 C2104 1.368 . S
C2110 C2109 1.523 . S
C2111 C2095 1.429 . S
C2111 C2107 1.429 . S
C2111 C2112 1.523 . S
C2112 C2096 1.368 . S
C2112 C2108 1.368 . S
C2112 C2111 1.523 . S
H2113 C2088 0.950 . S
H2114 C2090 0.950 . S
H2115 C2091 0.949 . S
H2116 C2093 0.950 . S
H2117 C2095 0.950 . S
C2118 C2119 1.349 . S
C2118 C2120 1.327 . S
C2118 H2143 0.950 . S
C2119 C2118 1.349 . S
C2119 C2135 1.349 . S
C2120 C2118 1.327 . S
C2120 C2139 1.429 . S
C2120 H2144 0.950 . S
C2121 C2138 1.574 . S
C2121 C2140 1.368 . S
C2121 H2145 0.949 . S
H2122 C2126 0.949 . S
C2123 C2124 1.349 . S
C2123 C2125 1.327 . S
C2123 H2146 0.950 . S
C2124 C2123 1.349 . S
C2124 C2136 1.349 . S
C2125 C2123 1.327 . S
C2125 C2141 1.429 . S
C2125 H2147 0.950 . S
C2126 H2122 0.949 . S
C2126 C2134 1.574 . S
C2126 C2142 1.368 . S
H2127 C2135 0.950 . S
H2128 C2133 0.950 . S
H2129 C2134 0.949 . S
H2130 C2136 0.950 . S
H2131 C2137 0.950 . S
H2132 C2138 0.949 . S
C2133 H2128 0.950 . S
C2133 C2135 1.327 . S
C2133 C2139 1.429 . S
C2134 C2126 1.574 . S
C2134 H2129 0.949 . S
C2134 C2140 1.368 . S
C2135 C2119 1.349 . S
C2135 H2127 0.950 . S
C2135 C2133 1.327 . S
C2136 C2124 1.349 . S
C2136 H2130 0.950 . S
C2136 C2137 1.327 . S
C2137 H2131 0.950 . S
C2137 C2136 1.327 . S
C2137 C2141 1.429 . S
C2138 C2121 1.574 . S
C2138 H2132 0.949 . S
C2138 C2142 1.368 . S
C2139 C2120 1.429 . S
C2139 C2133 1.429 . S
C2139 C2140 1.523 . S
C2140 C2121 1.368 . S
C2140 C2134 1.368 . S
C2140 C2139 1.523 . S
C2141 C2125 1.429 . S
C2141 C2137 1.429 . S
C2141 C2142 1.523 . S
C2142 C2126 1.368 . S
C2142 C2138 1.368 . S
C2142 C2141 1.523 . S
H2143 C2118 0.950 . S
H2144 C2120 0.950 . S
H2145 C2121 0.949 . S
H2146 C2123 0.950 . S
H2147 C2125 0.950 . S
C2148 C2149 1.349 . S
C2148 C2150 1.327 . S
C2148 H2173 0.950 . S
C2149 C2148 1.349 . S
C2149 C2165 1.349 . S
C2150 C2148 1.327 . S
C2150 C2169 1.429 . S
C2150 H2174 0.950 . S
C2151 C2168 1.574 . S
C2151 C2170 1.368 . S
C2151 H2175 0.949 . S
H2152 C2156 0.949 . S
C2153 C2154 1.349 . S
C2153 C2155 1.327 . S
C2153 H2176 0.950 . S
C2154 C2153 1.349 . S
C2154 C2166 1.349 . S
C2155 C2153 1.327 . S
C2155 C2171 1.429 . S
C2155 H2177 0.950 . S
C2156 H2152 0.949 . S
C2156 C2164 1.574 . S
C2156 C2172 1.368 . S
H2157 C2165 0.950 . S
H2158 C2163 0.950 . S
H2159 C2164 0.949 . S
H2160 C2166 0.950 . S
H2161 C2167 0.950 . S
H2162 C2168 0.949 . S
C2163 H2158 0.950 . S
C2163 C2165 1.327 . S
C2163 C2169 1.429 . S
C2164 C2156 1.574 . S
C2164 H2159 0.949 . S
C2164 C2170 1.368 . S
C2165 C2149 1.349 . S
C2165 H2157 0.950 . S
C2165 C2163 1.327 . S
C2166 C2154 1.349 . S
C2166 H2160 0.950 . S
C2166 C2167 1.327 . S
C2167 H2161 0.950 . S
C2167 C2166 1.327 . S
C2167 C2171 1.429 . S
C2168 C2151 1.574 . S
C2168 H2162 0.949 . S
C2168 C2172 1.368 . S
C2169 C2150 1.429 . S
C2169 C2163 1.429 . S
C2169 C2170 1.523 . S
C2170 C2151 1.368 . S
C2170 C2164 1.368 . S
C2170 C2169 1.523 . S
C2171 C2155 1.429 . S
C2171 C2167 1.429 . S
C2171 C2172 1.523 . S
C2172 C2156 1.368 . S
C2172 C2168 1.368 . S
C2172 C2171 1.523 . S
H2173 C2148 0.950 . S
H2174 C2150 0.950 . S
H2175 C2151 0.949 . S
H2176 C2153 0.950 . S
H2177 C2155 0.950 . S
C2178 C2179 1.349 . S
C2178 C2180 1.327 . S
C2178 H2203 0.950 . S
C2179 C2178 1.349 . S
C2179 C2195 1.349 . S
C2180 C2178 1.327 . S
C2180 C2199 1.429 . S
C2180 H2204 0.950 . S
C2181 C2198 1.574 . S
C2181 C2200 1.368 . S
C2181 H2205 0.949 . S
H2182 C2186 0.949 . S
C2183 C2184 1.349 . S
C2183 C2185 1.327 . S
C2183 H2206 0.950 . S
C2184 C2183 1.349 . S
C2184 C2196 1.349 . S
C2185 C2183 1.327 . S
C2185 C2201 1.429 . S
C2185 H2207 0.950 . S
C2186 H2182 0.949 . S
C2186 C2194 1.574 . S
C2186 C2202 1.368 . S
H2187 C2195 0.950 . S
H2188 C2193 0.950 . S
H2189 C2194 0.949 . S
H2190 C2196 0.950 . S
H2191 C2197 0.950 . S
H2192 C2198 0.949 . S
C2193 H2188 0.950 . S
C2193 C2195 1.327 . S
C2193 C2199 1.429 . S
C2194 C2186 1.574 . S
C2194 H2189 0.949 . S
C2194 C2200 1.368 . S
C2195 C2179 1.349 . S
C2195 H2187 0.950 . S
C2195 C2193 1.327 . S
C2196 C2184 1.349 . S
C2196 H2190 0.950 . S
C2196 C2197 1.327 . S
C2197 H2191 0.950 . S
C2197 C2196 1.327 . S
C2197 C2201 1.429 . S
C2198 C2181 1.574 . S
C2198 H2192 0.949 . S
C2198 C2202 1.368 . S
C2199 C2180 1.429 . S
C2199 C2193 1.429 . S
C2199 C2200 1.523 . S
C2200 C2181 1.368 . S
C2200 C2194 1.368 . S
C2200 C2199 1.523 . S
C2201 C2185 1.429 . S
C2201 C2197 1.429 . S
C2201 C2202 1.523 . S
C2202 C2186 1.368 . S
C2202 C2198 1.368 . S
C2202 C2201 1.523 . S
H2203 C2178 0.950 . S
H2204 C2180 0.950 . S
H2205 C2181 0.949 . S
H2206 C2183 0.950 . S
H2207 C2185 0.950 . S
C2208 C2209 1.349 . S
C2208 C2210 1.327 . S
C2208 H2233 0.950 . S
C2209 C2208 1.349 . S
C2209 C2225 1.349 . S
C2210 C2208 1.327 . S
C2210 C2229 1.429 . S
C2210 H2234 0.950 . S
C2211 C2228 1.574 . S
C2211 C2230 1.368 . S
C2211 H2235 0.949 . S
H2212 C2216 0.949 . S
C2213 C2214 1.349 . S
C2213 C2215 1.327 . S
C2213 H2236 0.950 . S
C2214 C2213 1.349 . S
C2214 C2226 1.349 . S
C2215 C2213 1.327 . S
C2215 C2231 1.429 . S
C2215 H2237 0.950 . S
C2216 H2212 0.949 . S
C2216 C2224 1.574 . S
C2216 C2232 1.368 . S
H2217 C2225 0.950 . S
H2218 C2223 0.950 . S
H2219 C2224 0.949 . S
H2220 C2226 0.950 . S
H2221 C2227 0.950 . S
H2222 C2228 0.949 . S
C2223 H2218 0.950 . S
C2223 C2225 1.327 . S
C2223 C2229 1.429 . S
C2224 C2216 1.574 . S
C2224 H2219 0.949 . S
C2224 C2230 1.368 . S
C2225 C2209 1.349 . S
C2225 H2217 0.950 . S
C2225 C2223 1.327 . S
C2226 C2214 1.349 . S
C2226 H2220 0.950 . S
C2226 C2227 1.327 . S
C2227 H2221 0.950 . S
C2227 C2226 1.327 . S
C2227 C2231 1.429 . S
C2228 C2211 1.574 . S
C2228 H2222 0.949 . S
C2228 C2232 1.368 . S
C2229 C2210 1.429 . S
C2229 C2223 1.429 . S
C2229 C2230 1.523 . S
C2230 C2211 1.368 . S
C2230 C2224 1.368 . S
C2230 C2229 1.523 . S
C2231 C2215 1.429 . S
C2231 C2227 1.429 . S
C2231 C2232 1.523 . S
C2232 C2216 1.368 . S
C2232 C2228 1.368 . S
C2232 C2231 1.523 . S
H2233 C2208 0.950 . S
H2234 C2210 0.950 . S
H2235 C2211 0.949 . S
H2236 C2213 0.950 . S
H2237 C2215 0.950 . S
C2238 C2239 1.349 . S
C2238 C2240 1.327 . S
C2238 H2263 0.950 . S
C2239 C2238 1.349 . S
C2239 C2255 1.349 . S
C2240 C2238 1.327 . S
C2240 C2259 1.429 . S
C2240 H2264 0.950 . S
C2241 C2258 1.574 . S
C2241 C2260 1.368 . S
C2241 H2265 0.949 . S
H2242 C2246 0.949 . S
C2243 C2244 1.349 . S
C2243 C2245 1.327 . S
C2243 H2266 0.950 . S
C2244 C2243 1.349 . S
C2244 C2256 1.349 . S
C2245 C2243 1.327 . S
C2245 C2261 1.429 . S
C2245 H2267 0.950 . S
C2246 H2242 0.949 . S
C2246 C2254 1.574 . S
C2246 C2262 1.368 . S
H2247 C2255 0.950 . S
H2248 C2253 0.950 . S
H2249 C2254 0.949 . S
H2250 C2256 0.950 . S
H2251 C2257 0.950 . S
H2252 C2258 0.949 . S
C2253 H2248 0.950 . S
C2253 C2255 1.327 . S
C2253 C2259 1.429 . S
C2254 C2246 1.574 . S
C2254 H2249 0.949 . S
C2254 C2260 1.368 . S
C2255 C2239 1.349 . S
C2255 H2247 0.950 . S
C2255 C2253 1.327 . S
C2256 C2244 1.349 . S
C2256 H2250 0.950 . S
C2256 C2257 1.327 . S
C2257 H2251 0.950 . S
C2257 C2256 1.327 . S
C2257 C2261 1.429 . S
C2258 C2241 1.574 . S
C2258 H2252 0.949 . S
C2258 C2262 1.368 . S
C2259 C2240 1.429 . S
C2259 C2253 1.429 . S
C2259 C2260 1.523 . S
C2260 C2241 1.368 . S
C2260 C2254 1.368 . S
C2260 C2259 1.523 . S
C2261 C2245 1.429 . S
C2261 C2257 1.429 . S
C2261 C2262 1.523 . S
C2262 C2246 1.368 . S
C2262 C2258 1.368 . S
C2262 C2261 1.523 . S
H2263 C2238 0.950 . S
H2264 C2240 0.950 . S
H2265 C2241 0.949 . S
H2266 C2243 0.950 . S
H2267 C2245 0.950 . S
C2268 C2269 1.349 . S
C2268 C2270 1.327 . S
C2268 H2293 0.950 . S
C2269 C2268 1.349 . S
C2269 C2285 1.349 . S
C2270 C2268 1.327 . S
C2270 C2289 1.429 . S
C2270 H2294 0.950 . S
C2271 C2288 1.574 . S
C2271 C2290 1.368 . S
C2271 H2295 0.949 . S
H2272 C2276 0.949 . S
C2273 C2274 1.349 . S
C2273 C2275 1.327 . S
C2273 H2296 0.950 . S
C2274 C2273 1.349 . S
C2274 C2286 1.349 . S
C2275 C2273 1.327 . S
C2275 C2291 1.429 . S
C2275 H2297 0.950 . S
C2276 H2272 0.949 . S
C2276 C2284 1.574 . S
C2276 C2292 1.368 . S
H2277 C2285 0.950 . S
H2278 C2283 0.950 . S
H2279 C2284 0.949 . S
H2280 C2286 0.950 . S
H2281 C2287 0.950 . S
H2282 C2288 0.949 . S
C2283 H2278 0.950 . S
C2283 C2285 1.327 . S
C2283 C2289 1.429 . S
C2284 C2276 1.574 . S
C2284 H2279 0.949 . S
C2284 C2290 1.368 . S
C2285 C2269 1.349 . S
C2285 H2277 0.950 . S
C2285 C2283 1.327 . S
C2286 C2274 1.349 . S
C2286 H2280 0.950 . S
C2286 C2287 1.327 . S
C2287 H2281 0.950 . S
C2287 C2286 1.327 . S
C2287 C2291 1.429 . S
C2288 C2271 1.574 . S
C2288 H2282 0.949 . S
C2288 C2292 1.368 . S
C2289 C2270 1.429 . S
C2289 C2283 1.429 . S
C2289 C2290 1.523 . S
C2290 C2271 1.368 . S
C2290 C2284 1.368 . S
C2290 C2289 1.523 . S
C2291 C2275 1.429 . S
C2291 C2287 1.429 . S
C2291 C2292 1.523 . S
C2292 C2276 1.368 . S
C2292 C2288 1.368 . S
C2292 C2291 1.523 . S
H2293 C2268 0.950 . S
H2294 C2270 0.950 . S
H2295 C2271 0.949 . S
H2296 C2273 0.950 . S
H2297 C2275 0.950 . S
C2298 C2299 1.349 . S
C2298 C2300 1.327 . S
C2298 H2323 0.950 . S
C2299 C2298 1.349 . S
C2299 C2315 1.349 . S
C2300 C2298 1.327 . S
C2300 C2319 1.429 . S
C2300 H2324 0.950 . S
C2301 C2318 1.574 . S
C2301 C2320 1.368 . S
C2301 H2325 0.949 . S
H2302 C2306 0.949 . S
C2303 C2304 1.349 . S
C2303 C2305 1.327 . S
C2303 H2326 0.950 . S
C2304 C2303 1.349 . S
C2304 C2316 1.349 . S
C2305 C2303 1.327 . S
C2305 C2321 1.429 . S
C2305 H2327 0.950 . S
C2306 H2302 0.949 . S
C2306 C2314 1.574 . S
C2306 C2322 1.368 . S
H2307 C2315 0.950 . S
H2308 C2313 0.950 . S
H2309 C2314 0.949 . S
H2310 C2316 0.950 . S
H2311 C2317 0.950 . S
H2312 C2318 0.949 . S
C2313 H2308 0.950 . S
C2313 C2315 1.327 . S
C2313 C2319 1.429 . S
C2314 C2306 1.574 . S
C2314 H2309 0.949 . S
C2314 C2320 1.368 . S
C2315 C2299 1.349 . S
C2315 H2307 0.950 . S
C2315 C2313 1.327 . S
C2316 C2304 1.349 . S
C2316 H2310 0.950 . S
C2316 C2317 1.327 . S
C2317 H2311 0.950 . S
C2317 C2316 1.327 . S
C2317 C2321 1.429 . S
C2318 C2301 1.574 . S
C2318 H2312 0.949 . S
C2318 C2322 1.368 . S
C2319 C2300 1.429 . S
C2319 C2313 1.429 . S
C2319 C2320 1.523 . S
C2320 C2301 1.368 . S
C2320 C2314 1.368 . S
C2320 C2319 1.523 . S
C2321 C2305 1.429 . S
C2321 C2317 1.429 . S
C2321 C2322 1.523 . S
C2322 C2306 1.368 . S
C2322 C2318 1.368 . S
C2322 C2321 1.523 . S
H2323 C2298 0.950 . S
H2324 C2300 0.950 . S
H2325 C2301 0.949 . S
H2326 C2303 0.950 . S
H2327 C2305 0.950 . S
C2328 C2329 1.349 . S
C2328 C2330 1.327 . S
C2328 H2353 0.950 . S
C2329 C2328 1.349 . S
C2329 C2345 1.349 . S
C2330 C2328 1.327 . S
C2330 C2349 1.429 . S
C2330 H2354 0.950 . S
C2331 C2348 1.574 . S
C2331 C2350 1.368 . S
C2331 H2355 0.949 . S
H2332 C2336 0.949 . S
C2333 C2334 1.349 . S
C2333 C2335 1.327 . S
C2333 H2356 0.950 . S
C2334 C2333 1.349 . S
C2334 C2346 1.349 . S
C2335 C2333 1.327 . S
C2335 C2351 1.429 . S
C2335 H2357 0.950 . S
C2336 H2332 0.949 . S
C2336 C2344 1.574 . S
C2336 C2352 1.368 . S
H2337 C2345 0.950 . S
H2338 C2343 0.950 . S
H2339 C2344 0.949 . S
H2340 C2346 0.995 . S
H2341 C2347 0.950 . S
H2342 C2348 0.949 . S
C2343 H2338 0.950 . S
C2343 C2345 1.327 . S
C2343 C2349 1.429 . S
C2344 C2336 1.574 . S
C2344 H2339 0.949 . S
C2344 C2350 1.368 . S
C2345 C2329 1.349 . S
C2345 H2337 0.950 . S
C2345 C2343 1.327 . S
C2346 C2334 1.349 . S
C2346 H2340 0.995 . S
C2346 C2347 1.327 . S
C2347 H2341 0.950 . S
C2347 C2346 1.327 . S
C2347 C2351 1.429 . S
C2348 C2331 1.574 . S
C2348 H2342 0.949 . S
C2348 C2352 1.368 . S
C2349 C2330 1.429 . S
C2349 C2343 1.429 . S
C2349 C2350 1.523 . S
C2350 C2331 1.368 . S
C2350 C2344 1.368 . S
C2350 C2349 1.523 . S
C2351 C2335 1.429 . S
C2351 C2347 1.429 . S
C2351 C2352 1.523 . S
C2352 C2336 1.368 . S
C2352 C2348 1.368 . S
C2352 C2351 1.523 . S
H2353 C2328 0.950 . S
H2354 C2330 0.950 . S
H2355 C2331 0.949 . S
H2356 C2333 0.950 . S
H2357 C2335 0.950 . S
C2358 C2359 1.349 . S
C2358 C2360 1.327 . S
C2358 H2383 0.950 . S
C2359 C2358 1.349 . S
C2359 C2375 1.349 . S
C2360 C2358 1.327 . S
C2360 C2379 1.429 . S
C2360 H2384 0.950 . S
C2361 C2378 1.574 . S
C2361 C2380 1.368 . S
C2361 H2385 0.949 . S
H2362 C2366 0.949 . S
C2363 C2364 1.349 . S
C2363 C2365 1.327 . S
C2363 H2386 0.950 . S
C2364 C2363 1.349 . S
C2364 C2376 1.349 . S
C2365 C2363 1.327 . S
C2365 C2381 1.429 . S
C2365 H2387 0.950 . S
C2366 H2362 0.949 . S
C2366 C2374 1.574 . S
C2366 C2382 1.368 . S
H2367 C2375 0.950 . S
H2368 C2373 0.950 . S
H2369 C2374 0.949 . S
H2370 C2376 0.950 . S
H2371 C2377 0.950 . S
H2372 C2378 0.949 . S
C2373 H2368 0.950 . S
C2373 C2375 1.327 . S
C2373 C2379 1.429 . S
C2374 C2366 1.574 . S
C2374 H2369 0.949 . S
C2374 C2380 1.368 . S
C2375 C2359 1.349 . S
C2375 H2367 0.950 . S
C2375 C2373 1.327 . S
C2376 C2364 1.349 . S
C2376 H2370 0.950 . S
C2376 C2377 1.327 . S
C2377 H2371 0.950 . S
C2377 C2376 1.327 . S
C2377 C2381 1.429 . S
C2378 C2361 1.574 . S
C2378 H2372 0.949 . S
C2378 C2382 1.368 . S
C2379 C2360 1.429 . S
C2379 C2373 1.429 . S
C2379 C2380 1.523 . S
C2380 C2361 1.368 . S
C2380 C2374 1.368 . S
C2380 C2379 1.523 . S
C2381 C2365 1.429 . S
C2381 C2377 1.429 . S
C2381 C2382 1.523 . S
C2382 C2366 1.368 . S
C2382 C2378 1.368 . S
C2382 C2381 1.523 . S
H2383 C2358 0.950 . S
H2384 C2360 0.950 . S
H2385 C2361 0.949 . S
H2386 C2363 0.950 . S
H2387 C2365 0.950 . S
C2388 C2389 1.349 . S
C2388 C2390 1.327 . S
C2388 H2413 0.950 . S
C2389 C2388 1.349 . S
C2389 C2405 1.349 . S
C2390 C2388 1.327 . S
C2390 C2409 1.429 . S
C2390 H2414 0.950 . S
C2391 C2408 1.574 . S
C2391 C2410 1.368 . S
C2391 H2415 0.949 . S
H2392 C2396 0.949 . S
C2393 C2394 1.349 . S
C2393 C2395 1.327 . S
C2393 H2416 0.950 . S
C2394 C2393 1.349 . S
C2394 C2406 1.349 . S
C2395 C2393 1.327 . S
C2395 C2411 1.429 . S
C2395 H2417 0.950 . S
C2396 H2392 0.949 . S
C2396 C2404 1.574 . S
C2396 C2412 1.368 . S
H2397 C2405 0.950 . S
H2398 C2403 0.950 . S
H2399 C2404 0.949 . S
H2400 C2406 0.950 . S
H2401 C2407 0.950 . S
H2402 C2408 0.949 . S
C2403 H2398 0.950 . S
C2403 C2405 1.327 . S
C2403 C2409 1.429 . S
C2404 C2396 1.574 . S
C2404 H2399 0.949 . S
C2404 C2410 1.368 . S
C2405 C2389 1.349 . S
C2405 H2397 0.950 . S
C2405 C2403 1.327 . S
C2406 C2394 1.349 . S
C2406 H2400 0.950 . S
C2406 C2407 1.327 . S
C2407 H2401 0.950 . S
C2407 C2406 1.327 . S
C2407 C2411 1.429 . S
C2408 C2391 1.574 . S
C2408 H2402 0.949 . S
C2408 C2412 1.368 . S
C2409 C2390 1.429 . S
C2409 C2403 1.429 . S
C2409 C2410 1.523 . S
C2410 C2391 1.368 . S
C2410 C2404 1.368 . S
C2410 C2409 1.523 . S
C2411 C2395 1.429 . S
C2411 C2407 1.429 . S
C2411 C2412 1.523 . S
C2412 C2396 1.368 . S
C2412 C2408 1.368 . S
C2412 C2411 1.523 . S
H2413 C2388 0.950 . S
H2414 C2390 0.950 . S
H2415 C2391 0.949 . S
H2416 C2393 0.950 . S
H2417 C2395 0.950 . S
C2418 C2419 1.349 . S
C2418 C2420 1.327 . S
C2418 H2443 0.950 . S
C2419 C2418 1.349 . S
C2419 C2435 1.349 . S
C2420 C2418 1.327 . S
C2420 C2439 1.429 . S
C2420 H2444 0.950 . S
C2421 C2438 1.574 . S
C2421 C2440 1.368 . S
C2421 H2445 0.949 . S
H2422 C2426 0.949 . S
C2423 C2424 1.349 . S
C2423 C2425 1.327 . S
C2423 H2446 0.950 . S
C2424 C2423 1.349 . S
C2424 C2436 1.349 . S
C2425 C2423 1.327 . S
C2425 C2441 1.429 . S
C2425 H2447 0.950 . S
C2426 H2422 0.949 . S
C2426 C2434 1.574 . S
C2426 C2442 1.368 . S
H2427 C2435 0.950 . S
H2428 C2433 0.950 . S
H2429 C2434 0.949 . S
H2430 C2436 0.950 . S
H2431 C2437 0.950 . S
H2432 C2438 0.949 . S
C2433 H2428 0.950 . S
C2433 C2435 1.327 . S
C2433 C2439 1.429 . S
C2434 C2426 1.574 . S
C2434 H2429 0.949 . S
C2434 C2440 1.368 . S
C2435 C2419 1.349 . S
C2435 H2427 0.950 . S
C2435 C2433 1.327 . S
C2436 C2424 1.349 . S
C2436 H2430 0.950 . S
C2436 C2437 1.327 . S
C2437 H2431 0.950 . S
C2437 C2436 1.327 . S
C2437 C2441 1.429 . S
C2438 C2421 1.574 . S
C2438 H2432 0.949 . S
C2438 C2442 1.368 . S
C2439 C2420 1.429 . S
C2439 C2433 1.429 . S
C2439 C2440 1.523 . S
C2440 C2421 1.368 . S
C2440 C2434 1.368 . S
C2440 C2439 1.523 . S
C2441 C2425 1.429 . S
C2441 C2437 1.429 . S
C2441 C2442 1.523 . S
C2442 C2426 1.368 . S
C2442 C2438 1.368 . S
C2442 C2441 1.523 . S
H2443 C2418 0.950 . S
H2444 C2420 0.950 . S
H2445 C2421 0.949 . S
H2446 C2423 0.950 . S
H2447 C2425 0.950 . S
C2448 C2449 1.349 . S
C2448 C2450 1.327 . S
C2448 H2473 0.950 . S
C2449 C2448 1.349 . S
C2449 C2465 1.349 . S
C2450 C2448 1.327 . S
C2450 C2469 1.429 . S
C2450 H2474 0.950 . S
C2451 C2468 1.574 . S
C2451 C2470 1.368 . S
C2451 H2475 0.949 . S
H2452 C2456 0.949 . S
C2453 C2454 1.349 . S
C2453 C2455 1.327 . S
C2453 H2476 0.950 . S
C2454 C2453 1.349 . S
C2454 C2466 1.349 . S
C2455 C2453 1.327 . S
C2455 C2471 1.429 . S
C2455 H2477 0.950 . S
C2456 H2452 0.949 . S
C2456 C2464 1.574 . S
C2456 C2472 1.368 . S
H2457 C2465 0.950 . S
H2458 C2463 0.950 . S
H2459 C2464 0.949 . S
H2460 C2466 0.950 . S
H2461 C2467 0.950 . S
H2462 C2468 0.949 . S
C2463 H2458 0.950 . S
C2463 C2465 1.327 . S
C2463 C2469 1.429 . S
C2464 C2456 1.574 . S
C2464 H2459 0.949 . S
C2464 C2470 1.368 . S
C2465 C2449 1.349 . S
C2465 H2457 0.950 . S
C2465 C2463 1.327 . S
C2466 C2454 1.349 . S
C2466 H2460 0.950 . S
C2466 C2467 1.327 . S
C2467 H2461 0.950 . S
C2467 C2466 1.327 . S
C2467 C2471 1.429 . S
C2468 C2451 1.574 . S
C2468 H2462 0.949 . S
C2468 C2472 1.368 . S
C2469 C2450 1.429 . S
C2469 C2463 1.429 . S
C2469 C2470 1.523 . S
C2470 C2451 1.368 . S
C2470 C2464 1.368 . S
C2470 C2469 1.523 . S
C2471 C2455 1.429 . S
C2471 C2467 1.429 . S
C2471 C2472 1.523 . S
C2472 C2456 1.368 . S
C2472 C2468 1.368 . S
C2472 C2471 1.523 . S
H2473 C2448 0.950 . S
H2474 C2450 0.950 . S
H2475 C2451 0.949 . S
H2476 C2453 0.950 . S
H2477 C2455 0.950 . S
C2478 C2479 1.349 . S
C2478 C2480 1.327 . S
C2478 H2503 0.950 . S
C2479 C2478 1.349 . S
C2479 C2495 1.349 . S
C2480 C2478 1.327 . S
C2480 C2499 1.429 . S
C2480 H2504 0.950 . S
C2481 C2498 1.574 . S
C2481 C2500 1.368 . S
C2481 H2505 0.949 . S
H2482 C2486 0.949 . S
C2483 C2484 1.349 . S
C2483 C2485 1.327 . S
C2483 H2506 0.950 . S
C2484 C2483 1.349 . S
C2484 C2496 1.349 . S
C2485 C2483 1.327 . S
C2485 C2501 1.429 . S
C2485 H2507 0.950 . S
C2486 H2482 0.949 . S
C2486 C2494 1.574 . S
C2486 C2502 1.368 . S
H2487 C2495 0.950 . S
H2488 C2493 0.950 . S
H2489 C2494 0.949 . S
H2490 C2496 0.950 . S
H2491 C2497 0.950 . S
H2492 C2498 0.949 . S
C2493 H2488 0.950 . S
C2493 C2495 1.327 . S
C2493 C2499 1.429 . S
C2494 C2486 1.574 . S
C2494 H2489 0.949 . S
C2494 C2500 1.368 . S
C2495 C2479 1.349 . S
C2495 H2487 0.950 . S
C2495 C2493 1.327 . S
C2496 C2484 1.349 . S
C2496 H2490 0.950 . S
C2496 C2497 1.327 . S
C2497 H2491 0.950 . S
C2497 C2496 1.327 . S
C2497 C2501 1.429 . S
C2498 C2481 1.574 . S
C2498 H2492 0.949 . S
C2498 C2502 1.368 . S
C2499 C2480 1.429 . S
C2499 C2493 1.429 . S
C2499 C2500 1.523 . S
C2500 C2481 1.368 . S
C2500 C2494 1.368 . S
C2500 C2499 1.523 . S
C2501 C2485 1.429 . S
C2501 C2497 1.429 . S
C2501 C2502 1.523 . S
C2502 C2486 1.368 . S
C2502 C2498 1.368 . S
C2502 C2501 1.523 . S
H2503 C2478 0.950 . S
H2504 C2480 0.950 . S
H2505 C2481 0.949 . S
H2506 C2483 0.950 . S
H2507 C2485 0.950 . S
C2508 C2509 1.349 . S
C2508 C2510 1.327 . S
C2508 H2533 0.950 . S
C2509 C2508 1.349 . S
C2509 C2525 1.349 . S
C2510 C2508 1.327 . S
C2510 C2529 1.429 . S
C2510 H2534 0.950 . S
C2511 C2528 1.574 . S
C2511 C2530 1.368 . S
C2511 H2535 0.949 . S
H2512 C2516 0.949 . S
C2513 C2514 1.349 . S
C2513 C2515 1.327 . S
C2513 H2536 0.950 . S
C2514 C2513 1.349 . S
C2514 C2526 1.349 . S
C2515 C2513 1.327 . S
C2515 C2531 1.429 . S
C2515 H2537 0.950 . S
C2516 H2512 0.949 . S
C2516 C2524 1.574 . S
C2516 C2532 1.368 . S
H2517 C2525 0.950 . S
H2518 C2523 0.950 . S
H2519 C2524 0.949 . S
H2520 C2526 0.950 . S
H2521 C2527 0.950 . S
H2522 C2528 0.949 . S
C2523 H2518 0.950 . S
C2523 C2525 1.327 . S
C2523 C2529 1.429 . S
C2524 C2516 1.574 . S
C2524 H2519 0.949 . S
C2524 C2530 1.368 . S
C2525 C2509 1.349 . S
C2525 H2517 0.950 . S
C2525 C2523 1.327 . S
C2526 C2514 1.349 . S
C2526 H2520 0.950 . S
C2526 C2527 1.327 . S
C2527 H2521 0.950 . S
C2527 C2526 1.327 . S
C2527 C2531 1.429 . S
C2528 C2511 1.574 . S
C2528 H2522 0.949 . S
C2528 C2532 1.368 . S
C2529 C2510 1.429 . S
C2529 C2523 1.429 . S
C2529 C2530 1.523 . S
C2530 C2511 1.368 . S
C2530 C2524 1.368 . S
C2530 C2529 1.523 . S
C2531 C2515 1.429 . S
C2531 C2527 1.429 . S
C2531 C2532 1.523 . S
C2532 C2516 1.368 . S
C2532 C2528 1.368 . S
C2532 C2531 1.523 . S
H2533 C2508 0.950 . S
H2534 C2510 0.950 . S
H2535 C2511 0.949 . S
H2536 C2513 0.950 . S
H2537 C2515 0.950 . S
C2538 C2539 1.349 . S
C2538 C2540 1.327 . S
C2538 H2563 0.950 . S
C2539 C2538 1.349 . S
C2539 C2555 1.349 . S
C2540 C2538 1.327 . S
C2540 C2559 1.429 . S
C2540 H2564 0.950 . S
C2541 C2558 1.574 . S
C2541 C2560 1.368 . S
C2541 H2565 0.949 . S
H2542 C2546 0.949 . S
C2543 C2544 1.349 . S
C2543 C2545 1.327 . S
C2543 H2566 0.950 . S
C2544 C2543 1.349 . S
C2544 C2556 1.349 . S
C2545 C2543 1.327 . S
C2545 C2561 1.429 . S
C2545 H2567 0.950 . S
C2546 H2542 0.949 . S
C2546 C2554 1.574 . S
C2546 C2562 1.368 . S
H2547 C2555 0.950 . S
H2548 C2553 0.950 . S
H2549 C2554 0.949 . S
H2550 C2556 0.950 . S
H2551 C2557 0.950 . S
H2552 C2558 0.949 . S
C2553 H2548 0.950 . S
C2553 C2555 1.327 . S
C2553 C2559 1.429 . S
C2554 C2546 1.574 . S
C2554 H2549 0.949 . S
C2554 C2560 1.368 . S
C2555 C2539 1.349 . S
C2555 H2547 0.950 . S
C2555 C2553 1.327 . S
C2556 C2544 1.349 . S
C2556 H2550 0.950 . S
C2556 C2557 1.327 . S
C2557 H2551 0.950 . S
C2557 C2556 1.327 . S
C2557 C2561 1.429 . S
C2558 C2541 1.574 . S
C2558 H2552 0.949 . S
C2558 C2562 1.368 . S
C2559 C2540 1.429 . S
C2559 C2553 1.429 . S
C2559 C2560 1.523 . S
C2560 C2541 1.368 . S
C2560 C2554 1.368 . S
C2560 C2559 1.523 . S
C2561 C2545 1.429 . S
C2561 C2557 1.429 . S
C2561 C2562 1.523 . S
C2562 C2546 1.368 . S
C2562 C2558 1.368 . S
C2562 C2561 1.523 . S
H2563 C2538 0.950 . S
H2564 C2540 0.950 . S
H2565 C2541 0.949 . S
H2566 C2543 0.950 . S
H2567 C2545 0.950 . S
C2568 C2569 1.349 . S
C2568 C2570 1.327 . S
C2568 H2593 0.950 . S
C2569 C2568 1.349 . S
C2569 C2585 1.349 . S
C2570 C2568 1.327 . S
C2570 C2589 1.429 . S
C2570 H2594 0.950 . S
C2571 C2588 1.574 . S
C2571 C2590 1.368 . S
C2571 H2595 0.949 . S
H2572 C2576 0.949 . S
C2573 C2574 1.349 . S
C2573 C2575 1.327 . S
C2573 H2596 0.950 . S
C2574 C2573 1.349 . S
C2574 C2586 1.349 . S
C2575 C2573 1.327 . S
C2575 C2591 1.429 . S
C2575 H2597 0.950 . S
C2576 H2572 0.949 . S
C2576 C2584 1.574 . S
C2576 C2592 1.368 . S
H2577 C2585 0.950 . S
H2578 C2583 0.950 . S
H2579 C2584 0.949 . S
H2580 C2586 0.950 . S
H2581 C2587 0.950 . S
H2582 C2588 0.949 . S
C2583 H2578 0.950 . S
C2583 C2585 1.327 . S
C2583 C2589 1.429 . S
C2584 C2576 1.574 . S
C2584 H2579 0.949 . S
C2584 C2590 1.368 . S
C2585 C2569 1.349 . S
C2585 H2577 0.950 . S
C2585 C2583 1.327 . S
C2586 C2574 1.349 . S
C2586 H2580 0.950 . S
C2586 C2587 1.327 . S
C2587 H2581 0.950 . S
C2587 C2586 1.327 . S
C2587 C2591 1.429 . S
C2588 C2571 1.574 . S
C2588 H2582 0.949 . S
C2588 C2592 1.368 . S
C2589 C2570 1.429 . S
C2589 C2583 1.429 . S
C2589 C2590 1.523 . S
C2590 C2571 1.368 . S
C2590 C2584 1.368 . S
C2590 C2589 1.523 . S
C2591 C2575 1.429 . S
C2591 C2587 1.429 . S
C2591 C2592 1.523 . S
C2592 C2576 1.368 . S
C2592 C2588 1.368 . S
C2592 C2591 1.523 . S
H2593 C2568 0.950 . S
H2594 C2570 0.950 . S
H2595 C2571 0.949 . S
H2596 C2573 0.950 . S
H2597 C2575 0.950 . S
C2598 C2599 1.349 . S
C2598 C2600 1.327 . S
C2598 H2623 0.950 . S
C2599 C2598 1.349 . S
C2599 C2615 1.349 . S
C2600 C2598 1.327 . S
C2600 C2619 1.429 . S
C2600 H2624 0.950 . S
C2601 C2618 1.574 . S
C2601 C2620 1.368 . S
C2601 H2625 0.949 . S
H2602 C2606 0.949 . S
C2603 C2604 1.349 . S
C2603 C2605 1.327 . S
C2603 H2626 0.950 . S
C2604 C2603 1.349 . S
C2604 C2616 1.349 . S
C2605 C2603 1.327 . S
C2605 C2621 1.429 . S
C2605 H2627 0.950 . S
C2606 H2602 0.949 . S
C2606 C2614 1.574 . S
C2606 C2622 1.368 . S
H2607 C2615 0.950 . S
H2608 C2613 0.950 . S
H2609 C2614 0.949 . S
H2610 C2616 0.950 . S
H2611 C2617 0.950 . S
H2612 C2618 0.949 . S
C2613 H2608 0.950 . S
C2613 C2615 1.327 . S
C2613 C2619 1.429 . S
C2614 C2606 1.574 . S
C2614 H2609 0.949 . S
C2614 C2620 1.368 . S
C2615 C2599 1.349 . S
C2615 H2607 0.950 . S
C2615 C2613 1.327 . S
C2616 C2604 1.349 . S
C2616 H2610 0.950 . S
C2616 C2617 1.327 . S
C2617 H2611 0.950 . S
C2617 C2616 1.327 . S
C2617 C2621 1.429 . S
C2618 C2601 1.574 . S
C2618 H2612 0.949 . S
C2618 C2622 1.368 . S
C2619 C2600 1.429 . S
C2619 C2613 1.429 . S
C2619 C2620 1.523 . S
C2620 C2601 1.368 . S
C2620 C2614 1.368 . S
C2620 C2619 1.523 . S
C2621 C2605 1.429 . S
C2621 C2617 1.429 . S
C2621 C2622 1.523 . S
C2622 C2606 1.368 . S
C2622 C2618 1.368 . S
C2622 C2621 1.523 . S
H2623 C2598 0.950 . S
H2624 C2600 0.950 . S
H2625 C2601 0.949 . S
H2626 C2603 0.950 . S
H2627 C2605 0.950 . S
C2628 C2629 1.349 . S
C2628 C2630 1.327 . S
C2628 H2653 0.950 . S
C2629 C2628 1.349 . S
C2629 C2645 1.349 . S
C2630 C2628 1.327 . S
C2630 C2649 1.429 . S
C2630 H2654 0.950 . S
C2631 C2648 1.574 . S
C2631 C2650 1.368 . S
C2631 H2655 0.949 . S
H2632 C2636 0.949 . S
C2633 C2634 1.349 . S
C2633 C2635 1.327 . S
C2633 H2656 0.950 . S
C2634 C2633 1.349 . S
C2634 C2646 1.349 . S
C2635 C2633 1.327 . S
C2635 C2651 1.429 . S
C2635 H2657 0.950 . S
C2636 H2632 0.949 . S
C2636 C2644 1.574 . S
C2636 C2652 1.368 . S
H2637 C2645 0.950 . S
H2638 C2643 0.950 . S
H2639 C2644 0.949 . S
H2640 C2646 0.950 . S
H2641 C2647 0.950 . S
H2642 C2648 0.949 . S
C2643 H2638 0.950 . S
C2643 C2645 1.327 . S
C2643 C2649 1.429 . S
C2644 C2636 1.574 . S
C2644 H2639 0.949 . S
C2644 C2650 1.368 . S
C2645 C2629 1.349 . S
C2645 H2637 0.950 . S
C2645 C2643 1.327 . S
C2646 C2634 1.349 . S
C2646 H2640 0.950 . S
C2646 C2647 1.327 . S
C2647 H2641 0.950 . S
C2647 C2646 1.327 . S
C2647 C2651 1.429 . S
C2648 C2631 1.574 . S
C2648 H2642 0.949 . S
C2648 C2652 1.368 . S
C2649 C2630 1.429 . S
C2649 C2643 1.429 . S
C2649 C2650 1.523 . S
C2650 C2631 1.368 . S
C2650 C2644 1.368 . S
C2650 C2649 1.523 . S
C2651 C2635 1.429 . S
C2651 C2647 1.429 . S
C2651 C2652 1.523 . S
C2652 C2636 1.368 . S
C2652 C2648 1.368 . S
C2652 C2651 1.523 . S
H2653 C2628 0.950 . S
H2654 C2630 0.950 . S
H2655 C2631 0.949 . S
H2656 C2633 0.950 . S
H2657 C2635 0.950 . S
C2658 C2659 1.349 . S
C2658 C2660 1.327 . S
C2658 H2683 0.950 . S
C2659 C2658 1.349 . S
C2659 C2675 1.349 . S
C2660 C2658 1.327 . S
C2660 C2679 1.429 . S
C2660 H2684 0.950 . S
C2661 C2678 1.574 . S
C2661 C2680 1.368 . S
C2661 H2685 0.949 . S
H2662 C2666 0.949 . S
C2663 C2664 1.349 . S
C2663 C2665 1.327 . S
C2663 H2686 0.950 . S
C2664 C2663 1.349 . S
C2664 C2676 1.349 . S
C2665 C2663 1.327 . S
C2665 C2681 1.429 . S
C2665 H2687 0.950 . S
C2666 H2662 0.949 . S
C2666 C2674 1.574 . S
C2666 C2682 1.368 . S
H2667 C2675 0.950 . S
H2668 C2673 0.950 . S
H2669 C2674 0.949 . S
H2670 C2676 0.950 . S
H2671 C2677 0.950 . S
H2672 C2678 0.949 . S
C2673 H2668 0.950 . S
C2673 C2675 1.327 . S
C2673 C2679 1.429 . S
C2674 C2666 1.574 . S
C2674 H2669 0.949 . S
C2674 C2680 1.368 . S
C2675 C2659 1.349 . S
C2675 H2667 0.950 . S
C2675 C2673 1.327 . S
C2676 C2664 1.349 . S
C2676 H2670 0.950 . S
C2676 C2677 1.327 . S
C2677 H2671 0.950 . S
C2677 C2676 1.327 . S
C2677 C2681 1.429 . S
C2678 C2661 1.574 . S
C2678 H2672 0.949 . S
C2678 C2682 1.368 . S
C2679 C2660 1.429 . S
C2679 C2673 1.429 . S
C2679 C2680 1.523 . S
C2680 C2661 1.368 . S
C2680 C2674 1.368 . S
C2680 C2679 1.523 . S
C2681 C2665 1.429 . S
C2681 C2677 1.429 . S
C2681 C2682 1.523 . S
C2682 C2666 1.368 . S
C2682 C2678 1.368 . S
C2682 C2681 1.523 . S
H2683 C2658 0.950 . S
H2684 C2660 0.950 . S
H2685 C2661 0.949 . S
H2686 C2663 0.950 . S
H2687 C2665 0.950 . S
C529 C18 0.716 . S
C534 C103 0.714 . S
C559 C30 0.716 . S
C564 C131 0.714 . S
C589 C153 0.714 . S
C594 C62 0.716 . S
C619 C74 0.716 . S
C624 C161 0.714 . S
C649 C98 0.716 . S
C654 C183 0.714 . S
C679 C118 0.716 . S
C684 C249 0.714 . S
C709 C140 0.716 . S
C714 C205 0.714 . S
C739 C172 0.716 . S
C744 C235 0.714 . S
C769 C194 0.716 . S
C774 C7 0.714 . S
C799 C51 0.714 . S
C804 C216 0.716 . S
C829 C87 0.714 . S
C834 C230 0.716 . S
C859 C260 0.716 . S
C864 C43 0.714 . S
C889 C373 0.706 . S
C894 C272 0.709 . S
C919 C294 0.710 . S
C924 C381 0.706 . S
C949 C318 0.709 . S
C954 C417 0.706 . S
C979 C425 0.706 . S
C984 C338 0.709 . S
C1009 C360 0.709 . S
C1014 C461 0.706 . S
C1039 C392 0.709 . S
C1044 C513 0.706 . S
C1069 C477 0.706 . S
C1074 C404 0.710 . S
C1099 C505 0.706 . S
C1104 C436 0.709 . S
C1129 C448 0.709 . S
C1134 C285 0.706 . S
C1159 C323 0.706 . S
C1164 C472 0.709 . S
C1189 C492 0.710 . S
C1194 C351 0.706 . S
C1219 C307 0.706 . S
C1224 C524 0.709 . S
C1249 C206 0.689 . S
C1254 C10 0.699 . S
C1279 C40 0.699 . S
C1284 C238 0.689 . S
C1309 C184 0.689 . S
C1314 C54 0.699 . S
C1339 C84 0.699 . S
C1344 C250 0.689 . S
C1369 C96 0.699 . S
C1374 C76 0.689 . S
C1399 C128 0.699 . S
C1404 C52 0.689 . S
C1429 C32 0.689 . S
C1434 C150 0.699 . S
C1459 C8 0.689 . S
C1464 C164 0.699 . S
C1489 C120 0.689 . S
C1494 C186 0.699 . S
C1519 C208 0.699 . S
C1524 C162 0.689 . S
C1549 C142 0.689 . S
C1554 C228 0.699 . S
C1579 C106 0.689 . S
C1584 C252 0.699 . S
C1609 C470 0.688 . S
C1614 C274 0.695 . S
C1639 C296 0.695 . S
C1644 C502 0.688 . S
C1669 C326 0.695 . S
C1674 C458 0.688 . S
C1699 C340 0.695 . S
C1704 C516 0.688 . S
C1729 C348 0.688 . S
C1734 C362 0.695 . S
C1759 C316 0.688 . S
C1764 C382 0.695 . S
C1789 C406 0.695 . S
C1794 C304 0.688 . S
C1819 C426 0.695 . S
C1824 C282 0.688 . S
C1849 C384 0.688 . S
C1854 C450 0.695 . S
C1879 C480 0.695 . S
C1884 C428 0.688 . S
C1909 C414 0.688 . S
C1914 C494 0.695 . S
C1939 C514 0.695 . S
C1944 C370 0.688 . S
C1969 C15 0.841 . S
C1974 C433 0.849 . S
C1999 C29 0.841 . S
C2004 C403 0.849 . S
C2029 C389 0.849 . S
C2034 C59 0.841 . S
C2059 C359 0.849 . S
C2064 C73 0.841 . S
C2089 C521 0.849 . S
C2094 C109 0.841 . S
C2119 C117 0.841 . S
C2124 C447 0.849 . S
C2149 C139 0.841 . S
C2154 C491 0.849 . S
C2179 C169 0.841 . S
C2184 C483 0.849 . S
C2209 C329 0.849 . S
C2214 C191 0.841 . S
C2239 C271 0.849 . S
C2244 C213 0.841 . S
C2269 C293 0.849 . S
C2274 C241 0.841 . S
C2299 C337 0.849 . S
C2304 C257 0.841 . S
C2329 C175 0.853 . S
C2334 C279 0.844 . S
C2359 C147 0.854 . S
C2364 C301 0.844 . S
C2389 C125 0.853 . S
C2394 C315 0.844 . S
C2419 C95 0.853 . S
C2424 C345 0.844 . S
C2449 C367 0.844 . S
C2454 C263 0.853 . S
C2479 C395 0.844 . S
C2484 C197 0.853 . S
C2509 C411 0.844 . S
C2514 C227 0.854 . S
C2539 C439 0.844 . S
C2544 C219 0.853 . S
C2569 C455 0.844 . S
C2574 C65 0.853 . S
C2599 C21 0.853 . S
C2604 C469 0.844 . S
C2629 C37 0.854 . S
C2634 C499 0.844 . S
C2659 C81 0.853 . S
C2664 C527 0.844 . S
