# Generated by pormake.
# Topology reo, (8)-cn, num edge types: 1
# Building blocks:
#     Node 0, Type 0, BuildingBlock: TAGTUT_clean_sbu_3, # of connection points: 8
#     Node 1, Type 0, BuildingBlock: TAGTUT_clean_sbu_3, # of connection points: 8
#     Node 2, Type 0, BuildingBlock: TAGTUT_clean_sbu_3, # of connection points: 8
#     Edge 3, Type (0, 0), BuildingBlock: MIFKUJ_clean_linker_0, # of connection points: 2
#     Edge 4, Type (0, 0), BuildingBlock: MIFKUJ_clean_linker_0, # of connection points: 2
#     Edge 5, Type (0, 0), BuildingBlock: MIFKUJ_clean_linker_0, # of connection points: 2
#     Edge 6, Type (0, 0), BuildingBlock: MIFKUJ_clean_linker_0, # of connection points: 2
#     Edge 7, Type (0, 0), BuildingBlock: MIFKUJ_clean_linker_0, # of connection points: 2
#     Edge 8, Type (0, 0), BuildingBlock: MIFKUJ_clean_linker_0, # of connection points: 2
#     Edge 9, Type (0, 0), BuildingBlock: MIFKUJ_clean_linker_0, # of connection points: 2
#     Edge 10, Type (0, 0), BuildingBlock: MIFKUJ_clean_linker_0, # of connection points: 2
#     Edge 11, Type (0, 0), BuildingBlock: MIFKUJ_clean_linker_0, # of connection points: 2
#     Edge 12, Type (0, 0), BuildingBlock: MIFKUJ_clean_linker_0, # of connection points: 2
#     Edge 13, Type (0, 0), BuildingBlock: MIFKUJ_clean_linker_0, # of connection points: 2
#     Edge 14, Type (0, 0), BuildingBlock: MIFKUJ_clean_linker_0, # of connection points: 2
# Relax obj value: 0.169
# Max RMSD: 0.190
# Mean RMSD: 0.190
data_MOF--net-reo--node1-TAGTUT_clean_sbu_3--edge1-MIFKUJ_clean_linker_0
_symmetry_space_group_name_H-M    P1
_symmetry_Int_Tables_number       1
_symmetry_cell_setting            triclinic
loop_
_symmetry_equiv_pos_as_xyz
'x, y, z'
_cell_length_a     29.732535
_cell_length_b     29.692736
_cell_length_c     29.712442
_cell_angle_alpha  90.896742
_cell_angle_beta   91.14974
_cell_angle_gamma 90.955549
loop_
_atom_site_label
_atom_site_type_symbol
_atom_site_fract_x
_atom_site_fract_y
_atom_site_fract_z
_atom_type_partial_charge
C0 C 0.96038 0.91485 0.54796 0.0
C1 C 0.81359 0.01322 0.53442 0.0
C2 C 0.87792 0.05769 0.41187 0.0
Mg3 Mg 0.0594 0.9367 0.50861 0.0
Mg4 Mg 0.09374 0.04216 0.49275 0.0
O5 O 0.05025 0.9969 0.47962 0.0
Mg6 Mg 0.98716 0.00708 0.49832 0.0
O7 O 0.9234 0.01348 0.51634 0.0
Mg8 Mg 0.8961 0.96554 0.47538 0.0
Mg9 Mg 0.8982 0.07121 0.51199 0.0
C10 C 0.01635 0.10052 0.44836 0.0
O11 O 0.00627 0.05703 0.55534 0.0
O12 O 0.12793 0.93597 0.47073 0.0
O13 O 0.94823 0.1053 0.55619 0.0
O14 O 0.09376 0.9675 0.57169 0.0
O15 O 0.14744 0.00877 0.46007 0.0
O16 O 0.10954 0.04062 0.5636 0.0
O17 O 0.965 0.95841 0.44207 0.0
O18 O 0.02029 0.90839 0.44805 0.0
C19 C 0.98342 0.92157 0.42991 0.0
C20 C 0.15472 0.96652 0.45566 0.0
O21 O 0.98682 0.06963 0.45539 0.0
O22 O 0.83012 0.9793 0.51338 0.0
O23 O 0.0577 0.09812 0.46162 0.0
O24 O 0.87656 0.01579 0.42095 0.0
O25 O 0.83399 0.05156 0.53762 0.0
O26 O 0.88952 0.08725 0.44165 0.0
O27 O 0.99051 0.94521 0.5413 0.0
O28 O 0.92119 0.91678 0.52923 0.0
C29 C 0.10824 0.00533 0.58742 0.0
C30 C 0.98726 0.09275 0.57006 0.0
C31 C 0.42693 0.97545 0.92104 0.0
C32 C 0.45225 0.15529 0.94949 0.0
C33 C 0.5813 0.11178 0.99166 0.0
Mg34 Mg 0.4776 0.89619 0.97641 0.0
Mg35 Mg 0.50994 0.91432 0.08241 0.0
O36 O 0.51528 0.93142 0.02149 0.0
Mg37 Mg 0.49437 0.99252 0.00614 0.0
O38 O 0.47299 0.05307 0.98848 0.0
Mg39 Mg 0.5022 0.05648 0.92804 0.0
Mg40 Mg 0.48849 0.09929 0.03048 0.0
C41 C 0.56386 0.00701 0.09332 0.0
O42 O 0.44848 -0.00187 0.06595 0.0
O43 O 0.51985 0.83532 0.00038 0.0
O44 O 0.4554 0.07052 0.08941 0.0
O45 O 0.42394 0.88068 0.02692 0.0
O46 O 0.54182 0.85085 0.07211 0.0
O47 O 0.43983 0.90239 0.0975 0.0
O48 O 0.53777 0.99007 0.94459 0.0
O49 O 0.53003 0.91725 0.92568 0.0
C50 C 0.546 0.95674 0.91828 0.0
C51 C 0.54157 0.82547 0.03678 0.0
O52 O 0.5507 0.01935 0.054 0.0
O53 O 0.46381 0.12474 0.92082 0.0
O54 O 0.54895 0.97099 0.11186 0.0
O55 O 0.56373 0.09607 0.95506 0.0
O56 O 0.45863 0.15162 0.99208 0.0
O57 O 0.55977 0.11195 0.02838 0.0
O58 O 0.44032 0.96207 0.95975 0.0
O59 O 0.44268 0.01167 0.90374 0.0
C60 C 0.41252 0.88589 0.06774 0.0
C61 C 0.43995 0.03011 0.09379 0.0
C62 C 0.91824 0.54302 0.96728 0.0
C63 C 0.0208 0.53425 0.82374 0.0
C64 C 0.06597 0.4117 0.88617 0.0
Mg65 Mg 0.94217 0.50817 0.06727 0.0
Mg66 Mg 0.04799 0.49476 0.10198 0.0
O67 O 0.00219 0.47943 0.05943 0.0
Mg68 Mg 0.01165 0.49655 0.9958 0.0
O69 O 0.01874 0.51388 0.93221 0.0
Mg70 Mg 0.97193 0.47247 0.90443 0.0
Mg71 Mg 0.07749 0.51079 0.90913 0.0
C72 C 0.10459 0.44601 0.02699 0.0
O73 O 0.05849 0.55517 0.01406 0.0
O74 O 0.94206 0.47362 0.13736 0.0
O75 O 0.11115 0.55388 0.96043 0.0
O76 O 0.97292 0.57339 0.09898 0.0
O77 O 0.01477 0.46374 0.15717 0.0
O78 O 0.04652 0.5664 0.11345 0.0
O79 O 0.96543 0.43854 0.97425 0.0
O80 O 0.91717 0.44375 0.0311 0.0
C81 C 0.93071 0.42435 0.995 0.0
C82 C 0.97259 0.45935 0.16469 0.0
O83 O 0.07342 0.45315 -0.00229 0.0
O84 O 0.9865 0.51257 0.83893 0.0
O85 O 0.10395 0.46201 0.06747 0.0
O86 O 0.02395 0.41998 0.88521 0.0
O87 O 0.05864 0.53727 0.84512 0.0
O88 O 0.09518 0.44156 0.89843 0.0
O89 O 0.94933 0.53836 -0.00285 0.0
O90 O 0.92063 0.52391 0.92844 0.0
C91 C 0.01101 0.58995 0.11214 0.0
C92 C 0.09545 0.5694 -0.00251 0.0
H93 H 0.02624 0.43649 0.2354 0.0
H94 H 0.01034 0.38162 0.29252 0.0
H95 H 0.87313 0.36832 0.24318 0.0
H96 H 0.88945 0.42276 0.18407 0.0
H97 H 0.95687 0.36967 0.36051 0.0
H98 H 0.84377 0.25138 0.25996 0.0
H99 H 0.81325 0.23759 0.18304 0.0
H100 H 0.93559 0.28963 0.12775 0.0
H101 H 0.96712 0.30299 0.20446 0.0
H102 H 0.94664 0.15296 0.47103 0.0
H103 H 0.91781 0.21813 0.43029 0.0
H104 H 0.02238 0.20319 0.33286 0.0
H105 H 0.0516 0.13828 0.37393 0.0
H106 H 0.92795 0.21604 0.2972 0.0
H107 H 0.0411 0.27694 0.40722 0.0
H108 H 0.06975 0.28849 0.48512 0.0
H109 H 0.94556 0.34991 0.52136 0.0
H110 H 0.91599 0.33812 0.44372 0.0
C111 C 0.99243 0.4225 0.23685 0.0
C112 C 0.95942 0.43328 0.2045 0.0
C113 C 0.98324 0.39128 0.26992 0.0
C114 C 0.94076 0.37018 0.2717 0.0
C115 C 0.90638 0.38364 0.24194 0.0
C116 C 0.91571 0.4149 0.20834 0.0
C117 C 0.9356 0.33097 0.30157 0.0
C118 C 0.94957 0.33617 0.34685 0.0
C119 C 0.92527 0.28717 0.2842 0.0
C120 C 0.90742 0.27891 0.23786 0.0
C121 C 0.86413 0.25986 0.23135 0.0
C122 C 0.8467 0.25205 0.18783 0.0
C123 C 0.87237 0.26298 0.15054 0.0
C124 C 0.91569 0.28137 0.1567 0.0
C125 C 0.93339 0.28902 0.20019 0.0
C126 C 0.96324 0.16365 0.44079 0.0
C127 C 0.00109 0.14089 0.42525 0.0
C128 C 0.94679 0.20066 0.41768 0.0
C129 C 0.96774 0.21492 0.37846 0.0
C130 C 0.00558 0.19217 0.36289 0.0
C131 C 0.0225 0.15561 0.38646 0.0
C132 C 0.95205 0.25508 0.35465 0.0
C133 C 0.93374 0.24973 0.31106 0.0
C134 C 0.95817 0.29871 0.37352 0.0
C135 C 0.97617 0.30616 0.41992 0.0
C136 C 0.0198 0.29256 0.43192 0.0
C137 C 0.03622 0.29921 0.47598 0.0
C138 C 0.00944 0.31978 0.50821 0.0
C139 C 0.96623 0.33389 0.49639 0.0
C140 C 0.94963 0.32724 0.45238 0.0
H141 H 0.0222 0.3249 0.54231 0.0
H142 H 0.85872 0.25701 0.1169 0.0
H143 H 0.87093 0.14343 0.37727 0.0
H144 H 0.83555 0.16354 0.3051 0.0
H145 H 0.81471 0.02223 0.27297 0.0
H146 H 0.85175 0.00231 0.34248 0.0
H147 H 0.82667 0.06332 0.19912 0.0
H148 H 0.72915 0.09712 0.33652 0.0
H149 H 0.71915 0.14362 0.40522 0.0
H150 H 0.7429 0.26375 0.32993 0.0
H151 H 0.75305 0.21782 0.26092 0.0
H152 H 0.5786 0.0163 0.18384 0.0
H153 H 0.64333 0.05245 0.22235 0.0
H154 H 0.69596 0.09271 0.09453 0.0
H155 H 0.63179 0.05531 0.0558 0.0
H156 H 0.68091 0.13538 0.22958 0.0
H157 H 0.81454 0.08418 0.10484 0.0
H158 H 0.82735 0.03116 0.04185 0.0
H159 H 0.73145 0.93782 0.09587 0.0
H160 H 0.71929 0.98966 0.16001 0.0
C161 C 0.85965 0.1168 0.35423 0.0
C162 C 0.86309 0.07127 0.36624 0.0
C163 C 0.83926 0.12832 0.31306 0.0
C164 C 0.82129 0.09446 0.28393 0.0
C165 C 0.8281 0.04918 0.29461 0.0
C166 C 0.84895 0.03775 0.33495 0.0
C167 C 0.78989 0.10408 0.24581 0.0
C168 C 0.79522 0.08025 0.20512 0.0
C169 C 0.74916 0.12685 0.25291 0.0
C170 C 0.74183 0.15423 0.29388 0.0
C171 C 0.73199 0.13347 0.33475 0.0
C172 C 0.72642 0.15968 0.37368 0.0
C173 C 0.73038 0.20661 0.37194 0.0
C174 C 0.73979 0.22743 0.33123 0.0
C175 C 0.74539 0.20136 0.29222 0.0
C176 C 0.60365 0.03341 0.16401 0.0
C177 C 0.59999 0.03336 0.11686 0.0
C178 C 0.64045 0.05441 0.18602 0.0
C179 C 0.67452 0.07538 0.16132 0.0
C180 C 0.67006 0.07687 0.11427 0.0
C181 C 0.63319 0.05583 0.09223 0.0
C182 C 0.71644 0.09099 0.1851 0.0
C183 C 0.713 0.12023 0.22241 0.0
C184 C 0.75881 0.07257 0.17512 0.0
C185 C 0.76534 0.04121 0.13662 0.0
C186 C 0.79615 0.05237 0.10319 0.0
C187 C 0.80338 0.02247 0.06736 0.0
C188 C 0.77983 0.98136 0.06454 0.0
C189 C 0.74941 0.96982 0.09788 0.0
C190 C 0.74242 -0.0006 0.13405 0.0
H191 H 0.78536 0.95834 0.03666 0.0
H192 H 0.72616 0.22684 0.40213 0.0
H193 H 0.94643 0.95135 0.35099 0.0
H194 H 0.93937 0.90655 0.28067 0.0
H195 H 0.9738 0.78697 0.35335 0.0
H196 H 0.98114 0.83113 0.42301 0.0
H197 H 0.03624 0.83697 0.27708 0.0
H198 H 0.89101 0.76669 0.32102 0.0
H199 H 0.81024 0.77152 0.33748 0.0
H200 H 0.78537 0.83112 0.20878 0.0
H201 H 0.86621 0.82718 0.19189 0.0
H202 H 0.06462 0.62533 0.17942 0.0
H203 H 0.05609 0.69759 0.21757 0.0
H204 H 0.95482 0.73421 0.11905 0.0
H205 H 0.96113 0.66019 0.0828 0.0
H206 H 0.92109 0.74503 0.19301 0.0
H207 H 0.06281 0.81612 0.14614 0.0
H208 H 0.14385 0.82726 0.13266 0.0
H209 H 0.17616 0.77306 0.26196 0.0
H210 H 0.09521 0.7644 0.27756 0.0
C211 C 0.95045 0.91518 0.3521 0.0
C212 C 0.96487 0.89455 0.39198 0.0
C213 C 0.94648 0.88976 0.31206 0.0
C214 C 0.9561 0.84367 0.31218 0.0
C215 C 0.96593 0.82248 0.35288 0.0
C216 C 0.97023 0.84772 0.39253 0.0
C217 C 0.96599 0.81929 0.27021 0.0
C218 C 0.01117 0.817 0.25823 0.0
C219 C 0.933 0.79477 0.24513 0.0
C220 C 0.88466 0.79737 0.25555 0.0
C221 C 0.86841 0.78141 0.29653 0.0
C222 C 0.8226 0.78381 0.30585 0.0
C223 C 0.79271 0.80182 0.27429 0.0
C224 C 0.80857 0.81732 0.23326 0.0
C225 C 0.85436 0.81501 0.22381 0.0
C226 C 0.04136 0.64928 0.1653 0.0
C227 C 0.01288 0.63696 0.12883 0.0
C228 C 0.03691 0.69109 0.18677 0.0
C229 C 0.00496 0.72196 0.1712 0.0
C230 C 0.97947 0.71104 0.13205 0.0
C231 C 0.98298 0.6687 0.1114 0.0
C232 C 0.99233 0.76077 0.20031 0.0
C233 C 0.94647 0.76592 0.21027 0.0
C234 C 0.02481 0.78828 0.22352 0.0
C235 C 0.07311 0.78869 0.21252 0.0
C236 C 0.08724 0.80577 0.17128 0.0
C237 C 0.13313 0.8119 0.16339 0.0
C238 C 0.16515 0.79981 0.19585 0.0
C239 C 0.15135 0.78205 0.23665 0.0
C240 C 0.1055 0.777 0.24526 0.0
H241 H 0.20059 0.80495 0.18971 0.0
H242 H 0.75725 0.8036 0.28154 0.0
H243 H 0.4433 0.06467 0.17994 0.0
H244 H 0.3978 0.0401 0.24335 0.0
H245 H 0.32471 0.94662 0.15528 0.0
H246 H 0.36929 0.97169 0.09205 0.0
H247 H 0.26951 0.97838 0.20871 0.0
H248 H 0.41117 0.91209 0.22895 0.0
H249 H 0.49387 0.90846 0.23414 0.0
H250 H 0.49485 0.99461 0.3516 0.0
H251 H 0.41214 -0.00058 0.34669 0.0
H252 H 0.16218 0.89345 0.39896 0.0
H253 H 0.21779 0.8853 0.33949 0.0
H254 H 0.28897 0.0037 0.39079 0.0
H255 H 0.2341 0.01174 0.45 0.0
H256 H 0.3465 0.94074 0.35272 0.0
H257 H 0.20137 0.01467 0.31544 0.0
H258 H 0.11847 0.01083 0.30909 0.0
H259 H 0.12595 0.8956 0.22062 0.0
H260 H 0.20897 0.89856 0.22675 0.0
C261 C 0.41731 0.03911 0.17425 0.0
C262 C 0.4105 0.01917 0.1315 0.0
C263 C 0.39167 0.0247 0.21047 0.0
C264 C 0.35901 0.99011 0.20442 0.0
C265 C 0.35053 0.9723 0.16108 0.0
C266 C 0.37614 0.98653 0.12505 0.0
C267 C 0.33372 0.97236 0.24314 0.0
C268 C 0.28657 0.96934 0.23981 0.0
C269 C 0.35571 0.95963 0.28362 0.0
C270 C 0.40543 0.95638 0.28725 0.0
C271 C 0.42902 0.93048 0.25575 0.0
C272 C 0.47591 0.92821 0.25864 0.0
C273 C 0.4996 0.95136 0.29313 0.0
C274 C 0.47644 0.97673 0.32489 0.0
C275 C 0.42954 0.97921 0.32209 0.0
C276 C 0.19069 0.91662 0.39849 0.0
C277 C 0.19353 0.95368 0.42847 0.0
C278 C 0.22229 0.91206 0.36446 0.0
C279 C 0.25694 0.94445 0.36031 0.0
C280 C 0.26242 0.97847 0.39327 0.0
C281 C 0.23087 0.98318 0.42693 0.0
C282 C 0.28271 0.94836 0.31842 0.0
C283 C 0.32986 0.94879 0.3211 0.0
C284 C 0.26087 0.95734 0.27686 0.0
C285 C 0.2112 0.95669 0.27176 0.0
C286 C 0.18528 0.98856 0.29462 0.0
C287 C 0.13832 0.98648 0.2911 0.0
C288 C 0.11698 0.95292 0.26452 0.0
C289 C 0.14257 0.92151 0.24119 0.0
C290 C 0.18955 0.92341 0.24463 0.0
H291 H 0.08062 0.95126 0.26196 0.0
H292 H 0.53591 0.94959 0.2953 0.0
H293 H 0.04333 0.88293 0.57246 0.0
H294 H 0.05901 0.81569 0.61663 0.0
H295 H 0.9167 0.79306 0.63311 0.0
H296 H 0.90062 0.85935 0.58841 0.0
H297 H 0.97589 0.78666 0.71487 0.0
H298 H 0.95812 0.73496 0.55824 0.0
H299 H 0.97837 0.73736 0.47821 0.0
H300 H 0.11462 0.70442 0.51314 0.0
H301 H 0.09531 0.70265 0.59353 0.0
H302 H 0.9432 0.56911 0.78946 0.0
H303 H 0.9378 0.63144 0.7369 0.0
H304 H 0.0808 0.6269 0.71617 0.0
H305 H 0.08659 0.56463 0.76871 0.0
H306 H 0.03035 0.64902 0.63753 0.0
H307 H 0.0525 0.6973 0.79011 0.0
H308 H 0.03918 0.69919 0.87177 0.0
H309 H 0.90392 0.74245 0.84723 0.0
H310 H 0.91632 0.74034 0.76532 0.0
C311 C 0.01542 0.86375 0.58563 0.0
C312 C 0.97072 0.87611 0.57658 0.0
C313 C 0.02445 0.82544 0.61079 0.0
C314 C 0.98891 0.7996 0.62776 0.0
C315 C 0.94445 0.81274 0.62014 0.0
C316 C 0.93538 0.85043 0.59442 0.0
C317 C -0.00251 0.75777 0.6522 0.0
C318 C 0.98746 0.75645 0.69799 0.0
C319 C 0.01407 0.71906 0.63024 0.0
C320 C 0.0254 0.71914 0.58189 0.0
C321 C 0.99248 0.72858 0.54888 0.0
C322 C 0.00376 0.72978 0.50346 0.0
C323 C 0.04778 0.72115 0.49061 0.0
C324 C 0.08056 0.71115 0.52315 0.0
C325 C 0.06946 0.71003 0.56864 0.0
C326 C 0.97324 0.58032 0.77258 0.0
C327 C 0.0154 0.56246 0.78364 0.0
C328 C 0.97016 0.6161 0.74282 0.0
C329 C 0.00908 0.63415 0.72351 0.0
C330 C 0.05049 0.61352 0.73102 0.0
C331 C 0.05369 0.57804 0.76109 0.0
C332 C 0.00723 0.67747 0.69993 0.0
C333 C 0.01888 0.67922 0.65449 0.0
C334 C 0.99296 0.71694 0.7224 0.0
C335 C 0.98518 0.71817 0.77158 0.0
C336 C 0.01978 0.70681 0.80211 0.0
C337 C 0.01245 0.70802 0.84844 0.0
C338 C 0.97069 0.72079 0.86467 0.0
C339 C 0.93623 0.7325 0.8346 0.0
C340 C 0.94341 0.73135 0.78822 0.0
H341 H 0.96508 0.72174 0.90056 0.0
H342 H 0.05647 0.72212 0.45543 0.0
H343 H 0.42363 0.94861 0.83391 0.0
H344 H 0.35504 0.93616 0.78856 0.0
H345 H 0.27595 0.94284 0.90844 0.0
H346 H 0.34507 0.95324 0.95434 0.0
H347 H 0.24112 0.88693 0.81406 0.0
H348 H 0.29211 0.03804 0.88239 0.0
H349 H 0.36133 0.08232 0.9009 0.0
H350 H 0.40076 0.07369 0.7628 0.0
H351 H 0.33211 0.02913 0.74371 0.0
H352 H 0.07444 0.97069 0.66424 0.0
H353 H 0.11577 0.95952 0.73528 0.0
H354 H 0.23274 0.02458 0.6793 0.0
H355 H 0.18999 0.03952 0.61071 0.0
H356 H 0.23666 0.0434 0.75765 0.0
H357 H 0.20385 0.89865 0.68248 0.0
H358 H 0.15293 0.83883 0.6515 0.0
H359 H 0.09491 0.82226 0.7815 0.0
H360 H 0.14509 0.88244 0.81308 0.0
C361 C 0.39182 0.94483 0.85075 0.0
C362 C 0.38924 0.95236 0.89729 0.0
C363 C 0.35271 0.93743 0.82491 0.0
C364 C 0.31054 0.9392 0.84518 0.0
C365 C 0.30824 0.94105 0.89231 0.0
C366 C 0.34767 0.94727 0.91842 0.0
C367 C 0.27164 0.95306 0.81729 0.0
C368 C 0.23928 0.92123 0.8022 0.0
C369 C 0.27019 -0.00244 0.80122 0.0
C370 C 0.30714 0.03034 0.81171 0.0
C371 C 0.31528 0.04621 0.85595 0.0
C372 C 0.35452 0.07109 0.86656 0.0
C373 C 0.38557 0.08039 0.83305 0.0
C374 C 0.37676 0.06627 0.78869 0.0
C375 C 0.33763 0.04142 0.77794 0.0
C376 C 0.10858 0.98373 0.66803 0.0
C377 C 0.12925 0.00603 0.63243 0.0
C378 C 0.13243 0.97673 0.70827 0.0
C379 C 0.17798 0.98984 0.71251 0.0
C380 C 0.19767 0.0141 0.67738 0.0
C381 C 0.17329 0.02274 0.63804 0.0
C382 C 0.20641 0.97682 0.75191 0.0
C383 C 0.23698 0.00918 0.76992 0.0
C384 C 0.20724 0.93218 0.76876 0.0
C385 C 0.17783 0.89537 0.74999 0.0
C386 C 0.18013 0.88232 0.70439 0.0
C387 C 0.15138 0.8484 0.68673 0.0
C388 C 0.1206 0.82687 0.71448 0.0
C389 C 0.11867 0.83906 0.76002 0.0
C390 C 0.14725 0.87307 0.77782 0.0
H391 H 0.09831 0.80068 0.70074 0.0
H392 H 0.41668 0.09827 0.84136 0.0
H393 H 0.14852 0.3865 0.85465 0.0
H394 H 0.16408 0.3169 0.81243 0.0
H395 H 0.02945 0.26806 0.83781 0.0
H396 H 0.01474 0.33564 0.88115 0.0
H397 H 0.08059 0.19968 0.82992 0.0
H398 H 0.05735 0.33952 0.74405 0.0
H399 H 0.0801 0.41643 0.72241 0.0
H400 H 0.20895 0.36814 0.6825 0.0
H401 H 0.18697 0.29102 0.70434 0.0
H402 H 0.95002 0.12954 0.64429 0.0
H403 H 0.98885 0.16992 0.70654 0.0
H404 H 0.1153 0.15552 0.63943 0.0
H405 H 0.07604 0.11637 0.57631 0.0
H406 H 0.10067 0.24179 0.67059 0.0
H407 H 0.09592 0.09328 0.73043 0.0
H408 H 0.0596 0.0209 0.74942 0.0
H409 H 0.96999 0.0893 0.83759 0.0
H410 H 0.00467 0.16223 0.81845 0.0
C411 C 0.12288 0.36018 0.85229 0.0
C412 C 0.07995 0.36698 0.86993 0.0
C413 C 0.13174 0.32052 0.8281 0.0
C414 C 0.09748 0.28781 0.82077 0.0
C415 C 0.05641 0.29279 0.84259 0.0
C416 C 0.0478 0.33185 0.867 0.0
C417 C 0.10013 0.25247 0.7851 0.0
C418 C 0.08556 0.20858 0.79507 0.0
C419 C 0.10773 0.26373 0.73968 0.0
C420 C 0.12078 0.30982 0.72625 0.0
C421 C 0.09056 0.34544 0.73078 0.0
C422 C 0.10331 0.38901 0.71851 0.0
C423 C 0.146 0.39719 0.70122 0.0
C424 C 0.17595 0.36177 0.69602 0.0
C425 C 0.16339 0.31815 0.70834 0.0
C426 C 0.98606 0.13512 0.64286 0.0
C427 C 0.01036 0.1191 0.60615 0.0
C428 C 0.00829 0.1576 0.6786 0.0
C429 C 0.05513 0.16451 0.67812 0.0
C430 C 0.07931 0.14961 0.64084 0.0
C431 C 0.05702 0.12695 0.60512 0.0
C432 C 0.07779 0.19024 0.71532 0.0
C433 C 0.09755 0.23202 0.70545 0.0
C434 C 0.07337 0.1775 0.76073 0.0
C435 C 0.05305 0.13338 0.773 0.0
C436 C 0.06837 0.09299 0.75375 0.0
C437 C 0.04807 0.05183 0.76453 0.0
C438 C 0.01272 0.05049 0.79475 0.0
C439 C -0.00252 0.09035 0.81428 0.0
C440 C 0.01747 0.13163 0.80351 0.0
H441 H -0.00291 0.01857 0.80298 0.0
H442 H 0.15583 0.43094 0.69175 0.0
H443 H 0.57569 0.89212 0.8608 0.0
H444 H 0.61474 0.90254 0.79052 0.0
H445 H 0.61351 0.04667 0.81098 0.0
H446 H 0.57387 0.03667 0.88173 0.0
H447 H 0.58761 0.01861 0.72323 0.0
H448 H 0.70763 0.99474 0.83013 0.0
H449 H 0.7464 0.95511 0.89161 0.0
H450 H 0.75428 0.83636 0.808 0.0
H451 H 0.71477 0.87501 0.74623 0.0
H452 H 0.76304 0.07786 0.57441 0.0
H453 H 0.70787 0.06647 0.6328 0.0
H454 H 0.71676 0.92251 0.61435 0.0
H455 H 0.77252 0.93351 0.55607 0.0
H456 H 0.73626 0.94939 0.69994 0.0
H457 H 0.6194 0.97491 0.59131 0.0
H458 H 0.57943 0.01438 0.53052 0.0
H459 H 0.56568 0.13038 0.61692 0.0
H460 H 0.60618 0.09187 0.67808 0.0
C461 C 0.58366 0.92613 0.85054 0.0
C462 C 0.57154 0.96364 0.87685 0.0
C463 C 0.60606 0.93195 0.81036 0.0
C464 C 0.61702 0.97531 0.79579 0.0
C465 C 0.60511 0.01294 0.82179 0.0
C466 C 0.58273 0.00715 0.86226 0.0
C467 C 0.64128 0.98092 0.75341 0.0
C468 C 0.6204 0.00409 0.71816 0.0
C469 C 0.68341 0.96078 0.7468 0.0
C470 C 0.70786 0.93766 0.78366 0.0
C471 C 0.71734 0.96007 0.82493 0.0
C472 C 0.73949 0.9378 0.85983 0.0
C473 C 0.75275 0.89323 0.85372 0.0
C474 C 0.74403 0.8709 0.81265 0.0
C475 C 0.72173 0.89297 0.77769 0.0
C476 C 0.75248 0.04375 0.58191 0.0
C477 C 0.77274 0.00656 0.56114 0.0
C478 C 0.72071 0.03733 0.61516 0.0
C479 C 0.70849 0.99366 0.628 0.0
C480 C 0.72598 0.95649 0.60492 0.0
C481 C 0.75769 0.96287 0.57151 0.0
C482 C 0.68261 0.98702 0.66935 0.0
C483 C 0.70334 0.96376 0.70469 0.0
C484 C 0.64047 0.00723 0.67596 0.0
C485 C 0.61622 0.03061 0.63918 0.0
C486 C 0.60825 0.00899 0.59724 0.0
C487 C 0.5854 0.03116 0.56273 0.0
C488 C 0.57012 0.0749 0.56981 0.0
C489 C 0.57758 0.09652 0.61146 0.0
C490 C 0.60044 0.07451 0.64608 0.0
H491 H 0.55242 0.092 0.54306 0.0
H492 H 0.76979 0.876 0.88081 0.0
H493 H 0.19365 0.45237 0.05248 0.0
H494 H 0.25537 0.40775 0.02238 0.0
H495 H 0.16031 0.33133 0.93877 0.0
H496 H 0.09889 0.37457 0.96982 0.0
H497 H 0.21735 0.2774 0.97155 0.0
H498 H 0.22806 0.41478 0.89451 0.0
H499 H 0.23153 0.4971 0.88534 0.0
H500 H 0.35698 0.50387 0.9595 0.0
H501 H 0.3539 0.42161 0.96981 0.0
H502 H 0.3942 0.16345 0.87715 0.0
H503 H 0.33824 0.22216 0.86808 0.0
H504 H 0.39931 0.29657 0.97983 0.0
H505 H 0.45511 0.23817 0.98885 0.0
H506 H 0.35515 0.35242 0.91501 0.0
H507 H 0.32765 0.21462 0.00467 0.0
H508 H 0.32442 0.13162 0.00822 0.0
H509 H 0.22754 0.12675 0.899 0.0
H510 H 0.23058 0.20979 0.89462 0.0
C511 C 0.18611 0.42577 0.02798 0.0
C512 C 0.1418 0.41744 0.01266 0.0
C513 C 0.22129 0.4007 0.01038 0.0
C514 C 0.21253 0.36712 0.97724 0.0
C515 C 0.16798 0.3576 0.96357 0.0
C516 C 0.13299 0.3825 0.98113 0.0
C517 C 0.24961 0.34116 0.95746 0.0
C518 C 0.24696 0.29395 0.9583 0.0
C519 C 0.28818 0.36256 0.9397 0.0
C520 C 0.29057 0.41202 0.93322 0.0
C521 C 0.25625 0.43384 0.90913 0.0
C522 C 0.25816 0.4805 0.90371 0.0
C523 C 0.29442 0.50572 0.9219 0.0
C524 C 0.3289 0.48429 0.94545 0.0
C525 C 0.32712 0.43763 0.95106 0.0
C526 C 0.39678 0.19303 0.89852 0.0
C527 C 0.42803 0.19551 0.93452 0.0
C528 C 0.36486 0.22669 0.89326 0.0
C529 C 0.3642 0.26313 0.92394 0.0
C530 C 0.39913 0.26859 0.95597 0.0
C531 C 0.43072 0.23492 0.96136 0.0
C532 C 0.32291 0.28921 0.93019 0.0
C533 C 0.32482 0.33626 0.9271 0.0
C534 C 0.28313 0.26779 0.94495 0.0
C535 C 0.27947 0.21822 0.94921 0.0
C536 C 0.30559 0.19579 0.98153 0.0
C537 C 0.30386 0.14879 0.98363 0.0
C538 C 0.27578 0.12394 0.95386 0.0
C539 C 0.24922 0.14606 0.92206 0.0
C540 C 0.25089 0.19308 0.91979 0.0
H541 H 0.27459 0.08755 0.95544 0.0
H542 H 0.29583 0.54185 0.91768 0.0
H543 H 0.05866 0.63756 0.04481 0.0
H544 H 0.09763 0.70055 0.08374 0.0
H545 H 0.22489 0.64948 0.03997 0.0
H546 H 0.186 0.58538 0.00257 0.0
H547 H 0.22984 0.68421 0.1271 0.0
H548 H 0.1763 0.72629 0.97768 0.0
H549 H 0.11643 0.73308 0.91957 0.0
H550 H 0.04221 0.81829 0.00833 0.0
H551 H 0.10141 0.8117 0.0669 0.0
H552 H 0.34363 0.87026 0.00894 0.0
H553 H 0.2742 0.83093 0.02215 0.0
H554 H 0.30301 0.83413 0.16541 0.0
H555 H 0.3764 0.87002 0.15139 0.0
H556 H 0.20119 0.83146 0.05633 0.0
H557 H 0.25968 0.74293 0.21137 0.0
H558 H 0.32822 0.72823 0.25682 0.0
H559 H 0.40665 0.72638 0.13698 0.0
H560 H 0.33847 0.74088 0.09093 0.0
C561 C 0.09504 0.63908 0.04485 0.0
C562 C 0.11949 0.60645 0.0214 0.0
C563 C 0.11715 0.67516 0.06675 0.0
C564 C 0.16404 0.67942 0.06484 0.0
C565 C 0.18865 0.64634 0.04223 0.0
C566 C 0.16649 0.61016 0.02043 0.0
C567 C 0.18741 0.72074 0.08149 0.0
C568 C 0.22321 0.71674 0.11239 0.0
C569 C 0.17841 0.76296 0.06233 0.0
C570 C 0.14311 0.76814 0.02687 0.0
C571 C 0.14713 0.74636 0.98481 0.0
C572 C 0.11331 0.75017 0.95177 0.0
C573 C 0.07546 0.77599 0.96029 0.0
C574 C 0.0715 0.79823 0.00179 0.0
C575 C 0.10524 0.7945 0.03494 0.0
C576 C 0.33548 0.86273 0.04344 0.0
C577 C 0.36639 0.87155 0.07896 0.0
C578 C 0.29499 0.84079 0.05112 0.0
C579 C 0.28358 0.828 0.09474 0.0
C580 C 0.31179 0.84195 0.1312 0.0
C581 C 0.35356 0.86274 0.12326 0.0
C582 C 0.24638 0.79437 0.09928 0.0
C583 C 0.20711 0.79964 0.07272 0.0
C584 C 0.25338 0.75268 0.12081 0.0
C585 C 0.29428 0.74349 0.14796 0.0
C586 C 0.29159 0.73935 0.19483 0.0
C587 C 0.33033 0.73108 0.22065 0.0
C588 C 0.37179 0.72654 0.19981 0.0
C589 C 0.37456 0.73002 0.15308 0.0
C590 C 0.33591 0.73822 0.12712 0.0
H591 H 0.40175 0.72022 0.21986 0.0
H592 H 0.04926 0.77883 0.93471 0.0
H593 H 0.63505 0.1186 0.91864 0.0
H594 H 0.70609 0.15968 0.91369 0.0
H595 H 0.70333 0.19008 0.05618 0.0
H596 H 0.63038 0.15176 0.06078 0.0
H597 H 0.71681 0.26245 0.01265 0.0
H598 H 0.77752 0.11336 0.00261 0.0
H599 H 0.78239 0.03664 0.97018 0.0
H600 H 0.82202 0.09104 0.84381 0.0
H601 H 0.81559 0.16814 0.87466 0.0
H602 H 0.92152 0.35676 0.05289 0.0
H603 H 0.87714 0.28767 0.0416 0.0
H604 H 0.85224 0.3218 0.90291 0.0
H605 H 0.89821 0.39122 0.91383 0.0
H606 H 0.85706 0.21441 0.93908 0.0
H607 H 0.77609 0.35911 0.94358 0.0
H608 H 0.77026 0.43696 0.97301 0.0
H609 H 0.77104 0.38815 0.10833 0.0
H610 H 0.77743 0.31 0.07957 0.0
C611 C 0.64967 0.13365 0.94911 0.0
C612 C 0.62695 0.13198 0.99019 0.0
C613 C 0.69067 0.15672 0.94625 0.0
C614 C 0.71038 0.1775 0.98463 0.0
C615 C 0.68872 0.17421 0.0261 0.0
C616 C 0.64713 0.15211 0.02876 0.0
C617 C 0.75065 0.20702 0.98071 0.0
C618 C 0.74748 0.25142 0.99697 0.0
C619 C 0.79036 0.19331 0.95889 0.0
C620 C 0.7957 0.14672 0.94091 0.0
C621 C 0.78697 0.10906 0.96781 0.0
C622 C 0.79 0.06547 0.94971 0.0
C623 C 0.80264 0.059 0.90508 0.0
C624 C 0.81224 0.0961 0.87839 0.0
C625 C 0.8088 0.13977 0.89613 0.0
C626 C 0.90779 0.34879 0.01958 0.0
C627 C 0.91209 0.37941 0.98439 0.0
C628 C 0.88304 0.30908 0.01306 0.0
C629 C 0.86147 0.29991 0.97156 0.0
C630 C 0.86923 0.32826 0.935 0.0
C631 C 0.89489 0.36797 0.94135 0.0
C632 C 0.8224 0.26884 0.97107 0.0
C633 C 0.82598 0.22468 0.95441 0.0
C634 C 0.78263 0.28239 0.99208 0.0
C635 C 0.7773 0.32895 0.00949 0.0
C636 C 0.77509 0.36508 0.9796 0.0
C637 C 0.77172 0.40918 0.99613 0.0
C638 C 0.77025 0.41745 0.04248 0.0
C639 C 0.77211 0.38164 0.07243 0.0
C640 C 0.77552 0.33745 0.05604 0.0
H641 H 0.76754 0.45161 0.05509 0.0
H642 H 0.80501 0.02523 0.89118 0.0
H643 H 0.90668 0.60145 0.03818 0.0
H644 H 0.84001 0.6457 0.05428 0.0
H645 H 0.772 0.58701 0.93726 0.0
H646 H 0.83862 0.54362 0.9204 0.0
H647 H 0.76324 0.67703 0.94112 0.0
H648 H 0.75101 0.55307 0.04799 0.0
H649 H 0.77982 0.50826 0.11141 0.0
H650 H 0.78829 0.62706 0.19534 0.0
H651 H 0.76021 0.67275 0.13248 0.0
H652 H 0.54745 0.75842 0.97262 0.0
H653 H 0.60779 0.70398 0.96557 0.0
H654 H 0.66731 0.75297 0.09105 0.0
H655 H 0.60647 0.80588 0.09932 0.0
H656 H 0.68129 0.66822 0.08461 0.0
H657 H 0.70217 0.79319 0.98853 0.0
H658 H 0.68144 0.84793 0.93036 0.0
H659 H 0.66756 0.74085 0.83204 0.0
H660 H 0.68766 0.68536 0.88978 0.0
C661 C 0.87743 0.59783 0.01605 0.0
C662 C 0.8779 0.56907 0.97804 0.0
C663 C 0.83933 0.62301 0.02536 0.0
C664 C 0.8009 0.6192 -0.00279 0.0
C665 C 0.80132 0.5904 0.95939 0.0
C666 C 0.83943 0.56563 0.94983 0.0
C667 C 0.76044 0.646 0.00609 0.0
C668 C 0.74488 0.67458 0.9722 0.0
C669 C 0.73782 0.64433 0.0475 0.0
C670 C 0.75375 0.61638 0.08541 0.0
C671 C 0.75918 0.56967 0.0799 0.0
C672 C 0.77537 0.54411 0.11573 0.0
C673 C 0.78589 0.56479 0.15725 0.0
C674 C 0.78013 0.61107 0.16315 0.0
C675 C 0.76404 0.63681 0.12747 0.0
C676 C 0.57284 0.7569 -0.00081 0.0
C677 C 0.57248 0.78699 0.03616 0.0
C678 C 0.60746 0.72598 0.99499 0.0
C679 C 0.64274 0.72534 0.02715 0.0
C680 C 0.64064 0.75304 0.06565 0.0
C681 C 0.60574 0.7834 0.07025 0.0
C682 C 0.68347 0.6985 0.0192 0.0
C683 C 0.69932 0.67028 0.05331 0.0
C684 C 0.70744 0.70175 0.97864 0.0
C685 C 0.69587 0.73504 0.94362 0.0
C686 C 0.6944 0.78127 0.95457 0.0
C687 C 0.68279 0.81244 0.92168 0.0
C688 C 0.67293 0.79784 0.87761 0.0
C689 C 0.67503 0.75208 0.86625 0.0
C690 C 0.68657 0.72075 0.89903 0.0
H691 H 0.66375 0.82199 0.85225 0.0
H692 H 0.79847 0.54492 0.18487 0.0
loop_
_geom_bond_atom_site_label_1
_geom_bond_atom_site_label_2
_geom_bond_distance
_geom_bond_site_symmetry_2
_ccdc_geom_bond_type
C0 O27 1.312 1_655 S
C0 O28 1.208 . S
C1 O22 1.331 . S
C1 O25 1.244 1_565 S
C2 O24 1.264 1_545 S
C2 O26 1.273 . S
Mg3 O5 1.936 1_565 S
Mg3 O12 2.081 . S
Mg3 O14 2.023 . S
Mg3 O18 2.031 . S
Mg3 O27 2.291 . S
Mg4 O5 1.963 . S
Mg4 O15 1.942 . S
Mg4 O16 1.955 . S
Mg4 O23 1.986 . S
O5 Mg3 1.936 1_545 S
O5 Mg4 1.963 . S
O5 Mg6 1.915 . S
Mg6 O5 1.915 . S
Mg6 O7 1.915 1_455 S
Mg6 O11 2.013 . S
Mg6 O17 2.114 1_445 S
Mg6 O21 2.013 1_455 S
Mg6 O27 2.114 1_545 S
O7 Mg6 1.915 1_655 S
O7 Mg8 1.936 1_545 S
O7 Mg9 1.963 . S
Mg8 O7 1.936 1_565 S
Mg8 O17 2.291 . S
Mg8 O22 2.081 . S
Mg8 O24 2.023 . S
Mg8 O28 2.031 . S
Mg9 O7 1.963 . S
Mg9 O13 1.986 . S
Mg9 O25 1.942 . S
Mg9 O26 1.955 . S
C10 O21 1.191 1_455 S
C10 O23 1.307 . S
O11 Mg6 2.013 . S
O11 C30 1.191 1_455 S
O12 Mg3 2.081 . S
O12 C20 1.331 . S
O13 Mg9 1.986 . S
O13 C30 1.307 . S
O14 Mg3 2.023 . S
O14 C29 1.264 1_565 S
O15 Mg4 1.942 . S
O15 C20 1.244 1_545 S
O16 Mg4 1.955 . S
O16 C29 1.273 . S
O17 Mg6 2.114 1_665 S
O17 Mg8 2.291 . S
O17 C19 1.312 1_655 S
O18 Mg3 2.031 . S
O18 C19 1.208 . S
C19 O17 1.312 1_455 S
C19 O18 1.208 . S
C20 O12 1.331 . S
C20 O15 1.244 1_565 S
O21 Mg6 2.013 1_655 S
O21 C10 1.191 1_655 S
O22 C1 1.331 . S
O22 Mg8 2.081 . S
O23 Mg4 1.986 . S
O23 C10 1.307 . S
O24 C2 1.264 1_565 S
O24 Mg8 2.023 . S
O25 C1 1.244 1_545 S
O25 Mg9 1.942 . S
O26 C2 1.273 . S
O26 Mg9 1.955 . S
O27 C0 1.312 1_455 S
O27 Mg3 2.291 . S
O27 Mg6 2.114 1_565 S
O28 C0 1.208 . S
O28 Mg8 2.031 . S
C29 O14 1.264 1_545 S
C29 O16 1.273 . S
C30 O11 1.191 1_655 S
C30 O13 1.307 . S
C31 O58 1.312 1_545 S
C31 O59 1.208 . S
C32 O53 1.331 . S
C32 O56 1.244 1_556 S
C33 O55 1.264 1_554 S
C33 O57 1.273 . S
Mg34 O36 1.936 1_556 S
Mg34 O43 2.081 . S
Mg34 O45 2.023 . S
Mg34 O49 2.031 . S
Mg34 O58 2.291 . S
Mg35 O36 1.963 . S
Mg35 O46 1.942 . S
Mg35 O47 1.955 . S
Mg35 O54 1.986 . S
O36 Mg34 1.936 1_554 S
O36 Mg35 1.963 . S
O36 Mg37 1.915 1_565 S
Mg37 O36 1.915 1_545 S
Mg37 O38 1.915 . S
Mg37 O42 2.013 1_545 S
Mg37 O48 2.114 1_554 S
Mg37 O52 2.013 . S
Mg37 O58 2.114 1_544 S
O38 Mg37 1.915 . S
O38 Mg39 1.936 1_554 S
O38 Mg40 1.963 . S
Mg39 O38 1.936 1_556 S
Mg39 O48 2.291 . S
Mg39 O53 2.081 . S
Mg39 O55 2.023 . S
Mg39 O59 2.031 . S
Mg40 O38 1.963 . S
Mg40 O44 1.986 . S
Mg40 O56 1.942 . S
Mg40 O57 1.955 . S
C41 O52 1.191 1_565 S
C41 O54 1.307 . S
O42 Mg37 2.013 1_565 S
O42 C61 1.191 1_565 S
O43 Mg34 2.081 . S
O43 C51 1.331 . S
O44 Mg40 1.986 . S
O44 C61 1.307 . S
O45 Mg34 2.023 . S
O45 C60 1.264 1_556 S
O46 Mg35 1.942 . S
O46 C51 1.244 1_554 S
O47 Mg35 1.955 . S
O47 C60 1.273 . S
O48 Mg37 2.114 1_556 S
O48 Mg39 2.291 . S
O48 C50 1.312 1_545 S
O49 Mg34 2.031 . S
O49 C50 1.208 . S
C50 O48 1.312 1_565 S
C50 O49 1.208 . S
C51 O43 1.331 . S
C51 O46 1.244 1_556 S
O52 Mg37 2.013 . S
O52 C41 1.191 1_545 S
O53 C32 1.331 . S
O53 Mg39 2.081 . S
O54 Mg35 1.986 . S
O54 C41 1.307 . S
O55 C33 1.264 1_556 S
O55 Mg39 2.023 . S
O56 C32 1.244 1_554 S
O56 Mg40 1.942 . S
O57 C33 1.273 . S
O57 Mg40 1.955 . S
O58 C31 1.312 1_565 S
O58 Mg34 2.291 . S
O58 Mg37 2.114 1_566 S
O59 C31 1.208 . S
O59 Mg39 2.031 . S
C60 O45 1.264 1_554 S
C60 O47 1.273 . S
C61 O42 1.191 1_545 S
C61 O44 1.307 . S
C62 O89 1.312 1_556 S
C62 O90 1.208 . S
C63 O84 1.331 . S
C63 O87 1.244 1_655 S
C64 O86 1.264 1_455 S
C64 O88 1.273 . S
Mg65 O67 1.936 1_655 S
Mg65 O74 2.081 . S
Mg65 O76 2.023 . S
Mg65 O80 2.031 . S
Mg65 O89 2.291 . S
Mg66 O67 1.963 . S
Mg66 O77 1.942 . S
Mg66 O78 1.955 . S
Mg66 O85 1.986 . S
O67 Mg65 1.936 1_455 S
O67 Mg66 1.963 . S
O67 Mg68 1.915 . S
Mg68 O67 1.915 . S
Mg68 O69 1.915 1_554 S
Mg68 O73 2.013 . S
Mg68 O79 2.114 1_454 S
Mg68 O83 2.013 1_554 S
Mg68 O89 2.114 1_455 S
O69 Mg68 1.915 1_556 S
O69 Mg70 1.936 1_455 S
O69 Mg71 1.963 . S
Mg70 O69 1.936 1_655 S
Mg70 O79 2.291 . S
Mg70 O84 2.081 . S
Mg70 O86 2.023 . S
Mg70 O90 2.031 . S
Mg71 O69 1.963 . S
Mg71 O75 1.986 . S
Mg71 O87 1.942 . S
Mg71 O88 1.955 . S
C72 O83 1.191 1_554 S
C72 O85 1.307 . S
O73 Mg68 2.013 . S
O73 C92 1.191 1_554 S
O74 Mg65 2.081 . S
O74 C82 1.331 . S
O75 Mg71 1.986 . S
O75 C92 1.307 . S
O76 Mg65 2.023 . S
O76 C91 1.264 1_655 S
O77 Mg66 1.942 . S
O77 C82 1.244 1_455 S
O78 Mg66 1.955 . S
O78 C91 1.273 . S
O79 Mg68 2.114 1_656 S
O79 Mg70 2.291 . S
O79 C81 1.312 1_556 S
O80 Mg65 2.031 . S
O80 C81 1.208 . S
C81 O79 1.312 1_554 S
C81 O80 1.208 . S
C82 O74 1.331 . S
C82 O77 1.244 1_655 S
O83 Mg68 2.013 1_556 S
O83 C72 1.191 1_556 S
O84 C63 1.331 . S
O84 Mg70 2.081 . S
O85 Mg66 1.986 . S
O85 C72 1.307 . S
O86 C64 1.264 1_655 S
O86 Mg70 2.023 . S
O87 C63 1.244 1_455 S
O87 Mg71 1.942 . S
O88 C64 1.273 . S
O88 Mg71 1.955 . S
O89 C62 1.312 1_554 S
O89 Mg65 2.291 . S
O89 Mg68 2.114 1_655 S
O90 C62 1.208 . S
O90 Mg70 2.031 . S
C91 O76 1.264 1_455 S
C91 O78 1.273 . S
C92 O73 1.191 1_556 S
C92 O75 1.307 . S
H93 C111 0.951 . S
H94 C113 0.951 . S
H95 C115 0.950 . S
H96 C116 0.950 . S
H97 C118 0.950 . S
H98 C121 0.950 . S
H99 C122 0.950 . S
H100 C124 0.950 . S
H101 C125 0.950 . S
H102 C126 0.953 . S
H103 C128 0.951 1_655 S
H104 C130 0.950 . S
H105 C131 0.950 . S
H106 C133 0.950 . S
H107 C136 0.950 . S
H108 C137 0.950 . S
H109 C139 0.950 . S
H110 C140 0.950 . S
C111 H93 0.951 . S
C111 C112 1.366 . S
C111 C113 1.388 . S
C112 C111 1.366 . S
C112 C116 1.385 . S
C113 H94 0.951 . S
C113 C111 1.388 . S
C113 C114 1.366 . S
C114 C113 1.366 . S
C114 C115 1.414 . S
C114 C117 1.499 . S
C115 H95 0.950 . S
C115 C114 1.414 . S
C115 C116 1.374 . S
C116 H96 0.950 . S
C116 C112 1.385 . S
C116 C115 1.374 . S
C117 C114 1.499 . S
C117 C118 1.373 1_655 S
C117 C119 1.389 . S
C118 H97 0.950 . S
C118 C117 1.373 1_455 S
C118 C134 1.377 . S
C119 C117 1.389 . S
C119 C120 1.524 . S
C119 C133 1.377 . S
C120 C119 1.524 . S
C120 C121 1.397 . S
C120 C125 1.363 . S
C121 H98 0.950 . S
C121 C120 1.397 . S
C121 C122 1.334 . S
C122 H99 0.950 . S
C122 C121 1.334 . S
C122 C123 1.287 . S
C123 C122 1.287 . S
C123 C124 1.524 . S
C123 H142 0.913 . S
C124 H100 0.950 . S
C124 C123 1.524 . S
C124 C125 1.415 . S
C125 H101 0.950 . S
C125 C120 1.363 . S
C125 C124 1.415 . S
C126 H102 0.953 . S
C126 C127 1.366 . S
C126 C128 1.388 . S
C127 C126 1.366 . S
C127 C131 1.385 . S
C128 H103 0.951 1_455 S
C128 C126 1.388 . S
C128 C129 1.366 . S
C129 C128 1.366 . S
C129 C130 1.414 . S
C129 C132 1.499 . S
C130 H104 0.950 . S
C130 C129 1.414 . S
C130 C131 1.374 . S
C131 H105 0.950 . S
C131 C127 1.385 . S
C131 C130 1.374 . S
C132 C129 1.499 . S
C132 C133 1.373 1_455 S
C132 C134 1.389 . S
C133 H106 0.950 . S
C133 C119 1.377 . S
C133 C132 1.373 1_655 S
C134 C118 1.377 . S
C134 C132 1.389 . S
C134 C135 1.524 . S
C135 C134 1.524 . S
C135 C136 1.397 . S
C135 C140 1.363 . S
C136 H107 0.950 . S
C136 C135 1.397 . S
C136 C137 1.334 . S
C137 H108 0.950 . S
C137 C136 1.334 . S
C137 C138 1.287 . S
C138 C137 1.287 . S
C138 C139 1.524 . S
C138 H141 0.999 . S
C139 H109 0.950 . S
C139 C138 1.524 . S
C139 C140 1.415 . S
C140 H110 0.950 . S
C140 C135 1.363 . S
C140 C139 1.415 . S
H141 C138 0.999 . S
H142 C123 0.913 . S
H143 C161 0.951 . S
H144 C163 0.951 . S
H145 C165 0.950 . S
H146 C166 0.950 . S
H147 C168 0.950 . S
H148 C171 0.950 . S
H149 C172 0.950 . S
H150 C174 0.950 . S
H151 C175 0.950 . S
H152 C176 0.951 . S
H153 C178 0.951 . S
H154 C180 0.950 . S
H155 C181 0.950 . S
H156 C183 0.950 . S
H157 C186 0.950 . S
H158 C187 0.950 . S
H159 C189 0.950 . S
H160 C190 0.950 . S
C161 H143 0.951 . S
C161 C162 1.366 . S
C161 C163 1.388 . S
C162 C161 1.366 . S
C162 C166 1.385 1_545 S
C163 H144 0.951 . S
C163 C161 1.388 . S
C163 C164 1.366 . S
C164 C163 1.366 . S
C164 C165 1.414 1_545 S
C164 C167 1.499 . S
C165 H145 0.950 . S
C165 C164 1.414 1_565 S
C165 C166 1.374 . S
C166 H146 0.950 . S
C166 C162 1.385 1_565 S
C166 C165 1.374 . S
C167 C164 1.499 . S
C167 C168 1.373 1_545 S
C167 C169 1.389 . S
C168 H147 0.950 . S
C168 C167 1.373 1_565 S
C168 C184 1.377 . S
C169 C167 1.389 . S
C169 C170 1.524 . S
C169 C183 1.377 . S
C170 C169 1.524 . S
C170 C171 1.397 . S
C170 C175 1.363 . S
C171 H148 0.950 . S
C171 C170 1.397 . S
C171 C172 1.334 . S
C172 H149 0.950 . S
C172 C171 1.334 . S
C172 C173 1.287 . S
C173 C172 1.287 . S
C173 C174 1.524 . S
C173 H192 0.913 . S
C174 H150 0.950 . S
C174 C173 1.524 . S
C174 C175 1.415 . S
C175 H151 0.950 . S
C175 C170 1.363 . S
C175 C174 1.415 . S
C176 H152 0.951 . S
C176 C177 1.366 1_565 S
C176 C178 1.388 . S
C177 C176 1.366 1_545 S
C177 C181 1.385 . S
C178 H153 0.951 . S
C178 C176 1.388 . S
C178 C179 1.366 1_565 S
C179 C178 1.366 1_545 S
C179 C180 1.414 . S
C179 C182 1.499 . S
C180 H154 0.950 . S
C180 C179 1.414 . S
C180 C181 1.374 . S
C181 H155 0.950 . S
C181 C177 1.385 . S
C181 C180 1.374 . S
C182 C179 1.499 . S
C182 C183 1.373 . S
C182 C184 1.389 1_545 S
C183 H156 0.950 . S
C183 C169 1.377 . S
C183 C182 1.373 . S
C184 C168 1.377 . S
C184 C182 1.389 1_565 S
C184 C185 1.524 . S
C185 C184 1.524 . S
C185 C186 1.397 . S
C185 C190 1.363 . S
C186 H157 0.950 . S
C186 C185 1.397 . S
C186 C187 1.334 . S
C187 H158 0.950 . S
C187 C186 1.334 . S
C187 C188 1.287 . S
C188 C187 1.287 . S
C188 C189 1.524 . S
C188 H191 0.999 . S
C189 H159 0.950 . S
C189 C188 1.524 . S
C189 C190 1.415 . S
C190 H160 0.950 . S
C190 C185 1.363 . S
C190 C189 1.415 . S
H191 C188 0.999 . S
H192 C173 0.913 . S
H193 C211 0.951 . S
H194 C213 0.951 . S
H195 C215 0.950 . S
H196 C216 0.950 . S
H197 C218 0.950 . S
H198 C221 0.950 . S
H199 C222 0.950 . S
H200 C224 0.950 . S
H201 C225 0.950 . S
H202 C226 0.951 . S
H203 C228 0.951 . S
H204 C230 0.950 . S
H205 C231 0.950 . S
H206 C233 0.950 . S
H207 C236 0.950 . S
H208 C237 0.950 . S
H209 C239 0.950 . S
H210 C240 0.950 . S
C211 H193 0.951 . S
C211 C212 1.366 . S
C211 C213 1.388 . S
C212 C211 1.366 . S
C212 C216 1.384 1_655 S
C213 H194 0.951 . S
C213 C211 1.388 . S
C213 C214 1.366 1_655 S
C214 C213 1.366 1_455 S
C214 C215 1.414 . S
C214 C217 1.499 . S
C215 H195 0.950 . S
C215 C214 1.414 . S
C215 C216 1.374 . S
C216 H196 0.950 . S
C216 C212 1.384 1_455 S
C216 C215 1.374 . S
C217 C214 1.499 . S
C217 C218 1.373 . S
C217 C219 1.389 1_455 S
C218 H197 0.950 . S
C218 C217 1.373 . S
C218 C234 1.377 . S
C219 C217 1.389 1_655 S
C219 C220 1.524 . S
C219 C233 1.377 . S
C220 C219 1.524 . S
C220 C221 1.397 . S
C220 C225 1.363 . S
C221 H198 0.950 . S
C221 C220 1.397 . S
C221 C222 1.334 . S
C222 H199 0.950 . S
C222 C221 1.334 . S
C222 C223 1.287 . S
C223 C222 1.287 . S
C223 C224 1.524 . S
C223 H242 0.913 . S
C224 H200 0.950 . S
C224 C223 1.524 . S
C224 C225 1.415 . S
C225 H201 0.950 . S
C225 C220 1.363 . S
C225 C224 1.415 . S
C226 H202 0.951 . S
C226 C227 1.366 . S
C226 C228 1.388 . S
C227 C226 1.366 . S
C227 C231 1.385 1_455 S
C228 H203 0.951 . S
C228 C226 1.388 . S
C228 C229 1.366 . S
C229 C228 1.366 . S
C229 C230 1.414 1_455 S
C229 C232 1.499 . S
C230 H204 0.950 . S
C230 C229 1.414 1_655 S
C230 C231 1.374 . S
C231 H205 0.950 . S
C231 C227 1.385 1_655 S
C231 C230 1.374 . S
C232 C229 1.499 . S
C232 C233 1.373 1_455 S
C232 C234 1.389 . S
C233 H206 0.950 . S
C233 C219 1.377 . S
C233 C232 1.373 1_655 S
C234 C218 1.377 . S
C234 C232 1.389 . S
C234 C235 1.524 . S
C235 C234 1.524 . S
C235 C236 1.397 . S
C235 C240 1.363 . S
C236 H207 0.950 . S
C236 C235 1.397 . S
C236 C237 1.334 . S
C237 H208 0.950 . S
C237 C236 1.334 . S
C237 C238 1.287 . S
C238 C237 1.287 . S
C238 C239 1.524 . S
C238 H241 0.999 . S
C239 H209 0.950 . S
C239 C238 1.524 . S
C239 C240 1.415 . S
C240 H210 0.950 . S
C240 C235 1.363 . S
C240 C239 1.415 . S
H241 C238 0.999 . S
H242 C223 0.913 . S
H243 C261 0.951 . S
H244 C263 0.951 . S
H245 C265 0.950 . S
H246 C266 0.950 . S
H247 C268 0.950 . S
H248 C271 0.950 . S
H249 C272 0.950 . S
H250 C274 0.950 . S
H251 C275 0.950 . S
H252 C276 0.951 . S
H253 C278 0.951 . S
H254 C280 0.950 . S
H255 C281 0.950 . S
H256 C283 0.950 . S
H257 C286 0.950 . S
H258 C287 0.950 . S
H259 C289 0.950 . S
H260 C290 0.950 . S
C261 H243 0.951 . S
C261 C262 1.366 . S
C261 C263 1.388 . S
C262 C261 1.366 . S
C262 C266 1.385 1_545 S
C263 H244 0.951 . S
C263 C261 1.388 . S
C263 C264 1.360 1_545 S
C264 C263 1.360 1_565 S
C264 C265 1.419 . S
C264 C267 1.500 . S
C265 H245 0.950 . S
C265 C264 1.419 . S
C265 C266 1.374 . S
C266 H246 0.950 . S
C266 C262 1.385 1_565 S
C266 C265 1.374 . S
C267 C264 1.500 . S
C267 C268 1.373 1_565 S
C267 C269 1.389 . S
C268 H247 0.950 . S
C268 C267 1.373 1_545 S
C268 C284 1.377 . S
C269 C267 1.389 . S
C269 C270 1.524 . S
C269 C283 1.377 . S
C270 C269 1.524 . S
C270 C271 1.397 . S
C270 C275 1.363 . S
C271 H248 0.950 . S
C271 C270 1.397 . S
C271 C272 1.334 . S
C272 H249 0.950 . S
C272 C271 1.334 . S
C272 C273 1.287 . S
C273 C272 1.287 . S
C273 C274 1.524 . S
C273 H292 0.913 . S
C274 H250 0.950 . S
C274 C273 1.524 . S
C274 C275 1.415 . S
C275 H251 0.950 . S
C275 C270 1.363 . S
C275 C274 1.415 . S
C276 H252 0.951 . S
C276 C277 1.366 . S
C276 C278 1.388 . S
C277 C276 1.366 . S
C277 C281 1.385 1_565 S
C278 H253 0.951 . S
C278 C276 1.388 . S
C278 C279 1.366 . S
C279 C278 1.366 . S
C279 C280 1.414 1_565 S
C279 C282 1.499 . S
C280 H254 0.950 . S
C280 C279 1.414 1_545 S
C280 C281 1.374 . S
C281 H255 0.950 . S
C281 C277 1.385 1_545 S
C281 C280 1.374 . S
C282 C279 1.499 . S
C282 C283 1.375 . S
C282 C284 1.388 1_565 S
C283 H256 0.950 . S
C283 C269 1.377 . S
C283 C282 1.375 . S
C284 C268 1.377 . S
C284 C282 1.388 1_545 S
C284 C285 1.524 . S
C285 C284 1.524 . S
C285 C286 1.397 . S
C285 C290 1.363 . S
C286 H257 0.950 . S
C286 C285 1.397 . S
C286 C287 1.334 . S
C287 H258 0.950 . S
C287 C286 1.334 . S
C287 C288 1.287 . S
C288 C287 1.287 . S
C288 C289 1.524 . S
C288 H291 0.999 . S
C289 H259 0.950 . S
C289 C288 1.524 . S
C289 C290 1.415 . S
C290 H260 0.950 . S
C290 C285 1.363 . S
C290 C289 1.415 . S
H291 C288 0.999 . S
H292 C273 0.913 . S
H293 C311 0.951 . S
H294 C313 0.951 . S
H295 C315 0.950 . S
H296 C316 0.950 . S
H297 C318 0.950 . S
H298 C321 0.950 . S
H299 C322 0.950 . S
H300 C324 0.950 . S
H301 C325 0.950 . S
H302 C326 0.951 . S
H303 C328 0.951 . S
H304 C330 0.950 . S
H305 C331 0.950 . S
H306 C333 0.950 . S
H307 C336 0.950 . S
H308 C337 0.950 . S
H309 C339 0.950 . S
H310 C340 0.950 . S
C311 H293 0.951 . S
C311 C312 1.366 . S
C311 C313 1.388 . S
C312 C311 1.366 . S
C312 C316 1.385 1_455 S
C313 H294 0.951 . S
C313 C311 1.388 . S
C313 C314 1.357 1_455 S
C314 C313 1.357 1_655 S
C314 C315 1.422 . S
C314 C317 1.499 . S
C315 H295 0.950 . S
C315 C314 1.422 . S
C315 C316 1.374 . S
C316 H296 0.950 . S
C316 C312 1.385 1_655 S
C316 C315 1.374 . S
C317 C314 1.499 . S
C317 C318 1.373 . S
C317 C319 1.389 1_655 S
C318 H297 0.950 . S
C318 C317 1.373 . S
C318 C334 1.377 . S
C319 C317 1.389 1_455 S
C319 C320 1.524 . S
C319 C333 1.377 . S
C320 C319 1.524 . S
C320 C321 1.397 1_455 S
C320 C325 1.363 . S
C321 H298 0.950 . S
C321 C320 1.397 1_655 S
C321 C322 1.334 . S
C322 H299 0.950 . S
C322 C321 1.334 . S
C322 C323 1.287 1_655 S
C323 C322 1.287 1_455 S
C323 C324 1.524 . S
C323 H342 0.913 . S
C324 H300 0.950 . S
C324 C323 1.524 . S
C324 C325 1.415 . S
C325 H301 0.950 . S
C325 C320 1.363 . S
C325 C324 1.415 . S
C326 H302 0.951 . S
C326 C327 1.366 . S
C326 C328 1.388 . S
C327 C326 1.366 . S
C327 C331 1.385 1_655 S
C328 H303 0.951 . S
C328 C326 1.388 . S
C328 C329 1.366 . S
C329 C328 1.366 . S
C329 C330 1.414 1_655 S
C329 C332 1.499 . S
C330 H304 0.950 . S
C330 C329 1.414 1_455 S
C330 C331 1.374 . S
C331 H305 0.950 . S
C331 C327 1.385 1_455 S
C331 C330 1.374 . S
C332 C329 1.499 . S
C332 C333 1.373 1_655 S
C332 C334 1.389 . S
C333 H306 0.950 . S
C333 C319 1.377 . S
C333 C332 1.373 1_455 S
C334 C318 1.377 . S
C334 C332 1.389 . S
C334 C335 1.524 . S
C335 C334 1.524 . S
C335 C336 1.397 1_655 S
C335 C340 1.363 . S
C336 H307 0.950 . S
C336 C335 1.397 1_455 S
C336 C337 1.334 . S
C337 H308 0.950 . S
C337 C336 1.334 . S
C337 C338 1.287 1_455 S
C338 C337 1.287 1_655 S
C338 C339 1.524 . S
C338 H341 0.999 . S
C339 H309 0.950 . S
C339 C338 1.524 . S
C339 C340 1.415 . S
C340 H310 0.950 . S
C340 C335 1.363 . S
C340 C339 1.415 . S
H341 C338 0.999 . S
H342 C323 0.913 . S
H343 C361 0.951 . S
H344 C363 0.951 . S
H345 C365 0.950 . S
H346 C366 0.950 . S
H347 C368 0.950 . S
H348 C371 0.950 . S
H349 C372 0.950 . S
H350 C374 0.950 . S
H351 C375 0.950 . S
H352 C376 0.951 . S
H353 C378 0.951 . S
H354 C380 0.950 . S
H355 C381 0.950 . S
H356 C383 0.950 . S
H357 C386 0.950 . S
H358 C387 0.950 . S
H359 C389 0.950 . S
H360 C390 0.950 . S
C361 H343 0.951 . S
C361 C362 1.368 . S
C361 C363 1.388 . S
C362 C361 1.368 . S
C362 C366 1.382 1_565 S
C363 H344 0.951 . S
C363 C361 1.388 . S
C363 C364 1.366 1_565 S
C364 C363 1.366 1_545 S
C364 C365 1.414 . S
C364 C367 1.499 . S
C365 H345 0.950 . S
C365 C364 1.414 . S
C365 C366 1.374 . S
C366 H346 0.950 . S
C366 C362 1.382 1_545 S
C366 C365 1.374 . S
C367 C364 1.499 . S
C367 C368 1.373 . S
C367 C369 1.389 . S
C368 H347 0.950 . S
C368 C367 1.373 . S
C368 C384 1.377 . S
C369 C367 1.389 . S
C369 C370 1.524 . S
C369 C383 1.377 . S
C370 C369 1.524 . S
C370 C371 1.397 . S
C370 C375 1.363 1_545 S
C371 H348 0.950 . S
C371 C370 1.397 . S
C371 C372 1.334 . S
C372 H349 0.950 . S
C372 C371 1.334 . S
C372 C373 1.287 . S
C373 C372 1.287 . S
C373 C374 1.524 1_545 S
C373 H392 0.913 . S
C374 H350 0.950 . S
C374 C373 1.524 1_565 S
C374 C375 1.415 . S
C375 H351 0.950 . S
C375 C370 1.363 1_565 S
C375 C374 1.415 . S
C376 H352 0.951 . S
C376 C377 1.366 . S
C376 C378 1.388 . S
C377 C376 1.366 . S
C377 C381 1.385 1_545 S
C378 H353 0.951 . S
C378 C376 1.388 . S
C378 C379 1.366 . S
C379 C378 1.366 . S
C379 C380 1.414 1_545 S
C379 C382 1.499 . S
C380 H354 0.950 . S
C380 C379 1.414 1_565 S
C380 C381 1.374 . S
C381 H355 0.950 . S
C381 C377 1.385 1_565 S
C381 C380 1.374 . S
C382 C379 1.499 . S
C382 C383 1.373 . S
C382 C384 1.389 . S
C383 H356 0.950 . S
C383 C369 1.377 . S
C383 C382 1.373 . S
C384 C368 1.377 . S
C384 C382 1.389 . S
C384 C385 1.524 . S
C385 C384 1.524 . S
C385 C386 1.397 1_545 S
C385 C390 1.363 . S
C386 H357 0.950 . S
C386 C385 1.397 1_565 S
C386 C387 1.334 . S
C387 H358 0.950 . S
C387 C386 1.334 . S
C387 C388 1.287 . S
C388 C387 1.287 . S
C388 C389 1.524 1_565 S
C388 H391 0.999 . S
C389 H359 0.950 . S
C389 C388 1.524 1_545 S
C389 C390 1.415 . S
C390 H360 0.950 . S
C390 C385 1.363 . S
C390 C389 1.415 . S
H391 C388 0.999 . S
H392 C373 0.913 . S
H393 C411 0.951 . S
H394 C413 0.951 . S
H395 C415 0.950 . S
H396 C416 0.950 . S
H397 C418 0.950 . S
H398 C421 0.950 . S
H399 C422 0.950 . S
H400 C424 0.950 . S
H401 C425 0.950 1_455 S
H402 C426 0.951 . S
H403 C428 0.951 . S
H404 C430 0.950 . S
H405 C431 0.950 . S
H406 C433 0.950 . S
H407 C436 0.950 . S
H408 C437 0.950 . S
H409 C439 0.950 . S
H410 C440 0.950 1_655 S
C411 H393 0.951 . S
C411 C412 1.366 . S
C411 C413 1.388 . S
C412 C411 1.366 . S
C412 C416 1.385 1_455 S
C413 H394 0.951 . S
C413 C411 1.388 . S
C413 C414 1.366 . S
C414 C413 1.366 . S
C414 C415 1.414 1_455 S
C414 C417 1.499 . S
C415 H395 0.950 . S
C415 C414 1.414 1_655 S
C415 C416 1.374 . S
C416 H396 0.950 . S
C416 C412 1.385 1_655 S
C416 C415 1.374 . S
C417 C414 1.499 . S
C417 C418 1.373 . S
C417 C419 1.389 1_455 S
C418 H397 0.950 . S
C418 C417 1.373 . S
C418 C434 1.377 . S
C419 C417 1.389 1_655 S
C419 C420 1.524 . S
C419 C433 1.377 . S
C420 C419 1.524 . S
C420 C421 1.397 . S
C420 C425 1.363 . S
C421 H398 0.950 . S
C421 C420 1.397 . S
C421 C422 1.334 . S
C422 H399 0.950 . S
C422 C421 1.334 . S
C422 C423 1.287 . S
C423 C422 1.287 . S
C423 C424 1.524 . S
C423 H442 0.913 . S
C424 H400 0.950 . S
C424 C423 1.524 . S
C424 C425 1.415 . S
C425 H401 0.950 1_655 S
C425 C420 1.363 . S
C425 C424 1.415 . S
C426 H402 0.951 . S
C426 C427 1.366 1_655 S
C426 C428 1.388 . S
C427 C426 1.366 1_455 S
C427 C431 1.385 . S
C428 H403 0.951 . S
C428 C426 1.388 . S
C428 C429 1.366 1_655 S
C429 C428 1.366 1_455 S
C429 C430 1.414 . S
C429 C432 1.499 . S
C430 H404 0.950 . S
C430 C429 1.414 . S
C430 C431 1.374 . S
C431 H405 0.950 . S
C431 C427 1.385 . S
C431 C430 1.374 . S
C432 C429 1.499 . S
C432 C433 1.373 1_455 S
C432 C434 1.389 . S
C433 H406 0.950 . S
C433 C419 1.377 . S
C433 C432 1.373 1_655 S
C434 C418 1.377 . S
C434 C432 1.389 . S
C434 C435 1.524 . S
C435 C434 1.524 . S
C435 C436 1.397 . S
C435 C440 1.363 . S
C436 H407 0.950 . S
C436 C435 1.397 . S
C436 C437 1.334 . S
C437 H408 0.950 . S
C437 C436 1.334 . S
C437 C438 1.287 . S
C438 C437 1.287 . S
C438 C439 1.524 . S
C438 H441 0.999 . S
C439 H409 0.950 . S
C439 C438 1.524 . S
C439 C440 1.415 . S
C440 H410 0.950 1_455 S
C440 C435 1.363 . S
C440 C439 1.415 . S
H441 C438 0.999 . S
H442 C423 0.913 . S
H443 C461 0.951 . S
H444 C463 0.951 . S
H445 C465 0.950 . S
H446 C466 0.950 . S
H447 C468 0.950 . S
H448 C471 0.950 . S
H449 C472 0.950 . S
H450 C474 0.950 . S
H451 C475 0.933 1_565 S
H452 C476 0.951 . S
H453 C478 0.951 . S
H454 C480 0.950 . S
H455 C481 0.950 . S
H456 C483 0.950 . S
H457 C486 0.950 . S
H458 C487 0.950 . S
H459 C489 0.950 . S
H460 C490 0.950 1_545 S
C461 H443 0.951 . S
C461 C462 1.366 1_565 S
C461 C463 1.388 . S
C462 C461 1.366 1_545 S
C462 C466 1.385 . S
C463 H444 0.951 . S
C463 C461 1.388 . S
C463 C464 1.366 1_565 S
C464 C463 1.366 1_545 S
C464 C465 1.414 . S
C464 C467 1.499 . S
C465 H445 0.950 . S
C465 C464 1.414 . S
C465 C466 1.374 . S
C466 H446 0.950 . S
C466 C462 1.385 . S
C466 C465 1.374 . S
C467 C464 1.499 . S
C467 C468 1.373 1_545 S
C467 C469 1.389 . S
C468 H447 0.950 . S
C468 C467 1.373 1_565 S
C468 C484 1.377 . S
C469 C467 1.389 . S
C469 C470 1.524 . S
C469 C483 1.377 . S
C470 C469 1.524 . S
C470 C471 1.397 . S
C470 C475 1.373 . S
C471 H448 0.950 . S
C471 C470 1.397 . S
C471 C472 1.334 . S
C472 H449 0.950 . S
C472 C471 1.334 . S
C472 C473 1.287 . S
C473 C472 1.287 . S
C473 C474 1.524 . S
C473 H492 0.913 . S
C474 H450 0.950 . S
C474 C473 1.524 . S
C474 C475 1.421 . S
C475 H451 0.933 1_545 S
C475 C470 1.373 . S
C475 C474 1.421 . S
C476 H452 0.951 . S
C476 C477 1.366 1_545 S
C476 C478 1.388 . S
C477 C476 1.366 1_565 S
C477 C481 1.385 . S
C478 H453 0.951 . S
C478 C476 1.388 . S
C478 C479 1.366 1_545 S
C479 C478 1.366 1_565 S
C479 C480 1.414 . S
C479 C482 1.499 . S
C480 H454 0.950 . S
C480 C479 1.414 . S
C480 C481 1.374 . S
C481 H455 0.950 . S
C481 C477 1.385 . S
C481 C480 1.374 . S
C482 C479 1.499 . S
C482 C483 1.373 1_565 S
C482 C484 1.389 . S
C483 H456 0.950 . S
C483 C469 1.377 . S
C483 C482 1.373 1_545 S
C484 C468 1.377 . S
C484 C482 1.389 . S
C484 C485 1.524 . S
C485 C484 1.524 . S
C485 C486 1.397 . S
C485 C490 1.363 . S
C486 H457 0.950 . S
C486 C485 1.397 . S
C486 C487 1.334 . S
C487 H458 0.950 . S
C487 C486 1.334 . S
C487 C488 1.287 . S
C488 C487 1.287 . S
C488 C489 1.524 . S
C488 H491 0.999 . S
C489 H459 0.950 . S
C489 C488 1.524 . S
C489 C490 1.415 . S
C490 H460 0.950 1_565 S
C490 C485 1.363 . S
C490 C489 1.415 . S
H491 C488 0.999 . S
H492 C473 0.913 . S
H493 C511 0.951 . S
H494 C513 0.951 . S
H495 C515 0.950 . S
H496 C516 0.950 . S
H497 C518 0.950 . S
H498 C521 0.950 . S
H499 C522 0.950 . S
H500 C524 0.950 . S
H501 C525 0.950 . S
H502 C526 0.951 . S
H503 C528 0.951 . S
H504 C530 0.950 . S
H505 C531 0.950 . S
H506 C533 0.950 . S
H507 C536 0.950 . S
H508 C537 0.950 . S
H509 C539 0.950 . S
H510 C540 0.950 . S
C511 H493 0.951 . S
C511 C512 1.366 . S
C511 C513 1.388 . S
C512 C511 1.366 . S
C512 C516 1.385 1_554 S
C513 H494 0.951 . S
C513 C511 1.388 . S
C513 C514 1.360 1_554 S
C514 C513 1.360 1_556 S
C514 C515 1.418 . S
C514 C517 1.500 . S
C515 H495 0.950 . S
C515 C514 1.418 . S
C515 C516 1.374 . S
C516 H496 0.950 . S
C516 C512 1.385 1_556 S
C516 C515 1.374 . S
C517 C514 1.500 . S
C517 C518 1.373 1_556 S
C517 C519 1.389 . S
C518 H497 0.950 . S
C518 C517 1.373 1_554 S
C518 C534 1.377 . S
C519 C517 1.389 . S
C519 C520 1.524 . S
C519 C533 1.377 . S
C520 C519 1.524 . S
C520 C521 1.397 . S
C520 C525 1.363 . S
C521 H498 0.950 . S
C521 C520 1.397 . S
C521 C522 1.334 . S
C522 H499 0.950 . S
C522 C521 1.334 . S
C522 C523 1.287 . S
C523 C522 1.287 . S
C523 C524 1.524 . S
C523 H542 0.913 . S
C524 H500 0.950 . S
C524 C523 1.524 . S
C524 C525 1.415 . S
C525 H501 0.950 . S
C525 C520 1.363 . S
C525 C524 1.415 . S
C526 H502 0.951 . S
C526 C527 1.366 . S
C526 C528 1.388 . S
C527 C526 1.366 . S
C527 C531 1.385 1_556 S
C528 H503 0.951 . S
C528 C526 1.388 . S
C528 C529 1.366 . S
C529 C528 1.366 . S
C529 C530 1.414 1_556 S
C529 C532 1.499 . S
C530 H504 0.950 . S
C530 C529 1.414 1_554 S
C530 C531 1.374 . S
C531 H505 0.950 . S
C531 C527 1.385 1_554 S
C531 C530 1.374 . S
C532 C529 1.499 . S
C532 C533 1.376 . S
C532 C534 1.387 1_556 S
C533 H506 0.950 . S
C533 C519 1.377 . S
C533 C532 1.376 . S
C534 C518 1.377 . S
C534 C532 1.387 1_554 S
C534 C535 1.524 . S
C535 C534 1.524 . S
C535 C536 1.397 . S
C535 C540 1.363 . S
C536 H507 0.950 . S
C536 C535 1.397 . S
C536 C537 1.334 . S
C537 H508 0.950 . S
C537 C536 1.334 . S
C537 C538 1.287 . S
C538 C537 1.287 . S
C538 C539 1.524 . S
C538 H541 0.999 . S
C539 H509 0.950 . S
C539 C538 1.524 . S
C539 C540 1.415 . S
C540 H510 0.950 . S
C540 C535 1.363 . S
C540 C539 1.415 . S
H541 C538 0.999 . S
H542 C523 0.913 . S
H543 C561 0.951 . S
H544 C563 0.951 . S
H545 C565 0.950 . S
H546 C566 0.950 . S
H547 C568 0.950 . S
H548 C571 0.950 . S
H549 C572 0.950 . S
H550 C574 0.950 . S
H551 C575 0.950 . S
H552 C576 0.951 1_556 S
H553 C578 0.951 1_556 S
H554 C580 0.950 . S
H555 C581 0.950 . S
H556 C583 0.950 . S
H557 C586 0.950 . S
H558 C587 0.950 . S
H559 C589 0.950 . S
H560 C590 0.950 . S
C561 H543 0.951 . S
C561 C562 1.366 . S
C561 C563 1.388 . S
C562 C561 1.366 . S
C562 C566 1.385 1_554 S
C563 H544 0.951 . S
C563 C561 1.388 . S
C563 C564 1.366 . S
C564 C563 1.366 . S
C564 C565 1.414 1_554 S
C564 C567 1.499 . S
C565 H545 0.950 . S
C565 C564 1.414 1_556 S
C565 C566 1.374 . S
C566 H546 0.950 . S
C566 C562 1.385 1_556 S
C566 C565 1.374 . S
C567 C564 1.499 . S
C567 C568 1.373 . S
C567 C569 1.389 1_554 S
C568 H547 0.950 . S
C568 C567 1.373 . S
C568 C584 1.377 . S
C569 C567 1.389 1_556 S
C569 C570 1.524 . S
C569 C583 1.377 . S
C570 C569 1.524 . S
C570 C571 1.397 . S
C570 C575 1.363 . S
C571 H548 0.950 . S
C571 C570 1.397 . S
C571 C572 1.334 . S
C572 H549 0.950 . S
C572 C571 1.334 . S
C572 C573 1.287 . S
C573 C572 1.287 . S
C573 C574 1.524 . S
C573 H592 0.913 . S
C574 H550 0.950 . S
C574 C573 1.524 . S
C574 C575 1.415 . S
C575 H551 0.950 . S
C575 C570 1.363 . S
C575 C574 1.415 . S
C576 H552 0.951 1_554 S
C576 C577 1.366 . S
C576 C578 1.388 . S
C577 C576 1.366 . S
C577 C581 1.385 . S
C578 H553 0.951 1_554 S
C578 C576 1.388 . S
C578 C579 1.366 . S
C579 C578 1.366 . S
C579 C580 1.414 . S
C579 C582 1.499 . S
C580 H554 0.950 . S
C580 C579 1.414 . S
C580 C581 1.374 . S
C581 H555 0.950 . S
C581 C577 1.385 . S
C581 C580 1.374 . S
C582 C579 1.499 . S
C582 C583 1.373 1_554 S
C582 C584 1.389 . S
C583 H556 0.950 . S
C583 C569 1.377 . S
C583 C582 1.373 1_556 S
C584 C568 1.377 . S
C584 C582 1.389 . S
C584 C585 1.524 . S
C585 C584 1.524 . S
C585 C586 1.397 . S
C585 C590 1.363 . S
C586 H557 0.950 . S
C586 C585 1.397 . S
C586 C587 1.334 . S
C587 H558 0.950 . S
C587 C586 1.334 . S
C587 C588 1.287 . S
C588 C587 1.287 . S
C588 C589 1.524 . S
C588 H591 0.999 . S
C589 H559 0.950 . S
C589 C588 1.524 . S
C589 C590 1.415 . S
C590 H560 0.950 . S
C590 C585 1.363 . S
C590 C589 1.415 . S
H591 C588 0.999 . S
H592 C573 0.913 . S
H593 C611 0.951 . S
H594 C613 0.951 . S
H595 C615 0.950 . S
H596 C616 0.950 . S
H597 C618 0.950 . S
H598 C621 0.950 . S
H599 C622 0.950 . S
H600 C624 0.950 . S
H601 C625 0.950 . S
H602 C626 0.951 . S
H603 C628 0.951 . S
H604 C630 0.950 . S
H605 C631 0.950 . S
H606 C633 0.950 . S
H607 C636 0.950 . S
H608 C637 0.950 . S
H609 C639 0.950 . S
H610 C640 0.950 . S
C611 H593 0.951 . S
C611 C612 1.366 1_556 S
C611 C613 1.388 . S
C612 C611 1.366 1_554 S
C612 C616 1.385 . S
C613 H594 0.951 . S
C613 C611 1.388 . S
C613 C614 1.366 1_556 S
C614 C613 1.366 1_554 S
C614 C615 1.414 . S
C614 C617 1.499 . S
C615 H595 0.950 . S
C615 C614 1.414 . S
C615 C616 1.374 . S
C616 H596 0.950 . S
C616 C612 1.385 . S
C616 C615 1.374 . S
C617 C614 1.499 . S
C617 C618 1.373 . S
C617 C619 1.389 1_554 S
C618 H597 0.950 . S
C618 C617 1.373 . S
C618 C634 1.377 . S
C619 C617 1.389 1_556 S
C619 C620 1.524 . S
C619 C633 1.377 . S
C620 C619 1.524 . S
C620 C621 1.397 . S
C620 C625 1.363 . S
C621 H598 0.950 . S
C621 C620 1.397 . S
C621 C622 1.334 . S
C622 H599 0.950 . S
C622 C621 1.334 . S
C622 C623 1.287 . S
C623 C622 1.287 . S
C623 C624 1.524 . S
C623 H642 0.913 . S
C624 H600 0.950 . S
C624 C623 1.524 . S
C624 C625 1.415 . S
C625 H601 0.950 . S
C625 C620 1.363 . S
C625 C624 1.415 . S
C626 H602 0.951 . S
C626 C627 1.363 1_554 S
C626 C628 1.388 . S
C627 C626 1.363 1_556 S
C627 C631 1.387 . S
C628 H603 0.951 . S
C628 C626 1.388 . S
C628 C629 1.366 . S
C629 C628 1.366 . S
C629 C630 1.414 1_554 S
C629 C632 1.499 . S
C630 H604 0.950 . S
C630 C629 1.414 1_556 S
C630 C631 1.374 . S
C631 H605 0.950 . S
C631 C627 1.387 . S
C631 C630 1.374 . S
C632 C629 1.499 . S
C632 C633 1.373 1_554 S
C632 C634 1.389 . S
C633 H606 0.950 . S
C633 C619 1.377 . S
C633 C632 1.373 1_556 S
C634 C618 1.377 . S
C634 C632 1.389 . S
C634 C635 1.524 . S
C635 C634 1.524 . S
C635 C636 1.397 . S
C635 C640 1.363 . S
C636 H607 0.950 . S
C636 C635 1.397 . S
C636 C637 1.334 . S
C637 H608 0.950 . S
C637 C636 1.334 . S
C637 C638 1.287 . S
C638 C637 1.287 . S
C638 C639 1.524 . S
C638 H641 0.999 . S
C639 H609 0.950 . S
C639 C638 1.524 . S
C639 C640 1.415 . S
C640 H610 0.950 . S
C640 C635 1.363 . S
C640 C639 1.415 . S
H641 C638 0.999 . S
H642 C623 0.913 . S
H643 C661 0.951 . S
H644 C663 0.951 . S
H645 C665 0.950 . S
H646 C666 0.950 . S
H647 C668 0.950 . S
H648 C671 0.950 . S
H649 C672 0.950 . S
H650 C674 0.950 . S
H651 C675 0.950 . S
H652 C676 0.951 . S
H653 C678 0.951 . S
H654 C680 0.950 . S
H655 C681 0.950 . S
H656 C683 0.950 . S
H657 C686 0.950 . S
H658 C687 0.950 . S
H659 C689 0.950 . S
H660 C690 0.950 . S
C661 H643 0.951 . S
C661 C662 1.366 . S
C661 C663 1.388 . S
C662 C661 1.366 . S
C662 C666 1.385 1_554 S
C663 H644 0.951 . S
C663 C661 1.388 . S
C663 C664 1.366 . S
C664 C663 1.366 . S
C664 C665 1.414 1_554 S
C664 C667 1.499 . S
C665 H645 0.950 . S
C665 C664 1.414 1_556 S
C665 C666 1.374 . S
C666 H646 0.950 . S
C666 C662 1.385 1_556 S
C666 C665 1.374 . S
C667 C664 1.499 . S
C667 C668 1.372 1_554 S
C667 C669 1.391 . S
C668 H647 0.950 . S
C668 C667 1.372 1_556 S
C668 C684 1.377 . S
C669 C667 1.391 . S
C669 C670 1.524 . S
C669 C683 1.377 . S
C670 C669 1.524 . S
C670 C671 1.397 . S
C670 C675 1.363 . S
C671 H648 0.950 . S
C671 C670 1.397 . S
C671 C672 1.334 . S
C672 H649 0.950 . S
C672 C671 1.334 . S
C672 C673 1.287 . S
C673 C672 1.287 . S
C673 C674 1.524 . S
C673 H692 0.913 . S
C674 H650 0.950 . S
C674 C673 1.524 . S
C674 C675 1.415 . S
C675 H651 0.950 . S
C675 C670 1.363 . S
C675 C674 1.415 . S
C676 H652 0.951 . S
C676 C677 1.366 . S
C676 C678 1.388 . S
C677 C676 1.366 . S
C677 C681 1.385 1_556 S
C678 H653 0.951 . S
C678 C676 1.388 . S
C678 C679 1.366 . S
C679 C678 1.366 . S
C679 C680 1.414 1_556 S
C679 C682 1.499 . S
C680 H654 0.950 . S
C680 C679 1.414 1_554 S
C680 C681 1.374 . S
C681 H655 0.950 . S
C681 C677 1.385 1_554 S
C681 C680 1.374 . S
C682 C679 1.499 . S
C682 C683 1.373 1_556 S
C682 C684 1.389 . S
C683 H656 0.950 . S
C683 C669 1.377 . S
C683 C682 1.373 1_554 S
C684 C668 1.377 . S
C684 C682 1.389 . S
C684 C685 1.524 . S
C685 C684 1.524 . S
C685 C686 1.397 . S
C685 C690 1.363 . S
C686 H657 0.950 . S
C686 C685 1.397 . S
C686 C687 1.334 . S
C687 H658 0.950 . S
C687 C686 1.334 . S
C687 C688 1.287 . S
C688 C687 1.287 . S
C688 C689 1.524 . S
C688 H691 0.999 . S
C689 H659 0.950 . S
C689 C688 1.524 . S
C689 C690 1.415 . S
C690 H660 0.950 . S
C690 C685 1.363 . S
C690 C689 1.415 . S
H691 C688 0.999 . S
H692 C673 0.913 . S
C112 C82 1.167 . S
C127 C10 1.147 . S
C162 C2 1.219 . S
C177 C41 1.193 1_545 S
C212 C19 1.238 1_655 S
C227 C91 1.291 . S
C262 C61 1.146 . S
C277 C20 1.167 . S
C312 C0 1.147 1_455 S
C327 C63 1.192 . S
C362 C31 1.238 1_565 S
C377 C29 1.291 . S
C412 C64 1.219 . S
C427 C30 1.192 1_455 S
C462 C50 1.145 1_545 S
C477 C1 1.192 . S
C512 C72 1.146 . S
C527 C32 1.167 . S
C562 C92 1.193 1_554 S
C577 C60 1.219 . S
C612 C33 1.291 . S
C627 C81 1.238 1_556 S
C662 C62 1.146 1_554 S
C677 C51 1.192 . S
