# Generated by pormake.
# Topology fee, (5)-cn, num edge types: 1
# Building blocks:
#     Node 0, Type 0, BuildingBlock: XOMCOT_clean_sbu_1, # of connection points: 5
#     Node 1, Type 0, BuildingBlock: XOMCOT_clean_sbu_1, # of connection points: 5
#     Node 2, Type 0, BuildingBlock: XOMCOT_clean_sbu_1, # of connection points: 5
#     Node 3, Type 0, BuildingBlock: XOMCOT_clean_sbu_1, # of connection points: 5
#     Edge 4, Type (0, 0), BuildingBlock: MIFKUJ_clean_linker_0, # of connection points: 2
#     Edge 5, Type (0, 0), BuildingBlock: MIFKUJ_clean_linker_0, # of connection points: 2
#     Edge 6, Type (0, 0), BuildingBlock: MIFKUJ_clean_linker_0, # of connection points: 2
#     Edge 7, Type (0, 0), BuildingBlock: MIFKUJ_clean_linker_0, # of connection points: 2
#     Edge 8, Type (0, 0), BuildingBlock: MIFKUJ_clean_linker_0, # of connection points: 2
#     Edge 9, Type (0, 0), BuildingBlock: MIFKUJ_clean_linker_0, # of connection points: 2
#     Edge 10, Type (0, 0), BuildingBlock: MIFKUJ_clean_linker_0, # of connection points: 2
#     Edge 11, Type (0, 0), BuildingBlock: MIFKUJ_clean_linker_0, # of connection points: 2
#     Edge 12, Type (0, 0), BuildingBlock: MIFKUJ_clean_linker_0, # of connection points: 2
#     Edge 13, Type (0, 0), BuildingBlock: MIFKUJ_clean_linker_0, # of connection points: 2
# Relax obj value: 0.109
# Max RMSD: 0.128
# Mean RMSD: 0.118
data_MOF--net-fee--node1-XOMCOT_clean_sbu_1--edge1-MIFKUJ_clean_linker_0
_symmetry_space_group_name_H-M    P1
_symmetry_Int_Tables_number       1
_symmetry_cell_setting            triclinic
loop_
_symmetry_equiv_pos_as_xyz
'x, y, z'
_cell_length_a     49.223315
_cell_length_b     49.159008
_cell_length_c     21.987665
_cell_angle_alpha  96.55767
_cell_angle_beta   96.566711
_cell_angle_gamma 89.955024
loop_
_atom_site_label
_atom_site_type_symbol
_atom_site_fract_x
_atom_site_fract_y
_atom_site_fract_z
_atom_type_partial_charge
C0 C 0.16897 0.49212 0.04316 0.0
C1 C 0.165 0.48876 0.97978 0.0
N2 N 0.17753 0.50971 0.95916 0.0
N3 N 0.18391 0.51505 0.06247 0.0
C4 C 0.18869 0.52544 1.01037 0.0
H5 H 0.16195 0.47842 0.07339 0.0
Co6 Co 0.19536 0.52671 0.14457 0.0
C7 C 0.24379 0.56144 0.14082 0.0
O8 O 0.25705 0.54691 0.18101 0.0
N9 N 0.20581 0.5389 0.22923 0.0
C10 C 0.21457 0.56756 0.31566 0.0
C11 C 0.21165 0.56522 0.25251 0.0
C12 C 0.2037 0.52607 0.27992 0.0
N13 N 0.20944 0.54291 0.33281 0.0
O14 O 0.16489 0.55083 0.14675 0.0
H15 H 0.21208 0.58224 0.22557 0.0
H16 H 0.19645 0.50532 0.27878 0.0
O17 O 0.21865 0.5558 0.12135 0.0
C18 C 0.14587 0.53864 0.16816 0.0
O19 O 0.15056 0.51389 0.18378 0.0
N20 N 0.22353 0.50042 0.1416 0.0
C21 C 0.25862 0.4557 0.13265 0.0
C22 C 0.26039 0.47687 0.09558 0.0
C23 C 0.24232 0.49882 0.09995 0.0
C24 C 0.22029 0.47888 0.17411 0.0
C25 C 0.23806 0.45678 0.17185 0.0
H26 H 0.24305 0.51413 0.06865 0.0
H27 H 0.20284 0.47788 0.1991 0.0
H28 H 0.20031 0.54405 1.00989 0.0
H29 H 0.15449 0.47171 0.95121 0.0
H30 H 0.21826 0.58632 0.34651 0.0
H31 H 0.27541 0.47634 0.0631 0.0
H32 H 0.23493 0.44006 0.19851 0.0
C33 C 0.42501 0.18236 0.94936 0.0
C34 C 0.42054 0.18114 0.88622 0.0
N35 N 0.44495 0.18189 0.86403 0.0
N36 N 0.45212 0.18399 0.9673 0.0
C37 C 0.46375 0.18344 0.91438 0.0
H38 H 0.40946 0.18172 0.98019 0.0
Co39 Co 0.46919 0.18532 0.04773 0.0
C40 C 0.43917 0.22761 0.12048 0.0
O41 O 0.46185 0.23512 0.15595 0.0
N42 N 0.48647 0.1855 0.12983 0.0
C43 C 0.51626 0.18507 0.21407 0.0
C44 C 0.51322 0.18787 0.15226 0.0
C45 C 0.4739 0.18034 0.17924 0.0
N46 N 0.49149 0.18039 0.23125 0.0
O47 O 0.44978 0.15283 0.05803 0.0
H48 H 0.52997 0.19092 0.12629 0.0
H49 H 0.45214 0.17653 0.17687 0.0
O50 O 0.4395 0.2081 0.07675 0.0
C51 C 0.46392 0.13156 0.04685 0.0
O52 O 0.48822 0.13464 0.02899 0.0
N53 N 0.48947 0.21635 0.03453 0.0
C54 C 0.52402 0.25878 1.01438 0.0
C55 C 0.49595 0.26316 1.01708 0.0
C56 C 0.47894 0.24157 0.02613 0.0
C57 C 0.51584 0.211 0.02462 0.0
C58 C 0.53369 0.23198 1.01659 0.0
H59 H 0.4573 0.24523 0.02495 0.0
H60 H 0.5232 0.19025 0.02383 0.0
H61 H 0.48561 0.18436 0.91309 0.0
H62 H 0.40077 0.17926 0.85891 0.0
H63 H 0.53535 0.1867 0.24408 0.0
H64 H 0.48706 0.28302 1.01168 0.0
H65 H 0.55497 0.22714 1.01349 0.0
C66 C 0.81607 0.48155 0.21346 0.0
C67 C 0.82263 0.47758 0.27416 0.0
N68 N 0.83085 0.50171 0.30634 0.0
N69 N 0.81943 0.50823 0.2067 0.0
C70 C 0.82958 0.51977 0.26386 0.0
H71 H 0.80874 0.46591 0.17661 0.0
Co72 Co 0.81221 0.52257 0.12994 0.0
C73 C 0.78169 0.5639 0.21371 0.0
O74 O 0.78379 0.55081 0.26276 0.0
N75 N 0.80571 0.53601 0.0527 0.0
C76 C 0.78471 0.55409 0.97208 0.0
C77 C 0.78418 0.55106 0.03323 0.0
C78 C 0.81905 0.53011 1.0022 0.0
N79 N 0.8065 0.54071 0.95212 0.0
O80 O 0.84555 0.54339 0.14699 0.0
H81 H 0.76821 0.55832 0.06065 0.0
H82 H 0.83668 0.51695 1.00141 0.0
O83 O 0.79198 0.55398 0.16519 0.0
C84 C 0.86716 0.52929 0.14433 0.0
O85 O 0.86484 0.50256 0.13162 0.0
N86 N 0.77992 0.50098 0.11069 0.0
C87 C 0.73513 0.46509 0.07807 0.0
C88 C 0.73646 0.48413 0.13101 0.0
C89 C 0.75896 0.50181 0.14648 0.0
C90 C 0.77925 0.48231 0.05959 0.0
C91 C 0.75695 0.46444 0.042 0.0
H92 H 0.75984 0.51519 0.1887 0.0
H93 H 0.79631 0.48102 0.03256 0.0
H94 H 0.8353 0.54119 0.27438 0.0
H95 H 0.82036 0.45852 0.29339 0.0
H96 H 0.76969 0.56479 0.94411 0.0
H97 H 0.72068 0.48484 0.16164 0.0
H98 H 0.75693 0.4502 1.00062 0.0
C99 C 0.51532 0.82725 0.21847 0.0
C100 C 0.51739 0.83171 0.28165 0.0
N101 N 0.49347 0.82438 0.29958 0.0
N102 N 0.49037 0.81667 0.1966 0.0
C103 C 0.47725 0.81562 0.24721 0.0
H104 H 0.53146 0.83017 0.19025 0.0
Co105 Co 0.48053 0.80406 0.11328 0.0
C106 C 0.44631 0.75624 0.13915 0.0
O107 O 0.46601 0.73871 0.13091 0.0
N108 N 0.4705 0.79226 0.02847 0.0
C109 C 0.46054 0.76642 0.93857 0.0
C110 C 0.46295 0.76686 1.00145 0.0
C111 C 0.47215 0.80697 0.9804 0.0
N112 N 0.46632 0.79163 0.92543 0.0
O113 O 0.45656 0.83469 0.10743 0.0
H114 H 0.4608 0.74914 0.02497 0.0
H115 H 0.47905 0.82806 0.98533 0.0
O116 O 0.44996 0.78163 0.13369 0.0
C117 C 0.4712 0.85552 0.10226 0.0
O118 O 0.49735 0.85175 0.09739 0.0
N119 N 0.50722 0.7758 0.1194 0.0
C120 C 0.55359 0.74261 0.13191 0.0
C121 C 0.53657 0.74691 0.17903 0.0
C122 C 0.51378 0.76368 0.17217 0.0
C123 C 0.5241 0.77244 0.07395 0.0
C124 C 0.54684 0.75547 0.07852 0.0
H125 H 0.50146 0.76699 0.20989 0.0
H126 H 0.52073 0.78368 0.03443 0.0
H127 H 0.45693 0.80706 0.24614 0.0
H128 H 0.53536 0.83894 0.31231 0.0
H129 H 0.45576 0.74871 0.90496 0.0
H130 H 0.54124 0.73819 0.222 0.0
H131 H 0.55927 0.75296 0.04076 0.0
H132 H 0.1428 0.49081 0.85834 0.0
H133 H 0.14797 0.49545 0.75079 0.0
H134 H 0.2227 0.54177 0.80812 0.0
H135 H 0.21785 0.53697 0.91566 0.0
H136 H 0.18994 0.56502 0.7205 0.0
H137 H 0.22446 0.47498 0.74987 0.0
H138 H 0.22204 0.42813 0.779 0.0
H139 H 0.15298 0.40973 0.64245 0.0
H140 H 0.15476 0.45661 0.61308 0.0
H141 H 0.24168 0.56287 0.43526 0.0
H142 H 0.23619 0.55586 0.54156 0.0
H143 H 0.16593 0.50364 0.47671 0.0
H144 H 0.17199 0.51003 0.37012 0.0
H145 H 0.19491 0.48319 0.5677 0.0
H146 H 0.15968 0.572 0.53695 0.0
H147 H 0.16076 0.61877 0.50686 0.0
H148 H 0.22872 0.6397 0.64497 0.0
H149 H 0.22828 0.59292 0.67534 0.0
C150 C 0.16043 0.50183 0.84814 0.0
C151 C 0.17996 0.51342 0.89581 0.0
C152 C 0.16333 0.5045 0.78659 0.0
C153 C 0.18589 0.51868 0.7714 0.0
C154 C 0.20512 0.53074 0.81883 0.0
C155 C 0.20224 0.52808 0.88038 0.0
C156 C 0.18952 0.52095 0.70609 0.0
C157 C 0.19136 0.54713 0.68723 0.0
C158 C 0.19056 0.49761 0.66231 0.0
C159 C 0.18958 0.46938 0.67971 0.0
C160 C 0.20863 0.46101 0.72639 0.0
C161 C 0.20739 0.43444 0.74288 0.0
C162 C 0.18732 0.41599 0.71271 0.0
C163 C 0.16849 0.42405 0.66585 0.0
C164 C 0.16962 0.45061 0.64922 0.0
C165 C 0.22518 0.54981 0.44387 0.0
C166 C 0.20719 0.53711 0.39469 0.0
C167 C 0.22196 0.54589 0.50452 0.0
C168 C 0.20025 0.52972 0.51732 0.0
C169 C 0.18277 0.51628 0.46804 0.0
C170 C 0.18626 0.51987 0.40719 0.0
C171 C 0.19554 0.52729 0.58208 0.0
C172 C 0.19344 0.5011 0.60085 0.0
C173 C 0.19398 0.55064 0.62572 0.0
C174 C 0.19408 0.57889 0.60807 0.0
C175 C 0.17495 0.58653 0.56067 0.0
C176 C 0.17544 0.61305 0.54358 0.0
C177 C 0.19483 0.63218 0.57389 0.0
C178 C 0.21372 0.62485 0.62149 0.0
C179 C 0.21335 0.59835 0.63871 0.0
H180 H 0.19519 0.65269 0.56057 0.0
H181 H 0.1864 0.39543 0.72555 0.0
H182 H 0.40899 0.19446 0.76808 0.0
H183 H 0.41654 0.1921 0.66008 0.0
H184 H 0.49925 0.16587 0.70513 0.0
H185 H 0.49178 0.16766 0.81349 0.0
H186 H 0.49653 0.20563 0.62722 0.0
H187 H 0.45144 0.12022 0.63685 0.0
H188 H 0.41524 0.09011 0.66175 0.0
H189 H 0.35569 0.12904 0.54315 0.0
H190 H 0.39149 0.15968 0.51821 0.0
H191 H 0.52556 0.1627 0.32422 0.0
H192 H 0.5168 0.16181 0.43092 0.0
H193 H 0.43472 0.18983 0.38608 0.0
H194 H 0.44348 0.19127 0.27903 0.0
H195 H 0.43697 0.14884 0.46359 0.0
H196 H 0.48186 0.2345 0.45481 0.0
H197 H 0.51794 0.2648 0.4301 0.0
H198 H 0.57774 0.22559 0.54755 0.0
H199 H 0.54206 0.19475 0.57225 0.0
C200 C 0.42872 0.18785 0.75531 0.0
C201 C 0.44968 0.18104 0.80002 0.0
C202 C 0.43301 0.18659 0.69329 0.0
C203 C 0.45835 0.1785 0.6743 0.0
C204 C 0.4795 0.17215 0.71871 0.0
C205 C 0.4752 0.17329 0.78084 0.0
C206 C 0.46277 0.17694 0.60817 0.0
C207 C 0.48377 0.19289 0.59157 0.0
C208 C 0.44568 0.16086 0.56139 0.0
C209 C 0.42411 0.14243 0.57615 0.0
C210 C 0.43058 0.12252 0.61648 0.0
C211 C 0.41014 0.10533 0.63052 0.0
C212 C 0.38316 0.10771 0.60417 0.0
C213 C 0.37659 0.12725 0.56359 0.0
C214 C 0.39695 0.14451 0.54944 0.0
C215 C 0.50565 0.1688 0.33687 0.0
C216 C 0.48536 0.17742 0.29295 0.0
C217 C 0.50065 0.16817 0.39798 0.0
C218 C 0.47525 0.17616 0.41674 0.0
C219 C 0.45451 0.18365 0.37264 0.0
C220 C 0.45953 0.18436 0.31136 0.0
C221 C 0.47075 0.17748 0.48276 0.0
C222 C 0.44974 0.16153 0.4993 0.0
C223 C 0.48781 0.19359 0.52954 0.0
C224 C 0.50933 0.21212 0.51486 0.0
C225 C 0.50274 0.23217 0.47494 0.0
C226 C 0.52312 0.24947 0.46101 0.0
C227 C 0.55013 0.24707 0.4871 0.0
C228 C 0.55682 0.22739 0.52729 0.0
C229 C 0.53652 0.21001 0.5413 0.0
H230 H 0.56588 0.26049 0.47628 0.0
H231 H 0.36737 0.09437 0.61509 0.0
H232 H 0.77079 0.53972 0.84839 0.0
H233 H 0.78094 0.53336 0.74202 0.0
H234 H 0.86654 0.52504 0.80385 0.0
H235 H 0.85649 0.53197 0.91167 0.0
H236 H 0.85775 0.55778 0.70677 0.0
H237 H 0.83057 0.46919 0.7495 0.0
H238 H 0.801 0.43584 0.78714 0.0
H239 H 0.7346 0.45421 0.65437 0.0
H240 H 0.76365 0.48798 0.61652 0.0
H241 H 0.84921 0.46593 0.38654 0.0
H242 H 0.85104 0.47261 0.49863 0.0
H243 H 0.82542 0.55615 0.49076 0.0
H244 H 0.82328 0.54949 0.37817 0.0
H245 H 0.80957 0.48304 0.56432 0.0
H246 H 0.85023 0.59459 0.62695 0.0
H247 H 0.88196 0.62621 0.59016 0.0
H248 H 0.92638 0.55791 0.51342 0.0
H249 H 0.89516 0.52593 0.55039 0.0
C250 C 0.79187 0.53687 0.8398 0.0
C251 C 0.81285 0.53651 0.88897 0.0
C252 C 0.79761 0.53301 0.77865 0.0
C253 C 0.82448 0.52855 0.76466 0.0
C254 C 0.84563 0.52845 0.81344 0.0
C255 C 0.83984 0.53218 0.87503 0.0
C256 C 0.82999 0.5234 0.69895 0.0
C257 C 0.8473 0.5414 0.67563 0.0
C258 C 0.81672 0.50178 0.65828 0.0
C259 C 0.79925 0.48127 0.68048 0.0
C260 C 0.80961 0.46625 0.72859 0.0
C261 C 0.79295 0.44725 0.74994 0.0
C262 C 0.76592 0.44294 0.72324 0.0
C263 C 0.75553 0.45758 0.67503 0.0
C264 C 0.7721 0.47663 0.65356 0.0
C265 C 0.8441 0.4858 0.4085 0.0
C266 C 0.83583 0.50707 0.37292 0.0
C267 C 0.84521 0.48961 0.4728 0.0
C268 C 0.8383 0.51485 0.50349 0.0
C269 C 0.83113 0.53654 0.46842 0.0
C270 C 0.82998 0.53272 0.40387 0.0
C271 C 0.83688 0.51778 0.57152 0.0
C272 C 0.8202 0.49937 0.59532 0.0
C273 C 0.85103 0.53878 0.61255 0.0
C274 C 0.87018 0.55788 0.59096 0.0
C275 C 0.86684 0.58633 0.60245 0.0
C276 C 0.88472 0.60432 0.5815 0.0
C277 C 0.90612 0.59408 0.54927 0.0
C278 C 0.90974 0.56583 0.53813 0.0
C279 C 0.89193 0.54777 0.559 0.0
H280 H 0.91992 0.60804 0.53304 0.0
H281 H 0.75305 0.42824 0.73985 0.0
H282 H 0.44563 0.83627 0.87594 0.0
H283 H 0.4478 0.84685 0.7694 0.0
H284 H 0.49608 0.77477 0.73396 0.0
H285 H 0.49312 0.76378 0.83902 0.0
H286 H 0.51422 0.83204 0.69761 0.0
H287 H 0.44015 0.76313 0.68032 0.0
H288 H 0.39617 0.74729 0.70816 0.0
H289 H 0.35708 0.81942 0.64892 0.0
H290 H 0.401 0.83588 0.62166 0.0
H291 H 0.52578 0.80123 0.3854 0.0
H292 H 0.51872 0.7997 0.49309 0.0
H293 H 0.443 0.84326 0.46363 0.0
H294 H 0.44949 0.84319 0.35415 0.0
H295 H 0.43586 0.8083 0.5372 0.0
H296 H 0.50538 0.87509 0.53946 0.0
H297 H 0.5482 0.89494 0.5146 0.0
H298 H 0.59462 0.83433 0.60593 0.0
H299 H 0.55206 0.81387 0.6306 0.0
C300 C 0.4568 0.8229 0.84524 0.0
C301 C 0.4691 0.79918 0.86514 0.0
C302 C 0.45797 0.82887 0.78466 0.0
C303 C 0.47204 0.8115 0.744 0.0
C304 C 0.4851 0.78836 0.76467 0.0
C305 C 0.48335 0.78206 0.82442 0.0
C306 C 0.47286 0.81681 0.67926 0.0
C307 C 0.49719 0.82682 0.66232 0.0
C308 C 0.45025 0.81094 0.63395 0.0
C309 C 0.42389 0.80089 0.64977 0.0
C310 C 0.42224 0.77574 0.67387 0.0
C311 C 0.39732 0.76662 0.68939 0.0
C312 C 0.37386 0.78238 0.68052 0.0
C313 C 0.37527 0.80726 0.6559 0.0
C314 C 0.40017 0.81649 0.64039 0.0
C315 C 0.50762 0.81038 0.40209 0.0
C316 C 0.48831 0.82258 0.36205 0.0
C317 C 0.50366 0.80974 0.46374 0.0
C318 C 0.48076 0.8222 0.48746 0.0
C319 C 0.46097 0.83373 0.44685 0.0
C320 C 0.46463 0.83373 0.38446 0.0
C321 C 0.4777 0.82288 0.55444 0.0
C322 C 0.45291 0.81402 0.57211 0.0
C323 C 0.49977 0.83047 0.60077 0.0
C324 C 0.52549 0.84285 0.58655 0.0
C325 C 0.52471 0.8659 0.55396 0.0
C326 C 0.54894 0.87727 0.53992 0.0
C327 C 0.57411 0.86588 0.55859 0.0
C328 C 0.5751 0.84313 0.59149 0.0
C329 C 0.55093 0.83166 0.6056 0.0
H330 H 0.59284 0.8747 0.54765 0.0
H331 H 0.35458 0.77528 0.69256 0.0
H332 H 0.91354 0.50708 0.19405 0.0
H333 H 0.95996 0.52588 0.20566 0.0
H334 H 0.92982 0.59866 0.1295 0.0
H335 H 0.88275 0.5801 0.11929 0.0
H336 H 0.97594 0.56789 0.07255 0.0
H337 H 0.95307 0.6119 0.2632 0.0
H338 H 0.93305 0.61567 0.36155 0.0
H339 H 0.98759 0.55418 0.42571 0.0
H340 H 0.00768 0.5497 0.32739 0.0
H341 H 0.12253 0.5831 0.11648 0.0
H342 H 0.07504 0.59862 0.11937 0.0
H343 H 0.06065 0.5362 0.23539 0.0
H344 H 0.10747 0.52123 0.23371 0.0
H345 H 0.03521 0.5811 0.27209 0.0
H346 H 0.04555 0.52699 0.07412 0.0
H347 H 0.06445 0.51864 0.9745 0.0
H348 H 0.03267 0.59535 0.92405 0.0
H349 H 0.01387 0.60426 0.02378 0.0
C350 C 0.91671 0.52724 0.18046 0.0
C351 C 0.89462 0.54214 0.15572 0.0
C352 C 0.94321 0.53799 0.18731 0.0
C353 C 0.94825 0.56366 0.16861 0.0
C354 C 0.92624 0.57885 0.14444 0.0
C355 C 0.89946 0.56831 0.13887 0.0
C356 C 0.97695 0.57316 0.17132 0.0
C357 C 0.98888 0.57174 0.11611 0.0
C358 C 0.99373 0.57777 0.22818 0.0
C359 C 0.98186 0.58044 0.28773 0.0
C360 C 0.96069 0.59904 0.29809 0.0
C361 C 0.94934 0.60133 0.35388 0.0
C362 C 0.95904 0.58518 0.39983 0.0
C363 C 0.98012 0.56671 0.39009 0.0
C364 C 0.99154 0.56433 0.33437 0.0
C365 C 0.10928 0.5731 0.14339 0.0
C366 C 0.11863 0.55074 0.17423 0.0
C367 C 0.08216 0.5819 0.14486 0.0
C368 C 0.06415 0.5684 0.17715 0.0
C369 C 0.07406 0.54703 0.2103 0.0
C370 C 0.10089 0.53832 0.20884 0.0
C371 C 0.0344 0.57435 0.17334 0.0
C372 C 0.02225 0.57853 0.22843 0.0
C373 C 0.01743 0.57184 0.11637 0.0
C374 C 0.02867 0.56646 0.05658 0.0
C375 C 0.04278 0.54215 0.04191 0.0
C376 C 0.05344 0.5373 0.98545 0.0
C377 C 0.04985 0.5565 0.94307 0.0
C378 C 0.03551 0.58054 0.957 0.0
C379 C 0.02486 0.5855 1.01347 0.0
H380 H 0.05811 0.55272 0.89936 0.0
H381 H 0.95026 0.58702 0.44301 0.0
H382 H 0.41738 0.87282 0.09347 0.0
H383 H 0.40156 0.92059 0.09627 0.0
H384 H 0.48543 0.94902 0.12105 0.0
H385 H 0.50111 0.90229 0.1183 0.0
H386 H 0.45466 0.97953 0.19818 0.0
H387 H 0.44874 0.9414 0.97996 0.0
H388 H 0.42981 0.90909 0.89103 0.0
H389 H 0.3487 0.93712 0.91566 0.0
H390 H 0.36718 0.96935 1.00529 0.0
H391 H 0.49451 0.08581 0.05046 0.0
H392 H 0.48071 0.04059 0.07109 0.0
H393 H 0.39868 0.06889 0.08739 0.0
H394 H 0.41253 0.115 0.06759 0.0
H395 H 0.41026 0.012 1.00592 0.0
H396 H 0.42147 0.06047 0.20864 0.0
H397 H 0.4442 0.09374 0.29119 0.0
H398 H 0.51763 0.0465 0.29341 0.0
H399 H 0.49553 0.01322 0.21003 0.0
C400 C 0.43232 0.88936 0.09983 0.0
C401 C 0.46048 0.88374 0.10521 0.0
C402 C 0.42329 0.91657 0.10147 0.0
C403 C 0.44235 0.93838 0.10911 0.0
C404 C 0.47033 0.93262 0.11566 0.0
C405 C 0.47927 0.90574 0.11352 0.0
C406 C 0.43413 0.96737 0.10725 0.0
C407 C 0.44446 0.98664 0.15662 0.0
C408 C 0.42027 0.97668 0.05363 0.0
C409 C 0.40926 0.95747 0.99969 0.0
C410 C 0.42685 0.9405 0.96664 0.0
C411 C 0.41621 0.92224 0.9161 0.0
C412 C 0.38806 0.92098 0.89784 0.0
C413 C 0.37049 0.93806 0.92997 0.0
C414 C 0.38103 0.95631 0.98063 0.0
C415 C 0.47346 0.08257 0.0581 0.0
C416 C 0.45462 0.10405 0.05747 0.0
C417 C 0.46563 0.05666 0.06991 0.0
C418 C 0.43874 0.05148 0.0808 0.0
C419 C 0.41954 0.07258 0.07897 0.0
C420 C 0.4275 0.09884 0.06791 0.0
C421 C 0.43183 0.02392 0.09582 0.0
C422 C 0.41901 0.00495 0.04883 0.0
C423 C 0.44357 0.01482 0.15151 0.0
C424 C 0.45682 0.03437 0.20289 0.0
C425 C 0.44251 0.05725 0.22648 0.0
C426 C 0.45528 0.07611 0.27344 0.0
C427 C 0.48234 0.07225 0.2975 0.0
C428 C 0.49665 0.04946 0.27476 0.0
C429 C 0.48399 0.03056 0.22771 0.0
H430 H 0.49221 0.0869 0.33378 0.0
H431 H 0.37986 0.90684 0.85869 0.0
H432 H 0.39913 0.23483 0.02699 0.0
H433 H 0.36469 0.27084 0.02619 0.0
H434 H 0.39102 0.29754 0.21749 0.0
H435 H 0.42582 0.26191 0.21844 0.0
H436 H 0.33143 0.29707 0.18065 0.0
H437 H 0.41738 0.32924 0.12357 0.0
H438 H 0.45591 0.32511 0.06073 0.0
H439 H 0.40026 0.32874 0.89664 0.0
H440 H 0.36132 0.33238 0.9585 0.0
H441 H 0.28622 0.43225 0.22739 0.0
H442 H 0.31417 0.39115 0.22156 0.0
H443 H 0.2997 0.38338 0.02297 0.0
H444 H 0.27226 0.42505 0.02872 0.0
H445 H 0.35057 0.37151 0.05614 0.0
H446 H 0.26493 0.34291 0.10966 0.0
H447 H 0.22501 0.34422 0.16818 0.0
H448 H 0.27721 0.33123 0.33231 0.0
H449 H 0.31752 0.33023 0.27496 0.0
C450 C 0.39715 0.24794 0.06929 0.0
C451 C 0.41525 0.24569 0.12275 0.0
C452 C 0.37755 0.26854 0.06865 0.0
C453 C 0.37552 0.28691 0.12165 0.0
C454 C 0.39231 0.28353 0.17617 0.0
C455 C 0.4122 0.26325 0.17657 0.0
C456 C 0.35779 0.31117 0.11896 0.0
C457 C 0.33564 0.31348 0.15386 0.0
C458 C 0.36297 0.33211 0.08255 0.0
C459 C 0.38642 0.33079 0.04557 0.0
C460 C 0.41335 0.32898 0.07405 0.0
C461 C 0.43526 0.32673 0.03862 0.0
C462 C 0.43053 0.32658 0.97471 0.0
C463 C 0.40388 0.32881 0.94614 0.0
C464 C 0.38189 0.33097 0.98136 0.0
C465 C 0.28907 0.42179 0.18251 0.0
C466 C 0.27696 0.43175 0.12854 0.0
C467 C 0.30494 0.39823 0.17918 0.0
C468 C 0.30856 0.38375 0.12183 0.0
C469 C 0.29712 0.3941 0.06775 0.0
C470 C 0.2815 0.41793 0.07105 0.0
C471 C 0.32418 0.35779 0.11867 0.0
C472 C 0.34603 0.3551 0.08262 0.0
C473 C 0.31848 0.3363 0.15344 0.0
C474 C 0.29428 0.33672 0.18809 0.0
C475 C 0.26792 0.34052 0.15833 0.0
C476 C 0.24523 0.34118 0.19128 0.0
C477 C 0.24858 0.33787 0.25396 0.0
C478 C 0.27465 0.33382 0.28377 0.0
C479 C 0.29743 0.33317 0.25105 0.0
H480 H 0.23098 0.33839 0.27939 0.0
H481 H 0.44752 0.3248 0.94735 0.0
H482 H 0.73593 0.41118 0.02848 0.0
H483 H 0.6978 0.37841 1.0083 0.0
H484 H 0.64339 0.4408 0.07477 0.0
H485 H 0.68107 0.47412 0.09272 0.0
H486 H 0.64193 0.39076 0.12924 0.0
H487 H 0.63725 0.42228 0.92852 0.0
H488 H 0.65624 0.43234 0.83439 0.0
H489 H 0.67671 0.34771 0.79533 0.0
H490 H 0.6582 0.33721 0.88978 0.0
H491 H 0.52119 0.31226 0.06553 0.0
H492 H 0.55423 0.34911 0.06643 0.0
H493 H 0.60449 0.29456 0.96055 0.0
H494 H 0.57044 0.25818 0.95482 0.0
H495 H 0.60755 0.34211 0.92469 0.0
H496 H 0.61666 0.30956 0.1229 0.0
H497 H 0.60138 0.29717 0.21922 0.0
H498 H 0.57729 0.38019 0.26622 0.0
H499 H 0.5921 0.39299 0.16972 0.0
C500 C 0.71578 0.4182 0.03756 0.0
C501 C 0.71169 0.44539 0.06246 0.0
C502 C 0.69403 0.39934 0.0263 0.0
C503 C 0.66782 0.40723 0.04004 0.0
C504 C 0.66353 0.43433 0.06412 0.0
C505 C 0.68516 0.45328 0.0747 0.0
C506 C 0.64516 0.38688 0.03188 0.0
C507 C 0.63405 0.38042 0.08444 0.0
C508 C 0.63567 0.37278 0.97366 0.0
C509 C 0.64655 0.37901 0.91653 0.0
C510 C 0.64599 0.40585 0.90013 0.0
C511 C 0.65664 0.41163 0.84666 0.0
C512 C 0.66774 0.39069 0.80898 0.0
C513 C 0.66813 0.36391 0.8246 0.0
C514 C 0.65754 0.35803 0.87805 0.0
C515 C 0.53889 0.30815 0.04104 0.0
C516 C 0.54318 0.28192 1.01082 0.0
C517 C 0.55804 0.32923 0.04244 0.0
C518 C 0.5823 0.32446 1.01511 0.0
C519 C 0.58611 0.29872 0.98262 0.0
C520 C 0.56671 0.27776 0.98015 0.0
C521 C 0.60412 0.3459 0.0222 0.0
C522 C 0.61521 0.35253 0.96954 0.0
C523 C 0.61407 0.35977 0.08061 0.0
C524 C 0.60522 0.35216 0.13878 0.0
C525 C 0.60793 0.32513 0.15357 0.0
C526 C 0.59937 0.31804 0.20822 0.0
C527 C 0.5883 0.33786 0.24873 0.0
C528 C 0.58583 0.36484 0.23475 0.0
C529 C 0.59431 0.37203 0.1801 0.0
H530 H 0.58169 0.33233 0.29102 0.0
H531 H 0.67598 0.3952 0.76762 0.0
H532 H 0.60328 0.75063 0.09003 0.0
H533 H 0.64447 0.72324 0.10344 0.0
H534 H 0.60324 0.67034 0.20765 0.0
H535 H 0.56139 0.6966 0.19185 0.0
H536 H 0.65801 0.69157 0.26266 0.0
H537 H 0.60992 0.64625 0.0726 0.0
H538 H 0.58729 0.64521 0.96633 0.0
H539 H 0.6611 0.67475 0.90818 0.0
H540 H 0.68405 0.67635 1.0144 0.0
H541 H 0.74013 0.57582 0.28349 0.0
H542 H 0.70485 0.60993 0.27024 0.0
H543 H 0.74416 0.63857 0.12328 0.0
H544 H 0.77907 0.60334 0.13464 0.0
H545 H 0.69319 0.63441 0.08845 0.0
H546 H 0.74344 0.67688 0.27144 0.0
H547 H 0.76765 0.68076 0.37666 0.0
H548 H 0.69329 0.66136 0.44804 0.0
H549 H 0.66869 0.65698 0.34313 0.0
C550 C 0.60265 0.73288 0.11481 0.0
C551 C 0.57878 0.72585 0.1396 0.0
C552 C 0.62637 0.71742 0.1229 0.0
C553 C 0.62683 0.69486 0.15659 0.0
C554 C 0.60327 0.68784 0.18184 0.0
C555 C 0.5794 0.703 0.17296 0.0
C556 C 0.65187 0.67843 0.16536 0.0
C557 C 0.66567 0.67884 0.22485 0.0
C558 C 0.66234 0.66284 0.11542 0.0
C559 C 0.64859 0.66172 0.05156 0.0
C560 C 0.62124 0.65277 0.03728 0.0
C561 C 0.60837 0.65203 0.97703 0.0
C562 C 0.62272 0.65999 0.93056 0.0
C563 C 0.64999 0.66864 0.94423 0.0
C564 C 0.66294 0.66945 1.00443 0.0
C565 C 0.74157 0.58964 0.24896 0.0
C566 C 0.76242 0.5869 0.21012 0.0
C567 C 0.72139 0.6093 0.2416 0.0
C568 C 0.72197 0.62724 0.1964 0.0
C569 C 0.74322 0.62501 0.15853 0.0
C570 C 0.7632 0.60494 0.16514 0.0
C571 C 0.6994 0.64699 0.1864 0.0
C572 C 0.68594 0.6473 0.12654 0.0
C573 C 0.68958 0.66371 0.23595 0.0
C574 C 0.70426 0.66641 0.29927 0.0
C575 C 0.73228 0.67326 0.3095 0.0
C576 C 0.74607 0.67557 0.36911 0.0
C577 C 0.73203 0.67126 0.41899 0.0
C578 C 0.70414 0.66468 0.40936 0.0
C579 C 0.69025 0.66232 0.34983 0.0
H580 H 0.74275 0.67306 0.4651 0.0
H581 H 0.61273 0.6594 0.88394 0.0
H582 H 0.43521 0.70772 0.17819 0.0
H583 H 0.39128 0.68402 0.16738 0.0
H584 H 0.35108 0.75463 0.10107 0.0
H585 H 0.39558 0.77874 0.11108 0.0
H586 H 0.32468 0.71714 0.19689 0.0
H587 H 0.35295 0.71872 0.99457 0.0
H588 H 0.38759 0.71701 0.92163 0.0
H589 H 0.40929 0.63576 0.96143 0.0
H590 H 0.37516 0.63722 0.0356 0.0
H591 H 0.22179 0.61012 0.10987 0.0
H592 H 0.24731 0.65167 0.09603 0.0
H593 H 0.32296 0.60762 0.1184 0.0
H594 H 0.29783 0.5666 0.13291 0.0
H595 H 0.32146 0.64178 0.02532 0.0
H596 H 0.30159 0.64397 0.2389 0.0
H597 H 0.27004 0.64458 0.31849 0.0
H598 H 0.23359 0.71804 0.25989 0.0
H599 H 0.2647 0.71758 0.17927 0.0
C600 C 0.41704 0.71853 0.16239 0.0
C601 C 0.41893 0.74499 0.14472 0.0
C602 C 0.39192 0.70494 0.15644 0.0
C603 C 0.36806 0.71748 0.1329 0.0
C604 C 0.36936 0.74467 0.1194 0.0
C605 C 0.39473 0.7584 0.12523 0.0
C606 C 0.34293 0.70044 0.11656 0.0
C607 C 0.32329 0.70123 0.15812 0.0
C608 C 0.3415 0.67945 0.06659 0.0
C609 C 0.3616 0.67816 0.0209 0.0
C610 C 0.36525 0.70057 0.9881 0.0
C611 C 0.38478 0.69964 0.9465 0.0
C612 C 0.40066 0.6763 0.93695 0.0
C613 C 0.39698 0.65382 0.96887 0.0
C614 C 0.37752 0.65468 1.01066 0.0
C615 C 0.24381 0.60928 0.11051 0.0
C616 C 0.2579 0.58525 0.12279 0.0
C617 C 0.25834 0.63299 0.10289 0.0
C618 C 0.28705 0.63274 0.10652 0.0
C619 C 0.30084 0.60828 0.11528 0.0
C620 C 0.28646 0.58487 0.12384 0.0
C621 C 0.30342 0.65807 0.10631 0.0
C622 C 0.32181 0.6585 0.06215 0.0
C623 C 0.30363 0.68014 0.15384 0.0
C624 C 0.28518 0.68054 0.20261 0.0
C625 C 0.28669 0.66012 0.24269 0.0
C626 C 0.26892 0.66045 0.28802 0.0
C627 C 0.24976 0.68128 0.29411 0.0
C628 C 0.24839 0.70187 0.255 0.0
C629 C 0.26608 0.70158 0.20949 0.0
H630 H 0.23602 0.68151 0.32923 0.0
H631 H 0.41578 0.67562 0.90476 0.0
loop_
_geom_bond_atom_site_label_1
_geom_bond_atom_site_label_2
_geom_bond_distance
_geom_bond_site_symmetry_2
_ccdc_geom_bond_type
C0 C1 1.351 . S
C0 N3 1.368 . S
C0 H5 0.931 . S
C1 C0 1.351 . S
C1 N2 1.373 . S
C1 H29 0.930 . S
N2 C1 1.373 . S
N2 C4 1.340 . S
N3 C0 1.368 . S
N3 C4 1.321 . S
N3 Co6 2.135 1_556 S
C4 N2 1.340 . S
C4 N3 1.321 . S
C4 H28 0.930 . S
H5 C0 0.931 . S
Co6 N3 2.135 1_554 S
Co6 N9 2.121 . S
Co6 O14 2.055 . S
Co6 O17 2.039 . S
Co6 N20 2.140 . S
C7 O8 1.227 . S
C7 O17 1.265 . S
O8 C7 1.227 . S
N9 Co6 2.121 . S
N9 C11 1.375 . S
N9 C12 1.313 . S
C10 C11 1.338 . S
C10 N13 1.377 . S
C10 H30 0.930 . S
C11 N9 1.375 . S
C11 C10 1.338 . S
C11 H15 0.931 . S
C12 N9 1.313 . S
C12 N13 1.344 . S
C12 H16 0.930 . S
N13 C10 1.377 . S
N13 C12 1.344 . S
O14 Co6 2.055 . S
O14 C18 1.253 . S
H15 C11 0.931 . S
H16 C12 0.930 . S
O17 Co6 2.039 . S
O17 C7 1.265 . S
C18 O14 1.253 . S
C18 O19 1.227 . S
O19 C18 1.227 . S
N20 Co6 2.140 . S
N20 C23 1.346 . S
N20 C24 1.345 . S
C21 C22 1.387 . S
C21 C25 1.391 . S
C22 C21 1.387 . S
C22 C23 1.369 . S
C22 H31 0.929 1_554 S
C23 N20 1.346 . S
C23 C22 1.369 . S
C23 H26 0.928 1_554 S
C24 N20 1.345 . S
C24 C25 1.371 . S
C24 H27 0.931 . S
C25 C21 1.391 . S
C25 C24 1.371 . S
C25 H32 0.930 . S
H26 C23 0.928 1_556 S
H27 C24 0.931 . S
H28 C4 0.930 . S
H29 C1 0.930 . S
H30 C10 0.930 . S
H31 C22 0.929 1_556 S
H32 C25 0.930 . S
C33 C34 1.351 . S
C33 N36 1.368 . S
C33 H38 0.931 . S
C34 C33 1.351 . S
C34 N35 1.373 . S
C34 H62 0.930 . S
N35 C34 1.373 . S
N35 C37 1.340 . S
N36 C33 1.368 . S
N36 C37 1.321 . S
N36 Co39 2.135 1_556 S
C37 N35 1.340 . S
C37 N36 1.321 . S
C37 H61 0.930 . S
H38 C33 0.931 . S
Co39 N36 2.135 1_554 S
Co39 N42 2.121 . S
Co39 O47 2.055 . S
Co39 O50 2.039 . S
Co39 N53 2.140 . S
C40 O41 1.227 . S
C40 O50 1.265 . S
O41 C40 1.227 . S
N42 Co39 2.121 . S
N42 C44 1.375 . S
N42 C45 1.313 . S
C43 C44 1.338 . S
C43 N46 1.377 . S
C43 H63 0.930 . S
C44 N42 1.375 . S
C44 C43 1.338 . S
C44 H48 0.931 . S
C45 N42 1.313 . S
C45 N46 1.344 . S
C45 H49 0.930 . S
N46 C43 1.377 . S
N46 C45 1.344 . S
O47 Co39 2.055 . S
O47 C51 1.253 . S
H48 C44 0.931 . S
H49 C45 0.930 . S
O50 Co39 2.039 . S
O50 C40 1.265 . S
C51 O47 1.253 . S
C51 O52 1.227 . S
O52 C51 1.227 . S
N53 Co39 2.140 . S
N53 C56 1.346 . S
N53 C57 1.345 . S
C54 C55 1.387 . S
C54 C58 1.391 . S
C55 C54 1.387 . S
C55 C56 1.369 . S
C55 H64 0.929 . S
C56 N53 1.346 . S
C56 C55 1.369 . S
C56 H59 0.928 1_554 S
C57 N53 1.345 . S
C57 C58 1.371 . S
C57 H60 0.931 . S
C58 C54 1.391 . S
C58 C57 1.371 . S
C58 H65 0.930 . S
H59 C56 0.928 1_556 S
H60 C57 0.931 . S
H61 C37 0.930 . S
H62 C34 0.930 . S
H63 C43 0.930 . S
H64 C55 0.929 . S
H65 C58 0.930 . S
C66 C67 1.351 . S
C66 N69 1.368 . S
C66 H71 0.931 . S
C67 C66 1.351 . S
C67 N68 1.373 . S
C67 H95 0.930 . S
N68 C67 1.373 . S
N68 C70 1.340 . S
N69 C66 1.368 . S
N69 C70 1.321 . S
N69 Co72 2.135 . S
C70 N68 1.340 . S
C70 N69 1.321 . S
C70 H94 0.930 . S
H71 C66 0.931 . S
Co72 N69 2.135 . S
Co72 N75 2.121 . S
Co72 O80 2.055 . S
Co72 O83 2.039 . S
Co72 N86 2.140 . S
C73 O74 1.227 . S
C73 O83 1.265 . S
O74 C73 1.227 . S
N75 Co72 2.121 . S
N75 C77 1.375 . S
N75 C78 1.313 . S
C76 C77 1.338 1_556 S
C76 N79 1.377 . S
C76 H96 0.930 . S
C77 N75 1.375 . S
C77 C76 1.338 1_554 S
C77 H81 0.931 . S
C78 N75 1.313 . S
C78 N79 1.344 1_554 S
C78 H82 0.930 . S
N79 C76 1.377 . S
N79 C78 1.344 1_556 S
O80 Co72 2.055 . S
O80 C84 1.253 . S
H81 C77 0.931 . S
H82 C78 0.930 . S
O83 Co72 2.039 . S
O83 C73 1.265 . S
C84 O80 1.253 . S
C84 O85 1.227 . S
O85 C84 1.227 . S
N86 Co72 2.140 . S
N86 C89 1.346 . S
N86 C90 1.345 . S
C87 C88 1.387 . S
C87 C91 1.391 . S
C88 C87 1.387 . S
C88 C89 1.369 . S
C88 H97 0.929 . S
C89 N86 1.346 . S
C89 C88 1.369 . S
C89 H92 0.928 . S
C90 N86 1.345 . S
C90 C91 1.371 . S
C90 H93 0.931 . S
C91 C87 1.391 . S
C91 C90 1.371 . S
C91 H98 0.930 . S
H92 C89 0.928 . S
H93 C90 0.931 . S
H94 C70 0.930 . S
H95 C67 0.930 . S
H96 C76 0.930 . S
H97 C88 0.929 . S
H98 C91 0.930 . S
C99 C100 1.351 . S
C99 N102 1.368 . S
C99 H104 0.931 . S
C100 C99 1.351 . S
C100 N101 1.373 . S
C100 H128 0.930 . S
N101 C100 1.373 . S
N101 C103 1.340 . S
N102 C99 1.368 . S
N102 C103 1.321 . S
N102 Co105 2.135 . S
C103 N101 1.340 . S
C103 N102 1.321 . S
C103 H127 0.930 . S
H104 C99 0.931 . S
Co105 N102 2.135 . S
Co105 N108 2.121 . S
Co105 O113 2.055 . S
Co105 O116 2.039 . S
Co105 N119 2.140 . S
C106 O107 1.227 . S
C106 O116 1.265 . S
O107 C106 1.227 . S
N108 Co105 2.121 . S
N108 C110 1.375 . S
N108 C111 1.313 1_554 S
C109 C110 1.338 1_556 S
C109 N112 1.377 . S
C109 H129 0.930 . S
C110 N108 1.375 . S
C110 C109 1.338 1_554 S
C110 H114 0.931 . S
C111 N108 1.313 1_556 S
C111 N112 1.344 . S
C111 H115 0.930 1_556 S
N112 C109 1.377 . S
N112 C111 1.344 . S
O113 Co105 2.055 . S
O113 C117 1.253 . S
H114 C110 0.931 . S
H115 C111 0.930 1_554 S
O116 Co105 2.039 . S
O116 C106 1.265 . S
C117 O113 1.253 . S
C117 O118 1.227 . S
O118 C117 1.227 . S
N119 Co105 2.140 . S
N119 C122 1.346 . S
N119 C123 1.345 . S
C120 C121 1.387 . S
C120 C124 1.391 . S
C121 C120 1.387 . S
C121 C122 1.369 . S
C121 H130 0.929 . S
C122 N119 1.346 . S
C122 C121 1.369 . S
C122 H125 0.928 . S
C123 N119 1.345 . S
C123 C124 1.371 . S
C123 H126 0.931 . S
C124 C120 1.391 . S
C124 C123 1.371 . S
C124 H131 0.930 . S
H125 C122 0.928 . S
H126 C123 0.931 . S
H127 C103 0.930 . S
H128 C100 0.930 . S
H129 C109 0.930 . S
H130 C121 0.929 . S
H131 C124 0.930 . S
H132 C150 0.951 . S
H133 C152 0.951 . S
H134 C154 0.950 . S
H135 C155 0.950 . S
H136 C157 0.950 . S
H137 C160 0.950 . S
H138 C161 0.950 . S
H139 C163 0.950 . S
H140 C164 0.950 . S
H141 C165 0.951 . S
H142 C167 0.951 . S
H143 C169 0.950 . S
H144 C170 0.950 . S
H145 C172 0.950 . S
H146 C175 0.950 . S
H147 C176 0.950 . S
H148 C178 0.950 . S
H149 C179 0.950 . S
C150 H132 0.951 . S
C150 C151 1.366 . S
C150 C152 1.388 . S
C151 C150 1.366 . S
C151 C155 1.385 . S
C152 H133 0.951 . S
C152 C150 1.388 . S
C152 C153 1.366 . S
C153 C152 1.366 . S
C153 C154 1.414 . S
C153 C156 1.499 . S
C154 H134 0.950 . S
C154 C153 1.414 . S
C154 C155 1.374 . S
C155 H135 0.950 . S
C155 C151 1.385 . S
C155 C154 1.374 . S
C156 C153 1.499 . S
C156 C157 1.373 . S
C156 C158 1.389 . S
C157 H136 0.950 . S
C157 C156 1.373 . S
C157 C173 1.377 . S
C158 C156 1.389 . S
C158 C159 1.524 . S
C158 C172 1.377 . S
C159 C158 1.524 . S
C159 C160 1.397 . S
C159 C164 1.363 . S
C160 H137 0.950 . S
C160 C159 1.397 . S
C160 C161 1.334 . S
C161 H138 0.950 . S
C161 C160 1.334 . S
C161 C162 1.287 . S
C162 C161 1.287 . S
C162 C163 1.524 . S
C162 H181 0.913 . S
C163 H139 0.950 . S
C163 C162 1.524 . S
C163 C164 1.415 . S
C164 H140 0.950 . S
C164 C159 1.363 . S
C164 C163 1.415 . S
C165 H141 0.951 . S
C165 C166 1.366 . S
C165 C167 1.388 . S
C166 C165 1.366 . S
C166 C170 1.385 . S
C167 H142 0.951 . S
C167 C165 1.388 . S
C167 C168 1.366 . S
C168 C167 1.366 . S
C168 C169 1.414 . S
C168 C171 1.499 . S
C169 H143 0.950 . S
C169 C168 1.414 . S
C169 C170 1.374 . S
C170 H144 0.950 . S
C170 C166 1.385 . S
C170 C169 1.374 . S
C171 C168 1.499 . S
C171 C172 1.373 . S
C171 C173 1.389 . S
C172 H145 0.950 . S
C172 C158 1.377 . S
C172 C171 1.373 . S
C173 C157 1.377 . S
C173 C171 1.389 . S
C173 C174 1.524 . S
C174 C173 1.524 . S
C174 C175 1.397 . S
C174 C179 1.363 . S
C175 H146 0.950 . S
C175 C174 1.397 . S
C175 C176 1.334 . S
C176 H147 0.950 . S
C176 C175 1.334 . S
C176 C177 1.287 . S
C177 C176 1.287 . S
C177 C178 1.524 . S
C177 H180 0.999 . S
C178 H148 0.950 . S
C178 C177 1.524 . S
C178 C179 1.415 . S
C179 H149 0.950 . S
C179 C174 1.363 . S
C179 C178 1.415 . S
H180 C177 0.999 . S
H181 C162 0.913 . S
H182 C200 0.951 . S
H183 C202 0.951 . S
H184 C204 0.950 . S
H185 C205 0.950 . S
H186 C207 0.950 . S
H187 C210 0.950 . S
H188 C211 0.950 . S
H189 C213 0.950 . S
H190 C214 0.950 . S
H191 C215 0.951 . S
H192 C217 0.951 . S
H193 C219 0.950 . S
H194 C220 0.950 . S
H195 C222 0.950 . S
H196 C225 0.950 . S
H197 C226 0.950 . S
H198 C228 0.950 . S
H199 C229 0.950 . S
C200 H182 0.951 . S
C200 C201 1.366 . S
C200 C202 1.388 . S
C201 C200 1.366 . S
C201 C205 1.385 . S
C202 H183 0.951 . S
C202 C200 1.388 . S
C202 C203 1.366 . S
C203 C202 1.366 . S
C203 C204 1.414 . S
C203 C206 1.499 . S
C204 H184 0.950 . S
C204 C203 1.414 . S
C204 C205 1.374 . S
C205 H185 0.950 . S
C205 C201 1.385 . S
C205 C204 1.374 . S
C206 C203 1.499 . S
C206 C207 1.373 . S
C206 C208 1.389 . S
C207 H186 0.950 . S
C207 C206 1.373 . S
C207 C223 1.377 . S
C208 C206 1.389 . S
C208 C209 1.524 . S
C208 C222 1.377 . S
C209 C208 1.524 . S
C209 C210 1.397 . S
C209 C214 1.363 . S
C210 H187 0.950 . S
C210 C209 1.397 . S
C210 C211 1.334 . S
C211 H188 0.950 . S
C211 C210 1.334 . S
C211 C212 1.287 . S
C212 C211 1.287 . S
C212 C213 1.524 . S
C212 H231 0.913 . S
C213 H189 0.950 . S
C213 C212 1.524 . S
C213 C214 1.415 . S
C214 H190 0.950 . S
C214 C209 1.363 . S
C214 C213 1.415 . S
C215 H191 0.951 . S
C215 C216 1.366 . S
C215 C217 1.388 . S
C216 C215 1.366 . S
C216 C220 1.385 . S
C217 H192 0.951 . S
C217 C215 1.388 . S
C217 C218 1.366 . S
C218 C217 1.366 . S
C218 C219 1.414 . S
C218 C221 1.499 . S
C219 H193 0.950 . S
C219 C218 1.414 . S
C219 C220 1.374 . S
C220 H194 0.950 . S
C220 C216 1.385 . S
C220 C219 1.374 . S
C221 C218 1.499 . S
C221 C222 1.373 . S
C221 C223 1.389 . S
C222 H195 0.950 . S
C222 C208 1.377 . S
C222 C221 1.373 . S
C223 C207 1.377 . S
C223 C221 1.389 . S
C223 C224 1.524 . S
C224 C223 1.524 . S
C224 C225 1.397 . S
C224 C229 1.363 . S
C225 H196 0.950 . S
C225 C224 1.397 . S
C225 C226 1.334 . S
C226 H197 0.950 . S
C226 C225 1.334 . S
C226 C227 1.287 . S
C227 C226 1.287 . S
C227 C228 1.524 . S
C227 H230 0.999 . S
C228 H198 0.950 . S
C228 C227 1.524 . S
C228 C229 1.415 . S
C229 H199 0.950 . S
C229 C224 1.363 . S
C229 C228 1.415 . S
H230 C227 0.999 . S
H231 C212 0.913 . S
H232 C250 0.951 . S
H233 C252 0.951 . S
H234 C254 0.950 . S
H235 C255 0.950 . S
H236 C257 0.950 . S
H237 C260 0.950 . S
H238 C261 0.950 . S
H239 C263 0.950 . S
H240 C264 0.950 . S
H241 C265 0.951 . S
H242 C267 0.951 . S
H243 C269 0.950 . S
H244 C270 0.950 . S
H245 C272 0.950 . S
H246 C275 0.950 . S
H247 C276 0.950 . S
H248 C278 0.950 . S
H249 C279 0.950 . S
C250 H232 0.951 . S
C250 C251 1.366 . S
C250 C252 1.388 . S
C251 C250 1.366 . S
C251 C255 1.385 . S
C252 H233 0.951 . S
C252 C250 1.388 . S
C252 C253 1.366 . S
C253 C252 1.366 . S
C253 C254 1.414 . S
C253 C256 1.499 . S
C254 H234 0.950 . S
C254 C253 1.414 . S
C254 C255 1.374 . S
C255 H235 0.950 . S
C255 C251 1.385 . S
C255 C254 1.374 . S
C256 C253 1.499 . S
C256 C257 1.373 . S
C256 C258 1.389 . S
C257 H236 0.950 . S
C257 C256 1.373 . S
C257 C273 1.377 . S
C258 C256 1.389 . S
C258 C259 1.524 . S
C258 C272 1.377 . S
C259 C258 1.524 . S
C259 C260 1.397 . S
C259 C264 1.363 . S
C260 H237 0.950 . S
C260 C259 1.397 . S
C260 C261 1.334 . S
C261 H238 0.950 . S
C261 C260 1.334 . S
C261 C262 1.287 . S
C262 C261 1.287 . S
C262 C263 1.524 . S
C262 H281 0.913 . S
C263 H239 0.950 . S
C263 C262 1.524 . S
C263 C264 1.415 . S
C264 H240 0.950 . S
C264 C259 1.363 . S
C264 C263 1.415 . S
C265 H241 0.951 . S
C265 C266 1.366 . S
C265 C267 1.388 . S
C266 C265 1.366 . S
C266 C270 1.385 . S
C267 H242 0.951 . S
C267 C265 1.388 . S
C267 C268 1.366 . S
C268 C267 1.366 . S
C268 C269 1.414 . S
C268 C271 1.499 . S
C269 H243 0.950 . S
C269 C268 1.414 . S
C269 C270 1.374 . S
C270 H244 0.950 . S
C270 C266 1.385 . S
C270 C269 1.374 . S
C271 C268 1.499 . S
C271 C272 1.373 . S
C271 C273 1.389 . S
C272 H245 0.950 . S
C272 C258 1.377 . S
C272 C271 1.373 . S
C273 C257 1.377 . S
C273 C271 1.389 . S
C273 C274 1.524 . S
C274 C273 1.524 . S
C274 C275 1.397 . S
C274 C279 1.363 . S
C275 H246 0.950 . S
C275 C274 1.397 . S
C275 C276 1.334 . S
C276 H247 0.950 . S
C276 C275 1.334 . S
C276 C277 1.287 . S
C277 C276 1.287 . S
C277 C278 1.524 . S
C277 H280 0.999 . S
C278 H248 0.950 . S
C278 C277 1.524 . S
C278 C279 1.415 . S
C279 H249 0.950 . S
C279 C274 1.363 . S
C279 C278 1.415 . S
H280 C277 0.999 . S
H281 C262 0.913 . S
H282 C300 0.951 . S
H283 C302 0.951 . S
H284 C304 0.950 . S
H285 C305 0.950 . S
H286 C307 0.950 . S
H287 C310 0.950 . S
H288 C311 0.950 . S
H289 C313 0.950 . S
H290 C314 0.950 . S
H291 C315 0.951 . S
H292 C317 0.951 . S
H293 C319 0.950 . S
H294 C320 0.950 . S
H295 C322 0.950 . S
H296 C325 0.950 . S
H297 C326 0.950 . S
H298 C328 0.950 . S
H299 C329 0.950 . S
C300 H282 0.951 . S
C300 C301 1.366 . S
C300 C302 1.388 . S
C301 C300 1.366 . S
C301 C305 1.385 . S
C302 H283 0.951 . S
C302 C300 1.388 . S
C302 C303 1.366 . S
C303 C302 1.366 . S
C303 C304 1.414 . S
C303 C306 1.499 . S
C304 H284 0.950 . S
C304 C303 1.414 . S
C304 C305 1.374 . S
C305 H285 0.950 . S
C305 C301 1.385 . S
C305 C304 1.374 . S
C306 C303 1.499 . S
C306 C307 1.373 . S
C306 C308 1.389 . S
C307 H286 0.950 . S
C307 C306 1.373 . S
C307 C323 1.377 . S
C308 C306 1.389 . S
C308 C309 1.524 . S
C308 C322 1.377 . S
C309 C308 1.524 . S
C309 C310 1.397 . S
C309 C314 1.363 . S
C310 H287 0.950 . S
C310 C309 1.397 . S
C310 C311 1.334 . S
C311 H288 0.950 . S
C311 C310 1.334 . S
C311 C312 1.287 . S
C312 C311 1.287 . S
C312 C313 1.524 . S
C312 H331 0.913 . S
C313 H289 0.950 . S
C313 C312 1.524 . S
C313 C314 1.415 . S
C314 H290 0.950 . S
C314 C309 1.363 . S
C314 C313 1.415 . S
C315 H291 0.951 . S
C315 C316 1.366 . S
C315 C317 1.388 . S
C316 C315 1.366 . S
C316 C320 1.385 . S
C317 H292 0.951 . S
C317 C315 1.388 . S
C317 C318 1.366 . S
C318 C317 1.366 . S
C318 C319 1.414 . S
C318 C321 1.499 . S
C319 H293 0.950 . S
C319 C318 1.414 . S
C319 C320 1.374 . S
C320 H294 0.950 . S
C320 C316 1.385 . S
C320 C319 1.374 . S
C321 C318 1.499 . S
C321 C322 1.373 . S
C321 C323 1.389 . S
C322 H295 0.950 . S
C322 C308 1.377 . S
C322 C321 1.373 . S
C323 C307 1.377 . S
C323 C321 1.389 . S
C323 C324 1.524 . S
C324 C323 1.524 . S
C324 C325 1.397 . S
C324 C329 1.363 . S
C325 H296 0.950 . S
C325 C324 1.397 . S
C325 C326 1.334 . S
C326 H297 0.950 . S
C326 C325 1.334 . S
C326 C327 1.287 . S
C327 C326 1.287 . S
C327 C328 1.524 . S
C327 H330 0.999 . S
C328 H298 0.950 . S
C328 C327 1.524 . S
C328 C329 1.415 . S
C329 H299 0.950 . S
C329 C324 1.363 . S
C329 C328 1.415 . S
H330 C327 0.999 . S
H331 C312 0.913 . S
H332 C350 0.951 . S
H333 C352 0.951 . S
H334 C354 0.950 . S
H335 C355 0.950 . S
H336 C357 0.950 . S
H337 C360 0.950 . S
H338 C361 0.950 . S
H339 C363 0.950 . S
H340 C364 0.950 1_455 S
H341 C365 0.951 . S
H342 C367 0.951 . S
H343 C369 0.950 . S
H344 C370 0.950 . S
H345 C372 0.950 . S
H346 C375 0.950 1_554 S
H347 C376 0.950 . S
H348 C378 0.950 1_655 S
H349 C379 0.950 . S
C350 H332 0.951 . S
C350 C351 1.366 . S
C350 C352 1.388 . S
C351 C350 1.366 . S
C351 C355 1.385 . S
C352 H333 0.951 . S
C352 C350 1.388 . S
C352 C353 1.366 . S
C353 C352 1.366 . S
C353 C354 1.414 . S
C353 C356 1.499 . S
C354 H334 0.950 . S
C354 C353 1.414 . S
C354 C355 1.374 . S
C355 H335 0.950 . S
C355 C351 1.385 . S
C355 C354 1.374 . S
C356 C353 1.499 . S
C356 C357 1.373 . S
C356 C358 1.389 . S
C357 H336 0.950 . S
C357 C356 1.373 . S
C357 C373 1.377 1_655 S
C358 C356 1.389 . S
C358 C359 1.524 . S
C358 C372 1.377 1_655 S
C359 C358 1.524 . S
C359 C360 1.397 . S
C359 C364 1.363 . S
C360 H337 0.950 . S
C360 C359 1.397 . S
C360 C361 1.334 . S
C361 H338 0.950 . S
C361 C360 1.334 . S
C361 C362 1.287 . S
C362 C361 1.287 . S
C362 C363 1.524 . S
C362 H381 0.913 . S
C363 H339 0.950 . S
C363 C362 1.524 . S
C363 C364 1.415 . S
C364 H340 0.950 1_655 S
C364 C359 1.363 . S
C364 C363 1.415 . S
C365 H341 0.951 . S
C365 C366 1.366 . S
C365 C367 1.388 . S
C366 C365 1.366 . S
C366 C370 1.385 . S
C367 H342 0.951 . S
C367 C365 1.388 . S
C367 C368 1.366 . S
C368 C367 1.366 . S
C368 C369 1.414 . S
C368 C371 1.499 . S
C369 H343 0.950 . S
C369 C368 1.414 . S
C369 C370 1.374 . S
C370 H344 0.950 . S
C370 C366 1.385 . S
C370 C369 1.374 . S
C371 C368 1.499 . S
C371 C372 1.373 . S
C371 C373 1.389 . S
C372 H345 0.950 . S
C372 C358 1.377 1_455 S
C372 C371 1.373 . S
C373 C357 1.377 1_455 S
C373 C371 1.389 . S
C373 C374 1.524 1_554 S
C374 C373 1.524 1_556 S
C374 C375 1.397 . S
C374 C379 1.363 1_455 S
C375 H346 0.950 1_556 S
C375 C374 1.397 . S
C375 C376 1.334 . S
C376 H347 0.950 . S
C376 C375 1.334 . S
C376 C377 1.287 . S
C377 C376 1.287 . S
C377 C378 1.524 . S
C377 H380 0.999 . S
C378 H348 0.950 1_455 S
C378 C377 1.524 . S
C378 C379 1.415 1_455 S
C379 H349 0.950 . S
C379 C374 1.363 1_655 S
C379 C378 1.415 1_655 S
H380 C377 0.999 . S
H381 C362 0.913 . S
H382 C400 0.951 . S
H383 C402 0.951 . S
H384 C404 0.950 . S
H385 C405 0.950 . S
H386 C407 0.950 . S
H387 C410 0.950 1_556 S
H388 C411 0.950 . S
H389 C413 0.950 . S
H390 C414 0.953 1_545 S
H391 C415 0.951 . S
H392 C417 0.951 . S
H393 C419 0.950 . S
H394 C420 0.950 . S
H395 C422 0.950 . S
H396 C425 0.950 . S
H397 C426 0.950 . S
H398 C428 0.950 . S
H399 C429 0.950 . S
C400 H382 0.951 . S
C400 C401 1.366 . S
C400 C402 1.388 . S
C401 C400 1.366 . S
C401 C405 1.385 . S
C402 H383 0.951 . S
C402 C400 1.388 . S
C402 C403 1.366 . S
C403 C402 1.366 . S
C403 C404 1.414 . S
C403 C406 1.499 . S
C404 H384 0.950 . S
C404 C403 1.414 . S
C404 C405 1.374 . S
C405 H385 0.950 . S
C405 C401 1.385 . S
C405 C404 1.374 . S
C406 C403 1.499 . S
C406 C407 1.373 . S
C406 C408 1.389 . S
C407 H386 0.950 . S
C407 C406 1.373 . S
C407 C423 1.377 1_565 S
C408 C406 1.389 . S
C408 C409 1.524 . S
C408 C422 1.377 1_565 S
C409 C408 1.524 . S
C409 C410 1.397 . S
C409 C414 1.363 . S
C410 H387 0.950 1_554 S
C410 C409 1.397 . S
C410 C411 1.334 1_554 S
C411 H388 0.950 . S
C411 C410 1.334 1_556 S
C411 C412 1.287 1_556 S
C412 C411 1.287 1_554 S
C412 C413 1.524 . S
C412 H431 0.913 1_554 S
C413 H389 0.950 . S
C413 C412 1.524 . S
C413 C414 1.415 . S
C414 H390 0.953 1_565 S
C414 C409 1.363 . S
C414 C413 1.415 . S
C415 H391 0.951 . S
C415 C416 1.366 . S
C415 C417 1.388 . S
C416 C415 1.366 . S
C416 C420 1.385 . S
C417 H392 0.951 . S
C417 C415 1.388 . S
C417 C418 1.366 . S
C418 C417 1.366 . S
C418 C419 1.414 . S
C418 C421 1.499 . S
C419 H393 0.950 . S
C419 C418 1.414 . S
C419 C420 1.374 . S
C420 H394 0.950 . S
C420 C416 1.385 . S
C420 C419 1.374 . S
C421 C418 1.499 . S
C421 C422 1.373 . S
C421 C423 1.389 . S
C422 H395 0.950 . S
C422 C408 1.377 1_545 S
C422 C421 1.373 . S
C423 C407 1.377 1_545 S
C423 C421 1.389 . S
C423 C424 1.524 . S
C424 C423 1.524 . S
C424 C425 1.397 . S
C424 C429 1.363 . S
C425 H396 0.950 . S
C425 C424 1.397 . S
C425 C426 1.334 . S
C426 H397 0.950 . S
C426 C425 1.334 . S
C426 C427 1.287 . S
C427 C426 1.287 . S
C427 C428 1.524 . S
C427 H430 0.999 . S
C428 H398 0.950 . S
C428 C427 1.524 . S
C428 C429 1.415 . S
C429 H399 0.950 . S
C429 C424 1.363 . S
C429 C428 1.415 . S
H430 C427 0.999 . S
H431 C412 0.913 1_556 S
H432 C450 0.951 1_556 S
H433 C452 0.951 1_556 S
H434 C454 0.950 . S
H435 C455 0.950 . S
H436 C457 0.950 . S
H437 C460 0.950 . S
H438 C461 0.950 . S
H439 C463 0.950 . S
H440 C464 0.950 . S
H441 C465 0.951 . S
H442 C467 0.951 . S
H443 C469 0.950 1_556 S
H444 C470 0.950 1_556 S
H445 C472 0.950 . S
H446 C475 0.950 . S
H447 C476 0.950 . S
H448 C478 0.950 . S
H449 C479 0.950 . S
C450 H432 0.951 1_554 S
C450 C451 1.366 . S
C450 C452 1.388 . S
C451 C450 1.366 . S
C451 C455 1.385 . S
C452 H433 0.951 1_554 S
C452 C450 1.388 . S
C452 C453 1.366 . S
C453 C452 1.366 . S
C453 C454 1.414 . S
C453 C456 1.499 . S
C454 H434 0.950 . S
C454 C453 1.414 . S
C454 C455 1.374 . S
C455 H435 0.950 . S
C455 C451 1.385 . S
C455 C454 1.374 . S
C456 C453 1.499 . S
C456 C457 1.373 . S
C456 C458 1.389 1_554 S
C457 H436 0.950 . S
C457 C456 1.373 . S
C457 C473 1.377 . S
C458 C456 1.389 1_556 S
C458 C459 1.524 . S
C458 C472 1.377 . S
C459 C458 1.524 . S
C459 C460 1.397 . S
C459 C464 1.363 . S
C460 H437 0.950 . S
C460 C459 1.397 . S
C460 C461 1.334 . S
C461 H438 0.950 . S
C461 C460 1.334 . S
C461 C462 1.287 . S
C462 C461 1.287 . S
C462 C463 1.524 . S
C462 H481 0.913 . S
C463 H439 0.950 . S
C463 C462 1.524 . S
C463 C464 1.415 . S
C464 H440 0.950 . S
C464 C459 1.363 . S
C464 C463 1.415 . S
C465 H441 0.951 . S
C465 C466 1.366 . S
C465 C467 1.388 . S
C466 C465 1.366 . S
C466 C470 1.385 . S
C467 H442 0.951 . S
C467 C465 1.388 . S
C467 C468 1.366 . S
C468 C467 1.366 . S
C468 C469 1.414 . S
C468 C471 1.499 . S
C469 H443 0.950 1_554 S
C469 C468 1.414 . S
C469 C470 1.374 . S
C470 H444 0.950 1_554 S
C470 C466 1.385 . S
C470 C469 1.374 . S
C471 C468 1.499 . S
C471 C472 1.373 1_554 S
C471 C473 1.389 . S
C472 H445 0.950 . S
C472 C458 1.377 . S
C472 C471 1.373 1_556 S
C473 C457 1.377 . S
C473 C471 1.389 . S
C473 C474 1.524 . S
C474 C473 1.524 . S
C474 C475 1.397 . S
C474 C479 1.363 . S
C475 H446 0.950 . S
C475 C474 1.397 . S
C475 C476 1.334 . S
C476 H447 0.950 . S
C476 C475 1.334 . S
C476 C477 1.287 . S
C477 C476 1.287 . S
C477 C478 1.524 . S
C477 H480 0.999 . S
C478 H448 0.950 . S
C478 C477 1.524 . S
C478 C479 1.415 . S
C479 H449 0.950 . S
C479 C474 1.363 . S
C479 C478 1.415 . S
H480 C477 0.999 . S
H481 C462 0.913 . S
H482 C500 0.951 . S
H483 C502 0.951 . S
H484 C504 0.950 . S
H485 C505 0.950 . S
H486 C507 0.950 . S
H487 C510 0.950 . S
H488 C511 0.950 . S
H489 C513 0.950 . S
H490 C514 0.950 . S
H491 C515 0.951 . S
H492 C517 0.951 . S
H493 C519 0.950 . S
H494 C520 0.950 . S
H495 C522 0.950 . S
H496 C525 0.950 . S
H497 C526 0.950 . S
H498 C528 0.950 . S
H499 C529 0.950 . S
C500 H482 0.951 . S
C500 C501 1.366 . S
C500 C502 1.388 . S
C501 C500 1.366 . S
C501 C505 1.385 . S
C502 H483 0.951 . S
C502 C500 1.388 . S
C502 C503 1.366 . S
C503 C502 1.366 . S
C503 C504 1.414 . S
C503 C506 1.499 . S
C504 H484 0.950 . S
C504 C503 1.414 . S
C504 C505 1.374 . S
C505 H485 0.950 . S
C505 C501 1.385 . S
C505 C504 1.374 . S
C506 C503 1.499 . S
C506 C507 1.373 . S
C506 C508 1.389 . S
C507 H486 0.950 . S
C507 C506 1.373 . S
C507 C523 1.377 . S
C508 C506 1.389 . S
C508 C509 1.524 1_554 S
C508 C522 1.377 . S
C509 C508 1.524 1_556 S
C509 C510 1.397 . S
C509 C514 1.363 . S
C510 H487 0.950 . S
C510 C509 1.397 . S
C510 C511 1.334 . S
C511 H488 0.950 . S
C511 C510 1.334 . S
C511 C512 1.287 . S
C512 C511 1.287 . S
C512 C513 1.524 . S
C512 H531 0.913 . S
C513 H489 0.950 . S
C513 C512 1.524 . S
C513 C514 1.415 . S
C514 H490 0.950 . S
C514 C509 1.363 . S
C514 C513 1.415 . S
C515 H491 0.951 . S
C515 C516 1.366 . S
C515 C517 1.388 . S
C516 C515 1.366 . S
C516 C520 1.385 . S
C517 H492 0.951 . S
C517 C515 1.388 . S
C517 C518 1.366 . S
C518 C517 1.366 . S
C518 C519 1.414 . S
C518 C521 1.499 . S
C519 H493 0.950 . S
C519 C518 1.414 . S
C519 C520 1.374 . S
C520 H494 0.950 . S
C520 C516 1.385 . S
C520 C519 1.374 . S
C521 C518 1.499 . S
C521 C522 1.373 . S
C521 C523 1.389 . S
C522 H495 0.950 . S
C522 C508 1.377 . S
C522 C521 1.373 . S
C523 C507 1.377 . S
C523 C521 1.389 . S
C523 C524 1.524 . S
C524 C523 1.524 . S
C524 C525 1.397 . S
C524 C529 1.363 . S
C525 H496 0.950 . S
C525 C524 1.397 . S
C525 C526 1.334 . S
C526 H497 0.950 . S
C526 C525 1.334 . S
C526 C527 1.287 . S
C527 C526 1.287 . S
C527 C528 1.524 . S
C527 H530 0.999 . S
C528 H498 0.950 . S
C528 C527 1.524 . S
C528 C529 1.415 . S
C529 H499 0.950 . S
C529 C524 1.363 . S
C529 C528 1.415 . S
H530 C527 0.999 . S
H531 C512 0.913 . S
H532 C550 0.951 . S
H533 C552 0.951 . S
H534 C554 0.950 . S
H535 C555 0.950 . S
H536 C557 0.950 . S
H537 C560 0.950 . S
H538 C561 0.950 . S
H539 C563 0.950 . S
H540 C564 0.950 . S
H541 C565 0.951 . S
H542 C567 0.951 . S
H543 C569 0.950 . S
H544 C570 0.950 . S
H545 C572 0.950 . S
H546 C575 0.950 . S
H547 C576 0.950 . S
H548 C578 0.950 . S
H549 C579 0.950 . S
C550 H532 0.951 . S
C550 C551 1.366 . S
C550 C552 1.388 . S
C551 C550 1.366 . S
C551 C555 1.385 . S
C552 H533 0.951 . S
C552 C550 1.388 . S
C552 C553 1.366 . S
C553 C552 1.366 . S
C553 C554 1.414 . S
C553 C556 1.499 . S
C554 H534 0.950 . S
C554 C553 1.414 . S
C554 C555 1.374 . S
C555 H535 0.950 . S
C555 C551 1.385 . S
C555 C554 1.374 . S
C556 C553 1.499 . S
C556 C557 1.373 . S
C556 C558 1.389 . S
C557 H536 0.950 . S
C557 C556 1.373 . S
C557 C573 1.377 . S
C558 C556 1.389 . S
C558 C559 1.524 . S
C558 C572 1.377 . S
C559 C558 1.524 . S
C559 C560 1.397 . S
C559 C564 1.363 . S
C560 H537 0.950 . S
C560 C559 1.397 . S
C560 C561 1.334 1_554 S
C561 H538 0.950 . S
C561 C560 1.334 1_556 S
C561 C562 1.287 . S
C562 C561 1.287 . S
C562 C563 1.524 1_556 S
C562 H581 0.913 . S
C563 H539 0.950 . S
C563 C562 1.524 1_554 S
C563 C564 1.415 . S
C564 H540 0.950 . S
C564 C559 1.363 . S
C564 C563 1.415 . S
C565 H541 0.951 . S
C565 C566 1.366 . S
C565 C567 1.388 . S
C566 C565 1.366 . S
C566 C570 1.385 . S
C567 H542 0.951 . S
C567 C565 1.388 . S
C567 C568 1.366 . S
C568 C567 1.366 . S
C568 C569 1.414 . S
C568 C571 1.499 . S
C569 H543 0.950 . S
C569 C568 1.414 . S
C569 C570 1.374 . S
C570 H544 0.950 . S
C570 C566 1.385 . S
C570 C569 1.374 . S
C571 C568 1.499 . S
C571 C572 1.373 . S
C571 C573 1.389 . S
C572 H545 0.950 . S
C572 C558 1.377 . S
C572 C571 1.373 . S
C573 C557 1.377 . S
C573 C571 1.389 . S
C573 C574 1.524 . S
C574 C573 1.524 . S
C574 C575 1.397 . S
C574 C579 1.363 . S
C575 H546 0.950 . S
C575 C574 1.397 . S
C575 C576 1.334 . S
C576 H547 0.950 . S
C576 C575 1.334 . S
C576 C577 1.287 . S
C577 C576 1.287 . S
C577 C578 1.524 . S
C577 H580 0.999 . S
C578 H548 0.950 . S
C578 C577 1.524 . S
C578 C579 1.415 . S
C579 H549 0.950 . S
C579 C574 1.363 . S
C579 C578 1.415 . S
H580 C577 0.999 . S
H581 C562 0.913 . S
H582 C600 0.951 . S
H583 C602 0.951 . S
H584 C604 0.950 . S
H585 C605 0.950 . S
H586 C607 0.950 . S
H587 C610 0.950 . S
H588 C611 0.950 . S
H589 C613 0.950 . S
H590 C614 0.950 . S
H591 C615 0.951 . S
H592 C617 0.951 . S
H593 C619 0.950 . S
H594 C620 0.950 . S
H595 C622 0.950 . S
H596 C625 0.950 . S
H597 C626 0.950 . S
H598 C628 0.950 . S
H599 C629 0.950 . S
C600 H582 0.951 . S
C600 C601 1.366 . S
C600 C602 1.388 . S
C601 C600 1.366 . S
C601 C605 1.385 . S
C602 H583 0.951 . S
C602 C600 1.388 . S
C602 C603 1.366 . S
C603 C602 1.366 . S
C603 C604 1.414 . S
C603 C606 1.499 . S
C604 H584 0.950 . S
C604 C603 1.414 . S
C604 C605 1.374 . S
C605 H585 0.950 . S
C605 C601 1.385 . S
C605 C604 1.374 . S
C606 C603 1.499 . S
C606 C607 1.373 . S
C606 C608 1.389 . S
C607 H586 0.950 . S
C607 C606 1.373 . S
C607 C623 1.377 . S
C608 C606 1.389 . S
C608 C609 1.524 . S
C608 C622 1.377 . S
C609 C608 1.524 . S
C609 C610 1.397 1_554 S
C609 C614 1.363 . S
C610 H587 0.950 . S
C610 C609 1.397 1_556 S
C610 C611 1.334 . S
C611 H588 0.950 . S
C611 C610 1.334 . S
C611 C612 1.287 . S
C612 C611 1.287 . S
C612 C613 1.524 . S
C612 H631 0.913 . S
C613 H589 0.950 . S
C613 C612 1.524 . S
C613 C614 1.415 1_556 S
C614 H590 0.950 . S
C614 C609 1.363 . S
C614 C613 1.415 1_554 S
C615 H591 0.951 . S
C615 C616 1.366 . S
C615 C617 1.388 . S
C616 C615 1.366 . S
C616 C620 1.385 . S
C617 H592 0.951 . S
C617 C615 1.388 . S
C617 C618 1.366 . S
C618 C617 1.366 . S
C618 C619 1.414 . S
C618 C621 1.499 . S
C619 H593 0.950 . S
C619 C618 1.414 . S
C619 C620 1.374 . S
C620 H594 0.950 . S
C620 C616 1.385 . S
C620 C619 1.374 . S
C621 C618 1.499 . S
C621 C622 1.373 . S
C621 C623 1.389 . S
C622 H595 0.950 . S
C622 C608 1.377 . S
C622 C621 1.373 . S
C623 C607 1.377 . S
C623 C621 1.389 . S
C623 C624 1.524 . S
C624 C623 1.524 . S
C624 C625 1.397 . S
C624 C629 1.363 . S
C625 H596 0.950 . S
C625 C624 1.397 . S
C625 C626 1.334 . S
C626 H597 0.950 . S
C626 C625 1.334 . S
C626 C627 1.287 . S
C627 C626 1.287 . S
C627 C628 1.524 . S
C627 H630 0.999 . S
C628 H598 0.950 . S
C628 C627 1.524 . S
C628 C629 1.415 . S
C629 H599 0.950 . S
C629 C624 1.363 . S
C629 C628 1.415 . S
H630 C627 0.999 . S
H631 C612 0.913 . S
C151 N2 1.437 . S
C166 N13 1.440 . S
C201 N35 1.440 . S
C216 N46 1.442 . S
C251 N79 1.442 . S
C266 N68 1.439 . S
C301 N112 1.440 . S
C316 N101 1.437 . S
C351 C84 0.983 . S
C366 C18 0.983 . S
C401 C117 0.983 . S
C416 C51 0.983 . S
C451 C40 1.397 . S
C466 C21 1.409 . S
C501 C87 1.199 . S
C516 C54 1.199 . S
C551 C120 1.409 . S
C566 C73 1.397 . S
C601 C106 1.642 . S
C616 C7 1.642 . S
