# Generated by pormake.
# Topology lta, (4)-cn, num edge types: 1
# Building blocks:
#     Node 0, Type 0, BuildingBlock: KUFVIS_clean_sbu_0, # of connection points: 4
#     Node 1, Type 0, BuildingBlock: KUFVIS_clean_sbu_0, # of connection points: 4
#     Node 2, Type 0, BuildingBlock: KUFVIS_clean_sbu_0, # of connection points: 4
#     Node 3, Type 0, BuildingBlock: KUFVIS_clean_sbu_0, # of connection points: 4
#     Node 4, Type 0, BuildingBlock: KUFVIS_clean_sbu_0, # of connection points: 4
#     Node 5, Type 0, BuildingBlock: KUFVIS_clean_sbu_0, # of connection points: 4
#     Node 6, Type 0, BuildingBlock: KUFVIS_clean_sbu_0, # of connection points: 4
#     Node 7, Type 0, BuildingBlock: KUFVIS_clean_sbu_0, # of connection points: 4
#     Node 8, Type 0, BuildingBlock: KUFVIS_clean_sbu_0, # of connection points: 4
#     Node 9, Type 0, BuildingBlock: KUFVIS_clean_sbu_0, # of connection points: 4
#     Node 10, Type 0, BuildingBlock: KUFVIS_clean_sbu_0, # of connection points: 4
#     Node 11, Type 0, BuildingBlock: KUFVIS_clean_sbu_0, # of connection points: 4
#     Node 12, Type 0, BuildingBlock: KUFVIS_clean_sbu_0, # of connection points: 4
#     Node 13, Type 0, BuildingBlock: KUFVIS_clean_sbu_0, # of connection points: 4
#     Node 14, Type 0, BuildingBlock: KUFVIS_clean_sbu_0, # of connection points: 4
#     Node 15, Type 0, BuildingBlock: KUFVIS_clean_sbu_0, # of connection points: 4
#     Node 16, Type 0, BuildingBlock: KUFVIS_clean_sbu_0, # of connection points: 4
#     Node 17, Type 0, BuildingBlock: KUFVIS_clean_sbu_0, # of connection points: 4
#     Node 18, Type 0, BuildingBlock: KUFVIS_clean_sbu_0, # of connection points: 4
#     Node 19, Type 0, BuildingBlock: KUFVIS_clean_sbu_0, # of connection points: 4
#     Node 20, Type 0, BuildingBlock: KUFVIS_clean_sbu_0, # of connection points: 4
#     Node 21, Type 0, BuildingBlock: KUFVIS_clean_sbu_0, # of connection points: 4
#     Node 22, Type 0, BuildingBlock: KUFVIS_clean_sbu_0, # of connection points: 4
#     Node 23, Type 0, BuildingBlock: KUFVIS_clean_sbu_0, # of connection points: 4
#     Edge 24, Type (0, 0), BuildingBlock: EZIPEK_clean_linker_0, # of connection points: 2
#     Edge 25, Type (0, 0), BuildingBlock: EZIPEK_clean_linker_0, # of connection points: 2
#     Edge 26, Type (0, 0), BuildingBlock: EZIPEK_clean_linker_0, # of connection points: 2
#     Edge 27, Type (0, 0), BuildingBlock: EZIPEK_clean_linker_0, # of connection points: 2
#     Edge 28, Type (0, 0), BuildingBlock: EZIPEK_clean_linker_0, # of connection points: 2
#     Edge 29, Type (0, 0), BuildingBlock: EZIPEK_clean_linker_0, # of connection points: 2
#     Edge 30, Type (0, 0), BuildingBlock: EZIPEK_clean_linker_0, # of connection points: 2
#     Edge 31, Type (0, 0), BuildingBlock: EZIPEK_clean_linker_0, # of connection points: 2
#     Edge 32, Type (0, 0), BuildingBlock: EZIPEK_clean_linker_0, # of connection points: 2
#     Edge 33, Type (0, 0), BuildingBlock: EZIPEK_clean_linker_0, # of connection points: 2
#     Edge 34, Type (0, 0), BuildingBlock: EZIPEK_clean_linker_0, # of connection points: 2
#     Edge 35, Type (0, 0), BuildingBlock: EZIPEK_clean_linker_0, # of connection points: 2
#     Edge 36, Type (0, 0), BuildingBlock: EZIPEK_clean_linker_0, # of connection points: 2
#     Edge 37, Type (0, 0), BuildingBlock: EZIPEK_clean_linker_0, # of connection points: 2
#     Edge 38, Type (0, 0), BuildingBlock: EZIPEK_clean_linker_0, # of connection points: 2
#     Edge 39, Type (0, 0), BuildingBlock: EZIPEK_clean_linker_0, # of connection points: 2
#     Edge 40, Type (0, 0), BuildingBlock: EZIPEK_clean_linker_0, # of connection points: 2
#     Edge 41, Type (0, 0), BuildingBlock: EZIPEK_clean_linker_0, # of connection points: 2
#     Edge 42, Type (0, 0), BuildingBlock: EZIPEK_clean_linker_0, # of connection points: 2
#     Edge 43, Type (0, 0), BuildingBlock: EZIPEK_clean_linker_0, # of connection points: 2
#     Edge 44, Type (0, 0), BuildingBlock: EZIPEK_clean_linker_0, # of connection points: 2
#     Edge 45, Type (0, 0), BuildingBlock: EZIPEK_clean_linker_0, # of connection points: 2
#     Edge 46, Type (0, 0), BuildingBlock: EZIPEK_clean_linker_0, # of connection points: 2
#     Edge 47, Type (0, 0), BuildingBlock: EZIPEK_clean_linker_0, # of connection points: 2
#     Edge 48, Type (0, 0), BuildingBlock: EZIPEK_clean_linker_0, # of connection points: 2
#     Edge 49, Type (0, 0), BuildingBlock: EZIPEK_clean_linker_0, # of connection points: 2
#     Edge 50, Type (0, 0), BuildingBlock: EZIPEK_clean_linker_0, # of connection points: 2
#     Edge 51, Type (0, 0), BuildingBlock: EZIPEK_clean_linker_0, # of connection points: 2
#     Edge 52, Type (0, 0), BuildingBlock: EZIPEK_clean_linker_0, # of connection points: 2
#     Edge 53, Type (0, 0), BuildingBlock: EZIPEK_clean_linker_0, # of connection points: 2
#     Edge 54, Type (0, 0), BuildingBlock: EZIPEK_clean_linker_0, # of connection points: 2
#     Edge 55, Type (0, 0), BuildingBlock: EZIPEK_clean_linker_0, # of connection points: 2
#     Edge 56, Type (0, 0), BuildingBlock: EZIPEK_clean_linker_0, # of connection points: 2
#     Edge 57, Type (0, 0), BuildingBlock: EZIPEK_clean_linker_0, # of connection points: 2
#     Edge 58, Type (0, 0), BuildingBlock: EZIPEK_clean_linker_0, # of connection points: 2
#     Edge 59, Type (0, 0), BuildingBlock: EZIPEK_clean_linker_0, # of connection points: 2
#     Edge 60, Type (0, 0), BuildingBlock: EZIPEK_clean_linker_0, # of connection points: 2
#     Edge 61, Type (0, 0), BuildingBlock: EZIPEK_clean_linker_0, # of connection points: 2
#     Edge 62, Type (0, 0), BuildingBlock: EZIPEK_clean_linker_0, # of connection points: 2
#     Edge 63, Type (0, 0), BuildingBlock: EZIPEK_clean_linker_0, # of connection points: 2
#     Edge 64, Type (0, 0), BuildingBlock: EZIPEK_clean_linker_0, # of connection points: 2
#     Edge 65, Type (0, 0), BuildingBlock: EZIPEK_clean_linker_0, # of connection points: 2
#     Edge 66, Type (0, 0), BuildingBlock: EZIPEK_clean_linker_0, # of connection points: 2
#     Edge 67, Type (0, 0), BuildingBlock: EZIPEK_clean_linker_0, # of connection points: 2
#     Edge 68, Type (0, 0), BuildingBlock: EZIPEK_clean_linker_0, # of connection points: 2
#     Edge 69, Type (0, 0), BuildingBlock: EZIPEK_clean_linker_0, # of connection points: 2
#     Edge 70, Type (0, 0), BuildingBlock: EZIPEK_clean_linker_0, # of connection points: 2
#     Edge 71, Type (0, 0), BuildingBlock: EZIPEK_clean_linker_0, # of connection points: 2
# Relax obj value: 0.246
# Max RMSD: 0.134
# Mean RMSD: 0.134
data_MOF--net-lta--node1-KUFVIS_clean_sbu_0--edge1-EZIPEK_clean_linker_0
_symmetry_space_group_name_H-M    P1
_symmetry_Int_Tables_number       1
_symmetry_cell_setting            triclinic
loop_
_symmetry_equiv_pos_as_xyz
'x, y, z'
_cell_length_a     41.325286
_cell_length_b     41.226989
_cell_length_c     41.557084
_cell_angle_alpha  90.267709
_cell_angle_beta   89.842618
_cell_angle_gamma 89.828874
loop_
_atom_site_label
_atom_site_type_symbol
_atom_site_fract_x
_atom_site_fract_y
_atom_site_fract_z
_atom_type_partial_charge
Mn0 Mn 0.13044 0.32601 0.5219 0.0
Mn1 Mn 0.20554 0.35632 0.52298 0.0
C2 C 0.15011 0.35167 0.56937 0.0
C3 C 0.07437 0.33021 0.51191 0.0
C4 C 0.19023 0.28523 0.51344 0.0
O5 O 0.14247 0.33523 0.47399 0.0
O6 O 0.18531 0.36888 0.48118 0.0
C7 C 0.1929 0.42688 0.52659 0.0
N8 N 0.20726 0.39989 0.53862 0.0
C9 C 0.23216 0.43071 0.58109 0.0
C10 C 0.22077 0.45907 0.56692 0.0
C11 C 0.19997 0.45719 0.5403 0.0
C12 C 0.22481 0.40132 0.56603 0.0
H13 H 0.17674 0.42515 0.50627 0.0
C14 C 0.16281 0.35653 0.46359 0.0
O15 O 0.08947 0.30273 0.51041 0.0
O16 O 0.0917 0.35542 0.51848 0.0
N17 N 0.22644 0.34523 0.56284 0.0
C18 C 0.23688 0.31568 0.57317 0.0
C19 C 0.25435 0.31314 0.60196 0.0
C20 C 0.26214 0.3412 0.6194 0.0
C21 C 0.25261 0.37152 0.60765 0.0
C22 C 0.23469 0.37241 0.57903 0.0
H23 H 0.23293 0.29427 0.55918 0.0
O24 O 0.12668 0.33072 0.57098 0.0
O25 O 0.16214 0.35403 0.54089 0.0
O26 O 0.16133 0.28692 0.52396 0.0
O27 O 0.20714 0.31044 0.50769 0.0
C28 C 0.26051 0.40091 0.62305 0.0
C29 C 0.25039 0.43056 0.60968 0.0
H30 H 0.2279 0.48216 0.57674 0.0
H31 H 0.18963 0.47891 0.53021 0.0
H32 H 0.2624 0.28963 0.61029 0.0
H33 H 0.27593 0.33924 0.64144 0.0
H34 H 0.2743 0.40099 0.64518 0.0
H35 H 0.25636 0.45308 0.6218 0.0
Mn36 Mn 0.68349 0.13313 0.5218 0.0
Mn37 Mn 0.65259 0.20805 0.52347 0.0
C38 C 0.65759 0.15234 0.56946 0.0
C39 C 0.68046 0.07735 0.51081 0.0
C40 C 0.72359 0.19277 0.51431 0.0
O41 O 0.67476 0.14543 0.47392 0.0
O42 O 0.64028 0.18777 0.48143 0.0
C43 C 0.58241 0.19487 0.5271 0.0
N44 N 0.60913 0.20963 0.53909 0.0
C45 C 0.5782 0.23405 0.58197 0.0
C46 C 0.55002 0.22232 0.5678 0.0
C47 C 0.55213 0.20157 0.54097 0.0
C48 C 0.60757 0.22707 0.56671 0.0
H49 H 0.58436 0.17863 0.50675 0.0
C50 C 0.65319 0.16555 0.46357 0.0
O51 O 0.70764 0.09274 0.51003 0.0
O52 O 0.65478 0.09423 0.51723 0.0
N53 N 0.66349 0.22907 0.56348 0.0
C54 C 0.69283 0.23996 0.57372 0.0
C55 C 0.69524 0.25747 0.60264 0.0
C56 C 0.66722 0.26489 0.6203 0.0
C57 C 0.63708 0.25503 0.60857 0.0
C58 C 0.63632 0.23711 0.57978 0.0
H59 H 0.71416 0.23642 0.55951 0.0
O60 O 0.67868 0.12889 0.57075 0.0
O61 O 0.65494 0.16449 0.54107 0.0
O62 O 0.722 0.16402 0.52498 0.0
O63 O 0.69839 0.20965 0.50825 0.0
C64 C 0.6077 0.26261 0.62414 0.0
C65 C 0.57822 0.2522 0.61077 0.0
H66 H 0.5269 0.22909 0.57781 0.0
H67 H 0.53062 0.19093 0.53085 0.0
H68 H 0.7186 0.26585 0.61092 0.0
H69 H 0.66908 0.2787 0.64245 0.0
H70 H 0.60753 0.27638 0.64641 0.0
H71 H 0.55573 0.2579 0.62304 0.0
Mn72 Mn 0.87904 0.68538 0.51994 0.0
Mn73 Mn 0.80402 0.65491 0.52085 0.0
C74 C 0.85875 0.66036 0.56745 0.0
C75 C 0.93526 0.6814 0.51022 0.0
C76 C 0.81928 0.72579 0.5108 0.0
O77 O 0.86747 0.67537 0.47203 0.0
O78 O 0.82465 0.64168 0.47931 0.0
C79 C 0.81746 0.5846 0.52559 0.0
N80 N 0.80237 0.61166 0.53693 0.0
C81 C 0.77712 0.58158 0.57955 0.0
C82 C 0.78898 0.55304 0.56583 0.0
C83 C 0.81037 0.55452 0.53954 0.0
C84 C 0.78441 0.61069 0.56417 0.0
H85 H 0.83404 0.58606 0.5055 0.0
C86 C 0.84721 0.65389 0.4617 0.0
O87 O 0.92 0.70876 0.50853 0.0
O88 O 0.91802 0.65618 0.51679 0.0
N89 N 0.78265 0.66671 0.56048 0.0
C90 C 0.77205 0.69643 0.5705 0.0
C91 C 0.75423 0.69945 0.59916 0.0
C92 C 0.74633 0.67169 0.61681 0.0
C93 C 0.75607 0.64119 0.60538 0.0
C94 C 0.77425 0.63981 0.57683 0.0
H95 H 0.77615 0.71762 0.55637 0.0
O96 O 0.88221 0.68128 0.56915 0.0
O97 O 0.84719 0.65758 0.53888 0.0
O98 O 0.848 0.72435 0.52164 0.0
O99 O 0.80249 0.70046 0.50511 0.0
C100 C 0.7482 0.61206 0.62107 0.0
C101 C 0.7586 0.58221 0.60805 0.0
H102 H 0.78176 0.53014 0.57581 0.0
H103 H 0.82114 0.53268 0.52988 0.0
H104 H 0.74604 0.7231 0.60724 0.0
H105 H 0.73231 0.67403 0.63877 0.0
H106 H 0.73422 0.61236 0.64316 0.0
H107 H 0.75267 0.5599 0.6204 0.0
Mn108 Mn 0.32896 0.87761 0.52015 0.0
Mn109 Mn 0.35845 0.80189 0.52018 0.0
C110 C 0.35426 0.85708 0.56744 0.0
C111 C 0.33318 0.9338 0.51012 0.0
C112 C 0.28786 0.81845 0.51136 0.0
O113 O 0.338 0.86562 0.47217 0.0
O114 O 0.37163 0.82249 0.47863 0.0
C115 C 0.42797 0.81604 0.5259 0.0
N116 N 0.40155 0.79965 0.53614 0.0
C117 C 0.43179 0.77469 0.57877 0.0
C118 C 0.45996 0.78824 0.56623 0.0
C119 C 0.45792 0.81004 0.5404 0.0
C120 C 0.40273 0.78136 0.56303 0.0
H121 H 0.42596 0.83333 0.50657 0.0
C122 C 0.35926 0.84525 0.46137 0.0
O123 O 0.30577 0.91884 0.50904 0.0
O124 O 0.35839 0.91625 0.51623 0.0
N125 N 0.34684 0.78014 0.5595 0.0
C126 C 0.31727 0.76937 0.56927 0.0
C127 C 0.3144 0.751 0.59748 0.0
C128 C 0.34217 0.74269 0.61491 0.0
C129 C 0.37254 0.75254 0.60367 0.0
C130 C 0.37377 0.77111 0.57549 0.0
H131 H 0.29609 0.77366 0.55522 0.0
O132 O 0.33382 0.88108 0.56927 0.0
O133 O 0.35655 0.84525 0.53879 0.0
O134 O 0.28987 0.84714 0.52253 0.0
O135 O 0.31282 0.80127 0.50477 0.0
C136 C 0.40167 0.74458 0.6193 0.0
C137 C 0.43134 0.7557 0.60686 0.0
H138 H 0.48289 0.78257 0.57714 0.0
H139 H 0.47905 0.82244 0.53167 0.0
H140 H 0.29086 0.74271 0.60538 0.0
H141 H 0.33995 0.72834 0.63657 0.0
H142 H 0.40148 0.7303 0.64111 0.0
H143 H 0.45358 0.75014 0.61945 0.0
Mn144 Mn 0.13085 0.68451 0.48268 0.0
Mn145 Mn 0.20578 0.65344 0.48128 0.0
C146 C 0.15048 0.65852 0.43506 0.0
C147 C 0.07482 0.68115 0.49314 0.0
C148 C 0.19069 0.72465 0.49058 0.0
O149 O 0.14294 0.67553 0.53057 0.0
O150 O 0.18532 0.64108 0.5231 0.0
C151 C 0.1925 0.58307 0.47715 0.0
N152 N 0.20743 0.60987 0.46554 0.0
C153 C 0.23312 0.57883 0.42346 0.0
C154 C 0.22137 0.55059 0.43748 0.0
C155 C 0.19983 0.55268 0.46363 0.0
C156 C 0.2255 0.60829 0.43837 0.0
H157 H 0.17589 0.58496 0.49717 0.0
C158 C 0.16306 0.65392 0.54089 0.0
O159 O 0.09008 0.70845 0.49421 0.0
O160 O 0.09194 0.65561 0.4868 0.0
N161 N 0.22704 0.66436 0.44146 0.0
C162 C 0.23779 0.69379 0.43125 0.0
C163 C 0.25579 0.69618 0.40269 0.0
C164 C 0.26387 0.66804 0.38538 0.0
C165 C 0.2541 0.63782 0.39707 0.0
C166 C 0.23561 0.6371 0.42544 0.0
H167 H 0.23374 0.71522 0.44521 0.0
O168 O 0.127 0.67955 0.4336 0.0
O169 O 0.16243 0.65605 0.46352 0.0
O170 O 0.16189 0.72322 0.48001 0.0
O171 O 0.2074 0.69929 0.4966 0.0
C172 C 0.26233 0.60834 0.38187 0.0
C173 C 0.25194 0.57879 0.39516 0.0
H174 H 0.22881 0.52746 0.42788 0.0
H175 H 0.18918 0.53106 0.47355 0.0
H176 H 0.26406 0.71962 0.39446 0.0
H177 H 0.2781 0.66987 0.36354 0.0
H178 H 0.27658 0.60813 0.35995 0.0
H179 H 0.25816 0.55621 0.38318 0.0
Mn180 Mn 0.32711 0.12973 0.48327 0.0
Mn181 Mn 0.35708 0.20509 0.48269 0.0
C182 C 0.35265 0.14977 0.43584 0.0
C183 C 0.33149 0.07357 0.49327 0.0
C184 C 0.28616 0.1894 0.49171 0.0
O185 O 0.33583 0.1418 0.53128 0.0
O186 O 0.36965 0.1845 0.52426 0.0
C187 C 0.42738 0.19169 0.47815 0.0
N188 N 0.40055 0.20705 0.46708 0.0
C189 C 0.43131 0.23376 0.4258 0.0
C190 C 0.45956 0.22149 0.43936 0.0
C191 C 0.45764 0.19924 0.46478 0.0
C192 C 0.40198 0.22574 0.44045 0.0
H193 H 0.42562 0.17463 0.4977 0.0
C194 C 0.35709 0.16212 0.54183 0.0
O195 O 0.30397 0.08854 0.4944 0.0
O196 O 0.35663 0.09107 0.4871 0.0
N197 N 0.34599 0.2267 0.4432 0.0
C198 C 0.31649 0.23728 0.43302 0.0
C199 C 0.31397 0.25596 0.40499 0.0
C200 C 0.34201 0.26486 0.38823 0.0
C201 C 0.37226 0.25514 0.39987 0.0
C202 C 0.37313 0.23596 0.42767 0.0
H203 H 0.29508 0.23257 0.44662 0.0
O204 O 0.33208 0.12601 0.43416 0.0
O205 O 0.355 0.1617 0.46441 0.0
O206 O 0.28801 0.16053 0.48088 0.0
O207 O 0.31124 0.20636 0.49789 0.0
C208 C 0.40161 0.26404 0.38514 0.0
C209 C 0.43118 0.25338 0.39816 0.0
H210 H 0.48259 0.22904 0.42991 0.0
H211 H 0.47932 0.18822 0.47428 0.0
H212 H 0.29049 0.26412 0.39679 0.0
H213 H 0.34007 0.27961 0.36682 0.0
H214 H 0.4017 0.27887 0.36369 0.0
H215 H 0.45365 0.25997 0.38643 0.0
Mn216 Mn 0.8792 0.32699 0.48315 0.0
Mn217 Mn 0.80404 0.35741 0.48137 0.0
C218 C 0.85968 0.35194 0.4353 0.0
C219 C 0.93509 0.33086 0.4938 0.0
C220 C 0.81974 0.28657 0.49132 0.0
O221 O 0.86661 0.33655 0.53094 0.0
O222 O 0.824 0.37053 0.52318 0.0
C223 C 0.81683 0.42778 0.47684 0.0
N224 N 0.80212 0.4007 0.46541 0.0
C225 C 0.77625 0.43094 0.4233 0.0
C226 C 0.78771 0.45948 0.43718 0.0
C227 C 0.80921 0.45792 0.46327 0.0
C228 C 0.78411 0.40175 0.4383 0.0
H229 H 0.83343 0.42628 0.49679 0.0
C230 C 0.84612 0.35802 0.54114 0.0
O231 O 0.91997 0.30349 0.49496 0.0
O232 O 0.9179 0.35622 0.48721 0.0
N233 N 0.7832 0.34571 0.44157 0.0
C234 C 0.77302 0.31599 0.43138 0.0
C235 C 0.75515 0.31304 0.40285 0.0
C236 C 0.74668 0.34088 0.38555 0.0
C237 C 0.75599 0.37137 0.39717 0.0
C238 C 0.77434 0.37266 0.42551 0.0
H239 H 0.77747 0.29474 0.44529 0.0
O240 O 0.88339 0.33114 0.43405 0.0
O241 O 0.84755 0.35489 0.46373 0.0
O242 O 0.84856 0.28804 0.48068 0.0
O243 O 0.8027 0.31185 0.49698 0.0
C244 C 0.74747 0.40056 0.38189 0.0
C245 C 0.7575 0.4304 0.39505 0.0
H246 H 0.7801 0.48244 0.42753 0.0
H247 H 0.81961 0.47975 0.47313 0.0
H248 H 0.7473 0.28939 0.39463 0.0
H249 H 0.73257 0.3386 0.36373 0.0
H250 H 0.73331 0.40033 0.36 0.0
H251 H 0.7511 0.45276 0.383 0.0
Mn252 Mn 0.68496 0.88231 0.4798 0.0
Mn253 Mn 0.65298 0.80807 0.4787 0.0
C254 C 0.65786 0.86373 0.43277 0.0
C255 C 0.68214 0.93825 0.49091 0.0
C256 C 0.72418 0.82187 0.4874 0.0
O257 O 0.67639 0.87001 0.5277 0.0
O258 O 0.64058 0.82893 0.52041 0.0
C259 C 0.58304 0.82289 0.47441 0.0
N260 N 0.60968 0.80738 0.46272 0.0
C261 C 0.57935 0.78525 0.41846 0.0
C262 C 0.55119 0.79787 0.43209 0.0
C263 C 0.55305 0.81787 0.45945 0.0
C264 C 0.60841 0.79064 0.43464 0.0
H265 H 0.58479 0.83857 0.49523 0.0
C266 C 0.65417 0.85071 0.53813 0.0
O267 O 0.70936 0.92269 0.49134 0.0
O268 O 0.65655 0.92147 0.48481 0.0
N269 N 0.66415 0.78673 0.43884 0.0
C270 C 0.69333 0.77453 0.42924 0.0
C271 C 0.69603 0.7575 0.40005 0.0
C272 C 0.66837 0.75184 0.38146 0.0
C273 C 0.63825 0.76277 0.39264 0.0
C274 C 0.63722 0.77999 0.42185 0.0
H275 H 0.71424 0.77658 0.44419 0.0
O276 O 0.67931 0.88668 0.43086 0.0
O277 O 0.65592 0.85149 0.46113 0.0
O278 O 0.72306 0.85048 0.47616 0.0
O279 O 0.69865 0.80581 0.49414 0.0
C280 C 0.60917 0.75691 0.3761 0.0
C281 C 0.57966 0.76807 0.38908 0.0
H282 H 0.52835 0.79263 0.42097 0.0
H283 H 0.53156 0.82951 0.46886 0.0
H284 H 0.71928 0.74814 0.39227 0.0
H285 H 0.67042 0.73845 0.35906 0.0
H286 H 0.60922 0.7438 0.35345 0.0
H287 H 0.5574 0.76369 0.37608 0.0
Mn288 Mn 0.52594 0.13206 0.32207 0.0
Mn289 Mn 0.52706 0.20677 0.35323 0.0
C290 C 0.57358 0.15165 0.34795 0.0
C291 C 0.51582 0.07608 0.3249 0.0
C292 C 0.5157 0.19163 0.28295 0.0
O293 O 0.47776 0.14412 0.33261 0.0
O294 O 0.48547 0.18654 0.36692 0.0
C295 C 0.53257 0.19436 0.42282 0.0
N296 N 0.54375 0.20897 0.39582 0.0
C297 C 0.5869 0.23452 0.42506 0.0
C298 C 0.57363 0.22278 0.45359 0.0
C299 C 0.54695 0.20172 0.45244 0.0
C300 C 0.571 0.22703 0.39639 0.0
H301 H 0.51227 0.17794 0.42168 0.0
C302 C 0.46764 0.16412 0.35459 0.0
O303 O 0.51436 0.09156 0.298 0.0
O304 O 0.52263 0.09284 0.3503 0.0
N305 N 0.5669 0.22742 0.34077 0.0
C306 C 0.57762 0.23583 0.31086 0.0
C307 C 0.60651 0.25331 0.3075 0.0
C308 C 0.62396 0.2626 0.3349 0.0
C309 C 0.6123 0.25428 0.36542 0.0
C310 C 0.58342 0.2366 0.36725 0.0
H311 H 0.56422 0.2298 0.2896 0.0
O312 O 0.57551 0.12845 0.32667 0.0
O313 O 0.54488 0.16341 0.35043 0.0
O314 O 0.52766 0.16323 0.28357 0.0
O315 O 0.51039 0.20795 0.3086 0.0
C316 C 0.62834 0.26268 0.39411 0.0
C317 C 0.61556 0.25289 0.42397 0.0
H318 H 0.58437 0.22959 0.47622 0.0
H319 H 0.53731 0.19126 0.47415 0.0
H320 H 0.61514 0.2599 0.2838 0.0
H321 H 0.6462 0.27618 0.33223 0.0
H322 H 0.65068 0.27634 0.39346 0.0
H323 H 0.62832 0.25901 0.44591 0.0
Mn324 Mn 0.87874 0.52403 0.32181 0.0
Mn325 Mn 0.80347 0.52588 0.35189 0.0
C326 C 0.85896 0.57231 0.34678 0.0
C327 C 0.93477 0.51368 0.32592 0.0
C328 C 0.81924 0.51497 0.28159 0.0
O329 O 0.86665 0.47596 0.33177 0.0
O330 O 0.82372 0.48401 0.36518 0.0
C331 C 0.81636 0.53126 0.4216 0.0
N332 N 0.80157 0.54256 0.39475 0.0
C333 C 0.77684 0.58632 0.42446 0.0
C334 C 0.78891 0.57307 0.45278 0.0
C335 C 0.80977 0.54612 0.45132 0.0
C336 C 0.78392 0.57025 0.39564 0.0
H337 H 0.83249 0.51062 0.42025 0.0
C338 C 0.84627 0.46597 0.35318 0.0
O339 O 0.91974 0.5118 0.29873 0.0
O340 O 0.91742 0.52088 0.35087 0.0
N341 N 0.78244 0.56583 0.34008 0.0
C342 C 0.77197 0.57558 0.31058 0.0
C343 C 0.75427 0.60449 0.30751 0.0
C344 C 0.74632 0.62268 0.335 0.0
C345 C 0.7559 0.61152 0.36528 0.0
C346 C 0.77397 0.58269 0.36672 0.0
H347 H 0.77604 0.56102 0.28962 0.0
O348 O 0.88245 0.57357 0.32592 0.0
O349 O 0.84687 0.54371 0.34934 0.0
O350 O 0.84803 0.52569 0.28309 0.0
O351 O 0.80222 0.50954 0.30669 0.0
C352 C 0.74799 0.62775 0.39413 0.0
C353 C 0.75843 0.61511 0.42377 0.0
H354 H 0.78241 0.58398 0.47549 0.0
H355 H 0.82063 0.53669 0.47291 0.0
H356 H 0.7462 0.61237 0.28404 0.0
H357 H 0.73239 0.64483 0.33263 0.0
H358 H 0.73407 0.65006 0.39378 0.0
H359 H 0.75262 0.62799 0.44583 0.0
Mn360 Mn 0.48442 0.88195 0.3202 0.0
Mn361 Mn 0.48249 0.80905 0.35341 0.0
C362 C 0.43513 0.86341 0.34435 0.0
C363 C 0.49562 0.93738 0.32365 0.0
C364 C 0.49521 0.82121 0.28284 0.0
O365 O 0.5323 0.87028 0.33033 0.0
O366 O 0.52363 0.83075 0.36694 0.0
C367 C 0.47535 0.82292 0.42285 0.0
N368 N 0.46521 0.8075 0.39583 0.0
C369 C 0.42595 0.77682 0.42553 0.0
C370 C 0.43891 0.78917 0.45396 0.0
C371 C 0.46299 0.8132 0.45267 0.0
C372 C 0.44008 0.7866 0.39666 0.0
H373 H 0.4941 0.84098 0.42164 0.0
C374 C 0.54209 0.85185 0.35327 0.0
O375 O 0.49701 0.92199 0.29646 0.0
O376 O 0.48842 0.92065 0.34896 0.0
N377 N 0.4437 0.78648 0.34105 0.0
C378 C 0.43349 0.77716 0.3112 0.0
C379 C 0.40669 0.75653 0.30811 0.0
C380 C 0.39092 0.74505 0.3357 0.0
C381 C 0.40194 0.75461 0.36613 0.0
C382 C 0.42853 0.77561 0.36767 0.0
H383 H 0.44561 0.78497 0.28973 0.0
O384 O 0.43474 0.88611 0.32272 0.0
O385 O 0.46379 0.85201 0.34911 0.0
O386 O 0.48346 0.84974 0.28212 0.0
O387 O 0.49969 0.80636 0.30928 0.0
C388 C 0.38755 0.74415 0.39501 0.0
C389 C 0.3997 0.75511 0.42476 0.0
H390 H 0.43016 0.7801 0.47662 0.0
H391 H 0.47266 0.82375 0.47438 0.0
H392 H 0.39846 0.74918 0.28448 0.0
H393 H 0.3704 0.72895 0.33325 0.0
H394 H 0.36704 0.72785 0.39461 0.0
H395 H 0.38837 0.74713 0.44688 0.0
Mn396 Mn 0.13 0.48441 0.3231 0.0
Mn397 Mn 0.20535 0.48281 0.35246 0.0
C398 C 0.14977 0.4365 0.34835 0.0
C399 C 0.07397 0.49498 0.32681 0.0
C400 C 0.18919 0.49296 0.28241 0.0
O401 O 0.14232 0.53261 0.33272 0.0
O402 O 0.18535 0.52488 0.36583 0.0
C403 C 0.19307 0.47836 0.42234 0.0
N404 N 0.2076 0.46668 0.39533 0.0
C405 C 0.23271 0.4234 0.42488 0.0
C406 C 0.22097 0.43711 0.45332 0.0
C407 C 0.20007 0.46402 0.45204 0.0
C408 C 0.22529 0.43903 0.39609 0.0
H409 H 0.17689 0.49895 0.42112 0.0
C410 C 0.16286 0.54284 0.35388 0.0
O411 O 0.08929 0.49616 0.29972 0.0
O412 O 0.091 0.48836 0.35201 0.0
N413 N 0.22614 0.44263 0.34048 0.0
C414 C 0.23614 0.43237 0.31085 0.0
C415 C 0.25378 0.40339 0.30763 0.0
C416 C 0.26211 0.38565 0.33509 0.0
C417 C 0.25294 0.3973 0.36548 0.0
C418 C 0.23492 0.42617 0.36707 0.0
H419 H 0.23172 0.44656 0.28984 0.0
O420 O 0.12621 0.43493 0.32769 0.0
O421 O 0.16182 0.46515 0.35068 0.0
O422 O 0.16059 0.48191 0.28426 0.0
O423 O 0.20633 0.49871 0.30728 0.0
C424 C 0.26118 0.3815 0.39429 0.0
C425 C 0.25111 0.3946 0.42403 0.0
H426 H 0.22776 0.42658 0.47599 0.0
H427 H 0.1895 0.47385 0.47373 0.0
H428 H 0.2615 0.39512 0.28407 0.0
H429 H 0.27598 0.36344 0.33261 0.0
H430 H 0.27508 0.35917 0.39382 0.0
H431 H 0.25718 0.38206 0.44607 0.0
Mn432 Mn 0.5258 0.87803 0.68047 0.0
Mn433 Mn 0.53342 0.80581 0.64495 0.0
C434 C 0.57449 0.86379 0.65329 0.0
C435 C 0.5128 0.93383 0.6801 0.0
C436 C 0.52102 0.81448 0.71614 0.0
O437 O 0.4788 0.86347 0.66963 0.0
O438 O 0.48924 0.8226 0.63388 0.0
C439 C 0.53386 0.8178 0.57499 0.0
N440 N 0.54839 0.80581 0.6016 0.0
C441 C 0.58953 0.77935 0.56979 0.0
C442 C 0.57286 0.78826 0.54208 0.0
C443 C 0.54555 0.80854 0.54459 0.0
C444 C 0.57592 0.78806 0.59936 0.0
H445 H 0.51283 0.83327 0.57723 0.0
C446 C 0.46995 0.84347 0.64727 0.0
O447 O 0.51179 0.91705 0.70634 0.0
O448 O 0.52004 0.9182 0.65408 0.0
N449 N 0.57625 0.7903 0.65488 0.0
C450 C 0.59293 0.79122 0.68311 0.0
C451 C 0.62361 0.77658 0.68499 0.0
C452 C 0.63777 0.76305 0.65726 0.0
C453 C 0.62169 0.76569 0.62775 0.0
C454 C 0.591 0.78023 0.62765 0.0
H455 H 0.58296 0.80309 0.70407 0.0
O456 O 0.57491 0.88525 0.67633 0.0
O457 O 0.54671 0.85036 0.64968 0.0
O458 O 0.52946 0.84422 0.71719 0.0
O459 O 0.5181 0.79945 0.68961 0.0
C460 C 0.63554 0.75596 0.59823 0.0
C461 C 0.61921 0.76243 0.5692 0.0
H462 H 0.58125 0.77978 0.5189 0.0
H463 H 0.53323 0.81657 0.52329 0.0
H464 H 0.63653 0.77632 0.7076 0.0
H465 H 0.66163 0.75221 0.65861 0.0
H466 H 0.65907 0.74433 0.59751 0.0
H467 H 0.63025 0.75538 0.54654 0.0
Mn468 Mn 0.12948 0.52601 0.68161 0.0
Mn469 Mn 0.20469 0.52683 0.65134 0.0
C470 C 0.1494 0.57362 0.65592 0.0
C471 C 0.07333 0.51591 0.67839 0.0
C472 C 0.18909 0.5175 0.72168 0.0
O473 O 0.14161 0.47764 0.67203 0.0
O474 O 0.18442 0.48493 0.63837 0.0
C475 C 0.19149 0.53136 0.58168 0.0
N476 N 0.20654 0.54282 0.6084 0.0
C477 C 0.23134 0.58591 0.57843 0.0
C478 C 0.21938 0.5722 0.55021 0.0
C479 C 0.19827 0.54558 0.55184 0.0
C480 C 0.22423 0.57037 0.60734 0.0
H481 H 0.17518 0.51098 0.58319 0.0
C482 C 0.16193 0.46721 0.65059 0.0
O483 O 0.08871 0.51474 0.70538 0.0
O484 O 0.09037 0.52218 0.65307 0.0
N485 N 0.22575 0.56684 0.6629 0.0
C486 C 0.23641 0.57691 0.69229 0.0
C487 C 0.25402 0.60582 0.69519 0.0
C488 C 0.26177 0.62362 0.66761 0.0
C489 C 0.25214 0.61205 0.63741 0.0
C490 C 0.23416 0.58324 0.63616 0.0
H491 H 0.23262 0.56257 0.71329 0.0
O492 O 0.12585 0.57556 0.67668 0.0
O493 O 0.16126 0.54484 0.65365 0.0
O494 O 0.16039 0.52854 0.7201 0.0
O495 O 0.20596 0.51119 0.69662 0.0
C496 C 0.25995 0.62783 0.60847 0.0
C497 C 0.24963 0.61468 0.57892 0.0
H498 H 0.2262 0.58255 0.52749 0.0
H499 H 0.18736 0.53593 0.53031 0.0
H500 H 0.26221 0.61395 0.71859 0.0
H501 H 0.27564 0.64577 0.66983 0.0
H502 H 0.27377 0.65012 0.60867 0.0
H503 H 0.25542 0.62716 0.55676 0.0
Mn504 Mn 0.48473 0.13006 0.6829 0.0
Mn505 Mn 0.48308 0.20516 0.65245 0.0
C506 C 0.4371 0.14951 0.65702 0.0
C507 C 0.49511 0.07374 0.68045 0.0
C508 C 0.49271 0.19016 0.72276 0.0
O509 O 0.53289 0.14234 0.67317 0.0
O510 O 0.52507 0.18504 0.63957 0.0
C511 C 0.47874 0.19146 0.58276 0.0
N512 N 0.46707 0.20657 0.60949 0.0
C513 C 0.42374 0.23093 0.57949 0.0
C514 C 0.43756 0.21886 0.55129 0.0
C515 C 0.4644 0.19792 0.55291 0.0
C516 C 0.43935 0.22409 0.60841 0.0
H517 H 0.49934 0.17534 0.58426 0.0
C518 C 0.54302 0.16269 0.65177 0.0
O519 O 0.49627 0.08974 0.70719 0.0
O520 O 0.48885 0.09028 0.65484 0.0
N521 N 0.44292 0.22609 0.66398 0.0
C522 C 0.43285 0.23704 0.69334 0.0
C523 C 0.40381 0.25455 0.69622 0.0
C524 C 0.38588 0.26193 0.66863 0.0
C525 C 0.39747 0.25206 0.63845 0.0
C526 C 0.42641 0.23417 0.63722 0.0
H527 H 0.44729 0.23359 0.71433 0.0
O528 O 0.43536 0.1262 0.67795 0.0
O529 O 0.46569 0.16147 0.65469 0.0
O530 O 0.48187 0.16142 0.72118 0.0
O531 O 0.49877 0.20692 0.69772 0.0
C532 C 0.38161 0.25958 0.60949 0.0
C533 C 0.39482 0.2491 0.57996 0.0
H534 H 0.42712 0.22549 0.52858 0.0
H535 H 0.47413 0.18691 0.53137 0.0
H536 H 0.39567 0.26296 0.7196 0.0
H537 H 0.36363 0.27574 0.67083 0.0
H538 H 0.35922 0.27332 0.60967 0.0
H539 H 0.38229 0.25468 0.55778 0.0
Mn540 Mn 0.87777 0.48833 0.68125 0.0
Mn541 Mn 0.80284 0.4867 0.65088 0.0
C542 C 0.85835 0.44012 0.65576 0.0
C543 C 0.93384 0.49895 0.67785 0.0
C544 C 0.81782 0.49671 0.72127 0.0
O545 O 0.86536 0.53653 0.67175 0.0
O546 O 0.82317 0.5285 0.63774 0.0
C547 C 0.81715 0.48077 0.58139 0.0
N548 N 0.80149 0.46999 0.60801 0.0
C549 C 0.77715 0.42635 0.57818 0.0
C550 C 0.78963 0.43948 0.54998 0.0
C551 C 0.81083 0.46603 0.5516 0.0
C552 C 0.78381 0.44243 0.60702 0.0
H553 H 0.83357 0.50104 0.5829 0.0
C554 C 0.84535 0.54658 0.65007 0.0
O555 O 0.91837 0.50026 0.70489 0.0
O556 O 0.91687 0.49238 0.6526 0.0
N557 N 0.78162 0.44686 0.66254 0.0
C558 C 0.77031 0.43744 0.69187 0.0
C559 C 0.7526 0.40862 0.69485 0.0
C560 C 0.74532 0.39028 0.66736 0.0
C561 C 0.75546 0.40129 0.63717 0.0
C562 C 0.77353 0.43003 0.63586 0.0
H563 H 0.77357 0.45227 0.71273 0.0
O564 O 0.88188 0.43873 0.67645 0.0
O565 O 0.8463 0.4688 0.65335 0.0
O566 O 0.84662 0.48586 0.71972 0.0
O567 O 0.80118 0.50292 0.69616 0.0
C568 C 0.74803 0.38501 0.60829 0.0
C569 C 0.75881 0.39761 0.57874 0.0
H570 H 0.78318 0.42868 0.52731 0.0
H571 H 0.82216 0.47523 0.53011 0.0
H572 H 0.74393 0.401 0.71822 0.0
H573 H 0.73135 0.36821 0.66964 0.0
H574 H 0.73415 0.36276 0.60855 0.0
H575 H 0.75335 0.38474 0.55664 0.0
Mn576 Mn 0.32163 0.52791 0.1265 0.0
Mn577 Mn 0.35307 0.52642 0.20055 0.0
C578 C 0.3485 0.5749 0.14695 0.0
C579 C 0.32452 0.51823 0.07058 0.0
C580 C 0.28209 0.51812 0.18606 0.0
O581 O 0.33048 0.4792 0.13701 0.0
O582 O 0.36561 0.48522 0.17848 0.0
C583 C 0.42231 0.53163 0.1849 0.0
N584 N 0.39625 0.54217 0.20192 0.0
C585 C 0.42711 0.58499 0.22636 0.0
C586 C 0.45482 0.57262 0.21158 0.0
C587 C 0.45223 0.54674 0.1896 0.0
C588 C 0.3979 0.56918 0.22042 0.0
H589 H 0.42022 0.51157 0.16821 0.0
C590 C 0.35258 0.46814 0.156 0.0
O591 O 0.29736 0.51735 0.08604 0.0
O592 O 0.35007 0.52425 0.08736 0.0
N593 N 0.34208 0.56566 0.22349 0.0
C594 C 0.31285 0.57533 0.23544 0.0
C595 C 0.3105 0.60355 0.25433 0.0
C596 C 0.3385 0.62106 0.26192 0.0
C597 C 0.36856 0.60986 0.25085 0.0
C598 C 0.36925 0.58167 0.2318 0.0
H599 H 0.29158 0.56115 0.23168 0.0
O600 O 0.32735 0.57744 0.12395 0.0
O601 O 0.35027 0.5459 0.15813 0.0
O602 O 0.28336 0.53027 0.15802 0.0
O603 O 0.30748 0.51095 0.20202 0.0
C604 C 0.3979 0.62551 0.25808 0.0
C605 C 0.42722 0.61308 0.24577 0.0
H606 H 0.47778 0.58378 0.21652 0.0
H607 H 0.47295 0.5383 0.17619 0.0
H608 H 0.28723 0.61138 0.26357 0.0
H609 H 0.33669 0.64271 0.27669 0.0
H610 H 0.39814 0.64733 0.2727 0.0
H611 H 0.44961 0.62572 0.25076 0.0
Mn612 Mn 0.32345 0.48753 0.87668 0.0
Mn613 Mn 0.35521 0.48653 0.80263 0.0
C614 C 0.34979 0.43968 0.85725 0.0
C615 C 0.32569 0.49829 0.93234 0.0
C616 C 0.28415 0.49595 0.81696 0.0
O617 O 0.33271 0.53587 0.86494 0.0
O618 O 0.36787 0.52838 0.82345 0.0
C619 C 0.42502 0.48124 0.81703 0.0
N620 N 0.39843 0.47016 0.80137 0.0
C621 C 0.42899 0.42689 0.77678 0.0
C622 C 0.45715 0.4404 0.78922 0.0
C623 C 0.45516 0.46685 0.81059 0.0
C624 C 0.3998 0.44264 0.78354 0.0
H625 H 0.42312 0.50135 0.83368 0.0
C626 C 0.35481 0.54625 0.84549 0.0
O627 O 0.29875 0.49915 0.91667 0.0
O628 O 0.35151 0.49178 0.91589 0.0
N629 N 0.34397 0.44665 0.78105 0.0
C630 C 0.31465 0.43697 0.76962 0.0
C631 C 0.31203 0.40812 0.75178 0.0
C632 C 0.33987 0.39002 0.74452 0.0
C633 C 0.37005 0.40127 0.75484 0.0
C634 C 0.37099 0.43002 0.77305 0.0
H635 H 0.29352 0.45159 0.77291 0.0
O636 O 0.32856 0.43801 0.88036 0.0
O637 O 0.35227 0.46843 0.8456 0.0
O638 O 0.28534 0.48471 0.84534 0.0
O639 O 0.30962 0.50248 0.80077 0.0
C640 C 0.39928 0.38527 0.74742 0.0
C641 C 0.42881 0.39817 0.7583 0.0
H642 H 0.48011 0.43002 0.78253 0.0
H643 H 0.47665 0.47625 0.82193 0.0
H644 H 0.28867 0.40029 0.743 0.0
H645 H 0.33788 0.36794 0.73045 0.0
H646 H 0.39931 0.36303 0.73344 0.0
H647 H 0.45119 0.38554 0.75278 0.0
Mn648 Mn 0.52281 0.32528 0.87798 0.0
Mn649 Mn 0.52495 0.35611 0.80361 0.0
C650 C 0.57089 0.3508 0.85898 0.0
C651 C 0.51223 0.32782 0.9338 0.0
C652 C 0.5149 0.28524 0.81827 0.0
O653 O 0.47475 0.33525 0.86568 0.0
O654 O 0.48288 0.36928 0.82356 0.0
C655 C 0.5296 0.42634 0.81715 0.0
N656 N 0.54117 0.39934 0.80222 0.0
C657 C 0.58416 0.42956 0.77746 0.0
C658 C 0.57036 0.45804 0.78937 0.0
C659 C 0.5437 0.45642 0.81037 0.0
C660 C 0.56871 0.4004 0.78459 0.0
H661 H 0.5092 0.42484 0.83335 0.0
C662 C 0.46473 0.35693 0.84559 0.0
O663 O 0.51092 0.30089 0.91786 0.0
O664 O 0.51859 0.35364 0.9174 0.0
N665 N 0.56509 0.34439 0.78282 0.0
C666 C 0.57514 0.31474 0.77207 0.0
C667 C 0.60403 0.31178 0.75446 0.0
C668 C 0.62181 0.33958 0.74677 0.0
C669 C 0.61027 0.37004 0.7565 0.0
C670 C 0.58154 0.37133 0.77456 0.0
H671 H 0.5608 0.2936 0.77577 0.0
O672 O 0.57219 0.32967 0.8821 0.0
O673 O 0.54235 0.35365 0.84699 0.0
O674 O 0.52558 0.28667 0.84686 0.0
O675 O 0.50906 0.31057 0.80171 0.0
C676 C 0.62596 0.39922 0.74865 0.0
C677 C 0.61284 0.42904 0.75906 0.0
H678 H 0.5806 0.48098 0.78258 0.0
H679 H 0.53382 0.47812 0.82113 0.0
H680 H 0.61214 0.28818 0.74619 0.0
H681 H 0.64391 0.33731 0.73284 0.0
H682 H 0.64817 0.399 0.73474 0.0
H683 H 0.62523 0.45138 0.75323 0.0
Mn684 Mn 0.68271 0.52457 0.87745 0.0
Mn685 Mn 0.65088 0.52614 0.80348 0.0
C686 C 0.65632 0.57253 0.85899 0.0
C687 C 0.68043 0.51317 0.93301 0.0
C688 C 0.7221 0.51705 0.81728 0.0
O689 O 0.67372 0.47634 0.86485 0.0
O690 O 0.63861 0.48409 0.82364 0.0
C691 C 0.58091 0.53073 0.81829 0.0
N692 N 0.60743 0.54195 0.80256 0.0
C693 C 0.57617 0.5836 0.77672 0.0
C694 C 0.54817 0.56992 0.78941 0.0
C695 C 0.55053 0.54431 0.81147 0.0
C696 C 0.60564 0.56886 0.78414 0.0
H697 H 0.58302 0.51092 0.83509 0.0
C698 C 0.65174 0.46607 0.84525 0.0
O699 O 0.70737 0.51261 0.91718 0.0
O700 O 0.65462 0.51983 0.91678 0.0
N701 N 0.6616 0.56618 0.78226 0.0
C702 C 0.69089 0.57651 0.77126 0.0
C703 C 0.69304 0.60485 0.75281 0.0
C704 C 0.66482 0.62172 0.74451 0.0
C705 C 0.63477 0.60989 0.75459 0.0
C706 C 0.63428 0.58183 0.77358 0.0
H707 H 0.71238 0.56279 0.7754 0.0
O708 O 0.67748 0.57399 0.88208 0.0
O709 O 0.65379 0.5439 0.84682 0.0
O710 O 0.72086 0.52781 0.84596 0.0
O711 O 0.69666 0.5107 0.80105 0.0
C712 C 0.60524 0.62467 0.74623 0.0
C713 C 0.57589 0.61147 0.75727 0.0
H714 H 0.52504 0.57947 0.78232 0.0
H715 H 0.52908 0.53483 0.82288 0.0
H716 H 0.71636 0.61318 0.74434 0.0
H717 H 0.66647 0.64335 0.7299 0.0
H718 H 0.60485 0.64631 0.73155 0.0
H719 H 0.55328 0.62326 0.75113 0.0
Mn720 Mn 0.48319 0.68785 0.87833 0.0
Mn721 Mn 0.48087 0.65529 0.80466 0.0
C722 C 0.43502 0.66211 0.85978 0.0
C723 C 0.49338 0.68569 0.9341 0.0
C724 C 0.49329 0.72621 0.81832 0.0
O725 O 0.5311 0.67638 0.86614 0.0
O726 O 0.5226 0.64139 0.82451 0.0
C727 C 0.47532 0.58513 0.81693 0.0
N728 N 0.46382 0.61248 0.80297 0.0
C729 C 0.42088 0.58306 0.77721 0.0
C730 C 0.4344 0.55423 0.78842 0.0
C731 C 0.46113 0.55528 0.80924 0.0
C732 C 0.43658 0.61196 0.78503 0.0
H733 H 0.4958 0.58617 0.83301 0.0
C734 C 0.54079 0.65392 0.84642 0.0
O735 O 0.49534 0.71248 0.91819 0.0
O736 O 0.48637 0.65993 0.91773 0.0
N737 N 0.44089 0.66798 0.78448 0.0
C738 C 0.43016 0.69815 0.77624 0.0
C739 C 0.40124 0.70161 0.75893 0.0
C740 C 0.38381 0.67402 0.7496 0.0
C741 C 0.39544 0.64323 0.75782 0.0
C742 C 0.42426 0.64133 0.77548 0.0
H743 H 0.44353 0.71956 0.78229 0.0
O744 O 0.43362 0.68402 0.88239 0.0
O745 O 0.46357 0.65896 0.84786 0.0
O746 O 0.4818 0.72628 0.84673 0.0
O747 O 0.49797 0.69999 0.80259 0.0
C748 C 0.37951 0.61432 0.74924 0.0
C749 C 0.39233 0.58419 0.75882 0.0
H750 H 0.42395 0.53143 0.7812 0.0
H751 H 0.4711 0.53331 0.81912 0.0
H752 H 0.39262 0.72552 0.75247 0.0
H753 H 0.3616 0.67675 0.73608 0.0
H754 H 0.35726 0.61501 0.73554 0.0
H755 H 0.37972 0.56208 0.75245 0.0
Mn756 Mn 0.68486 0.48126 0.12686 0.0
Mn757 Mn 0.65386 0.48331 0.20135 0.0
C758 C 0.65797 0.43435 0.14759 0.0
C759 C 0.68184 0.49092 0.0709 0.0
C760 C 0.72478 0.4913 0.18615 0.0
O761 O 0.67601 0.53005 0.13763 0.0
O762 O 0.64108 0.52433 0.17945 0.0
C763 C 0.58473 0.47751 0.18606 0.0
N764 N 0.61074 0.4675 0.20319 0.0
C765 C 0.58002 0.42495 0.22803 0.0
C766 C 0.5523 0.43688 0.21317 0.0
C767 C 0.55489 0.46234 0.19093 0.0
C768 C 0.60917 0.44077 0.22187 0.0
H769 H 0.58684 0.49717 0.16908 0.0
C770 C 0.65391 0.54121 0.15681 0.0
O771 O 0.70901 0.4917 0.08619 0.0
O772 O 0.65636 0.48482 0.08784 0.0
N773 N 0.665 0.44431 0.22424 0.0
C774 C 0.69429 0.43481 0.23595 0.0
C775 C 0.69674 0.40686 0.25494 0.0
C776 C 0.66879 0.38946 0.26291 0.0
C777 C 0.63867 0.40051 0.25213 0.0
C778 C 0.63788 0.42845 0.23298 0.0
H779 H 0.71552 0.44896 0.23196 0.0
O780 O 0.6789 0.43166 0.12427 0.0
O781 O 0.65636 0.46346 0.15883 0.0
O782 O 0.72329 0.479 0.15806 0.0
O783 O 0.69949 0.4988 0.20233 0.0
C784 C 0.60938 0.38494 0.25972 0.0
C785 C 0.58 0.39714 0.24759 0.0
H786 H 0.52938 0.42562 0.21813 0.0
H787 H 0.53428 0.47032 0.17731 0.0
H788 H 0.72006 0.39916 0.26397 0.0
H789 H 0.67068 0.368 0.27775 0.0
H790 H 0.60922 0.36331 0.27442 0.0
H791 H 0.55765 0.38449 0.25276 0.0
Mn792 Mn 0.52443 0.68397 0.12765 0.0
Mn793 Mn 0.52939 0.64649 0.19775 0.0
C794 C 0.5725 0.65577 0.14167 0.0
C795 C 0.51168 0.68514 0.07257 0.0
C796 C 0.51839 0.71818 0.19129 0.0
O797 O 0.47688 0.67398 0.14134 0.0
O798 O 0.48598 0.63564 0.17957 0.0
C799 C 0.53017 0.57617 0.18506 0.0
N800 N 0.54451 0.60293 0.1974 0.0
C801 C 0.58289 0.57072 0.22672 0.0
C802 C 0.5655 0.54308 0.21819 0.0
C803 C 0.53987 0.54559 0.19612 0.0
C804 C 0.57084 0.60055 0.2165 0.0
H805 H 0.51035 0.5786 0.16837 0.0
C806 C 0.4672 0.65074 0.15979 0.0
O807 O 0.51141 0.71129 0.08996 0.0
O808 O 0.51836 0.65833 0.08712 0.0
N809 N 0.57158 0.6565 0.21487 0.0
C810 C 0.58808 0.68508 0.21598 0.0
C811 C 0.61788 0.68666 0.2321 0.0
C812 C 0.63124 0.65849 0.24555 0.0
C813 C 0.61528 0.62883 0.2415 0.0
C814 C 0.58569 0.62894 0.22513 0.0
H815 H 0.57864 0.70659 0.2048 0.0
O816 O 0.57357 0.67919 0.12082 0.0
O817 O 0.54429 0.65188 0.15415 0.0
O818 O 0.5288 0.71997 0.16244 0.0
O819 O 0.5132 0.69105 0.20437 0.0
C820 C 0.62798 0.59899 0.2521 0.0
C821 C 0.61139 0.56992 0.24525 0.0
H822 H 0.5718 0.52003 0.22866 0.0
H823 H 0.52701 0.52429 0.18838 0.0
H824 H 0.63066 0.70948 0.23383 0.0
H825 H 0.6543 0.65969 0.25781 0.0
H826 H 0.6506 0.5981 0.26518 0.0
H827 H 0.62127 0.54705 0.25345 0.0
Mn828 Mn 0.4825 0.3257 0.12791 0.0
Mn829 Mn 0.47556 0.36285 0.19887 0.0
C830 C 0.43405 0.35354 0.14176 0.0
C831 C 0.49556 0.32552 0.07267 0.0
C832 C 0.48662 0.29077 0.19159 0.0
O833 O 0.52971 0.33581 0.14202 0.0
O834 O 0.52005 0.37263 0.18197 0.0
C835 C 0.47709 0.43318 0.18652 0.0
N836 N 0.46169 0.40686 0.19835 0.0
C837 C 0.42318 0.44024 0.22677 0.0
C838 C 0.44152 0.46739 0.2188 0.0
C839 C 0.46779 0.46408 0.19743 0.0
C840 C 0.43484 0.41006 0.21679 0.0
H841 H 0.49726 0.4301 0.17024 0.0
C842 C 0.5391 0.35832 0.16158 0.0
O843 O 0.49611 0.29912 0.08944 0.0
O844 O 0.4886 0.35197 0.08794 0.0
N845 N 0.43256 0.3542 0.2146 0.0
C846 C 0.415 0.32628 0.21417 0.0
C847 C 0.38455 0.32547 0.22928 0.0
C848 C 0.37162 0.35392 0.24296 0.0
C849 C 0.38866 0.38309 0.24003 0.0
C850 C 0.41891 0.38213 0.22477 0.0
H851 H 0.4242 0.30477 0.20243 0.0
O852 O 0.43347 0.33009 0.12073 0.0
O853 O 0.46193 0.35743 0.15486 0.0
O854 O 0.47845 0.28918 0.16202 0.0
O855 O 0.48978 0.31773 0.20598 0.0
C856 C 0.37638 0.41329 0.25047 0.0
C857 C 0.39402 0.44187 0.24439 0.0
H858 H 0.43542 0.49073 0.22904 0.0
H859 H 0.48133 0.48505 0.19008 0.0
H860 H 0.37091 0.30312 0.22993 0.0
H861 H 0.34801 0.35336 0.25434 0.0
H862 H 0.35325 0.41485 0.26271 0.0
H863 H 0.38443 0.46504 0.25238 0.0
C864 C 0.16695 0.3831 0.37455 0.0
C865 C 0.15107 0.41368 0.3767 0.0
C866 C 0.13617 0.40127 0.43295 0.0
C867 C 0.15606 0.37329 0.43231 0.0
N868 N 0.19247 0.33829 0.40313 0.0
N869 N 0.12415 0.45354 0.41071 0.0
C870 C 0.17189 0.36424 0.40316 0.0
C871 C 0.13642 0.42303 0.40656 0.0
N872 N 0.1776 0.37227 0.34527 0.0
N873 N 0.11691 0.40732 0.45908 0.0
H874 H 0.12503 0.47116 0.39319 0.0
H875 H 0.11693 0.46297 0.43289 0.0
H876 H 0.11714 0.39293 0.47952 0.0
H877 H 0.09858 0.42472 0.45937 0.0
H878 H 0.18692 0.34911 0.34134 0.0
H879 H 0.17513 0.38594 0.32434 0.0
H880 H 0.20727 0.33205 0.38375 0.0
H881 H 0.19626 0.32418 0.42354 0.0
C882 C 0.60726 0.1401 0.43364 0.0
C883 C 0.63636 0.15819 0.43234 0.0
C884 C 0.62693 0.16837 0.37439 0.0
C885 C 0.59623 0.15306 0.3765 0.0
N886 N 0.5582 0.12197 0.40807 0.0
N887 N 0.6727 0.19231 0.40266 0.0
C888 C 0.58685 0.13821 0.40612 0.0
C889 C 0.64607 0.17279 0.4029 0.0
N890 N 0.59804 0.12653 0.46221 0.0
N891 N 0.63777 0.17863 0.34509 0.0
H892 H 0.68697 0.19584 0.423 0.0
H893 H 0.67941 0.20662 0.38321 0.0
H894 H 0.62397 0.17646 0.3242 0.0
H895 H 0.66101 0.18735 0.34101 0.0
H896 H 0.57521 0.11728 0.46717 0.0
H897 H 0.61334 0.12528 0.48196 0.0
H898 H 0.55242 0.10513 0.4257 0.0
H899 H 0.53942 0.12585 0.3922 0.0
C900 C 0.83747 0.64536 0.40151 0.0
C901 C 0.85388 0.63691 0.43035 0.0
C902 C 0.873 0.58668 0.40469 0.0
C903 C 0.85789 0.59549 0.37506 0.0
N904 N 0.83096 0.63639 0.34382 0.0
N905 N 0.89358 0.60348 0.45654 0.0
C906 C 0.84201 0.62605 0.37296 0.0
C907 C 0.87385 0.60901 0.43079 0.0
N908 N 0.81667 0.67113 0.40175 0.0
N909 N 0.88498 0.55613 0.40901 0.0
H910 H 0.89374 0.61828 0.47685 0.0
H911 H 0.9119 0.58607 0.45654 0.0
H912 H 0.883 0.53793 0.39201 0.0
H913 H 0.89279 0.54726 0.4311 0.0
H914 H 0.80152 0.67691 0.38264 0.0
H915 H 0.81305 0.6855 0.42215 0.0
H916 H 0.82163 0.65952 0.33993 0.0
H917 H 0.83309 0.62237 0.32294 0.0
C918 C 0.36645 0.83499 0.40092 0.0
C919 C 0.37517 0.85207 0.42954 0.0
C920 C 0.41525 0.8828 0.39862 0.0
C921 C 0.41038 0.86267 0.3713 0.0
N922 N 0.37526 0.8264 0.34311 0.0
N923 N 0.41147 0.88913 0.45623 0.0
C924 C 0.38401 0.84071 0.37144 0.0
C925 C 0.40052 0.87512 0.42847 0.0
N926 N 0.3423 0.8125 0.40241 0.0
N927 N 0.4317 0.91117 0.39534 0.0
H928 H 0.4011 0.8848 0.47863 0.0
H929 H 0.43262 0.90278 0.45734 0.0
H930 H 0.43725 0.92017 0.37276 0.0
H931 H 0.43432 0.92818 0.41376 0.0
H932 H 0.33561 0.79751 0.3834 0.0
H933 H 0.32949 0.80793 0.42355 0.0
H934 H 0.35534 0.81134 0.34029 0.0
H935 H 0.38737 0.83127 0.32159 0.0
C936 C 0.13603 0.58712 0.59785 0.0
C937 C 0.15109 0.59631 0.62745 0.0
C938 C 0.17062 0.64644 0.60143 0.0
C939 C 0.15577 0.63695 0.57201 0.0
N940 N 0.12391 0.5988 0.54196 0.0
N941 N 0.17708 0.63757 0.65909 0.0
C942 C 0.13771 0.60779 0.57053 0.0
C943 C 0.16648 0.62701 0.62976 0.0
N944 N 0.11979 0.55844 0.59578 0.0
N945 N 0.19008 0.67314 0.6018 0.0
H946 H 0.17522 0.62351 0.67982 0.0
H947 H 0.18588 0.66081 0.66335 0.0
H948 H 0.19329 0.68771 0.58162 0.0
H949 H 0.20458 0.67969 0.62118 0.0
H950 H 0.10299 0.55266 0.5781 0.0
H951 H 0.1236 0.53964 0.61166 0.0
H952 H 0.12249 0.61432 0.5224 0.0
H953 H 0.11459 0.57598 0.53683 0.0
C954 C 0.36426 0.16987 0.60239 0.0
C955 C 0.37403 0.15499 0.57294 0.0
C956 C 0.42388 0.13559 0.59893 0.0
C957 C 0.41446 0.15076 0.62853 0.0
N958 N 0.37294 0.17672 0.66009 0.0
N959 N 0.41283 0.12366 0.54278 0.0
C960 C 0.38364 0.16599 0.63078 0.0
C961 C 0.40341 0.13719 0.57147 0.0
N962 N 0.33736 0.18917 0.60273 0.0
N963 N 0.45259 0.11926 0.59698 0.0
H964 H 0.39759 0.12226 0.52298 0.0
H965 H 0.43585 0.11473 0.53776 0.0
H966 H 0.47121 0.12293 0.61309 0.0
H967 H 0.45845 0.10234 0.57926 0.0
H968 H 0.33056 0.20371 0.62214 0.0
H969 H 0.32286 0.19225 0.58249 0.0
H970 H 0.34964 0.18541 0.6643 0.0
H971 H 0.38696 0.17508 0.68087 0.0
C972 C 0.84131 0.38637 0.62979 0.0
C973 C 0.85697 0.41691 0.62745 0.0
C974 C 0.87111 0.40447 0.57071 0.0
C975 C 0.85295 0.37543 0.57221 0.0
N976 N 0.81796 0.33989 0.60186 0.0
N977 N 0.88937 0.45375 0.59597 0.0
C978 C 0.83756 0.36649 0.60153 0.0
C979 C 0.87265 0.4254 0.59798 0.0
N980 N 0.83013 0.37638 0.65906 0.0
N981 N 0.88503 0.41324 0.54213 0.0
H982 H 0.88519 0.47279 0.61159 0.0
H983 H 0.90683 0.45884 0.57867 0.0
H984 H 0.89423 0.4361 0.53706 0.0
H985 H 0.88645 0.39767 0.52245 0.0
H986 H 0.82106 0.35329 0.66338 0.0
H987 H 0.83176 0.39077 0.67971 0.0
H988 H 0.80316 0.33367 0.62114 0.0
H989 H 0.81493 0.32508 0.5817 0.0
C990 C 0.62983 0.85239 0.62792 0.0
C991 C 0.59788 0.86491 0.62534 0.0
C992 C 0.6086 0.87682 0.56815 0.0
C993 C 0.6376 0.85862 0.56932 0.0
N994 N 0.67535 0.82706 0.60014 0.0
N995 N 0.55644 0.88814 0.59105 0.0
C996 C 0.64831 0.84607 0.59926 0.0
C997 C 0.58731 0.87709 0.59497 0.0
N998 N 0.64253 0.84664 0.65761 0.0
N999 N 0.60148 0.89444 0.54132 0.0
H1000 H 0.54001 0.89012 0.60965 0.0
H1001 H 0.54608 0.89266 0.56868 0.0
H1002 H 0.6164 0.89463 0.52119 0.0
H1003 H 0.58281 0.91142 0.54022 0.0
H1004 H 0.66656 0.83999 0.66128 0.0
H1005 H 0.62959 0.85121 0.67875 0.0
H1006 H 0.68273 0.81448 0.62054 0.0
H1007 H 0.68897 0.82195 0.57959 0.0
C1008 C 0.3786 0.16881 0.3833 0.0
C1009 C 0.3809 0.15161 0.41275 0.0
C1010 C 0.437 0.13624 0.39849 0.0
C1011 C 0.43633 0.15732 0.37173 0.0
N1012 N 0.40749 0.19717 0.34083 0.0
N1013 N 0.4153 0.12301 0.4504 0.0
C1014 C 0.40728 0.17445 0.36457 0.0
C1015 C 0.41083 0.13621 0.42071 0.0
N1016 N 0.34919 0.18015 0.37351 0.0
N1017 N 0.46302 0.11631 0.4031 0.0
H1018 H 0.39796 0.12393 0.46826 0.0
H1019 H 0.43762 0.11504 0.45892 0.0
H1020 H 0.48343 0.11684 0.38851 0.0
H1021 H 0.46315 0.09726 0.41949 0.0
H1022 H 0.34524 0.19046 0.35103 0.0
H1023 H 0.32818 0.17712 0.38715 0.0
H1024 H 0.38804 0.21248 0.33599 0.0
H1025 H 0.42833 0.20255 0.32783 0.0
C1026 C 0.87295 0.41004 0.42021 0.0
C1027 C 0.8581 0.37989 0.41197 0.0
C1028 C 0.83685 0.40544 0.3626 0.0
C1029 C 0.85305 0.43482 0.37047 0.0
N1030 N 0.89269 0.46221 0.40292 0.0
N1031 N 0.83102 0.34739 0.37216 0.0
C1032 C 0.87319 0.43599 0.39791 0.0
C1033 C 0.84186 0.37706 0.38197 0.0
N1034 N 0.88553 0.4149 0.45015 0.0
N1035 N 0.8159 0.40498 0.33727 0.0
H1036 H 0.83363 0.32662 0.3862 0.0
H1037 H 0.82141 0.34294 0.34944 0.0
H1038 H 0.81211 0.42518 0.32275 0.0
H1039 H 0.80083 0.38549 0.33198 0.0
H1040 H 0.89279 0.43745 0.45887 0.0
H1041 H 0.88498 0.39755 0.46793 0.0
H1042 H 0.91117 0.46273 0.41992 0.0
H1043 H 0.89248 0.48238 0.38809 0.0
C1044 C 0.57084 0.87465 0.40115 0.0
C1045 C 0.57303 0.86024 0.3703 0.0
C1046 C 0.63151 0.85052 0.37869 0.0
C1047 C 0.62897 0.86317 0.41047 0.0
N1048 N 0.59691 0.89298 0.44953 0.0
N1049 N 0.60689 0.84481 0.3258 0.0
C1050 C 0.59888 0.87706 0.4208 0.0
C1051 C 0.60386 0.85119 0.35786 0.0
N1052 N 0.5414 0.88535 0.41214 0.0
N1053 N 0.6601 0.83705 0.36876 0.0
H1054 H 0.58779 0.84875 0.31003 0.0
H1055 H 0.62878 0.83985 0.31436 0.0
H1056 H 0.68072 0.83677 0.38319 0.0
H1057 H 0.66282 0.82414 0.34734 0.0
H1058 H 0.53646 0.89108 0.43607 0.0
H1059 H 0.52115 0.88738 0.39734 0.0
H1060 H 0.5783 0.90883 0.45591 0.0
H1061 H 0.61408 0.89033 0.46725 0.0
C1062 C 0.16808 0.63217 0.38193 0.0
C1063 C 0.15184 0.63005 0.41204 0.0
C1064 C 0.13647 0.57369 0.39873 0.0
C1065 C 0.1564 0.5743 0.37102 0.0
N1066 N 0.19384 0.6032 0.3374 0.0
N1067 N 0.12416 0.59604 0.45075 0.0
C1068 C 0.17283 0.6034 0.36279 0.0
C1069 C 0.13679 0.60015 0.4207 0.0
N1070 N 0.17922 0.66156 0.3718 0.0
N1071 N 0.1172 0.54744 0.4044 0.0
H1072 H 0.12483 0.61377 0.46828 0.0
H1073 H 0.11674 0.57376 0.45984 0.0
H1074 H 0.1175 0.52684 0.38995 0.0
H1075 H 0.09875 0.54724 0.42152 0.0
H1076 H 0.18883 0.6655 0.34898 0.0
H1077 H 0.17688 0.6826 0.38569 0.0
H1078 H 0.20908 0.62246 0.33186 0.0
H1079 H 0.19758 0.58267 0.32312 0.0
C1080 C 0.4124 0.87073 0.58182 0.0
C1081 C 0.3827 0.8552 0.59021 0.0
C1082 C 0.40941 0.83349 0.63889 0.0
C1083 C 0.43848 0.84978 0.63045 0.0
N1084 N 0.46447 0.8909 0.59877 0.0
N1085 N 0.35137 0.82695 0.63001 0.0
C1086 C 0.43876 0.87072 0.6036 0.0
C1087 C 0.38067 0.83836 0.61997 0.0
N1088 N 0.41647 0.88406 0.55211 0.0
N1089 N 0.40954 0.81285 0.66447 0.0
H1090 H 0.3304 0.82951 0.61631 0.0
H1091 H 0.34742 0.81676 0.65254 0.0
H1092 H 0.42987 0.8097 0.679 0.0
H1093 H 0.39033 0.79768 0.67027 0.0
H1094 H 0.43859 0.89226 0.54333 0.0
H1095 H 0.39918 0.88275 0.53432 0.0
H1096 H 0.46437 0.90987 0.58229 0.0
H1097 H 0.48476 0.89083 0.61344 0.0
C1098 C 0.17131 0.40646 0.64199 0.0
C1099 C 0.15531 0.43579 0.63351 0.0
C1100 C 0.13666 0.41028 0.58342 0.0
C1101 C 0.15131 0.38017 0.59231 0.0
N1102 N 0.17755 0.34826 0.63298 0.0
N1103 N 0.11689 0.46313 0.59968 0.0
C1104 C 0.16683 0.3778 0.62271 0.0
C1105 C 0.13598 0.43668 0.60549 0.0
N1106 N 0.19169 0.40633 0.66777 0.0
N1107 N 0.12476 0.41464 0.55312 0.0
H1108 H 0.11685 0.48359 0.61435 0.0
H1109 H 0.09885 0.46361 0.58223 0.0
H1110 H 0.12591 0.39714 0.53531 0.0
H1111 H 0.11752 0.43703 0.5441 0.0
H1112 H 0.20673 0.38691 0.67349 0.0
H1113 H 0.19509 0.42674 0.68227 0.0
H1114 H 0.18655 0.34416 0.65598 0.0
H1115 H 0.17548 0.32728 0.619 0.0
C1116 C 0.57362 0.13681 0.60654 0.0
C1117 C 0.5744 0.15628 0.63463 0.0
C1118 C 0.63177 0.169 0.62313 0.0
C1119 C 0.62936 0.15334 0.59267 0.0
N1120 N 0.59513 0.12594 0.55387 0.0
N1121 N 0.6033 0.19352 0.66863 0.0
C1122 C 0.59958 0.13805 0.58413 0.0
C1123 C 0.60334 0.17298 0.64278 0.0
N1124 N 0.54773 0.11702 0.60102 0.0
N1125 N 0.66111 0.1803 0.63312 0.0
H1126 H 0.58309 0.19651 0.68343 0.0
H1127 H 0.62235 0.20903 0.67413 0.0
H1128 H 0.6819 0.17858 0.61888 0.0
H1129 H 0.66528 0.18944 0.65612 0.0
H1130 H 0.54746 0.099 0.58337 0.0
H1131 H 0.52765 0.11637 0.6161 0.0
H1132 H 0.57282 0.11843 0.54499 0.0
H1133 H 0.61257 0.12702 0.53612 0.0
C1134 C 0.8375 0.60735 0.64108 0.0
C1135 C 0.85263 0.57749 0.63246 0.0
C1136 C 0.87206 0.60211 0.58209 0.0
C1137 C 0.85689 0.63219 0.59053 0.0
N1138 N 0.83068 0.66517 0.63076 0.0
N1139 N 0.8848 0.54624 0.59534 0.0
C1140 C 0.84146 0.63535 0.62101 0.0
C1141 C 0.87067 0.57521 0.60344 0.0
N1142 N 0.818 0.60843 0.66764 0.0
N1143 N 0.88824 0.59922 0.55353 0.0
H1144 H 0.88648 0.52708 0.61139 0.0
H1145 H 0.89418 0.54038 0.57282 0.0
H1146 H 0.8844 0.6147 0.53442 0.0
H1147 H 0.90505 0.58119 0.54812 0.0
H1148 H 0.80321 0.62806 0.67354 0.0
H1149 H 0.8151 0.58859 0.68282 0.0
H1150 H 0.82189 0.67008 0.65377 0.0
H1151 H 0.8324 0.68569 0.61625 0.0
C1152 C 0.35941 0.40663 0.15985 0.0
C1153 C 0.36951 0.43705 0.14751 0.0
C1154 C 0.42028 0.41214 0.12894 0.0
C1155 C 0.41023 0.38134 0.14093 0.0
N1156 N 0.36607 0.34795 0.15872 0.0
N1157 N 0.40521 0.46622 0.11233 0.0
C1158 C 0.37834 0.37812 0.15334 0.0
C1159 C 0.39854 0.43887 0.12951 0.0
N1160 N 0.3325 0.40515 0.17886 0.0
N1161 N 0.45097 0.41644 0.11756 0.0
H1162 H 0.38986 0.48619 0.11224 0.0
H1163 H 0.42395 0.4679 0.09561 0.0
H1164 H 0.46747 0.39776 0.11475 0.0
H1165 H 0.46107 0.43912 0.11319 0.0
H1166 H 0.32566 0.38442 0.19134 0.0
H1167 H 0.31839 0.42554 0.18395 0.0
H1168 H 0.34207 0.34386 0.16521 0.0
H1169 H 0.37931 0.32686 0.15404 0.0
C1170 C 0.38128 0.63615 0.84346 0.0
C1171 C 0.4118 0.63379 0.85901 0.0
C1172 C 0.39949 0.57674 0.87247 0.0
C1173 C 0.37154 0.57771 0.85291 0.0
N1174 N 0.33649 0.60771 0.8178 0.0
N1175 N 0.45133 0.59941 0.88548 0.0
C1176 C 0.36242 0.60737 0.83805 0.0
C1177 C 0.42106 0.60353 0.87304 0.0
N1178 N 0.37054 0.6658 0.83352 0.0
N1179 N 0.4057 0.54986 0.89059 0.0
H1180 H 0.46872 0.61731 0.88563 0.0
H1181 H 0.46085 0.57701 0.89212 0.0
H1182 H 0.39153 0.52911 0.88961 0.0
H1183 H 0.42293 0.54916 0.90882 0.0
H1184 H 0.34745 0.66989 0.82444 0.0
H1185 H 0.38417 0.68687 0.83641 0.0
H1186 H 0.33023 0.62747 0.80359 0.0
H1187 H 0.32241 0.58718 0.81364 0.0
C1188 C 0.43499 0.40369 0.87053 0.0
C1189 C 0.4335 0.37452 0.85237 0.0
C1190 C 0.37592 0.38589 0.84021 0.0
C1191 C 0.37828 0.41654 0.85583 0.0
N1192 N 0.40992 0.45384 0.88779 0.0
N1193 N 0.40396 0.33923 0.81696 0.0
C1194 C 0.40782 0.42509 0.87154 0.0
C1195 C 0.40421 0.36583 0.83664 0.0
N1196 N 0.46346 0.41188 0.88521 0.0
N1197 N 0.34657 0.37596 0.82886 0.0
H1198 H 0.42406 0.32413 0.8142 0.0
H1199 H 0.38481 0.33329 0.80184 0.0
H1200 H 0.32587 0.39048 0.83025 0.0
H1201 H 0.34219 0.35279 0.81988 0.0
H1202 H 0.46873 0.43447 0.89502 0.0
H1203 H 0.48281 0.39584 0.88703 0.0
H1204 H 0.42768 0.45964 0.90449 0.0
H1205 H 0.39393 0.47274 0.88412 0.0
C1206 C 0.60688 0.43589 0.87202 0.0
C1207 C 0.63485 0.43473 0.85235 0.0
C1208 C 0.62457 0.37647 0.842 0.0
C1209 C 0.59415 0.37902 0.8579 0.0
N1210 N 0.55507 0.41341 0.88536 0.0
N1211 N 0.66969 0.40465 0.81662 0.0
C1212 C 0.58519 0.40924 0.87246 0.0
C1213 C 0.64371 0.40509 0.83697 0.0
N1214 N 0.60077 0.46282 0.89038 0.0
N1215 N 0.63494 0.3468 0.83142 0.0
H1216 H 0.68401 0.42505 0.8128 0.0
H1217 H 0.67579 0.38494 0.80206 0.0
H1218 H 0.62104 0.32587 0.83397 0.0
H1219 H 0.65794 0.34252 0.82203 0.0
H1220 H 0.58357 0.46363 0.90873 0.0
H1221 H 0.61492 0.48357 0.88938 0.0
H1222 H 0.54556 0.4358 0.8923 0.0
H1223 H 0.53786 0.39538 0.88569 0.0
C1224 C 0.62993 0.62547 0.84079 0.0
C1225 C 0.62804 0.5958 0.8579 0.0
C1226 C 0.57203 0.60987 0.87382 0.0
C1227 C 0.57225 0.63674 0.85278 0.0
N1228 N 0.6004 0.66793 0.81282 0.0
N1229 N 0.59436 0.55773 0.88694 0.0
C1230 C 0.60105 0.64412 0.83546 0.0
C1231 C 0.59838 0.58762 0.87361 0.0
N1232 N 0.65914 0.63551 0.82917 0.0
N1233 N 0.54632 0.60525 0.89402 0.0
H1234 H 0.61193 0.5399 0.88612 0.0
H1235 H 0.57221 0.54901 0.89515 0.0
H1236 H 0.52594 0.62007 0.89394 0.0
H1237 H 0.54645 0.58863 0.91282 0.0
H1238 H 0.66281 0.65818 0.81886 0.0
H1239 H 0.68029 0.62192 0.83198 0.0
H1240 H 0.61968 0.67304 0.7975 0.0
H1241 H 0.57931 0.68062 0.80746 0.0
C1242 C 0.60837 0.57041 0.12975 0.0
C1243 C 0.63689 0.57225 0.14847 0.0
C1244 C 0.62769 0.63117 0.15499 0.0
C1245 C 0.59641 0.62803 0.14122 0.0
N1246 N 0.55663 0.59324 0.11587 0.0
N1247 N 0.67283 0.60405 0.18122 0.0
C1248 C 0.58682 0.5973 0.12852 0.0
C1249 C 0.6465 0.60264 0.16154 0.0
N1250 N 0.60199 0.54284 0.11258 0.0
N1251 N 0.63947 0.66132 0.16166 0.0
H1252 H 0.68696 0.58371 0.1862 0.0
H1253 H 0.67918 0.62466 0.19431 0.0
H1254 H 0.62628 0.6824 0.15702 0.0
H1255 H 0.66309 0.66551 0.16923 0.0
H1256 H 0.5839 0.54109 0.09527 0.0
H1257 H 0.61686 0.52254 0.11337 0.0
H1258 H 0.5465 0.57066 0.11098 0.0
H1259 H 0.5405 0.61211 0.11236 0.0
C1260 C 0.4069 0.58773 0.13189 0.0
C1261 C 0.37771 0.59704 0.14814 0.0
C1262 C 0.40638 0.64504 0.16977 0.0
C1263 C 0.43501 0.63547 0.15315 0.0
N1264 N 0.45985 0.60265 0.11192 0.0
N1265 N 0.3482 0.63795 0.1775 0.0
C1266 C 0.43418 0.60859 0.13196 0.0
C1267 C 0.37695 0.62699 0.1653 0.0
N1268 N 0.40969 0.55779 0.11807 0.0
N1269 N 0.40765 0.6708 0.19049 0.0
H1270 H 0.32676 0.62482 0.17531 0.0
H1271 H 0.34513 0.66069 0.18805 0.0
H1272 H 0.4285 0.68474 0.19339 0.0
H1273 H 0.38884 0.67735 0.20592 0.0
H1274 H 0.43124 0.54823 0.10905 0.0
H1275 H 0.39192 0.54043 0.11986 0.0
H1276 H 0.45905 0.58634 0.09272 0.0
H1277 H 0.48103 0.61621 0.11243 0.0
C1278 C 0.62942 0.3826 0.16665 0.0
C1279 C 0.62871 0.41225 0.14923 0.0
C1280 C 0.57201 0.40073 0.13393 0.0
C1281 C 0.57119 0.37412 0.15527 0.0
N1282 N 0.59875 0.33913 0.1923 0.0
N1283 N 0.5968 0.45102 0.11909 0.0
C1284 C 0.59993 0.36469 0.17156 0.0
C1285 C 0.59946 0.42138 0.13325 0.0
N1286 N 0.6582 0.37178 0.17863 0.0
N1287 N 0.54618 0.40661 0.11429 0.0
H1288 H 0.61477 0.46822 0.12037 0.0
H1289 H 0.57527 0.46063 0.11029 0.0
H1290 H 0.52481 0.39342 0.11536 0.0
H1291 H 0.54693 0.4225 0.09489 0.0
H1292 H 0.66127 0.34925 0.1894 0.0
H1293 H 0.67966 0.3848 0.17607 0.0
H1294 H 0.61767 0.33261 0.20744 0.0
H1295 H 0.57786 0.32532 0.19551 0.0
C1296 C 0.02555 0.3214 0.4771 0.0
C1297 C 0.03881 0.33251 0.5066 0.0
C1298 C 0.98421 0.34712 0.52575 0.0
C1299 C 0.9708 0.3326 0.49778 0.0
N1300 N 0.97814 0.30393 0.44751 0.0
N1301 N 0.03082 0.35246 0.56076 0.0
C1302 C 0.99134 0.31909 0.47369 0.0
C1303 C 0.01819 0.34479 0.53131 0.0
N1304 N 0.04567 0.31455 0.45175 0.0
N1305 N 0.96444 0.36299 0.5471 0.0
H1306 H 0.0554 0.35066 0.56606 0.0
H1307 H 0.01675 0.35809 0.58085 0.0
H1308 H 0.93932 0.36368 0.54479 0.0
H1309 H 0.97298 0.37735 0.5659 0.0
H1310 H 0.03753 0.30967 0.42855 0.0
H1311 H 0.07077 0.31675 0.45306 0.0
H1312 H 0.99154 0.28998 0.4313 0.0
H1313 H 0.95336 0.3037 0.44285 0.0
C1314 C 0.69281 0.02116 0.53017 0.0
C1315 C 0.67924 0.04168 0.50634 0.0
C1316 C 0.66823 0.99443 0.472 0.0
C1317 C 0.68039 0.97378 0.4965 0.0
N1318 N 0.69819 0.96658 0.55117 0.0
N1319 N 0.64965 0.04816 0.45685 0.0
C1320 C 0.69112 0.9869 0.5262 0.0
C1321 C 0.66539 0.02836 0.47804 0.0
N1322 N 0.70738 0.03442 0.55664 0.0
N1323 N 0.6611 0.98187 0.44233 0.0
H1324 H 0.64865 0.0733 0.45949 0.0
H1325 H 0.63571 0.03958 0.43782 0.0
H1326 H 0.66332 0.95729 0.43669 0.0
H1327 H 0.65556 0.99601 0.4224 0.0
H1328 H 0.72134 0.0211 0.5727 0.0
H1329 H 0.70708 0.05921 0.56172 0.0
H1330 H 0.70276 0.97456 0.57452 0.0
H1331 H 0.69664 0.94139 0.54937 0.0
C1332 C 0.98454 0.69016 0.47581 0.0
C1333 C 0.97092 0.67932 0.50523 0.0
C1334 C 0.02534 0.66538 0.52491 0.0
C1335 C 0.03906 0.67958 0.49699 0.0
N1336 N 0.03225 0.70757 0.44658 0.0
N1337 N 0.97828 0.66024 0.55956 0.0
C1338 C 0.01878 0.69266 0.47269 0.0
C1339 C 0.99127 0.66756 0.53017 0.0
N1340 N 0.96474 0.69655 0.45027 0.0
N1341 N 0.04491 0.64994 0.54651 0.0
H1342 H 0.95362 0.66194 0.56464 0.0
H1343 H 0.99211 0.65505 0.5798 0.0
H1344 H 0.07006 0.64942 0.54445 0.0
H1345 H 0.03618 0.63576 0.56528 0.0
H1346 H 0.97317 0.7012 0.42712 0.0
H1347 H 0.93963 0.6942 0.45137 0.0
H1348 H 0.01899 0.72121 0.43019 0.0
H1349 H 0.0571 0.70796 0.44215 0.0
C1350 C 0.34846 0.02428 0.52473 0.0
C1351 C 0.33376 0.03775 0.49697 0.0
C1352 C 0.32395 0.98287 0.47571 0.0
C1353 C 0.33525 0.96948 0.50501 0.0
N1354 N 0.35491 0.97729 0.55913 0.0
N1355 N 0.30563 0.03038 0.44666 0.0
C1356 C 0.34697 0.99011 0.52988 0.0
C1357 C 0.32089 0.01716 0.47268 0.0
N1358 N 0.36369 0.04417 0.54629 0.0
N1359 N 0.3176 0.9628 0.4502 0.0
H1360 H 0.30484 0.05526 0.44229 0.0
H1361 H 0.29213 0.01688 0.4303 0.0
H1362 H 0.32034 0.93767 0.45129 0.0
H1363 H 0.31257 0.97105 0.42711 0.0
H1364 H 0.3782 0.03568 0.5649 0.0
H1365 H 0.36367 0.06938 0.54437 0.0
H1366 H 0.36007 0.99127 0.57938 0.0
H1367 H 0.35387 0.95255 0.56409 0.0
C1368 C 0.47457 0.99407 0.33121 0.0
C1369 C 0.5011 0.97283 0.32546 0.0
C1370 C 0.53721 0.01945 0.3187 0.0
C1371 C 0.51104 0.04057 0.32626 0.0
N1372 N 0.45627 0.04847 0.34476 0.0
N1373 N 0.55847 0.96446 0.31902 0.0
C1374 C 0.48017 0.02799 0.33421 0.0
C1375 C 0.53269 0.98529 0.32065 0.0
N1376 N 0.4438 0.982 0.33207 0.0
N1377 N 0.56622 0.0321 0.30913 0.0
H1378 H 0.556 0.93932 0.32035 0.0
H1379 H 0.58249 0.972 0.31897 0.0
H1380 H 0.57084 0.05696 0.3087 0.0
H1381 H 0.58508 0.01817 0.29971 0.0
H1382 H 0.42314 0.99649 0.33283 0.0
H1383 H 0.43867 0.95742 0.32914 0.0
H1384 H 0.43445 0.0405 0.35443 0.0
H1385 H 0.45917 0.07357 0.34609 0.0
C1386 C 0.99082 0.53377 0.33891 0.0
C1387 C 0.9703 0.50832 0.32816 0.0
C1388 C 0.01785 0.47431 0.3164 0.0
C1389 C 0.03828 0.4992 0.32843 0.0
N1390 N 0.04461 0.55067 0.35534 0.0
N1391 N 0.96354 0.45229 0.31296 0.0
C1392 C 0.02483 0.52825 0.3412 0.0
C1393 C 0.98363 0.47801 0.31857 0.0
N1394 N 0.97805 0.56381 0.34517 0.0
N1395 N 0.03118 0.44716 0.30265 0.0
H1396 H 0.93841 0.45392 0.31495 0.0
H1397 H 0.97168 0.42866 0.30923 0.0
H1398 H 0.05601 0.44255 0.30237 0.0
H1399 H 0.01787 0.43008 0.28983 0.0
H1400 H 0.99198 0.58432 0.3496 0.0
H1401 H 0.95341 0.56903 0.34345 0.0
H1402 H 0.03612 0.57045 0.36857 0.0
H1403 H 0.06973 0.5484 0.35563 0.0
C1404 C 0.53333 0.9901 0.66889 0.0
C1405 C 0.50799 0.96965 0.67994 0.0
C1406 C 0.47478 0.01764 0.69259 0.0
C1407 C 0.49929 0.0379 0.67958 0.0
N1408 N 0.55004 0.04368 0.65155 0.0
N1409 N 0.45266 0.96332 0.69713 0.0
C1410 C 0.52792 0.02416 0.66638 0.0
C1411 C 0.47821 0.98325 0.69055 0.0
N1412 N 0.56324 0.97722 0.66251 0.0
N1413 N 0.44819 0.03127 0.70697 0.0
H1414 H 0.45413 0.9381 0.69548 0.0
H1415 H 0.42926 0.97164 0.70155 0.0
H1416 H 0.44369 0.05618 0.70714 0.0
H1417 H 0.4315 0.01815 0.72042 0.0
H1418 H 0.58365 0.99115 0.65778 0.0
H1419 H 0.56856 0.95261 0.66477 0.0
H1420 H 0.56935 0.03487 0.6379 0.0
H1421 H 0.54799 0.06888 0.65109 0.0
C1422 C 0.98293 0.53361 0.68698 0.0
C1423 C 0.96948 0.50387 0.67617 0.0
C1424 C 0.02407 0.48352 0.66314 0.0
C1425 C 0.03759 0.51197 0.67691 0.0
N1426 N 0.03049 0.56325 0.70429 0.0
N1427 N 0.97707 0.44879 0.65762 0.0
C1428 C 0.01716 0.53673 0.68959 0.0
C1429 C 0.98998 0.47844 0.66489 0.0
N1430 N 0.96297 0.55941 0.69327 0.0
N1431 N 0.04387 0.46121 0.64856 0.0
H1432 H 0.95238 0.44384 0.65896 0.0
H1433 H 0.99092 0.42821 0.65273 0.0
H1434 H 0.06903 0.46296 0.64878 0.0
H1435 H 0.03543 0.44204 0.63457 0.0
H1436 H 0.97124 0.58278 0.69792 0.0
H1437 H 0.93786 0.55823 0.69099 0.0
H1438 H 0.01712 0.58007 0.71758 0.0
H1439 H 0.05533 0.56757 0.70487 0.0
C1440 C 0.33984 0.53192 0.98093 0.0
C1441 C 0.3266 0.50305 0.96776 0.0
C1442 C 0.31587 0.48264 0.02222 0.0
C1443 C 0.3262 0.51273 0.03525 0.0
N1444 N 0.34446 0.56765 0.02728 0.0
N1445 N 0.29954 0.45183 0.97515 0.0
C1446 C 0.33755 0.53774 0.01471 0.0
C1447 C 0.3138 0.47871 0.98823 0.0
N1448 N 0.35445 0.55387 0.96109 0.0
N1449 N 0.30955 0.45726 0.04237 0.0
H1450 H 0.29939 0.44693 0.95051 0.0
H1451 H 0.28615 0.43526 0.98849 0.0
H1452 H 0.3114 0.45901 0.06734 0.0
H1453 H 0.30532 0.43367 0.03442 0.0
H1454 H 0.36809 0.57337 0.96937 0.0
H1455 H 0.35461 0.55153 0.93611 0.0
H1456 H 0.34942 0.58795 0.01334 0.0
H1457 H 0.34278 0.57305 0.05176 0.0
C1458 C 0.47857 0.31642 0.98289 0.0
C1459 C 0.50768 0.32853 0.96937 0.0
C1460 C 0.52829 0.34027 0.02371 0.0
C1461 C 0.5004 0.32551 0.03718 0.0
N1462 N 0.45023 0.29658 0.03002 0.0
N1463 N 0.56236 0.34762 0.97667 0.0
C1464 C 0.47599 0.31255 0.01686 0.0
C1465 C 0.53305 0.33955 0.9897 0.0
N1466 N 0.45272 0.31021 0.96332 0.0
N1467 N 0.5503 0.35496 0.04345 0.0
H1468 H 0.56709 0.34704 0.95202 0.0
H1469 H 0.58291 0.35235 0.99031 0.0
H1470 H 0.54893 0.35391 0.06848 0.0
H1471 H 0.56887 0.36975 0.03512 0.0
H1472 H 0.42969 0.30467 0.97182 0.0
H1473 H 0.45341 0.31355 0.93846 0.0
H1474 H 0.43378 0.28316 0.01653 0.0
H1475 H 0.44632 0.29486 0.05475 0.0
C1476 C 0.66623 0.47878 0.98092 0.0
C1477 C 0.6795 0.50784 0.96837 0.0
C1478 C 0.69038 0.5273 0.02331 0.0
C1479 C 0.68004 0.497 0.03568 0.0
N1480 N 0.66153 0.44232 0.02643 0.0
N1481 N 0.70666 0.55887 0.97691 0.0
C1482 C 0.66855 0.4724 0.01456 0.0
C1483 C 0.69238 0.5318 0.98939 0.0
N1484 N 0.65157 0.45719 0.96064 0.0
N1485 N 0.69674 0.55235 0.04404 0.0
H1486 H 0.70675 0.5642 0.95241 0.0
H1487 H 0.72012 0.57517 0.99058 0.0
H1488 H 0.69491 0.5502 0.06898 0.0
H1489 H 0.70096 0.57605 0.03666 0.0
H1490 H 0.63791 0.43757 0.9685 0.0
H1491 H 0.65139 0.45992 0.93572 0.0
H1492 H 0.65645 0.42227 0.01203 0.0
H1493 H 0.6632 0.43655 0.05077 0.0
C1494 C 0.52779 0.69585 0.98286 0.0
C1495 C 0.49816 0.68487 0.96956 0.0
C1496 C 0.47801 0.67228 0.02384 0.0
C1497 C 0.50652 0.68586 0.03721 0.0
N1498 N 0.55728 0.71375 0.03008 0.0
N1499 N 0.44304 0.66725 0.9773 0.0
C1500 C 0.53095 0.69876 0.01688 0.0
C1501 C 0.47277 0.67409 0.99 0.0
N1502 N 0.55354 0.70183 0.96302 0.0
N1503 N 0.45591 0.65765 0.04351 0.0
H1504 H 0.43795 0.66878 0.9528 0.0
H1505 H 0.42257 0.66271 0.99119 0.0
H1506 H 0.45775 0.65784 0.06854 0.0
H1507 H 0.43676 0.64368 0.03504 0.0
H1508 H 0.57684 0.70647 0.97127 0.0
H1509 H 0.55244 0.69919 0.93807 0.0
H1510 H 0.57386 0.72711 0.01673 0.0
H1511 H 0.56155 0.71474 0.05478 0.0
C1512 C 0.21765 0.23466 0.53413 0.0
C1513 C 0.20586 0.25293 0.50776 0.0
C1514 C 0.2358 0.21697 0.47079 0.0
C1515 C 0.25382 0.20493 0.49721 0.0
N1516 N 0.25937 0.19844 0.55434 0.0
N1517 N 0.20014 0.25917 0.45059 0.0
C1518 C 0.24361 0.21229 0.52904 0.0
C1519 C 0.21353 0.24301 0.4759 0.0
N1520 N 0.20414 0.23879 0.5639 0.0
N1521 N 0.24008 0.2036 0.44094 0.0
H1522 H 0.18189 0.27646 0.45372 0.0
H1523 H 0.2077 0.2562 0.42683 0.0
H1524 H 0.25635 0.18469 0.4366 0.0
H1525 H 0.22585 0.2094 0.42114 0.0
H1526 H 0.20978 0.22442 0.58365 0.0
H1527 H 0.18529 0.25512 0.56824 0.0
H1528 H 0.25623 0.20569 0.57818 0.0
H1529 H 0.27644 0.17999 0.55111 0.0
C1530 C 0.77406 0.22005 0.53485 0.0
C1531 C 0.75581 0.20794 0.50857 0.0
C1532 C 0.79237 0.23587 0.47123 0.0
C1533 C 0.80439 0.25446 0.49737 0.0
N1534 N 0.81087 0.26152 0.55439 0.0
N1535 N 0.75015 0.20008 0.45153 0.0
C1536 C 0.79683 0.24533 0.52936 0.0
C1537 C 0.76611 0.21423 0.47663 0.0
N1538 N 0.76954 0.20746 0.56487 0.0
N1539 N 0.80599 0.23904 0.44144 0.0
H1540 H 0.73276 0.18212 0.455 0.0
H1541 H 0.75346 0.20663 0.42758 0.0
H1542 H 0.82513 0.25482 0.43697 0.0
H1543 H 0.80012 0.2244 0.42185 0.0
H1544 H 0.78386 0.21336 0.5846 0.0
H1545 H 0.75291 0.18909 0.56948 0.0
H1546 H 0.80355 0.2592 0.57826 0.0
H1547 H 0.82956 0.27812 0.55088 0.0
C1548 C 0.7964 0.76702 0.47253 0.0
C1549 C 0.80376 0.75795 0.50459 0.0
C1550 C 0.76623 0.79947 0.52508 0.0
C1551 C 0.75615 0.80584 0.49312 0.0
N1552 N 0.76978 0.80515 0.43674 0.0
N1553 N 0.80505 0.77339 0.56053 0.0
C1554 C 0.77411 0.79285 0.46689 0.0
C1555 C 0.79188 0.77695 0.53064 0.0
N1556 N 0.81018 0.75028 0.44757 0.0
N1557 N 0.75067 0.81449 0.55007 0.0
H1558 H 0.82365 0.75696 0.56522 0.0
H1559 H 0.79937 0.78824 0.58007 0.0
H1560 H 0.73398 0.83315 0.54642 0.0
H1561 H 0.75364 0.80809 0.57408 0.0
H1562 H 0.80293 0.75254 0.42372 0.0
H1563 H 0.82858 0.73328 0.45111 0.0
H1564 H 0.78392 0.79864 0.41697 0.0
H1565 H 0.75347 0.82386 0.432 0.0
C1566 C 0.21874 0.7745 0.46944 0.0
C1567 C 0.20648 0.75678 0.49597 0.0
C1568 C 0.23708 0.79211 0.53262 0.0
C1569 C 0.25545 0.80341 0.50602 0.0
N1570 N 0.2618 0.80862 0.44873 0.0
N1571 N 0.20021 0.75124 0.55315 0.0
C1572 C 0.24531 0.79594 0.47425 0.0
C1573 C 0.21419 0.76675 0.52773 0.0
N1574 N 0.20512 0.77065 0.43977 0.0
N1575 N 0.24177 0.80535 0.56243 0.0
H1576 H 0.18147 0.7346 0.55009 0.0
H1577 H 0.20767 0.75411 0.5769 0.0
H1578 H 0.25865 0.82358 0.56675 0.0
H1579 H 0.22737 0.8001 0.58231 0.0
H1580 H 0.21114 0.78477 0.41995 0.0
H1581 H 0.18582 0.75495 0.43566 0.0
H1582 H 0.25854 0.801 0.42504 0.0
H1583 H 0.27971 0.82618 0.45158 0.0
C1584 C 0.47552 0.22234 0.25204 0.0
C1585 C 0.50603 0.20732 0.25204 0.0
C1586 C 0.52015 0.24035 0.20469 0.0
C1587 C 0.49275 0.26061 0.21089 0.0
N1588 N 0.45312 0.27541 0.2518 0.0
N1589 N 0.55869 0.20192 0.2274 0.0
C1590 C 0.47232 0.25277 0.23733 0.0
C1591 C 0.52867 0.21576 0.22762 0.0
N1592 N 0.45036 0.20878 0.26829 0.0
N1593 N 0.53879 0.24546 0.17804 0.0
H1594 H 0.56525 0.18353 0.24324 0.0
H1595 H 0.57748 0.20984 0.21267 0.0
H1596 H 0.53439 0.26429 0.16196 0.0
H1597 H 0.55726 0.22975 0.17088 0.0
H1598 H 0.42708 0.21868 0.2678 0.0
H1599 H 0.45247 0.18595 0.27891 0.0
H1600 H 0.43865 0.27019 0.27173 0.0
H1601 H 0.45705 0.30001 0.24868 0.0
C1602 C 0.7965 0.47629 0.24044 0.0
C1603 C 0.80395 0.5086 0.24962 0.0
C1604 C 0.7668 0.52927 0.20849 0.0
C1605 C 0.75686 0.49705 0.20171 0.0
N1606 N 0.77047 0.44019 0.20207 0.0
N1607 N 0.80564 0.56491 0.2345 0.0
C1608 C 0.77468 0.47062 0.2145 0.0
C1609 C 0.79236 0.53482 0.23084 0.0
N1610 N 0.80963 0.45111 0.25724 0.0
N1611 N 0.75109 0.55453 0.19416 0.0
H1612 H 0.82413 0.56964 0.25085 0.0
H1613 H 0.80018 0.5845 0.21974 0.0
H1614 H 0.73425 0.55098 0.17582 0.0
H1615 H 0.754 0.57868 0.20097 0.0
H1616 H 0.80214 0.42713 0.2548 0.0
H1617 H 0.82755 0.45457 0.27455 0.0
H1618 H 0.78459 0.4203 0.20847 0.0
H1619 H 0.75438 0.43535 0.1834 0.0
C1620 C 0.53112 0.75152 0.24103 0.0
C1621 C 0.51369 0.74798 0.21174 0.0
C1622 C 0.48408 0.79832 0.22591 0.0
C1623 C 0.50473 0.80273 0.25302 0.0
N1624 N 0.55661 0.79007 0.27601 0.0
N1625 N 0.4757 0.77151 0.17426 0.0
C1626 C 0.53164 0.78191 0.25628 0.0
C1627 C 0.49127 0.77288 0.20315 0.0
N1628 N 0.54435 0.72576 0.2568 0.0
N1629 N 0.45668 0.81657 0.2228 0.0
H1630 H 0.47834 0.75217 0.15822 0.0
H1631 H 0.46169 0.79055 0.16549 0.0
H1632 H 0.4507 0.8355 0.23836 0.0
H1633 H 0.43888 0.81162 0.20579 0.0
H1634 H 0.55578 0.72819 0.27904 0.0
H1635 H 0.5393 0.70179 0.25118 0.0
H1636 H 0.57758 0.77602 0.27783 0.0
H1637 H 0.55726 0.81247 0.28759 0.0
C1638 C 0.21074 0.53206 0.24137 0.0
C1639 C 0.20396 0.4996 0.25029 0.0
C1640 C 0.24056 0.47962 0.20803 0.0
C1641 C 0.25016 0.51198 0.20175 0.0
N1642 N 0.23604 0.56867 0.20317 0.0
N1643 N 0.20272 0.44333 0.23448 0.0
C1644 C 0.23225 0.53815 0.21522 0.0
C1645 C 0.21554 0.4736 0.23091 0.0
N1646 N 0.19726 0.55697 0.25858 0.0
N1647 N 0.25608 0.4547 0.19263 0.0
H1648 H 0.18454 0.4383 0.25116 0.0
H1649 H 0.2082 0.42383 0.21942 0.0
H1650 H 0.27236 0.45871 0.17383 0.0
H1651 H 0.25349 0.43042 0.19886 0.0
H1652 H 0.20423 0.5811 0.2563 0.0
H1653 H 0.17946 0.55314 0.27601 0.0
H1654 H 0.22188 0.58843 0.21011 0.0
H1655 H 0.25183 0.57372 0.18426 0.0
C1656 C 0.53289 0.75595 0.78586 0.0
C1657 C 0.50283 0.75685 0.80165 0.0
C1658 C 0.4881 0.80313 0.76711 0.0
C1659 C 0.5149 0.79575 0.74654 0.0
N1660 N 0.55389 0.75363 0.73264 0.0
N1661 N 0.45059 0.78242 0.80743 0.0
C1662 C 0.53531 0.76929 0.75492 0.0
C1663 C 0.48015 0.78125 0.7928 0.0
N1664 N 0.55836 0.74014 0.7994 0.0
N1665 N 0.46951 0.82988 0.76134 0.0
H1666 H 0.44455 0.76745 0.82667 0.0
H1667 H 0.43167 0.79704 0.79948 0.0
H1668 H 0.47339 0.8451 0.74174 0.0
H1669 H 0.45156 0.83798 0.77711 0.0
H1670 H 0.58135 0.74 0.78891 0.0
H1671 H 0.55683 0.73065 0.82263 0.0
H1672 H 0.56822 0.73358 0.73832 0.0
H1673 H 0.54986 0.75617 0.70816 0.0
C1674 C 0.23418 0.47478 0.78912 0.0
C1675 C 0.25216 0.50147 0.80117 0.0
C1676 C 0.21621 0.53859 0.77191 0.0
C1677 C 0.20451 0.51193 0.75367 0.0
N1678 N 0.19878 0.45428 0.74713 0.0
N1679 N 0.25791 0.55912 0.80769 0.0
C1680 C 0.21208 0.47985 0.76333 0.0
C1681 C 0.24208 0.53354 0.79399 0.0
N1682 N 0.2384 0.44471 0.80215 0.0
N1683 N 0.20275 0.5686 0.76798 0.0
H1684 H 0.275 0.55601 0.82586 0.0
H1685 H 0.25485 0.58309 0.80049 0.0
H1686 H 0.18402 0.57297 0.7518 0.0
H1687 H 0.20831 0.58853 0.78238 0.0
H1688 H 0.22414 0.42477 0.79631 0.0
H1689 H 0.25466 0.44027 0.82076 0.0
H1690 H 0.20633 0.43034 0.74991 0.0
H1691 H 0.18062 0.45738 0.73001 0.0
C1692 C 0.47186 0.21764 0.77308 0.0
C1693 C 0.49838 0.20566 0.75476 0.0
C1694 C 0.53561 0.23467 0.79066 0.0
C1695 C 0.50914 0.25309 0.80269 0.0
N1696 N 0.45169 0.25964 0.80918 0.0
N1697 N 0.55587 0.19914 0.74833 0.0
C1698 C 0.47707 0.24345 0.79539 0.0
C1699 C 0.53044 0.21274 0.76459 0.0
N1700 N 0.44185 0.20447 0.76904 0.0
N1701 N 0.56554 0.23827 0.80404 0.0
H1702 H 0.55269 0.18112 0.73092 0.0
H1703 H 0.57981 0.20634 0.75135 0.0
H1704 H 0.56993 0.2543 0.823 0.0
H1705 H 0.58532 0.22369 0.79815 0.0
H1706 H 0.42202 0.21027 0.78348 0.0
H1707 H 0.43738 0.18574 0.75272 0.0
H1708 H 0.42775 0.25689 0.80193 0.0
H1709 H 0.45495 0.27672 0.8275 0.0
C1710 C 0.772 0.53869 0.7895 0.0
C1711 C 0.75413 0.51182 0.80118 0.0
C1712 C 0.79039 0.47515 0.77116 0.0
C1713 C 0.80198 0.50201 0.75329 0.0
N1714 N 0.80712 0.55976 0.74757 0.0
N1715 N 0.74854 0.45407 0.80647 0.0
C1716 C 0.79409 0.53396 0.76346 0.0
C1717 C 0.76436 0.47987 0.79333 0.0
N1718 N 0.76777 0.56858 0.8032 0.0
N1719 N 0.80406 0.44525 0.76677 0.0
H1720 H 0.73129 0.45689 0.82466 0.0
H1721 H 0.75173 0.43021 0.79875 0.0
H1722 H 0.82284 0.44107 0.75045 0.0
H1723 H 0.79859 0.42523 0.78092 0.0
H1724 H 0.78198 0.58861 0.79764 0.0
H1725 H 0.7516 0.57273 0.82209 0.0
H1726 H 0.79932 0.5836 0.75078 0.0
H1727 H 0.82526 0.55694 0.73026 0.0
loop_
_geom_bond_atom_site_label_1
_geom_bond_atom_site_label_2
_geom_bond_distance
_geom_bond_site_symmetry_2
_ccdc_geom_bond_type
Mn0 O5 2.095 . S
Mn0 O15 2.162 . S
Mn0 O16 2.297 . S
Mn0 O24 2.385 . S
Mn0 O25 2.209 . S
Mn0 O26 2.094 . S
Mn1 O6 2.121 . S
Mn1 N8 2.257 . S
Mn1 N17 2.282 . S
Mn1 O25 2.215 . S
Mn1 O27 2.117 . S
C2 O24 1.234 . S
C2 O25 1.283 . S
C3 O15 1.281 . S
C3 O16 1.236 . S
C4 O26 1.240 . S
C4 O27 1.264 . S
O5 Mn0 2.095 . S
O5 C14 1.250 . S
O6 Mn1 2.121 . S
O6 C14 1.258 . S
C7 N8 1.326 . S
C7 C11 1.460 . S
C7 H13 0.929 . S
N8 Mn1 2.257 . S
N8 C7 1.326 . S
N8 C12 1.362 . S
C9 C10 1.258 . S
C9 C12 1.431 . S
C9 C29 1.449 . S
C10 C9 1.258 . S
C10 C11 1.477 . S
C10 H30 0.931 . S
C11 C7 1.460 . S
C11 C10 1.477 . S
C11 H31 0.930 . S
C12 N8 1.362 . S
C12 C9 1.431 . S
C12 C22 1.476 . S
H13 C7 0.929 . S
C14 O5 1.250 . S
C14 O6 1.258 . S
O15 Mn0 2.162 . S
O15 C3 1.281 . S
O16 Mn0 2.297 . S
O16 C3 1.236 . S
N17 Mn1 2.282 . S
N17 C18 1.328 . S
N17 C22 1.318 . S
C18 N17 1.328 . S
C18 C19 1.457 . S
C18 H23 0.929 . S
C19 C18 1.457 . S
C19 C20 1.291 . S
C19 H32 0.931 . S
C20 C19 1.291 . S
C20 C21 1.373 . S
C20 H33 0.929 . S
C21 C20 1.373 . S
C21 C22 1.396 . S
C21 C28 1.403 . S
C22 C12 1.476 . S
C22 N17 1.318 . S
C22 C21 1.396 . S
H23 C18 0.929 . S
O24 Mn0 2.385 . S
O24 C2 1.234 . S
O25 Mn0 2.209 . S
O25 Mn1 2.215 . S
O25 C2 1.283 . S
O26 Mn0 2.094 . S
O26 C4 1.240 . S
O27 Mn1 2.117 . S
O27 C4 1.264 . S
C28 C21 1.403 . S
C28 C29 1.399 . S
C28 H34 0.929 . S
C29 C9 1.449 . S
C29 C28 1.399 . S
C29 H35 0.930 . S
H30 C10 0.931 . S
H31 C11 0.930 . S
H32 C19 0.931 . S
H33 C20 0.929 . S
H34 C28 0.929 . S
H35 C29 0.930 . S
Mn36 O41 2.095 . S
Mn36 O51 2.162 . S
Mn36 O52 2.297 . S
Mn36 O60 2.385 . S
Mn36 O61 2.209 . S
Mn36 O62 2.094 . S
Mn37 O42 2.121 . S
Mn37 N44 2.257 . S
Mn37 N53 2.282 . S
Mn37 O61 2.215 . S
Mn37 O63 2.117 . S
C38 O60 1.234 . S
C38 O61 1.283 . S
C39 O51 1.281 . S
C39 O52 1.236 . S
C40 O62 1.240 . S
C40 O63 1.264 . S
O41 Mn36 2.095 . S
O41 C50 1.250 . S
O42 Mn37 2.121 . S
O42 C50 1.258 . S
C43 N44 1.326 . S
C43 C47 1.460 . S
C43 H49 0.929 . S
N44 Mn37 2.257 . S
N44 C43 1.326 . S
N44 C48 1.362 . S
C45 C46 1.258 . S
C45 C48 1.431 . S
C45 C65 1.449 . S
C46 C45 1.258 . S
C46 C47 1.477 . S
C46 H66 0.931 . S
C47 C43 1.460 . S
C47 C46 1.477 . S
C47 H67 0.930 . S
C48 N44 1.362 . S
C48 C45 1.431 . S
C48 C58 1.476 . S
H49 C43 0.929 . S
C50 O41 1.250 . S
C50 O42 1.258 . S
O51 Mn36 2.162 . S
O51 C39 1.281 . S
O52 Mn36 2.297 . S
O52 C39 1.236 . S
N53 Mn37 2.282 . S
N53 C54 1.328 . S
N53 C58 1.318 . S
C54 N53 1.328 . S
C54 C55 1.457 . S
C54 H59 0.929 . S
C55 C54 1.457 . S
C55 C56 1.291 . S
C55 H68 0.931 . S
C56 C55 1.291 . S
C56 C57 1.373 . S
C56 H69 0.929 . S
C57 C56 1.373 . S
C57 C58 1.396 . S
C57 C64 1.403 . S
C58 C48 1.476 . S
C58 N53 1.318 . S
C58 C57 1.396 . S
H59 C54 0.929 . S
O60 Mn36 2.385 . S
O60 C38 1.234 . S
O61 Mn36 2.209 . S
O61 Mn37 2.215 . S
O61 C38 1.283 . S
O62 Mn36 2.094 . S
O62 C40 1.240 . S
O63 Mn37 2.117 . S
O63 C40 1.264 . S
C64 C57 1.403 . S
C64 C65 1.399 . S
C64 H70 0.929 . S
C65 C45 1.449 . S
C65 C64 1.399 . S
C65 H71 0.930 . S
H66 C46 0.931 . S
H67 C47 0.930 . S
H68 C55 0.931 . S
H69 C56 0.929 . S
H70 C64 0.929 . S
H71 C65 0.930 . S
Mn72 O77 2.095 . S
Mn72 O87 2.162 . S
Mn72 O88 2.297 . S
Mn72 O96 2.385 . S
Mn72 O97 2.209 . S
Mn72 O98 2.094 . S
Mn73 O78 2.121 . S
Mn73 N80 2.257 . S
Mn73 N89 2.282 . S
Mn73 O97 2.215 . S
Mn73 O99 2.117 . S
C74 O96 1.234 . S
C74 O97 1.283 . S
C75 O87 1.281 . S
C75 O88 1.236 . S
C76 O98 1.240 . S
C76 O99 1.264 . S
O77 Mn72 2.095 . S
O77 C86 1.250 . S
O78 Mn73 2.121 . S
O78 C86 1.258 . S
C79 N80 1.326 . S
C79 C83 1.460 . S
C79 H85 0.929 . S
N80 Mn73 2.257 . S
N80 C79 1.326 . S
N80 C84 1.362 . S
C81 C82 1.258 . S
C81 C84 1.431 . S
C81 C101 1.449 . S
C82 C81 1.258 . S
C82 C83 1.477 . S
C82 H102 0.931 . S
C83 C79 1.460 . S
C83 C82 1.477 . S
C83 H103 0.930 . S
C84 N80 1.362 . S
C84 C81 1.431 . S
C84 C94 1.476 . S
H85 C79 0.929 . S
C86 O77 1.250 . S
C86 O78 1.258 . S
O87 Mn72 2.162 . S
O87 C75 1.281 . S
O88 Mn72 2.297 . S
O88 C75 1.236 . S
N89 Mn73 2.282 . S
N89 C90 1.328 . S
N89 C94 1.318 . S
C90 N89 1.328 . S
C90 C91 1.457 . S
C90 H95 0.929 . S
C91 C90 1.457 . S
C91 C92 1.291 . S
C91 H104 0.931 . S
C92 C91 1.291 . S
C92 C93 1.373 . S
C92 H105 0.929 . S
C93 C92 1.373 . S
C93 C94 1.396 . S
C93 C100 1.403 . S
C94 C84 1.476 . S
C94 N89 1.318 . S
C94 C93 1.396 . S
H95 C90 0.929 . S
O96 Mn72 2.385 . S
O96 C74 1.234 . S
O97 Mn72 2.209 . S
O97 Mn73 2.215 . S
O97 C74 1.283 . S
O98 Mn72 2.094 . S
O98 C76 1.240 . S
O99 Mn73 2.117 . S
O99 C76 1.264 . S
C100 C93 1.403 . S
C100 C101 1.399 . S
C100 H106 0.929 . S
C101 C81 1.449 . S
C101 C100 1.399 . S
C101 H107 0.930 . S
H102 C82 0.931 . S
H103 C83 0.930 . S
H104 C91 0.931 . S
H105 C92 0.929 . S
H106 C100 0.929 . S
H107 C101 0.930 . S
Mn108 O113 2.095 . S
Mn108 O123 2.162 . S
Mn108 O124 2.297 . S
Mn108 O132 2.385 . S
Mn108 O133 2.209 . S
Mn108 O134 2.094 . S
Mn109 O114 2.121 . S
Mn109 N116 2.257 . S
Mn109 N125 2.282 . S
Mn109 O133 2.215 . S
Mn109 O135 2.117 . S
C110 O132 1.234 . S
C110 O133 1.283 . S
C111 O123 1.281 . S
C111 O124 1.236 . S
C112 O134 1.240 . S
C112 O135 1.264 . S
O113 Mn108 2.095 . S
O113 C122 1.250 . S
O114 Mn109 2.121 . S
O114 C122 1.258 . S
C115 N116 1.326 . S
C115 C119 1.460 . S
C115 H121 0.929 . S
N116 Mn109 2.257 . S
N116 C115 1.326 . S
N116 C120 1.362 . S
C117 C118 1.258 . S
C117 C120 1.431 . S
C117 C137 1.449 . S
C118 C117 1.258 . S
C118 C119 1.477 . S
C118 H138 0.931 . S
C119 C115 1.460 . S
C119 C118 1.477 . S
C119 H139 0.930 . S
C120 N116 1.362 . S
C120 C117 1.431 . S
C120 C130 1.476 . S
H121 C115 0.929 . S
C122 O113 1.250 . S
C122 O114 1.258 . S
O123 Mn108 2.162 . S
O123 C111 1.281 . S
O124 Mn108 2.297 . S
O124 C111 1.236 . S
N125 Mn109 2.282 . S
N125 C126 1.328 . S
N125 C130 1.318 . S
C126 N125 1.328 . S
C126 C127 1.457 . S
C126 H131 0.929 . S
C127 C126 1.457 . S
C127 C128 1.291 . S
C127 H140 0.931 . S
C128 C127 1.291 . S
C128 C129 1.373 . S
C128 H141 0.929 . S
C129 C128 1.373 . S
C129 C130 1.396 . S
C129 C136 1.403 . S
C130 C120 1.476 . S
C130 N125 1.318 . S
C130 C129 1.396 . S
H131 C126 0.929 . S
O132 Mn108 2.385 . S
O132 C110 1.234 . S
O133 Mn108 2.209 . S
O133 Mn109 2.215 . S
O133 C110 1.283 . S
O134 Mn108 2.094 . S
O134 C112 1.240 . S
O135 Mn109 2.117 . S
O135 C112 1.264 . S
C136 C129 1.403 . S
C136 C137 1.399 . S
C136 H142 0.929 . S
C137 C117 1.449 . S
C137 C136 1.399 . S
C137 H143 0.930 . S
H138 C118 0.931 . S
H139 C119 0.930 . S
H140 C127 0.931 . S
H141 C128 0.929 . S
H142 C136 0.929 . S
H143 C137 0.930 . S
Mn144 O149 2.095 . S
Mn144 O159 2.162 . S
Mn144 O160 2.297 . S
Mn144 O168 2.385 . S
Mn144 O169 2.209 . S
Mn144 O170 2.094 . S
Mn145 O150 2.121 . S
Mn145 N152 2.257 . S
Mn145 N161 2.282 . S
Mn145 O169 2.215 . S
Mn145 O171 2.117 . S
C146 O168 1.234 . S
C146 O169 1.283 . S
C147 O159 1.281 . S
C147 O160 1.236 . S
C148 O170 1.240 . S
C148 O171 1.264 . S
O149 Mn144 2.095 . S
O149 C158 1.250 . S
O150 Mn145 2.121 . S
O150 C158 1.258 . S
C151 N152 1.326 . S
C151 C155 1.460 . S
C151 H157 0.929 . S
N152 Mn145 2.257 . S
N152 C151 1.326 . S
N152 C156 1.362 . S
C153 C154 1.258 . S
C153 C156 1.431 . S
C153 C173 1.449 . S
C154 C153 1.258 . S
C154 C155 1.477 . S
C154 H174 0.931 . S
C155 C151 1.460 . S
C155 C154 1.477 . S
C155 H175 0.930 . S
C156 N152 1.362 . S
C156 C153 1.431 . S
C156 C166 1.476 . S
H157 C151 0.929 . S
C158 O149 1.250 . S
C158 O150 1.258 . S
O159 Mn144 2.162 . S
O159 C147 1.281 . S
O160 Mn144 2.297 . S
O160 C147 1.236 . S
N161 Mn145 2.282 . S
N161 C162 1.328 . S
N161 C166 1.318 . S
C162 N161 1.328 . S
C162 C163 1.457 . S
C162 H167 0.929 . S
C163 C162 1.457 . S
C163 C164 1.291 . S
C163 H176 0.931 . S
C164 C163 1.291 . S
C164 C165 1.373 . S
C164 H177 0.929 . S
C165 C164 1.373 . S
C165 C166 1.396 . S
C165 C172 1.403 . S
C166 C156 1.476 . S
C166 N161 1.318 . S
C166 C165 1.396 . S
H167 C162 0.929 . S
O168 Mn144 2.385 . S
O168 C146 1.234 . S
O169 Mn144 2.209 . S
O169 Mn145 2.215 . S
O169 C146 1.283 . S
O170 Mn144 2.094 . S
O170 C148 1.240 . S
O171 Mn145 2.117 . S
O171 C148 1.264 . S
C172 C165 1.403 . S
C172 C173 1.399 . S
C172 H178 0.929 . S
C173 C153 1.449 . S
C173 C172 1.399 . S
C173 H179 0.930 . S
H174 C154 0.931 . S
H175 C155 0.930 . S
H176 C163 0.931 . S
H177 C164 0.929 . S
H178 C172 0.929 . S
H179 C173 0.930 . S
Mn180 O185 2.095 . S
Mn180 O195 2.162 . S
Mn180 O196 2.297 . S
Mn180 O204 2.385 . S
Mn180 O205 2.209 . S
Mn180 O206 2.094 . S
Mn181 O186 2.121 . S
Mn181 N188 2.257 . S
Mn181 N197 2.282 . S
Mn181 O205 2.215 . S
Mn181 O207 2.117 . S
C182 O204 1.234 . S
C182 O205 1.283 . S
C183 O195 1.281 . S
C183 O196 1.236 . S
C184 O206 1.240 . S
C184 O207 1.264 . S
O185 Mn180 2.095 . S
O185 C194 1.250 . S
O186 Mn181 2.121 . S
O186 C194 1.258 . S
C187 N188 1.326 . S
C187 C191 1.460 . S
C187 H193 0.929 . S
N188 Mn181 2.257 . S
N188 C187 1.326 . S
N188 C192 1.362 . S
C189 C190 1.258 . S
C189 C192 1.431 . S
C189 C209 1.449 . S
C190 C189 1.258 . S
C190 C191 1.477 . S
C190 H210 0.931 . S
C191 C187 1.460 . S
C191 C190 1.477 . S
C191 H211 0.930 . S
C192 N188 1.362 . S
C192 C189 1.431 . S
C192 C202 1.476 . S
H193 C187 0.929 . S
C194 O185 1.250 . S
C194 O186 1.258 . S
O195 Mn180 2.162 . S
O195 C183 1.281 . S
O196 Mn180 2.297 . S
O196 C183 1.236 . S
N197 Mn181 2.282 . S
N197 C198 1.328 . S
N197 C202 1.318 . S
C198 N197 1.328 . S
C198 C199 1.457 . S
C198 H203 0.929 . S
C199 C198 1.457 . S
C199 C200 1.291 . S
C199 H212 0.931 . S
C200 C199 1.291 . S
C200 C201 1.373 . S
C200 H213 0.929 . S
C201 C200 1.373 . S
C201 C202 1.396 . S
C201 C208 1.403 . S
C202 C192 1.476 . S
C202 N197 1.318 . S
C202 C201 1.396 . S
H203 C198 0.929 . S
O204 Mn180 2.385 . S
O204 C182 1.234 . S
O205 Mn180 2.209 . S
O205 Mn181 2.215 . S
O205 C182 1.283 . S
O206 Mn180 2.094 . S
O206 C184 1.240 . S
O207 Mn181 2.117 . S
O207 C184 1.264 . S
C208 C201 1.403 . S
C208 C209 1.399 . S
C208 H214 0.929 . S
C209 C189 1.449 . S
C209 C208 1.399 . S
C209 H215 0.930 . S
H210 C190 0.931 . S
H211 C191 0.930 . S
H212 C199 0.931 . S
H213 C200 0.929 . S
H214 C208 0.929 . S
H215 C209 0.930 . S
Mn216 O221 2.095 . S
Mn216 O231 2.162 . S
Mn216 O232 2.297 . S
Mn216 O240 2.385 . S
Mn216 O241 2.209 . S
Mn216 O242 2.094 . S
Mn217 O222 2.121 . S
Mn217 N224 2.257 . S
Mn217 N233 2.282 . S
Mn217 O241 2.215 . S
Mn217 O243 2.117 . S
C218 O240 1.234 . S
C218 O241 1.283 . S
C219 O231 1.281 . S
C219 O232 1.236 . S
C220 O242 1.240 . S
C220 O243 1.264 . S
O221 Mn216 2.095 . S
O221 C230 1.250 . S
O222 Mn217 2.121 . S
O222 C230 1.258 . S
C223 N224 1.326 . S
C223 C227 1.460 . S
C223 H229 0.929 . S
N224 Mn217 2.257 . S
N224 C223 1.326 . S
N224 C228 1.362 . S
C225 C226 1.258 . S
C225 C228 1.431 . S
C225 C245 1.449 . S
C226 C225 1.258 . S
C226 C227 1.477 . S
C226 H246 0.931 . S
C227 C223 1.460 . S
C227 C226 1.477 . S
C227 H247 0.930 . S
C228 N224 1.362 . S
C228 C225 1.431 . S
C228 C238 1.476 . S
H229 C223 0.929 . S
C230 O221 1.250 . S
C230 O222 1.258 . S
O231 Mn216 2.162 . S
O231 C219 1.281 . S
O232 Mn216 2.297 . S
O232 C219 1.236 . S
N233 Mn217 2.282 . S
N233 C234 1.328 . S
N233 C238 1.318 . S
C234 N233 1.328 . S
C234 C235 1.457 . S
C234 H239 0.929 . S
C235 C234 1.457 . S
C235 C236 1.291 . S
C235 H248 0.931 . S
C236 C235 1.291 . S
C236 C237 1.373 . S
C236 H249 0.929 . S
C237 C236 1.373 . S
C237 C238 1.396 . S
C237 C244 1.403 . S
C238 C228 1.476 . S
C238 N233 1.318 . S
C238 C237 1.396 . S
H239 C234 0.929 . S
O240 Mn216 2.385 . S
O240 C218 1.234 . S
O241 Mn216 2.209 . S
O241 Mn217 2.215 . S
O241 C218 1.283 . S
O242 Mn216 2.094 . S
O242 C220 1.240 . S
O243 Mn217 2.117 . S
O243 C220 1.264 . S
C244 C237 1.403 . S
C244 C245 1.399 . S
C244 H250 0.929 . S
C245 C225 1.449 . S
C245 C244 1.399 . S
C245 H251 0.930 . S
H246 C226 0.931 . S
H247 C227 0.930 . S
H248 C235 0.931 . S
H249 C236 0.929 . S
H250 C244 0.929 . S
H251 C245 0.930 . S
Mn252 O257 2.095 . S
Mn252 O267 2.162 . S
Mn252 O268 2.297 . S
Mn252 O276 2.385 . S
Mn252 O277 2.209 . S
Mn252 O278 2.094 . S
Mn253 O258 2.121 . S
Mn253 N260 2.257 . S
Mn253 N269 2.282 . S
Mn253 O277 2.215 . S
Mn253 O279 2.117 . S
C254 O276 1.234 . S
C254 O277 1.283 . S
C255 O267 1.281 . S
C255 O268 1.236 . S
C256 O278 1.240 . S
C256 O279 1.264 . S
O257 Mn252 2.095 . S
O257 C266 1.250 . S
O258 Mn253 2.121 . S
O258 C266 1.258 . S
C259 N260 1.326 . S
C259 C263 1.460 . S
C259 H265 0.929 . S
N260 Mn253 2.257 . S
N260 C259 1.326 . S
N260 C264 1.362 . S
C261 C262 1.258 . S
C261 C264 1.431 . S
C261 C281 1.449 . S
C262 C261 1.258 . S
C262 C263 1.477 . S
C262 H282 0.931 . S
C263 C259 1.460 . S
C263 C262 1.477 . S
C263 H283 0.930 . S
C264 N260 1.362 . S
C264 C261 1.431 . S
C264 C274 1.476 . S
H265 C259 0.929 . S
C266 O257 1.250 . S
C266 O258 1.258 . S
O267 Mn252 2.162 . S
O267 C255 1.281 . S
O268 Mn252 2.297 . S
O268 C255 1.236 . S
N269 Mn253 2.282 . S
N269 C270 1.328 . S
N269 C274 1.318 . S
C270 N269 1.328 . S
C270 C271 1.457 . S
C270 H275 0.929 . S
C271 C270 1.457 . S
C271 C272 1.291 . S
C271 H284 0.931 . S
C272 C271 1.291 . S
C272 C273 1.373 . S
C272 H285 0.929 . S
C273 C272 1.373 . S
C273 C274 1.396 . S
C273 C280 1.403 . S
C274 C264 1.476 . S
C274 N269 1.318 . S
C274 C273 1.396 . S
H275 C270 0.929 . S
O276 Mn252 2.385 . S
O276 C254 1.234 . S
O277 Mn252 2.209 . S
O277 Mn253 2.215 . S
O277 C254 1.283 . S
O278 Mn252 2.094 . S
O278 C256 1.240 . S
O279 Mn253 2.117 . S
O279 C256 1.264 . S
C280 C273 1.403 . S
C280 C281 1.399 . S
C280 H286 0.929 . S
C281 C261 1.449 . S
C281 C280 1.399 . S
C281 H287 0.930 . S
H282 C262 0.931 . S
H283 C263 0.930 . S
H284 C271 0.931 . S
H285 C272 0.929 . S
H286 C280 0.929 . S
H287 C281 0.930 . S
Mn288 O293 2.095 . S
Mn288 O303 2.162 . S
Mn288 O304 2.297 . S
Mn288 O312 2.385 . S
Mn288 O313 2.209 . S
Mn288 O314 2.094 . S
Mn289 O294 2.121 . S
Mn289 N296 2.257 . S
Mn289 N305 2.282 . S
Mn289 O313 2.215 . S
Mn289 O315 2.117 . S
C290 O312 1.234 . S
C290 O313 1.283 . S
C291 O303 1.281 . S
C291 O304 1.236 . S
C292 O314 1.240 . S
C292 O315 1.264 . S
O293 Mn288 2.095 . S
O293 C302 1.250 . S
O294 Mn289 2.121 . S
O294 C302 1.258 . S
C295 N296 1.326 . S
C295 C299 1.460 . S
C295 H301 0.929 . S
N296 Mn289 2.257 . S
N296 C295 1.326 . S
N296 C300 1.362 . S
C297 C298 1.258 . S
C297 C300 1.431 . S
C297 C317 1.449 . S
C298 C297 1.258 . S
C298 C299 1.477 . S
C298 H318 0.931 . S
C299 C295 1.460 . S
C299 C298 1.477 . S
C299 H319 0.930 . S
C300 N296 1.362 . S
C300 C297 1.431 . S
C300 C310 1.476 . S
H301 C295 0.929 . S
C302 O293 1.250 . S
C302 O294 1.258 . S
O303 Mn288 2.162 . S
O303 C291 1.281 . S
O304 Mn288 2.297 . S
O304 C291 1.236 . S
N305 Mn289 2.282 . S
N305 C306 1.328 . S
N305 C310 1.318 . S
C306 N305 1.328 . S
C306 C307 1.457 . S
C306 H311 0.929 . S
C307 C306 1.457 . S
C307 C308 1.291 . S
C307 H320 0.931 . S
C308 C307 1.291 . S
C308 C309 1.373 . S
C308 H321 0.929 . S
C309 C308 1.373 . S
C309 C310 1.396 . S
C309 C316 1.403 . S
C310 C300 1.476 . S
C310 N305 1.318 . S
C310 C309 1.396 . S
H311 C306 0.929 . S
O312 Mn288 2.385 . S
O312 C290 1.234 . S
O313 Mn288 2.209 . S
O313 Mn289 2.215 . S
O313 C290 1.283 . S
O314 Mn288 2.094 . S
O314 C292 1.240 . S
O315 Mn289 2.117 . S
O315 C292 1.264 . S
C316 C309 1.403 . S
C316 C317 1.399 . S
C316 H322 0.929 . S
C317 C297 1.449 . S
C317 C316 1.399 . S
C317 H323 0.930 . S
H318 C298 0.931 . S
H319 C299 0.930 . S
H320 C307 0.931 . S
H321 C308 0.929 . S
H322 C316 0.929 . S
H323 C317 0.930 . S
Mn324 O329 2.095 . S
Mn324 O339 2.162 . S
Mn324 O340 2.297 . S
Mn324 O348 2.385 . S
Mn324 O349 2.209 . S
Mn324 O350 2.094 . S
Mn325 O330 2.121 . S
Mn325 N332 2.257 . S
Mn325 N341 2.282 . S
Mn325 O349 2.215 . S
Mn325 O351 2.117 . S
C326 O348 1.234 . S
C326 O349 1.283 . S
C327 O339 1.281 . S
C327 O340 1.236 . S
C328 O350 1.240 . S
C328 O351 1.264 . S
O329 Mn324 2.095 . S
O329 C338 1.250 . S
O330 Mn325 2.121 . S
O330 C338 1.258 . S
C331 N332 1.326 . S
C331 C335 1.460 . S
C331 H337 0.929 . S
N332 Mn325 2.257 . S
N332 C331 1.326 . S
N332 C336 1.362 . S
C333 C334 1.258 . S
C333 C336 1.431 . S
C333 C353 1.449 . S
C334 C333 1.258 . S
C334 C335 1.477 . S
C334 H354 0.931 . S
C335 C331 1.460 . S
C335 C334 1.477 . S
C335 H355 0.930 . S
C336 N332 1.362 . S
C336 C333 1.431 . S
C336 C346 1.476 . S
H337 C331 0.929 . S
C338 O329 1.250 . S
C338 O330 1.258 . S
O339 Mn324 2.162 . S
O339 C327 1.281 . S
O340 Mn324 2.297 . S
O340 C327 1.236 . S
N341 Mn325 2.282 . S
N341 C342 1.328 . S
N341 C346 1.318 . S
C342 N341 1.328 . S
C342 C343 1.457 . S
C342 H347 0.929 . S
C343 C342 1.457 . S
C343 C344 1.291 . S
C343 H356 0.931 . S
C344 C343 1.291 . S
C344 C345 1.373 . S
C344 H357 0.929 . S
C345 C344 1.373 . S
C345 C346 1.396 . S
C345 C352 1.403 . S
C346 C336 1.476 . S
C346 N341 1.318 . S
C346 C345 1.396 . S
H347 C342 0.929 . S
O348 Mn324 2.385 . S
O348 C326 1.234 . S
O349 Mn324 2.209 . S
O349 Mn325 2.215 . S
O349 C326 1.283 . S
O350 Mn324 2.094 . S
O350 C328 1.240 . S
O351 Mn325 2.117 . S
O351 C328 1.264 . S
C352 C345 1.403 . S
C352 C353 1.399 . S
C352 H358 0.929 . S
C353 C333 1.449 . S
C353 C352 1.399 . S
C353 H359 0.930 . S
H354 C334 0.931 . S
H355 C335 0.930 . S
H356 C343 0.931 . S
H357 C344 0.929 . S
H358 C352 0.929 . S
H359 C353 0.930 . S
Mn360 O365 2.095 . S
Mn360 O375 2.162 . S
Mn360 O376 2.297 . S
Mn360 O384 2.385 . S
Mn360 O385 2.209 . S
Mn360 O386 2.094 . S
Mn361 O366 2.121 . S
Mn361 N368 2.257 . S
Mn361 N377 2.282 . S
Mn361 O385 2.215 . S
Mn361 O387 2.117 . S
C362 O384 1.234 . S
C362 O385 1.283 . S
C363 O375 1.281 . S
C363 O376 1.236 . S
C364 O386 1.240 . S
C364 O387 1.264 . S
O365 Mn360 2.095 . S
O365 C374 1.250 . S
O366 Mn361 2.121 . S
O366 C374 1.258 . S
C367 N368 1.326 . S
C367 C371 1.460 . S
C367 H373 0.929 . S
N368 Mn361 2.257 . S
N368 C367 1.326 . S
N368 C372 1.362 . S
C369 C370 1.258 . S
C369 C372 1.431 . S
C369 C389 1.449 . S
C370 C369 1.258 . S
C370 C371 1.477 . S
C370 H390 0.931 . S
C371 C367 1.460 . S
C371 C370 1.477 . S
C371 H391 0.930 . S
C372 N368 1.362 . S
C372 C369 1.431 . S
C372 C382 1.476 . S
H373 C367 0.929 . S
C374 O365 1.250 . S
C374 O366 1.258 . S
O375 Mn360 2.162 . S
O375 C363 1.281 . S
O376 Mn360 2.297 . S
O376 C363 1.236 . S
N377 Mn361 2.282 . S
N377 C378 1.328 . S
N377 C382 1.318 . S
C378 N377 1.328 . S
C378 C379 1.457 . S
C378 H383 0.929 . S
C379 C378 1.457 . S
C379 C380 1.291 . S
C379 H392 0.931 . S
C380 C379 1.291 . S
C380 C381 1.373 . S
C380 H393 0.929 . S
C381 C380 1.373 . S
C381 C382 1.396 . S
C381 C388 1.403 . S
C382 C372 1.476 . S
C382 N377 1.318 . S
C382 C381 1.396 . S
H383 C378 0.929 . S
O384 Mn360 2.385 . S
O384 C362 1.234 . S
O385 Mn360 2.209 . S
O385 Mn361 2.215 . S
O385 C362 1.283 . S
O386 Mn360 2.094 . S
O386 C364 1.240 . S
O387 Mn361 2.117 . S
O387 C364 1.264 . S
C388 C381 1.403 . S
C388 C389 1.399 . S
C388 H394 0.929 . S
C389 C369 1.449 . S
C389 C388 1.399 . S
C389 H395 0.930 . S
H390 C370 0.931 . S
H391 C371 0.930 . S
H392 C379 0.931 . S
H393 C380 0.929 . S
H394 C388 0.929 . S
H395 C389 0.930 . S
Mn396 O401 2.095 . S
Mn396 O411 2.162 . S
Mn396 O412 2.297 . S
Mn396 O420 2.385 . S
Mn396 O421 2.209 . S
Mn396 O422 2.094 . S
Mn397 O402 2.121 . S
Mn397 N404 2.257 . S
Mn397 N413 2.282 . S
Mn397 O421 2.215 . S
Mn397 O423 2.117 . S
C398 O420 1.234 . S
C398 O421 1.283 . S
C399 O411 1.281 . S
C399 O412 1.236 . S
C400 O422 1.240 . S
C400 O423 1.264 . S
O401 Mn396 2.095 . S
O401 C410 1.250 . S
O402 Mn397 2.121 . S
O402 C410 1.258 . S
C403 N404 1.326 . S
C403 C407 1.460 . S
C403 H409 0.929 . S
N404 Mn397 2.257 . S
N404 C403 1.326 . S
N404 C408 1.362 . S
C405 C406 1.258 . S
C405 C408 1.431 . S
C405 C425 1.449 . S
C406 C405 1.258 . S
C406 C407 1.477 . S
C406 H426 0.931 . S
C407 C403 1.460 . S
C407 C406 1.477 . S
C407 H427 0.930 . S
C408 N404 1.362 . S
C408 C405 1.431 . S
C408 C418 1.476 . S
H409 C403 0.929 . S
C410 O401 1.250 . S
C410 O402 1.258 . S
O411 Mn396 2.162 . S
O411 C399 1.281 . S
O412 Mn396 2.297 . S
O412 C399 1.236 . S
N413 Mn397 2.282 . S
N413 C414 1.328 . S
N413 C418 1.318 . S
C414 N413 1.328 . S
C414 C415 1.457 . S
C414 H419 0.929 . S
C415 C414 1.457 . S
C415 C416 1.291 . S
C415 H428 0.931 . S
C416 C415 1.291 . S
C416 C417 1.373 . S
C416 H429 0.929 . S
C417 C416 1.373 . S
C417 C418 1.396 . S
C417 C424 1.403 . S
C418 C408 1.476 . S
C418 N413 1.318 . S
C418 C417 1.396 . S
H419 C414 0.929 . S
O420 Mn396 2.385 . S
O420 C398 1.234 . S
O421 Mn396 2.209 . S
O421 Mn397 2.215 . S
O421 C398 1.283 . S
O422 Mn396 2.094 . S
O422 C400 1.240 . S
O423 Mn397 2.117 . S
O423 C400 1.264 . S
C424 C417 1.403 . S
C424 C425 1.399 . S
C424 H430 0.929 . S
C425 C405 1.449 . S
C425 C424 1.399 . S
C425 H431 0.930 . S
H426 C406 0.931 . S
H427 C407 0.930 . S
H428 C415 0.931 . S
H429 C416 0.929 . S
H430 C424 0.929 . S
H431 C425 0.930 . S
Mn432 O437 2.095 . S
Mn432 O447 2.162 . S
Mn432 O448 2.297 . S
Mn432 O456 2.385 . S
Mn432 O457 2.209 . S
Mn432 O458 2.094 . S
Mn433 O438 2.121 . S
Mn433 N440 2.257 . S
Mn433 N449 2.282 . S
Mn433 O457 2.215 . S
Mn433 O459 2.117 . S
C434 O456 1.234 . S
C434 O457 1.283 . S
C435 O447 1.281 . S
C435 O448 1.236 . S
C436 O458 1.240 . S
C436 O459 1.264 . S
O437 Mn432 2.095 . S
O437 C446 1.250 . S
O438 Mn433 2.121 . S
O438 C446 1.258 . S
C439 N440 1.326 . S
C439 C443 1.460 . S
C439 H445 0.929 . S
N440 Mn433 2.257 . S
N440 C439 1.326 . S
N440 C444 1.362 . S
C441 C442 1.258 . S
C441 C444 1.431 . S
C441 C461 1.449 . S
C442 C441 1.258 . S
C442 C443 1.477 . S
C442 H462 0.931 . S
C443 C439 1.460 . S
C443 C442 1.477 . S
C443 H463 0.930 . S
C444 N440 1.362 . S
C444 C441 1.431 . S
C444 C454 1.476 . S
H445 C439 0.929 . S
C446 O437 1.250 . S
C446 O438 1.258 . S
O447 Mn432 2.162 . S
O447 C435 1.281 . S
O448 Mn432 2.297 . S
O448 C435 1.236 . S
N449 Mn433 2.282 . S
N449 C450 1.328 . S
N449 C454 1.318 . S
C450 N449 1.328 . S
C450 C451 1.457 . S
C450 H455 0.929 . S
C451 C450 1.457 . S
C451 C452 1.291 . S
C451 H464 0.931 . S
C452 C451 1.291 . S
C452 C453 1.373 . S
C452 H465 0.929 . S
C453 C452 1.373 . S
C453 C454 1.396 . S
C453 C460 1.403 . S
C454 C444 1.476 . S
C454 N449 1.318 . S
C454 C453 1.396 . S
H455 C450 0.929 . S
O456 Mn432 2.385 . S
O456 C434 1.234 . S
O457 Mn432 2.209 . S
O457 Mn433 2.215 . S
O457 C434 1.283 . S
O458 Mn432 2.094 . S
O458 C436 1.240 . S
O459 Mn433 2.117 . S
O459 C436 1.264 . S
C460 C453 1.403 . S
C460 C461 1.399 . S
C460 H466 0.929 . S
C461 C441 1.449 . S
C461 C460 1.399 . S
C461 H467 0.930 . S
H462 C442 0.931 . S
H463 C443 0.930 . S
H464 C451 0.931 . S
H465 C452 0.929 . S
H466 C460 0.929 . S
H467 C461 0.930 . S
Mn468 O473 2.095 . S
Mn468 O483 2.162 . S
Mn468 O484 2.297 . S
Mn468 O492 2.385 . S
Mn468 O493 2.209 . S
Mn468 O494 2.094 . S
Mn469 O474 2.121 . S
Mn469 N476 2.257 . S
Mn469 N485 2.282 . S
Mn469 O493 2.215 . S
Mn469 O495 2.117 . S
C470 O492 1.234 . S
C470 O493 1.283 . S
C471 O483 1.281 . S
C471 O484 1.236 . S
C472 O494 1.240 . S
C472 O495 1.264 . S
O473 Mn468 2.095 . S
O473 C482 1.250 . S
O474 Mn469 2.121 . S
O474 C482 1.258 . S
C475 N476 1.326 . S
C475 C479 1.460 . S
C475 H481 0.929 . S
N476 Mn469 2.257 . S
N476 C475 1.326 . S
N476 C480 1.362 . S
C477 C478 1.258 . S
C477 C480 1.431 . S
C477 C497 1.449 . S
C478 C477 1.258 . S
C478 C479 1.477 . S
C478 H498 0.931 . S
C479 C475 1.460 . S
C479 C478 1.477 . S
C479 H499 0.930 . S
C480 N476 1.362 . S
C480 C477 1.431 . S
C480 C490 1.476 . S
H481 C475 0.929 . S
C482 O473 1.250 . S
C482 O474 1.258 . S
O483 Mn468 2.162 . S
O483 C471 1.281 . S
O484 Mn468 2.297 . S
O484 C471 1.236 . S
N485 Mn469 2.282 . S
N485 C486 1.328 . S
N485 C490 1.318 . S
C486 N485 1.328 . S
C486 C487 1.457 . S
C486 H491 0.929 . S
C487 C486 1.457 . S
C487 C488 1.291 . S
C487 H500 0.931 . S
C488 C487 1.291 . S
C488 C489 1.373 . S
C488 H501 0.929 . S
C489 C488 1.373 . S
C489 C490 1.396 . S
C489 C496 1.403 . S
C490 C480 1.476 . S
C490 N485 1.318 . S
C490 C489 1.396 . S
H491 C486 0.929 . S
O492 Mn468 2.385 . S
O492 C470 1.234 . S
O493 Mn468 2.209 . S
O493 Mn469 2.215 . S
O493 C470 1.283 . S
O494 Mn468 2.094 . S
O494 C472 1.240 . S
O495 Mn469 2.117 . S
O495 C472 1.264 . S
C496 C489 1.403 . S
C496 C497 1.399 . S
C496 H502 0.929 . S
C497 C477 1.449 . S
C497 C496 1.399 . S
C497 H503 0.930 . S
H498 C478 0.931 . S
H499 C479 0.930 . S
H500 C487 0.931 . S
H501 C488 0.929 . S
H502 C496 0.929 . S
H503 C497 0.930 . S
Mn504 O509 2.095 . S
Mn504 O519 2.162 . S
Mn504 O520 2.297 . S
Mn504 O528 2.385 . S
Mn504 O529 2.209 . S
Mn504 O530 2.094 . S
Mn505 O510 2.121 . S
Mn505 N512 2.257 . S
Mn505 N521 2.282 . S
Mn505 O529 2.215 . S
Mn505 O531 2.117 . S
C506 O528 1.234 . S
C506 O529 1.283 . S
C507 O519 1.281 . S
C507 O520 1.236 . S
C508 O530 1.240 . S
C508 O531 1.264 . S
O509 Mn504 2.095 . S
O509 C518 1.250 . S
O510 Mn505 2.121 . S
O510 C518 1.258 . S
C511 N512 1.326 . S
C511 C515 1.460 . S
C511 H517 0.929 . S
N512 Mn505 2.257 . S
N512 C511 1.326 . S
N512 C516 1.362 . S
C513 C514 1.258 . S
C513 C516 1.431 . S
C513 C533 1.449 . S
C514 C513 1.258 . S
C514 C515 1.477 . S
C514 H534 0.931 . S
C515 C511 1.460 . S
C515 C514 1.477 . S
C515 H535 0.930 . S
C516 N512 1.362 . S
C516 C513 1.431 . S
C516 C526 1.476 . S
H517 C511 0.929 . S
C518 O509 1.250 . S
C518 O510 1.258 . S
O519 Mn504 2.162 . S
O519 C507 1.281 . S
O520 Mn504 2.297 . S
O520 C507 1.236 . S
N521 Mn505 2.282 . S
N521 C522 1.328 . S
N521 C526 1.318 . S
C522 N521 1.328 . S
C522 C523 1.457 . S
C522 H527 0.929 . S
C523 C522 1.457 . S
C523 C524 1.291 . S
C523 H536 0.931 . S
C524 C523 1.291 . S
C524 C525 1.373 . S
C524 H537 0.929 . S
C525 C524 1.373 . S
C525 C526 1.396 . S
C525 C532 1.403 . S
C526 C516 1.476 . S
C526 N521 1.318 . S
C526 C525 1.396 . S
H527 C522 0.929 . S
O528 Mn504 2.385 . S
O528 C506 1.234 . S
O529 Mn504 2.209 . S
O529 Mn505 2.215 . S
O529 C506 1.283 . S
O530 Mn504 2.094 . S
O530 C508 1.240 . S
O531 Mn505 2.117 . S
O531 C508 1.264 . S
C532 C525 1.403 . S
C532 C533 1.399 . S
C532 H538 0.929 . S
C533 C513 1.449 . S
C533 C532 1.399 . S
C533 H539 0.930 . S
H534 C514 0.931 . S
H535 C515 0.930 . S
H536 C523 0.931 . S
H537 C524 0.929 . S
H538 C532 0.929 . S
H539 C533 0.930 . S
Mn540 O545 2.095 . S
Mn540 O555 2.162 . S
Mn540 O556 2.297 . S
Mn540 O564 2.385 . S
Mn540 O565 2.209 . S
Mn540 O566 2.094 . S
Mn541 O546 2.121 . S
Mn541 N548 2.257 . S
Mn541 N557 2.282 . S
Mn541 O565 2.215 . S
Mn541 O567 2.117 . S
C542 O564 1.234 . S
C542 O565 1.283 . S
C543 O555 1.281 . S
C543 O556 1.236 . S
C544 O566 1.240 . S
C544 O567 1.264 . S
O545 Mn540 2.095 . S
O545 C554 1.250 . S
O546 Mn541 2.121 . S
O546 C554 1.258 . S
C547 N548 1.326 . S
C547 C551 1.460 . S
C547 H553 0.929 . S
N548 Mn541 2.257 . S
N548 C547 1.326 . S
N548 C552 1.362 . S
C549 C550 1.258 . S
C549 C552 1.431 . S
C549 C569 1.449 . S
C550 C549 1.258 . S
C550 C551 1.477 . S
C550 H570 0.931 . S
C551 C547 1.460 . S
C551 C550 1.477 . S
C551 H571 0.930 . S
C552 N548 1.362 . S
C552 C549 1.431 . S
C552 C562 1.476 . S
H553 C547 0.929 . S
C554 O545 1.250 . S
C554 O546 1.258 . S
O555 Mn540 2.162 . S
O555 C543 1.281 . S
O556 Mn540 2.297 . S
O556 C543 1.236 . S
N557 Mn541 2.282 . S
N557 C558 1.328 . S
N557 C562 1.318 . S
C558 N557 1.328 . S
C558 C559 1.457 . S
C558 H563 0.929 . S
C559 C558 1.457 . S
C559 C560 1.291 . S
C559 H572 0.931 . S
C560 C559 1.291 . S
C560 C561 1.373 . S
C560 H573 0.929 . S
C561 C560 1.373 . S
C561 C562 1.396 . S
C561 C568 1.403 . S
C562 C552 1.476 . S
C562 N557 1.318 . S
C562 C561 1.396 . S
H563 C558 0.929 . S
O564 Mn540 2.385 . S
O564 C542 1.234 . S
O565 Mn540 2.209 . S
O565 Mn541 2.215 . S
O565 C542 1.283 . S
O566 Mn540 2.094 . S
O566 C544 1.240 . S
O567 Mn541 2.117 . S
O567 C544 1.264 . S
C568 C561 1.403 . S
C568 C569 1.399 . S
C568 H574 0.929 . S
C569 C549 1.449 . S
C569 C568 1.399 . S
C569 H575 0.930 . S
H570 C550 0.931 . S
H571 C551 0.930 . S
H572 C559 0.931 . S
H573 C560 0.929 . S
H574 C568 0.929 . S
H575 C569 0.930 . S
Mn576 O581 2.095 . S
Mn576 O591 2.162 . S
Mn576 O592 2.297 . S
Mn576 O600 2.385 . S
Mn576 O601 2.209 . S
Mn576 O602 2.094 . S
Mn577 O582 2.121 . S
Mn577 N584 2.257 . S
Mn577 N593 2.282 . S
Mn577 O601 2.215 . S
Mn577 O603 2.117 . S
C578 O600 1.234 . S
C578 O601 1.283 . S
C579 O591 1.281 . S
C579 O592 1.236 . S
C580 O602 1.240 . S
C580 O603 1.264 . S
O581 Mn576 2.095 . S
O581 C590 1.250 . S
O582 Mn577 2.121 . S
O582 C590 1.258 . S
C583 N584 1.326 . S
C583 C587 1.460 . S
C583 H589 0.929 . S
N584 Mn577 2.257 . S
N584 C583 1.326 . S
N584 C588 1.362 . S
C585 C586 1.258 . S
C585 C588 1.431 . S
C585 C605 1.449 . S
C586 C585 1.258 . S
C586 C587 1.477 . S
C586 H606 0.931 . S
C587 C583 1.460 . S
C587 C586 1.477 . S
C587 H607 0.930 . S
C588 N584 1.362 . S
C588 C585 1.431 . S
C588 C598 1.476 . S
H589 C583 0.929 . S
C590 O581 1.250 . S
C590 O582 1.258 . S
O591 Mn576 2.162 . S
O591 C579 1.281 . S
O592 Mn576 2.297 . S
O592 C579 1.236 . S
N593 Mn577 2.282 . S
N593 C594 1.328 . S
N593 C598 1.318 . S
C594 N593 1.328 . S
C594 C595 1.457 . S
C594 H599 0.929 . S
C595 C594 1.457 . S
C595 C596 1.291 . S
C595 H608 0.931 . S
C596 C595 1.291 . S
C596 C597 1.373 . S
C596 H609 0.929 . S
C597 C596 1.373 . S
C597 C598 1.396 . S
C597 C604 1.403 . S
C598 C588 1.476 . S
C598 N593 1.318 . S
C598 C597 1.396 . S
H599 C594 0.929 . S
O600 Mn576 2.385 . S
O600 C578 1.234 . S
O601 Mn576 2.209 . S
O601 Mn577 2.215 . S
O601 C578 1.283 . S
O602 Mn576 2.094 . S
O602 C580 1.240 . S
O603 Mn577 2.117 . S
O603 C580 1.264 . S
C604 C597 1.403 . S
C604 C605 1.399 . S
C604 H610 0.929 . S
C605 C585 1.449 . S
C605 C604 1.399 . S
C605 H611 0.930 . S
H606 C586 0.931 . S
H607 C587 0.930 . S
H608 C595 0.931 . S
H609 C596 0.929 . S
H610 C604 0.929 . S
H611 C605 0.930 . S
Mn612 O617 2.095 . S
Mn612 O627 2.162 . S
Mn612 O628 2.297 . S
Mn612 O636 2.385 . S
Mn612 O637 2.209 . S
Mn612 O638 2.094 . S
Mn613 O618 2.121 . S
Mn613 N620 2.257 . S
Mn613 N629 2.282 . S
Mn613 O637 2.215 . S
Mn613 O639 2.117 . S
C614 O636 1.234 . S
C614 O637 1.283 . S
C615 O627 1.281 . S
C615 O628 1.236 . S
C616 O638 1.240 . S
C616 O639 1.264 . S
O617 Mn612 2.095 . S
O617 C626 1.250 . S
O618 Mn613 2.121 . S
O618 C626 1.258 . S
C619 N620 1.326 . S
C619 C623 1.460 . S
C619 H625 0.929 . S
N620 Mn613 2.257 . S
N620 C619 1.326 . S
N620 C624 1.362 . S
C621 C622 1.258 . S
C621 C624 1.431 . S
C621 C641 1.449 . S
C622 C621 1.258 . S
C622 C623 1.477 . S
C622 H642 0.931 . S
C623 C619 1.460 . S
C623 C622 1.477 . S
C623 H643 0.930 . S
C624 N620 1.362 . S
C624 C621 1.431 . S
C624 C634 1.476 . S
H625 C619 0.929 . S
C626 O617 1.250 . S
C626 O618 1.258 . S
O627 Mn612 2.162 . S
O627 C615 1.281 . S
O628 Mn612 2.297 . S
O628 C615 1.236 . S
N629 Mn613 2.282 . S
N629 C630 1.328 . S
N629 C634 1.318 . S
C630 N629 1.328 . S
C630 C631 1.457 . S
C630 H635 0.929 . S
C631 C630 1.457 . S
C631 C632 1.291 . S
C631 H644 0.931 . S
C632 C631 1.291 . S
C632 C633 1.373 . S
C632 H645 0.929 . S
C633 C632 1.373 . S
C633 C634 1.396 . S
C633 C640 1.403 . S
C634 C624 1.476 . S
C634 N629 1.318 . S
C634 C633 1.396 . S
H635 C630 0.929 . S
O636 Mn612 2.385 . S
O636 C614 1.234 . S
O637 Mn612 2.209 . S
O637 Mn613 2.215 . S
O637 C614 1.283 . S
O638 Mn612 2.094 . S
O638 C616 1.240 . S
O639 Mn613 2.117 . S
O639 C616 1.264 . S
C640 C633 1.403 . S
C640 C641 1.399 . S
C640 H646 0.929 . S
C641 C621 1.449 . S
C641 C640 1.399 . S
C641 H647 0.930 . S
H642 C622 0.931 . S
H643 C623 0.930 . S
H644 C631 0.931 . S
H645 C632 0.929 . S
H646 C640 0.929 . S
H647 C641 0.930 . S
Mn648 O653 2.095 . S
Mn648 O663 2.162 . S
Mn648 O664 2.297 . S
Mn648 O672 2.385 . S
Mn648 O673 2.209 . S
Mn648 O674 2.094 . S
Mn649 O654 2.121 . S
Mn649 N656 2.257 . S
Mn649 N665 2.282 . S
Mn649 O673 2.215 . S
Mn649 O675 2.117 . S
C650 O672 1.234 . S
C650 O673 1.283 . S
C651 O663 1.281 . S
C651 O664 1.236 . S
C652 O674 1.240 . S
C652 O675 1.264 . S
O653 Mn648 2.095 . S
O653 C662 1.250 . S
O654 Mn649 2.121 . S
O654 C662 1.258 . S
C655 N656 1.326 . S
C655 C659 1.460 . S
C655 H661 0.929 . S
N656 Mn649 2.257 . S
N656 C655 1.326 . S
N656 C660 1.362 . S
C657 C658 1.258 . S
C657 C660 1.431 . S
C657 C677 1.449 . S
C658 C657 1.258 . S
C658 C659 1.477 . S
C658 H678 0.931 . S
C659 C655 1.460 . S
C659 C658 1.477 . S
C659 H679 0.930 . S
C660 N656 1.362 . S
C660 C657 1.431 . S
C660 C670 1.476 . S
H661 C655 0.929 . S
C662 O653 1.250 . S
C662 O654 1.258 . S
O663 Mn648 2.162 . S
O663 C651 1.281 . S
O664 Mn648 2.297 . S
O664 C651 1.236 . S
N665 Mn649 2.282 . S
N665 C666 1.328 . S
N665 C670 1.318 . S
C666 N665 1.328 . S
C666 C667 1.457 . S
C666 H671 0.929 . S
C667 C666 1.457 . S
C667 C668 1.291 . S
C667 H680 0.931 . S
C668 C667 1.291 . S
C668 C669 1.373 . S
C668 H681 0.929 . S
C669 C668 1.373 . S
C669 C670 1.396 . S
C669 C676 1.403 . S
C670 C660 1.476 . S
C670 N665 1.318 . S
C670 C669 1.396 . S
H671 C666 0.929 . S
O672 Mn648 2.385 . S
O672 C650 1.234 . S
O673 Mn648 2.209 . S
O673 Mn649 2.215 . S
O673 C650 1.283 . S
O674 Mn648 2.094 . S
O674 C652 1.240 . S
O675 Mn649 2.117 . S
O675 C652 1.264 . S
C676 C669 1.403 . S
C676 C677 1.399 . S
C676 H682 0.929 . S
C677 C657 1.449 . S
C677 C676 1.399 . S
C677 H683 0.930 . S
H678 C658 0.931 . S
H679 C659 0.930 . S
H680 C667 0.931 . S
H681 C668 0.929 . S
H682 C676 0.929 . S
H683 C677 0.930 . S
Mn684 O689 2.095 . S
Mn684 O699 2.162 . S
Mn684 O700 2.297 . S
Mn684 O708 2.385 . S
Mn684 O709 2.209 . S
Mn684 O710 2.094 . S
Mn685 O690 2.121 . S
Mn685 N692 2.257 . S
Mn685 N701 2.282 . S
Mn685 O709 2.215 . S
Mn685 O711 2.117 . S
C686 O708 1.234 . S
C686 O709 1.283 . S
C687 O699 1.281 . S
C687 O700 1.236 . S
C688 O710 1.240 . S
C688 O711 1.264 . S
O689 Mn684 2.095 . S
O689 C698 1.250 . S
O690 Mn685 2.121 . S
O690 C698 1.258 . S
C691 N692 1.326 . S
C691 C695 1.460 . S
C691 H697 0.929 . S
N692 Mn685 2.257 . S
N692 C691 1.326 . S
N692 C696 1.362 . S
C693 C694 1.258 . S
C693 C696 1.431 . S
C693 C713 1.449 . S
C694 C693 1.258 . S
C694 C695 1.477 . S
C694 H714 0.931 . S
C695 C691 1.460 . S
C695 C694 1.477 . S
C695 H715 0.930 . S
C696 N692 1.362 . S
C696 C693 1.431 . S
C696 C706 1.476 . S
H697 C691 0.929 . S
C698 O689 1.250 . S
C698 O690 1.258 . S
O699 Mn684 2.162 . S
O699 C687 1.281 . S
O700 Mn684 2.297 . S
O700 C687 1.236 . S
N701 Mn685 2.282 . S
N701 C702 1.328 . S
N701 C706 1.318 . S
C702 N701 1.328 . S
C702 C703 1.457 . S
C702 H707 0.929 . S
C703 C702 1.457 . S
C703 C704 1.291 . S
C703 H716 0.931 . S
C704 C703 1.291 . S
C704 C705 1.373 . S
C704 H717 0.929 . S
C705 C704 1.373 . S
C705 C706 1.396 . S
C705 C712 1.403 . S
C706 C696 1.476 . S
C706 N701 1.318 . S
C706 C705 1.396 . S
H707 C702 0.929 . S
O708 Mn684 2.385 . S
O708 C686 1.234 . S
O709 Mn684 2.209 . S
O709 Mn685 2.215 . S
O709 C686 1.283 . S
O710 Mn684 2.094 . S
O710 C688 1.240 . S
O711 Mn685 2.117 . S
O711 C688 1.264 . S
C712 C705 1.403 . S
C712 C713 1.399 . S
C712 H718 0.929 . S
C713 C693 1.449 . S
C713 C712 1.399 . S
C713 H719 0.930 . S
H714 C694 0.931 . S
H715 C695 0.930 . S
H716 C703 0.931 . S
H717 C704 0.929 . S
H718 C712 0.929 . S
H719 C713 0.930 . S
Mn720 O725 2.095 . S
Mn720 O735 2.162 . S
Mn720 O736 2.297 . S
Mn720 O744 2.385 . S
Mn720 O745 2.209 . S
Mn720 O746 2.094 . S
Mn721 O726 2.121 . S
Mn721 N728 2.257 . S
Mn721 N737 2.282 . S
Mn721 O745 2.215 . S
Mn721 O747 2.117 . S
C722 O744 1.234 . S
C722 O745 1.283 . S
C723 O735 1.281 . S
C723 O736 1.236 . S
C724 O746 1.240 . S
C724 O747 1.264 . S
O725 Mn720 2.095 . S
O725 C734 1.250 . S
O726 Mn721 2.121 . S
O726 C734 1.258 . S
C727 N728 1.326 . S
C727 C731 1.460 . S
C727 H733 0.929 . S
N728 Mn721 2.257 . S
N728 C727 1.326 . S
N728 C732 1.362 . S
C729 C730 1.258 . S
C729 C732 1.431 . S
C729 C749 1.449 . S
C730 C729 1.258 . S
C730 C731 1.477 . S
C730 H750 0.931 . S
C731 C727 1.460 . S
C731 C730 1.477 . S
C731 H751 0.930 . S
C732 N728 1.362 . S
C732 C729 1.431 . S
C732 C742 1.476 . S
H733 C727 0.929 . S
C734 O725 1.250 . S
C734 O726 1.258 . S
O735 Mn720 2.162 . S
O735 C723 1.281 . S
O736 Mn720 2.297 . S
O736 C723 1.236 . S
N737 Mn721 2.282 . S
N737 C738 1.328 . S
N737 C742 1.318 . S
C738 N737 1.328 . S
C738 C739 1.457 . S
C738 H743 0.929 . S
C739 C738 1.457 . S
C739 C740 1.291 . S
C739 H752 0.931 . S
C740 C739 1.291 . S
C740 C741 1.373 . S
C740 H753 0.929 . S
C741 C740 1.373 . S
C741 C742 1.396 . S
C741 C748 1.403 . S
C742 C732 1.476 . S
C742 N737 1.318 . S
C742 C741 1.396 . S
H743 C738 0.929 . S
O744 Mn720 2.385 . S
O744 C722 1.234 . S
O745 Mn720 2.209 . S
O745 Mn721 2.215 . S
O745 C722 1.283 . S
O746 Mn720 2.094 . S
O746 C724 1.240 . S
O747 Mn721 2.117 . S
O747 C724 1.264 . S
C748 C741 1.403 . S
C748 C749 1.399 . S
C748 H754 0.929 . S
C749 C729 1.449 . S
C749 C748 1.399 . S
C749 H755 0.930 . S
H750 C730 0.931 . S
H751 C731 0.930 . S
H752 C739 0.931 . S
H753 C740 0.929 . S
H754 C748 0.929 . S
H755 C749 0.930 . S
Mn756 O761 2.095 . S
Mn756 O771 2.162 . S
Mn756 O772 2.297 . S
Mn756 O780 2.385 . S
Mn756 O781 2.209 . S
Mn756 O782 2.094 . S
Mn757 O762 2.121 . S
Mn757 N764 2.257 . S
Mn757 N773 2.282 . S
Mn757 O781 2.215 . S
Mn757 O783 2.117 . S
C758 O780 1.234 . S
C758 O781 1.283 . S
C759 O771 1.281 . S
C759 O772 1.236 . S
C760 O782 1.240 . S
C760 O783 1.264 . S
O761 Mn756 2.095 . S
O761 C770 1.250 . S
O762 Mn757 2.121 . S
O762 C770 1.258 . S
C763 N764 1.326 . S
C763 C767 1.460 . S
C763 H769 0.929 . S
N764 Mn757 2.257 . S
N764 C763 1.326 . S
N764 C768 1.362 . S
C765 C766 1.258 . S
C765 C768 1.431 . S
C765 C785 1.449 . S
C766 C765 1.258 . S
C766 C767 1.477 . S
C766 H786 0.931 . S
C767 C763 1.460 . S
C767 C766 1.477 . S
C767 H787 0.930 . S
C768 N764 1.362 . S
C768 C765 1.431 . S
C768 C778 1.476 . S
H769 C763 0.929 . S
C770 O761 1.250 . S
C770 O762 1.258 . S
O771 Mn756 2.162 . S
O771 C759 1.281 . S
O772 Mn756 2.297 . S
O772 C759 1.236 . S
N773 Mn757 2.282 . S
N773 C774 1.328 . S
N773 C778 1.318 . S
C774 N773 1.328 . S
C774 C775 1.457 . S
C774 H779 0.929 . S
C775 C774 1.457 . S
C775 C776 1.291 . S
C775 H788 0.931 . S
C776 C775 1.291 . S
C776 C777 1.373 . S
C776 H789 0.929 . S
C777 C776 1.373 . S
C777 C778 1.396 . S
C777 C784 1.403 . S
C778 C768 1.476 . S
C778 N773 1.318 . S
C778 C777 1.396 . S
H779 C774 0.929 . S
O780 Mn756 2.385 . S
O780 C758 1.234 . S
O781 Mn756 2.209 . S
O781 Mn757 2.215 . S
O781 C758 1.283 . S
O782 Mn756 2.094 . S
O782 C760 1.240 . S
O783 Mn757 2.117 . S
O783 C760 1.264 . S
C784 C777 1.403 . S
C784 C785 1.399 . S
C784 H790 0.929 . S
C785 C765 1.449 . S
C785 C784 1.399 . S
C785 H791 0.930 . S
H786 C766 0.931 . S
H787 C767 0.930 . S
H788 C775 0.931 . S
H789 C776 0.929 . S
H790 C784 0.929 . S
H791 C785 0.930 . S
Mn792 O797 2.095 . S
Mn792 O807 2.162 . S
Mn792 O808 2.297 . S
Mn792 O816 2.385 . S
Mn792 O817 2.209 . S
Mn792 O818 2.094 . S
Mn793 O798 2.121 . S
Mn793 N800 2.257 . S
Mn793 N809 2.282 . S
Mn793 O817 2.215 . S
Mn793 O819 2.117 . S
C794 O816 1.234 . S
C794 O817 1.283 . S
C795 O807 1.281 . S
C795 O808 1.236 . S
C796 O818 1.240 . S
C796 O819 1.264 . S
O797 Mn792 2.095 . S
O797 C806 1.250 . S
O798 Mn793 2.121 . S
O798 C806 1.258 . S
C799 N800 1.326 . S
C799 C803 1.460 . S
C799 H805 0.929 . S
N800 Mn793 2.257 . S
N800 C799 1.326 . S
N800 C804 1.362 . S
C801 C802 1.258 . S
C801 C804 1.431 . S
C801 C821 1.449 . S
C802 C801 1.258 . S
C802 C803 1.477 . S
C802 H822 0.931 . S
C803 C799 1.460 . S
C803 C802 1.477 . S
C803 H823 0.930 . S
C804 N800 1.362 . S
C804 C801 1.431 . S
C804 C814 1.476 . S
H805 C799 0.929 . S
C806 O797 1.250 . S
C806 O798 1.258 . S
O807 Mn792 2.162 . S
O807 C795 1.281 . S
O808 Mn792 2.297 . S
O808 C795 1.236 . S
N809 Mn793 2.282 . S
N809 C810 1.328 . S
N809 C814 1.318 . S
C810 N809 1.328 . S
C810 C811 1.457 . S
C810 H815 0.929 . S
C811 C810 1.457 . S
C811 C812 1.291 . S
C811 H824 0.931 . S
C812 C811 1.291 . S
C812 C813 1.373 . S
C812 H825 0.929 . S
C813 C812 1.373 . S
C813 C814 1.396 . S
C813 C820 1.403 . S
C814 C804 1.476 . S
C814 N809 1.318 . S
C814 C813 1.396 . S
H815 C810 0.929 . S
O816 Mn792 2.385 . S
O816 C794 1.234 . S
O817 Mn792 2.209 . S
O817 Mn793 2.215 . S
O817 C794 1.283 . S
O818 Mn792 2.094 . S
O818 C796 1.240 . S
O819 Mn793 2.117 . S
O819 C796 1.264 . S
C820 C813 1.403 . S
C820 C821 1.399 . S
C820 H826 0.929 . S
C821 C801 1.449 . S
C821 C820 1.399 . S
C821 H827 0.930 . S
H822 C802 0.931 . S
H823 C803 0.930 . S
H824 C811 0.931 . S
H825 C812 0.929 . S
H826 C820 0.929 . S
H827 C821 0.930 . S
Mn828 O833 2.095 . S
Mn828 O843 2.162 . S
Mn828 O844 2.297 . S
Mn828 O852 2.385 . S
Mn828 O853 2.209 . S
Mn828 O854 2.094 . S
Mn829 O834 2.121 . S
Mn829 N836 2.257 . S
Mn829 N845 2.282 . S
Mn829 O853 2.215 . S
Mn829 O855 2.117 . S
C830 O852 1.234 . S
C830 O853 1.283 . S
C831 O843 1.281 . S
C831 O844 1.236 . S
C832 O854 1.240 . S
C832 O855 1.264 . S
O833 Mn828 2.095 . S
O833 C842 1.250 . S
O834 Mn829 2.121 . S
O834 C842 1.258 . S
C835 N836 1.326 . S
C835 C839 1.460 . S
C835 H841 0.929 . S
N836 Mn829 2.257 . S
N836 C835 1.326 . S
N836 C840 1.362 . S
C837 C838 1.258 . S
C837 C840 1.431 . S
C837 C857 1.449 . S
C838 C837 1.258 . S
C838 C839 1.477 . S
C838 H858 0.931 . S
C839 C835 1.460 . S
C839 C838 1.477 . S
C839 H859 0.930 . S
C840 N836 1.362 . S
C840 C837 1.431 . S
C840 C850 1.476 . S
H841 C835 0.929 . S
C842 O833 1.250 . S
C842 O834 1.258 . S
O843 Mn828 2.162 . S
O843 C831 1.281 . S
O844 Mn828 2.297 . S
O844 C831 1.236 . S
N845 Mn829 2.282 . S
N845 C846 1.328 . S
N845 C850 1.318 . S
C846 N845 1.328 . S
C846 C847 1.457 . S
C846 H851 0.929 . S
C847 C846 1.457 . S
C847 C848 1.291 . S
C847 H860 0.931 . S
C848 C847 1.291 . S
C848 C849 1.373 . S
C848 H861 0.929 . S
C849 C848 1.373 . S
C849 C850 1.396 . S
C849 C856 1.403 . S
C850 C840 1.476 . S
C850 N845 1.318 . S
C850 C849 1.396 . S
H851 C846 0.929 . S
O852 Mn828 2.385 . S
O852 C830 1.234 . S
O853 Mn828 2.209 . S
O853 Mn829 2.215 . S
O853 C830 1.283 . S
O854 Mn828 2.094 . S
O854 C832 1.240 . S
O855 Mn829 2.117 . S
O855 C832 1.264 . S
C856 C849 1.403 . S
C856 C857 1.399 . S
C856 H862 0.929 . S
C857 C837 1.449 . S
C857 C856 1.399 . S
C857 H863 0.930 . S
H858 C838 0.931 . S
H859 C839 0.930 . S
H860 C847 0.931 . S
H861 C848 0.929 . S
H862 C856 0.929 . S
H863 C857 0.930 . S
C864 C865 1.363 . S
C864 C870 1.379 . S
C864 N872 1.356 . S
C865 C864 1.363 . S
C865 C871 1.363 . S
C866 C867 1.363 . S
C866 C871 1.379 . S
C866 N873 1.356 . S
C867 C866 1.363 . S
C867 C870 1.363 . S
N868 C870 1.356 . S
N868 H880 0.984 . S
N868 H881 0.985 . S
N869 C871 1.356 . S
N869 H874 0.984 . S
N869 H875 0.985 . S
C870 C864 1.379 . S
C870 C867 1.363 . S
C870 N868 1.356 . S
C871 C865 1.363 . S
C871 C866 1.379 . S
C871 N869 1.356 . S
N872 C864 1.356 . S
N872 H878 0.984 . S
N872 H879 0.984 . S
N873 C866 1.356 . S
N873 H876 0.984 . S
N873 H877 0.985 . S
H874 N869 0.984 . S
H875 N869 0.985 . S
H876 N873 0.984 . S
H877 N873 0.985 . S
H878 N872 0.984 . S
H879 N872 0.984 . S
H880 N868 0.984 . S
H881 N868 0.985 . S
C882 C883 1.363 . S
C882 C888 1.379 . S
C882 N890 1.356 . S
C883 C882 1.363 . S
C883 C889 1.363 . S
C884 C885 1.363 . S
C884 C889 1.379 . S
C884 N891 1.356 . S
C885 C884 1.363 . S
C885 C888 1.363 . S
N886 C888 1.356 . S
N886 H898 0.984 . S
N886 H899 0.985 . S
N887 C889 1.356 . S
N887 H892 0.984 . S
N887 H893 0.985 . S
C888 C882 1.379 . S
C888 C885 1.363 . S
C888 N886 1.356 . S
C889 C883 1.363 . S
C889 C884 1.379 . S
C889 N887 1.356 . S
N890 C882 1.356 . S
N890 H896 0.984 . S
N890 H897 0.984 . S
N891 C884 1.356 . S
N891 H894 0.984 . S
N891 H895 0.985 . S
H892 N887 0.984 . S
H893 N887 0.985 . S
H894 N891 0.984 . S
H895 N891 0.985 . S
H896 N890 0.984 . S
H897 N890 0.984 . S
H898 N886 0.984 . S
H899 N886 0.985 . S
C900 C901 1.363 . S
C900 C906 1.379 . S
C900 N908 1.356 . S
C901 C900 1.363 . S
C901 C907 1.363 . S
C902 C903 1.363 . S
C902 C907 1.379 . S
C902 N909 1.356 . S
C903 C902 1.363 . S
C903 C906 1.363 . S
N904 C906 1.356 . S
N904 H916 0.984 . S
N904 H917 0.985 . S
N905 C907 1.356 . S
N905 H910 0.984 . S
N905 H911 0.985 . S
C906 C900 1.379 . S
C906 C903 1.363 . S
C906 N904 1.356 . S
C907 C901 1.363 . S
C907 C902 1.379 . S
C907 N905 1.356 . S
N908 C900 1.356 . S
N908 H914 0.984 . S
N908 H915 0.984 . S
N909 C902 1.356 . S
N909 H912 0.984 . S
N909 H913 0.985 . S
H910 N905 0.984 . S
H911 N905 0.985 . S
H912 N909 0.984 . S
H913 N909 0.985 . S
H914 N908 0.984 . S
H915 N908 0.984 . S
H916 N904 0.984 . S
H917 N904 0.985 . S
C918 C919 1.363 . S
C918 C924 1.379 . S
C918 N926 1.356 . S
C919 C918 1.363 . S
C919 C925 1.363 . S
C920 C921 1.363 . S
C920 C925 1.379 . S
C920 N927 1.356 . S
C921 C920 1.363 . S
C921 C924 1.363 . S
N922 C924 1.356 . S
N922 H934 0.984 . S
N922 H935 0.985 . S
N923 C925 1.356 . S
N923 H928 0.984 . S
N923 H929 0.985 . S
C924 C918 1.379 . S
C924 C921 1.363 . S
C924 N922 1.356 . S
C925 C919 1.363 . S
C925 C920 1.379 . S
C925 N923 1.356 . S
N926 C918 1.356 . S
N926 H932 0.984 . S
N926 H933 0.984 . S
N927 C920 1.356 . S
N927 H930 0.984 . S
N927 H931 0.985 . S
H928 N923 0.984 . S
H929 N923 0.985 . S
H930 N927 0.984 . S
H931 N927 0.985 . S
H932 N926 0.984 . S
H933 N926 0.984 . S
H934 N922 0.984 . S
H935 N922 0.985 . S
C936 C937 1.363 . S
C936 C942 1.379 . S
C936 N944 1.356 . S
C937 C936 1.363 . S
C937 C943 1.363 . S
C938 C939 1.363 . S
C938 C943 1.379 . S
C938 N945 1.356 . S
C939 C938 1.363 . S
C939 C942 1.363 . S
N940 C942 1.356 . S
N940 H952 0.984 . S
N940 H953 0.985 . S
N941 C943 1.356 . S
N941 H946 0.984 . S
N941 H947 0.985 . S
C942 C936 1.379 . S
C942 C939 1.363 . S
C942 N940 1.356 . S
C943 C937 1.363 . S
C943 C938 1.379 . S
C943 N941 1.356 . S
N944 C936 1.356 . S
N944 H950 0.984 . S
N944 H951 0.984 . S
N945 C938 1.356 . S
N945 H948 0.984 . S
N945 H949 0.985 . S
H946 N941 0.984 . S
H947 N941 0.985 . S
H948 N945 0.984 . S
H949 N945 0.985 . S
H950 N944 0.984 . S
H951 N944 0.984 . S
H952 N940 0.984 . S
H953 N940 0.985 . S
C954 C955 1.363 . S
C954 C960 1.379 . S
C954 N962 1.356 . S
C955 C954 1.363 . S
C955 C961 1.363 . S
C956 C957 1.363 . S
C956 C961 1.379 . S
C956 N963 1.356 . S
C957 C956 1.363 . S
C957 C960 1.363 . S
N958 C960 1.356 . S
N958 H970 0.984 . S
N958 H971 0.985 . S
N959 C961 1.356 . S
N959 H964 0.984 . S
N959 H965 0.985 . S
C960 C954 1.379 . S
C960 C957 1.363 . S
C960 N958 1.356 . S
C961 C955 1.363 . S
C961 C956 1.379 . S
C961 N959 1.356 . S
N962 C954 1.356 . S
N962 H968 0.984 . S
N962 H969 0.984 . S
N963 C956 1.356 . S
N963 H966 0.984 . S
N963 H967 0.985 . S
H964 N959 0.984 . S
H965 N959 0.985 . S
H966 N963 0.984 . S
H967 N963 0.985 . S
H968 N962 0.984 . S
H969 N962 0.984 . S
H970 N958 0.984 . S
H971 N958 0.985 . S
C972 C973 1.363 . S
C972 C978 1.379 . S
C972 N980 1.356 . S
C973 C972 1.363 . S
C973 C979 1.363 . S
C974 C975 1.363 . S
C974 C979 1.379 . S
C974 N981 1.356 . S
C975 C974 1.363 . S
C975 C978 1.363 . S
N976 C978 1.356 . S
N976 H988 0.984 . S
N976 H989 0.985 . S
N977 C979 1.356 . S
N977 H982 0.984 . S
N977 H983 0.985 . S
C978 C972 1.379 . S
C978 C975 1.363 . S
C978 N976 1.356 . S
C979 C973 1.363 . S
C979 C974 1.379 . S
C979 N977 1.356 . S
N980 C972 1.356 . S
N980 H986 0.984 . S
N980 H987 0.984 . S
N981 C974 1.356 . S
N981 H984 0.984 . S
N981 H985 0.985 . S
H982 N977 0.984 . S
H983 N977 0.985 . S
H984 N981 0.984 . S
H985 N981 0.985 . S
H986 N980 0.984 . S
H987 N980 0.984 . S
H988 N976 0.984 . S
H989 N976 0.985 . S
C990 C991 1.363 . S
C990 C996 1.379 . S
C990 N998 1.356 . S
C991 C990 1.363 . S
C991 C997 1.363 . S
C992 C993 1.363 . S
C992 C997 1.379 . S
C992 N999 1.356 . S
C993 C992 1.363 . S
C993 C996 1.363 . S
N994 C996 1.356 . S
N994 H1006 0.984 . S
N994 H1007 0.985 . S
N995 C997 1.356 . S
N995 H1000 0.984 . S
N995 H1001 0.985 . S
C996 C990 1.379 . S
C996 C993 1.363 . S
C996 N994 1.356 . S
C997 C991 1.363 . S
C997 C992 1.379 . S
C997 N995 1.356 . S
N998 C990 1.356 . S
N998 H1004 0.984 . S
N998 H1005 0.984 . S
N999 C992 1.356 . S
N999 H1002 0.984 . S
N999 H1003 0.985 . S
H1000 N995 0.984 . S
H1001 N995 0.985 . S
H1002 N999 0.984 . S
H1003 N999 0.985 . S
H1004 N998 0.984 . S
H1005 N998 0.984 . S
H1006 N994 0.984 . S
H1007 N994 0.985 . S
C1008 C1009 1.363 . S
C1008 C1014 1.379 . S
C1008 N1016 1.356 . S
C1009 C1008 1.363 . S
C1009 C1015 1.363 . S
C1010 C1011 1.363 . S
C1010 C1015 1.379 . S
C1010 N1017 1.356 . S
C1011 C1010 1.363 . S
C1011 C1014 1.363 . S
N1012 C1014 1.356 . S
N1012 H1024 0.984 . S
N1012 H1025 0.985 . S
N1013 C1015 1.356 . S
N1013 H1018 0.984 . S
N1013 H1019 0.985 . S
C1014 C1008 1.379 . S
C1014 C1011 1.363 . S
C1014 N1012 1.356 . S
C1015 C1009 1.363 . S
C1015 C1010 1.379 . S
C1015 N1013 1.356 . S
N1016 C1008 1.356 . S
N1016 H1022 0.984 . S
N1016 H1023 0.984 . S
N1017 C1010 1.356 . S
N1017 H1020 0.984 . S
N1017 H1021 0.985 . S
H1018 N1013 0.984 . S
H1019 N1013 0.985 . S
H1020 N1017 0.984 . S
H1021 N1017 0.985 . S
H1022 N1016 0.984 . S
H1023 N1016 0.984 . S
H1024 N1012 0.984 . S
H1025 N1012 0.985 . S
C1026 C1027 1.363 . S
C1026 C1032 1.379 . S
C1026 N1034 1.356 . S
C1027 C1026 1.363 . S
C1027 C1033 1.363 . S
C1028 C1029 1.363 . S
C1028 C1033 1.379 . S
C1028 N1035 1.356 . S
C1029 C1028 1.363 . S
C1029 C1032 1.363 . S
N1030 C1032 1.356 . S
N1030 H1042 0.984 . S
N1030 H1043 0.985 . S
N1031 C1033 1.356 . S
N1031 H1036 0.984 . S
N1031 H1037 0.985 . S
C1032 C1026 1.379 . S
C1032 C1029 1.363 . S
C1032 N1030 1.356 . S
C1033 C1027 1.363 . S
C1033 C1028 1.379 . S
C1033 N1031 1.356 . S
N1034 C1026 1.356 . S
N1034 H1040 0.984 . S
N1034 H1041 0.984 . S
N1035 C1028 1.356 . S
N1035 H1038 0.984 . S
N1035 H1039 0.985 . S
H1036 N1031 0.984 . S
H1037 N1031 0.985 . S
H1038 N1035 0.984 . S
H1039 N1035 0.985 . S
H1040 N1034 0.984 . S
H1041 N1034 0.984 . S
H1042 N1030 0.984 . S
H1043 N1030 0.985 . S
C1044 C1045 1.363 . S
C1044 C1050 1.379 . S
C1044 N1052 1.356 . S
C1045 C1044 1.363 . S
C1045 C1051 1.363 . S
C1046 C1047 1.363 . S
C1046 C1051 1.379 . S
C1046 N1053 1.356 . S
C1047 C1046 1.363 . S
C1047 C1050 1.363 . S
N1048 C1050 1.356 . S
N1048 H1060 0.984 . S
N1048 H1061 0.985 . S
N1049 C1051 1.356 . S
N1049 H1054 0.984 . S
N1049 H1055 0.985 . S
C1050 C1044 1.379 . S
C1050 C1047 1.363 . S
C1050 N1048 1.356 . S
C1051 C1045 1.363 . S
C1051 C1046 1.379 . S
C1051 N1049 1.356 . S
N1052 C1044 1.356 . S
N1052 H1058 0.984 . S
N1052 H1059 0.984 . S
N1053 C1046 1.356 . S
N1053 H1056 0.984 . S
N1053 H1057 0.985 . S
H1054 N1049 0.984 . S
H1055 N1049 0.985 . S
H1056 N1053 0.984 . S
H1057 N1053 0.985 . S
H1058 N1052 0.984 . S
H1059 N1052 0.984 . S
H1060 N1048 0.984 . S
H1061 N1048 0.985 . S
C1062 C1063 1.363 . S
C1062 C1068 1.379 . S
C1062 N1070 1.356 . S
C1063 C1062 1.363 . S
C1063 C1069 1.363 . S
C1064 C1065 1.363 . S
C1064 C1069 1.379 . S
C1064 N1071 1.356 . S
C1065 C1064 1.363 . S
C1065 C1068 1.363 . S
N1066 C1068 1.356 . S
N1066 H1078 0.984 . S
N1066 H1079 0.985 . S
N1067 C1069 1.356 . S
N1067 H1072 0.984 . S
N1067 H1073 0.985 . S
C1068 C1062 1.379 . S
C1068 C1065 1.363 . S
C1068 N1066 1.356 . S
C1069 C1063 1.363 . S
C1069 C1064 1.379 . S
C1069 N1067 1.356 . S
N1070 C1062 1.356 . S
N1070 H1076 0.984 . S
N1070 H1077 0.984 . S
N1071 C1064 1.356 . S
N1071 H1074 0.984 . S
N1071 H1075 0.985 . S
H1072 N1067 0.984 . S
H1073 N1067 0.985 . S
H1074 N1071 0.984 . S
H1075 N1071 0.985 . S
H1076 N1070 0.984 . S
H1077 N1070 0.984 . S
H1078 N1066 0.984 . S
H1079 N1066 0.985 . S
C1080 C1081 1.363 . S
C1080 C1086 1.379 . S
C1080 N1088 1.356 . S
C1081 C1080 1.363 . S
C1081 C1087 1.363 . S
C1082 C1083 1.363 . S
C1082 C1087 1.379 . S
C1082 N1089 1.356 . S
C1083 C1082 1.363 . S
C1083 C1086 1.363 . S
N1084 C1086 1.356 . S
N1084 H1096 0.984 . S
N1084 H1097 0.985 . S
N1085 C1087 1.356 . S
N1085 H1090 0.984 . S
N1085 H1091 0.985 . S
C1086 C1080 1.379 . S
C1086 C1083 1.363 . S
C1086 N1084 1.356 . S
C1087 C1081 1.363 . S
C1087 C1082 1.379 . S
C1087 N1085 1.356 . S
N1088 C1080 1.356 . S
N1088 H1094 0.984 . S
N1088 H1095 0.984 . S
N1089 C1082 1.356 . S
N1089 H1092 0.984 . S
N1089 H1093 0.985 . S
H1090 N1085 0.984 . S
H1091 N1085 0.985 . S
H1092 N1089 0.984 . S
H1093 N1089 0.985 . S
H1094 N1088 0.984 . S
H1095 N1088 0.984 . S
H1096 N1084 0.984 . S
H1097 N1084 0.985 . S
C1098 C1099 1.363 . S
C1098 C1104 1.379 . S
C1098 N1106 1.356 . S
C1099 C1098 1.363 . S
C1099 C1105 1.363 . S
C1100 C1101 1.363 . S
C1100 C1105 1.379 . S
C1100 N1107 1.356 . S
C1101 C1100 1.363 . S
C1101 C1104 1.363 . S
N1102 C1104 1.356 . S
N1102 H1114 0.984 . S
N1102 H1115 0.985 . S
N1103 C1105 1.356 . S
N1103 H1108 0.984 . S
N1103 H1109 0.985 . S
C1104 C1098 1.379 . S
C1104 C1101 1.363 . S
C1104 N1102 1.356 . S
C1105 C1099 1.363 . S
C1105 C1100 1.379 . S
C1105 N1103 1.356 . S
N1106 C1098 1.356 . S
N1106 H1112 0.984 . S
N1106 H1113 0.984 . S
N1107 C1100 1.356 . S
N1107 H1110 0.984 . S
N1107 H1111 0.985 . S
H1108 N1103 0.984 . S
H1109 N1103 0.985 . S
H1110 N1107 0.984 . S
H1111 N1107 0.985 . S
H1112 N1106 0.984 . S
H1113 N1106 0.984 . S
H1114 N1102 0.984 . S
H1115 N1102 0.985 . S
C1116 C1117 1.363 . S
C1116 C1122 1.379 . S
C1116 N1124 1.356 . S
C1117 C1116 1.363 . S
C1117 C1123 1.363 . S
C1118 C1119 1.363 . S
C1118 C1123 1.379 . S
C1118 N1125 1.356 . S
C1119 C1118 1.363 . S
C1119 C1122 1.363 . S
N1120 C1122 1.356 . S
N1120 H1132 0.984 . S
N1120 H1133 0.985 . S
N1121 C1123 1.356 . S
N1121 H1126 0.984 . S
N1121 H1127 0.985 . S
C1122 C1116 1.379 . S
C1122 C1119 1.363 . S
C1122 N1120 1.356 . S
C1123 C1117 1.363 . S
C1123 C1118 1.379 . S
C1123 N1121 1.356 . S
N1124 C1116 1.356 . S
N1124 H1130 0.984 . S
N1124 H1131 0.984 . S
N1125 C1118 1.356 . S
N1125 H1128 0.984 . S
N1125 H1129 0.985 . S
H1126 N1121 0.984 . S
H1127 N1121 0.985 . S
H1128 N1125 0.984 . S
H1129 N1125 0.985 . S
H1130 N1124 0.984 . S
H1131 N1124 0.984 . S
H1132 N1120 0.984 . S
H1133 N1120 0.985 . S
C1134 C1135 1.363 . S
C1134 C1140 1.379 . S
C1134 N1142 1.356 . S
C1135 C1134 1.363 . S
C1135 C1141 1.363 . S
C1136 C1137 1.363 . S
C1136 C1141 1.379 . S
C1136 N1143 1.356 . S
C1137 C1136 1.363 . S
C1137 C1140 1.363 . S
N1138 C1140 1.356 . S
N1138 H1150 0.984 . S
N1138 H1151 0.985 . S
N1139 C1141 1.356 . S
N1139 H1144 0.984 . S
N1139 H1145 0.985 . S
C1140 C1134 1.379 . S
C1140 C1137 1.363 . S
C1140 N1138 1.356 . S
C1141 C1135 1.363 . S
C1141 C1136 1.379 . S
C1141 N1139 1.356 . S
N1142 C1134 1.356 . S
N1142 H1148 0.984 . S
N1142 H1149 0.984 . S
N1143 C1136 1.356 . S
N1143 H1146 0.984 . S
N1143 H1147 0.985 . S
H1144 N1139 0.984 . S
H1145 N1139 0.985 . S
H1146 N1143 0.984 . S
H1147 N1143 0.985 . S
H1148 N1142 0.984 . S
H1149 N1142 0.984 . S
H1150 N1138 0.984 . S
H1151 N1138 0.985 . S
C1152 C1153 1.363 . S
C1152 C1158 1.379 . S
C1152 N1160 1.356 . S
C1153 C1152 1.363 . S
C1153 C1159 1.363 . S
C1154 C1155 1.363 . S
C1154 C1159 1.379 . S
C1154 N1161 1.356 . S
C1155 C1154 1.363 . S
C1155 C1158 1.363 . S
N1156 C1158 1.356 . S
N1156 H1168 0.984 . S
N1156 H1169 0.985 . S
N1157 C1159 1.356 . S
N1157 H1162 0.984 . S
N1157 H1163 0.985 . S
C1158 C1152 1.379 . S
C1158 C1155 1.363 . S
C1158 N1156 1.356 . S
C1159 C1153 1.363 . S
C1159 C1154 1.379 . S
C1159 N1157 1.356 . S
N1160 C1152 1.356 . S
N1160 H1166 0.984 . S
N1160 H1167 0.984 . S
N1161 C1154 1.356 . S
N1161 H1164 0.984 . S
N1161 H1165 0.985 . S
H1162 N1157 0.984 . S
H1163 N1157 0.985 . S
H1164 N1161 0.984 . S
H1165 N1161 0.985 . S
H1166 N1160 0.984 . S
H1167 N1160 0.984 . S
H1168 N1156 0.984 . S
H1169 N1156 0.985 . S
C1170 C1171 1.363 . S
C1170 C1176 1.379 . S
C1170 N1178 1.356 . S
C1171 C1170 1.363 . S
C1171 C1177 1.363 . S
C1172 C1173 1.363 . S
C1172 C1177 1.379 . S
C1172 N1179 1.356 . S
C1173 C1172 1.363 . S
C1173 C1176 1.363 . S
N1174 C1176 1.356 . S
N1174 H1186 0.984 . S
N1174 H1187 0.985 . S
N1175 C1177 1.356 . S
N1175 H1180 0.984 . S
N1175 H1181 0.985 . S
C1176 C1170 1.379 . S
C1176 C1173 1.363 . S
C1176 N1174 1.356 . S
C1177 C1171 1.363 . S
C1177 C1172 1.379 . S
C1177 N1175 1.356 . S
N1178 C1170 1.356 . S
N1178 H1184 0.984 . S
N1178 H1185 0.984 . S
N1179 C1172 1.356 . S
N1179 H1182 0.984 . S
N1179 H1183 0.985 . S
H1180 N1175 0.984 . S
H1181 N1175 0.985 . S
H1182 N1179 0.984 . S
H1183 N1179 0.985 . S
H1184 N1178 0.984 . S
H1185 N1178 0.984 . S
H1186 N1174 0.984 . S
H1187 N1174 0.985 . S
C1188 C1189 1.363 . S
C1188 C1194 1.379 . S
C1188 N1196 1.356 . S
C1189 C1188 1.363 . S
C1189 C1195 1.363 . S
C1190 C1191 1.363 . S
C1190 C1195 1.379 . S
C1190 N1197 1.356 . S
C1191 C1190 1.363 . S
C1191 C1194 1.363 . S
N1192 C1194 1.356 . S
N1192 H1204 0.984 . S
N1192 H1205 0.985 . S
N1193 C1195 1.356 . S
N1193 H1198 0.984 . S
N1193 H1199 0.985 . S
C1194 C1188 1.379 . S
C1194 C1191 1.363 . S
C1194 N1192 1.356 . S
C1195 C1189 1.363 . S
C1195 C1190 1.379 . S
C1195 N1193 1.356 . S
N1196 C1188 1.356 . S
N1196 H1202 0.984 . S
N1196 H1203 0.984 . S
N1197 C1190 1.356 . S
N1197 H1200 0.984 . S
N1197 H1201 0.985 . S
H1198 N1193 0.984 . S
H1199 N1193 0.985 . S
H1200 N1197 0.984 . S
H1201 N1197 0.985 . S
H1202 N1196 0.984 . S
H1203 N1196 0.984 . S
H1204 N1192 0.984 . S
H1205 N1192 0.985 . S
C1206 C1207 1.363 . S
C1206 C1212 1.379 . S
C1206 N1214 1.356 . S
C1207 C1206 1.363 . S
C1207 C1213 1.363 . S
C1208 C1209 1.363 . S
C1208 C1213 1.379 . S
C1208 N1215 1.356 . S
C1209 C1208 1.363 . S
C1209 C1212 1.363 . S
N1210 C1212 1.356 . S
N1210 H1222 0.984 . S
N1210 H1223 0.985 . S
N1211 C1213 1.356 . S
N1211 H1216 0.984 . S
N1211 H1217 0.985 . S
C1212 C1206 1.379 . S
C1212 C1209 1.363 . S
C1212 N1210 1.356 . S
C1213 C1207 1.363 . S
C1213 C1208 1.379 . S
C1213 N1211 1.356 . S
N1214 C1206 1.356 . S
N1214 H1220 0.984 . S
N1214 H1221 0.984 . S
N1215 C1208 1.356 . S
N1215 H1218 0.984 . S
N1215 H1219 0.985 . S
H1216 N1211 0.984 . S
H1217 N1211 0.985 . S
H1218 N1215 0.984 . S
H1219 N1215 0.985 . S
H1220 N1214 0.984 . S
H1221 N1214 0.984 . S
H1222 N1210 0.984 . S
H1223 N1210 0.985 . S
C1224 C1225 1.363 . S
C1224 C1230 1.379 . S
C1224 N1232 1.356 . S
C1225 C1224 1.363 . S
C1225 C1231 1.363 . S
C1226 C1227 1.363 . S
C1226 C1231 1.379 . S
C1226 N1233 1.356 . S
C1227 C1226 1.363 . S
C1227 C1230 1.363 . S
N1228 C1230 1.356 . S
N1228 H1240 0.984 . S
N1228 H1241 0.985 . S
N1229 C1231 1.356 . S
N1229 H1234 0.984 . S
N1229 H1235 0.985 . S
C1230 C1224 1.379 . S
C1230 C1227 1.363 . S
C1230 N1228 1.356 . S
C1231 C1225 1.363 . S
C1231 C1226 1.379 . S
C1231 N1229 1.356 . S
N1232 C1224 1.356 . S
N1232 H1238 0.984 . S
N1232 H1239 0.984 . S
N1233 C1226 1.356 . S
N1233 H1236 0.984 . S
N1233 H1237 0.985 . S
H1234 N1229 0.984 . S
H1235 N1229 0.985 . S
H1236 N1233 0.984 . S
H1237 N1233 0.985 . S
H1238 N1232 0.984 . S
H1239 N1232 0.984 . S
H1240 N1228 0.984 . S
H1241 N1228 0.985 . S
C1242 C1243 1.363 . S
C1242 C1248 1.379 . S
C1242 N1250 1.356 . S
C1243 C1242 1.363 . S
C1243 C1249 1.363 . S
C1244 C1245 1.363 . S
C1244 C1249 1.379 . S
C1244 N1251 1.356 . S
C1245 C1244 1.363 . S
C1245 C1248 1.363 . S
N1246 C1248 1.356 . S
N1246 H1258 0.984 . S
N1246 H1259 0.985 . S
N1247 C1249 1.356 . S
N1247 H1252 0.984 . S
N1247 H1253 0.985 . S
C1248 C1242 1.379 . S
C1248 C1245 1.363 . S
C1248 N1246 1.356 . S
C1249 C1243 1.363 . S
C1249 C1244 1.379 . S
C1249 N1247 1.356 . S
N1250 C1242 1.356 . S
N1250 H1256 0.984 . S
N1250 H1257 0.984 . S
N1251 C1244 1.356 . S
N1251 H1254 0.984 . S
N1251 H1255 0.985 . S
H1252 N1247 0.984 . S
H1253 N1247 0.985 . S
H1254 N1251 0.984 . S
H1255 N1251 0.985 . S
H1256 N1250 0.984 . S
H1257 N1250 0.984 . S
H1258 N1246 0.984 . S
H1259 N1246 0.985 . S
C1260 C1261 1.363 . S
C1260 C1266 1.379 . S
C1260 N1268 1.356 . S
C1261 C1260 1.363 . S
C1261 C1267 1.363 . S
C1262 C1263 1.363 . S
C1262 C1267 1.379 . S
C1262 N1269 1.356 . S
C1263 C1262 1.363 . S
C1263 C1266 1.363 . S
N1264 C1266 1.356 . S
N1264 H1276 0.984 . S
N1264 H1277 0.985 . S
N1265 C1267 1.356 . S
N1265 H1270 0.984 . S
N1265 H1271 0.985 . S
C1266 C1260 1.379 . S
C1266 C1263 1.363 . S
C1266 N1264 1.356 . S
C1267 C1261 1.363 . S
C1267 C1262 1.379 . S
C1267 N1265 1.356 . S
N1268 C1260 1.356 . S
N1268 H1274 0.984 . S
N1268 H1275 0.984 . S
N1269 C1262 1.356 . S
N1269 H1272 0.984 . S
N1269 H1273 0.985 . S
H1270 N1265 0.984 . S
H1271 N1265 0.985 . S
H1272 N1269 0.984 . S
H1273 N1269 0.985 . S
H1274 N1268 0.984 . S
H1275 N1268 0.984 . S
H1276 N1264 0.984 . S
H1277 N1264 0.985 . S
C1278 C1279 1.363 . S
C1278 C1284 1.379 . S
C1278 N1286 1.356 . S
C1279 C1278 1.363 . S
C1279 C1285 1.363 . S
C1280 C1281 1.363 . S
C1280 C1285 1.379 . S
C1280 N1287 1.356 . S
C1281 C1280 1.363 . S
C1281 C1284 1.363 . S
N1282 C1284 1.356 . S
N1282 H1294 0.984 . S
N1282 H1295 0.985 . S
N1283 C1285 1.356 . S
N1283 H1288 0.984 . S
N1283 H1289 0.985 . S
C1284 C1278 1.379 . S
C1284 C1281 1.363 . S
C1284 N1282 1.356 . S
C1285 C1279 1.363 . S
C1285 C1280 1.379 . S
C1285 N1283 1.356 . S
N1286 C1278 1.356 . S
N1286 H1292 0.984 . S
N1286 H1293 0.984 . S
N1287 C1280 1.356 . S
N1287 H1290 0.984 . S
N1287 H1291 0.985 . S
H1288 N1283 0.984 . S
H1289 N1283 0.985 . S
H1290 N1287 0.984 . S
H1291 N1287 0.985 . S
H1292 N1286 0.984 . S
H1293 N1286 0.984 . S
H1294 N1282 0.984 . S
H1295 N1282 0.985 . S
C1296 C1297 1.363 . S
C1296 C1302 1.379 1_455 S
C1296 N1304 1.356 . S
C1297 C1296 1.363 . S
C1297 C1303 1.363 . S
C1298 C1299 1.363 . S
C1298 C1303 1.379 1_655 S
C1298 N1305 1.356 . S
C1299 C1298 1.363 . S
C1299 C1302 1.363 . S
N1300 C1302 1.356 . S
N1300 H1312 0.984 . S
N1300 H1313 0.985 . S
N1301 C1303 1.356 . S
N1301 H1306 0.984 . S
N1301 H1307 0.985 . S
C1302 C1296 1.379 1_655 S
C1302 C1299 1.363 . S
C1302 N1300 1.356 . S
C1303 C1297 1.363 . S
C1303 C1298 1.379 1_455 S
C1303 N1301 1.356 . S
N1304 C1296 1.356 . S
N1304 H1310 0.984 . S
N1304 H1311 0.984 . S
N1305 C1298 1.356 . S
N1305 H1308 0.984 . S
N1305 H1309 0.985 . S
H1306 N1301 0.984 . S
H1307 N1301 0.985 . S
H1308 N1305 0.984 . S
H1309 N1305 0.985 . S
H1310 N1304 0.984 . S
H1311 N1304 0.984 . S
H1312 N1300 0.984 . S
H1313 N1300 0.985 . S
C1314 C1315 1.363 . S
C1314 C1320 1.379 1_545 S
C1314 N1322 1.356 . S
C1315 C1314 1.363 . S
C1315 C1321 1.363 . S
C1316 C1317 1.363 . S
C1316 C1321 1.379 1_565 S
C1316 N1323 1.356 . S
C1317 C1316 1.363 . S
C1317 C1320 1.363 . S
N1318 C1320 1.356 . S
N1318 H1330 0.984 . S
N1318 H1331 0.985 . S
N1319 C1321 1.356 . S
N1319 H1324 0.984 . S
N1319 H1325 0.985 . S
C1320 C1314 1.379 1_565 S
C1320 C1317 1.363 . S
C1320 N1318 1.356 . S
C1321 C1315 1.363 . S
C1321 C1316 1.379 1_545 S
C1321 N1319 1.356 . S
N1322 C1314 1.356 . S
N1322 H1328 0.984 . S
N1322 H1329 0.984 . S
N1323 C1316 1.356 . S
N1323 H1326 0.984 . S
N1323 H1327 0.985 . S
H1324 N1319 0.984 . S
H1325 N1319 0.985 . S
H1326 N1323 0.984 . S
H1327 N1323 0.985 . S
H1328 N1322 0.984 . S
H1329 N1322 0.984 . S
H1330 N1318 0.984 . S
H1331 N1318 0.985 . S
C1332 C1333 1.363 . S
C1332 C1338 1.379 1_655 S
C1332 N1340 1.356 . S
C1333 C1332 1.363 . S
C1333 C1339 1.363 . S
C1334 C1335 1.363 . S
C1334 C1339 1.379 1_455 S
C1334 N1341 1.356 . S
C1335 C1334 1.363 . S
C1335 C1338 1.363 . S
N1336 C1338 1.356 . S
N1336 H1348 0.984 . S
N1336 H1349 0.985 . S
N1337 C1339 1.356 . S
N1337 H1342 0.984 . S
N1337 H1343 0.985 . S
C1338 C1332 1.379 1_455 S
C1338 C1335 1.363 . S
C1338 N1336 1.356 . S
C1339 C1333 1.363 . S
C1339 C1334 1.379 1_655 S
C1339 N1337 1.356 . S
N1340 C1332 1.356 . S
N1340 H1346 0.984 . S
N1340 H1347 0.984 . S
N1341 C1334 1.356 . S
N1341 H1344 0.984 . S
N1341 H1345 0.985 . S
H1342 N1337 0.984 . S
H1343 N1337 0.985 . S
H1344 N1341 0.984 . S
H1345 N1341 0.985 . S
H1346 N1340 0.984 . S
H1347 N1340 0.984 . S
H1348 N1336 0.984 . S
H1349 N1336 0.985 . S
C1350 C1351 1.363 . S
C1350 C1356 1.379 1_545 S
C1350 N1358 1.356 . S
C1351 C1350 1.363 . S
C1351 C1357 1.363 . S
C1352 C1353 1.363 . S
C1352 C1357 1.379 1_565 S
C1352 N1359 1.356 . S
C1353 C1352 1.363 . S
C1353 C1356 1.363 . S
N1354 C1356 1.356 . S
N1354 H1366 0.984 . S
N1354 H1367 0.985 . S
N1355 C1357 1.356 . S
N1355 H1360 0.984 . S
N1355 H1361 0.985 . S
C1356 C1350 1.379 1_565 S
C1356 C1353 1.363 . S
C1356 N1354 1.356 . S
C1357 C1351 1.363 . S
C1357 C1352 1.379 1_545 S
C1357 N1355 1.356 . S
N1358 C1350 1.356 . S
N1358 H1364 0.984 . S
N1358 H1365 0.984 . S
N1359 C1352 1.356 . S
N1359 H1362 0.984 . S
N1359 H1363 0.985 . S
H1360 N1355 0.984 . S
H1361 N1355 0.985 . S
H1362 N1359 0.984 . S
H1363 N1359 0.985 . S
H1364 N1358 0.984 . S
H1365 N1358 0.984 . S
H1366 N1354 0.984 . S
H1367 N1354 0.985 . S
C1368 C1369 1.363 . S
C1368 C1374 1.379 1_565 S
C1368 N1376 1.356 . S
C1369 C1368 1.363 . S
C1369 C1375 1.363 . S
C1370 C1371 1.363 . S
C1370 C1375 1.379 1_545 S
C1370 N1377 1.356 . S
C1371 C1370 1.363 . S
C1371 C1374 1.363 . S
N1372 C1374 1.356 . S
N1372 H1384 0.984 . S
N1372 H1385 0.985 . S
N1373 C1375 1.356 . S
N1373 H1378 0.984 . S
N1373 H1379 0.985 . S
C1374 C1368 1.379 1_545 S
C1374 C1371 1.363 . S
C1374 N1372 1.356 . S
C1375 C1369 1.363 . S
C1375 C1370 1.379 1_565 S
C1375 N1373 1.356 . S
N1376 C1368 1.356 . S
N1376 H1382 0.984 . S
N1376 H1383 0.984 . S
N1377 C1370 1.356 . S
N1377 H1380 0.984 . S
N1377 H1381 0.985 . S
H1378 N1373 0.984 . S
H1379 N1373 0.985 . S
H1380 N1377 0.984 . S
H1381 N1377 0.985 . S
H1382 N1376 0.984 . S
H1383 N1376 0.984 . S
H1384 N1372 0.984 . S
H1385 N1372 0.985 . S
C1386 C1387 1.363 . S
C1386 C1392 1.379 1_655 S
C1386 N1394 1.356 . S
C1387 C1386 1.363 . S
C1387 C1393 1.363 . S
C1388 C1389 1.363 . S
C1388 C1393 1.379 1_455 S
C1388 N1395 1.356 . S
C1389 C1388 1.363 . S
C1389 C1392 1.363 . S
N1390 C1392 1.356 . S
N1390 H1402 0.984 . S
N1390 H1403 0.985 . S
N1391 C1393 1.356 . S
N1391 H1396 0.984 . S
N1391 H1397 0.985 . S
C1392 C1386 1.379 1_455 S
C1392 C1389 1.363 . S
C1392 N1390 1.356 . S
C1393 C1387 1.363 . S
C1393 C1388 1.379 1_655 S
C1393 N1391 1.356 . S
N1394 C1386 1.356 . S
N1394 H1400 0.984 . S
N1394 H1401 0.984 . S
N1395 C1388 1.356 . S
N1395 H1398 0.984 . S
N1395 H1399 0.985 . S
H1396 N1391 0.984 . S
H1397 N1391 0.985 . S
H1398 N1395 0.984 . S
H1399 N1395 0.985 . S
H1400 N1394 0.984 . S
H1401 N1394 0.984 . S
H1402 N1390 0.984 . S
H1403 N1390 0.985 . S
C1404 C1405 1.363 . S
C1404 C1410 1.379 1_565 S
C1404 N1412 1.356 . S
C1405 C1404 1.363 . S
C1405 C1411 1.363 . S
C1406 C1407 1.363 . S
C1406 C1411 1.379 1_545 S
C1406 N1413 1.356 . S
C1407 C1406 1.363 . S
C1407 C1410 1.363 . S
N1408 C1410 1.356 . S
N1408 H1420 0.984 . S
N1408 H1421 0.985 . S
N1409 C1411 1.356 . S
N1409 H1414 0.984 . S
N1409 H1415 0.985 . S
C1410 C1404 1.379 1_545 S
C1410 C1407 1.363 . S
C1410 N1408 1.356 . S
C1411 C1405 1.363 . S
C1411 C1406 1.379 1_565 S
C1411 N1409 1.356 . S
N1412 C1404 1.356 . S
N1412 H1418 0.984 . S
N1412 H1419 0.984 . S
N1413 C1406 1.356 . S
N1413 H1416 0.984 . S
N1413 H1417 0.985 . S
H1414 N1409 0.984 . S
H1415 N1409 0.985 . S
H1416 N1413 0.984 . S
H1417 N1413 0.985 . S
H1418 N1412 0.984 . S
H1419 N1412 0.984 . S
H1420 N1408 0.984 . S
H1421 N1408 0.985 . S
C1422 C1423 1.363 . S
C1422 C1428 1.379 1_655 S
C1422 N1430 1.356 . S
C1423 C1422 1.363 . S
C1423 C1429 1.363 . S
C1424 C1425 1.363 . S
C1424 C1429 1.379 1_455 S
C1424 N1431 1.356 . S
C1425 C1424 1.363 . S
C1425 C1428 1.363 . S
N1426 C1428 1.356 . S
N1426 H1438 0.984 . S
N1426 H1439 0.985 . S
N1427 C1429 1.356 . S
N1427 H1432 0.984 . S
N1427 H1433 0.985 . S
C1428 C1422 1.379 1_455 S
C1428 C1425 1.363 . S
C1428 N1426 1.356 . S
C1429 C1423 1.363 . S
C1429 C1424 1.379 1_655 S
C1429 N1427 1.356 . S
N1430 C1422 1.356 . S
N1430 H1436 0.984 . S
N1430 H1437 0.984 . S
N1431 C1424 1.356 . S
N1431 H1434 0.984 . S
N1431 H1435 0.985 . S
H1432 N1427 0.984 . S
H1433 N1427 0.985 . S
H1434 N1431 0.984 . S
H1435 N1431 0.985 . S
H1436 N1430 0.984 . S
H1437 N1430 0.984 . S
H1438 N1426 0.984 . S
H1439 N1426 0.985 . S
C1440 C1441 1.363 . S
C1440 C1446 1.379 1_556 S
C1440 N1448 1.356 . S
C1441 C1440 1.363 . S
C1441 C1447 1.363 . S
C1442 C1443 1.363 . S
C1442 C1447 1.379 1_554 S
C1442 N1449 1.356 . S
C1443 C1442 1.363 . S
C1443 C1446 1.363 . S
N1444 C1446 1.356 . S
N1444 H1456 0.984 . S
N1444 H1457 0.985 . S
N1445 C1447 1.356 . S
N1445 H1450 0.984 . S
N1445 H1451 0.985 . S
C1446 C1440 1.379 1_554 S
C1446 C1443 1.363 . S
C1446 N1444 1.356 . S
C1447 C1441 1.363 . S
C1447 C1442 1.379 1_556 S
C1447 N1445 1.356 . S
N1448 C1440 1.356 . S
N1448 H1454 0.984 . S
N1448 H1455 0.984 . S
N1449 C1442 1.356 . S
N1449 H1452 0.984 . S
N1449 H1453 0.985 . S
H1450 N1445 0.984 . S
H1451 N1445 0.985 . S
H1452 N1449 0.984 . S
H1453 N1449 0.985 . S
H1454 N1448 0.984 . S
H1455 N1448 0.984 . S
H1456 N1444 0.984 . S
H1457 N1444 0.985 . S
C1458 C1459 1.363 . S
C1458 C1464 1.379 1_556 S
C1458 N1466 1.356 . S
C1459 C1458 1.363 . S
C1459 C1465 1.363 . S
C1460 C1461 1.363 . S
C1460 C1465 1.379 1_554 S
C1460 N1467 1.356 . S
C1461 C1460 1.363 . S
C1461 C1464 1.363 . S
N1462 C1464 1.356 . S
N1462 H1474 0.984 . S
N1462 H1475 0.985 . S
N1463 C1465 1.356 . S
N1463 H1468 0.984 . S
N1463 H1469 0.985 . S
C1464 C1458 1.379 1_554 S
C1464 C1461 1.363 . S
C1464 N1462 1.356 . S
C1465 C1459 1.363 . S
C1465 C1460 1.379 1_556 S
C1465 N1463 1.356 . S
N1466 C1458 1.356 . S
N1466 H1472 0.984 . S
N1466 H1473 0.984 . S
N1467 C1460 1.356 . S
N1467 H1470 0.984 . S
N1467 H1471 0.985 . S
H1468 N1463 0.984 . S
H1469 N1463 0.985 . S
H1470 N1467 0.984 . S
H1471 N1467 0.985 . S
H1472 N1466 0.984 . S
H1473 N1466 0.984 . S
H1474 N1462 0.984 . S
H1475 N1462 0.985 . S
C1476 C1477 1.363 . S
C1476 C1482 1.379 1_556 S
C1476 N1484 1.356 . S
C1477 C1476 1.363 . S
C1477 C1483 1.363 . S
C1478 C1479 1.363 . S
C1478 C1483 1.379 1_554 S
C1478 N1485 1.356 . S
C1479 C1478 1.363 . S
C1479 C1482 1.363 . S
N1480 C1482 1.356 . S
N1480 H1492 0.984 . S
N1480 H1493 0.985 . S
N1481 C1483 1.356 . S
N1481 H1486 0.984 . S
N1481 H1487 0.985 . S
C1482 C1476 1.379 1_554 S
C1482 C1479 1.363 . S
C1482 N1480 1.356 . S
C1483 C1477 1.363 . S
C1483 C1478 1.379 1_556 S
C1483 N1481 1.356 . S
N1484 C1476 1.356 . S
N1484 H1490 0.984 . S
N1484 H1491 0.984 . S
N1485 C1478 1.356 . S
N1485 H1488 0.984 . S
N1485 H1489 0.985 . S
H1486 N1481 0.984 . S
H1487 N1481 0.985 . S
H1488 N1485 0.984 . S
H1489 N1485 0.985 . S
H1490 N1484 0.984 . S
H1491 N1484 0.984 . S
H1492 N1480 0.984 . S
H1493 N1480 0.985 . S
C1494 C1495 1.363 . S
C1494 C1500 1.379 1_556 S
C1494 N1502 1.356 . S
C1495 C1494 1.363 . S
C1495 C1501 1.363 . S
C1496 C1497 1.363 . S
C1496 C1501 1.379 1_554 S
C1496 N1503 1.356 . S
C1497 C1496 1.363 . S
C1497 C1500 1.363 . S
N1498 C1500 1.356 . S
N1498 H1510 0.984 . S
N1498 H1511 0.985 . S
N1499 C1501 1.356 . S
N1499 H1504 0.984 . S
N1499 H1505 0.985 . S
C1500 C1494 1.379 1_554 S
C1500 C1497 1.363 . S
C1500 N1498 1.356 . S
C1501 C1495 1.363 . S
C1501 C1496 1.379 1_556 S
C1501 N1499 1.356 . S
N1502 C1494 1.356 . S
N1502 H1508 0.984 . S
N1502 H1509 0.984 . S
N1503 C1496 1.356 . S
N1503 H1506 0.984 . S
N1503 H1507 0.985 . S
H1504 N1499 0.984 . S
H1505 N1499 0.985 . S
H1506 N1503 0.984 . S
H1507 N1503 0.985 . S
H1508 N1502 0.984 . S
H1509 N1502 0.984 . S
H1510 N1498 0.984 . S
H1511 N1498 0.985 . S
C1512 C1513 1.363 . S
C1512 C1518 1.379 . S
C1512 N1520 1.356 . S
C1513 C1512 1.363 . S
C1513 C1519 1.363 . S
C1514 C1515 1.363 . S
C1514 C1519 1.379 . S
C1514 N1521 1.356 . S
C1515 C1514 1.363 . S
C1515 C1518 1.363 . S
N1516 C1518 1.356 . S
N1516 H1528 0.984 . S
N1516 H1529 0.985 . S
N1517 C1519 1.356 . S
N1517 H1522 0.984 . S
N1517 H1523 0.985 . S
C1518 C1512 1.379 . S
C1518 C1515 1.363 . S
C1518 N1516 1.356 . S
C1519 C1513 1.363 . S
C1519 C1514 1.379 . S
C1519 N1517 1.356 . S
N1520 C1512 1.356 . S
N1520 H1526 0.984 . S
N1520 H1527 0.984 . S
N1521 C1514 1.356 . S
N1521 H1524 0.984 . S
N1521 H1525 0.985 . S
H1522 N1517 0.984 . S
H1523 N1517 0.985 . S
H1524 N1521 0.984 . S
H1525 N1521 0.985 . S
H1526 N1520 0.984 . S
H1527 N1520 0.984 . S
H1528 N1516 0.984 . S
H1529 N1516 0.985 . S
C1530 C1531 1.363 . S
C1530 C1536 1.379 . S
C1530 N1538 1.356 . S
C1531 C1530 1.363 . S
C1531 C1537 1.363 . S
C1532 C1533 1.363 . S
C1532 C1537 1.379 . S
C1532 N1539 1.356 . S
C1533 C1532 1.363 . S
C1533 C1536 1.363 . S
N1534 C1536 1.356 . S
N1534 H1546 0.984 . S
N1534 H1547 0.985 . S
N1535 C1537 1.356 . S
N1535 H1540 0.984 . S
N1535 H1541 0.985 . S
C1536 C1530 1.379 . S
C1536 C1533 1.363 . S
C1536 N1534 1.356 . S
C1537 C1531 1.363 . S
C1537 C1532 1.379 . S
C1537 N1535 1.356 . S
N1538 C1530 1.356 . S
N1538 H1544 0.984 . S
N1538 H1545 0.984 . S
N1539 C1532 1.356 . S
N1539 H1542 0.984 . S
N1539 H1543 0.985 . S
H1540 N1535 0.984 . S
H1541 N1535 0.985 . S
H1542 N1539 0.984 . S
H1543 N1539 0.985 . S
H1544 N1538 0.984 . S
H1545 N1538 0.984 . S
H1546 N1534 0.984 . S
H1547 N1534 0.985 . S
C1548 C1549 1.363 . S
C1548 C1554 1.379 . S
C1548 N1556 1.356 . S
C1549 C1548 1.363 . S
C1549 C1555 1.363 . S
C1550 C1551 1.363 . S
C1550 C1555 1.379 . S
C1550 N1557 1.356 . S
C1551 C1550 1.363 . S
C1551 C1554 1.363 . S
N1552 C1554 1.356 . S
N1552 H1564 0.984 . S
N1552 H1565 0.985 . S
N1553 C1555 1.356 . S
N1553 H1558 0.984 . S
N1553 H1559 0.985 . S
C1554 C1548 1.379 . S
C1554 C1551 1.363 . S
C1554 N1552 1.356 . S
C1555 C1549 1.363 . S
C1555 C1550 1.379 . S
C1555 N1553 1.356 . S
N1556 C1548 1.356 . S
N1556 H1562 0.984 . S
N1556 H1563 0.984 . S
N1557 C1550 1.356 . S
N1557 H1560 0.984 . S
N1557 H1561 0.985 . S
H1558 N1553 0.984 . S
H1559 N1553 0.985 . S
H1560 N1557 0.984 . S
H1561 N1557 0.985 . S
H1562 N1556 0.984 . S
H1563 N1556 0.984 . S
H1564 N1552 0.984 . S
H1565 N1552 0.985 . S
C1566 C1567 1.363 . S
C1566 C1572 1.379 . S
C1566 N1574 1.356 . S
C1567 C1566 1.363 . S
C1567 C1573 1.363 . S
C1568 C1569 1.363 . S
C1568 C1573 1.379 . S
C1568 N1575 1.356 . S
C1569 C1568 1.363 . S
C1569 C1572 1.363 . S
N1570 C1572 1.356 . S
N1570 H1582 0.984 . S
N1570 H1583 0.985 . S
N1571 C1573 1.356 . S
N1571 H1576 0.984 . S
N1571 H1577 0.985 . S
C1572 C1566 1.379 . S
C1572 C1569 1.363 . S
C1572 N1570 1.356 . S
C1573 C1567 1.363 . S
C1573 C1568 1.379 . S
C1573 N1571 1.356 . S
N1574 C1566 1.356 . S
N1574 H1580 0.984 . S
N1574 H1581 0.984 . S
N1575 C1568 1.356 . S
N1575 H1578 0.984 . S
N1575 H1579 0.985 . S
H1576 N1571 0.984 . S
H1577 N1571 0.985 . S
H1578 N1575 0.984 . S
H1579 N1575 0.985 . S
H1580 N1574 0.984 . S
H1581 N1574 0.984 . S
H1582 N1570 0.984 . S
H1583 N1570 0.985 . S
C1584 C1585 1.363 . S
C1584 C1590 1.379 . S
C1584 N1592 1.356 . S
C1585 C1584 1.363 . S
C1585 C1591 1.363 . S
C1586 C1587 1.363 . S
C1586 C1591 1.379 . S
C1586 N1593 1.356 . S
C1587 C1586 1.363 . S
C1587 C1590 1.363 . S
N1588 C1590 1.356 . S
N1588 H1600 0.984 . S
N1588 H1601 0.985 . S
N1589 C1591 1.356 . S
N1589 H1594 0.984 . S
N1589 H1595 0.985 . S
C1590 C1584 1.379 . S
C1590 C1587 1.363 . S
C1590 N1588 1.356 . S
C1591 C1585 1.363 . S
C1591 C1586 1.379 . S
C1591 N1589 1.356 . S
N1592 C1584 1.356 . S
N1592 H1598 0.984 . S
N1592 H1599 0.984 . S
N1593 C1586 1.356 . S
N1593 H1596 0.984 . S
N1593 H1597 0.985 . S
H1594 N1589 0.984 . S
H1595 N1589 0.985 . S
H1596 N1593 0.984 . S
H1597 N1593 0.985 . S
H1598 N1592 0.984 . S
H1599 N1592 0.984 . S
H1600 N1588 0.984 . S
H1601 N1588 0.985 . S
C1602 C1603 1.363 . S
C1602 C1608 1.379 . S
C1602 N1610 1.356 . S
C1603 C1602 1.363 . S
C1603 C1609 1.363 . S
C1604 C1605 1.363 . S
C1604 C1609 1.379 . S
C1604 N1611 1.356 . S
C1605 C1604 1.363 . S
C1605 C1608 1.363 . S
N1606 C1608 1.356 . S
N1606 H1618 0.984 . S
N1606 H1619 0.985 . S
N1607 C1609 1.356 . S
N1607 H1612 0.984 . S
N1607 H1613 0.985 . S
C1608 C1602 1.379 . S
C1608 C1605 1.363 . S
C1608 N1606 1.356 . S
C1609 C1603 1.363 . S
C1609 C1604 1.379 . S
C1609 N1607 1.356 . S
N1610 C1602 1.356 . S
N1610 H1616 0.984 . S
N1610 H1617 0.984 . S
N1611 C1604 1.356 . S
N1611 H1614 0.984 . S
N1611 H1615 0.985 . S
H1612 N1607 0.984 . S
H1613 N1607 0.985 . S
H1614 N1611 0.984 . S
H1615 N1611 0.985 . S
H1616 N1610 0.984 . S
H1617 N1610 0.984 . S
H1618 N1606 0.984 . S
H1619 N1606 0.985 . S
C1620 C1621 1.363 . S
C1620 C1626 1.379 . S
C1620 N1628 1.356 . S
C1621 C1620 1.363 . S
C1621 C1627 1.363 . S
C1622 C1623 1.363 . S
C1622 C1627 1.379 . S
C1622 N1629 1.356 . S
C1623 C1622 1.363 . S
C1623 C1626 1.363 . S
N1624 C1626 1.356 . S
N1624 H1636 0.984 . S
N1624 H1637 0.985 . S
N1625 C1627 1.356 . S
N1625 H1630 0.984 . S
N1625 H1631 0.985 . S
C1626 C1620 1.379 . S
C1626 C1623 1.363 . S
C1626 N1624 1.356 . S
C1627 C1621 1.363 . S
C1627 C1622 1.379 . S
C1627 N1625 1.356 . S
N1628 C1620 1.356 . S
N1628 H1634 0.984 . S
N1628 H1635 0.984 . S
N1629 C1622 1.356 . S
N1629 H1632 0.984 . S
N1629 H1633 0.985 . S
H1630 N1625 0.984 . S
H1631 N1625 0.985 . S
H1632 N1629 0.984 . S
H1633 N1629 0.985 . S
H1634 N1628 0.984 . S
H1635 N1628 0.984 . S
H1636 N1624 0.984 . S
H1637 N1624 0.985 . S
C1638 C1639 1.363 . S
C1638 C1644 1.379 . S
C1638 N1646 1.356 . S
C1639 C1638 1.363 . S
C1639 C1645 1.363 . S
C1640 C1641 1.363 . S
C1640 C1645 1.379 . S
C1640 N1647 1.356 . S
C1641 C1640 1.363 . S
C1641 C1644 1.363 . S
N1642 C1644 1.356 . S
N1642 H1654 0.984 . S
N1642 H1655 0.985 . S
N1643 C1645 1.356 . S
N1643 H1648 0.984 . S
N1643 H1649 0.985 . S
C1644 C1638 1.379 . S
C1644 C1641 1.363 . S
C1644 N1642 1.356 . S
C1645 C1639 1.363 . S
C1645 C1640 1.379 . S
C1645 N1643 1.356 . S
N1646 C1638 1.356 . S
N1646 H1652 0.984 . S
N1646 H1653 0.984 . S
N1647 C1640 1.356 . S
N1647 H1650 0.984 . S
N1647 H1651 0.985 . S
H1648 N1643 0.984 . S
H1649 N1643 0.985 . S
H1650 N1647 0.984 . S
H1651 N1647 0.985 . S
H1652 N1646 0.984 . S
H1653 N1646 0.984 . S
H1654 N1642 0.984 . S
H1655 N1642 0.985 . S
C1656 C1657 1.363 . S
C1656 C1662 1.379 . S
C1656 N1664 1.356 . S
C1657 C1656 1.363 . S
C1657 C1663 1.363 . S
C1658 C1659 1.363 . S
C1658 C1663 1.379 . S
C1658 N1665 1.356 . S
C1659 C1658 1.363 . S
C1659 C1662 1.363 . S
N1660 C1662 1.356 . S
N1660 H1672 0.984 . S
N1660 H1673 0.985 . S
N1661 C1663 1.356 . S
N1661 H1666 0.984 . S
N1661 H1667 0.985 . S
C1662 C1656 1.379 . S
C1662 C1659 1.363 . S
C1662 N1660 1.356 . S
C1663 C1657 1.363 . S
C1663 C1658 1.379 . S
C1663 N1661 1.356 . S
N1664 C1656 1.356 . S
N1664 H1670 0.984 . S
N1664 H1671 0.984 . S
N1665 C1658 1.356 . S
N1665 H1668 0.984 . S
N1665 H1669 0.985 . S
H1666 N1661 0.984 . S
H1667 N1661 0.985 . S
H1668 N1665 0.984 . S
H1669 N1665 0.985 . S
H1670 N1664 0.984 . S
H1671 N1664 0.984 . S
H1672 N1660 0.984 . S
H1673 N1660 0.985 . S
C1674 C1675 1.363 . S
C1674 C1680 1.379 . S
C1674 N1682 1.356 . S
C1675 C1674 1.363 . S
C1675 C1681 1.363 . S
C1676 C1677 1.363 . S
C1676 C1681 1.379 . S
C1676 N1683 1.356 . S
C1677 C1676 1.363 . S
C1677 C1680 1.363 . S
N1678 C1680 1.356 . S
N1678 H1690 0.984 . S
N1678 H1691 0.985 . S
N1679 C1681 1.356 . S
N1679 H1684 0.984 . S
N1679 H1685 0.985 . S
C1680 C1674 1.379 . S
C1680 C1677 1.363 . S
C1680 N1678 1.356 . S
C1681 C1675 1.363 . S
C1681 C1676 1.379 . S
C1681 N1679 1.356 . S
N1682 C1674 1.356 . S
N1682 H1688 0.984 . S
N1682 H1689 0.984 . S
N1683 C1676 1.356 . S
N1683 H1686 0.984 . S
N1683 H1687 0.985 . S
H1684 N1679 0.984 . S
H1685 N1679 0.985 . S
H1686 N1683 0.984 . S
H1687 N1683 0.985 . S
H1688 N1682 0.984 . S
H1689 N1682 0.984 . S
H1690 N1678 0.984 . S
H1691 N1678 0.985 . S
C1692 C1693 1.363 . S
C1692 C1698 1.379 . S
C1692 N1700 1.356 . S
C1693 C1692 1.363 . S
C1693 C1699 1.363 . S
C1694 C1695 1.363 . S
C1694 C1699 1.379 . S
C1694 N1701 1.356 . S
C1695 C1694 1.363 . S
C1695 C1698 1.363 . S
N1696 C1698 1.356 . S
N1696 H1708 0.984 . S
N1696 H1709 0.985 . S
N1697 C1699 1.356 . S
N1697 H1702 0.984 . S
N1697 H1703 0.985 . S
C1698 C1692 1.379 . S
C1698 C1695 1.363 . S
C1698 N1696 1.356 . S
C1699 C1693 1.363 . S
C1699 C1694 1.379 . S
C1699 N1697 1.356 . S
N1700 C1692 1.356 . S
N1700 H1706 0.984 . S
N1700 H1707 0.984 . S
N1701 C1694 1.356 . S
N1701 H1704 0.984 . S
N1701 H1705 0.985 . S
H1702 N1697 0.984 . S
H1703 N1697 0.985 . S
H1704 N1701 0.984 . S
H1705 N1701 0.985 . S
H1706 N1700 0.984 . S
H1707 N1700 0.984 . S
H1708 N1696 0.984 . S
H1709 N1696 0.985 . S
C1710 C1711 1.363 . S
C1710 C1716 1.379 . S
C1710 N1718 1.356 . S
C1711 C1710 1.363 . S
C1711 C1717 1.363 . S
C1712 C1713 1.363 . S
C1712 C1717 1.379 . S
C1712 N1719 1.356 . S
C1713 C1712 1.363 . S
C1713 C1716 1.363 . S
N1714 C1716 1.356 . S
N1714 H1726 0.984 . S
N1714 H1727 0.985 . S
N1715 C1717 1.356 . S
N1715 H1720 0.984 . S
N1715 H1721 0.985 . S
C1716 C1710 1.379 . S
C1716 C1713 1.363 . S
C1716 N1714 1.356 . S
C1717 C1711 1.363 . S
C1717 C1712 1.379 . S
C1717 N1715 1.356 . S
N1718 C1710 1.356 . S
N1718 H1724 0.984 . S
N1718 H1725 0.984 . S
N1719 C1712 1.356 . S
N1719 H1722 0.984 . S
N1719 H1723 0.985 . S
H1720 N1715 0.984 . S
H1721 N1715 0.985 . S
H1722 N1719 0.984 . S
H1723 N1719 0.985 . S
H1724 N1718 0.984 . S
H1725 N1718 0.984 . S
H1726 N1714 0.984 . S
H1727 N1714 0.985 . S
C865 C398 1.487 . S
C867 C14 1.439 . S
C883 C50 1.439 . S
C885 C290 1.487 . S
C901 C86 1.439 . S
C903 C326 1.487 . S
C919 C122 1.439 . S
C921 C362 1.487 . S
C937 C470 1.487 . S
C939 C158 1.439 . S
C955 C194 1.439 . S
C957 C506 1.487 . S
C973 C542 1.487 . S
C975 C230 1.439 . S
C991 C434 1.487 . S
C993 C266 1.439 . S
C1009 C182 1.487 . S
C1011 C302 1.439 . S
C1027 C218 1.487 . S
C1029 C338 1.439 . S
C1045 C374 1.439 . S
C1047 C254 1.487 . S
C1063 C146 1.487 . S
C1065 C410 1.439 . S
C1081 C110 1.487 . S
C1083 C446 1.439 . S
C1099 C482 1.439 . S
C1101 C2 1.487 . S
C1117 C518 1.439 . S
C1119 C38 1.487 . S
C1135 C554 1.439 . S
C1137 C74 1.487 . S
C1153 C590 1.439 . S
C1155 C830 1.487 . S
C1171 C722 1.487 . S
C1173 C626 1.439 . S
C1189 C662 1.439 . S
C1191 C614 1.487 . S
C1207 C698 1.439 . S
C1209 C650 1.487 . S
C1225 C686 1.487 . S
C1227 C734 1.439 . S
C1243 C770 1.439 . S
C1245 C794 1.487 . S
C1261 C578 1.487 . S
C1263 C806 1.439 . S
C1279 C758 1.487 . S
C1281 C842 1.439 . S
C1297 C3 1.514 . S
C1299 C219 1.514 . S
C1315 C39 1.514 . S
C1317 C255 1.514 . S
C1333 C75 1.514 . S
C1335 C147 1.514 . S
C1351 C183 1.514 . S
C1353 C111 1.514 . S
C1369 C363 1.514 . S
C1371 C291 1.514 . S
C1387 C327 1.514 . S
C1389 C399 1.514 . S
C1405 C435 1.514 . S
C1407 C507 1.514 . S
C1423 C543 1.514 . S
C1425 C471 1.514 . S
C1441 C615 1.514 . S
C1443 C579 1.514 . S
C1459 C651 1.514 . S
C1461 C831 1.514 . S
C1477 C687 1.514 . S
C1479 C759 1.514 . S
C1495 C723 1.514 . S
C1497 C795 1.514 . S
C1513 C4 1.145 . S
C1515 C184 1.145 . S
C1531 C40 1.145 . S
C1533 C220 1.145 . S
C1549 C76 1.145 . S
C1551 C256 1.145 . S
C1567 C148 1.145 . S
C1569 C112 1.145 . S
C1585 C292 1.145 . S
C1587 C832 1.145 . S
C1603 C328 1.145 . S
C1605 C760 1.145 . S
C1621 C796 1.145 . S
C1623 C364 1.145 . S
C1639 C400 1.145 . S
C1641 C580 1.145 . S
C1657 C724 1.145 . S
C1659 C436 1.145 . S
C1675 C616 1.145 . S
C1677 C472 1.145 . S
C1693 C508 1.145 . S
C1695 C652 1.145 . S
C1711 C688 1.145 . S
C1713 C544 1.145 . S
