# Generated by pormake.
# Topology uoy, (4)-cn, num edge types: 1
# Building blocks:
#     Node 0, Type 0, BuildingBlock: UXUYUI_clean_sbu_0, # of connection points: 4
#     Node 1, Type 0, BuildingBlock: UXUYUI_clean_sbu_0, # of connection points: 4
#     Node 2, Type 0, BuildingBlock: UXUYUI_clean_sbu_0, # of connection points: 4
#     Node 3, Type 0, BuildingBlock: UXUYUI_clean_sbu_0, # of connection points: 4
#     Node 4, Type 0, BuildingBlock: UXUYUI_clean_sbu_0, # of connection points: 4
#     Node 5, Type 0, BuildingBlock: UXUYUI_clean_sbu_0, # of connection points: 4
#     Node 6, Type 0, BuildingBlock: UXUYUI_clean_sbu_0, # of connection points: 4
#     Node 7, Type 0, BuildingBlock: UXUYUI_clean_sbu_0, # of connection points: 4
#     Node 8, Type 0, BuildingBlock: UXUYUI_clean_sbu_0, # of connection points: 4
#     Node 9, Type 0, BuildingBlock: UXUYUI_clean_sbu_0, # of connection points: 4
#     Node 10, Type 0, BuildingBlock: UXUYUI_clean_sbu_0, # of connection points: 4
#     Node 11, Type 0, BuildingBlock: UXUYUI_clean_sbu_0, # of connection points: 4
#     Node 12, Type 0, BuildingBlock: UXUYUI_clean_sbu_0, # of connection points: 4
#     Node 13, Type 0, BuildingBlock: UXUYUI_clean_sbu_0, # of connection points: 4
#     Node 14, Type 0, BuildingBlock: UXUYUI_clean_sbu_0, # of connection points: 4
#     Node 15, Type 0, BuildingBlock: UXUYUI_clean_sbu_0, # of connection points: 4
#     Edge 16, Type (0, 0), None
#     Edge 17, Type (0, 0), None
#     Edge 18, Type (0, 0), None
#     Edge 19, Type (0, 0), None
#     Edge 20, Type (0, 0), None
#     Edge 21, Type (0, 0), None
#     Edge 22, Type (0, 0), None
#     Edge 23, Type (0, 0), None
#     Edge 24, Type (0, 0), None
#     Edge 25, Type (0, 0), None
#     Edge 26, Type (0, 0), None
#     Edge 27, Type (0, 0), None
#     Edge 28, Type (0, 0), None
#     Edge 29, Type (0, 0), None
#     Edge 30, Type (0, 0), None
#     Edge 31, Type (0, 0), None
#     Edge 32, Type (0, 0), None
#     Edge 33, Type (0, 0), None
#     Edge 34, Type (0, 0), None
#     Edge 35, Type (0, 0), None
#     Edge 36, Type (0, 0), None
#     Edge 37, Type (0, 0), None
#     Edge 38, Type (0, 0), None
#     Edge 39, Type (0, 0), None
#     Edge 40, Type (0, 0), None
#     Edge 41, Type (0, 0), None
#     Edge 42, Type (0, 0), None
#     Edge 43, Type (0, 0), None
#     Edge 44, Type (0, 0), None
#     Edge 45, Type (0, 0), None
#     Edge 46, Type (0, 0), None
#     Edge 47, Type (0, 0), None
# Relax obj value: 0.195
# Max RMSD: 0.201
# Mean RMSD: 0.200
data_MOF--net-uoy--node1-UXUYUI_clean_sbu_0--edge1-none
_symmetry_space_group_name_H-M    P1
_symmetry_Int_Tables_number       1
_symmetry_cell_setting            triclinic
loop_
_symmetry_equiv_pos_as_xyz
'x, y, z'
_cell_length_a     25.042562
_cell_length_b     25.042897
_cell_length_c     97.856918
_cell_angle_alpha  89.999982
_cell_angle_beta   89.996085
_cell_angle_gamma 90.000763
loop_
_atom_site_label
_atom_site_type_symbol
_atom_site_fract_x
_atom_site_fract_y
_atom_site_fract_z
_atom_type_partial_charge
Li0 Li 0.3005 0.08156 0.18546 0.0
Li1 Li 0.25535 0.14873 0.1999 0.0
Li2 Li 0.2009 0.086 0.18678 0.0
Li3 Li 0.25214 0.15249 0.17486 0.0
C4 C 0.24306 0.01951 0.20609 0.0
N5 N 0.21936 0.91705 0.21458 0.0
C6 C 0.22254 0.01069 0.21917 0.0
C7 C 0.2513 0.97633 0.19729 0.0
C8 C 0.21087 0.95855 0.22328 0.0
C9 C 0.23916 0.9248 0.20178 0.0
C10 C 0.36736 0.16402 0.19025 0.0
C11 C 0.45782 0.18892 0.18469 0.0
N12 N 0.47459 0.16849 0.19683 0.0
C13 C 0.38547 0.14351 0.20271 0.0
C14 C 0.40377 0.1871 0.18118 0.0
C15 C 0.43983 0.14608 0.20584 0.0
C16 C 0.39623 0.05191 0.17271 0.0
N17 N 0.36647 0.04281 0.18411 0.0
C18 C 0.44066 1.00019 0.195 0.0
C19 C 0.38728 0.01676 0.19508 0.0
C20 C 0.47275 0.0104 0.1835 0.0
C21 C 0.44952 0.03553 0.17214 0.0
H22 H 0.37957 0.07493 0.1644 0.0
H23 H 0.36346 0.01166 0.20421 0.0
C24 C 0.2213 0.17125 0.22648 0.0
N25 N 0.25816 0.18514 0.21695 0.0
C26 C 0.22618 0.18936 0.23993 0.0
C27 C 0.3057 0.23748 0.23332 0.0
C28 C 0.29848 0.21947 0.21994 0.0
C29 C 0.2702 0.22114 0.24369 0.0
H30 H 0.18919 0.1444 0.22375 0.0
H31 H 0.32666 0.23085 0.21211 0.0
C32 C 0.23536 0.07455 0.15701 0.0
N33 N 0.21225 0.07906 0.12942 0.0
C34 C 0.18638 0.09493 0.15255 0.0
C35 C 0.27229 0.05582 0.14743 0.0
C36 C 0.17553 0.09705 0.13856 0.0
C37 C 0.25992 0.0586 0.13353 0.0
C38 C 0.17882 0.21693 0.18921 0.0
C39 C 0.1253 0.23158 0.19068 0.0
C40 C 0.21834 0.25638 0.189 0.0
C41 C 0.1121 0.28558 0.19187 0.0
C42 C 0.20351 0.30994 0.19021 0.0
N43 N 0.15116 0.32332 0.19161 0.0
C44 C 0.10354 0.05821 0.19909 0.0
C45 C 0.11438 0.02118 0.17697 0.0
C46 C 0.05116 0.03897 0.19979 0.0
N47 N 0.1337 0.04964 0.18773 0.0
C48 C 0.06182 1.00228 0.17712 0.0
C49 C 0.02937 0.01172 0.18857 0.0
H50 H 0.11977 0.08136 0.20745 0.0
H51 H 0.1392 0.01432 0.16812 0.0
C52 C 0.29845 0.19094 0.1509 0.0
N53 N 0.25389 0.19534 0.15875 0.0
C54 C 0.30017 0.21405 0.13794 0.0
C55 C 0.21026 0.24647 0.14143 0.0
C56 C 0.21033 0.22284 0.15435 0.0
C57 C 0.25536 0.24156 0.13297 0.0
H58 H 0.33169 0.16719 0.15446 0.0
H59 H 0.17478 0.22445 0.1606 0.0
O60 O 0.2537 0.07033 0.2018 0.0
O61 O 0.31456 0.15995 0.18678 0.0
O62 O 0.24729 0.07356 0.17066 0.0
O63 O 0.19203 0.16412 0.18807 0.0
H64 H 0.21563 0.04378 0.22606 0.0
H65 H 0.26669 0.98257 0.18708 0.0
H66 H 0.19499 0.95109 0.23338 0.0
H67 H 0.24535 0.89098 0.19509 0.0
H68 H 0.48647 0.2065 0.17775 0.0
H69 H 0.35792 0.12489 0.20978 0.0
H70 H 0.39051 0.20333 0.17152 0.0
H71 H 0.45442 0.12995 0.21539 0.0
H72 H 0.45698 0.98056 0.20393 0.0
H73 H 0.47301 0.04477 0.16315 0.0
H74 H 0.19664 0.17698 0.24735 0.0
H75 H 0.34053 0.26149 0.23555 0.0
H76 H 0.15751 0.11003 0.15983 0.0
H77 H 0.31007 0.0393 0.15069 0.0
H78 H 0.13804 0.1133 0.13497 0.0
H79 H 0.28824 0.04449 0.126 0.0
H80 H 0.09428 0.20146 0.19089 0.0
H81 H 0.25997 0.24599 0.18787 0.0
H82 H 0.07082 0.2975 0.193 0.0
H83 H 0.23365 0.34089 0.19005 0.0
H84 H 0.02732 0.04695 0.2088 0.0
H85 H 0.04657 0.98072 0.16835 0.0
H86 H 0.33542 0.20867 0.13168 0.0
H87 H 0.17505 0.26776 0.13802 0.0
Li88 Li 0.92388 0.79976 0.4356 0.0
Li89 Li 0.85678 0.75505 0.44987 0.0
Li90 Li 0.91953 0.70011 0.43674 0.0
Li91 Li 0.85297 0.75193 0.42486 0.0
C92 C 0.98695 0.74524 0.45587 0.0
N93 N 0.09139 0.72886 0.4639 0.0
C94 C 0.99837 0.73008 0.46929 0.0
C95 C 0.02855 0.75182 0.4465 0.0
C96 C 0.05146 0.72205 0.47316 0.0
C97 C 0.08112 0.74346 0.45077 0.0
C98 C 0.84166 0.86697 0.44039 0.0
C99 C 0.81707 0.95765 0.43498 0.0
N100 N 0.83725 0.97399 0.44719 0.0
C101 C 0.86192 0.88464 0.45292 0.0
C102 C 0.81888 0.9037 0.43136 0.0
C103 C 0.85938 0.9389 0.45616 0.0
C104 C 0.95397 0.89536 0.42289 0.0
N105 N 0.96283 0.86571 0.43431 0.0
C106 C 0.00528 0.94002 0.4452 0.0
C107 C 0.98866 0.88665 0.44531 0.0
C108 C 0.99532 0.97198 0.43366 0.0
C109 C 0.97039 0.94863 0.42229 0.0
H110 H 0.93107 0.87863 0.41456 0.0
H111 H 0.99354 0.86299 0.45446 0.0
C112 C 0.83515 0.72146 0.47649 0.0
N113 N 0.82041 0.7578 0.46691 0.0
C114 C 0.81718 0.72637 0.48994 0.0
C115 C 0.76763 0.80491 0.48327 0.0
C116 C 0.78549 0.79764 0.46987 0.0
C117 C 0.78476 0.76996 0.49367 0.0
H118 H 0.86261 0.68983 0.47378 0.0
H119 H 0.77359 0.82547 0.46201 0.0
C120 C 0.93101 0.73516 0.40702 0.0
N121 N 0.92672 0.71239 0.37941 0.0
C122 C 0.91035 0.68637 0.40251 0.0
C123 C 0.95013 0.77206 0.39749 0.0
C124 C 0.90835 0.67569 0.38851 0.0
C125 C 0.94747 0.75987 0.38357 0.0
C126 C 0.78848 0.67848 0.43918 0.0
C127 C 0.77386 0.62497 0.44069 0.0
C128 C 0.74901 0.71798 0.43895 0.0
C129 C 0.71987 0.61176 0.4419 0.0
C130 C 0.69546 0.70314 0.44019 0.0
N131 N 0.68211 0.65079 0.44163 0.0
C132 C 0.94764 0.60296 0.44906 0.0
C133 C 0.98359 0.61321 0.42681 0.0
C134 C 0.96683 0.55056 0.44979 0.0
N135 N 0.95568 0.63282 0.43763 0.0
C136 C 1.00244 0.56064 0.42698 0.0
C137 C 0.99352 0.52847 0.43851 0.0
H138 H 0.92497 0.61944 0.45748 0.0
H139 H 0.99012 0.63783 0.41791 0.0
C140 C 0.81459 0.79844 0.40092 0.0
N141 N 0.81015 0.75386 0.40875 0.0
C142 C 0.79148 0.80023 0.38795 0.0
C143 C 0.75897 0.71033 0.39142 0.0
C144 C 0.7826 0.71035 0.40435 0.0
C145 C 0.76393 0.75545 0.38298 0.0
H146 H 0.83835 0.83167 0.40449 0.0
H147 H 0.78096 0.67478 0.41058 0.0
O148 O 0.93511 0.75223 0.45188 0.0
O149 O 0.84569 0.81427 0.43681 0.0
O150 O 0.93187 0.74694 0.42068 0.0
O151 O 0.84127 0.69173 0.43802 0.0
H152 H 0.9665 0.72447 0.47663 0.0
H153 H 0.02039 0.76319 0.43604 0.0
H154 H 0.06093 0.71031 0.48352 0.0
H155 H 0.11374 0.74847 0.44364 0.0
H156 H 0.79973 0.98655 0.42807 0.0
H157 H 0.88035 0.85683 0.45995 0.0
H158 H 0.80287 0.89078 0.42165 0.0
H159 H 0.87532 0.95316 0.46576 0.0
H160 H 0.02475 0.95642 0.45415 0.0
H161 H 0.96132 0.97201 0.41327 0.0
H162 H 0.83021 0.69723 0.49739 0.0
H163 H 0.74313 0.83942 0.48547 0.0
H164 H 0.89495 0.65753 0.40975 0.0
H165 H 0.9669 0.80969 0.40079 0.0
H166 H 0.89189 0.63837 0.38488 0.0
H167 H 0.96188 0.78818 0.37608 0.0
H168 H 0.804 0.59397 0.44092 0.0
H169 H 0.75939 0.7596 0.43779 0.0
H170 H 0.70798 0.57048 0.44306 0.0
H171 H 0.66449 0.73325 0.44001 0.0
H172 H 0.95927 0.52695 0.45886 0.0
H173 H 0.0236 0.54517 0.41817 0.0
H174 H 0.79688 0.83549 0.3817 0.0
H175 H 0.73764 0.67515 0.38801 0.0
Li176 Li 0.20365 0.42471 0.68541 0.0
Li177 Li 0.24935 0.35741 0.70003 0.0
Li178 Li 0.30288 0.41998 0.68702 0.0
Li179 Li 0.25277 0.35376 0.67494 0.0
C180 C 0.26591 0.48502 0.70629 0.0
N181 N 0.30216 0.58379 0.71474 0.0
C182 C 0.29281 0.49014 0.71873 0.0
C183 C 0.25742 0.53005 0.69814 0.0
C184 C 0.31085 0.54045 0.72283 0.0
C185 C 0.27605 0.57966 0.7026 0.0
C186 C 0.13722 0.34181 0.69008 0.0
C187 C 0.04724 0.31602 0.68428 0.0
N188 N 0.02965 0.337 0.69628 0.0
C189 C 0.11827 0.36284 0.7024 0.0
C190 C 0.10148 0.31801 0.68096 0.0
C191 C 0.06376 0.3601 0.70534 0.0
C192 C 0.10778 0.45362 0.67255 0.0
N193 N 0.13768 0.46321 0.68389 0.0
C194 C 0.06366 0.50628 0.69474 0.0
C195 C 0.11707 0.48979 0.69481 0.0
C196 C 0.0314 0.49551 0.6833 0.0
C197 C 0.05447 0.46993 0.67199 0.0
H198 H 0.12436 0.4303 0.66428 0.0
H199 H 0.14112 0.4954 0.70388 0.0
C200 C 0.28424 0.33256 0.72645 0.0
N201 N 0.24637 0.32046 0.71701 0.0
C202 C 0.27936 0.31415 0.73987 0.0
C203 C 0.19798 0.26896 0.73339 0.0
C204 C 0.20512 0.28731 0.72004 0.0
C205 C 0.23447 0.28372 0.74368 0.0
H206 H 0.31725 0.35818 0.72366 0.0
H207 H 0.17627 0.27707 0.71227 0.0
C208 C 0.27012 0.43169 0.65718 0.0
N209 N 0.2948 0.4271 0.62968 0.0
C210 C 0.31976 0.41227 0.65292 0.0
C211 C 0.2333 0.44938 0.64745 0.0
C212 C 0.33141 0.41011 0.63897 0.0
C213 C 0.24647 0.44659 0.63359 0.0
C214 C 0.3257 0.28929 0.68931 0.0
C215 C 0.3792 0.27455 0.69078 0.0
C216 C 0.28614 0.24989 0.68902 0.0
C217 C 0.39233 0.2205 0.69189 0.0
C218 C 0.3009 0.19628 0.69017 0.0
N219 N 0.35323 0.18282 0.69157 0.0
C220 C 0.40161 0.44512 0.69898 0.0
C221 C 0.38824 0.48729 0.67757 0.0
C222 C 0.45397 0.46444 0.69962 0.0
N223 N 0.37016 0.45633 0.68801 0.0
C224 C 0.44077 0.50632 0.67763 0.0
C225 C 0.47444 0.49439 0.68869 0.0
H226 H 0.38642 0.41988 0.70707 0.0
H227 H 0.36246 0.49596 0.669 0.0
C228 C 0.20693 0.3152 0.65094 0.0
N229 N 0.25147 0.31107 0.6588 0.0
C230 C 0.20539 0.29205 0.63798 0.0
C231 C 0.2955 0.26024 0.64148 0.0
C232 C 0.29525 0.28391 0.6544 0.0
C233 C 0.25037 0.26478 0.63302 0.0
H234 H 0.17352 0.33874 0.65449 0.0
H235 H 0.33078 0.28253 0.66066 0.0
O236 O 0.24903 0.436 0.70193 0.0
O237 O 0.1902 0.34605 0.68679 0.0
O238 O 0.25742 0.43265 0.67078 0.0
O239 O 0.3126 0.34216 0.68824 0.0
H240 H 0.29983 0.45564 0.72514 0.0
H241 H 0.23702 0.52663 0.68843 0.0
H242 H 0.3318 0.54503 0.73242 0.0
H243 H 0.26986 0.61486 0.69639 0.0
H244 H 0.01911 0.29788 0.67729 0.0
H245 H 0.14532 0.38193 0.70951 0.0
H246 H 0.11539 0.3013 0.67142 0.0
H247 H 0.04852 0.37663 0.71478 0.0
H248 H 0.04747 0.5263 0.70363 0.0
H249 H 0.03084 0.46033 0.66305 0.0
H250 H 0.3096 0.32523 0.74724 0.0
H251 H 0.16252 0.24596 0.73568 0.0
H252 H 0.34855 0.39795 0.66032 0.0
H253 H 0.19494 0.46504 0.65055 0.0
H254 H 0.36943 0.39461 0.63554 0.0
H255 H 0.21823 0.45989 0.62595 0.0
H256 H 0.41025 0.30462 0.69105 0.0
H257 H 0.24453 0.26033 0.6879 0.0
H258 H 0.43359 0.20851 0.69302 0.0
H259 H 0.27074 0.16538 0.68994 0.0
H260 H 0.47882 0.45443 0.70831 0.0
H261 H 0.45507 0.52988 0.6691 0.0
H262 H 0.17011 0.29718 0.63172 0.0
H263 H 0.33085 0.23915 0.63809 0.0
Li264 Li 0.64845 0.74988 0.94996 0.0
Li265 Li 0.58123 0.70425 0.93536 0.0
Li266 Li 0.6522 0.75321 0.92488 0.0
Li267 Li 0.58585 0.80363 0.9369 0.0
C268 C 0.66404 0.6378 0.94014 0.0
N269 N 0.66883 0.53039 0.94651 0.0
C270 C 0.64312 0.61919 0.9525 0.0
C271 C 0.68771 0.60181 0.93106 0.0
C272 C 0.64585 0.56474 0.95552 0.0
C273 C 0.68968 0.54766 0.93446 0.0
C274 C 0.52035 0.76521 0.9562 0.0
C275 C 0.42558 0.77331 0.95241 0.0
N276 N 0.42047 0.79792 0.96473 0.0
C277 C 0.51423 0.7906 0.96882 0.0
C278 C 0.47577 0.75651 0.94791 0.0
C279 C 0.46336 0.80683 0.97295 0.0
C280 C 0.67239 0.78448 0.97644 0.0
N281 N 0.68516 0.74697 0.96697 0.0
C282 C 0.73689 0.69886 0.98335 0.0
C283 C 0.71873 0.70605 0.96999 0.0
C284 C 0.72149 0.73496 0.99367 0.0
C285 C 0.69061 0.77956 0.98988 0.0
H286 H 0.64636 0.81719 0.97367 0.0
H287 H 0.72943 0.67746 0.9622 0.0
C288 C 0.55226 0.60834 0.92256 0.0
N289 N 0.54272 0.63825 0.9339 0.0
C290 C 0.53596 0.55502 0.922 0.0
C291 C 0.49979 0.5642 0.94477 0.0
C292 C 0.51626 0.61761 0.94483 0.0
C293 C 0.51048 0.53194 0.93333 0.0
H294 H 0.57552 0.62491 0.91428 0.0
H295 H 0.51074 0.64164 0.95391 0.0
C296 C 0.71661 0.82628 0.93925 0.0
N297 N 0.82306 0.85385 0.94154 0.0
C298 C 0.73134 0.87979 0.94069 0.0
C299 C 0.75602 0.78672 0.93901 0.0
C300 C 0.78537 0.89294 0.94182 0.0
C301 C 0.80961 0.8015 0.94017 0.0
C302 C 0.57433 0.77018 0.90706 0.0
C303 C 0.59414 0.81954 0.90271 0.0
C304 C 0.5563 0.73323 0.89741 0.0
C305 C 0.59637 0.83077 0.88874 0.0
C306 C 0.55916 0.74598 0.88352 0.0
N307 N 0.57905 0.79404 0.87951 0.0
C308 C 0.6908 0.70708 0.90093 0.0
C309 C 0.72233 0.79534 0.90435 0.0
C310 C 0.71397 0.70537 0.88798 0.0
N311 N 0.69501 0.75169 0.90876 0.0
C312 C 0.74603 0.79543 0.89143 0.0
C313 C 0.74136 0.75024 0.883 0.0
H314 H 0.66717 0.67376 0.9045 0.0
H315 H 0.72379 0.83092 0.91059 0.0
C316 C 0.55949 0.90171 0.94904 0.0
N317 N 0.54945 0.87086 0.93789 0.0
C318 C 0.54019 0.95407 0.94972 0.0
C319 C 0.50066 0.94208 0.92741 0.0
C320 C 0.51963 0.88953 0.9273 0.0
C321 C 0.51146 0.97516 0.93866 0.0
H322 H 0.58382 0.88606 0.95725 0.0
H323 H 0.51178 0.86421 0.91859 0.0
O324 O 0.65981 0.69069 0.93676 0.0
O325 O 0.56991 0.75003 0.95183 0.0
O326 O 0.66376 0.81314 0.93815 0.0
O327 O 0.57329 0.75788 0.92069 0.0
H328 H 0.6241 0.64642 0.95958 0.0
H329 H 0.70431 0.61546 0.92147 0.0
H330 H 0.6294 0.54976 0.965 0.0
H331 H 0.70772 0.51933 0.92751 0.0
H332 H 0.39071 0.76691 0.9461 0.0
H333 H 0.54839 0.79779 0.97533 0.0
H334 H 0.47996 0.7373 0.93806 0.0
H335 H 0.45799 0.82657 0.98269 0.0
H336 H 0.76026 0.66362 0.98562 0.0
H337 H 0.67901 0.80953 0.99727 0.0
H338 H 0.54552 0.53139 0.91306 0.0
H339 H 0.47985 0.548 0.95368 0.0
H340 H 0.70125 0.91084 0.94091 0.0
H341 H 0.74558 0.7451 0.9379 0.0
H342 H 0.79734 0.93422 0.94293 0.0
H343 H 0.84053 0.77133 0.93999 0.0
H344 H 0.60871 0.84843 0.91005 0.0
H345 H 0.54029 0.69512 0.90058 0.0
H346 H 0.61217 0.86856 0.88523 0.0
H347 H 0.54559 0.71765 0.87594 0.0
H348 H 0.70876 0.67005 0.88173 0.0
H349 H 0.76721 0.83069 0.88802 0.0
H350 H 0.54929 0.97845 0.95857 0.0
H351 H 0.47801 0.95684 0.91877 0.0
Li352 Li 0.25206 0.35287 0.07702 0.0
Li353 Li 0.20015 0.41949 0.06512 0.0
Li354 Li 0.25523 0.35667 0.05204 0.0
Li355 Li 0.29972 0.42371 0.06621 0.0
C356 C 0.17856 0.28842 0.06271 0.0
N357 N 0.15074 0.18209 0.06028 0.0
C358 C 0.12505 0.27389 0.06114 0.0
C359 C 0.21798 0.24889 0.06301 0.0
C360 C 0.11177 0.21991 0.05994 0.0
C361 C 0.20308 0.19536 0.06178 0.0
C362 C 0.23492 0.43103 0.09481 0.0
C363 C 0.25914 0.44752 0.11829 0.0
N364 N 0.21146 0.42702 0.12239 0.0
C365 C 0.18594 0.4106 0.09925 0.0
C366 C 0.27168 0.45003 0.10439 0.0
C367 C 0.1749 0.40875 0.11323 0.0
C368 C 0.29849 0.31454 0.10098 0.0
N369 N 0.25389 0.31019 0.09316 0.0
C370 C 0.21019 0.2593 0.11052 0.0
C371 C 0.21027 0.28284 0.09758 0.0
C372 C 0.25535 0.26414 0.11895 0.0
C373 C 0.30021 0.29151 0.11396 0.0
H374 H 0.3318 0.33814 0.0974 0.0
H375 H 0.1747 0.28128 0.09135 0.0
C376 C 0.10251 0.44663 0.05296 0.0
N377 N 0.13281 0.45551 0.06427 0.0
C378 C 0.05007 0.46573 0.05228 0.0
C379 C 0.06101 0.50296 0.07489 0.0
C380 C 0.11361 0.48416 0.07501 0.0
C381 C 0.0284 0.49321 0.06348 0.0
H382 H 0.11868 0.42338 0.04461 0.0
H383 H 0.13858 0.49132 0.08382 0.0
C384 C 0.36708 0.34164 0.06145 0.0
N385 N 0.47403 0.33732 0.05457 0.0
C386 C 0.38457 0.36181 0.0489 0.0
C387 C 0.40397 0.31901 0.07047 0.0
C388 C 0.43879 0.35931 0.04562 0.0
C389 C 0.45787 0.31724 0.06681 0.0
C390 C 0.2469 0.48734 0.04614 0.0
C391 C 0.2358 0.5002 0.03254 0.0
C392 C 0.25166 0.52802 0.05585 0.0
C393 C 0.22987 0.55376 0.02885 0.0
C394 C 0.24549 0.58109 0.05174 0.0
N395 N 0.23481 0.59275 0.03844 0.0
C396 C 0.22183 0.33503 0.02541 0.0
C397 C 0.29766 0.28497 0.03209 0.0
C398 C 0.22673 0.31693 0.01197 0.0
N399 N 0.25799 0.32013 0.03502 0.0
C400 C 0.30495 0.267 0.01871 0.0
C401 C 0.27017 0.28423 0.00828 0.0
H402 H 0.19036 0.36272 0.02809 0.0
H403 H 0.32538 0.27299 0.03998 0.0
C404 C 0.39514 0.45415 0.07894 0.0
N405 N 0.3656 0.46282 0.06749 0.0
C406 C 0.44836 0.47074 0.07957 0.0
C407 C 0.43992 0.50539 0.05663 0.0
C408 C 0.3866 0.4886 0.05649 0.0
C409 C 0.47177 0.49564 0.0682 0.0
H410 H 0.37838 0.4313 0.08727 0.0
H411 H 0.36306 0.49333 0.04731 0.0
O412 O 0.19188 0.3412 0.06387 0.0
O413 O 0.24705 0.4317 0.08117 0.0
O414 O 0.31442 0.34561 0.06508 0.0
O415 O 0.25206 0.43502 0.0499 0.0
H416 H 0.0941 0.30408 0.06087 0.0
H417 H 0.2596 0.25922 0.06422 0.0
H418 H 0.07049 0.20808 0.05873 0.0
H419 H 0.23314 0.16435 0.06201 0.0
H420 H 0.28733 0.46185 0.12581 0.0
H421 H 0.15721 0.39527 0.09197 0.0
H422 H 0.30947 0.46658 0.10114 0.0
H423 H 0.13741 0.39248 0.11681 0.0
H424 H 0.17495 0.23812 0.11394 0.0
H425 H 0.33551 0.29681 0.1202 0.0
H426 H 0.02611 0.4575 0.04331 0.0
H427 H 0.04588 0.52474 0.08364 0.0
H428 H 0.35665 0.38014 0.04188 0.0
H429 H 0.39119 0.30309 0.08021 0.0
H430 H 0.4529 0.37517 0.03599 0.0
H431 H 0.48688 0.30001 0.07371 0.0
H432 H 0.23172 0.46907 0.02493 0.0
H433 H 0.26007 0.51884 0.06643 0.0
H434 H 0.22128 0.56432 0.01836 0.0
H435 H 0.24915 0.61301 0.05913 0.0
H436 H 0.1977 0.33006 0.0045 0.0
H437 H 0.33934 0.24229 0.01654 0.0
H438 H 0.47166 0.46181 0.08861 0.0
H439 H 0.45636 0.52483 0.04768 0.0
Li440 Li 0.6525 0.75216 0.32705 0.0
Li441 Li 0.58592 0.70029 0.31516 0.0
Li442 Li 0.64874 0.75529 0.30206 0.0
Li443 Li 0.58166 0.7999 0.31627 0.0
C444 C 0.71698 0.67868 0.31274 0.0
N445 N 0.82333 0.65091 0.3103 0.0
C446 C 0.73155 0.62517 0.31119 0.0
C447 C 0.75649 0.71813 0.31302 0.0
C448 C 0.78554 0.61192 0.30998 0.0
C449 C 0.81003 0.70326 0.31178 0.0
C450 C 0.5744 0.73513 0.34485 0.0
C451 C 0.55807 0.75949 0.36833 0.0
N452 N 0.57858 0.71184 0.37244 0.0
C453 C 0.59484 0.68617 0.3493 0.0
C454 C 0.55547 0.77195 0.35442 0.0
C455 C 0.59678 0.67522 0.36329 0.0
C456 C 0.69091 0.79862 0.351 0.0
N457 N 0.69522 0.75401 0.34317 0.0
C458 C 0.74618 0.71032 0.36052 0.0
C459 C 0.7226 0.7104 0.34759 0.0
C460 C 0.74136 0.75547 0.36896 0.0
C461 C 0.71398 0.80034 0.36397 0.0
H462 H 0.66728 0.83192 0.34742 0.0
H463 H 0.72414 0.67483 0.34136 0.0
C464 C 0.55857 0.60275 0.30296 0.0
N465 N 0.54984 0.63298 0.31429 0.0
C466 C 0.53942 0.55033 0.30227 0.0
C467 C 0.50243 0.56116 0.32491 0.0
C468 C 0.52127 0.61374 0.32504 0.0
C469 C 0.51204 0.52861 0.31348 0.0
H470 H 0.58175 0.61896 0.2946 0.0
H471 H 0.51423 0.63865 0.33386 0.0
C472 C 0.66381 0.86717 0.31149 0.0
N473 N 0.6682 0.97414 0.30463 0.0
C474 C 0.64361 0.88473 0.29895 0.0
C475 C 0.68651 0.90401 0.32051 0.0
C476 C 0.64615 0.93896 0.29568 0.0
C477 C 0.68831 0.95792 0.31686 0.0
C478 C 0.51833 0.74621 0.29609 0.0
C479 C 0.50621 0.73286 0.28258 0.0
C480 C 0.47716 0.75204 0.30562 0.0
C481 C 0.45288 0.72584 0.27879 0.0
C482 C 0.42435 0.74474 0.30143 0.0
N483 N 0.4134 0.7319 0.28821 0.0
C484 C 0.67039 0.72172 0.27544 0.0
C485 C 0.72027 0.79773 0.28208 0.0
C486 C 0.68845 0.72656 0.262 0.0
N487 N 0.68521 0.758 0.28503 0.0
C488 C 0.73822 0.80495 0.26869 0.0
C489 C 0.72104 0.77005 0.25828 0.0
H490 H 0.64279 0.69019 0.27814 0.0
H491 H 0.73221 0.82553 0.28995 0.0
C492 C 0.55137 0.89538 0.32899 0.0
N493 N 0.54262 0.86581 0.31755 0.0
C494 C 0.53485 0.94862 0.32961 0.0
C495 C 0.5001 0.94013 0.30668 0.0
C496 C 0.51683 0.8868 0.30655 0.0
C497 C 0.50992 0.97202 0.31824 0.0
H498 H 0.57425 0.87863 0.33731 0.0
H499 H 0.51204 0.86321 0.29738 0.0
O500 O 0.6642 0.69197 0.3139 0.0
O501 O 0.57363 0.74717 0.3312 0.0
O502 O 0.6598 0.81451 0.3151 0.0
O503 O 0.5704 0.75228 0.29997 0.0
H504 H 0.70138 0.5942 0.31093 0.0
H505 H 0.74614 0.75975 0.31421 0.0
H506 H 0.79739 0.57065 0.30879 0.0
H507 H 0.84102 0.73334 0.31199 0.0
H508 H 0.54379 0.78773 0.37585 0.0
H509 H 0.61011 0.65739 0.34203 0.0
H510 H 0.53889 0.80972 0.35117 0.0
H511 H 0.61307 0.63775 0.36688 0.0
H512 H 0.76737 0.67508 0.36394 0.0
H513 H 0.70869 0.83564 0.37022 0.0
H514 H 0.54755 0.52642 0.29328 0.0
H515 H 0.48073 0.54599 0.33366 0.0
H516 H 0.62524 0.85685 0.29192 0.0
H517 H 0.70245 0.89118 0.33024 0.0
H518 H 0.63026 0.95312 0.28606 0.0
H519 H 0.7056 0.98689 0.32376 0.0
H520 H 0.53773 0.72788 0.27511 0.0
H521 H 0.48582 0.76208 0.31614 0.0
H522 H 0.44289 0.71551 0.26837 0.0
H523 H 0.39206 0.7492 0.30868 0.0
H524 H 0.67536 0.69746 0.25454 0.0
H525 H 0.76284 0.83938 0.2665 0.0
H526 H 0.54383 0.97195 0.33864 0.0
H527 H 0.48065 0.95657 0.29774 0.0
Li528 Li 0.25391 0.1529 0.57713 0.0
Li529 Li 0.30577 0.08621 0.56524 0.0
Li530 Li 0.25074 0.14902 0.55215 0.0
Li531 Li 0.20616 0.08206 0.56635 0.0
C532 C 0.32744 0.21726 0.56281 0.0
N533 N 0.35531 0.32357 0.56035 0.0
C534 C 0.38097 0.23176 0.56125 0.0
C535 C 0.28803 0.2568 0.56308 0.0
C536 C 0.39427 0.28574 0.56003 0.0
C537 C 0.30295 0.31032 0.56183 0.0
C538 C 0.27077 0.07477 0.59495 0.0
C539 C 0.24626 0.05813 0.6184 0.0
N540 N 0.29379 0.07882 0.62255 0.0
C541 C 0.3196 0.09539 0.59944 0.0
C542 C 0.23395 0.05559 0.60449 0.0
C543 C 0.33041 0.09726 0.61344 0.0
C544 C 0.20748 0.1913 0.60109 0.0
N545 N 0.25207 0.1957 0.59325 0.0
C546 C 0.29562 0.24689 0.61058 0.0
C547 C 0.29561 0.22321 0.59766 0.0
C548 C 0.25048 0.24202 0.61902 0.0
C549 C 0.2057 0.21445 0.61405 0.0
H550 H 0.17423 0.16758 0.59752 0.0
H551 H 0.33118 0.22482 0.59143 0.0
C552 C 0.403 0.05835 0.55296 0.0
N553 N 0.37309 0.05013 0.56438 0.0
C554 C 0.45543 0.03922 0.55224 0.0
C555 C 0.44526 0.00333 0.57502 0.0
C556 C 0.39266 0.02212 0.57518 0.0
C557 C 0.47748 0.01241 0.5635 0.0
H558 H 0.38654 0.08109 0.54456 0.0
H559 H 0.368 0.01546 0.58407 0.0
C560 C 0.1389 0.16418 0.56157 0.0
N561 N 0.03194 0.16855 0.5547 0.0
C562 C 0.12138 0.14401 0.54902 0.0
C563 C 0.10204 0.18683 0.57059 0.0
C564 C 0.06715 0.14654 0.54574 0.0
C565 C 0.04813 0.18862 0.56694 0.0
C566 C 0.25906 0.01837 0.54627 0.0
C567 C 0.27047 0.00558 0.53268 0.0
C568 C 0.25411 0.97764 0.55596 0.0
C569 C 0.2765 0.95204 0.52898 0.0
C570 C 0.26038 0.92459 0.55184 0.0
N571 N 0.27136 0.913 0.53856 0.0
C572 C 0.28418 0.17038 0.52552 0.0
C573 C 0.20839 0.22058 0.53216 0.0
C574 C 0.2793 0.18831 0.51206 0.0
N575 N 0.24803 0.18543 0.53511 0.0
C576 C 0.20112 0.23841 0.51876 0.0
C577 C 0.23588 0.221 0.50834 0.0
H578 H 0.31563 0.14269 0.52822 0.0
H579 H 0.18067 0.23268 0.54003 0.0
C580 C 0.11065 0.05174 0.57907 0.0
N581 N 0.14023 0.04302 0.56763 0.0
C582 C 0.0574 0.03524 0.57968 0.0
C583 C 0.06588 1.00058 0.55675 0.0
C584 C 0.11923 0.01727 0.55662 0.0
C585 C 0.034 0.01038 0.56831 0.0
H586 H 0.12741 0.07458 0.5874 0.0
H587 H 0.14281 0.01251 0.54745 0.0
O588 O 0.3141 0.16449 0.56397 0.0
O589 O 0.25886 0.07406 0.5813 0.0
O590 O 0.19156 0.16017 0.56519 0.0
O591 O 0.25382 0.07066 0.55004 0.0
H592 H 0.4119 0.20157 0.56099 0.0
H593 H 0.2464 0.24649 0.56427 0.0
H594 H 0.43555 0.29755 0.55884 0.0
H595 H 0.2729 0.34134 0.56204 0.0
H596 H 0.21802 0.04365 0.6259 0.0
H597 H 0.34838 0.11084 0.5922 0.0
H598 H 0.19628 0.03887 0.60121 0.0
H599 H 0.36778 0.11368 0.61706 0.0
H600 H 0.33081 0.26822 0.61399 0.0
H601 H 0.17041 0.2091 0.6203 0.0
H602 H 0.47908 0.04691 0.54319 0.0
H603 H 0.4607 0.98208 0.58381 0.0
H604 H 0.14927 0.12567 0.54199 0.0
H605 H 0.11484 0.20273 0.58033 0.0
H606 H 0.05301 0.13068 0.53612 0.0
H607 H 0.01914 0.20586 0.57384 0.0
H608 H 0.2747 0.03674 0.52509 0.0
H609 H 0.24548 0.98678 0.56653 0.0
H610 H 0.28533 0.94153 0.5185 0.0
H611 H 0.25658 0.89264 0.55922 0.0
H612 H 0.3083 0.17505 0.5046 0.0
H613 H 0.16675 0.26311 0.51657 0.0
H614 H 0.03407 0.04419 0.58872 0.0
H615 H 0.04944 0.98118 0.5478 0.0
Li616 Li 0.91933 0.80481 0.81512 0.0
Li617 Li 0.8529 0.75314 0.82706 0.0
Li618 Li 0.92372 0.70521 0.8163 0.0
Li619 Li 0.85648 0.74984 0.80203 0.0
C620 C 0.93107 0.77026 0.84483 0.0
N621 N 0.92698 0.79375 0.8724 0.0
C622 C 0.91074 0.81929 0.84926 0.0
C623 C 0.94993 0.73346 0.85441 0.0
C624 C 0.90884 0.83035 0.86324 0.0
C625 C 0.94738 0.74602 0.86831 0.0
C626 C 0.78829 0.82648 0.81273 0.0
C627 C 0.69525 0.80187 0.81179 0.0
N628 N 0.68193 0.85421 0.81033 0.0
C629 C 0.7737 0.87999 0.81119 0.0
C630 C 0.7488 0.78701 0.81301 0.0
C631 C 0.7197 0.89322 0.81 0.0
C632 C 0.94637 0.90249 0.80293 0.0
N633 N 0.95546 0.87208 0.81421 0.0
C634 C 0.00323 0.94372 0.8248 0.0
C635 C 0.98438 0.89114 0.82492 0.0
C636 C 0.99324 0.97646 0.81343 0.0
C637 C 0.96551 0.95491 0.80225 0.0
H638 H 0.92292 0.88642 0.7946 0.0
H639 H 0.99167 0.8661 0.8337 0.0
C640 C 0.81462 0.70695 0.85106 0.0
N641 N 0.81024 0.75147 0.8432 0.0
C642 C 0.79155 0.70533 0.86403 0.0
C643 C 0.75924 0.79527 0.86053 0.0
C644 C 0.78284 0.7951 0.8476 0.0
C645 C 0.76408 0.7502 0.86899 0.0
H646 H 0.83829 0.67364 0.8475 0.0
H647 H 0.78125 0.83061 0.84134 0.0
C648 C 0.98647 0.76007 0.79592 0.0
N649 N 0.09058 0.77748 0.78775 0.0
C650 C 0.99741 0.77597 0.78253 0.0
C651 C 0.02838 0.75329 0.8052 0.0
C652 C 0.05034 0.78451 0.77859 0.0
C653 C 0.08077 0.76219 0.80085 0.0
C654 C 0.84153 0.63793 0.81161 0.0
C655 C 0.86174 0.62008 0.7991 0.0
C656 C 0.81884 0.60132 0.82069 0.0
C657 C 0.85926 0.56575 0.79592 0.0
C658 C 0.8171 0.54731 0.81714 0.0
N659 N 0.83723 0.53078 0.80494 0.0
C660 C 0.95412 0.60971 0.82903 0.0
C661 C 0.98862 0.61843 0.80659 0.0
C662 C 0.97073 0.5565 0.82964 0.0
N663 N 0.96279 0.63933 0.81759 0.0
C664 C 0.00545 0.56513 0.80671 0.0
C665 C 0.99569 0.53318 0.81826 0.0
H666 H 0.93124 0.6264 0.83736 0.0
H667 H 0.99337 0.64208 0.79743 0.0
C668 C 0.83429 0.78351 0.77543 0.0
N669 N 0.81995 0.74699 0.78501 0.0
C670 C 0.8161 0.77863 0.762 0.0
C671 C 0.76718 0.6997 0.76869 0.0
C672 C 0.78524 0.70696 0.78206 0.0
C673 C 0.78386 0.73488 0.75828 0.0
H674 H 0.86158 0.8153 0.77813 0.0
H675 H 0.77362 0.67899 0.78992 0.0
O676 O 0.93181 0.75812 0.83119 0.0
O677 O 0.84109 0.81322 0.81387 0.0
O678 O 0.93481 0.75259 0.79999 0.0
O679 O 0.84549 0.6907 0.81513 0.0
H680 H 0.89553 0.84805 0.84197 0.0
H681 H 0.96641 0.69562 0.85118 0.0
H682 H 0.89265 0.86788 0.86681 0.0
H683 H 0.9616 0.7178 0.87585 0.0
H684 H 0.66428 0.77178 0.81201 0.0
H685 H 0.80385 0.91097 0.81093 0.0
H686 H 0.75918 0.7454 0.81419 0.0
H687 H 0.70783 0.93449 0.80882 0.0
H688 H 0.0252 0.95876 0.83352 0.0
H689 H 0.95709 0.97897 0.79331 0.0
H690 H 0.79687 0.67009 0.8703 0.0
H691 H 0.73799 0.83052 0.86392 0.0
H692 H 0.9653 0.78174 0.77527 0.0
H693 H 0.02057 0.7414 0.81563 0.0
H694 H 0.05944 0.79681 0.76825 0.0
H695 H 0.11363 0.75703 0.80791 0.0
H696 H 0.88008 0.64779 0.79203 0.0
H697 H 0.80286 0.61438 0.8304 0.0
H698 H 0.87517 0.55136 0.78633 0.0
H699 H 0.79982 0.5185 0.82409 0.0
H700 H 0.96181 0.53313 0.83866 0.0
H701 H 0.02492 0.54876 0.79776 0.0
H702 H 0.82878 0.80794 0.75455 0.0
H703 H 0.74284 0.66507 0.76649 0.0
Li704 Li 0.75641 0.64878 0.69997 0.0
Li705 Li 0.80177 0.58117 0.68534 0.0
Li706 Li 0.75288 0.65232 0.67486 0.0
Li707 Li 0.70263 0.58638 0.68699 0.0
C708 C 0.86864 0.66386 0.68986 0.0
N709 N 0.97645 0.66835 0.6958 0.0
C710 C 0.88801 0.64258 0.70211 0.0
C711 C 0.90409 0.68777 0.68068 0.0
C712 C 0.94264 0.64515 0.70491 0.0
C713 C 0.95846 0.68958 0.68386 0.0
C714 C 0.73885 0.52153 0.70631 0.0
C715 C 0.72747 0.42695 0.70276 0.0
N716 N 0.70096 0.42351 0.71486 0.0
C717 C 0.71155 0.51711 0.71871 0.0
C718 C 0.74693 0.47617 0.69825 0.0
C719 C 0.69268 0.46717 0.72286 0.0
C720 C 0.72154 0.67476 0.72638 0.0
N721 N 0.75976 0.68584 0.71695 0.0
C722 C 0.80913 0.73652 0.73331 0.0
C723 C 0.80169 0.71813 0.71998 0.0
C724 C 0.77219 0.72287 0.7436 0.0
C725 C 0.72666 0.69339 0.73978 0.0
H726 H 0.688 0.64981 0.7236 0.0
H727 H 0.83079 0.72767 0.71221 0.0
C728 C 0.89755 0.55184 0.67249 0.0
N729 N 0.86754 0.54234 0.68381 0.0
C730 C 0.95083 0.5354 0.67195 0.0
C731 C 0.94135 0.49903 0.69469 0.0
C732 C 0.88798 0.51564 0.69473 0.0
C733 C 0.97375 0.50979 0.68328 0.0
H734 H 0.88111 0.57522 0.66421 0.0
H735 H 0.86384 0.51009 0.70379 0.0
C736 C 0.68025 0.71714 0.68924 0.0
N737 N 0.65306 0.82372 0.69144 0.0
C738 C 0.62679 0.73208 0.69066 0.0
C739 C 0.71995 0.7564 0.68897 0.0
C740 C 0.61384 0.78617 0.69175 0.0
C741 C 0.70537 0.81006 0.69008 0.0
C742 C 0.73511 0.57434 0.65714 0.0
C743 C 0.68551 0.5939 0.65291 0.0
C744 C 0.77182 0.55648 0.64741 0.0
C745 C 0.67377 0.59602 0.63896 0.0
C746 C 0.75856 0.55923 0.63355 0.0
N747 N 0.71026 0.57885 0.62965 0.0
C748 C 0.79879 0.69049 0.65083 0.0
C749 C 0.71075 0.72252 0.65431 0.0
C750 C 0.80058 0.71383 0.6379 0.0
N751 N 0.75429 0.69494 0.65869 0.0
C752 C 0.71075 0.7464 0.64141 0.0
C753 C 0.7559 0.74165 0.63296 0.0
H754 H 0.83199 0.66661 0.65436 0.0
H755 H 0.67524 0.72415 0.66057 0.0
C756 C 0.60364 0.56188 0.69892 0.0
N757 N 0.63522 0.55026 0.688 0.0
C758 C 0.55127 0.54262 0.69957 0.0
C759 C 0.56469 0.5 0.67768 0.0
C760 C 0.61724 0.519 0.67761 0.0
C761 C 0.5309 0.51231 0.68869 0.0
H762 H 0.61875 0.58737 0.70697 0.0
H763 H 0.64312 0.51003 0.66908 0.0
O764 O 0.81552 0.65984 0.68669 0.0
O765 O 0.75655 0.57019 0.7019 0.0
O766 O 0.69318 0.66422 0.68819 0.0
O767 O 0.74791 0.57343 0.67074 0.0
H768 H 0.86117 0.62346 0.70927 0.0
H769 H 0.88987 0.70472 0.67119 0.0
H770 H 0.95818 0.62842 0.71429 0.0
H771 H 0.98636 0.7078 0.67683 0.0
H772 H 0.73332 0.39151 0.69662 0.0
H773 H 0.70485 0.55187 0.72505 0.0
H774 H 0.76765 0.47906 0.68857 0.0
H775 H 0.6714 0.46312 0.73242 0.0
H776 H 0.84511 0.75872 0.73556 0.0
H777 H 0.696 0.68322 0.74712 0.0
H778 H 0.97457 0.54499 0.66303 0.0
H779 H 0.95742 0.47897 0.70359 0.0
H780 H 0.59563 0.70211 0.69092 0.0
H781 H 0.76154 0.7458 0.68787 0.0
H782 H 0.5726 0.79831 0.69284 0.0
H783 H 0.73564 0.84086 0.68987 0.0
H784 H 0.65682 0.60836 0.66031 0.0
H785 H 0.81015 0.54073 0.6505 0.0
H786 H 0.63577 0.61161 0.63554 0.0
H787 H 0.7867 0.5458 0.6259 0.0
H788 H 0.83584 0.70847 0.63164 0.0
H789 H 0.67561 0.76788 0.63803 0.0
H790 H 0.52632 0.55292 0.70822 0.0
H791 H 0.55047 0.47616 0.66919 0.0
Li792 Li 0.35703 0.25701 0.95003 0.0
Li793 Li 0.42474 0.30237 0.93541 0.0
Li794 Li 0.35366 0.25339 0.92491 0.0
Li795 Li 0.41947 0.20336 0.9371 0.0
C796 C 0.34199 0.36928 0.9398 0.0
N797 N 0.33748 0.47724 0.94556 0.0
C798 C 0.36329 0.38897 0.95201 0.0
C799 C 0.31803 0.40448 0.93057 0.0
C800 C 0.36071 0.44367 0.95472 0.0
C801 C 0.31621 0.45892 0.93366 0.0
C802 C 0.48391 0.23869 0.95643 0.0
C803 C 0.57837 0.22599 0.95295 0.0
N804 N 0.58112 0.19868 0.96495 0.0
C805 C 0.48763 0.21059 0.96872 0.0
C806 C 0.52957 0.24654 0.94846 0.0
C807 C 0.53716 0.19064 0.97285 0.0
C808 C 0.33022 0.22186 0.97637 0.0
N809 N 0.31974 0.26038 0.96698 0.0
C810 C 0.26929 0.30998 0.98334 0.0
C811 C 0.28785 0.30259 0.97002 0.0
C812 C 0.28234 0.2727 0.9936 0.0
C813 C 0.31141 0.22693 0.98976 0.0
H814 H 0.35484 0.18809 0.97358 0.0
H815 H 0.27873 0.33192 0.96228 0.0
C816 C 0.45411 0.39809 0.92253 0.0
N817 N 0.4636 0.3681 0.93386 0.0
C818 C 0.47056 0.45136 0.92198 0.0
C819 C 0.50698 0.4419 0.94472 0.0
C820 C 0.49034 0.38853 0.94477 0.0
C821 C 0.4962 0.47429 0.93331 0.0
H822 H 0.43073 0.38163 0.91425 0.0
H823 H 0.49591 0.36439 0.95382 0.0
C824 C 0.28875 0.18085 0.93928 0.0
N825 N 0.18216 0.15366 0.94144 0.0
C826 C 0.27381 0.1274 0.94074 0.0
C827 C 0.24948 0.22054 0.93896 0.0
C828 C 0.21971 0.11445 0.9418 0.0
C829 C 0.19581 0.20595 0.94006 0.0
C830 C 0.43179 0.23532 0.90726 0.0
C831 C 0.41253 0.18551 0.9031 0.0
C832 C 0.44948 0.27191 0.89747 0.0
C833 C 0.41055 0.17343 0.88917 0.0
C834 C 0.44688 0.2583 0.88364 0.0
N835 N 0.42756 0.2098 0.87981 0.0
C836 C 0.31568 0.29901 0.90081 0.0
C837 C 0.28372 0.21098 0.90435 0.0
C838 C 0.29243 0.30062 0.88787 0.0
N839 N 0.31121 0.25461 0.90871 0.0
C840 C 0.25991 0.2108 0.89144 0.0
C841 C 0.26466 0.25585 0.88296 0.0
H842 H 0.33951 0.33228 0.90433 0.0
H843 H 0.28208 0.17554 0.91063 0.0
C844 C 0.443 0.10387 0.94887 0.0
N845 N 0.45555 0.13593 0.93812 0.0
C846 C 0.46227 0.05149 0.94948 0.0
C847 C 0.5068 0.06592 0.92788 0.0
C848 C 0.48774 0.11844 0.92785 0.0
C849 C 0.49356 0.03163 0.93873 0.0
H850 H 0.41679 0.11861 0.95681 0.0
H851 H 0.49739 0.14469 0.91944 0.0
O852 O 0.34601 0.31608 0.93673 0.0
O853 O 0.43564 0.2574 0.95201 0.0
O854 O 0.34168 0.19378 0.93826 0.0
O855 O 0.43254 0.24845 0.92084 0.0
H856 H 0.38243 0.36233 0.95922 0.0
H857 H 0.30103 0.39 0.92112 0.0
H858 H 0.37747 0.45947 0.96407 0.0
H859 H 0.29795 0.48664 0.92659 0.0
H860 H 0.61403 0.23163 0.94688 0.0
H861 H 0.45263 0.20407 0.97498 0.0
H862 H 0.52722 0.2679 0.93887 0.0
H863 H 0.54065 0.1687 0.98233 0.0
H864 H 0.24744 0.34615 0.98561 0.0
H865 H 0.3211 0.19602 0.99708 0.0
H866 H 0.46096 0.47509 0.91306 0.0
H867 H 0.52707 0.45797 0.95362 0.0
H868 H 0.30378 0.09625 0.94103 0.0
H869 H 0.26008 0.26212 0.93785 0.0
H870 H 0.20757 0.07322 0.94292 0.0
H871 H 0.16501 0.23622 0.93981 0.0
H872 H 0.39819 0.15692 0.91054 0.0
H873 H 0.46497 0.31041 0.90051 0.0
H874 H 0.3952 0.13527 0.8858 0.0
H875 H 0.46018 0.28634 0.87595 0.0
H876 H 0.29779 0.3358 0.88158 0.0
H877 H 0.23848 0.1756 0.88809 0.0
H878 H 0.45121 0.02616 0.95799 0.0
H879 H 0.53138 0.05209 0.91949 0.0
Li880 Li 0.74786 0.85689 0.20004 0.0
Li881 Li 0.70232 0.92457 0.18544 0.0
Li882 Li 0.7514 0.85361 0.17491 0.0
Li883 Li 0.8013 0.91943 0.18712 0.0
C884 C 0.63558 0.84171 0.18983 0.0
N885 N 0.52765 0.83703 0.19563 0.0
C886 C 0.61591 0.863 0.20205 0.0
C887 C 0.60037 0.81767 0.18062 0.0
C888 C 0.56122 0.86034 0.20478 0.0
C889 C 0.54594 0.81576 0.18373 0.0
C890 C 0.76624 0.9837 0.20644 0.0
C891 C 0.7792 0.07811 0.20296 0.0
N892 N 0.80677 0.08075 0.21492 0.0
C893 C 0.79461 0.9873 0.2187 0.0
C894 C 0.75838 0.02939 0.1985 0.0
C895 C 0.81481 0.03676 0.22281 0.0
C896 C 0.78323 0.83002 0.22635 0.0
N897 N 0.74463 0.81953 0.21697 0.0
C898 C 0.69516 0.76907 0.23335 0.0
C899 C 0.70246 0.78763 0.22003 0.0
C900 C 0.7325 0.78216 0.24359 0.0
C901 C 0.77825 0.81122 0.23973 0.0
H902 H 0.81697 0.85464 0.22354 0.0
H903 H 0.67307 0.7785 0.21231 0.0
C904 C 0.60644 0.95381 0.17262 0.0
N905 N 0.63656 0.96338 0.18393 0.0
C906 C 0.55316 0.97027 0.17212 0.0
C907 C 0.56292 0.00689 0.19482 0.0
C908 C 0.61627 0.99021 0.19484 0.0
C909 C 0.53038 0.99604 0.18345 0.0
H910 H 0.6228 0.93038 0.16435 0.0
H911 H 0.64053 0.99585 0.20387 0.0
C912 C 0.82408 0.78877 0.18925 0.0
N913 N 0.85143 0.68221 0.19137 0.0
C914 C 0.87755 0.77391 0.1907 0.0
C915 C 0.78445 0.74944 0.18892 0.0
C916 C 0.89059 0.71982 0.19174 0.0
C917 C 0.79912 0.69579 0.19 0.0
C918 C 0.76936 0.93182 0.15729 0.0
C919 C 0.81932 0.91287 0.15314 0.0
C920 C 0.73269 0.94922 0.14749 0.0
C921 C 0.83146 0.91094 0.13922 0.0
C922 C 0.74636 0.94667 0.13366 0.0
N923 N 0.79501 0.92767 0.12985 0.0
C924 C 0.7058 0.81552 0.15082 0.0
C925 C 0.79397 0.78392 0.15433 0.0
C926 C 0.70422 0.79225 0.13788 0.0
N927 N 0.75025 0.81122 0.15871 0.0
C928 C 0.79418 0.7601 0.14142 0.0
C929 C 0.74907 0.76465 0.13295 0.0
H930 H 0.67245 0.8392 0.15435 0.0
H931 H 0.82945 0.78243 0.1606 0.0
C932 C 0.901 0.94262 0.19879 0.0
N933 N 0.86864 0.95561 0.18813 0.0
C934 C 0.95335 0.96195 0.19937 0.0
C935 C 0.93827 0.00755 0.17795 0.0
C936 C 0.8858 0.98836 0.17794 0.0
C937 C 0.97288 0.99383 0.18869 0.0
H938 H 0.88651 0.91598 0.20666 0.0
H939 H 0.85931 0.99833 0.16961 0.0
O940 O 0.68876 0.84581 0.18674 0.0
O941 O 0.74729 0.93549 0.20205 0.0
O942 O 0.81107 0.84168 0.18825 0.0
O943 O 0.75618 0.93251 0.17086 0.0
H944 H 0.64255 0.8822 0.20924 0.0
H945 H 0.61484 0.80067 0.17116 0.0
H946 H 0.54544 0.8771 0.21413 0.0
H947 H 0.51823 0.79744 0.17666 0.0
H948 H 0.77357 0.1138 0.1969 0.0
H949 H 0.80113 0.95228 0.22495 0.0
H950 H 0.73682 0.02713 0.18893 0.0
H951 H 0.83696 0.04016 0.23226 0.0
H952 H 0.65901 0.74721 0.23564 0.0
H953 H 0.80919 0.82094 0.24704 0.0
H954 H 0.52933 0.96061 0.16322 0.0
H955 H 0.54699 0.0271 0.20372 0.0
H956 H 0.90865 0.80392 0.191 0.0
H957 H 0.74285 0.75998 0.18781 0.0
H958 H 0.93184 0.70774 0.19285 0.0
H959 H 0.7689 0.66494 0.18974 0.0
H960 H 0.84798 0.89875 0.16059 0.0
H961 H 0.69406 0.96442 0.15052 0.0
H962 H 0.86974 0.89584 0.13586 0.0
H963 H 0.71826 0.95974 0.12596 0.0
H964 H 0.66897 0.79747 0.13161 0.0
H965 H 0.82945 0.7388 0.13805 0.0
H966 H 0.97891 0.95047 0.2078 0.0
H967 H 0.95182 0.03258 0.16962 0.0
Li968 Li 0.08116 0.20161 0.43552 0.0
Li969 Li 0.14879 0.24733 0.45011 0.0
Li970 Li 0.08615 0.30056 0.43718 0.0
Li971 Li 0.15204 0.2508 0.42497 0.0
C972 C 0.02207 0.26577 0.45652 0.0
N973 N 0.92522 0.30687 0.46497 0.0
C974 C 0.01865 0.29439 0.46874 0.0
C975 C 0.9763 0.25793 0.4486 0.0
C976 C 0.96929 0.31488 0.47284 0.0
C977 C 0.92769 0.27905 0.45305 0.0
C978 C 0.16413 0.13501 0.43988 0.0
C979 C 0.19018 0.04545 0.43373 0.0
N980 N 0.1689 0.02705 0.44563 0.0
C981 C 0.14283 0.11524 0.45208 0.0
C982 C 0.18823 0.09989 0.43065 0.0
C983 C 0.14554 0.06054 0.45479 0.0
C984 C 0.05201 0.10559 0.42273 0.0
N985 N 0.04241 0.1358 0.43402 0.0
C986 C 0.99883 0.06226 0.44494 0.0
C987 C 0.01552 0.1156 0.44494 0.0
C988 C 0.00972 0.02962 0.43358 0.0
C989 C 0.03555 0.05231 0.42225 0.0
H990 H 0.07545 0.12189 0.41445 0.0
H991 H 0.00984 0.13993 0.45395 0.0
C992 C 0.17586 0.28295 0.47639 0.0
N993 N 0.18619 0.24422 0.46704 0.0
C994 C 0.19472 0.27808 0.48977 0.0
C995 C 0.23662 0.19482 0.48343 0.0
C996 C 0.21801 0.202 0.47012 0.0
C997 C 0.22369 0.23231 0.49365 0.0
H998 H 0.15132 0.31673 0.47356 0.0
H999 H 0.22702 0.1725 0.46241 0.0
C1000 C 0.07374 0.26865 0.40736 0.0
N1001 N 0.07774 0.29443 0.37993 0.0
C1002 C 0.09246 0.31871 0.40323 0.0
C1003 C 0.05651 0.23194 0.39756 0.0
C1004 C 0.09432 0.33092 0.38931 0.0
C1005 C 0.05897 0.24568 0.38373 0.0
C1006 C 0.21675 0.32364 0.4393 0.0
C1007 C 0.23149 0.37714 0.44075 0.0
C1008 C 0.25616 0.2841 0.43896 0.0
C1009 C 0.28555 0.3903 0.44179 0.0
C1010 C 0.30978 0.29889 0.44003 0.0
N1011 N 0.32325 0.35123 0.44141 0.0
C1012 C 0.06313 0.40043 0.44876 0.0
C1013 C 0.01677 0.38472 0.42803 0.0
C1014 C 0.04372 0.45275 0.44931 0.0
N1015 N 0.04986 0.36784 0.43817 0.0
C1016 C 0.99747 0.43715 0.42801 0.0
C1017 C 0.01147 0.472 0.43867 0.0
H1018 H 0.09003 0.38615 0.4566 0.0
H1019 H 0.0066 0.35804 0.41975 0.0
C1020 C 0.19022 0.20535 0.40086 0.0
N1021 N 0.19439 0.2498 0.40875 0.0
C1022 C 0.21346 0.20387 0.38791 0.0
C1023 C 0.2453 0.29394 0.39146 0.0
C1024 C 0.22151 0.29362 0.40437 0.0
C1025 C 0.24089 0.24883 0.38299 0.0
H1026 H 0.16665 0.17191 0.40439 0.0
H1027 H 0.2229 0.3291 0.41065 0.0
O1028 O 0.07018 0.24655 0.45212 0.0
O1029 O 0.15998 0.1882 0.43681 0.0
O1030 O 0.07313 0.2554 0.42093 0.0
O1031 O 0.16386 0.31052 0.43831 0.0
H1032 H 0.05373 0.30089 0.47497 0.0
H1033 H 0.97843 0.23618 0.43905 0.0
H1034 H 0.96603 0.33724 0.48226 0.0
H1035 H 0.89195 0.27345 0.44701 0.0
H1036 H 0.20854 0.01779 0.42666 0.0
H1037 H 0.1236 0.14182 0.45929 0.0
H1038 H 0.20523 0.11444 0.4212 0.0
H1039 H 0.12878 0.04467 0.46413 0.0
H1040 H 0.97857 0.04641 0.45384 0.0
H1041 H 0.04525 0.02841 0.41336 0.0
H1042 H 0.18513 0.30913 0.49706 0.0
H1043 H 0.2584 0.15863 0.48574 0.0
H1044 H 0.10647 0.3474 0.41068 0.0
H1045 H 0.0415 0.19322 0.40057 0.0
H1046 H 0.10924 0.36928 0.38596 0.0
H1047 H 0.04602 0.21755 0.37603 0.0
H1048 H 0.20141 0.40818 0.44106 0.0
H1049 H 0.24571 0.24248 0.43785 0.0
H1050 H 0.29754 0.43157 0.4429 0.0
H1051 H 0.3407 0.26874 0.43977 0.0
H1052 H 0.05543 0.47851 0.45768 0.0
H1053 H 0.97216 0.45048 0.41971 0.0
H1054 H 0.20835 0.16862 0.38164 0.0
H1055 H 0.26646 0.32929 0.3881 0.0
Li1056 Li 0.70534 0.91974 0.56483 0.0
Li1057 Li 0.75493 0.85373 0.57703 0.0
Li1058 Li 0.80432 0.92452 0.56651 0.0
Li1059 Li 0.75852 0.857 0.55191 0.0
C1060 C 0.7374 0.93201 0.59466 0.0
N1061 N 0.71189 0.92795 0.62212 0.0
C1062 C 0.6873 0.9135 0.59883 0.0
C1063 C 0.77429 0.94901 0.60445 0.0
C1064 C 0.67522 0.91161 0.61276 0.0
C1065 C 0.76068 0.94652 0.61829 0.0
C1066 C 0.68203 0.7892 0.56268 0.0
C1067 C 0.70658 0.69611 0.56195 0.0
N1068 N 0.65423 0.68276 0.56053 0.0
C1069 C 0.62851 0.77457 0.56118 0.0
C1070 C 0.72148 0.7497 0.56304 0.0
C1071 C 0.61525 0.72054 0.56012 0.0
C1072 C 0.60559 0.94299 0.55323 0.0
N1073 N 0.63813 0.95612 0.56384 0.0
C1074 C 0.56876 0.00838 0.57403 0.0
C1075 C 0.6212 0.9891 0.574 0.0
C1076 C 0.53396 0.99449 0.56334 0.0
C1077 C 0.55327 0.96239 0.55268 0.0
H1078 H 0.61991 0.91617 0.54537 0.0
H1079 H 0.64783 0.99916 0.5823 0.0
C1080 C 0.80015 0.81509 0.60113 0.0
N1081 N 0.75569 0.81132 0.59324 0.0
C1082 C 0.80138 0.79183 0.61408 0.0
C1083 C 0.71105 0.76078 0.61052 0.0
C1084 C 0.71162 0.78456 0.59761 0.0
C1085 C 0.75617 0.76481 0.619 0.0
H1086 H 0.8338 0.83837 0.59761 0.0
H1087 H 0.67615 0.78349 0.59133 0.0
C1088 C 0.74042 0.9838 0.54551 0.0
N1089 N 0.69982 0.08085 0.53705 0.0
C1090 C 0.71198 0.9874 0.53326 0.0
C1091 C 0.74831 0.0295 0.55345 0.0
C1092 C 0.69174 0.03685 0.52916 0.0
C1093 C 0.72745 0.07822 0.54899 0.0
C1094 C 0.87074 0.84143 0.5621 0.0
C1095 C 0.89041 0.86274 0.54989 0.0
C1096 C 0.90591 0.81725 0.5713 0.0
C1097 C 0.94507 0.85993 0.54714 0.0
C1098 C 0.96032 0.8152 0.56817 0.0
N1099 N 0.97862 0.83647 0.55627 0.0
C1100 C 0.9005 0.95348 0.57926 0.0
C1101 C 0.89032 0.99014 0.55708 0.0
C1102 C 0.95378 0.96997 0.57973 0.0
N1103 N 0.8702 0.96317 0.568 0.0
C1104 C 0.94366 0.00687 0.55706 0.0
C1105 C 0.97638 0.99591 0.5684 0.0
H1106 H 0.88426 0.92997 0.58754 0.0
H1107 H 0.86594 0.99589 0.54808 0.0
C1108 C 0.72294 0.83015 0.52562 0.0
N1109 N 0.76157 0.8196 0.53498 0.0
C1110 C 0.72778 0.8113 0.51224 0.0
C1111 C 0.8108 0.76897 0.51859 0.0
C1112 C 0.80365 0.78758 0.53191 0.0
C1113 C 0.77342 0.78212 0.50836 0.0
H1114 H 0.68927 0.85485 0.52844 0.0
H1115 H 0.83307 0.7784 0.53962 0.0
O1116 O 0.7505 0.93265 0.58109 0.0
O1117 O 0.69525 0.84205 0.56369 0.0
O1118 O 0.7594 0.9356 0.5499 0.0
O1119 O 0.81759 0.84569 0.56521 0.0
H1120 H 0.65846 0.89967 0.59139 0.0
H1121 H 0.81305 0.96387 0.60142 0.0
H1122 H 0.63682 0.89684 0.61613 0.0
H1123 H 0.78895 0.95929 0.62598 0.0
H1124 H 0.73666 0.66512 0.56223 0.0
H1125 H 0.59754 0.80472 0.56085 0.0
H1126 H 0.7631 0.76005 0.56419 0.0
H1127 H 0.57396 0.70864 0.55898 0.0
H1128 H 0.55538 0.03358 0.58235 0.0
H1129 H 0.52755 0.95078 0.54429 0.0
H1130 H 0.83666 0.79662 0.62037 0.0
H1131 H 0.6755 0.73994 0.61388 0.0
H1132 H 0.70544 0.95237 0.52701 0.0
H1133 H 0.76991 0.02724 0.56301 0.0
H1134 H 0.66954 0.04025 0.51972 0.0
H1135 H 0.7331 0.1139 0.55505 0.0
H1136 H 0.86379 0.88205 0.54271 0.0
H1137 H 0.89144 0.80026 0.58076 0.0
H1138 H 0.96086 0.87668 0.53779 0.0
H1139 H 0.98802 0.79676 0.57522 0.0
H1140 H 0.97774 0.96022 0.5886 0.0
H1141 H 0.95944 0.02721 0.54817 0.0
H1142 H 0.69681 0.82108 0.50494 0.0
H1143 H 0.84688 0.747 0.51629 0.0
Li1144 Li 0.15224 0.25405 0.82709 0.0
Li1145 Li 0.08599 0.20424 0.81497 0.0
Li1146 Li 0.14883 0.25744 0.802 0.0
Li1147 Li 0.08151 0.3034 0.81656 0.0
C1148 C 0.21658 0.18089 0.81275 0.0
N1149 N 0.32297 0.15296 0.81056 0.0
C1150 C 0.23113 0.12734 0.81128 0.0
C1151 C 0.25613 0.2203 0.81308 0.0
C1152 C 0.28514 0.11401 0.81019 0.0
C1153 C 0.30969 0.20534 0.81196 0.0
C1154 C 0.07412 0.23707 0.8448 0.0
C1155 C 0.05967 0.26101 0.86838 0.0
N1156 N 0.0785 0.21243 0.8723 0.0
C1157 C 0.09288 0.18718 0.84906 0.0
C1158 C 0.05701 0.27418 0.85452 0.0
C1159 C 0.09494 0.17555 0.86301 0.0
C1160 C 0.19119 0.29967 0.8511 0.0
N1161 N 0.19484 0.25504 0.84326 0.0
C1162 C 0.24548 0.21068 0.86056 0.0
C1163 C 0.22162 0.21104 0.84766 0.0
C1164 C 0.24152 0.25594 0.869 0.0
C1165 C 0.21452 0.3011 0.86404 0.0
H1166 H 0.16795 0.33328 0.84754 0.0
H1167 H 0.22262 0.17546 0.84142 0.0
C1168 C 0.06143 0.10524 0.80314 0.0
N1169 N 0.04946 0.13714 0.81397 0.0
C1170 C 0.04203 0.05293 0.80253 0.0
C1171 C 0.99834 0.06715 0.82425 0.0
C1172 C 0.01758 0.1196 0.82429 0.0
C1173 C 0.01111 0.03296 0.81335 0.0
H1174 H 0.08738 0.12005 0.79515 0.0
H1175 H 0.00837 0.14574 0.83275 0.0
C1176 C 0.16463 0.36955 0.81192 0.0
N1177 N 0.16972 0.47706 0.80567 0.0
C1178 C 0.14363 0.38847 0.79959 0.0
C1179 C 0.18853 0.40529 0.82102 0.0
C1180 C 0.14652 0.44296 0.79663 0.0
C1181 C 0.19066 0.4595 0.81768 0.0
C1182 C 0.02134 0.24089 0.79567 0.0
C1183 C 0.01639 0.21376 0.78326 0.0
C1184 C 0.97622 0.24933 0.80379 0.0
C1185 C 0.96617 0.19547 0.77917 0.0
C1186 C 0.92671 0.23044 0.79934 0.0
N1187 N 0.92275 0.20411 0.78722 0.0
C1188 C 0.17386 0.22236 0.7756 0.0
C1189 C 0.21913 0.30148 0.782 0.0
C1190 C 0.19231 0.2272 0.76218 0.0
N1191 N 0.18594 0.26026 0.78503 0.0
C1192 C 0.23753 0.30856 0.76865 0.0
C1193 C 0.22277 0.27206 0.75837 0.0
H1194 H 0.1482 0.18938 0.77839 0.0
H1195 H 0.22936 0.33035 0.78976 0.0
C1196 C 0.05263 0.39973 0.82923 0.0
N1197 N 0.04302 0.36941 0.81797 0.0
C1198 C 0.03613 0.45301 0.82969 0.0
C1199 C 0.99951 0.44289 0.807 0.0
C1200 C 0.01625 0.38956 0.80703 0.0
C1201 C 0.01029 0.4756 0.81835 0.0
H1202 H 0.07605 0.3835 0.83753 0.0
H1203 H 0.01061 0.36518 0.79802 0.0
O1204 O 0.16375 0.19419 0.81379 0.0
O1205 O 0.07329 0.24975 0.8312 0.0
O1206 O 0.16025 0.31661 0.81524 0.0
O1207 O 0.07026 0.25805 0.80003 0.0
H1208 H 0.20094 0.09641 0.81098 0.0
H1209 H 0.24583 0.26194 0.81421 0.0
H1210 H 0.29698 0.07271 0.80906 0.0
H1211 H 0.34071 0.23538 0.81222 0.0
H1212 H 0.04681 0.28946 0.87602 0.0
H1213 H 0.10678 0.15818 0.84166 0.0
H1214 H 0.04191 0.31275 0.85142 0.0
H1215 H 0.10991 0.13733 0.86645 0.0
H1216 H 0.26632 0.17518 0.86395 0.0
H1217 H 0.20979 0.33649 0.87028 0.0
H1218 H 0.05275 0.02771 0.79397 0.0
H1219 H 0.97404 0.05328 0.83269 0.0
H1220 H 0.12447 0.36142 0.79249 0.0
H1221 H 0.2052 0.3914 0.83057 0.0
H1222 H 0.13002 0.45817 0.78719 0.0
H1223 H 0.20888 0.48763 0.82466 0.0
H1224 H 0.05094 0.20679 0.77687 0.0
H1225 H 0.97951 0.2699 0.81349 0.0
H1226 H 0.96171 0.17435 0.76959 0.0
H1227 H 0.89146 0.23658 0.80553 0.0
H1228 H 0.18123 0.19694 0.75481 0.0
H1229 H 0.26057 0.344 0.76637 0.0
H1230 H 0.04577 0.47697 0.83857 0.0
H1231 H 0.97927 0.45866 0.79809 0.0
Li1232 Li 0.75085 0.65223 0.07707 0.0
Li1233 Li 0.80062 0.58604 0.06494 0.0
Li1234 Li 0.7475 0.64885 0.05197 0.0
Li1235 Li 0.70152 0.58149 0.06653 0.0
C1236 C 0.82402 0.7166 0.06274 0.0
N1237 N 0.85196 0.82299 0.06056 0.0
C1238 C 0.87757 0.73115 0.06127 0.0
C1239 C 0.78461 0.75615 0.06307 0.0
C1240 C 0.8909 0.78516 0.06019 0.0
C1241 C 0.79958 0.80971 0.06196 0.0
C1242 C 0.76794 0.57406 0.09476 0.0
C1243 C 0.74415 0.55956 0.11835 0.0
N1244 N 0.79278 0.57833 0.12225 0.0
C1245 C 0.81788 0.59276 0.099 0.0
C1246 C 0.73088 0.55695 0.1045 0.0
C1247 C 0.82961 0.59477 0.11294 0.0
C1248 C 0.70529 0.69104 0.10111 0.0
N1249 N 0.74987 0.69479 0.09325 0.0
C1250 C 0.7942 0.74551 0.11054 0.0
C1251 C 0.79384 0.72164 0.09764 0.0
C1252 C 0.74898 0.74147 0.11899 0.0
C1253 C 0.70386 0.71437 0.11405 0.0
H1254 H 0.67171 0.66772 0.09756 0.0
H1255 H 0.82939 0.72271 0.09139 0.0
C1256 C 0.89987 0.56185 0.0532 0.0
N1257 N 0.86776 0.54954 0.06396 0.0
C1258 C 0.95218 0.54242 0.05261 0.0
C1259 C 0.93753 0.49805 0.07422 0.0
C1260 C 0.88508 0.51733 0.07423 0.0
C1261 C 0.97192 0.51113 0.06338 0.0
H1262 H 0.88524 0.58806 0.04524 0.0
H1263 H 0.85878 0.50787 0.08265 0.0
C1264 C 0.63531 0.66458 0.06196 0.0
N1265 N 0.52768 0.66958 0.05584 0.0
C1266 C 0.61618 0.64352 0.04966 0.0
C1267 C 0.59972 0.68851 0.0711 0.0
C1268 C 0.56163 0.64636 0.04677 0.0
C1269 C 0.54545 0.69059 0.06782 0.0
C1270 C 0.76459 0.52158 0.04562 0.0
C1271 C 0.79221 0.51707 0.03327 0.0
C1272 C 0.7563 0.47627 0.05369 0.0
C1273 C 0.81119 0.4671 0.02918 0.0
C1274 C 0.77589 0.42702 0.04924 0.0
N1275 N 0.80271 0.42349 0.03719 0.0
C1276 C 0.78284 0.67443 0.02561 0.0
C1277 C 0.70322 0.71892 0.03196 0.0
C1278 C 0.77806 0.69301 0.0122 0.0
N1279 N 0.74468 0.68605 0.03501 0.0
C1280 C 0.69619 0.73741 0.01862 0.0
C1281 C 0.73299 0.72311 0.00836 0.0
H1282 H 0.81601 0.64905 0.02842 0.0
H1283 H 0.67415 0.72883 0.0397 0.0
C1284 C 0.60519 0.55256 0.07921 0.0
N1285 N 0.63555 0.54294 0.06795 0.0
C1286 C 0.55191 0.53606 0.07966 0.0
C1287 C 0.56214 0.49938 0.05697 0.0
C1288 C 0.61547 0.51611 0.05701 0.0
C1289 C 0.52937 0.5102 0.06831 0.0
H1290 H 0.62139 0.576 0.08751 0.0
H1291 H 0.63989 0.51045 0.04801 0.0
O1292 O 0.81071 0.66377 0.06377 0.0
O1293 O 0.75517 0.57329 0.08116 0.0
O1294 O 0.68831 0.66026 0.06521 0.0
O1295 O 0.74679 0.57027 0.04999 0.0
H1296 H 0.9085 0.70096 0.06097 0.0
H1297 H 0.74296 0.74585 0.0642 0.0
H1298 H 0.93221 0.79699 0.05906 0.0
H1299 H 0.76954 0.84073 0.06221 0.0
H1300 H 0.71575 0.54671 0.12601 0.0
H1301 H 0.84684 0.60666 0.0916 0.0
H1302 H 0.69226 0.54192 0.10141 0.0
H1303 H 0.86787 0.6097 0.11637 0.0
H1304 H 0.82968 0.76643 0.11392 0.0
H1305 H 0.66851 0.70956 0.1203 0.0
H1306 H 0.97757 0.5534 0.0441 0.0
H1307 H 0.95122 0.47347 0.08262 0.0
H1308 H 0.64311 0.62436 0.04253 0.0
H1309 H 0.61377 0.70525 0.08062 0.0
H1310 H 0.54626 0.6298 0.03734 0.0
H1311 H 0.51744 0.70883 0.07482 0.0
H1312 H 0.79907 0.55177 0.02693 0.0
H1313 H 0.73534 0.47923 0.06333 0.0
H1314 H 0.83272 0.46299 0.01966 0.0
H1315 H 0.76989 0.39163 0.05539 0.0
H1316 H 0.80856 0.68231 0.00486 0.0
H1317 H 0.66058 0.76015 0.01632 0.0
H1318 H 0.52791 0.54573 0.08852 0.0
H1319 H 0.54641 0.47911 0.04806 0.0
Li1320 Li 0.35321 0.25093 0.32709 0.0
Li1321 Li 0.4193 0.30078 0.31493 0.0
Li1322 Li 0.35654 0.24753 0.30197 0.0
Li1323 Li 0.42401 0.2017 0.31654 0.0
C1324 C 0.2887 0.32399 0.31276 0.0
N1325 N 0.18227 0.35181 0.3106 0.0
C1326 C 0.27408 0.37753 0.31131 0.0
C1327 C 0.2492 0.28453 0.31307 0.0
C1328 C 0.22005 0.3908 0.31025 0.0
C1329 C 0.19562 0.29944 0.31198 0.0
C1330 C 0.4314 0.26823 0.34476 0.0
C1331 C 0.44604 0.2446 0.36835 0.0
N1332 N 0.42717 0.29321 0.37224 0.0
C1333 C 0.41259 0.31815 0.34898 0.0
C1334 C 0.44863 0.23127 0.3545 0.0
C1335 C 0.41061 0.32995 0.36292 0.0
C1336 C 0.31464 0.20533 0.35114 0.0
N1337 N 0.3107 0.24988 0.34328 0.0
C1338 C 0.25984 0.29404 0.36058 0.0
C1339 C 0.28369 0.29376 0.34767 0.0
C1340 C 0.26406 0.24884 0.36902 0.0
C1341 C 0.29133 0.20382 0.36408 0.0
H1342 H 0.33808 0.17184 0.34759 0.0
H1343 H 0.28247 0.3293 0.34142 0.0
C1344 C 0.44334 0.40011 0.30319 0.0
N1345 N 0.45573 0.36796 0.31394 0.0
C1346 C 0.46275 0.45242 0.30261 0.0
C1347 C 0.50727 0.4377 0.32419 0.0
C1348 C 0.48801 0.38525 0.32421 0.0
C1349 C 0.49412 0.47213 0.31337 0.0
H1350 H 0.41708 0.3855 0.29525 0.0
H1351 H 0.49753 0.35892 0.33261 0.0
C1352 C 0.34101 0.13531 0.31203 0.0
N1353 N 0.33613 0.02757 0.30602 0.0
C1354 C 0.36217 0.11599 0.29977 0.0
C1355 C 0.31703 0.09985 0.3212 0.0
C1356 C 0.3594 0.0614 0.29693 0.0
C1357 C 0.31502 0.04552 0.31798 0.0
C1358 C 0.48371 0.26487 0.29559 0.0
C1359 C 0.488 0.29255 0.28324 0.0
C1360 C 0.52912 0.25667 0.30362 0.0
C1361 C 0.53788 0.31167 0.27912 0.0
C1362 C 0.57828 0.27639 0.29914 0.0
N1363 N 0.5816 0.30327 0.28709 0.0
C1364 C 0.3305 0.28286 0.27562 0.0
C1365 C 0.28682 0.20281 0.28197 0.0
C1366 C 0.31184 0.27799 0.26222 0.0
N1367 N 0.3193 0.24455 0.28502 0.0
C1368 C 0.26834 0.19563 0.26864 0.0
C1369 C 0.28216 0.23263 0.25838 0.0
H1370 H 0.35559 0.31626 0.27843 0.0
H1371 H 0.27719 0.17363 0.2897 0.0
C1372 C 0.45308 0.10547 0.32924 0.0
N1373 N 0.46266 0.1358 0.31798 0.0
C1374 C 0.46957 0.0522 0.32969 0.0
C1375 C 0.50624 0.06236 0.307 0.0
C1376 C 0.4895 0.11569 0.30704 0.0
C1377 C 0.49541 0.02962 0.31835 0.0
H1378 H 0.42964 0.12169 0.33754 0.0
H1379 H 0.49514 0.14009 0.29803 0.0
O1380 O 0.34155 0.31075 0.31378 0.0
O1381 O 0.43214 0.25539 0.33116 0.0
O1382 O 0.34524 0.18837 0.31523 0.0
O1383 O 0.43512 0.24691 0.29999 0.0
H1384 H 0.30423 0.4085 0.31102 0.0
H1385 H 0.25956 0.24289 0.31418 0.0
H1386 H 0.20816 0.4321 0.30913 0.0
H1387 H 0.16463 0.26935 0.31223 0.0
H1388 H 0.45898 0.21626 0.37601 0.0
H1389 H 0.39861 0.34704 0.34157 0.0
H1390 H 0.46374 0.19267 0.35142 0.0
H1391 H 0.39561 0.36819 0.36634 0.0
H1392 H 0.2388 0.32944 0.36396 0.0
H1393 H 0.29628 0.16849 0.37033 0.0
H1394 H 0.45172 0.47784 0.29411 0.0
H1395 H 0.53191 0.45137 0.33259 0.0
H1396 H 0.38135 0.14283 0.29262 0.0
H1397 H 0.30018 0.11404 0.3307 0.0
H1398 H 0.37604 0.04589 0.28753 0.0
H1399 H 0.29674 0.01761 0.325 0.0
H1400 H 0.4532 0.29934 0.27693 0.0
H1401 H 0.52633 0.23566 0.31326 0.0
H1402 H 0.54182 0.33324 0.2696 0.0
H1403 H 0.61376 0.27045 0.30526 0.0
H1404 H 0.32215 0.30867 0.2549 0.0
H1405 H 0.24596 0.15979 0.26635 0.0
H1406 H 0.45991 0.02822 0.33857 0.0
H1407 H 0.52649 0.04661 0.29809 0.0
loop_
_geom_bond_atom_site_label_1
_geom_bond_atom_site_label_2
_geom_bond_distance
_geom_bond_site_symmetry_2
_ccdc_geom_bond_type
Li0 N17 1.990 . S
Li0 O60 1.956 . S
Li0 O61 1.970 . S
Li0 O62 1.961 . S
Li1 N25 1.990 . S
Li1 O60 1.970 . S
Li1 O61 1.956 . S
Li1 O63 1.961 . S
Li2 N47 1.990 . S
Li2 O60 1.961 . S
Li2 O62 1.956 . S
Li2 O63 1.970 . S
Li3 N53 1.990 . S
Li3 O61 1.961 . S
Li3 O62 1.970 . S
Li3 O63 1.956 . S
C4 C6 1.348 . S
C4 C7 1.356 . S
C4 O60 1.325 . S
N5 C8 1.314 1_565 S
N5 C9 1.279 . S
C6 C4 1.348 . S
C6 C8 1.353 . S
C6 H64 0.929 . S
C7 C4 1.356 . S
C7 C9 1.358 1_545 S
C7 H65 0.930 1_545 S
C8 N5 1.314 1_545 S
C8 C6 1.353 . S
C8 H66 0.930 . S
C9 N5 1.279 . S
C9 C7 1.358 1_565 S
C9 H67 0.930 . S
C10 C13 1.348 . S
C10 C14 1.356 . S
C10 O61 1.325 . S
C11 N12 1.279 . S
C11 C14 1.358 . S
C11 H68 0.930 . S
N12 C11 1.279 . S
N12 C15 1.314 . S
C13 C10 1.348 . S
C13 C15 1.353 . S
C13 H69 0.929 . S
C14 C10 1.356 . S
C14 C11 1.358 . S
C14 H70 0.930 . S
C15 N12 1.314 . S
C15 C13 1.353 . S
C15 H71 0.930 . S
C16 N17 1.314 . S
C16 C21 1.353 . S
C16 H22 0.930 . S
N17 Li0 1.990 . S
N17 C16 1.314 . S
N17 C19 1.279 . S
C18 C19 1.358 1_565 S
C18 C20 1.356 . S
C18 H72 0.930 . S
C19 N17 1.279 . S
C19 C18 1.358 1_545 S
C19 H23 0.930 . S
C20 C18 1.356 . S
C20 C21 1.348 1_565 S
C21 C16 1.353 . S
C21 C20 1.348 1_545 S
C21 H73 0.929 . S
H22 C16 0.930 . S
H23 C19 0.930 . S
C24 N25 1.314 . S
C24 C26 1.353 . S
C24 H30 0.930 . S
N25 Li1 1.990 . S
N25 C24 1.314 . S
N25 C28 1.279 . S
C26 C24 1.353 . S
C26 C29 1.348 . S
C26 H74 0.929 . S
C27 C28 1.358 . S
C27 C29 1.356 . S
C27 H75 0.930 . S
C28 N25 1.279 . S
C28 C27 1.358 . S
C28 H31 0.930 . S
C29 C26 1.348 . S
C29 C27 1.356 . S
H30 C24 0.930 . S
H31 C28 0.930 . S
C32 C34 1.348 . S
C32 C35 1.356 . S
C32 O62 1.325 . S
N33 C36 1.314 . S
N33 C37 1.279 1_545 S
C34 C32 1.348 . S
C34 C36 1.353 . S
C34 H76 0.929 . S
C35 C32 1.356 . S
C35 C37 1.358 1_545 S
C35 H77 0.930 . S
C36 N33 1.314 . S
C36 C34 1.353 . S
C36 H78 0.930 . S
C37 N33 1.279 1_565 S
C37 C35 1.358 1_565 S
C37 H79 0.930 . S
C38 C39 1.348 . S
C38 C40 1.356 . S
C38 O63 1.325 . S
C39 C38 1.348 . S
C39 C41 1.353 . S
C39 H80 0.929 . S
C40 C38 1.356 . S
C40 C42 1.358 . S
C40 H81 0.930 . S
C41 C39 1.353 . S
C41 N43 1.314 . S
C41 H82 0.930 . S
C42 C40 1.358 . S
C42 N43 1.279 . S
C42 H83 0.930 . S
N43 C41 1.314 . S
N43 C42 1.279 . S
C44 C46 1.353 . S
C44 N47 1.314 . S
C44 H50 0.930 . S
C45 N47 1.279 . S
C45 C48 1.358 . S
C45 H51 0.930 . S
C46 C44 1.353 . S
C46 C49 1.348 1_545 S
C46 H84 0.929 . S
N47 Li2 1.990 . S
N47 C44 1.314 . S
N47 C45 1.279 . S
C48 C45 1.358 . S
C48 C49 1.356 1_545 S
C48 H85 0.930 1_545 S
C49 C46 1.348 1_565 S
C49 C48 1.356 1_565 S
H50 C44 0.930 . S
H51 C45 0.930 . S
C52 N53 1.314 . S
C52 C54 1.353 . S
C52 H58 0.930 . S
N53 Li3 1.990 . S
N53 C52 1.314 . S
N53 C56 1.279 . S
C54 C52 1.353 . S
C54 C57 1.348 . S
C54 H86 0.929 . S
C55 C56 1.358 . S
C55 C57 1.356 . S
C55 H87 0.930 . S
C56 N53 1.279 . S
C56 C55 1.358 . S
C56 H59 0.930 . S
C57 C54 1.348 . S
C57 C55 1.356 . S
H58 C52 0.930 . S
H59 C56 0.930 . S
O60 Li0 1.956 . S
O60 Li1 1.970 . S
O60 Li2 1.961 . S
O60 C4 1.325 . S
O61 Li0 1.970 . S
O61 Li1 1.956 . S
O61 Li3 1.961 . S
O61 C10 1.325 . S
O62 Li0 1.961 . S
O62 Li2 1.956 . S
O62 Li3 1.970 . S
O62 C32 1.325 . S
O63 Li1 1.961 . S
O63 Li2 1.970 . S
O63 Li3 1.956 . S
O63 C38 1.325 . S
H64 C6 0.929 . S
H65 C7 0.930 1_565 S
H66 C8 0.930 . S
H67 C9 0.930 . S
H68 C11 0.930 . S
H69 C13 0.929 . S
H70 C14 0.930 . S
H71 C15 0.930 . S
H72 C18 0.930 . S
H73 C21 0.929 . S
H74 C26 0.929 . S
H75 C27 0.930 . S
H76 C34 0.929 . S
H77 C35 0.930 . S
H78 C36 0.930 . S
H79 C37 0.930 . S
H80 C39 0.929 . S
H81 C40 0.930 . S
H82 C41 0.930 . S
H83 C42 0.930 . S
H84 C46 0.929 . S
H85 C48 0.930 1_565 S
H86 C54 0.929 . S
H87 C55 0.930 . S
Li88 N105 1.990 . S
Li88 O148 1.956 . S
Li88 O149 1.970 . S
Li88 O150 1.961 . S
Li89 N113 1.990 . S
Li89 O148 1.970 . S
Li89 O149 1.956 . S
Li89 O151 1.961 . S
Li90 N135 1.990 . S
Li90 O148 1.961 . S
Li90 O150 1.956 . S
Li90 O151 1.970 . S
Li91 N141 1.990 . S
Li91 O149 1.961 . S
Li91 O150 1.970 . S
Li91 O151 1.956 . S
C92 C94 1.348 . S
C92 C95 1.356 . S
C92 O148 1.325 . S
N93 C96 1.314 1_455 S
N93 C97 1.279 . S
C94 C92 1.348 . S
C94 C96 1.353 . S
C94 H152 0.929 . S
C95 C92 1.356 . S
C95 C97 1.358 1_655 S
C95 H153 0.930 1_655 S
C96 N93 1.314 1_655 S
C96 C94 1.353 . S
C96 H154 0.930 . S
C97 N93 1.279 . S
C97 C95 1.358 1_455 S
C97 H155 0.930 . S
C98 C101 1.348 . S
C98 C102 1.356 . S
C98 O149 1.325 . S
C99 N100 1.279 . S
C99 C102 1.358 . S
C99 H156 0.930 . S
N100 C99 1.279 . S
N100 C103 1.314 . S
C101 C98 1.348 . S
C101 C103 1.353 . S
C101 H157 0.929 . S
C102 C98 1.356 . S
C102 C99 1.358 . S
C102 H158 0.930 . S
C103 N100 1.314 . S
C103 C101 1.353 . S
C103 H159 0.930 . S
C104 N105 1.314 . S
C104 C109 1.353 . S
C104 H110 0.930 . S
N105 Li88 1.990 . S
N105 C104 1.314 . S
N105 C107 1.279 . S
C106 C107 1.358 1_455 S
C106 C108 1.356 . S
C106 H160 0.930 . S
C107 N105 1.279 . S
C107 C106 1.358 1_655 S
C107 H111 0.930 . S
C108 C106 1.356 . S
C108 C109 1.348 1_455 S
C109 C104 1.353 . S
C109 C108 1.348 1_655 S
C109 H161 0.929 . S
H110 C104 0.930 . S
H111 C107 0.930 . S
C112 N113 1.314 . S
C112 C114 1.353 . S
C112 H118 0.930 . S
N113 Li89 1.990 . S
N113 C112 1.314 . S
N113 C116 1.279 . S
C114 C112 1.353 . S
C114 C117 1.348 . S
C114 H162 0.929 . S
C115 C116 1.358 . S
C115 C117 1.356 . S
C115 H163 0.930 . S
C116 N113 1.279 . S
C116 C115 1.358 . S
C116 H119 0.930 . S
C117 C114 1.348 . S
C117 C115 1.356 . S
H118 C112 0.930 . S
H119 C116 0.930 . S
C120 C122 1.348 . S
C120 C123 1.356 . S
C120 O150 1.325 . S
N121 C124 1.314 . S
N121 C125 1.279 1_655 S
C122 C120 1.348 . S
C122 C124 1.353 . S
C122 H164 0.929 . S
C123 C120 1.356 . S
C123 C125 1.358 1_655 S
C123 H165 0.930 . S
C124 N121 1.314 . S
C124 C122 1.353 . S
C124 H166 0.930 . S
C125 N121 1.279 1_455 S
C125 C123 1.358 1_455 S
C125 H167 0.930 . S
C126 C127 1.348 . S
C126 C128 1.356 . S
C126 O151 1.325 . S
C127 C126 1.348 . S
C127 C129 1.353 . S
C127 H168 0.929 . S
C128 C126 1.356 . S
C128 C130 1.358 . S
C128 H169 0.930 . S
C129 C127 1.353 . S
C129 N131 1.314 . S
C129 H170 0.930 . S
C130 C128 1.358 . S
C130 N131 1.279 . S
C130 H171 0.930 . S
N131 C129 1.314 . S
N131 C130 1.279 . S
C132 C134 1.353 . S
C132 N135 1.314 . S
C132 H138 0.930 . S
C133 N135 1.279 . S
C133 C136 1.358 . S
C133 H139 0.930 . S
C134 C132 1.353 . S
C134 C137 1.348 1_655 S
C134 H172 0.929 . S
N135 Li90 1.990 . S
N135 C132 1.314 . S
N135 C133 1.279 . S
C136 C133 1.358 . S
C136 C137 1.356 1_655 S
C136 H173 0.930 1_655 S
C137 C134 1.348 1_455 S
C137 C136 1.356 1_455 S
H138 C132 0.930 . S
H139 C133 0.930 . S
C140 N141 1.314 . S
C140 C142 1.353 . S
C140 H146 0.930 . S
N141 Li91 1.990 . S
N141 C140 1.314 . S
N141 C144 1.279 . S
C142 C140 1.353 . S
C142 C145 1.348 . S
C142 H174 0.929 . S
C143 C144 1.358 . S
C143 C145 1.356 . S
C143 H175 0.930 . S
C144 N141 1.279 . S
C144 C143 1.358 . S
C144 H147 0.930 . S
C145 C142 1.348 . S
C145 C143 1.356 . S
H146 C140 0.930 . S
H147 C144 0.930 . S
O148 Li88 1.956 . S
O148 Li89 1.970 . S
O148 Li90 1.961 . S
O148 C92 1.325 . S
O149 Li88 1.970 . S
O149 Li89 1.956 . S
O149 Li91 1.961 . S
O149 C98 1.325 . S
O150 Li88 1.961 . S
O150 Li90 1.956 . S
O150 Li91 1.970 . S
O150 C120 1.325 . S
O151 Li89 1.961 . S
O151 Li90 1.970 . S
O151 Li91 1.956 . S
O151 C126 1.325 . S
H152 C94 0.929 . S
H153 C95 0.930 1_455 S
H154 C96 0.930 . S
H155 C97 0.930 . S
H156 C99 0.930 . S
H157 C101 0.929 . S
H158 C102 0.930 . S
H159 C103 0.930 . S
H160 C106 0.930 . S
H161 C109 0.929 . S
H162 C114 0.929 . S
H163 C115 0.930 . S
H164 C122 0.929 . S
H165 C123 0.930 . S
H166 C124 0.930 . S
H167 C125 0.930 . S
H168 C127 0.929 . S
H169 C128 0.930 . S
H170 C129 0.930 . S
H171 C130 0.930 . S
H172 C134 0.929 . S
H173 C136 0.930 1_455 S
H174 C142 0.929 . S
H175 C143 0.930 . S
Li176 N193 1.990 . S
Li176 O236 1.956 . S
Li176 O237 1.970 . S
Li176 O238 1.961 . S
Li177 N201 1.990 . S
Li177 O236 1.970 . S
Li177 O237 1.956 . S
Li177 O239 1.961 . S
Li178 N223 1.990 . S
Li178 O236 1.961 . S
Li178 O238 1.956 . S
Li178 O239 1.970 . S
Li179 N229 1.990 . S
Li179 O237 1.961 . S
Li179 O238 1.970 . S
Li179 O239 1.956 . S
C180 C182 1.348 . S
C180 C183 1.356 . S
C180 O236 1.325 . S
N181 C184 1.314 . S
N181 C185 1.279 . S
C182 C180 1.348 . S
C182 C184 1.353 . S
C182 H240 0.929 . S
C183 C180 1.356 . S
C183 C185 1.358 . S
C183 H241 0.930 . S
C184 N181 1.314 . S
C184 C182 1.353 . S
C184 H242 0.930 . S
C185 N181 1.279 . S
C185 C183 1.358 . S
C185 H243 0.930 . S
C186 C189 1.348 . S
C186 C190 1.356 . S
C186 O237 1.325 . S
C187 N188 1.279 . S
C187 C190 1.358 . S
C187 H244 0.930 . S
N188 C187 1.279 . S
N188 C191 1.314 . S
C189 C186 1.348 . S
C189 C191 1.353 . S
C189 H245 0.929 . S
C190 C186 1.356 . S
C190 C187 1.358 . S
C190 H246 0.930 . S
C191 N188 1.314 . S
C191 C189 1.353 . S
C191 H247 0.930 . S
C192 N193 1.314 . S
C192 C197 1.353 . S
C192 H198 0.930 . S
N193 Li176 1.990 . S
N193 C192 1.314 . S
N193 C195 1.279 . S
C194 C195 1.358 . S
C194 C196 1.356 . S
C194 H248 0.930 . S
C195 N193 1.279 . S
C195 C194 1.358 . S
C195 H199 0.930 . S
C196 C194 1.356 . S
C196 C197 1.348 . S
C197 C192 1.353 . S
C197 C196 1.348 . S
C197 H249 0.929 . S
H198 C192 0.930 . S
H199 C195 0.930 . S
C200 N201 1.314 . S
C200 C202 1.353 . S
C200 H206 0.930 . S
N201 Li177 1.990 . S
N201 C200 1.314 . S
N201 C204 1.279 . S
C202 C200 1.353 . S
C202 C205 1.348 . S
C202 H250 0.929 . S
C203 C204 1.358 . S
C203 C205 1.356 . S
C203 H251 0.930 . S
C204 N201 1.279 . S
C204 C203 1.358 . S
C204 H207 0.930 . S
C205 C202 1.348 . S
C205 C203 1.356 . S
H206 C200 0.930 . S
H207 C204 0.930 . S
C208 C210 1.348 . S
C208 C211 1.356 . S
C208 O238 1.325 . S
N209 C212 1.314 . S
N209 C213 1.279 . S
C210 C208 1.348 . S
C210 C212 1.353 . S
C210 H252 0.929 . S
C211 C208 1.356 . S
C211 C213 1.358 . S
C211 H253 0.930 . S
C212 N209 1.314 . S
C212 C210 1.353 . S
C212 H254 0.930 . S
C213 N209 1.279 . S
C213 C211 1.358 . S
C213 H255 0.930 . S
C214 C215 1.348 . S
C214 C216 1.356 . S
C214 O239 1.325 . S
C215 C214 1.348 . S
C215 C217 1.353 . S
C215 H256 0.929 . S
C216 C214 1.356 . S
C216 C218 1.358 . S
C216 H257 0.930 . S
C217 C215 1.353 . S
C217 N219 1.314 . S
C217 H258 0.930 . S
C218 C216 1.358 . S
C218 N219 1.279 . S
C218 H259 0.930 . S
N219 C217 1.314 . S
N219 C218 1.279 . S
C220 C222 1.353 . S
C220 N223 1.314 . S
C220 H226 0.930 . S
C221 N223 1.279 . S
C221 C224 1.358 . S
C221 H227 0.930 . S
C222 C220 1.353 . S
C222 C225 1.348 . S
C222 H260 0.929 . S
N223 Li178 1.990 . S
N223 C220 1.314 . S
N223 C221 1.279 . S
C224 C221 1.358 . S
C224 C225 1.356 . S
C224 H261 0.930 . S
C225 C222 1.348 . S
C225 C224 1.356 . S
H226 C220 0.930 . S
H227 C221 0.930 . S
C228 N229 1.314 . S
C228 C230 1.353 . S
C228 H234 0.930 . S
N229 Li179 1.990 . S
N229 C228 1.314 . S
N229 C232 1.279 . S
C230 C228 1.353 . S
C230 C233 1.348 . S
C230 H262 0.929 . S
C231 C232 1.358 . S
C231 C233 1.356 . S
C231 H263 0.930 . S
C232 N229 1.279 . S
C232 C231 1.358 . S
C232 H235 0.930 . S
C233 C230 1.348 . S
C233 C231 1.356 . S
H234 C228 0.930 . S
H235 C232 0.930 . S
O236 Li176 1.956 . S
O236 Li177 1.970 . S
O236 Li178 1.961 . S
O236 C180 1.325 . S
O237 Li176 1.970 . S
O237 Li177 1.956 . S
O237 Li179 1.961 . S
O237 C186 1.325 . S
O238 Li176 1.961 . S
O238 Li178 1.956 . S
O238 Li179 1.970 . S
O238 C208 1.325 . S
O239 Li177 1.961 . S
O239 Li178 1.970 . S
O239 Li179 1.956 . S
O239 C214 1.325 . S
H240 C182 0.929 . S
H241 C183 0.930 . S
H242 C184 0.930 . S
H243 C185 0.930 . S
H244 C187 0.930 . S
H245 C189 0.929 . S
H246 C190 0.930 . S
H247 C191 0.930 . S
H248 C194 0.930 . S
H249 C197 0.929 . S
H250 C202 0.929 . S
H251 C203 0.930 . S
H252 C210 0.929 . S
H253 C211 0.930 . S
H254 C212 0.930 . S
H255 C213 0.930 . S
H256 C215 0.929 . S
H257 C216 0.930 . S
H258 C217 0.930 . S
H259 C218 0.930 . S
H260 C222 0.929 . S
H261 C224 0.930 . S
H262 C230 0.929 . S
H263 C231 0.930 . S
Li264 N281 1.990 . S
Li264 O324 1.956 . S
Li264 O325 1.970 . S
Li264 O326 1.961 . S
Li265 N289 1.990 . S
Li265 O324 1.970 . S
Li265 O325 1.956 . S
Li265 O327 1.961 . S
Li266 N311 1.990 . S
Li266 O324 1.961 . S
Li266 O326 1.956 . S
Li266 O327 1.970 . S
Li267 N317 1.990 . S
Li267 O325 1.961 . S
Li267 O326 1.970 . S
Li267 O327 1.956 . S
C268 C270 1.348 . S
C268 C271 1.356 . S
C268 O324 1.325 . S
N269 C272 1.314 . S
N269 C273 1.279 . S
C270 C268 1.348 . S
C270 C272 1.353 . S
C270 H328 0.929 . S
C271 C268 1.356 . S
C271 C273 1.358 . S
C271 H329 0.930 . S
C272 N269 1.314 . S
C272 C270 1.353 . S
C272 H330 0.930 . S
C273 N269 1.279 . S
C273 C271 1.358 . S
C273 H331 0.930 . S
C274 C277 1.348 . S
C274 C278 1.356 . S
C274 O325 1.325 . S
C275 N276 1.279 . S
C275 C278 1.358 . S
C275 H332 0.930 . S
N276 C275 1.279 . S
N276 C279 1.314 . S
C277 C274 1.348 . S
C277 C279 1.353 . S
C277 H333 0.929 . S
C278 C274 1.356 . S
C278 C275 1.358 . S
C278 H334 0.930 . S
C279 N276 1.314 . S
C279 C277 1.353 . S
C279 H335 0.930 . S
C280 N281 1.314 . S
C280 C285 1.353 . S
C280 H286 0.930 . S
N281 Li264 1.990 . S
N281 C280 1.314 . S
N281 C283 1.279 . S
C282 C283 1.358 . S
C282 C284 1.356 . S
C282 H336 0.930 . S
C283 N281 1.279 . S
C283 C282 1.358 . S
C283 H287 0.930 . S
C284 C282 1.356 . S
C284 C285 1.348 . S
C285 C280 1.353 . S
C285 C284 1.348 . S
C285 H337 0.929 . S
H286 C280 0.930 . S
H287 C283 0.930 . S
C288 N289 1.314 . S
C288 C290 1.353 . S
C288 H294 0.930 . S
N289 Li265 1.990 . S
N289 C288 1.314 . S
N289 C292 1.279 . S
C290 C288 1.353 . S
C290 C293 1.348 . S
C290 H338 0.929 . S
C291 C292 1.358 . S
C291 C293 1.356 . S
C291 H339 0.930 . S
C292 N289 1.279 . S
C292 C291 1.358 . S
C292 H295 0.930 . S
C293 C290 1.348 . S
C293 C291 1.356 . S
H294 C288 0.930 . S
H295 C292 0.930 . S
C296 C298 1.348 . S
C296 C299 1.356 . S
C296 O326 1.325 . S
N297 C300 1.314 . S
N297 C301 1.279 . S
C298 C296 1.348 . S
C298 C300 1.353 . S
C298 H340 0.929 . S
C299 C296 1.356 . S
C299 C301 1.358 . S
C299 H341 0.930 . S
C300 N297 1.314 . S
C300 C298 1.353 . S
C300 H342 0.930 . S
C301 N297 1.279 . S
C301 C299 1.358 . S
C301 H343 0.930 . S
C302 C303 1.348 . S
C302 C304 1.356 . S
C302 O327 1.325 . S
C303 C302 1.348 . S
C303 C305 1.353 . S
C303 H344 0.929 . S
C304 C302 1.356 . S
C304 C306 1.358 . S
C304 H345 0.930 . S
C305 C303 1.353 . S
C305 N307 1.314 . S
C305 H346 0.930 . S
C306 C304 1.358 . S
C306 N307 1.279 . S
C306 H347 0.930 . S
N307 C305 1.314 . S
N307 C306 1.279 . S
C308 C310 1.353 . S
C308 N311 1.314 . S
C308 H314 0.930 . S
C309 N311 1.279 . S
C309 C312 1.358 . S
C309 H315 0.930 . S
C310 C308 1.353 . S
C310 C313 1.348 . S
C310 H348 0.929 . S
N311 Li266 1.990 . S
N311 C308 1.314 . S
N311 C309 1.279 . S
C312 C309 1.358 . S
C312 C313 1.356 . S
C312 H349 0.930 . S
C313 C310 1.348 . S
C313 C312 1.356 . S
H314 C308 0.930 . S
H315 C309 0.930 . S
C316 N317 1.314 . S
C316 C318 1.353 . S
C316 H322 0.930 . S
N317 Li267 1.990 . S
N317 C316 1.314 . S
N317 C320 1.279 . S
C318 C316 1.353 . S
C318 C321 1.348 . S
C318 H350 0.929 . S
C319 C320 1.358 . S
C319 C321 1.356 . S
C319 H351 0.930 . S
C320 N317 1.279 . S
C320 C319 1.358 . S
C320 H323 0.930 . S
C321 C318 1.348 . S
C321 C319 1.356 . S
H322 C316 0.930 . S
H323 C320 0.930 . S
O324 Li264 1.956 . S
O324 Li265 1.970 . S
O324 Li266 1.961 . S
O324 C268 1.325 . S
O325 Li264 1.970 . S
O325 Li265 1.956 . S
O325 Li267 1.961 . S
O325 C274 1.325 . S
O326 Li264 1.961 . S
O326 Li266 1.956 . S
O326 Li267 1.970 . S
O326 C296 1.325 . S
O327 Li265 1.961 . S
O327 Li266 1.970 . S
O327 Li267 1.956 . S
O327 C302 1.325 . S
H328 C270 0.929 . S
H329 C271 0.930 . S
H330 C272 0.930 . S
H331 C273 0.930 . S
H332 C275 0.930 . S
H333 C277 0.929 . S
H334 C278 0.930 . S
H335 C279 0.930 . S
H336 C282 0.930 . S
H337 C285 0.929 . S
H338 C290 0.929 . S
H339 C291 0.930 . S
H340 C298 0.929 . S
H341 C299 0.930 . S
H342 C300 0.930 . S
H343 C301 0.930 . S
H344 C303 0.929 . S
H345 C304 0.930 . S
H346 C305 0.930 . S
H347 C306 0.930 . S
H348 C310 0.929 . S
H349 C312 0.930 . S
H350 C318 0.929 . S
H351 C319 0.930 . S
Li352 N369 1.990 . S
Li352 O412 1.956 . S
Li352 O413 1.970 . S
Li352 O414 1.961 . S
Li353 N377 1.990 . S
Li353 O412 1.970 . S
Li353 O413 1.956 . S
Li353 O415 1.961 . S
Li354 N399 1.990 . S
Li354 O412 1.961 . S
Li354 O414 1.956 . S
Li354 O415 1.970 . S
Li355 N405 1.990 . S
Li355 O413 1.961 . S
Li355 O414 1.970 . S
Li355 O415 1.956 . S
C356 C358 1.348 . S
C356 C359 1.356 . S
C356 O412 1.325 . S
N357 C360 1.314 . S
N357 C361 1.279 . S
C358 C356 1.348 . S
C358 C360 1.353 . S
C358 H416 0.929 . S
C359 C356 1.356 . S
C359 C361 1.358 . S
C359 H417 0.930 . S
C360 N357 1.314 . S
C360 C358 1.353 . S
C360 H418 0.930 . S
C361 N357 1.279 . S
C361 C359 1.358 . S
C361 H419 0.930 . S
C362 C365 1.348 . S
C362 C366 1.356 . S
C362 O413 1.325 . S
C363 N364 1.279 . S
C363 C366 1.358 . S
C363 H420 0.930 . S
N364 C363 1.279 . S
N364 C367 1.314 . S
C365 C362 1.348 . S
C365 C367 1.353 . S
C365 H421 0.929 . S
C366 C362 1.356 . S
C366 C363 1.358 . S
C366 H422 0.930 . S
C367 N364 1.314 . S
C367 C365 1.353 . S
C367 H423 0.930 . S
C368 N369 1.314 . S
C368 C373 1.353 . S
C368 H374 0.930 . S
N369 Li352 1.990 . S
N369 C368 1.314 . S
N369 C371 1.279 . S
C370 C371 1.358 . S
C370 C372 1.356 . S
C370 H424 0.930 . S
C371 N369 1.279 . S
C371 C370 1.358 . S
C371 H375 0.930 . S
C372 C370 1.356 . S
C372 C373 1.348 . S
C373 C368 1.353 . S
C373 C372 1.348 . S
C373 H425 0.929 . S
H374 C368 0.930 . S
H375 C371 0.930 . S
C376 N377 1.314 . S
C376 C378 1.353 . S
C376 H382 0.930 . S
N377 Li353 1.990 . S
N377 C376 1.314 . S
N377 C380 1.279 . S
C378 C376 1.353 . S
C378 C381 1.348 . S
C378 H426 0.929 . S
C379 C380 1.358 . S
C379 C381 1.356 . S
C379 H427 0.930 . S
C380 N377 1.279 . S
C380 C379 1.358 . S
C380 H383 0.930 . S
C381 C378 1.348 . S
C381 C379 1.356 . S
H382 C376 0.930 . S
H383 C380 0.930 . S
C384 C386 1.348 . S
C384 C387 1.356 . S
C384 O414 1.325 . S
N385 C388 1.314 . S
N385 C389 1.279 . S
C386 C384 1.348 . S
C386 C388 1.353 . S
C386 H428 0.929 . S
C387 C384 1.356 . S
C387 C389 1.358 . S
C387 H429 0.930 . S
C388 N385 1.314 . S
C388 C386 1.353 . S
C388 H430 0.930 . S
C389 N385 1.279 . S
C389 C387 1.358 . S
C389 H431 0.930 . S
C390 C391 1.348 . S
C390 C392 1.356 . S
C390 O415 1.325 . S
C391 C390 1.348 . S
C391 C393 1.353 . S
C391 H432 0.929 . S
C392 C390 1.356 . S
C392 C394 1.358 . S
C392 H433 0.930 . S
C393 C391 1.353 . S
C393 N395 1.314 . S
C393 H434 0.930 . S
C394 C392 1.358 . S
C394 N395 1.279 . S
C394 H435 0.930 . S
N395 C393 1.314 . S
N395 C394 1.279 . S
C396 C398 1.353 . S
C396 N399 1.314 . S
C396 H402 0.930 . S
C397 N399 1.279 . S
C397 C400 1.358 . S
C397 H403 0.930 . S
C398 C396 1.353 . S
C398 C401 1.348 . S
C398 H436 0.929 . S
N399 Li354 1.990 . S
N399 C396 1.314 . S
N399 C397 1.279 . S
C400 C397 1.358 . S
C400 C401 1.356 . S
C400 H437 0.930 . S
C401 C398 1.348 . S
C401 C400 1.356 . S
H402 C396 0.930 . S
H403 C397 0.930 . S
C404 N405 1.314 . S
C404 C406 1.353 . S
C404 H410 0.930 . S
N405 Li355 1.990 . S
N405 C404 1.314 . S
N405 C408 1.279 . S
C406 C404 1.353 . S
C406 C409 1.348 . S
C406 H438 0.929 . S
C407 C408 1.358 . S
C407 C409 1.356 . S
C407 H439 0.930 . S
C408 N405 1.279 . S
C408 C407 1.358 . S
C408 H411 0.930 . S
C409 C406 1.348 . S
C409 C407 1.356 . S
H410 C404 0.930 . S
H411 C408 0.930 . S
O412 Li352 1.956 . S
O412 Li353 1.970 . S
O412 Li354 1.961 . S
O412 C356 1.325 . S
O413 Li352 1.970 . S
O413 Li353 1.956 . S
O413 Li355 1.961 . S
O413 C362 1.325 . S
O414 Li352 1.961 . S
O414 Li354 1.956 . S
O414 Li355 1.970 . S
O414 C384 1.325 . S
O415 Li353 1.961 . S
O415 Li354 1.970 . S
O415 Li355 1.956 . S
O415 C390 1.325 . S
H416 C358 0.929 . S
H417 C359 0.930 . S
H418 C360 0.930 . S
H419 C361 0.930 . S
H420 C363 0.930 . S
H421 C365 0.929 . S
H422 C366 0.930 . S
H423 C367 0.930 . S
H424 C370 0.930 . S
H425 C373 0.929 . S
H426 C378 0.929 . S
H427 C379 0.930 . S
H428 C386 0.929 . S
H429 C387 0.930 . S
H430 C388 0.930 . S
H431 C389 0.930 . S
H432 C391 0.929 . S
H433 C392 0.930 . S
H434 C393 0.930 . S
H435 C394 0.930 . S
H436 C398 0.929 . S
H437 C400 0.930 . S
H438 C406 0.929 . S
H439 C407 0.930 . S
Li440 N457 1.990 . S
Li440 O500 1.956 . S
Li440 O501 1.970 . S
Li440 O502 1.961 . S
Li441 N465 1.990 . S
Li441 O500 1.970 . S
Li441 O501 1.956 . S
Li441 O503 1.961 . S
Li442 N487 1.990 . S
Li442 O500 1.961 . S
Li442 O502 1.956 . S
Li442 O503 1.970 . S
Li443 N493 1.990 . S
Li443 O501 1.961 . S
Li443 O502 1.970 . S
Li443 O503 1.956 . S
C444 C446 1.348 . S
C444 C447 1.356 . S
C444 O500 1.325 . S
N445 C448 1.314 . S
N445 C449 1.279 . S
C446 C444 1.348 . S
C446 C448 1.353 . S
C446 H504 0.929 . S
C447 C444 1.356 . S
C447 C449 1.358 . S
C447 H505 0.930 . S
C448 N445 1.314 . S
C448 C446 1.353 . S
C448 H506 0.930 . S
C449 N445 1.279 . S
C449 C447 1.358 . S
C449 H507 0.930 . S
C450 C453 1.348 . S
C450 C454 1.356 . S
C450 O501 1.325 . S
C451 N452 1.279 . S
C451 C454 1.358 . S
C451 H508 0.930 . S
N452 C451 1.279 . S
N452 C455 1.314 . S
C453 C450 1.348 . S
C453 C455 1.353 . S
C453 H509 0.929 . S
C454 C450 1.356 . S
C454 C451 1.358 . S
C454 H510 0.930 . S
C455 N452 1.314 . S
C455 C453 1.353 . S
C455 H511 0.930 . S
C456 N457 1.314 . S
C456 C461 1.353 . S
C456 H462 0.930 . S
N457 Li440 1.990 . S
N457 C456 1.314 . S
N457 C459 1.279 . S
C458 C459 1.358 . S
C458 C460 1.356 . S
C458 H512 0.930 . S
C459 N457 1.279 . S
C459 C458 1.358 . S
C459 H463 0.930 . S
C460 C458 1.356 . S
C460 C461 1.348 . S
C461 C456 1.353 . S
C461 C460 1.348 . S
C461 H513 0.929 . S
H462 C456 0.930 . S
H463 C459 0.930 . S
C464 N465 1.314 . S
C464 C466 1.353 . S
C464 H470 0.930 . S
N465 Li441 1.990 . S
N465 C464 1.314 . S
N465 C468 1.279 . S
C466 C464 1.353 . S
C466 C469 1.348 . S
C466 H514 0.929 . S
C467 C468 1.358 . S
C467 C469 1.356 . S
C467 H515 0.930 . S
C468 N465 1.279 . S
C468 C467 1.358 . S
C468 H471 0.930 . S
C469 C466 1.348 . S
C469 C467 1.356 . S
H470 C464 0.930 . S
H471 C468 0.930 . S
C472 C474 1.348 . S
C472 C475 1.356 . S
C472 O502 1.325 . S
N473 C476 1.314 . S
N473 C477 1.279 . S
C474 C472 1.348 . S
C474 C476 1.353 . S
C474 H516 0.929 . S
C475 C472 1.356 . S
C475 C477 1.358 . S
C475 H517 0.930 . S
C476 N473 1.314 . S
C476 C474 1.353 . S
C476 H518 0.930 . S
C477 N473 1.279 . S
C477 C475 1.358 . S
C477 H519 0.930 . S
C478 C479 1.348 . S
C478 C480 1.356 . S
C478 O503 1.325 . S
C479 C478 1.348 . S
C479 C481 1.353 . S
C479 H520 0.929 . S
C480 C478 1.356 . S
C480 C482 1.358 . S
C480 H521 0.930 . S
C481 C479 1.353 . S
C481 N483 1.314 . S
C481 H522 0.930 . S
C482 C480 1.358 . S
C482 N483 1.279 . S
C482 H523 0.930 . S
N483 C481 1.314 . S
N483 C482 1.279 . S
C484 C486 1.353 . S
C484 N487 1.314 . S
C484 H490 0.930 . S
C485 N487 1.279 . S
C485 C488 1.358 . S
C485 H491 0.930 . S
C486 C484 1.353 . S
C486 C489 1.348 . S
C486 H524 0.929 . S
N487 Li442 1.990 . S
N487 C484 1.314 . S
N487 C485 1.279 . S
C488 C485 1.358 . S
C488 C489 1.356 . S
C488 H525 0.930 . S
C489 C486 1.348 . S
C489 C488 1.356 . S
H490 C484 0.930 . S
H491 C485 0.930 . S
C492 N493 1.314 . S
C492 C494 1.353 . S
C492 H498 0.930 . S
N493 Li443 1.990 . S
N493 C492 1.314 . S
N493 C496 1.279 . S
C494 C492 1.353 . S
C494 C497 1.348 . S
C494 H526 0.929 . S
C495 C496 1.358 . S
C495 C497 1.356 . S
C495 H527 0.930 . S
C496 N493 1.279 . S
C496 C495 1.358 . S
C496 H499 0.930 . S
C497 C494 1.348 . S
C497 C495 1.356 . S
H498 C492 0.930 . S
H499 C496 0.930 . S
O500 Li440 1.956 . S
O500 Li441 1.970 . S
O500 Li442 1.961 . S
O500 C444 1.325 . S
O501 Li440 1.970 . S
O501 Li441 1.956 . S
O501 Li443 1.961 . S
O501 C450 1.325 . S
O502 Li440 1.961 . S
O502 Li442 1.956 . S
O502 Li443 1.970 . S
O502 C472 1.325 . S
O503 Li441 1.961 . S
O503 Li442 1.970 . S
O503 Li443 1.956 . S
O503 C478 1.325 . S
H504 C446 0.929 . S
H505 C447 0.930 . S
H506 C448 0.930 . S
H507 C449 0.930 . S
H508 C451 0.930 . S
H509 C453 0.929 . S
H510 C454 0.930 . S
H511 C455 0.930 . S
H512 C458 0.930 . S
H513 C461 0.929 . S
H514 C466 0.929 . S
H515 C467 0.930 . S
H516 C474 0.929 . S
H517 C475 0.930 . S
H518 C476 0.930 . S
H519 C477 0.930 . S
H520 C479 0.929 . S
H521 C480 0.930 . S
H522 C481 0.930 . S
H523 C482 0.930 . S
H524 C486 0.929 . S
H525 C488 0.930 . S
H526 C494 0.929 . S
H527 C495 0.930 . S
Li528 N545 1.990 . S
Li528 O588 1.956 . S
Li528 O589 1.970 . S
Li528 O590 1.961 . S
Li529 N553 1.990 . S
Li529 O588 1.970 . S
Li529 O589 1.956 . S
Li529 O591 1.961 . S
Li530 N575 1.990 . S
Li530 O588 1.961 . S
Li530 O590 1.956 . S
Li530 O591 1.970 . S
Li531 N581 1.990 . S
Li531 O589 1.961 . S
Li531 O590 1.970 . S
Li531 O591 1.956 . S
C532 C534 1.348 . S
C532 C535 1.356 . S
C532 O588 1.325 . S
N533 C536 1.314 . S
N533 C537 1.279 . S
C534 C532 1.348 . S
C534 C536 1.353 . S
C534 H592 0.929 . S
C535 C532 1.356 . S
C535 C537 1.358 . S
C535 H593 0.930 . S
C536 N533 1.314 . S
C536 C534 1.353 . S
C536 H594 0.930 . S
C537 N533 1.279 . S
C537 C535 1.358 . S
C537 H595 0.930 . S
C538 C541 1.348 . S
C538 C542 1.356 . S
C538 O589 1.325 . S
C539 N540 1.279 1_565 S
C539 C542 1.358 1_565 S
C539 H596 0.930 . S
N540 C539 1.279 1_545 S
N540 C543 1.314 . S
C541 C538 1.348 . S
C541 C543 1.353 . S
C541 H597 0.929 . S
C542 C538 1.356 . S
C542 C539 1.358 1_545 S
C542 H598 0.930 . S
C543 N540 1.314 . S
C543 C541 1.353 . S
C543 H599 0.930 . S
C544 N545 1.314 . S
C544 C549 1.353 . S
C544 H550 0.930 . S
N545 Li528 1.990 . S
N545 C544 1.314 . S
N545 C547 1.279 . S
C546 C547 1.358 . S
C546 C548 1.356 . S
C546 H600 0.930 . S
C547 N545 1.279 . S
C547 C546 1.358 . S
C547 H551 0.930 . S
C548 C546 1.356 . S
C548 C549 1.348 . S
C549 C544 1.353 . S
C549 C548 1.348 . S
C549 H601 0.929 . S
H550 C544 0.930 . S
H551 C547 0.930 . S
C552 N553 1.314 . S
C552 C554 1.353 . S
C552 H558 0.930 . S
N553 Li529 1.990 . S
N553 C552 1.314 . S
N553 C556 1.279 . S
C554 C552 1.353 . S
C554 C557 1.348 1_545 S
C554 H602 0.929 . S
C555 C556 1.358 . S
C555 C557 1.356 1_545 S
C555 H603 0.930 1_545 S
C556 N553 1.279 . S
C556 C555 1.358 . S
C556 H559 0.930 . S
C557 C554 1.348 1_565 S
C557 C555 1.356 1_565 S
H558 C552 0.930 . S
H559 C556 0.930 . S
C560 C562 1.348 . S
C560 C563 1.356 . S
C560 O590 1.325 . S
N561 C564 1.314 . S
N561 C565 1.279 . S
C562 C560 1.348 . S
C562 C564 1.353 . S
C562 H604 0.929 . S
C563 C560 1.356 . S
C563 C565 1.358 . S
C563 H605 0.930 . S
C564 N561 1.314 . S
C564 C562 1.353 . S
C564 H606 0.930 . S
C565 N561 1.279 . S
C565 C563 1.358 . S
C565 H607 0.930 . S
C566 C567 1.348 . S
C566 C568 1.356 . S
C566 O591 1.325 . S
C567 C566 1.348 . S
C567 C569 1.353 . S
C567 H608 0.929 . S
C568 C566 1.356 . S
C568 C570 1.358 1_545 S
C568 H609 0.930 1_545 S
C569 C567 1.353 . S
C569 N571 1.314 1_545 S
C569 H610 0.930 . S
C570 C568 1.358 1_565 S
C570 N571 1.279 . S
C570 H611 0.930 . S
N571 C569 1.314 1_565 S
N571 C570 1.279 . S
C572 C574 1.353 . S
C572 N575 1.314 . S
C572 H578 0.930 . S
C573 N575 1.279 . S
C573 C576 1.358 . S
C573 H579 0.930 . S
C574 C572 1.353 . S
C574 C577 1.348 . S
C574 H612 0.929 . S
N575 Li530 1.990 . S
N575 C572 1.314 . S
N575 C573 1.279 . S
C576 C573 1.358 . S
C576 C577 1.356 . S
C576 H613 0.930 . S
C577 C574 1.348 . S
C577 C576 1.356 . S
H578 C572 0.930 . S
H579 C573 0.930 . S
C580 N581 1.314 . S
C580 C582 1.353 . S
C580 H586 0.930 . S
N581 Li531 1.990 . S
N581 C580 1.314 . S
N581 C584 1.279 . S
C582 C580 1.353 . S
C582 C585 1.348 1_545 S
C582 H614 0.929 . S
C583 C584 1.358 1_565 S
C583 C585 1.356 . S
C583 H615 0.930 . S
C584 N581 1.279 . S
C584 C583 1.358 1_545 S
C584 H587 0.930 . S
C585 C582 1.348 1_565 S
C585 C583 1.356 . S
H586 C580 0.930 . S
H587 C584 0.930 . S
O588 Li528 1.956 . S
O588 Li529 1.970 . S
O588 Li530 1.961 . S
O588 C532 1.325 . S
O589 Li528 1.970 . S
O589 Li529 1.956 . S
O589 Li531 1.961 . S
O589 C538 1.325 . S
O590 Li528 1.961 . S
O590 Li530 1.956 . S
O590 Li531 1.970 . S
O590 C560 1.325 . S
O591 Li529 1.961 . S
O591 Li530 1.970 . S
O591 Li531 1.956 . S
O591 C566 1.325 . S
H592 C534 0.929 . S
H593 C535 0.930 . S
H594 C536 0.930 . S
H595 C537 0.930 . S
H596 C539 0.930 . S
H597 C541 0.929 . S
H598 C542 0.930 . S
H599 C543 0.930 . S
H600 C546 0.930 . S
H601 C549 0.929 . S
H602 C554 0.929 . S
H603 C555 0.930 1_565 S
H604 C562 0.929 . S
H605 C563 0.930 . S
H606 C564 0.930 . S
H607 C565 0.930 . S
H608 C567 0.929 . S
H609 C568 0.930 1_565 S
H610 C569 0.930 . S
H611 C570 0.930 . S
H612 C574 0.929 . S
H613 C576 0.930 . S
H614 C582 0.929 . S
H615 C583 0.930 . S
Li616 N633 1.990 . S
Li616 O676 1.956 . S
Li616 O677 1.970 . S
Li616 O678 1.961 . S
Li617 N641 1.990 . S
Li617 O676 1.970 . S
Li617 O677 1.956 . S
Li617 O679 1.961 . S
Li618 N663 1.990 . S
Li618 O676 1.961 . S
Li618 O678 1.956 . S
Li618 O679 1.970 . S
Li619 N669 1.990 . S
Li619 O677 1.961 . S
Li619 O678 1.970 . S
Li619 O679 1.956 . S
C620 C622 1.348 . S
C620 C623 1.356 . S
C620 O676 1.325 . S
N621 C624 1.314 . S
N621 C625 1.279 1_655 S
C622 C620 1.348 . S
C622 C624 1.353 . S
C622 H680 0.929 . S
C623 C620 1.356 . S
C623 C625 1.358 1_655 S
C623 H681 0.930 . S
C624 N621 1.314 . S
C624 C622 1.353 . S
C624 H682 0.930 . S
C625 N621 1.279 1_455 S
C625 C623 1.358 1_455 S
C625 H683 0.930 . S
C626 C629 1.348 . S
C626 C630 1.356 . S
C626 O677 1.325 . S
C627 N628 1.279 . S
C627 C630 1.358 . S
C627 H684 0.930 . S
N628 C627 1.279 . S
N628 C631 1.314 . S
C629 C626 1.348 . S
C629 C631 1.353 . S
C629 H685 0.929 . S
C630 C626 1.356 . S
C630 C627 1.358 . S
C630 H686 0.930 . S
C631 N628 1.314 . S
C631 C629 1.353 . S
C631 H687 0.930 . S
C632 N633 1.314 . S
C632 C637 1.353 . S
C632 H638 0.930 . S
N633 Li616 1.990 . S
N633 C632 1.314 . S
N633 C635 1.279 . S
C634 C635 1.358 . S
C634 C636 1.356 1_655 S
C634 H688 0.930 1_655 S
C635 N633 1.279 . S
C635 C634 1.358 . S
C635 H639 0.930 . S
C636 C634 1.356 1_455 S
C636 C637 1.348 1_455 S
C637 C632 1.353 . S
C637 C636 1.348 1_655 S
C637 H689 0.929 . S
H638 C632 0.930 . S
H639 C635 0.930 . S
C640 N641 1.314 . S
C640 C642 1.353 . S
C640 H646 0.930 . S
N641 Li617 1.990 . S
N641 C640 1.314 . S
N641 C644 1.279 . S
C642 C640 1.353 . S
C642 C645 1.348 . S
C642 H690 0.929 . S
C643 C644 1.358 . S
C643 C645 1.356 . S
C643 H691 0.930 . S
C644 N641 1.279 . S
C644 C643 1.358 . S
C644 H647 0.930 . S
C645 C642 1.348 . S
C645 C643 1.356 . S
H646 C640 0.930 . S
H647 C644 0.930 . S
C648 C650 1.348 . S
C648 C651 1.356 . S
C648 O678 1.325 . S
N649 C652 1.314 1_455 S
N649 C653 1.279 . S
C650 C648 1.348 . S
C650 C652 1.353 . S
C650 H692 0.929 . S
C651 C648 1.356 . S
C651 C653 1.358 1_655 S
C651 H693 0.930 1_655 S
C652 N649 1.314 1_655 S
C652 C650 1.353 . S
C652 H694 0.930 . S
C653 N649 1.279 . S
C653 C651 1.358 1_455 S
C653 H695 0.930 . S
C654 C655 1.348 . S
C654 C656 1.356 . S
C654 O679 1.325 . S
C655 C654 1.348 . S
C655 C657 1.353 . S
C655 H696 0.929 . S
C656 C654 1.356 . S
C656 C658 1.358 . S
C656 H697 0.930 . S
C657 C655 1.353 . S
C657 N659 1.314 . S
C657 H698 0.930 . S
C658 C656 1.358 . S
C658 N659 1.279 . S
C658 H699 0.930 . S
N659 C657 1.314 . S
N659 C658 1.279 . S
C660 C662 1.353 . S
C660 N663 1.314 . S
C660 H666 0.930 . S
C661 N663 1.279 . S
C661 C664 1.358 1_655 S
C661 H667 0.930 . S
C662 C660 1.353 . S
C662 C665 1.348 1_655 S
C662 H700 0.929 . S
N663 Li618 1.990 . S
N663 C660 1.314 . S
N663 C661 1.279 . S
C664 C661 1.358 1_455 S
C664 C665 1.356 . S
C664 H701 0.930 . S
C665 C662 1.348 1_455 S
C665 C664 1.356 . S
H666 C660 0.930 . S
H667 C661 0.930 . S
C668 N669 1.314 . S
C668 C670 1.353 . S
C668 H674 0.930 . S
N669 Li619 1.990 . S
N669 C668 1.314 . S
N669 C672 1.279 . S
C670 C668 1.353 . S
C670 C673 1.348 . S
C670 H702 0.929 . S
C671 C672 1.358 . S
C671 C673 1.356 . S
C671 H703 0.930 . S
C672 N669 1.279 . S
C672 C671 1.358 . S
C672 H675 0.930 . S
C673 C670 1.348 . S
C673 C671 1.356 . S
H674 C668 0.930 . S
H675 C672 0.930 . S
O676 Li616 1.956 . S
O676 Li617 1.970 . S
O676 Li618 1.961 . S
O676 C620 1.325 . S
O677 Li616 1.970 . S
O677 Li617 1.956 . S
O677 Li619 1.961 . S
O677 C626 1.325 . S
O678 Li616 1.961 . S
O678 Li618 1.956 . S
O678 Li619 1.970 . S
O678 C648 1.325 . S
O679 Li617 1.961 . S
O679 Li618 1.970 . S
O679 Li619 1.956 . S
O679 C654 1.325 . S
H680 C622 0.929 . S
H681 C623 0.930 . S
H682 C624 0.930 . S
H683 C625 0.930 . S
H684 C627 0.930 . S
H685 C629 0.929 . S
H686 C630 0.930 . S
H687 C631 0.930 . S
H688 C634 0.930 1_455 S
H689 C637 0.929 . S
H690 C642 0.929 . S
H691 C643 0.930 . S
H692 C650 0.929 . S
H693 C651 0.930 1_455 S
H694 C652 0.930 . S
H695 C653 0.930 . S
H696 C655 0.929 . S
H697 C656 0.930 . S
H698 C657 0.930 . S
H699 C658 0.930 . S
H700 C662 0.929 . S
H701 C664 0.930 . S
H702 C670 0.929 . S
H703 C671 0.930 . S
Li704 N721 1.990 . S
Li704 O764 1.956 . S
Li704 O765 1.970 . S
Li704 O766 1.961 . S
Li705 N729 1.990 . S
Li705 O764 1.970 . S
Li705 O765 1.956 . S
Li705 O767 1.961 . S
Li706 N751 1.990 . S
Li706 O764 1.961 . S
Li706 O766 1.956 . S
Li706 O767 1.970 . S
Li707 N757 1.990 . S
Li707 O765 1.961 . S
Li707 O766 1.970 . S
Li707 O767 1.956 . S
C708 C710 1.348 . S
C708 C711 1.356 . S
C708 O764 1.325 . S
N709 C712 1.314 . S
N709 C713 1.279 . S
C710 C708 1.348 . S
C710 C712 1.353 . S
C710 H768 0.929 . S
C711 C708 1.356 . S
C711 C713 1.358 . S
C711 H769 0.930 . S
C712 N709 1.314 . S
C712 C710 1.353 . S
C712 H770 0.930 . S
C713 N709 1.279 . S
C713 C711 1.358 . S
C713 H771 0.930 . S
C714 C717 1.348 . S
C714 C718 1.356 . S
C714 O765 1.325 . S
C715 N716 1.279 . S
C715 C718 1.358 . S
C715 H772 0.930 . S
N716 C715 1.279 . S
N716 C719 1.314 . S
C717 C714 1.348 . S
C717 C719 1.353 . S
C717 H773 0.929 . S
C718 C714 1.356 . S
C718 C715 1.358 . S
C718 H774 0.930 . S
C719 N716 1.314 . S
C719 C717 1.353 . S
C719 H775 0.930 . S
C720 N721 1.314 . S
C720 C725 1.353 . S
C720 H726 0.930 . S
N721 Li704 1.990 . S
N721 C720 1.314 . S
N721 C723 1.279 . S
C722 C723 1.358 . S
C722 C724 1.356 . S
C722 H776 0.930 . S
C723 N721 1.279 . S
C723 C722 1.358 . S
C723 H727 0.930 . S
C724 C722 1.356 . S
C724 C725 1.348 . S
C725 C720 1.353 . S
C725 C724 1.348 . S
C725 H777 0.929 . S
H726 C720 0.930 . S
H727 C723 0.930 . S
C728 N729 1.314 . S
C728 C730 1.353 . S
C728 H734 0.930 . S
N729 Li705 1.990 . S
N729 C728 1.314 . S
N729 C732 1.279 . S
C730 C728 1.353 . S
C730 C733 1.348 . S
C730 H778 0.929 . S
C731 C732 1.358 . S
C731 C733 1.356 . S
C731 H779 0.930 . S
C732 N729 1.279 . S
C732 C731 1.358 . S
C732 H735 0.930 . S
C733 C730 1.348 . S
C733 C731 1.356 . S
H734 C728 0.930 . S
H735 C732 0.930 . S
C736 C738 1.348 . S
C736 C739 1.356 . S
C736 O766 1.325 . S
N737 C740 1.314 . S
N737 C741 1.279 . S
C738 C736 1.348 . S
C738 C740 1.353 . S
C738 H780 0.929 . S
C739 C736 1.356 . S
C739 C741 1.358 . S
C739 H781 0.930 . S
C740 N737 1.314 . S
C740 C738 1.353 . S
C740 H782 0.930 . S
C741 N737 1.279 . S
C741 C739 1.358 . S
C741 H783 0.930 . S
C742 C743 1.348 . S
C742 C744 1.356 . S
C742 O767 1.325 . S
C743 C742 1.348 . S
C743 C745 1.353 . S
C743 H784 0.929 . S
C744 C742 1.356 . S
C744 C746 1.358 . S
C744 H785 0.930 . S
C745 C743 1.353 . S
C745 N747 1.314 . S
C745 H786 0.930 . S
C746 C744 1.358 . S
C746 N747 1.279 . S
C746 H787 0.930 . S
N747 C745 1.314 . S
N747 C746 1.279 . S
C748 C750 1.353 . S
C748 N751 1.314 . S
C748 H754 0.930 . S
C749 N751 1.279 . S
C749 C752 1.358 . S
C749 H755 0.930 . S
C750 C748 1.353 . S
C750 C753 1.348 . S
C750 H788 0.929 . S
N751 Li706 1.990 . S
N751 C748 1.314 . S
N751 C749 1.279 . S
C752 C749 1.358 . S
C752 C753 1.356 . S
C752 H789 0.930 . S
C753 C750 1.348 . S
C753 C752 1.356 . S
H754 C748 0.930 . S
H755 C749 0.930 . S
C756 N757 1.314 . S
C756 C758 1.353 . S
C756 H762 0.930 . S
N757 Li707 1.990 . S
N757 C756 1.314 . S
N757 C760 1.279 . S
C758 C756 1.353 . S
C758 C761 1.348 . S
C758 H790 0.929 . S
C759 C760 1.358 . S
C759 C761 1.356 . S
C759 H791 0.930 . S
C760 N757 1.279 . S
C760 C759 1.358 . S
C760 H763 0.930 . S
C761 C758 1.348 . S
C761 C759 1.356 . S
H762 C756 0.930 . S
H763 C760 0.930 . S
O764 Li704 1.956 . S
O764 Li705 1.970 . S
O764 Li706 1.961 . S
O764 C708 1.325 . S
O765 Li704 1.970 . S
O765 Li705 1.956 . S
O765 Li707 1.961 . S
O765 C714 1.325 . S
O766 Li704 1.961 . S
O766 Li706 1.956 . S
O766 Li707 1.970 . S
O766 C736 1.325 . S
O767 Li705 1.961 . S
O767 Li706 1.970 . S
O767 Li707 1.956 . S
O767 C742 1.325 . S
H768 C710 0.929 . S
H769 C711 0.930 . S
H770 C712 0.930 . S
H771 C713 0.930 . S
H772 C715 0.930 . S
H773 C717 0.929 . S
H774 C718 0.930 . S
H775 C719 0.930 . S
H776 C722 0.930 . S
H777 C725 0.929 . S
H778 C730 0.929 . S
H779 C731 0.930 . S
H780 C738 0.929 . S
H781 C739 0.930 . S
H782 C740 0.930 . S
H783 C741 0.930 . S
H784 C743 0.929 . S
H785 C744 0.930 . S
H786 C745 0.930 . S
H787 C746 0.930 . S
H788 C750 0.929 . S
H789 C752 0.930 . S
H790 C758 0.929 . S
H791 C759 0.930 . S
Li792 N809 1.990 . S
Li792 O852 1.956 . S
Li792 O853 1.970 . S
Li792 O854 1.961 . S
Li793 N817 1.990 . S
Li793 O852 1.970 . S
Li793 O853 1.956 . S
Li793 O855 1.961 . S
Li794 N839 1.990 . S
Li794 O852 1.961 . S
Li794 O854 1.956 . S
Li794 O855 1.970 . S
Li795 N845 1.990 . S
Li795 O853 1.961 . S
Li795 O854 1.970 . S
Li795 O855 1.956 . S
C796 C798 1.348 . S
C796 C799 1.356 . S
C796 O852 1.325 . S
N797 C800 1.314 . S
N797 C801 1.279 . S
C798 C796 1.348 . S
C798 C800 1.353 . S
C798 H856 0.929 . S
C799 C796 1.356 . S
C799 C801 1.358 . S
C799 H857 0.930 . S
C800 N797 1.314 . S
C800 C798 1.353 . S
C800 H858 0.930 . S
C801 N797 1.279 . S
C801 C799 1.358 . S
C801 H859 0.930 . S
C802 C805 1.348 . S
C802 C806 1.356 . S
C802 O853 1.325 . S
C803 N804 1.279 . S
C803 C806 1.358 . S
C803 H860 0.930 . S
N804 C803 1.279 . S
N804 C807 1.314 . S
C805 C802 1.348 . S
C805 C807 1.353 . S
C805 H861 0.929 . S
C806 C802 1.356 . S
C806 C803 1.358 . S
C806 H862 0.930 . S
C807 N804 1.314 . S
C807 C805 1.353 . S
C807 H863 0.930 . S
C808 N809 1.314 . S
C808 C813 1.353 . S
C808 H814 0.930 . S
N809 Li792 1.990 . S
N809 C808 1.314 . S
N809 C811 1.279 . S
C810 C811 1.358 . S
C810 C812 1.356 . S
C810 H864 0.930 . S
C811 N809 1.279 . S
C811 C810 1.358 . S
C811 H815 0.930 . S
C812 C810 1.356 . S
C812 C813 1.348 . S
C813 C808 1.353 . S
C813 C812 1.348 . S
C813 H865 0.929 . S
H814 C808 0.930 . S
H815 C811 0.930 . S
C816 N817 1.314 . S
C816 C818 1.353 . S
C816 H822 0.930 . S
N817 Li793 1.990 . S
N817 C816 1.314 . S
N817 C820 1.279 . S
C818 C816 1.353 . S
C818 C821 1.348 . S
C818 H866 0.929 . S
C819 C820 1.358 . S
C819 C821 1.356 . S
C819 H867 0.930 . S
C820 N817 1.279 . S
C820 C819 1.358 . S
C820 H823 0.930 . S
C821 C818 1.348 . S
C821 C819 1.356 . S
H822 C816 0.930 . S
H823 C820 0.930 . S
C824 C826 1.348 . S
C824 C827 1.356 . S
C824 O854 1.325 . S
N825 C828 1.314 . S
N825 C829 1.279 . S
C826 C824 1.348 . S
C826 C828 1.353 . S
C826 H868 0.929 . S
C827 C824 1.356 . S
C827 C829 1.358 . S
C827 H869 0.930 . S
C828 N825 1.314 . S
C828 C826 1.353 . S
C828 H870 0.930 . S
C829 N825 1.279 . S
C829 C827 1.358 . S
C829 H871 0.930 . S
C830 C831 1.348 . S
C830 C832 1.356 . S
C830 O855 1.325 . S
C831 C830 1.348 . S
C831 C833 1.353 . S
C831 H872 0.929 . S
C832 C830 1.356 . S
C832 C834 1.358 . S
C832 H873 0.930 . S
C833 C831 1.353 . S
C833 N835 1.314 . S
C833 H874 0.930 . S
C834 C832 1.358 . S
C834 N835 1.279 . S
C834 H875 0.930 . S
N835 C833 1.314 . S
N835 C834 1.279 . S
C836 C838 1.353 . S
C836 N839 1.314 . S
C836 H842 0.930 . S
C837 N839 1.279 . S
C837 C840 1.358 . S
C837 H843 0.930 . S
C838 C836 1.353 . S
C838 C841 1.348 . S
C838 H876 0.929 . S
N839 Li794 1.990 . S
N839 C836 1.314 . S
N839 C837 1.279 . S
C840 C837 1.358 . S
C840 C841 1.356 . S
C840 H877 0.930 . S
C841 C838 1.348 . S
C841 C840 1.356 . S
H842 C836 0.930 . S
H843 C837 0.930 . S
C844 N845 1.314 . S
C844 C846 1.353 . S
C844 H850 0.930 . S
N845 Li795 1.990 . S
N845 C844 1.314 . S
N845 C848 1.279 . S
C846 C844 1.353 . S
C846 C849 1.348 . S
C846 H878 0.929 . S
C847 C848 1.358 . S
C847 C849 1.356 . S
C847 H879 0.930 . S
C848 N845 1.279 . S
C848 C847 1.358 . S
C848 H851 0.930 . S
C849 C846 1.348 . S
C849 C847 1.356 . S
H850 C844 0.930 . S
H851 C848 0.930 . S
O852 Li792 1.956 . S
O852 Li793 1.970 . S
O852 Li794 1.961 . S
O852 C796 1.325 . S
O853 Li792 1.970 . S
O853 Li793 1.956 . S
O853 Li795 1.961 . S
O853 C802 1.325 . S
O854 Li792 1.961 . S
O854 Li794 1.956 . S
O854 Li795 1.970 . S
O854 C824 1.325 . S
O855 Li793 1.961 . S
O855 Li794 1.970 . S
O855 Li795 1.956 . S
O855 C830 1.325 . S
H856 C798 0.929 . S
H857 C799 0.930 . S
H858 C800 0.930 . S
H859 C801 0.930 . S
H860 C803 0.930 . S
H861 C805 0.929 . S
H862 C806 0.930 . S
H863 C807 0.930 . S
H864 C810 0.930 . S
H865 C813 0.929 . S
H866 C818 0.929 . S
H867 C819 0.930 . S
H868 C826 0.929 . S
H869 C827 0.930 . S
H870 C828 0.930 . S
H871 C829 0.930 . S
H872 C831 0.929 . S
H873 C832 0.930 . S
H874 C833 0.930 . S
H875 C834 0.930 . S
H876 C838 0.929 . S
H877 C840 0.930 . S
H878 C846 0.929 . S
H879 C847 0.930 . S
Li880 N897 1.990 . S
Li880 O940 1.956 . S
Li880 O941 1.970 . S
Li880 O942 1.961 . S
Li881 N905 1.990 . S
Li881 O940 1.970 . S
Li881 O941 1.956 . S
Li881 O943 1.961 . S
Li882 N927 1.990 . S
Li882 O940 1.961 . S
Li882 O942 1.956 . S
Li882 O943 1.970 . S
Li883 N933 1.990 . S
Li883 O941 1.961 . S
Li883 O942 1.970 . S
Li883 O943 1.956 . S
C884 C886 1.348 . S
C884 C887 1.356 . S
C884 O940 1.325 . S
N885 C888 1.314 . S
N885 C889 1.279 . S
C886 C884 1.348 . S
C886 C888 1.353 . S
C886 H944 0.929 . S
C887 C884 1.356 . S
C887 C889 1.358 . S
C887 H945 0.930 . S
C888 N885 1.314 . S
C888 C886 1.353 . S
C888 H946 0.930 . S
C889 N885 1.279 . S
C889 C887 1.358 . S
C889 H947 0.930 . S
C890 C893 1.348 . S
C890 C894 1.356 . S
C890 O941 1.325 . S
C891 N892 1.279 . S
C891 C894 1.358 1_545 S
C891 H948 0.930 . S
N892 C891 1.279 . S
N892 C895 1.314 1_545 S
C893 C890 1.348 . S
C893 C895 1.353 . S
C893 H949 0.929 . S
C894 C890 1.356 . S
C894 C891 1.358 1_565 S
C894 H950 0.930 1_565 S
C895 N892 1.314 1_565 S
C895 C893 1.353 . S
C895 H951 0.930 . S
C896 N897 1.314 . S
C896 C901 1.353 . S
C896 H902 0.930 . S
N897 Li880 1.990 . S
N897 C896 1.314 . S
N897 C899 1.279 . S
C898 C899 1.358 . S
C898 C900 1.356 . S
C898 H952 0.930 . S
C899 N897 1.279 . S
C899 C898 1.358 . S
C899 H903 0.930 . S
C900 C898 1.356 . S
C900 C901 1.348 . S
C901 C896 1.353 . S
C901 C900 1.348 . S
C901 H953 0.929 . S
H902 C896 0.930 . S
H903 C899 0.930 . S
C904 N905 1.314 . S
C904 C906 1.353 . S
C904 H910 0.930 . S
N905 Li881 1.990 . S
N905 C904 1.314 . S
N905 C908 1.279 . S
C906 C904 1.353 . S
C906 C909 1.348 1_565 S
C906 H954 0.929 . S
C907 C908 1.358 1_545 S
C907 C909 1.356 . S
C907 H955 0.930 . S
C908 N905 1.279 . S
C908 C907 1.358 1_565 S
C908 H911 0.930 . S
C909 C906 1.348 1_545 S
C909 C907 1.356 . S
H910 C904 0.930 . S
H911 C908 0.930 . S
C912 C914 1.348 . S
C912 C915 1.356 . S
C912 O942 1.325 . S
N913 C916 1.314 . S
N913 C917 1.279 . S
C914 C912 1.348 . S
C914 C916 1.353 . S
C914 H956 0.929 . S
C915 C912 1.356 . S
C915 C917 1.358 . S
C915 H957 0.930 . S
C916 N913 1.314 . S
C916 C914 1.353 . S
C916 H958 0.930 . S
C917 N913 1.279 . S
C917 C915 1.358 . S
C917 H959 0.930 . S
C918 C919 1.348 . S
C918 C920 1.356 . S
C918 O943 1.325 . S
C919 C918 1.348 . S
C919 C921 1.353 . S
C919 H960 0.929 . S
C920 C918 1.356 . S
C920 C922 1.358 1_565 S
C920 H961 0.930 . S
C921 C919 1.353 . S
C921 N923 1.314 . S
C921 H962 0.930 . S
C922 C920 1.358 1_545 S
C922 N923 1.279 1_545 S
C922 H963 0.930 . S
N923 C921 1.314 . S
N923 C922 1.279 1_565 S
C924 C926 1.353 . S
C924 N927 1.314 . S
C924 H930 0.930 . S
C925 N927 1.279 . S
C925 C928 1.358 . S
C925 H931 0.930 . S
C926 C924 1.353 . S
C926 C929 1.348 . S
C926 H964 0.929 . S
N927 Li882 1.990 . S
N927 C924 1.314 . S
N927 C925 1.279 . S
C928 C925 1.358 . S
C928 C929 1.356 . S
C928 H965 0.930 . S
C929 C926 1.348 . S
C929 C928 1.356 . S
H930 C924 0.930 . S
H931 C925 0.930 . S
C932 N933 1.314 . S
C932 C934 1.353 . S
C932 H938 0.930 . S
N933 Li883 1.990 . S
N933 C932 1.314 . S
N933 C936 1.279 . S
C934 C932 1.353 . S
C934 C937 1.348 1_565 S
C934 H966 0.929 . S
C935 C936 1.358 . S
C935 C937 1.356 1_565 S
C935 H967 0.930 1_565 S
C936 N933 1.279 . S
C936 C935 1.358 . S
C936 H939 0.930 . S
C937 C934 1.348 1_545 S
C937 C935 1.356 1_545 S
H938 C932 0.930 . S
H939 C936 0.930 . S
O940 Li880 1.956 . S
O940 Li881 1.970 . S
O940 Li882 1.961 . S
O940 C884 1.325 . S
O941 Li880 1.970 . S
O941 Li881 1.956 . S
O941 Li883 1.961 . S
O941 C890 1.325 . S
O942 Li880 1.961 . S
O942 Li882 1.956 . S
O942 Li883 1.970 . S
O942 C912 1.325 . S
O943 Li881 1.961 . S
O943 Li882 1.970 . S
O943 Li883 1.956 . S
O943 C918 1.325 . S
H944 C886 0.929 . S
H945 C887 0.930 . S
H946 C888 0.930 . S
H947 C889 0.930 . S
H948 C891 0.930 . S
H949 C893 0.929 . S
H950 C894 0.930 1_545 S
H951 C895 0.930 . S
H952 C898 0.930 . S
H953 C901 0.929 . S
H954 C906 0.929 . S
H955 C907 0.930 . S
H956 C914 0.929 . S
H957 C915 0.930 . S
H958 C916 0.930 . S
H959 C917 0.930 . S
H960 C919 0.929 . S
H961 C920 0.930 . S
H962 C921 0.930 . S
H963 C922 0.930 . S
H964 C926 0.929 . S
H965 C928 0.930 . S
H966 C934 0.929 . S
H967 C935 0.930 1_545 S
Li968 N985 1.990 . S
Li968 O1028 1.956 . S
Li968 O1029 1.970 . S
Li968 O1030 1.961 . S
Li969 N993 1.990 . S
Li969 O1028 1.970 . S
Li969 O1029 1.956 . S
Li969 O1031 1.961 . S
Li970 N1015 1.990 . S
Li970 O1028 1.961 . S
Li970 O1030 1.956 . S
Li970 O1031 1.970 . S
Li971 N1021 1.990 . S
Li971 O1029 1.961 . S
Li971 O1030 1.970 . S
Li971 O1031 1.956 . S
C972 C974 1.348 . S
C972 C975 1.356 . S
C972 O1028 1.325 . S
N973 C976 1.314 1_655 S
N973 C977 1.279 . S
C974 C972 1.348 . S
C974 C976 1.353 . S
C974 H1032 0.929 . S
C975 C972 1.356 . S
C975 C977 1.358 1_455 S
C975 H1033 0.930 1_455 S
C976 N973 1.314 1_455 S
C976 C974 1.353 . S
C976 H1034 0.930 . S
C977 N973 1.279 . S
C977 C975 1.358 1_655 S
C977 H1035 0.930 . S
C978 C981 1.348 . S
C978 C982 1.356 . S
C978 O1029 1.325 . S
C979 N980 1.279 . S
C979 C982 1.358 . S
C979 H1036 0.930 . S
N980 C979 1.279 . S
N980 C983 1.314 . S
C981 C978 1.348 . S
C981 C983 1.353 . S
C981 H1037 0.929 . S
C982 C978 1.356 . S
C982 C979 1.358 . S
C982 H1038 0.930 . S
C983 N980 1.314 . S
C983 C981 1.353 . S
C983 H1039 0.930 . S
C984 N985 1.314 . S
C984 C989 1.353 . S
C984 H990 0.930 . S
N985 Li968 1.990 . S
N985 C984 1.314 . S
N985 C987 1.279 . S
C986 C987 1.358 1_655 S
C986 C988 1.356 . S
C986 H1040 0.930 . S
C987 N985 1.279 . S
C987 C986 1.358 1_455 S
C987 H991 0.930 . S
C988 C986 1.356 . S
C988 C989 1.348 1_655 S
C989 C984 1.353 . S
C989 C988 1.348 1_455 S
C989 H1041 0.929 . S
H990 C984 0.930 . S
H991 C987 0.930 . S
C992 N993 1.314 . S
C992 C994 1.353 . S
C992 H998 0.930 . S
N993 Li969 1.990 . S
N993 C992 1.314 . S
N993 C996 1.279 . S
C994 C992 1.353 . S
C994 C997 1.348 . S
C994 H1042 0.929 . S
C995 C996 1.358 . S
C995 C997 1.356 . S
C995 H1043 0.930 . S
C996 N993 1.279 . S
C996 C995 1.358 . S
C996 H999 0.930 . S
C997 C994 1.348 . S
C997 C995 1.356 . S
H998 C992 0.930 . S
H999 C996 0.930 . S
C1000 C1002 1.348 . S
C1000 C1003 1.356 . S
C1000 O1030 1.325 . S
N1001 C1004 1.314 . S
N1001 C1005 1.279 1_455 S
C1002 C1000 1.348 . S
C1002 C1004 1.353 . S
C1002 H1044 0.929 . S
C1003 C1000 1.356 . S
C1003 C1005 1.358 1_455 S
C1003 H1045 0.930 . S
C1004 N1001 1.314 . S
C1004 C1002 1.353 . S
C1004 H1046 0.930 . S
C1005 N1001 1.279 1_655 S
C1005 C1003 1.358 1_655 S
C1005 H1047 0.930 . S
C1006 C1007 1.348 . S
C1006 C1008 1.356 . S
C1006 O1031 1.325 . S
C1007 C1006 1.348 . S
C1007 C1009 1.353 . S
C1007 H1048 0.929 . S
C1008 C1006 1.356 . S
C1008 C1010 1.358 . S
C1008 H1049 0.930 . S
C1009 C1007 1.353 . S
C1009 N1011 1.314 . S
C1009 H1050 0.930 . S
C1010 C1008 1.358 . S
C1010 N1011 1.279 . S
C1010 H1051 0.930 . S
N1011 C1009 1.314 . S
N1011 C1010 1.279 . S
C1012 C1014 1.353 . S
C1012 N1015 1.314 . S
C1012 H1018 0.930 . S
C1013 N1015 1.279 . S
C1013 C1016 1.358 . S
C1013 H1019 0.930 . S
C1014 C1012 1.353 . S
C1014 C1017 1.348 1_455 S
C1014 H1052 0.929 . S
N1015 Li970 1.990 . S
N1015 C1012 1.314 . S
N1015 C1013 1.279 . S
C1016 C1013 1.358 . S
C1016 C1017 1.356 1_455 S
C1016 H1053 0.930 1_455 S
C1017 C1014 1.348 1_655 S
C1017 C1016 1.356 1_655 S
H1018 C1012 0.930 . S
H1019 C1013 0.930 . S
C1020 N1021 1.314 . S
C1020 C1022 1.353 . S
C1020 H1026 0.930 . S
N1021 Li971 1.990 . S
N1021 C1020 1.314 . S
N1021 C1024 1.279 . S
C1022 C1020 1.353 . S
C1022 C1025 1.348 . S
C1022 H1054 0.929 . S
C1023 C1024 1.358 . S
C1023 C1025 1.356 . S
C1023 H1055 0.930 . S
C1024 N1021 1.279 . S
C1024 C1023 1.358 . S
C1024 H1027 0.930 . S
C1025 C1022 1.348 . S
C1025 C1023 1.356 . S
H1026 C1020 0.930 . S
H1027 C1024 0.930 . S
O1028 Li968 1.956 . S
O1028 Li969 1.970 . S
O1028 Li970 1.961 . S
O1028 C972 1.325 . S
O1029 Li968 1.970 . S
O1029 Li969 1.956 . S
O1029 Li971 1.961 . S
O1029 C978 1.325 . S
O1030 Li968 1.961 . S
O1030 Li970 1.956 . S
O1030 Li971 1.970 . S
O1030 C1000 1.325 . S
O1031 Li969 1.961 . S
O1031 Li970 1.970 . S
O1031 Li971 1.956 . S
O1031 C1006 1.325 . S
H1032 C974 0.929 . S
H1033 C975 0.930 1_655 S
H1034 C976 0.930 . S
H1035 C977 0.930 . S
H1036 C979 0.930 . S
H1037 C981 0.929 . S
H1038 C982 0.930 . S
H1039 C983 0.930 . S
H1040 C986 0.930 . S
H1041 C989 0.929 . S
H1042 C994 0.929 . S
H1043 C995 0.930 . S
H1044 C1002 0.929 . S
H1045 C1003 0.930 . S
H1046 C1004 0.930 . S
H1047 C1005 0.930 . S
H1048 C1007 0.929 . S
H1049 C1008 0.930 . S
H1050 C1009 0.930 . S
H1051 C1010 0.930 . S
H1052 C1014 0.929 . S
H1053 C1016 0.930 1_655 S
H1054 C1022 0.929 . S
H1055 C1023 0.930 . S
Li1056 N1073 1.990 . S
Li1056 O1116 1.956 . S
Li1056 O1117 1.970 . S
Li1056 O1118 1.961 . S
Li1057 N1081 1.990 . S
Li1057 O1116 1.970 . S
Li1057 O1117 1.956 . S
Li1057 O1119 1.961 . S
Li1058 N1103 1.990 . S
Li1058 O1116 1.961 . S
Li1058 O1118 1.956 . S
Li1058 O1119 1.970 . S
Li1059 N1109 1.990 . S
Li1059 O1117 1.961 . S
Li1059 O1118 1.970 . S
Li1059 O1119 1.956 . S
C1060 C1062 1.348 . S
C1060 C1063 1.356 . S
C1060 O1116 1.325 . S
N1061 C1064 1.314 . S
N1061 C1065 1.279 1_565 S
C1062 C1060 1.348 . S
C1062 C1064 1.353 . S
C1062 H1120 0.929 . S
C1063 C1060 1.356 . S
C1063 C1065 1.358 1_565 S
C1063 H1121 0.930 . S
C1064 N1061 1.314 . S
C1064 C1062 1.353 . S
C1064 H1122 0.930 . S
C1065 N1061 1.279 1_545 S
C1065 C1063 1.358 1_545 S
C1065 H1123 0.930 . S
C1066 C1069 1.348 . S
C1066 C1070 1.356 . S
C1066 O1117 1.325 . S
C1067 N1068 1.279 . S
C1067 C1070 1.358 . S
C1067 H1124 0.930 . S
N1068 C1067 1.279 . S
N1068 C1071 1.314 . S
C1069 C1066 1.348 . S
C1069 C1071 1.353 . S
C1069 H1125 0.929 . S
C1070 C1066 1.356 . S
C1070 C1067 1.358 . S
C1070 H1126 0.930 . S
C1071 N1068 1.314 . S
C1071 C1069 1.353 . S
C1071 H1127 0.930 . S
C1072 N1073 1.314 . S
C1072 C1077 1.353 . S
C1072 H1078 0.930 . S
N1073 Li1056 1.990 . S
N1073 C1072 1.314 . S
N1073 C1075 1.279 . S
C1074 C1075 1.358 . S
C1074 C1076 1.356 1_565 S
C1074 H1128 0.930 1_565 S
C1075 N1073 1.279 . S
C1075 C1074 1.358 . S
C1075 H1079 0.930 . S
C1076 C1074 1.356 1_545 S
C1076 C1077 1.348 1_545 S
C1077 C1072 1.353 . S
C1077 C1076 1.348 1_565 S
C1077 H1129 0.929 . S
H1078 C1072 0.930 . S
H1079 C1075 0.930 . S
C1080 N1081 1.314 . S
C1080 C1082 1.353 . S
C1080 H1086 0.930 . S
N1081 Li1057 1.990 . S
N1081 C1080 1.314 . S
N1081 C1084 1.279 . S
C1082 C1080 1.353 . S
C1082 C1085 1.348 . S
C1082 H1130 0.929 . S
C1083 C1084 1.358 . S
C1083 C1085 1.356 . S
C1083 H1131 0.930 . S
C1084 N1081 1.279 . S
C1084 C1083 1.358 . S
C1084 H1087 0.930 . S
C1085 C1082 1.348 . S
C1085 C1083 1.356 . S
H1086 C1080 0.930 . S
H1087 C1084 0.930 . S
C1088 C1090 1.348 . S
C1088 C1091 1.356 . S
C1088 O1118 1.325 . S
N1089 C1092 1.314 1_545 S
N1089 C1093 1.279 . S
C1090 C1088 1.348 . S
C1090 C1092 1.353 . S
C1090 H1132 0.929 . S
C1091 C1088 1.356 . S
C1091 C1093 1.358 1_565 S
C1091 H1133 0.930 1_565 S
C1092 N1089 1.314 1_565 S
C1092 C1090 1.353 . S
C1092 H1134 0.930 . S
C1093 N1089 1.279 . S
C1093 C1091 1.358 1_545 S
C1093 H1135 0.930 . S
C1094 C1095 1.348 . S
C1094 C1096 1.356 . S
C1094 O1119 1.325 . S
C1095 C1094 1.348 . S
C1095 C1097 1.353 . S
C1095 H1136 0.929 . S
C1096 C1094 1.356 . S
C1096 C1098 1.358 . S
C1096 H1137 0.930 . S
C1097 C1095 1.353 . S
C1097 N1099 1.314 . S
C1097 H1138 0.930 . S
C1098 C1096 1.358 . S
C1098 N1099 1.279 . S
C1098 H1139 0.930 . S
N1099 C1097 1.314 . S
N1099 C1098 1.279 . S
C1100 C1102 1.353 . S
C1100 N1103 1.314 . S
C1100 H1106 0.930 . S
C1101 N1103 1.279 . S
C1101 C1104 1.358 1_565 S
C1101 H1107 0.930 . S
C1102 C1100 1.353 . S
C1102 C1105 1.348 1_565 S
C1102 H1140 0.929 . S
N1103 Li1058 1.990 . S
N1103 C1100 1.314 . S
N1103 C1101 1.279 . S
C1104 C1101 1.358 1_545 S
C1104 C1105 1.356 . S
C1104 H1141 0.930 . S
C1105 C1102 1.348 1_545 S
C1105 C1104 1.356 . S
H1106 C1100 0.930 . S
H1107 C1101 0.930 . S
C1108 N1109 1.314 . S
C1108 C1110 1.353 . S
C1108 H1114 0.930 . S
N1109 Li1059 1.990 . S
N1109 C1108 1.314 . S
N1109 C1112 1.279 . S
C1110 C1108 1.353 . S
C1110 C1113 1.348 . S
C1110 H1142 0.929 . S
C1111 C1112 1.358 . S
C1111 C1113 1.356 . S
C1111 H1143 0.930 . S
C1112 N1109 1.279 . S
C1112 C1111 1.358 . S
C1112 H1115 0.930 . S
C1113 C1110 1.348 . S
C1113 C1111 1.356 . S
H1114 C1108 0.930 . S
H1115 C1112 0.930 . S
O1116 Li1056 1.956 . S
O1116 Li1057 1.970 . S
O1116 Li1058 1.961 . S
O1116 C1060 1.325 . S
O1117 Li1056 1.970 . S
O1117 Li1057 1.956 . S
O1117 Li1059 1.961 . S
O1117 C1066 1.325 . S
O1118 Li1056 1.961 . S
O1118 Li1058 1.956 . S
O1118 Li1059 1.970 . S
O1118 C1088 1.325 . S
O1119 Li1057 1.961 . S
O1119 Li1058 1.970 . S
O1119 Li1059 1.956 . S
O1119 C1094 1.325 . S
H1120 C1062 0.929 . S
H1121 C1063 0.930 . S
H1122 C1064 0.930 . S
H1123 C1065 0.930 . S
H1124 C1067 0.930 . S
H1125 C1069 0.929 . S
H1126 C1070 0.930 . S
H1127 C1071 0.930 . S
H1128 C1074 0.930 1_545 S
H1129 C1077 0.929 . S
H1130 C1082 0.929 . S
H1131 C1083 0.930 . S
H1132 C1090 0.929 . S
H1133 C1091 0.930 1_545 S
H1134 C1092 0.930 . S
H1135 C1093 0.930 . S
H1136 C1095 0.929 . S
H1137 C1096 0.930 . S
H1138 C1097 0.930 . S
H1139 C1098 0.930 . S
H1140 C1102 0.929 . S
H1141 C1104 0.930 . S
H1142 C1110 0.929 . S
H1143 C1111 0.930 . S
Li1144 N1161 1.990 . S
Li1144 O1204 1.956 . S
Li1144 O1205 1.970 . S
Li1144 O1206 1.961 . S
Li1145 N1169 1.990 . S
Li1145 O1204 1.970 . S
Li1145 O1205 1.956 . S
Li1145 O1207 1.961 . S
Li1146 N1191 1.990 . S
Li1146 O1204 1.961 . S
Li1146 O1206 1.956 . S
Li1146 O1207 1.970 . S
Li1147 N1197 1.990 . S
Li1147 O1205 1.961 . S
Li1147 O1206 1.970 . S
Li1147 O1207 1.956 . S
C1148 C1150 1.348 . S
C1148 C1151 1.356 . S
C1148 O1204 1.325 . S
N1149 C1152 1.314 . S
N1149 C1153 1.279 . S
C1150 C1148 1.348 . S
C1150 C1152 1.353 . S
C1150 H1208 0.929 . S
C1151 C1148 1.356 . S
C1151 C1153 1.358 . S
C1151 H1209 0.930 . S
C1152 N1149 1.314 . S
C1152 C1150 1.353 . S
C1152 H1210 0.930 . S
C1153 N1149 1.279 . S
C1153 C1151 1.358 . S
C1153 H1211 0.930 . S
C1154 C1157 1.348 . S
C1154 C1158 1.356 . S
C1154 O1205 1.325 . S
C1155 N1156 1.279 1_655 S
C1155 C1158 1.358 1_655 S
C1155 H1212 0.930 . S
N1156 C1155 1.279 1_455 S
N1156 C1159 1.314 . S
C1157 C1154 1.348 . S
C1157 C1159 1.353 . S
C1157 H1213 0.929 . S
C1158 C1154 1.356 . S
C1158 C1155 1.358 1_455 S
C1158 H1214 0.930 . S
C1159 N1156 1.314 . S
C1159 C1157 1.353 . S
C1159 H1215 0.930 . S
C1160 N1161 1.314 . S
C1160 C1165 1.353 . S
C1160 H1166 0.930 . S
N1161 Li1144 1.990 . S
N1161 C1160 1.314 . S
N1161 C1163 1.279 . S
C1162 C1163 1.358 . S
C1162 C1164 1.356 . S
C1162 H1216 0.930 . S
C1163 N1161 1.279 . S
C1163 C1162 1.358 . S
C1163 H1167 0.930 . S
C1164 C1162 1.356 . S
C1164 C1165 1.348 . S
C1165 C1160 1.353 . S
C1165 C1164 1.348 . S
C1165 H1217 0.929 . S
H1166 C1160 0.930 . S
H1167 C1163 0.930 . S
C1168 N1169 1.314 . S
C1168 C1170 1.353 . S
C1168 H1174 0.930 . S
N1169 Li1145 1.990 . S
N1169 C1168 1.314 . S
N1169 C1172 1.279 . S
C1170 C1168 1.353 . S
C1170 C1173 1.348 1_455 S
C1170 H1218 0.929 . S
C1171 C1172 1.358 . S
C1171 C1173 1.356 1_455 S
C1171 H1219 0.930 1_455 S
C1172 N1169 1.279 . S
C1172 C1171 1.358 . S
C1172 H1175 0.930 . S
C1173 C1170 1.348 1_655 S
C1173 C1171 1.356 1_655 S
H1174 C1168 0.930 . S
H1175 C1172 0.930 . S
C1176 C1178 1.348 . S
C1176 C1179 1.356 . S
C1176 O1206 1.325 . S
N1177 C1180 1.314 . S
N1177 C1181 1.279 . S
C1178 C1176 1.348 . S
C1178 C1180 1.353 . S
C1178 H1220 0.929 . S
C1179 C1176 1.356 . S
C1179 C1181 1.358 . S
C1179 H1221 0.930 . S
C1180 N1177 1.314 . S
C1180 C1178 1.353 . S
C1180 H1222 0.930 . S
C1181 N1177 1.279 . S
C1181 C1179 1.358 . S
C1181 H1223 0.930 . S
C1182 C1183 1.348 . S
C1182 C1184 1.356 . S
C1182 O1207 1.325 . S
C1183 C1182 1.348 . S
C1183 C1185 1.353 . S
C1183 H1224 0.929 . S
C1184 C1182 1.356 . S
C1184 C1186 1.358 1_455 S
C1184 H1225 0.930 1_455 S
C1185 C1183 1.353 . S
C1185 N1187 1.314 1_455 S
C1185 H1226 0.930 . S
C1186 C1184 1.358 1_655 S
C1186 N1187 1.279 . S
C1186 H1227 0.930 . S
N1187 C1185 1.314 1_655 S
N1187 C1186 1.279 . S
C1188 C1190 1.353 . S
C1188 N1191 1.314 . S
C1188 H1194 0.930 . S
C1189 N1191 1.279 . S
C1189 C1192 1.358 . S
C1189 H1195 0.930 . S
C1190 C1188 1.353 . S
C1190 C1193 1.348 . S
C1190 H1228 0.929 . S
N1191 Li1146 1.990 . S
N1191 C1188 1.314 . S
N1191 C1189 1.279 . S
C1192 C1189 1.358 . S
C1192 C1193 1.356 . S
C1192 H1229 0.930 . S
C1193 C1190 1.348 . S
C1193 C1192 1.356 . S
H1194 C1188 0.930 . S
H1195 C1189 0.930 . S
C1196 N1197 1.314 . S
C1196 C1198 1.353 . S
C1196 H1202 0.930 . S
N1197 Li1147 1.990 . S
N1197 C1196 1.314 . S
N1197 C1200 1.279 . S
C1198 C1196 1.353 . S
C1198 C1201 1.348 1_455 S
C1198 H1230 0.929 . S
C1199 C1200 1.358 1_655 S
C1199 C1201 1.356 . S
C1199 H1231 0.930 . S
C1200 N1197 1.279 . S
C1200 C1199 1.358 1_455 S
C1200 H1203 0.930 . S
C1201 C1198 1.348 1_655 S
C1201 C1199 1.356 . S
H1202 C1196 0.930 . S
H1203 C1200 0.930 . S
O1204 Li1144 1.956 . S
O1204 Li1145 1.970 . S
O1204 Li1146 1.961 . S
O1204 C1148 1.325 . S
O1205 Li1144 1.970 . S
O1205 Li1145 1.956 . S
O1205 Li1147 1.961 . S
O1205 C1154 1.325 . S
O1206 Li1144 1.961 . S
O1206 Li1146 1.956 . S
O1206 Li1147 1.970 . S
O1206 C1176 1.325 . S
O1207 Li1145 1.961 . S
O1207 Li1146 1.970 . S
O1207 Li1147 1.956 . S
O1207 C1182 1.325 . S
H1208 C1150 0.929 . S
H1209 C1151 0.930 . S
H1210 C1152 0.930 . S
H1211 C1153 0.930 . S
H1212 C1155 0.930 . S
H1213 C1157 0.929 . S
H1214 C1158 0.930 . S
H1215 C1159 0.930 . S
H1216 C1162 0.930 . S
H1217 C1165 0.929 . S
H1218 C1170 0.929 . S
H1219 C1171 0.930 1_655 S
H1220 C1178 0.929 . S
H1221 C1179 0.930 . S
H1222 C1180 0.930 . S
H1223 C1181 0.930 . S
H1224 C1183 0.929 . S
H1225 C1184 0.930 1_655 S
H1226 C1185 0.930 . S
H1227 C1186 0.930 . S
H1228 C1190 0.929 . S
H1229 C1192 0.930 . S
H1230 C1198 0.929 . S
H1231 C1199 0.930 . S
Li1232 N1249 1.990 . S
Li1232 O1292 1.956 . S
Li1232 O1293 1.970 . S
Li1232 O1294 1.961 . S
Li1233 N1257 1.990 . S
Li1233 O1292 1.970 . S
Li1233 O1293 1.956 . S
Li1233 O1295 1.961 . S
Li1234 N1279 1.990 . S
Li1234 O1292 1.961 . S
Li1234 O1294 1.956 . S
Li1234 O1295 1.970 . S
Li1235 N1285 1.990 . S
Li1235 O1293 1.961 . S
Li1235 O1294 1.970 . S
Li1235 O1295 1.956 . S
C1236 C1238 1.348 . S
C1236 C1239 1.356 . S
C1236 O1292 1.325 . S
N1237 C1240 1.314 . S
N1237 C1241 1.279 . S
C1238 C1236 1.348 . S
C1238 C1240 1.353 . S
C1238 H1296 0.929 . S
C1239 C1236 1.356 . S
C1239 C1241 1.358 . S
C1239 H1297 0.930 . S
C1240 N1237 1.314 . S
C1240 C1238 1.353 . S
C1240 H1298 0.930 . S
C1241 N1237 1.279 . S
C1241 C1239 1.358 . S
C1241 H1299 0.930 . S
C1242 C1245 1.348 . S
C1242 C1246 1.356 . S
C1242 O1293 1.325 . S
C1243 N1244 1.279 . S
C1243 C1246 1.358 . S
C1243 H1300 0.930 . S
N1244 C1243 1.279 . S
N1244 C1247 1.314 . S
C1245 C1242 1.348 . S
C1245 C1247 1.353 . S
C1245 H1301 0.929 . S
C1246 C1242 1.356 . S
C1246 C1243 1.358 . S
C1246 H1302 0.930 . S
C1247 N1244 1.314 . S
C1247 C1245 1.353 . S
C1247 H1303 0.930 . S
C1248 N1249 1.314 . S
C1248 C1253 1.353 . S
C1248 H1254 0.930 . S
N1249 Li1232 1.990 . S
N1249 C1248 1.314 . S
N1249 C1251 1.279 . S
C1250 C1251 1.358 . S
C1250 C1252 1.356 . S
C1250 H1304 0.930 . S
C1251 N1249 1.279 . S
C1251 C1250 1.358 . S
C1251 H1255 0.930 . S
C1252 C1250 1.356 . S
C1252 C1253 1.348 . S
C1253 C1248 1.353 . S
C1253 C1252 1.348 . S
C1253 H1305 0.929 . S
H1254 C1248 0.930 . S
H1255 C1251 0.930 . S
C1256 N1257 1.314 . S
C1256 C1258 1.353 . S
C1256 H1262 0.930 . S
N1257 Li1233 1.990 . S
N1257 C1256 1.314 . S
N1257 C1260 1.279 . S
C1258 C1256 1.353 . S
C1258 C1261 1.348 . S
C1258 H1306 0.929 . S
C1259 C1260 1.358 . S
C1259 C1261 1.356 . S
C1259 H1307 0.930 . S
C1260 N1257 1.279 . S
C1260 C1259 1.358 . S
C1260 H1263 0.930 . S
C1261 C1258 1.348 . S
C1261 C1259 1.356 . S
H1262 C1256 0.930 . S
H1263 C1260 0.930 . S
C1264 C1266 1.348 . S
C1264 C1267 1.356 . S
C1264 O1294 1.325 . S
N1265 C1268 1.314 . S
N1265 C1269 1.279 . S
C1266 C1264 1.348 . S
C1266 C1268 1.353 . S
C1266 H1308 0.929 . S
C1267 C1264 1.356 . S
C1267 C1269 1.358 . S
C1267 H1309 0.930 . S
C1268 N1265 1.314 . S
C1268 C1266 1.353 . S
C1268 H1310 0.930 . S
C1269 N1265 1.279 . S
C1269 C1267 1.358 . S
C1269 H1311 0.930 . S
C1270 C1271 1.348 . S
C1270 C1272 1.356 . S
C1270 O1295 1.325 . S
C1271 C1270 1.348 . S
C1271 C1273 1.353 . S
C1271 H1312 0.929 . S
C1272 C1270 1.356 . S
C1272 C1274 1.358 . S
C1272 H1313 0.930 . S
C1273 C1271 1.353 . S
C1273 N1275 1.314 . S
C1273 H1314 0.930 . S
C1274 C1272 1.358 . S
C1274 N1275 1.279 . S
C1274 H1315 0.930 . S
N1275 C1273 1.314 . S
N1275 C1274 1.279 . S
C1276 C1278 1.353 . S
C1276 N1279 1.314 . S
C1276 H1282 0.930 . S
C1277 N1279 1.279 . S
C1277 C1280 1.358 . S
C1277 H1283 0.930 . S
C1278 C1276 1.353 . S
C1278 C1281 1.348 . S
C1278 H1316 0.929 . S
N1279 Li1234 1.990 . S
N1279 C1276 1.314 . S
N1279 C1277 1.279 . S
C1280 C1277 1.358 . S
C1280 C1281 1.356 . S
C1280 H1317 0.930 . S
C1281 C1278 1.348 . S
C1281 C1280 1.356 . S
H1282 C1276 0.930 . S
H1283 C1277 0.930 . S
C1284 N1285 1.314 . S
C1284 C1286 1.353 . S
C1284 H1290 0.930 . S
N1285 Li1235 1.990 . S
N1285 C1284 1.314 . S
N1285 C1288 1.279 . S
C1286 C1284 1.353 . S
C1286 C1289 1.348 . S
C1286 H1318 0.929 . S
C1287 C1288 1.358 . S
C1287 C1289 1.356 . S
C1287 H1319 0.930 . S
C1288 N1285 1.279 . S
C1288 C1287 1.358 . S
C1288 H1291 0.930 . S
C1289 C1286 1.348 . S
C1289 C1287 1.356 . S
H1290 C1284 0.930 . S
H1291 C1288 0.930 . S
O1292 Li1232 1.956 . S
O1292 Li1233 1.970 . S
O1292 Li1234 1.961 . S
O1292 C1236 1.325 . S
O1293 Li1232 1.970 . S
O1293 Li1233 1.956 . S
O1293 Li1235 1.961 . S
O1293 C1242 1.325 . S
O1294 Li1232 1.961 . S
O1294 Li1234 1.956 . S
O1294 Li1235 1.970 . S
O1294 C1264 1.325 . S
O1295 Li1233 1.961 . S
O1295 Li1234 1.970 . S
O1295 Li1235 1.956 . S
O1295 C1270 1.325 . S
H1296 C1238 0.929 . S
H1297 C1239 0.930 . S
H1298 C1240 0.930 . S
H1299 C1241 0.930 . S
H1300 C1243 0.930 . S
H1301 C1245 0.929 . S
H1302 C1246 0.930 . S
H1303 C1247 0.930 . S
H1304 C1250 0.930 . S
H1305 C1253 0.929 . S
H1306 C1258 0.929 . S
H1307 C1259 0.930 . S
H1308 C1266 0.929 . S
H1309 C1267 0.930 . S
H1310 C1268 0.930 . S
H1311 C1269 0.930 . S
H1312 C1271 0.929 . S
H1313 C1272 0.930 . S
H1314 C1273 0.930 . S
H1315 C1274 0.930 . S
H1316 C1278 0.929 . S
H1317 C1280 0.930 . S
H1318 C1286 0.929 . S
H1319 C1287 0.930 . S
Li1320 N1337 1.990 . S
Li1320 O1380 1.956 . S
Li1320 O1381 1.970 . S
Li1320 O1382 1.961 . S
Li1321 N1345 1.990 . S
Li1321 O1380 1.970 . S
Li1321 O1381 1.956 . S
Li1321 O1383 1.961 . S
Li1322 N1367 1.990 . S
Li1322 O1380 1.961 . S
Li1322 O1382 1.956 . S
Li1322 O1383 1.970 . S
Li1323 N1373 1.990 . S
Li1323 O1381 1.961 . S
Li1323 O1382 1.970 . S
Li1323 O1383 1.956 . S
C1324 C1326 1.348 . S
C1324 C1327 1.356 . S
C1324 O1380 1.325 . S
N1325 C1328 1.314 . S
N1325 C1329 1.279 . S
C1326 C1324 1.348 . S
C1326 C1328 1.353 . S
C1326 H1384 0.929 . S
C1327 C1324 1.356 . S
C1327 C1329 1.358 . S
C1327 H1385 0.930 . S
C1328 N1325 1.314 . S
C1328 C1326 1.353 . S
C1328 H1386 0.930 . S
C1329 N1325 1.279 . S
C1329 C1327 1.358 . S
C1329 H1387 0.930 . S
C1330 C1333 1.348 . S
C1330 C1334 1.356 . S
C1330 O1381 1.325 . S
C1331 N1332 1.279 . S
C1331 C1334 1.358 . S
C1331 H1388 0.930 . S
N1332 C1331 1.279 . S
N1332 C1335 1.314 . S
C1333 C1330 1.348 . S
C1333 C1335 1.353 . S
C1333 H1389 0.929 . S
C1334 C1330 1.356 . S
C1334 C1331 1.358 . S
C1334 H1390 0.930 . S
C1335 N1332 1.314 . S
C1335 C1333 1.353 . S
C1335 H1391 0.930 . S
C1336 N1337 1.314 . S
C1336 C1341 1.353 . S
C1336 H1342 0.930 . S
N1337 Li1320 1.990 . S
N1337 C1336 1.314 . S
N1337 C1339 1.279 . S
C1338 C1339 1.358 . S
C1338 C1340 1.356 . S
C1338 H1392 0.930 . S
C1339 N1337 1.279 . S
C1339 C1338 1.358 . S
C1339 H1343 0.930 . S
C1340 C1338 1.356 . S
C1340 C1341 1.348 . S
C1341 C1336 1.353 . S
C1341 C1340 1.348 . S
C1341 H1393 0.929 . S
H1342 C1336 0.930 . S
H1343 C1339 0.930 . S
C1344 N1345 1.314 . S
C1344 C1346 1.353 . S
C1344 H1350 0.930 . S
N1345 Li1321 1.990 . S
N1345 C1344 1.314 . S
N1345 C1348 1.279 . S
C1346 C1344 1.353 . S
C1346 C1349 1.348 . S
C1346 H1394 0.929 . S
C1347 C1348 1.358 . S
C1347 C1349 1.356 . S
C1347 H1395 0.930 . S
C1348 N1345 1.279 . S
C1348 C1347 1.358 . S
C1348 H1351 0.930 . S
C1349 C1346 1.348 . S
C1349 C1347 1.356 . S
H1350 C1344 0.930 . S
H1351 C1348 0.930 . S
C1352 C1354 1.348 . S
C1352 C1355 1.356 . S
C1352 O1382 1.325 . S
N1353 C1356 1.314 . S
N1353 C1357 1.279 . S
C1354 C1352 1.348 . S
C1354 C1356 1.353 . S
C1354 H1396 0.929 . S
C1355 C1352 1.356 . S
C1355 C1357 1.358 . S
C1355 H1397 0.930 . S
C1356 N1353 1.314 . S
C1356 C1354 1.353 . S
C1356 H1398 0.930 . S
C1357 N1353 1.279 . S
C1357 C1355 1.358 . S
C1357 H1399 0.930 . S
C1358 C1359 1.348 . S
C1358 C1360 1.356 . S
C1358 O1383 1.325 . S
C1359 C1358 1.348 . S
C1359 C1361 1.353 . S
C1359 H1400 0.929 . S
C1360 C1358 1.356 . S
C1360 C1362 1.358 . S
C1360 H1401 0.930 . S
C1361 C1359 1.353 . S
C1361 N1363 1.314 . S
C1361 H1402 0.930 . S
C1362 C1360 1.358 . S
C1362 N1363 1.279 . S
C1362 H1403 0.930 . S
N1363 C1361 1.314 . S
N1363 C1362 1.279 . S
C1364 C1366 1.353 . S
C1364 N1367 1.314 . S
C1364 H1370 0.930 . S
C1365 N1367 1.279 . S
C1365 C1368 1.358 . S
C1365 H1371 0.930 . S
C1366 C1364 1.353 . S
C1366 C1369 1.348 . S
C1366 H1404 0.929 . S
N1367 Li1322 1.990 . S
N1367 C1364 1.314 . S
N1367 C1365 1.279 . S
C1368 C1365 1.358 . S
C1368 C1369 1.356 . S
C1368 H1405 0.930 . S
C1369 C1366 1.348 . S
C1369 C1368 1.356 . S
H1370 C1364 0.930 . S
H1371 C1365 0.930 . S
C1372 N1373 1.314 . S
C1372 C1374 1.353 . S
C1372 H1378 0.930 . S
N1373 Li1323 1.990 . S
N1373 C1372 1.314 . S
N1373 C1376 1.279 . S
C1374 C1372 1.353 . S
C1374 C1377 1.348 . S
C1374 H1406 0.929 . S
C1375 C1376 1.358 . S
C1375 C1377 1.356 . S
C1375 H1407 0.930 . S
C1376 N1373 1.279 . S
C1376 C1375 1.358 . S
C1376 H1379 0.930 . S
C1377 C1374 1.348 . S
C1377 C1375 1.356 . S
H1378 C1372 0.930 . S
H1379 C1376 0.930 . S
O1380 Li1320 1.956 . S
O1380 Li1321 1.970 . S
O1380 Li1322 1.961 . S
O1380 C1324 1.325 . S
O1381 Li1320 1.970 . S
O1381 Li1321 1.956 . S
O1381 Li1323 1.961 . S
O1381 C1330 1.325 . S
O1382 Li1320 1.961 . S
O1382 Li1322 1.956 . S
O1382 Li1323 1.970 . S
O1382 C1352 1.325 . S
O1383 Li1321 1.961 . S
O1383 Li1322 1.970 . S
O1383 Li1323 1.956 . S
O1383 C1358 1.325 . S
H1384 C1326 0.929 . S
H1385 C1327 0.930 . S
H1386 C1328 0.930 . S
H1387 C1329 0.930 . S
H1388 C1331 0.930 . S
H1389 C1333 0.929 . S
H1390 C1334 0.930 . S
H1391 C1335 0.930 . S
H1392 C1338 0.930 . S
H1393 C1341 0.929 . S
H1394 C1346 0.929 . S
H1395 C1347 0.930 . S
H1396 C1354 0.929 . S
H1397 C1355 0.930 . S
H1398 C1356 0.930 . S
H1399 C1357 0.930 . S
H1400 C1359 0.929 . S
H1401 C1360 0.930 . S
H1402 C1361 0.930 . S
H1403 C1362 0.930 . S
H1404 C1366 0.929 . S
H1405 C1368 0.930 . S
H1406 C1374 0.929 . S
H1407 C1375 0.930 . S
C372 C57 3.307 . S
C145 C460 3.307 . S
C548 C233 3.307 . S
C645 C313 3.307 . S
C1085 C753 3.307 . S
C841 C1164 3.307 . S
C1252 C929 3.307 . S
C1025 C1340 3.307 . S
C29 C1369 1.986 . S
C117 C1113 1.986 . S
C205 C1193 1.986 . S
C1281 C284 1.986 1_554 S
C401 C812 1.986 1_554 S
C489 C900 1.986 . S
C997 C577 1.986 . S
C724 C673 1.986 . S
C49 C937 1.819 1_465 S
C1017 C137 1.819 1_655 S
C225 C761 1.819 . S
C849 C321 1.819 1_545 S
C381 C1261 1.819 1_455 S
C469 C1349 1.819 . S
C1076 C557 1.819 1_545 S
C1173 C636 1.819 1_645 S
C909 C20 2.570 1_545 S
C108 C988 2.570 1_465 S
C196 C733 2.570 1_455 S
C821 C293 2.570 . S
C1289 C409 2.570 . S
C1377 C497 2.570 1_545 S
C1105 C585 2.570 1_645 S
C665 C1201 2.570 1_455 S
