# Generated by pormake.
# Topology umg, (4)-cn, num edge types: 1
# Building blocks:
#     Node 0, Type 0, BuildingBlock: ICAMEG_clean_sbu_1, # of connection points: 4
#     Node 1, Type 0, BuildingBlock: ICAMEG_clean_sbu_1, # of connection points: 4
#     Node 2, Type 0, BuildingBlock: ICAMEG_clean_sbu_1, # of connection points: 4
#     Node 3, Type 0, BuildingBlock: ICAMEG_clean_sbu_1, # of connection points: 4
#     Node 4, Type 0, BuildingBlock: ICAMEG_clean_sbu_1, # of connection points: 4
#     Node 5, Type 0, BuildingBlock: ICAMEG_clean_sbu_1, # of connection points: 4
#     Node 6, Type 0, BuildingBlock: ICAMEG_clean_sbu_1, # of connection points: 4
#     Node 7, Type 0, BuildingBlock: ICAMEG_clean_sbu_1, # of connection points: 4
#     Node 8, Type 0, BuildingBlock: ICAMEG_clean_sbu_1, # of connection points: 4
#     Node 9, Type 0, BuildingBlock: ICAMEG_clean_sbu_1, # of connection points: 4
#     Node 10, Type 0, BuildingBlock: ICAMEG_clean_sbu_1, # of connection points: 4
#     Node 11, Type 0, BuildingBlock: ICAMEG_clean_sbu_1, # of connection points: 4
#     Edge 12, Type (0, 0), BuildingBlock: CIFDUS_clean_linker_0, # of connection points: 2
#     Edge 13, Type (0, 0), BuildingBlock: CIFDUS_clean_linker_0, # of connection points: 2
#     Edge 14, Type (0, 0), BuildingBlock: CIFDUS_clean_linker_0, # of connection points: 2
#     Edge 15, Type (0, 0), BuildingBlock: CIFDUS_clean_linker_0, # of connection points: 2
#     Edge 16, Type (0, 0), BuildingBlock: CIFDUS_clean_linker_0, # of connection points: 2
#     Edge 17, Type (0, 0), BuildingBlock: CIFDUS_clean_linker_0, # of connection points: 2
#     Edge 18, Type (0, 0), BuildingBlock: CIFDUS_clean_linker_0, # of connection points: 2
#     Edge 19, Type (0, 0), BuildingBlock: CIFDUS_clean_linker_0, # of connection points: 2
#     Edge 20, Type (0, 0), BuildingBlock: CIFDUS_clean_linker_0, # of connection points: 2
#     Edge 21, Type (0, 0), BuildingBlock: CIFDUS_clean_linker_0, # of connection points: 2
#     Edge 22, Type (0, 0), BuildingBlock: CIFDUS_clean_linker_0, # of connection points: 2
#     Edge 23, Type (0, 0), BuildingBlock: CIFDUS_clean_linker_0, # of connection points: 2
#     Edge 24, Type (0, 0), BuildingBlock: CIFDUS_clean_linker_0, # of connection points: 2
#     Edge 25, Type (0, 0), BuildingBlock: CIFDUS_clean_linker_0, # of connection points: 2
#     Edge 26, Type (0, 0), BuildingBlock: CIFDUS_clean_linker_0, # of connection points: 2
#     Edge 27, Type (0, 0), BuildingBlock: CIFDUS_clean_linker_0, # of connection points: 2
#     Edge 28, Type (0, 0), BuildingBlock: CIFDUS_clean_linker_0, # of connection points: 2
#     Edge 29, Type (0, 0), BuildingBlock: CIFDUS_clean_linker_0, # of connection points: 2
#     Edge 30, Type (0, 0), BuildingBlock: CIFDUS_clean_linker_0, # of connection points: 2
#     Edge 31, Type (0, 0), BuildingBlock: CIFDUS_clean_linker_0, # of connection points: 2
#     Edge 32, Type (0, 0), BuildingBlock: CIFDUS_clean_linker_0, # of connection points: 2
#     Edge 33, Type (0, 0), BuildingBlock: CIFDUS_clean_linker_0, # of connection points: 2
#     Edge 34, Type (0, 0), BuildingBlock: CIFDUS_clean_linker_0, # of connection points: 2
#     Edge 35, Type (0, 0), BuildingBlock: CIFDUS_clean_linker_0, # of connection points: 2
# Relax obj value: 0.061
# Max RMSD: 0.147
# Mean RMSD: 0.147
data_MOF--net-umg--node1-ICAMEG_clean_sbu_1--edge1-CIFDUS_clean_linker_0
_symmetry_space_group_name_H-M    P1
_symmetry_Int_Tables_number       1
_symmetry_cell_setting            triclinic
loop_
_symmetry_equiv_pos_as_xyz
'x, y, z'
_cell_length_a     26.818935
_cell_length_b     26.863866
_cell_length_c     80.525862
_cell_angle_alpha  90.01217
_cell_angle_beta   89.995414
_cell_angle_gamma 119.86887
loop_
_atom_site_label
_atom_site_type_symbol
_atom_site_fract_x
_atom_site_fract_y
_atom_site_fract_z
_atom_type_partial_charge
Co0 Co 0.28646 0.61575 0.08347 0.0
Co1 Co 0.23695 0.48403 0.10238 0.0
O2 O 0.28364 0.54236 0.08613 0.0
C3 C 0.25337 0.55986 0.05075 0.0
O4 O 0.21446 0.51447 0.05874 0.0
C5 C 0.35646 0.50891 0.10837 0.0
O6 O 0.37148 0.56348 0.10834 0.0
O7 O 0.26365 0.54216 0.12054 0.0
O8 O 0.28668 0.62592 0.1081 0.0
H9 H 0.09816 0.40068 0.14993 0.0
H10 H 0.3717 0.59438 0.06612 0.0
O11 O 0.28578 0.60595 0.05871 0.0
H12 H 0.48564 0.76137 0.10235 0.0
H13 H 0.35368 0.80702 0.05599 0.0
H14 H 0.23069 0.67449 0.09982 0.0
H15 H 0.37996 0.71602 0.10133 0.0
H16 H 0.34938 0.71401 0.06027 0.0
O17 O 0.3036 0.47077 0.10669 0.0
H18 H 0.15605 0.47394 0.12898 0.0
H19 H 0.22113 0.369 0.1108 0.0
H20 H 0.234 0.76721 0.09606 0.0
H21 H 0.47729 0.6386 0.06669 0.0
H22 H 0.29584 0.8342 0.07401 0.0
H23 H 0.53498 0.72258 0.08496 0.0
O24 O 0.201 0.57823 0.08363 0.0
H25 H 0.26198 0.38781 0.05208 0.0
H26 H 0.12223 0.38965 0.09151 0.0
H27 H 0.08764 0.31991 0.06846 0.0
H28 H 0.15778 0.31872 0.04854 0.0
H29 H 0.29461 0.45713 0.07522 0.0
H30 H 0.16426 0.29475 0.13163 0.0
H31 H 0.10207 0.31031 0.15134 0.0
O32 O 0.16967 0.49623 0.09812 0.0
C33 C 0.27857 0.59532 0.12105 0.0
C34 C 0.12494 0.39331 0.14137 0.0
C35 C 0.16211 0.33389 0.13111 0.0
N36 N 0.1915 0.42549 0.1186 0.0
C37 C 0.15766 0.43454 0.12945 0.0
C38 C 0.19429 0.37612 0.11937 0.0
C39 C 0.1272 0.34264 0.14217 0.0
C40 C 0.39654 0.63132 0.07395 0.0
N41 N 0.36972 0.65281 0.0836 0.0
C42 C 0.45631 0.65601 0.07429 0.0
C43 C 0.48864 0.70308 0.08456 0.0
C44 C 0.46098 0.72483 0.09433 0.0
C45 C 0.40113 0.69894 0.09371 0.0
C46 C 0.32661 0.77822 0.06565 0.0
C47 C 0.2579 0.70353 0.09025 0.0
C48 C 0.32389 0.72545 0.06811 0.0
N49 N 0.29001 0.68901 0.08034 0.0
C50 C 0.2595 0.75592 0.08816 0.0
C51 C 0.29417 0.79346 0.07577 0.0
C52 C 0.16103 0.53314 0.09052 0.0
C53 C 0.23101 0.38781 0.0607 0.0
C54 C 0.15296 0.38949 0.08287 0.0
C55 C 0.13315 0.34981 0.06986 0.0
C56 C 0.17253 0.34912 0.05871 0.0
N57 N 0.21036 0.42737 0.08472 0.0
C58 C 0.24925 0.4268 0.07387 0.0
Co59 Co 0.67204 0.27396 0.41937 0.0
Co60 Co 0.76201 0.2378 0.4399 0.0
O61 O 0.74593 0.27777 0.42239 0.0
C62 C 0.69814 0.24099 0.38708 0.0
O63 O 0.70809 0.20495 0.39547 0.0
C64 C 0.8531 0.35847 0.44319 0.0
O65 O 0.81181 0.37125 0.44303 0.0
O66 O 0.73238 0.26953 0.45698 0.0
O67 O 0.66127 0.27567 0.44407 0.0
H68 H 0.7194 0.1188 0.49163 0.0
H69 H 0.77503 0.3632 0.40172 0.0
O70 O 0.68175 0.27202 0.39468 0.0
H71 H 0.70782 0.46937 0.43644 0.0
H72 H 0.53582 0.32399 0.39084 0.0
H73 H 0.55758 0.21047 0.43545 0.0
H74 H 0.65539 0.36349 0.43624 0.0
H75 H 0.62905 0.32882 0.39556 0.0
O76 O 0.84087 0.30623 0.4423 0.0
H77 H 0.69813 0.16748 0.46906 0.0
H78 H 0.86418 0.22686 0.44853 0.0
H79 H 0.4637 0.20471 0.43127 0.0
H80 H 0.82852 0.46908 0.40148 0.0
H81 H 0.45241 0.26176 0.40882 0.0
H82 H 0.79507 0.52286 0.41897 0.0
O83 O 0.63101 0.18867 0.42 0.0
H84 H 0.87726 0.24769 0.38953 0.0
H85 H 0.74147 0.12047 0.43215 0.0
H86 H 0.77471 0.07934 0.41032 0.0
H87 H 0.84311 0.14314 0.38882 0.0
H88 H 0.84255 0.28695 0.4115 0.0
H89 H 0.88744 0.17911 0.47094 0.0
H90 H 0.81466 0.12443 0.49266 0.0
O91 O 0.68335 0.16884 0.43786 0.0
C92 C 0.68906 0.2771 0.45714 0.0
C93 C 0.75137 0.14226 0.4822 0.0
C94 C 0.84571 0.17619 0.4706 0.0
N95 N 0.77962 0.19938 0.45739 0.0
C96 C 0.73949 0.16974 0.46935 0.0
C97 C 0.83233 0.20318 0.45795 0.0
C98 C 0.80485 0.1455 0.48278 0.0
C99 C 0.75983 0.3863 0.40923 0.0
N100 N 0.71198 0.3572 0.41891 0.0
C101 C 0.79045 0.44625 0.4091 0.0
C102 C 0.77171 0.4764 0.41894 0.0
C103 C 0.72279 0.44641 0.42875 0.0
C104 C 0.69333 0.38646 0.42861 0.0
C105 C 0.54024 0.29903 0.40068 0.0
C106 C 0.55307 0.2357 0.42573 0.0
C107 C 0.59287 0.30151 0.40339 0.0
N108 N 0.59881 0.27034 0.41586 0.0
C109 C 0.49978 0.23213 0.42339 0.0
C110 C 0.49346 0.26411 0.41078 0.0
C111 C 0.63843 0.15406 0.4291 0.0
C112 C 0.84762 0.21949 0.39887 0.0
C113 C 0.77119 0.1485 0.42282 0.0
C114 C 0.78995 0.12498 0.41051 0.0
C115 C 0.82836 0.1608 0.39846 0.0
N116 N 0.79029 0.2061 0.42314 0.0
C117 C 0.82805 0.24152 0.41139 0.0
Co118 Co 0.40001 0.67821 0.75014 0.0
Co119 Co 0.53189 0.76592 0.76853 0.0
O120 O 0.47108 0.75118 0.75277 0.0
C121 C 0.45605 0.70437 0.71741 0.0
O122 O 0.50265 0.71407 0.72542 0.0
C123 C 0.49734 0.85144 0.7765 0.0
O124 O 0.44411 0.80874 0.7764 0.0
O125 O 0.47508 0.72935 0.78683 0.0
O126 O 0.39053 0.66814 0.7748 0.0
H127 H 0.62642 0.716 0.81436 0.0
H128 H 0.41458 0.78239 0.73295 0.0
O129 O 0.4092 0.6877 0.72535 0.0
H130 H 0.2457 0.71965 0.7693 0.0
H131 H 0.21043 0.54564 0.72285 0.0
H132 H 0.34776 0.56415 0.76645 0.0
H133 H 0.29678 0.66465 0.76809 0.0
H134 H 0.30037 0.63742 0.72709 0.0
O135 O 0.53869 0.84188 0.77389 0.0
H136 H 0.55021 0.69698 0.794 0.0
H137 H 0.64355 0.86948 0.77712 0.0
H138 H 0.25822 0.47171 0.76273 0.0
H139 H 0.36459 0.83848 0.73371 0.0
H140 H 0.18882 0.46204 0.74079 0.0
H141 H 0.27962 0.80728 0.75203 0.0
O142 O 0.44215 0.63463 0.75014 0.0
H143 H 0.61795 0.89404 0.71888 0.0
H144 H 0.63209 0.75666 0.75644 0.0
H145 H 0.70024 0.79841 0.73311 0.0
H146 H 0.69336 0.86763 0.71413 0.0
H147 H 0.55041 0.85087 0.74228 0.0
H148 H 0.72059 0.89052 0.79738 0.0
H149 H 0.71237 0.81337 0.81614 0.0
O150 O 0.52608 0.69044 0.7633 0.0
C151 C 0.42209 0.69072 0.78759 0.0
C152 C 0.6306 0.74991 0.80622 0.0
C153 C 0.68341 0.84789 0.7967 0.0
N154 N 0.59271 0.78193 0.78429 0.0
C155 C 0.58768 0.73935 0.79463 0.0
C156 C 0.63962 0.83576 0.78528 0.0
C157 C 0.67878 0.80458 0.80722 0.0
C158 C 0.37726 0.76818 0.74082 0.0
N159 N 0.3584 0.7201 0.75038 0.0
C160 C 0.34928 0.80026 0.74125 0.0
C161 C 0.30166 0.78278 0.75155 0.0
C162 C 0.28262 0.73363 0.76125 0.0
C163 C 0.31175 0.7027 0.76053 0.0
C164 C 0.24029 0.54934 0.73246 0.0
C165 C 0.31764 0.56034 0.75694 0.0
C166 C 0.29133 0.60114 0.73489 0.0
N167 N 0.32909 0.60617 0.74706 0.0
C168 C 0.26707 0.50786 0.75486 0.0
C169 C 0.22818 0.50245 0.74254 0.0
C170 C 0.49006 0.6438 0.75613 0.0
C171 C 0.62144 0.86401 0.72708 0.0
C172 C 0.62873 0.78658 0.7482 0.0
C173 C 0.66753 0.81022 0.73504 0.0
C174 C 0.66369 0.8491 0.72441 0.0
N175 N 0.58732 0.80128 0.75071 0.0
C176 C 0.58346 0.83959 0.74039 0.0
Co177 Co 0.69988 0.35334 0.08542 0.0
Co178 Co 0.75084 0.48933 0.1016 0.0
O179 O 0.70271 0.42716 0.0865 0.0
C180 C 0.72926 0.40094 0.05162 0.0
O181 O 0.76824 0.44874 0.05863 0.0
C182 C 0.63193 0.46577 0.10797 0.0
O183 O 0.61699 0.41132 0.10899 0.0
O184 O 0.726 0.43568 0.12088 0.0
O185 O 0.70179 0.34916 0.11018 0.0
H186 H 0.89418 0.58409 0.14761 0.0
H187 H 0.61297 0.37031 0.06738 0.0
O188 O 0.69831 0.3569 0.06053 0.0
H189 H 0.50258 0.21238 0.10677 0.0
H190 H 0.63068 0.1558 0.06207 0.0
H191 H 0.75744 0.29905 0.10323 0.0
H192 H 0.60815 0.25748 0.1051 0.0
H193 H 0.63505 0.24951 0.06427 0.0
O194 O 0.68453 0.50343 0.1055 0.0
H195 H 0.83439 0.50594 0.12812 0.0
H196 H 0.7672 0.60604 0.1076 0.0
H197 H 0.75411 0.20578 0.10154 0.0
H198 H 0.50745 0.32621 0.06858 0.0
H199 H 0.69038 0.13338 0.08084 0.0
H200 H 0.45155 0.24679 0.08842 0.0
O201 O 0.78534 0.391 0.08503 0.0
H202 H 0.72051 0.57304 0.04934 0.0
H203 H 0.86435 0.58102 0.08901 0.0
H204 H 0.89648 0.64496 0.0646 0.0
H205 H 0.82427 0.64116 0.04455 0.0
H206 H 0.69035 0.50956 0.07384 0.0
H207 H 0.82594 0.68514 0.12695 0.0
H208 H 0.89017 0.67449 0.14709 0.0
O209 O 0.81784 0.47635 0.09776 0.0
C210 C 0.71097 0.38272 0.12247 0.0
C211 C 0.86653 0.58933 0.13885 0.0
C212 C 0.82816 0.64601 0.12727 0.0
N213 N 0.79776 0.55166 0.11666 0.0
C214 C 0.83272 0.54531 0.12775 0.0
C215 C 0.79492 0.60105 0.11637 0.0
C216 C 0.8642 0.64001 0.13856 0.0
C217 C 0.58889 0.33533 0.07591 0.0
N218 N 0.61665 0.31625 0.08608 0.0
C219 C 0.52917 0.3107 0.07659 0.0
C220 C 0.49785 0.26621 0.08775 0.0
C221 C 0.52645 0.24691 0.09805 0.0
C222 C 0.58624 0.27265 0.09707 0.0
C223 C 0.65859 0.18697 0.07115 0.0
C224 C 0.72942 0.26768 0.09424 0.0
C225 C 0.66136 0.24015 0.07242 0.0
N226 N 0.69629 0.27959 0.08391 0.0
C227 C 0.7278 0.21498 0.09332 0.0
C228 C 0.69207 0.17441 0.08169 0.0
C229 C 0.82588 0.43774 0.09102 0.0
C230 C 0.75237 0.5752 0.05801 0.0
C231 C 0.83272 0.57903 0.08032 0.0
C232 C 0.85114 0.61545 0.06655 0.0
C233 C 0.8106 0.61334 0.05531 0.0
N234 N 0.77555 0.54164 0.08286 0.0
C235 C 0.73553 0.53953 0.07194 0.0
Co236 Co 0.34129 0.71085 0.4161 0.0
Co237 Co 0.25471 0.7579 0.43351 0.0
O238 O 0.26851 0.71007 0.41812 0.0
C239 C 0.3146 0.73254 0.38237 0.0
O240 O 0.30475 0.77114 0.38922 0.0
C241 C 0.16356 0.6398 0.44065 0.0
O242 O 0.20473 0.62695 0.44159 0.0
O243 O 0.28568 0.73379 0.4523 0.0
O244 O 0.35306 0.718 0.44085 0.0
H245 H 0.30393 0.90015 0.47985 0.0
H246 H 0.23632 0.61717 0.40043 0.0
O247 O 0.33072 0.70399 0.39134 0.0
H248 H 0.30117 0.5214 0.44011 0.0
H249 H 0.47275 0.64624 0.39192 0.0
H250 H 0.45667 0.7779 0.43142 0.0
H251 H 0.35605 0.62654 0.43657 0.0
H252 H 0.38094 0.64554 0.39529 0.0
O253 O 0.17589 0.69137 0.43782 0.0
H254 H 0.32235 0.84133 0.45995 0.0
H255 H 0.15381 0.77298 0.44029 0.0
H256 H 0.54917 0.77971 0.42855 0.0
H257 H 0.18033 0.51189 0.40351 0.0
H258 H 0.5576 0.71353 0.40869 0.0
H259 H 0.21259 0.46336 0.42352 0.0
O260 O 0.38409 0.79582 0.41398 0.0
H261 H 0.1349 0.72613 0.3824 0.0
H262 H 0.27523 0.87097 0.4209 0.0
H263 H 0.24044 0.90229 0.39694 0.0
H264 H 0.16978 0.8296 0.37749 0.0
H265 H 0.17117 0.69672 0.40644 0.0
H266 H 0.13343 0.83081 0.46006 0.0
H267 H 0.20889 0.8951 0.47998 0.0
O268 O 0.33332 0.825 0.42945 0.0
C269 C 0.32726 0.7237 0.45345 0.0
C270 C 0.27078 0.87246 0.47119 0.0
C271 C 0.17506 0.83349 0.46009 0.0
N272 N 0.23937 0.80419 0.44888 0.0
C273 C 0.28101 0.83919 0.45986 0.0
C274 C 0.18681 0.80079 0.44895 0.0
C275 C 0.21742 0.86956 0.47127 0.0
C276 C 0.25099 0.59629 0.40902 0.0
N277 N 0.29955 0.62792 0.41824 0.0
C278 C 0.21896 0.5367 0.41077 0.0
C279 C 0.23704 0.5095 0.42202 0.0
C280 C 0.28671 0.54205 0.43134 0.0
C281 C 0.31756 0.60157 0.4293 0.0
C282 C 0.46958 0.67519 0.40064 0.0
C283 C 0.45994 0.74871 0.42283 0.0
C284 C 0.41776 0.67506 0.40258 0.0
N285 N 0.41339 0.71129 0.41364 0.0
C286 C 0.51245 0.75006 0.42122 0.0
C287 C 0.51716 0.71295 0.41006 0.0
C288 C 0.37744 0.83467 0.42096 0.0
C289 C 0.16552 0.75819 0.39083 0.0
C290 C 0.24449 0.83909 0.41249 0.0
C291 C 0.22487 0.85707 0.39896 0.0
C292 C 0.18519 0.81626 0.38806 0.0
N293 N 0.22504 0.78205 0.41511 0.0
C294 C 0.18599 0.74178 0.40451 0.0
Co295 Co 0.6049 0.32571 0.75256 0.0
Co296 Co 0.47501 0.2396 0.77213 0.0
O297 O 0.53412 0.25304 0.75586 0.0
C298 C 0.54673 0.29696 0.7201 0.0
O299 O 0.50035 0.2873 0.72824 0.0
C300 C 0.51005 0.15425 0.77965 0.0
O301 O 0.56324 0.19701 0.77931 0.0
O302 O 0.53363 0.27707 0.78997 0.0
O303 O 0.61639 0.33809 0.7771 0.0
H304 H 0.38541 0.2929 0.81857 0.0
H305 H 0.58917 0.22007 0.73604 0.0
O306 O 0.59394 0.31415 0.72788 0.0
H307 H 0.76076 0.28615 0.77144 0.0
H308 H 0.79246 0.45607 0.72396 0.0
H309 H 0.65772 0.44131 0.76792 0.0
H310 H 0.70964 0.34109 0.77005 0.0
H311 H 0.70304 0.36454 0.72902 0.0
O312 O 0.46847 0.1638 0.77755 0.0
H313 H 0.45947 0.31037 0.7976 0.0
H314 H 0.36417 0.13678 0.78174 0.0
H315 H 0.74678 0.53355 0.76336 0.0
H316 H 0.63912 0.16397 0.73702 0.0
H317 H 0.81487 0.54132 0.74124 0.0
H318 H 0.72545 0.19685 0.75486 0.0
O319 O 0.56245 0.3689 0.75242 0.0
H320 H 0.38349 0.10846 0.72333 0.0
H321 H 0.37376 0.24841 0.76086 0.0
H322 H 0.3031 0.20533 0.73816 0.0
H323 H 0.30774 0.13479 0.71921 0.0
H324 H 0.45356 0.153 0.74609 0.0
H325 H 0.28926 0.11729 0.80262 0.0
H326 H 0.29956 0.19576 0.82118 0.0
O327 O 0.48061 0.31496 0.76673 0.0
C328 C 0.58649 0.31622 0.7902 0.0
C329 C 0.38034 0.25841 0.81052 0.0
C330 C 0.32642 0.15982 0.80159 0.0
N331 N 0.41586 0.22478 0.78838 0.0
C332 C 0.42203 0.2681 0.79859 0.0
C333 C 0.36901 0.17108 0.78981 0.0
C334 C 0.33221 0.20388 0.81199 0.0
C335 C 0.62709 0.23501 0.74369 0.0
N336 N 0.64668 0.28399 0.75289 0.0
C337 C 0.65504 0.20293 0.74425 0.0
C338 C 0.70342 0.22135 0.75429 0.0
C339 C 0.72324 0.27143 0.7636 0.0
C340 C 0.69409 0.30233 0.76277 0.0
C341 C 0.76318 0.45319 0.73365 0.0
C342 C 0.68731 0.44429 0.75834 0.0
C343 C 0.71245 0.40153 0.73655 0.0
N344 N 0.67544 0.39755 0.74883 0.0
C345 C 0.73759 0.49666 0.75578 0.0
C346 C 0.77574 0.50101 0.74336 0.0
C347 C 0.51546 0.36059 0.7589 0.0
C348 C 0.38097 0.13908 0.73153 0.0
C349 C 0.37618 0.21798 0.75261 0.0
C350 C 0.33595 0.19356 0.73982 0.0
C351 C 0.33854 0.15393 0.7292 0.0
N352 N 0.41777 0.20332 0.75479 0.0
C353 C 0.4204 0.16429 0.74447 0.0
Co354 Co 0.37534 0.72389 0.58675 0.0
Co355 Co 0.50674 0.75282 0.5708 0.0
O356 O 0.44192 0.71303 0.5859 0.0
C357 C 0.42305 0.74777 0.6206 0.0
O358 O 0.47317 0.78073 0.61361 0.0
C359 C 0.46286 0.6294 0.56469 0.0
O360 O 0.41166 0.62425 0.56359 0.0
O361 O 0.45425 0.73553 0.55141 0.0
O362 O 0.37204 0.7254 0.56197 0.0
H363 H 0.619 0.88847 0.52464 0.0
H364 H 0.37407 0.62767 0.60521 0.0
O365 O 0.37794 0.72243 0.61166 0.0
H366 H 0.2119 0.53682 0.56591 0.0
H367 H 0.18544 0.6877 0.60959 0.0
H368 H 0.33834 0.79597 0.56855 0.0
H369 H 0.27225 0.64223 0.5672 0.0
H370 H 0.26986 0.67432 0.60773 0.0
O371 O 0.5068 0.67871 0.56713 0.0
H372 H 0.53768 0.83924 0.5441 0.0
H373 H 0.61411 0.74811 0.56503 0.0
H374 H 0.25453 0.81043 0.5699 0.0
H375 H 0.3146 0.52213 0.60439 0.0
H376 H 0.17732 0.75604 0.59054 0.0
H377 H 0.23297 0.47603 0.58459 0.0
O378 O 0.42515 0.80896 0.58693 0.0
H379 H 0.57485 0.70543 0.62345 0.0
H380 H 0.61046 0.85803 0.58324 0.0
H381 H 0.67336 0.8811 0.60775 0.0
H382 H 0.65565 0.80445 0.62808 0.0
H383 H 0.51276 0.68442 0.59884 0.0
H384 H 0.69607 0.79601 0.54572 0.0
H385 H 0.69894 0.86692 0.52538 0.0
O386 O 0.50777 0.82745 0.57442 0.0
C387 C 0.40372 0.72835 0.54974 0.0
C388 C 0.61834 0.85781 0.53349 0.0
C389 C 0.66155 0.80585 0.5453 0.0
N390 N 0.57144 0.79126 0.55577 0.0
C391 C 0.57251 0.82995 0.54457 0.0
C392 C 0.615 0.77879 0.55618 0.0
C393 C 0.66315 0.84565 0.5339 0.0
C394 C 0.33823 0.60796 0.59669 0.0
N395 N 0.32643 0.64109 0.58635 0.0
C396 C 0.30487 0.54816 0.59623 0.0
C397 C 0.25913 0.52232 0.5851 0.0
C398 C 0.24731 0.55641 0.5746 0.0
C399 C 0.28167 0.61607 0.57538 0.0
C400 C 0.21876 0.71159 0.60053 0.0
C401 C 0.30477 0.77195 0.5775 0.0
C402 C 0.26671 0.70429 0.59945 0.0
N403 N 0.30879 0.73411 0.58798 0.0
C404 C 0.25749 0.78041 0.57824 0.0
C405 C 0.21422 0.74993 0.58983 0.0
C406 C 0.47478 0.84364 0.58104 0.0
C407 C 0.58307 0.73917 0.61467 0.0
C408 C 0.6024 0.82455 0.59205 0.0
C409 C 0.63825 0.83779 0.60588 0.0
C410 C 0.62834 0.79476 0.61727 0.0
N411 N 0.55798 0.76998 0.58961 0.0
C412 C 0.54819 0.72748 0.60067 0.0
Co413 Co 0.66757 0.38725 0.9221 0.0
Co414 Co 0.76603 0.51399 0.90312 0.0
O415 O 0.74438 0.45336 0.91951 0.0
C416 C 0.69712 0.44392 0.95477 0.0
O417 O 0.71212 0.49179 0.9467 0.0
C418 C 0.84511 0.46886 0.89728 0.0
O419 O 0.79929 0.41755 0.89736 0.0
O420 O 0.7273 0.45673 0.88501 0.0
O421 O 0.65792 0.37743 0.89748 0.0
H422 H 0.73284 0.61375 0.85522 0.0
H423 H 0.76622 0.39101 0.93995 0.0
O424 O 0.67647 0.39662 0.94686 0.0
H425 H 0.68885 0.21915 0.9043 0.0
H426 H 0.51993 0.20446 0.94959 0.0
H427 H 0.55507 0.34508 0.90534 0.0
H428 H 0.64348 0.27958 0.90469 0.0
H429 H 0.61672 0.28808 0.94545 0.0
O430 O 0.83965 0.51313 0.89895 0.0
H431 H 0.70508 0.5379 0.87634 0.0
H432 H 0.8763 0.61936 0.89464 0.0
H433 H 0.45772 0.26193 0.90897 0.0
H434 H 0.81269 0.3316 0.94002 0.0
H435 H 0.43967 0.19089 0.93123 0.0
H436 H 0.7741 0.24507 0.92205 0.0
O437 O 0.63168 0.43671 0.92153 0.0
H438 H 0.89157 0.5956 0.95352 0.0
H439 H 0.7662 0.62051 0.91364 0.0
H440 H 0.81058 0.68969 0.93661 0.0
H441 H 0.87379 0.67741 0.95675 0.0
H442 H 0.84589 0.52719 0.93046 0.0
H443 H 0.90603 0.6959 0.87365 0.0
H444 H 0.83398 0.69348 0.8538 0.0
O445 O 0.69304 0.51597 0.90724 0.0
C446 C 0.68387 0.40605 0.88453 0.0
C447 C 0.76458 0.6154 0.86385 0.0
C448 C 0.86181 0.66145 0.87417 0.0
N449 N 0.78891 0.57451 0.88679 0.0
C450 C 0.74908 0.57267 0.87586 0.0
C451 C 0.84476 0.61795 0.88601 0.0
C452 C 0.82135 0.66008 0.86304 0.0
C453 C 0.74879 0.35309 0.93224 0.0
N454 N 0.70197 0.33859 0.92241 0.0
C455 C 0.77545 0.31975 0.93227 0.0
C456 C 0.75383 0.27126 0.92217 0.0
C457 C 0.70602 0.25671 0.9122 0.0
C458 C 0.68055 0.29113 0.91245 0.0
C459 C 0.52727 0.23507 0.93984 0.0
C460 C 0.5476 0.31421 0.915 0.0
C461 C 0.58194 0.28257 0.93746 0.0
N462 N 0.59155 0.32124 0.92511 0.0
C463 C 0.49236 0.26728 0.91702 0.0
C464 C 0.48226 0.22747 0.92953 0.0
C465 C 0.64519 0.48465 0.91468 0.0
C466 C 0.8642 0.60146 0.9448 0.0
C467 C 0.79344 0.61479 0.92239 0.0
C468 C 0.81862 0.65418 0.93534 0.0
C469 C 0.85413 0.64731 0.94662 0.0
N470 N 0.80341 0.56987 0.92071 0.0
C471 C 0.83839 0.56299 0.93168 0.0
Co472 Co 0.26925 0.67114 0.25277 0.0
Co473 Co 0.22802 0.7593 0.2331 0.0
O474 O 0.27269 0.74474 0.24951 0.0
C475 C 0.24145 0.70041 0.28541 0.0
O476 O 0.20559 0.71179 0.27744 0.0
C477 C 0.34871 0.84547 0.22618 0.0
O478 O 0.35997 0.8032 0.22658 0.0
O479 O 0.25019 0.72252 0.21525 0.0
O480 O 0.2678 0.6587 0.22824 0.0
H481 H 0.08775 0.70842 0.18608 0.0
H482 H 0.36064 0.77568 0.26925 0.0
O483 O 0.27053 0.68249 0.27744 0.0
H484 H 0.46284 0.70628 0.23359 0.0
H485 H 0.32347 0.53762 0.28096 0.0
H486 H 0.20374 0.5556 0.23753 0.0
H487 H 0.35689 0.65341 0.23507 0.0
H488 H 0.32768 0.63029 0.27602 0.0
O489 O 0.29731 0.83522 0.22805 0.0
H490 H 0.14319 0.68987 0.2072 0.0
H491 H 0.22058 0.86278 0.22366 0.0
H492 H 0.19845 0.46223 0.24197 0.0
H493 H 0.46663 0.82971 0.2682 0.0
H494 H 0.25864 0.45283 0.26381 0.0
H495 H 0.51841 0.79515 0.25023 0.0
O496 O 0.18372 0.62966 0.25307 0.0
H497 H 0.26555 0.88831 0.28232 0.0
H498 H 0.11777 0.75124 0.2439 0.0
H499 H 0.08937 0.79375 0.26657 0.0
H500 H 0.16359 0.86286 0.28598 0.0
H501 H 0.29189 0.8443 0.25958 0.0
H502 H 0.16635 0.88335 0.20264 0.0
H503 H 0.09918 0.80577 0.18372 0.0
O504 O 0.15784 0.68401 0.23814 0.0
C505 C 0.26207 0.68201 0.2151 0.0
C506 C 0.11673 0.74253 0.1943 0.0
C507 C 0.16091 0.84073 0.20357 0.0
N508 N 0.18467 0.77505 0.21673 0.0
C509 C 0.14809 0.73223 0.20631 0.0
C510 C 0.1916 0.82887 0.21542 0.0
C511 C 0.12322 0.79717 0.19296 0.0
C512 C 0.38289 0.76002 0.26154 0.0
N513 N 0.35263 0.71127 0.25231 0.0
C514 C 0.4429 0.79093 0.26094 0.0
C515 C 0.47192 0.77157 0.25083 0.0
C516 C 0.44076 0.72173 0.24149 0.0
C517 C 0.38078 0.69201 0.24236 0.0
C518 C 0.29713 0.5412 0.27137 0.0
C519 C 0.23033 0.55191 0.24699 0.0
C520 C 0.29926 0.59352 0.26854 0.0
N521 N 0.26633 0.5984 0.25641 0.0
C522 C 0.22702 0.4989 0.24947 0.0
C523 C 0.26076 0.49365 0.26175 0.0
C524 C 0.14589 0.63858 0.24627 0.0
C525 C 0.23282 0.85829 0.27394 0.0
C526 C 0.15019 0.78095 0.25235 0.0
C527 C 0.13392 0.8051 0.26512 0.0
C528 C 0.17559 0.84393 0.276 0.0
N529 N 0.20635 0.79508 0.25044 0.0
C530 C 0.2475 0.83337 0.261 0.0
Co531 Co 0.63105 0.28548 0.58939 0.0
Co532 Co 0.50135 0.25778 0.57236 0.0
O533 O 0.56458 0.29647 0.58807 0.0
C534 C 0.58043 0.2594 0.62296 0.0
O535 O 0.53056 0.22749 0.61571 0.0
C536 C 0.54626 0.38155 0.56659 0.0
O537 O 0.59752 0.38663 0.56612 0.0
O538 O 0.55574 0.27585 0.55341 0.0
O539 O 0.63695 0.28593 0.56469 0.0
H540 H 0.39359 0.1248 0.52522 0.0
H541 H 0.63034 0.38022 0.60815 0.0
O542 O 0.62607 0.285 0.61426 0.0
H543 H 0.79673 0.47414 0.57038 0.0
H544 H 0.81849 0.31968 0.61368 0.0
H545 H 0.66996 0.21491 0.5712 0.0
H546 H 0.73623 0.36867 0.57089 0.0
H547 H 0.73435 0.33332 0.61127 0.0
O548 O 0.50198 0.33222 0.56867 0.0
H549 H 0.4729 0.17274 0.54538 0.0
H550 H 0.39485 0.26325 0.56569 0.0
H551 H 0.75354 0.20024 0.5731 0.0
H552 H 0.68992 0.48579 0.60812 0.0
H553 H 0.82855 0.25286 0.59446 0.0
H554 H 0.77368 0.53343 0.58909 0.0
O555 O 0.5812 0.20038 0.58895 0.0
H556 H 0.42802 0.30282 0.62439 0.0
H557 H 0.39622 0.15213 0.58389 0.0
H558 H 0.33079 0.12801 0.60783 0.0
H559 H 0.34656 0.20369 0.6283 0.0
H560 H 0.49264 0.32489 0.60034 0.0
H561 H 0.3149 0.21663 0.54568 0.0
H562 H 0.31385 0.14668 0.5253 0.0
O563 O 0.49966 0.18287 0.57594 0.0
C564 C 0.60654 0.28343 0.55219 0.0
C565 C 0.39345 0.15504 0.53408 0.0
C566 C 0.34933 0.20665 0.54555 0.0
N567 N 0.43821 0.22034 0.55678 0.0
C568 C 0.43814 0.18217 0.54555 0.0
C569 C 0.39476 0.233 0.55682 0.0
C570 C 0.34876 0.16739 0.53412 0.0
C571 C 0.66709 0.40059 0.59997 0.0
N572 N 0.67999 0.36829 0.58961 0.0
C573 C 0.70051 0.46041 0.59995 0.0
C574 C 0.74745 0.48711 0.58925 0.0
C575 C 0.76039 0.45387 0.57874 0.0
C576 C 0.72593 0.39417 0.57907 0.0
C577 C 0.78612 0.29655 0.60431 0.0
C578 C 0.70255 0.23815 0.58048 0.0
C579 C 0.73833 0.30399 0.60292 0.0
N580 N 0.69745 0.27513 0.59106 0.0
C581 C 0.74972 0.22958 0.58152 0.0
C582 C 0.79176 0.25907 0.59352 0.0
C583 C 0.53205 0.16618 0.58268 0.0
C584 C 0.42064 0.2695 0.61554 0.0
C585 C 0.40345 0.18519 0.59277 0.0
C586 C 0.36617 0.17135 0.60628 0.0
C587 C 0.375 0.21385 0.61774 0.0
N588 N 0.44821 0.23982 0.59072 0.0
C589 C 0.45696 0.28179 0.60186 0.0
Co590 Co 0.35739 0.63976 0.92032 0.0
Co591 Co 0.25662 0.50945 0.90358 0.0
O592 O 0.28018 0.57341 0.91893 0.0
C593 C 0.33102 0.59095 0.95407 0.0
O594 O 0.31384 0.54091 0.94704 0.0
C595 C 0.17693 0.55335 0.89702 0.0
O596 O 0.22274 0.60458 0.89624 0.0
O597 O 0.29319 0.56284 0.88447 0.0
O598 O 0.36429 0.6441 0.89561 0.0
H599 H 0.2843 0.39975 0.8574 0.0
H600 H 0.26093 0.64046 0.93817 0.0
O601 O 0.35145 0.63619 0.94519 0.0
H602 H 0.33491 0.80409 0.89941 0.0
H603 H 0.50866 0.82815 0.94427 0.0
H604 H 0.46785 0.67741 0.90282 0.0
H605 H 0.38003 0.74355 0.90096 0.0
H606 H 0.41126 0.74411 0.94173 0.0
O607 O 0.18256 0.5095 0.89948 0.0
H608 H 0.31445 0.47993 0.87716 0.0
H609 H 0.14545 0.40253 0.89702 0.0
H610 H 0.56574 0.76085 0.90486 0.0
H611 H 0.21475 0.70009 0.9371 0.0
H612 H 0.58665 0.83698 0.92571 0.0
H613 H 0.25164 0.78247 0.91757 0.0
O614 O 0.39282 0.5899 0.9207 0.0
H615 H 0.13701 0.43861 0.95542 0.0
H616 H 0.25775 0.40529 0.91588 0.0
H617 H 0.21619 0.34116 0.94004 0.0
H618 H 0.15534 0.3577 0.96002 0.0
H619 H 0.17985 0.50196 0.93117 0.0
H620 H 0.11334 0.32171 0.8774 0.0
H621 H 0.18308 0.3199 0.85745 0.0
O622 O 0.33004 0.50823 0.90763 0.0
C623 C 0.33676 0.61319 0.88315 0.0
C624 C 0.25356 0.39995 0.86608 0.0
C625 C 0.15758 0.35619 0.87729 0.0
N626 N 0.23187 0.44562 0.88832 0.0
C627 C 0.27043 0.44513 0.87732 0.0
C628 C 0.17598 0.40211 0.88834 0.0
C629 C 0.19674 0.3552 0.8661 0.0
C630 C 0.27763 0.67661 0.92977 0.0
N631 N 0.32335 0.68873 0.91972 0.0
C632 C 0.25114 0.71007 0.92916 0.0
C633 C 0.2718 0.75622 0.91819 0.0
C634 C 0.3185 0.76836 0.90799 0.0
C635 C 0.34383 0.73389 0.90891 0.0
C636 C 0.50007 0.7953 0.93513 0.0
C637 C 0.47656 0.71049 0.91187 0.0
C638 C 0.44505 0.74756 0.93366 0.0
N639 N 0.43386 0.70606 0.92208 0.0
C640 C 0.5321 0.75757 0.91299 0.0
C641 C 0.54381 0.80024 0.9247 0.0
C642 C 0.37857 0.54073 0.91458 0.0
C643 C 0.16336 0.4309 0.94678 0.0
C644 C 0.23152 0.41287 0.92455 0.0
C645 C 0.20793 0.37631 0.93818 0.0
C646 C 0.17374 0.38557 0.94937 0.0
N647 N 0.2213 0.45734 0.92212 0.0
C648 C 0.18755 0.46649 0.93299 0.0
Co649 Co 0.70993 0.32983 0.25564 0.0
Co650 Co 0.75322 0.23851 0.23913 0.0
O651 O 0.70666 0.25572 0.25412 0.0
C652 C 0.73371 0.30587 0.28958 0.0
O653 O 0.76976 0.29217 0.2828 0.0
C654 C 0.63372 0.15179 0.23091 0.0
O655 O 0.62246 0.19403 0.23024 0.0
O656 O 0.73407 0.27303 0.21995 0.0
O657 O 0.71369 0.33786 0.23095 0.0
H658 H 0.89985 0.28225 0.19436 0.0
H659 H 0.61701 0.22819 0.27282 0.0
O660 O 0.7063 0.323 0.28049 0.0
H661 H 0.51823 0.29102 0.23356 0.0
H662 H 0.65318 0.46782 0.27942 0.0
H663 H 0.77612 0.44236 0.23874 0.0
H664 H 0.62401 0.34415 0.23581 0.0
H665 H 0.64959 0.3746 0.27672 0.0
O666 O 0.68449 0.16214 0.23412 0.0
H667 H 0.8418 0.30402 0.21367 0.0
H668 H 0.76132 0.13359 0.23233 0.0
H669 H 0.78087 0.5362 0.24094 0.0
H670 H 0.51115 0.17401 0.27103 0.0
H671 H 0.71906 0.54937 0.2614 0.0
H672 H 0.46109 0.20527 0.25125 0.0
O673 O 0.79553 0.37172 0.25659 0.0
H674 H 0.7078 0.11638 0.2903 0.0
H675 H 0.8615 0.24782 0.25234 0.0
H676 H 0.8862 0.20846 0.27664 0.0
H677 H 0.809 0.14224 0.29583 0.0
H678 H 0.68516 0.15718 0.26593 0.0
H679 H 0.81814 0.10982 0.21313 0.0
H680 H 0.88816 0.18454 0.19402 0.0
O681 O 0.82283 0.31417 0.24403 0.0
C682 C 0.72168 0.31301 0.21856 0.0
C683 C 0.86962 0.24939 0.20267 0.0
C684 C 0.82369 0.15259 0.21319 0.0
N685 N 0.7986 0.22027 0.2242 0.0
C686 C 0.83677 0.26152 0.21366 0.0
C687 C 0.79155 0.16625 0.224 0.0
C688 C 0.86299 0.19453 0.20247 0.0
C689 C 0.5955 0.24242 0.26431 0.0
N690 N 0.62663 0.28948 0.25451 0.0
C691 C 0.53556 0.21142 0.2633 0.0
C692 C 0.50751 0.22893 0.25218 0.0
C693 C 0.53955 0.27703 0.24224 0.0
C694 C 0.59943 0.3069 0.24356 0.0
C695 C 0.68028 0.4626 0.27044 0.0
C696 C 0.74893 0.4477 0.24761 0.0
C697 C 0.67852 0.40996 0.26889 0.0
N698 N 0.71243 0.40301 0.25752 0.0
C699 C 0.75188 0.50096 0.24883 0.0
C700 C 0.71723 0.50833 0.26033 0.0
C701 C 0.83393 0.36126 0.25101 0.0
C702 C 0.74181 0.14515 0.28202 0.0
C703 C 0.82777 0.2193 0.26068 0.0
C704 C 0.84196 0.19695 0.27438 0.0
C705 C 0.79861 0.15974 0.28513 0.0
N706 N 0.77201 0.20498 0.25775 0.0
C707 C 0.72923 0.16823 0.26817 0.0
H708 H 0.26574 0.50349 0.97521 0.0
H709 H 0.3792 0.68697 0.97352 0.0
H710 H 0.36528 0.6936 0.00325 0.0
H711 H 0.32046 0.64743 0.02972 0.0
H712 H 0.20498 0.46422 0.03119 0.0
H713 H 0.22002 0.45752 1.00157 0.0
C714 C 0.28772 0.5449 0.98136 0.0
C715 C 0.32372 0.5946 0.97217 0.0
C716 C 0.27893 0.54854 0.99842 0.0
C717 C 0.35129 0.64801 0.9803 0.0
C718 C 0.34334 0.65186 0.99731 0.0
C719 C 0.29852 0.60603 0.02356 0.0
C720 C 0.26158 0.55645 0.03268 0.0
C721 C 0.30714 0.60244 0.00648 0.0
C722 C 0.23341 0.50317 0.02448 0.0
C723 C 0.24212 0.49922 0.00754 0.0
H724 H 0.66898 0.29982 0.36528 0.0
H725 H 0.75076 0.19643 0.36808 0.0
H726 H 0.76989 0.20826 0.33829 0.0
H727 H 0.76364 0.248 0.31141 0.0
H728 H 0.67963 0.34925 0.30845 0.0
H729 H 0.6613 0.33824 0.33831 0.0
C730 C 0.69097 0.27984 0.35938 0.0
C731 C 0.70837 0.24728 0.36893 0.0
C732 C 0.70159 0.28652 0.3422 0.0
C733 C 0.73662 0.22151 0.36105 0.0
C734 C 0.74776 0.22837 0.344 0.0
C735 C 0.74157 0.2679 0.31731 0.0
C736 C 0.72334 0.29966 0.30772 0.0
C737 C 0.73054 0.26085 0.33446 0.0
C738 C 0.69416 0.32458 0.31553 0.0
C739 C 0.68365 0.31833 0.33262 0.0
H740 H 0.36726 0.68021 0.69628 0.0
H741 H 0.55184 0.75499 0.69791 0.0
H742 H 0.5579 0.77626 0.66831 0.0
H743 H 0.51115 0.77357 0.64191 0.0
H744 H 0.32649 0.69691 0.63995 0.0
H745 H 0.32027 0.67671 0.6697 0.0
C746 C 0.40881 0.70111 0.69016 0.0
C747 C 0.45896 0.71582 0.69933 0.0
C748 C 0.41207 0.7131 0.67307 0.0
C749 C 0.51245 0.74284 0.69117 0.0
C750 C 0.51604 0.75523 0.67423 0.0
C751 C 0.46954 0.75277 0.648 0.0
C752 C 0.41941 0.73709 0.63872 0.0
C753 C 0.46618 0.74062 0.66506 0.0
C754 C 0.36579 0.70952 0.64679 0.0
C755 C 0.36217 0.69791 0.66381 0.0
H756 H 0.7664 0.49137 0.03048 0.0
H757 H 0.66819 0.30627 0.03215 0.0
H758 H 0.64946 0.30321 1.00236 0.0
H759 H 0.66073 0.35305 0.97585 0.0
H760 H 0.75688 0.53831 0.9744 0.0
H761 H 0.77636 0.54121 0.0041 0.0
C762 C 0.74117 0.45031 0.02432 0.0
C763 C 0.71905 0.39912 0.03351 0.0
C764 C 0.72991 0.44887 0.00723 0.0
C765 C 0.6858 0.34633 0.02536 0.0
C766 C 0.67504 0.34453 0.00833 0.0
C767 C 0.68589 0.39408 0.98203 0.0
C768 C 0.70723 0.44536 0.97289 0.0
C769 C 0.69678 0.39552 0.99914 0.0
C770 C 0.73963 0.49815 0.98112 0.0
C771 C 0.75099 0.49989 0.99811 0.0
H772 H 0.29723 0.66544 0.30654 0.0
H773 H 0.2041 0.75811 0.305 0.0
H774 H 0.21908 0.77666 0.33477 0.0
H775 H 0.25895 0.76711 0.36122 0.0
H776 H 0.34984 0.67228 0.363 0.0
H777 H 0.33536 0.65408 0.33316 0.0
C778 C 0.2802 0.6897 0.31271 0.0
C779 C 0.24963 0.71038 0.30353 0.0
C780 C 0.28862 0.69991 0.32988 0.0
C781 C 0.22758 0.74146 0.31176 0.0
C782 C 0.23625 0.75224 0.32879 0.0
C783 C 0.27579 0.74262 0.35508 0.0
C784 C 0.30574 0.72139 0.36431 0.0
C785 C 0.2668 0.7318 0.33796 0.0
C786 C 0.32665 0.68915 0.35618 0.0
C787 C 0.31844 0.67876 0.33912 0.0
H788 H 0.63523 0.32147 0.69891 0.0
H789 H 0.45071 0.24693 0.70061 0.0
H790 H 0.44473 0.22733 0.67087 0.0
H791 H 0.49176 0.23193 0.6443 0.0
H792 H 0.67643 0.30824 0.64247 0.0
H793 H 0.68229 0.32629 0.67232 0.0
C794 C 0.59369 0.30093 0.69278 0.0
C795 C 0.54356 0.28586 0.702 0.0
C796 C 0.59049 0.28992 0.67564 0.0
C797 C 0.49009 0.25932 0.69383 0.0
C798 C 0.48655 0.24792 0.67681 0.0
C799 C 0.53327 0.25216 0.65044 0.0
C800 C 0.58353 0.26846 0.64116 0.0
C801 C 0.53645 0.26304 0.66759 0.0
C802 C 0.63703 0.29522 0.6493 0.0
C803 C 0.64046 0.30561 0.66638 0.0
H804 H 0.27862 0.73289 0.18471 0.0
H805 H 0.26066 0.58128 0.20887 0.0
H806 H 0.2667 0.54233 0.18208 0.0
H807 H 0.27298 0.54919 0.1517 0.0
H808 H 0.29367 0.70202 0.12758 0.0
H809 H 0.29117 0.74245 0.15444 0.0
C810 C 0.27614 0.69137 0.18414 0.0
C811 C 0.26864 0.65995 0.19882 0.0
C812 C 0.2802 0.6693 0.16868 0.0
C813 C 0.26628 0.6065 0.19781 0.0
C814 C 0.26968 0.58406 0.18247 0.0
C815 C 0.27743 0.59156 0.15228 0.0
C816 C 0.28304 0.62213 0.13754 0.0
C817 C 0.27609 0.61482 0.16781 0.0
C818 C 0.28912 0.67721 0.13865 0.0
C819 C 0.28753 0.70043 0.15403 0.0
H820 H 0.74069 0.29064 0.48714 0.0
H821 H 0.59006 0.27966 0.46412 0.0
H822 H 0.55201 0.28267 0.49145 0.0
H823 H 0.55921 0.28323 0.52199 0.0
H824 H 0.71071 0.2943 0.54455 0.0
H825 H 0.75032 0.29641 0.51726 0.0
C826 C 0.69968 0.2893 0.48802 0.0
C827 C 0.66822 0.28451 0.47353 0.0
C828 C 0.67789 0.29071 0.50374 0.0
C829 C 0.61531 0.28325 0.47502 0.0
C830 C 0.59336 0.28478 0.49067 0.0
C831 C 0.60105 0.28646 0.52096 0.0
C832 C 0.63156 0.2882 0.53541 0.0
C833 C 0.62391 0.28766 0.50514 0.0
C834 C 0.68591 0.29266 0.53374 0.0
C835 C 0.70876 0.29386 0.5181 0.0
H836 H 0.46703 0.73945 0.81752 0.0
H837 H 0.3185 0.59611 0.79518 0.0
H838 H 0.27838 0.56006 0.82268 0.0
H839 H 0.28691 0.56749 0.85314 0.0
H840 H 0.43497 0.71246 0.87519 0.0
H841 H 0.47338 0.74932 0.84774 0.0
C842 C 0.42579 0.70037 0.81862 0.0
C843 C 0.39615 0.67042 0.80425 0.0
C844 C 0.40276 0.67997 0.83445 0.0
C845 C 0.34244 0.62013 0.80599 0.0
C846 C 0.31944 0.59935 0.82173 0.0
C847 C 0.32746 0.60728 0.85197 0.0
C848 C 0.35799 0.63678 0.86631 0.0
C849 C 0.34945 0.62866 0.83607 0.0
C850 C 0.41037 0.68854 0.86445 0.0
C851 C 0.43256 0.70977 0.84872 0.0
H852 H 0.7156 0.43457 0.15206 0.0
H853 H 0.69749 0.27823 0.13118 0.0
H854 H 0.69887 0.24288 0.15893 0.0
H855 H 0.70877 0.25752 0.18913 0.0
H856 H 0.72366 0.41242 0.21003 0.0
H857 H 0.71989 0.44677 0.18231 0.0
C858 C 0.71158 0.3926 0.15354 0.0
C859 C 0.70688 0.35947 0.13946 0.0
C860 C 0.71211 0.37221 0.16958 0.0
C861 C 0.70131 0.30493 0.14172 0.0
C862 C 0.70224 0.28461 0.15762 0.0
C863 C 0.71113 0.29877 0.18763 0.0
C864 C 0.71701 0.33244 0.20168 0.0
C865 C 0.70829 0.31814 0.17163 0.0
C866 C 0.71925 0.38551 0.19948 0.0
C867 C 0.71716 0.40532 0.18361 0.0
H868 H 0.4514 0.72289 0.52019 0.0
H869 H 0.30343 0.72437 0.5409 0.0
H870 H 0.26652 0.72149 0.51312 0.0
H871 H 0.27699 0.72136 0.483 0.0
H872 H 0.42372 0.71855 0.46196 0.0
H873 H 0.45985 0.71876 0.48982 0.0
C874 C 0.41098 0.7224 0.51865 0.0
C875 C 0.38057 0.72416 0.53271 0.0
C876 C 0.38961 0.72051 0.50257 0.0
C877 C 0.32803 0.72315 0.53039 0.0
C878 C 0.30677 0.72155 0.51447 0.0
C879 C 0.31681 0.72057 0.48445 0.0
C880 C 0.34763 0.72025 0.47033 0.0
C881 C 0.33736 0.72065 0.50048 0.0
C882 C 0.39897 0.71883 0.47255 0.0
C883 C 0.4198 0.71909 0.4885 0.0
H884 H 0.72983 0.44723 0.85387 0.0
H885 H 0.58519 0.30504 0.87806 0.0
H886 H 0.54325 0.26447 0.85116 0.0
H887 H 0.54541 0.27074 0.82079 0.0
H888 H 0.69075 0.41161 0.79647 0.0
H889 H 0.73438 0.45083 0.82339 0.0
C890 C 0.68928 0.40719 0.8533 0.0
C891 C 0.66072 0.37962 0.86806 0.0
C892 C 0.66525 0.38377 0.83773 0.0
C893 C 0.6083 0.32751 0.86698 0.0
C894 C 0.58409 0.30418 0.85156 0.0
C895 C 0.58672 0.30995 0.82133 0.0
C896 C 0.6144 0.33828 0.80656 0.0
C897 C 0.61185 0.33223 0.83686 0.0
C898 C 0.66825 0.38879 0.80759 0.0
C899 C 0.69329 0.4114 0.823 0.0
H900 H 0.92783 0.53908 0.08995 0.0
H901 H 0.85722 0.35554 0.09103 0.0
H902 H 0.95391 0.36841 0.09139 0.0
H903 H 0.05906 0.43185 0.09167 0.0
H904 H 0.1296 0.61508 0.08825 0.0
H905 H 0.03294 0.6023 0.08849 0.0
C906 C 0.9336 0.50193 0.09025 0.0
C907 C 0.88513 0.44645 0.09058 0.0
C908 C 0.98954 0.50957 0.09003 0.0
C909 C 0.89357 0.39876 0.09075 0.0
C910 C 0.94897 0.40606 0.091 0.0
C911 C 0.05329 0.46896 0.09097 0.0
C912 C 0.10174 0.52435 0.09006 0.0
C913 C 0.99734 0.46126 0.09069 0.0
C914 C 0.09327 0.57192 0.08894 0.0
C915 C 0.03789 0.56469 0.08911 0.0
H916 H 0.56898 0.08789 0.40414 0.0
H917 H 0.60353 0.08592 0.45637 0.0
H918 H 0.52403 0.98728 0.4586 0.0
H919 H 0.44421 0.90147 0.4457 0.0
H920 H 0.41493 0.8996 0.39308 0.0
H921 H 0.49264 0.99982 0.39088 0.0
C922 C 0.55893 0.06567 0.41598 0.0
C923 C 0.59166 0.09395 0.43009 0.0
C924 C 0.51414 0.00845 0.41707 0.0
C925 C 0.57897 0.06475 0.44533 0.0
C926 C 0.53345 0.00851 0.44663 0.0
C927 C 0.45509 0.92334 0.4338 0.0
C928 C 0.4242 0.89419 0.41959 0.0
C929 C 0.50072 0.97999 0.4326 0.0
C930 C 0.43853 0.92189 0.40414 0.0
C931 C 0.48275 0.97895 0.40291 0.0
H932 H 0.58932 0.47473 0.75516 0.0
H933 H 0.40885 0.35021 0.75966 0.0
H934 H 0.38494 0.42665 0.75803 0.0
H935 H 0.41551 0.52916 0.75628 0.0
H936 H 0.59635 0.65414 0.75409 0.0
H937 H 0.61995 0.57727 0.75378 0.0
C938 C 0.54473 0.46426 0.75566 0.0
C939 C 0.50093 0.40678 0.75745 0.0
C940 C 0.53139 0.50857 0.75516 0.0
C941 C 0.44341 0.39405 0.75832 0.0
C942 C 0.42968 0.43775 0.75736 0.0
C943 C 0.46004 0.53953 0.75559 0.0
C944 C 0.50411 0.59724 0.75514 0.0
C945 C 0.47334 0.49518 0.75591 0.0
C946 C 0.56167 0.61007 0.75449 0.0
C947 C 0.57518 0.56614 0.75431 0.0
H948 H 0.59763 0.11486 0.58324 0.0
H949 H 0.42126 0.07692 0.58243 0.0
H950 H 0.38816 0.97417 0.58254 0.0
H951 H 0.40924 0.89494 0.58246 0.0
H952 H 0.58563 0.933 0.58101 0.0
H953 H 0.61871 0.03566 0.58218 0.0
C954 C 0.55193 0.08414 0.58318 0.0
C955 C 0.51201 0.10374 0.58296 0.0
C956 C 0.53319 0.02503 0.58279 0.0
C957 C 0.45296 0.0632 0.58262 0.0
C958 C 0.43397 0.00435 0.58269 0.0
C959 C 0.45494 0.92564 0.58248 0.0
C960 C 0.49486 0.90608 0.58178 0.0
C961 C 0.47369 0.98476 0.58273 0.0
C962 C 0.55391 0.94666 0.58155 0.0
C963 C 0.5729 0.00547 0.58224 0.0
H964 H 0.49518 0.6065 0.91525 0.0
H965 H 0.35793 0.43024 0.91521 0.0
H966 H 0.42816 0.39755 0.91603 0.0
H967 H 0.52868 0.419 0.91629 0.0
H968 H 0.66579 0.59509 0.91392 0.0
H969 H 0.59562 0.62787 0.91451 0.0
C970 C 0.48058 0.56093 0.91551 0.0
C971 C 0.42124 0.5209 0.9153 0.0
C972 C 0.52127 0.54241 0.91551 0.0
C973 C 0.40321 0.46199 0.91537 0.0
C974 C 0.4434 0.44325 0.91586 0.0
C975 C 0.54325 0.46456 0.91599 0.0
C976 C 0.60254 0.50453 0.91519 0.0
C977 C 0.50255 0.48307 0.91587 0.0
C978 C 0.62054 0.56339 0.91454 0.0
C979 C 0.58039 0.58219 0.9149 0.0
H980 H 0.10277 0.52478 0.25219 0.0
H981 H 0.0513 0.65138 0.24359 0.0
H982 H 0.95042 0.5774 0.24566 0.0
H983 H 0.87657 0.47612 0.2489 0.0
H984 H 0.92783 0.34848 0.25511 0.0
H985 H 0.02892 0.42338 0.2551 0.0
C986 C 0.06952 0.53628 0.25088 0.0
C987 C 0.08472 0.59369 0.24783 0.0
C988 C 0.01147 0.49323 0.25164 0.0
C989 C 0.04097 0.60764 0.24594 0.0
C990 C 0.98317 0.56531 0.24714 0.0
C991 C 0.90987 0.4648 0.25042 0.0
C992 C 0.89476 0.40689 0.25207 0.0
C993 C 0.96791 0.50792 0.24987 0.0
C994 C 0.93838 0.39274 0.25377 0.0
C995 C 0.99619 0.43555 0.25377 0.0
H996 H 0.51538 0.39641 0.10992 0.0
H997 H 0.64789 0.57466 0.10771 0.0
H998 H 0.57482 0.6036 0.10809 0.0
H999 H 0.47319 0.57853 0.10842 0.0
H1000 H 0.34064 0.40024 0.11025 0.0
H1001 H 0.41379 0.3714 0.11069 0.0
C1002 C 0.52841 0.44164 0.10963 0.0
C1003 C 0.58728 0.48322 0.10883 0.0
C1004 C 0.48606 0.4581 0.10976 0.0
C1005 C 0.60305 0.54161 0.10835 0.0
C1006 C 0.56122 0.55828 0.10856 0.0
C1007 C 0.46019 0.53334 0.10903 0.0
C1008 C 0.40127 0.4917 0.10935 0.0
C1009 C 0.50257 0.51692 0.10918 0.0
C1010 C 0.38552 0.43333 0.11002 0.0
C1011 C 0.42739 0.41673 0.11026 0.0
H1012 H 0.89474 0.47385 0.44246 0.0
H1013 H 0.94855 0.3469 0.44488 0.0
H1014 H 0.04911 0.42273 0.44477 0.0
H1015 H 0.12186 0.52482 0.44334 0.0
H1016 H 0.06818 0.65181 0.4406 0.0
H1017 H 0.96757 0.57611 0.44154 0.0
C1018 C 0.92842 0.46271 0.44306 0.0
C1019 C 0.91401 0.40472 0.44369 0.0
C1020 C 0.98626 0.50652 0.44292 0.0
C1021 C 0.95831 0.39115 0.44438 0.0
C1022 C 0.01591 0.4345 0.44432 0.0
C1023 C 0.08821 0.53604 0.44306 0.0
C1024 C 0.10265 0.59396 0.44192 0.0
C1025 C 0.03038 0.4923 0.4435 0.0
C1026 C 0.05838 0.6076 0.44148 0.0
C1027 C 1.00076 0.56433 0.442 0.0
H1028 H 0.58798 0.11753 0.78002 0.0
H1029 H 0.40553 0.05633 0.78171 0.0
H1030 H 0.38565 0.95728 0.78157 0.0
H1031 H 0.41975 0.88803 0.7797 0.0
H1032 H 0.60217 0.94929 0.77758 0.0
H1033 H 0.62218 0.04824 0.77921 0.0
C1034 C 0.54386 0.08257 0.78053 0.0
C1035 C 0.49837 0.09443 0.78086 0.0
C1036 C 0.53264 0.02565 0.78029 0.0
C1037 C 0.44144 0.04851 0.78143 0.0
C1038 C 0.42997 0.99179 0.78133 0.0
C1039 C 0.46392 0.92296 0.77973 0.0
C1040 C 0.50933 0.91116 0.77849 0.0
C1041 C 0.4752 0.97985 0.78057 0.0
C1042 C 0.56632 0.95705 0.7785 0.0
C1043 C 0.57786 0.01373 0.77942 0.0
H1044 H 0.56207 0.62444 0.56482 0.0
H1045 H 0.37732 0.51725 0.56341 0.0
H1046 H 0.38674 0.43146 0.56359 0.0
H1047 H 0.44719 0.38651 0.56478 0.0
H1048 H 0.63195 0.49371 0.5661 0.0
H1049 H 0.62259 0.5795 0.56529 0.0
C1050 C 0.52383 0.58234 0.56449 0.0
C1051 C 0.46907 0.57749 0.5641 0.0
C1052 C 0.52949 0.533 0.56461 0.0
C1053 C 0.42005 0.52245 0.56365 0.0
C1054 C 0.42536 0.47325 0.5638 0.0
C1055 C 0.48546 0.42862 0.56484 0.0
C1056 C 0.54019 0.43347 0.56551 0.0
C1057 C 0.47983 0.47796 0.56437 0.0
C1058 C 0.58925 0.48851 0.56554 0.0
C1059 C 0.58397 0.53772 0.56511 0.0
H1060 H 0.0733 0.45405 0.89673 0.0
H1061 H 0.14941 0.63843 0.89525 0.0
H1062 H 0.05393 0.62862 0.89479 0.0
H1063 H 0.94867 0.56796 0.89553 0.0
H1064 H 0.87255 0.38358 0.89703 0.0
H1065 H 0.968 0.39331 0.89671 0.0
C1066 C 0.06907 0.49213 0.89624 0.0
C1067 C 0.11867 0.5469 0.89602 0.0
C1068 C 0.01391 0.48625 0.896 0.0
C1069 C 0.11216 0.5957 0.89537 0.0
C1070 C 0.05748 0.59017 0.89514 0.0
C1071 C 0.95288 0.52985 0.89571 0.0
C1072 C 0.90329 0.47511 0.8963 0.0
C1073 C 0.00803 0.53569 0.89555 0.0
C1074 C 0.90979 0.42627 0.89652 0.0
C1075 C 0.96446 0.43177 0.89638 0.0
H1076 H 0.46378 0.88457 0.22715 0.0
H1077 H 0.33973 0.94192 0.22319 0.0
H1078 H 0.41703 0.04168 0.22368 0.0
H1079 H 0.51948 0.11277 0.22647 0.0
H1080 H 0.64335 0.0553 0.23085 0.0
H1081 H 0.56647 0.95567 0.22891 0.0
C1082 C 0.45365 0.91885 0.22621 0.0
C1083 C 0.39602 0.90569 0.22515 0.0
C1084 C 0.49827 0.97623 0.22666 0.0
C1085 C 0.3837 0.95075 0.22405 0.0
C1086 C 0.42789 0.00789 0.22435 0.0
C1087 C 0.52975 0.07851 0.22688 0.0
C1088 C 0.58712 0.09161 0.22884 0.0
C1089 C 0.48528 0.02115 0.22585 0.0
C1090 C 0.59956 0.04656 0.22938 0.0
C1091 C 0.55561 0.98947 0.22828 0.0
loop_
_geom_bond_atom_site_label_1
_geom_bond_atom_site_label_2
_geom_bond_distance
_geom_bond_site_symmetry_2
_ccdc_geom_bond_type
Co0 O2 2.143 . S
Co0 O8 2.074 . S
Co0 O11 2.093 . S
Co0 O24 2.097 . S
Co0 N41 2.151 . S
Co0 N49 2.214 . S
Co1 O2 2.160 . S
Co1 O7 2.058 . S
Co1 O17 2.057 . S
Co1 O32 2.037 . S
Co1 N36 2.145 . S
Co1 N57 2.257 . S
O2 Co0 2.143 . S
O2 Co1 2.160 . S
C3 O4 1.278 . S
C3 O11 1.224 . S
O4 C3 1.278 . S
C5 O6 1.245 . S
C5 O17 1.232 . S
O6 C5 1.245 . S
O7 Co1 2.058 . S
O7 C33 1.269 . S
O8 Co0 2.074 . S
O8 C33 1.257 . S
H9 C34 0.930 . S
H10 C40 0.930 . S
O11 Co0 2.093 . S
O11 C3 1.224 . S
H12 C44 0.929 . S
H13 C46 0.930 . S
H14 C47 0.930 . S
H15 C45 0.929 . S
H16 C48 0.928 . S
O17 Co1 2.057 . S
O17 C5 1.232 . S
H18 C37 0.929 . S
H19 C38 0.929 . S
H20 C50 0.931 . S
H21 C42 0.929 . S
H22 C51 0.930 . S
H23 C43 0.931 . S
O24 Co0 2.097 . S
O24 C52 1.214 . S
H25 C53 0.929 . S
H26 C54 0.929 . S
H27 C55 0.930 . S
H28 C56 0.929 . S
H29 C58 0.930 . S
H30 C35 0.930 . S
H31 C39 0.930 . S
O32 Co1 2.037 . S
O32 C52 1.234 . S
C33 O7 1.269 . S
C33 O8 1.257 . S
C34 H9 0.930 . S
C34 C37 1.388 . S
C34 C39 1.418 . S
C35 H30 0.930 . S
C35 C38 1.404 . S
C35 C39 1.353 . S
N36 Co1 2.145 . S
N36 C37 1.397 . S
N36 C38 1.334 . S
C37 H18 0.929 . S
C37 C34 1.388 . S
C37 N36 1.397 . S
C38 H19 0.929 . S
C38 C35 1.404 . S
C38 N36 1.334 . S
C39 H31 0.930 . S
C39 C34 1.418 . S
C39 C35 1.353 . S
C40 H10 0.930 . S
C40 N41 1.330 . S
C40 C42 1.446 . S
N41 Co0 2.151 . S
N41 C40 1.330 . S
N41 C45 1.418 . S
C42 H21 0.929 . S
C42 C40 1.446 . S
C42 C43 1.332 . S
C43 H23 0.931 . S
C43 C42 1.332 . S
C43 C44 1.267 . S
C44 H12 0.929 . S
C44 C43 1.267 . S
C44 C45 1.251 . S
C45 H15 0.929 . S
C45 N41 1.418 . S
C45 C44 1.251 . S
C46 H13 0.930 . S
C46 C48 1.406 . S
C46 C51 1.261 . S
C47 H14 0.930 . S
C47 N49 1.325 . S
C47 C50 1.357 . S
C48 H16 0.928 . S
C48 C46 1.406 . S
C48 N49 1.261 . S
N49 Co0 2.214 . S
N49 C47 1.325 . S
N49 C48 1.261 . S
C50 H20 0.931 . S
C50 C47 1.357 . S
C50 C51 1.312 . S
C51 H22 0.930 . S
C51 C46 1.261 . S
C51 C50 1.312 . S
C52 O24 1.214 . S
C52 O32 1.234 . S
C53 H25 0.929 . S
C53 C56 1.391 . S
C53 C58 1.391 . S
C54 H26 0.929 . S
C54 C55 1.390 . S
C54 N57 1.391 . S
C55 H27 0.930 . S
C55 C54 1.390 . S
C55 C56 1.392 . S
C56 H28 0.929 . S
C56 C53 1.391 . S
C56 C55 1.392 . S
N57 Co1 2.257 . S
N57 C54 1.391 . S
N57 C58 1.388 . S
C58 H29 0.930 . S
C58 C53 1.391 . S
C58 N57 1.388 . S
Co59 O61 2.143 . S
Co59 O67 2.074 . S
Co59 O70 2.093 . S
Co59 O83 2.097 . S
Co59 N100 2.151 . S
Co59 N108 2.214 . S
Co60 O61 2.160 . S
Co60 O66 2.058 . S
Co60 O76 2.057 . S
Co60 O91 2.037 . S
Co60 N95 2.145 . S
Co60 N116 2.257 . S
O61 Co59 2.143 . S
O61 Co60 2.160 . S
C62 O63 1.278 . S
C62 O70 1.224 . S
O63 C62 1.278 . S
C64 O65 1.245 . S
C64 O76 1.232 . S
O65 C64 1.245 . S
O66 Co60 2.058 . S
O66 C92 1.269 . S
O67 Co59 2.074 . S
O67 C92 1.257 . S
H68 C93 0.930 . S
H69 C99 0.930 . S
O70 Co59 2.093 . S
O70 C62 1.224 . S
H71 C103 0.929 . S
H72 C105 0.930 . S
H73 C106 0.930 . S
H74 C104 0.929 . S
H75 C107 0.928 . S
O76 Co60 2.057 . S
O76 C64 1.232 . S
H77 C96 0.929 . S
H78 C97 0.929 . S
H79 C109 0.931 . S
H80 C101 0.929 . S
H81 C110 0.930 . S
H82 C102 0.931 . S
O83 Co59 2.097 . S
O83 C111 1.214 . S
H84 C112 0.929 . S
H85 C113 0.929 . S
H86 C114 0.930 . S
H87 C115 0.929 . S
H88 C117 0.930 . S
H89 C94 0.930 . S
H90 C98 0.930 . S
O91 Co60 2.037 . S
O91 C111 1.234 . S
C92 O66 1.269 . S
C92 O67 1.257 . S
C93 H68 0.930 . S
C93 C96 1.388 . S
C93 C98 1.418 . S
C94 H89 0.930 . S
C94 C97 1.404 . S
C94 C98 1.353 . S
N95 Co60 2.145 . S
N95 C96 1.397 . S
N95 C97 1.334 . S
C96 H77 0.929 . S
C96 C93 1.388 . S
C96 N95 1.397 . S
C97 H78 0.929 . S
C97 C94 1.404 . S
C97 N95 1.334 . S
C98 H90 0.930 . S
C98 C93 1.418 . S
C98 C94 1.353 . S
C99 H69 0.930 . S
C99 N100 1.330 . S
C99 C101 1.446 . S
N100 Co59 2.151 . S
N100 C99 1.330 . S
N100 C104 1.418 . S
C101 H80 0.929 . S
C101 C99 1.446 . S
C101 C102 1.332 . S
C102 H82 0.931 . S
C102 C101 1.332 . S
C102 C103 1.267 . S
C103 H71 0.929 . S
C103 C102 1.267 . S
C103 C104 1.251 . S
C104 H74 0.929 . S
C104 N100 1.418 . S
C104 C103 1.251 . S
C105 H72 0.930 . S
C105 C107 1.406 . S
C105 C110 1.261 . S
C106 H73 0.930 . S
C106 N108 1.325 . S
C106 C109 1.357 . S
C107 H75 0.928 . S
C107 C105 1.406 . S
C107 N108 1.261 . S
N108 Co59 2.214 . S
N108 C106 1.325 . S
N108 C107 1.261 . S
C109 H79 0.931 . S
C109 C106 1.357 . S
C109 C110 1.312 . S
C110 H81 0.930 . S
C110 C105 1.261 . S
C110 C109 1.312 . S
C111 O83 1.214 . S
C111 O91 1.234 . S
C112 H84 0.929 . S
C112 C115 1.391 . S
C112 C117 1.391 . S
C113 H85 0.929 . S
C113 C114 1.390 . S
C113 N116 1.391 . S
C114 H86 0.930 . S
C114 C113 1.390 . S
C114 C115 1.392 . S
C115 H87 0.929 . S
C115 C112 1.391 . S
C115 C114 1.392 . S
N116 Co60 2.257 . S
N116 C113 1.391 . S
N116 C117 1.388 . S
C117 H88 0.930 . S
C117 C112 1.391 . S
C117 N116 1.388 . S
Co118 O120 2.143 . S
Co118 O126 2.074 . S
Co118 O129 2.093 . S
Co118 O142 2.097 . S
Co118 N159 2.151 . S
Co118 N167 2.214 . S
Co119 O120 2.160 . S
Co119 O125 2.058 . S
Co119 O135 2.057 . S
Co119 O150 2.037 . S
Co119 N154 2.145 . S
Co119 N175 2.257 . S
O120 Co118 2.143 . S
O120 Co119 2.160 . S
C121 O122 1.278 . S
C121 O129 1.224 . S
O122 C121 1.278 . S
C123 O124 1.245 . S
C123 O135 1.232 . S
O124 C123 1.245 . S
O125 Co119 2.058 . S
O125 C151 1.269 . S
O126 Co118 2.074 . S
O126 C151 1.257 . S
H127 C152 0.930 . S
H128 C158 0.930 . S
O129 Co118 2.093 . S
O129 C121 1.224 . S
H130 C162 0.929 . S
H131 C164 0.930 . S
H132 C165 0.930 . S
H133 C163 0.929 . S
H134 C166 0.928 . S
O135 Co119 2.057 . S
O135 C123 1.232 . S
H136 C155 0.929 . S
H137 C156 0.929 . S
H138 C168 0.931 . S
H139 C160 0.929 . S
H140 C169 0.930 . S
H141 C161 0.931 . S
O142 Co118 2.097 . S
O142 C170 1.214 . S
H143 C171 0.929 . S
H144 C172 0.929 . S
H145 C173 0.930 . S
H146 C174 0.929 . S
H147 C176 0.930 . S
H148 C153 0.930 . S
H149 C157 0.930 . S
O150 Co119 2.037 . S
O150 C170 1.234 . S
C151 O125 1.269 . S
C151 O126 1.257 . S
C152 H127 0.930 . S
C152 C155 1.388 . S
C152 C157 1.418 . S
C153 H148 0.930 . S
C153 C156 1.404 . S
C153 C157 1.353 . S
N154 Co119 2.145 . S
N154 C155 1.397 . S
N154 C156 1.334 . S
C155 H136 0.929 . S
C155 C152 1.388 . S
C155 N154 1.397 . S
C156 H137 0.929 . S
C156 C153 1.404 . S
C156 N154 1.334 . S
C157 H149 0.930 . S
C157 C152 1.418 . S
C157 C153 1.353 . S
C158 H128 0.930 . S
C158 N159 1.330 . S
C158 C160 1.446 . S
N159 Co118 2.151 . S
N159 C158 1.330 . S
N159 C163 1.418 . S
C160 H139 0.929 . S
C160 C158 1.446 . S
C160 C161 1.332 . S
C161 H141 0.931 . S
C161 C160 1.332 . S
C161 C162 1.267 . S
C162 H130 0.929 . S
C162 C161 1.267 . S
C162 C163 1.251 . S
C163 H133 0.929 . S
C163 N159 1.418 . S
C163 C162 1.251 . S
C164 H131 0.930 . S
C164 C166 1.406 . S
C164 C169 1.261 . S
C165 H132 0.930 . S
C165 N167 1.325 . S
C165 C168 1.357 . S
C166 H134 0.928 . S
C166 C164 1.406 . S
C166 N167 1.261 . S
N167 Co118 2.214 . S
N167 C165 1.325 . S
N167 C166 1.261 . S
C168 H138 0.931 . S
C168 C165 1.357 . S
C168 C169 1.312 . S
C169 H140 0.930 . S
C169 C164 1.261 . S
C169 C168 1.312 . S
C170 O142 1.214 . S
C170 O150 1.234 . S
C171 H143 0.929 . S
C171 C174 1.391 . S
C171 C176 1.391 . S
C172 H144 0.929 . S
C172 C173 1.390 . S
C172 N175 1.391 . S
C173 H145 0.930 . S
C173 C172 1.390 . S
C173 C174 1.392 . S
C174 H146 0.929 . S
C174 C171 1.391 . S
C174 C173 1.392 . S
N175 Co119 2.257 . S
N175 C172 1.391 . S
N175 C176 1.388 . S
C176 H147 0.930 . S
C176 C171 1.391 . S
C176 N175 1.388 . S
Co177 O179 2.143 . S
Co177 O185 2.074 . S
Co177 O188 2.093 . S
Co177 O201 2.097 . S
Co177 N218 2.151 . S
Co177 N226 2.214 . S
Co178 O179 2.160 . S
Co178 O184 2.058 . S
Co178 O194 2.057 . S
Co178 O209 2.037 . S
Co178 N213 2.145 . S
Co178 N234 2.257 . S
O179 Co177 2.143 . S
O179 Co178 2.160 . S
C180 O181 1.278 . S
C180 O188 1.224 . S
O181 C180 1.278 . S
C182 O183 1.245 . S
C182 O194 1.232 . S
O183 C182 1.245 . S
O184 Co178 2.058 . S
O184 C210 1.269 . S
O185 Co177 2.074 . S
O185 C210 1.257 . S
H186 C211 0.930 . S
H187 C217 0.930 . S
O188 Co177 2.093 . S
O188 C180 1.224 . S
H189 C221 0.929 . S
H190 C223 0.930 . S
H191 C224 0.930 . S
H192 C222 0.929 . S
H193 C225 0.928 . S
O194 Co178 2.057 . S
O194 C182 1.232 . S
H195 C214 0.929 . S
H196 C215 0.929 . S
H197 C227 0.931 . S
H198 C219 0.929 . S
H199 C228 0.930 . S
H200 C220 0.931 . S
O201 Co177 2.097 . S
O201 C229 1.214 . S
H202 C230 0.929 . S
H203 C231 0.929 . S
H204 C232 0.930 . S
H205 C233 0.929 . S
H206 C235 0.930 . S
H207 C212 0.930 . S
H208 C216 0.930 . S
O209 Co178 2.037 . S
O209 C229 1.234 . S
C210 O184 1.269 . S
C210 O185 1.257 . S
C211 H186 0.930 . S
C211 C214 1.388 . S
C211 C216 1.418 . S
C212 H207 0.930 . S
C212 C215 1.404 . S
C212 C216 1.353 . S
N213 Co178 2.145 . S
N213 C214 1.397 . S
N213 C215 1.334 . S
C214 H195 0.929 . S
C214 C211 1.388 . S
C214 N213 1.397 . S
C215 H196 0.929 . S
C215 C212 1.404 . S
C215 N213 1.334 . S
C216 H208 0.930 . S
C216 C211 1.418 . S
C216 C212 1.353 . S
C217 H187 0.930 . S
C217 N218 1.330 . S
C217 C219 1.446 . S
N218 Co177 2.151 . S
N218 C217 1.330 . S
N218 C222 1.418 . S
C219 H198 0.929 . S
C219 C217 1.446 . S
C219 C220 1.332 . S
C220 H200 0.931 . S
C220 C219 1.332 . S
C220 C221 1.267 . S
C221 H189 0.929 . S
C221 C220 1.267 . S
C221 C222 1.251 . S
C222 H192 0.929 . S
C222 N218 1.418 . S
C222 C221 1.251 . S
C223 H190 0.930 . S
C223 C225 1.406 . S
C223 C228 1.261 . S
C224 H191 0.930 . S
C224 N226 1.325 . S
C224 C227 1.357 . S
C225 H193 0.928 . S
C225 C223 1.406 . S
C225 N226 1.261 . S
N226 Co177 2.214 . S
N226 C224 1.325 . S
N226 C225 1.261 . S
C227 H197 0.931 . S
C227 C224 1.357 . S
C227 C228 1.312 . S
C228 H199 0.930 . S
C228 C223 1.261 . S
C228 C227 1.312 . S
C229 O201 1.214 . S
C229 O209 1.234 . S
C230 H202 0.929 . S
C230 C233 1.391 . S
C230 C235 1.391 . S
C231 H203 0.929 . S
C231 C232 1.390 . S
C231 N234 1.391 . S
C232 H204 0.930 . S
C232 C231 1.390 . S
C232 C233 1.392 . S
C233 H205 0.929 . S
C233 C230 1.391 . S
C233 C232 1.392 . S
N234 Co178 2.257 . S
N234 C231 1.391 . S
N234 C235 1.388 . S
C235 H206 0.930 . S
C235 C230 1.391 . S
C235 N234 1.388 . S
Co236 O238 2.143 . S
Co236 O244 2.074 . S
Co236 O247 2.093 . S
Co236 O260 2.097 . S
Co236 N277 2.151 . S
Co236 N285 2.214 . S
Co237 O238 2.160 . S
Co237 O243 2.058 . S
Co237 O253 2.057 . S
Co237 O268 2.037 . S
Co237 N272 2.145 . S
Co237 N293 2.257 . S
O238 Co236 2.143 . S
O238 Co237 2.160 . S
C239 O240 1.278 . S
C239 O247 1.224 . S
O240 C239 1.278 . S
C241 O242 1.245 . S
C241 O253 1.232 . S
O242 C241 1.245 . S
O243 Co237 2.058 . S
O243 C269 1.269 . S
O244 Co236 2.074 . S
O244 C269 1.257 . S
H245 C270 0.930 . S
H246 C276 0.930 . S
O247 Co236 2.093 . S
O247 C239 1.224 . S
H248 C280 0.929 . S
H249 C282 0.930 . S
H250 C283 0.930 . S
H251 C281 0.929 . S
H252 C284 0.928 . S
O253 Co237 2.057 . S
O253 C241 1.232 . S
H254 C273 0.929 . S
H255 C274 0.929 . S
H256 C286 0.931 . S
H257 C278 0.929 . S
H258 C287 0.930 . S
H259 C279 0.931 . S
O260 Co236 2.097 . S
O260 C288 1.214 . S
H261 C289 0.929 . S
H262 C290 0.929 . S
H263 C291 0.930 . S
H264 C292 0.929 . S
H265 C294 0.930 . S
H266 C271 0.930 . S
H267 C275 0.930 . S
O268 Co237 2.037 . S
O268 C288 1.234 . S
C269 O243 1.269 . S
C269 O244 1.257 . S
C270 H245 0.930 . S
C270 C273 1.388 . S
C270 C275 1.418 . S
C271 H266 0.930 . S
C271 C274 1.404 . S
C271 C275 1.353 . S
N272 Co237 2.145 . S
N272 C273 1.397 . S
N272 C274 1.334 . S
C273 H254 0.929 . S
C273 C270 1.388 . S
C273 N272 1.397 . S
C274 H255 0.929 . S
C274 C271 1.404 . S
C274 N272 1.334 . S
C275 H267 0.930 . S
C275 C270 1.418 . S
C275 C271 1.353 . S
C276 H246 0.930 . S
C276 N277 1.330 . S
C276 C278 1.446 . S
N277 Co236 2.151 . S
N277 C276 1.330 . S
N277 C281 1.418 . S
C278 H257 0.929 . S
C278 C276 1.446 . S
C278 C279 1.332 . S
C279 H259 0.931 . S
C279 C278 1.332 . S
C279 C280 1.267 . S
C280 H248 0.929 . S
C280 C279 1.267 . S
C280 C281 1.251 . S
C281 H251 0.929 . S
C281 N277 1.418 . S
C281 C280 1.251 . S
C282 H249 0.930 . S
C282 C284 1.406 . S
C282 C287 1.261 . S
C283 H250 0.930 . S
C283 N285 1.325 . S
C283 C286 1.357 . S
C284 H252 0.928 . S
C284 C282 1.406 . S
C284 N285 1.261 . S
N285 Co236 2.214 . S
N285 C283 1.325 . S
N285 C284 1.261 . S
C286 H256 0.931 . S
C286 C283 1.357 . S
C286 C287 1.312 . S
C287 H258 0.930 . S
C287 C282 1.261 . S
C287 C286 1.312 . S
C288 O260 1.214 . S
C288 O268 1.234 . S
C289 H261 0.929 . S
C289 C292 1.391 . S
C289 C294 1.391 . S
C290 H262 0.929 . S
C290 C291 1.390 . S
C290 N293 1.391 . S
C291 H263 0.930 . S
C291 C290 1.390 . S
C291 C292 1.392 . S
C292 H264 0.929 . S
C292 C289 1.391 . S
C292 C291 1.392 . S
N293 Co237 2.257 . S
N293 C290 1.391 . S
N293 C294 1.388 . S
C294 H265 0.930 . S
C294 C289 1.391 . S
C294 N293 1.388 . S
Co295 O297 2.143 . S
Co295 O303 2.074 . S
Co295 O306 2.093 . S
Co295 O319 2.097 . S
Co295 N336 2.151 . S
Co295 N344 2.214 . S
Co296 O297 2.160 . S
Co296 O302 2.058 . S
Co296 O312 2.057 . S
Co296 O327 2.037 . S
Co296 N331 2.145 . S
Co296 N352 2.257 . S
O297 Co295 2.143 . S
O297 Co296 2.160 . S
C298 O299 1.278 . S
C298 O306 1.224 . S
O299 C298 1.278 . S
C300 O301 1.245 . S
C300 O312 1.232 . S
O301 C300 1.245 . S
O302 Co296 2.058 . S
O302 C328 1.269 . S
O303 Co295 2.074 . S
O303 C328 1.257 . S
H304 C329 0.930 . S
H305 C335 0.930 . S
O306 Co295 2.093 . S
O306 C298 1.224 . S
H307 C339 0.929 . S
H308 C341 0.930 . S
H309 C342 0.930 . S
H310 C340 0.929 . S
H311 C343 0.928 . S
O312 Co296 2.057 . S
O312 C300 1.232 . S
H313 C332 0.929 . S
H314 C333 0.929 . S
H315 C345 0.931 . S
H316 C337 0.929 . S
H317 C346 0.930 . S
H318 C338 0.931 . S
O319 Co295 2.097 . S
O319 C347 1.214 . S
H320 C348 0.929 . S
H321 C349 0.929 . S
H322 C350 0.930 . S
H323 C351 0.929 . S
H324 C353 0.930 . S
H325 C330 0.930 . S
H326 C334 0.930 . S
O327 Co296 2.037 . S
O327 C347 1.234 . S
C328 O302 1.269 . S
C328 O303 1.257 . S
C329 H304 0.930 . S
C329 C332 1.388 . S
C329 C334 1.418 . S
C330 H325 0.930 . S
C330 C333 1.404 . S
C330 C334 1.353 . S
N331 Co296 2.145 . S
N331 C332 1.397 . S
N331 C333 1.334 . S
C332 H313 0.929 . S
C332 C329 1.388 . S
C332 N331 1.397 . S
C333 H314 0.929 . S
C333 C330 1.404 . S
C333 N331 1.334 . S
C334 H326 0.930 . S
C334 C329 1.418 . S
C334 C330 1.353 . S
C335 H305 0.930 . S
C335 N336 1.330 . S
C335 C337 1.446 . S
N336 Co295 2.151 . S
N336 C335 1.330 . S
N336 C340 1.418 . S
C337 H316 0.929 . S
C337 C335 1.446 . S
C337 C338 1.332 . S
C338 H318 0.931 . S
C338 C337 1.332 . S
C338 C339 1.267 . S
C339 H307 0.929 . S
C339 C338 1.267 . S
C339 C340 1.251 . S
C340 H310 0.929 . S
C340 N336 1.418 . S
C340 C339 1.251 . S
C341 H308 0.930 . S
C341 C343 1.406 . S
C341 C346 1.261 . S
C342 H309 0.930 . S
C342 N344 1.325 . S
C342 C345 1.357 . S
C343 H311 0.928 . S
C343 C341 1.406 . S
C343 N344 1.261 . S
N344 Co295 2.214 . S
N344 C342 1.325 . S
N344 C343 1.261 . S
C345 H315 0.931 . S
C345 C342 1.357 . S
C345 C346 1.312 . S
C346 H317 0.930 . S
C346 C341 1.261 . S
C346 C345 1.312 . S
C347 O319 1.214 . S
C347 O327 1.234 . S
C348 H320 0.929 . S
C348 C351 1.391 . S
C348 C353 1.391 . S
C349 H321 0.929 . S
C349 C350 1.390 . S
C349 N352 1.391 . S
C350 H322 0.930 . S
C350 C349 1.390 . S
C350 C351 1.392 . S
C351 H323 0.929 . S
C351 C348 1.391 . S
C351 C350 1.392 . S
N352 Co296 2.257 . S
N352 C349 1.391 . S
N352 C353 1.388 . S
C353 H324 0.930 . S
C353 C348 1.391 . S
C353 N352 1.388 . S
Co354 O356 2.143 . S
Co354 O362 2.074 . S
Co354 O365 2.093 . S
Co354 O378 2.097 . S
Co354 N395 2.151 . S
Co354 N403 2.214 . S
Co355 O356 2.160 . S
Co355 O361 2.058 . S
Co355 O371 2.057 . S
Co355 O386 2.037 . S
Co355 N390 2.145 . S
Co355 N411 2.257 . S
O356 Co354 2.143 . S
O356 Co355 2.160 . S
C357 O358 1.278 . S
C357 O365 1.224 . S
O358 C357 1.278 . S
C359 O360 1.245 . S
C359 O371 1.232 . S
O360 C359 1.245 . S
O361 Co355 2.058 . S
O361 C387 1.269 . S
O362 Co354 2.074 . S
O362 C387 1.257 . S
H363 C388 0.930 . S
H364 C394 0.930 . S
O365 Co354 2.093 . S
O365 C357 1.224 . S
H366 C398 0.929 . S
H367 C400 0.930 . S
H368 C401 0.930 . S
H369 C399 0.929 . S
H370 C402 0.928 . S
O371 Co355 2.057 . S
O371 C359 1.232 . S
H372 C391 0.929 . S
H373 C392 0.929 . S
H374 C404 0.931 . S
H375 C396 0.929 . S
H376 C405 0.930 . S
H377 C397 0.931 . S
O378 Co354 2.097 . S
O378 C406 1.214 . S
H379 C407 0.929 . S
H380 C408 0.929 . S
H381 C409 0.930 . S
H382 C410 0.929 . S
H383 C412 0.930 . S
H384 C389 0.930 . S
H385 C393 0.930 . S
O386 Co355 2.037 . S
O386 C406 1.234 . S
C387 O361 1.269 . S
C387 O362 1.257 . S
C388 H363 0.930 . S
C388 C391 1.388 . S
C388 C393 1.418 . S
C389 H384 0.930 . S
C389 C392 1.404 . S
C389 C393 1.353 . S
N390 Co355 2.145 . S
N390 C391 1.397 . S
N390 C392 1.334 . S
C391 H372 0.929 . S
C391 C388 1.388 . S
C391 N390 1.397 . S
C392 H373 0.929 . S
C392 C389 1.404 . S
C392 N390 1.334 . S
C393 H385 0.930 . S
C393 C388 1.418 . S
C393 C389 1.353 . S
C394 H364 0.930 . S
C394 N395 1.330 . S
C394 C396 1.446 . S
N395 Co354 2.151 . S
N395 C394 1.330 . S
N395 C399 1.418 . S
C396 H375 0.929 . S
C396 C394 1.446 . S
C396 C397 1.332 . S
C397 H377 0.931 . S
C397 C396 1.332 . S
C397 C398 1.267 . S
C398 H366 0.929 . S
C398 C397 1.267 . S
C398 C399 1.251 . S
C399 H369 0.929 . S
C399 N395 1.418 . S
C399 C398 1.251 . S
C400 H367 0.930 . S
C400 C402 1.406 . S
C400 C405 1.261 . S
C401 H368 0.930 . S
C401 N403 1.325 . S
C401 C404 1.357 . S
C402 H370 0.928 . S
C402 C400 1.406 . S
C402 N403 1.261 . S
N403 Co354 2.214 . S
N403 C401 1.325 . S
N403 C402 1.261 . S
C404 H374 0.931 . S
C404 C401 1.357 . S
C404 C405 1.312 . S
C405 H376 0.930 . S
C405 C400 1.261 . S
C405 C404 1.312 . S
C406 O378 1.214 . S
C406 O386 1.234 . S
C407 H379 0.929 . S
C407 C410 1.391 . S
C407 C412 1.391 . S
C408 H380 0.929 . S
C408 C409 1.390 . S
C408 N411 1.391 . S
C409 H381 0.930 . S
C409 C408 1.390 . S
C409 C410 1.392 . S
C410 H382 0.929 . S
C410 C407 1.391 . S
C410 C409 1.392 . S
N411 Co355 2.257 . S
N411 C408 1.391 . S
N411 C412 1.388 . S
C412 H383 0.930 . S
C412 C407 1.391 . S
C412 N411 1.388 . S
Co413 O415 2.143 . S
Co413 O421 2.074 . S
Co413 O424 2.093 . S
Co413 O437 2.097 . S
Co413 N454 2.151 . S
Co413 N462 2.214 . S
Co414 O415 2.160 . S
Co414 O420 2.058 . S
Co414 O430 2.057 . S
Co414 O445 2.037 . S
Co414 N449 2.145 . S
Co414 N470 2.257 . S
O415 Co413 2.143 . S
O415 Co414 2.160 . S
C416 O417 1.278 . S
C416 O424 1.224 . S
O417 C416 1.278 . S
C418 O419 1.245 . S
C418 O430 1.232 . S
O419 C418 1.245 . S
O420 Co414 2.058 . S
O420 C446 1.269 . S
O421 Co413 2.074 . S
O421 C446 1.257 . S
H422 C447 0.930 . S
H423 C453 0.930 . S
O424 Co413 2.093 . S
O424 C416 1.224 . S
H425 C457 0.929 . S
H426 C459 0.930 . S
H427 C460 0.930 . S
H428 C458 0.929 . S
H429 C461 0.928 . S
O430 Co414 2.057 . S
O430 C418 1.232 . S
H431 C450 0.929 . S
H432 C451 0.929 . S
H433 C463 0.931 . S
H434 C455 0.929 . S
H435 C464 0.930 . S
H436 C456 0.931 . S
O437 Co413 2.097 . S
O437 C465 1.214 . S
H438 C466 0.929 . S
H439 C467 0.929 . S
H440 C468 0.930 . S
H441 C469 0.929 . S
H442 C471 0.930 . S
H443 C448 0.930 . S
H444 C452 0.930 . S
O445 Co414 2.037 . S
O445 C465 1.234 . S
C446 O420 1.269 . S
C446 O421 1.257 . S
C447 H422 0.930 . S
C447 C450 1.388 . S
C447 C452 1.418 . S
C448 H443 0.930 . S
C448 C451 1.404 . S
C448 C452 1.353 . S
N449 Co414 2.145 . S
N449 C450 1.397 . S
N449 C451 1.334 . S
C450 H431 0.929 . S
C450 C447 1.388 . S
C450 N449 1.397 . S
C451 H432 0.929 . S
C451 C448 1.404 . S
C451 N449 1.334 . S
C452 H444 0.930 . S
C452 C447 1.418 . S
C452 C448 1.353 . S
C453 H423 0.930 . S
C453 N454 1.330 . S
C453 C455 1.446 . S
N454 Co413 2.151 . S
N454 C453 1.330 . S
N454 C458 1.418 . S
C455 H434 0.929 . S
C455 C453 1.446 . S
C455 C456 1.332 . S
C456 H436 0.931 . S
C456 C455 1.332 . S
C456 C457 1.267 . S
C457 H425 0.929 . S
C457 C456 1.267 . S
C457 C458 1.251 . S
C458 H428 0.929 . S
C458 N454 1.418 . S
C458 C457 1.251 . S
C459 H426 0.930 . S
C459 C461 1.406 . S
C459 C464 1.261 . S
C460 H427 0.930 . S
C460 N462 1.325 . S
C460 C463 1.357 . S
C461 H429 0.928 . S
C461 C459 1.406 . S
C461 N462 1.261 . S
N462 Co413 2.214 . S
N462 C460 1.325 . S
N462 C461 1.261 . S
C463 H433 0.931 . S
C463 C460 1.357 . S
C463 C464 1.312 . S
C464 H435 0.930 . S
C464 C459 1.261 . S
C464 C463 1.312 . S
C465 O437 1.214 . S
C465 O445 1.234 . S
C466 H438 0.929 . S
C466 C469 1.391 . S
C466 C471 1.391 . S
C467 H439 0.929 . S
C467 C468 1.390 . S
C467 N470 1.391 . S
C468 H440 0.930 . S
C468 C467 1.390 . S
C468 C469 1.392 . S
C469 H441 0.929 . S
C469 C466 1.391 . S
C469 C468 1.392 . S
N470 Co414 2.257 . S
N470 C467 1.391 . S
N470 C471 1.388 . S
C471 H442 0.930 . S
C471 C466 1.391 . S
C471 N470 1.388 . S
Co472 O474 2.143 . S
Co472 O480 2.074 . S
Co472 O483 2.093 . S
Co472 O496 2.097 . S
Co472 N513 2.151 . S
Co472 N521 2.214 . S
Co473 O474 2.160 . S
Co473 O479 2.058 . S
Co473 O489 2.057 . S
Co473 O504 2.037 . S
Co473 N508 2.145 . S
Co473 N529 2.257 . S
O474 Co472 2.143 . S
O474 Co473 2.160 . S
C475 O476 1.278 . S
C475 O483 1.224 . S
O476 C475 1.278 . S
C477 O478 1.245 . S
C477 O489 1.232 . S
O478 C477 1.245 . S
O479 Co473 2.058 . S
O479 C505 1.269 . S
O480 Co472 2.074 . S
O480 C505 1.257 . S
H481 C506 0.930 . S
H482 C512 0.930 . S
O483 Co472 2.093 . S
O483 C475 1.224 . S
H484 C516 0.929 . S
H485 C518 0.930 . S
H486 C519 0.930 . S
H487 C517 0.929 . S
H488 C520 0.928 . S
O489 Co473 2.057 . S
O489 C477 1.232 . S
H490 C509 0.929 . S
H491 C510 0.929 . S
H492 C522 0.931 . S
H493 C514 0.929 . S
H494 C523 0.930 . S
H495 C515 0.931 . S
O496 Co472 2.097 . S
O496 C524 1.214 . S
H497 C525 0.929 . S
H498 C526 0.929 . S
H499 C527 0.930 . S
H500 C528 0.929 . S
H501 C530 0.930 . S
H502 C507 0.930 . S
H503 C511 0.930 . S
O504 Co473 2.037 . S
O504 C524 1.234 . S
C505 O479 1.269 . S
C505 O480 1.257 . S
C506 H481 0.930 . S
C506 C509 1.388 . S
C506 C511 1.418 . S
C507 H502 0.930 . S
C507 C510 1.404 . S
C507 C511 1.353 . S
N508 Co473 2.145 . S
N508 C509 1.397 . S
N508 C510 1.334 . S
C509 H490 0.929 . S
C509 C506 1.388 . S
C509 N508 1.397 . S
C510 H491 0.929 . S
C510 C507 1.404 . S
C510 N508 1.334 . S
C511 H503 0.930 . S
C511 C506 1.418 . S
C511 C507 1.353 . S
C512 H482 0.930 . S
C512 N513 1.330 . S
C512 C514 1.446 . S
N513 Co472 2.151 . S
N513 C512 1.330 . S
N513 C517 1.418 . S
C514 H493 0.929 . S
C514 C512 1.446 . S
C514 C515 1.332 . S
C515 H495 0.931 . S
C515 C514 1.332 . S
C515 C516 1.267 . S
C516 H484 0.929 . S
C516 C515 1.267 . S
C516 C517 1.251 . S
C517 H487 0.929 . S
C517 N513 1.418 . S
C517 C516 1.251 . S
C518 H485 0.930 . S
C518 C520 1.406 . S
C518 C523 1.261 . S
C519 H486 0.930 . S
C519 N521 1.325 . S
C519 C522 1.357 . S
C520 H488 0.928 . S
C520 C518 1.406 . S
C520 N521 1.261 . S
N521 Co472 2.214 . S
N521 C519 1.325 . S
N521 C520 1.261 . S
C522 H492 0.931 . S
C522 C519 1.357 . S
C522 C523 1.312 . S
C523 H494 0.930 . S
C523 C518 1.261 . S
C523 C522 1.312 . S
C524 O496 1.214 . S
C524 O504 1.234 . S
C525 H497 0.929 . S
C525 C528 1.391 . S
C525 C530 1.391 . S
C526 H498 0.929 . S
C526 C527 1.390 . S
C526 N529 1.391 . S
C527 H499 0.930 . S
C527 C526 1.390 . S
C527 C528 1.392 . S
C528 H500 0.929 . S
C528 C525 1.391 . S
C528 C527 1.392 . S
N529 Co473 2.257 . S
N529 C526 1.391 . S
N529 C530 1.388 . S
C530 H501 0.930 . S
C530 C525 1.391 . S
C530 N529 1.388 . S
Co531 O533 2.143 . S
Co531 O539 2.074 . S
Co531 O542 2.093 . S
Co531 O555 2.097 . S
Co531 N572 2.151 . S
Co531 N580 2.214 . S
Co532 O533 2.160 . S
Co532 O538 2.058 . S
Co532 O548 2.057 . S
Co532 O563 2.037 . S
Co532 N567 2.145 . S
Co532 N588 2.257 . S
O533 Co531 2.143 . S
O533 Co532 2.160 . S
C534 O535 1.278 . S
C534 O542 1.224 . S
O535 C534 1.278 . S
C536 O537 1.245 . S
C536 O548 1.232 . S
O537 C536 1.245 . S
O538 Co532 2.058 . S
O538 C564 1.269 . S
O539 Co531 2.074 . S
O539 C564 1.257 . S
H540 C565 0.930 . S
H541 C571 0.930 . S
O542 Co531 2.093 . S
O542 C534 1.224 . S
H543 C575 0.929 . S
H544 C577 0.930 . S
H545 C578 0.930 . S
H546 C576 0.929 . S
H547 C579 0.928 . S
O548 Co532 2.057 . S
O548 C536 1.232 . S
H549 C568 0.929 . S
H550 C569 0.929 . S
H551 C581 0.931 . S
H552 C573 0.929 . S
H553 C582 0.930 . S
H554 C574 0.931 . S
O555 Co531 2.097 . S
O555 C583 1.214 . S
H556 C584 0.929 . S
H557 C585 0.929 . S
H558 C586 0.930 . S
H559 C587 0.929 . S
H560 C589 0.930 . S
H561 C566 0.930 . S
H562 C570 0.930 . S
O563 Co532 2.037 . S
O563 C583 1.234 . S
C564 O538 1.269 . S
C564 O539 1.257 . S
C565 H540 0.930 . S
C565 C568 1.388 . S
C565 C570 1.418 . S
C566 H561 0.930 . S
C566 C569 1.404 . S
C566 C570 1.353 . S
N567 Co532 2.145 . S
N567 C568 1.397 . S
N567 C569 1.334 . S
C568 H549 0.929 . S
C568 C565 1.388 . S
C568 N567 1.397 . S
C569 H550 0.929 . S
C569 C566 1.404 . S
C569 N567 1.334 . S
C570 H562 0.930 . S
C570 C565 1.418 . S
C570 C566 1.353 . S
C571 H541 0.930 . S
C571 N572 1.330 . S
C571 C573 1.446 . S
N572 Co531 2.151 . S
N572 C571 1.330 . S
N572 C576 1.418 . S
C573 H552 0.929 . S
C573 C571 1.446 . S
C573 C574 1.332 . S
C574 H554 0.931 . S
C574 C573 1.332 . S
C574 C575 1.267 . S
C575 H543 0.929 . S
C575 C574 1.267 . S
C575 C576 1.251 . S
C576 H546 0.929 . S
C576 N572 1.418 . S
C576 C575 1.251 . S
C577 H544 0.930 . S
C577 C579 1.406 . S
C577 C582 1.261 . S
C578 H545 0.930 . S
C578 N580 1.325 . S
C578 C581 1.357 . S
C579 H547 0.928 . S
C579 C577 1.406 . S
C579 N580 1.261 . S
N580 Co531 2.214 . S
N580 C578 1.325 . S
N580 C579 1.261 . S
C581 H551 0.931 . S
C581 C578 1.357 . S
C581 C582 1.312 . S
C582 H553 0.930 . S
C582 C577 1.261 . S
C582 C581 1.312 . S
C583 O555 1.214 . S
C583 O563 1.234 . S
C584 H556 0.929 . S
C584 C587 1.391 . S
C584 C589 1.391 . S
C585 H557 0.929 . S
C585 C586 1.390 . S
C585 N588 1.391 . S
C586 H558 0.930 . S
C586 C585 1.390 . S
C586 C587 1.392 . S
C587 H559 0.929 . S
C587 C584 1.391 . S
C587 C586 1.392 . S
N588 Co532 2.257 . S
N588 C585 1.391 . S
N588 C589 1.388 . S
C589 H560 0.930 . S
C589 C584 1.391 . S
C589 N588 1.388 . S
Co590 O592 2.143 . S
Co590 O598 2.074 . S
Co590 O601 2.093 . S
Co590 O614 2.097 . S
Co590 N631 2.151 . S
Co590 N639 2.214 . S
Co591 O592 2.160 . S
Co591 O597 2.058 . S
Co591 O607 2.057 . S
Co591 O622 2.037 . S
Co591 N626 2.145 . S
Co591 N647 2.257 . S
O592 Co590 2.143 . S
O592 Co591 2.160 . S
C593 O594 1.278 . S
C593 O601 1.224 . S
O594 C593 1.278 . S
C595 O596 1.245 . S
C595 O607 1.232 . S
O596 C595 1.245 . S
O597 Co591 2.058 . S
O597 C623 1.269 . S
O598 Co590 2.074 . S
O598 C623 1.257 . S
H599 C624 0.930 . S
H600 C630 0.930 . S
O601 Co590 2.093 . S
O601 C593 1.224 . S
H602 C634 0.929 . S
H603 C636 0.930 . S
H604 C637 0.930 . S
H605 C635 0.929 . S
H606 C638 0.928 . S
O607 Co591 2.057 . S
O607 C595 1.232 . S
H608 C627 0.929 . S
H609 C628 0.929 . S
H610 C640 0.931 . S
H611 C632 0.929 . S
H612 C641 0.930 . S
H613 C633 0.931 . S
O614 Co590 2.097 . S
O614 C642 1.214 . S
H615 C643 0.929 . S
H616 C644 0.929 . S
H617 C645 0.930 . S
H618 C646 0.929 . S
H619 C648 0.930 . S
H620 C625 0.930 . S
H621 C629 0.930 . S
O622 Co591 2.037 . S
O622 C642 1.234 . S
C623 O597 1.269 . S
C623 O598 1.257 . S
C624 H599 0.930 . S
C624 C627 1.388 . S
C624 C629 1.418 . S
C625 H620 0.930 . S
C625 C628 1.404 . S
C625 C629 1.353 . S
N626 Co591 2.145 . S
N626 C627 1.397 . S
N626 C628 1.334 . S
C627 H608 0.929 . S
C627 C624 1.388 . S
C627 N626 1.397 . S
C628 H609 0.929 . S
C628 C625 1.404 . S
C628 N626 1.334 . S
C629 H621 0.930 . S
C629 C624 1.418 . S
C629 C625 1.353 . S
C630 H600 0.930 . S
C630 N631 1.330 . S
C630 C632 1.446 . S
N631 Co590 2.151 . S
N631 C630 1.330 . S
N631 C635 1.418 . S
C632 H611 0.929 . S
C632 C630 1.446 . S
C632 C633 1.332 . S
C633 H613 0.931 . S
C633 C632 1.332 . S
C633 C634 1.267 . S
C634 H602 0.929 . S
C634 C633 1.267 . S
C634 C635 1.251 . S
C635 H605 0.929 . S
C635 N631 1.418 . S
C635 C634 1.251 . S
C636 H603 0.930 . S
C636 C638 1.406 . S
C636 C641 1.261 . S
C637 H604 0.930 . S
C637 N639 1.325 . S
C637 C640 1.357 . S
C638 H606 0.928 . S
C638 C636 1.406 . S
C638 N639 1.261 . S
N639 Co590 2.214 . S
N639 C637 1.325 . S
N639 C638 1.261 . S
C640 H610 0.931 . S
C640 C637 1.357 . S
C640 C641 1.312 . S
C641 H612 0.930 . S
C641 C636 1.261 . S
C641 C640 1.312 . S
C642 O614 1.214 . S
C642 O622 1.234 . S
C643 H615 0.929 . S
C643 C646 1.391 . S
C643 C648 1.391 . S
C644 H616 0.929 . S
C644 C645 1.390 . S
C644 N647 1.391 . S
C645 H617 0.930 . S
C645 C644 1.390 . S
C645 C646 1.392 . S
C646 H618 0.929 . S
C646 C643 1.391 . S
C646 C645 1.392 . S
N647 Co591 2.257 . S
N647 C644 1.391 . S
N647 C648 1.388 . S
C648 H619 0.930 . S
C648 C643 1.391 . S
C648 N647 1.388 . S
Co649 O651 2.143 . S
Co649 O657 2.074 . S
Co649 O660 2.093 . S
Co649 O673 2.097 . S
Co649 N690 2.151 . S
Co649 N698 2.214 . S
Co650 O651 2.160 . S
Co650 O656 2.058 . S
Co650 O666 2.057 . S
Co650 O681 2.037 . S
Co650 N685 2.145 . S
Co650 N706 2.257 . S
O651 Co649 2.143 . S
O651 Co650 2.160 . S
C652 O653 1.278 . S
C652 O660 1.224 . S
O653 C652 1.278 . S
C654 O655 1.245 . S
C654 O666 1.232 . S
O655 C654 1.245 . S
O656 Co650 2.058 . S
O656 C682 1.269 . S
O657 Co649 2.074 . S
O657 C682 1.257 . S
H658 C683 0.930 . S
H659 C689 0.930 . S
O660 Co649 2.093 . S
O660 C652 1.224 . S
H661 C693 0.929 . S
H662 C695 0.930 . S
H663 C696 0.930 . S
H664 C694 0.929 . S
H665 C697 0.928 . S
O666 Co650 2.057 . S
O666 C654 1.232 . S
H667 C686 0.929 . S
H668 C687 0.929 . S
H669 C699 0.931 . S
H670 C691 0.929 . S
H671 C700 0.930 . S
H672 C692 0.931 . S
O673 Co649 2.097 . S
O673 C701 1.214 . S
H674 C702 0.929 . S
H675 C703 0.929 . S
H676 C704 0.930 . S
H677 C705 0.929 . S
H678 C707 0.930 . S
H679 C684 0.930 . S
H680 C688 0.930 . S
O681 Co650 2.037 . S
O681 C701 1.234 . S
C682 O656 1.269 . S
C682 O657 1.257 . S
C683 H658 0.930 . S
C683 C686 1.388 . S
C683 C688 1.418 . S
C684 H679 0.930 . S
C684 C687 1.404 . S
C684 C688 1.353 . S
N685 Co650 2.145 . S
N685 C686 1.397 . S
N685 C687 1.334 . S
C686 H667 0.929 . S
C686 C683 1.388 . S
C686 N685 1.397 . S
C687 H668 0.929 . S
C687 C684 1.404 . S
C687 N685 1.334 . S
C688 H680 0.930 . S
C688 C683 1.418 . S
C688 C684 1.353 . S
C689 H659 0.930 . S
C689 N690 1.330 . S
C689 C691 1.446 . S
N690 Co649 2.151 . S
N690 C689 1.330 . S
N690 C694 1.418 . S
C691 H670 0.929 . S
C691 C689 1.446 . S
C691 C692 1.332 . S
C692 H672 0.931 . S
C692 C691 1.332 . S
C692 C693 1.267 . S
C693 H661 0.929 . S
C693 C692 1.267 . S
C693 C694 1.251 . S
C694 H664 0.929 . S
C694 N690 1.418 . S
C694 C693 1.251 . S
C695 H662 0.930 . S
C695 C697 1.406 . S
C695 C700 1.261 . S
C696 H663 0.930 . S
C696 N698 1.325 . S
C696 C699 1.357 . S
C697 H665 0.928 . S
C697 C695 1.406 . S
C697 N698 1.261 . S
N698 Co649 2.214 . S
N698 C696 1.325 . S
N698 C697 1.261 . S
C699 H669 0.931 . S
C699 C696 1.357 . S
C699 C700 1.312 . S
C700 H671 0.930 . S
C700 C695 1.261 . S
C700 C699 1.312 . S
C701 O673 1.214 . S
C701 O681 1.234 . S
C702 H674 0.929 . S
C702 C705 1.391 . S
C702 C707 1.391 . S
C703 H675 0.929 . S
C703 C704 1.390 . S
C703 N706 1.391 . S
C704 H676 0.930 . S
C704 C703 1.390 . S
C704 C705 1.392 . S
C705 H677 0.929 . S
C705 C702 1.391 . S
C705 C704 1.392 . S
N706 Co650 2.257 . S
N706 C703 1.391 . S
N706 C707 1.388 . S
C707 H678 0.930 . S
C707 C702 1.391 . S
C707 N706 1.388 . S
H708 C714 0.930 . S
H709 C717 0.930 . S
H710 C718 0.930 . S
H711 C719 0.930 . S
H712 C722 0.930 . S
H713 C723 0.930 . S
C714 H708 0.930 . S
C714 C715 1.355 . S
C714 C716 1.415 . S
C715 C714 1.355 . S
C715 C717 1.419 . S
C716 C714 1.415 . S
C716 C721 1.425 1_556 S
C716 C723 1.409 1_556 S
C717 H709 0.930 . S
C717 C715 1.419 . S
C717 C718 1.362 . S
C718 H710 0.930 . S
C718 C717 1.362 . S
C718 C721 1.409 1_556 S
C719 H711 0.930 . S
C719 C720 1.355 . S
C719 C721 1.415 . S
C720 C719 1.355 . S
C720 C722 1.419 . S
C721 C716 1.425 1_554 S
C721 C718 1.409 1_554 S
C721 C719 1.415 . S
C722 H712 0.930 . S
C722 C720 1.419 . S
C722 C723 1.362 . S
C723 H713 0.930 . S
C723 C716 1.409 1_554 S
C723 C722 1.362 . S
H724 C730 0.930 . S
H725 C733 0.930 . S
H726 C734 0.930 . S
H727 C735 0.930 . S
H728 C738 0.930 . S
H729 C739 0.930 . S
C730 H724 0.930 . S
C730 C731 1.355 . S
C730 C732 1.415 . S
C731 C730 1.355 . S
C731 C733 1.419 . S
C732 C730 1.415 . S
C732 C737 1.425 . S
C732 C739 1.409 . S
C733 H725 0.930 . S
C733 C731 1.419 . S
C733 C734 1.362 . S
C734 H726 0.930 . S
C734 C733 1.362 . S
C734 C737 1.409 . S
C735 H727 0.930 . S
C735 C736 1.355 . S
C735 C737 1.415 . S
C736 C735 1.355 . S
C736 C738 1.419 . S
C737 C732 1.425 . S
C737 C734 1.409 . S
C737 C735 1.415 . S
C738 H728 0.930 . S
C738 C736 1.419 . S
C738 C739 1.362 . S
C739 H729 0.930 . S
C739 C732 1.409 . S
C739 C738 1.362 . S
H740 C746 0.930 . S
H741 C749 0.930 . S
H742 C750 0.930 . S
H743 C751 0.930 . S
H744 C754 0.930 . S
H745 C755 0.930 . S
C746 H740 0.930 . S
C746 C747 1.355 . S
C746 C748 1.415 . S
C747 C746 1.355 . S
C747 C749 1.419 . S
C748 C746 1.415 . S
C748 C753 1.425 . S
C748 C755 1.409 . S
C749 H741 0.930 . S
C749 C747 1.419 . S
C749 C750 1.362 . S
C750 H742 0.930 . S
C750 C749 1.362 . S
C750 C753 1.409 . S
C751 H743 0.930 . S
C751 C752 1.355 . S
C751 C753 1.415 . S
C752 C751 1.355 . S
C752 C754 1.419 . S
C753 C748 1.425 . S
C753 C750 1.409 . S
C753 C751 1.415 . S
C754 H744 0.930 . S
C754 C752 1.419 . S
C754 C755 1.362 . S
C755 H745 0.930 . S
C755 C748 1.409 . S
C755 C754 1.362 . S
H756 C762 0.930 . S
H757 C765 0.930 . S
H758 C766 0.930 . S
H759 C767 0.930 . S
H760 C770 0.930 . S
H761 C771 0.930 . S
C762 H756 0.930 . S
C762 C763 1.355 . S
C762 C764 1.415 . S
C763 C762 1.355 . S
C763 C765 1.419 . S
C764 C762 1.415 . S
C764 C769 1.425 1_554 S
C764 C771 1.409 1_554 S
C765 H757 0.930 . S
C765 C763 1.419 . S
C765 C766 1.362 . S
C766 H758 0.930 . S
C766 C765 1.362 . S
C766 C769 1.409 1_554 S
C767 H759 0.930 . S
C767 C768 1.355 . S
C767 C769 1.415 . S
C768 C767 1.355 . S
C768 C770 1.419 . S
C769 C764 1.425 1_556 S
C769 C766 1.409 1_556 S
C769 C767 1.415 . S
C770 H760 0.930 . S
C770 C768 1.419 . S
C770 C771 1.362 . S
C771 H761 0.930 . S
C771 C764 1.409 1_556 S
C771 C770 1.362 . S
H772 C778 0.930 . S
H773 C781 0.930 . S
H774 C782 0.930 . S
H775 C783 0.930 . S
H776 C786 0.930 . S
H777 C787 0.930 . S
C778 H772 0.930 . S
C778 C779 1.355 . S
C778 C780 1.415 . S
C779 C778 1.355 . S
C779 C781 1.419 . S
C780 C778 1.415 . S
C780 C785 1.425 . S
C780 C787 1.409 . S
C781 H773 0.930 . S
C781 C779 1.419 . S
C781 C782 1.362 . S
C782 H774 0.930 . S
C782 C781 1.362 . S
C782 C785 1.409 . S
C783 H775 0.930 . S
C783 C784 1.355 . S
C783 C785 1.415 . S
C784 C783 1.355 . S
C784 C786 1.419 . S
C785 C780 1.425 . S
C785 C782 1.409 . S
C785 C783 1.415 . S
C786 H776 0.930 . S
C786 C784 1.419 . S
C786 C787 1.362 . S
C787 H777 0.930 . S
C787 C780 1.409 . S
C787 C786 1.362 . S
H788 C794 0.930 . S
H789 C797 0.930 . S
H790 C798 0.930 . S
H791 C799 0.930 . S
H792 C802 0.930 . S
H793 C803 0.930 . S
C794 H788 0.930 . S
C794 C795 1.355 . S
C794 C796 1.415 . S
C795 C794 1.355 . S
C795 C797 1.419 . S
C796 C794 1.415 . S
C796 C801 1.425 . S
C796 C803 1.409 . S
C797 H789 0.930 . S
C797 C795 1.419 . S
C797 C798 1.362 . S
C798 H790 0.930 . S
C798 C797 1.362 . S
C798 C801 1.409 . S
C799 H791 0.930 . S
C799 C800 1.355 . S
C799 C801 1.415 . S
C800 C799 1.355 . S
C800 C802 1.419 . S
C801 C796 1.425 . S
C801 C798 1.409 . S
C801 C799 1.415 . S
C802 H792 0.930 . S
C802 C800 1.419 . S
C802 C803 1.362 . S
C803 H793 0.930 . S
C803 C796 1.409 . S
C803 C802 1.362 . S
H804 C810 0.930 . S
H805 C813 0.930 . S
H806 C814 0.930 . S
H807 C815 0.930 . S
H808 C818 0.930 . S
H809 C819 0.930 . S
C810 H804 0.930 . S
C810 C811 1.355 . S
C810 C812 1.415 . S
C811 C810 1.355 . S
C811 C813 1.419 . S
C812 C810 1.415 . S
C812 C817 1.425 . S
C812 C819 1.409 . S
C813 H805 0.930 . S
C813 C811 1.419 . S
C813 C814 1.362 . S
C814 H806 0.930 . S
C814 C813 1.362 . S
C814 C817 1.409 . S
C815 H807 0.930 . S
C815 C816 1.355 . S
C815 C817 1.415 . S
C816 C815 1.355 . S
C816 C818 1.419 . S
C817 C812 1.425 . S
C817 C814 1.409 . S
C817 C815 1.415 . S
C818 H808 0.930 . S
C818 C816 1.419 . S
C818 C819 1.362 . S
C819 H809 0.930 . S
C819 C812 1.409 . S
C819 C818 1.362 . S
H820 C826 0.930 . S
H821 C829 0.930 . S
H822 C830 0.930 . S
H823 C831 0.930 . S
H824 C834 0.930 . S
H825 C835 0.930 . S
C826 H820 0.930 . S
C826 C827 1.355 . S
C826 C828 1.415 . S
C827 C826 1.355 . S
C827 C829 1.419 . S
C828 C826 1.415 . S
C828 C833 1.425 . S
C828 C835 1.409 . S
C829 H821 0.930 . S
C829 C827 1.419 . S
C829 C830 1.362 . S
C830 H822 0.930 . S
C830 C829 1.362 . S
C830 C833 1.409 . S
C831 H823 0.930 . S
C831 C832 1.355 . S
C831 C833 1.415 . S
C832 C831 1.355 . S
C832 C834 1.419 . S
C833 C828 1.425 . S
C833 C830 1.409 . S
C833 C831 1.415 . S
C834 H824 0.930 . S
C834 C832 1.419 . S
C834 C835 1.362 . S
C835 H825 0.930 . S
C835 C828 1.409 . S
C835 C834 1.362 . S
H836 C842 0.930 . S
H837 C845 0.930 . S
H838 C846 0.930 . S
H839 C847 0.930 . S
H840 C850 0.930 . S
H841 C851 0.930 . S
C842 H836 0.930 . S
C842 C843 1.355 . S
C842 C844 1.415 . S
C843 C842 1.355 . S
C843 C845 1.419 . S
C844 C842 1.415 . S
C844 C849 1.425 . S
C844 C851 1.409 . S
C845 H837 0.930 . S
C845 C843 1.419 . S
C845 C846 1.362 . S
C846 H838 0.930 . S
C846 C845 1.362 . S
C846 C849 1.409 . S
C847 H839 0.930 . S
C847 C848 1.355 . S
C847 C849 1.415 . S
C848 C847 1.355 . S
C848 C850 1.419 . S
C849 C844 1.425 . S
C849 C846 1.409 . S
C849 C847 1.415 . S
C850 H840 0.930 . S
C850 C848 1.419 . S
C850 C851 1.362 . S
C851 H841 0.930 . S
C851 C844 1.409 . S
C851 C850 1.362 . S
H852 C858 0.930 . S
H853 C861 0.930 . S
H854 C862 0.930 . S
H855 C863 0.930 . S
H856 C866 0.930 . S
H857 C867 0.930 . S
C858 H852 0.930 . S
C858 C859 1.355 . S
C858 C860 1.415 . S
C859 C858 1.355 . S
C859 C861 1.419 . S
C860 C858 1.415 . S
C860 C865 1.425 . S
C860 C867 1.409 . S
C861 H853 0.930 . S
C861 C859 1.419 . S
C861 C862 1.362 . S
C862 H854 0.930 . S
C862 C861 1.362 . S
C862 C865 1.409 . S
C863 H855 0.930 . S
C863 C864 1.355 . S
C863 C865 1.415 . S
C864 C863 1.355 . S
C864 C866 1.419 . S
C865 C860 1.425 . S
C865 C862 1.409 . S
C865 C863 1.415 . S
C866 H856 0.930 . S
C866 C864 1.419 . S
C866 C867 1.362 . S
C867 H857 0.930 . S
C867 C860 1.409 . S
C867 C866 1.362 . S
H868 C874 0.930 . S
H869 C877 0.930 . S
H870 C878 0.930 . S
H871 C879 0.930 . S
H872 C882 0.930 . S
H873 C883 0.930 . S
C874 H868 0.930 . S
C874 C875 1.355 . S
C874 C876 1.415 . S
C875 C874 1.355 . S
C875 C877 1.419 . S
C876 C874 1.415 . S
C876 C881 1.425 . S
C876 C883 1.409 . S
C877 H869 0.930 . S
C877 C875 1.419 . S
C877 C878 1.362 . S
C878 H870 0.930 . S
C878 C877 1.362 . S
C878 C881 1.409 . S
C879 H871 0.930 . S
C879 C880 1.355 . S
C879 C881 1.415 . S
C880 C879 1.355 . S
C880 C882 1.419 . S
C881 C876 1.425 . S
C881 C878 1.409 . S
C881 C879 1.415 . S
C882 H872 0.930 . S
C882 C880 1.419 . S
C882 C883 1.362 . S
C883 H873 0.930 . S
C883 C876 1.409 . S
C883 C882 1.362 . S
H884 C890 0.930 . S
H885 C893 0.930 . S
H886 C894 0.930 . S
H887 C895 0.930 . S
H888 C898 0.930 . S
H889 C899 0.930 . S
C890 H884 0.930 . S
C890 C891 1.355 . S
C890 C892 1.415 . S
C891 C890 1.355 . S
C891 C893 1.419 . S
C892 C890 1.415 . S
C892 C897 1.425 . S
C892 C899 1.409 . S
C893 H885 0.930 . S
C893 C891 1.419 . S
C893 C894 1.362 . S
C894 H886 0.930 . S
C894 C893 1.362 . S
C894 C897 1.409 . S
C895 H887 0.930 . S
C895 C896 1.355 . S
C895 C897 1.415 . S
C896 C895 1.355 . S
C896 C898 1.419 . S
C897 C892 1.425 . S
C897 C894 1.409 . S
C897 C895 1.415 . S
C898 H888 0.930 . S
C898 C896 1.419 . S
C898 C899 1.362 . S
C899 H889 0.930 . S
C899 C892 1.409 . S
C899 C898 1.362 . S
H900 C906 0.930 . S
H901 C909 0.930 . S
H902 C910 0.930 . S
H903 C911 0.930 . S
H904 C914 0.930 . S
H905 C915 0.930 . S
C906 H900 0.930 . S
C906 C907 1.355 . S
C906 C908 1.415 . S
C907 C906 1.355 . S
C907 C909 1.419 . S
C908 C906 1.415 . S
C908 C913 1.425 1_655 S
C908 C915 1.409 1_655 S
C909 H901 0.930 . S
C909 C907 1.419 . S
C909 C910 1.362 . S
C910 H902 0.930 . S
C910 C909 1.362 . S
C910 C913 1.409 1_655 S
C911 H903 0.930 . S
C911 C912 1.355 . S
C911 C913 1.415 . S
C912 C911 1.355 . S
C912 C914 1.419 . S
C913 C908 1.425 1_455 S
C913 C910 1.409 1_455 S
C913 C911 1.415 . S
C914 H904 0.930 . S
C914 C912 1.419 . S
C914 C915 1.362 . S
C915 H905 0.930 . S
C915 C908 1.409 1_455 S
C915 C914 1.362 . S
H916 C922 0.930 . S
H917 C925 0.930 . S
H918 C926 0.930 . S
H919 C927 0.930 . S
H920 C930 0.930 . S
H921 C931 0.930 . S
C922 H916 0.930 . S
C922 C923 1.355 . S
C922 C924 1.415 . S
C923 C922 1.355 . S
C923 C925 1.419 . S
C924 C922 1.415 . S
C924 C929 1.425 1_545 S
C924 C931 1.409 1_545 S
C925 H917 0.930 . S
C925 C923 1.419 . S
C925 C926 1.362 . S
C926 H918 0.930 . S
C926 C925 1.362 . S
C926 C929 1.409 1_545 S
C927 H919 0.930 . S
C927 C928 1.355 . S
C927 C929 1.415 . S
C928 C927 1.355 . S
C928 C930 1.419 . S
C929 C924 1.425 1_565 S
C929 C926 1.409 1_565 S
C929 C927 1.415 . S
C930 H920 0.930 . S
C930 C928 1.419 . S
C930 C931 1.362 . S
C931 H921 0.930 . S
C931 C924 1.409 1_565 S
C931 C930 1.362 . S
H932 C938 0.930 . S
H933 C941 0.930 . S
H934 C942 0.930 . S
H935 C943 0.930 . S
H936 C946 0.930 . S
H937 C947 0.930 . S
C938 H932 0.930 . S
C938 C939 1.355 . S
C938 C940 1.415 . S
C939 C938 1.355 . S
C939 C941 1.419 . S
C940 C938 1.415 . S
C940 C945 1.425 . S
C940 C947 1.409 . S
C941 H933 0.930 . S
C941 C939 1.419 . S
C941 C942 1.362 . S
C942 H934 0.930 . S
C942 C941 1.362 . S
C942 C945 1.409 . S
C943 H935 0.930 . S
C943 C944 1.355 . S
C943 C945 1.415 . S
C944 C943 1.355 . S
C944 C946 1.419 . S
C945 C940 1.425 . S
C945 C942 1.409 . S
C945 C943 1.415 . S
C946 H936 0.930 . S
C946 C944 1.419 . S
C946 C947 1.362 . S
C947 H937 0.930 . S
C947 C940 1.409 . S
C947 C946 1.362 . S
H948 C954 0.930 . S
H949 C957 0.930 . S
H950 C958 0.930 1_565 S
H951 C959 0.930 . S
H952 C962 0.930 . S
H953 C963 0.930 1_545 S
C954 H948 0.930 . S
C954 C955 1.355 . S
C954 C956 1.415 . S
C955 C954 1.355 . S
C955 C957 1.419 . S
C956 C954 1.415 . S
C956 C961 1.425 1_545 S
C956 C963 1.409 1_545 S
C957 H949 0.930 . S
C957 C955 1.419 . S
C957 C958 1.362 . S
C958 H950 0.930 1_545 S
C958 C957 1.362 . S
C958 C961 1.409 1_545 S
C959 H951 0.930 . S
C959 C960 1.355 . S
C959 C961 1.415 . S
C960 C959 1.355 . S
C960 C962 1.419 . S
C961 C956 1.425 1_565 S
C961 C958 1.409 1_565 S
C961 C959 1.415 . S
C962 H952 0.930 . S
C962 C960 1.419 . S
C962 C963 1.362 . S
C963 H953 0.930 1_565 S
C963 C956 1.409 1_565 S
C963 C962 1.362 . S
H964 C970 0.930 . S
H965 C973 0.930 . S
H966 C974 0.930 . S
H967 C975 0.930 . S
H968 C978 0.930 . S
H969 C979 0.930 . S
C970 H964 0.930 . S
C970 C971 1.355 . S
C970 C972 1.415 . S
C971 C970 1.355 . S
C971 C973 1.419 . S
C972 C970 1.415 . S
C972 C977 1.425 . S
C972 C979 1.409 . S
C973 H965 0.930 . S
C973 C971 1.419 . S
C973 C974 1.362 . S
C974 H966 0.930 . S
C974 C973 1.362 . S
C974 C977 1.409 . S
C975 H967 0.930 . S
C975 C976 1.355 . S
C975 C977 1.415 . S
C976 C975 1.355 . S
C976 C978 1.419 . S
C977 C972 1.425 . S
C977 C974 1.409 . S
C977 C975 1.415 . S
C978 H968 0.930 . S
C978 C976 1.419 . S
C978 C979 1.362 . S
C979 H969 0.930 . S
C979 C972 1.409 . S
C979 C978 1.362 . S
H980 C986 0.930 . S
H981 C989 0.930 . S
H982 C990 0.930 1_655 S
H983 C991 0.930 . S
H984 C994 0.930 . S
H985 C995 0.930 1_455 S
C986 H980 0.930 . S
C986 C987 1.355 . S
C986 C988 1.415 . S
C987 C986 1.355 . S
C987 C989 1.419 . S
C988 C986 1.415 . S
C988 C993 1.425 1_455 S
C988 C995 1.409 1_455 S
C989 H981 0.930 . S
C989 C987 1.419 . S
C989 C990 1.362 . S
C990 H982 0.930 1_455 S
C990 C989 1.362 . S
C990 C993 1.409 1_455 S
C991 H983 0.930 . S
C991 C992 1.355 . S
C991 C993 1.415 . S
C992 C991 1.355 . S
C992 C994 1.419 . S
C993 C988 1.425 1_655 S
C993 C990 1.409 1_655 S
C993 C991 1.415 . S
C994 H984 0.930 . S
C994 C992 1.419 . S
C994 C995 1.362 . S
C995 H985 0.930 1_655 S
C995 C988 1.409 1_655 S
C995 C994 1.362 . S
H996 C1002 0.930 . S
H997 C1005 0.930 . S
H998 C1006 0.930 . S
H999 C1007 0.930 . S
H1000 C1010 0.930 . S
H1001 C1011 0.930 . S
C1002 H996 0.930 . S
C1002 C1003 1.355 . S
C1002 C1004 1.415 . S
C1003 C1002 1.355 . S
C1003 C1005 1.419 . S
C1004 C1002 1.415 . S
C1004 C1009 1.425 . S
C1004 C1011 1.409 . S
C1005 H997 0.930 . S
C1005 C1003 1.419 . S
C1005 C1006 1.362 . S
C1006 H998 0.930 . S
C1006 C1005 1.362 . S
C1006 C1009 1.409 . S
C1007 H999 0.930 . S
C1007 C1008 1.355 . S
C1007 C1009 1.415 . S
C1008 C1007 1.355 . S
C1008 C1010 1.419 . S
C1009 C1004 1.425 . S
C1009 C1006 1.409 . S
C1009 C1007 1.415 . S
C1010 H1000 0.930 . S
C1010 C1008 1.419 . S
C1010 C1011 1.362 . S
C1011 H1001 0.930 . S
C1011 C1004 1.409 . S
C1011 C1010 1.362 . S
H1012 C1018 0.930 . S
H1013 C1021 0.930 . S
H1014 C1022 0.930 1_455 S
H1015 C1023 0.930 . S
H1016 C1026 0.930 . S
H1017 C1027 0.930 1_655 S
C1018 H1012 0.930 . S
C1018 C1019 1.355 . S
C1018 C1020 1.415 . S
C1019 C1018 1.355 . S
C1019 C1021 1.419 . S
C1020 C1018 1.415 . S
C1020 C1025 1.425 1_655 S
C1020 C1027 1.409 1_655 S
C1021 H1013 0.930 . S
C1021 C1019 1.419 . S
C1021 C1022 1.362 . S
C1022 H1014 0.930 1_655 S
C1022 C1021 1.362 . S
C1022 C1025 1.409 1_655 S
C1023 H1015 0.930 . S
C1023 C1024 1.355 . S
C1023 C1025 1.415 . S
C1024 C1023 1.355 . S
C1024 C1026 1.419 . S
C1025 C1020 1.425 1_455 S
C1025 C1022 1.409 1_455 S
C1025 C1023 1.415 . S
C1026 H1016 0.930 . S
C1026 C1024 1.419 . S
C1026 C1027 1.362 . S
C1027 H1017 0.930 1_455 S
C1027 C1020 1.409 1_455 S
C1027 C1026 1.362 . S
H1028 C1034 0.930 . S
H1029 C1037 0.930 . S
H1030 C1038 0.930 . S
H1031 C1039 0.930 . S
H1032 C1042 0.930 . S
H1033 C1043 0.930 . S
C1034 H1028 0.930 . S
C1034 C1035 1.355 . S
C1034 C1036 1.415 . S
C1035 C1034 1.355 . S
C1035 C1037 1.419 . S
C1036 C1034 1.415 . S
C1036 C1041 1.425 1_545 S
C1036 C1043 1.409 1_545 S
C1037 H1029 0.930 . S
C1037 C1035 1.419 . S
C1037 C1038 1.362 . S
C1038 H1030 0.930 . S
C1038 C1037 1.362 . S
C1038 C1041 1.409 1_545 S
C1039 H1031 0.930 . S
C1039 C1040 1.355 . S
C1039 C1041 1.415 . S
C1040 C1039 1.355 . S
C1040 C1042 1.419 . S
C1041 C1036 1.425 1_565 S
C1041 C1038 1.409 1_565 S
C1041 C1039 1.415 . S
C1042 H1032 0.930 . S
C1042 C1040 1.419 . S
C1042 C1043 1.362 . S
C1043 H1033 0.930 . S
C1043 C1036 1.409 1_565 S
C1043 C1042 1.362 . S
H1044 C1050 0.930 . S
H1045 C1053 0.930 . S
H1046 C1054 0.930 . S
H1047 C1055 0.930 . S
H1048 C1058 0.930 . S
H1049 C1059 0.930 . S
C1050 H1044 0.930 . S
C1050 C1051 1.355 . S
C1050 C1052 1.415 . S
C1051 C1050 1.355 . S
C1051 C1053 1.419 . S
C1052 C1050 1.415 . S
C1052 C1057 1.425 . S
C1052 C1059 1.409 . S
C1053 H1045 0.930 . S
C1053 C1051 1.419 . S
C1053 C1054 1.362 . S
C1054 H1046 0.930 . S
C1054 C1053 1.362 . S
C1054 C1057 1.409 . S
C1055 H1047 0.930 . S
C1055 C1056 1.355 . S
C1055 C1057 1.415 . S
C1056 C1055 1.355 . S
C1056 C1058 1.419 . S
C1057 C1052 1.425 . S
C1057 C1054 1.409 . S
C1057 C1055 1.415 . S
C1058 H1048 0.930 . S
C1058 C1056 1.419 . S
C1058 C1059 1.362 . S
C1059 H1049 0.930 . S
C1059 C1052 1.409 . S
C1059 C1058 1.362 . S
H1060 C1066 0.930 . S
H1061 C1069 0.930 . S
H1062 C1070 0.930 . S
H1063 C1071 0.930 . S
H1064 C1074 0.930 . S
H1065 C1075 0.930 . S
C1066 H1060 0.930 . S
C1066 C1067 1.355 . S
C1066 C1068 1.415 . S
C1067 C1066 1.355 . S
C1067 C1069 1.419 . S
C1068 C1066 1.415 . S
C1068 C1073 1.425 1_455 S
C1068 C1075 1.409 1_455 S
C1069 H1061 0.930 . S
C1069 C1067 1.419 . S
C1069 C1070 1.362 . S
C1070 H1062 0.930 . S
C1070 C1069 1.362 . S
C1070 C1073 1.409 1_455 S
C1071 H1063 0.930 . S
C1071 C1072 1.355 . S
C1071 C1073 1.415 . S
C1072 C1071 1.355 . S
C1072 C1074 1.419 . S
C1073 C1068 1.425 1_655 S
C1073 C1070 1.409 1_655 S
C1073 C1071 1.415 . S
C1074 H1064 0.930 . S
C1074 C1072 1.419 . S
C1074 C1075 1.362 . S
C1075 H1065 0.930 . S
C1075 C1068 1.409 1_655 S
C1075 C1074 1.362 . S
H1076 C1082 0.930 . S
H1077 C1085 0.930 . S
H1078 C1086 0.930 1_545 S
H1079 C1087 0.930 . S
H1080 C1090 0.930 . S
H1081 C1091 0.930 1_565 S
C1082 H1076 0.930 . S
C1082 C1083 1.355 . S
C1082 C1084 1.415 . S
C1083 C1082 1.355 . S
C1083 C1085 1.419 . S
C1084 C1082 1.415 . S
C1084 C1089 1.425 1_565 S
C1084 C1091 1.409 1_565 S
C1085 H1077 0.930 . S
C1085 C1083 1.419 . S
C1085 C1086 1.362 . S
C1086 H1078 0.930 1_565 S
C1086 C1085 1.362 . S
C1086 C1089 1.409 1_565 S
C1087 H1079 0.930 . S
C1087 C1088 1.355 . S
C1087 C1089 1.415 . S
C1088 C1087 1.355 . S
C1088 C1090 1.419 . S
C1089 C1084 1.425 1_545 S
C1089 C1086 1.409 1_545 S
C1089 C1087 1.415 . S
C1090 H1080 0.930 . S
C1090 C1088 1.419 . S
C1090 C1091 1.362 . S
C1091 H1081 0.930 1_545 S
C1091 C1084 1.409 1_545 S
C1091 C1090 1.362 . S
C715 C593 1.432 . S
C720 C3 1.425 . S
C731 C62 1.411 . S
C736 C652 1.441 . S
C747 C121 1.401 . S
C752 C357 1.430 . S
C763 C180 1.426 . S
C768 C416 1.431 . S
C779 C475 1.412 . S
C784 C239 1.415 . S
C795 C298 1.411 . S
C800 C534 1.416 . S
C811 C505 1.324 . S
C816 C33 1.346 . S
C827 C92 1.352 . S
C832 C564 1.361 . S
C843 C151 1.354 . S
C848 C623 1.335 . S
C859 C210 1.288 . S
C864 C682 1.298 . S
C875 C387 1.293 . S
C880 C269 1.311 . S
C891 C446 1.361 . S
C896 C328 1.350 . S
C907 C229 1.661 . S
C912 C52 1.646 . S
C923 C111 1.664 . S
C928 C288 1.646 . S
C939 C347 1.662 . S
C944 C170 1.649 . S
C955 C583 1.652 . S
C960 C406 1.660 . S
C971 C642 1.663 . S
C976 C465 1.645 . S
C987 C524 1.663 . S
C992 C701 1.648 . S
C1003 C182 1.310 . S
C1008 C5 1.312 . S
C1019 C64 1.310 . S
C1024 C241 1.312 . S
C1035 C300 1.298 . S
C1040 C123 1.305 . S
C1051 C359 1.304 . S
C1056 C536 1.297 . S
C1067 C595 1.297 . S
C1072 C418 1.294 . S
C1083 C477 1.303 . S
C1088 C654 1.309 . S
