# Generated by pormake.
# Topology whh, (6)-cn, num edge types: 1
# Building blocks:
#     Node 0, Type 0, BuildingBlock: CUKXOW_clean_sbu_0, # of connection points: 6
#     Node 1, Type 0, BuildingBlock: CUKXOW_clean_sbu_0, # of connection points: 6
#     Node 2, Type 0, BuildingBlock: CUKXOW_clean_sbu_0, # of connection points: 6
#     Node 3, Type 0, BuildingBlock: CUKXOW_clean_sbu_0, # of connection points: 6
#     Node 4, Type 0, BuildingBlock: CUKXOW_clean_sbu_0, # of connection points: 6
#     Node 5, Type 0, BuildingBlock: CUKXOW_clean_sbu_0, # of connection points: 6
#     Node 6, Type 0, BuildingBlock: CUKXOW_clean_sbu_0, # of connection points: 6
#     Node 7, Type 0, BuildingBlock: CUKXOW_clean_sbu_0, # of connection points: 6
#     Node 8, Type 0, BuildingBlock: CUKXOW_clean_sbu_0, # of connection points: 6
#     Node 9, Type 0, BuildingBlock: CUKXOW_clean_sbu_0, # of connection points: 6
#     Node 10, Type 0, BuildingBlock: CUKXOW_clean_sbu_0, # of connection points: 6
#     Node 11, Type 0, BuildingBlock: CUKXOW_clean_sbu_0, # of connection points: 6
#     Node 12, Type 0, BuildingBlock: CUKXOW_clean_sbu_0, # of connection points: 6
#     Node 13, Type 0, BuildingBlock: CUKXOW_clean_sbu_0, # of connection points: 6
#     Node 14, Type 0, BuildingBlock: CUKXOW_clean_sbu_0, # of connection points: 6
#     Node 15, Type 0, BuildingBlock: CUKXOW_clean_sbu_0, # of connection points: 6
#     Edge 16, Type (0, 0), BuildingBlock: XIVTED_clean_linker_0, # of connection points: 2
#     Edge 17, Type (0, 0), BuildingBlock: XIVTED_clean_linker_0, # of connection points: 2
#     Edge 18, Type (0, 0), BuildingBlock: XIVTED_clean_linker_0, # of connection points: 2
#     Edge 19, Type (0, 0), BuildingBlock: XIVTED_clean_linker_0, # of connection points: 2
#     Edge 20, Type (0, 0), BuildingBlock: XIVTED_clean_linker_0, # of connection points: 2
#     Edge 21, Type (0, 0), BuildingBlock: XIVTED_clean_linker_0, # of connection points: 2
#     Edge 22, Type (0, 0), BuildingBlock: XIVTED_clean_linker_0, # of connection points: 2
#     Edge 23, Type (0, 0), BuildingBlock: XIVTED_clean_linker_0, # of connection points: 2
#     Edge 24, Type (0, 0), BuildingBlock: XIVTED_clean_linker_0, # of connection points: 2
#     Edge 25, Type (0, 0), BuildingBlock: XIVTED_clean_linker_0, # of connection points: 2
#     Edge 26, Type (0, 0), BuildingBlock: XIVTED_clean_linker_0, # of connection points: 2
#     Edge 27, Type (0, 0), BuildingBlock: XIVTED_clean_linker_0, # of connection points: 2
#     Edge 28, Type (0, 0), BuildingBlock: XIVTED_clean_linker_0, # of connection points: 2
#     Edge 29, Type (0, 0), BuildingBlock: XIVTED_clean_linker_0, # of connection points: 2
#     Edge 30, Type (0, 0), BuildingBlock: XIVTED_clean_linker_0, # of connection points: 2
#     Edge 31, Type (0, 0), BuildingBlock: XIVTED_clean_linker_0, # of connection points: 2
#     Edge 32, Type (0, 0), BuildingBlock: XIVTED_clean_linker_0, # of connection points: 2
#     Edge 33, Type (0, 0), BuildingBlock: XIVTED_clean_linker_0, # of connection points: 2
#     Edge 34, Type (0, 0), BuildingBlock: XIVTED_clean_linker_0, # of connection points: 2
#     Edge 35, Type (0, 0), BuildingBlock: XIVTED_clean_linker_0, # of connection points: 2
#     Edge 36, Type (0, 0), BuildingBlock: XIVTED_clean_linker_0, # of connection points: 2
#     Edge 37, Type (0, 0), BuildingBlock: XIVTED_clean_linker_0, # of connection points: 2
#     Edge 38, Type (0, 0), BuildingBlock: XIVTED_clean_linker_0, # of connection points: 2
#     Edge 39, Type (0, 0), BuildingBlock: XIVTED_clean_linker_0, # of connection points: 2
#     Edge 40, Type (0, 0), BuildingBlock: XIVTED_clean_linker_0, # of connection points: 2
#     Edge 41, Type (0, 0), BuildingBlock: XIVTED_clean_linker_0, # of connection points: 2
#     Edge 42, Type (0, 0), BuildingBlock: XIVTED_clean_linker_0, # of connection points: 2
#     Edge 43, Type (0, 0), BuildingBlock: XIVTED_clean_linker_0, # of connection points: 2
#     Edge 44, Type (0, 0), BuildingBlock: XIVTED_clean_linker_0, # of connection points: 2
#     Edge 45, Type (0, 0), BuildingBlock: XIVTED_clean_linker_0, # of connection points: 2
#     Edge 46, Type (0, 0), BuildingBlock: XIVTED_clean_linker_0, # of connection points: 2
#     Edge 47, Type (0, 0), BuildingBlock: XIVTED_clean_linker_0, # of connection points: 2
#     Edge 48, Type (0, 0), BuildingBlock: XIVTED_clean_linker_0, # of connection points: 2
#     Edge 49, Type (0, 0), BuildingBlock: XIVTED_clean_linker_0, # of connection points: 2
#     Edge 50, Type (0, 0), BuildingBlock: XIVTED_clean_linker_0, # of connection points: 2
#     Edge 51, Type (0, 0), BuildingBlock: XIVTED_clean_linker_0, # of connection points: 2
#     Edge 52, Type (0, 0), BuildingBlock: XIVTED_clean_linker_0, # of connection points: 2
#     Edge 53, Type (0, 0), BuildingBlock: XIVTED_clean_linker_0, # of connection points: 2
#     Edge 54, Type (0, 0), BuildingBlock: XIVTED_clean_linker_0, # of connection points: 2
#     Edge 55, Type (0, 0), BuildingBlock: XIVTED_clean_linker_0, # of connection points: 2
#     Edge 56, Type (0, 0), BuildingBlock: XIVTED_clean_linker_0, # of connection points: 2
#     Edge 57, Type (0, 0), BuildingBlock: XIVTED_clean_linker_0, # of connection points: 2
#     Edge 58, Type (0, 0), BuildingBlock: XIVTED_clean_linker_0, # of connection points: 2
#     Edge 59, Type (0, 0), BuildingBlock: XIVTED_clean_linker_0, # of connection points: 2
#     Edge 60, Type (0, 0), BuildingBlock: XIVTED_clean_linker_0, # of connection points: 2
#     Edge 61, Type (0, 0), BuildingBlock: XIVTED_clean_linker_0, # of connection points: 2
#     Edge 62, Type (0, 0), BuildingBlock: XIVTED_clean_linker_0, # of connection points: 2
#     Edge 63, Type (0, 0), BuildingBlock: XIVTED_clean_linker_0, # of connection points: 2
# Relax obj value: 0.346
# Max RMSD: 0.308
# Mean RMSD: 0.274
data_MOF--net-whh--node1-CUKXOW_clean_sbu_0--edge1-XIVTED_clean_linker_0
_symmetry_space_group_name_H-M    P1
_symmetry_Int_Tables_number       1
_symmetry_cell_setting            triclinic
loop_
_symmetry_equiv_pos_as_xyz
'x, y, z'
_cell_length_a     31.060262
_cell_length_b     30.665081
_cell_length_c     53.834092
_cell_angle_alpha  92.076375
_cell_angle_beta   98.603678
_cell_angle_gamma 90.25767
loop_
_atom_site_label
_atom_site_type_symbol
_atom_site_fract_x
_atom_site_fract_y
_atom_site_fract_z
_atom_type_partial_charge
Tb0 Tb 0.11206 0.58854 0.10303 0.0
C1 C 0.09082 0.65677 0.14243 0.0
Tb2 Tb 0.07424 0.67647 0.08616 0.0
O3 O 0.17543 0.60731 0.09187 0.0
O4 O 0.13435 0.65401 0.10392 0.0
O5 O 0.08473 0.61611 0.13458 0.0
C6 C 0.0558 0.75956 0.07522 0.0
O7 O 0.09359 0.68784 0.12639 0.0
C8 C 1.01616 0.61876 0.09552 0.0
C9 C 0.08931 0.60104 0.0453 0.0
O10 O 0.09404 0.74475 0.08369 0.0
O11 O 0.02878 0.72683 0.0713 0.0
O12 O 1.0132 0.66062 0.09928 0.0
O13 O 0.05025 0.61152 0.08598 0.0
O14 O 0.08588 0.644 0.05037 0.0
O15 O 0.09702 0.57179 0.06322 0.0
C16 C 0.12325 0.52487 0.13687 0.0
O17 O 0.09318 0.52553 0.1172 0.0
O18 O 0.14974 0.55712 0.13514 0.0
C19 C 0.16902 0.6491 0.09486 0.0
Tb20 Tb 0.88541 0.1079 0.14347 0.0
C21 C 0.97226 0.11264 0.12814 0.0
Tb22 Tb 0.8927 0.08477 0.08712 0.0
O23 O 0.92553 0.0499 0.15668 0.0
O24 O 0.89356 0.05285 0.12081 0.0
O25 O 0.94224 0.13911 0.13368 0.0
C26 C 0.91926 0.05829 0.04387 0.0
O27 O 0.96004 0.08428 0.10914 0.0
C28 C 0.86475 0.16572 0.09714 0.0
C29 C 0.80374 0.06336 0.10999 0.0
O30 O 0.9373 0.08803 0.05977 0.0
O31 O 0.88483 0.04293 0.05209 0.0
O32 O 0.8824 0.15456 0.07754 0.0
O33 O 0.86052 0.13087 0.10781 0.0
O34 O 0.82716 0.05605 0.09085 0.0
O35 O 0.8189 0.08646 0.13113 0.0
C36 C 0.88943 0.16107 0.18297 0.0
O37 O 0.88161 0.11923 0.18311 0.0
O38 O 0.89174 0.17333 0.1605 0.0
C39 C 0.91886 1.02969 0.13472 0.0
Tb40 Tb 0.43635 0.89791 0.13097 0.0
C41 C 0.44375 0.99429 0.12634 0.0
Tb42 Tb 0.45957 0.93001 0.08168 0.0
O43 O 0.5002 0.92045 0.15237 0.0
O44 O 0.4933 0.90424 0.11447 0.0
O45 O 0.41479 0.96446 0.12941 0.0
C46 C 0.48818 0.97026 0.04443 0.0
O47 O 0.46866 0.98708 0.10863 0.0
C48 C 0.38051 0.89586 0.07927 0.0
C49 C 0.46668 0.82897 0.09208 0.0
O50 O 0.5082 0.93877 0.05673 0.0
O51 O 0.45226 0.97899 0.05312 0.0
O52 O 0.40237 0.8965 0.06058 0.0
O53 O 0.40139 0.91911 0.09701 0.0
O54 O 0.47903 0.86145 0.0787 0.0
O55 O 0.44705 0.83579 0.11219 0.0
C56 C 0.38312 0.87143 0.16124 0.0
O57 O 0.38983 0.8507 0.14081 0.0
O58 O 0.40978 0.90437 0.16605 0.0
C59 C 0.51924 0.92078 0.13234 0.0
Tb60 Tb 0.57919 0.46088 0.10538 0.0
C61 C 0.67034 0.49344 0.13267 0.0
Tb62 Tb 0.65399 0.47145 0.07418 0.0
O63 O 0.61089 0.40129 0.12063 0.0
O64 O 0.61792 0.419 0.08486 0.0
O65 O 0.62776 0.49451 0.13257 0.0
C66 C 0.73142 0.46876 0.0579 0.0
O67 O 0.68767 0.48144 0.11253 0.0
C68 C 0.60538 0.53996 0.0767 0.0
C69 C 0.5614 0.4546 0.04549 0.0
O70 O 0.71932 0.44412 0.07473 0.0
O71 O 0.69888 0.49313 0.04941 0.0
O72 O 0.62757 0.5317 0.05855 0.0
O73 O 0.61563 0.51343 0.09394 0.0
O74 O 0.60308 0.44417 0.04583 0.0
O75 O 0.54432 0.46223 0.06662 0.0
C76 C 0.51694 0.46955 0.13567 0.0
O77 O 0.54203 0.43622 0.13397 0.0
O78 O 0.52478 0.49668 0.11884 0.0
C79 C 0.63058 0.39235 0.10154 0.0
Tb80 Tb 0.07384 0.87259 0.30781 0.0
C81 C 0.07603 0.96705 0.28744 0.0
Tb82 Tb 0.07318 0.94681 0.34641 0.0
O83 O 1.00528 0.85654 0.31182 0.0
O84 O 0.02886 0.91992 0.31667 0.0
O85 O 0.07854 0.92447 0.28225 0.0
C86 C 0.04966 1.00698 0.37863 0.0
O87 O 0.07261 0.98334 0.31075 0.0
C88 C 0.14772 0.9045 0.34825 0.0
C89 C 0.06278 0.84856 0.36068 0.0
O90 O 0.0865 1.00725 0.36973 0.0
O91 O 0.02639 0.97393 0.36871 0.0
O92 O 0.13358 0.9214 0.36787 0.0
O93 O 0.12121 0.91389 0.32922 0.0
O94 O 0.04837 0.88887 0.36388 0.0
O95 O 0.08496 0.83914 0.3424 0.0
C96 C 0.10288 0.80676 0.28307 0.0
O97 O 0.12698 0.83284 0.29864 0.0
O98 O 0.06257 0.81936 0.27985 0.0
C99 C 0.99608 0.89651 0.3178 0.0
Tb100 Tb 0.70551 0.07044 0.30929 0.0
C101 C 0.60675 0.09251 0.29004 0.0
Tb102 Tb 0.64415 0.07789 0.34778 0.0
O103 O 0.70305 0.99795 0.30688 0.0
O104 O 0.65211 0.03437 0.31764 0.0
O105 O 0.64757 0.09272 0.28561 0.0
C106 C 0.60117 0.06696 0.38669 0.0
O107 O 0.59661 0.08402 0.31274 0.0
C108 C 0.68675 0.15091 0.3404 0.0
C109 C 0.73873 0.03984 0.36096 0.0
O110 O 0.58539 0.05885 0.36326 0.0
O111 O 0.64062 0.08159 0.38806 0.0
O112 O 0.64801 0.15035 0.34675 0.0
O113 O 0.69984 0.11225 0.34053 0.0
O114 O 0.69719 1.03309 0.3634 0.0
O115 O 0.74841 0.06707 0.3443 0.0
C116 C 0.75643 0.10946 0.28206 0.0
O117 O 0.76451 0.07163 0.29198 0.0
O118 O 0.71824 0.12262 0.2856 0.0
C119 C 0.66654 0.9962 0.31621 0.0
Tb120 Tb 0.43815 0.69584 0.30286 0.0
C121 C 0.42188 0.59404 0.29211 0.0
Tb122 Tb 0.45918 0.63629 0.34784 0.0
O123 O 0.50579 0.69295 0.29373 0.0
O124 O 0.47941 0.64443 0.31315 0.0
O125 O 0.41067 0.63418 0.28542 0.0
C126 C 0.49245 0.59083 0.38799 0.0
O127 O 0.44435 0.58736 0.31512 0.0
C128 C 0.3861 0.68257 0.34527 0.0
C129 C 0.49844 0.73449 0.34894 0.0
O130 O 0.45449 0.58445 0.37454 0.0
O131 O 0.51211 0.6222 0.37843 0.0
O132 O 0.39106 0.64536 0.35592 0.0
O133 O 0.42194 0.69227 0.33915 0.0
O134 O 0.50463 0.69391 0.35734 0.0
O135 O 0.46631 0.74356 0.33091 0.0
C136 C 0.3761 0.73766 0.27521 0.0
O137 O 0.41735 0.74844 0.27794 0.0
O138 O 0.37026 0.70254 0.28693 0.0
C139 C 0.51403 0.65789 0.3068 0.0
Tb140 Tb 0.9449 0.47467 0.32635 0.0
C141 C 0.85775 0.50328 0.29482 0.0
Tb142 Tb 0.86331 0.49498 0.35311 0.0
O143 O 0.91239 0.41293 0.31124 0.0
O144 O 0.89937 0.43925 0.34505 0.0
O145 O 0.90058 0.50318 0.29675 0.0
C146 C 0.78404 0.49662 0.36648 0.0
O147 O 0.83673 0.49391 0.31356 0.0
C148 C 0.9047 0.56799 0.3463 0.0
C149 C 0.95472 0.48394 0.386 0.0
O150 O 0.79579 0.47253 0.34834 0.0
O151 O 0.81856 0.51603 0.37866 0.0
O152 O 0.86976 0.56608 0.35659 0.0
O153 O 0.91294 0.52941 0.33963 0.0
O154 O 0.91169 0.47941 0.38493 0.0
O155 O 0.97496 0.48375 0.3657 0.0
C156 C 1.01128 0.47642 0.29904 0.0
O157 O 0.99538 0.44174 0.30776 0.0
O158 O 0.99178 0.51008 0.30735 0.0
C159 C 0.8884 0.40907 0.3288 0.0
Tb160 Tb 0.93105 0.38395 0.84668 0.0
C161 C 0.9423 0.47122 0.88048 0.0
Tb162 Tb 0.90807 0.47377 0.82191 0.0
O163 O 1.00052 0.39406 0.84656 0.0
O164 O 0.95644 0.42561 0.8217 0.0
O165 O 0.93341 0.42836 0.87965 0.0
C166 C 0.9239 0.53813 0.79129 0.0
O167 O 0.93626 0.49559 0.86015 0.0
C168 C 0.84199 0.43118 0.83703 0.0
C169 C 0.88053 0.38719 0.79191 0.0
O170 O 0.88597 0.52093 0.79271 0.0
O171 O 0.95167 0.52196 0.80894 0.0
O172 O 0.83725 0.46269 0.82114 0.0
O173 O 0.88182 0.43087 0.84627 0.0
O174 O 0.89605 0.42708 0.79059 0.0
O175 O 0.88802 0.36463 0.81255 0.0
C176 C 0.94181 0.30153 0.86145 0.0
O177 O 0.91663 0.31387 0.84159 0.0
O178 O 0.95872 0.33614 0.87379 0.0
C179 C 0.99629 0.42492 0.83077 0.0
Tb180 Tb 0.10525 0.95642 0.85411 0.0
C181 C 0.19997 0.99848 0.84681 0.0
Tb182 Tb 0.13306 0.96222 0.80386 0.0
O183 O 0.11885 0.88588 0.85595 0.0
O184 O 0.15417 0.92569 0.83619 0.0
O185 O 0.16841 0.9955 0.86147 0.0
C186 C 0.13229 0.94665 0.7554 0.0
O187 O 0.19527 0.98209 0.82347 0.0
C188 C 0.09736 1.03284 0.82103 0.0
C189 C 0.04655 0.92328 0.80422 0.0
O190 O 0.15923 0.92922 0.773 0.0
O191 O 0.10846 0.97523 0.76495 0.0
O192 O 0.12845 0.03401 0.80742 0.0
O193 O 0.0862 0.99396 0.82287 0.0
O194 O 0.0851 0.91051 0.80069 0.0
O195 O 0.04562 0.94796 0.82503 0.0
C196 C 0.07205 0.97398 0.89677 0.0
O197 O 0.06657 0.93794 0.88324 0.0
O198 O 0.09729 0.99973 0.88662 0.0
C199 C 0.14783 0.88655 0.84089 0.0
Tb200 Tb 0.56095 0.1328 0.84264 0.0
C201 C 0.53233 0.23215 0.84598 0.0
Tb202 Tb 0.53324 0.17945 0.79583 0.0
O203 O 0.63136 0.14485 0.84205 0.0
O204 O 0.58564 0.18696 0.82566 0.0
O205 O 0.53561 0.19456 0.85766 0.0
C206 C 0.54145 0.22153 0.75437 0.0
O207 O 0.53825 0.23426 0.82227 0.0
C208 C 0.46856 0.14017 0.81262 0.0
C209 C 0.5725 0.08724 0.79125 0.0
O210 O 0.51945 0.23463 0.77186 0.0
O211 O 0.55161 0.1813 0.75858 0.0
O212 O 0.4638 0.17351 0.79835 0.0
O213 O 0.50701 0.12646 0.81339 0.0
O214 O 0.57162 0.12707 0.78293 0.0
O215 O 0.56237 0.07967 0.81387 0.0
C216 C 0.55124 0.09592 0.88539 0.0
O217 O 0.5858 0.09229 0.87449 0.0
O218 O 0.52291 0.11979 0.8722 0.0
C219 C 0.62567 0.17893 0.82819 0.0
Tb220 Tb 0.35546 0.58251 0.85497 0.0
C221 C 0.44455 0.60481 0.8878 0.0
Tb222 Tb 0.436 0.5948 0.8282 0.0
O223 O 0.37936 0.52556 0.87461 0.0
O224 O 0.40128 0.54109 0.84072 0.0
O225 O 0.40178 0.6123 0.88533 0.0
C226 C 0.5025 0.59345 0.80034 0.0
O227 O 0.4655 0.59821 0.86797 0.0
C228 C 0.38012 0.66101 0.82875 0.0
C229 C 0.35331 0.54789 0.7984 0.0
O230 O 0.47061 0.62075 0.79889 0.0
O231 O 0.49875 0.56842 0.819 0.0
O232 O 0.40216 0.65242 0.81065 0.0
O233 O 0.39217 0.63508 0.84569 0.0
O234 O 0.39605 0.55248 0.80082 0.0
O235 O 0.33089 0.56091 0.8163 0.0
C236 C 0.2718 0.58941 0.86137 0.0
O237 O 0.28965 0.60715 0.84388 0.0
O238 O 0.30189 0.56972 0.87623 0.0
C239 C 0.40808 0.51751 0.85983 0.0
Tb240 Tb 0.98449 0.12112 0.59711 0.0
C241 C 1.01358 0.2231 0.60193 0.0
Tb242 Tb 1.00465 0.16839 0.64844 0.0
O243 O 0.91331 0.12989 0.59662 0.0
O244 O 0.95789 0.17242 0.61624 0.0
O245 O 1.00976 0.18618 0.58769 0.0
C246 C 0.97034 0.20123 0.68653 0.0
O247 O 1.00708 0.22405 0.62564 0.0
C248 C 0.07231 0.13564 0.63162 0.0
C249 C 0.97929 0.06822 0.64706 0.0
O250 O 1.00726 0.21447 0.68037 0.0
O251 O 0.95511 0.16824 0.67227 0.0
O252 O 0.0754 0.16731 0.64879 0.0
O253 O 0.03408 0.12018 0.62826 0.0
O254 O 0.9862 0.10537 0.66024 0.0
O255 O 0.98142 0.06491 0.62231 0.0
C256 C 0.99713 0.09126 0.55155 0.0
O257 O 0.96134 0.08643 0.56103 0.0
O258 O 0.02557 0.11177 0.56789 0.0
C259 C 0.91812 0.16327 0.61247 0.0
Tb260 Tb 0.41717 0.99048 0.57588 0.0
C261 C 0.32124 1.02839 0.56923 0.0
Tb262 Tb 0.36924 0.99824 0.62029 0.0
O263 O 0.41422 0.91795 0.57692 0.0
O264 O 0.36614 0.95586 0.58851 0.0
O265 O 0.35918 1.02879 0.56043 0.0
C266 C 0.30866 0.98543 0.64845 0.0
O267 O 0.31705 1.01163 0.59088 0.0
C268 C 0.42378 0.06354 0.61734 0.0
C269 C 0.46236 0.96604 0.63002 0.0
O270 O 0.31487 1.0218 0.63784 0.0
O271 O 0.33915 0.95803 0.64515 0.0
O272 O 0.4132 0.0504 0.63834 0.0
O273 O 0.40082 0.04293 0.59941 0.0
O274 O 0.42272 0.95717 0.63436 0.0
O275 O 0.46865 0.98482 0.60889 0.0
C276 C 0.45704 1.00242 0.53602 0.0
O277 O 0.47195 1.01522 0.55897 0.0
O278 O 0.41992 0.9826 0.53558 0.0
C279 C 0.37891 0.91732 0.58711 0.0
Tb280 Tb 0.62135 0.44267 0.60485 0.0
C281 C 0.5903 0.34539 0.61844 0.0
Tb282 Tb 0.63997 0.41046 0.65834 0.0
O283 O 0.69167 0.43409 0.60169 0.0
O284 O 0.66161 0.39545 0.62386 0.0
O285 O 0.58571 0.37792 0.602 0.0
C286 C 0.69401 0.39633 0.70017 0.0
O287 O 0.61468 0.34963 0.64094 0.0
C288 C 0.56022 0.4378 0.64393 0.0
C289 C 0.65232 0.50704 0.65219 0.0
O290 O 0.65756 0.41758 0.699 0.0
O291 O 0.69737 0.37941 0.67813 0.0
O292 O 0.56943 0.41031 0.66195 0.0
O293 O 0.59509 0.45157 0.63806 0.0
O294 O 0.67504 0.47219 0.65845 0.0
O295 O 0.62541 0.50317 0.63033 0.0
C296 C 0.59261 0.47264 0.55909 0.0
O297 O 0.62911 0.48325 0.5731 0.0
O298 O 0.57185 0.44503 0.57093 0.0
C299 C 0.69784 0.40319 0.61763 0.0
Tb300 Tb 0.19132 0.57346 0.5802 0.0
C301 C 0.10788 0.60883 0.5489 0.0
Tb302 Tb 0.11853 0.60235 0.6085 0.0
O303 O 0.15138 0.52253 0.5597 0.0
O304 O 0.14207 0.54082 0.59646 0.0
O305 O 0.15102 0.60604 0.55023 0.0
C306 C 0.05452 0.61092 0.63757 0.0
O307 O 0.08766 0.60728 0.56917 0.0
C308 C 0.1827 0.66071 0.6076 0.0
C309 C 0.19682 0.55364 0.63712 0.0
O310 O 0.09083 0.63267 0.64012 0.0
O311 O 0.05262 0.58621 0.61721 0.0
O312 O 0.15945 0.65819 0.62553 0.0
O313 O 0.16657 0.63416 0.59041 0.0
O314 O 0.15437 0.55894 0.6347 0.0
O315 O 0.21903 0.56464 0.61927 0.0
C316 C 0.27012 0.55118 0.56967 0.0
O317 O 0.25944 0.58972 0.57745 0.0
O318 O 0.23543 0.52688 0.56598 0.0
C319 C 0.12753 0.51703 0.57719 0.0
H320 H 0.76085 0.53515 0.0328 0.0
H321 H 1.01143 0.5297 0.08697 0.0
H322 H 0.80569 0.43021 0.0811 0.0
H323 H 0.93188 0.64395 0.09132 0.0
H324 H 0.94449 0.48554 0.07402 0.0
H325 H 0.83394 0.56738 0.04078 0.0
C326 C 0.7864 0.51813 0.04445 0.0
C327 C 0.77716 0.48029 0.05658 0.0
C328 C 0.94209 0.52026 0.07795 0.0
C329 C 0.86054 0.51705 0.06575 0.0
C330 C 0.98 0.54533 0.08542 0.0
C331 C 0.97708 0.59044 0.09034 0.0
C332 C 0.90156 0.54098 0.07461 0.0
C333 C 0.93568 0.60928 0.08785 0.0
C334 C 0.82791 0.53675 0.04915 0.0
C335 C 0.81156 0.45961 0.07152 0.0
N336 N 0.89964 0.58459 0.07983 0.0
N337 N 0.85189 0.47856 0.07596 0.0
H338 H 0.09776 0.82215 0.10746 0.0
H339 H 0.9018 0.99013 0.08876 0.0
H340 H 0.98044 0.79789 0.05484 0.0
H341 H 0.98322 0.97882 0.16036 0.0
H342 H 0.93881 0.92833 0.07199 0.0
H343 H 0.06566 0.88953 0.12232 0.0
C344 C 0.06577 0.83168 0.09853 0.0
C345 C 0.04169 0.80463 0.07979 0.0
C346 C 0.94883 0.93946 0.09133 0.0
C347 C 1.00487 0.88102 0.09686 0.0
C348 C 0.92785 0.97485 0.10091 0.0
C349 C 0.94026 0.99037 0.12579 0.0
C350 C 0.98279 0.91929 0.10669 0.0
C351 C 0.97336 0.96846 0.14091 0.0
C352 C 0.04731 0.86971 0.10728 0.0
C353 C 1.00011 0.818 0.0692 0.0
N354 N 0.9939 0.93416 0.13104 0.0
N355 N 0.98299 0.85526 0.07789 0.0
H356 H 0.56979 0.97927 0.1643 0.0
H357 H 0.76265 0.99428 0.08026 0.0
H358 H 0.56614 0.90673 0.09395 0.0
H359 H 0.74315 0.08789 0.1393 0.0
H360 H 0.69329 0.95854 0.0854 0.0
H361 H 0.63754 1.01495 0.15701 0.0
C362 C 0.58339 0.97069 0.14741 0.0
C363 C 0.56208 0.94037 0.1296 0.0
C364 C 0.70428 0.98709 0.09708 0.0
C365 C 0.63975 0.98086 0.12104 0.0
C366 C 0.74372 1.00768 0.094 0.0
C367 C 0.75927 0.04402 0.10946 0.0
C368 C 0.68048 1.00277 0.11586 0.0
C369 C 0.73319 0.05965 0.12711 0.0
C370 C 0.62194 0.99121 0.14313 0.0
C371 C 0.58122 0.93043 0.108 0.0
N372 N 0.69564 0.03884 0.12994 0.0
N373 N 0.6189 0.95049 0.10433 0.0
H374 H 0.50764 0.79799 0.05322 0.0
H375 H 0.56799 0.57232 0.11654 0.0
H376 H 0.45526 0.75668 0.11865 0.0
H377 H 0.58141 0.59576 0.03952 0.0
H378 H 0.52704 0.64032 0.11811 0.0
H379 H 0.53565 0.72433 0.04783 0.0
C380 C 0.50166 0.77343 0.06629 0.0
C381 C 0.47956 0.78375 0.08658 0.0
C382 C 0.53857 0.63028 0.10079 0.0
C383 C 0.51182 0.69975 0.0807 0.0
C384 C 0.56179 0.5915 0.09991 0.0
C385 C 0.5781 0.57871 0.07793 0.0
C386 C 0.53234 0.65648 0.07964 0.0
C387 C 0.56969 0.60484 0.05693 0.0
C388 C 0.5176 0.73139 0.0632 0.0
C389 C 0.47251 0.75047 0.10286 0.0
N390 N 0.54776 0.64275 0.05837 0.0
N391 N 0.48908 0.71014 0.09975 0.0
H392 H 0.97402 0.98057 0.32487 0.0
H393 H 0.73836 0.95057 0.3558 0.0
H394 H 0.92702 0.8497 0.33162 0.0
H395 H 0.82058 0.06079 0.38267 0.0
H396 H 0.8032 0.9095 0.34796 0.0
H397 H 0.91354 1.00907 0.34416 0.0
C398 C 0.95096 0.95771 0.33056 0.0
C399 C 0.95635 0.91264 0.32731 0.0
C400 C 0.80715 0.9421 0.35645 0.0
C401 C 0.88577 0.94531 0.34902 0.0
C402 C 0.77018 0.96533 0.3613 0.0
C403 C 0.77403 1.00933 0.36962 0.0
C404 C 0.8479 0.9634 0.3599 0.0
C405 C 0.8161 1.02699 0.37618 0.0
C406 C 0.91645 0.97405 0.34171 0.0
C407 C 0.92445 0.88471 0.33421 0.0
N408 N 0.85116 1.00449 0.37055 0.0
N409 N 0.89027 0.9015 0.34469 0.0
H410 H 0.58877 0.99218 0.33326 0.0
H411 H 0.58799 0.73373 0.35256 0.0
H412 H 0.6947 0.91033 0.31792 0.0
H413 H 0.48021 0.81886 0.35919 0.0
H414 H 0.63314 0.79796 0.34686 0.0
H415 H 0.5536 0.92953 0.3485 0.0
C416 C 0.6049 0.96101 0.33332 0.0
C417 C 0.64505 0.95683 0.32457 0.0
C418 C 0.59989 0.80261 0.35013 0.0
C419 C 0.60431 0.8838 0.34178 0.0
C420 C 0.5743 0.76596 0.35372 0.0
C421 C 0.53016 0.77085 0.35616 0.0
C422 C 0.58119 0.84442 0.34929 0.0
C423 C 0.51408 0.81348 0.35741 0.0
C424 C 0.58467 0.92501 0.34198 0.0
C425 C 0.66381 0.91514 0.32458 0.0
N426 N 0.53927 0.84832 0.35368 0.0
N427 N 0.64328 0.88023 0.33301 0.0
H428 H 0.52242 0.57108 0.30989 0.0
H429 H 0.76377 0.57833 0.38251 0.0
H430 H 0.59869 0.68969 0.31725 0.0
H431 H 0.70744 0.46284 0.34197 0.0
H432 H 0.69854 0.61914 0.36624 0.0
H433 H 0.58625 0.53072 0.32711 0.0
C434 C 0.5528 0.58865 0.31499 0.0
C435 C 0.55511 0.6339 0.31247 0.0
C436 C 0.70033 0.58474 0.36123 0.0
C437 C 0.6285 0.58785 0.33286 0.0
C438 C 0.73708 0.56117 0.37087 0.0
C439 C 0.74083 0.51702 0.36364 0.0
C440 C 0.66691 0.56373 0.34465 0.0
C441 C 0.70565 0.4967 0.34814 0.0
C442 C 0.58926 0.56552 0.32489 0.0
C443 C 0.59554 0.65488 0.31915 0.0
N444 N 0.67017 0.52026 0.33909 0.0
N445 N 0.63078 0.63172 0.32947 0.0
H446 H 0.98056 0.83771 0.37236 0.0
H447 H 0.99436 0.57791 0.34903 0.0
H448 H 0.1015 0.77045 0.37018 0.0
H449 H 0.87526 0.64956 0.34902 0.0
H450 H 0.03572 0.64676 0.35967 0.0
H451 H 0.9428 0.76709 0.37006 0.0
C452 C 0.99941 0.80811 0.3724 0.0
C453 C 0.04403 0.80999 0.37103 0.0
C454 C 1.00049 0.64731 0.35719 0.0
C455 C 1.00107 0.72896 0.36748 0.0
C456 C 0.97701 0.60817 0.35071 0.0
C457 C 0.93141 0.60825 0.34786 0.0
C458 C 0.97804 0.6864 0.36087 0.0
C459 C 0.91044 0.64813 0.35092 0.0
C460 C 0.97778 0.76767 0.3706 0.0
C461 C 0.06687 0.77041 0.37102 0.0
N462 N 0.93379 0.68539 0.35728 0.0
N463 N 0.04507 0.73157 0.36867 0.0
H464 H 0.02788 0.47487 0.7955 0.0
H465 H 0.22816 0.55459 0.89649 0.0
H466 H 0.03596 0.45855 0.87525 0.0
H467 H 0.20887 0.60058 0.82094 0.0
H468 H 0.154 0.5249 0.8894 0.0
H469 H 0.08996 0.52657 0.80403 0.0
C470 C 0.04199 0.48301 0.81476 0.0
C471 C 0.02689 0.46247 0.83469 0.0
C472 C 0.16559 0.54213 0.87445 0.0
C473 C 0.09803 0.52035 0.8446 0.0
C474 C 0.20792 0.55924 0.87859 0.0
C475 C 0.22465 0.57994 0.8593 0.0
C476 C 0.14007 0.54482 0.85062 0.0
C477 C 0.19711 0.58487 0.83636 0.0
C478 C 0.07747 0.51229 0.81965 0.0
C479 C 0.04664 0.47359 0.85931 0.0
N480 N 0.15644 0.56671 0.83247 0.0
N481 N 0.08131 0.50129 0.86352 0.0
H482 H 0.02362 0.28138 0.88347 0.0
H483 H 1.01666 1.03343 0.83485 0.0
H484 H 0.9068 0.22377 0.84148 0.0
H485 H 0.12603 0.11764 0.82907 0.0
H486 H 0.9774 0.09638 0.84923 0.0
H487 H 0.06272 0.21376 0.87637 0.0
C488 C 1.00584 0.254 0.87347 0.0
C489 C 0.96189 0.25801 0.86305 0.0
C490 C 1.01006 0.10092 0.84493 0.0
C491 C 1.00638 0.18104 0.85491 0.0
C492 C 0.03248 0.06516 0.83672 0.0
C493 C 0.07441 0.07059 0.83045 0.0
C494 C 0.0302 0.14213 0.84759 0.0
C495 C 0.09354 0.1123 0.83343 0.0
C496 C 0.02832 0.21575 0.86918 0.0
C497 C 0.94063 0.22183 0.84988 0.0
N498 N 0.07133 0.14657 0.84193 0.0
N499 N 0.9631 0.18476 0.84614 0.0
H500 H 0.21495 0.08608 0.85363 0.0
H501 H 0.46591 0.06008 0.83455 0.0
H502 H 0.2802 0.96253 0.85484 0.0
H503 H 0.38907 0.17437 0.81624 0.0
H504 H 0.40349 1.02731 0.85073 0.0
H505 H 0.28413 0.12278 0.85005 0.0
C506 C 0.24431 0.0669 0.85443 0.0
C507 C 0.24204 1.0213 0.85517 0.0
C508 C 0.40044 0.0597 0.84332 0.0
C509 C 0.32106 0.06274 0.84984 0.0
C510 C 0.43606 0.07836 0.83407 0.0
C511 C 0.43254 0.11981 0.82373 0.0
C512 C 0.36118 0.08286 0.84249 0.0
C513 C 0.39311 0.14213 0.82375 0.0
C514 C 0.28368 0.08773 0.85185 0.0
C515 C 0.28079 0.99785 0.85492 0.0
N516 N 0.35911 0.12342 0.83286 0.0
N517 N 0.31851 1.01869 0.85204 0.0
H518 H 0.47615 0.25419 0.87911 0.0
H519 H 0.46674 0.48855 0.82968 0.0
H520 H 0.57783 0.30546 0.84168 0.0
H521 H 0.41486 0.46101 0.89753 0.0
H522 H 0.50892 0.42114 0.8343 0.0
H523 H 0.45464 0.32941 0.88853 0.0
C524 C 0.49488 0.28126 0.87376 0.0
C525 C 0.52815 0.27403 0.8593 0.0
C526 C 0.48878 0.4303 0.84838 0.0
C527 C 0.50327 0.35904 0.86908 0.0
C528 C 0.46469 0.46858 0.84565 0.0
C529 C 0.43699 0.4798 0.86301 0.0
C530 C 0.48423 0.40296 0.86831 0.0
C531 C 0.43543 0.45301 0.88349 0.0
C532 C 0.48249 0.32406 0.8789 0.0
C533 C 0.55136 0.30998 0.8525 0.0
N534 N 0.4581 0.41532 0.88534 0.0
N535 N 0.53782 0.35101 0.85691 0.0
H536 H 0.07661 0.06133 0.60264 0.0
H537 H 0.31253 0.11601 0.5713 0.0
H538 H 0.14549 0.18182 0.6257 0.0
H539 H 0.24253 0.99672 0.5476 0.0
H540 H 0.24559 0.14785 0.58237 0.0
H541 H 0.13193 0.04232 0.57625 0.0
C542 C 0.10341 0.08383 0.60208 0.0
C543 C 0.10653 0.12317 0.61636 0.0
C544 C 0.24435 0.11523 0.57387 0.0
C545 C 0.1702 0.10169 0.58619 0.0
C546 C 0.28241 0.09746 0.56683 0.0
C547 C 0.28317 0.05353 0.55867 0.0
C548 C 0.2069 0.08879 0.57257 0.0
C549 C 0.24333 1.03075 0.55382 0.0
C550 C 0.1349 0.0731 0.58691 0.0
C551 C 0.14204 0.15101 0.61508 0.0
N552 N 0.20713 0.04807 0.56158 0.0
N553 N 0.17258 0.13967 0.60036 0.0
H554 H 0.51653 0.32222 0.58391 0.0
H555 H 0.48528 0.10138 0.65281 0.0
H556 H 0.61324 0.26918 0.64057 0.0
H557 H 0.4218 0.11644 0.5768 0.0
H558 H 0.52694 0.16838 0.64994 0.0
H559 H 0.4765 0.25174 0.58117 0.0
C560 C 0.52971 0.29579 0.59543 0.0
C561 C 0.56809 0.30208 0.61273 0.0
C562 C 0.50405 0.15706 0.6338 0.0
C563 C 0.52221 0.22213 0.61009 0.0
C564 C 0.48018 0.11884 0.63548 0.0
C565 C 0.45013 0.10333 0.61504 0.0
C566 C 0.49739 0.1807 0.61164 0.0
C567 C 0.44487 0.12728 0.59298 0.0
C568 C 0.50678 0.25569 0.59396 0.0
C569 C 0.58345 0.26654 0.62728 0.0
N570 N 0.46794 0.16507 0.59191 0.0
N571 N 0.56033 0.22867 0.62585 0.0
H572 H 0.29207 0.46558 0.57317 0.0
H573 H 0.54439 0.50874 0.61564 0.0
H574 H 0.34802 0.59526 0.58041 0.0
H575 H 0.47826 0.40263 0.6451 0.0
H576 H 0.47499 0.53518 0.59525 0.0
H577 H 0.36265 0.43636 0.59129 0.0
C578 C 0.31949 0.48782 0.57799 0.0
C579 C 0.3143 0.53298 0.57518 0.0
C580 C 0.47555 0.50624 0.60625 0.0
C581 C 0.39478 0.49965 0.59605 0.0
C582 C 0.51523 0.49101 0.618 0.0
C583 C 0.51717 0.45364 0.63245 0.0
C584 C 0.43725 0.48351 0.60839 0.0
C585 C 0.47811 0.43185 0.6344 0.0
C586 C 0.3595 0.47111 0.58864 0.0
C587 C 0.35073 0.56027 0.58209 0.0
N588 N 0.43957 0.44698 0.62232 0.0
N589 N 0.38951 0.54316 0.59219 0.0
H590 H 0.08119 0.49087 0.61369 0.0
H591 H 0.06146 0.24428 0.56448 0.0
H592 H 0.11564 0.45134 0.54152 0.0
H593 H 0.98174 0.29996 0.61643 0.0
H594 H 0.08271 0.31884 0.55503 0.0
H595 H 0.04575 0.41965 0.61541 0.0
C596 C 0.08085 0.46739 0.59813 0.0
C597 C 0.10157 0.47678 0.57758 0.0
C598 C 0.06 0.31448 0.56819 0.0
C599 C 0.06199 0.39526 0.57949 0.0
C600 C 0.04777 0.27206 0.57343 0.0
C601 C 0.02051 0.26602 0.59156 0.0
C602 C 0.045 0.35052 0.58136 0.0
C603 C 1.00369 0.30308 0.60273 0.0
C604 C 0.06067 0.4268 0.59906 0.0
C605 C 0.10023 0.44524 0.55783 0.0
N606 N 1.01669 0.3436 0.59776 0.0
N607 N 0.08137 0.40561 0.55943 0.0
H608 H 0.07187 0.60848 0.18063 0.0
H609 H 0.18407 0.78979 0.27259 0.0
H610 H 0.1493 0.7179 0.16396 0.0
H611 H 0.05763 0.73146 0.27296 0.0
H612 H 0.20315 0.72755 0.24659 0.0
H613 H 0.09964 0.62051 0.22535 0.0
C614 C 0.09473 0.63502 0.18646 0.0
C615 C 0.10633 0.66415 0.16905 0.0
C616 C 0.172 0.72759 0.25334 0.0
C617 C 0.13933 0.67649 0.21943 0.0
C618 C 0.16087 0.76323 0.26767 0.0
C619 C 0.11826 0.76644 0.27296 0.0
C620 C 0.13993 0.69608 0.24447 0.0
C621 C 0.08985 0.73091 0.26756 0.0
C622 C 0.11137 0.641 0.21175 0.0
C623 C 0.13758 0.69652 0.17712 0.0
N624 N 0.10094 0.69719 0.25308 0.0
N625 N 0.15255 0.70232 0.20191 0.0
H626 H 0.74364 0.19073 0.26452 0.0
H627 H 0.94825 0.15011 0.22469 0.0
H628 H 0.84434 0.10021 0.2913 0.0
H629 H 0.85114 0.23892 0.19154 0.0
H630 H 0.93916 0.17942 0.26623 0.0
H631 H 0.79917 0.24229 0.25614 0.0
C632 C 0.77759 0.18163 0.26841 0.0
C633 C 0.78963 0.14006 0.27676 0.0
C634 C 0.92065 0.19371 0.24989 0.0
C635 C 0.8532 0.19904 0.26779 0.0
C636 C 0.92559 0.17648 0.22626 0.0
C637 C 0.89729 0.18959 0.20528 0.0
C638 C 0.88293 0.21795 0.25193 0.0
C639 C 0.87082 0.22562 0.20778 0.0
C640 C 0.80929 0.21146 0.26423 0.0
C641 C 0.83378 0.13089 0.2832 0.0
N642 N 0.86324 0.23823 0.23113 0.0
N643 N 0.86402 0.15987 0.27816 0.0
H644 H 0.35212 0.92474 0.19577 0.0
H645 H 0.3042 0.70981 0.24318 0.0
H646 H 0.32744 0.80157 0.15488 0.0
H647 H 0.36554 0.82437 0.2818 0.0
H648 H 0.25879 0.75663 0.21415 0.0
H649 H 0.30116 0.90384 0.22374 0.0
C650 C 0.33569 0.89334 0.19265 0.0
C651 C 0.34664 0.86297 0.17466 0.0
C652 C 0.28078 0.77163 0.22967 0.0
C653 C 0.29003 0.83865 0.20677 0.0
C654 C 0.30712 0.74494 0.24588 0.0
C655 C 0.34074 0.76387 0.26312 0.0
C656 C 0.28981 0.81672 0.23064 0.0
C657 C 0.34199 0.809 0.26719 0.0
C658 C 0.30581 0.88185 0.20818 0.0
C659 C 0.32223 0.82436 0.16996 0.0
N660 N 0.31719 0.83419 0.25073 0.0
N661 N 0.29582 0.81254 0.1865 0.0
H662 H 0.64657 0.5268 0.17617 0.0
H663 H 0.8871 0.51314 0.24997 0.0
H664 H 0.75928 0.49442 0.14104 0.0
H665 H 0.77079 0.51947 0.28512 0.0
H666 H 0.84284 0.5251 0.20946 0.0
H667 H 0.69432 0.54343 0.21548 0.0
C668 C 0.6814 0.5235 0.17666 0.0
C669 C 0.69902 0.50816 0.15554 0.0
C670 C 0.82717 0.52433 0.22612 0.0
C671 C 0.75356 0.52703 0.20035 0.0
C672 C 0.85233 0.51742 0.24921 0.0
C673 C 0.83233 0.51426 0.27077 0.0
C674 C 0.78191 0.52806 0.22473 0.0
C675 C 0.78736 0.52067 0.26883 0.0
C676 C 0.7086 0.53313 0.19909 0.0
C677 C 0.74435 0.50538 0.15707 0.0
N678 N 0.76352 0.52682 0.24609 0.0
N679 N 0.77014 0.51414 0.17929 0.0
H680 H 0.8995 0.17516 0.70587 0.0
H681 H 0.86892 0.41723 0.74411 0.0
H682 H 0.97117 0.28931 0.69033 0.0
H683 H 0.83862 0.30794 0.78701 0.0
H684 H 0.86154 0.36949 0.70659 0.0
H685 H 0.84334 0.22259 0.7195 0.0
C686 C 0.90355 0.21027 0.70569 0.0
C687 C 0.94079 0.22878 0.69834 0.0
C688 C 0.85488 0.35635 0.72406 0.0
C689 C 0.87603 0.28237 0.71209 0.0
C690 C 0.85952 0.38345 0.74553 0.0
C691 C 0.85862 0.36513 0.76891 0.0
C692 C 0.85116 0.31121 0.72669 0.0
C693 C 0.8433 0.32223 0.76949 0.0
C694 C 0.87108 0.23703 0.71271 0.0
C695 C 0.94391 0.27403 0.69715 0.0
N696 N 0.8417 0.2959 0.74867 0.0
N697 N 0.91202 0.29939 0.7042 0.0
H698 H 0.23484 1.03348 0.64657 0.0
H699 H 0.15899 0.87321 0.73297 0.0
H700 H 0.28602 0.90467 0.66066 0.0
H701 H 0.09948 0.99776 0.71708 0.0
H702 H 0.17734 0.86843 0.69057 0.0
H703 H 0.16477 1.00897 0.65664 0.0
C704 C 0.23128 1.00013 0.652 0.0
C705 C 0.26667 0.97171 0.65449 0.0
C706 C 0.15931 0.89645 0.69602 0.0
C707 C 0.18701 0.94325 0.66546 0.0
C708 C 0.1492 0.8992 0.72027 0.0
C709 C 0.13077 0.93735 0.72867 0.0
C710 C 0.15372 0.93353 0.68128 0.0
C711 C 0.11619 0.96898 0.71143 0.0
C712 C 0.19111 0.98583 0.65718 0.0
C713 C 0.26003 0.92822 0.65998 0.0
N714 N 0.12954 0.96727 0.68861 0.0
N715 N 0.22114 0.9155 0.66576 0.0
H716 H 0.54683 0.30948 0.7616 0.0
H717 H 0.75057 0.32784 0.70718 0.0
H718 H 0.61511 0.19859 0.73549 0.0
H719 H 0.69753 0.43178 0.7483 0.0
H720 H 0.72767 0.27592 0.73561 0.0
H721 H 0.61411 0.35144 0.76724 0.0
C722 C 0.57578 0.29436 0.75632 0.0
C723 C 0.57532 0.25058 0.74797 0.0
C724 C 0.72248 0.31032 0.73926 0.0
C725 C 0.6532 0.29793 0.75525 0.0
C726 C 0.73622 0.34021 0.72315 0.0
C727 C 0.7195 0.38249 0.72359 0.0
C728 C 0.6927 0.32463 0.75501 0.0
C729 C 0.70586 0.39779 0.74585 0.0
C730 C 0.61461 0.31788 0.76032 0.0
C731 C 0.61395 0.23245 0.74178 0.0
N732 N 0.68991 0.36824 0.76026 0.0
N733 N 0.6514 0.25622 0.74559 0.0
H734 H 0.28142 0.5272 0.64585 0.0
H735 H 0.26758 0.52347 0.7886 0.0
H736 H 0.16172 0.52806 0.67771 0.0
H737 H 0.38746 0.51988 0.75692 0.0
H738 H 0.22811 0.4993 0.74794 0.0
H739 H 0.31931 0.49953 0.68492 0.0
C740 C 0.26307 0.52126 0.66101 0.0
C741 C 0.21888 0.53175 0.65908 0.0
C742 C 0.26318 0.50296 0.74999 0.0
C743 C 0.26181 0.50027 0.70363 0.0
C744 C 0.28567 0.51706 0.77316 0.0
C745 C 0.33048 0.52561 0.7757 0.0
C746 C 0.28566 0.49851 0.72927 0.0
C747 C 0.35259 0.51523 0.75545 0.0
C748 C 0.28459 0.50504 0.68322 0.0
C749 C 0.19623 0.52187 0.67882 0.0
N750 N 0.32974 0.50324 0.73283 0.0
N751 N 0.21821 0.50755 0.70055 0.0
H752 H 0.16978 0.73157 0.11603 0.0
H753 H 0.37242 0.81699 0.05406 0.0
H754 H 0.24101 0.64927 0.07025 0.0
H755 H 0.31677 0.89245 0.11021 0.0
H756 H 0.32239 0.75694 0.05829 0.0
H757 H 0.2207 0.79155 0.11286 0.0
C758 C 0.19603 0.72612 0.10515 0.0
C759 C 0.20077 0.68525 0.09316 0.0
C760 C 0.32097 0.78652 0.06973 0.0
C761 C 0.25966 0.75432 0.0895 0.0
C762 C 0.34946 0.82106 0.06725 0.0
C763 C 0.34898 0.85995 0.08187 0.0
C764 C 0.29096 0.79074 0.08674 0.0
C765 C 0.31848 0.86306 0.09865 0.0
C766 C 0.22529 0.76046 0.10348 0.0
C767 C 0.23596 0.68014 0.07974 0.0
N768 N 0.29068 0.82901 0.10059 0.0
N769 N 0.2638 0.71424 0.07815 0.0
H770 H 0.84593 0.23196 0.06396 0.0
H771 H 0.66749 0.34208 0.13971 0.0
H772 H 0.81352 0.18401 0.13321 0.0
H773 H 0.6744 0.36829 0.06229 0.0
H774 H 0.72668 0.28971 0.13932 0.0
H775 H 0.78988 0.28828 0.06486 0.0
C776 C 0.82755 0.23366 0.07954 0.0
C777 C 0.83479 0.20332 0.09864 0.0
C778 C 0.7154 0.30693 0.12239 0.0
C779 C 0.77032 0.26756 0.09972 0.0
C780 C 0.6815 0.33685 0.1226 0.0
C781 C 0.66607 0.35988 0.10105 0.0
C782 C 0.73446 0.29992 0.10049 0.0
C783 C 0.68556 0.35162 0.07942 0.0
C784 C 0.79533 0.26563 0.07996 0.0
C785 C 0.80957 0.2069 0.11823 0.0
N786 N 0.7188 0.32252 0.07971 0.0
N787 N 0.77864 0.23826 0.11825 0.0
H788 H 0.38041 0.76394 0.32665 0.0
H789 H 0.17062 0.84208 0.38288 0.0
H790 H 0.30947 0.674 0.36549 0.0
H791 H 0.20379 0.89147 0.3142 0.0
H792 H 0.22678 0.78574 0.38193 0.0
H793 H 0.32161 0.81626 0.3267 0.0
C794 C 0.3522 0.75489 0.33496 0.0
C795 C 0.34956 0.71391 0.34555 0.0
C796 C 0.2217 0.80891 0.36709 0.0
C797 C 0.28252 0.77505 0.34669 0.0
C798 C 0.19 0.84126 0.36773 0.0
C799 C 0.18267 0.87148 0.34859 0.0
C800 C 0.24709 0.8076 0.34755 0.0
C801 C 0.20841 0.86877 0.3293 0.0
C802 C 0.31867 0.78501 0.33509 0.0
C803 C 0.31267 0.70492 0.35683 0.0
N804 N 0.23966 0.8377 0.32937 0.0
N805 N 0.28071 0.73539 0.3573 0.0
H806 H 0.87956 0.33245 0.3008 0.0
H807 H 0.66883 0.23825 0.34871 0.0
H808 H 0.82904 0.3989 0.362 0.0
H809 H 0.77049 0.1536 0.33006 0.0
H810 H 0.71752 0.30163 0.34689 0.0
H811 H 0.8311 0.27041 0.30442 0.0
C812 C 0.85788 0.33434 0.31479 0.0
C813 C 0.85813 0.37151 0.33088 0.0
C814 C 0.72895 0.26912 0.34307 0.0
C815 C 0.8011 0.30055 0.33446 0.0
C816 C 0.70114 0.23292 0.344 0.0
C817 C 0.71515 0.19032 0.33908 0.0
C818 C 0.77081 0.26292 0.33657 0.0
C819 C 0.7577 0.18567 0.33336 0.0
C820 C 0.83016 0.29879 0.3168 0.0
C821 C 0.82942 0.37151 0.34883 0.0
N822 N 0.78364 0.2213 0.33195 0.0
N823 N 0.80171 0.33696 0.34991 0.0
H824 H 0.61452 0.25868 0.80714 0.0
H825 H 0.85135 0.35597 0.86398 0.0
H826 H 0.71317 0.18089 0.84904 0.0
H827 H 0.76031 0.42104 0.80956 0.0
H828 H 0.80078 0.29327 0.86101 0.0
H829 H 0.6663 0.31971 0.81037 0.0
C830 C 0.64727 0.25413 0.81674 0.0
C831 C 0.65924 0.21426 0.82779 0.0
C832 C 0.79178 0.3213 0.84977 0.0
C833 C 0.71957 0.28462 0.83122 0.0
C834 C 0.82063 0.35724 0.85153 0.0
C835 C 0.8102 0.39409 0.83705 0.0
C836 C 0.75172 0.32217 0.83362 0.0
C837 C 0.7698 0.39366 0.82123 0.0
C838 C 0.67697 0.28912 0.81851 0.0
C839 C 0.70236 0.21078 0.84009 0.0
N840 N 0.74222 0.35855 0.82 0.0
N841 N 0.73082 0.2454 0.84153 0.0
H842 H 0.34891 0.71883 0.79255 0.0
H843 H 0.15805 0.80891 0.86493 0.0
H844 H 0.33308 0.67965 0.86677 0.0
H845 H 0.21004 0.88387 0.80985 0.0
H846 H 0.21411 0.75368 0.86142 0.0
H847 H 0.29096 0.77289 0.79442 0.0
C848 C 0.33318 0.7215 0.80919 0.0
C849 C 0.3456 0.69439 0.82944 0.0
C850 C 0.21309 0.78213 0.85001 0.0
C851 C 0.27892 0.75565 0.83156 0.0
C852 C 0.18095 0.81354 0.85191 0.0
C853 C 0.17932 0.85109 0.83766 0.0
C854 C 0.24347 0.78786 0.83343 0.0
C855 C 0.21003 0.85541 0.82115 0.0
C856 C 0.30015 0.75233 0.81025 0.0
C857 C 0.32424 0.69949 0.8506 0.0
N858 N 0.24069 0.82419 0.81942 0.0
N859 N 0.29179 0.72913 0.85102 0.0
H860 H 0.82893 0.15704 0.59857 0.0
H861 H 0.78493 0.4116 0.61266 0.0
H862 H 0.93004 0.2459 0.63336 0.0
H863 H 0.68749 0.31598 0.62287 0.0
H864 H 0.83872 0.35237 0.61301 0.0
H865 H 0.77551 0.2158 0.6006 0.0
C866 C 0.83991 0.18872 0.6067 0.0
C867 C 0.88419 0.19651 0.61557 0.0
C868 C 0.80549 0.34458 0.6152 0.0
C869 C 0.82357 0.26415 0.61728 0.0
C870 C 0.77486 0.3783 0.61493 0.0
C871 C 0.73171 0.36886 0.61784 0.0
C872 C 0.79248 0.30105 0.61765 0.0
C873 C 0.72042 0.32497 0.62072 0.0
C874 C 0.80948 0.22225 0.6078 0.0
C875 C 0.89647 0.23838 0.62595 0.0
N876 N 0.75036 0.29279 0.62027 0.0
N877 N 0.86656 0.27068 0.6262 0.0
H878 H 0.30206 0.91577 0.60591 0.0
H879 H 0.23447 0.67021 0.57076 0.0
H880 H 0.39246 0.83001 0.57572 0.0
H881 H 0.20156 0.73424 0.63789 0.0
H882 H 0.28513 0.73061 0.56667 0.0
H883 H 0.25723 0.8526 0.61233 0.0
C884 C 0.31295 0.88359 0.601 0.0
C885 C 0.35189 0.87829 0.59091 0.0
C886 C 0.26703 0.7312 0.58237 0.0
C887 C 0.29904 0.80555 0.59698 0.0
C888 C 0.23817 0.69669 0.58478 0.0
C889 C 0.21407 0.69673 0.60491 0.0
C890 C 0.27082 0.76683 0.59975 0.0
C891 C 0.21958 0.73258 0.62216 0.0
C892 C 0.28704 0.84751 0.60449 0.0
C893 C 0.36306 0.83567 0.58386 0.0
N894 N 0.24686 0.76631 0.61902 0.0
N895 N 0.33658 0.801 0.58678 0.0
H896 H 0.96744 0.43147 0.92497 0.0
H897 H 0.05976 0.64697 0.00306 0.0
H898 H 0.96507 0.55756 0.89157 0.0
H899 H 0.08624 0.51601 0.02772 0.0
H900 H 0.02438 0.61647 0.96236 0.0
H901 H 1.00765 0.46369 0.96358 0.0
C902 C 0.97489 0.46608 0.92578 0.0
C903 C 0.96251 0.4918 0.90489 0.0
C904 C 0.03842 0.59451 -0.02338 0.0
C905 C 1.00939 0.52897 0.94928 0.0
C906 C 0.05892 0.61189 -0.00016 0.0
C907 C 0.07586 0.5841 0.01904 0.0
C908 C 0.03447 0.54903 -0.02735 0.0
C909 C 0.07353 0.53888 0.01366 0.0
C910 C 0.99829 0.48441 0.94784 0.0
C911 C 0.97366 0.53644 0.90719 0.0
N912 N 0.05281 0.52285 -0.00885 0.0
N913 N 0.99641 0.55362 0.92898 0.0
H914 H 0.08072 0.04888 0.92617 0.0
H915 H 0.89925 0.98575 0.01153 0.0
H916 H 1.01194 0.9256 0.91687 0.0
H917 H 0.98257 0.09968 0.02428 0.0
H918 H 0.93601 0.96395 -0.0246 0.0
H919 H 0.04164 0.06887 0.96103 0.0
C920 C 0.05752 1.0259 0.93157 0.0
C921 C 0.04979 0.98545 0.91868 0.0
C922 C 0.94603 0.99379 -0.01389 0.0
C923 C 1.00427 1.00823 0.95859 0.0
C924 C 0.9249 1.00629 0.00662 0.0
C925 C 0.93781 0.04459 0.02092 0.0
C926 C 0.98001 1.01998 -0.02013 0.0
C927 C 0.97151 0.06985 0.01385 0.0
C928 C 0.03506 0.03733 0.95148 0.0
C929 C 0.01905 0.95706 0.92641 0.0
N930 N 0.99127 0.05717 -0.00604 0.0
N931 N 0.99735 0.96899 0.94581 0.0
H932 H 0.48095 0.10719 0.90861 0.0
H933 H 0.56047 0.95279 0.02235 0.0
H934 H 0.60572 0.04374 0.91644 0.0
H935 H 0.44668 0.03404 0.0171 0.0
H936 H 0.57887 0.98446 -0.01608 0.0
H937 H 0.46835 0.07865 0.94835 0.0
C938 C 0.50578 0.08715 0.91878 0.0
C939 C 0.54443 0.07773 0.90934 0.0
C940 C 0.55008 0.99549 -0.00868 0.0
C941 C 0.53025 0.0448 0.955 0.0
C942 C 0.53962 0.97751 0.01318 0.0
C943 C 0.50191 0.99077 0.02267 0.0
C944 C 0.5224 1.02664 -0.02099 0.0
C945 C 0.47594 1.02282 0.01028 0.0
C946 C 0.49862 0.07093 0.94155 0.0
C947 C 0.57548 0.05162 0.92321 0.0
N948 N 0.48655 0.03947 -0.01098 0.0
N949 N 0.56767 0.03584 0.94545 0.0
H950 H 0.48603 0.50231 0.03767 0.0
H951 H 0.52368 0.56506 0.89921 0.0
H952 H 0.58447 0.44485 -0.00162 0.0
H953 H 0.41365 0.60996 0.93316 0.0
H954 H 0.54923 0.52551 0.93699 0.0
H955 H 0.45925 0.54286 0.00024 0.0
C956 C 0.50134 0.49721 0.02101 0.0
C957 C 0.53765 0.46988 0.02132 0.0
C958 C 0.51973 0.5444 0.93631 0.0
C959 C 0.5079 0.51757 -0.02144 0.0
C960 C 0.50539 0.56766 0.91481 0.0
C961 C 0.46631 0.59109 0.91282 0.0
C962 C 0.49504 0.54453 0.95616 0.0
C963 C 0.44395 0.59246 0.93373 0.0
C964 C 0.48636 0.52094 -0.00028 0.0
C965 C 0.55644 0.46543 -0.00084 0.0
N966 N 0.45843 0.56928 0.9544 0.0
N967 N 0.54166 0.48928 -0.02114 0.0
H968 H 0.93757 0.0574 0.51295 0.0
H969 H 0.10529 0.05612 0.41319 0.0
H970 H 0.07083 0.10217 0.53079 0.0
H971 H 0.97223 1.01059 0.39593 0.0
H972 H 0.09138 0.08051 0.45516 0.0
H973 H 0.9483 0.04449 0.46911 0.0
C974 C 0.96912 0.06424 0.50762 0.0
C975 C 1.00341 0.08061 0.52543 0.0
C976 C 0.06505 0.06575 0.44205 0.0
C977 C 1.0159 0.06654 0.4754 0.0
C978 C 0.0729 0.0523 0.41803 0.0
C979 C 0.03992 1.03118 0.40122 0.0
C980 C 0.024 0.05784 0.44918 0.0
C981 C 0.99862 1.02657 0.40845 0.0
C982 C 0.97521 0.05717 0.4826 0.0
C983 C 0.04358 0.08934 0.51758 0.0
N984 N 0.99195 0.03933 0.43196 0.0
N985 N 0.04875 0.08214 0.49316 0.0
H986 H 0.42597 0.98176 0.48685 0.0
H987 H 0.63299 0.08299 0.43597 0.0
H988 H 0.53523 0.04242 0.53472 0.0
H989 H 0.52018 1.03139 0.38707 0.0
H990 H 0.59803 0.06689 0.47235 0.0
H991 H 0.46034 0.99777 0.45006 0.0
C992 C 0.45729 0.99834 0.48958 0.0
C993 C 0.4779 1.0108 0.51379 0.0
C994 C 0.58077 0.05918 0.4537 0.0
C995 C 0.51732 1.02928 0.4719 0.0
C996 C 0.6007 0.06842 0.43292 0.0
C997 C 0.57931 0.05859 0.40854 0.0
C998 C 0.53912 0.03984 0.45009 0.0
C999 C 0.53765 0.03957 0.40561 0.0
C1000 C 0.47683 1.00755 0.4686 0.0
C1001 C 0.51831 1.03226 0.51635 0.0
N1002 N 0.51888 1.03073 0.42618 0.0
N1003 N 0.53672 0.04081 0.49565 0.0
H1004 H 0.6356 0.52908 0.53326 0.0
H1005 H 0.45083 0.52928 0.41166 0.0
H1006 H 0.51695 0.45331 0.5268 0.0
H1007 H 0.56955 0.60515 0.41929 0.0
H1008 H 0.47509 0.49909 0.45295 0.0
H1009 H 0.61244 0.55572 0.49114 0.0
C1010 C 0.60459 0.51805 0.52295 0.0
C1011 C 0.57814 0.48895 0.53358 0.0
C1012 C 0.49596 0.52217 0.44557 0.0
C1013 C 0.55129 0.51936 0.48511 0.0
C1014 C 0.48218 0.53931 0.42195 0.0
C1015 C 0.50823 0.56977 0.41202 0.0
C1016 C 0.53611 0.53561 0.45944 0.0
C1017 C 0.54845 0.58173 0.42621 0.0
C1018 C 0.59138 0.53326 0.49885 0.0
C1019 C 0.53832 0.47575 0.51932 0.0
N1020 N 0.56107 0.56476 0.44918 0.0
N1021 N 0.52609 0.49105 0.49585 0.0
H1022 H 0.135 0.61548 0.503 0.0
H1023 H 0.92828 0.48164 0.43225 0.0
H1024 H 0.02212 0.58432 0.53729 0.0
H1025 H 0.03709 0.51932 0.39603 0.0
H1026 H 0.96304 0.51827 0.47104 0.0
H1027 H 0.09844 0.5837 0.46314 0.0
C1028 C 0.10211 0.60294 0.50204 0.0
C1029 C 0.0818 0.60231 0.52367 0.0
C1030 C 0.97948 0.5183 0.45467 0.0
C1031 C 0.04023 0.56473 0.47816 0.0
C1032 C 0.95985 0.49695 0.43252 0.0
C1033 C 0.97973 0.49732 0.41074 0.0
C1034 C 0.01934 0.54032 0.45514 0.0
C1035 C 0.02063 0.51785 0.41235 0.0
C1036 C 0.08143 0.58435 0.4793 0.0
C1037 C 0.03913 0.58561 0.52119 0.0
N1038 N 0.03893 0.53876 0.43411 0.0
N1039 N 0.02004 0.56694 0.49896 0.0
H1040 H 1.01814 0.41174 0.26322 0.0
H1041 H 0.16356 0.55155 0.18359 0.0
H1042 H 0.05961 0.54375 0.28479 0.0
H1043 H 0.06414 0.46247 0.14705 0.0
H1044 H 0.14115 0.53646 0.22416 0.0
H1045 H 0.04977 0.418 0.22415 0.0
C1046 C 0.0348 0.44168 0.26005 0.0
C1047 C 0.03647 0.4772 0.27747 0.0
C1048 C 0.12476 0.51959 0.20733 0.0
C1049 C 0.07294 0.48443 0.23277 0.0
C1050 C 0.13782 0.5278 0.1841 0.0
C1051 C 0.11592 0.50806 0.16169 0.0
C1052 C 0.09005 0.49063 0.20849 0.0
C1053 C 0.08221 0.4782 0.16375 0.0
C1054 C 0.05245 0.44533 0.23762 0.0
C1055 C 0.05777 0.51547 0.27203 0.0
N1056 N 0.07034 0.47037 0.18668 0.0
N1057 N 0.07529 0.51799 0.25031 0.0
H1058 H 0.10043 0.94678 0.24171 0.0
H1059 H 0.99054 0.15549 0.17414 0.0
H1060 H 0.04476 0.05196 0.28139 0.0
H1061 H 0.0286 0.04162 0.13365 0.0
H1062 H 0.02355 0.12487 0.21348 0.0
H1063 H 0.08628 0.98678 0.20313 0.0
C1064 C 0.08563 0.97862 0.2425 0.0
C1065 C 0.07348 0.99562 0.26513 0.0
C1066 C 0.02524 0.1067 0.19604 0.0
C1067 C 0.05708 0.04213 0.22023 0.0
C1068 C 1.00666 0.12434 0.17331 0.0
C1069 C 1.00519 0.1005 0.15023 0.0
C1070 C 0.04345 0.06496 0.19603 0.0
C1071 C 0.02781 0.06086 0.15082 0.0
C1072 C 0.07755 1.00148 0.22026 0.0
C1073 C 0.05484 0.03736 0.2646 0.0
N1074 N 0.0453 0.04406 0.17331 0.0
N1075 N 0.04688 0.0589 0.24253 0.0
H1076 H 0.61422 0.13047 0.24592 0.0
H1077 H 0.40546 1.00803 0.16862 0.0
H1078 H 0.52373 0.05575 0.28113 0.0
H1079 H 0.517 0.04782 0.13555 0.0
H1080 H 0.43878 0.04132 0.20883 0.0
H1081 H 0.56912 0.11666 0.20522 0.0
C1082 C 0.58425 0.11195 0.24523 0.0
C1083 C 0.57307 0.09398 0.26715 0.0
C1084 C 0.45565 0.04342 0.1927 0.0
C1085 C 0.52113 0.07767 0.2201 0.0
C1086 C 0.43652 1.02467 0.16955 0.0
C1087 C 0.45854 1.02456 0.14845 0.0
C1088 C 0.49705 0.06289 0.19496 0.0
C1089 C 0.49867 0.04691 0.15112 0.0
C1090 C 0.55865 0.10386 0.22186 0.0
C1091 C 0.53365 0.07046 0.26489 0.0
N1092 N 0.51676 0.06472 0.17396 0.0
N1093 N 0.5094 0.06255 0.24176 0.0
H1094 H 0.47113 0.5185 0.28945 0.0
H1095 H 0.46043 0.53675 0.14124 0.0
H1096 H 0.37759 0.59757 0.24431 0.0
H1097 H 0.52153 0.42782 0.18033 0.0
H1098 H 0.42975 0.55887 0.17918 0.0
H1099 H 0.48899 0.48276 0.25064 0.0
C1100 C 0.45356 0.52775 0.27155 0.0
C1101 C 0.4233 0.56195 0.27042 0.0
C1102 C 0.4494 0.52976 0.17942 0.0
C1103 C 0.44436 0.52157 0.22566 0.0
C1104 C 0.46686 0.51708 0.15768 0.0
C1105 C 0.49338 0.48016 0.15743 0.0
C1106 C 0.45915 0.50601 0.20147 0.0
C1107 C 0.50097 0.4563 0.17953 0.0
C1108 C 0.46403 0.50746 0.2493 0.0
C1109 C 0.40159 0.57195 0.24638 0.0
N1110 N 0.4845 0.46988 0.20066 0.0
N1111 N 0.41307 0.55264 0.22516 0.0
H1112 H 0.97933 0.56209 0.63781 0.0
H1113 H 0.87491 0.54522 0.74462 0.0
H1114 H 0.0696 0.64795 0.68499 0.0
H1115 H 1.00261 0.57432 0.78538 0.0
H1116 H 0.90045 0.56615 0.70567 0.0
H1117 H 0.94212 0.54875 0.6741 0.0
C1118 C 0.99078 0.57884 0.65564 0.0
C1119 C 0.02745 0.60654 0.65818 0.0
C1120 C 0.92294 0.56806 0.72309 0.0
C1121 C 0.98522 0.59111 0.70014 0.0
C1122 C 0.90813 0.55676 0.74548 0.0
C1123 C 0.93655 0.55815 0.76844 0.0
C1124 C 0.96658 0.58119 0.72356 0.0
C1125 C 0.97943 0.5729 0.76821 0.0
C1126 C 0.96944 0.57129 0.67644 0.0
C1127 C 0.04126 0.62666 0.68199 0.0
N1128 N 0.99303 0.58384 0.74624 0.0
N1129 N 0.02062 0.61813 0.70198 0.0
H1130 H 0.91457 0.05851 0.67463 0.0
H1131 H 0.98644 0.98946 0.79446 0.0
H1132 H 0.03114 0.99623 0.6576 0.0
H1133 H 0.04234 0.87978 0.75879 0.0
H1134 H 0.95909 1.0164 0.75286 0.0
H1135 H 0.91808 1.016 0.71244 0.0
C1136 C 0.93995 0.03443 0.6783 0.0
C1137 C 0.97217 1.03047 0.66258 0.0
C1138 C 0.97608 0.98564 0.75405 0.0
C1139 C 0.97785 0.98314 0.70689 0.0
C1140 C 0.99149 0.97003 0.77797 0.0
C1141 C 1.01681 0.93214 0.78038 0.0
C1142 C 0.98638 0.96355 0.73227 0.0
C1143 C 0.02296 0.90911 0.75799 0.0
C1144 C 0.9425 1.01089 0.70026 0.0
C1145 C 1.00502 0.99965 0.66876 0.0
N1146 N 1.00899 0.92569 0.73505 0.0
N1147 N 1.00723 0.97749 0.69053 0.0
H1148 H 0.46581 0.9156 0.67095 0.0
H1149 H 0.62285 0.08792 0.75425 0.0
H1150 H 0.53551 1.01845 0.64095 0.0
H1151 H 0.52802 1.00881 0.78317 0.0
H1152 H 0.60937 0.04571 0.71447 0.0
H1153 H 0.5063 0.93271 0.7127 0.0
C1154 C 0.49072 0.94087 0.67296 0.0
C1155 C 0.49688 0.96594 0.65237 0.0
C1156 C 0.59232 0.03672 0.7297 0.0
C1157 C 0.543 0.9861 0.7004 0.0
C1158 C 0.6003 0.06053 0.75255 0.0
C1159 C 0.57628 0.05209 0.77205 0.0
C1160 C 0.5599 1.00418 0.72615 0.0
C1161 C 0.54741 1.01633 0.76873 0.0
C1162 C 0.51358 0.95081 0.6969 0.0
C1163 C 0.52967 0.99817 0.65618 0.0
N1164 N 0.53937 0.99422 0.74601 0.0
N1165 N 0.55092 1.00785 0.67981 0.0
H1166 H 0.57153 0.53686 0.79952 0.0
H1167 H 0.69338 0.51449 0.70094 0.0
H1168 H 0.49721 0.63204 0.7548 0.0
H1169 H 0.57658 0.55515 0.65417 0.0
H1170 H 0.66209 0.53774 0.73816 0.0
H1171 H 0.61256 0.52128 0.76465 0.0
C1172 C 0.56433 0.55506 0.78255 0.0
C1173 C 0.53111 0.58624 0.78038 0.0
C1174 C 0.64314 0.5417 0.71983 0.0
C1175 C 0.57811 0.56843 0.73986 0.0
C1176 C 0.66139 0.52907 0.69836 0.0
C1177 C 0.63774 0.53236 0.67402 0.0
C1178 C 0.60061 0.55824 0.71733 0.0
C1179 C 0.59634 0.55176 0.67231 0.0
C1180 C 0.58795 0.54628 0.76255 0.0
C1181 C 0.52283 0.60811 0.75757 0.0
N1182 N 0.57914 0.56366 0.69356 0.0
N1183 N 0.54567 0.5985 0.73824 0.0
loop_
_geom_bond_atom_site_label_1
_geom_bond_atom_site_label_2
_geom_bond_distance
_geom_bond_site_symmetry_2
_ccdc_geom_bond_type
Tb0 O3 2.453 . S
Tb0 O4 2.596 . S
Tb0 O5 2.374 . S
Tb0 O13 2.343 . S
Tb0 O15 2.353 . S
Tb0 O17 2.427 . S
Tb0 O18 2.513 . S
C1 O5 1.251 . S
C1 O7 1.263 . S
Tb2 O4 2.343 . S
Tb2 O7 2.353 . S
Tb2 O10 2.427 . S
Tb2 O11 2.513 . S
Tb2 O12 2.453 1_455 S
Tb2 O13 2.596 . S
Tb2 O14 2.374 . S
O3 Tb0 2.453 . S
O3 C19 1.245 . S
O4 Tb0 2.596 . S
O4 Tb2 2.343 . S
O4 C19 1.259 . S
O5 Tb0 2.374 . S
O5 C1 1.251 . S
C6 O10 1.275 . S
C6 O11 1.246 . S
O7 C1 1.263 . S
O7 Tb2 2.353 . S
C8 O12 1.245 1_455 S
C8 O13 1.259 . S
C9 O14 1.250 . S
C9 O15 1.263 . S
O10 Tb2 2.427 . S
O10 C6 1.275 . S
O11 Tb2 2.513 . S
O11 C6 1.246 . S
O12 Tb2 2.453 1_655 S
O12 C8 1.245 1_655 S
O13 Tb0 2.343 . S
O13 Tb2 2.596 . S
O13 C8 1.259 . S
O14 Tb2 2.374 . S
O14 C9 1.250 . S
O15 Tb0 2.353 . S
O15 C9 1.263 . S
C16 O17 1.275 . S
C16 O18 1.246 . S
O17 Tb0 2.427 . S
O17 C16 1.275 . S
O18 Tb0 2.513 . S
O18 C16 1.246 . S
C19 O3 1.245 . S
C19 O4 1.259 . S
Tb20 O23 2.453 . S
Tb20 O24 2.596 . S
Tb20 O25 2.374 . S
Tb20 O33 2.343 . S
Tb20 O35 2.353 . S
Tb20 O37 2.427 . S
Tb20 O38 2.513 . S
C21 O25 1.251 . S
C21 O27 1.263 . S
Tb22 O24 2.343 . S
Tb22 O27 2.353 . S
Tb22 O30 2.427 . S
Tb22 O31 2.513 . S
Tb22 O32 2.453 . S
Tb22 O33 2.596 . S
Tb22 O34 2.374 . S
O23 Tb20 2.453 . S
O23 C39 1.245 . S
O24 Tb20 2.596 . S
O24 Tb22 2.343 . S
O24 C39 1.259 . S
O25 Tb20 2.374 . S
O25 C21 1.251 . S
C26 O30 1.275 . S
C26 O31 1.246 . S
O27 C21 1.263 . S
O27 Tb22 2.353 . S
C28 O32 1.245 . S
C28 O33 1.259 . S
C29 O34 1.250 . S
C29 O35 1.263 . S
O30 Tb22 2.427 . S
O30 C26 1.275 . S
O31 Tb22 2.513 . S
O31 C26 1.246 . S
O32 Tb22 2.453 . S
O32 C28 1.245 . S
O33 Tb20 2.343 . S
O33 Tb22 2.596 . S
O33 C28 1.259 . S
O34 Tb22 2.374 . S
O34 C29 1.250 . S
O35 Tb20 2.353 . S
O35 C29 1.263 . S
C36 O37 1.275 . S
C36 O38 1.246 . S
O37 Tb20 2.427 . S
O37 C36 1.275 . S
O38 Tb20 2.513 . S
O38 C36 1.246 . S
C39 O23 1.245 . S
C39 O24 1.259 . S
Tb40 O43 2.453 . S
Tb40 O44 2.596 . S
Tb40 O45 2.374 . S
Tb40 O53 2.343 . S
Tb40 O55 2.353 . S
Tb40 O57 2.427 . S
Tb40 O58 2.513 . S
C41 O45 1.251 . S
C41 O47 1.263 . S
Tb42 O44 2.343 . S
Tb42 O47 2.353 . S
Tb42 O50 2.427 . S
Tb42 O51 2.513 . S
Tb42 O52 2.453 . S
Tb42 O53 2.596 . S
Tb42 O54 2.374 . S
O43 Tb40 2.453 . S
O43 C59 1.245 . S
O44 Tb40 2.596 . S
O44 Tb42 2.343 . S
O44 C59 1.259 . S
O45 Tb40 2.374 . S
O45 C41 1.251 . S
C46 O50 1.275 . S
C46 O51 1.246 . S
O47 C41 1.263 . S
O47 Tb42 2.353 . S
C48 O52 1.245 . S
C48 O53 1.259 . S
C49 O54 1.250 . S
C49 O55 1.263 . S
O50 Tb42 2.427 . S
O50 C46 1.275 . S
O51 Tb42 2.513 . S
O51 C46 1.246 . S
O52 Tb42 2.453 . S
O52 C48 1.245 . S
O53 Tb40 2.343 . S
O53 Tb42 2.596 . S
O53 C48 1.259 . S
O54 Tb42 2.374 . S
O54 C49 1.250 . S
O55 Tb40 2.353 . S
O55 C49 1.263 . S
C56 O57 1.275 . S
C56 O58 1.246 . S
O57 Tb40 2.427 . S
O57 C56 1.275 . S
O58 Tb40 2.513 . S
O58 C56 1.246 . S
C59 O43 1.245 . S
C59 O44 1.259 . S
Tb60 O63 2.453 . S
Tb60 O64 2.596 . S
Tb60 O65 2.374 . S
Tb60 O73 2.343 . S
Tb60 O75 2.353 . S
Tb60 O77 2.427 . S
Tb60 O78 2.513 . S
C61 O65 1.251 . S
C61 O67 1.263 . S
Tb62 O64 2.343 . S
Tb62 O67 2.353 . S
Tb62 O70 2.427 . S
Tb62 O71 2.513 . S
Tb62 O72 2.453 . S
Tb62 O73 2.596 . S
Tb62 O74 2.374 . S
O63 Tb60 2.453 . S
O63 C79 1.245 . S
O64 Tb60 2.596 . S
O64 Tb62 2.343 . S
O64 C79 1.259 . S
O65 Tb60 2.374 . S
O65 C61 1.251 . S
C66 O70 1.275 . S
C66 O71 1.246 . S
O67 C61 1.263 . S
O67 Tb62 2.353 . S
C68 O72 1.245 . S
C68 O73 1.259 . S
C69 O74 1.250 . S
C69 O75 1.263 . S
O70 Tb62 2.427 . S
O70 C66 1.275 . S
O71 Tb62 2.513 . S
O71 C66 1.246 . S
O72 Tb62 2.453 . S
O72 C68 1.245 . S
O73 Tb60 2.343 . S
O73 Tb62 2.596 . S
O73 C68 1.259 . S
O74 Tb62 2.374 . S
O74 C69 1.250 . S
O75 Tb60 2.353 . S
O75 C69 1.263 . S
C76 O77 1.275 . S
C76 O78 1.246 . S
O77 Tb60 2.427 . S
O77 C76 1.275 . S
O78 Tb60 2.513 . S
O78 C76 1.246 . S
C79 O63 1.245 . S
C79 O64 1.259 . S
Tb80 O83 2.453 1_455 S
Tb80 O84 2.596 . S
Tb80 O85 2.374 . S
Tb80 O93 2.343 . S
Tb80 O95 2.353 . S
Tb80 O97 2.427 . S
Tb80 O98 2.513 . S
C81 O85 1.251 . S
C81 O87 1.263 . S
Tb82 O84 2.343 . S
Tb82 O87 2.353 . S
Tb82 O90 2.427 . S
Tb82 O91 2.513 . S
Tb82 O92 2.453 . S
Tb82 O93 2.596 . S
Tb82 O94 2.374 . S
O83 Tb80 2.453 1_655 S
O83 C99 1.245 . S
O84 Tb80 2.596 . S
O84 Tb82 2.343 . S
O84 C99 1.259 1_455 S
O85 Tb80 2.374 . S
O85 C81 1.251 . S
C86 O90 1.275 . S
C86 O91 1.246 . S
O87 C81 1.263 . S
O87 Tb82 2.353 . S
C88 O92 1.245 . S
C88 O93 1.259 . S
C89 O94 1.250 . S
C89 O95 1.263 . S
O90 Tb82 2.427 . S
O90 C86 1.275 . S
O91 Tb82 2.513 . S
O91 C86 1.246 . S
O92 Tb82 2.453 . S
O92 C88 1.245 . S
O93 Tb80 2.343 . S
O93 Tb82 2.596 . S
O93 C88 1.259 . S
O94 Tb82 2.374 . S
O94 C89 1.250 . S
O95 Tb80 2.353 . S
O95 C89 1.263 . S
C96 O97 1.275 . S
C96 O98 1.246 . S
O97 Tb80 2.427 . S
O97 C96 1.275 . S
O98 Tb80 2.513 . S
O98 C96 1.246 . S
C99 O83 1.245 . S
C99 O84 1.259 1_655 S
Tb100 O103 2.453 . S
Tb100 O104 2.596 . S
Tb100 O105 2.374 . S
Tb100 O113 2.343 . S
Tb100 O115 2.353 . S
Tb100 O117 2.427 . S
Tb100 O118 2.513 . S
C101 O105 1.251 . S
C101 O107 1.263 . S
Tb102 O104 2.343 . S
Tb102 O107 2.353 . S
Tb102 O110 2.427 . S
Tb102 O111 2.513 . S
Tb102 O112 2.453 . S
Tb102 O113 2.596 . S
Tb102 O114 2.374 . S
O103 Tb100 2.453 . S
O103 C119 1.245 . S
O104 Tb100 2.596 . S
O104 Tb102 2.343 . S
O104 C119 1.259 . S
O105 Tb100 2.374 . S
O105 C101 1.251 . S
C106 O110 1.275 . S
C106 O111 1.246 . S
O107 C101 1.263 . S
O107 Tb102 2.353 . S
C108 O112 1.245 . S
C108 O113 1.259 . S
C109 O114 1.250 . S
C109 O115 1.263 . S
O110 Tb102 2.427 . S
O110 C106 1.275 . S
O111 Tb102 2.513 . S
O111 C106 1.246 . S
O112 Tb102 2.453 . S
O112 C108 1.245 . S
O113 Tb100 2.343 . S
O113 Tb102 2.596 . S
O113 C108 1.259 . S
O114 Tb102 2.374 . S
O114 C109 1.250 . S
O115 Tb100 2.353 . S
O115 C109 1.263 . S
C116 O117 1.275 . S
C116 O118 1.246 . S
O117 Tb100 2.427 . S
O117 C116 1.275 . S
O118 Tb100 2.513 . S
O118 C116 1.246 . S
C119 O103 1.245 . S
C119 O104 1.259 . S
Tb120 O123 2.453 . S
Tb120 O124 2.596 . S
Tb120 O125 2.374 . S
Tb120 O133 2.343 . S
Tb120 O135 2.353 . S
Tb120 O137 2.427 . S
Tb120 O138 2.513 . S
C121 O125 1.251 . S
C121 O127 1.263 . S
Tb122 O124 2.343 . S
Tb122 O127 2.353 . S
Tb122 O130 2.427 . S
Tb122 O131 2.513 . S
Tb122 O132 2.453 . S
Tb122 O133 2.596 . S
Tb122 O134 2.374 . S
O123 Tb120 2.453 . S
O123 C139 1.245 . S
O124 Tb120 2.596 . S
O124 Tb122 2.343 . S
O124 C139 1.259 . S
O125 Tb120 2.374 . S
O125 C121 1.251 . S
C126 O130 1.275 . S
C126 O131 1.246 . S
O127 C121 1.263 . S
O127 Tb122 2.353 . S
C128 O132 1.245 . S
C128 O133 1.259 . S
C129 O134 1.250 . S
C129 O135 1.263 . S
O130 Tb122 2.427 . S
O130 C126 1.275 . S
O131 Tb122 2.513 . S
O131 C126 1.246 . S
O132 Tb122 2.453 . S
O132 C128 1.245 . S
O133 Tb120 2.343 . S
O133 Tb122 2.596 . S
O133 C128 1.259 . S
O134 Tb122 2.374 . S
O134 C129 1.250 . S
O135 Tb120 2.353 . S
O135 C129 1.263 . S
C136 O137 1.275 . S
C136 O138 1.246 . S
O137 Tb120 2.427 . S
O137 C136 1.275 . S
O138 Tb120 2.513 . S
O138 C136 1.246 . S
C139 O123 1.245 . S
C139 O124 1.259 . S
Tb140 O143 2.453 . S
Tb140 O144 2.596 . S
Tb140 O145 2.374 . S
Tb140 O153 2.343 . S
Tb140 O155 2.353 . S
Tb140 O157 2.427 . S
Tb140 O158 2.513 . S
C141 O145 1.251 . S
C141 O147 1.263 . S
Tb142 O144 2.343 . S
Tb142 O147 2.353 . S
Tb142 O150 2.427 . S
Tb142 O151 2.513 . S
Tb142 O152 2.453 . S
Tb142 O153 2.596 . S
Tb142 O154 2.374 . S
O143 Tb140 2.453 . S
O143 C159 1.245 . S
O144 Tb140 2.596 . S
O144 Tb142 2.343 . S
O144 C159 1.259 . S
O145 Tb140 2.374 . S
O145 C141 1.251 . S
C146 O150 1.275 . S
C146 O151 1.246 . S
O147 C141 1.263 . S
O147 Tb142 2.353 . S
C148 O152 1.245 . S
C148 O153 1.259 . S
C149 O154 1.250 . S
C149 O155 1.263 . S
O150 Tb142 2.427 . S
O150 C146 1.275 . S
O151 Tb142 2.513 . S
O151 C146 1.246 . S
O152 Tb142 2.453 . S
O152 C148 1.245 . S
O153 Tb140 2.343 . S
O153 Tb142 2.596 . S
O153 C148 1.259 . S
O154 Tb142 2.374 . S
O154 C149 1.250 . S
O155 Tb140 2.353 . S
O155 C149 1.263 . S
C156 O157 1.275 . S
C156 O158 1.246 . S
O157 Tb140 2.427 . S
O157 C156 1.275 . S
O158 Tb140 2.513 . S
O158 C156 1.246 . S
C159 O143 1.245 . S
C159 O144 1.259 . S
Tb160 O163 2.453 1_655 S
Tb160 O164 2.596 . S
Tb160 O165 2.374 . S
Tb160 O173 2.343 . S
Tb160 O175 2.353 . S
Tb160 O177 2.427 . S
Tb160 O178 2.513 . S
C161 O165 1.251 . S
C161 O167 1.263 . S
Tb162 O164 2.343 . S
Tb162 O167 2.353 . S
Tb162 O170 2.427 . S
Tb162 O171 2.513 . S
Tb162 O172 2.453 . S
Tb162 O173 2.596 . S
Tb162 O174 2.374 . S
O163 Tb160 2.453 1_455 S
O163 C179 1.245 1_455 S
O164 Tb160 2.596 . S
O164 Tb162 2.343 . S
O164 C179 1.259 . S
O165 Tb160 2.374 . S
O165 C161 1.251 . S
C166 O170 1.275 . S
C166 O171 1.246 . S
O167 C161 1.263 . S
O167 Tb162 2.353 . S
C168 O172 1.245 . S
C168 O173 1.259 . S
C169 O174 1.250 . S
C169 O175 1.263 . S
O170 Tb162 2.427 . S
O170 C166 1.275 . S
O171 Tb162 2.513 . S
O171 C166 1.246 . S
O172 Tb162 2.453 . S
O172 C168 1.245 . S
O173 Tb160 2.343 . S
O173 Tb162 2.596 . S
O173 C168 1.259 . S
O174 Tb162 2.374 . S
O174 C169 1.250 . S
O175 Tb160 2.353 . S
O175 C169 1.263 . S
C176 O177 1.275 . S
C176 O178 1.246 . S
O177 Tb160 2.427 . S
O177 C176 1.275 . S
O178 Tb160 2.513 . S
O178 C176 1.246 . S
C179 O163 1.245 1_655 S
C179 O164 1.259 . S
Tb180 O183 2.453 . S
Tb180 O184 2.596 . S
Tb180 O185 2.374 . S
Tb180 O193 2.343 . S
Tb180 O195 2.353 . S
Tb180 O197 2.427 . S
Tb180 O198 2.513 . S
C181 O185 1.251 . S
C181 O187 1.263 . S
Tb182 O184 2.343 . S
Tb182 O187 2.353 . S
Tb182 O190 2.427 . S
Tb182 O191 2.513 . S
Tb182 O192 2.453 . S
Tb182 O193 2.596 . S
Tb182 O194 2.374 . S
O183 Tb180 2.453 . S
O183 C199 1.245 . S
O184 Tb180 2.596 . S
O184 Tb182 2.343 . S
O184 C199 1.259 . S
O185 Tb180 2.374 . S
O185 C181 1.251 . S
C186 O190 1.275 . S
C186 O191 1.246 . S
O187 C181 1.263 . S
O187 Tb182 2.353 . S
C188 O192 1.245 . S
C188 O193 1.259 . S
C189 O194 1.250 . S
C189 O195 1.263 . S
O190 Tb182 2.427 . S
O190 C186 1.275 . S
O191 Tb182 2.513 . S
O191 C186 1.246 . S
O192 Tb182 2.453 . S
O192 C188 1.245 . S
O193 Tb180 2.343 . S
O193 Tb182 2.596 . S
O193 C188 1.259 . S
O194 Tb182 2.374 . S
O194 C189 1.250 . S
O195 Tb180 2.353 . S
O195 C189 1.263 . S
C196 O197 1.275 . S
C196 O198 1.246 . S
O197 Tb180 2.427 . S
O197 C196 1.275 . S
O198 Tb180 2.513 . S
O198 C196 1.246 . S
C199 O183 1.245 . S
C199 O184 1.259 . S
Tb200 O203 2.453 . S
Tb200 O204 2.596 . S
Tb200 O205 2.374 . S
Tb200 O213 2.343 . S
Tb200 O215 2.353 . S
Tb200 O217 2.427 . S
Tb200 O218 2.513 . S
C201 O205 1.251 . S
C201 O207 1.263 . S
Tb202 O204 2.343 . S
Tb202 O207 2.353 . S
Tb202 O210 2.427 . S
Tb202 O211 2.513 . S
Tb202 O212 2.453 . S
Tb202 O213 2.596 . S
Tb202 O214 2.374 . S
O203 Tb200 2.453 . S
O203 C219 1.245 . S
O204 Tb200 2.596 . S
O204 Tb202 2.343 . S
O204 C219 1.259 . S
O205 Tb200 2.374 . S
O205 C201 1.251 . S
C206 O210 1.275 . S
C206 O211 1.246 . S
O207 C201 1.263 . S
O207 Tb202 2.353 . S
C208 O212 1.245 . S
C208 O213 1.259 . S
C209 O214 1.250 . S
C209 O215 1.263 . S
O210 Tb202 2.427 . S
O210 C206 1.275 . S
O211 Tb202 2.513 . S
O211 C206 1.246 . S
O212 Tb202 2.453 . S
O212 C208 1.245 . S
O213 Tb200 2.343 . S
O213 Tb202 2.596 . S
O213 C208 1.259 . S
O214 Tb202 2.374 . S
O214 C209 1.250 . S
O215 Tb200 2.353 . S
O215 C209 1.263 . S
C216 O217 1.275 . S
C216 O218 1.246 . S
O217 Tb200 2.427 . S
O217 C216 1.275 . S
O218 Tb200 2.513 . S
O218 C216 1.246 . S
C219 O203 1.245 . S
C219 O204 1.259 . S
Tb220 O223 2.453 . S
Tb220 O224 2.596 . S
Tb220 O225 2.374 . S
Tb220 O233 2.343 . S
Tb220 O235 2.353 . S
Tb220 O237 2.427 . S
Tb220 O238 2.513 . S
C221 O225 1.251 . S
C221 O227 1.263 . S
Tb222 O224 2.343 . S
Tb222 O227 2.353 . S
Tb222 O230 2.427 . S
Tb222 O231 2.513 . S
Tb222 O232 2.453 . S
Tb222 O233 2.596 . S
Tb222 O234 2.374 . S
O223 Tb220 2.453 . S
O223 C239 1.245 . S
O224 Tb220 2.596 . S
O224 Tb222 2.343 . S
O224 C239 1.259 . S
O225 Tb220 2.374 . S
O225 C221 1.251 . S
C226 O230 1.275 . S
C226 O231 1.246 . S
O227 C221 1.263 . S
O227 Tb222 2.353 . S
C228 O232 1.245 . S
C228 O233 1.259 . S
C229 O234 1.250 . S
C229 O235 1.263 . S
O230 Tb222 2.427 . S
O230 C226 1.275 . S
O231 Tb222 2.513 . S
O231 C226 1.246 . S
O232 Tb222 2.453 . S
O232 C228 1.245 . S
O233 Tb220 2.343 . S
O233 Tb222 2.596 . S
O233 C228 1.259 . S
O234 Tb222 2.374 . S
O234 C229 1.250 . S
O235 Tb220 2.353 . S
O235 C229 1.263 . S
C236 O237 1.275 . S
C236 O238 1.246 . S
O237 Tb220 2.427 . S
O237 C236 1.275 . S
O238 Tb220 2.513 . S
O238 C236 1.246 . S
C239 O223 1.245 . S
C239 O224 1.259 . S
Tb240 O243 2.453 . S
Tb240 O244 2.596 . S
Tb240 O245 2.374 . S
Tb240 O253 2.343 . S
Tb240 O255 2.353 . S
Tb240 O257 2.427 . S
Tb240 O258 2.513 . S
C241 O245 1.251 . S
C241 O247 1.263 . S
Tb242 O244 2.343 . S
Tb242 O247 2.353 . S
Tb242 O250 2.427 . S
Tb242 O251 2.513 . S
Tb242 O252 2.453 1_655 S
Tb242 O253 2.596 . S
Tb242 O254 2.374 . S
O243 Tb240 2.453 . S
O243 C259 1.245 . S
O244 Tb240 2.596 . S
O244 Tb242 2.343 . S
O244 C259 1.259 . S
O245 Tb240 2.374 . S
O245 C241 1.251 . S
C246 O250 1.275 . S
C246 O251 1.246 . S
O247 C241 1.263 . S
O247 Tb242 2.353 . S
C248 O252 1.245 . S
C248 O253 1.259 1_455 S
C249 O254 1.250 . S
C249 O255 1.263 . S
O250 Tb242 2.427 . S
O250 C246 1.275 . S
O251 Tb242 2.513 . S
O251 C246 1.246 . S
O252 Tb242 2.453 1_455 S
O252 C248 1.245 . S
O253 Tb240 2.343 . S
O253 Tb242 2.596 . S
O253 C248 1.259 1_655 S
O254 Tb242 2.374 . S
O254 C249 1.250 . S
O255 Tb240 2.353 . S
O255 C249 1.263 . S
C256 O257 1.275 . S
C256 O258 1.246 . S
O257 Tb240 2.427 . S
O257 C256 1.275 . S
O258 Tb240 2.513 . S
O258 C256 1.246 . S
C259 O243 1.245 . S
C259 O244 1.259 . S
Tb260 O263 2.453 . S
Tb260 O264 2.596 . S
Tb260 O265 2.374 . S
Tb260 O273 2.343 . S
Tb260 O275 2.353 . S
Tb260 O277 2.427 . S
Tb260 O278 2.513 . S
C261 O265 1.251 . S
C261 O267 1.263 . S
Tb262 O264 2.343 . S
Tb262 O267 2.353 . S
Tb262 O270 2.427 . S
Tb262 O271 2.513 . S
Tb262 O272 2.453 . S
Tb262 O273 2.596 . S
Tb262 O274 2.374 . S
O263 Tb260 2.453 . S
O263 C279 1.245 . S
O264 Tb260 2.596 . S
O264 Tb262 2.343 . S
O264 C279 1.259 . S
O265 Tb260 2.374 . S
O265 C261 1.251 . S
C266 O270 1.275 . S
C266 O271 1.246 . S
O267 C261 1.263 . S
O267 Tb262 2.353 . S
C268 O272 1.245 . S
C268 O273 1.259 . S
C269 O274 1.250 . S
C269 O275 1.263 . S
O270 Tb262 2.427 . S
O270 C266 1.275 . S
O271 Tb262 2.513 . S
O271 C266 1.246 . S
O272 Tb262 2.453 . S
O272 C268 1.245 . S
O273 Tb260 2.343 . S
O273 Tb262 2.596 . S
O273 C268 1.259 . S
O274 Tb262 2.374 . S
O274 C269 1.250 . S
O275 Tb260 2.353 . S
O275 C269 1.263 . S
C276 O277 1.275 . S
C276 O278 1.246 . S
O277 Tb260 2.427 . S
O277 C276 1.275 . S
O278 Tb260 2.513 . S
O278 C276 1.246 . S
C279 O263 1.245 . S
C279 O264 1.259 . S
Tb280 O283 2.453 . S
Tb280 O284 2.596 . S
Tb280 O285 2.374 . S
Tb280 O293 2.343 . S
Tb280 O295 2.353 . S
Tb280 O297 2.427 . S
Tb280 O298 2.513 . S
C281 O285 1.251 . S
C281 O287 1.263 . S
Tb282 O284 2.343 . S
Tb282 O287 2.353 . S
Tb282 O290 2.427 . S
Tb282 O291 2.513 . S
Tb282 O292 2.453 . S
Tb282 O293 2.596 . S
Tb282 O294 2.374 . S
O283 Tb280 2.453 . S
O283 C299 1.245 . S
O284 Tb280 2.596 . S
O284 Tb282 2.343 . S
O284 C299 1.259 . S
O285 Tb280 2.374 . S
O285 C281 1.251 . S
C286 O290 1.275 . S
C286 O291 1.246 . S
O287 C281 1.263 . S
O287 Tb282 2.353 . S
C288 O292 1.245 . S
C288 O293 1.259 . S
C289 O294 1.250 . S
C289 O295 1.263 . S
O290 Tb282 2.427 . S
O290 C286 1.275 . S
O291 Tb282 2.513 . S
O291 C286 1.246 . S
O292 Tb282 2.453 . S
O292 C288 1.245 . S
O293 Tb280 2.343 . S
O293 Tb282 2.596 . S
O293 C288 1.259 . S
O294 Tb282 2.374 . S
O294 C289 1.250 . S
O295 Tb280 2.353 . S
O295 C289 1.263 . S
C296 O297 1.275 . S
C296 O298 1.246 . S
O297 Tb280 2.427 . S
O297 C296 1.275 . S
O298 Tb280 2.513 . S
O298 C296 1.246 . S
C299 O283 1.245 . S
C299 O284 1.259 . S
Tb300 O303 2.453 . S
Tb300 O304 2.596 . S
Tb300 O305 2.374 . S
Tb300 O313 2.343 . S
Tb300 O315 2.353 . S
Tb300 O317 2.427 . S
Tb300 O318 2.513 . S
C301 O305 1.251 . S
C301 O307 1.263 . S
Tb302 O304 2.343 . S
Tb302 O307 2.353 . S
Tb302 O310 2.427 . S
Tb302 O311 2.513 . S
Tb302 O312 2.453 . S
Tb302 O313 2.596 . S
Tb302 O314 2.374 . S
O303 Tb300 2.453 . S
O303 C319 1.245 . S
O304 Tb300 2.596 . S
O304 Tb302 2.343 . S
O304 C319 1.259 . S
O305 Tb300 2.374 . S
O305 C301 1.251 . S
C306 O310 1.275 . S
C306 O311 1.246 . S
O307 C301 1.263 . S
O307 Tb302 2.353 . S
C308 O312 1.245 . S
C308 O313 1.259 . S
C309 O314 1.250 . S
C309 O315 1.263 . S
O310 Tb302 2.427 . S
O310 C306 1.275 . S
O311 Tb302 2.513 . S
O311 C306 1.246 . S
O312 Tb302 2.453 . S
O312 C308 1.245 . S
O313 Tb300 2.343 . S
O313 Tb302 2.596 . S
O313 C308 1.259 . S
O314 Tb302 2.374 . S
O314 C309 1.250 . S
O315 Tb300 2.353 . S
O315 C309 1.263 . S
C316 O317 1.275 . S
C316 O318 1.246 . S
O317 Tb300 2.427 . S
O317 C316 1.275 . S
O318 Tb300 2.513 . S
O318 C316 1.246 . S
C319 O303 1.245 . S
C319 O304 1.259 . S
H320 C326 0.930 . S
H321 C330 0.930 . S
H322 C335 0.929 . S
H323 C333 0.929 . S
H324 C328 0.929 . S
H325 C334 0.929 . S
C326 H320 0.930 . S
C326 C327 1.367 . S
C326 C334 1.378 . S
C327 C326 1.367 . S
C327 C335 1.433 . S
C328 H324 0.929 . S
C328 C330 1.378 . S
C328 C332 1.350 . S
C329 C332 1.463 . S
C329 C334 1.350 . S
C329 N337 1.427 . S
C330 H321 0.930 . S
C330 C328 1.378 . S
C330 C331 1.367 . S
C331 C330 1.367 . S
C331 C333 1.433 . S
C332 C328 1.350 . S
C332 C329 1.463 . S
C332 N336 1.427 . S
C333 H323 0.929 . S
C333 C331 1.433 . S
C333 N336 1.384 . S
C334 H325 0.929 . S
C334 C326 1.378 . S
C334 C329 1.350 . S
C335 H322 0.929 . S
C335 C327 1.433 . S
C335 N337 1.384 . S
N336 C332 1.427 . S
N336 C333 1.384 . S
N337 C329 1.427 . S
N337 C335 1.384 . S
H338 C344 0.930 . S
H339 C348 0.930 . S
H340 C353 0.929 . S
H341 C351 0.929 . S
H342 C346 0.929 . S
H343 C352 0.929 . S
C344 H338 0.930 . S
C344 C345 1.367 . S
C344 C352 1.378 . S
C345 C344 1.367 . S
C345 C353 1.433 . S
C346 H342 0.929 . S
C346 C348 1.378 . S
C346 C350 1.350 . S
C347 C350 1.463 1_455 S
C347 C352 1.350 . S
C347 N355 1.427 . S
C348 H339 0.930 . S
C348 C346 1.378 . S
C348 C349 1.367 . S
C349 C348 1.367 . S
C349 C351 1.433 . S
C350 C346 1.350 . S
C350 C347 1.463 1_655 S
C350 N354 1.428 1_655 S
C351 H341 0.929 . S
C351 C349 1.433 . S
C351 N354 1.372 1_655 S
C352 H343 0.929 . S
C352 C344 1.378 . S
C352 C347 1.350 . S
C353 H340 0.929 . S
C353 C345 1.433 . S
C353 N355 1.384 . S
N354 C350 1.428 1_455 S
N354 C351 1.372 1_455 S
N355 C347 1.427 . S
N355 C353 1.384 . S
H356 C362 0.930 . S
H357 C366 0.930 . S
H358 C371 0.929 . S
H359 C369 0.929 . S
H360 C364 0.929 . S
H361 C370 0.929 . S
C362 H356 0.930 . S
C362 C363 1.367 . S
C362 C370 1.378 1_565 S
C363 C362 1.367 . S
C363 C371 1.433 . S
C364 H360 0.929 . S
C364 C366 1.378 . S
C364 C368 1.350 . S
C365 C368 1.463 . S
C365 C370 1.350 . S
C365 N373 1.427 1_545 S
C366 H357 0.930 . S
C366 C364 1.378 . S
C366 C367 1.367 . S
C367 C366 1.367 . S
C367 C369 1.433 . S
C368 C364 1.350 . S
C368 C365 1.463 . S
C368 N372 1.427 . S
C369 H359 0.929 . S
C369 C367 1.433 . S
C369 N372 1.384 . S
C370 H361 0.929 . S
C370 C362 1.378 1_545 S
C370 C365 1.350 . S
C371 H358 0.929 . S
C371 C363 1.433 . S
C371 N373 1.384 . S
N372 C368 1.427 . S
N372 C369 1.384 . S
N373 C365 1.427 1_565 S
N373 C371 1.384 . S
H374 C380 0.930 . S
H375 C384 0.930 . S
H376 C389 0.929 . S
H377 C387 0.929 . S
H378 C382 0.929 . S
H379 C388 0.929 . S
C380 H374 0.930 . S
C380 C381 1.367 . S
C380 C388 1.378 . S
C381 C380 1.367 . S
C381 C389 1.433 . S
C382 H378 0.929 . S
C382 C384 1.378 . S
C382 C386 1.350 . S
C383 C386 1.463 . S
C383 C388 1.350 . S
C383 N391 1.427 . S
C384 H375 0.930 . S
C384 C382 1.378 . S
C384 C385 1.367 . S
C385 C384 1.367 . S
C385 C387 1.433 . S
C386 C382 1.350 . S
C386 C383 1.463 . S
C386 N390 1.427 . S
C387 H377 0.929 . S
C387 C385 1.433 . S
C387 N390 1.384 . S
C388 H379 0.929 . S
C388 C380 1.378 . S
C388 C383 1.350 . S
C389 H376 0.929 . S
C389 C381 1.433 . S
C389 N391 1.384 . S
N390 C386 1.427 . S
N390 C387 1.384 . S
N391 C383 1.427 . S
N391 C389 1.384 . S
H392 C398 0.930 . S
H393 C402 0.930 . S
H394 C407 0.929 . S
H395 C405 0.929 . S
H396 C400 0.929 1_565 S
H397 C406 0.929 . S
C398 H392 0.930 . S
C398 C399 1.367 . S
C398 C406 1.378 1_565 S
C399 C398 1.367 . S
C399 C407 1.433 . S
C400 H396 0.929 1_545 S
C400 C402 1.378 . S
C400 C404 1.350 . S
C401 C404 1.461 1_565 S
C401 C406 1.349 1_565 S
C401 N409 1.430 . S
C402 H393 0.930 . S
C402 C400 1.378 . S
C402 C403 1.367 . S
C403 C402 1.367 . S
C403 C405 1.433 . S
C404 C400 1.350 . S
C404 C401 1.461 1_545 S
C404 N408 1.427 . S
C405 H395 0.929 . S
C405 C403 1.433 . S
C405 N408 1.384 . S
C406 H397 0.929 . S
C406 C398 1.378 1_545 S
C406 C401 1.349 1_545 S
C407 H394 0.929 . S
C407 C399 1.433 . S
C407 N409 1.384 . S
N408 C404 1.427 . S
N408 C405 1.384 . S
N409 C401 1.430 . S
N409 C407 1.384 . S
H410 C416 0.930 . S
H411 C420 0.930 . S
H412 C425 0.929 . S
H413 C423 0.929 . S
H414 C418 0.929 . S
H415 C424 0.929 . S
C416 H410 0.930 . S
C416 C417 1.367 . S
C416 C424 1.378 . S
C417 C416 1.367 . S
C417 C425 1.433 . S
C418 H414 0.929 . S
C418 C420 1.378 . S
C418 C422 1.350 . S
C419 C422 1.463 . S
C419 C424 1.350 . S
C419 N427 1.427 . S
C420 H411 0.930 . S
C420 C418 1.378 . S
C420 C421 1.367 . S
C421 C420 1.367 . S
C421 C423 1.433 . S
C422 C418 1.350 . S
C422 C419 1.463 . S
C422 N426 1.427 . S
C423 H413 0.929 . S
C423 C421 1.433 . S
C423 N426 1.384 . S
C424 H415 0.929 . S
C424 C416 1.378 . S
C424 C419 1.350 . S
C425 H412 0.929 . S
C425 C417 1.433 . S
C425 N427 1.384 . S
N426 C422 1.427 . S
N426 C423 1.384 . S
N427 C419 1.427 . S
N427 C425 1.384 . S
H428 C434 0.930 . S
H429 C438 0.930 . S
H430 C443 0.929 . S
H431 C441 0.929 . S
H432 C436 0.929 . S
H433 C442 0.929 . S
C434 H428 0.930 . S
C434 C435 1.367 . S
C434 C442 1.378 . S
C435 C434 1.367 . S
C435 C443 1.433 . S
C436 H432 0.929 . S
C436 C438 1.378 . S
C436 C440 1.350 . S
C437 C440 1.463 . S
C437 C442 1.350 . S
C437 N445 1.427 . S
C438 H429 0.930 . S
C438 C436 1.378 . S
C438 C439 1.367 . S
C439 C438 1.367 . S
C439 C441 1.433 . S
C440 C436 1.350 . S
C440 C437 1.463 . S
C440 N444 1.427 . S
C441 H431 0.929 . S
C441 C439 1.433 . S
C441 N444 1.384 . S
C442 H433 0.929 . S
C442 C434 1.378 . S
C442 C437 1.350 . S
C443 H430 0.929 . S
C443 C435 1.433 . S
C443 N445 1.384 . S
N444 C440 1.427 . S
N444 C441 1.384 . S
N445 C437 1.427 . S
N445 C443 1.384 . S
H446 C452 0.930 . S
H447 C456 0.930 1_455 S
H448 C461 0.929 . S
H449 C459 0.929 . S
H450 C454 0.929 . S
H451 C460 0.929 . S
C452 H446 0.930 . S
C452 C453 1.367 1_655 S
C452 C460 1.378 . S
C453 C452 1.367 1_455 S
C453 C461 1.433 . S
C454 H450 0.929 . S
C454 C456 1.378 1_455 S
C454 C458 1.350 1_455 S
C455 C458 1.462 1_455 S
C455 C460 1.349 1_455 S
C455 N463 1.429 . S
C456 H447 0.930 1_655 S
C456 C454 1.378 1_655 S
C456 C457 1.367 . S
C457 C456 1.367 . S
C457 C459 1.433 . S
C458 C454 1.350 1_655 S
C458 C455 1.462 1_655 S
C458 N462 1.427 . S
C459 H449 0.929 . S
C459 C457 1.433 . S
C459 N462 1.384 . S
C460 H451 0.929 . S
C460 C452 1.378 . S
C460 C455 1.349 1_655 S
C461 H448 0.929 . S
C461 C453 1.433 . S
C461 N463 1.384 . S
N462 C458 1.427 . S
N462 C459 1.384 . S
N463 C455 1.429 . S
N463 C461 1.384 . S
H464 C470 0.930 . S
H465 C474 0.930 . S
H466 C479 0.929 . S
H467 C477 0.929 . S
H468 C472 0.929 . S
H469 C478 0.929 . S
C470 H464 0.930 . S
C470 C471 1.367 . S
C470 C478 1.378 . S
C471 C470 1.367 . S
C471 C479 1.433 . S
C472 H468 0.929 . S
C472 C474 1.378 . S
C472 C476 1.350 . S
C473 C476 1.463 . S
C473 C478 1.350 . S
C473 N481 1.427 . S
C474 H465 0.930 . S
C474 C472 1.378 . S
C474 C475 1.367 . S
C475 C474 1.367 . S
C475 C477 1.433 . S
C476 C472 1.350 . S
C476 C473 1.463 . S
C476 N480 1.427 . S
C477 H467 0.929 . S
C477 C475 1.433 . S
C477 N480 1.384 . S
C478 H469 0.929 . S
C478 C470 1.378 . S
C478 C473 1.350 . S
C479 H466 0.929 . S
C479 C471 1.433 . S
C479 N481 1.384 . S
N480 C476 1.427 . S
N480 C477 1.384 . S
N481 C473 1.427 . S
N481 C479 1.384 . S
H482 C488 0.930 . S
H483 C492 0.930 . S
H484 C497 0.929 . S
H485 C495 0.929 . S
H486 C490 0.929 . S
H487 C496 0.929 1_455 S
C488 H482 0.930 . S
C488 C489 1.367 . S
C488 C496 1.378 . S
C489 C488 1.367 . S
C489 C497 1.433 . S
C490 H486 0.929 . S
C490 C492 1.378 1_655 S
C490 C494 1.350 1_655 S
C491 C494 1.463 1_655 S
C491 C496 1.350 . S
C491 N499 1.427 . S
C492 H483 0.930 . S
C492 C490 1.378 1_455 S
C492 C493 1.367 . S
C493 C492 1.367 . S
C493 C495 1.433 . S
C494 C490 1.350 1_455 S
C494 C491 1.463 1_455 S
C494 N498 1.427 . S
C495 H485 0.929 . S
C495 C493 1.433 . S
C495 N498 1.384 . S
C496 H487 0.929 1_655 S
C496 C488 1.378 . S
C496 C491 1.350 . S
C497 H484 0.929 . S
C497 C489 1.433 . S
C497 N499 1.384 . S
N498 C494 1.427 . S
N498 C495 1.384 . S
N499 C491 1.427 . S
N499 C497 1.384 . S
H500 C506 0.930 . S
H501 C510 0.930 . S
H502 C515 0.929 . S
H503 C513 0.929 . S
H504 C508 0.929 . S
H505 C514 0.929 1_545 S
C506 H500 0.930 . S
C506 C507 1.367 . S
C506 C514 1.378 . S
C507 C506 1.367 . S
C507 C515 1.433 . S
C508 H504 0.929 . S
C508 C510 1.378 . S
C508 C512 1.350 . S
C509 C512 1.463 . S
C509 C514 1.350 . S
C509 N517 1.427 . S
C510 H501 0.930 . S
C510 C508 1.378 . S
C510 C511 1.367 1_565 S
C511 C510 1.367 1_545 S
C511 C513 1.433 . S
C512 C508 1.350 . S
C512 C509 1.463 . S
C512 N516 1.427 1_565 S
C513 H503 0.929 . S
C513 C511 1.433 . S
C513 N516 1.384 . S
C514 H505 0.929 1_565 S
C514 C506 1.378 . S
C514 C509 1.350 . S
C515 H502 0.929 . S
C515 C507 1.433 . S
C515 N517 1.384 . S
N516 C512 1.427 1_545 S
N516 C513 1.384 . S
N517 C509 1.427 . S
N517 C515 1.384 . S
H518 C524 0.930 . S
H519 C528 0.930 . S
H520 C533 0.929 . S
H521 C531 0.929 . S
H522 C526 0.929 . S
H523 C532 0.929 . S
C524 H518 0.930 . S
C524 C525 1.367 . S
C524 C532 1.378 . S
C525 C524 1.367 . S
C525 C533 1.433 . S
C526 H522 0.929 . S
C526 C528 1.378 . S
C526 C530 1.350 . S
C527 C530 1.463 . S
C527 C532 1.350 . S
C527 N535 1.427 . S
C528 H519 0.930 . S
C528 C526 1.378 . S
C528 C529 1.367 . S
C529 C528 1.367 . S
C529 C531 1.433 . S
C530 C526 1.350 . S
C530 C527 1.463 . S
C530 N534 1.427 . S
C531 H521 0.929 . S
C531 C529 1.433 . S
C531 N534 1.384 . S
C532 H523 0.929 . S
C532 C524 1.378 . S
C532 C527 1.350 . S
C533 H520 0.929 . S
C533 C525 1.433 . S
C533 N535 1.384 . S
N534 C530 1.427 . S
N534 C531 1.384 . S
N535 C527 1.427 . S
N535 C533 1.384 . S
H536 C542 0.930 . S
H537 C546 0.930 . S
H538 C551 0.929 . S
H539 C549 0.929 . S
H540 C544 0.929 1_545 S
H541 C550 0.929 . S
C542 H536 0.930 . S
C542 C543 1.367 . S
C542 C550 1.378 1_545 S
C543 C542 1.367 . S
C543 C551 1.433 . S
C544 H540 0.929 1_565 S
C544 C546 1.378 . S
C544 C548 1.350 . S
C545 C548 1.462 1_545 S
C545 C550 1.350 1_545 S
C545 N553 1.428 . S
C546 H537 0.930 . S
C546 C544 1.378 . S
C546 C547 1.367 . S
C547 C546 1.367 . S
C547 C549 1.433 . S
C548 C544 1.350 . S
C548 C545 1.462 1_565 S
C548 N552 1.427 . S
C549 H539 0.929 . S
C549 C547 1.433 . S
C549 N552 1.384 . S
C550 H541 0.929 . S
C550 C542 1.378 1_565 S
C550 C545 1.350 1_565 S
C551 H538 0.929 . S
C551 C543 1.433 . S
C551 N553 1.384 . S
N552 C548 1.427 . S
N552 C549 1.384 . S
N553 C545 1.428 . S
N553 C551 1.384 . S
H554 C560 0.930 . S
H555 C564 0.930 . S
H556 C569 0.929 . S
H557 C567 0.929 . S
H558 C562 0.929 . S
H559 C568 0.929 . S
C560 H554 0.930 . S
C560 C561 1.367 . S
C560 C568 1.378 . S
C561 C560 1.367 . S
C561 C569 1.433 . S
C562 H558 0.929 . S
C562 C564 1.378 . S
C562 C566 1.350 . S
C563 C566 1.463 . S
C563 C568 1.350 . S
C563 N571 1.427 . S
C564 H555 0.930 . S
C564 C562 1.378 . S
C564 C565 1.367 . S
C565 C564 1.367 . S
C565 C567 1.433 . S
C566 C562 1.350 . S
C566 C563 1.463 . S
C566 N570 1.427 . S
C567 H557 0.929 . S
C567 C565 1.433 . S
C567 N570 1.384 . S
C568 H559 0.929 . S
C568 C560 1.378 . S
C568 C563 1.350 . S
C569 H556 0.929 . S
C569 C561 1.433 . S
C569 N571 1.384 . S
N570 C566 1.427 . S
N570 C567 1.384 . S
N571 C563 1.427 . S
N571 C569 1.384 . S
H572 C578 0.930 . S
H573 C582 0.930 . S
H574 C587 0.929 . S
H575 C585 0.929 . S
H576 C580 0.929 . S
H577 C586 0.929 . S
C578 H572 0.930 . S
C578 C579 1.367 . S
C578 C586 1.378 . S
C579 C578 1.367 . S
C579 C587 1.433 . S
C580 H576 0.929 . S
C580 C582 1.378 . S
C580 C584 1.350 . S
C581 C584 1.463 . S
C581 C586 1.350 . S
C581 N589 1.427 . S
C582 H573 0.930 . S
C582 C580 1.378 . S
C582 C583 1.367 . S
C583 C582 1.367 . S
C583 C585 1.433 . S
C584 C580 1.350 . S
C584 C581 1.463 . S
C584 N588 1.427 . S
C585 H575 0.929 . S
C585 C583 1.433 . S
C585 N588 1.384 . S
C586 H577 0.929 . S
C586 C578 1.378 . S
C586 C581 1.350 . S
C587 H574 0.929 . S
C587 C579 1.433 . S
C587 N589 1.384 . S
N588 C584 1.427 . S
N588 C585 1.384 . S
N589 C581 1.427 . S
N589 C587 1.384 . S
H590 C596 0.930 . S
H591 C600 0.930 . S
H592 C605 0.929 . S
H593 C603 0.929 . S
H594 C598 0.929 1_455 S
H595 C604 0.929 . S
C596 H590 0.930 . S
C596 C597 1.367 . S
C596 C604 1.378 . S
C597 C596 1.367 . S
C597 C605 1.433 . S
C598 H594 0.929 1_655 S
C598 C600 1.378 . S
C598 C602 1.350 . S
C599 C602 1.463 1_455 S
C599 C604 1.350 . S
C599 N607 1.427 . S
C600 H591 0.930 . S
C600 C598 1.378 . S
C600 C601 1.367 . S
C601 C600 1.367 . S
C601 C603 1.433 . S
C602 C598 1.350 . S
C602 C599 1.463 1_655 S
C602 N606 1.427 . S
C603 H593 0.929 . S
C603 C601 1.433 . S
C603 N606 1.384 . S
C604 H595 0.929 . S
C604 C596 1.378 . S
C604 C599 1.350 . S
C605 H592 0.929 . S
C605 C597 1.433 . S
C605 N607 1.384 . S
N606 C602 1.427 . S
N606 C603 1.384 . S
N607 C599 1.427 . S
N607 C605 1.384 . S
H608 C614 0.930 . S
H609 C618 0.930 . S
H610 C623 0.929 . S
H611 C621 0.929 . S
H612 C616 0.929 . S
H613 C622 0.929 . S
C614 H608 0.930 . S
C614 C615 1.367 . S
C614 C622 1.378 . S
C615 C614 1.367 . S
C615 C623 1.433 . S
C616 H612 0.929 . S
C616 C618 1.378 . S
C616 C620 1.350 . S
C617 C620 1.463 . S
C617 C622 1.350 . S
C617 N625 1.427 . S
C618 H609 0.930 . S
C618 C616 1.378 . S
C618 C619 1.367 . S
C619 C618 1.367 . S
C619 C621 1.433 . S
C620 C616 1.350 . S
C620 C617 1.463 . S
C620 N624 1.427 . S
C621 H611 0.929 . S
C621 C619 1.433 . S
C621 N624 1.384 . S
C622 H613 0.929 . S
C622 C614 1.378 . S
C622 C617 1.350 . S
C623 H610 0.929 . S
C623 C615 1.433 . S
C623 N625 1.384 . S
N624 C620 1.427 . S
N624 C621 1.384 . S
N625 C617 1.427 . S
N625 C623 1.384 . S
H626 C632 0.930 . S
H627 C636 0.930 . S
H628 C641 0.929 . S
H629 C639 0.929 . S
H630 C634 0.929 . S
H631 C640 0.929 . S
C632 H626 0.930 . S
C632 C633 1.367 . S
C632 C640 1.378 . S
C633 C632 1.367 . S
C633 C641 1.433 . S
C634 H630 0.929 . S
C634 C636 1.378 . S
C634 C638 1.350 . S
C635 C638 1.463 . S
C635 C640 1.350 . S
C635 N643 1.427 . S
C636 H627 0.930 . S
C636 C634 1.378 . S
C636 C637 1.367 . S
C637 C636 1.367 . S
C637 C639 1.433 . S
C638 C634 1.350 . S
C638 C635 1.463 . S
C638 N642 1.427 . S
C639 H629 0.929 . S
C639 C637 1.433 . S
C639 N642 1.384 . S
C640 H631 0.929 . S
C640 C632 1.378 . S
C640 C635 1.350 . S
C641 H628 0.929 . S
C641 C633 1.433 . S
C641 N643 1.384 . S
N642 C638 1.427 . S
N642 C639 1.384 . S
N643 C635 1.427 . S
N643 C641 1.384 . S
H644 C650 0.930 . S
H645 C654 0.930 . S
H646 C659 0.929 . S
H647 C657 0.929 . S
H648 C652 0.929 . S
H649 C658 0.929 . S
C650 H644 0.930 . S
C650 C651 1.367 . S
C650 C658 1.378 . S
C651 C650 1.367 . S
C651 C659 1.433 . S
C652 H648 0.929 . S
C652 C654 1.378 . S
C652 C656 1.350 . S
C653 C656 1.463 . S
C653 C658 1.350 . S
C653 N661 1.427 . S
C654 H645 0.930 . S
C654 C652 1.378 . S
C654 C655 1.367 . S
C655 C654 1.367 . S
C655 C657 1.433 . S
C656 C652 1.350 . S
C656 C653 1.463 . S
C656 N660 1.427 . S
C657 H647 0.929 . S
C657 C655 1.433 . S
C657 N660 1.384 . S
C658 H649 0.929 . S
C658 C650 1.378 . S
C658 C653 1.350 . S
C659 H646 0.929 . S
C659 C651 1.433 . S
C659 N661 1.384 . S
N660 C656 1.427 . S
N660 C657 1.384 . S
N661 C653 1.427 . S
N661 C659 1.384 . S
H662 C668 0.930 . S
H663 C672 0.930 . S
H664 C677 0.929 . S
H665 C675 0.929 . S
H666 C670 0.929 . S
H667 C676 0.929 . S
C668 H662 0.930 . S
C668 C669 1.367 . S
C668 C676 1.378 . S
C669 C668 1.367 . S
C669 C677 1.433 . S
C670 H666 0.929 . S
C670 C672 1.378 . S
C670 C674 1.350 . S
C671 C674 1.463 . S
C671 C676 1.350 . S
C671 N679 1.427 . S
C672 H663 0.930 . S
C672 C670 1.378 . S
C672 C673 1.367 . S
C673 C672 1.367 . S
C673 C675 1.433 . S
C674 C670 1.350 . S
C674 C671 1.463 . S
C674 N678 1.427 . S
C675 H665 0.929 . S
C675 C673 1.433 . S
C675 N678 1.384 . S
C676 H667 0.929 . S
C676 C668 1.378 . S
C676 C671 1.350 . S
C677 H664 0.929 . S
C677 C669 1.433 . S
C677 N679 1.384 . S
N678 C674 1.427 . S
N678 C675 1.384 . S
N679 C671 1.427 . S
N679 C677 1.384 . S
H680 C686 0.930 . S
H681 C690 0.930 . S
H682 C695 0.929 . S
H683 C693 0.929 . S
H684 C688 0.929 . S
H685 C694 0.929 . S
C686 H680 0.930 . S
C686 C687 1.367 . S
C686 C694 1.378 . S
C687 C686 1.367 . S
C687 C695 1.433 . S
C688 H684 0.929 . S
C688 C690 1.378 . S
C688 C692 1.350 . S
C689 C692 1.463 . S
C689 C694 1.350 . S
C689 N697 1.427 . S
C690 H681 0.930 . S
C690 C688 1.378 . S
C690 C691 1.367 . S
C691 C690 1.367 . S
C691 C693 1.433 . S
C692 C688 1.350 . S
C692 C689 1.463 . S
C692 N696 1.427 . S
C693 H683 0.929 . S
C693 C691 1.433 . S
C693 N696 1.384 . S
C694 H685 0.929 . S
C694 C686 1.378 . S
C694 C689 1.350 . S
C695 H682 0.929 . S
C695 C687 1.433 . S
C695 N697 1.384 . S
N696 C692 1.427 . S
N696 C693 1.384 . S
N697 C689 1.427 . S
N697 C695 1.384 . S
H698 C704 0.930 . S
H699 C708 0.930 . S
H700 C713 0.929 . S
H701 C711 0.929 . S
H702 C706 0.929 . S
H703 C712 0.929 . S
C704 H698 0.930 . S
C704 C705 1.367 . S
C704 C712 1.378 . S
C705 C704 1.367 . S
C705 C713 1.433 . S
C706 H702 0.929 . S
C706 C708 1.378 . S
C706 C710 1.350 . S
C707 C710 1.463 . S
C707 C712 1.350 . S
C707 N715 1.427 . S
C708 H699 0.930 . S
C708 C706 1.378 . S
C708 C709 1.367 . S
C709 C708 1.367 . S
C709 C711 1.433 . S
C710 C706 1.350 . S
C710 C707 1.463 . S
C710 N714 1.427 . S
C711 H701 0.929 . S
C711 C709 1.433 . S
C711 N714 1.384 . S
C712 H703 0.929 . S
C712 C704 1.378 . S
C712 C707 1.350 . S
C713 H700 0.929 . S
C713 C705 1.433 . S
C713 N715 1.384 . S
N714 C710 1.427 . S
N714 C711 1.384 . S
N715 C707 1.427 . S
N715 C713 1.384 . S
H716 C722 0.930 . S
H717 C726 0.930 . S
H718 C731 0.929 . S
H719 C729 0.929 . S
H720 C724 0.929 . S
H721 C730 0.929 . S
C722 H716 0.930 . S
C722 C723 1.367 . S
C722 C730 1.378 . S
C723 C722 1.367 . S
C723 C731 1.433 . S
C724 H720 0.929 . S
C724 C726 1.378 . S
C724 C728 1.350 . S
C725 C728 1.463 . S
C725 C730 1.350 . S
C725 N733 1.427 . S
C726 H717 0.930 . S
C726 C724 1.378 . S
C726 C727 1.367 . S
C727 C726 1.367 . S
C727 C729 1.433 . S
C728 C724 1.350 . S
C728 C725 1.463 . S
C728 N732 1.427 . S
C729 H719 0.929 . S
C729 C727 1.433 . S
C729 N732 1.384 . S
C730 H721 0.929 . S
C730 C722 1.378 . S
C730 C725 1.350 . S
C731 H718 0.929 . S
C731 C723 1.433 . S
C731 N733 1.384 . S
N732 C728 1.427 . S
N732 C729 1.384 . S
N733 C725 1.427 . S
N733 C731 1.384 . S
H734 C740 0.930 . S
H735 C744 0.930 . S
H736 C749 0.929 . S
H737 C747 0.929 . S
H738 C742 0.929 . S
H739 C748 0.929 . S
C740 H734 0.930 . S
C740 C741 1.367 . S
C740 C748 1.378 . S
C741 C740 1.367 . S
C741 C749 1.433 . S
C742 H738 0.929 . S
C742 C744 1.378 . S
C742 C746 1.350 . S
C743 C746 1.463 . S
C743 C748 1.350 . S
C743 N751 1.427 . S
C744 H735 0.930 . S
C744 C742 1.378 . S
C744 C745 1.367 . S
C745 C744 1.367 . S
C745 C747 1.433 . S
C746 C742 1.350 . S
C746 C743 1.463 . S
C746 N750 1.427 . S
C747 H737 0.929 . S
C747 C745 1.433 . S
C747 N750 1.384 . S
C748 H739 0.929 . S
C748 C740 1.378 . S
C748 C743 1.350 . S
C749 H736 0.929 . S
C749 C741 1.433 . S
C749 N751 1.384 . S
N750 C746 1.427 . S
N750 C747 1.384 . S
N751 C743 1.427 . S
N751 C749 1.384 . S
H752 C758 0.930 . S
H753 C762 0.930 . S
H754 C767 0.929 . S
H755 C765 0.929 . S
H756 C760 0.929 . S
H757 C766 0.929 . S
C758 H752 0.930 . S
C758 C759 1.367 . S
C758 C766 1.378 . S
C759 C758 1.367 . S
C759 C767 1.433 . S
C760 H756 0.929 . S
C760 C762 1.378 . S
C760 C764 1.350 . S
C761 C764 1.463 . S
C761 C766 1.350 . S
C761 N769 1.427 . S
C762 H753 0.930 . S
C762 C760 1.378 . S
C762 C763 1.367 . S
C763 C762 1.367 . S
C763 C765 1.433 . S
C764 C760 1.350 . S
C764 C761 1.463 . S
C764 N768 1.427 . S
C765 H755 0.929 . S
C765 C763 1.433 . S
C765 N768 1.384 . S
C766 H757 0.929 . S
C766 C758 1.378 . S
C766 C761 1.350 . S
C767 H754 0.929 . S
C767 C759 1.433 . S
C767 N769 1.384 . S
N768 C764 1.427 . S
N768 C765 1.384 . S
N769 C761 1.427 . S
N769 C767 1.384 . S
H770 C776 0.930 . S
H771 C780 0.930 . S
H772 C785 0.929 . S
H773 C783 0.929 . S
H774 C778 0.929 . S
H775 C784 0.929 . S
C776 H770 0.930 . S
C776 C777 1.367 . S
C776 C784 1.378 . S
C777 C776 1.367 . S
C777 C785 1.433 . S
C778 H774 0.929 . S
C778 C780 1.378 . S
C778 C782 1.350 . S
C779 C782 1.463 . S
C779 C784 1.350 . S
C779 N787 1.427 . S
C780 H771 0.930 . S
C780 C778 1.378 . S
C780 C781 1.367 . S
C781 C780 1.367 . S
C781 C783 1.433 . S
C782 C778 1.350 . S
C782 C779 1.463 . S
C782 N786 1.427 . S
C783 H773 0.929 . S
C783 C781 1.433 . S
C783 N786 1.384 . S
C784 H775 0.929 . S
C784 C776 1.378 . S
C784 C779 1.350 . S
C785 H772 0.929 . S
C785 C777 1.433 . S
C785 N787 1.384 . S
N786 C782 1.427 . S
N786 C783 1.384 . S
N787 C779 1.427 . S
N787 C785 1.384 . S
H788 C794 0.930 . S
H789 C798 0.930 . S
H790 C803 0.929 . S
H791 C801 0.929 . S
H792 C796 0.929 . S
H793 C802 0.929 . S
C794 H788 0.930 . S
C794 C795 1.367 . S
C794 C802 1.378 . S
C795 C794 1.367 . S
C795 C803 1.433 . S
C796 H792 0.929 . S
C796 C798 1.378 . S
C796 C800 1.350 . S
C797 C800 1.463 . S
C797 C802 1.350 . S
C797 N805 1.427 . S
C798 H789 0.930 . S
C798 C796 1.378 . S
C798 C799 1.367 . S
C799 C798 1.367 . S
C799 C801 1.433 . S
C800 C796 1.350 . S
C800 C797 1.463 . S
C800 N804 1.427 . S
C801 H791 0.929 . S
C801 C799 1.433 . S
C801 N804 1.384 . S
C802 H793 0.929 . S
C802 C794 1.378 . S
C802 C797 1.350 . S
C803 H790 0.929 . S
C803 C795 1.433 . S
C803 N805 1.384 . S
N804 C800 1.427 . S
N804 C801 1.384 . S
N805 C797 1.427 . S
N805 C803 1.384 . S
H806 C812 0.930 . S
H807 C816 0.930 . S
H808 C821 0.929 . S
H809 C819 0.929 . S
H810 C814 0.929 . S
H811 C820 0.929 . S
C812 H806 0.930 . S
C812 C813 1.367 . S
C812 C820 1.378 . S
C813 C812 1.367 . S
C813 C821 1.433 . S
C814 H810 0.929 . S
C814 C816 1.378 . S
C814 C818 1.350 . S
C815 C818 1.463 . S
C815 C820 1.350 . S
C815 N823 1.427 . S
C816 H807 0.930 . S
C816 C814 1.378 . S
C816 C817 1.367 . S
C817 C816 1.367 . S
C817 C819 1.433 . S
C818 C814 1.350 . S
C818 C815 1.463 . S
C818 N822 1.427 . S
C819 H809 0.929 . S
C819 C817 1.433 . S
C819 N822 1.384 . S
C820 H811 0.929 . S
C820 C812 1.378 . S
C820 C815 1.350 . S
C821 H808 0.929 . S
C821 C813 1.433 . S
C821 N823 1.384 . S
N822 C818 1.427 . S
N822 C819 1.384 . S
N823 C815 1.427 . S
N823 C821 1.384 . S
H824 C830 0.930 . S
H825 C834 0.930 . S
H826 C839 0.929 . S
H827 C837 0.929 . S
H828 C832 0.929 . S
H829 C838 0.929 . S
C830 H824 0.930 . S
C830 C831 1.367 . S
C830 C838 1.378 . S
C831 C830 1.367 . S
C831 C839 1.433 . S
C832 H828 0.929 . S
C832 C834 1.378 . S
C832 C836 1.350 . S
C833 C836 1.463 . S
C833 C838 1.350 . S
C833 N841 1.427 . S
C834 H825 0.930 . S
C834 C832 1.378 . S
C834 C835 1.367 . S
C835 C834 1.367 . S
C835 C837 1.433 . S
C836 C832 1.350 . S
C836 C833 1.463 . S
C836 N840 1.427 . S
C837 H827 0.929 . S
C837 C835 1.433 . S
C837 N840 1.384 . S
C838 H829 0.929 . S
C838 C830 1.378 . S
C838 C833 1.350 . S
C839 H826 0.929 . S
C839 C831 1.433 . S
C839 N841 1.384 . S
N840 C836 1.427 . S
N840 C837 1.384 . S
N841 C833 1.427 . S
N841 C839 1.384 . S
H842 C848 0.930 . S
H843 C852 0.930 . S
H844 C857 0.929 . S
H845 C855 0.929 . S
H846 C850 0.929 . S
H847 C856 0.929 . S
C848 H842 0.930 . S
C848 C849 1.367 . S
C848 C856 1.378 . S
C849 C848 1.367 . S
C849 C857 1.433 . S
C850 H846 0.929 . S
C850 C852 1.378 . S
C850 C854 1.350 . S
C851 C854 1.463 . S
C851 C856 1.350 . S
C851 N859 1.427 . S
C852 H843 0.930 . S
C852 C850 1.378 . S
C852 C853 1.367 . S
C853 C852 1.367 . S
C853 C855 1.433 . S
C854 C850 1.350 . S
C854 C851 1.463 . S
C854 N858 1.427 . S
C855 H845 0.929 . S
C855 C853 1.433 . S
C855 N858 1.384 . S
C856 H847 0.929 . S
C856 C848 1.378 . S
C856 C851 1.350 . S
C857 H844 0.929 . S
C857 C849 1.433 . S
C857 N859 1.384 . S
N858 C854 1.427 . S
N858 C855 1.384 . S
N859 C851 1.427 . S
N859 C857 1.384 . S
H860 C866 0.930 . S
H861 C870 0.930 . S
H862 C875 0.929 . S
H863 C873 0.929 . S
H864 C868 0.929 . S
H865 C874 0.929 . S
C866 H860 0.930 . S
C866 C867 1.367 . S
C866 C874 1.378 . S
C867 C866 1.367 . S
C867 C875 1.433 . S
C868 H864 0.929 . S
C868 C870 1.378 . S
C868 C872 1.350 . S
C869 C872 1.463 . S
C869 C874 1.350 . S
C869 N877 1.427 . S
C870 H861 0.930 . S
C870 C868 1.378 . S
C870 C871 1.367 . S
C871 C870 1.367 . S
C871 C873 1.433 . S
C872 C868 1.350 . S
C872 C869 1.463 . S
C872 N876 1.427 . S
C873 H863 0.929 . S
C873 C871 1.433 . S
C873 N876 1.384 . S
C874 H865 0.929 . S
C874 C866 1.378 . S
C874 C869 1.350 . S
C875 H862 0.929 . S
C875 C867 1.433 . S
C875 N877 1.384 . S
N876 C872 1.427 . S
N876 C873 1.384 . S
N877 C869 1.427 . S
N877 C875 1.384 . S
H878 C884 0.930 . S
H879 C888 0.930 . S
H880 C893 0.929 . S
H881 C891 0.929 . S
H882 C886 0.929 . S
H883 C892 0.929 . S
C884 H878 0.930 . S
C884 C885 1.367 . S
C884 C892 1.378 . S
C885 C884 1.367 . S
C885 C893 1.433 . S
C886 H882 0.929 . S
C886 C888 1.378 . S
C886 C890 1.350 . S
C887 C890 1.463 . S
C887 C892 1.350 . S
C887 N895 1.427 . S
C888 H879 0.930 . S
C888 C886 1.378 . S
C888 C889 1.367 . S
C889 C888 1.367 . S
C889 C891 1.433 . S
C890 C886 1.350 . S
C890 C887 1.463 . S
C890 N894 1.427 . S
C891 H881 0.929 . S
C891 C889 1.433 . S
C891 N894 1.384 . S
C892 H883 0.929 . S
C892 C884 1.378 . S
C892 C887 1.350 . S
C893 H880 0.929 . S
C893 C885 1.433 . S
C893 N895 1.384 . S
N894 C890 1.427 . S
N894 C891 1.384 . S
N895 C887 1.427 . S
N895 C893 1.384 . S
H896 C902 0.930 . S
H897 C906 0.930 . S
H898 C911 0.929 . S
H899 C909 0.929 . S
H900 C904 0.929 1_556 S
H901 C910 0.929 1_554 S
C902 H896 0.930 . S
C902 C903 1.367 . S
C902 C910 1.378 . S
C903 C902 1.367 . S
C903 C911 1.433 . S
C904 H900 0.929 1_554 S
C904 C906 1.378 . S
C904 C908 1.350 . S
C905 C908 1.463 1_656 S
C905 C910 1.350 . S
C905 N913 1.427 . S
C906 H897 0.930 . S
C906 C904 1.378 . S
C906 C907 1.367 . S
C907 C906 1.367 . S
C907 C909 1.433 . S
C908 C904 1.350 . S
C908 C905 1.463 1_454 S
C908 N912 1.427 . S
C909 H899 0.929 . S
C909 C907 1.433 . S
C909 N912 1.384 . S
C910 H901 0.929 1_556 S
C910 C902 1.378 . S
C910 C905 1.350 . S
C911 H898 0.929 . S
C911 C903 1.433 . S
C911 N913 1.384 . S
N912 C908 1.427 . S
N912 C909 1.384 . S
N913 C905 1.427 . S
N913 C911 1.384 . S
H914 C920 0.930 . S
H915 C924 0.930 . S
H916 C929 0.929 1_655 S
H917 C927 0.929 1_455 S
H918 C922 0.929 1_556 S
H919 C928 0.929 1_554 S
C920 H914 0.930 . S
C920 C921 1.367 . S
C920 C928 1.378 . S
C921 C920 1.367 . S
C921 C929 1.433 . S
C922 H918 0.929 1_554 S
C922 C924 1.378 . S
C922 C926 1.350 . S
C923 C926 1.463 1_466 S
C923 C928 1.350 . S
C923 N931 1.427 1_455 S
C924 H915 0.930 . S
C924 C922 1.378 . S
C924 C925 1.367 . S
C925 C924 1.367 . S
C925 C927 1.433 . S
C926 C922 1.350 . S
C926 C923 1.463 1_644 S
C926 N930 1.427 1_655 S
C927 H917 0.929 1_655 S
C927 C925 1.433 . S
C927 N930 1.384 1_655 S
C928 H919 0.929 1_556 S
C928 C920 1.378 . S
C928 C923 1.350 . S
C929 H916 0.929 1_455 S
C929 C921 1.433 . S
C929 N931 1.384 1_455 S
N930 C926 1.427 1_455 S
N930 C927 1.384 1_455 S
N931 C923 1.427 1_655 S
N931 C929 1.384 1_655 S
H932 C938 0.930 . S
H933 C942 0.930 . S
H934 C947 0.929 . S
H935 C945 0.929 . S
H936 C940 0.929 . S
H937 C946 0.929 . S
C938 H932 0.930 . S
C938 C939 1.367 . S
C938 C946 1.378 . S
C939 C938 1.367 . S
C939 C947 1.433 . S
C940 H936 0.929 . S
C940 C942 1.378 . S
C940 C944 1.350 . S
C941 C944 1.463 1_546 S
C941 C946 1.350 . S
C941 N949 1.427 . S
C942 H933 0.930 . S
C942 C940 1.378 . S
C942 C943 1.367 . S
C943 C942 1.367 . S
C943 C945 1.433 . S
C944 C940 1.350 . S
C944 C941 1.463 1_564 S
C944 N948 1.427 . S
C945 H935 0.929 . S
C945 C943 1.433 . S
C945 N948 1.384 . S
C946 H937 0.929 . S
C946 C938 1.378 . S
C946 C941 1.350 . S
C947 H934 0.929 . S
C947 C939 1.433 . S
C947 N949 1.384 . S
N948 C944 1.427 . S
N948 C945 1.384 . S
N949 C941 1.427 . S
N949 C947 1.384 . S
H950 C956 0.930 . S
H951 C960 0.930 . S
H952 C965 0.929 . S
H953 C963 0.929 . S
H954 C958 0.929 . S
H955 C964 0.929 . S
C956 H950 0.930 . S
C956 C957 1.367 . S
C956 C964 1.378 . S
C957 C956 1.367 . S
C957 C965 1.433 . S
C958 H954 0.929 . S
C958 C960 1.378 . S
C958 C962 1.350 . S
C959 C962 1.463 1_554 S
C959 C964 1.350 . S
C959 N967 1.427 . S
C960 H951 0.930 . S
C960 C958 1.378 . S
C960 C961 1.367 . S
C961 C960 1.367 . S
C961 C963 1.433 . S
C962 C958 1.350 . S
C962 C959 1.463 1_556 S
C962 N966 1.427 . S
C963 H953 0.929 . S
C963 C961 1.433 . S
C963 N966 1.384 . S
C964 H955 0.929 . S
C964 C956 1.378 . S
C964 C959 1.350 . S
C965 H952 0.929 . S
C965 C957 1.433 . S
C965 N967 1.384 . S
N966 C962 1.427 . S
N966 C963 1.384 . S
N967 C959 1.427 . S
N967 C965 1.384 . S
H968 C974 0.930 . S
H969 C978 0.930 . S
H970 C983 0.929 . S
H971 C981 0.929 . S
H972 C976 0.929 . S
H973 C982 0.929 . S
C974 H968 0.930 . S
C974 C975 1.367 1_565 S
C974 C982 1.378 . S
C975 C974 1.367 1_545 S
C975 C983 1.433 . S
C976 H972 0.929 . S
C976 C978 1.378 . S
C976 C980 1.350 1_545 S
C977 C980 1.463 1_645 S
C977 C982 1.350 1_545 S
C977 N985 1.427 1_655 S
C978 H969 0.930 . S
C978 C976 1.378 . S
C978 C979 1.367 1_545 S
C979 C978 1.367 1_565 S
C979 C981 1.433 . S
C980 C976 1.350 1_565 S
C980 C977 1.463 1_465 S
C980 N984 1.427 1_455 S
C981 H971 0.929 . S
C981 C979 1.433 . S
C981 N984 1.384 1_455 S
C982 H973 0.929 . S
C982 C974 1.378 . S
C982 C977 1.350 1_565 S
C983 H970 0.929 . S
C983 C975 1.433 . S
C983 N985 1.384 1_655 S
N984 C980 1.427 1_655 S
N984 C981 1.384 1_655 S
N985 C977 1.427 1_455 S
N985 C983 1.384 1_455 S
H986 C992 0.930 . S
H987 C996 0.930 . S
H988 C1001 0.929 . S
H989 C999 0.929 . S
H990 C994 0.929 . S
H991 C1000 0.929 . S
C992 H986 0.930 . S
C992 C993 1.367 . S
C992 C1000 1.378 . S
C993 C992 1.367 . S
C993 C1001 1.433 . S
C994 H990 0.929 . S
C994 C996 1.378 . S
C994 C998 1.350 . S
C995 C998 1.463 1_565 S
C995 C1000 1.350 . S
C995 N1003 1.427 1_565 S
C996 H987 0.930 . S
C996 C994 1.378 . S
C996 C997 1.367 . S
C997 C996 1.367 . S
C997 C999 1.433 . S
C998 C994 1.350 . S
C998 C995 1.463 1_545 S
C998 N1002 1.427 1_545 S
C999 H989 0.929 . S
C999 C997 1.433 . S
C999 N1002 1.384 1_545 S
C1000 H991 0.929 . S
C1000 C992 1.378 . S
C1000 C995 1.350 . S
C1001 H988 0.929 . S
C1001 C993 1.433 . S
C1001 N1003 1.384 1_565 S
N1002 C998 1.427 1_565 S
N1002 C999 1.384 1_565 S
N1003 C995 1.427 1_545 S
N1003 C1001 1.384 1_545 S
H1004 C1010 0.930 . S
H1005 C1014 0.930 . S
H1006 C1019 0.929 . S
H1007 C1017 0.929 . S
H1008 C1012 0.929 . S
H1009 C1018 0.929 . S
C1010 H1004 0.930 . S
C1010 C1011 1.367 . S
C1010 C1018 1.378 . S
C1011 C1010 1.367 . S
C1011 C1019 1.433 . S
C1012 H1008 0.929 . S
C1012 C1014 1.378 . S
C1012 C1016 1.350 . S
C1013 C1016 1.463 . S
C1013 C1018 1.350 . S
C1013 N1021 1.427 . S
C1014 H1005 0.930 . S
C1014 C1012 1.378 . S
C1014 C1015 1.367 . S
C1015 C1014 1.367 . S
C1015 C1017 1.433 . S
C1016 C1012 1.350 . S
C1016 C1013 1.463 . S
C1016 N1020 1.427 . S
C1017 H1007 0.929 . S
C1017 C1015 1.433 . S
C1017 N1020 1.384 . S
C1018 H1009 0.929 . S
C1018 C1010 1.378 . S
C1018 C1013 1.350 . S
C1019 H1006 0.929 . S
C1019 C1011 1.433 . S
C1019 N1021 1.384 . S
N1020 C1016 1.427 . S
N1020 C1017 1.384 . S
N1021 C1013 1.427 . S
N1021 C1019 1.384 . S
H1022 C1028 0.930 . S
H1023 C1032 0.930 . S
H1024 C1037 0.929 . S
H1025 C1035 0.929 . S
H1026 C1030 0.929 . S
H1027 C1036 0.929 . S
C1028 H1022 0.930 . S
C1028 C1029 1.367 . S
C1028 C1036 1.378 . S
C1029 C1028 1.367 . S
C1029 C1037 1.433 . S
C1030 H1026 0.929 . S
C1030 C1032 1.378 . S
C1030 C1034 1.350 . S
C1031 C1034 1.463 1_455 S
C1031 C1036 1.350 . S
C1031 N1039 1.427 . S
C1032 H1023 0.930 . S
C1032 C1030 1.378 . S
C1032 C1033 1.367 . S
C1033 C1032 1.367 . S
C1033 C1035 1.433 . S
C1034 C1030 1.350 . S
C1034 C1031 1.463 1_655 S
C1034 N1038 1.427 . S
C1035 H1025 0.929 . S
C1035 C1033 1.433 . S
C1035 N1038 1.384 . S
C1036 H1027 0.929 . S
C1036 C1028 1.378 . S
C1036 C1031 1.350 . S
C1037 H1024 0.929 . S
C1037 C1029 1.433 . S
C1037 N1039 1.384 . S
N1038 C1034 1.427 . S
N1038 C1035 1.384 . S
N1039 C1031 1.427 . S
N1039 C1037 1.384 . S
H1040 C1046 0.930 . S
H1041 C1050 0.930 . S
H1042 C1055 0.929 . S
H1043 C1053 0.929 . S
H1044 C1048 0.929 . S
H1045 C1054 0.929 . S
C1046 H1040 0.930 . S
C1046 C1047 1.367 . S
C1046 C1054 1.378 . S
C1047 C1046 1.367 . S
C1047 C1055 1.433 . S
C1048 H1044 0.929 . S
C1048 C1050 1.378 . S
C1048 C1052 1.350 . S
C1049 C1052 1.463 . S
C1049 C1054 1.350 . S
C1049 N1057 1.427 . S
C1050 H1041 0.930 . S
C1050 C1048 1.378 . S
C1050 C1051 1.367 . S
C1051 C1050 1.367 . S
C1051 C1053 1.433 . S
C1052 C1048 1.350 . S
C1052 C1049 1.463 . S
C1052 N1056 1.427 . S
C1053 H1043 0.929 . S
C1053 C1051 1.433 . S
C1053 N1056 1.384 . S
C1054 H1045 0.929 . S
C1054 C1046 1.378 . S
C1054 C1049 1.350 . S
C1055 H1042 0.929 . S
C1055 C1047 1.433 . S
C1055 N1057 1.384 . S
N1056 C1052 1.427 . S
N1056 C1053 1.384 . S
N1057 C1049 1.427 . S
N1057 C1055 1.384 . S
H1058 C1064 0.930 1_565 S
H1059 C1068 0.930 . S
H1060 C1073 0.929 . S
H1061 C1071 0.929 . S
H1062 C1066 0.929 . S
H1063 C1072 0.929 . S
C1064 H1058 0.930 1_545 S
C1064 C1065 1.367 1_545 S
C1064 C1072 1.378 . S
C1065 C1064 1.367 1_565 S
C1065 C1073 1.433 1_565 S
C1066 H1062 0.929 . S
C1066 C1068 1.378 . S
C1066 C1070 1.350 1_655 S
C1067 C1070 1.463 . S
C1067 C1072 1.350 . S
C1067 N1075 1.427 . S
C1068 H1059 0.930 . S
C1068 C1066 1.378 . S
C1068 C1069 1.367 . S
C1069 C1068 1.367 . S
C1069 C1071 1.433 1_655 S
C1070 C1066 1.350 1_455 S
C1070 C1067 1.463 . S
C1070 N1074 1.427 . S
C1071 H1061 0.929 . S
C1071 C1069 1.433 1_455 S
C1071 N1074 1.384 . S
C1072 H1063 0.929 . S
C1072 C1064 1.378 . S
C1072 C1067 1.350 . S
C1073 H1060 0.929 . S
C1073 C1065 1.433 1_545 S
C1073 N1075 1.384 . S
N1074 C1070 1.427 . S
N1074 C1071 1.384 . S
N1075 C1067 1.427 . S
N1075 C1073 1.384 . S
H1076 C1082 0.930 . S
H1077 C1086 0.930 1_565 S
H1078 C1091 0.929 . S
H1079 C1089 0.929 . S
H1080 C1084 0.929 . S
H1081 C1090 0.929 . S
C1082 H1076 0.930 . S
C1082 C1083 1.367 . S
C1082 C1090 1.378 . S
C1083 C1082 1.367 . S
C1083 C1091 1.433 . S
C1084 H1080 0.929 . S
C1084 C1086 1.378 . S
C1084 C1088 1.350 . S
C1085 C1088 1.463 . S
C1085 C1090 1.350 . S
C1085 N1093 1.427 . S
C1086 H1077 0.930 1_545 S
C1086 C1084 1.378 . S
C1086 C1087 1.367 . S
C1087 C1086 1.367 . S
C1087 C1089 1.433 . S
C1088 C1084 1.350 . S
C1088 C1085 1.463 . S
C1088 N1092 1.427 . S
C1089 H1079 0.929 . S
C1089 C1087 1.433 . S
C1089 N1092 1.384 . S
C1090 H1081 0.929 . S
C1090 C1082 1.378 . S
C1090 C1085 1.350 . S
C1091 H1078 0.929 . S
C1091 C1083 1.433 . S
C1091 N1093 1.384 . S
N1092 C1088 1.427 . S
N1092 C1089 1.384 . S
N1093 C1085 1.427 . S
N1093 C1091 1.384 . S
H1094 C1100 0.930 . S
H1095 C1104 0.930 . S
H1096 C1109 0.929 . S
H1097 C1107 0.929 . S
H1098 C1102 0.929 . S
H1099 C1108 0.929 . S
C1100 H1094 0.930 . S
C1100 C1101 1.367 . S
C1100 C1108 1.378 . S
C1101 C1100 1.367 . S
C1101 C1109 1.433 . S
C1102 H1098 0.929 . S
C1102 C1104 1.378 . S
C1102 C1106 1.350 . S
C1103 C1106 1.463 . S
C1103 C1108 1.350 . S
C1103 N1111 1.427 . S
C1104 H1095 0.930 . S
C1104 C1102 1.378 . S
C1104 C1105 1.367 . S
C1105 C1104 1.367 . S
C1105 C1107 1.433 . S
C1106 C1102 1.350 . S
C1106 C1103 1.463 . S
C1106 N1110 1.427 . S
C1107 H1097 0.929 . S
C1107 C1105 1.433 . S
C1107 N1110 1.384 . S
C1108 H1099 0.929 . S
C1108 C1100 1.378 . S
C1108 C1103 1.350 . S
C1109 H1096 0.929 . S
C1109 C1101 1.433 . S
C1109 N1111 1.384 . S
N1110 C1106 1.427 . S
N1110 C1107 1.384 . S
N1111 C1103 1.427 . S
N1111 C1109 1.384 . S
H1112 C1118 0.930 . S
H1113 C1122 0.930 . S
H1114 C1127 0.929 . S
H1115 C1125 0.929 . S
H1116 C1120 0.929 . S
H1117 C1126 0.929 . S
C1118 H1112 0.930 . S
C1118 C1119 1.367 1_455 S
C1118 C1126 1.378 . S
C1119 C1118 1.367 1_655 S
C1119 C1127 1.433 . S
C1120 H1116 0.929 . S
C1120 C1122 1.378 . S
C1120 C1124 1.350 . S
C1121 C1124 1.463 . S
C1121 C1126 1.350 1_655 S
C1121 N1129 1.427 . S
C1122 H1113 0.930 . S
C1122 C1120 1.378 . S
C1122 C1123 1.367 . S
C1123 C1122 1.367 . S
C1123 C1125 1.433 . S
C1124 C1120 1.350 . S
C1124 C1121 1.463 . S
C1124 N1128 1.427 . S
C1125 H1115 0.929 . S
C1125 C1123 1.433 . S
C1125 N1128 1.384 . S
C1126 H1117 0.929 . S
C1126 C1118 1.378 . S
C1126 C1121 1.350 1_455 S
C1127 H1114 0.929 . S
C1127 C1119 1.433 . S
C1127 N1129 1.384 . S
N1128 C1124 1.427 . S
N1128 C1125 1.384 . S
N1129 C1121 1.427 . S
N1129 C1127 1.384 . S
H1130 C1136 0.930 . S
H1131 C1140 0.930 . S
H1132 C1145 0.929 . S
H1133 C1143 0.929 . S
H1134 C1138 0.929 . S
H1135 C1144 0.929 . S
C1136 H1130 0.930 . S
C1136 C1137 1.367 1_565 S
C1136 C1144 1.378 . S
C1137 C1136 1.367 1_545 S
C1137 C1145 1.433 . S
C1138 H1134 0.929 . S
C1138 C1140 1.378 . S
C1138 C1142 1.350 1_455 S
C1139 C1142 1.463 . S
C1139 C1144 1.350 . S
C1139 N1147 1.427 . S
C1140 H1131 0.930 . S
C1140 C1138 1.378 . S
C1140 C1141 1.367 . S
C1141 C1140 1.367 . S
C1141 C1143 1.433 1_455 S
C1142 C1138 1.350 1_655 S
C1142 C1139 1.463 . S
C1142 N1146 1.427 . S
C1143 H1133 0.929 . S
C1143 C1141 1.433 1_655 S
C1143 N1146 1.384 . S
C1144 H1135 0.929 . S
C1144 C1136 1.378 . S
C1144 C1139 1.350 . S
C1145 H1132 0.929 . S
C1145 C1137 1.433 . S
C1145 N1147 1.384 1_545 S
N1146 C1142 1.427 . S
N1146 C1143 1.384 . S
N1147 C1139 1.427 . S
N1147 C1145 1.384 1_565 S
H1148 C1154 0.930 . S
H1149 C1158 0.930 . S
H1150 C1163 0.929 . S
H1151 C1161 0.929 . S
H1152 C1156 0.929 1_545 S
H1153 C1162 0.929 . S
C1154 H1148 0.930 . S
C1154 C1155 1.367 . S
C1154 C1162 1.378 . S
C1155 C1154 1.367 . S
C1155 C1163 1.433 . S
C1156 H1152 0.929 1_565 S
C1156 C1158 1.378 1_565 S
C1156 C1160 1.350 . S
C1157 C1160 1.463 . S
C1157 C1162 1.350 . S
C1157 N1165 1.427 . S
C1158 H1149 0.930 . S
C1158 C1156 1.378 1_545 S
C1158 C1159 1.367 1_545 S
C1159 C1158 1.367 1_565 S
C1159 C1161 1.433 . S
C1160 C1156 1.350 . S
C1160 C1157 1.463 . S
C1160 N1164 1.427 . S
C1161 H1151 0.929 . S
C1161 C1159 1.433 . S
C1161 N1164 1.384 . S
C1162 H1153 0.929 . S
C1162 C1154 1.378 . S
C1162 C1157 1.350 . S
C1163 H1150 0.929 . S
C1163 C1155 1.433 . S
C1163 N1165 1.384 . S
N1164 C1160 1.427 . S
N1164 C1161 1.384 . S
N1165 C1157 1.427 . S
N1165 C1163 1.384 . S
H1166 C1172 0.930 . S
H1167 C1176 0.930 . S
H1168 C1181 0.929 . S
H1169 C1179 0.929 . S
H1170 C1174 0.929 . S
H1171 C1180 0.929 . S
C1172 H1166 0.930 . S
C1172 C1173 1.367 . S
C1172 C1180 1.378 . S
C1173 C1172 1.367 . S
C1173 C1181 1.433 . S
C1174 H1170 0.929 . S
C1174 C1176 1.378 . S
C1174 C1178 1.350 . S
C1175 C1178 1.463 . S
C1175 C1180 1.350 . S
C1175 N1183 1.427 . S
C1176 H1167 0.930 . S
C1176 C1174 1.378 . S
C1176 C1177 1.367 . S
C1177 C1176 1.367 . S
C1177 C1179 1.433 . S
C1178 C1174 1.350 . S
C1178 C1175 1.463 . S
C1178 N1182 1.427 . S
C1179 H1169 0.929 . S
C1179 C1177 1.433 . S
C1179 N1182 1.384 . S
C1180 H1171 0.929 . S
C1180 C1172 1.378 . S
C1180 C1175 1.350 . S
C1181 H1168 0.929 . S
C1181 C1173 1.433 . S
C1181 N1183 1.384 . S
N1182 C1178 1.427 . S
N1182 C1179 1.384 . S
N1183 C1175 1.427 . S
N1183 C1181 1.384 . S
C327 C66 2.036 . S
C331 C8 2.194 1_655 S
C345 C6 2.261 . S
C349 C39 2.563 1_565 S
C363 C59 2.836 . S
C367 C29 2.708 . S
C381 C49 2.563 . S
C385 C68 2.597 . S
C399 C99 2.698 . S
C403 C109 2.553 . S
C417 C119 2.696 1_565 S
C421 C129 2.554 . S
C435 C139 2.289 . S
C439 C146 2.035 . S
C453 C89 2.378 . S
C457 C148 2.397 . S
C471 C179 2.188 1_455 S
C475 C236 2.052 . S
C489 C176 2.255 . S
C493 C188 2.566 1_545 S
C507 C181 2.700 . S
C511 C208 2.840 . S
C525 C201 2.567 . S
C529 C239 2.595 . S
C543 C248 2.695 . S
C547 C261 2.561 . S
C561 C281 2.566 . S
C565 C268 2.690 1_545 S
C579 C316 2.034 . S
C583 C288 2.289 . S
C597 C319 2.395 . S
C601 C241 2.385 . S
C615 C1 0.336 . S
C619 C96 0.408 . S
C633 C116 0.602 . S
C637 C36 0.591 . S
C651 C56 0.311 . S
C655 C136 0.526 . S
C669 C61 0.598 . S
C673 C141 0.612 . S
C687 C246 0.396 . S
C691 C169 0.347 . S
C705 C266 0.573 . S
C709 C186 0.627 . S
C723 C206 0.330 . S
C727 C286 0.515 . S
C741 C309 0.621 . S
C745 C229 0.592 . S
C759 C19 1.219 . S
C763 C48 1.201 . S
C777 C28 1.329 . S
C781 C79 1.357 . S
C795 C128 0.935 . S
C799 C88 0.926 . S
C813 C159 1.153 . S
C817 C108 1.145 . S
C831 C219 1.211 . S
C835 C168 1.220 . S
C849 C228 1.356 . S
C853 C199 1.327 . S
C867 C259 0.925 . S
C871 C299 0.931 . S
C885 C279 1.159 . S
C889 C308 1.164 . S
C903 C161 1.617 . S
C907 C9 1.617 . S
C921 C196 1.427 . S
C925 C26 1.427 . S
C939 C216 1.225 . S
C943 C46 1.225 . S
C957 C69 1.498 . S
C961 C221 1.498 . S
C975 C256 1.213 . S
C979 C86 1.213 . S
C993 C276 1.379 . S
C997 C106 1.379 . S
C1011 C296 1.429 . S
C1015 C126 1.429 . S
C1029 C301 1.570 . S
C1033 C149 1.570 . S
C1047 C156 1.685 1_455 S
C1051 C16 1.647 . S
C1065 C81 1.810 . S
C1069 C21 1.738 . S
C1083 C101 1.770 . S
C1087 C41 1.778 1_545 S
C1101 C121 1.704 . S
C1105 C76 1.733 . S
C1119 C306 1.684 1_655 S
C1123 C166 1.660 . S
C1137 C249 1.813 . S
C1141 C189 1.738 . S
C1155 C269 1.773 . S
C1159 C209 1.775 1_565 S
C1173 C226 1.729 . S
C1177 C289 1.702 . S
