# Generated by pormake.
# Topology wht, (6)-cn, num edge types: 1
# Building blocks:
#     Node 0, Type 0, BuildingBlock: OJICUG_clean_sbu_0, # of connection points: 6
#     Node 1, Type 0, BuildingBlock: OJICUG_clean_sbu_0, # of connection points: 6
#     Node 2, Type 0, BuildingBlock: OJICUG_clean_sbu_0, # of connection points: 6
#     Node 3, Type 0, BuildingBlock: OJICUG_clean_sbu_0, # of connection points: 6
#     Node 4, Type 0, BuildingBlock: OJICUG_clean_sbu_0, # of connection points: 6
#     Node 5, Type 0, BuildingBlock: OJICUG_clean_sbu_0, # of connection points: 6
#     Node 6, Type 0, BuildingBlock: OJICUG_clean_sbu_0, # of connection points: 6
#     Node 7, Type 0, BuildingBlock: OJICUG_clean_sbu_0, # of connection points: 6
#     Edge 8, Type (0, 0), BuildingBlock: CIFDUS_clean_linker_0, # of connection points: 2
#     Edge 9, Type (0, 0), BuildingBlock: CIFDUS_clean_linker_0, # of connection points: 2
#     Edge 10, Type (0, 0), BuildingBlock: CIFDUS_clean_linker_0, # of connection points: 2
#     Edge 11, Type (0, 0), BuildingBlock: CIFDUS_clean_linker_0, # of connection points: 2
#     Edge 12, Type (0, 0), BuildingBlock: CIFDUS_clean_linker_0, # of connection points: 2
#     Edge 13, Type (0, 0), BuildingBlock: CIFDUS_clean_linker_0, # of connection points: 2
#     Edge 14, Type (0, 0), BuildingBlock: CIFDUS_clean_linker_0, # of connection points: 2
#     Edge 15, Type (0, 0), BuildingBlock: CIFDUS_clean_linker_0, # of connection points: 2
#     Edge 16, Type (0, 0), BuildingBlock: CIFDUS_clean_linker_0, # of connection points: 2
#     Edge 17, Type (0, 0), BuildingBlock: CIFDUS_clean_linker_0, # of connection points: 2
#     Edge 18, Type (0, 0), BuildingBlock: CIFDUS_clean_linker_0, # of connection points: 2
#     Edge 19, Type (0, 0), BuildingBlock: CIFDUS_clean_linker_0, # of connection points: 2
#     Edge 20, Type (0, 0), BuildingBlock: CIFDUS_clean_linker_0, # of connection points: 2
#     Edge 21, Type (0, 0), BuildingBlock: CIFDUS_clean_linker_0, # of connection points: 2
#     Edge 22, Type (0, 0), BuildingBlock: CIFDUS_clean_linker_0, # of connection points: 2
#     Edge 23, Type (0, 0), BuildingBlock: CIFDUS_clean_linker_0, # of connection points: 2
#     Edge 24, Type (0, 0), BuildingBlock: CIFDUS_clean_linker_0, # of connection points: 2
#     Edge 25, Type (0, 0), BuildingBlock: CIFDUS_clean_linker_0, # of connection points: 2
#     Edge 26, Type (0, 0), BuildingBlock: CIFDUS_clean_linker_0, # of connection points: 2
#     Edge 27, Type (0, 0), BuildingBlock: CIFDUS_clean_linker_0, # of connection points: 2
#     Edge 28, Type (0, 0), BuildingBlock: CIFDUS_clean_linker_0, # of connection points: 2
#     Edge 29, Type (0, 0), BuildingBlock: CIFDUS_clean_linker_0, # of connection points: 2
#     Edge 30, Type (0, 0), BuildingBlock: CIFDUS_clean_linker_0, # of connection points: 2
#     Edge 31, Type (0, 0), BuildingBlock: CIFDUS_clean_linker_0, # of connection points: 2
# Relax obj value: 0.284
# Max RMSD: 0.260
# Mean RMSD: 0.260
data_MOF--net-wht--node1-OJICUG_clean_sbu_0--edge1-CIFDUS_clean_linker_0
_symmetry_space_group_name_H-M    P1
_symmetry_Int_Tables_number       1
_symmetry_cell_setting            triclinic
loop_
_symmetry_equiv_pos_as_xyz
'x, y, z'
_cell_length_a     23.714047
_cell_length_b     23.692889
_cell_length_c     44.107821
_cell_angle_alpha  89.898999
_cell_angle_beta   89.609235
_cell_angle_gamma 89.910928
loop_
_atom_site_label
_atom_site_type_symbol
_atom_site_fract_x
_atom_site_fract_y
_atom_site_fract_z
_atom_type_partial_charge
Sc0 Sc 0.04711 0.15923 0.12933 0.0
Sc1 Sc 0.16348 0.2442 0.14818 0.0
Sc2 Sc 0.02548 0.29159 0.16384 0.0
O3 O 0.07869 0.23134 0.14737 0.0
C4 C 0.95726 0.25015 0.1062 0.0
C5 C 0.14346 0.19404 0.0822 0.0
C6 C 0.11776 0.36592 0.12992 0.0
C7 C 0.16053 0.11255 0.15959 0.0
C8 C 0.97039 0.17624 0.18793 0.0
C9 C 0.12512 0.29224 0.21227 0.0
O10 O 0.98115 0.2022 0.10485 0.0
O11 O 0.17271 0.22214 0.10094 0.0
O12 O 0.06737 0.35992 0.1395 0.0
O13 O 0.11062 0.10575 0.14979 0.0
O14 O 0.97846 0.22933 0.1895 0.0
O15 O 0.16213 0.26905 0.19533 0.0
O16 O 0.99243 0.14497 0.16763 0.0
O17 O 0.18396 0.16034 0.16139 0.0
O18 O 0.07565 0.30399 0.20339 0.0
O19 O 0.09806 0.16884 0.0895 0.0
O20 O 0.96917 0.28637 0.12627 0.0
O21 O 0.15536 0.32869 0.13349 0.0
Sc22 Sc 0.18122 0.52591 0.41099 0.0
Sc23 Sc 0.2239 0.66468 0.39363 0.0
Sc24 Sc 0.31835 0.5539 0.38265 0.0
O25 O 0.24107 0.58118 0.39598 0.0
C26 C 0.29259 0.46811 0.43661 0.0
C27 C 0.17046 0.62958 0.4574 0.0
C28 C 0.35138 0.66595 0.41583 0.0
C29 C 0.10625 0.61359 0.37389 0.0
C30 C 0.23601 0.46374 0.35325 0.0
C31 C 0.2931 0.64972 0.33345 0.0
O32 O 0.24006 0.47848 0.43888 0.0
O33 O 0.19417 0.66485 0.43964 0.0
O34 O 0.36159 0.61397 0.41096 0.0
O35 O 0.11345 0.56431 0.38474 0.0
O36 O 0.28144 0.4923 0.35325 0.0
O37 O 0.25096 0.67118 0.34707 0.0
O38 O 0.19689 0.47015 0.37299 0.0
O39 O 0.14201 0.65246 0.37692 0.0
O40 O 0.32311 0.61084 0.34486 0.0
O41 O 0.16135 0.57826 0.45009 0.0
O42 O 0.32463 0.49201 0.41748 0.0
O43 O 0.30487 0.68899 0.40918 0.0
Sc44 Sc 0.95373 0.82615 0.63334 0.0
Sc45 Sc 0.81916 0.78412 0.65633 0.0
Sc46 Sc 0.93491 0.6953 0.66902 0.0
O47 O 0.90258 0.76803 0.65288 0.0
C48 C 0.01133 0.71135 0.61095 0.0
C49 C 0.85232 0.82888 0.58962 0.0
C50 C 0.81952 0.65701 0.63683 0.0
C51 C 0.86055 0.90417 0.66589 0.0
C52 C 0.02253 0.79132 0.6908 0.0
C53 C 0.84125 0.71956 0.71882 0.0
O54 O 0.00929 0.76485 0.61255 0.0
O55 O 0.81654 0.82101 0.61096 0.0
O56 O 0.86732 0.64539 0.64863 0.0
O57 O 0.90334 0.89715 0.64873 0.0
O58 O 0.00413 0.74051 0.69104 0.0
O59 O 0.80985 0.74761 0.70105 0.0
O60 O 0.005 0.82911 0.67265 0.0
O61 O 0.83434 0.86306 0.67755 0.0
O62 O 0.88963 0.70148 0.71107 0.0
O63 O 0.90524 0.82557 0.59315 0.0
O64 O 0.98304 0.67976 0.62855 0.0
O65 O 0.79816 0.70601 0.63649 0.0
Sc66 Sc 0.68433 0.44147 0.87925 0.0
Sc67 Sc 0.76635 0.31838 0.88297 0.0
Sc68 Sc 0.81763 0.44614 0.91358 0.0
O69 O 0.75599 0.4019 0.89219 0.0
C70 C 0.77932 0.53372 0.86342 0.0
C71 C 0.7119 0.36511 0.82197 0.0
C72 C 0.88893 0.36483 0.8696 0.0
C73 C 0.63689 0.32064 0.90029 0.0
C74 C 0.70478 0.49902 0.94281 0.0
C75 C 0.81582 0.33 0.95005 0.0
O76 O 0.72939 0.51429 0.86174 0.0
O77 O 0.73915 0.32752 0.83641 0.0
O78 O 0.88564 0.40749 0.88709 0.0
O79 O 0.63035 0.37293 0.89445 0.0
O80 O 0.75814 0.49207 0.94248 0.0
O81 O 0.79682 0.30061 0.92822 0.0
O82 O 0.67296 0.48001 0.92225 0.0
O83 O 0.68395 0.29575 0.89786 0.0
O84 O 0.82397 0.38298 0.94829 0.0
O85 O 0.68984 0.40768 0.83476 0.0
O86 O 0.81652 0.5123 0.88054 0.0
O87 O 0.84877 0.33057 0.86627 0.0
Sc88 Sc 0.55433 0.19671 0.5709 0.0
Sc89 Sc 0.68683 0.25813 0.58005 0.0
Sc90 Sc 0.56644 0.32688 0.60763 0.0
O91 O 0.60213 0.26127 0.58569 0.0
C92 C 0.47832 0.3023 0.55459 0.0
C93 C 0.64811 0.2117 0.51791 0.0
C94 C 0.66412 0.39039 0.57385 0.0
C95 C 0.65935 0.13307 0.59755 0.0
C96 C 0.4937 0.22561 0.63382 0.0
C97 C 0.67597 0.30044 0.64709 0.0
O98 O 0.49781 0.25389 0.54715 0.0
O99 O 0.6792 0.24639 0.53207 0.0
O100 O 0.61218 0.38878 0.58128 0.0
O101 O 0.60598 0.1369 0.59569 0.0
O102 O 0.51819 0.2728 0.63723 0.0
O103 O 0.69997 0.26762 0.62818 0.0
O104 O 0.49945 0.19596 0.61003 0.0
O105 O 0.69209 0.16937 0.586 0.0
O106 O 0.63108 0.32769 0.64125 0.0
O107 O 0.605 0.1882 0.52995 0.0
O108 O 0.49775 0.33131 0.57638 0.0
O109 O 0.69529 0.34695 0.57383 0.0
Sc110 Sc 0.17229 0.05839 0.85143 0.0
Sc111 Sc 0.26491 0.17311 0.84868 0.0
Sc112 Sc 0.31451 0.03772 0.82914 0.0
O113 O 0.25057 0.08961 0.8428 0.0
C114 C 0.25351 0.96646 0.88166 0.0
C115 C 0.18843 0.14629 0.90552 0.0
C116 C 0.38213 0.12367 0.87092 0.0
C117 C 0.13972 0.17601 0.82274 0.0
C118 C 0.20908 0.98251 0.79532 0.0
C119 C 0.32909 0.14662 0.78652 0.0
O120 O 0.2064 0.99174 0.87899 0.0
O121 O 0.22994 0.17252 0.89385 0.0
O122 O 0.37783 0.07566 0.85828 0.0
O123 O 0.12985 0.12341 0.82555 0.0
O124 O 0.26166 0.99177 0.79773 0.0
O125 O 0.30256 0.17997 0.80425 0.0
O126 O 0.17229 0.00427 0.81271 0.0
O127 O 0.18583 0.19821 0.83064 0.0
O128 O 0.33709 0.09445 0.79245 0.0
O129 O 0.16232 0.10717 0.89192 0.0
O130 O 0.29642 0.97803 0.86519 0.0
O131 O 0.3447 0.16126 0.86854 0.0
Sc132 Sc 0.44865 0.78971 0.07516 0.0
Sc133 Sc 0.30879 0.74456 0.08949 0.0
Sc134 Sc 0.42325 0.65933 0.11061 0.0
O135 O 0.39352 0.73103 0.09145 0.0
C136 C 0.50053 0.67134 0.05256 0.0
C137 C 0.35141 0.79198 0.02538 0.0
C138 C 0.30996 0.61377 0.07936 0.0
C139 C 0.35489 0.86545 0.10797 0.0
C140 C 0.51541 0.7485 0.13295 0.0
C141 C 0.32768 0.69714 0.1567 0.0
O142 O 0.49835 0.7252 0.0517 0.0
O143 O 0.31261 0.77198 0.04243 0.0
O144 O 0.35729 0.60704 0.09224 0.0
O145 O 0.4049 0.85978 0.09757 0.0
O146 O 0.4928 0.69995 0.13335 0.0
O147 O 0.2967 0.7206 0.13677 0.0
O148 O 0.5018 0.78613 0.11393 0.0
O149 O 0.31763 0.82779 0.10529 0.0
O150 O 0.37489 0.67436 0.15055 0.0
O151 O 0.40142 0.80035 0.03442 0.0
O152 O 0.47341 0.64142 0.07158 0.0
O153 O 0.28829 0.66173 0.07458 0.0
Sc154 Sc 0.67016 0.93144 0.32457 0.0
Sc155 Sc 0.72089 0.80202 0.35306 0.0
Sc156 Sc 0.8024 0.9253 0.36045 0.0
O157 O 0.73146 0.8862 0.34573 0.0
C158 C 0.78305 0.98415 0.29646 0.0
C159 C 0.66986 0.81653 0.28687 0.0
C160 C 0.85085 0.8061 0.33719 0.0
C161 C 0.59946 0.85077 0.36831 0.0
C162 C 0.70763 0.01725 0.37607 0.0
C163 C 0.77422 0.84262 0.41551 0.0
O164 O 0.73066 0.97283 0.29499 0.0
O165 O 0.69173 0.78622 0.30751 0.0
O166 O 0.85698 0.85814 0.3438 0.0
O167 O 0.60323 0.89545 0.35236 0.0
O168 O 0.75634 -0.0042 0.37969 0.0
O169 O 0.74676 0.80741 0.39974 0.0
O170 O 0.67274 -0.00141 0.35689 0.0
O171 O 0.63803 0.81399 0.36933 0.0
O172 O 0.79679 0.88652 0.40424 0.0
O173 O 0.66005 0.8689 0.29005 0.0
O174 O 0.81409 0.96963 0.31851 0.0
O175 O 0.80388 0.7809 0.33869 0.0
H176 H 0.89478 0.09205 0.18012 0.0
H177 H 0.96749 0.19992 0.24808 0.0
H178 H 0.91497 0.15 0.28779 0.0
H179 H 0.85188 0.07295 0.30326 0.0
H180 H 0.7729 0.96969 0.2354 0.0
H181 H 0.82406 0.02073 0.1953 0.0
C182 C 0.89876 0.10465 0.20364 0.0
C183 C 0.9352 0.14904 0.21135 0.0
C184 C 0.86749 0.07662 0.2262 0.0
C185 C 0.93955 0.16584 0.24173 0.0
C186 C 0.90976 0.13723 0.2644 0.0
C187 C 0.84577 0.06195 0.27964 0.0
C188 C 0.80949 0.01745 0.27209 0.0
C189 C 0.87419 0.09217 0.25691 0.0
C190 C 0.80083 0.00391 0.24154 0.0
C191 C 0.83016 0.03288 0.21872 0.0
H192 H 0.2914 0.45822 0.49807 0.0
H193 H 0.35383 0.38036 0.41628 0.0
H194 H 0.41213 0.31579 0.44586 0.0
H195 H 0.4544 0.28969 0.49464 0.0
H196 H 0.3976 0.37301 0.57619 0.0
H197 H 0.32817 0.42649 0.5474 0.0
C198 C 0.31678 0.42613 0.48694 0.0
C199 C 0.31858 0.42376 0.45523 0.0
C200 C 0.35192 0.39057 0.50407 0.0
C201 C 0.35214 0.38275 0.44081 0.0
C202 C 0.38559 0.346 0.45766 0.0
C203 C 0.42605 0.31874 0.50611 0.0
C204 C 0.43152 0.32783 0.53735 0.0
C205 C 0.38726 0.35072 0.48927 0.0
C206 C 0.39471 0.36587 0.55199 0.0
C207 C 0.35492 0.39649 0.53558 0.0
H208 H 0.11232 0.85887 0.6815 0.0
H209 H 0.02314 0.76671 0.75116 0.0
H210 H 0.07718 0.81576 0.79026 0.0
H211 H 0.1406 0.89375 0.8043 0.0
H212 H 0.23238 0.98344 0.73474 0.0
H213 H 0.1867 0.92625 0.6956 0.0
C214 C 0.10576 0.84868 0.70525 0.0
C215 C 0.06364 0.80977 0.71361 0.0
C216 C 0.13678 0.87712 0.72744 0.0
C217 C 0.0556 0.79633 0.74431 0.0
C218 C 0.08605 0.82478 0.76661 0.0
C219 C 0.15109 0.90002 0.78055 0.0
C220 C 0.18888 0.94303 0.77214 0.0
C221 C 0.12525 0.86662 0.75841 0.0
C222 C 0.20317 0.95056 0.74152 0.0
C223 C 0.17695 0.91807 0.71925 0.0
H224 H 0.6138 0.6731 0.04085 0.0
H225 H 0.45674 0.5982 0.01329 0.0
H226 H 0.50676 0.53642 0.97802 0.0
H227 H 0.59391 0.5024 0.95607 0.0
H228 H 0.75323 0.57384 0.98293 0.0
H229 H 0.70377 0.63731 0.01819 0.0
C230 C 0.59088 0.64382 0.02665 0.0
C231 C 0.53182 0.64048 0.02908 0.0
C232 C 0.62023 0.60721 0.00692 0.0
C233 C 0.50221 0.60164 0.01134 0.0
C234 C 0.53075 0.56614 0.9914 0.0
C235 C 0.61818 0.53175 0.96959 0.0
C236 C 0.67724 0.53347 0.96673 0.0
C237 C 0.58964 0.56821 0.98926 0.0
C238 C 0.70774 0.57138 0.9848 0.0
C239 C 0.67942 0.60801 0.00474 0.0
H240 H 0.22849 0.32388 0.23212 0.0
H241 H 0.05549 0.30357 0.26101 0.0
H242 H 0.07616 0.3501 0.30894 0.0
H243 H 0.1403 0.40593 0.33988 0.0
H244 H 0.31234 0.43073 0.30994 0.0
H245 H 0.29512 0.37283 0.26537 0.0
C246 C 0.19571 0.32856 0.24921 0.0
C247 C 0.14053 0.31084 0.24298 0.0
C248 C 0.20745 0.35689 0.27636 0.0
C249 C 0.09824 0.31747 0.2652 0.0
C250 C 0.10996 0.34416 0.29257 0.0
C251 C 0.17431 0.39815 0.32385 0.0
C252 C 0.22726 0.42339 0.32813 0.0
C253 C 0.16394 0.36566 0.29796 0.0
C254 C 0.27087 0.41248 0.3071 0.0
C255 C 0.26114 0.37929 0.28157 0.0
H256 H 0.08381 0.76327 0.57191 0.0
H257 H 0.01298 0.60024 0.59368 0.0
H258 H 0.05879 0.55949 0.54909 0.0
H259 H 0.11312 0.57178 0.50176 0.0
H260 H 0.18281 0.73569 0.4804 0.0
H261 H 0.14336 0.77396 0.52697 0.0
C262 C 0.0787 0.71869 0.56712 0.0
C263 C 0.0445 0.68514 0.58605 0.0
C264 C 0.10466 0.69557 0.54131 0.0
C265 C 0.03894 0.62727 0.57953 0.0
C266 C 0.06495 0.60388 0.55392 0.0
C267 C 0.12012 0.61573 0.50738 0.0
C268 C 0.15042 0.65074 0.48726 0.0
C269 C 0.097 0.6379 0.5343 0.0
C270 C 0.1593 0.7076 0.49517 0.0
C271 C 0.13673 0.72973 0.52188 0.0
H272 H 0.71405 0.59276 0.82336 0.0
H273 H 0.88473 0.5782 0.8563 0.0
H274 H 0.91767 0.6414 0.81656 0.0
H275 H 0.90048 0.69023 0.76865 0.0
H276 H 0.73072 0.70484 0.73496 0.0
H277 H 0.695 0.65332 0.77914 0.0
C278 C 0.7583 0.60407 0.82217 0.0
C279 C 0.79687 0.57965 0.84251 0.0
C280 C 0.77732 0.6403 0.79901 0.0
C281 C 0.85399 0.59561 0.84081 0.0
C282 C 0.87305 0.63177 0.81801 0.0
C283 C 0.85553 0.68304 0.77126 0.0
C284 C 0.81844 0.7005 0.74837 0.0
C285 C 0.83544 0.65273 0.7964 0.0
C286 C 0.7602 0.69176 0.75226 0.0
C287 C 0.73979 0.66185 0.77739 0.0
H288 H 0.93071 0.19207 0.05465 0.0
H289 H 0.89561 0.34721 0.1027 0.0
H290 H 0.84382 0.38304 0.05938 0.0
H291 H 0.81771 0.37513 0.00614 0.0
H292 H 0.85226 0.22116 0.95736 0.0
H293 H 0.89434 0.17985 0.00285 0.0
C294 C 0.91094 0.23332 0.05587 0.0
C295 C 0.91801 0.26716 0.0818 0.0
C296 C 0.88148 0.25415 0.03066 0.0
C297 C 0.89163 0.32038 0.08297 0.0
C298 C 0.86198 0.34109 0.05816 0.0
C299 C 0.83387 0.33226 0.00556 0.0
C300 C 0.83271 0.30153 0.97838 0.0
C301 C 0.8582 0.30909 0.03161 0.0
C302 C 0.8528 0.24569 0.97805 0.0
C303 C 0.87713 0.2222 0.004 0.0
H304 H 0.58407 0.16642 0.47347 0.0
H305 H 0.75571 0.20912 0.49559 0.0
H306 H 0.78982 0.15608 0.45172 0.0
H307 H 0.77135 0.08752 0.41098 0.0
H308 H 0.59908 0.04689 0.38866 0.0
H309 H 0.56502 0.10938 0.42846 0.0
C310 C 0.62886 0.16501 0.46834 0.0
C311 C 0.66727 0.19099 0.48796 0.0
C312 C 0.64824 0.13417 0.44322 0.0
C313 C 0.72517 0.18949 0.48083 0.0
C314 C 0.7448 0.15872 0.45588 0.0
C315 C 0.72638 0.09297 0.41457 0.0
C316 C 0.68798 0.06184 0.39714 0.0
C317 C 0.70682 0.12927 0.43754 0.0
C318 C 0.62974 0.07008 0.40177 0.0
C319 C 0.61008 0.10571 0.42464 0.0
H320 H 0.36527 0.0899 0.7363 0.0
H321 H 0.35021 0.25743 0.77392 0.0
H322 H 0.3983 0.29679 0.72971 0.0
H323 H 0.44844 0.2834 0.68142 0.0
H324 H 0.46151 0.11629 0.6431 0.0
H325 H 0.41022 0.07728 0.68642 0.0
C326 C 0.3723 0.13504 0.73477 0.0
C327 C 0.35446 0.1705 0.75853 0.0
C328 C 0.39977 0.15758 0.70917 0.0
C329 C 0.36334 0.22905 0.75598 0.0
C330 C 0.39107 0.25166 0.73074 0.0
C331 C 0.43989 0.23847 0.68248 0.0
C332 C 0.45915 0.20286 0.65912 0.0
C333 C 0.41006 0.21627 0.70737 0.0
C334 C 0.44711 0.14479 0.66071 0.0
C335 C 0.41793 0.12234 0.68554 0.0
H336 H 0.24962 0.82582 0.00315 0.0
H337 H 0.42408 0.80165 0.97777 0.0
H338 H 0.40774 0.84864 0.92946 0.0
H339 H 0.34709 0.90608 0.89708 0.0
H340 H 0.17317 0.93339 0.92295 0.0
H341 H 0.18613 0.87538 0.96802 0.0
C342 C 0.2837 0.82975 0.98676 0.0
C343 C 0.33808 0.81085 0.99423 0.0
C344 C 0.27438 0.8581 0.95918 0.0
C345 C 0.38191 0.81648 0.97276 0.0
C346 C 0.37268 0.84345 0.94511 0.0
C347 C 0.31173 0.89883 0.91231 0.0
C348 C 0.25952 0.92491 0.9067 0.0
C349 C 0.31957 0.86606 0.93851 0.0
C350 C 0.21412 0.91442 0.92671 0.0
C351 C 0.22143 0.88123 0.9526 0.0
H352 H 0.54649 0.6865 0.18261 0.0
H353 H 0.57575 0.84589 0.13735 0.0
H354 H 0.63138 0.87828 0.17992 0.0
H355 H 0.66294 0.8659 0.23197 0.0
H356 H 0.6343 0.70785 0.27816 0.0
H357 H 0.58808 0.67009 0.23302 0.0
C358 C 0.56574 0.72797 0.18183 0.0
C359 C 0.55599 0.76396 0.15694 0.0
C360 C 0.59756 0.74677 0.20662 0.0
C361 C 0.58175 0.81744 0.1563 0.0
C362 C 0.61365 0.83615 0.18067 0.0
C363 C 0.64721 0.8229 0.23203 0.0
C364 C 0.65123 0.78996 0.25841 0.0
C365 C 0.62038 0.80186 0.20626 0.0
C366 C 0.63163 0.73403 0.25806 0.0
C367 C 0.60487 0.71259 0.23235 0.0
H368 H 0.25142 0.19155 0.95086 0.0
H369 H 0.08496 0.12935 0.93014 0.0
H370 H 0.05654 0.14019 0.9829 0.0
H371 H 0.07989 0.16202 0.03488 0.0
H372 H 0.24598 0.22307 0.05719 0.0
H373 H 0.27365 0.218 0.00365 0.0
C374 C 0.20876 0.18114 0.95789 0.0
C375 C 0.17047 0.15931 0.93674 0.0
C376 C 0.19285 0.18657 0.98847 0.0
C377 C 0.11538 0.14568 0.9461 0.0
C378 C 0.09907 0.15179 0.97624 0.0
C379 C 0.12233 0.17405 0.02819 0.0
C380 C 0.16107 0.19209 0.05006 0.0
C381 C 0.13777 0.17108 -0.00236 0.0
C382 C 0.21545 0.20862 0.04079 0.0
C383 C 0.23126 0.20579 0.01021 0.0
H384 H 0.39609 0.68804 0.2046 0.0
H385 H 0.22087 0.70872 0.18119 0.0
H386 H 0.19452 0.70219 0.23506 0.0
H387 H 0.22169 0.68208 0.28835 0.0
H388 H 0.39759 0.65811 0.30953 0.0
H389 H 0.42342 0.67506 0.25679 0.0
C390 C 0.35198 0.69107 0.21115 0.0
C391 C 0.31033 0.69762 0.18892 0.0
C392 C 0.33741 0.6868 0.24175 0.0
C393 C 0.25364 0.70311 0.19792 0.0
C394 C 0.23863 0.69931 0.22866 0.0
C395 C 0.26564 0.68166 0.28138 0.0
C396 C 0.30774 0.66848 0.3026 0.0
C397 C 0.28016 0.69004 0.25073 0.0
C398 C 0.36453 0.66761 0.29345 0.0
C399 C 0.37932 0.67719 0.26335 0.0
H400 H 0.82574 0.91055 0.45608 0.0
H401 H 0.73325 0.75415 0.4495 0.0
H402 H 0.74331 0.73927 0.50407 0.0
H403 H 0.78389 0.76816 0.55326 0.0
H404 H 0.88022 0.92189 0.55817 0.0
H405 H 0.86211 0.9411 0.50466 0.0
C406 C 0.80761 0.87314 0.46645 0.0
C407 C 0.77933 0.83326 0.44858 0.0
C408 C 0.8138 0.86471 0.49763 0.0
C409 C 0.75573 0.78535 0.46263 0.0
C410 C 0.76128 0.77687 0.49386 0.0
C411 C 0.79965 0.80635 0.54258 0.0
C412 C 0.83278 0.84397 0.5593 0.0
C413 C 0.79077 0.816 0.51154 0.0
C414 C 0.85429 0.89277 0.54547 0.0
C415 C 0.84428 0.90351 0.51495 0.0
H416 H 0.66404 0.39019 0.68308 0.0
H417 H 0.73664 0.22329 0.68047 0.0
H418 H 0.75699 0.22904 0.73495 0.0
H419 H 0.74549 0.27904 0.7841 0.0
H420 H 0.66833 0.44472 0.78457 0.0
H421 H 0.65775 0.44127 0.73017 0.0
C422 C 0.68473 0.35512 0.69434 0.0
C423 C 0.69813 0.30616 0.67803 0.0
C424 C 0.6946 0.35811 0.72539 0.0
C425 C 0.72598 0.26152 0.69269 0.0
C426 C 0.73705 0.2646 0.72383 0.0
C427 C 0.72645 0.31433 0.77226 0.0
C428 C 0.70693 0.36158 0.78863 0.0
C429 C 0.72005 0.31219 0.74059 0.0
C430 C 0.68296 0.40729 0.77283 0.0
C431 C 0.67709 0.40566 0.74159 0.0
H432 H 0.27031 0.10655 0.1439 0.0
H433 H 0.13242 0.00654 0.17894 0.0
H434 H 0.18789 0.92054 0.17105 0.0
H435 H 0.26765 0.87438 0.14682 0.0
H436 H 0.39987 0.97291 0.10477 0.0
H437 H 0.35506 0.05971 0.12356 0.0
C438 C 0.25303 0.06604 0.15068 0.0
C439 C 0.19735 0.06265 0.16206 0.0
C440 C 0.2838 0.01686 0.14437 0.0
C441 C 0.1751 0.00998 0.17021 0.0
C442 C 0.20667 0.96098 0.16552 0.0
C443 C 0.28715 0.9148 0.14186 0.0
C444 C 0.33628 0.9174 0.12369 0.0
C445 C 0.25984 0.96395 0.15137 0.0
C446 C 0.36182 0.96987 0.1184 0.0
C447 C 0.33598 0.01937 0.12899 0.0
H448 H 0.35723 0.7768 0.40246 0.0
H449 H 0.45221 0.64048 0.44272 0.0
H450 H 0.53852 0.69623 0.43803 0.0
H451 H 0.58779 0.77206 0.412 0.0
H452 H 0.49433 0.89924 0.36308 0.0
H453 H 0.4059 0.85931 0.38232 0.0
C454 C 0.39647 0.75974 0.41108 0.0
C455 C 0.39872 0.70405 0.42236 0.0
C456 C 0.44613 0.79005 0.40613 0.0
C457 C 0.44973 0.68288 0.43359 0.0
C458 C 0.49898 0.71459 0.43069 0.0
C459 C 0.54812 0.79163 0.40574 0.0
C460 C 0.54734 0.83723 0.38518 0.0
C461 C 0.49795 0.76642 0.41522 0.0
C462 C 0.4959 0.86343 0.37835 0.0
C463 C 0.44544 0.84041 0.38923 0.0
H464 H 0.76742 0.12957 0.61586 0.0
H465 H 0.6116 0.03543 0.62011 0.0
H466 H 0.65962 0.96029 0.64829 0.0
H467 H 0.74765 0.91787 0.66614 0.0
H468 H 0.9042 0.00958 0.65744 0.0
H469 H 0.85305 0.09101 0.63736 0.0
C470 C 0.74361 0.09261 0.62277 0.0
C471 C 0.68621 0.08736 0.61513 0.0
C472 C 0.77141 0.0499 0.63855 0.0
C473 C 0.65599 0.03995 0.62519 0.0
C474 C 0.68336 -0.00275 0.64141 0.0
C475 C 0.77047 0.95631 0.6608 0.0
C476 C 0.82973 0.95788 0.66326 0.0
C477 C 0.74131 0.00138 0.6476 0.0
C478 C 0.85867 0.00762 0.65583 0.0
C479 C 0.82953 0.05374 0.64401 0.0
H480 H 0.39676 0.2144 0.9069 0.0
H481 H 0.48723 0.0743 0.86709 0.0
H482 H 0.57679 0.12071 0.87849 0.0
H483 H 0.62695 0.20844 0.89014 0.0
H484 H 0.53423 0.35332 0.92291 0.0
H485 H 0.44748 0.29769 0.92363 0.0
C486 C 0.43606 0.19337 0.90111 0.0
C487 C 0.43529 0.14156 0.88541 0.0
C488 C 0.48679 0.22182 0.9059 0.0
C489 C 0.48657 0.11433 0.87891 0.0
C490 C 0.53773 0.1412 0.88512 0.0
C491 C 0.58802 0.22759 0.89811 0.0
C492 C 0.5868 0.2852 0.90614 0.0
C493 C 0.53805 0.19617 0.89711 0.0
C494 C 0.53604 0.30933 0.91629 0.0
C495 C 0.48654 0.27754 0.9167 0.0
H496 H 0.84717 0.57306 0.59709 0.0
H497 H 0.70995 0.64287 0.64966 0.0
H498 H 0.64547 0.5728 0.62932 0.0
H499 H 0.62992 0.48735 0.60025 0.0
H500 H 0.76636 0.41487 0.54806 0.0
H501 H 0.82848 0.49178 0.56331 0.0
C502 C 0.80324 0.57238 0.6041 0.0
C503 C 0.78333 0.61201 0.62517 0.0
C504 C 0.76597 0.53245 0.59187 0.0
C505 C 0.72609 0.61209 0.63364 0.0
C506 C 0.68914 0.57241 0.62188 0.0
C507 C 0.67262 0.4893 0.59133 0.0
C508 C 0.69359 0.44518 0.57333 0.0
C509 C 0.7087 0.53206 0.60124 0.0
C510 C 0.74924 0.44834 0.5621 0.0
C511 C 0.78507 0.49182 0.57116 0.0
H512 H 0.13304 0.28534 0.83966 0.0
H513 H 0.03882 0.15389 0.79503 0.0
H514 H 0.95275 0.21022 0.80008 0.0
H515 H 0.90295 0.28598 0.82601 0.0
H516 H -0.00485 0.40903 0.87812 0.0
H517 H 0.08409 0.36724 0.86065 0.0
C518 C 0.09407 0.26947 0.83021 0.0
C519 C 0.09214 0.21498 0.81732 0.0
C520 C 0.04441 0.30019 0.83508 0.0
C521 C 0.04126 0.19535 0.80524 0.0
C522 C 0.99209 0.22739 0.80834 0.0
C523 C 0.94244 0.30432 0.83338 0.0
C524 C 0.94241 0.34959 0.85415 0.0
C525 C 0.99284 0.2782 0.82472 0.0
C526 C 0.99396 0.37374 0.86256 0.0
C527 C 0.04474 0.34963 0.85269 0.0
H528 H 0.19977 0.60762 0.09363 0.0
H529 H 0.33965 0.50872 0.06002 0.0
H530 H 0.28513 0.42219 0.0676 0.0
H531 H 0.20577 0.37531 0.0917 0.0
H532 H 0.07103 0.47266 0.13222 0.0
H533 H 0.11486 0.55984 0.11334 0.0
C534 C 0.21752 0.56719 0.08705 0.0
C535 C 0.27348 0.56414 0.07622 0.0
C536 C 0.18724 0.51768 0.09324 0.0
C537 C 0.29664 0.51172 0.06832 0.0
C538 C 0.26563 0.46245 0.07285 0.0
C539 C 0.18553 0.41556 0.09626 0.0
C540 C 0.13604 0.4178 0.11408 0.0
C541 C 0.21215 0.46496 0.08663 0.0
C542 C 0.10945 0.46998 0.11888 0.0
C543 C 0.1347 0.5197 0.10823 0.0
H544 H 0.86117 0.69509 0.35008 0.0
H545 H 0.95388 0.83777 0.31469 0.0
H546 H 0.04117 0.78273 0.3165 0.0
H547 H 0.09179 0.70135 0.33603 0.0
H548 H 0.00125 0.56434 0.37874 0.0
H549 H 0.9116 0.60903 0.365 0.0
C550 C 0.90024 0.71378 0.34203 0.0
C551 C 0.90131 0.77065 0.33246 0.0
C552 C 0.9504 0.68294 0.34465 0.0
C553 C 0.95222 0.79434 0.32237 0.0
C554 C 0.00199 0.76291 0.32346 0.0
C555 C 0.05244 0.68068 0.34203 0.0
C556 C 0.05303 0.63032 0.35911 0.0
C557 C 0.00174 0.70823 0.33581 0.0
C558 C 0.00188 0.60329 0.36585 0.0
C559 C 0.95073 0.62918 0.35827 0.0
loop_
_geom_bond_atom_site_label_1
_geom_bond_atom_site_label_2
_geom_bond_distance
_geom_bond_site_symmetry_2
_ccdc_geom_bond_type
Sc0 O3 2.025 . S
Sc0 O10 2.105 1_455 S
Sc0 O13 2.105 . S
Sc0 O16 2.105 1_455 S
Sc0 O19 2.105 . S
Sc1 O3 2.025 . S
Sc1 O11 2.105 . S
Sc1 O15 2.105 . S
Sc1 O17 2.105 . S
Sc1 O21 2.105 . S
Sc2 O3 2.025 . S
Sc2 O12 2.105 . S
Sc2 O14 2.105 1_455 S
Sc2 O18 2.105 . S
Sc2 O20 2.105 1_455 S
O3 Sc0 2.025 . S
O3 Sc1 2.025 . S
O3 Sc2 2.025 . S
C4 O10 1.268 . S
C4 O20 1.268 . S
C5 O11 1.268 . S
C5 O19 1.268 . S
C6 O12 1.268 . S
C6 O21 1.268 . S
C7 O13 1.268 . S
C7 O17 1.268 . S
C8 O14 1.268 . S
C8 O16 1.268 . S
C9 O15 1.268 . S
C9 O18 1.268 . S
O10 Sc0 2.105 1_655 S
O10 C4 1.268 . S
O11 Sc1 2.105 . S
O11 C5 1.268 . S
O12 Sc2 2.105 . S
O12 C6 1.268 . S
O13 Sc0 2.105 . S
O13 C7 1.268 . S
O14 Sc2 2.105 1_655 S
O14 C8 1.268 . S
O15 Sc1 2.105 . S
O15 C9 1.268 . S
O16 Sc0 2.105 1_655 S
O16 C8 1.268 . S
O17 Sc1 2.105 . S
O17 C7 1.268 . S
O18 Sc2 2.105 . S
O18 C9 1.268 . S
O19 Sc0 2.105 . S
O19 C5 1.268 . S
O20 Sc2 2.105 1_655 S
O20 C4 1.268 . S
O21 Sc1 2.105 . S
O21 C6 1.268 . S
Sc22 O25 2.025 . S
Sc22 O32 2.105 . S
Sc22 O35 2.105 . S
Sc22 O38 2.105 . S
Sc22 O41 2.105 . S
Sc23 O25 2.025 . S
Sc23 O33 2.105 . S
Sc23 O37 2.105 . S
Sc23 O39 2.105 . S
Sc23 O43 2.105 . S
Sc24 O25 2.025 . S
Sc24 O34 2.105 . S
Sc24 O36 2.105 . S
Sc24 O40 2.105 . S
Sc24 O42 2.105 . S
O25 Sc22 2.025 . S
O25 Sc23 2.025 . S
O25 Sc24 2.025 . S
C26 O32 1.268 . S
C26 O42 1.268 . S
C27 O33 1.268 . S
C27 O41 1.268 . S
C28 O34 1.268 . S
C28 O43 1.268 . S
C29 O35 1.268 . S
C29 O39 1.268 . S
C30 O36 1.268 . S
C30 O38 1.268 . S
C31 O37 1.268 . S
C31 O40 1.268 . S
O32 Sc22 2.105 . S
O32 C26 1.268 . S
O33 Sc23 2.105 . S
O33 C27 1.268 . S
O34 Sc24 2.105 . S
O34 C28 1.268 . S
O35 Sc22 2.105 . S
O35 C29 1.268 . S
O36 Sc24 2.105 . S
O36 C30 1.268 . S
O37 Sc23 2.105 . S
O37 C31 1.268 . S
O38 Sc22 2.105 . S
O38 C30 1.268 . S
O39 Sc23 2.105 . S
O39 C29 1.268 . S
O40 Sc24 2.105 . S
O40 C31 1.268 . S
O41 Sc22 2.105 . S
O41 C27 1.268 . S
O42 Sc24 2.105 . S
O42 C26 1.268 . S
O43 Sc23 2.105 . S
O43 C28 1.268 . S
Sc44 O47 2.025 . S
Sc44 O54 2.105 1_655 S
Sc44 O57 2.105 . S
Sc44 O60 2.105 1_655 S
Sc44 O63 2.105 . S
Sc45 O47 2.025 . S
Sc45 O55 2.105 . S
Sc45 O59 2.105 . S
Sc45 O61 2.105 . S
Sc45 O65 2.105 . S
Sc46 O47 2.025 . S
Sc46 O56 2.105 . S
Sc46 O58 2.105 1_655 S
Sc46 O62 2.105 . S
Sc46 O64 2.105 1_655 S
O47 Sc44 2.025 . S
O47 Sc45 2.025 . S
O47 Sc46 2.025 . S
C48 O54 1.268 . S
C48 O64 1.268 . S
C49 O55 1.268 . S
C49 O63 1.268 . S
C50 O56 1.268 . S
C50 O65 1.268 . S
C51 O57 1.268 . S
C51 O61 1.268 . S
C52 O58 1.268 . S
C52 O60 1.268 . S
C53 O59 1.268 . S
C53 O62 1.268 . S
O54 Sc44 2.105 1_455 S
O54 C48 1.268 . S
O55 Sc45 2.105 . S
O55 C49 1.268 . S
O56 Sc46 2.105 . S
O56 C50 1.268 . S
O57 Sc44 2.105 . S
O57 C51 1.268 . S
O58 Sc46 2.105 1_455 S
O58 C52 1.268 . S
O59 Sc45 2.105 . S
O59 C53 1.268 . S
O60 Sc44 2.105 1_455 S
O60 C52 1.268 . S
O61 Sc45 2.105 . S
O61 C51 1.268 . S
O62 Sc46 2.105 . S
O62 C53 1.268 . S
O63 Sc44 2.105 . S
O63 C49 1.268 . S
O64 Sc46 2.105 1_455 S
O64 C48 1.268 . S
O65 Sc45 2.105 . S
O65 C50 1.268 . S
Sc66 O69 2.025 . S
Sc66 O76 2.105 . S
Sc66 O79 2.105 . S
Sc66 O82 2.105 . S
Sc66 O85 2.105 . S
Sc67 O69 2.025 . S
Sc67 O77 2.105 . S
Sc67 O81 2.105 . S
Sc67 O83 2.105 . S
Sc67 O87 2.105 . S
Sc68 O69 2.025 . S
Sc68 O78 2.105 . S
Sc68 O80 2.105 . S
Sc68 O84 2.105 . S
Sc68 O86 2.105 . S
O69 Sc66 2.025 . S
O69 Sc67 2.025 . S
O69 Sc68 2.025 . S
C70 O76 1.268 . S
C70 O86 1.268 . S
C71 O77 1.268 . S
C71 O85 1.268 . S
C72 O78 1.268 . S
C72 O87 1.268 . S
C73 O79 1.268 . S
C73 O83 1.268 . S
C74 O80 1.268 . S
C74 O82 1.268 . S
C75 O81 1.268 . S
C75 O84 1.268 . S
O76 Sc66 2.105 . S
O76 C70 1.268 . S
O77 Sc67 2.105 . S
O77 C71 1.268 . S
O78 Sc68 2.105 . S
O78 C72 1.268 . S
O79 Sc66 2.105 . S
O79 C73 1.268 . S
O80 Sc68 2.105 . S
O80 C74 1.268 . S
O81 Sc67 2.105 . S
O81 C75 1.268 . S
O82 Sc66 2.105 . S
O82 C74 1.268 . S
O83 Sc67 2.105 . S
O83 C73 1.268 . S
O84 Sc68 2.105 . S
O84 C75 1.268 . S
O85 Sc66 2.105 . S
O85 C71 1.268 . S
O86 Sc68 2.105 . S
O86 C70 1.268 . S
O87 Sc67 2.105 . S
O87 C72 1.268 . S
Sc88 O91 2.025 . S
Sc88 O98 2.105 . S
Sc88 O101 2.105 . S
Sc88 O104 2.105 . S
Sc88 O107 2.105 . S
Sc89 O91 2.025 . S
Sc89 O99 2.105 . S
Sc89 O103 2.105 . S
Sc89 O105 2.105 . S
Sc89 O109 2.105 . S
Sc90 O91 2.025 . S
Sc90 O100 2.105 . S
Sc90 O102 2.105 . S
Sc90 O106 2.105 . S
Sc90 O108 2.105 . S
O91 Sc88 2.025 . S
O91 Sc89 2.025 . S
O91 Sc90 2.025 . S
C92 O98 1.268 . S
C92 O108 1.268 . S
C93 O99 1.268 . S
C93 O107 1.268 . S
C94 O100 1.268 . S
C94 O109 1.268 . S
C95 O101 1.268 . S
C95 O105 1.268 . S
C96 O102 1.268 . S
C96 O104 1.268 . S
C97 O103 1.268 . S
C97 O106 1.268 . S
O98 Sc88 2.105 . S
O98 C92 1.268 . S
O99 Sc89 2.105 . S
O99 C93 1.268 . S
O100 Sc90 2.105 . S
O100 C94 1.268 . S
O101 Sc88 2.105 . S
O101 C95 1.268 . S
O102 Sc90 2.105 . S
O102 C96 1.268 . S
O103 Sc89 2.105 . S
O103 C97 1.268 . S
O104 Sc88 2.105 . S
O104 C96 1.268 . S
O105 Sc89 2.105 . S
O105 C95 1.268 . S
O106 Sc90 2.105 . S
O106 C97 1.268 . S
O107 Sc88 2.105 . S
O107 C93 1.268 . S
O108 Sc90 2.105 . S
O108 C92 1.268 . S
O109 Sc89 2.105 . S
O109 C94 1.268 . S
Sc110 O113 2.025 . S
Sc110 O120 2.105 1_545 S
Sc110 O123 2.105 . S
Sc110 O126 2.105 1_545 S
Sc110 O129 2.105 . S
Sc111 O113 2.025 . S
Sc111 O121 2.105 . S
Sc111 O125 2.105 . S
Sc111 O127 2.105 . S
Sc111 O131 2.105 . S
Sc112 O113 2.025 . S
Sc112 O122 2.105 . S
Sc112 O124 2.105 1_545 S
Sc112 O128 2.105 . S
Sc112 O130 2.105 1_545 S
O113 Sc110 2.025 . S
O113 Sc111 2.025 . S
O113 Sc112 2.025 . S
C114 O120 1.268 . S
C114 O130 1.268 . S
C115 O121 1.268 . S
C115 O129 1.268 . S
C116 O122 1.268 . S
C116 O131 1.268 . S
C117 O123 1.268 . S
C117 O127 1.268 . S
C118 O124 1.268 . S
C118 O126 1.268 . S
C119 O125 1.268 . S
C119 O128 1.268 . S
O120 Sc110 2.105 1_565 S
O120 C114 1.268 . S
O121 Sc111 2.105 . S
O121 C115 1.268 . S
O122 Sc112 2.105 . S
O122 C116 1.268 . S
O123 Sc110 2.105 . S
O123 C117 1.268 . S
O124 Sc112 2.105 1_565 S
O124 C118 1.268 . S
O125 Sc111 2.105 . S
O125 C119 1.268 . S
O126 Sc110 2.105 1_565 S
O126 C118 1.268 . S
O127 Sc111 2.105 . S
O127 C117 1.268 . S
O128 Sc112 2.105 . S
O128 C119 1.268 . S
O129 Sc110 2.105 . S
O129 C115 1.268 . S
O130 Sc112 2.105 1_565 S
O130 C114 1.268 . S
O131 Sc111 2.105 . S
O131 C116 1.268 . S
Sc132 O135 2.025 . S
Sc132 O142 2.105 . S
Sc132 O145 2.105 . S
Sc132 O148 2.105 . S
Sc132 O151 2.105 . S
Sc133 O135 2.025 . S
Sc133 O143 2.105 . S
Sc133 O147 2.105 . S
Sc133 O149 2.105 . S
Sc133 O153 2.105 . S
Sc134 O135 2.025 . S
Sc134 O144 2.105 . S
Sc134 O146 2.105 . S
Sc134 O150 2.105 . S
Sc134 O152 2.105 . S
O135 Sc132 2.025 . S
O135 Sc133 2.025 . S
O135 Sc134 2.025 . S
C136 O142 1.268 . S
C136 O152 1.268 . S
C137 O143 1.268 . S
C137 O151 1.268 . S
C138 O144 1.268 . S
C138 O153 1.268 . S
C139 O145 1.268 . S
C139 O149 1.268 . S
C140 O146 1.268 . S
C140 O148 1.268 . S
C141 O147 1.268 . S
C141 O150 1.268 . S
O142 Sc132 2.105 . S
O142 C136 1.268 . S
O143 Sc133 2.105 . S
O143 C137 1.268 . S
O144 Sc134 2.105 . S
O144 C138 1.268 . S
O145 Sc132 2.105 . S
O145 C139 1.268 . S
O146 Sc134 2.105 . S
O146 C140 1.268 . S
O147 Sc133 2.105 . S
O147 C141 1.268 . S
O148 Sc132 2.105 . S
O148 C140 1.268 . S
O149 Sc133 2.105 . S
O149 C139 1.268 . S
O150 Sc134 2.105 . S
O150 C141 1.268 . S
O151 Sc132 2.105 . S
O151 C137 1.268 . S
O152 Sc134 2.105 . S
O152 C136 1.268 . S
O153 Sc133 2.105 . S
O153 C138 1.268 . S
Sc154 O157 2.025 . S
Sc154 O164 2.105 1_565 S
Sc154 O167 2.105 . S
Sc154 O170 2.105 1_565 S
Sc154 O173 2.105 . S
Sc155 O157 2.025 . S
Sc155 O165 2.105 . S
Sc155 O169 2.105 . S
Sc155 O171 2.105 . S
Sc155 O175 2.105 . S
Sc156 O157 2.025 . S
Sc156 O166 2.105 . S
Sc156 O168 2.105 1_565 S
Sc156 O172 2.105 . S
Sc156 O174 2.105 1_565 S
O157 Sc154 2.025 . S
O157 Sc155 2.025 . S
O157 Sc156 2.025 . S
C158 O164 1.268 . S
C158 O174 1.268 . S
C159 O165 1.268 . S
C159 O173 1.268 . S
C160 O166 1.268 . S
C160 O175 1.268 . S
C161 O167 1.268 . S
C161 O171 1.268 . S
C162 O168 1.268 . S
C162 O170 1.268 . S
C163 O169 1.268 . S
C163 O172 1.268 . S
O164 Sc154 2.105 1_545 S
O164 C158 1.268 . S
O165 Sc155 2.105 . S
O165 C159 1.268 . S
O166 Sc156 2.105 . S
O166 C160 1.268 . S
O167 Sc154 2.105 . S
O167 C161 1.268 . S
O168 Sc156 2.105 1_545 S
O168 C162 1.268 . S
O169 Sc155 2.105 . S
O169 C163 1.268 . S
O170 Sc154 2.105 1_545 S
O170 C162 1.268 . S
O171 Sc155 2.105 . S
O171 C161 1.268 . S
O172 Sc156 2.105 . S
O172 C163 1.268 . S
O173 Sc154 2.105 . S
O173 C159 1.268 . S
O174 Sc156 2.105 1_545 S
O174 C158 1.268 . S
O175 Sc155 2.105 . S
O175 C160 1.268 . S
H176 C182 0.930 . S
H177 C185 0.930 . S
H178 C186 0.930 . S
H179 C187 0.930 . S
H180 C190 0.930 1_565 S
H181 C191 0.930 . S
C182 H176 0.930 . S
C182 C183 1.355 . S
C182 C184 1.415 . S
C183 C182 1.355 . S
C183 C185 1.419 . S
C184 C182 1.415 . S
C184 C189 1.425 . S
C184 C191 1.409 . S
C185 H177 0.930 . S
C185 C183 1.419 . S
C185 C186 1.362 . S
C186 H178 0.930 . S
C186 C185 1.362 . S
C186 C189 1.409 . S
C187 H179 0.930 . S
C187 C188 1.355 . S
C187 C189 1.415 . S
C188 C187 1.355 . S
C188 C190 1.419 . S
C189 C184 1.425 . S
C189 C186 1.409 . S
C189 C187 1.415 . S
C190 H180 0.930 1_545 S
C190 C188 1.419 . S
C190 C191 1.362 . S
C191 H181 0.930 . S
C191 C184 1.409 . S
C191 C190 1.362 . S
H192 C198 0.930 . S
H193 C201 0.930 . S
H194 C202 0.930 . S
H195 C203 0.930 . S
H196 C206 0.930 . S
H197 C207 0.930 . S
C198 H192 0.930 . S
C198 C199 1.355 . S
C198 C200 1.415 . S
C199 C198 1.355 . S
C199 C201 1.419 . S
C200 C198 1.415 . S
C200 C205 1.425 . S
C200 C207 1.409 . S
C201 H193 0.930 . S
C201 C199 1.419 . S
C201 C202 1.362 . S
C202 H194 0.930 . S
C202 C201 1.362 . S
C202 C205 1.409 . S
C203 H195 0.930 . S
C203 C204 1.355 . S
C203 C205 1.415 . S
C204 C203 1.355 . S
C204 C206 1.419 . S
C205 C200 1.425 . S
C205 C202 1.409 . S
C205 C203 1.415 . S
C206 H196 0.930 . S
C206 C204 1.419 . S
C206 C207 1.362 . S
C207 H197 0.930 . S
C207 C200 1.409 . S
C207 C206 1.362 . S
H208 C214 0.930 . S
H209 C217 0.930 1_655 S
H210 C218 0.930 . S
H211 C219 0.930 . S
H212 C222 0.930 . S
H213 C223 0.930 . S
C214 H208 0.930 . S
C214 C215 1.355 . S
C214 C216 1.415 . S
C215 C214 1.355 . S
C215 C217 1.419 . S
C216 C214 1.415 . S
C216 C221 1.425 . S
C216 C223 1.409 . S
C217 H209 0.930 1_455 S
C217 C215 1.419 . S
C217 C218 1.362 . S
C218 H210 0.930 . S
C218 C217 1.362 . S
C218 C221 1.409 . S
C219 H211 0.930 . S
C219 C220 1.355 . S
C219 C221 1.415 . S
C220 C219 1.355 . S
C220 C222 1.419 . S
C221 C216 1.425 . S
C221 C218 1.409 . S
C221 C219 1.415 . S
C222 H212 0.930 . S
C222 C220 1.419 . S
C222 C223 1.362 . S
C223 H213 0.930 . S
C223 C216 1.409 . S
C223 C222 1.362 . S
H224 C230 0.930 . S
H225 C233 0.930 . S
H226 C234 0.930 . S
H227 C235 0.930 . S
H228 C238 0.930 . S
H229 C239 0.930 . S
C230 H224 0.930 . S
C230 C231 1.355 . S
C230 C232 1.433 . S
C231 C230 1.355 . S
C231 C233 1.419 . S
C232 C230 1.433 . S
C232 C237 1.424 1_554 S
C232 C239 1.392 1_554 S
C233 H225 0.930 . S
C233 C231 1.419 . S
C233 C234 1.362 . S
C234 H226 0.930 . S
C234 C233 1.362 . S
C234 C237 1.392 1_554 S
C235 H227 0.930 . S
C235 C236 1.355 . S
C235 C237 1.434 . S
C236 C235 1.355 . S
C236 C238 1.419 . S
C237 C232 1.424 1_556 S
C237 C234 1.392 1_556 S
C237 C235 1.434 . S
C238 H228 0.930 . S
C238 C236 1.419 . S
C238 C239 1.362 . S
C239 H229 0.930 . S
C239 C232 1.392 1_556 S
C239 C238 1.362 . S
H240 C246 0.930 . S
H241 C249 0.930 . S
H242 C250 0.930 . S
H243 C251 0.930 . S
H244 C254 0.930 . S
H245 C255 0.930 . S
C246 H240 0.930 . S
C246 C247 1.355 . S
C246 C248 1.415 . S
C247 C246 1.355 . S
C247 C249 1.419 . S
C248 C246 1.415 . S
C248 C253 1.425 . S
C248 C255 1.409 . S
C249 H241 0.930 . S
C249 C247 1.419 . S
C249 C250 1.362 . S
C250 H242 0.930 . S
C250 C249 1.362 . S
C250 C253 1.409 . S
C251 H243 0.930 . S
C251 C252 1.355 . S
C251 C253 1.415 . S
C252 C251 1.355 . S
C252 C254 1.419 . S
C253 C248 1.425 . S
C253 C250 1.409 . S
C253 C251 1.415 . S
C254 H244 0.930 . S
C254 C252 1.419 . S
C254 C255 1.362 . S
C255 H245 0.930 . S
C255 C248 1.409 . S
C255 C254 1.362 . S
H256 C262 0.930 . S
H257 C265 0.930 . S
H258 C266 0.930 . S
H259 C267 0.930 . S
H260 C270 0.930 . S
H261 C271 0.930 . S
C262 H256 0.930 . S
C262 C263 1.355 . S
C262 C264 1.415 . S
C263 C262 1.355 . S
C263 C265 1.419 . S
C264 C262 1.415 . S
C264 C269 1.425 . S
C264 C271 1.409 . S
C265 H257 0.930 . S
C265 C263 1.419 . S
C265 C266 1.362 . S
C266 H258 0.930 . S
C266 C265 1.362 . S
C266 C269 1.409 . S
C267 H259 0.930 . S
C267 C268 1.355 . S
C267 C269 1.415 . S
C268 C267 1.355 . S
C268 C270 1.419 . S
C269 C264 1.425 . S
C269 C266 1.409 . S
C269 C267 1.415 . S
C270 H260 0.930 . S
C270 C268 1.419 . S
C270 C271 1.362 . S
C271 H261 0.930 . S
C271 C264 1.409 . S
C271 C270 1.362 . S
H272 C278 0.930 . S
H273 C281 0.930 . S
H274 C282 0.930 . S
H275 C283 0.930 . S
H276 C286 0.930 . S
H277 C287 0.930 . S
C278 H272 0.930 . S
C278 C279 1.355 . S
C278 C280 1.415 . S
C279 C278 1.355 . S
C279 C281 1.419 . S
C280 C278 1.415 . S
C280 C285 1.425 . S
C280 C287 1.409 . S
C281 H273 0.930 . S
C281 C279 1.419 . S
C281 C282 1.362 . S
C282 H274 0.930 . S
C282 C281 1.362 . S
C282 C285 1.409 . S
C283 H275 0.930 . S
C283 C284 1.355 . S
C283 C285 1.415 . S
C284 C283 1.355 . S
C284 C286 1.419 . S
C285 C280 1.425 . S
C285 C282 1.409 . S
C285 C283 1.415 . S
C286 H276 0.930 . S
C286 C284 1.419 . S
C286 C287 1.362 . S
C287 H277 0.930 . S
C287 C280 1.409 . S
C287 C286 1.362 . S
H288 C294 0.930 . S
H289 C297 0.930 . S
H290 C298 0.930 . S
H291 C299 0.930 . S
H292 C302 0.930 . S
H293 C303 0.930 . S
C294 H288 0.930 . S
C294 C295 1.355 . S
C294 C296 1.415 . S
C295 C294 1.355 . S
C295 C297 1.419 . S
C296 C294 1.415 . S
C296 C301 1.425 . S
C296 C303 1.409 1_554 S
C297 H289 0.930 . S
C297 C295 1.419 . S
C297 C298 1.362 . S
C298 H290 0.930 . S
C298 C297 1.362 . S
C298 C301 1.409 . S
C299 H291 0.930 . S
C299 C300 1.355 1_554 S
C299 C301 1.415 . S
C300 C299 1.355 1_556 S
C300 C302 1.419 . S
C301 C296 1.425 . S
C301 C298 1.409 . S
C301 C299 1.415 . S
C302 H292 0.930 . S
C302 C300 1.419 . S
C302 C303 1.362 . S
C303 H293 0.930 . S
C303 C296 1.409 1_556 S
C303 C302 1.362 . S
H304 C310 0.930 . S
H305 C313 0.930 . S
H306 C314 0.930 . S
H307 C315 0.930 . S
H308 C318 0.930 . S
H309 C319 0.930 . S
C310 H304 0.930 . S
C310 C311 1.355 . S
C310 C312 1.415 . S
C311 C310 1.355 . S
C311 C313 1.419 . S
C312 C310 1.415 . S
C312 C317 1.425 . S
C312 C319 1.409 . S
C313 H305 0.930 . S
C313 C311 1.419 . S
C313 C314 1.362 . S
C314 H306 0.930 . S
C314 C313 1.362 . S
C314 C317 1.409 . S
C315 H307 0.930 . S
C315 C316 1.355 . S
C315 C317 1.415 . S
C316 C315 1.355 . S
C316 C318 1.419 . S
C317 C312 1.425 . S
C317 C314 1.409 . S
C317 C315 1.415 . S
C318 H308 0.930 . S
C318 C316 1.419 . S
C318 C319 1.362 . S
C319 H309 0.930 . S
C319 C312 1.409 . S
C319 C318 1.362 . S
H320 C326 0.930 . S
H321 C329 0.930 . S
H322 C330 0.930 . S
H323 C331 0.930 . S
H324 C334 0.930 . S
H325 C335 0.930 . S
C326 H320 0.930 . S
C326 C327 1.355 . S
C326 C328 1.415 . S
C327 C326 1.355 . S
C327 C329 1.419 . S
C328 C326 1.415 . S
C328 C333 1.425 . S
C328 C335 1.409 . S
C329 H321 0.930 . S
C329 C327 1.419 . S
C329 C330 1.362 . S
C330 H322 0.930 . S
C330 C329 1.362 . S
C330 C333 1.409 . S
C331 H323 0.930 . S
C331 C332 1.355 . S
C331 C333 1.415 . S
C332 C331 1.355 . S
C332 C334 1.419 . S
C333 C328 1.425 . S
C333 C330 1.409 . S
C333 C331 1.415 . S
C334 H324 0.930 . S
C334 C332 1.419 . S
C334 C335 1.362 . S
C335 H325 0.930 . S
C335 C328 1.409 . S
C335 C334 1.362 . S
H336 C342 0.930 . S
H337 C345 0.930 . S
H338 C346 0.930 . S
H339 C347 0.930 . S
H340 C350 0.930 . S
H341 C351 0.930 . S
C342 H336 0.930 . S
C342 C343 1.355 . S
C342 C344 1.415 1_554 S
C343 C342 1.355 . S
C343 C345 1.419 1_554 S
C344 C342 1.415 1_556 S
C344 C349 1.425 . S
C344 C351 1.409 . S
C345 H337 0.930 . S
C345 C343 1.419 1_556 S
C345 C346 1.362 . S
C346 H338 0.930 . S
C346 C345 1.362 . S
C346 C349 1.409 . S
C347 H339 0.930 . S
C347 C348 1.355 . S
C347 C349 1.415 . S
C348 C347 1.355 . S
C348 C350 1.419 . S
C349 C344 1.425 . S
C349 C346 1.409 . S
C349 C347 1.415 . S
C350 H340 0.930 . S
C350 C348 1.419 . S
C350 C351 1.362 . S
C351 H341 0.930 . S
C351 C344 1.409 . S
C351 C350 1.362 . S
H352 C358 0.930 . S
H353 C361 0.930 . S
H354 C362 0.930 . S
H355 C363 0.930 . S
H356 C366 0.930 . S
H357 C367 0.930 . S
C358 H352 0.930 . S
C358 C359 1.355 . S
C358 C360 1.415 . S
C359 C358 1.355 . S
C359 C361 1.419 . S
C360 C358 1.415 . S
C360 C365 1.425 . S
C360 C367 1.409 . S
C361 H353 0.930 . S
C361 C359 1.419 . S
C361 C362 1.362 . S
C362 H354 0.930 . S
C362 C361 1.362 . S
C362 C365 1.409 . S
C363 H355 0.930 . S
C363 C364 1.355 . S
C363 C365 1.415 . S
C364 C363 1.355 . S
C364 C366 1.419 . S
C365 C360 1.425 . S
C365 C362 1.409 . S
C365 C363 1.415 . S
C366 H356 0.930 . S
C366 C364 1.419 . S
C366 C367 1.362 . S
C367 H357 0.930 . S
C367 C360 1.409 . S
C367 C366 1.362 . S
H368 C374 0.930 . S
H369 C377 0.930 . S
H370 C378 0.915 1_554 S
H371 C379 0.930 . S
H372 C382 0.930 . S
H373 C383 0.915 1_556 S
C374 H368 0.930 . S
C374 C375 1.355 . S
C374 C376 1.415 . S
C375 C374 1.355 . S
C375 C377 1.419 . S
C376 C374 1.415 . S
C376 C381 1.425 1_556 S
C376 C383 1.401 1_556 S
C377 H369 0.930 . S
C377 C375 1.419 . S
C377 C378 1.386 . S
C378 H370 0.915 1_556 S
C378 C377 1.386 . S
C378 C381 1.401 1_556 S
C379 H371 0.930 . S
C379 C380 1.355 . S
C379 C381 1.415 . S
C380 C379 1.355 . S
C380 C382 1.419 . S
C381 C376 1.425 1_554 S
C381 C378 1.401 1_554 S
C381 C379 1.415 . S
C382 H372 0.930 . S
C382 C380 1.419 . S
C382 C383 1.386 . S
C383 H373 0.915 1_554 S
C383 C376 1.401 1_554 S
C383 C382 1.386 . S
H384 C390 0.930 . S
H385 C393 0.930 . S
H386 C394 0.930 . S
H387 C395 0.930 . S
H388 C398 0.930 . S
H389 C399 0.930 . S
C390 H384 0.930 . S
C390 C391 1.355 . S
C390 C392 1.415 . S
C391 C390 1.355 . S
C391 C393 1.419 . S
C392 C390 1.415 . S
C392 C397 1.425 . S
C392 C399 1.409 . S
C393 H385 0.930 . S
C393 C391 1.419 . S
C393 C394 1.362 . S
C394 H386 0.930 . S
C394 C393 1.362 . S
C394 C397 1.409 . S
C395 H387 0.930 . S
C395 C396 1.355 . S
C395 C397 1.415 . S
C396 C395 1.355 . S
C396 C398 1.419 . S
C397 C392 1.425 . S
C397 C394 1.409 . S
C397 C395 1.415 . S
C398 H388 0.930 . S
C398 C396 1.419 . S
C398 C399 1.362 . S
C399 H389 0.930 . S
C399 C392 1.409 . S
C399 C398 1.362 . S
H400 C406 0.930 . S
H401 C409 0.930 . S
H402 C410 0.930 . S
H403 C411 0.930 . S
H404 C414 0.930 . S
H405 C415 0.930 . S
C406 H400 0.930 . S
C406 C407 1.355 . S
C406 C408 1.415 . S
C407 C406 1.355 . S
C407 C409 1.419 . S
C408 C406 1.415 . S
C408 C413 1.425 . S
C408 C415 1.409 . S
C409 H401 0.930 . S
C409 C407 1.419 . S
C409 C410 1.362 . S
C410 H402 0.930 . S
C410 C409 1.362 . S
C410 C413 1.409 . S
C411 H403 0.930 . S
C411 C412 1.355 . S
C411 C413 1.415 . S
C412 C411 1.355 . S
C412 C414 1.419 . S
C413 C408 1.425 . S
C413 C410 1.409 . S
C413 C411 1.415 . S
C414 H404 0.930 . S
C414 C412 1.419 . S
C414 C415 1.362 . S
C415 H405 0.930 . S
C415 C408 1.409 . S
C415 C414 1.362 . S
H416 C422 0.930 . S
H417 C425 0.930 . S
H418 C426 0.930 . S
H419 C427 0.930 . S
H420 C430 0.930 . S
H421 C431 0.930 . S
C422 H416 0.930 . S
C422 C423 1.355 . S
C422 C424 1.415 . S
C423 C422 1.355 . S
C423 C425 1.419 . S
C424 C422 1.415 . S
C424 C429 1.425 . S
C424 C431 1.409 . S
C425 H417 0.930 . S
C425 C423 1.419 . S
C425 C426 1.362 . S
C426 H418 0.930 . S
C426 C425 1.362 . S
C426 C429 1.409 . S
C427 H419 0.930 . S
C427 C428 1.355 . S
C427 C429 1.415 . S
C428 C427 1.355 . S
C428 C430 1.419 . S
C429 C424 1.425 . S
C429 C426 1.409 . S
C429 C427 1.415 . S
C430 H420 0.930 . S
C430 C428 1.419 . S
C430 C431 1.362 . S
C431 H421 0.930 . S
C431 C424 1.409 . S
C431 C430 1.362 . S
H432 C438 0.930 . S
H433 C441 0.930 . S
H434 C442 0.930 . S
H435 C443 0.930 . S
H436 C446 0.930 . S
H437 C447 0.930 . S
C438 H432 0.930 . S
C438 C439 1.355 . S
C438 C440 1.415 . S
C439 C438 1.355 . S
C439 C441 1.419 . S
C440 C438 1.415 . S
C440 C445 1.425 1_545 S
C440 C447 1.409 . S
C441 H433 0.930 . S
C441 C439 1.419 . S
C441 C442 1.362 1_545 S
C442 H434 0.930 . S
C442 C441 1.362 1_565 S
C442 C445 1.409 . S
C443 H435 0.930 . S
C443 C444 1.355 . S
C443 C445 1.415 . S
C444 C443 1.355 . S
C444 C446 1.419 . S
C445 C440 1.425 1_565 S
C445 C442 1.409 . S
C445 C443 1.415 . S
C446 H436 0.930 . S
C446 C444 1.419 . S
C446 C447 1.362 1_565 S
C447 H437 0.930 . S
C447 C440 1.409 . S
C447 C446 1.362 1_545 S
H448 C454 0.930 . S
H449 C457 0.930 . S
H450 C458 0.930 . S
H451 C459 0.930 . S
H452 C462 0.930 . S
H453 C463 0.930 . S
C454 H448 0.930 . S
C454 C455 1.355 . S
C454 C456 1.415 . S
C455 C454 1.355 . S
C455 C457 1.419 . S
C456 C454 1.415 . S
C456 C461 1.425 . S
C456 C463 1.409 . S
C457 H449 0.930 . S
C457 C455 1.419 . S
C457 C458 1.362 . S
C458 H450 0.930 . S
C458 C457 1.362 . S
C458 C461 1.409 . S
C459 H451 0.930 . S
C459 C460 1.355 . S
C459 C461 1.415 . S
C460 C459 1.355 . S
C460 C462 1.419 . S
C461 C456 1.425 . S
C461 C458 1.409 . S
C461 C459 1.415 . S
C462 H452 0.930 . S
C462 C460 1.419 . S
C462 C463 1.362 . S
C463 H453 0.930 . S
C463 C456 1.409 . S
C463 C462 1.362 . S
H464 C470 0.930 . S
H465 C473 0.930 . S
H466 C474 0.930 . S
H467 C475 0.930 . S
H468 C478 0.930 . S
H469 C479 0.930 . S
C470 H464 0.930 . S
C470 C471 1.355 . S
C470 C472 1.415 . S
C471 C470 1.355 . S
C471 C473 1.419 . S
C472 C470 1.415 . S
C472 C477 1.425 1_545 S
C472 C479 1.409 . S
C473 H465 0.930 . S
C473 C471 1.419 . S
C473 C474 1.362 1_545 S
C474 H466 0.930 . S
C474 C473 1.362 1_565 S
C474 C477 1.409 . S
C475 H467 0.930 . S
C475 C476 1.355 . S
C475 C477 1.415 . S
C476 C475 1.355 . S
C476 C478 1.419 . S
C477 C472 1.425 1_565 S
C477 C474 1.409 . S
C477 C475 1.415 . S
C478 H468 0.930 . S
C478 C476 1.419 . S
C478 C479 1.362 1_565 S
C479 H469 0.930 . S
C479 C472 1.409 . S
C479 C478 1.362 1_545 S
H480 C486 0.930 . S
H481 C489 0.930 . S
H482 C490 0.930 . S
H483 C491 0.930 . S
H484 C494 0.930 . S
H485 C495 0.930 . S
C486 H480 0.930 . S
C486 C487 1.355 . S
C486 C488 1.415 . S
C487 C486 1.355 . S
C487 C489 1.419 . S
C488 C486 1.415 . S
C488 C493 1.425 . S
C488 C495 1.409 . S
C489 H481 0.930 . S
C489 C487 1.419 . S
C489 C490 1.362 . S
C490 H482 0.930 . S
C490 C489 1.362 . S
C490 C493 1.409 . S
C491 H483 0.930 . S
C491 C492 1.355 . S
C491 C493 1.415 . S
C492 C491 1.355 . S
C492 C494 1.419 . S
C493 C488 1.425 . S
C493 C490 1.409 . S
C493 C491 1.415 . S
C494 H484 0.930 . S
C494 C492 1.419 . S
C494 C495 1.362 . S
C495 H485 0.930 . S
C495 C488 1.409 . S
C495 C494 1.362 . S
H496 C502 0.930 . S
H497 C505 0.930 . S
H498 C506 0.930 . S
H499 C507 0.930 . S
H500 C510 0.930 . S
H501 C511 0.930 . S
C502 H496 0.930 . S
C502 C503 1.355 . S
C502 C504 1.415 . S
C503 C502 1.355 . S
C503 C505 1.419 . S
C504 C502 1.415 . S
C504 C509 1.425 . S
C504 C511 1.409 . S
C505 H497 0.930 . S
C505 C503 1.419 . S
C505 C506 1.362 . S
C506 H498 0.930 . S
C506 C505 1.362 . S
C506 C509 1.409 . S
C507 H499 0.930 . S
C507 C508 1.355 . S
C507 C509 1.415 . S
C508 C507 1.355 . S
C508 C510 1.419 . S
C509 C504 1.425 . S
C509 C506 1.409 . S
C509 C507 1.415 . S
C510 H500 0.930 . S
C510 C508 1.419 . S
C510 C511 1.362 . S
C511 H501 0.930 . S
C511 C504 1.409 . S
C511 C510 1.362 . S
H512 C518 0.930 . S
H513 C521 0.930 . S
H514 C522 0.930 . S
H515 C523 0.930 . S
H516 C526 0.930 . S
H517 C527 0.930 . S
C518 H512 0.930 . S
C518 C519 1.355 . S
C518 C520 1.415 . S
C519 C518 1.355 . S
C519 C521 1.419 . S
C520 C518 1.415 . S
C520 C525 1.425 1_455 S
C520 C527 1.409 . S
C521 H513 0.930 . S
C521 C519 1.419 . S
C521 C522 1.362 1_455 S
C522 H514 0.930 . S
C522 C521 1.362 1_655 S
C522 C525 1.409 . S
C523 H515 0.930 . S
C523 C524 1.355 . S
C523 C525 1.415 . S
C524 C523 1.355 . S
C524 C526 1.419 . S
C525 C520 1.425 1_655 S
C525 C522 1.409 . S
C525 C523 1.415 . S
C526 H516 0.930 . S
C526 C524 1.419 . S
C526 C527 1.362 1_655 S
C527 H517 0.930 . S
C527 C520 1.409 . S
C527 C526 1.362 1_455 S
H528 C534 0.930 . S
H529 C537 0.930 . S
H530 C538 0.930 . S
H531 C539 0.930 . S
H532 C542 0.930 . S
H533 C543 0.930 . S
C534 H528 0.930 . S
C534 C535 1.355 . S
C534 C536 1.415 . S
C535 C534 1.355 . S
C535 C537 1.419 . S
C536 C534 1.415 . S
C536 C541 1.425 . S
C536 C543 1.409 . S
C537 H529 0.930 . S
C537 C535 1.419 . S
C537 C538 1.362 . S
C538 H530 0.930 . S
C538 C537 1.362 . S
C538 C541 1.409 . S
C539 H531 0.930 . S
C539 C540 1.355 . S
C539 C541 1.415 . S
C540 C539 1.355 . S
C540 C542 1.419 . S
C541 C536 1.425 . S
C541 C538 1.409 . S
C541 C539 1.415 . S
C542 H532 0.930 . S
C542 C540 1.419 . S
C542 C543 1.362 . S
C543 H533 0.930 . S
C543 C536 1.409 . S
C543 C542 1.362 . S
H544 C550 0.930 . S
H545 C553 0.930 . S
H546 C554 0.930 . S
H547 C555 0.930 . S
H548 C558 0.930 . S
H549 C559 0.930 . S
C550 H544 0.930 . S
C550 C551 1.355 . S
C550 C552 1.415 . S
C551 C550 1.355 . S
C551 C553 1.419 . S
C552 C550 1.415 . S
C552 C557 1.425 1_655 S
C552 C559 1.409 . S
C553 H545 0.930 . S
C553 C551 1.419 . S
C553 C554 1.362 1_655 S
C554 H546 0.930 . S
C554 C553 1.362 1_455 S
C554 C557 1.409 . S
C555 H547 0.930 . S
C555 C556 1.355 . S
C555 C557 1.415 . S
C556 C555 1.355 . S
C556 C558 1.419 . S
C557 C552 1.425 1_455 S
C557 C554 1.409 . S
C557 C555 1.415 . S
C558 H548 0.930 . S
C558 C556 1.419 . S
C558 C559 1.362 1_455 S
C559 H549 0.930 . S
C559 C552 1.409 . S
C559 C558 1.362 1_655 S
C183 C8 1.659 . S
C188 C158 1.661 . S
C199 C26 1.659 . S
C204 C92 1.661 . S
C215 C52 1.663 . S
C220 C118 1.661 . S
C231 C136 1.663 . S
C236 C74 1.660 . S
C247 C9 1.408 . S
C252 C30 1.474 . S
C263 C48 1.491 . S
C268 C27 1.368 . S
C279 C70 1.500 . S
C284 C53 1.404 . S
C295 C4 1.488 . S
C300 C75 1.365 . S
C311 C93 1.396 . S
C316 C162 1.499 . S
C327 C119 1.370 . S
C332 C96 1.492 . S
C343 C137 1.440 . S
C348 C114 1.480 . S
C359 C140 1.497 . S
C364 C159 1.447 . S
C375 C115 0.892 . S
C380 C5 0.896 . S
C391 C141 0.882 . S
C396 C31 0.828 . S
C407 C163 0.823 . S
C412 C49 0.829 . S
C423 C97 0.880 . S
C428 C71 0.827 . S
C439 C7 1.478 . S
C444 C139 1.472 . S
C455 C28 1.386 . S
C460 C161 1.506 . S
C471 C95 1.491 . S
C476 C51 1.469 . S
C487 C116 1.430 . S
C492 C73 1.446 . S
C503 C50 1.450 . S
C508 C94 1.389 . S
C519 C117 1.439 . S
C524 C72 1.511 . S
C535 C138 1.455 . S
C540 C6 1.504 . S
C551 C160 1.389 . S
C556 C29 1.508 . S
