# Generated by pormake.
# Topology uml, (4)-cn, num edge types: 1
# Building blocks:
#     Node 0, Type 0, BuildingBlock: GALJAG_clean_sbu_0, # of connection points: 4
#     Node 1, Type 0, BuildingBlock: GALJAG_clean_sbu_0, # of connection points: 4
#     Node 2, Type 0, BuildingBlock: GALJAG_clean_sbu_0, # of connection points: 4
#     Node 3, Type 0, BuildingBlock: GALJAG_clean_sbu_0, # of connection points: 4
#     Node 4, Type 0, BuildingBlock: GALJAG_clean_sbu_0, # of connection points: 4
#     Node 5, Type 0, BuildingBlock: GALJAG_clean_sbu_0, # of connection points: 4
#     Node 6, Type 0, BuildingBlock: GALJAG_clean_sbu_0, # of connection points: 4
#     Node 7, Type 0, BuildingBlock: GALJAG_clean_sbu_0, # of connection points: 4
#     Node 8, Type 0, BuildingBlock: GALJAG_clean_sbu_0, # of connection points: 4
#     Node 9, Type 0, BuildingBlock: GALJAG_clean_sbu_0, # of connection points: 4
#     Node 10, Type 0, BuildingBlock: GALJAG_clean_sbu_0, # of connection points: 4
#     Node 11, Type 0, BuildingBlock: GALJAG_clean_sbu_0, # of connection points: 4
#     Node 12, Type 0, BuildingBlock: GALJAG_clean_sbu_0, # of connection points: 4
#     Node 13, Type 0, BuildingBlock: GALJAG_clean_sbu_0, # of connection points: 4
#     Node 14, Type 0, BuildingBlock: GALJAG_clean_sbu_0, # of connection points: 4
#     Node 15, Type 0, BuildingBlock: GALJAG_clean_sbu_0, # of connection points: 4
#     Node 16, Type 0, BuildingBlock: GALJAG_clean_sbu_0, # of connection points: 4
#     Node 17, Type 0, BuildingBlock: GALJAG_clean_sbu_0, # of connection points: 4
#     Node 18, Type 0, BuildingBlock: GALJAG_clean_sbu_0, # of connection points: 4
#     Node 19, Type 0, BuildingBlock: GALJAG_clean_sbu_0, # of connection points: 4
#     Node 20, Type 0, BuildingBlock: GALJAG_clean_sbu_0, # of connection points: 4
#     Node 21, Type 0, BuildingBlock: GALJAG_clean_sbu_0, # of connection points: 4
#     Node 22, Type 0, BuildingBlock: GALJAG_clean_sbu_0, # of connection points: 4
#     Node 23, Type 0, BuildingBlock: GALJAG_clean_sbu_0, # of connection points: 4
#     Node 24, Type 0, BuildingBlock: GALJAG_clean_sbu_0, # of connection points: 4
#     Node 25, Type 0, BuildingBlock: GALJAG_clean_sbu_0, # of connection points: 4
#     Node 26, Type 0, BuildingBlock: GALJAG_clean_sbu_0, # of connection points: 4
#     Node 27, Type 0, BuildingBlock: GALJAG_clean_sbu_0, # of connection points: 4
#     Node 28, Type 0, BuildingBlock: GALJAG_clean_sbu_0, # of connection points: 4
#     Node 29, Type 0, BuildingBlock: GALJAG_clean_sbu_0, # of connection points: 4
#     Node 30, Type 0, BuildingBlock: GALJAG_clean_sbu_0, # of connection points: 4
#     Node 31, Type 0, BuildingBlock: GALJAG_clean_sbu_0, # of connection points: 4
#     Node 32, Type 0, BuildingBlock: GALJAG_clean_sbu_0, # of connection points: 4
#     Node 33, Type 0, BuildingBlock: GALJAG_clean_sbu_0, # of connection points: 4
#     Node 34, Type 0, BuildingBlock: GALJAG_clean_sbu_0, # of connection points: 4
#     Node 35, Type 0, BuildingBlock: GALJAG_clean_sbu_0, # of connection points: 4
#     Edge 36, Type (0, 0), BuildingBlock: KIFKEQ_clean_linker_1, # of connection points: 2
#     Edge 37, Type (0, 0), BuildingBlock: KIFKEQ_clean_linker_1, # of connection points: 2
#     Edge 38, Type (0, 0), BuildingBlock: KIFKEQ_clean_linker_1, # of connection points: 2
#     Edge 39, Type (0, 0), BuildingBlock: KIFKEQ_clean_linker_1, # of connection points: 2
#     Edge 40, Type (0, 0), BuildingBlock: KIFKEQ_clean_linker_1, # of connection points: 2
#     Edge 41, Type (0, 0), BuildingBlock: KIFKEQ_clean_linker_1, # of connection points: 2
#     Edge 42, Type (0, 0), BuildingBlock: KIFKEQ_clean_linker_1, # of connection points: 2
#     Edge 43, Type (0, 0), BuildingBlock: KIFKEQ_clean_linker_1, # of connection points: 2
#     Edge 44, Type (0, 0), BuildingBlock: KIFKEQ_clean_linker_1, # of connection points: 2
#     Edge 45, Type (0, 0), BuildingBlock: KIFKEQ_clean_linker_1, # of connection points: 2
#     Edge 46, Type (0, 0), BuildingBlock: KIFKEQ_clean_linker_1, # of connection points: 2
#     Edge 47, Type (0, 0), BuildingBlock: KIFKEQ_clean_linker_1, # of connection points: 2
#     Edge 48, Type (0, 0), BuildingBlock: KIFKEQ_clean_linker_1, # of connection points: 2
#     Edge 49, Type (0, 0), BuildingBlock: KIFKEQ_clean_linker_1, # of connection points: 2
#     Edge 50, Type (0, 0), BuildingBlock: KIFKEQ_clean_linker_1, # of connection points: 2
#     Edge 51, Type (0, 0), BuildingBlock: KIFKEQ_clean_linker_1, # of connection points: 2
#     Edge 52, Type (0, 0), BuildingBlock: KIFKEQ_clean_linker_1, # of connection points: 2
#     Edge 53, Type (0, 0), BuildingBlock: KIFKEQ_clean_linker_1, # of connection points: 2
#     Edge 54, Type (0, 0), BuildingBlock: KIFKEQ_clean_linker_1, # of connection points: 2
#     Edge 55, Type (0, 0), BuildingBlock: KIFKEQ_clean_linker_1, # of connection points: 2
#     Edge 56, Type (0, 0), BuildingBlock: KIFKEQ_clean_linker_1, # of connection points: 2
#     Edge 57, Type (0, 0), BuildingBlock: KIFKEQ_clean_linker_1, # of connection points: 2
#     Edge 58, Type (0, 0), BuildingBlock: KIFKEQ_clean_linker_1, # of connection points: 2
#     Edge 59, Type (0, 0), BuildingBlock: KIFKEQ_clean_linker_1, # of connection points: 2
#     Edge 60, Type (0, 0), BuildingBlock: KIFKEQ_clean_linker_1, # of connection points: 2
#     Edge 61, Type (0, 0), BuildingBlock: KIFKEQ_clean_linker_1, # of connection points: 2
#     Edge 62, Type (0, 0), BuildingBlock: KIFKEQ_clean_linker_1, # of connection points: 2
#     Edge 63, Type (0, 0), BuildingBlock: KIFKEQ_clean_linker_1, # of connection points: 2
#     Edge 64, Type (0, 0), BuildingBlock: KIFKEQ_clean_linker_1, # of connection points: 2
#     Edge 65, Type (0, 0), BuildingBlock: KIFKEQ_clean_linker_1, # of connection points: 2
#     Edge 66, Type (0, 0), BuildingBlock: KIFKEQ_clean_linker_1, # of connection points: 2
#     Edge 67, Type (0, 0), BuildingBlock: KIFKEQ_clean_linker_1, # of connection points: 2
#     Edge 68, Type (0, 0), BuildingBlock: KIFKEQ_clean_linker_1, # of connection points: 2
#     Edge 69, Type (0, 0), BuildingBlock: KIFKEQ_clean_linker_1, # of connection points: 2
#     Edge 70, Type (0, 0), BuildingBlock: KIFKEQ_clean_linker_1, # of connection points: 2
#     Edge 71, Type (0, 0), BuildingBlock: KIFKEQ_clean_linker_1, # of connection points: 2
#     Edge 72, Type (0, 0), BuildingBlock: KIFKEQ_clean_linker_1, # of connection points: 2
#     Edge 73, Type (0, 0), BuildingBlock: KIFKEQ_clean_linker_1, # of connection points: 2
#     Edge 74, Type (0, 0), BuildingBlock: KIFKEQ_clean_linker_1, # of connection points: 2
#     Edge 75, Type (0, 0), BuildingBlock: KIFKEQ_clean_linker_1, # of connection points: 2
#     Edge 76, Type (0, 0), BuildingBlock: KIFKEQ_clean_linker_1, # of connection points: 2
#     Edge 77, Type (0, 0), BuildingBlock: KIFKEQ_clean_linker_1, # of connection points: 2
#     Edge 78, Type (0, 0), BuildingBlock: KIFKEQ_clean_linker_1, # of connection points: 2
#     Edge 79, Type (0, 0), BuildingBlock: KIFKEQ_clean_linker_1, # of connection points: 2
#     Edge 80, Type (0, 0), BuildingBlock: KIFKEQ_clean_linker_1, # of connection points: 2
#     Edge 81, Type (0, 0), BuildingBlock: KIFKEQ_clean_linker_1, # of connection points: 2
#     Edge 82, Type (0, 0), BuildingBlock: KIFKEQ_clean_linker_1, # of connection points: 2
#     Edge 83, Type (0, 0), BuildingBlock: KIFKEQ_clean_linker_1, # of connection points: 2
#     Edge 84, Type (0, 0), BuildingBlock: KIFKEQ_clean_linker_1, # of connection points: 2
#     Edge 85, Type (0, 0), BuildingBlock: KIFKEQ_clean_linker_1, # of connection points: 2
#     Edge 86, Type (0, 0), BuildingBlock: KIFKEQ_clean_linker_1, # of connection points: 2
#     Edge 87, Type (0, 0), BuildingBlock: KIFKEQ_clean_linker_1, # of connection points: 2
#     Edge 88, Type (0, 0), BuildingBlock: KIFKEQ_clean_linker_1, # of connection points: 2
#     Edge 89, Type (0, 0), BuildingBlock: KIFKEQ_clean_linker_1, # of connection points: 2
#     Edge 90, Type (0, 0), BuildingBlock: KIFKEQ_clean_linker_1, # of connection points: 2
#     Edge 91, Type (0, 0), BuildingBlock: KIFKEQ_clean_linker_1, # of connection points: 2
#     Edge 92, Type (0, 0), BuildingBlock: KIFKEQ_clean_linker_1, # of connection points: 2
#     Edge 93, Type (0, 0), BuildingBlock: KIFKEQ_clean_linker_1, # of connection points: 2
#     Edge 94, Type (0, 0), BuildingBlock: KIFKEQ_clean_linker_1, # of connection points: 2
#     Edge 95, Type (0, 0), BuildingBlock: KIFKEQ_clean_linker_1, # of connection points: 2
#     Edge 96, Type (0, 0), BuildingBlock: KIFKEQ_clean_linker_1, # of connection points: 2
#     Edge 97, Type (0, 0), BuildingBlock: KIFKEQ_clean_linker_1, # of connection points: 2
#     Edge 98, Type (0, 0), BuildingBlock: KIFKEQ_clean_linker_1, # of connection points: 2
#     Edge 99, Type (0, 0), BuildingBlock: KIFKEQ_clean_linker_1, # of connection points: 2
#     Edge 100, Type (0, 0), BuildingBlock: KIFKEQ_clean_linker_1, # of connection points: 2
#     Edge 101, Type (0, 0), BuildingBlock: KIFKEQ_clean_linker_1, # of connection points: 2
#     Edge 102, Type (0, 0), BuildingBlock: KIFKEQ_clean_linker_1, # of connection points: 2
#     Edge 103, Type (0, 0), BuildingBlock: KIFKEQ_clean_linker_1, # of connection points: 2
#     Edge 104, Type (0, 0), BuildingBlock: KIFKEQ_clean_linker_1, # of connection points: 2
#     Edge 105, Type (0, 0), BuildingBlock: KIFKEQ_clean_linker_1, # of connection points: 2
#     Edge 106, Type (0, 0), BuildingBlock: KIFKEQ_clean_linker_1, # of connection points: 2
#     Edge 107, Type (0, 0), BuildingBlock: KIFKEQ_clean_linker_1, # of connection points: 2
# Relax obj value: 0.085
# Max RMSD: 0.314
# Mean RMSD: 0.220
data_MOF--net-uml--node1-GALJAG_clean_sbu_0--edge1-KIFKEQ_clean_linker_1
_symmetry_space_group_name_H-M    P1
_symmetry_Int_Tables_number       1
_symmetry_cell_setting            triclinic
loop_
_symmetry_equiv_pos_as_xyz
'x, y, z'
_cell_length_a     95.886563
_cell_length_b     95.617105
_cell_length_c     28.950168
_cell_angle_alpha  89.979889
_cell_angle_beta   90.119926
_cell_angle_gamma 116.38735
loop_
_atom_site_label
_atom_site_type_symbol
_atom_site_fract_x
_atom_site_fract_y
_atom_site_fract_z
_atom_type_partial_charge
In0 In 0.34617 0.0912 0.17971 0.0
O1 O 0.32624 0.07938 0.2319 0.0
O2 O 0.34912 0.08516 0.25453 0.0
C3 C 0.33179 0.07214 0.10705 0.0
C4 C 0.34508 0.11891 0.17184 0.0
C5 C 0.37541 0.09546 0.16388 0.0
O6 O 0.34561 0.07581 0.11862 0.0
O7 O 0.32469 0.07698 0.13444 0.0
O8 O 0.37053 0.10504 0.14977 0.0
O9 O 0.36568 0.08417 0.18723 0.0
C10 C 0.33494 0.0796 0.26483 0.0
O11 O 0.35279 0.11637 0.20328 0.0
O12 O 0.33841 0.10775 0.14422 0.0
In13 In 0.89603 0.25324 0.16811 0.0
O14 O 0.87039 0.23455 0.16128 0.0
O15 O 0.88757 0.22747 0.18176 0.0
C16 C 0.88867 0.27658 0.14513 0.0
C17 C 0.90743 0.25776 0.25524 0.0
C18 C 0.91439 0.25497 0.09474 0.0
O19 O 0.88323 0.26376 0.1234 0.0
O20 O 0.89674 0.27703 0.18009 0.0
O21 O 0.91496 0.26694 0.11448 0.0
O22 O 0.9055 0.24235 0.11398 0.0
C23 C 0.87346 0.22341 0.17253 0.0
O24 O 0.91558 0.2579 0.22077 0.0
O25 O 0.89384 0.25575 0.24539 0.0
In26 In 0.74323 0.63186 0.1467 0.0
O27 O 0.76617 0.62969 0.15281 0.0
O28 O 0.76711 0.65234 0.14743 0.0
C29 C 0.71848 0.60384 0.13742 0.0
C30 C 0.73882 0.63894 0.23329 0.0
C31 C 0.73935 0.64082 0.06172 0.0
O32 O 0.73215 0.60573 0.12835 0.0
O33 O 0.71763 0.61573 0.15323 0.0
O34 O 0.73698 0.64711 0.0975 0.0
O35 O 0.74397 0.63058 0.06939 0.0
C36 C 0.77457 0.64436 0.15159 0.0
O37 O 0.7373 0.64628 0.19865 0.0
O38 O 0.74234 0.62797 0.22387 0.0
In39 In 0.09973 0.35129 0.32408 0.0
O40 O 0.12587 0.35855 0.31828 0.0
O41 O 0.11074 0.33496 0.33534 0.0
C42 C 0.09742 0.3782 0.32963 0.0
C43 C 0.08984 0.34161 0.23741 0.0
C44 C 0.08738 0.34142 0.40833 0.0
O45 O 0.11005 0.37749 0.33792 0.0
O46 O 0.0863 0.36552 0.31675 0.0
O47 O 0.08094 0.33378 0.37219 0.0
O48 O 0.09975 0.35369 0.40142 0.0
C49 C 0.12449 0.3451 0.32809 0.0
O50 O 0.08244 0.33402 0.27246 0.0
O51 O 0.10198 0.35395 0.24641 0.0
In52 In 0.62868 0.74632 0.34981 0.0
O53 O 0.6437 0.74165 0.29691 0.0
O54 O 0.62512 0.74637 0.27268 0.0
C55 C 0.63734 0.74208 0.43468 0.0
C56 C 0.64042 0.77773 0.34988 0.0
C57 C 0.60129 0.72074 0.35757 0.0
O58 O 0.64416 0.74044 0.39901 0.0
O59 O 0.62666 0.74607 0.42693 0.0
O60 O 0.60258 0.73422 0.36707 0.0
O61 O 0.61345 0.72049 0.34193 0.0
C62 C 0.63636 0.74338 0.26261 0.0
O63 O 0.62597 0.76904 0.34421 0.0
O64 O 0.64855 0.7705 0.35566 0.0
In65 In 0.25287 0.89191 0.33093 0.0
O66 O 0.25184 0.90937 0.27884 0.0
O67 O 0.25532 0.89019 0.25333 0.0
C68 C 0.25475 0.90424 0.41572 0.0
C69 C 0.22284 0.87017 0.33076 0.0
C70 C 0.28092 0.89202 0.33705 0.0
O71 O 0.25531 0.91196 0.37959 0.0
O72 O 0.25311 0.8906 0.40854 0.0
O73 O 0.26843 0.87974 0.34414 0.0
O74 O 0.2791 0.90383 0.3252 0.0
C75 C 0.25364 0.90228 0.24413 0.0
O76 O 0.23392 0.86635 0.33002 0.0
O77 O 0.22703 0.88466 0.33132 0.0
In78 In 0.65943 0.91713 0.83338 0.0
O79 O 0.67843 0.9325 0.78309 0.0
O80 O 0.655 0.92153 0.75888 0.0
C81 C 0.67249 0.92617 0.91762 0.0
C82 C 0.66146 0.89036 0.81938 0.0
C83 C 0.63333 0.91951 0.8547 0.0
O84 O 0.67401 0.93606 0.88664 0.0
O85 O 0.66517 0.91217 0.90509 0.0
O86 O 0.63339 0.90638 0.85019 0.0
O87 O 0.64615 0.93113 0.84624 0.0
C88 C 0.66913 0.93008 0.74967 0.0
O89 O 0.64849 0.89063 0.82503 0.0
O90 O 0.67317 0.90355 0.81964 0.0
In91 In 0.10388 0.74428 0.83525 0.0
O92 O 0.12921 0.76329 0.83061 0.0
O93 O 0.11077 0.76993 0.82474 0.0
C94 C 0.10715 0.71798 0.85156 0.0
C95 C 0.09287 0.74176 0.7484 0.0
C96 C 0.0909 0.74595 0.91642 0.0
O97 O 0.11777 0.73137 0.86155 0.0
O98 O 0.0954 0.71804 0.83221 0.0
O99 O 0.08265 0.73747 0.88385 0.0
O100 O 0.10517 0.75336 0.9076 0.0
C101 C 0.12527 0.77425 0.82559 0.0
O102 O 0.08532 0.74279 0.78305 0.0
O103 O 0.10568 0.74162 0.75793 0.0
In104 In 0.25767 0.36779 0.8551 0.0
O105 O 0.2352 0.37082 0.84863 0.0
O106 O 0.23341 0.34786 0.85435 0.0
C107 C 0.28249 0.39582 0.86398 0.0
C108 C 0.26185 0.36007 0.76883 0.0
C109 C 0.26129 0.35863 0.9403 0.0
O110 O 0.26883 0.39395 0.87293 0.0
O111 O 0.28333 0.38388 0.84852 0.0
O112 O 0.26365 0.35235 0.9045 0.0
O113 O 0.25684 0.36899 0.93257 0.0
C114 C 0.2264 0.35625 0.84999 0.0
O115 O 0.26311 0.35276 0.8039 0.0
O116 O 0.25873 0.37134 0.77763 0.0
In117 In 0.90504 0.65392 0.68121 0.0
O118 O 0.87857 0.64459 0.68173 0.0
O119 O 0.89265 0.66923 0.68174 0.0
C120 C 0.91043 0.62893 0.67059 0.0
C121 C 0.91483 0.66283 0.76821 0.0
C122 C 0.91564 0.66513 0.59646 0.0
O123 O 0.89678 0.62783 0.669 0.0
O124 O 0.92099 0.64237 0.68017 0.0
O125 O 0.92251 0.67252 0.6325 0.0
O126 O 0.90361 0.65258 0.60376 0.0
C127 C 0.87912 0.65807 0.68144 0.0
O128 O 0.92162 0.6712 0.73366 0.0
O129 O 0.90336 0.64997 0.75856 0.0
In130 In 0.37272 0.25732 0.65043 0.0
O131 O 0.37555 0.23487 0.66159 0.0
O132 O 0.35289 0.23303 0.64812 0.0
C133 C 0.40019 0.28255 0.63967 0.0
C134 C 0.36554 0.26179 0.73696 0.0
C135 C 0.36452 0.26036 0.56364 0.0
O136 O 0.39882 0.26889 0.63267 0.0
O137 O 0.38805 0.28318 0.65393 0.0
O138 O 0.35933 0.26492 0.59784 0.0
O139 O 0.37315 0.25399 0.57396 0.0
C140 C 0.36112 0.22602 0.65626 0.0
O141 O 0.3568 0.26094 0.70297 0.0
O142 O 0.37773 0.26047 0.72692 0.0
In143 In 0.74746 0.10958 0.66261 0.0
O144 O 0.74858 0.0919 0.71427 0.0
O145 O 0.74531 0.11104 0.74057 0.0
C146 C 0.74361 0.09453 0.58134 0.0
C147 C 0.77729 0.13202 0.6571 0.0
C148 C 0.7201 0.11098 0.6558 0.0
O149 O 0.74669 0.08929 0.61813 0.0
O150 O 0.74245 0.10707 0.58589 0.0
O151 O 0.73285 0.12235 0.64438 0.0
O152 O 0.72132 0.09932 0.67217 0.0
C153 C 0.74688 0.09888 0.74932 0.0
O154 O 0.76638 0.13512 0.6702 0.0
O155 O 0.77303 0.11794 0.64672 0.0
In156 In 0.0142 0.42362 0.51063 0.0
O157 O 1.00014 0.40565 0.56585 0.0
O158 O 0.02002 0.42604 0.58727 0.0
C159 C 0.99686 0.40603 0.43936 0.0
C160 C 0.0102 0.44976 0.51272 0.0
C161 C 0.04253 0.42809 0.48153 0.0
O162 O 0.99445 0.41656 0.45846 0.0
O163 O 0.00727 0.40341 0.45851 0.0
O164 O 0.03536 0.4351 0.46378 0.0
O165 O 0.0357 0.41937 0.51528 0.0
C166 C 0.00863 0.41346 0.59899 0.0
O167 O 0.02318 0.45002 0.50336 0.0
O168 O 0.99949 0.43644 0.52209 0.0
In169 In 0.5586 0.58963 0.49585 0.0
O170 O 0.57731 0.59096 0.54776 0.0
O171 O 0.55626 0.59036 0.57368 0.0
C172 C 0.57097 0.59168 0.41109 0.0
C173 C 0.53749 0.55927 0.49574 0.0
C174 C 0.55687 0.61691 0.4876 0.0
O175 O 0.57861 0.59206 0.44731 0.0
O176 O 0.55742 0.59022 0.4182 0.0
O177 O 0.54532 0.60392 0.47924 0.0
O178 O 0.56887 0.61597 0.50201 0.0
C179 C 0.56934 0.59081 0.58281 0.0
O180 O 0.53365 0.57008 0.50433 0.0
O181 O 0.55174 0.56386 0.48722 0.0
In182 In 0.40922 0.9718 0.47163 0.0
O183 O 0.4066 0.9898 0.51829 0.0
O184 O 0.40377 0.96819 0.54785 0.0
C185 C 0.40679 0.98022 0.38448 0.0
C186 C 0.44015 0.98202 0.48361 0.0
C187 C 0.38476 0.94358 0.46107 0.0
O188 O 0.40134 0.9847 0.41814 0.0
O189 O 0.41366 0.97211 0.39543 0.0
O190 O 0.39855 0.94563 0.45344 0.0
O191 O 0.38359 0.95545 0.47562 0.0
C192 C 0.40392 0.98134 0.55401 0.0
O193 O 0.43059 0.96788 0.49074 0.0
O194 O 0.43404 0.99061 0.47037 0.0
In195 In 0.7601 0.68432 0.64881 0.0
O196 O 0.7432 0.66671 0.59732 0.0
O197 O 0.76157 0.68762 0.57128 0.0
C198 C 0.74865 0.67406 0.73343 0.0
C199 C 0.78538 0.67905 0.65127 0.0
C200 C 0.75649 0.71037 0.65933 0.0
O201 O 0.74192 0.66645 0.6975 0.0
O202 O 0.76092 0.68639 0.7261 0.0
O203 O 0.76969 0.71046 0.66271 0.0
O204 O 0.7455 0.69741 0.64774 0.0
C205 C 0.74999 0.67479 0.56231 0.0
O206 O 0.78633 0.69239 0.64214 0.0
O207 O 0.77177 0.66855 0.65839 0.0
In208 In 0.29887 0.07664 0.68729 0.0
O209 O 0.29611 0.09929 0.68117 0.0
O210 O 0.31897 0.10075 0.68293 0.0
C211 C 0.27118 0.0516 0.69738 0.0
C212 C 0.30555 0.07203 0.60037 0.0
C213 C 0.30778 0.07366 0.77341 0.0
O214 O 0.2727 0.06532 0.70428 0.0
O215 O 0.2833 0.0508 0.6838 0.0
O216 O 0.31267 0.06908 0.73863 0.0
O217 O 0.29911 0.08005 0.764 0.0
C218 C 0.31069 0.10794 0.6802 0.0
O219 O 0.31427 0.07258 0.6341 0.0
O220 O 0.29354 0.07365 0.61083 0.0
In221 In 0.92229 0.22726 0.67142 0.0
O222 O 0.90275 0.20238 0.66298 0.0
O223 O 0.89675 0.22135 0.66557 0.0
C224 C 0.94904 0.22481 0.68275 0.0
C225 C 0.92524 0.23911 0.5857 0.0
C226 C 0.9218 0.23754 0.7578 0.0
O227 O 0.93589 0.2132 0.68819 0.0
O228 O 0.94854 0.23721 0.67018 0.0
O229 O 0.92702 0.24701 0.72436 0.0
O230 O 0.91678 0.22337 0.74698 0.0
C231 C 0.89207 0.20678 0.66219 0.0
O232 O 0.92409 0.24643 0.6209 0.0
O233 O 0.92517 0.22611 0.5942 0.0
In234 In 0.32729 0.2435 0.15907 0.0
O235 O 0.34672 0.25576 0.10602 0.0
O236 O 0.32345 0.24919 0.08485 0.0
C237 C 0.34398 0.263 0.22794 0.0
C238 C 0.32751 0.21532 0.16182 0.0
C239 C 0.29839 0.23878 0.18313 0.0
O240 O 0.33135 0.26235 0.21317 0.0
O241 O 0.34897 0.25498 0.20495 0.0
O242 O 0.3043 0.23009 0.19713 0.0
O243 O 0.30672 0.24927 0.15505 0.0
C244 C 0.33761 0.25513 0.07367 0.0
O245 O 0.33116 0.22448 0.19578 0.0
O246 O 0.32322 0.2201 0.12647 0.0
In247 In 0.77419 0.07894 0.16858 0.0
O248 O 0.75678 0.08035 0.1167 0.0
O249 O 0.77588 0.07698 0.09075 0.0
C250 C 0.76107 0.07613 0.25235 0.0
C251 C 0.79645 0.10889 0.17206 0.0
C252 C 0.77352 0.05052 0.17281 0.0
O253 O 0.75476 0.07825 0.21627 0.0
O254 O 0.77378 0.07549 0.24591 0.0
O255 O 0.7859 0.06288 0.18067 0.0
O256 O 0.76189 0.05268 0.1614 0.0
C257 C 0.76385 0.07872 0.08179 0.0
O258 O 0.79982 0.09772 0.1642 0.0
O259 O 0.78218 0.10481 0.17841 0.0
In260 In 0.92343 0.70822 0.18263 0.0
O261 O 0.92805 0.69244 0.13205 0.0
O262 O 0.92371 0.71097 0.10518 0.0
C263 C 0.92747 0.69982 0.26811 0.0
C264 C 0.89215 0.69692 0.18075 0.0
C265 C 0.94895 0.73579 0.18909 0.0
O266 O 0.92907 0.69283 0.23273 0.0
O267 O 0.92367 0.71062 0.25983 0.0
O268 O 0.93556 0.73451 0.199 0.0
O269 O 0.94914 0.72349 0.17399 0.0
C270 C 0.92659 0.69954 0.09674 0.0
O271 O 0.90102 0.71119 0.17241 0.0
O272 O 0.89912 0.68879 0.19042 0.0
In273 In 0.56606 0.98449 0.02794 0.0
O274 O 0.58271 0.00186 0.08005 0.0
O275 O 0.56317 0.98173 0.10545 0.0
C276 C 0.57848 0.99446 0.94406 0.0
C277 C 0.54109 0.99019 0.02129 0.0
C278 C 0.57055 0.9588 0.02297 0.0
O279 O 0.58459 0.00234 0.98013 0.0
O280 O 0.56635 0.98195 0.95085 0.0
O281 O 0.55741 0.95837 0.01445 0.0
O282 O 0.58089 0.97188 0.03641 0.0
C283 C 0.57516 0.9942 0.1148 0.0
O284 O 0.53972 0.97662 0.0293 0.0
O285 O 0.55491 1.00064 0.0175 0.0
In286 In 0.03859 0.5873 0.98934 0.0
O287 O 0.04255 0.56519 0.99624 0.0
O288 O 0.01939 0.56272 0.99104 0.0
C289 C 0.06507 0.61387 0.98077 0.0
C290 C 0.03063 0.59133 0.07495 0.0
C291 C 0.02926 0.59021 0.90408 0.0
O292 O 0.06475 0.60067 0.97279 0.0
O293 O 0.05241 0.61338 0.99482 0.0
O294 O 0.02275 0.59234 0.93962 0.0
O295 O 0.03995 0.58626 0.91206 0.0
C296 C 0.02807 0.55603 0.99539 0.0
O297 O 0.02219 0.59042 0.04023 0.0
O298 O 0.04311 0.59035 0.06628 0.0
In299 In 0.41303 0.44263 0.00154 0.0
O300 O 0.41148 0.42395 0.05353 0.0
O301 O 0.41228 0.4452 0.0793 0.0
C302 C 0.41142 0.4305 0.91646 0.0
C303 C 0.44324 0.46383 0.00273 0.0
C304 C 0.38553 0.44377 0.99451 0.0
O305 O 0.41102 0.42279 0.95249 0.0
O306 O 0.41273 0.44401 0.92388 0.0
O307 O 0.39833 0.45564 0.98709 0.0
O308 O 0.38676 0.43173 0.00731 0.0
C309 C 0.41171 0.43203 0.08849 0.0
O310 O 0.43235 0.4679 0.00418 0.0
O311 O 0.4388 0.44929 1.00074 0.0
In312 In 0.68207 0.76765 0.84648 0.0
O313 O 0.66427 0.75115 0.89802 0.0
O314 O 0.68533 0.76929 0.92416 0.0
C315 C 0.6715 0.75563 0.76243 0.0
C316 C 0.67775 0.79356 0.84263 0.0
C317 C 0.70766 0.76329 0.83653 0.0
O318 O 0.66399 0.74919 0.79868 0.0
O319 O 0.68384 0.76796 0.76914 0.0
O320 O 0.70804 0.77662 0.83214 0.0
O321 O 0.69466 0.75258 0.84889 0.0
C322 C 0.6724 0.75787 0.93307 0.0
O323 O 0.69087 0.79409 0.85198 0.0
O324 O 0.66695 0.78004 0.83612 0.0
In325 In 0.22226 0.91947 0.82679 0.0
O326 O 0.19701 0.90024 0.83512 0.0
O327 O 0.21472 0.89368 0.81645 0.0
C328 C 0.22147 0.9472 0.82059 0.0
C329 C 0.23355 0.92011 0.9125 0.0
C330 C 0.23497 0.92246 0.74232 0.0
O331 O 0.20961 0.93449 0.81171 0.0
O332 O 0.23326 0.94575 0.83434 0.0
O333 O 0.24253 0.9227 0.77853 0.0
O334 O 0.22128 0.92061 0.74924 0.0
C335 C 0.20054 0.8893 0.82528 0.0
O336 O 0.24 0.91789 0.87701 0.0
O337 O 0.22164 0.92219 0.90462 0.0
In338 In 0.0777 0.29701 0.82102 0.0
O339 O 0.0997 0.29329 0.83041 0.0
O340 O 0.10228 0.31604 0.81386 0.0
C341 C 0.0521 0.26958 0.81304 0.0
C342 C 0.07476 0.30526 0.90779 0.0
C343 C 0.07398 0.30614 0.73602 0.0
O344 O 0.0655 0.27085 0.80334 0.0
O345 O 0.0519 0.28181 0.82865 0.0
O346 O 0.07244 0.31297 0.77186 0.0
O347 O 0.07754 0.29513 0.74364 0.0
C348 C 0.10889 0.30751 0.82274 0.0
O349 O 0.07353 0.31274 0.87306 0.0
O350 O 0.07725 0.29366 0.89834 0.0
In351 In 0.42347 0.01799 0.97494 0.0
O352 O 0.40608 0.0023 0.92087 0.0
O353 O 0.42435 0.02379 0.89834 0.0
C354 C 0.40617 0.00179 0.04833 0.0
C355 C 0.4498 0.01429 0.97424 0.0
C356 C 0.42759 0.04678 0.99839 0.0
O357 O 0.40473 0.01307 0.03049 0.0
O358 O 0.41542 0.998 0.02721 0.0
O359 O 0.43586 0.04075 0.01511 0.0
O360 O 0.4178 0.03855 0.96835 0.0
C361 C 0.41263 0.01134 0.88749 0.0
O362 O 0.44976 0.027 0.98575 0.0
O363 O 0.43675 0.00377 0.96186 0.0
In364 In 0.96804 0.40645 0.01698 0.0
O365 O 0.98429 0.40242 0.96658 0.0
O366 O 0.9655 0.40628 0.93961 0.0
C367 C 0.974 0.40106 0.10396 0.0
C368 C 0.97914 0.43786 0.0176 0.0
C369 C 0.94085 0.3804 0.01809 0.0
O370 O 0.98257 0.40089 0.07077 0.0
O371 O 0.9631 0.40442 0.09296 0.0
O372 O 0.94146 0.3937 0.02644 0.0
O373 O 0.95369 0.38057 0.00738 0.0
C374 C 0.97706 0.40367 0.93122 0.0
O375 O 0.96496 0.4289 0.00868 0.0
O376 O 0.98733 0.43091 0.02681 0.0
In377 In 0.58829 0.56 0.99906 0.0
O378 O 0.56881 0.53493 0.99158 0.0
O379 O 0.56263 0.55312 0.00833 0.0
C380 C 0.61551 0.55827 0.00632 0.0
C381 C 0.5892 0.57063 0.91211 0.0
C382 C 0.59061 0.57252 0.08388 0.0
O383 O 0.60259 0.54667 0.01474 0.0
O384 O 0.61453 0.57032 0.99241 0.0
O385 O 0.59067 0.58005 0.04773 0.0
O386 O 0.58936 0.55901 0.07669 0.0
C387 C 0.55805 0.53879 1.00036 0.0
O388 O 0.58959 0.57873 0.94718 0.0
O389 O 0.58862 0.55746 0.92121 0.0
In390 In 0.98579 0.57029 0.48989 0.0
O391 O 0.97664 0.54379 0.48086 0.0
O392 O 0.0006 0.55761 0.4969 0.0
C393 C 0.96088 0.57567 0.49987 0.0
C394 C 0.99645 0.58133 0.40527 0.0
C395 C 0.9958 0.58085 0.57543 0.0
O396 O 0.9598 0.56199 0.50238 0.0
O397 O 0.97424 0.5862 0.48969 0.0
O398 O 0.00329 0.58814 0.54008 0.0
O399 O 0.98371 0.56843 0.5671 0.0
C400 C 0.98979 0.5442 0.4891 0.0
O401 O 0.00504 0.58582 0.44073 0.0
O402 O 0.98253 0.57153 0.41268 0.0
In403 In 0.44292 0.4134 0.50375 0.0
O404 O 0.42412 0.41163 0.45195 0.0
O405 O 0.44531 0.41252 0.42598 0.0
C406 C 0.4309 0.41171 0.5889 0.0
C407 C 0.46372 0.44384 0.50197 0.0
C408 C 0.44457 0.38605 0.5106 0.0
O409 O 0.42306 0.41098 0.5529 0.0
O410 O 0.44449 0.41339 0.58143 0.0
O411 O 0.45629 0.39901 0.5179 0.0
O412 O 0.43242 0.38705 0.49808 0.0
C413 C 0.43212 0.41186 0.41691 0.0
O414 O 0.46798 0.43305 0.50055 0.0
O415 O 0.44921 0.43918 0.50438 0.0
In416 In 0.58815 0.03838 0.53127 0.0
O417 O 0.56622 0.04242 0.52589 0.0
O418 O 0.5636 0.01912 0.5309 0.0
C419 C 0.61439 0.06522 0.53877 0.0
C420 C 0.59114 0.03057 0.44433 0.0
C421 C 0.59116 0.02897 0.61641 0.0
O422 O 0.6012 0.06459 0.54797 0.0
O423 O 0.61407 0.05266 0.52405 0.0
O424 O 0.59307 0.02231 0.58076 0.0
O425 O 0.58747 0.03987 0.60851 0.0
C426 C 0.55702 0.02793 0.52698 0.0
O427 O 0.59215 0.02283 0.47868 0.0
O428 O 0.5889 0.04231 0.45424 0.0
In429 In 0.24078 0.31396 0.35344 0.0
O430 O 0.25786 0.33104 0.40558 0.0
O431 O 0.23877 0.31055 0.431 0.0
C432 C 0.25207 0.3245 0.26858 0.0
C433 C 0.21567 0.3196 0.35294 0.0
C434 C 0.24402 0.2876 0.34535 0.0
O435 O 0.2589 0.33197 0.30456 0.0
O436 O 0.23984 0.31217 0.27597 0.0
O437 O 0.23099 0.28778 0.34035 0.0
O438 O 0.25512 0.30052 0.35671 0.0
C439 C 0.25065 0.32311 0.44037 0.0
O440 O 0.21444 0.30588 0.35471 0.0
O441 O 0.22945 0.33027 0.35191 0.0
In442 In 0.7003 0.92707 0.33023 0.0
O443 O 0.68639 0.93405 0.38146 0.0
O444 O 0.70693 0.93299 0.40549 0.0
C445 C 0.68553 0.93233 0.25754 0.0
C446 C 0.69034 0.89592 0.34161 0.0
C447 C 0.72941 0.94618 0.30103 0.0
O448 O 0.69452 0.94324 0.28336 0.0
O449 O 0.68319 0.91891 0.27053 0.0
O450 O 0.72052 0.93408 0.27891 0.0
O451 O 0.72419 0.94761 0.33976 0.0
C452 C 0.69542 0.93553 0.41498 0.0
O453 O 0.70411 0.90475 0.32877 0.0
O454 O 0.68212 0.90289 0.34934 0.0
In455 In 0.07762 0.77511 0.33376 0.0
O456 O 0.09731 0.79988 0.34427 0.0
O457 O 0.1032 0.78104 0.33434 0.0
C458 C 0.0517 0.77907 0.3199 0.0
C459 C 0.07528 0.76347 0.41971 0.0
C460 C 0.07785 0.76286 0.25019 0.0
O461 O 0.06513 0.78975 0.31093 0.0
O462 O 0.05155 0.76691 0.33716 0.0
O463 O 0.07086 0.75414 0.28393 0.0
O464 O 0.08446 0.77724 0.25906 0.0
C465 C 0.10797 0.79551 0.34056 0.0
O466 O 0.07582 0.75594 0.38431 0.0
O467 O 0.07565 0.7766 0.41138 0.0
H468 H 0.33419 0.07996 0.56299 0.0
H469 H 0.2854 0.0605 0.52838 0.0
H470 H 0.34058 0.07996 0.48163 0.0
H471 H 0.29152 0.05939 0.44735 0.0
H472 H 0.30851 0.07842 0.30297 0.0
H473 H 0.30113 0.075 0.38393 0.0
H474 H 0.3411 0.06693 0.41556 0.0
H475 H 0.34895 0.07147 0.3348 0.0
C476 C 0.32481 0.07534 0.53795 0.0
C477 C 0.30933 0.07035 0.55186 0.0
C478 C 0.32843 0.07523 0.49117 0.0
C479 C 0.3166 0.06977 0.45727 0.0
C480 C 0.30103 0.0641 0.47188 0.0
C481 C 0.29747 0.06458 0.51848 0.0
C482 C 0.3156 0.07573 0.32723 0.0
C483 C 0.32933 0.07528 0.31268 0.0
C484 C 0.31133 0.07367 0.37384 0.0
C485 C 0.32053 0.07075 0.40696 0.0
C486 C 0.3339 0.06955 0.39165 0.0
C487 C 0.33834 0.07198 0.3452 0.0
H488 H 0.9205 0.26389 0.55589 0.0
H489 H 0.93073 0.22678 0.50707 0.0
H490 H 0.9186 0.27122 0.47589 0.0
H491 H 0.92874 0.234 0.42752 0.0
H492 H 0.93365 0.25628 0.28726 0.0
H493 H 0.94046 0.25437 0.36779 0.0
H494 H 0.89965 0.25871 0.41288 0.0
H495 H 0.89294 0.26071 0.33276 0.0
C496 C 0.92254 0.25744 0.52812 0.0
C497 C 0.92567 0.24471 0.53776 0.0
C498 C 0.92138 0.26158 0.48233 0.0
C499 C 0.92347 0.25316 0.44531 0.0
C500 C 0.92723 0.24084 0.45514 0.0
C501 C 0.92827 0.23664 0.50079 0.0
C502 C 0.9263 0.25708 0.31445 0.0
C503 C 0.91271 0.25855 0.30368 0.0
C504 C 0.93014 0.2559 0.36053 0.0
C505 C 0.92055 0.25631 0.39676 0.0
C506 C 0.90737 0.25851 0.38591 0.0
C507 C 0.90347 0.25956 0.33993 0.0
H508 H 0.72923 0.64573 0.53248 0.0
H509 H 0.76075 0.69169 0.48365 0.0
H510 H 0.72389 0.63644 0.45254 0.0
H511 H 0.75552 0.68243 0.4042 0.0
H512 H 0.73515 0.66419 0.26358 0.0
H513 H 0.73521 0.67247 0.34353 0.0
H514 H 0.73959 0.63183 0.39151 0.0
H515 H 0.73941 0.62351 0.31184 0.0
C516 C 0.73485 0.65388 0.50469 0.0
C517 C 0.74546 0.66941 0.51429 0.0
C518 C 0.73187 0.64855 0.45899 0.0
C519 C 0.73932 0.6587 0.42207 0.0
C520 C 0.74946 0.67437 0.43178 0.0
C521 C 0.75254 0.67964 0.47735 0.0
C522 C 0.73593 0.65694 0.29125 0.0
C523 C 0.73739 0.64327 0.28146 0.0
C524 C 0.73602 0.66171 0.33699 0.0
C525 C 0.73747 0.65283 0.37382 0.0
C526 C 0.7383 0.63884 0.36397 0.0
C527 C 0.73831 0.63413 0.31829 0.0
H528 H 0.07416 0.33207 0.93864 0.0
H529 H 0.07407 0.2892 0.98608 0.0
H530 H 0.07548 0.34073 0.0188 0.0
H531 H 0.07547 0.29786 0.06585 0.0
H532 H 0.06731 0.31336 0.20751 0.0
H533 H 0.06124 0.30425 0.12753 0.0
H534 H 0.09597 0.34891 0.07918 0.0
H535 H 0.10195 0.35798 0.15865 0.0
C536 C 0.07425 0.32444 0.96617 0.0
C537 C 0.07411 0.31001 0.95607 0.0
C538 C 0.07507 0.32941 0.01202 0.0
C539 C 0.07563 0.32 0.04866 0.0
C540 C 0.07489 0.30531 0.0385 0.0
C541 C 0.07419 0.30041 0.99274 0.0
C542 C 0.0735 0.32126 0.17971 0.0
C543 C 0.08516 0.33634 0.18933 0.0
C544 C 0.07008 0.31604 0.13398 0.0
C545 C 0.07814 0.32586 0.09702 0.0
C546 C 0.08942 0.34111 0.10676 0.0
C547 C 0.09293 0.34627 0.15236 0.0
H548 H 0.62086 0.74436 0.18469 0.0
H549 H 0.66218 0.74113 0.23107 0.0
H550 H 0.62934 0.74568 0.10483 0.0
H551 H 0.67063 0.74234 0.15086 0.0
H552 H 0.68916 0.76885 0.01206 0.0
H553 H 0.68002 0.76309 0.09145 0.0
H554 H 0.6344 0.73083 0.04232 0.0
H555 H 0.64356 0.7367 0.96251 0.0
C556 C 0.63167 0.74374 0.17777 0.0
C557 C 0.64091 0.74275 0.21417 0.0
C558 C 0.63647 0.74439 0.13196 0.0
C559 C 0.65067 0.74416 0.12151 0.0
C560 C 0.6597 0.7427 0.15787 0.0
C561 C 0.65484 0.74194 0.20375 0.0
C562 C 0.67722 0.76041 0.01817 0.0
C563 C 0.66705 0.75329 0.98106 0.0
C564 C 0.67201 0.75703 0.0637 0.0
C565 C 0.65648 0.74652 0.07319 0.0
C566 C 0.6464 0.73909 0.03607 0.0
C567 C 0.65165 0.74239 0.99043 0.0
H568 H 0.26912 0.89919 0.16916 0.0
H569 H 0.23608 0.91587 0.21105 0.0
H570 H 0.26666 0.90566 0.0892 0.0
H571 H 0.23235 0.92106 0.13102 0.0
H572 H 0.23282 0.93723 0.98651 0.0
H573 H 0.24 0.93518 0.06596 0.0
H574 H 0.25182 0.89817 0.02521 0.0
H575 H 0.24599 0.90145 0.94534 0.0
C576 C 0.26126 0.9042 0.16101 0.0
C577 C 0.25283 0.90709 0.19613 0.0
C578 C 0.25966 0.90776 0.115 0.0
C579 C 0.24915 0.91379 0.1027 0.0
C580 C 0.24084 0.9168 0.13845 0.0
C581 C 0.24286 0.91371 0.18459 0.0
C582 C 0.23721 0.92885 0.99474 0.0
C583 C 0.23889 0.91951 0.95997 0.0
C584 C 0.24116 0.92749 0.0405 0.0
C585 C 0.24635 0.91632 0.053 0.0
C586 C 0.24821 0.90714 0.01756 0.0
C587 C 0.24475 0.9089 0.97155 0.0
H588 H 0.69662 0.9348 0.71084 0.0
H589 H 0.65329 0.93647 0.68136 0.0
H590 H 0.70346 0.93867 0.62959 0.0
H591 H 0.66055 0.94167 0.60033 0.0
H592 H 0.66716 0.92745 0.45422 0.0
H593 H 0.66163 0.92885 0.53544 0.0
H594 H 0.7111 0.95302 0.5639 0.0
H595 H 0.71642 0.95033 0.48304 0.0
C596 C 0.68879 0.93652 0.687 0.0
C597 C 0.6744 0.93523 0.70215 0.0
C598 C 0.69273 0.93884 0.64021 0.0
C599 C 0.68252 0.94035 0.60762 0.0
C600 C 0.66854 0.94008 0.62375 0.0
C601 C 0.66442 0.93729 0.67034 0.0
C602 C 0.67681 0.93321 0.47791 0.0
C603 C 0.69219 0.93866 0.46261 0.0
C604 C 0.67368 0.93415 0.52465 0.0
C605 C 0.68589 0.94095 0.557 0.0
C606 C 0.70133 0.94727 0.5407 0.0
C607 C 0.70443 0.9459 0.4942 0.0
H608 H 0.07183 0.77676 0.49929 0.0
H609 H 0.07861 0.73778 0.4483 0.0
H610 H 0.07402 0.76927 0.57837 0.0
H611 H 0.08066 0.73015 0.52781 0.0
H612 H 0.10643 0.738 0.66979 0.0
H613 H 0.10003 0.74119 0.59019 0.0
H614 H 0.06156 0.74923 0.63794 0.0
H615 H 0.06808 0.74619 0.71786 0.0
C616 C 0.07359 0.76646 0.505 0.0
C617 C 0.07514 0.75791 0.46754 0.0
C618 C 0.07474 0.7621 0.55039 0.0
C619 C 0.07754 0.74912 0.55946 0.0
C620 C 0.07865 0.7403 0.52197 0.0
C621 C 0.0774 0.74462 0.47646 0.0
C622 C 0.09648 0.74025 0.6633 0.0
C623 C 0.08781 0.74194 0.70012 0.0
C624 C 0.09275 0.74199 0.61762 0.0
C625 C 0.08032 0.74554 0.60768 0.0
C626 C 0.07132 0.74668 0.64448 0.0
C627 C 0.07499 0.74485 0.69022 0.0
H628 H 0.27204 0.35185 0.47051 0.0
H629 H 0.23889 0.30649 0.51909 0.0
H630 H 0.27717 0.36125 0.55037 0.0
H631 H 0.24394 0.31585 0.59852 0.0
H632 H 0.26428 0.33401 0.7398 0.0
H633 H 0.264 0.32528 0.66022 0.0
H634 H 0.26167 0.36675 0.61017 0.0
H635 H 0.26204 0.37549 0.68947 0.0
C636 C 0.26601 0.34385 0.49825 0.0
C637 C 0.25502 0.32846 0.48855 0.0
C638 C 0.26887 0.34924 0.54391 0.0
C639 C 0.26093 0.3393 0.58076 0.0
C640 C 0.25038 0.32376 0.57101 0.0
C641 C 0.24742 0.31842 0.52544 0.0
C642 C 0.2639 0.34134 0.71176 0.0
C643 C 0.26309 0.35539 0.72088 0.0
C644 C 0.26367 0.33631 0.66623 0.0
C645 C 0.26276 0.3453 0.6289 0.0
C646 C 0.26254 0.35963 0.63809 0.0
C647 C 0.26265 0.36459 0.68356 0.0
H648 H 0.93624 0.69144 0.79887 0.0
H649 H 0.90321 0.6459 0.84658 0.0
H650 H 0.9415 0.70056 0.87886 0.0
H651 H 0.90834 0.65502 0.92624 0.0
H652 H 0.92862 0.67321 0.06799 0.0
H653 H 0.92819 0.66438 0.98839 0.0
H654 H 0.92608 0.70595 0.93827 0.0
H655 H 0.92663 0.71479 0.0174 0.0
C656 C 0.93024 0.68334 0.82644 0.0
C657 C 0.91924 0.66799 0.81647 0.0
C658 C 0.93319 0.68857 0.8722 0.0
C659 C 0.92528 0.67853 0.90887 0.0
C660 C 0.91475 0.663 0.89886 0.0
C661 C 0.91173 0.65781 0.85317 0.0
C662 C 0.92824 0.68052 0.0399 0.0
C663 C 0.92757 0.69464 0.04891 0.0
C664 C 0.92793 0.67544 0.99438 0.0
C665 C 0.92708 0.68446 0.95704 0.0
C666 C 0.92693 0.69882 0.96618 0.0
C667 C 0.92713 0.70383 0.01157 0.0
H668 H 0.32236 0.26178 0.00378 0.0
H669 H 0.36431 0.25744 0.03439 0.0
H670 H 0.32962 0.26601 0.92249 0.0
H671 H 0.37115 0.26057 0.95306 0.0
H672 H 0.38576 0.27466 0.80794 0.0
H673 H 0.37979 0.27596 0.88895 0.0
H674 H 0.33057 0.25301 0.85662 0.0
H675 H 0.33677 0.25282 0.77507 0.0
C676 C 0.33318 0.26178 0.99302 0.0
C677 C 0.34279 0.25931 0.02537 0.0
C678 C 0.33729 0.26403 0.94627 0.0
C679 C 0.35094 0.2635 0.93053 0.0
C680 C 0.3607 0.26139 0.96345 0.0
C681 C 0.35676 0.25949 0.01029 0.0
C682 C 0.37367 0.2701 0.81823 0.0
C683 C 0.36172 0.26359 0.78534 0.0
C684 C 0.37021 0.27069 0.86484 0.0
C685 C 0.35465 0.26438 0.88004 0.0
C686 C 0.3427 0.25822 0.84661 0.0
C687 C 0.34621 0.258 0.79974 0.0
H688 H 0.73054 0.10104 0.82326 0.0
H689 H 0.76461 0.08552 0.78298 0.0
H690 H 0.73233 0.094 0.90302 0.0
H691 H 0.76769 0.07981 0.8631 0.0
H692 H 0.76601 0.06258 0.00715 0.0
H693 H 0.75974 0.06522 0.92717 0.0
H694 H 0.74634 0.10111 0.96838 0.0
H695 H 0.75126 0.09719 0.04857 0.0
C696 C 0.7385 0.09618 0.83176 0.0
C697 C 0.74741 0.09378 0.79713 0.0
C698 C 0.73972 0.0923 0.8777 0.0
C699 C 0.75033 0.08644 0.89051 0.0
C700 C 0.75912 0.08393 0.85524 0.0
C701 C 0.75748 0.08731 0.80908 0.0
C702 C 0.76147 0.07083 0.99887 0.0
C703 C 0.75906 0.07965 0.03386 0.0
C704 C 0.75804 0.07254 0.95282 0.0
C705 C 0.75266 0.08356 0.94031 0.0
C706 C 0.75011 0.09224 0.97595 0.0
C707 C 0.75303 0.09011 0.02218 0.0
H708 H 0.96048 0.40115 0.85292 0.0
H709 H 0.00416 0.40359 0.90115 0.0
H710 H 0.96851 0.40102 0.77334 0.0
H711 H 0.01225 0.40343 0.8209 0.0
H712 H 0.0266 0.42717 0.67431 0.0
H713 H 0.01915 0.42243 0.75541 0.0
H714 H 0.97464 0.38527 0.71586 0.0
H715 H 0.98209 0.39008 0.63449 0.0
C716 C 0.97176 0.40151 0.8465 0.0
C717 C 0.98174 0.40248 0.88328 0.0
C718 C 0.97631 0.4013 0.80084 0.0
C719 C 0.991 0.40218 0.7908 0.0
C720 C 0.00088 0.40282 0.82761 0.0
C721 C 0.99625 0.40286 0.87348 0.0
C722 C 0.01532 0.41782 0.68295 0.0
C723 C 0.00488 0.40908 0.64803 0.0
C724 C 0.01109 0.41505 0.72945 0.0
C725 C 0.99627 0.40355 0.74203 0.0
C726 C 0.98608 0.39433 0.70717 0.0
C727 C 0.99037 0.39703 0.66063 0.0
H728 H 0.59428 0.58642 0.6127 0.0
H729 H 0.55565 0.5939 0.66196 0.0
H730 H 0.60104 0.5834 0.6925 0.0
H731 H 0.56234 0.59085 0.74137 0.0
H732 H 0.58526 0.59588 0.88233 0.0
H733 H 0.58234 0.60274 0.80257 0.0
H734 H 0.58887 0.56342 0.75351 0.0
H735 H 0.59182 0.55662 0.83288 0.0
C736 C 0.58734 0.58759 0.64055 0.0
C737 C 0.57439 0.59033 0.63101 0.0
C738 C 0.59116 0.58578 0.68623 0.0
C739 C 0.5822 0.58685 0.72334 0.0
C740 C 0.56958 0.59013 0.71372 0.0
C741 C 0.56569 0.59178 0.66813 0.0
C742 C 0.58624 0.58882 0.85445 0.0
C743 C 0.5887 0.57568 0.86393 0.0
C744 C 0.5845 0.5927 0.80879 0.0
C745 C 0.58534 0.58361 0.77164 0.0
C746 C 0.58832 0.57077 0.7812 0.0
C747 C 0.58991 0.56682 0.82676 0.0
H748 H 0.41539 0.03086 0.81592 0.0
H749 H 0.39989 0.98233 0.84981 0.0
H750 H 0.41021 0.02414 0.73447 0.0
H751 H 0.396 0.97557 0.7685 0.0
H752 H 0.38423 0.96404 0.6214 0.0
H753 H 0.38317 0.97167 0.70097 0.0
H754 H 0.42001 0.01772 0.67155 0.0
H755 H 0.41984 0.01028 0.59116 0.0
C756 C 0.41085 0.01873 0.80573 0.0
C757 C 0.40801 0.0071 0.83896 0.0
C758 C 0.40804 0.01484 0.75891 0.0
C759 C 0.40285 0.99927 0.74405 0.0
C760 C 0.39967 0.98764 0.77794 0.0
C761 C 0.402 0.99149 0.82482 0.0
C762 C 0.39183 0.97588 0.63204 0.0
C763 C 0.40211 0.98659 0.60042 0.0
C764 C 0.39141 0.98025 0.67787 0.0
C765 C 0.40172 0.99529 0.69368 0.0
C766 C 0.41167 0.00613 0.66118 0.0
C767 C 0.41169 0.00188 0.61493 0.0
H768 H 0.59195 0.04687 0.36641 0.0
H769 H 0.59117 0.0036 0.41298 0.0
H770 H 0.59009 0.03817 0.28651 0.0
H771 H 0.5894 0.99491 0.33277 0.0
H772 H 0.56253 0.97804 0.19357 0.0
H773 H 0.56862 0.98713 0.27305 0.0
H774 H 0.60402 0.03141 0.22453 0.0
H775 H 0.59784 0.0223 0.14465 0.0
C776 C 0.59158 0.03557 0.35952 0.0
C777 C 0.5916 0.02587 0.39595 0.0
C778 C 0.59061 0.03064 0.31372 0.0
C779 C 0.58953 0.01583 0.30336 0.0
C780 C 0.59005 0.00632 0.33975 0.0
C781 C 0.59114 0.01132 0.38561 0.0
C782 C 0.5717 0.98967 0.19984 0.0
C783 C 0.57966 0.99949 0.16289 0.0
C784 C 0.57527 0.99484 0.24541 0.0
C785 C 0.5868 0.00998 0.25506 0.0
C786 C 0.59499 0.01971 0.21812 0.0
C787 C 0.5915 0.01448 0.17245 0.0
H788 H 0.98087 0.58533 0.33204 0.0
H789 H 0.02517 0.58775 0.37254 0.0
H790 H 0.98969 0.59081 0.25237 0.0
H791 H 0.03368 0.59183 0.29255 0.0
H792 H 0.04949 0.60568 0.14787 0.0
H793 H 0.04187 0.60646 0.22766 0.0
H794 H 0.99354 0.57913 0.18905 0.0
H795 H 0.00127 0.57966 0.10902 0.0
C796 C 0.99253 0.58704 0.32365 0.0
C797 C 0.00236 0.58613 0.35815 0.0
C798 C 0.99757 0.58999 0.27785 0.0
C799 C 0.01237 0.59153 0.26523 0.0
C800 C 0.02233 0.59101 0.30045 0.0
C801 C 0.01744 0.58857 0.34647 0.0
C802 C 0.03723 0.60007 0.15666 0.0
C803 C 0.02595 0.59261 0.12254 0.0
C804 C 0.03283 0.60035 0.20251 0.0
C805 C 0.01704 0.59271 0.21556 0.0
C806 C 0.00578 0.58546 0.18079 0.0
C807 C 0.01018 0.58562 0.13475 0.0
H808 H 0.40906 0.44598 0.16787 0.0
H809 H 0.41567 0.40679 0.11794 0.0
H810 H 0.41214 0.43916 0.24716 0.0
H811 H 0.41873 0.39993 0.19753 0.0
H812 H 0.44585 0.40901 0.33748 0.0
H813 H 0.43897 0.41206 0.25825 0.0
H814 H 0.40005 0.41895 0.30805 0.0
H815 H 0.40698 0.41592 0.38761 0.0
C816 C 0.41099 0.43579 0.17387 0.0
C817 C 0.41219 0.42696 0.13662 0.0
C818 C 0.41267 0.43183 0.21936 0.0
C819 C 0.41572 0.41902 0.22868 0.0
C820 C 0.41653 0.40995 0.19145 0.0
C821 C 0.4147 0.41383 0.14591 0.0
C822 C 0.43572 0.411 0.33153 0.0
C823 C 0.42699 0.41229 0.36883 0.0
C824 C 0.43172 0.41266 0.28607 0.0
C825 C 0.41899 0.41579 0.27681 0.0
C826 C 0.41002 0.41669 0.31408 0.0
C827 C 0.41393 0.41487 0.35961 0.0
H828 H 0.33257 0.20109 0.23695 0.0
H829 H 0.3266 0.19683 0.08892 0.0
H830 H 0.33694 0.17788 0.23862 0.0
H831 H 0.33159 0.17395 0.09014 0.0
H832 H 0.32555 0.12449 0.11493 0.0
H833 H 0.32084 0.14744 0.11261 0.0
H834 H 0.35575 0.16913 0.21852 0.0
H835 H 0.35999 0.14578 0.22205 0.0
C836 C 0.3322 0.19517 0.20474 0.0
C837 C 0.3292 0.20072 0.16281 0.0
C838 C 0.33487 0.18196 0.20561 0.0
C839 C 0.33476 0.17408 0.16449 0.0
C840 C 0.33158 0.17958 0.12257 0.0
C841 C 0.32874 0.19272 0.12178 0.0
C842 C 0.33228 0.1342 0.13759 0.0
C843 C 0.34313 0.13335 0.16875 0.0
C844 C 0.32963 0.14741 0.13609 0.0
C845 C 0.33788 0.16017 0.16542 0.0
C846 C 0.34897 0.15942 0.19601 0.0
C847 C 0.35151 0.14611 0.19782 0.0
H848 H 0.82769 0.12184 0.15181 0.0
H849 H 0.79112 0.13372 0.19409 0.0
H850 H 0.8461 0.14958 0.15112 0.0
H851 H 0.80946 0.16125 0.1946 0.0
H852 H 0.878 0.19875 0.20182 0.0
H853 H 0.85959 0.17125 0.202 0.0
H854 H 0.82431 0.18266 0.14436 0.0
H855 H 0.84277 0.21039 0.14536 0.0
C856 C 0.82362 0.13036 0.16127 0.0
C857 C 0.80796 0.12558 0.17296 0.0
C858 C 0.83416 0.14626 0.16106 0.0
C859 C 0.82928 0.15771 0.1727 0.0
C860 C 0.81361 0.15284 0.18466 0.0
C861 C 0.8031 0.137 0.18472 0.0
C862 C 0.8663 0.19542 0.1893 0.0
C863 C 0.86184 0.20677 0.1736 0.0
C864 C 0.85576 0.1796 0.18904 0.0
C865 C 0.84047 0.17465 0.17292 0.0
C866 C 0.83595 0.18604 0.15749 0.0
C867 C 0.84652 0.20193 0.1579 0.0
H868 H 0.87377 0.70907 0.14173 0.0
H869 H 0.87163 0.66855 0.21319 0.0
H870 H 0.84545 0.69623 0.13307 0.0
H871 H 0.84343 0.65597 0.20646 0.0
H872 H 0.79445 0.63073 0.14792 0.0
H873 H 0.82283 0.64368 0.15396 0.0
H874 H 0.82174 0.68805 0.17253 0.0
H875 H 0.79359 0.67521 0.16449 0.0
C876 C 0.86722 0.69751 0.15612 0.0
C877 C 0.87493 0.68983 0.17804 0.0
C878 C 0.85097 0.69013 0.15133 0.0
C879 C 0.84204 0.67495 0.16884 0.0
C880 C 0.84984 0.66747 0.19156 0.0
C881 C 0.86605 0.67476 0.19584 0.0
C882 C 0.80032 0.64325 0.15316 0.0
C883 C 0.79178 0.65193 0.15562 0.0
C884 C 0.8166 0.6507 0.15694 0.0
C885 C 0.8247 0.66699 0.16382 0.0
C886 C 0.81605 0.67558 0.1664 0.0
C887 C 0.79984 0.66817 0.16212 0.0
H888 H 0.12461 0.31891 0.36407 0.0
H889 H 0.15448 0.36295 0.30029 0.0
H890 H 0.14653 0.31273 0.37151 0.0
H891 H 0.17637 0.35652 0.30579 0.0
H892 H 0.21565 0.34779 0.36466 0.0
H893 H 0.19365 0.35393 0.35944 0.0
H894 H 0.16326 0.30551 0.32894 0.0
H895 H 0.18526 0.29932 0.33624 0.0
C896 C 0.13586 0.32721 0.35123 0.0
C897 C 0.13786 0.34142 0.33164 0.0
C898 C 0.14843 0.32363 0.35521 0.0
C899 C 0.16326 0.33409 0.33917 0.0
C900 C 0.1652 0.34829 0.31924 0.0
C901 C 0.15264 0.35195 0.31578 0.0
C902 C 0.20425 0.33846 0.35706 0.0
C903 C 0.20215 0.32307 0.35091 0.0
C904 C 0.19164 0.34199 0.35367 0.0
C905 C 0.17665 0.33025 0.34347 0.0
C906 C 0.17457 0.31482 0.3375 0.0
C907 C 0.18718 0.31126 0.34147 0.0
H908 H 0.6707 0.79777 0.36701 0.0
H909 H 0.62655 0.79685 0.3314 0.0
H910 H 0.683 0.82615 0.36606 0.0
H911 H 0.63897 0.82539 0.32917 0.0
H912 H 0.66214 0.87604 0.37631 0.0
H913 H 0.6502 0.84769 0.3787 0.0
H914 H 0.69123 0.84823 0.31552 0.0
H915 H 0.70338 0.8768 0.31432 0.0
C916 C 0.66361 0.80364 0.35876 0.0
C917 C 0.64762 0.79504 0.34937 0.0
C918 C 0.67072 0.81996 0.35787 0.0
C919 C 0.66203 0.82814 0.34743 0.0
C920 C 0.646 0.81951 0.33798 0.0
C921 C 0.63887 0.80314 0.33903 0.0
C922 C 0.66868 0.87013 0.36315 0.0
C923 C 0.68374 0.87869 0.34513 0.0
C924 C 0.66175 0.85383 0.36413 0.0
C925 C 0.66964 0.84559 0.34693 0.0
C926 C 0.68483 0.85417 0.32949 0.0
C927 C 0.69182 0.87055 0.32868 0.0
H928 H 0.20987 0.83886 0.35082 0.0
H929 H 0.19812 0.87601 0.31321 0.0
H930 H 0.18219 0.82082 0.35621 0.0
H931 H 0.17061 0.85801 0.31635 0.0
H932 H 0.1221 0.82631 0.36659 0.0
H933 H 0.14992 0.84401 0.36625 0.0
H934 H 0.15949 0.80689 0.31309 0.0
H935 H 0.13187 0.78917 0.31563 0.0
C936 C 0.20137 0.84311 0.34318 0.0
C937 C 0.20616 0.85883 0.33171 0.0
C938 C 0.18548 0.83278 0.34607 0.0
C939 C 0.17404 0.83792 0.33695 0.0
C940 C 0.17897 0.85364 0.32473 0.0
C941 C 0.19479 0.86396 0.32248 0.0
C942 C 0.1302 0.82196 0.35512 0.0
C943 C 0.1248 0.80636 0.34122 0.0
C944 C 0.14615 0.83212 0.35456 0.0
C945 C 0.15707 0.82696 0.33944 0.0
C946 C 0.15157 0.81129 0.32574 0.0
C947 C 0.13567 0.80112 0.32689 0.0
H948 H 0.63953 0.86077 0.83884 0.0
H949 H 0.6873 0.88714 0.79573 0.0
H950 H 0.64339 0.83726 0.84399 0.0
H951 H 0.69105 0.86359 0.79915 0.0
H952 H 0.65178 0.79512 0.81076 0.0
H953 H 0.64758 0.81825 0.80107 0.0
H954 H 0.69357 0.84683 0.85595 0.0
H955 H 0.69794 0.82369 0.86398 0.0
C956 C 0.65077 0.86146 0.82962 0.0
C957 C 0.66313 0.87577 0.81708 0.0
C958 C 0.65299 0.84799 0.83246 0.0
C959 C 0.66759 0.84855 0.8224 0.0
C960 C 0.67976 0.8628 0.80818 0.0
C961 C 0.67758 0.87627 0.80578 0.0
C962 C 0.66099 0.80636 0.82077 0.0
C963 C 0.67519 0.80762 0.83814 0.0
C964 C 0.65855 0.81961 0.81541 0.0
C965 C 0.67023 0.83443 0.82766 0.0
C966 C 0.68442 0.83565 0.84536 0.0
C967 C 0.6869 0.82238 0.85034 0.0
H968 H 0.2056 0.86511 0.79452 0.0
H969 H 0.17002 0.87559 0.85364 0.0
H970 H 0.18758 0.8375 0.79304 0.0
H971 H 0.15199 0.84775 0.8537 0.0
H972 H 0.11906 0.7987 0.80533 0.0
H973 H 0.13702 0.82638 0.80436 0.0
H974 H 0.17477 0.81548 0.84155 0.0
H975 H 0.15679 0.78767 0.84096 0.0
C976 C 0.19391 0.86149 0.80747 0.0
C977 C 0.18923 0.87255 0.82422 0.0
C978 C 0.18359 0.8456 0.80694 0.0
C979 C 0.16831 0.84029 0.82347 0.0
C980 C 0.1636 0.85139 0.84011 0.0
C981 C 0.17394 0.86736 0.84033 0.0
C982 C 0.13123 0.80221 0.81305 0.0
C983 C 0.13652 0.79099 0.82314 0.0
C984 C 0.14151 0.81812 0.8129 0.0
C985 C 0.15738 0.82326 0.82315 0.0
C986 C 0.16269 0.81199 0.83289 0.0
C987 C 0.15238 0.79603 0.83271 0.0
H988 H 0.13004 0.33573 0.79102 0.0
H989 H 0.12655 0.29435 0.86042 0.0
H990 H 0.15824 0.34739 0.79708 0.0
H991 H 0.15487 0.30627 0.86849 0.0
H992 H 0.20651 0.32568 0.8362 0.0
H993 H 0.17835 0.31377 0.82849 0.0
H994 H 0.17908 0.35888 0.84909 0.0
H995 H 0.20746 0.37088 0.85472 0.0
C996 C 0.13533 0.32913 0.80779 0.0
C997 C 0.12607 0.31409 0.82518 0.0
C998 C 0.15154 0.3359 0.81169 0.0
C999 C 0.15896 0.32789 0.83363 0.0
C1000 C 0.14965 0.31275 0.85078 0.0
C1001 C 0.13339 0.3059 0.84635 0.0
C1002 C 0.20066 0.33307 0.83906 0.0
C1003 C 0.20921 0.34924 0.84601 0.0
C1004 C 0.18445 0.3262 0.83497 0.0
C1005 C 0.1763 0.33529 0.83827 0.0
C1006 C 0.18491 0.3515 0.84556 0.0
C1007 C 0.20119 0.35841 0.8491 0.0
H1008 H 0.81536 0.69799 0.62568 0.0
H1009 H 0.78621 0.65296 0.68529 0.0
H1010 H 0.83788 0.69259 0.6325 0.0
H1011 H 0.80871 0.64779 0.69397 0.0
H1012 H 0.84932 0.6369 0.66123 0.0
H1013 H 0.82665 0.64194 0.65223 0.0
H1014 H 0.85483 0.69036 0.68848 0.0
H1015 H 0.87752 0.6854 0.69549 0.0
C1016 C 0.8138 0.68698 0.64045 0.0
C1017 C 0.79906 0.67589 0.65487 0.0
C1018 C 0.8267 0.68391 0.64468 0.0
C1019 C 0.82514 0.66976 0.66393 0.0
C1020 C 0.81033 0.65869 0.67829 0.0
C1021 C 0.79743 0.66169 0.67358 0.0
C1022 C 0.8506 0.64859 0.66743 0.0
C1023 C 0.86515 0.66076 0.67896 0.0
C1024 C 0.83762 0.65149 0.66244 0.0
C1025 C 0.8389 0.66659 0.66943 0.0
C1026 C 0.85346 0.67867 0.68185 0.0
C1027 C 0.86644 0.6758 0.6863 0.0
H1028 H 0.3742 0.20764 0.68953 0.0
H1029 H 0.33195 0.20536 0.62996 0.0
H1030 H 0.36186 0.17921 0.69672 0.0
H1031 H 0.31983 0.17706 0.63508 0.0
H1032 H 0.29672 0.12737 0.69021 0.0
H1033 H 0.30905 0.15585 0.68593 0.0
H1034 H 0.35313 0.15581 0.65506 0.0
H1035 H 0.34094 0.12753 0.66142 0.0
C1036 C 0.36234 0.20105 0.67756 0.0
C1037 C 0.35406 0.20875 0.6593 0.0
C1038 C 0.35525 0.18472 0.68142 0.0
C1039 C 0.33976 0.17571 0.66658 0.0
C1040 C 0.33161 0.18351 0.64783 0.0
C1041 C 0.33863 0.19979 0.64451 0.0
C1042 C 0.30904 0.13349 0.68254 0.0
C1043 C 0.31784 0.1252 0.67626 0.0
C1044 C 0.31613 0.14984 0.67981 0.0
C1045 C 0.33217 0.15827 0.67016 0.0
C1046 C 0.34087 0.14986 0.66348 0.0
C1047 C 0.33383 0.13357 0.66675 0.0
H1048 H 0.79105 0.16185 0.69205 0.0
H1049 H 0.80105 0.12818 0.618 0.0
H1050 H 0.81881 0.17993 0.69276 0.0
H1051 H 0.82857 0.1463 0.61718 0.0
H1052 H 0.87826 0.17488 0.66834 0.0
H1053 H 0.85047 0.15719 0.66678 0.0
H1054 H 0.84023 0.19646 0.6461 0.0
H1055 H 0.86794 0.2141 0.64933 0.0
C1056 C 0.79916 0.1584 0.67545 0.0
C1057 C 0.79388 0.14358 0.65516 0.0
C1058 C 0.81507 0.16876 0.67566 0.0
C1059 C 0.82602 0.16456 0.65527 0.0
C1060 C 0.82059 0.14984 0.63411 0.0
C1061 C 0.80476 0.13948 0.63424 0.0
C1062 C 0.87006 0.1797 0.66332 0.0
C1063 C 0.87529 0.19587 0.659 0.0
C1064 C 0.85411 0.16956 0.6622 0.0
C1065 C 0.84303 0.17536 0.65633 0.0
C1066 C 0.84835 0.19156 0.65148 0.0
C1067 C 0.86427 0.20168 0.65297 0.0
H1068 H 0.03002 0.47879 0.48174 0.0
H1069 H 0.98391 0.45206 0.53733 0.0
H1070 H 0.02477 0.50139 0.47366 0.0
H1071 H 0.97879 0.47478 0.53065 0.0
H1072 H 0.96936 0.51387 0.46928 0.0
H1073 H 0.97434 0.49092 0.47406 0.0
H1074 H 0.02133 0.52024 0.52012 0.0
H1075 H 0.01652 0.54303 0.51397 0.0
C1076 C 0.01883 0.47781 0.49271 0.0
C1077 C 0.0074 0.4637 0.51028 0.0
C1078 C 0.01582 0.49076 0.4882 0.0
C1079 C 0.00134 0.48989 0.50148 0.0
C1080 C 0.98996 0.47577 0.51939 0.0
C1081 C 0.99295 0.46281 0.52363 0.0
C1082 C 0.98075 0.51535 0.48018 0.0
C1083 C 0.99255 0.53022 0.49111 0.0
C1084 C 0.98359 0.50223 0.48322 0.0
C1085 C 0.99826 0.50375 0.49743 0.0
C1086 C 0.01001 0.51866 0.50828 0.0
C1087 C 0.0072 0.53173 0.50501 0.0
H1088 H 0.49546 0.45764 0.51234 0.0
H1089 H 0.4566 0.46809 0.48906 0.0
H1090 H 0.51314 0.48553 0.51218 0.0
H1091 H 0.4742 0.49582 0.48681 0.0
H1092 H 0.50767 0.54536 0.52927 0.0
H1093 H 0.49006 0.51747 0.53219 0.0
H1094 H 0.52472 0.50749 0.46399 0.0
H1095 H 0.54243 0.53521 0.46305 0.0
C1096 C 0.49073 0.4659 0.50679 0.0
C1097 C 0.47466 0.46068 0.5008 0.0
C1098 C 0.50086 0.48191 0.50642 0.0
C1099 C 0.49515 0.49304 0.49949 0.0
C1100 C 0.47904 0.4877 0.49316 0.0
C1101 C 0.46894 0.47175 0.49407 0.0
C1102 C 0.51147 0.53717 0.51491 0.0
C1103 C 0.52643 0.54247 0.49603 0.0
C1104 C 0.50136 0.52116 0.51634 0.0
C1105 C 0.50592 0.51011 0.4984 0.0
C1106 C 0.52086 0.51554 0.47903 0.0
C1107 C 0.531 0.53148 0.47811 0.0
H1108 H 0.53884 0.04347 0.52965 0.0
H1109 H 0.53643 0.99755 0.51402 0.0
H1110 H 0.51053 0.03227 0.52171 0.0
H1111 H 0.50841 0.98645 0.50408 0.0
H1112 H 0.45642 0.96838 0.52745 0.0
H1113 H 0.48449 0.97971 0.54091 0.0
H1114 H 0.49039 0.0213 0.46708 0.0
H1115 H 0.46241 0.01023 0.45559 0.0
C1116 C 0.53227 0.03101 0.52431 0.0
C1117 C 0.53987 0.02142 0.52254 0.0
C1118 C 0.51604 0.02456 0.51944 0.0
C1119 C 0.50706 0.00839 0.51215 0.0
C1120 C 0.51478 0.99887 0.5105 0.0
C1121 C 0.53092 0.00528 0.51586 0.0
C1122 C 0.46375 0.97993 0.51415 0.0
C1123 C 0.4572 0.9884 0.49051 0.0
C1124 C 0.47987 0.98644 0.52165 0.0
C1125 C 0.48982 0.0015 0.5052 0.0
C1126 C 0.48317 0.00985 0.48118 0.0
C1127 C 0.46709 0.00342 0.47418 0.0
H1128 H 0.45257 0.98844 0.94656 0.0
H1129 H 0.47805 0.03334 0.01204 0.0
H1130 H 0.47467 0.98268 0.95796 0.0
H1131 H 0.50004 0.02742 0.02468 0.0
H1132 H 0.54196 0.01804 0.9974 0.0
H1133 H 0.52014 0.02404 0.98438 0.0
H1134 H 0.48812 0.97653 0.01915 0.0
H1135 H 0.51007 0.97042 0.03091 0.0
C1136 C 0.46294 0.9971 0.96332 0.0
C1137 C 0.46362 0.01136 0.97834 0.0
C1138 C 0.47553 0.99373 0.97024 0.0
C1139 C 0.48909 0.00452 0.99255 0.0
C1140 C 0.48984 0.0189 0.00693 0.0
C1141 C 0.47725 0.02231 0.9998 0.0
C1142 C 0.53025 0.00886 0.00239 0.0
C1143 C 0.52771 0.99374 0.01518 0.0
C1144 C 0.51775 0.01234 0.99514 0.0
C1145 C 0.50237 1.00078 1.00072 0.0
C1146 C 0.49983 0.98566 0.0139 0.0
C1147 C 0.51237 0.98215 0.02097 0.0
H1148 H 0.04294 0.53716 0.98958 0.0
H1149 H 0.99785 0.53587 0.01093 0.0
H1150 H 0.03109 0.50864 0.99428 0.0
H1151 H 0.98614 0.50767 0.0176 0.0
H1152 H 0.00768 0.45869 0.04879 0.0
H1153 H 0.01963 0.48705 0.04428 0.0
H1154 H 0.9785 0.48455 0.97556 0.0
H1155 H 0.96633 0.45614 0.982 0.0
C1156 C 0.03054 0.5308 0.99566 0.0
C1157 C 0.02135 0.53878 0.99963 0.0
C1158 C 0.02371 0.51443 0.99863 0.0
C1159 C 0.00756 0.5057 0.00613 0.0
C1160 C 0.9985 0.51383 0.01074 0.0
C1161 C 0.00527 0.53009 0.00727 0.0
C1162 C 0.00115 0.46421 0.03295 0.0
C1163 C 0.98601 0.45516 0.01592 0.0
C1164 C 0.00808 0.48052 0.02995 0.0
C1165 C 1.00013 0.48824 0.00938 0.0
C1166 C 0.98494 0.47912 0.99236 0.0
C1167 C 0.97794 0.46279 0.99585 0.0
H1168 H 0.46776 0.45722 0.01577 0.0
H1169 H 0.45654 0.49555 0.99034 0.0
H1170 H 0.49534 0.47516 0.01595 0.0
H1171 H 0.48427 0.51355 0.98843 0.0
H1172 H 0.53419 0.54385 0.03349 0.0
H1173 H 0.50661 0.52589 0.03485 0.0
H1174 H 0.51636 0.49072 0.96832 0.0
H1175 H 0.54412 0.5086 0.96893 0.0
C1176 C 0.47122 0.46951 0.00988 0.0
C1177 C 0.45998 0.47499 0.00309 0.0
C1178 C 0.48708 0.4798 0.00959 0.0
C1179 C 0.49215 0.49586 0.00196 0.0
C1180 C 0.48085 0.50132 0.99513 0.0
C1181 C 0.46494 0.49101 0.99596 0.0
C1182 C 0.53044 0.53226 0.01926 0.0
C1183 C 0.54133 0.52762 1.00116 0.0
C1184 C 0.51457 0.52197 0.01968 0.0
C1185 C 0.50913 0.50681 0.00152 0.0
C1186 C 0.52008 0.5022 0.9833 0.0
C1187 C 0.53601 0.51246 0.98339 0.0
H1188 H 0.41235 0.06282 0.96511 0.0
H1189 H 0.44134 0.06187 0.07824 0.0
H1190 H 0.40553 0.08068 0.00834 0.0
H1191 H 0.43457 0.0799 0.12161 0.0
H1192 H 0.38985 0.07868 0.19693 0.0
H1193 H 0.40862 0.07268 0.15596 0.0
H1194 H 0.41203 0.10564 0.04925 0.0
H1195 H 0.3931 0.11162 0.09045 0.0
C1196 C 0.41769 0.06686 0.9986 0.0
C1197 C 0.42715 0.06074 0.01864 0.0
C1198 C 0.41386 0.0772 0.02332 0.0
C1199 C 0.41935 0.08154 0.06869 0.0
C1200 C 0.43003 0.0766 0.08692 0.0
C1201 C 0.43395 0.06634 0.062 0.0
C1202 C 0.39501 0.08505 0.16555 0.0
C1203 C 0.38984 0.09542 0.14649 0.0
C1204 C 0.40586 0.08168 0.14214 0.0
C1205 C 0.41166 0.08854 0.09901 0.0
C1206 C 0.40762 0.10006 0.08218 0.0
C1207 C 0.39685 0.10354 0.10589 0.0
H1208 H 0.89727 0.30443 0.18886 0.0
H1209 H 0.88112 0.28154 0.05743 0.0
H1210 H 0.90471 0.32969 0.15239 0.0
H1211 H 0.88851 0.30689 0.02081 0.0
H1212 H 0.91727 0.37453 0.07979 0.0
H1213 H 0.89876 0.34878 0.10838 0.0
H1214 H 0.91547 0.32685 0.00661 0.0
H1215 H 0.93384 0.3524 0.97851 0.0
C1216 C 0.8948 0.30476 0.15244 0.0
C1217 C 0.88879 0.291 0.12594 0.0
C1218 C 0.89901 0.31926 0.13151 0.0
C1219 C 0.89741 0.32035 0.08352 0.0
C1220 C 0.89007 0.30646 0.05776 0.0
C1221 C 0.88573 0.29192 0.07881 0.0
C1222 C 0.91655 0.36418 0.06256 0.0
C1223 C 0.92703 0.36544 0.02711 0.0
C1224 C 0.90605 0.34944 0.07914 0.0
C1225 C 0.90571 0.33574 0.06004 0.0
C1226 C 0.91528 0.3371 0.0219 0.0
C1227 C 0.92589 0.35177 0.00587 0.0
H1228 H 0.71415 0.58703 0.05824 0.0
H1229 H 0.69056 0.5909 0.18072 0.0
H1230 H 0.68893 0.57071 0.02203 0.0
H1231 H 0.66547 0.57429 0.14527 0.0
H1232 H 0.62159 0.54169 0.07352 0.0
H1233 H 0.64721 0.5474 0.10608 0.0
H1234 H 0.66921 0.58204 1.00021 0.0
H1235 H 0.6437 0.57664 0.96853 0.0
C1236 C 0.70362 0.58375 0.07822 0.0
C1237 C 0.70425 0.59018 0.12225 0.0
C1238 C 0.6892 0.57453 0.05739 0.0
C1239 C 0.67526 0.5713 0.08078 0.0
C1240 C 0.67601 0.57645 0.12658 0.0
C1241 C 0.69037 0.58597 0.14689 0.0
C1242 C 0.63194 0.55015 0.05637 0.0
C1243 C 0.6307 0.55879 0.01866 0.0
C1244 C 0.64657 0.55345 0.0751 0.0
C1245 C 0.66018 0.56516 0.05567 0.0
C1246 C 0.65895 0.57283 0.0156 0.0
C1247 C 0.64434 0.5698 0.99758 0.0
H1248 H 0.05382 0.43811 0.39513 0.0
H1249 H 0.0618 0.41684 0.51759 0.0
H1250 H 0.07199 0.43145 0.35225 0.0
H1251 H 0.08002 0.41033 0.47489 0.0
H1252 H 0.1137 0.40119 0.39165 0.0
H1253 H 0.10498 0.41922 0.42689 0.0
H1254 H 0.06623 0.40341 0.33173 0.0
H1255 H 0.0748 0.38534 0.29711 0.0
C1256 C 0.05985 0.4325 0.4133 0.0
C1257 C 0.05626 0.42779 0.45951 0.0
C1258 C 0.07021 0.42866 0.3887 0.0
C1259 C 0.0773 0.42028 0.41015 0.0
C1260 C 0.07482 0.41691 0.45754 0.0
C1261 C 0.06431 0.42055 0.48194 0.0
C1262 C 0.10365 0.402 0.37727 0.0
C1263 C 0.09481 0.39179 0.342 0.0
C1264 C 0.09863 0.41224 0.39757 0.0
C1265 C 0.08489 0.41263 0.38223 0.0
C1266 C 0.07694 0.40348 0.34402 0.0
C1267 C 0.08179 0.39306 0.32432 0.0
H1268 H 0.58402 0.71565 0.43587 0.0
H1269 H 0.58965 0.69272 0.31403 0.0
H1270 H 0.56822 0.69013 0.47129 0.0
H1271 H 0.57352 0.6673 0.34868 0.0
H1272 H 0.57493 0.64526 0.52566 0.0
H1273 H 0.58024 0.67079 0.49382 0.0
H1274 H 0.54632 0.64849 0.38626 0.0
H1275 H 0.54066 0.62285 0.41902 0.0
C1276 C 0.58125 0.70517 0.41583 0.0
C1277 C 0.588 0.70611 0.37222 0.0
C1278 C 0.57233 0.69059 0.43622 0.0
C1279 C 0.56971 0.67676 0.41277 0.0
C1280 C 0.57523 0.67776 0.36738 0.0
C1281 C 0.58445 0.69229 0.34753 0.0
C1282 C 0.56823 0.64583 0.49617 0.0
C1283 C 0.55741 0.6321 0.47477 0.0
C1284 C 0.57122 0.66045 0.47805 0.0
C1285 C 0.5637 0.66161 0.43753 0.0
C1286 C 0.55223 0.6479 0.4176 0.0
C1287 C 0.54896 0.63326 0.43644 0.0
H1288 H 0.28866 0.87674 0.40442 0.0
H1289 H 0.30834 0.91122 0.29683 0.0
H1290 H 0.31485 0.88421 0.43555 0.0
H1291 H 0.33443 0.91832 0.32697 0.0
H1292 H 0.35705 0.93031 0.5053 0.0
H1293 H 0.33207 0.9123 0.47189 0.0
H1294 H 0.35554 0.9084 0.34908 0.0
H1295 H 0.38069 0.92611 0.38337 0.0
C1296 C 0.29862 0.88545 0.38636 0.0
C1297 C 0.29652 0.89346 0.34835 0.0
C1298 C 0.31357 0.88975 0.40427 0.0
C1299 C 0.32664 0.90182 0.38363 0.0
C1300 C 0.32459 0.90886 0.34325 0.0
C1301 C 0.30966 0.90484 0.32611 0.0
C1302 C 0.35691 0.92505 0.47204 0.0
C1303 C 0.37075 0.92952 0.44694 0.0
C1304 C 0.34263 0.91474 0.45292 0.0
C1305 C 0.34188 0.90902 0.40783 0.0
C1306 C 0.35583 0.91262 0.38396 0.0
C1307 C 0.3702 0.92266 0.40367 0.0
H1308 H 0.59534 0.9547 0.05201 0.0
H1309 H 0.55602 0.93584 0.95884 0.0
H1310 H 0.6075 0.94098 0.00968 0.0
H1311 H 0.56836 0.92211 0.91636 0.0
H1312 H 0.60654 0.89721 0.89365 0.0
H1313 H 0.58748 0.90201 0.93954 0.0
H1314 H 0.61189 0.95108 0.90771 0.0
H1315 H 0.63072 0.94646 0.86202 0.0
C1316 C 0.589 0.9471 0.0237 0.0
C1317 C 0.57484 0.94647 0.00832 0.0
C1318 C 0.59596 0.93927 0.99956 0.0
C1319 C 0.58885 0.93066 0.95982 0.0
C1320 C 0.57394 0.92862 0.94721 0.0
C1321 C 0.5669 0.93644 0.97158 0.0
C1322 C 0.60756 0.90894 0.89556 0.0
C1323 C 0.62017 0.92149 0.87459 0.0
C1324 C 0.59672 0.91165 0.92182 0.0
C1325 C 0.59844 0.9269 0.92722 0.0
C1326 C 0.61046 0.93924 0.90406 0.0
C1327 C 0.62119 0.93656 0.8779 0.0
H1328 H 0.09185 0.6895 0.81148 0.0
H1329 H 0.12198 0.71305 0.92613 0.0
H1330 H 0.0872 0.6643 0.84427 0.0
H1331 H 0.11702 0.68768 0.9597 0.0
H1332 H 0.08383 0.62016 0.90515 0.0
H1333 H 0.09929 0.64608 0.87151 0.0
H1334 H 0.09023 0.66742 0.99174 0.0
H1335 H 0.07455 0.64163 0.02457 0.0
C1336 C 0.09781 0.68927 0.8431 0.0
C1337 C 0.10723 0.70321 0.86634 0.0
C1338 C 0.09521 0.67484 0.86177 0.0
C1339 C 0.10172 0.67401 0.90461 0.0
C1340 C 0.11188 0.68799 0.92661 0.0
C1341 C 0.11476 0.70248 0.90733 0.0
C1342 C 0.0857 0.63043 0.9251 0.0
C1343 C 0.07803 0.62894 0.96743 0.0
C1344 C 0.09442 0.64523 0.90573 0.0
C1345 C 0.0959 0.65876 0.92892 0.0
C1346 C 0.08943 0.65725 0.97323 0.0
C1347 C 0.08044 0.64248 0.99203 0.0
H1348 H 0.37907 0.45979 0.92652 0.0
H1349 H 0.35752 0.42524 0.0329 0.0
H1350 H 0.35332 0.45336 0.89358 0.0
H1351 H 0.33187 0.41917 1.00094 0.0
H1352 H 0.31051 0.40841 0.82116 0.0
H1353 H 0.33552 0.42563 0.8561 0.0
H1354 H 0.31179 0.43022 0.97739 0.0
H1355 H 0.28665 0.41331 0.94164 0.0
C1356 C 0.3688 0.45129 0.94391 0.0
C1357 C 0.37024 0.44295 0.98212 0.0
C1358 C 0.35411 0.44758 0.92497 0.0
C1359 C 0.34063 0.43578 0.94473 0.0
C1360 C 0.34204 0.42844 0.9853 0.0
C1361 C 0.35672 0.43186 0.0035 0.0
C1362 C 0.31062 0.41366 0.85441 0.0
C1363 C 0.2967 0.40958 0.87869 0.0
C1364 C 0.32492 0.42353 0.8744 0.0
C1365 C 0.32557 0.42918 0.91954 0.0
C1366 C 0.31158 0.42603 0.94251 0.0
C1367 C 0.29722 0.41645 0.92194 0.0
H1368 H 0.93824 0.62819 0.67801 0.0
H1369 H 0.89173 0.6022 0.62344 0.0
H1370 H 0.947 0.61208 0.63303 0.0
H1371 H 0.90066 0.58592 0.57842 0.0
H1372 H 0.93505 0.55775 0.55128 0.0
H1373 H 0.91951 0.56752 0.59636 0.0
H1374 H 0.94422 0.61275 0.53292 0.0
H1375 H 0.9596 0.60314 0.48789 0.0
C1376 C 0.92978 0.61874 0.65748 0.0
C1377 C 0.91435 0.61657 0.65376 0.0
C1378 C 0.93482 0.60957 0.63171 0.0
C1379 C 0.92451 0.598 0.60201 0.0
C1380 C 0.90876 0.59483 0.6012 0.0
C1381 C 0.90369 0.60409 0.62702 0.0
C1382 C 0.93674 0.5696 0.54575 0.0
C1383 C 0.94865 0.57976 0.51654 0.0
C1384 C 0.9279 0.57516 0.57162 0.0
C1385 C 0.93093 0.59089 0.56834 0.0
C1386 C 0.94183 0.6006 0.53615 0.0
C1387 C 0.95058 0.59508 0.51036 0.0
H1388 H 0.42601 0.3578 0.47294 0.0
H1389 H 0.4615 0.37994 0.57658 0.0
H1390 H 0.42087 0.3322 0.50382 0.0
H1391 H 0.45602 0.35423 0.60844 0.0
H1392 H 0.41673 0.28713 0.56012 0.0
H1393 H 0.43267 0.31253 0.52414 0.0
H1394 H 0.42916 0.33577 0.64819 0.0
H1395 H 0.41289 0.3105 0.68336 0.0
C1396 C 0.43302 0.35715 0.50151 0.0
C1397 C 0.44412 0.37083 0.52244 0.0
C1398 C 0.43013 0.3425 0.51907 0.0
C1399 C 0.43804 0.34124 0.55857 0.0
C1400 C 0.44981 0.35489 0.57787 0.0
C1401 C 0.45297 0.36957 0.55955 0.0
C1402 C 0.41995 0.29766 0.5803 0.0
C1403 C 0.41366 0.29692 0.62451 0.0
C1404 C 0.42895 0.31217 0.55961 0.0
C1405 C 0.4321 0.3261 0.58335 0.0
C1406 C 0.42706 0.32524 0.62926 0.0
C1407 C 0.41775 0.31079 0.64941 0.0
H1408 H 0.64168 0.07571 0.49246 0.0
H1409 H 0.62087 0.08348 0.61565 0.0
H1410 H 0.66758 0.09207 0.52357 0.0
H1411 H 0.64691 0.09953 0.64761 0.0
H1412 H 0.71301 0.12607 0.58636 0.0
H1413 H 0.68694 0.11994 0.55676 0.0
H1414 H 0.6665 0.08766 0.66928 0.0
H1415 H 0.69247 0.09344 0.69807 0.0
C1416 C 0.64268 0.08139 0.52551 0.0
C1417 C 0.62933 0.07842 0.5516 0.0
C1418 C 0.65749 0.09076 0.54332 0.0
C1419 C 0.65923 0.097 0.58807 0.0
C1420 C 0.64586 0.09488 0.61298 0.0
C1421 C 0.63099 0.08581 0.59458 0.0
C1422 C 0.70293 0.11803 0.60551 0.0
C1423 C 0.70473 0.11017 0.64438 0.0
C1424 C 0.68804 0.1145 0.58848 0.0
C1425 C 0.67473 0.10334 0.61077 0.0
C1426 C 0.67655 0.09643 0.65172 0.0
C1427 C 0.69141 0.09968 0.66808 0.0
H1428 H 0.71014 0.73637 0.84877 0.0
H1429 H 0.73255 0.78146 0.78233 0.0
H1430 H 0.72558 0.72721 0.80208 0.0
H1431 H 0.74808 0.77213 0.73557 0.0
H1432 H 0.72982 0.71337 0.64968 0.0
H1433 H 0.72181 0.72976 0.69633 0.0
H1434 H 0.76751 0.75213 0.75779 0.0
H1435 H 0.77569 0.73564 0.71107 0.0
C1436 C 0.71873 0.74449 0.82535 0.0
C1437 C 0.72003 0.75957 0.81883 0.0
C1438 C 0.72752 0.73923 0.79865 0.0
C1439 C 0.73781 0.74898 0.76524 0.0
C1440 C 0.7402 0.76449 0.76137 0.0
C1441 C 0.73136 0.7698 0.7882 0.0
C1442 C 0.73834 0.72211 0.672 0.0
C1443 C 0.75332 0.72312 0.6771 0.0
C1444 C 0.73373 0.73144 0.69867 0.0
C1445 C 0.74405 0.742 0.73065 0.0
C1446 C 0.75944 0.74405 0.73311 0.0
C1447 C 0.76408 0.73466 0.70631 0.0
H1448 H 0.23979 0.97489 0.86167 0.0
H1449 H 0.20634 0.95451 0.75175 0.0
H1450 H 0.24645 1.00094 0.83146 0.0
H1451 H 0.21334 0.98066 0.72063 0.0
H1452 H 0.25342 0.04703 0.77447 0.0
H1453 H 0.23618 0.02161 0.80828 0.0
H1454 H 0.24122 0.99854 0.68583 0.0
H1455 H 0.25875 0.0238 0.65292 0.0
C1456 C 0.23353 0.97603 0.83184 0.0
C1457 C 0.22258 0.96271 0.809 0.0
C1458 C 0.23729 0.99094 0.81465 0.0
C1459 C 0.23043 0.99281 0.77365 0.0
C1460 C 0.21876 0.97953 0.75237 0.0
C1461 C 0.21472 0.9646 0.77027 0.0
C1462 C 0.25031 0.03655 0.75414 0.0
C1463 C 0.25735 0.03731 0.71111 0.0
C1464 C 0.24055 0.02202 0.77358 0.0
C1465 C 0.2374 0.00812 0.74969 0.0
C1466 C 0.2433 0.00905 0.70482 0.0
C1467 C 0.25335 0.0235 0.68598 0.0
H1468 H 0.04697 0.25109 0.7371 0.0
H1469 H 0.02414 0.25862 0.85609 0.0
H1470 H 0.02152 0.2347 0.70235 0.0
H1471 H 0.9988 0.24195 0.82212 0.0
H1472 H 0.97731 0.24166 0.64392 0.0
H1473 H 0.00261 0.24676 0.6766 0.0
H1474 H 0.97979 0.21429 0.78699 0.0
H1475 H 0.95434 0.20881 0.75326 0.0
C1476 C 0.03654 0.24864 0.75673 0.0
C1477 C 0.03747 0.25612 0.79919 0.0
C1478 C 0.02199 0.23936 0.73674 0.0
C1479 C 0.00821 0.23711 0.75949 0.0
C1480 C 0.00921 0.24335 0.80399 0.0
C1481 C 0.02371 0.25292 0.82342 0.0
C1482 C 0.97772 0.23519 0.67419 0.0
C1483 C 0.96392 0.22486 0.6961 0.0
C1484 C 0.99219 0.23805 0.69281 0.0
C1485 C 0.99315 0.23093 0.73436 0.0
C1486 C 0.97935 0.21987 0.75482 0.0
C1487 C 0.96483 0.2167 0.73545 0.0
H1488 H 0.28617 0.2271 0.26735 0.0
H1489 H 0.28025 0.25177 0.14976 0.0
H1490 H 0.2685 0.23394 0.31228 0.0
H1491 H 0.26234 0.25827 0.19435 0.0
H1492 H 0.26739 0.28083 0.37333 0.0
H1493 H 0.2759 0.26317 0.33528 0.0
H1494 H 0.23632 0.24769 0.24344 0.0
H1495 H 0.22755 0.26511 0.28238 0.0
C1496 C 0.28061 0.23344 0.25054 0.0
C1497 C 0.28465 0.23903 0.20521 0.0
C1498 C 0.27056 0.23739 0.27633 0.0
C1499 C 0.26414 0.24667 0.2568 0.0
C1500 C 0.26703 0.25098 0.2101 0.0
C1501 C 0.27732 0.24731 0.18463 0.0
C1502 C 0.26021 0.27323 0.34615 0.0
C1503 C 0.24686 0.27435 0.33065 0.0
C1504 C 0.26504 0.26309 0.32448 0.0
C1505 C 0.25678 0.25414 0.28634 0.0
C1506 C 0.24286 0.25447 0.27282 0.0
C1507 C 0.23783 0.26437 0.29522 0.0
H1508 H 0.75053 0.97292 0.34205 0.0
H1509 H 0.73691 0.95024 0.20932 0.0
H1510 H 0.76555 0.99782 0.3038 0.0
H1511 H 0.75208 0.97519 0.17093 0.0
H1512 H 0.75077 0.02312 0.14139 0.0
H1513 H 0.74494 0.99693 0.16744 0.0
H1514 H 0.78648 0.0156 0.25182 0.0
H1515 H 0.79231 0.04201 0.22549 0.0
C1516 C 0.75124 0.97314 0.30469 0.0
C1517 C 0.74236 0.95964 0.27874 0.0
C1518 C 0.75989 0.98744 0.28269 0.0
C1519 C 0.75977 0.98856 0.23427 0.0
C1520 C 0.75219 0.97475 0.20832 0.0
C1521 C 0.74362 0.96042 0.23034 0.0
C1522 C 0.75887 0.02162 0.16461 0.0
C1523 C 0.77193 0.03463 0.18166 0.0
C1524 C 0.7556 0.00656 0.17934 0.0
C1525 C 0.76521 0.00414 0.2119 0.0
C1526 C 0.77879 0.01709 0.22693 0.0
C1527 C 0.78218 0.03219 0.21168 0.0
H1528 H 0.02331 0.76395 0.35977 0.0
H1529 H 0.0471 0.79451 0.2464 0.0
H1530 H 0.99828 0.75942 0.32643 0.0
H1531 H 0.02191 0.78968 0.21223 0.0
H1532 H 0.95434 0.75474 0.26414 0.0
H1533 H 0.97991 0.77103 0.29839 0.0
H1534 H 0.00222 0.76289 0.17905 0.0
H1535 H 0.97678 0.74641 0.14553 0.0
C1536 C 0.02317 0.77006 0.32839 0.0
C1537 C 0.03711 0.77952 0.30556 0.0
C1538 C 0.00883 0.76754 0.30939 0.0
C1539 C 0.00813 0.77416 0.26663 0.0
C1540 C 0.02212 0.78445 0.24525 0.0
C1541 C 0.03652 0.78726 0.26487 0.0
C1542 C 0.96472 0.75699 0.24446 0.0
C1543 C 0.96363 0.74931 0.20229 0.0
C1544 C 0.97934 0.76621 0.26419 0.0
C1545 C 0.99305 0.76814 0.24152 0.0
C1546 C 0.99189 0.76174 0.19718 0.0
C1547 C 0.97732 0.75228 0.17799 0.0
H1548 H 0.30294 0.06468 0.07113 0.0
H1549 H 0.34768 0.06696 0.03646 0.0
H1550 H 0.29589 0.06183 0.98948 0.0
H1551 H 0.34093 0.06476 0.95486 0.0
H1552 H 0.32198 0.05619 0.80691 0.0
H1553 H 0.3257 0.05135 0.88824 0.0
H1554 H 0.30456 0.08096 0.92989 0.0
H1555 H 0.30057 0.08538 0.84972 0.0
C1556 C 0.31112 0.06421 0.04618 0.0
C1557 C 0.32593 0.06627 0.06018 0.0
C1558 C 0.30717 0.06276 0.9993 0.0
C1559 C 0.31802 0.06353 0.96542 0.0
C1560 C 0.33228 0.06414 0.97985 0.0
C1561 C 0.33617 0.06543 0.02676 0.0
C1562 C 0.31818 0.06164 0.83362 0.0
C1563 C 0.31101 0.07118 0.82193 0.0
C1564 C 0.32026 0.05886 0.88016 0.0
C1565 C 0.31521 0.06557 0.91576 0.0
C1566 C 0.30819 0.07521 0.90365 0.0
C1567 C 0.30608 0.07792 0.85749 0.0
H1568 H 0.9226 0.27804 0.02985 0.0
H1569 H 0.91966 0.23224 0.05373 0.0
H1570 H 0.92608 0.27536 0.9472 0.0
H1571 H 0.92374 0.22979 0.97177 0.0
H1572 H 0.90485 0.21909 0.82732 0.0
H1573 H 0.90613 0.22512 0.90883 0.0
H1574 H 0.9407 0.27231 0.88152 0.0
H1575 H 0.93904 0.26625 0.79852 0.0
C1576 C 0.92327 0.26764 0.01765 0.0
C1577 C 0.92069 0.25526 0.04806 0.0
C1578 C 0.92523 0.2661 0.97025 0.0
C1579 C 0.92477 0.25218 0.95265 0.0
C1580 C 0.92366 0.24046 0.98394 0.0
C1581 C 0.9215 0.24192 0.03101 0.0
C1582 C 0.9127 0.23079 0.83852 0.0
C1583 C 0.92192 0.24217 0.80656 0.0
C1584 C 0.91357 0.23422 0.88546 0.0
C1585 C 0.92383 0.24909 0.90202 0.0
C1586 C 0.93273 0.26071 0.86991 0.0
C1587 C 0.93176 0.25727 0.82246 0.0
H1588 H 0.73411 0.66541 0.03243 0.0
H1589 H 0.73932 0.62532 0.98338 0.0
H1590 H 0.73246 0.67289 0.95232 0.0
H1591 H 0.73783 0.63281 0.90404 0.0
H1592 H 0.72744 0.64512 0.76328 0.0
H1593 H 0.72149 0.63642 0.84369 0.0
H1594 H 0.75211 0.68301 0.89057 0.0
H1595 H 0.75788 0.69164 0.81096 0.0
C1596 C 0.73474 0.65813 0.00461 0.0
C1597 C 0.73705 0.64492 0.01407 0.0
C1598 C 0.73381 0.66241 0.95884 0.0
C1599 C 0.73503 0.65344 0.92187 0.0
C1600 C 0.73663 0.63985 0.93163 0.0
C1601 C 0.73767 0.63567 0.97717 0.0
C1602 C 0.73264 0.65351 0.79087 0.0
C1603 C 0.74326 0.66898 0.78097 0.0
C1604 C 0.72929 0.64855 0.83681 0.0
C1605 C 0.7364 0.65903 0.87346 0.0
C1606 C 0.74631 0.67469 0.86325 0.0
C1607 C 0.74974 0.67959 0.81756 0.0
H1608 H 0.07115 0.33212 0.70687 0.0
H1609 H 0.07293 0.29034 0.65733 0.0
H1610 H 0.07079 0.34038 0.62688 0.0
H1611 H 0.07277 0.2986 0.57808 0.0
H1612 H 0.06492 0.31289 0.43686 0.0
H1613 H 0.05815 0.30395 0.51674 0.0
H1614 H 0.09056 0.34958 0.56606 0.0
H1615 H 0.0971 0.35847 0.48691 0.0
C1616 C 0.07129 0.32464 0.67896 0.0
C1617 C 0.07226 0.31069 0.68833 0.0
C1618 C 0.07112 0.32937 0.63321 0.0
C1619 C 0.0718 0.32016 0.59609 0.0
C1620 C 0.07204 0.30588 0.60572 0.0
C1621 C 0.0723 0.30122 0.65124 0.0
C1622 C 0.07035 0.32104 0.46485 0.0
C1623 C 0.08165 0.3363 0.4557 0.0
C1624 C 0.06655 0.31592 0.51054 0.0
C1625 C 0.07389 0.32604 0.54779 0.0
C1626 C 0.08456 0.34153 0.53832 0.0
C1627 C 0.08841 0.34659 0.49286 0.0
H1628 H 0.68851 0.7651 0.68412 0.0
H1629 H 0.64301 0.73304 0.73403 0.0
H1630 H 0.67976 0.75812 0.60504 0.0
H1631 H 0.6342 0.72581 0.65413 0.0
H1632 H 0.62118 0.74075 0.51251 0.0
H1633 H 0.62903 0.74033 0.59204 0.0
H1634 H 0.67068 0.738 0.54496 0.0
H1635 H 0.66284 0.73865 0.46464 0.0
C1636 C 0.67667 0.75636 0.67815 0.0
C1637 C 0.66636 0.74977 0.7152 0.0
C1638 C 0.6717 0.75223 0.63275 0.0
C1639 C 0.65628 0.74145 0.62324 0.0
C1640 C 0.64613 0.73428 0.66041 0.0
C1641 C 0.65116 0.73836 0.70608 0.0
C1642 C 0.63194 0.73997 0.51903 0.0
C1643 C 0.64154 0.73998 0.48239 0.0
C1644 C 0.63635 0.73955 0.56471 0.0
C1645 C 0.65051 0.73919 0.57487 0.0
C1646 C 0.65977 0.73843 0.53816 0.0
C1647 C 0.65529 0.73877 0.49225 0.0
H1648 H 0.26121 0.92016 0.71439 0.0
H1649 H 0.22243 0.92715 0.66327 0.0
H1650 H 0.26926 0.91899 0.63472 0.0
H1651 H 0.23033 0.92587 0.58427 0.0
H1652 H 0.25189 0.93027 0.44397 0.0
H1653 H 0.25027 0.93805 0.52376 0.0
H1654 H 0.25734 0.8991 0.5738 0.0
H1655 H 0.25906 0.89148 0.49477 0.0
C1656 C 0.25456 0.92167 0.6862 0.0
C1657 C 0.24111 0.92355 0.69499 0.0
C1658 C 0.25912 0.92096 0.64065 0.0
C1659 C 0.25039 0.92228 0.60318 0.0
C1660 C 0.23741 0.92498 0.61224 0.0
C1661 C 0.2328 0.92556 0.65758 0.0
C1662 C 0.25334 0.92356 0.47212 0.0
C1663 C 0.25542 0.91019 0.4632 0.0
C1664 C 0.25236 0.92797 0.51772 0.0
C1665 C 0.25364 0.91916 0.5551 0.0
C1666 C 0.2565 0.90625 0.54592 0.0
C1667 C 0.25733 0.90179 0.50055 0.0
H1668 H 0.66163 0.91192 0.20574 0.0
H1669 H 0.70003 0.95816 0.20304 0.0
H1670 H 0.65895 0.91277 0.12228 0.0
H1671 H 0.69756 0.95889 0.11887 0.0
H1672 H 0.6787 0.95353 0.96352 0.0
H1673 H 0.68064 0.95741 0.04776 0.0
H1674 H 0.67763 0.91129 0.06523 0.0
H1675 H 0.67558 0.90741 0.98222 0.0
C1676 C 0.66921 0.92245 0.18739 0.0
C1677 C 0.6811 0.9349 0.2107 0.0
C1678 C 0.66779 0.92288 0.13957 0.0
C1679 C 0.67835 0.93572 0.11401 0.0
C1680 C 0.68932 0.94883 0.13772 0.0
C1681 C 0.69067 0.94843 0.18587 0.0
C1682 C 0.67879 0.9444 0.9855 0.0
C1683 C 0.67685 0.93012 0.96648 0.0
C1684 C 0.6798 0.94658 0.03359 0.0
C1685 C 0.67881 0.93447 0.06302 0.0
C1686 C 0.67791 0.92064 0.04351 0.0
C1687 C 0.67691 0.91848 0.9959 0.0
H1688 H 0.05467 0.7395 0.20048 0.0
H1689 H 0.10267 0.77399 0.19435 0.0
H1690 H 0.05534 0.73429 0.1174 0.0
H1691 H 0.10366 0.76841 0.11307 0.0
H1692 H 0.09851 0.77226 0.9647 0.0
H1693 H 0.09353 0.77463 0.04581 0.0
H1694 H 0.0661 0.72458 0.05444 0.0
H1695 H 0.07054 0.72241 0.97162 0.0
C1696 C 0.06544 0.74563 0.18157 0.0
C1697 C 0.07858 0.75724 0.20338 0.0
C1698 C 0.06583 0.7427 0.13412 0.0
C1699 C 0.07942 0.75127 0.10823 0.0
C1700 C 0.09281 0.76202 0.13137 0.0
C1701 C 0.09233 0.76511 0.17811 0.0
C1702 C 0.09109 0.76181 0.9837 0.0
C1703 C 0.08494 0.74717 0.96223 0.0
C1704 C 0.08839 0.76311 0.03033 0.0
C1705 C 0.07986 0.74973 0.05711 0.0
C1706 C 0.07279 0.7351 0.03488 0.0
C1707 C 0.07527 0.73385 0.98755 0.0
H1708 H 0.27303 0.3536 0.2389 0.0
H1709 H 0.24267 0.30714 0.19066 0.0
H1710 H 0.27871 0.36251 0.15857 0.0
H1711 H 0.24819 0.31597 0.11115 0.0
H1712 H 0.26637 0.33393 0.96939 0.0
H1713 H 0.26783 0.32623 0.04938 0.0
H1714 H 0.26234 0.36618 0.09826 0.0
H1715 H 0.26103 0.37388 0.01898 0.0
C1716 C 0.26779 0.34527 0.2112 0.0
C1717 C 0.25729 0.32975 0.22096 0.0
C1718 C 0.27098 0.35035 0.1653 0.0
C1719 C 0.26383 0.33995 0.12851 0.0
C1720 C 0.25401 0.32424 0.13855 0.0
C1721 C 0.25074 0.31923 0.1842 0.0
C1722 C 0.26566 0.34112 0.9973 0.0
C1723 C 0.26339 0.35437 0.98798 0.0
C1724 C 0.26648 0.33673 0.04303 0.0
C1725 C 0.26518 0.3456 0.08015 0.0
C1726 C 0.26358 0.35921 0.07056 0.0
C1727 C 0.26266 0.36351 0.02505 0.0
H1728 H 0.90546 0.64829 0.51787 0.0
H1729 H 0.93732 0.69404 0.56765 0.0
H1730 H 0.9116 0.65725 0.4387 0.0
H1731 H 0.94365 0.70308 0.48761 0.0
H1732 H 0.92816 0.71582 0.34613 0.0
H1733 H 0.92858 0.70795 0.42576 0.0
H1734 H 0.93173 0.66659 0.37854 0.0
H1735 H 0.93111 0.67443 0.29828 0.0
C1736 C 0.91395 0.66025 0.51184 0.0
C1737 C 0.92079 0.67053 0.54893 0.0
C1738 C 0.91759 0.66533 0.46638 0.0
C1739 C 0.9281 0.68087 0.45683 0.0
C1740 C 0.93541 0.69105 0.49395 0.0
C1741 C 0.93183 0.6859 0.53968 0.0
C1742 C 0.92911 0.70511 0.35267 0.0
C1743 C 0.92938 0.69561 0.31599 0.0
C1744 C 0.92951 0.70069 0.39837 0.0
C1745 C 0.93013 0.68662 0.40849 0.0
C1746 C 0.93109 0.67743 0.37177 0.0
C1747 C 0.93077 0.68192 0.32589 0.0
H1748 H 0.3702 0.24677 0.48895 0.0
H1749 H 0.35279 0.27969 0.52779 0.0
H1750 H 0.36727 0.25137 0.40817 0.0
H1751 H 0.35027 0.28479 0.44584 0.0
H1752 H 0.32937 0.2712 0.29586 0.0
H1753 H 0.33526 0.27291 0.37805 0.0
H1754 H 0.37799 0.26987 0.34839 0.0
H1755 H 0.37166 0.26738 0.26629 0.0
C1756 C 0.3658 0.25509 0.48014 0.0
C1757 C 0.36169 0.26284 0.51476 0.0
C1758 C 0.36431 0.2579 0.43363 0.0
C1759 C 0.35882 0.2687 0.4202 0.0
C1760 C 0.35452 0.27638 0.45488 0.0
C1761 C 0.35592 0.27345 0.50179 0.0
C1762 C 0.34025 0.27135 0.30678 0.0
C1763 C 0.34995 0.2689 0.27468 0.0
C1764 C 0.34363 0.27233 0.35405 0.0
C1765 C 0.35688 0.27107 0.3701 0.0
C1766 C 0.3674 0.27034 0.3374 0.0
C1767 C 0.3639 0.26912 0.29024 0.0
H1768 H 0.76124 0.08101 0.54816 0.0
H1769 H 0.72431 0.09294 0.51096 0.0
H1770 H 0.76324 0.07435 0.46818 0.0
H1771 H 0.7252 0.08504 0.43155 0.0
H1772 H 0.74587 0.09211 0.28625 0.0
H1773 H 0.73953 0.09404 0.36655 0.0
H1774 H 0.75508 0.05937 0.40388 0.0
H1775 H 0.76259 0.05862 0.32402 0.0
C1776 C 0.75318 0.08166 0.52296 0.0
C1777 C 0.74271 0.08756 0.53543 0.0
C1778 C 0.75423 0.07778 0.47691 0.0
C1779 C 0.74451 0.0793 0.44255 0.0
C1780 C 0.73327 0.08417 0.45624 0.0
C1781 C 0.73258 0.08852 0.50194 0.0
C1782 C 0.74772 0.0848 0.31172 0.0
C1783 C 0.75481 0.07533 0.29922 0.0
C1784 C 0.744 0.08579 0.35795 0.0
C1785 C 0.74689 0.07697 0.39253 0.0
C1786 C 0.7531 0.06674 0.37897 0.0
C1787 C 0.75725 0.06614 0.33303 0.0
H1788 H 0.95206 0.39074 0.17059 0.0
H1789 H 0.00059 0.40333 0.14642 0.0
H1790 H 0.95545 0.38734 0.25233 0.0
H1791 H 0.00424 0.4006 0.22916 0.0
H1792 H 0.00577 0.38929 0.37958 0.0
H1793 H 0.99895 0.38444 0.29766 0.0
H1794 H 0.96732 0.40521 0.31304 0.0
H1795 H 0.9738 0.40958 0.39437 0.0
C1796 C 0.96349 0.39276 0.18288 0.0
C1797 C 0.97614 0.39756 0.15238 0.0
C1798 C 0.96544 0.39085 0.22979 0.0
C1799 C 0.98017 0.39396 0.24762 0.0
C1800 C 0.9927 0.39799 0.21663 0.0
C1801 C 0.99067 0.39967 0.1693 0.0
C1802 C 0.99701 0.39236 0.36561 0.0
C1803 C 0.99034 0.39985 0.39333 0.0
C1804 C 0.99325 0.38977 0.31857 0.0
C1805 C 0.98271 0.39457 0.29852 0.0
C1806 C 0.97535 0.40117 0.32717 0.0
C1807 C 0.9791 0.40374 0.37396 0.0
H1808 H 0.5952 0.55996 0.1631 0.0
H1809 H 0.58721 0.59826 0.11226 0.0
H1810 H 0.59324 0.56745 0.24215 0.0
H1811 H 0.58538 0.60592 0.192 0.0
H1812 H 0.55813 0.59572 0.33171 0.0
H1813 H 0.56574 0.59392 0.25275 0.0
H1814 H 0.60475 0.58718 0.30329 0.0
H1815 H 0.59697 0.58885 0.38296 0.0
C1816 C 0.59324 0.57015 0.16886 0.0
C1817 C 0.59119 0.57844 0.13144 0.0
C1818 C 0.59226 0.57452 0.21427 0.0
C1819 C 0.5891 0.58725 0.22347 0.0
C1820 C 0.58768 0.59596 0.18602 0.0
C1821 C 0.58878 0.59163 0.1404 0.0
C1822 C 0.56845 0.59403 0.32606 0.0
C1823 C 0.57687 0.59226 0.36357 0.0
C1824 C 0.5729 0.59315 0.2807 0.0
C1825 C 0.58583 0.59037 0.27163 0.0
C1826 C 0.59464 0.58919 0.30916 0.0
C1827 C 0.59024 0.5902 0.35474 0.0
H1828 H 0.38714 0.99122 0.34702 0.0
H1829 H 0.42195 0.97604 0.31127 0.0
H1830 H 0.38298 0.99429 0.26468 0.0
H1831 H 0.41825 0.97951 0.23015 0.0
H1832 H 0.40305 0.97465 0.08712 0.0
H1833 H 0.40031 0.96822 0.16906 0.0
H1834 H 0.39532 0.01012 0.19806 0.0
H1835 H 0.39731 0.01609 0.11571 0.0
C1836 C 0.39399 0.9887 0.32163 0.0
C1837 C 0.40484 0.98336 0.33552 0.0
C1838 C 0.3916 0.99042 0.27452 0.0
C1839 C 0.40007 0.98687 0.24062 0.0
C1840 C 0.41114 0.98188 0.255 0.0
C1841 C 0.41342 0.98007 0.30169 0.0
C1842 C 0.40088 0.98221 0.11089 0.0
C1843 C 0.40054 0.99593 0.09516 0.0
C1844 C 0.39949 0.97865 0.15794 0.0
C1845 C 0.39808 0.98891 0.1904 0.0
C1846 C 0.39641 0.00195 0.17416 0.0
C1847 C 0.39754 0.00538 0.12689 0.0
H1848 H 0.56962 0.97705 0.86603 0.0
H1849 H 0.60032 0.02326 0.91537 0.0
H1850 H 0.57609 0.98582 0.78678 0.0
H1851 H 0.60704 0.03208 0.83541 0.0
H1852 H 0.59119 0.04441 0.69487 0.0
H1853 H 0.59174 0.03644 0.77416 0.0
H1854 H 0.59585 0.99566 0.72596 0.0
H1855 H 0.59508 0.00362 0.64585 0.0
C1856 C 0.57798 0.98905 0.8599 0.0
C1857 C 0.5843 0.99954 0.89683 0.0
C1858 C 0.5818 0.99404 0.81441 0.0
C1859 C 0.592 0.00967 0.80474 0.0
C1860 C 0.59899 0.01999 0.84181 0.0
C1861 C 0.59521 0.01496 0.88753 0.0
C1862 C 0.59235 0.03381 0.70108 0.0
C1863 C 0.59288 0.02452 0.66416 0.0
C1864 C 0.59285 0.02933 0.74663 0.0
C1865 C 0.59384 0.01542 0.75642 0.0
C1866 C 0.59496 0.00639 0.71946 0.0
C1867 C 0.59454 0.01094 0.67367 0.0
H1868 H 0.0243 0.60262 0.60626 0.0
H1869 H 0.97841 0.57026 0.65266 0.0
H1870 H 0.03289 0.60828 0.6869 0.0
H1871 H 0.98693 0.57578 0.73252 0.0
H1872 H 0.00409 0.5943 0.87484 0.0
H1873 H 0.99639 0.59564 0.7948 0.0
H1874 H 0.03713 0.5918 0.74635 0.0
H1875 H 0.04483 0.59058 0.82571 0.0
C1876 C 0.01601 0.59692 0.63364 0.0
C1877 C 0.00077 0.58587 0.62331 0.0
C1878 C 0.02092 0.60011 0.67968 0.0
C1879 C 0.01058 0.59242 0.71598 0.0
C1880 C 0.99512 0.58202 0.70542 0.0
C1881 C 0.99029 0.57874 0.65961 0.0
C1882 C 0.01145 0.59392 0.84701 0.0
C1883 C 0.02493 0.59213 0.85641 0.0
C1884 C 0.00706 0.59468 0.80129 0.0
C1885 C 0.01616 0.59382 0.76434 0.0
C1886 C 0.02998 0.5927 0.774 0.0
C1887 C 0.03429 0.59182 0.81951 0.0
H1888 H 0.40479 0.41422 0.61752 0.0
H1889 H 0.44409 0.408 0.66797 0.0
H1890 H 0.39711 0.41581 0.69737 0.0
H1891 H 0.43654 0.40968 0.7471 0.0
H1892 H 0.41491 0.40484 0.88779 0.0
H1893 H 0.41676 0.39728 0.80792 0.0
H1894 H 0.40888 0.4358 0.75831 0.0
H1895 H 0.40695 0.44322 0.83747 0.0
C1896 C 0.41165 0.413 0.6456 0.0
C1897 C 0.42512 0.41115 0.63653 0.0
C1898 C 0.4073 0.41395 0.69126 0.0
C1899 C 0.41624 0.41291 0.72858 0.0
C1900 C 0.42929 0.41035 0.71927 0.0
C1901 C 0.4337 0.40953 0.67384 0.0
C1902 C 0.41335 0.41151 0.85973 0.0
C1903 C 0.41096 0.4247 0.86885 0.0
C1904 C 0.41446 0.40724 0.81407 0.0
C1905 C 0.41301 0.41598 0.77677 0.0
C1906 C 0.40988 0.42871 0.78612 0.0
C1907 C 0.40892 0.43304 0.83157 0.0
loop_
_geom_bond_atom_site_label_1
_geom_bond_atom_site_label_2
_geom_bond_distance
_geom_bond_site_symmetry_2
_ccdc_geom_bond_type
In0 O1 2.294 . S
In0 O2 2.326 . S
In0 O6 2.266 . S
In0 O7 2.326 . S
In0 O8 2.266 . S
In0 O9 2.326 . S
In0 O11 2.294 . S
In0 O12 2.326 . S
O1 In0 2.294 . S
O1 C10 1.240 . S
O2 In0 2.326 . S
O2 C10 1.252 . S
C3 O6 1.252 . S
C3 O7 1.260 . S
C4 O11 1.240 . S
C4 O12 1.252 . S
C5 O8 1.252 . S
C5 O9 1.260 . S
O6 In0 2.266 . S
O6 C3 1.252 . S
O7 In0 2.326 . S
O7 C3 1.260 . S
O8 In0 2.266 . S
O8 C5 1.252 . S
O9 In0 2.326 . S
O9 C5 1.260 . S
C10 O1 1.240 . S
C10 O2 1.252 . S
O11 In0 2.294 . S
O11 C4 1.240 . S
O12 In0 2.326 . S
O12 C4 1.252 . S
In13 O14 2.294 . S
In13 O15 2.326 . S
In13 O19 2.266 . S
In13 O20 2.326 . S
In13 O21 2.266 . S
In13 O22 2.326 . S
In13 O24 2.294 . S
In13 O25 2.326 . S
O14 In13 2.294 . S
O14 C23 1.240 . S
O15 In13 2.326 . S
O15 C23 1.252 . S
C16 O19 1.252 . S
C16 O20 1.260 . S
C17 O24 1.240 . S
C17 O25 1.252 . S
C18 O21 1.252 . S
C18 O22 1.260 . S
O19 In13 2.266 . S
O19 C16 1.252 . S
O20 In13 2.326 . S
O20 C16 1.260 . S
O21 In13 2.266 . S
O21 C18 1.252 . S
O22 In13 2.326 . S
O22 C18 1.260 . S
C23 O14 1.240 . S
C23 O15 1.252 . S
O24 In13 2.294 . S
O24 C17 1.240 . S
O25 In13 2.326 . S
O25 C17 1.252 . S
In26 O27 2.294 . S
In26 O28 2.326 . S
In26 O32 2.266 . S
In26 O33 2.326 . S
In26 O34 2.266 . S
In26 O35 2.326 . S
In26 O37 2.294 . S
In26 O38 2.326 . S
O27 In26 2.294 . S
O27 C36 1.240 . S
O28 In26 2.326 . S
O28 C36 1.252 . S
C29 O32 1.252 . S
C29 O33 1.260 . S
C30 O37 1.240 . S
C30 O38 1.252 . S
C31 O34 1.252 . S
C31 O35 1.260 . S
O32 In26 2.266 . S
O32 C29 1.252 . S
O33 In26 2.326 . S
O33 C29 1.260 . S
O34 In26 2.266 . S
O34 C31 1.252 . S
O35 In26 2.326 . S
O35 C31 1.260 . S
C36 O27 1.240 . S
C36 O28 1.252 . S
O37 In26 2.294 . S
O37 C30 1.240 . S
O38 In26 2.326 . S
O38 C30 1.252 . S
In39 O40 2.294 . S
In39 O41 2.326 . S
In39 O45 2.266 . S
In39 O46 2.326 . S
In39 O47 2.266 . S
In39 O48 2.326 . S
In39 O50 2.294 . S
In39 O51 2.326 . S
O40 In39 2.294 . S
O40 C49 1.240 . S
O41 In39 2.326 . S
O41 C49 1.252 . S
C42 O45 1.252 . S
C42 O46 1.260 . S
C43 O50 1.240 . S
C43 O51 1.252 . S
C44 O47 1.252 . S
C44 O48 1.260 . S
O45 In39 2.266 . S
O45 C42 1.252 . S
O46 In39 2.326 . S
O46 C42 1.260 . S
O47 In39 2.266 . S
O47 C44 1.252 . S
O48 In39 2.326 . S
O48 C44 1.260 . S
C49 O40 1.240 . S
C49 O41 1.252 . S
O50 In39 2.294 . S
O50 C43 1.240 . S
O51 In39 2.326 . S
O51 C43 1.252 . S
In52 O53 2.294 . S
In52 O54 2.326 . S
In52 O58 2.266 . S
In52 O59 2.326 . S
In52 O60 2.266 . S
In52 O61 2.326 . S
In52 O63 2.294 . S
In52 O64 2.326 . S
O53 In52 2.294 . S
O53 C62 1.240 . S
O54 In52 2.326 . S
O54 C62 1.252 . S
C55 O58 1.252 . S
C55 O59 1.260 . S
C56 O63 1.240 . S
C56 O64 1.252 . S
C57 O60 1.252 . S
C57 O61 1.260 . S
O58 In52 2.266 . S
O58 C55 1.252 . S
O59 In52 2.326 . S
O59 C55 1.260 . S
O60 In52 2.266 . S
O60 C57 1.252 . S
O61 In52 2.326 . S
O61 C57 1.260 . S
C62 O53 1.240 . S
C62 O54 1.252 . S
O63 In52 2.294 . S
O63 C56 1.240 . S
O64 In52 2.326 . S
O64 C56 1.252 . S
In65 O66 2.294 . S
In65 O67 2.326 . S
In65 O71 2.266 . S
In65 O72 2.326 . S
In65 O73 2.266 . S
In65 O74 2.326 . S
In65 O76 2.294 . S
In65 O77 2.326 . S
O66 In65 2.294 . S
O66 C75 1.240 . S
O67 In65 2.326 . S
O67 C75 1.252 . S
C68 O71 1.252 . S
C68 O72 1.260 . S
C69 O76 1.240 . S
C69 O77 1.252 . S
C70 O73 1.252 . S
C70 O74 1.260 . S
O71 In65 2.266 . S
O71 C68 1.252 . S
O72 In65 2.326 . S
O72 C68 1.260 . S
O73 In65 2.266 . S
O73 C70 1.252 . S
O74 In65 2.326 . S
O74 C70 1.260 . S
C75 O66 1.240 . S
C75 O67 1.252 . S
O76 In65 2.294 . S
O76 C69 1.240 . S
O77 In65 2.326 . S
O77 C69 1.252 . S
In78 O79 2.294 . S
In78 O80 2.326 . S
In78 O84 2.266 . S
In78 O85 2.326 . S
In78 O86 2.266 . S
In78 O87 2.326 . S
In78 O89 2.294 . S
In78 O90 2.326 . S
O79 In78 2.294 . S
O79 C88 1.240 . S
O80 In78 2.326 . S
O80 C88 1.252 . S
C81 O84 1.252 . S
C81 O85 1.260 . S
C82 O89 1.240 . S
C82 O90 1.252 . S
C83 O86 1.252 . S
C83 O87 1.260 . S
O84 In78 2.266 . S
O84 C81 1.252 . S
O85 In78 2.326 . S
O85 C81 1.260 . S
O86 In78 2.266 . S
O86 C83 1.252 . S
O87 In78 2.326 . S
O87 C83 1.260 . S
C88 O79 1.240 . S
C88 O80 1.252 . S
O89 In78 2.294 . S
O89 C82 1.240 . S
O90 In78 2.326 . S
O90 C82 1.252 . S
In91 O92 2.294 . S
In91 O93 2.326 . S
In91 O97 2.266 . S
In91 O98 2.326 . S
In91 O99 2.266 . S
In91 O100 2.326 . S
In91 O102 2.294 . S
In91 O103 2.326 . S
O92 In91 2.294 . S
O92 C101 1.240 . S
O93 In91 2.326 . S
O93 C101 1.252 . S
C94 O97 1.252 . S
C94 O98 1.260 . S
C95 O102 1.240 . S
C95 O103 1.252 . S
C96 O99 1.252 . S
C96 O100 1.260 . S
O97 In91 2.266 . S
O97 C94 1.252 . S
O98 In91 2.326 . S
O98 C94 1.260 . S
O99 In91 2.266 . S
O99 C96 1.252 . S
O100 In91 2.326 . S
O100 C96 1.260 . S
C101 O92 1.240 . S
C101 O93 1.252 . S
O102 In91 2.294 . S
O102 C95 1.240 . S
O103 In91 2.326 . S
O103 C95 1.252 . S
In104 O105 2.294 . S
In104 O106 2.326 . S
In104 O110 2.266 . S
In104 O111 2.326 . S
In104 O112 2.266 . S
In104 O113 2.326 . S
In104 O115 2.294 . S
In104 O116 2.326 . S
O105 In104 2.294 . S
O105 C114 1.240 . S
O106 In104 2.326 . S
O106 C114 1.252 . S
C107 O110 1.252 . S
C107 O111 1.260 . S
C108 O115 1.240 . S
C108 O116 1.252 . S
C109 O112 1.252 . S
C109 O113 1.260 . S
O110 In104 2.266 . S
O110 C107 1.252 . S
O111 In104 2.326 . S
O111 C107 1.260 . S
O112 In104 2.266 . S
O112 C109 1.252 . S
O113 In104 2.326 . S
O113 C109 1.260 . S
C114 O105 1.240 . S
C114 O106 1.252 . S
O115 In104 2.294 . S
O115 C108 1.240 . S
O116 In104 2.326 . S
O116 C108 1.252 . S
In117 O118 2.294 . S
In117 O119 2.326 . S
In117 O123 2.266 . S
In117 O124 2.326 . S
In117 O125 2.266 . S
In117 O126 2.326 . S
In117 O128 2.294 . S
In117 O129 2.326 . S
O118 In117 2.294 . S
O118 C127 1.240 . S
O119 In117 2.326 . S
O119 C127 1.252 . S
C120 O123 1.252 . S
C120 O124 1.260 . S
C121 O128 1.240 . S
C121 O129 1.252 . S
C122 O125 1.252 . S
C122 O126 1.260 . S
O123 In117 2.266 . S
O123 C120 1.252 . S
O124 In117 2.326 . S
O124 C120 1.260 . S
O125 In117 2.266 . S
O125 C122 1.252 . S
O126 In117 2.326 . S
O126 C122 1.260 . S
C127 O118 1.240 . S
C127 O119 1.252 . S
O128 In117 2.294 . S
O128 C121 1.240 . S
O129 In117 2.326 . S
O129 C121 1.252 . S
In130 O131 2.294 . S
In130 O132 2.326 . S
In130 O136 2.266 . S
In130 O137 2.326 . S
In130 O138 2.266 . S
In130 O139 2.326 . S
In130 O141 2.294 . S
In130 O142 2.326 . S
O131 In130 2.294 . S
O131 C140 1.240 . S
O132 In130 2.326 . S
O132 C140 1.252 . S
C133 O136 1.252 . S
C133 O137 1.260 . S
C134 O141 1.240 . S
C134 O142 1.252 . S
C135 O138 1.252 . S
C135 O139 1.260 . S
O136 In130 2.266 . S
O136 C133 1.252 . S
O137 In130 2.326 . S
O137 C133 1.260 . S
O138 In130 2.266 . S
O138 C135 1.252 . S
O139 In130 2.326 . S
O139 C135 1.260 . S
C140 O131 1.240 . S
C140 O132 1.252 . S
O141 In130 2.294 . S
O141 C134 1.240 . S
O142 In130 2.326 . S
O142 C134 1.252 . S
In143 O144 2.294 . S
In143 O145 2.326 . S
In143 O149 2.266 . S
In143 O150 2.326 . S
In143 O151 2.266 . S
In143 O152 2.326 . S
In143 O154 2.294 . S
In143 O155 2.326 . S
O144 In143 2.294 . S
O144 C153 1.240 . S
O145 In143 2.326 . S
O145 C153 1.252 . S
C146 O149 1.252 . S
C146 O150 1.260 . S
C147 O154 1.240 . S
C147 O155 1.252 . S
C148 O151 1.252 . S
C148 O152 1.260 . S
O149 In143 2.266 . S
O149 C146 1.252 . S
O150 In143 2.326 . S
O150 C146 1.260 . S
O151 In143 2.266 . S
O151 C148 1.252 . S
O152 In143 2.326 . S
O152 C148 1.260 . S
C153 O144 1.240 . S
C153 O145 1.252 . S
O154 In143 2.294 . S
O154 C147 1.240 . S
O155 In143 2.326 . S
O155 C147 1.252 . S
In156 O157 2.294 1_455 S
In156 O158 2.326 . S
In156 O162 2.267 1_455 S
In156 O163 2.326 . S
In156 O164 2.265 . S
In156 O165 2.325 . S
In156 O167 2.294 . S
In156 O168 2.327 1_455 S
O157 In156 2.294 1_655 S
O157 C166 1.240 . S
O158 In156 2.326 . S
O158 C166 1.252 1_455 S
C159 O162 1.252 . S
C159 O163 1.260 1_655 S
C160 O167 1.240 . S
C160 O168 1.252 1_455 S
C161 O164 1.252 . S
C161 O165 1.260 . S
O162 In156 2.267 1_655 S
O162 C159 1.252 . S
O163 In156 2.326 . S
O163 C159 1.260 1_455 S
O164 In156 2.265 . S
O164 C161 1.252 . S
O165 In156 2.325 . S
O165 C161 1.260 . S
C166 O157 1.240 . S
C166 O158 1.252 1_655 S
O167 In156 2.294 . S
O167 C160 1.240 . S
O168 In156 2.327 1_655 S
O168 C160 1.252 1_655 S
In169 O170 2.294 . S
In169 O171 2.326 . S
In169 O175 2.266 . S
In169 O176 2.326 . S
In169 O177 2.266 . S
In169 O178 2.326 . S
In169 O180 2.294 . S
In169 O181 2.326 . S
O170 In169 2.294 . S
O170 C179 1.240 . S
O171 In169 2.326 . S
O171 C179 1.252 . S
C172 O175 1.252 . S
C172 O176 1.260 . S
C173 O180 1.240 . S
C173 O181 1.252 . S
C174 O177 1.252 . S
C174 O178 1.260 . S
O175 In169 2.266 . S
O175 C172 1.252 . S
O176 In169 2.326 . S
O176 C172 1.260 . S
O177 In169 2.266 . S
O177 C174 1.252 . S
O178 In169 2.326 . S
O178 C174 1.260 . S
C179 O170 1.240 . S
C179 O171 1.252 . S
O180 In169 2.294 . S
O180 C173 1.240 . S
O181 In169 2.326 . S
O181 C173 1.252 . S
In182 O183 2.294 . S
In182 O184 2.326 . S
In182 O188 2.266 . S
In182 O189 2.326 . S
In182 O190 2.266 . S
In182 O191 2.326 . S
In182 O193 2.294 . S
In182 O194 2.326 . S
O183 In182 2.294 . S
O183 C192 1.240 . S
O184 In182 2.326 . S
O184 C192 1.252 . S
C185 O188 1.252 . S
C185 O189 1.260 . S
C186 O193 1.240 . S
C186 O194 1.252 . S
C187 O190 1.252 . S
C187 O191 1.260 . S
O188 In182 2.266 . S
O188 C185 1.252 . S
O189 In182 2.326 . S
O189 C185 1.260 . S
O190 In182 2.266 . S
O190 C187 1.252 . S
O191 In182 2.326 . S
O191 C187 1.260 . S
C192 O183 1.240 . S
C192 O184 1.252 . S
O193 In182 2.294 . S
O193 C186 1.240 . S
O194 In182 2.326 . S
O194 C186 1.252 . S
In195 O196 2.294 . S
In195 O197 2.326 . S
In195 O201 2.266 . S
In195 O202 2.326 . S
In195 O203 2.266 . S
In195 O204 2.326 . S
In195 O206 2.294 . S
In195 O207 2.326 . S
O196 In195 2.294 . S
O196 C205 1.240 . S
O197 In195 2.326 . S
O197 C205 1.252 . S
C198 O201 1.252 . S
C198 O202 1.260 . S
C199 O206 1.240 . S
C199 O207 1.252 . S
C200 O203 1.252 . S
C200 O204 1.260 . S
O201 In195 2.266 . S
O201 C198 1.252 . S
O202 In195 2.326 . S
O202 C198 1.260 . S
O203 In195 2.266 . S
O203 C200 1.252 . S
O204 In195 2.326 . S
O204 C200 1.260 . S
C205 O196 1.240 . S
C205 O197 1.252 . S
O206 In195 2.294 . S
O206 C199 1.240 . S
O207 In195 2.326 . S
O207 C199 1.252 . S
In208 O209 2.294 . S
In208 O210 2.326 . S
In208 O214 2.266 . S
In208 O215 2.326 . S
In208 O216 2.266 . S
In208 O217 2.326 . S
In208 O219 2.294 . S
In208 O220 2.326 . S
O209 In208 2.294 . S
O209 C218 1.240 . S
O210 In208 2.326 . S
O210 C218 1.252 . S
C211 O214 1.252 . S
C211 O215 1.260 . S
C212 O219 1.240 . S
C212 O220 1.252 . S
C213 O216 1.252 . S
C213 O217 1.260 . S
O214 In208 2.266 . S
O214 C211 1.252 . S
O215 In208 2.326 . S
O215 C211 1.260 . S
O216 In208 2.266 . S
O216 C213 1.252 . S
O217 In208 2.326 . S
O217 C213 1.260 . S
C218 O209 1.240 . S
C218 O210 1.252 . S
O219 In208 2.294 . S
O219 C212 1.240 . S
O220 In208 2.326 . S
O220 C212 1.252 . S
In221 O222 2.294 . S
In221 O223 2.326 . S
In221 O227 2.266 . S
In221 O228 2.326 . S
In221 O229 2.266 . S
In221 O230 2.326 . S
In221 O232 2.294 . S
In221 O233 2.326 . S
O222 In221 2.294 . S
O222 C231 1.240 . S
O223 In221 2.326 . S
O223 C231 1.252 . S
C224 O227 1.252 . S
C224 O228 1.260 . S
C225 O232 1.240 . S
C225 O233 1.252 . S
C226 O229 1.252 . S
C226 O230 1.260 . S
O227 In221 2.266 . S
O227 C224 1.252 . S
O228 In221 2.326 . S
O228 C224 1.260 . S
O229 In221 2.266 . S
O229 C226 1.252 . S
O230 In221 2.326 . S
O230 C226 1.260 . S
C231 O222 1.240 . S
C231 O223 1.252 . S
O232 In221 2.294 . S
O232 C225 1.240 . S
O233 In221 2.326 . S
O233 C225 1.252 . S
In234 O235 2.294 . S
In234 O236 2.326 . S
In234 O240 2.266 . S
In234 O241 2.326 . S
In234 O242 2.266 . S
In234 O243 2.326 . S
In234 O245 2.294 . S
In234 O246 2.326 . S
O235 In234 2.294 . S
O235 C244 1.240 . S
O236 In234 2.326 . S
O236 C244 1.252 . S
C237 O240 1.252 . S
C237 O241 1.260 . S
C238 O245 1.240 . S
C238 O246 1.252 . S
C239 O242 1.252 . S
C239 O243 1.260 . S
O240 In234 2.266 . S
O240 C237 1.252 . S
O241 In234 2.326 . S
O241 C237 1.260 . S
O242 In234 2.266 . S
O242 C239 1.252 . S
O243 In234 2.326 . S
O243 C239 1.260 . S
C244 O235 1.240 . S
C244 O236 1.252 . S
O245 In234 2.294 . S
O245 C238 1.240 . S
O246 In234 2.326 . S
O246 C238 1.252 . S
In247 O248 2.294 . S
In247 O249 2.326 . S
In247 O253 2.266 . S
In247 O254 2.326 . S
In247 O255 2.266 . S
In247 O256 2.326 . S
In247 O258 2.294 . S
In247 O259 2.326 . S
O248 In247 2.294 . S
O248 C257 1.240 . S
O249 In247 2.326 . S
O249 C257 1.252 . S
C250 O253 1.252 . S
C250 O254 1.260 . S
C251 O258 1.240 . S
C251 O259 1.252 . S
C252 O255 1.252 . S
C252 O256 1.260 . S
O253 In247 2.266 . S
O253 C250 1.252 . S
O254 In247 2.326 . S
O254 C250 1.260 . S
O255 In247 2.266 . S
O255 C252 1.252 . S
O256 In247 2.326 . S
O256 C252 1.260 . S
C257 O248 1.240 . S
C257 O249 1.252 . S
O258 In247 2.294 . S
O258 C251 1.240 . S
O259 In247 2.326 . S
O259 C251 1.252 . S
In260 O261 2.294 . S
In260 O262 2.326 . S
In260 O266 2.266 . S
In260 O267 2.326 . S
In260 O268 2.266 . S
In260 O269 2.326 . S
In260 O271 2.294 . S
In260 O272 2.326 . S
O261 In260 2.294 . S
O261 C270 1.240 . S
O262 In260 2.326 . S
O262 C270 1.252 . S
C263 O266 1.252 . S
C263 O267 1.260 . S
C264 O271 1.240 . S
C264 O272 1.252 . S
C265 O268 1.252 . S
C265 O269 1.260 . S
O266 In260 2.266 . S
O266 C263 1.252 . S
O267 In260 2.326 . S
O267 C263 1.260 . S
O268 In260 2.266 . S
O268 C265 1.252 . S
O269 In260 2.326 . S
O269 C265 1.260 . S
C270 O261 1.240 . S
C270 O262 1.252 . S
O271 In260 2.294 . S
O271 C264 1.240 . S
O272 In260 2.326 . S
O272 C264 1.252 . S
In273 O274 2.297 1_565 S
In273 O275 2.330 . S
In273 O279 2.264 1_564 S
In273 O280 2.322 1_554 S
In273 O281 2.265 1_554 S
In273 O282 2.325 1_554 S
In273 O284 2.294 . S
In273 O285 2.327 1_565 S
O274 In273 2.297 1_545 S
O274 C283 1.240 . S
O275 In273 2.330 . S
O275 C283 1.252 1_565 S
C276 O279 1.252 . S
C276 O280 1.260 1_545 S
C277 O284 1.240 . S
C277 O285 1.252 1_565 S
C278 O281 1.252 . S
C278 O282 1.260 . S
O279 In273 2.264 1_546 S
O279 C276 1.252 . S
O280 In273 2.322 1_556 S
O280 C276 1.260 1_565 S
O281 In273 2.265 1_556 S
O281 C278 1.252 . S
O282 In273 2.325 1_556 S
O282 C278 1.260 . S
C283 O274 1.240 . S
C283 O275 1.252 1_545 S
O284 In273 2.294 . S
O284 C277 1.240 . S
O285 In273 2.327 1_545 S
O285 C277 1.252 1_545 S
In286 O287 2.294 . S
In286 O288 2.327 . S
In286 O292 2.265 1_554 S
In286 O293 2.325 1_554 S
In286 O294 2.264 1_554 S
In286 O295 2.322 1_554 S
In286 O297 2.296 . S
In286 O298 2.330 . S
O287 In286 2.294 . S
O287 C296 1.240 . S
O288 In286 2.327 . S
O288 C296 1.252 . S
C289 O292 1.252 . S
C289 O293 1.260 . S
C290 O297 1.240 . S
C290 O298 1.252 . S
C291 O294 1.252 . S
C291 O295 1.260 . S
O292 In286 2.265 1_556 S
O292 C289 1.252 . S
O293 In286 2.325 1_556 S
O293 C289 1.260 . S
O294 In286 2.264 1_556 S
O294 C291 1.252 . S
O295 In286 2.322 1_556 S
O295 C291 1.260 . S
C296 O287 1.240 . S
C296 O288 1.252 . S
O297 In286 2.296 . S
O297 C290 1.240 . S
O298 In286 2.330 . S
O298 C290 1.252 . S
In299 O300 2.296 . S
In299 O301 2.330 . S
In299 O305 2.264 1_554 S
In299 O306 2.322 1_554 S
In299 O307 2.265 1_554 S
In299 O308 2.325 1_554 S
In299 O310 2.294 . S
In299 O311 2.327 . S
O300 In299 2.296 . S
O300 C309 1.240 . S
O301 In299 2.330 . S
O301 C309 1.252 . S
C302 O305 1.252 . S
C302 O306 1.260 . S
C303 O310 1.240 . S
C303 O311 1.252 . S
C304 O307 1.252 . S
C304 O308 1.260 . S
O305 In299 2.264 1_556 S
O305 C302 1.252 . S
O306 In299 2.322 1_556 S
O306 C302 1.260 . S
O307 In299 2.265 1_556 S
O307 C304 1.252 . S
O308 In299 2.325 1_556 S
O308 C304 1.260 . S
C309 O300 1.240 . S
C309 O301 1.252 . S
O310 In299 2.294 . S
O310 C303 1.240 . S
O311 In299 2.327 . S
O311 C303 1.252 . S
In312 O313 2.294 . S
In312 O314 2.326 . S
In312 O318 2.266 . S
In312 O319 2.326 . S
In312 O320 2.266 . S
In312 O321 2.326 . S
In312 O323 2.294 . S
In312 O324 2.326 . S
O313 In312 2.294 . S
O313 C322 1.240 . S
O314 In312 2.326 . S
O314 C322 1.252 . S
C315 O318 1.252 . S
C315 O319 1.260 . S
C316 O323 1.240 . S
C316 O324 1.252 . S
C317 O320 1.252 . S
C317 O321 1.260 . S
O318 In312 2.266 . S
O318 C315 1.252 . S
O319 In312 2.326 . S
O319 C315 1.260 . S
O320 In312 2.266 . S
O320 C317 1.252 . S
O321 In312 2.326 . S
O321 C317 1.260 . S
C322 O313 1.240 . S
C322 O314 1.252 . S
O323 In312 2.294 . S
O323 C316 1.240 . S
O324 In312 2.326 . S
O324 C316 1.252 . S
In325 O326 2.294 . S
In325 O327 2.326 . S
In325 O331 2.266 . S
In325 O332 2.326 . S
In325 O333 2.266 . S
In325 O334 2.326 . S
In325 O336 2.294 . S
In325 O337 2.326 . S
O326 In325 2.294 . S
O326 C335 1.240 . S
O327 In325 2.326 . S
O327 C335 1.252 . S
C328 O331 1.252 . S
C328 O332 1.260 . S
C329 O336 1.240 . S
C329 O337 1.252 . S
C330 O333 1.252 . S
C330 O334 1.260 . S
O331 In325 2.266 . S
O331 C328 1.252 . S
O332 In325 2.326 . S
O332 C328 1.260 . S
O333 In325 2.266 . S
O333 C330 1.252 . S
O334 In325 2.326 . S
O334 C330 1.260 . S
C335 O326 1.240 . S
C335 O327 1.252 . S
O336 In325 2.294 . S
O336 C329 1.240 . S
O337 In325 2.326 . S
O337 C329 1.252 . S
In338 O339 2.294 . S
In338 O340 2.326 . S
In338 O344 2.266 . S
In338 O345 2.326 . S
In338 O346 2.266 . S
In338 O347 2.326 . S
In338 O349 2.294 . S
In338 O350 2.326 . S
O339 In338 2.294 . S
O339 C348 1.240 . S
O340 In338 2.326 . S
O340 C348 1.252 . S
C341 O344 1.252 . S
C341 O345 1.260 . S
C342 O349 1.240 . S
C342 O350 1.252 . S
C343 O346 1.252 . S
C343 O347 1.260 . S
O344 In338 2.266 . S
O344 C341 1.252 . S
O345 In338 2.326 . S
O345 C341 1.260 . S
O346 In338 2.266 . S
O346 C343 1.252 . S
O347 In338 2.326 . S
O347 C343 1.260 . S
C348 O339 1.240 . S
C348 O340 1.252 . S
O349 In338 2.294 . S
O349 C342 1.240 . S
O350 In338 2.326 . S
O350 C342 1.252 . S
In351 O352 2.297 1_545 S
In351 O353 2.330 . S
In351 O357 2.264 1_546 S
In351 O358 2.322 1_556 S
In351 O359 2.265 1_556 S
In351 O360 2.325 1_556 S
In351 O362 2.294 . S
In351 O363 2.327 1_545 S
O352 In351 2.297 1_565 S
O352 C361 1.240 . S
O353 In351 2.330 . S
O353 C361 1.252 1_545 S
C354 O357 1.252 . S
C354 O358 1.260 1_565 S
C355 O362 1.240 . S
C355 O363 1.252 1_545 S
C356 O359 1.252 . S
C356 O360 1.260 . S
O357 In351 2.264 1_564 S
O357 C354 1.252 . S
O358 In351 2.322 1_554 S
O358 C354 1.260 1_545 S
O359 In351 2.265 1_554 S
O359 C356 1.252 . S
O360 In351 2.325 1_554 S
O360 C356 1.260 . S
C361 O352 1.240 . S
C361 O353 1.252 1_565 S
O362 In351 2.294 . S
O362 C355 1.240 . S
O363 In351 2.327 1_565 S
O363 C355 1.252 1_565 S
In364 O365 2.296 . S
In364 O366 2.330 . S
In364 O370 2.264 1_556 S
In364 O371 2.322 1_556 S
In364 O372 2.265 1_556 S
In364 O373 2.325 1_556 S
In364 O375 2.294 . S
In364 O376 2.327 . S
O365 In364 2.296 . S
O365 C374 1.240 . S
O366 In364 2.330 . S
O366 C374 1.252 . S
C367 O370 1.252 . S
C367 O371 1.260 . S
C368 O375 1.240 . S
C368 O376 1.252 . S
C369 O372 1.252 . S
C369 O373 1.260 . S
O370 In364 2.264 1_554 S
O370 C367 1.252 . S
O371 In364 2.322 1_554 S
O371 C367 1.260 . S
O372 In364 2.265 1_554 S
O372 C369 1.252 . S
O373 In364 2.325 1_554 S
O373 C369 1.260 . S
C374 O365 1.240 . S
C374 O366 1.252 . S
O375 In364 2.294 . S
O375 C368 1.240 . S
O376 In364 2.327 . S
O376 C368 1.252 . S
In377 O378 2.294 . S
In377 O379 2.327 . S
In377 O383 2.265 1_556 S
In377 O384 2.325 1_556 S
In377 O385 2.264 1_556 S
In377 O386 2.322 1_556 S
In377 O388 2.296 . S
In377 O389 2.330 . S
O378 In377 2.294 . S
O378 C387 1.240 . S
O379 In377 2.327 . S
O379 C387 1.252 . S
C380 O383 1.252 . S
C380 O384 1.260 . S
C381 O388 1.240 . S
C381 O389 1.252 . S
C382 O385 1.252 . S
C382 O386 1.260 . S
O383 In377 2.265 1_554 S
O383 C380 1.252 . S
O384 In377 2.325 1_554 S
O384 C380 1.260 . S
O385 In377 2.264 1_554 S
O385 C382 1.252 . S
O386 In377 2.322 1_554 S
O386 C382 1.260 . S
C387 O378 1.240 . S
C387 O379 1.252 . S
O388 In377 2.296 . S
O388 C381 1.240 . S
O389 In377 2.330 . S
O389 C381 1.252 . S
In390 O391 2.294 . S
In390 O392 2.327 1_655 S
In390 O396 2.265 . S
In390 O397 2.325 . S
In390 O398 2.267 1_655 S
In390 O399 2.326 . S
In390 O401 2.294 1_655 S
In390 O402 2.326 . S
O391 In390 2.294 . S
O391 C400 1.240 . S
O392 In390 2.327 1_455 S
O392 C400 1.252 1_455 S
C393 O396 1.252 . S
C393 O397 1.260 . S
C394 O401 1.240 . S
C394 O402 1.252 1_455 S
C395 O398 1.252 . S
C395 O399 1.260 1_455 S
O396 In390 2.265 . S
O396 C393 1.252 . S
O397 In390 2.325 . S
O397 C393 1.260 . S
O398 In390 2.267 1_455 S
O398 C395 1.252 . S
O399 In390 2.326 . S
O399 C395 1.260 1_655 S
C400 O391 1.240 . S
C400 O392 1.252 1_655 S
O401 In390 2.294 1_455 S
O401 C394 1.240 . S
O402 In390 2.326 . S
O402 C394 1.252 1_655 S
In403 O404 2.294 . S
In403 O405 2.326 . S
In403 O409 2.266 . S
In403 O410 2.326 . S
In403 O411 2.266 . S
In403 O412 2.326 . S
In403 O414 2.294 . S
In403 O415 2.326 . S
O404 In403 2.294 . S
O404 C413 1.240 . S
O405 In403 2.326 . S
O405 C413 1.252 . S
C406 O409 1.252 . S
C406 O410 1.260 . S
C407 O414 1.240 . S
C407 O415 1.252 . S
C408 O411 1.252 . S
C408 O412 1.260 . S
O409 In403 2.266 . S
O409 C406 1.252 . S
O410 In403 2.326 . S
O410 C406 1.260 . S
O411 In403 2.266 . S
O411 C408 1.252 . S
O412 In403 2.326 . S
O412 C408 1.260 . S
C413 O404 1.240 . S
C413 O405 1.252 . S
O414 In403 2.294 . S
O414 C407 1.240 . S
O415 In403 2.326 . S
O415 C407 1.252 . S
In416 O417 2.294 . S
In416 O418 2.326 . S
In416 O422 2.266 . S
In416 O423 2.326 . S
In416 O424 2.266 . S
In416 O425 2.326 . S
In416 O427 2.294 . S
In416 O428 2.326 . S
O417 In416 2.294 . S
O417 C426 1.240 . S
O418 In416 2.326 . S
O418 C426 1.252 . S
C419 O422 1.252 . S
C419 O423 1.260 . S
C420 O427 1.240 . S
C420 O428 1.252 . S
C421 O424 1.252 . S
C421 O425 1.260 . S
O422 In416 2.266 . S
O422 C419 1.252 . S
O423 In416 2.326 . S
O423 C419 1.260 . S
O424 In416 2.266 . S
O424 C421 1.252 . S
O425 In416 2.326 . S
O425 C421 1.260 . S
C426 O417 1.240 . S
C426 O418 1.252 . S
O427 In416 2.294 . S
O427 C420 1.240 . S
O428 In416 2.326 . S
O428 C420 1.252 . S
In429 O430 2.294 . S
In429 O431 2.326 . S
In429 O435 2.266 . S
In429 O436 2.326 . S
In429 O437 2.266 . S
In429 O438 2.326 . S
In429 O440 2.294 . S
In429 O441 2.326 . S
O430 In429 2.294 . S
O430 C439 1.240 . S
O431 In429 2.326 . S
O431 C439 1.252 . S
C432 O435 1.252 . S
C432 O436 1.260 . S
C433 O440 1.240 . S
C433 O441 1.252 . S
C434 O437 1.252 . S
C434 O438 1.260 . S
O435 In429 2.266 . S
O435 C432 1.252 . S
O436 In429 2.326 . S
O436 C432 1.260 . S
O437 In429 2.266 . S
O437 C434 1.252 . S
O438 In429 2.326 . S
O438 C434 1.260 . S
C439 O430 1.240 . S
C439 O431 1.252 . S
O440 In429 2.294 . S
O440 C433 1.240 . S
O441 In429 2.326 . S
O441 C433 1.252 . S
In442 O443 2.294 . S
In442 O444 2.326 . S
In442 O448 2.266 . S
In442 O449 2.326 . S
In442 O450 2.266 . S
In442 O451 2.326 . S
In442 O453 2.294 . S
In442 O454 2.326 . S
O443 In442 2.294 . S
O443 C452 1.240 . S
O444 In442 2.326 . S
O444 C452 1.252 . S
C445 O448 1.252 . S
C445 O449 1.260 . S
C446 O453 1.240 . S
C446 O454 1.252 . S
C447 O450 1.252 . S
C447 O451 1.260 . S
O448 In442 2.266 . S
O448 C445 1.252 . S
O449 In442 2.326 . S
O449 C445 1.260 . S
O450 In442 2.266 . S
O450 C447 1.252 . S
O451 In442 2.326 . S
O451 C447 1.260 . S
C452 O443 1.240 . S
C452 O444 1.252 . S
O453 In442 2.294 . S
O453 C446 1.240 . S
O454 In442 2.326 . S
O454 C446 1.252 . S
In455 O456 2.294 . S
In455 O457 2.326 . S
In455 O461 2.266 . S
In455 O462 2.326 . S
In455 O463 2.266 . S
In455 O464 2.326 . S
In455 O466 2.294 . S
In455 O467 2.326 . S
O456 In455 2.294 . S
O456 C465 1.240 . S
O457 In455 2.326 . S
O457 C465 1.252 . S
C458 O461 1.252 . S
C458 O462 1.260 . S
C459 O466 1.240 . S
C459 O467 1.252 . S
C460 O463 1.252 . S
C460 O464 1.260 . S
O461 In455 2.266 . S
O461 C458 1.252 . S
O462 In455 2.326 . S
O462 C458 1.260 . S
O463 In455 2.266 . S
O463 C460 1.252 . S
O464 In455 2.326 . S
O464 C460 1.260 . S
C465 O456 1.240 . S
C465 O457 1.252 . S
O466 In455 2.294 . S
O466 C459 1.240 . S
O467 In455 2.326 . S
O467 C459 1.252 . S
H468 C476 0.950 . S
H469 C481 0.950 . S
H470 C478 0.950 . S
H471 C480 0.950 . S
H472 C482 0.950 . S
H473 C484 0.950 . S
H474 C486 0.950 . S
H475 C487 0.950 . S
C476 H468 0.950 . S
C476 C477 1.386 . S
C476 C478 1.391 . S
C477 C476 1.386 . S
C477 C481 1.393 . S
C478 H470 0.950 . S
C478 C476 1.391 . S
C478 C479 1.400 . S
C479 C478 1.400 . S
C479 C480 1.398 . S
C479 C485 1.491 . S
C480 H471 0.950 . S
C480 C479 1.398 . S
C480 C481 1.391 . S
C481 H469 0.950 . S
C481 C477 1.393 . S
C481 C480 1.391 . S
C482 H472 0.950 . S
C482 C483 1.386 . S
C482 C484 1.391 . S
C483 C482 1.386 . S
C483 C487 1.393 . S
C484 H473 0.950 . S
C484 C482 1.391 . S
C484 C485 1.400 . S
C485 C479 1.491 . S
C485 C484 1.400 . S
C485 C486 1.398 . S
C486 H474 0.950 . S
C486 C485 1.398 . S
C486 C487 1.391 . S
C487 H475 0.950 . S
C487 C483 1.393 . S
C487 C486 1.391 . S
H488 C496 0.950 . S
H489 C501 0.950 . S
H490 C498 0.950 . S
H491 C500 0.950 . S
H492 C502 0.950 . S
H493 C504 0.950 . S
H494 C506 0.950 . S
H495 C507 0.950 . S
C496 H488 0.950 . S
C496 C497 1.386 . S
C496 C498 1.391 . S
C497 C496 1.386 . S
C497 C501 1.393 . S
C498 H490 0.950 . S
C498 C496 1.391 . S
C498 C499 1.400 . S
C499 C498 1.400 . S
C499 C500 1.398 . S
C499 C505 1.491 . S
C500 H491 0.950 . S
C500 C499 1.398 . S
C500 C501 1.391 . S
C501 H489 0.950 . S
C501 C497 1.393 . S
C501 C500 1.391 . S
C502 H492 0.950 . S
C502 C503 1.386 . S
C502 C504 1.391 . S
C503 C502 1.386 . S
C503 C507 1.393 . S
C504 H493 0.950 . S
C504 C502 1.391 . S
C504 C505 1.400 . S
C505 C499 1.491 . S
C505 C504 1.400 . S
C505 C506 1.398 . S
C506 H494 0.950 . S
C506 C505 1.398 . S
C506 C507 1.391 . S
C507 H495 0.950 . S
C507 C503 1.393 . S
C507 C506 1.391 . S
H508 C516 0.950 . S
H509 C521 0.950 . S
H510 C518 0.950 . S
H511 C520 0.950 . S
H512 C522 0.950 . S
H513 C524 0.950 . S
H514 C526 0.950 . S
H515 C527 0.950 . S
C516 H508 0.950 . S
C516 C517 1.386 . S
C516 C518 1.391 . S
C517 C516 1.386 . S
C517 C521 1.393 . S
C518 H510 0.950 . S
C518 C516 1.391 . S
C518 C519 1.400 . S
C519 C518 1.400 . S
C519 C520 1.398 . S
C519 C525 1.491 . S
C520 H511 0.950 . S
C520 C519 1.398 . S
C520 C521 1.391 . S
C521 H509 0.950 . S
C521 C517 1.393 . S
C521 C520 1.391 . S
C522 H512 0.950 . S
C522 C523 1.386 . S
C522 C524 1.391 . S
C523 C522 1.386 . S
C523 C527 1.393 . S
C524 H513 0.950 . S
C524 C522 1.391 . S
C524 C525 1.400 . S
C525 C519 1.491 . S
C525 C524 1.400 . S
C525 C526 1.398 . S
C526 H514 0.950 . S
C526 C525 1.398 . S
C526 C527 1.391 . S
C527 H515 0.950 . S
C527 C523 1.393 . S
C527 C526 1.391 . S
H528 C536 0.950 . S
H529 C541 0.950 . S
H530 C538 0.950 . S
H531 C540 0.950 . S
H532 C542 0.950 . S
H533 C544 0.950 . S
H534 C546 0.950 . S
H535 C547 0.950 . S
C536 H528 0.950 . S
C536 C537 1.386 . S
C536 C538 1.391 1_556 S
C537 C536 1.386 . S
C537 C541 1.393 . S
C538 H530 0.950 . S
C538 C536 1.391 1_554 S
C538 C539 1.400 . S
C539 C538 1.400 . S
C539 C540 1.398 . S
C539 C545 1.491 . S
C540 H531 0.950 . S
C540 C539 1.398 . S
C540 C541 1.391 1_554 S
C541 H529 0.950 . S
C541 C537 1.393 . S
C541 C540 1.391 1_556 S
C542 H532 0.950 . S
C542 C543 1.386 . S
C542 C544 1.391 . S
C543 C542 1.386 . S
C543 C547 1.393 . S
C544 H533 0.950 . S
C544 C542 1.391 . S
C544 C545 1.400 . S
C545 C539 1.491 . S
C545 C544 1.400 . S
C545 C546 1.398 . S
C546 H534 0.950 . S
C546 C545 1.398 . S
C546 C547 1.391 . S
C547 H535 0.950 . S
C547 C543 1.393 . S
C547 C546 1.391 . S
H548 C556 0.950 . S
H549 C561 0.950 . S
H550 C558 0.950 . S
H551 C560 0.950 . S
H552 C562 0.950 . S
H553 C564 0.950 . S
H554 C566 0.950 . S
H555 C567 0.950 . S
C556 H548 0.950 . S
C556 C557 1.386 . S
C556 C558 1.391 . S
C557 C556 1.386 . S
C557 C561 1.393 . S
C558 H550 0.950 . S
C558 C556 1.391 . S
C558 C559 1.400 . S
C559 C558 1.400 . S
C559 C560 1.398 . S
C559 C565 1.491 . S
C560 H551 0.950 . S
C560 C559 1.398 . S
C560 C561 1.391 . S
C561 H549 0.950 . S
C561 C557 1.393 . S
C561 C560 1.391 . S
C562 H552 0.950 . S
C562 C563 1.386 . S
C562 C564 1.391 1_556 S
C563 C562 1.386 . S
C563 C567 1.393 . S
C564 H553 0.950 . S
C564 C562 1.391 1_554 S
C564 C565 1.400 . S
C565 C559 1.491 . S
C565 C564 1.400 . S
C565 C566 1.398 . S
C566 H554 0.950 . S
C566 C565 1.398 . S
C566 C567 1.391 1_554 S
C567 H555 0.950 . S
C567 C563 1.393 . S
C567 C566 1.391 1_556 S
H568 C576 0.950 . S
H569 C581 0.950 . S
H570 C578 0.950 . S
H571 C580 0.950 . S
H572 C582 0.950 . S
H573 C584 0.950 . S
H574 C586 0.950 . S
H575 C587 0.950 . S
C576 H568 0.950 . S
C576 C577 1.386 . S
C576 C578 1.391 . S
C577 C576 1.386 . S
C577 C581 1.393 . S
C578 H570 0.950 . S
C578 C576 1.391 . S
C578 C579 1.400 . S
C579 C578 1.400 . S
C579 C580 1.398 . S
C579 C585 1.491 . S
C580 H571 0.950 . S
C580 C579 1.398 . S
C580 C581 1.391 . S
C581 H569 0.950 . S
C581 C577 1.393 . S
C581 C580 1.391 . S
C582 H572 0.950 . S
C582 C583 1.386 . S
C582 C584 1.391 1_556 S
C583 C582 1.386 . S
C583 C587 1.393 . S
C584 H573 0.950 . S
C584 C582 1.391 1_554 S
C584 C585 1.400 . S
C585 C579 1.491 . S
C585 C584 1.400 . S
C585 C586 1.398 . S
C586 H574 0.950 . S
C586 C585 1.398 . S
C586 C587 1.391 1_554 S
C587 H575 0.950 . S
C587 C583 1.393 . S
C587 C586 1.391 1_556 S
H588 C596 0.950 . S
H589 C601 0.950 . S
H590 C598 0.950 . S
H591 C600 0.950 . S
H592 C602 0.950 . S
H593 C604 0.950 . S
H594 C606 0.950 . S
H595 C607 0.950 . S
C596 H588 0.950 . S
C596 C597 1.386 . S
C596 C598 1.391 . S
C597 C596 1.386 . S
C597 C601 1.393 . S
C598 H590 0.950 . S
C598 C596 1.391 . S
C598 C599 1.400 . S
C599 C598 1.400 . S
C599 C600 1.398 . S
C599 C605 1.491 . S
C600 H591 0.950 . S
C600 C599 1.398 . S
C600 C601 1.391 . S
C601 H589 0.950 . S
C601 C597 1.393 . S
C601 C600 1.391 . S
C602 H592 0.950 . S
C602 C603 1.386 . S
C602 C604 1.391 . S
C603 C602 1.386 . S
C603 C607 1.393 . S
C604 H593 0.950 . S
C604 C602 1.391 . S
C604 C605 1.400 . S
C605 C599 1.491 . S
C605 C604 1.400 . S
C605 C606 1.398 . S
C606 H594 0.950 . S
C606 C605 1.398 . S
C606 C607 1.391 . S
C607 H595 0.950 . S
C607 C603 1.393 . S
C607 C606 1.391 . S
H608 C616 0.950 . S
H609 C621 0.950 . S
H610 C618 0.950 . S
H611 C620 0.950 . S
H612 C622 0.950 . S
H613 C624 0.950 . S
H614 C626 0.950 . S
H615 C627 0.950 . S
C616 H608 0.950 . S
C616 C617 1.386 . S
C616 C618 1.391 . S
C617 C616 1.386 . S
C617 C621 1.393 . S
C618 H610 0.950 . S
C618 C616 1.391 . S
C618 C619 1.400 . S
C619 C618 1.400 . S
C619 C620 1.398 . S
C619 C625 1.491 . S
C620 H611 0.950 . S
C620 C619 1.398 . S
C620 C621 1.391 . S
C621 H609 0.950 . S
C621 C617 1.393 . S
C621 C620 1.391 . S
C622 H612 0.950 . S
C622 C623 1.386 . S
C622 C624 1.391 . S
C623 C622 1.386 . S
C623 C627 1.393 . S
C624 H613 0.950 . S
C624 C622 1.391 . S
C624 C625 1.400 . S
C625 C619 1.491 . S
C625 C624 1.400 . S
C625 C626 1.398 . S
C626 H614 0.950 . S
C626 C625 1.398 . S
C626 C627 1.391 . S
C627 H615 0.950 . S
C627 C623 1.393 . S
C627 C626 1.391 . S
H628 C636 0.950 . S
H629 C641 0.950 . S
H630 C638 0.950 . S
H631 C640 0.950 . S
H632 C642 0.950 . S
H633 C644 0.950 . S
H634 C646 0.950 . S
H635 C647 0.950 . S
C636 H628 0.950 . S
C636 C637 1.386 . S
C636 C638 1.391 . S
C637 C636 1.386 . S
C637 C641 1.393 . S
C638 H630 0.950 . S
C638 C636 1.391 . S
C638 C639 1.400 . S
C639 C638 1.400 . S
C639 C640 1.398 . S
C639 C645 1.491 . S
C640 H631 0.950 . S
C640 C639 1.398 . S
C640 C641 1.391 . S
C641 H629 0.950 . S
C641 C637 1.393 . S
C641 C640 1.391 . S
C642 H632 0.950 . S
C642 C643 1.386 . S
C642 C644 1.391 . S
C643 C642 1.386 . S
C643 C647 1.393 . S
C644 H633 0.950 . S
C644 C642 1.391 . S
C644 C645 1.400 . S
C645 C639 1.491 . S
C645 C644 1.400 . S
C645 C646 1.398 . S
C646 H634 0.950 . S
C646 C645 1.398 . S
C646 C647 1.391 . S
C647 H635 0.950 . S
C647 C643 1.393 . S
C647 C646 1.391 . S
H648 C656 0.950 . S
H649 C661 0.950 . S
H650 C658 0.950 . S
H651 C660 0.950 . S
H652 C662 0.950 . S
H653 C664 0.950 . S
H654 C666 0.950 . S
H655 C667 0.950 . S
C656 H648 0.950 . S
C656 C657 1.386 . S
C656 C658 1.391 . S
C657 C656 1.386 . S
C657 C661 1.393 . S
C658 H650 0.950 . S
C658 C656 1.391 . S
C658 C659 1.400 . S
C659 C658 1.400 . S
C659 C660 1.398 . S
C659 C665 1.491 . S
C660 H651 0.950 . S
C660 C659 1.398 . S
C660 C661 1.391 . S
C661 H649 0.950 . S
C661 C657 1.393 . S
C661 C660 1.391 . S
C662 H652 0.950 . S
C662 C663 1.386 . S
C662 C664 1.391 1_554 S
C663 C662 1.386 . S
C663 C667 1.393 . S
C664 H653 0.950 . S
C664 C662 1.391 1_556 S
C664 C665 1.400 . S
C665 C659 1.491 . S
C665 C664 1.400 . S
C665 C666 1.398 . S
C666 H654 0.950 . S
C666 C665 1.398 . S
C666 C667 1.391 1_556 S
C667 H655 0.950 . S
C667 C663 1.393 . S
C667 C666 1.391 1_554 S
H668 C676 0.950 . S
H669 C681 0.950 . S
H670 C678 0.950 . S
H671 C680 0.950 . S
H672 C682 0.950 . S
H673 C684 0.950 . S
H674 C686 0.950 . S
H675 C687 0.950 . S
C676 H668 0.950 . S
C676 C677 1.386 . S
C676 C678 1.391 1_554 S
C677 C676 1.386 . S
C677 C681 1.393 . S
C678 H670 0.950 . S
C678 C676 1.391 1_556 S
C678 C679 1.400 . S
C679 C678 1.400 . S
C679 C680 1.398 . S
C679 C685 1.491 . S
C680 H671 0.950 . S
C680 C679 1.398 . S
C680 C681 1.391 1_556 S
C681 H669 0.950 . S
C681 C677 1.393 . S
C681 C680 1.391 1_554 S
C682 H672 0.950 . S
C682 C683 1.386 . S
C682 C684 1.391 . S
C683 C682 1.386 . S
C683 C687 1.393 . S
C684 H673 0.950 . S
C684 C682 1.391 . S
C684 C685 1.400 . S
C685 C679 1.491 . S
C685 C684 1.400 . S
C685 C686 1.398 . S
C686 H674 0.950 . S
C686 C685 1.398 . S
C686 C687 1.391 . S
C687 H675 0.950 . S
C687 C683 1.393 . S
C687 C686 1.391 . S
H688 C696 0.950 . S
H689 C701 0.950 . S
H690 C698 0.950 . S
H691 C700 0.950 . S
H692 C702 0.950 . S
H693 C704 0.950 . S
H694 C706 0.950 . S
H695 C707 0.950 . S
C696 H688 0.950 . S
C696 C697 1.386 . S
C696 C698 1.391 . S
C697 C696 1.386 . S
C697 C701 1.393 . S
C698 H690 0.950 . S
C698 C696 1.391 . S
C698 C699 1.400 . S
C699 C698 1.400 . S
C699 C700 1.398 . S
C699 C705 1.491 . S
C700 H691 0.950 . S
C700 C699 1.398 . S
C700 C701 1.391 . S
C701 H689 0.950 . S
C701 C697 1.393 . S
C701 C700 1.391 . S
C702 H692 0.950 . S
C702 C703 1.386 . S
C702 C704 1.391 1_554 S
C703 C702 1.386 . S
C703 C707 1.393 . S
C704 H693 0.950 . S
C704 C702 1.391 1_556 S
C704 C705 1.400 . S
C705 C699 1.491 . S
C705 C704 1.400 . S
C705 C706 1.398 . S
C706 H694 0.950 . S
C706 C705 1.398 . S
C706 C707 1.391 1_556 S
C707 H695 0.950 . S
C707 C703 1.393 . S
C707 C706 1.391 1_554 S
H708 C716 0.950 . S
H709 C721 0.950 . S
H710 C718 0.950 . S
H711 C720 0.943 . S
H712 C722 0.882 1_455 S
H713 C724 0.948 . S
H714 C726 0.950 . S
H715 C727 0.950 . S
C716 H708 0.950 . S
C716 C717 1.386 . S
C716 C718 1.391 . S
C717 C716 1.386 . S
C717 C721 1.393 . S
C718 H710 0.950 . S
C718 C716 1.391 . S
C718 C719 1.400 . S
C719 C718 1.400 . S
C719 C720 1.398 . S
C719 C725 1.491 . S
C720 H711 0.943 . S
C720 C719 1.398 . S
C720 C721 1.391 . S
C721 H709 0.950 . S
C721 C717 1.393 . S
C721 C720 1.391 . S
C722 H712 0.882 1_655 S
C722 C723 1.386 . S
C722 C724 1.391 . S
C723 C722 1.386 . S
C723 C727 1.393 . S
C724 H713 0.948 . S
C724 C722 1.391 . S
C724 C725 1.400 . S
C725 C719 1.491 . S
C725 C724 1.400 . S
C725 C726 1.398 . S
C726 H714 0.950 . S
C726 C725 1.398 . S
C726 C727 1.391 . S
C727 H715 0.950 . S
C727 C723 1.393 . S
C727 C726 1.391 . S
H728 C736 0.950 . S
H729 C741 0.950 . S
H730 C738 0.950 . S
H731 C740 0.950 . S
H732 C742 0.950 . S
H733 C744 0.950 . S
H734 C746 0.950 . S
H735 C747 0.950 . S
C736 H728 0.950 . S
C736 C737 1.386 . S
C736 C738 1.391 . S
C737 C736 1.386 . S
C737 C741 1.393 . S
C738 H730 0.950 . S
C738 C736 1.391 . S
C738 C739 1.400 . S
C739 C738 1.400 . S
C739 C740 1.398 . S
C739 C745 1.491 . S
C740 H731 0.950 . S
C740 C739 1.398 . S
C740 C741 1.391 . S
C741 H729 0.950 . S
C741 C737 1.393 . S
C741 C740 1.391 . S
C742 H732 0.950 . S
C742 C743 1.386 . S
C742 C744 1.391 . S
C743 C742 1.386 . S
C743 C747 1.393 . S
C744 H733 0.950 . S
C744 C742 1.391 . S
C744 C745 1.400 . S
C745 C739 1.491 . S
C745 C744 1.400 . S
C745 C746 1.398 . S
C746 H734 0.950 . S
C746 C745 1.398 . S
C746 C747 1.391 . S
C747 H735 0.950 . S
C747 C743 1.393 . S
C747 C746 1.391 . S
H748 C756 0.935 1_545 S
H749 C761 0.950 . S
H750 C758 0.884 1_545 S
H751 C760 0.950 . S
H752 C762 0.950 . S
H753 C764 0.950 . S
H754 C766 0.950 1_545 S
H755 C767 0.950 1_545 S
C756 H748 0.935 1_565 S
C756 C757 1.400 . S
C756 C758 1.390 . S
C757 C756 1.400 . S
C757 C761 1.393 . S
C758 H750 0.884 1_565 S
C758 C756 1.390 . S
C758 C759 1.470 . S
C759 C758 1.470 . S
C759 C760 1.398 . S
C759 C765 1.491 . S
C760 H751 0.950 . S
C760 C759 1.398 . S
C760 C761 1.391 . S
C761 H749 0.950 . S
C761 C757 1.393 . S
C761 C760 1.391 . S
C762 H752 0.950 . S
C762 C763 1.386 . S
C762 C764 1.391 . S
C763 C762 1.386 . S
C763 C767 1.393 . S
C764 H753 0.950 . S
C764 C762 1.391 . S
C764 C765 1.400 . S
C765 C759 1.491 . S
C765 C764 1.400 . S
C765 C766 1.398 . S
C766 H754 0.950 1_565 S
C766 C765 1.398 . S
C766 C767 1.391 . S
C767 H755 0.950 1_565 S
C767 C763 1.393 . S
C767 C766 1.391 . S
H768 C776 0.950 . S
H769 C781 0.950 . S
H770 C778 0.950 . S
H771 C780 0.950 . S
H772 C782 0.950 . S
H773 C784 0.950 . S
H774 C786 0.950 . S
H775 C787 0.950 . S
C776 H768 0.950 . S
C776 C777 1.386 . S
C776 C778 1.391 . S
C777 C776 1.386 . S
C777 C781 1.393 . S
C778 H770 0.950 . S
C778 C776 1.391 . S
C778 C779 1.400 . S
C779 C778 1.400 . S
C779 C780 1.398 . S
C779 C785 1.491 . S
C780 H771 0.950 . S
C780 C779 1.398 . S
C780 C781 1.391 . S
C781 H769 0.950 . S
C781 C777 1.393 . S
C781 C780 1.391 . S
C782 H772 0.950 . S
C782 C783 1.386 . S
C782 C784 1.391 . S
C783 C782 1.386 . S
C783 C787 1.393 . S
C784 H773 0.950 . S
C784 C782 1.391 . S
C784 C785 1.400 . S
C785 C779 1.491 . S
C785 C784 1.400 . S
C785 C786 1.398 . S
C786 H774 0.950 . S
C786 C785 1.398 . S
C786 C787 1.391 . S
C787 H775 0.950 . S
C787 C783 1.393 . S
C787 C786 1.391 . S
H788 C796 0.923 1_655 S
H789 C801 0.950 . S
H790 C798 0.950 1_655 S
H791 C800 0.950 . S
H792 C802 0.950 . S
H793 C804 0.950 . S
H794 C806 0.950 1_655 S
H795 C807 0.950 1_655 S
C796 H788 0.923 1_455 S
C796 C797 1.410 . S
C796 C798 1.394 . S
C797 C796 1.410 . S
C797 C801 1.393 . S
C798 H790 0.950 1_455 S
C798 C796 1.394 . S
C798 C799 1.400 . S
C799 C798 1.400 . S
C799 C800 1.398 . S
C799 C805 1.491 . S
C800 H791 0.950 . S
C800 C799 1.398 . S
C800 C801 1.391 . S
C801 H789 0.950 . S
C801 C797 1.393 . S
C801 C800 1.391 . S
C802 H792 0.950 . S
C802 C803 1.386 . S
C802 C804 1.391 . S
C803 C802 1.386 . S
C803 C807 1.393 . S
C804 H793 0.950 . S
C804 C802 1.391 . S
C804 C805 1.400 . S
C805 C799 1.491 . S
C805 C804 1.400 . S
C805 C806 1.398 . S
C806 H794 0.950 1_455 S
C806 C805 1.398 . S
C806 C807 1.391 . S
C807 H795 0.950 1_455 S
C807 C803 1.393 . S
C807 C806 1.391 . S
H808 C816 0.950 . S
H809 C821 0.950 . S
H810 C818 0.950 . S
H811 C820 0.950 . S
H812 C822 0.950 . S
H813 C824 0.950 . S
H814 C826 0.950 . S
H815 C827 0.950 . S
C816 H808 0.950 . S
C816 C817 1.386 . S
C816 C818 1.391 . S
C817 C816 1.386 . S
C817 C821 1.393 . S
C818 H810 0.950 . S
C818 C816 1.391 . S
C818 C819 1.400 . S
C819 C818 1.400 . S
C819 C820 1.398 . S
C819 C825 1.491 . S
C820 H811 0.950 . S
C820 C819 1.398 . S
C820 C821 1.391 . S
C821 H809 0.950 . S
C821 C817 1.393 . S
C821 C820 1.391 . S
C822 H812 0.950 . S
C822 C823 1.386 . S
C822 C824 1.391 . S
C823 C822 1.386 . S
C823 C827 1.393 . S
C824 H813 0.950 . S
C824 C822 1.391 . S
C824 C825 1.400 . S
C825 C819 1.491 . S
C825 C824 1.400 . S
C825 C826 1.398 . S
C826 H814 0.950 . S
C826 C825 1.398 . S
C826 C827 1.391 . S
C827 H815 0.950 . S
C827 C823 1.393 . S
C827 C826 1.391 . S
H828 C836 0.950 . S
H829 C841 0.950 . S
H830 C838 0.950 . S
H831 C840 0.950 . S
H832 C842 0.950 . S
H833 C844 0.950 . S
H834 C846 0.950 . S
H835 C847 0.950 . S
C836 H828 0.950 . S
C836 C837 1.386 . S
C836 C838 1.391 . S
C837 C836 1.386 . S
C837 C841 1.393 . S
C838 H830 0.950 . S
C838 C836 1.391 . S
C838 C839 1.400 . S
C839 C838 1.400 . S
C839 C840 1.398 . S
C839 C845 1.491 . S
C840 H831 0.950 . S
C840 C839 1.398 . S
C840 C841 1.391 . S
C841 H829 0.950 . S
C841 C837 1.393 . S
C841 C840 1.391 . S
C842 H832 0.950 . S
C842 C843 1.386 . S
C842 C844 1.391 . S
C843 C842 1.386 . S
C843 C847 1.393 . S
C844 H833 0.950 . S
C844 C842 1.391 . S
C844 C845 1.400 . S
C845 C839 1.491 . S
C845 C844 1.400 . S
C845 C846 1.398 . S
C846 H834 0.950 . S
C846 C845 1.398 . S
C846 C847 1.391 . S
C847 H835 0.950 . S
C847 C843 1.393 . S
C847 C846 1.391 . S
H848 C856 0.950 . S
H849 C861 0.950 . S
H850 C858 0.950 . S
H851 C860 0.950 . S
H852 C862 0.950 . S
H853 C864 0.950 . S
H854 C866 0.950 . S
H855 C867 0.950 . S
C856 H848 0.950 . S
C856 C857 1.386 . S
C856 C858 1.391 . S
C857 C856 1.386 . S
C857 C861 1.393 . S
C858 H850 0.950 . S
C858 C856 1.391 . S
C858 C859 1.400 . S
C859 C858 1.400 . S
C859 C860 1.398 . S
C859 C865 1.491 . S
C860 H851 0.950 . S
C860 C859 1.398 . S
C860 C861 1.391 . S
C861 H849 0.950 . S
C861 C857 1.393 . S
C861 C860 1.391 . S
C862 H852 0.950 . S
C862 C863 1.386 . S
C862 C864 1.391 . S
C863 C862 1.386 . S
C863 C867 1.393 . S
C864 H853 0.950 . S
C864 C862 1.391 . S
C864 C865 1.400 . S
C865 C859 1.491 . S
C865 C864 1.400 . S
C865 C866 1.398 . S
C866 H854 0.950 . S
C866 C865 1.398 . S
C866 C867 1.391 . S
C867 H855 0.950 . S
C867 C863 1.393 . S
C867 C866 1.391 . S
H868 C876 0.950 . S
H869 C881 0.950 . S
H870 C878 0.950 . S
H871 C880 0.950 . S
H872 C882 0.950 . S
H873 C884 0.950 . S
H874 C886 0.950 . S
H875 C887 0.950 . S
C876 H868 0.950 . S
C876 C877 1.386 . S
C876 C878 1.391 . S
C877 C876 1.386 . S
C877 C881 1.393 . S
C878 H870 0.950 . S
C878 C876 1.391 . S
C878 C879 1.400 . S
C879 C878 1.400 . S
C879 C880 1.398 . S
C879 C885 1.491 . S
C880 H871 0.950 . S
C880 C879 1.398 . S
C880 C881 1.391 . S
C881 H869 0.950 . S
C881 C877 1.393 . S
C881 C880 1.391 . S
C882 H872 0.950 . S
C882 C883 1.386 . S
C882 C884 1.391 . S
C883 C882 1.386 . S
C883 C887 1.393 . S
C884 H873 0.950 . S
C884 C882 1.391 . S
C884 C885 1.400 . S
C885 C879 1.491 . S
C885 C884 1.400 . S
C885 C886 1.398 . S
C886 H874 0.950 . S
C886 C885 1.398 . S
C886 C887 1.391 . S
C887 H875 0.950 . S
C887 C883 1.393 . S
C887 C886 1.391 . S
H888 C896 0.950 . S
H889 C901 0.950 . S
H890 C898 0.950 . S
H891 C900 0.950 . S
H892 C902 0.950 . S
H893 C904 0.950 . S
H894 C906 0.950 . S
H895 C907 0.950 . S
C896 H888 0.950 . S
C896 C897 1.386 . S
C896 C898 1.391 . S
C897 C896 1.386 . S
C897 C901 1.393 . S
C898 H890 0.950 . S
C898 C896 1.391 . S
C898 C899 1.400 . S
C899 C898 1.400 . S
C899 C900 1.398 . S
C899 C905 1.491 . S
C900 H891 0.950 . S
C900 C899 1.398 . S
C900 C901 1.391 . S
C901 H889 0.950 . S
C901 C897 1.393 . S
C901 C900 1.391 . S
C902 H892 0.950 . S
C902 C903 1.386 . S
C902 C904 1.391 . S
C903 C902 1.386 . S
C903 C907 1.393 . S
C904 H893 0.950 . S
C904 C902 1.391 . S
C904 C905 1.400 . S
C905 C899 1.491 . S
C905 C904 1.400 . S
C905 C906 1.398 . S
C906 H894 0.950 . S
C906 C905 1.398 . S
C906 C907 1.391 . S
C907 H895 0.950 . S
C907 C903 1.393 . S
C907 C906 1.391 . S
H908 C916 0.950 . S
H909 C921 0.950 . S
H910 C918 0.950 . S
H911 C920 0.950 . S
H912 C922 0.950 . S
H913 C924 0.950 . S
H914 C926 0.950 . S
H915 C927 0.950 . S
C916 H908 0.950 . S
C916 C917 1.386 . S
C916 C918 1.391 . S
C917 C916 1.386 . S
C917 C921 1.393 . S
C918 H910 0.950 . S
C918 C916 1.391 . S
C918 C919 1.400 . S
C919 C918 1.400 . S
C919 C920 1.398 . S
C919 C925 1.491 . S
C920 H911 0.950 . S
C920 C919 1.398 . S
C920 C921 1.391 . S
C921 H909 0.950 . S
C921 C917 1.393 . S
C921 C920 1.391 . S
C922 H912 0.950 . S
C922 C923 1.386 . S
C922 C924 1.391 . S
C923 C922 1.386 . S
C923 C927 1.393 . S
C924 H913 0.950 . S
C924 C922 1.391 . S
C924 C925 1.400 . S
C925 C919 1.491 . S
C925 C924 1.400 . S
C925 C926 1.398 . S
C926 H914 0.950 . S
C926 C925 1.398 . S
C926 C927 1.391 . S
C927 H915 0.950 . S
C927 C923 1.393 . S
C927 C926 1.391 . S
H928 C936 0.950 . S
H929 C941 0.950 . S
H930 C938 0.950 . S
H931 C940 0.950 . S
H932 C942 0.950 . S
H933 C944 0.950 . S
H934 C946 0.950 . S
H935 C947 0.950 . S
C936 H928 0.950 . S
C936 C937 1.386 . S
C936 C938 1.391 . S
C937 C936 1.386 . S
C937 C941 1.393 . S
C938 H930 0.950 . S
C938 C936 1.391 . S
C938 C939 1.400 . S
C939 C938 1.400 . S
C939 C940 1.398 . S
C939 C945 1.491 . S
C940 H931 0.950 . S
C940 C939 1.398 . S
C940 C941 1.391 . S
C941 H929 0.950 . S
C941 C937 1.393 . S
C941 C940 1.391 . S
C942 H932 0.950 . S
C942 C943 1.386 . S
C942 C944 1.391 . S
C943 C942 1.386 . S
C943 C947 1.393 . S
C944 H933 0.950 . S
C944 C942 1.391 . S
C944 C945 1.400 . S
C945 C939 1.491 . S
C945 C944 1.400 . S
C945 C946 1.398 . S
C946 H934 0.950 . S
C946 C945 1.398 . S
C946 C947 1.391 . S
C947 H935 0.950 . S
C947 C943 1.393 . S
C947 C946 1.391 . S
H948 C956 0.950 . S
H949 C961 0.950 . S
H950 C958 0.950 . S
H951 C960 0.950 . S
H952 C962 0.950 . S
H953 C964 0.950 . S
H954 C966 0.950 . S
H955 C967 0.950 . S
C956 H948 0.950 . S
C956 C957 1.386 . S
C956 C958 1.391 . S
C957 C956 1.386 . S
C957 C961 1.393 . S
C958 H950 0.950 . S
C958 C956 1.391 . S
C958 C959 1.400 . S
C959 C958 1.400 . S
C959 C960 1.398 . S
C959 C965 1.491 . S
C960 H951 0.950 . S
C960 C959 1.398 . S
C960 C961 1.391 . S
C961 H949 0.950 . S
C961 C957 1.393 . S
C961 C960 1.391 . S
C962 H952 0.950 . S
C962 C963 1.386 . S
C962 C964 1.391 . S
C963 C962 1.386 . S
C963 C967 1.393 . S
C964 H953 0.950 . S
C964 C962 1.391 . S
C964 C965 1.400 . S
C965 C959 1.491 . S
C965 C964 1.400 . S
C965 C966 1.398 . S
C966 H954 0.950 . S
C966 C965 1.398 . S
C966 C967 1.391 . S
C967 H955 0.950 . S
C967 C963 1.393 . S
C967 C966 1.391 . S
H968 C976 0.950 . S
H969 C981 0.950 . S
H970 C978 0.950 . S
H971 C980 0.950 . S
H972 C982 0.950 . S
H973 C984 0.950 . S
H974 C986 0.950 . S
H975 C987 0.950 . S
C976 H968 0.950 . S
C976 C977 1.386 . S
C976 C978 1.391 . S
C977 C976 1.386 . S
C977 C981 1.393 . S
C978 H970 0.950 . S
C978 C976 1.391 . S
C978 C979 1.400 . S
C979 C978 1.400 . S
C979 C980 1.398 . S
C979 C985 1.491 . S
C980 H971 0.950 . S
C980 C979 1.398 . S
C980 C981 1.391 . S
C981 H969 0.950 . S
C981 C977 1.393 . S
C981 C980 1.391 . S
C982 H972 0.950 . S
C982 C983 1.386 . S
C982 C984 1.391 . S
C983 C982 1.386 . S
C983 C987 1.393 . S
C984 H973 0.950 . S
C984 C982 1.391 . S
C984 C985 1.400 . S
C985 C979 1.491 . S
C985 C984 1.400 . S
C985 C986 1.398 . S
C986 H974 0.950 . S
C986 C985 1.398 . S
C986 C987 1.391 . S
C987 H975 0.950 . S
C987 C983 1.393 . S
C987 C986 1.391 . S
H988 C996 0.950 . S
H989 C1001 0.950 . S
H990 C998 0.950 . S
H991 C1000 0.950 . S
H992 C1002 0.950 . S
H993 C1004 0.950 . S
H994 C1006 0.950 . S
H995 C1007 0.950 . S
C996 H988 0.950 . S
C996 C997 1.386 . S
C996 C998 1.391 . S
C997 C996 1.386 . S
C997 C1001 1.393 . S
C998 H990 0.950 . S
C998 C996 1.391 . S
C998 C999 1.400 . S
C999 C998 1.400 . S
C999 C1000 1.398 . S
C999 C1005 1.491 . S
C1000 H991 0.950 . S
C1000 C999 1.398 . S
C1000 C1001 1.391 . S
C1001 H989 0.950 . S
C1001 C997 1.393 . S
C1001 C1000 1.391 . S
C1002 H992 0.950 . S
C1002 C1003 1.386 . S
C1002 C1004 1.391 . S
C1003 C1002 1.386 . S
C1003 C1007 1.393 . S
C1004 H993 0.950 . S
C1004 C1002 1.391 . S
C1004 C1005 1.400 . S
C1005 C999 1.491 . S
C1005 C1004 1.400 . S
C1005 C1006 1.398 . S
C1006 H994 0.950 . S
C1006 C1005 1.398 . S
C1006 C1007 1.391 . S
C1007 H995 0.950 . S
C1007 C1003 1.393 . S
C1007 C1006 1.391 . S
H1008 C1016 0.950 . S
H1009 C1021 0.950 . S
H1010 C1018 0.950 . S
H1011 C1020 0.950 . S
H1012 C1022 0.950 . S
H1013 C1024 0.950 . S
H1014 C1026 0.950 . S
H1015 C1027 0.950 . S
C1016 H1008 0.950 . S
C1016 C1017 1.386 . S
C1016 C1018 1.391 . S
C1017 C1016 1.386 . S
C1017 C1021 1.393 . S
C1018 H1010 0.950 . S
C1018 C1016 1.391 . S
C1018 C1019 1.400 . S
C1019 C1018 1.400 . S
C1019 C1020 1.398 . S
C1019 C1025 1.491 . S
C1020 H1011 0.950 . S
C1020 C1019 1.398 . S
C1020 C1021 1.391 . S
C1021 H1009 0.950 . S
C1021 C1017 1.393 . S
C1021 C1020 1.391 . S
C1022 H1012 0.950 . S
C1022 C1023 1.386 . S
C1022 C1024 1.391 . S
C1023 C1022 1.386 . S
C1023 C1027 1.393 . S
C1024 H1013 0.950 . S
C1024 C1022 1.391 . S
C1024 C1025 1.400 . S
C1025 C1019 1.491 . S
C1025 C1024 1.400 . S
C1025 C1026 1.398 . S
C1026 H1014 0.950 . S
C1026 C1025 1.398 . S
C1026 C1027 1.391 . S
C1027 H1015 0.950 . S
C1027 C1023 1.393 . S
C1027 C1026 1.391 . S
H1028 C1036 0.950 . S
H1029 C1041 0.950 . S
H1030 C1038 0.950 . S
H1031 C1040 0.950 . S
H1032 C1042 0.950 . S
H1033 C1044 0.950 . S
H1034 C1046 0.950 . S
H1035 C1047 0.950 . S
C1036 H1028 0.950 . S
C1036 C1037 1.386 . S
C1036 C1038 1.391 . S
C1037 C1036 1.386 . S
C1037 C1041 1.393 . S
C1038 H1030 0.950 . S
C1038 C1036 1.391 . S
C1038 C1039 1.400 . S
C1039 C1038 1.400 . S
C1039 C1040 1.398 . S
C1039 C1045 1.491 . S
C1040 H1031 0.950 . S
C1040 C1039 1.398 . S
C1040 C1041 1.391 . S
C1041 H1029 0.950 . S
C1041 C1037 1.393 . S
C1041 C1040 1.391 . S
C1042 H1032 0.950 . S
C1042 C1043 1.386 . S
C1042 C1044 1.391 . S
C1043 C1042 1.386 . S
C1043 C1047 1.393 . S
C1044 H1033 0.950 . S
C1044 C1042 1.391 . S
C1044 C1045 1.400 . S
C1045 C1039 1.491 . S
C1045 C1044 1.400 . S
C1045 C1046 1.398 . S
C1046 H1034 0.950 . S
C1046 C1045 1.398 . S
C1046 C1047 1.391 . S
C1047 H1035 0.950 . S
C1047 C1043 1.393 . S
C1047 C1046 1.391 . S
H1048 C1056 0.950 . S
H1049 C1061 0.950 . S
H1050 C1058 0.950 . S
H1051 C1060 0.950 . S
H1052 C1062 0.950 . S
H1053 C1064 0.950 . S
H1054 C1066 0.950 . S
H1055 C1067 0.950 . S
C1056 H1048 0.950 . S
C1056 C1057 1.386 . S
C1056 C1058 1.391 . S
C1057 C1056 1.386 . S
C1057 C1061 1.393 . S
C1058 H1050 0.950 . S
C1058 C1056 1.391 . S
C1058 C1059 1.400 . S
C1059 C1058 1.400 . S
C1059 C1060 1.398 . S
C1059 C1065 1.491 . S
C1060 H1051 0.950 . S
C1060 C1059 1.398 . S
C1060 C1061 1.391 . S
C1061 H1049 0.950 . S
C1061 C1057 1.393 . S
C1061 C1060 1.391 . S
C1062 H1052 0.950 . S
C1062 C1063 1.386 . S
C1062 C1064 1.391 . S
C1063 C1062 1.386 . S
C1063 C1067 1.393 . S
C1064 H1053 0.950 . S
C1064 C1062 1.391 . S
C1064 C1065 1.400 . S
C1065 C1059 1.491 . S
C1065 C1064 1.400 . S
C1065 C1066 1.398 . S
C1066 H1054 0.950 . S
C1066 C1065 1.398 . S
C1066 C1067 1.391 . S
C1067 H1055 0.950 . S
C1067 C1063 1.393 . S
C1067 C1066 1.391 . S
H1068 C1076 0.950 . S
H1069 C1081 0.950 . S
H1070 C1078 0.950 . S
H1071 C1080 0.950 . S
H1072 C1082 0.950 . S
H1073 C1084 0.950 . S
H1074 C1086 0.950 . S
H1075 C1087 0.950 . S
C1076 H1068 0.950 . S
C1076 C1077 1.386 . S
C1076 C1078 1.391 . S
C1077 C1076 1.386 . S
C1077 C1081 1.393 1_455 S
C1078 H1070 0.950 . S
C1078 C1076 1.391 . S
C1078 C1079 1.465 . S
C1079 C1078 1.465 . S
C1079 C1080 1.377 1_455 S
C1079 C1085 1.426 1_455 S
C1080 H1071 0.950 . S
C1080 C1079 1.377 1_655 S
C1080 C1081 1.391 . S
C1081 H1069 0.950 . S
C1081 C1077 1.393 1_655 S
C1081 C1080 1.391 . S
C1082 H1072 0.950 . S
C1082 C1083 1.386 . S
C1082 C1084 1.391 . S
C1083 C1082 1.386 . S
C1083 C1087 1.393 1_655 S
C1084 H1073 0.950 . S
C1084 C1082 1.391 . S
C1084 C1085 1.449 . S
C1085 C1079 1.426 1_655 S
C1085 C1084 1.449 . S
C1085 C1086 1.382 1_655 S
C1086 H1074 0.950 . S
C1086 C1085 1.382 1_455 S
C1086 C1087 1.391 . S
C1087 H1075 0.950 . S
C1087 C1083 1.393 1_455 S
C1087 C1086 1.391 . S
H1088 C1096 0.950 . S
H1089 C1101 0.950 . S
H1090 C1098 0.950 . S
H1091 C1100 0.950 . S
H1092 C1102 0.950 . S
H1093 C1104 0.950 . S
H1094 C1106 0.950 . S
H1095 C1107 0.950 . S
C1096 H1088 0.950 . S
C1096 C1097 1.386 . S
C1096 C1098 1.391 . S
C1097 C1096 1.386 . S
C1097 C1101 1.393 . S
C1098 H1090 0.950 . S
C1098 C1096 1.391 . S
C1098 C1099 1.400 . S
C1099 C1098 1.400 . S
C1099 C1100 1.398 . S
C1099 C1105 1.491 . S
C1100 H1091 0.950 . S
C1100 C1099 1.398 . S
C1100 C1101 1.391 . S
C1101 H1089 0.950 . S
C1101 C1097 1.393 . S
C1101 C1100 1.391 . S
C1102 H1092 0.950 . S
C1102 C1103 1.386 . S
C1102 C1104 1.391 . S
C1103 C1102 1.386 . S
C1103 C1107 1.393 . S
C1104 H1093 0.950 . S
C1104 C1102 1.391 . S
C1104 C1105 1.400 . S
C1105 C1099 1.491 . S
C1105 C1104 1.400 . S
C1105 C1106 1.398 . S
C1106 H1094 0.950 . S
C1106 C1105 1.398 . S
C1106 C1107 1.391 . S
C1107 H1095 0.950 . S
C1107 C1103 1.393 . S
C1107 C1106 1.391 . S
H1108 C1116 0.950 . S
H1109 C1121 0.950 . S
H1110 C1118 0.950 . S
H1111 C1120 0.950 . S
H1112 C1122 0.950 . S
H1113 C1124 0.950 . S
H1114 C1126 0.950 . S
H1115 C1127 0.950 . S
C1116 H1108 0.950 . S
C1116 C1117 1.386 . S
C1116 C1118 1.391 . S
C1117 C1116 1.386 . S
C1117 C1121 1.393 . S
C1118 H1110 0.950 . S
C1118 C1116 1.391 . S
C1118 C1119 1.400 . S
C1119 C1118 1.400 . S
C1119 C1120 1.398 . S
C1119 C1125 1.491 1_545 S
C1120 H1111 0.950 . S
C1120 C1119 1.398 . S
C1120 C1121 1.391 . S
C1121 H1109 0.950 . S
C1121 C1117 1.393 . S
C1121 C1120 1.391 . S
C1122 H1112 0.950 . S
C1122 C1123 1.386 . S
C1122 C1124 1.391 . S
C1123 C1122 1.386 . S
C1123 C1127 1.393 . S
C1124 H1113 0.950 . S
C1124 C1122 1.391 . S
C1124 C1125 1.400 . S
C1125 C1119 1.491 1_565 S
C1125 C1124 1.400 . S
C1125 C1126 1.398 . S
C1126 H1114 0.950 . S
C1126 C1125 1.398 . S
C1126 C1127 1.391 . S
C1127 H1115 0.950 . S
C1127 C1123 1.393 . S
C1127 C1126 1.391 . S
H1128 C1136 0.950 . S
H1129 C1141 0.950 . S
H1130 C1138 0.950 . S
H1131 C1140 0.950 . S
H1132 C1142 0.950 . S
H1133 C1144 0.950 . S
H1134 C1146 0.950 . S
H1135 C1147 0.950 . S
C1136 H1128 0.950 . S
C1136 C1137 1.386 1_565 S
C1136 C1138 1.391 . S
C1137 C1136 1.386 1_545 S
C1137 C1141 1.393 1_556 S
C1138 H1130 0.950 . S
C1138 C1136 1.391 . S
C1138 C1139 1.400 1_565 S
C1139 C1138 1.400 1_545 S
C1139 C1140 1.398 1_556 S
C1139 C1145 1.491 1_546 S
C1140 H1131 0.950 . S
C1140 C1139 1.398 1_554 S
C1140 C1141 1.391 . S
C1141 H1129 0.950 . S
C1141 C1137 1.393 1_554 S
C1141 C1140 1.391 . S
C1142 H1132 0.950 . S
C1142 C1143 1.386 1_545 S
C1142 C1144 1.391 . S
C1143 C1142 1.386 1_565 S
C1143 C1147 1.393 1_554 S
C1144 H1133 0.950 . S
C1144 C1142 1.391 . S
C1144 C1145 1.400 1_545 S
C1145 C1139 1.491 1_564 S
C1145 C1144 1.400 1_565 S
C1145 C1146 1.398 1_554 S
C1146 H1134 0.950 . S
C1146 C1145 1.398 1_556 S
C1146 C1147 1.391 . S
C1147 H1135 0.950 . S
C1147 C1143 1.393 1_556 S
C1147 C1146 1.391 . S
H1148 C1156 0.950 . S
H1149 C1161 0.950 . S
H1150 C1158 0.950 . S
H1151 C1160 0.950 . S
H1152 C1162 0.950 . S
H1153 C1164 0.950 . S
H1154 C1166 0.950 . S
H1155 C1167 0.950 . S
C1156 H1148 0.950 . S
C1156 C1157 1.386 1_556 S
C1156 C1158 1.391 . S
C1157 C1156 1.386 1_554 S
C1157 C1161 1.393 . S
C1158 H1150 0.950 . S
C1158 C1156 1.391 . S
C1158 C1159 1.400 1_556 S
C1159 C1158 1.400 1_554 S
C1159 C1160 1.398 . S
C1159 C1165 1.491 1_454 S
C1160 H1151 0.950 . S
C1160 C1159 1.398 . S
C1160 C1161 1.391 . S
C1161 H1149 0.950 . S
C1161 C1157 1.393 . S
C1161 C1160 1.391 . S
C1162 H1152 0.950 . S
C1162 C1163 1.386 1_554 S
C1162 C1164 1.391 . S
C1163 C1162 1.386 1_556 S
C1163 C1167 1.393 . S
C1164 H1153 0.950 . S
C1164 C1162 1.391 . S
C1164 C1165 1.400 1_554 S
C1165 C1159 1.491 1_656 S
C1165 C1164 1.400 1_556 S
C1165 C1166 1.398 . S
C1166 H1154 0.950 . S
C1166 C1165 1.398 . S
C1166 C1167 1.391 . S
C1167 H1155 0.950 . S
C1167 C1163 1.393 . S
C1167 C1166 1.391 . S
H1168 C1176 0.950 . S
H1169 C1181 0.950 . S
H1170 C1178 0.950 . S
H1171 C1180 0.950 . S
H1172 C1182 0.950 . S
H1173 C1184 0.950 . S
H1174 C1186 0.950 . S
H1175 C1187 0.950 . S
C1176 H1168 0.950 . S
C1176 C1177 1.386 1_556 S
C1176 C1178 1.391 . S
C1177 C1176 1.386 1_554 S
C1177 C1181 1.393 . S
C1178 H1170 0.950 . S
C1178 C1176 1.391 . S
C1178 C1179 1.400 1_556 S
C1179 C1178 1.400 1_554 S
C1179 C1180 1.398 . S
C1179 C1185 1.491 1_554 S
C1180 H1171 0.950 . S
C1180 C1179 1.398 . S
C1180 C1181 1.391 . S
C1181 H1169 0.950 . S
C1181 C1177 1.393 . S
C1181 C1180 1.391 . S
C1182 H1172 0.950 . S
C1182 C1183 1.386 1_554 S
C1182 C1184 1.391 . S
C1183 C1182 1.386 1_556 S
C1183 C1187 1.393 . S
C1184 H1173 0.950 . S
C1184 C1182 1.391 . S
C1184 C1185 1.400 1_554 S
C1185 C1179 1.491 1_556 S
C1185 C1184 1.400 1_556 S
C1185 C1186 1.398 . S
C1186 H1174 0.950 . S
C1186 C1185 1.398 . S
C1186 C1187 1.391 . S
C1187 H1175 0.950 . S
C1187 C1183 1.393 . S
C1187 C1186 1.391 . S
H1188 C1196 0.957 . S
H1189 C1201 0.950 . S
H1190 C1198 0.950 1_556 S
H1191 C1200 0.950 . S
H1192 C1202 0.950 . S
H1193 C1204 0.950 . S
H1194 C1206 0.950 . S
H1195 C1207 0.950 . S
C1196 H1188 0.957 . S
C1196 C1197 1.381 1_556 S
C1196 C1198 1.389 1_556 S
C1197 C1196 1.381 1_554 S
C1197 C1201 1.393 . S
C1198 H1190 0.950 1_554 S
C1198 C1196 1.389 1_554 S
C1198 C1199 1.400 . S
C1199 C1198 1.400 . S
C1199 C1200 1.398 . S
C1199 C1205 1.491 . S
C1200 H1191 0.950 . S
C1200 C1199 1.398 . S
C1200 C1201 1.391 . S
C1201 H1189 0.950 . S
C1201 C1197 1.393 . S
C1201 C1200 1.391 . S
C1202 H1192 0.950 . S
C1202 C1203 1.386 . S
C1202 C1204 1.391 . S
C1203 C1202 1.386 . S
C1203 C1207 1.393 . S
C1204 H1193 0.950 . S
C1204 C1202 1.391 . S
C1204 C1205 1.400 . S
C1205 C1199 1.491 . S
C1205 C1204 1.400 . S
C1205 C1206 1.398 . S
C1206 H1194 0.950 . S
C1206 C1205 1.398 . S
C1206 C1207 1.391 . S
C1207 H1195 0.950 . S
C1207 C1203 1.393 . S
C1207 C1206 1.391 . S
H1208 C1216 0.950 . S
H1209 C1221 0.950 . S
H1210 C1218 0.950 . S
H1211 C1220 0.950 . S
H1212 C1222 0.950 . S
H1213 C1224 0.950 . S
H1214 C1226 0.950 . S
H1215 C1227 0.950 1_556 S
C1216 H1208 0.950 . S
C1216 C1217 1.386 . S
C1216 C1218 1.391 . S
C1217 C1216 1.386 . S
C1217 C1221 1.393 . S
C1218 H1210 0.950 . S
C1218 C1216 1.391 . S
C1218 C1219 1.400 . S
C1219 C1218 1.400 . S
C1219 C1220 1.398 . S
C1219 C1225 1.491 . S
C1220 H1211 0.950 . S
C1220 C1219 1.398 . S
C1220 C1221 1.391 . S
C1221 H1209 0.950 . S
C1221 C1217 1.393 . S
C1221 C1220 1.391 . S
C1222 H1212 0.950 . S
C1222 C1223 1.386 . S
C1222 C1224 1.391 . S
C1223 C1222 1.386 . S
C1223 C1227 1.393 . S
C1224 H1213 0.950 . S
C1224 C1222 1.391 . S
C1224 C1225 1.400 . S
C1225 C1219 1.491 . S
C1225 C1224 1.400 . S
C1225 C1226 1.398 . S
C1226 H1214 0.950 . S
C1226 C1225 1.398 . S
C1226 C1227 1.391 . S
C1227 H1215 0.950 1_554 S
C1227 C1223 1.393 . S
C1227 C1226 1.391 . S
H1228 C1236 0.950 . S
H1229 C1241 0.950 . S
H1230 C1238 0.950 . S
H1231 C1240 0.950 . S
H1232 C1242 0.950 . S
H1233 C1244 0.950 . S
H1234 C1246 0.950 . S
H1235 C1247 0.950 . S
C1236 H1228 0.950 . S
C1236 C1237 1.386 . S
C1236 C1238 1.391 . S
C1237 C1236 1.386 . S
C1237 C1241 1.393 . S
C1238 H1230 0.950 . S
C1238 C1236 1.391 . S
C1238 C1239 1.400 . S
C1239 C1238 1.400 . S
C1239 C1240 1.398 . S
C1239 C1245 1.491 . S
C1240 H1231 0.950 . S
C1240 C1239 1.398 . S
C1240 C1241 1.391 . S
C1241 H1229 0.950 . S
C1241 C1237 1.393 . S
C1241 C1240 1.391 . S
C1242 H1232 0.950 . S
C1242 C1243 1.386 . S
C1242 C1244 1.391 . S
C1243 C1242 1.386 . S
C1243 C1247 1.393 . S
C1244 H1233 0.950 . S
C1244 C1242 1.391 . S
C1244 C1245 1.400 . S
C1245 C1239 1.491 . S
C1245 C1244 1.400 . S
C1245 C1246 1.398 . S
C1246 H1234 0.950 . S
C1246 C1245 1.398 . S
C1246 C1247 1.391 . S
C1247 H1235 0.950 . S
C1247 C1243 1.393 . S
C1247 C1246 1.391 . S
H1248 C1256 0.950 . S
H1249 C1261 0.950 . S
H1250 C1258 0.950 . S
H1251 C1260 0.950 . S
H1252 C1262 0.950 . S
H1253 C1264 0.950 . S
H1254 C1266 0.950 . S
H1255 C1267 0.950 . S
C1256 H1248 0.950 . S
C1256 C1257 1.386 . S
C1256 C1258 1.391 . S
C1257 C1256 1.386 . S
C1257 C1261 1.393 . S
C1258 H1250 0.950 . S
C1258 C1256 1.391 . S
C1258 C1259 1.400 . S
C1259 C1258 1.400 . S
C1259 C1260 1.398 . S
C1259 C1265 1.491 . S
C1260 H1251 0.950 . S
C1260 C1259 1.398 . S
C1260 C1261 1.391 . S
C1261 H1249 0.950 . S
C1261 C1257 1.393 . S
C1261 C1260 1.391 . S
C1262 H1252 0.950 . S
C1262 C1263 1.386 . S
C1262 C1264 1.391 . S
C1263 C1262 1.386 . S
C1263 C1267 1.393 . S
C1264 H1253 0.950 . S
C1264 C1262 1.391 . S
C1264 C1265 1.400 . S
C1265 C1259 1.491 . S
C1265 C1264 1.400 . S
C1265 C1266 1.398 . S
C1266 H1254 0.950 . S
C1266 C1265 1.398 . S
C1266 C1267 1.391 . S
C1267 H1255 0.950 . S
C1267 C1263 1.393 . S
C1267 C1266 1.391 . S
H1268 C1276 0.950 . S
H1269 C1281 0.950 . S
H1270 C1278 0.950 . S
H1271 C1280 0.950 . S
H1272 C1282 0.950 . S
H1273 C1284 0.950 . S
H1274 C1286 0.950 . S
H1275 C1287 0.950 . S
C1276 H1268 0.950 . S
C1276 C1277 1.386 . S
C1276 C1278 1.391 . S
C1277 C1276 1.386 . S
C1277 C1281 1.393 . S
C1278 H1270 0.950 . S
C1278 C1276 1.391 . S
C1278 C1279 1.400 . S
C1279 C1278 1.400 . S
C1279 C1280 1.398 . S
C1279 C1285 1.491 . S
C1280 H1271 0.950 . S
C1280 C1279 1.398 . S
C1280 C1281 1.391 . S
C1281 H1269 0.950 . S
C1281 C1277 1.393 . S
C1281 C1280 1.391 . S
C1282 H1272 0.950 . S
C1282 C1283 1.386 . S
C1282 C1284 1.391 . S
C1283 C1282 1.386 . S
C1283 C1287 1.393 . S
C1284 H1273 0.950 . S
C1284 C1282 1.391 . S
C1284 C1285 1.400 . S
C1285 C1279 1.491 . S
C1285 C1284 1.400 . S
C1285 C1286 1.398 . S
C1286 H1274 0.950 . S
C1286 C1285 1.398 . S
C1286 C1287 1.391 . S
C1287 H1275 0.950 . S
C1287 C1283 1.393 . S
C1287 C1286 1.391 . S
H1288 C1296 0.950 . S
H1289 C1301 0.950 . S
H1290 C1298 0.950 . S
H1291 C1300 0.950 . S
H1292 C1302 0.950 . S
H1293 C1304 0.950 . S
H1294 C1306 0.950 . S
H1295 C1307 0.950 . S
C1296 H1288 0.950 . S
C1296 C1297 1.386 . S
C1296 C1298 1.391 . S
C1297 C1296 1.386 . S
C1297 C1301 1.393 . S
C1298 H1290 0.950 . S
C1298 C1296 1.391 . S
C1298 C1299 1.400 . S
C1299 C1298 1.400 . S
C1299 C1300 1.398 . S
C1299 C1305 1.491 . S
C1300 H1291 0.950 . S
C1300 C1299 1.398 . S
C1300 C1301 1.391 . S
C1301 H1289 0.950 . S
C1301 C1297 1.393 . S
C1301 C1300 1.391 . S
C1302 H1292 0.950 . S
C1302 C1303 1.386 . S
C1302 C1304 1.391 . S
C1303 C1302 1.386 . S
C1303 C1307 1.393 . S
C1304 H1293 0.950 . S
C1304 C1302 1.391 . S
C1304 C1305 1.400 . S
C1305 C1299 1.491 . S
C1305 C1304 1.400 . S
C1305 C1306 1.398 . S
C1306 H1294 0.950 . S
C1306 C1305 1.398 . S
C1306 C1307 1.391 . S
C1307 H1295 0.950 . S
C1307 C1303 1.393 . S
C1307 C1306 1.391 . S
H1308 C1316 0.950 1_554 S
H1309 C1321 0.950 . S
H1310 C1318 0.950 . S
H1311 C1320 0.950 . S
H1312 C1322 0.950 . S
H1313 C1324 0.950 . S
H1314 C1326 0.950 . S
H1315 C1327 0.950 . S
C1316 H1308 0.950 1_556 S
C1316 C1317 1.386 . S
C1316 C1318 1.391 . S
C1317 C1316 1.386 . S
C1317 C1321 1.393 . S
C1318 H1310 0.950 . S
C1318 C1316 1.391 . S
C1318 C1319 1.400 . S
C1319 C1318 1.400 . S
C1319 C1320 1.398 . S
C1319 C1325 1.491 . S
C1320 H1311 0.950 . S
C1320 C1319 1.398 . S
C1320 C1321 1.391 . S
C1321 H1309 0.950 . S
C1321 C1317 1.393 . S
C1321 C1320 1.391 . S
C1322 H1312 0.950 . S
C1322 C1323 1.386 . S
C1322 C1324 1.391 . S
C1323 C1322 1.386 . S
C1323 C1327 1.393 . S
C1324 H1313 0.950 . S
C1324 C1322 1.391 . S
C1324 C1325 1.400 . S
C1325 C1319 1.491 . S
C1325 C1324 1.400 . S
C1325 C1326 1.398 . S
C1326 H1314 0.950 . S
C1326 C1325 1.398 . S
C1326 C1327 1.391 . S
C1327 H1315 0.950 . S
C1327 C1323 1.393 . S
C1327 C1326 1.391 . S
H1328 C1336 0.950 . S
H1329 C1341 0.950 . S
H1330 C1338 0.950 . S
H1331 C1340 0.950 . S
H1332 C1342 0.950 . S
H1333 C1344 0.950 . S
H1334 C1346 0.950 . S
H1335 C1347 0.950 1_554 S
C1336 H1328 0.950 . S
C1336 C1337 1.386 . S
C1336 C1338 1.391 . S
C1337 C1336 1.386 . S
C1337 C1341 1.393 . S
C1338 H1330 0.950 . S
C1338 C1336 1.391 . S
C1338 C1339 1.400 . S
C1339 C1338 1.400 . S
C1339 C1340 1.398 . S
C1339 C1345 1.491 . S
C1340 H1331 0.950 . S
C1340 C1339 1.398 . S
C1340 C1341 1.391 . S
C1341 H1329 0.950 . S
C1341 C1337 1.393 . S
C1341 C1340 1.391 . S
C1342 H1332 0.950 . S
C1342 C1343 1.386 . S
C1342 C1344 1.391 . S
C1343 C1342 1.386 . S
C1343 C1347 1.393 . S
C1344 H1333 0.950 . S
C1344 C1342 1.391 . S
C1344 C1345 1.400 . S
C1345 C1339 1.491 . S
C1345 C1344 1.400 . S
C1345 C1346 1.398 . S
C1346 H1334 0.950 . S
C1346 C1345 1.398 . S
C1346 C1347 1.391 . S
C1347 H1335 0.950 1_556 S
C1347 C1343 1.393 . S
C1347 C1346 1.391 . S
H1348 C1356 0.950 . S
H1349 C1361 0.950 . S
H1350 C1358 0.950 . S
H1351 C1360 0.950 . S
H1352 C1362 0.950 . S
H1353 C1364 0.950 . S
H1354 C1366 0.950 . S
H1355 C1367 0.950 . S
C1356 H1348 0.950 . S
C1356 C1357 1.386 . S
C1356 C1358 1.391 . S
C1357 C1356 1.386 . S
C1357 C1361 1.393 . S
C1358 H1350 0.950 . S
C1358 C1356 1.391 . S
C1358 C1359 1.400 . S
C1359 C1358 1.400 . S
C1359 C1360 1.398 . S
C1359 C1365 1.491 . S
C1360 H1351 0.950 . S
C1360 C1359 1.398 . S
C1360 C1361 1.391 . S
C1361 H1349 0.950 . S
C1361 C1357 1.393 . S
C1361 C1360 1.391 . S
C1362 H1352 0.950 . S
C1362 C1363 1.386 . S
C1362 C1364 1.391 . S
C1363 C1362 1.386 . S
C1363 C1367 1.393 . S
C1364 H1353 0.950 . S
C1364 C1362 1.391 . S
C1364 C1365 1.400 . S
C1365 C1359 1.491 . S
C1365 C1364 1.400 . S
C1365 C1366 1.398 . S
C1366 H1354 0.950 . S
C1366 C1365 1.398 . S
C1366 C1367 1.391 . S
C1367 H1355 0.950 . S
C1367 C1363 1.393 . S
C1367 C1366 1.391 . S
H1368 C1376 0.950 . S
H1369 C1381 0.950 . S
H1370 C1378 0.950 . S
H1371 C1380 0.950 . S
H1372 C1382 0.950 . S
H1373 C1384 0.950 . S
H1374 C1386 0.950 . S
H1375 C1387 0.950 . S
C1376 H1368 0.950 . S
C1376 C1377 1.386 . S
C1376 C1378 1.391 . S
C1377 C1376 1.386 . S
C1377 C1381 1.393 . S
C1378 H1370 0.950 . S
C1378 C1376 1.391 . S
C1378 C1379 1.400 . S
C1379 C1378 1.400 . S
C1379 C1380 1.398 . S
C1379 C1385 1.491 . S
C1380 H1371 0.950 . S
C1380 C1379 1.398 . S
C1380 C1381 1.391 . S
C1381 H1369 0.950 . S
C1381 C1377 1.393 . S
C1381 C1380 1.391 . S
C1382 H1372 0.950 . S
C1382 C1383 1.386 . S
C1382 C1384 1.391 . S
C1383 C1382 1.386 . S
C1383 C1387 1.393 . S
C1384 H1373 0.950 . S
C1384 C1382 1.391 . S
C1384 C1385 1.400 . S
C1385 C1379 1.491 . S
C1385 C1384 1.400 . S
C1385 C1386 1.398 . S
C1386 H1374 0.950 . S
C1386 C1385 1.398 . S
C1386 C1387 1.391 . S
C1387 H1375 0.950 . S
C1387 C1383 1.393 . S
C1387 C1386 1.391 . S
H1388 C1396 0.950 . S
H1389 C1401 0.950 . S
H1390 C1398 0.950 . S
H1391 C1400 0.950 . S
H1392 C1402 0.950 . S
H1393 C1404 0.950 . S
H1394 C1406 0.950 . S
H1395 C1407 0.950 . S
C1396 H1388 0.950 . S
C1396 C1397 1.386 . S
C1396 C1398 1.391 . S
C1397 C1396 1.386 . S
C1397 C1401 1.393 . S
C1398 H1390 0.950 . S
C1398 C1396 1.391 . S
C1398 C1399 1.400 . S
C1399 C1398 1.400 . S
C1399 C1400 1.398 . S
C1399 C1405 1.491 . S
C1400 H1391 0.950 . S
C1400 C1399 1.398 . S
C1400 C1401 1.391 . S
C1401 H1389 0.950 . S
C1401 C1397 1.393 . S
C1401 C1400 1.391 . S
C1402 H1392 0.950 . S
C1402 C1403 1.386 . S
C1402 C1404 1.391 . S
C1403 C1402 1.386 . S
C1403 C1407 1.393 . S
C1404 H1393 0.950 . S
C1404 C1402 1.391 . S
C1404 C1405 1.400 . S
C1405 C1399 1.491 . S
C1405 C1404 1.400 . S
C1405 C1406 1.398 . S
C1406 H1394 0.950 . S
C1406 C1405 1.398 . S
C1406 C1407 1.391 . S
C1407 H1395 0.950 . S
C1407 C1403 1.393 . S
C1407 C1406 1.391 . S
H1408 C1416 0.950 . S
H1409 C1421 0.950 . S
H1410 C1418 0.950 . S
H1411 C1420 0.950 . S
H1412 C1422 0.950 . S
H1413 C1424 0.950 . S
H1414 C1426 0.950 . S
H1415 C1427 0.950 . S
C1416 H1408 0.950 . S
C1416 C1417 1.386 . S
C1416 C1418 1.391 . S
C1417 C1416 1.386 . S
C1417 C1421 1.393 . S
C1418 H1410 0.950 . S
C1418 C1416 1.391 . S
C1418 C1419 1.400 . S
C1419 C1418 1.400 . S
C1419 C1420 1.398 . S
C1419 C1425 1.491 . S
C1420 H1411 0.950 . S
C1420 C1419 1.398 . S
C1420 C1421 1.391 . S
C1421 H1409 0.950 . S
C1421 C1417 1.393 . S
C1421 C1420 1.391 . S
C1422 H1412 0.950 . S
C1422 C1423 1.386 . S
C1422 C1424 1.391 . S
C1423 C1422 1.386 . S
C1423 C1427 1.393 . S
C1424 H1413 0.950 . S
C1424 C1422 1.391 . S
C1424 C1425 1.400 . S
C1425 C1419 1.491 . S
C1425 C1424 1.400 . S
C1425 C1426 1.398 . S
C1426 H1414 0.950 . S
C1426 C1425 1.398 . S
C1426 C1427 1.391 . S
C1427 H1415 0.950 . S
C1427 C1423 1.393 . S
C1427 C1426 1.391 . S
H1428 C1436 0.950 . S
H1429 C1441 0.950 . S
H1430 C1438 0.950 . S
H1431 C1440 0.950 . S
H1432 C1442 0.950 . S
H1433 C1444 0.950 . S
H1434 C1446 0.950 . S
H1435 C1447 0.950 . S
C1436 H1428 0.950 . S
C1436 C1437 1.386 . S
C1436 C1438 1.391 . S
C1437 C1436 1.386 . S
C1437 C1441 1.393 . S
C1438 H1430 0.950 . S
C1438 C1436 1.391 . S
C1438 C1439 1.400 . S
C1439 C1438 1.400 . S
C1439 C1440 1.398 . S
C1439 C1445 1.491 . S
C1440 H1431 0.950 . S
C1440 C1439 1.398 . S
C1440 C1441 1.391 . S
C1441 H1429 0.950 . S
C1441 C1437 1.393 . S
C1441 C1440 1.391 . S
C1442 H1432 0.950 . S
C1442 C1443 1.386 . S
C1442 C1444 1.391 . S
C1443 C1442 1.386 . S
C1443 C1447 1.393 . S
C1444 H1433 0.950 . S
C1444 C1442 1.391 . S
C1444 C1445 1.400 . S
C1445 C1439 1.491 . S
C1445 C1444 1.400 . S
C1445 C1446 1.398 . S
C1446 H1434 0.950 . S
C1446 C1445 1.398 . S
C1446 C1447 1.391 . S
C1447 H1435 0.950 . S
C1447 C1443 1.393 . S
C1447 C1446 1.391 . S
H1448 C1456 0.950 . S
H1449 C1461 0.950 . S
H1450 C1458 0.950 . S
H1451 C1460 0.950 . S
H1452 C1462 0.950 . S
H1453 C1464 0.950 . S
H1454 C1466 0.950 . S
H1455 C1467 0.950 . S
C1456 H1448 0.950 . S
C1456 C1457 1.386 . S
C1456 C1458 1.391 . S
C1457 C1456 1.386 . S
C1457 C1461 1.393 . S
C1458 H1450 0.950 . S
C1458 C1456 1.391 . S
C1458 C1459 1.400 . S
C1459 C1458 1.400 . S
C1459 C1460 1.398 . S
C1459 C1465 1.491 1_565 S
C1460 H1451 0.950 . S
C1460 C1459 1.398 . S
C1460 C1461 1.391 . S
C1461 H1449 0.950 . S
C1461 C1457 1.393 . S
C1461 C1460 1.391 . S
C1462 H1452 0.950 . S
C1462 C1463 1.386 . S
C1462 C1464 1.391 . S
C1463 C1462 1.386 . S
C1463 C1467 1.393 . S
C1464 H1453 0.950 . S
C1464 C1462 1.391 . S
C1464 C1465 1.400 . S
C1465 C1459 1.491 1_545 S
C1465 C1464 1.400 . S
C1465 C1466 1.398 . S
C1466 H1454 0.950 . S
C1466 C1465 1.398 . S
C1466 C1467 1.391 . S
C1467 H1455 0.950 . S
C1467 C1463 1.393 . S
C1467 C1466 1.391 . S
H1468 C1476 0.950 . S
H1469 C1481 0.950 . S
H1470 C1478 0.950 . S
H1471 C1480 0.950 . S
H1472 C1482 0.950 . S
H1473 C1484 0.950 . S
H1474 C1486 0.950 . S
H1475 C1487 0.950 . S
C1476 H1468 0.950 . S
C1476 C1477 1.386 . S
C1476 C1478 1.391 . S
C1477 C1476 1.386 . S
C1477 C1481 1.393 . S
C1478 H1470 0.950 . S
C1478 C1476 1.391 . S
C1478 C1479 1.400 . S
C1479 C1478 1.400 . S
C1479 C1480 1.398 . S
C1479 C1485 1.491 1_455 S
C1480 H1471 0.950 . S
C1480 C1479 1.398 . S
C1480 C1481 1.391 . S
C1481 H1469 0.950 . S
C1481 C1477 1.393 . S
C1481 C1480 1.391 . S
C1482 H1472 0.950 . S
C1482 C1483 1.386 . S
C1482 C1484 1.391 . S
C1483 C1482 1.386 . S
C1483 C1487 1.393 . S
C1484 H1473 0.950 . S
C1484 C1482 1.391 . S
C1484 C1485 1.400 . S
C1485 C1479 1.491 1_655 S
C1485 C1484 1.400 . S
C1485 C1486 1.398 . S
C1486 H1474 0.950 . S
C1486 C1485 1.398 . S
C1486 C1487 1.391 . S
C1487 H1475 0.950 . S
C1487 C1483 1.393 . S
C1487 C1486 1.391 . S
H1488 C1496 0.950 . S
H1489 C1501 0.950 . S
H1490 C1498 0.950 . S
H1491 C1500 0.950 . S
H1492 C1502 0.950 . S
H1493 C1504 0.950 . S
H1494 C1506 0.950 . S
H1495 C1507 0.950 . S
C1496 H1488 0.950 . S
C1496 C1497 1.386 . S
C1496 C1498 1.391 . S
C1497 C1496 1.386 . S
C1497 C1501 1.393 . S
C1498 H1490 0.950 . S
C1498 C1496 1.391 . S
C1498 C1499 1.400 . S
C1499 C1498 1.400 . S
C1499 C1500 1.398 . S
C1499 C1505 1.491 . S
C1500 H1491 0.950 . S
C1500 C1499 1.398 . S
C1500 C1501 1.391 . S
C1501 H1489 0.950 . S
C1501 C1497 1.393 . S
C1501 C1500 1.391 . S
C1502 H1492 0.950 . S
C1502 C1503 1.386 . S
C1502 C1504 1.391 . S
C1503 C1502 1.386 . S
C1503 C1507 1.393 . S
C1504 H1493 0.950 . S
C1504 C1502 1.391 . S
C1504 C1505 1.400 . S
C1505 C1499 1.491 . S
C1505 C1504 1.400 . S
C1505 C1506 1.398 . S
C1506 H1494 0.950 . S
C1506 C1505 1.398 . S
C1506 C1507 1.391 . S
C1507 H1495 0.950 . S
C1507 C1503 1.393 . S
C1507 C1506 1.391 . S
H1508 C1516 0.950 . S
H1509 C1521 0.950 . S
H1510 C1518 0.950 1_545 S
H1511 C1520 0.950 . S
H1512 C1522 0.950 . S
H1513 C1524 0.950 . S
H1514 C1526 0.950 . S
H1515 C1527 0.950 . S
C1516 H1508 0.950 . S
C1516 C1517 1.386 . S
C1516 C1518 1.391 . S
C1517 C1516 1.386 . S
C1517 C1521 1.393 . S
C1518 H1510 0.950 1_565 S
C1518 C1516 1.391 . S
C1518 C1519 1.400 . S
C1519 C1518 1.400 . S
C1519 C1520 1.398 . S
C1519 C1525 1.491 1_565 S
C1520 H1511 0.950 . S
C1520 C1519 1.398 . S
C1520 C1521 1.391 . S
C1521 H1509 0.950 . S
C1521 C1517 1.393 . S
C1521 C1520 1.391 . S
C1522 H1512 0.950 . S
C1522 C1523 1.386 . S
C1522 C1524 1.391 . S
C1523 C1522 1.386 . S
C1523 C1527 1.393 . S
C1524 H1513 0.950 . S
C1524 C1522 1.391 . S
C1524 C1525 1.400 . S
C1525 C1519 1.491 1_545 S
C1525 C1524 1.400 . S
C1525 C1526 1.398 . S
C1526 H1514 0.950 . S
C1526 C1525 1.398 . S
C1526 C1527 1.391 . S
C1527 H1515 0.950 . S
C1527 C1523 1.393 . S
C1527 C1526 1.391 . S
H1528 C1536 0.950 . S
H1529 C1541 0.950 . S
H1530 C1538 0.950 . S
H1531 C1540 0.950 . S
H1532 C1542 0.950 . S
H1533 C1544 0.950 . S
H1534 C1546 0.950 . S
H1535 C1547 0.950 . S
C1536 H1528 0.950 . S
C1536 C1537 1.386 . S
C1536 C1538 1.391 . S
C1537 C1536 1.386 . S
C1537 C1541 1.393 . S
C1538 H1530 0.950 . S
C1538 C1536 1.391 . S
C1538 C1539 1.400 . S
C1539 C1538 1.400 . S
C1539 C1540 1.398 . S
C1539 C1545 1.491 1_455 S
C1540 H1531 0.950 . S
C1540 C1539 1.398 . S
C1540 C1541 1.391 . S
C1541 H1529 0.950 . S
C1541 C1537 1.393 . S
C1541 C1540 1.391 . S
C1542 H1532 0.950 . S
C1542 C1543 1.386 . S
C1542 C1544 1.391 . S
C1543 C1542 1.386 . S
C1543 C1547 1.393 . S
C1544 H1533 0.950 . S
C1544 C1542 1.391 . S
C1544 C1545 1.400 . S
C1545 C1539 1.491 1_655 S
C1545 C1544 1.400 . S
C1545 C1546 1.398 . S
C1546 H1534 0.950 . S
C1546 C1545 1.398 . S
C1546 C1547 1.391 . S
C1547 H1535 0.950 . S
C1547 C1543 1.393 . S
C1547 C1546 1.391 . S
H1548 C1556 0.950 . S
H1549 C1561 0.950 . S
H1550 C1558 0.950 . S
H1551 C1560 0.950 . S
H1552 C1562 0.950 . S
H1553 C1564 0.950 . S
H1554 C1566 0.950 . S
H1555 C1567 0.950 . S
C1556 H1548 0.950 . S
C1556 C1557 1.386 . S
C1556 C1558 1.391 1_554 S
C1557 C1556 1.386 . S
C1557 C1561 1.393 . S
C1558 H1550 0.950 . S
C1558 C1556 1.391 1_556 S
C1558 C1559 1.400 . S
C1559 C1558 1.400 . S
C1559 C1560 1.398 . S
C1559 C1565 1.491 . S
C1560 H1551 0.950 . S
C1560 C1559 1.398 . S
C1560 C1561 1.391 1_556 S
C1561 H1549 0.950 . S
C1561 C1557 1.393 . S
C1561 C1560 1.391 1_554 S
C1562 H1552 0.950 . S
C1562 C1563 1.386 . S
C1562 C1564 1.391 . S
C1563 C1562 1.386 . S
C1563 C1567 1.393 . S
C1564 H1553 0.950 . S
C1564 C1562 1.391 . S
C1564 C1565 1.400 . S
C1565 C1559 1.491 . S
C1565 C1564 1.400 . S
C1565 C1566 1.398 . S
C1566 H1554 0.950 . S
C1566 C1565 1.398 . S
C1566 C1567 1.391 . S
C1567 H1555 0.950 . S
C1567 C1563 1.393 . S
C1567 C1566 1.391 . S
H1568 C1576 0.950 . S
H1569 C1581 0.950 . S
H1570 C1578 0.950 . S
H1571 C1580 0.950 . S
H1572 C1582 0.950 . S
H1573 C1584 0.950 . S
H1574 C1586 0.950 . S
H1575 C1587 0.950 . S
C1576 H1568 0.950 . S
C1576 C1577 1.386 . S
C1576 C1578 1.391 1_554 S
C1577 C1576 1.386 . S
C1577 C1581 1.393 . S
C1578 H1570 0.950 . S
C1578 C1576 1.391 1_556 S
C1578 C1579 1.400 . S
C1579 C1578 1.400 . S
C1579 C1580 1.398 . S
C1579 C1585 1.491 . S
C1580 H1571 0.950 . S
C1580 C1579 1.398 . S
C1580 C1581 1.391 1_556 S
C1581 H1569 0.950 . S
C1581 C1577 1.393 . S
C1581 C1580 1.391 1_554 S
C1582 H1572 0.950 . S
C1582 C1583 1.386 . S
C1582 C1584 1.391 . S
C1583 C1582 1.386 . S
C1583 C1587 1.393 . S
C1584 H1573 0.950 . S
C1584 C1582 1.391 . S
C1584 C1585 1.400 . S
C1585 C1579 1.491 . S
C1585 C1584 1.400 . S
C1585 C1586 1.398 . S
C1586 H1574 0.950 . S
C1586 C1585 1.398 . S
C1586 C1587 1.391 . S
C1587 H1575 0.950 . S
C1587 C1583 1.393 . S
C1587 C1586 1.391 . S
H1588 C1596 0.950 . S
H1589 C1601 0.950 . S
H1590 C1598 0.950 . S
H1591 C1600 0.950 . S
H1592 C1602 0.950 . S
H1593 C1604 0.950 . S
H1594 C1606 0.950 . S
H1595 C1607 0.950 . S
C1596 H1588 0.950 . S
C1596 C1597 1.386 . S
C1596 C1598 1.391 1_554 S
C1597 C1596 1.386 . S
C1597 C1601 1.393 . S
C1598 H1590 0.950 . S
C1598 C1596 1.391 1_556 S
C1598 C1599 1.400 . S
C1599 C1598 1.400 . S
C1599 C1600 1.398 . S
C1599 C1605 1.491 . S
C1600 H1591 0.950 . S
C1600 C1599 1.398 . S
C1600 C1601 1.391 1_556 S
C1601 H1589 0.950 . S
C1601 C1597 1.393 . S
C1601 C1600 1.391 1_554 S
C1602 H1592 0.950 . S
C1602 C1603 1.386 . S
C1602 C1604 1.391 . S
C1603 C1602 1.386 . S
C1603 C1607 1.393 . S
C1604 H1593 0.950 . S
C1604 C1602 1.391 . S
C1604 C1605 1.400 . S
C1605 C1599 1.491 . S
C1605 C1604 1.400 . S
C1605 C1606 1.398 . S
C1606 H1594 0.950 . S
C1606 C1605 1.398 . S
C1606 C1607 1.391 . S
C1607 H1595 0.950 . S
C1607 C1603 1.393 . S
C1607 C1606 1.391 . S
H1608 C1616 0.950 . S
H1609 C1621 0.950 . S
H1610 C1618 0.950 . S
H1611 C1620 0.950 . S
H1612 C1622 0.950 . S
H1613 C1624 0.950 . S
H1614 C1626 0.950 . S
H1615 C1627 0.950 . S
C1616 H1608 0.950 . S
C1616 C1617 1.386 . S
C1616 C1618 1.391 . S
C1617 C1616 1.386 . S
C1617 C1621 1.393 . S
C1618 H1610 0.950 . S
C1618 C1616 1.391 . S
C1618 C1619 1.400 . S
C1619 C1618 1.400 . S
C1619 C1620 1.398 . S
C1619 C1625 1.491 . S
C1620 H1611 0.950 . S
C1620 C1619 1.398 . S
C1620 C1621 1.391 . S
C1621 H1609 0.950 . S
C1621 C1617 1.393 . S
C1621 C1620 1.391 . S
C1622 H1612 0.950 . S
C1622 C1623 1.386 . S
C1622 C1624 1.391 . S
C1623 C1622 1.386 . S
C1623 C1627 1.393 . S
C1624 H1613 0.950 . S
C1624 C1622 1.391 . S
C1624 C1625 1.400 . S
C1625 C1619 1.491 . S
C1625 C1624 1.400 . S
C1625 C1626 1.398 . S
C1626 H1614 0.950 . S
C1626 C1625 1.398 . S
C1626 C1627 1.391 . S
C1627 H1615 0.950 . S
C1627 C1623 1.393 . S
C1627 C1626 1.391 . S
H1628 C1636 0.950 . S
H1629 C1641 0.950 . S
H1630 C1638 0.950 . S
H1631 C1640 0.950 . S
H1632 C1642 0.950 . S
H1633 C1644 0.950 . S
H1634 C1646 0.950 . S
H1635 C1647 0.950 . S
C1636 H1628 0.950 . S
C1636 C1637 1.386 . S
C1636 C1638 1.391 . S
C1637 C1636 1.386 . S
C1637 C1641 1.393 . S
C1638 H1630 0.950 . S
C1638 C1636 1.391 . S
C1638 C1639 1.400 . S
C1639 C1638 1.400 . S
C1639 C1640 1.398 . S
C1639 C1645 1.491 . S
C1640 H1631 0.950 . S
C1640 C1639 1.398 . S
C1640 C1641 1.391 . S
C1641 H1629 0.950 . S
C1641 C1637 1.393 . S
C1641 C1640 1.391 . S
C1642 H1632 0.950 . S
C1642 C1643 1.386 . S
C1642 C1644 1.391 . S
C1643 C1642 1.386 . S
C1643 C1647 1.393 . S
C1644 H1633 0.950 . S
C1644 C1642 1.391 . S
C1644 C1645 1.400 . S
C1645 C1639 1.491 . S
C1645 C1644 1.400 . S
C1645 C1646 1.398 . S
C1646 H1634 0.950 . S
C1646 C1645 1.398 . S
C1646 C1647 1.391 . S
C1647 H1635 0.950 . S
C1647 C1643 1.393 . S
C1647 C1646 1.391 . S
H1648 C1656 0.950 . S
H1649 C1661 0.950 . S
H1650 C1658 0.950 . S
H1651 C1660 0.950 . S
H1652 C1662 0.950 . S
H1653 C1664 0.950 . S
H1654 C1666 0.950 . S
H1655 C1667 0.950 . S
C1656 H1648 0.950 . S
C1656 C1657 1.386 . S
C1656 C1658 1.391 . S
C1657 C1656 1.386 . S
C1657 C1661 1.393 . S
C1658 H1650 0.950 . S
C1658 C1656 1.391 . S
C1658 C1659 1.400 . S
C1659 C1658 1.400 . S
C1659 C1660 1.398 . S
C1659 C1665 1.491 . S
C1660 H1651 0.950 . S
C1660 C1659 1.398 . S
C1660 C1661 1.391 . S
C1661 H1649 0.950 . S
C1661 C1657 1.393 . S
C1661 C1660 1.391 . S
C1662 H1652 0.950 . S
C1662 C1663 1.386 . S
C1662 C1664 1.391 . S
C1663 C1662 1.386 . S
C1663 C1667 1.393 . S
C1664 H1653 0.950 . S
C1664 C1662 1.391 . S
C1664 C1665 1.400 . S
C1665 C1659 1.491 . S
C1665 C1664 1.400 . S
C1665 C1666 1.398 . S
C1666 H1654 0.950 . S
C1666 C1665 1.398 . S
C1666 C1667 1.391 . S
C1667 H1655 0.950 . S
C1667 C1663 1.393 . S
C1667 C1666 1.391 . S
H1668 C1676 0.950 . S
H1669 C1681 0.950 . S
H1670 C1678 0.950 . S
H1671 C1680 0.950 . S
H1672 C1682 0.950 . S
H1673 C1684 0.950 . S
H1674 C1686 0.950 . S
H1675 C1687 0.950 . S
C1676 H1668 0.950 . S
C1676 C1677 1.386 . S
C1676 C1678 1.391 . S
C1677 C1676 1.386 . S
C1677 C1681 1.393 . S
C1678 H1670 0.950 . S
C1678 C1676 1.391 . S
C1678 C1679 1.400 . S
C1679 C1678 1.400 . S
C1679 C1680 1.398 . S
C1679 C1685 1.491 . S
C1680 H1671 0.950 . S
C1680 C1679 1.398 . S
C1680 C1681 1.391 . S
C1681 H1669 0.950 . S
C1681 C1677 1.393 . S
C1681 C1680 1.391 . S
C1682 H1672 0.950 . S
C1682 C1683 1.386 . S
C1682 C1684 1.391 1_556 S
C1683 C1682 1.386 . S
C1683 C1687 1.393 . S
C1684 H1673 0.950 . S
C1684 C1682 1.391 1_554 S
C1684 C1685 1.400 . S
C1685 C1679 1.491 . S
C1685 C1684 1.400 . S
C1685 C1686 1.398 . S
C1686 H1674 0.950 . S
C1686 C1685 1.398 . S
C1686 C1687 1.391 1_554 S
C1687 H1675 0.950 . S
C1687 C1683 1.393 . S
C1687 C1686 1.391 1_556 S
H1688 C1696 0.950 . S
H1689 C1701 0.950 . S
H1690 C1698 0.950 . S
H1691 C1700 0.950 . S
H1692 C1702 0.950 . S
H1693 C1704 0.950 . S
H1694 C1706 0.950 . S
H1695 C1707 0.950 . S
C1696 H1688 0.950 . S
C1696 C1697 1.386 . S
C1696 C1698 1.391 . S
C1697 C1696 1.386 . S
C1697 C1701 1.393 . S
C1698 H1690 0.950 . S
C1698 C1696 1.391 . S
C1698 C1699 1.400 . S
C1699 C1698 1.400 . S
C1699 C1700 1.398 . S
C1699 C1705 1.491 . S
C1700 H1691 0.950 . S
C1700 C1699 1.398 . S
C1700 C1701 1.391 . S
C1701 H1689 0.950 . S
C1701 C1697 1.393 . S
C1701 C1700 1.391 . S
C1702 H1692 0.950 . S
C1702 C1703 1.386 . S
C1702 C1704 1.391 1_556 S
C1703 C1702 1.386 . S
C1703 C1707 1.393 . S
C1704 H1693 0.950 . S
C1704 C1702 1.391 1_554 S
C1704 C1705 1.400 . S
C1705 C1699 1.491 . S
C1705 C1704 1.400 . S
C1705 C1706 1.398 . S
C1706 H1694 0.950 . S
C1706 C1705 1.398 . S
C1706 C1707 1.391 1_554 S
C1707 H1695 0.950 . S
C1707 C1703 1.393 . S
C1707 C1706 1.391 1_556 S
H1708 C1716 0.950 . S
H1709 C1721 0.950 . S
H1710 C1718 0.950 . S
H1711 C1720 0.950 . S
H1712 C1722 0.950 . S
H1713 C1724 0.950 . S
H1714 C1726 0.950 . S
H1715 C1727 0.950 . S
C1716 H1708 0.950 . S
C1716 C1717 1.386 . S
C1716 C1718 1.391 . S
C1717 C1716 1.386 . S
C1717 C1721 1.393 . S
C1718 H1710 0.950 . S
C1718 C1716 1.391 . S
C1718 C1719 1.400 . S
C1719 C1718 1.400 . S
C1719 C1720 1.398 . S
C1719 C1725 1.491 . S
C1720 H1711 0.950 . S
C1720 C1719 1.398 . S
C1720 C1721 1.391 . S
C1721 H1709 0.950 . S
C1721 C1717 1.393 . S
C1721 C1720 1.391 . S
C1722 H1712 0.950 . S
C1722 C1723 1.386 . S
C1722 C1724 1.391 1_556 S
C1723 C1722 1.386 . S
C1723 C1727 1.393 . S
C1724 H1713 0.950 . S
C1724 C1722 1.391 1_554 S
C1724 C1725 1.400 . S
C1725 C1719 1.491 . S
C1725 C1724 1.400 . S
C1725 C1726 1.398 . S
C1726 H1714 0.950 . S
C1726 C1725 1.398 . S
C1726 C1727 1.391 1_554 S
C1727 H1715 0.950 . S
C1727 C1723 1.393 . S
C1727 C1726 1.391 1_556 S
H1728 C1736 0.950 . S
H1729 C1741 0.950 . S
H1730 C1738 0.950 . S
H1731 C1740 0.950 . S
H1732 C1742 0.950 . S
H1733 C1744 0.950 . S
H1734 C1746 0.950 . S
H1735 C1747 0.950 . S
C1736 H1728 0.950 . S
C1736 C1737 1.386 . S
C1736 C1738 1.391 . S
C1737 C1736 1.386 . S
C1737 C1741 1.393 . S
C1738 H1730 0.950 . S
C1738 C1736 1.391 . S
C1738 C1739 1.400 . S
C1739 C1738 1.400 . S
C1739 C1740 1.398 . S
C1739 C1745 1.491 . S
C1740 H1731 0.950 . S
C1740 C1739 1.398 . S
C1740 C1741 1.391 . S
C1741 H1729 0.950 . S
C1741 C1737 1.393 . S
C1741 C1740 1.391 . S
C1742 H1732 0.950 . S
C1742 C1743 1.386 . S
C1742 C1744 1.391 . S
C1743 C1742 1.386 . S
C1743 C1747 1.393 . S
C1744 H1733 0.950 . S
C1744 C1742 1.391 . S
C1744 C1745 1.400 . S
C1745 C1739 1.491 . S
C1745 C1744 1.400 . S
C1745 C1746 1.398 . S
C1746 H1734 0.950 . S
C1746 C1745 1.398 . S
C1746 C1747 1.391 . S
C1747 H1735 0.950 . S
C1747 C1743 1.393 . S
C1747 C1746 1.391 . S
H1748 C1756 0.950 . S
H1749 C1761 0.950 . S
H1750 C1758 0.950 . S
H1751 C1760 0.950 . S
H1752 C1762 0.950 . S
H1753 C1764 0.950 . S
H1754 C1766 0.950 . S
H1755 C1767 0.950 . S
C1756 H1748 0.950 . S
C1756 C1757 1.386 . S
C1756 C1758 1.391 . S
C1757 C1756 1.386 . S
C1757 C1761 1.393 . S
C1758 H1750 0.950 . S
C1758 C1756 1.391 . S
C1758 C1759 1.400 . S
C1759 C1758 1.400 . S
C1759 C1760 1.398 . S
C1759 C1765 1.491 . S
C1760 H1751 0.950 . S
C1760 C1759 1.398 . S
C1760 C1761 1.391 . S
C1761 H1749 0.950 . S
C1761 C1757 1.393 . S
C1761 C1760 1.391 . S
C1762 H1752 0.950 . S
C1762 C1763 1.386 . S
C1762 C1764 1.391 . S
C1763 C1762 1.386 . S
C1763 C1767 1.393 . S
C1764 H1753 0.950 . S
C1764 C1762 1.391 . S
C1764 C1765 1.400 . S
C1765 C1759 1.491 . S
C1765 C1764 1.400 . S
C1765 C1766 1.398 . S
C1766 H1754 0.950 . S
C1766 C1765 1.398 . S
C1766 C1767 1.391 . S
C1767 H1755 0.950 . S
C1767 C1763 1.393 . S
C1767 C1766 1.391 . S
H1768 C1776 0.950 . S
H1769 C1781 0.950 . S
H1770 C1778 0.950 . S
H1771 C1780 0.950 . S
H1772 C1782 0.950 . S
H1773 C1784 0.950 . S
H1774 C1786 0.950 . S
H1775 C1787 0.950 . S
C1776 H1768 0.950 . S
C1776 C1777 1.386 . S
C1776 C1778 1.391 . S
C1777 C1776 1.386 . S
C1777 C1781 1.393 . S
C1778 H1770 0.950 . S
C1778 C1776 1.391 . S
C1778 C1779 1.400 . S
C1779 C1778 1.400 . S
C1779 C1780 1.398 . S
C1779 C1785 1.491 . S
C1780 H1771 0.950 . S
C1780 C1779 1.398 . S
C1780 C1781 1.391 . S
C1781 H1769 0.950 . S
C1781 C1777 1.393 . S
C1781 C1780 1.391 . S
C1782 H1772 0.950 . S
C1782 C1783 1.386 . S
C1782 C1784 1.391 . S
C1783 C1782 1.386 . S
C1783 C1787 1.393 . S
C1784 H1773 0.950 . S
C1784 C1782 1.391 . S
C1784 C1785 1.400 . S
C1785 C1779 1.491 . S
C1785 C1784 1.400 . S
C1785 C1786 1.398 . S
C1786 H1774 0.950 . S
C1786 C1785 1.398 . S
C1786 C1787 1.391 . S
C1787 H1775 0.950 . S
C1787 C1783 1.393 . S
C1787 C1786 1.391 . S
H1788 C1796 0.950 . S
H1789 C1801 0.950 1_455 S
H1790 C1798 0.950 . S
H1791 C1800 0.950 1_455 S
H1792 C1802 0.950 1_455 S
H1793 C1804 0.950 1_455 S
H1794 C1806 0.950 . S
H1795 C1807 0.950 . S
C1796 H1788 0.950 . S
C1796 C1797 1.386 . S
C1796 C1798 1.391 . S
C1797 C1796 1.386 . S
C1797 C1801 1.393 . S
C1798 H1790 0.950 . S
C1798 C1796 1.391 . S
C1798 C1799 1.400 . S
C1799 C1798 1.400 . S
C1799 C1800 1.398 . S
C1799 C1805 1.491 . S
C1800 H1791 0.950 1_655 S
C1800 C1799 1.398 . S
C1800 C1801 1.391 . S
C1801 H1789 0.950 1_655 S
C1801 C1797 1.393 . S
C1801 C1800 1.391 . S
C1802 H1792 0.950 1_655 S
C1802 C1803 1.386 . S
C1802 C1804 1.391 . S
C1803 C1802 1.386 . S
C1803 C1807 1.393 . S
C1804 H1793 0.950 1_655 S
C1804 C1802 1.391 . S
C1804 C1805 1.400 . S
C1805 C1799 1.491 . S
C1805 C1804 1.400 . S
C1805 C1806 1.398 . S
C1806 H1794 0.950 . S
C1806 C1805 1.398 . S
C1806 C1807 1.391 . S
C1807 H1795 0.950 . S
C1807 C1803 1.393 . S
C1807 C1806 1.391 . S
H1808 C1816 0.950 . S
H1809 C1821 0.950 . S
H1810 C1818 0.950 . S
H1811 C1820 0.950 . S
H1812 C1822 0.950 . S
H1813 C1824 0.950 . S
H1814 C1826 0.950 . S
H1815 C1827 0.950 . S
C1816 H1808 0.950 . S
C1816 C1817 1.386 . S
C1816 C1818 1.391 . S
C1817 C1816 1.386 . S
C1817 C1821 1.393 . S
C1818 H1810 0.950 . S
C1818 C1816 1.391 . S
C1818 C1819 1.400 . S
C1819 C1818 1.400 . S
C1819 C1820 1.398 . S
C1819 C1825 1.491 . S
C1820 H1811 0.950 . S
C1820 C1819 1.398 . S
C1820 C1821 1.391 . S
C1821 H1809 0.950 . S
C1821 C1817 1.393 . S
C1821 C1820 1.391 . S
C1822 H1812 0.950 . S
C1822 C1823 1.386 . S
C1822 C1824 1.391 . S
C1823 C1822 1.386 . S
C1823 C1827 1.393 . S
C1824 H1813 0.950 . S
C1824 C1822 1.391 . S
C1824 C1825 1.400 . S
C1825 C1819 1.491 . S
C1825 C1824 1.400 . S
C1825 C1826 1.398 . S
C1826 H1814 0.950 . S
C1826 C1825 1.398 . S
C1826 C1827 1.391 . S
C1827 H1815 0.950 . S
C1827 C1823 1.393 . S
C1827 C1826 1.391 . S
H1828 C1836 0.950 . S
H1829 C1841 0.950 . S
H1830 C1838 0.950 . S
H1831 C1840 0.950 . S
H1832 C1842 0.950 . S
H1833 C1844 0.950 . S
H1834 C1846 0.950 . S
H1835 C1847 0.950 . S
C1836 H1828 0.950 . S
C1836 C1837 1.386 . S
C1836 C1838 1.391 . S
C1837 C1836 1.386 . S
C1837 C1841 1.393 . S
C1838 H1830 0.950 . S
C1838 C1836 1.391 . S
C1838 C1839 1.400 . S
C1839 C1838 1.400 . S
C1839 C1840 1.398 . S
C1839 C1845 1.491 . S
C1840 H1831 0.950 . S
C1840 C1839 1.398 . S
C1840 C1841 1.391 . S
C1841 H1829 0.950 . S
C1841 C1837 1.393 . S
C1841 C1840 1.391 . S
C1842 H1832 0.950 . S
C1842 C1843 1.386 . S
C1842 C1844 1.391 . S
C1843 C1842 1.386 . S
C1843 C1847 1.393 . S
C1844 H1833 0.950 . S
C1844 C1842 1.391 . S
C1844 C1845 1.400 . S
C1845 C1839 1.491 . S
C1845 C1844 1.400 . S
C1845 C1846 1.398 . S
C1846 H1834 0.950 . S
C1846 C1845 1.398 . S
C1846 C1847 1.391 . S
C1847 H1835 0.950 . S
C1847 C1843 1.393 . S
C1847 C1846 1.391 . S
H1848 C1856 0.950 1_565 S
H1849 C1861 0.950 . S
H1850 C1858 0.950 1_565 S
H1851 C1860 0.950 . S
H1852 C1862 0.950 . S
H1853 C1864 0.950 . S
H1854 C1866 0.945 . S
H1855 C1867 0.916 1_565 S
C1856 H1848 0.950 1_545 S
C1856 C1857 1.386 . S
C1856 C1858 1.391 . S
C1857 C1856 1.386 . S
C1857 C1861 1.393 . S
C1858 H1850 0.950 1_545 S
C1858 C1856 1.391 . S
C1858 C1859 1.400 . S
C1859 C1858 1.400 . S
C1859 C1860 1.398 . S
C1859 C1865 1.491 . S
C1860 H1851 0.950 . S
C1860 C1859 1.398 . S
C1860 C1861 1.391 . S
C1861 H1849 0.950 . S
C1861 C1857 1.393 . S
C1861 C1860 1.391 . S
C1862 H1852 0.950 . S
C1862 C1863 1.386 . S
C1862 C1864 1.391 . S
C1863 C1862 1.386 . S
C1863 C1867 1.393 . S
C1864 H1853 0.950 . S
C1864 C1862 1.391 . S
C1864 C1865 1.400 . S
C1865 C1859 1.491 . S
C1865 C1864 1.400 . S
C1865 C1866 1.398 . S
C1866 H1854 0.945 . S
C1866 C1865 1.398 . S
C1866 C1867 1.391 . S
C1867 H1855 0.916 1_545 S
C1867 C1863 1.393 . S
C1867 C1866 1.391 . S
H1868 C1876 0.950 . S
H1869 C1881 0.950 . S
H1870 C1878 0.950 . S
H1871 C1880 0.950 . S
H1872 C1882 0.950 . S
H1873 C1884 0.950 . S
H1874 C1886 0.950 . S
H1875 C1887 0.950 . S
C1876 H1868 0.950 . S
C1876 C1877 1.386 . S
C1876 C1878 1.391 . S
C1877 C1876 1.386 . S
C1877 C1881 1.393 . S
C1878 H1870 0.950 . S
C1878 C1876 1.391 . S
C1878 C1879 1.400 . S
C1879 C1878 1.400 . S
C1879 C1880 1.398 . S
C1879 C1885 1.491 . S
C1880 H1871 0.950 . S
C1880 C1879 1.398 . S
C1880 C1881 1.391 . S
C1881 H1869 0.950 . S
C1881 C1877 1.393 . S
C1881 C1880 1.391 . S
C1882 H1872 0.950 . S
C1882 C1883 1.386 . S
C1882 C1884 1.391 . S
C1883 C1882 1.386 . S
C1883 C1887 1.393 . S
C1884 H1873 0.950 . S
C1884 C1882 1.391 . S
C1884 C1885 1.400 . S
C1885 C1879 1.491 . S
C1885 C1884 1.400 . S
C1885 C1886 1.398 . S
C1886 H1874 0.950 . S
C1886 C1885 1.398 . S
C1886 C1887 1.391 . S
C1887 H1875 0.950 . S
C1887 C1883 1.393 . S
C1887 C1886 1.391 . S
H1888 C1896 0.950 . S
H1889 C1901 0.950 . S
H1890 C1898 0.950 . S
H1891 C1900 0.950 . S
H1892 C1902 0.950 . S
H1893 C1904 0.950 . S
H1894 C1906 0.950 . S
H1895 C1907 0.950 . S
C1896 H1888 0.950 . S
C1896 C1897 1.386 . S
C1896 C1898 1.391 . S
C1897 C1896 1.386 . S
C1897 C1901 1.393 . S
C1898 H1890 0.950 . S
C1898 C1896 1.391 . S
C1898 C1899 1.400 . S
C1899 C1898 1.400 . S
C1899 C1900 1.398 . S
C1899 C1905 1.491 . S
C1900 H1891 0.950 . S
C1900 C1899 1.398 . S
C1900 C1901 1.391 . S
C1901 H1889 0.950 . S
C1901 C1897 1.393 . S
C1901 C1900 1.391 . S
C1902 H1892 0.950 . S
C1902 C1903 1.386 . S
C1902 C1904 1.391 . S
C1903 C1902 1.386 . S
C1903 C1907 1.393 . S
C1904 H1893 0.950 . S
C1904 C1902 1.391 . S
C1904 C1905 1.400 . S
C1905 C1899 1.491 . S
C1905 C1904 1.400 . S
C1905 C1906 1.398 . S
C1906 H1894 0.950 . S
C1906 C1905 1.398 . S
C1906 C1907 1.391 . S
C1907 H1895 0.950 . S
C1907 C1903 1.393 . S
C1907 C1906 1.391 . S
C477 C212 1.619 . S
C483 C10 1.607 . S
C497 C225 1.602 . S
C503 C17 1.594 . S
C517 C205 1.611 . S
C523 C30 1.612 . S
C537 C342 1.586 . S
C543 C43 1.577 . S
C557 C62 1.590 . S
C563 C322 1.590 . S
C577 C75 1.569 . S
C583 C329 1.575 . S
C597 C88 1.607 . S
C603 C452 1.620 . S
C617 C459 1.592 . S
C623 C95 1.588 . S
C637 C439 1.596 . S
C643 C108 1.605 . S
C657 C121 1.577 . S
C663 C270 1.586 . S
C677 C244 1.587 . S
C683 C134 1.587 . S
C697 C153 1.576 . S
C703 C257 1.567 . S
C717 C374 1.540 . S
C723 C166 1.537 . S
C737 C179 1.516 . S
C743 C381 1.512 . S
C757 C361 1.498 . S
C763 C192 1.505 . S
C777 C420 1.512 . S
C783 C283 1.508 . S
C797 C394 1.534 . S
C803 C290 1.532 . S
C817 C309 1.519 . S
C823 C413 1.507 . S
C837 C238 1.322 . S
C843 C4 1.322 . S
C857 C251 1.437 . S
C863 C23 1.436 . S
C877 C264 1.677 . S
C883 C36 1.687 . S
C897 C49 1.331 . S
C903 C433 1.331 . S
C917 C56 1.738 . S
C923 C446 1.739 . S
C937 C69 1.449 . S
C943 C465 1.454 . S
C957 C82 1.322 . S
C963 C316 1.322 . S
C977 C335 1.452 . S
C983 C101 1.451 . S
C997 C348 1.681 . S
C1003 C114 1.692 . S
C1017 C199 1.327 . S
C1023 C127 1.328 . S
C1037 C140 1.732 . S
C1043 C218 1.733 . S
C1057 C147 1.445 . S
C1063 C231 1.451 . S
C1077 C160 1.319 . S
C1083 C400 1.328 . S
C1097 C407 1.413 . S
C1103 C173 1.413 . S
C1117 C426 1.565 . S
C1123 C186 1.565 . S
C1137 C355 1.393 . S
C1143 C277 1.401 . S
C1157 C296 1.646 . S
C1163 C368 1.646 . S
C1177 C303 1.497 . S
C1183 C387 1.497 . S
C1197 C356 1.450 . S
C1203 C5 1.455 . S
C1217 C16 1.382 . S
C1223 C369 1.335 . S
C1237 C29 1.338 . S
C1243 C380 1.376 . S
C1257 C161 1.432 . S
C1263 C42 1.423 . S
C1277 C57 1.367 . S
C1283 C174 1.420 . S
C1297 C70 1.326 . S
C1303 C187 1.311 . S
C1317 C278 1.461 . S
C1323 C83 1.456 . S
C1337 C94 1.386 . S
C1343 C289 1.360 . S
C1357 C304 1.376 . S
C1363 C107 1.333 . S
C1377 C120 1.434 . S
C1383 C393 1.424 . S
C1397 C408 1.421 . S
C1403 C133 1.359 . S
C1417 C419 1.310 . S
C1423 C148 1.328 . S
C1437 C317 1.467 . S
C1443 C200 1.471 . S
C1457 C328 1.430 . S
C1463 C211 1.369 . S
C1477 C341 1.395 . S
C1483 C224 1.437 . S
C1497 C239 1.468 . S
C1503 C434 1.465 . S
C1517 C447 1.388 . S
C1523 C252 1.430 . S
C1537 C458 1.440 . S
C1543 C265 1.390 . S
C1557 C3 0.918 . S
C1563 C213 0.921 . S
C1577 C18 0.951 . S
C1583 C226 0.955 . S
C1597 C31 0.918 . S
C1603 C198 0.919 . S
C1617 C343 0.954 . S
C1623 C44 0.953 . S
C1637 C315 0.949 . S
C1643 C55 0.944 . S
C1657 C330 0.966 . S
C1663 C68 0.974 . S
C1677 C445 0.951 . S
C1683 C81 0.942 . S
C1697 C460 0.914 . S
C1703 C96 0.918 . S
C1717 C432 0.950 . S
C1723 C109 0.944 . S
C1737 C122 0.973 . S
C1743 C263 0.982 . S
C1757 C135 0.975 . S
C1763 C237 0.969 . S
C1777 C146 0.967 . S
C1783 C250 0.955 . S
C1797 C367 1.007 . S
C1803 C159 1.001 . S
C1817 C382 1.027 . S
C1823 C172 1.034 . S
C1837 C185 1.042 . S
C1843 C354 1.050 . S
C1857 C276 1.014 . S
C1863 C421 1.033 . S
C1877 C395 1.021 . S
C1883 C291 1.019 . S
C1897 C406 1.000 . S
C1903 C302 0.997 . S
