# Generated by pormake.
# Topology nov, (5)-cn, num edge types: 1
# Building blocks:
#     Node 0, Type 0, BuildingBlock: BEQFEK_clean_sbu_0, # of connection points: 5
#     Node 1, Type 0, BuildingBlock: BEQFEK_clean_sbu_0, # of connection points: 5
#     Node 2, Type 0, BuildingBlock: BEQFEK_clean_sbu_0, # of connection points: 5
#     Node 3, Type 0, BuildingBlock: BEQFEK_clean_sbu_0, # of connection points: 5
#     Node 4, Type 0, BuildingBlock: BEQFEK_clean_sbu_0, # of connection points: 5
#     Node 5, Type 0, BuildingBlock: BEQFEK_clean_sbu_0, # of connection points: 5
#     Node 6, Type 0, BuildingBlock: BEQFEK_clean_sbu_0, # of connection points: 5
#     Node 7, Type 0, BuildingBlock: BEQFEK_clean_sbu_0, # of connection points: 5
#     Edge 8, Type (0, 0), BuildingBlock: EZIPEK_clean_linker_0, # of connection points: 2
#     Edge 9, Type (0, 0), BuildingBlock: EZIPEK_clean_linker_0, # of connection points: 2
#     Edge 10, Type (0, 0), BuildingBlock: EZIPEK_clean_linker_0, # of connection points: 2
#     Edge 11, Type (0, 0), BuildingBlock: EZIPEK_clean_linker_0, # of connection points: 2
#     Edge 12, Type (0, 0), BuildingBlock: EZIPEK_clean_linker_0, # of connection points: 2
#     Edge 13, Type (0, 0), BuildingBlock: EZIPEK_clean_linker_0, # of connection points: 2
#     Edge 14, Type (0, 0), BuildingBlock: EZIPEK_clean_linker_0, # of connection points: 2
#     Edge 15, Type (0, 0), BuildingBlock: EZIPEK_clean_linker_0, # of connection points: 2
#     Edge 16, Type (0, 0), BuildingBlock: EZIPEK_clean_linker_0, # of connection points: 2
#     Edge 17, Type (0, 0), BuildingBlock: EZIPEK_clean_linker_0, # of connection points: 2
#     Edge 18, Type (0, 0), BuildingBlock: EZIPEK_clean_linker_0, # of connection points: 2
#     Edge 19, Type (0, 0), BuildingBlock: EZIPEK_clean_linker_0, # of connection points: 2
#     Edge 20, Type (0, 0), BuildingBlock: EZIPEK_clean_linker_0, # of connection points: 2
#     Edge 21, Type (0, 0), BuildingBlock: EZIPEK_clean_linker_0, # of connection points: 2
#     Edge 22, Type (0, 0), BuildingBlock: EZIPEK_clean_linker_0, # of connection points: 2
#     Edge 23, Type (0, 0), BuildingBlock: EZIPEK_clean_linker_0, # of connection points: 2
#     Edge 24, Type (0, 0), BuildingBlock: EZIPEK_clean_linker_0, # of connection points: 2
#     Edge 25, Type (0, 0), BuildingBlock: EZIPEK_clean_linker_0, # of connection points: 2
#     Edge 26, Type (0, 0), BuildingBlock: EZIPEK_clean_linker_0, # of connection points: 2
#     Edge 27, Type (0, 0), BuildingBlock: EZIPEK_clean_linker_0, # of connection points: 2
# Relax obj value: 0.078
# Max RMSD: 0.098
# Mean RMSD: 0.098
data_MOF--net-nov--node1-BEQFEK_clean_sbu_0--edge1-EZIPEK_clean_linker_0
_symmetry_space_group_name_H-M    P1
_symmetry_Int_Tables_number       1
_symmetry_cell_setting            triclinic
loop_
_symmetry_equiv_pos_as_xyz
'x, y, z'
_cell_length_a     30.578146
_cell_length_b     30.083436
_cell_length_c     19.272395
_cell_angle_alpha  89.943215
_cell_angle_beta   90.014979
_cell_angle_gamma 89.987452
loop_
_atom_site_label
_atom_site_type_symbol
_atom_site_fract_x
_atom_site_fract_y
_atom_site_fract_z
_atom_type_partial_charge
Co0 Co 0.96583 0.14441 0.17399 0.0
Co1 Co 0.06883 0.13335 0.17319 0.0
C2 C 0.01391 0.0668 0.10521 0.0
O3 O 0.97976 0.08931 0.11983 0.0
O4 O 0.05174 0.07819 0.12613 0.0
C5 C 0.88083 0.11933 0.22733 0.0
O6 O 0.90358 0.08978 0.26233 0.0
C7 C 0.16025 0.10563 0.20721 0.0
C8 C 0.19519 0.16869 0.18762 0.0
C9 C 0.20115 0.12553 0.21037 0.0
N10 N 0.13118 0.13608 0.18459 0.0
N11 N 0.15253 0.17349 0.17237 0.0
C12 C 0.149 0.05891 0.22654 0.0
H13 H 0.11305 0.05491 0.23171 0.0
H14 H 0.16549 0.04965 0.2758 0.0
H15 H 0.16112 0.0362 0.18549 0.0
C16 C 0.98534 0.16568 0.3216 0.0
N17 N 0.9969 0.14829 0.25967 0.0
N18 N 0.03944 0.1413 0.25963 0.0
C19 C 0.05565 0.15245 0.32228 0.0
C20 C 0.02227 0.16889 0.36315 0.0
C21 C 0.94265 0.18823 0.33514 0.0
H22 H 0.93611 0.21208 0.29251 0.0
H23 H 0.91618 0.16322 0.33676 0.0
H24 H 0.94266 0.20626 0.38534 0.0
O25 O 0.98237 0.19526 0.11512 0.0
O26 O 0.05395 0.18266 0.10803 0.0
H27 H 0.10876 0.16279 0.39478 0.0
H28 H 0.11668 0.12018 0.33048 0.0
C29 C 0.10309 0.15369 0.33973 0.0
H30 H 0.11996 0.17813 0.30602 0.0
H31 H 0.13777 0.20271 0.15491 0.0
O32 O 0.90085 0.14603 0.18716 0.0
C33 C 0.01989 0.20426 0.09024 0.0
Co34 Co 0.60499 0.84878 0.67454 0.0
Co35 Co 0.50228 0.86014 0.67294 0.0
C36 C 0.55704 0.92543 0.60255 0.0
O37 O 0.59113 0.90354 0.61959 0.0
O38 O 0.51899 0.9142 0.62271 0.0
C39 C 0.68796 0.87454 0.73326 0.0
O40 O 0.66345 0.902 0.7693 0.0
C41 C 0.41025 0.88746 0.69933 0.0
C42 C 0.37796 0.82172 0.69599 0.0
C43 C 0.37027 0.86635 0.70791 0.0
N44 N 0.44047 0.85631 0.68458 0.0
N45 N 0.42076 0.81724 0.68194 0.0
C46 C 0.41979 0.93601 0.70541 0.0
H47 H 0.42239 0.95038 0.65252 0.0
H48 H 0.45172 0.94098 0.73172 0.0
H49 H 0.3934 0.95355 0.73392 0.0
C50 C 0.5843 0.82665 0.82133 0.0
N51 N 0.57344 0.84492 0.75968 0.0
N52 N 0.53126 0.85373 0.75979 0.0
C53 C 0.51472 0.84355 0.82268 0.0
C54 C 0.54741 0.82528 0.8632 0.0
C55 C 0.62587 0.80183 0.83407 0.0
H56 H 0.63313 0.78082 0.78827 0.0
H57 H 0.65291 0.82579 0.84167 0.0
H58 H 0.62386 0.78055 0.88101 0.0
O59 O 0.58902 0.79818 0.61475 0.0
O60 O 0.51719 0.81011 0.61027 0.0
H61 H 0.45047 0.81632 0.81417 0.0
H62 H 0.46217 0.84082 0.89735 0.0
C63 C 0.46727 0.84421 0.84056 0.0
H64 H 0.45316 0.87609 0.82302 0.0
H65 H 0.43679 0.7873 0.67196 0.0
O66 O 0.66976 0.84844 0.6901 0.0
C67 C 0.5511 0.78866 0.59181 0.0
Co68 Co 0.96124 0.85064 0.83215 0.0
Co69 Co 0.06447 0.85931 0.83103 0.0
C70 C 0.01124 0.92644 0.9014 0.0
O71 O 0.97634 0.90532 0.8864 0.0
O72 O 0.04865 0.91398 0.88012 0.0
C73 C 0.87645 0.87698 0.77936 0.0
O74 O 0.89952 0.9062 0.74424 0.0
C75 C 0.15589 0.88563 0.79638 0.0
C76 C 0.19004 0.82199 0.81529 0.0
C77 C 0.19645 0.86515 0.79291 0.0
N78 N 0.12652 0.85555 0.81897 0.0
N79 N 0.14737 0.81778 0.8308 0.0
C80 C 0.14522 0.93248 0.77699 0.0
H81 H 0.10928 0.93722 0.77341 0.0
H82 H 0.16094 0.94106 0.72683 0.0
H83 H 0.15864 0.95516 0.81707 0.0
C84 C 0.97963 0.82911 0.68389 0.0
N85 N 0.99178 0.84621 0.74577 0.0
N86 N 0.03441 0.85261 0.74513 0.0
C87 C 0.0501 0.84139 0.6822 0.0
C88 C 0.01628 0.82546 0.64179 0.0
C89 C 0.93664 0.80707 0.67083 0.0
H90 H 0.91036 0.8323 0.67018 0.0
H91 H 0.93609 0.7894 0.62032 0.0
H92 H 0.93028 0.78294 0.71313 0.0
O93 O 0.97738 0.79984 0.89171 0.0
O94 O 0.0495 0.80989 0.89502 0.0
H95 H 0.10267 0.83013 0.60904 0.0
H96 H 0.11187 0.87232 0.67351 0.0
C97 C 0.09744 0.83918 0.66422 0.0
H98 H 0.11392 0.81423 0.6975 0.0
H99 H 0.13225 0.78873 0.84816 0.0
O100 O 0.89619 0.85012 0.81964 0.0
C101 C 0.01517 0.78941 0.91425 0.0
Co102 Co 0.60929 0.14543 0.33085 0.0
Co103 Co 0.50662 0.1335 0.33313 0.0
C104 C 0.56369 0.0672 0.40053 0.0
O105 O 0.59766 0.08771 0.37933 0.0
O106 O 0.52534 0.08042 0.38488 0.0
C107 C 0.69212 0.12278 0.26995 0.0
O108 O 0.66767 0.09584 0.23289 0.0
C109 C 0.41511 0.10382 0.30506 0.0
C110 C 0.38138 0.1688 0.30962 0.0
C111 C 0.37466 0.12415 0.29655 0.0
N112 N 0.44461 0.13548 0.32101 0.0
N113 N 0.42401 0.17406 0.3243 0.0
C114 C 0.42573 0.05557 0.29781 0.0
H115 H 0.42722 0.04039 0.35026 0.0
H116 H 0.45839 0.05154 0.27345 0.0
H117 H 0.40039 0.03804 0.26698 0.0
C118 C 0.58766 0.17062 0.18587 0.0
N119 N 0.57738 0.15097 0.24666 0.0
N120 N 0.53554 0.14064 0.24615 0.0
C121 C 0.51883 0.15081 0.18334 0.0
C122 C 0.55092 0.17103 0.14377 0.0
C123 C 0.62844 0.19692 0.17424 0.0
H124 H 0.65566 0.17398 0.16175 0.0
H125 H 0.62482 0.22072 0.13058 0.0
H126 H 0.63653 0.2154 0.22229 0.0
O127 O 0.59206 0.19398 0.39478 0.0
O128 O 0.51984 0.18438 0.39481 0.0
H129 H 0.45312 0.17439 0.19121 0.0
H130 H 0.46679 0.15142 0.10773 0.0
C131 C 0.4716 0.14773 0.16455 0.0
H132 H 0.45905 0.11496 0.18118 0.0
H133 H 0.43932 0.20427 0.33509 0.0
O134 O 0.67392 0.14794 0.31446 0.0
C135 C 0.5539 0.20476 0.41536 0.0
Co136 Co 0.46093 0.64636 0.17434 0.0
Co137 Co 0.5639 0.63138 0.17437 0.0
C138 C 0.5052 0.56723 0.10537 0.0
O139 O 0.47142 0.58909 0.12402 0.0
O140 O 0.54362 0.57875 0.1235 0.0
C141 C 0.37637 0.62656 0.23349 0.0
O142 O 0.39946 0.59845 0.27073 0.0
C143 C 0.65435 0.59837 0.20473 0.0
C144 C 0.69116 0.66119 0.19337 0.0
C145 C 0.69587 0.61679 0.21024 0.0
N146 N 0.62621 0.63086 0.18645 0.0
N147 N 0.64868 0.66812 0.17915 0.0
C148 C 0.64163 0.5511 0.21726 0.0
H149 H 0.60603 0.54861 0.22792 0.0
H150 H 0.6607 0.53696 0.26104 0.0
H151 H 0.64922 0.53137 0.17016 0.0
C152 C 0.48236 0.66959 0.32049 0.0
N153 N 0.49272 0.65031 0.25943 0.0
N154 N 0.53453 0.63971 0.2603 0.0
C155 C 0.5512 0.64977 0.32305 0.0
C156 C 0.51908 0.66966 0.36277 0.0
C157 C 0.44183 0.69635 0.33199 0.0
H158 H 0.43405 0.71508 0.28398 0.0
H159 H 0.41429 0.67375 0.34423 0.0
H160 H 0.44563 0.71998 0.37576 0.0
O161 O 0.48036 0.69428 0.11078 0.0
O162 O 0.55234 0.68261 0.11248 0.0
H163 H 0.6171 0.67231 0.31248 0.0
H164 H 0.60369 0.65212 0.398 0.0
C165 C 0.59847 0.6468 0.34161 0.0
H166 H 0.61051 0.61337 0.32745 0.0
H167 H 0.6348 0.69862 0.16572 0.0
O168 O 0.39597 0.65116 0.18958 0.0
C169 C 0.51901 0.70399 0.09125 0.0
Co170 Co 0.10752 0.34738 0.67243 0.0
Co171 Co 1.00513 0.36392 0.67587 0.0
C172 C 0.06298 0.42694 0.60395 0.0
O173 O 0.09639 0.40398 0.62089 0.0
O174 O 0.02453 0.41674 0.6238 0.0
C175 C 0.1914 0.36858 0.73069 0.0
O176 O 0.16764 0.39605 0.76792 0.0
C177 C 0.91394 0.3946 0.70663 0.0
C178 C 0.8797 0.32995 0.70133 0.0
C179 C 0.87336 0.37456 0.7148 0.0
N180 N 0.94319 0.36282 0.69003 0.0
N181 N 0.92226 0.32444 0.68644 0.0
C182 C 0.92474 0.44271 0.71506 0.0
H183 H 0.91622 0.4605 0.66643 0.0
H184 H 0.96023 0.44704 0.72514 0.0
H185 H 0.90522 0.45745 0.7578 0.0
C186 C 0.08754 0.32425 0.81906 0.0
N187 N 0.07682 0.34398 0.75848 0.0
N188 N 0.03543 0.35596 0.76099 0.0
C189 C 0.01951 0.3466 0.82453 0.0
C190 C 0.05156 0.32533 0.86287 0.0
C191 C 0.1275 0.29636 0.82892 0.0
H192 H 0.13469 0.27833 0.78008 0.0
H193 H 0.15555 0.31816 0.84175 0.0
H194 H 0.12338 0.27206 0.87179 0.0
O195 O 0.08764 0.2993 0.60996 0.0
O196 O 0.01602 0.3125 0.61405 0.0
H197 H 0.95297 0.32513 0.82004 0.0
H198 H 0.96881 0.34843 0.90232 0.0
C199 C 0.97271 0.35145 0.84524 0.0
H200 H 0.96075 0.38446 0.82841 0.0
H201 H 0.93728 0.29416 0.67508 0.0
O202 O 0.17244 0.34356 0.68674 0.0
C203 C 0.04859 0.2906 0.5913 0.0
Co204 Co 0.46453 0.3482 0.83115 0.0
Co205 Co 0.56724 0.36271 0.83119 0.0
C206 C 0.51067 0.42632 0.90223 0.0
O207 O 0.47723 0.40295 0.88688 0.0
O208 O 0.54871 0.41676 0.87992 0.0
C209 C 0.3802 0.37076 0.77301 0.0
O210 O 0.40345 0.39895 0.7362 0.0
C211 C 0.65863 0.3926 0.8012 0.0
C212 C 0.69368 0.32885 0.81392 0.0
C213 C 0.69963 0.37299 0.79642 0.0
N214 N 0.62955 0.36107 0.81972 0.0
N215 N 0.65096 0.32323 0.82783 0.0
C216 C 0.64731 0.44011 0.7875 0.0
H217 H 0.61164 0.44379 0.77842 0.0
H218 H 0.66596 0.45278 0.74222 0.0
H219 H 0.65666 0.46028 0.83334 0.0
C220 C 0.48542 0.32658 0.68417 0.0
N221 N 0.49604 0.34523 0.74562 0.0
N222 N 0.53801 0.35508 0.74503 0.0
C223 C 0.55457 0.34515 0.68216 0.0
C224 C 0.52221 0.32604 0.64201 0.0
C225 C 0.4446 0.30038 0.67225 0.0
H226 H 0.43759 0.28017 0.71908 0.0
H227 H 0.41697 0.32342 0.66296 0.0
H228 H 0.44753 0.27815 0.62657 0.0
O229 O 0.48212 0.29831 0.8909 0.0
O230 O 0.55368 0.31209 0.89451 0.0
H231 H 0.62009 0.32158 0.69326 0.0
H232 H 0.60717 0.34179 0.60755 0.0
C233 C 0.60189 0.34731 0.66388 0.0
H234 H 0.61436 0.38059 0.67791 0.0
H235 H 0.6362 0.29323 0.84163 0.0
O236 O 0.39961 0.34558 0.81627 0.0
C237 C 0.52039 0.2896 0.91307 0.0
Co238 Co 0.10293 0.64786 0.33234 0.0
Co239 Co 1.00057 0.62935 0.32994 0.0
C240 C 0.06042 0.56741 0.40092 0.0
O241 O 0.09327 0.59108 0.38377 0.0
O242 O 0.02165 0.57688 0.38165 0.0
C243 C 0.18731 0.62798 0.27436 0.0
O244 O 0.16401 0.59972 0.23781 0.0
C245 C 0.90995 0.59636 0.29949 0.0
C246 C 0.87397 0.65992 0.30715 0.0
C247 C 0.86875 0.61532 0.2924 0.0
N248 N 0.93843 0.62876 0.31664 0.0
N249 N 0.91644 0.66647 0.32167 0.0
C250 C 0.92208 0.54867 0.28973 0.0
H251 H 0.91628 0.53059 0.33909 0.0
H252 H 0.95725 0.54569 0.2762 0.0
H253 H 0.90147 0.53317 0.24897 0.0
C254 C 0.08213 0.6701 0.18581 0.0
N255 N 0.07174 0.65047 0.24659 0.0
N256 N 0.03034 0.63844 0.24462 0.0
C257 C 0.01399 0.64803 0.18142 0.0
C258 C 0.04587 0.66908 0.14257 0.0
C259 C 0.1221 0.69788 0.17525 0.0
H260 H 0.15008 0.67599 0.16236 0.0
H261 H 0.11783 0.72201 0.13218 0.0
H262 H 0.12954 0.71609 0.22384 0.0
O263 O 0.08197 0.69542 0.39517 0.0
O264 O 0.01057 0.68093 0.39158 0.0
H265 H 0.94762 0.6697 0.18859 0.0
H266 H 0.96243 0.64777 0.10487 0.0
C267 C 0.96697 0.64377 0.16169 0.0
H268 H 0.9551 0.61054 0.17745 0.0
H269 H 0.93066 0.69702 0.33376 0.0
O270 O 0.16788 0.6531 0.31767 0.0
C271 C 0.04282 0.70338 0.41416 0.0
C272 C 0.9977 0.00574 0.93436 0.0
C273 C 0.00929 0.96201 0.95407 0.0
C274 C 0.01791 0.98586 0.0752 0.0
C275 C 0.01057 0.03032 0.05411 0.0
N276 N 1.00145 0.08408 0.96212 0.0
N277 N 0.03444 0.91011 0.04114 0.0
C278 C 1.00228 0.0407 0.9833 0.0
C279 C 0.02051 0.95193 0.024 0.0
N280 N 0.98235 0.01382 0.86892 0.0
N281 N 0.0213 0.97604 0.1443 0.0
H282 H 0.03536 0.88391 0.0058 0.0
H283 H 0.04776 0.90188 0.08917 0.0
H284 H 0.01985 0.00029 0.18291 0.0
H285 H 0.02208 0.94379 0.16386 0.0
H286 H 0.96889 0.04411 0.85374 0.0
H287 H 0.97988 0.9891 0.83117 0.0
H288 H 1.00006 0.09377 0.91029 0.0
H289 H 0.00639 0.11058 0.99598 0.0
C290 C 0.58889 0.03383 0.51425 0.0
C291 C 0.56812 0.02855 0.44837 0.0
C292 C 0.54549 0.95309 0.48149 0.0
C293 C 0.56121 0.96088 0.54978 0.0
N294 N 0.59399 0.00937 0.63412 0.0
N295 N 0.52687 0.98322 0.36854 0.0
C296 C 0.58222 0.00127 0.5668 0.0
C297 C 0.54652 0.98811 0.43185 0.0
N298 N 0.61519 0.06964 0.52704 0.0
N299 N 0.53115 0.91159 0.46334 0.0
H300 H 0.531 0.00585 0.32802 0.0
H301 H 0.50524 0.95761 0.35672 0.0
H302 H 0.52947 0.88512 0.49821 0.0
H303 H 0.52405 0.90216 0.41263 0.0
H304 H 0.63502 0.07234 0.57074 0.0
H305 H 0.6207 0.09515 0.49185 0.0
H306 H 0.6043 0.04026 0.65208 0.0
H307 H 0.59 0.98608 0.67379 0.0
C308 C 0.51977 0.48807 0.07406 0.0
C309 C 0.50063 0.52943 0.05645 0.0
C310 C 0.4819 0.50057 0.94076 0.0
C311 C 0.50624 0.46158 0.9554 0.0
N312 N 0.55049 0.41835 0.03484 0.0
N313 N 0.46722 0.57727 0.97023 0.0
C314 C 0.52581 0.45537 0.02175 0.0
C315 C 0.4821 0.53616 0.98938 0.0
N316 N 0.53067 0.47951 0.14163 0.0
N317 N 0.45885 0.5038 0.88014 0.0
H318 H 0.46602 0.6044 0.00358 0.0
H319 H 0.45896 0.58561 0.91945 0.0
H320 H 0.46011 0.47978 0.84122 0.0
H321 H 0.43609 0.52879 0.87035 0.0
H322 H 0.54061 0.44847 0.15959 0.0
H323 H 0.52563 0.50242 0.18146 0.0
H324 H 0.57014 0.41474 0.0786 0.0
H325 H 0.55355 0.39196 1.00022 0.0
C326 C 0.06608 0.50807 0.57434 0.0
C327 C 0.06817 0.46319 0.55271 0.0
C328 C 0.06727 0.48651 0.43062 0.0
C329 C 0.06666 0.53141 0.45228 0.0
N330 N 0.07705 0.58533 0.54359 0.0
N331 N 0.08208 0.40993 0.46157 0.0
C332 C 0.06972 0.54235 0.52387 0.0
C333 C 0.07238 0.45245 0.48117 0.0
N334 N 0.05996 0.5179 0.64288 0.0
N335 N 0.06222 0.47639 0.36194 0.0
H336 H 0.08682 0.38422 0.49703 0.0
H337 H 0.0895 0.40093 0.41077 0.0
H338 H 0.06028 0.50064 0.32329 0.0
H339 H 0.05716 0.44421 0.34379 0.0
H340 H 0.05292 0.54975 0.66084 0.0
H341 H 0.0592 0.49363 0.68158 0.0
H342 H 0.08355 0.59474 0.59454 0.0
H343 H 0.08086 0.61121 0.50813 0.0
C344 C 0.32088 0.09917 0.20601 0.0
C345 C 0.33162 0.10526 0.27699 0.0
C346 C 0.25418 0.10984 0.30714 0.0
C347 C 0.24349 0.10754 0.23554 0.0
N348 N 0.26403 0.08624 0.12005 0.0
N349 N 0.30978 0.10105 0.39627 0.0
C350 C 0.27612 0.09719 0.18609 0.0
C351 C 0.29847 0.10499 0.32797 0.0
N352 N 0.35333 0.09819 0.15745 0.0
N353 N 0.22256 0.11974 0.35458 0.0
H354 H 0.34228 0.09736 0.41194 0.0
H355 H 0.28717 0.09711 0.43618 0.0
H356 H 0.1898 0.12244 0.34108 0.0
H357 H 0.22897 0.1274 0.40625 0.0
H358 H 0.34777 0.09956 0.10421 0.0
H359 H 0.38625 0.09747 0.17095 0.0
H360 H 0.28581 0.07495 0.08248 0.0
H361 H 0.23128 0.0846 0.1049 0.0
C362 C 0.3159 0.89238 0.79678 0.0
C363 C 0.32684 0.88469 0.72626 0.0
C364 C 0.24958 0.87862 0.69586 0.0
C365 C 0.23873 0.88264 0.76717 0.0
N366 N 0.25873 0.90688 0.88152 0.0
N367 N 0.30526 0.88574 0.60662 0.0
C368 C 0.27109 0.89446 0.81624 0.0
C369 C 0.29384 0.88335 0.67504 0.0
N370 N 0.34818 0.89476 0.84552 0.0
N371 N 0.21811 0.86733 0.64889 0.0
H372 H 0.33775 0.88938 0.59089 0.0
H373 H 0.2827 0.88844 0.56638 0.0
H374 H 0.18533 0.8647 0.66238 0.0
H375 H 0.22467 0.85847 0.59774 0.0
H376 H 0.34246 0.89457 0.89876 0.0
H377 H 0.38115 0.89539 0.83235 0.0
H378 H 0.2803 0.91932 0.9185 0.0
H379 H 0.22594 0.90852 0.89639 0.0
C380 C 0.80583 0.83419 0.75932 0.0
C381 C 0.8279 0.87524 0.77062 0.0
C382 C 0.75946 0.91513 0.74674 0.0
C383 C 0.73638 0.87421 0.74354 0.0
N384 N 0.73738 0.79443 0.76056 0.0
N385 N 0.82199 0.95399 0.79344 0.0
C386 C 0.75947 0.83364 0.75356 0.0
C387 C 0.80363 0.91551 0.76961 0.0
N388 N 0.82881 0.79563 0.75106 0.0
N389 N 0.74002 0.95359 0.72489 0.0
H390 H 0.85335 0.95537 0.81464 0.0
H391 H 0.80426 0.9833 0.79981 0.0
H392 H 0.70862 0.9546 0.70381 0.0
H393 H 0.75692 0.98352 0.72009 0.0
H394 H 0.8147 0.76629 0.73306 0.0
H395 H 0.86245 0.79334 0.7564 0.0
H396 H 0.7522 0.76512 0.77735 0.0
H397 H 0.70373 0.7916 0.75571 0.0
C398 C 0.76342 0.08179 0.25727 0.0
C399 C 0.74058 0.12285 0.26047 0.0
C400 C 0.81037 0.16248 0.2468 0.0
C401 C 0.83226 0.12133 0.23542 0.0
N402 N 0.82607 0.04275 0.21137 0.0
N403 N 0.74209 0.20267 0.2448 0.0
C404 C 0.80776 0.08123 0.23536 0.0
C405 C 0.76396 0.16331 0.25158 0.0
N406 N 0.74357 0.04335 0.27822 0.0
N407 N 0.83355 0.2008 0.25609 0.0
H408 H 0.70838 0.2055 0.2488 0.0
H409 H 0.75715 0.23205 0.22901 0.0
H410 H 0.86729 0.20272 0.25192 0.0
H411 H 0.81948 0.23022 0.27387 0.0
H412 H 0.76028 0.0133 0.28306 0.0
H413 H 0.71199 0.04243 0.29855 0.0
H414 H 0.80819 0.01361 0.20423 0.0
H415 H 0.85757 0.04125 0.1908 0.0
C416 C 0.79371 0.591 0.32301 0.0
C417 C 0.8264 0.59535 0.27161 0.0
C418 C 0.77046 0.58996 0.18096 0.0
C419 C 0.73793 0.59652 0.2321 0.0
N420 N 0.71717 0.59991 0.35249 0.0
N421 N 0.84738 0.59519 0.15127 0.0
C422 C 0.74901 0.5948 0.30355 0.0
C423 C 0.81529 0.59246 0.2003 0.0
N424 N 0.80585 0.58431 0.39042 0.0
N425 N 0.7581 0.58235 0.11392 0.0
H426 H 0.88044 0.59527 0.16416 0.0
H427 H 0.84137 0.59885 0.09842 0.0
H428 H 0.72524 0.58037 0.09944 0.0
H429 H 0.77984 0.57405 0.07446 0.0
H430 H 0.78386 0.57758 0.43028 0.0
H431 H 0.83863 0.58143 0.40496 0.0
H432 H 0.72342 0.60461 0.40506 0.0
H433 H 0.68414 0.60104 0.33971 0.0
C434 C 0.81944 0.39669 0.80651 0.0
C435 C 0.83063 0.39372 0.73526 0.0
C436 C 0.75334 0.39334 0.70301 0.0
C437 C 0.74215 0.39212 0.77446 0.0
N438 N 0.76215 0.40685 0.89263 0.0
N439 N 0.81012 0.40402 0.61624 0.0
C440 C 0.77458 0.39899 0.82569 0.0
C441 C 0.798 0.39749 0.68369 0.0
N442 N 0.85152 0.39432 0.85566 0.0
N443 N 0.72167 0.38745 0.65397 0.0
H444 H 0.84288 0.40714 0.60171 0.0
H445 H 0.7881 0.41044 0.57628 0.0
H446 H 0.68865 0.38583 0.66653 0.0
H447 H 0.72812 0.38238 0.60155 0.0
H448 H 0.84549 0.39075 0.90852 0.0
H449 H 0.88459 0.39438 0.84287 0.0
H450 H 0.78385 0.41545 0.93201 0.0
H451 H 0.7293 0.40871 0.90711 0.0
C452 C 0.30949 0.32805 0.75421 0.0
C453 C 0.33166 0.36914 0.76433 0.0
C454 C 0.26314 0.40896 0.74098 0.0
C455 C 0.23996 0.36807 0.73916 0.0
N456 N 0.24085 0.2884 0.75657 0.0
N457 N 0.32625 0.44816 0.78502 0.0
C458 C 0.26305 0.3275 0.74909 0.0
C459 C 0.30753 0.40947 0.76273 0.0
N460 N 0.33254 0.28948 0.74654 0.0
N461 N 0.2435 0.44728 0.71892 0.0
H462 H 0.35786 0.44974 0.80518 0.0
H463 H 0.30867 0.47759 0.7911 0.0
H464 H 0.21185 0.44815 0.69879 0.0
H465 H 0.26037 0.47714 0.71301 0.0
H466 H 0.3184 0.25983 0.7299 0.0
H467 H 0.3663 0.2876 0.75087 0.0
H468 H 0.25564 0.25902 0.77304 0.0
H469 H 0.20712 0.28581 0.75225 0.0
C470 C 0.25942 0.58811 0.26558 0.0
C471 C 0.23594 0.62885 0.26636 0.0
C472 C 0.30532 0.66915 0.25092 0.0
C473 C 0.32775 0.62812 0.24167 0.0
N474 N 0.32268 0.54894 0.22216 0.0
N475 N 0.23637 0.70835 0.24728 0.0
C476 C 0.3038 0.58769 0.24387 0.0
C477 C 0.25882 0.66947 0.25571 0.0
N478 N 0.24008 0.54988 0.28858 0.0
N479 N 0.32818 0.70787 0.25804 0.0
H480 H 0.20258 0.71065 0.25099 0.0
H481 H 0.25103 0.73773 0.23057 0.0
H482 H 0.36199 0.70973 0.25429 0.0
H483 H 0.31384 0.73763 0.27374 0.0
H484 H 0.25719 0.52021 0.29519 0.0
H485 H 0.20847 0.54899 0.30884 0.0
H486 H 0.30522 0.51941 0.21658 0.0
H487 H 0.35426 0.54739 0.20187 0.0
C488 C 0.05783 0.30652 0.98977 0.0
C489 C 0.04325 0.29506 0.92231 0.0
C490 C 1.00578 0.22952 0.96849 0.0
C491 C 0.02413 0.23817 0.03484 0.0
N492 N 0.06955 0.28323 0.10909 0.0
N493 N 0.01151 0.24094 0.84469 0.0
C494 C 0.05082 0.27623 0.04559 0.0
C495 C 0.01939 0.25531 0.91089 0.0
N496 N 0.07747 0.34674 1.00054 0.0
N497 N 0.97518 0.19683 0.96005 0.0
H498 H 0.02159 0.2582 0.8006 0.0
H499 H 0.99887 0.20965 0.83325 0.0
H500 H 0.96453 0.17619 0.99993 0.0
H501 H 0.9572 0.19275 0.91458 0.0
H502 H 0.08482 0.35931 0.04947 0.0
H503 H 0.08395 0.36909 0.96039 0.0
H504 H 0.09346 0.30713 0.1183 0.0
H505 H 0.06249 0.26368 0.15241 0.0
C506 C 0.52488 0.71503 0.54723 0.0
C507 C 0.54639 0.7561 0.53505 0.0
C508 C 0.54618 0.74209 0.4099 0.0
C509 C 0.52739 0.69968 0.42236 0.0
N510 N 0.50334 0.64294 0.50179 0.0
N511 N 0.58329 0.80646 0.45676 0.0
C512 C 0.51797 0.68531 0.49081 0.0
C513 C 0.55901 0.7688 0.46698 0.0
N514 N 0.51056 0.70486 0.61257 0.0
N515 N 0.55006 0.75768 0.34341 0.0
H516 H 0.59173 0.82833 0.49646 0.0
H517 H 0.59797 0.81452 0.40968 0.0
H518 H 0.54124 0.7393 0.29979 0.0
H519 H 0.55846 0.7903 0.33128 0.0
H520 H 0.49028 0.67802 0.62376 0.0
H521 H 0.51719 0.72477 0.65562 0.0
H522 H 0.50019 0.62864 0.55073 0.0
H523 H 0.49689 0.62083 0.46138 0.0
C524 C 1.00587 0.76858 0.03868 0.0
C525 C 0.01936 0.75648 0.97077 0.0
C526 C 0.04735 0.68533 0.01469 0.0
C527 C 0.03726 0.6992 0.0831 0.0
N528 N 0.01314 0.75637 0.16231 0.0
N529 N 0.05573 0.70564 0.89335 0.0
C530 C 0.01804 0.7414 0.09569 0.0
C531 C 0.04094 0.71544 0.95852 0.0
N532 N 0.9814 0.80611 0.04886 0.0
N533 N 0.06216 0.64305 0.00349 0.0
H534 H 0.04932 0.72573 0.85035 0.0
H535 H 0.07611 0.67887 0.88222 0.0
H536 H 0.06815 0.62064 0.04375 0.0
H537 H 0.06584 0.62909 0.95447 0.0
H538 H 0.96602 0.81366 0.09557 0.0
H539 H 0.97354 0.82844 0.00945 0.0
H540 H 1.00455 0.78888 0.17476 0.0
H541 H 0.02117 0.73756 0.20593 0.0
C542 C 0.54646 0.25201 0.59702 0.0
C543 C 0.53037 0.2954 0.58311 0.0
C544 C 0.53015 0.27979 0.45818 0.0
C545 C 0.5488 0.23748 0.47195 0.0
N546 N 0.57969 0.18478 0.55276 0.0
N547 N 0.51153 0.35317 0.50194 0.0
C548 C 0.55863 0.22417 0.5409 0.0
C549 C 0.52349 0.31005 0.51402 0.0
N550 N 0.54853 0.23676 0.66392 0.0
N551 N 0.51824 0.29062 0.39188 0.0
H552 H 0.50532 0.37573 0.54183 0.0
H553 H 0.51039 0.36749 0.4528 0.0
H554 H 0.52466 0.2701 0.34945 0.0
H555 H 0.50003 0.31869 0.37914 0.0
H556 H 0.55471 0.20379 0.67704 0.0
H557 H 0.54068 0.25609 0.70699 0.0
H558 H 0.59285 0.1757 0.60054 0.0
H559 H 0.5868 0.16214 0.51361 0.0
C560 C 0.53311 0.74871 0.90887 0.0
C561 C 0.53988 0.79458 0.92232 0.0
C562 C 0.52796 0.78194 0.04672 0.0
C563 C 0.52518 0.73567 0.03361 0.0
N564 N 0.5323 0.67384 0.95451 0.0
N565 N 0.54795 0.85504 0.00306 0.0
C566 C 0.52983 0.71872 0.96533 0.0
C567 C 0.53841 0.81132 0.99108 0.0
N568 N 0.52852 0.73389 0.84214 0.0
N569 N 0.52026 0.79763 0.11215 0.0
H570 H 0.5549 0.87746 0.96321 0.0
H571 H 0.55181 0.86857 0.05235 0.0
H572 H 0.51377 0.77672 0.15416 0.0
H573 H 0.5175 0.83123 0.12416 0.0
H574 H 0.51817 0.7019 0.8297 0.0
H575 H 0.5314 0.75437 0.79875 0.0
H576 H 0.54091 0.65971 0.90713 0.0
H577 H 0.52934 0.65048 0.99419 0.0
C578 C 0.03014 0.27554 0.46743 0.0
C579 C 0.04102 0.25879 0.53417 0.0
C580 C 0.03538 0.18248 0.49032 0.0
C581 C 0.02849 0.1996 0.42258 0.0
N582 N 0.02976 0.26224 0.3439 0.0
N583 N 0.05813 0.19702 0.60907 0.0
C584 C 0.02883 0.24608 0.4103 0.0
C585 C 0.04503 0.21237 0.5456 0.0
N586 N 0.02033 0.31953 0.45842 0.0
N587 N 0.03182 0.13778 0.50182 0.0
H588 H 0.06347 0.21796 0.65137 0.0
H589 H 0.06617 0.16399 0.6189 0.0
H590 H 0.02554 0.11509 0.46212 0.0
H591 H 0.03212 0.12341 0.55095 0.0
H592 H 0.00723 0.33227 0.41262 0.0
H593 H 0.02151 0.34289 0.49818 0.0
H594 H 0.03526 0.29559 0.33218 0.0
H595 H 0.02938 0.24204 0.30002 0.0
C596 C 0.54319 0.21507 0.95855 0.0
C597 C 0.5256 0.25792 0.97096 0.0
C598 C 0.52369 0.24353 0.09618 0.0
C599 C 0.543 0.20125 0.0841 0.0
N600 N 0.57549 0.14787 0.00669 0.0
N601 N 0.50225 0.31534 0.05 0.0
C602 C 0.55397 0.18729 0.01599 0.0
C603 C 0.51637 0.27267 0.03935 0.0
N604 N 0.5485 0.20078 0.89171 0.0
N605 N 0.51216 0.25574 0.16213 0.0
H606 H 0.49429 0.33705 0.00974 0.0
H607 H 0.50049 0.33046 0.09843 0.0
H608 H 0.52066 0.2376 0.2062 0.0
H609 H 0.49251 0.28297 0.17365 0.0
H610 H 0.55736 0.16855 0.87822 0.0
H611 H 0.54113 0.22063 0.84883 0.0
H612 H 0.58838 0.13743 0.95951 0.0
H613 H 0.58291 0.12638 0.04756 0.0
C614 C 0.03877 0.78167 0.45951 0.0
C615 C 0.03478 0.73526 0.47106 0.0
C616 C 0.02202 0.74815 0.59475 0.0
C617 C 0.02189 0.79462 0.58237 0.0
N618 N 0.02543 0.85633 0.50296 0.0
N619 N 0.01355 0.67467 0.54678 0.0
C620 C 0.02895 0.81164 0.51461 0.0
C621 C 0.02349 0.71862 0.53771 0.0
N622 N 0.05202 0.79696 0.39609 0.0
N623 N 0.02272 0.73203 0.66118 0.0
H624 H 0.01494 0.65121 0.50721 0.0
H625 H 1.00013 0.66208 0.59242 0.0
H626 H 0.02222 0.75224 0.70504 0.0
H627 H 0.02813 0.69868 0.673 0.0
H628 H 0.06011 0.82997 0.38624 0.0
H629 H 0.05738 0.776 0.35383 0.0
H630 H 0.0259 0.87066 0.45379 0.0
H631 H 0.01896 0.87906 0.54252 0.0
loop_
_geom_bond_atom_site_label_1
_geom_bond_atom_site_label_2
_geom_bond_distance
_geom_bond_site_symmetry_2
_ccdc_geom_bond_type
Co0 O3 1.970 . S
Co0 N17 1.989 . S
Co0 O25 1.967 . S
Co0 O32 1.920 . S
Co1 O4 1.966 . S
Co1 N10 2.022 . S
Co1 N18 1.993 . S
Co1 O26 1.941 . S
C2 O3 1.258 1_455 S
C2 O4 1.263 . S
O3 Co0 1.970 . S
O3 C2 1.258 1_655 S
O4 Co1 1.966 . S
O4 C2 1.263 . S
C5 O6 1.235 . S
C5 O32 1.289 . S
O6 C5 1.235 . S
C7 C9 1.400 . S
C7 N10 1.351 . S
C7 C12 1.501 . S
C8 C9 1.387 . S
C8 N11 1.341 . S
C9 C7 1.400 . S
C9 C8 1.387 . S
N10 Co1 2.022 . S
N10 C7 1.351 . S
N10 N11 1.365 . S
N11 C8 1.341 . S
N11 N10 1.365 . S
N11 H31 0.862 . S
C12 C7 1.501 . S
C12 H13 0.961 . S
C12 H14 0.961 . S
C12 H15 0.960 . S
H13 C12 0.961 . S
H14 C12 0.961 . S
H15 C12 0.960 . S
C16 N17 1.342 . S
C16 C20 1.401 1_655 S
C16 C21 1.499 . S
N17 Co0 1.989 . S
N17 C16 1.342 . S
N17 N18 1.388 1_655 S
N18 Co1 1.993 . S
N18 N17 1.388 1_455 S
N18 C19 1.346 . S
C19 N18 1.346 . S
C19 C20 1.396 . S
C19 C29 1.510 . S
C20 C16 1.401 1_455 S
C20 C19 1.396 . S
C21 C16 1.499 . S
C21 H22 0.959 . S
C21 H23 0.960 . S
C21 H24 0.961 . S
H22 C21 0.959 . S
H23 C21 0.960 . S
H24 C21 0.961 . S
O25 Co0 1.967 . S
O25 C33 1.258 1_655 S
O26 Co1 1.941 . S
O26 C33 1.266 . S
H27 C29 0.959 . S
H28 C29 0.961 . S
C29 C19 1.510 . S
C29 H27 0.959 . S
C29 H28 0.961 . S
C29 H30 0.960 . S
H30 C29 0.960 . S
H31 N11 0.862 . S
O32 Co0 1.920 . S
O32 C5 1.289 . S
C33 O25 1.258 1_455 S
C33 O26 1.266 . S
Co34 O37 1.970 . S
Co34 N51 1.989 . S
Co34 O59 1.967 . S
Co34 O66 1.920 . S
Co35 O38 1.966 . S
Co35 N44 2.022 . S
Co35 N52 1.993 . S
Co35 O60 1.941 . S
C36 O37 1.258 . S
C36 O38 1.263 . S
O37 Co34 1.970 . S
O37 C36 1.258 . S
O38 Co35 1.966 . S
O38 C36 1.263 . S
C39 O40 1.235 . S
C39 O66 1.289 . S
O40 C39 1.235 . S
C41 C43 1.400 . S
C41 N44 1.351 . S
C41 C46 1.501 . S
C42 C43 1.387 . S
C42 N45 1.341 . S
C43 C41 1.400 . S
C43 C42 1.387 . S
N44 Co35 2.022 . S
N44 C41 1.351 . S
N44 N45 1.365 . S
N45 C42 1.341 . S
N45 N44 1.365 . S
N45 H65 0.862 . S
C46 C41 1.501 . S
C46 H47 0.961 . S
C46 H48 0.961 . S
C46 H49 0.960 . S
H47 C46 0.961 . S
H48 C46 0.961 . S
H49 C46 0.960 . S
C50 N51 1.342 . S
C50 C54 1.401 . S
C50 C55 1.499 . S
N51 Co34 1.989 . S
N51 C50 1.342 . S
N51 N52 1.388 . S
N52 Co35 1.993 . S
N52 N51 1.388 . S
N52 C53 1.346 . S
C53 N52 1.346 . S
C53 C54 1.396 . S
C53 C63 1.510 . S
C54 C50 1.401 . S
C54 C53 1.396 . S
C55 C50 1.499 . S
C55 H56 0.959 . S
C55 H57 0.960 . S
C55 H58 0.961 . S
H56 C55 0.959 . S
H57 C55 0.960 . S
H58 C55 0.961 . S
O59 Co34 1.967 . S
O59 C67 1.258 . S
O60 Co35 1.941 . S
O60 C67 1.266 . S
H61 C63 0.959 . S
H62 C63 0.961 . S
C63 C53 1.510 . S
C63 H61 0.959 . S
C63 H62 0.961 . S
C63 H64 0.960 . S
H64 C63 0.960 . S
H65 N45 0.862 . S
O66 Co34 1.920 . S
O66 C39 1.289 . S
C67 O59 1.258 . S
C67 O60 1.266 . S
Co68 O71 1.970 . S
Co68 N85 1.989 . S
Co68 O93 1.967 . S
Co68 O100 1.920 . S
Co69 O72 1.966 . S
Co69 N78 2.022 . S
Co69 N86 1.993 . S
Co69 O94 1.941 . S
C70 O71 1.258 1_455 S
C70 O72 1.263 . S
O71 Co68 1.970 . S
O71 C70 1.258 1_655 S
O72 Co69 1.966 . S
O72 C70 1.263 . S
C73 O74 1.235 . S
C73 O100 1.289 . S
O74 C73 1.235 . S
C75 C77 1.400 . S
C75 N78 1.351 . S
C75 C80 1.501 . S
C76 C77 1.387 . S
C76 N79 1.341 . S
C77 C75 1.400 . S
C77 C76 1.387 . S
N78 Co69 2.022 . S
N78 C75 1.351 . S
N78 N79 1.365 . S
N79 C76 1.341 . S
N79 N78 1.365 . S
N79 H99 0.862 . S
C80 C75 1.501 . S
C80 H81 0.961 . S
C80 H82 0.961 . S
C80 H83 0.960 . S
H81 C80 0.961 . S
H82 C80 0.961 . S
H83 C80 0.960 . S
C84 N85 1.342 . S
C84 C88 1.401 1_655 S
C84 C89 1.499 . S
N85 Co68 1.989 . S
N85 C84 1.342 . S
N85 N86 1.388 1_655 S
N86 Co69 1.993 . S
N86 N85 1.388 1_455 S
N86 C87 1.346 . S
C87 N86 1.346 . S
C87 C88 1.396 . S
C87 C97 1.510 . S
C88 C84 1.401 1_455 S
C88 C87 1.396 . S
C89 C84 1.499 . S
C89 H90 0.959 . S
C89 H91 0.960 . S
C89 H92 0.961 . S
H90 C89 0.959 . S
H91 C89 0.960 . S
H92 C89 0.961 . S
O93 Co68 1.967 . S
O93 C101 1.258 1_655 S
O94 Co69 1.941 . S
O94 C101 1.266 . S
H95 C97 0.959 . S
H96 C97 0.961 . S
C97 C87 1.510 . S
C97 H95 0.959 . S
C97 H96 0.961 . S
C97 H98 0.960 . S
H98 C97 0.960 . S
H99 N79 0.862 . S
O100 Co68 1.920 . S
O100 C73 1.289 . S
C101 O93 1.258 1_455 S
C101 O94 1.266 . S
Co102 O105 1.970 . S
Co102 N119 1.989 . S
Co102 O127 1.967 . S
Co102 O134 1.920 . S
Co103 O106 1.966 . S
Co103 N112 2.022 . S
Co103 N120 1.993 . S
Co103 O128 1.941 . S
C104 O105 1.258 . S
C104 O106 1.263 . S
O105 Co102 1.970 . S
O105 C104 1.258 . S
O106 Co103 1.966 . S
O106 C104 1.263 . S
C107 O108 1.235 . S
C107 O134 1.289 . S
O108 C107 1.235 . S
C109 C111 1.400 . S
C109 N112 1.351 . S
C109 C114 1.501 . S
C110 C111 1.387 . S
C110 N113 1.341 . S
C111 C109 1.400 . S
C111 C110 1.387 . S
N112 Co103 2.022 . S
N112 C109 1.351 . S
N112 N113 1.365 . S
N113 C110 1.341 . S
N113 N112 1.365 . S
N113 H133 0.862 . S
C114 C109 1.501 . S
C114 H115 0.961 . S
C114 H116 0.961 . S
C114 H117 0.960 . S
H115 C114 0.961 . S
H116 C114 0.961 . S
H117 C114 0.960 . S
C118 N119 1.342 . S
C118 C122 1.401 . S
C118 C123 1.499 . S
N119 Co102 1.989 . S
N119 C118 1.342 . S
N119 N120 1.388 . S
N120 Co103 1.993 . S
N120 N119 1.388 . S
N120 C121 1.346 . S
C121 N120 1.346 . S
C121 C122 1.396 . S
C121 C131 1.510 . S
C122 C118 1.401 . S
C122 C121 1.396 . S
C123 C118 1.499 . S
C123 H124 0.959 . S
C123 H125 0.960 . S
C123 H126 0.961 . S
H124 C123 0.959 . S
H125 C123 0.960 . S
H126 C123 0.961 . S
O127 Co102 1.967 . S
O127 C135 1.258 . S
O128 Co103 1.941 . S
O128 C135 1.266 . S
H129 C131 0.959 . S
H130 C131 0.961 . S
C131 C121 1.510 . S
C131 H129 0.959 . S
C131 H130 0.961 . S
C131 H132 0.960 . S
H132 C131 0.960 . S
H133 N113 0.862 . S
O134 Co102 1.920 . S
O134 C107 1.289 . S
C135 O127 1.258 . S
C135 O128 1.266 . S
Co136 O139 1.970 . S
Co136 N153 1.989 . S
Co136 O161 1.967 . S
Co136 O168 1.920 . S
Co137 O140 1.966 . S
Co137 N146 2.022 . S
Co137 N154 1.993 . S
Co137 O162 1.941 . S
C138 O139 1.258 . S
C138 O140 1.263 . S
O139 Co136 1.970 . S
O139 C138 1.258 . S
O140 Co137 1.966 . S
O140 C138 1.263 . S
C141 O142 1.235 . S
C141 O168 1.289 . S
O142 C141 1.235 . S
C143 C145 1.400 . S
C143 N146 1.351 . S
C143 C148 1.501 . S
C144 C145 1.387 . S
C144 N147 1.341 . S
C145 C143 1.400 . S
C145 C144 1.387 . S
N146 Co137 2.022 . S
N146 C143 1.351 . S
N146 N147 1.365 . S
N147 C144 1.341 . S
N147 N146 1.365 . S
N147 H167 0.862 . S
C148 C143 1.501 . S
C148 H149 0.961 . S
C148 H150 0.961 . S
C148 H151 0.960 . S
H149 C148 0.961 . S
H150 C148 0.961 . S
H151 C148 0.960 . S
C152 N153 1.342 . S
C152 C156 1.401 . S
C152 C157 1.499 . S
N153 Co136 1.989 . S
N153 C152 1.342 . S
N153 N154 1.388 . S
N154 Co137 1.993 . S
N154 N153 1.388 . S
N154 C155 1.346 . S
C155 N154 1.346 . S
C155 C156 1.396 . S
C155 C165 1.510 . S
C156 C152 1.401 . S
C156 C155 1.396 . S
C157 C152 1.499 . S
C157 H158 0.959 . S
C157 H159 0.960 . S
C157 H160 0.961 . S
H158 C157 0.959 . S
H159 C157 0.960 . S
H160 C157 0.961 . S
O161 Co136 1.967 . S
O161 C169 1.258 . S
O162 Co137 1.941 . S
O162 C169 1.266 . S
H163 C165 0.959 . S
H164 C165 0.961 . S
C165 C155 1.510 . S
C165 H163 0.959 . S
C165 H164 0.961 . S
C165 H166 0.960 . S
H166 C165 0.960 . S
H167 N147 0.862 . S
O168 Co136 1.920 . S
O168 C141 1.289 . S
C169 O161 1.258 . S
C169 O162 1.266 . S
Co170 O173 1.970 . S
Co170 N187 1.989 . S
Co170 O195 1.967 . S
Co170 O202 1.920 . S
Co171 O174 1.966 1_655 S
Co171 N180 2.022 . S
Co171 N188 1.993 1_655 S
Co171 O196 1.941 1_655 S
C172 O173 1.258 . S
C172 O174 1.263 . S
O173 Co170 1.970 . S
O173 C172 1.258 . S
O174 Co171 1.966 1_455 S
O174 C172 1.263 . S
C175 O176 1.235 . S
C175 O202 1.289 . S
O176 C175 1.235 . S
C177 C179 1.400 . S
C177 N180 1.351 . S
C177 C182 1.501 . S
C178 C179 1.387 . S
C178 N181 1.341 . S
C179 C177 1.400 . S
C179 C178 1.387 . S
N180 Co171 2.022 . S
N180 C177 1.351 . S
N180 N181 1.365 . S
N181 C178 1.341 . S
N181 N180 1.365 . S
N181 H201 0.862 . S
C182 C177 1.501 . S
C182 H183 0.961 . S
C182 H184 0.961 . S
C182 H185 0.960 . S
H183 C182 0.961 . S
H184 C182 0.961 . S
H185 C182 0.960 . S
C186 N187 1.342 . S
C186 C190 1.401 . S
C186 C191 1.499 . S
N187 Co170 1.989 . S
N187 C186 1.342 . S
N187 N188 1.388 . S
N188 Co171 1.993 1_455 S
N188 N187 1.388 . S
N188 C189 1.346 . S
C189 N188 1.346 . S
C189 C190 1.396 . S
C189 C199 1.510 1_455 S
C190 C186 1.401 . S
C190 C189 1.396 . S
C191 C186 1.499 . S
C191 H192 0.959 . S
C191 H193 0.960 . S
C191 H194 0.961 . S
H192 C191 0.959 . S
H193 C191 0.960 . S
H194 C191 0.961 . S
O195 Co170 1.967 . S
O195 C203 1.258 . S
O196 Co171 1.941 1_455 S
O196 C203 1.266 . S
H197 C199 0.959 . S
H198 C199 0.961 . S
C199 C189 1.510 1_655 S
C199 H197 0.959 . S
C199 H198 0.961 . S
C199 H200 0.960 . S
H200 C199 0.960 . S
H201 N181 0.862 . S
O202 Co170 1.920 . S
O202 C175 1.289 . S
C203 O195 1.258 . S
C203 O196 1.266 . S
Co204 O207 1.970 . S
Co204 N221 1.989 . S
Co204 O229 1.967 . S
Co204 O236 1.920 . S
Co205 O208 1.966 . S
Co205 N214 2.022 . S
Co205 N222 1.993 . S
Co205 O230 1.941 . S
C206 O207 1.258 . S
C206 O208 1.263 . S
O207 Co204 1.970 . S
O207 C206 1.258 . S
O208 Co205 1.966 . S
O208 C206 1.263 . S
C209 O210 1.235 . S
C209 O236 1.289 . S
O210 C209 1.235 . S
C211 C213 1.400 . S
C211 N214 1.351 . S
C211 C216 1.501 . S
C212 C213 1.387 . S
C212 N215 1.341 . S
C213 C211 1.400 . S
C213 C212 1.387 . S
N214 Co205 2.022 . S
N214 C211 1.351 . S
N214 N215 1.365 . S
N215 C212 1.341 . S
N215 N214 1.365 . S
N215 H235 0.862 . S
C216 C211 1.501 . S
C216 H217 0.961 . S
C216 H218 0.961 . S
C216 H219 0.960 . S
H217 C216 0.961 . S
H218 C216 0.961 . S
H219 C216 0.960 . S
C220 N221 1.342 . S
C220 C224 1.401 . S
C220 C225 1.499 . S
N221 Co204 1.989 . S
N221 C220 1.342 . S
N221 N222 1.388 . S
N222 Co205 1.993 . S
N222 N221 1.388 . S
N222 C223 1.346 . S
C223 N222 1.346 . S
C223 C224 1.396 . S
C223 C233 1.510 . S
C224 C220 1.401 . S
C224 C223 1.396 . S
C225 C220 1.499 . S
C225 H226 0.959 . S
C225 H227 0.960 . S
C225 H228 0.961 . S
H226 C225 0.959 . S
H227 C225 0.960 . S
H228 C225 0.961 . S
O229 Co204 1.967 . S
O229 C237 1.258 . S
O230 Co205 1.941 . S
O230 C237 1.266 . S
H231 C233 0.959 . S
H232 C233 0.961 . S
C233 C223 1.510 . S
C233 H231 0.959 . S
C233 H232 0.961 . S
C233 H234 0.960 . S
H234 C233 0.960 . S
H235 N215 0.862 . S
O236 Co204 1.920 . S
O236 C209 1.289 . S
C237 O229 1.258 . S
C237 O230 1.266 . S
Co238 O241 1.970 . S
Co238 N255 1.989 . S
Co238 O263 1.967 . S
Co238 O270 1.920 . S
Co239 O242 1.966 1_655 S
Co239 N248 2.022 . S
Co239 N256 1.993 1_655 S
Co239 O264 1.941 1_655 S
C240 O241 1.258 . S
C240 O242 1.263 . S
O241 Co238 1.970 . S
O241 C240 1.258 . S
O242 Co239 1.966 1_455 S
O242 C240 1.263 . S
C243 O244 1.235 . S
C243 O270 1.289 . S
O244 C243 1.235 . S
C245 C247 1.400 . S
C245 N248 1.351 . S
C245 C250 1.501 . S
C246 C247 1.387 . S
C246 N249 1.341 . S
C247 C245 1.400 . S
C247 C246 1.387 . S
N248 Co239 2.022 . S
N248 C245 1.351 . S
N248 N249 1.365 . S
N249 C246 1.341 . S
N249 N248 1.365 . S
N249 H269 0.862 . S
C250 C245 1.501 . S
C250 H251 0.961 . S
C250 H252 0.961 . S
C250 H253 0.960 . S
H251 C250 0.961 . S
H252 C250 0.961 . S
H253 C250 0.960 . S
C254 N255 1.342 . S
C254 C258 1.401 . S
C254 C259 1.499 . S
N255 Co238 1.989 . S
N255 C254 1.342 . S
N255 N256 1.388 . S
N256 Co239 1.993 1_455 S
N256 N255 1.388 . S
N256 C257 1.346 . S
C257 N256 1.346 . S
C257 C258 1.396 . S
C257 C267 1.510 1_455 S
C258 C254 1.401 . S
C258 C257 1.396 . S
C259 C254 1.499 . S
C259 H260 0.959 . S
C259 H261 0.960 . S
C259 H262 0.961 . S
H260 C259 0.959 . S
H261 C259 0.960 . S
H262 C259 0.961 . S
O263 Co238 1.967 . S
O263 C271 1.258 . S
O264 Co239 1.941 1_455 S
O264 C271 1.266 . S
H265 C267 0.959 . S
H266 C267 0.961 . S
C267 C257 1.510 1_655 S
C267 H265 0.959 . S
C267 H266 0.961 . S
C267 H268 0.960 . S
H268 C267 0.960 . S
H269 N249 0.862 . S
O270 Co238 1.920 . S
O270 C243 1.289 . S
C271 O263 1.258 . S
C271 O264 1.266 . S
C272 C273 1.363 1_545 S
C272 C278 1.378 1_556 S
C272 N280 1.356 . S
C273 C272 1.363 1_565 S
C273 C279 1.363 . S
C274 C275 1.363 1_565 S
C274 C279 1.378 1_554 S
C274 N281 1.356 . S
C275 C274 1.363 1_545 S
C275 C278 1.363 . S
N276 C278 1.356 . S
N276 H288 0.984 1_554 S
N276 H289 0.985 . S
N277 C279 1.356 . S
N277 H282 0.984 . S
N277 H283 0.985 1_556 S
C278 C272 1.378 1_554 S
C278 C275 1.363 . S
C278 N276 1.356 . S
C279 C273 1.363 . S
C279 C274 1.378 1_556 S
C279 N277 1.356 . S
N280 C272 1.356 . S
N280 H286 0.984 . S
N280 H287 0.984 . S
N281 C274 1.356 . S
N281 H284 0.984 . S
N281 H285 0.985 . S
H282 N277 0.984 . S
H283 N277 0.985 1_554 S
H284 N281 0.984 . S
H285 N281 0.985 . S
H286 N280 0.984 . S
H287 N280 0.984 . S
H288 N276 0.984 1_556 S
H289 N276 0.985 . S
C290 C291 1.363 . S
C290 C296 1.379 . S
C290 N298 1.356 . S
C291 C290 1.363 . S
C291 C297 1.363 1_545 S
C292 C293 1.363 . S
C292 C297 1.379 . S
C292 N299 1.356 . S
C293 C292 1.363 . S
C293 C296 1.363 1_565 S
N294 C296 1.357 . S
N294 H306 0.989 . S
N294 H307 0.979 1_545 S
N295 C297 1.357 . S
N295 H300 0.979 1_565 S
N295 H301 0.989 . S
C296 C290 1.379 . S
C296 C293 1.363 1_545 S
C296 N294 1.357 . S
C297 C291 1.363 1_565 S
C297 C292 1.379 . S
C297 N295 1.357 . S
N298 C290 1.356 . S
N298 H304 0.984 . S
N298 H305 0.984 . S
N299 C292 1.356 . S
N299 H302 0.984 . S
N299 H303 0.985 . S
H300 N295 0.979 1_545 S
H301 N295 0.989 . S
H302 N299 0.984 . S
H303 N299 0.985 . S
H304 N298 0.984 . S
H305 N298 0.984 . S
H306 N294 0.989 . S
H307 N294 0.979 1_565 S
C308 C309 1.363 . S
C308 C314 1.379 1_554 S
C308 N316 1.356 . S
C309 C308 1.363 . S
C309 C315 1.363 . S
C310 C311 1.363 . S
C310 C315 1.379 1_556 S
C310 N317 1.356 . S
C311 C310 1.363 . S
C311 C314 1.363 . S
N312 C314 1.356 . S
N312 H324 0.984 . S
N312 H325 0.985 . S
N313 C315 1.356 . S
N313 H318 0.984 . S
N313 H319 0.985 . S
C314 C308 1.379 1_556 S
C314 C311 1.363 . S
C314 N312 1.356 . S
C315 C309 1.363 . S
C315 C310 1.379 1_554 S
C315 N313 1.356 . S
N316 C308 1.356 . S
N316 H322 0.984 . S
N316 H323 0.984 . S
N317 C310 1.356 . S
N317 H320 0.984 . S
N317 H321 0.985 . S
H318 N313 0.984 . S
H319 N313 0.985 . S
H320 N317 0.984 . S
H321 N317 0.985 . S
H322 N316 0.984 . S
H323 N316 0.984 . S
H324 N312 0.984 . S
H325 N312 0.985 . S
C326 C327 1.363 . S
C326 C332 1.379 . S
C326 N334 1.356 . S
C327 C326 1.363 . S
C327 C333 1.363 . S
C328 C329 1.363 . S
C328 C333 1.379 . S
C328 N335 1.356 . S
C329 C328 1.363 . S
C329 C332 1.363 . S
N330 C332 1.356 . S
N330 H342 0.984 . S
N330 H343 0.985 . S
N331 C333 1.356 . S
N331 H336 0.984 . S
N331 H337 0.985 . S
C332 C326 1.379 . S
C332 C329 1.363 . S
C332 N330 1.356 . S
C333 C327 1.363 . S
C333 C328 1.379 . S
C333 N331 1.356 . S
N334 C326 1.356 . S
N334 H340 0.984 . S
N334 H341 0.984 . S
N335 C328 1.356 . S
N335 H338 0.984 . S
N335 H339 0.985 . S
H336 N331 0.984 . S
H337 N331 0.985 . S
H338 N335 0.984 . S
H339 N335 0.985 . S
H340 N334 0.984 . S
H341 N334 0.984 . S
H342 N330 0.984 . S
H343 N330 0.985 . S
C344 C345 1.363 . S
C344 C350 1.379 . S
C344 N352 1.356 . S
C345 C344 1.363 . S
C345 C351 1.363 . S
C346 C347 1.363 . S
C346 C351 1.379 . S
C346 N353 1.356 . S
C347 C346 1.363 . S
C347 C350 1.363 . S
N348 C350 1.356 . S
N348 H360 0.984 . S
N348 H361 0.985 . S
N349 C351 1.356 . S
N349 H354 0.984 . S
N349 H355 0.985 . S
C350 C344 1.379 . S
C350 C347 1.363 . S
C350 N348 1.356 . S
C351 C345 1.363 . S
C351 C346 1.379 . S
C351 N349 1.356 . S
N352 C344 1.356 . S
N352 H358 0.984 . S
N352 H359 0.984 . S
N353 C346 1.356 . S
N353 H356 0.984 . S
N353 H357 0.985 . S
H354 N349 0.984 . S
H355 N349 0.985 . S
H356 N353 0.984 . S
H357 N353 0.985 . S
H358 N352 0.984 . S
H359 N352 0.984 . S
H360 N348 0.984 . S
H361 N348 0.985 . S
C362 C363 1.363 . S
C362 C368 1.379 . S
C362 N370 1.356 . S
C363 C362 1.363 . S
C363 C369 1.363 . S
C364 C365 1.363 . S
C364 C369 1.379 . S
C364 N371 1.356 . S
C365 C364 1.363 . S
C365 C368 1.363 . S
N366 C368 1.356 . S
N366 H378 0.984 . S
N366 H379 0.985 . S
N367 C369 1.356 . S
N367 H372 0.984 . S
N367 H373 0.985 . S
C368 C362 1.379 . S
C368 C365 1.363 . S
C368 N366 1.356 . S
C369 C363 1.363 . S
C369 C364 1.379 . S
C369 N367 1.356 . S
N370 C362 1.356 . S
N370 H376 0.984 . S
N370 H377 0.984 . S
N371 C364 1.356 . S
N371 H374 0.984 . S
N371 H375 0.985 . S
H372 N367 0.984 . S
H373 N367 0.985 . S
H374 N371 0.984 . S
H375 N371 0.985 . S
H376 N370 0.984 . S
H377 N370 0.984 . S
H378 N366 0.984 . S
H379 N366 0.985 . S
C380 C381 1.363 . S
C380 C386 1.379 . S
C380 N388 1.356 . S
C381 C380 1.363 . S
C381 C387 1.363 . S
C382 C383 1.363 . S
C382 C387 1.379 . S
C382 N389 1.356 . S
C383 C382 1.363 . S
C383 C386 1.363 . S
N384 C386 1.356 . S
N384 H396 0.984 . S
N384 H397 0.985 . S
N385 C387 1.356 . S
N385 H390 0.984 . S
N385 H391 0.985 . S
C386 C380 1.379 . S
C386 C383 1.363 . S
C386 N384 1.356 . S
C387 C381 1.363 . S
C387 C382 1.379 . S
C387 N385 1.356 . S
N388 C380 1.356 . S
N388 H394 0.984 . S
N388 H395 0.984 . S
N389 C382 1.356 . S
N389 H392 0.984 . S
N389 H393 0.985 . S
H390 N385 0.984 . S
H391 N385 0.985 . S
H392 N389 0.984 . S
H393 N389 0.985 . S
H394 N388 0.984 . S
H395 N388 0.984 . S
H396 N384 0.984 . S
H397 N384 0.985 . S
C398 C399 1.363 . S
C398 C404 1.379 . S
C398 N406 1.356 . S
C399 C398 1.363 . S
C399 C405 1.363 . S
C400 C401 1.363 . S
C400 C405 1.379 . S
C400 N407 1.356 . S
C401 C400 1.363 . S
C401 C404 1.363 . S
N402 C404 1.356 . S
N402 H414 0.984 . S
N402 H415 0.985 . S
N403 C405 1.356 . S
N403 H408 0.984 . S
N403 H409 0.985 . S
C404 C398 1.379 . S
C404 C401 1.363 . S
C404 N402 1.356 . S
C405 C399 1.363 . S
C405 C400 1.379 . S
C405 N403 1.356 . S
N406 C398 1.356 . S
N406 H412 0.984 . S
N406 H413 0.984 . S
N407 C400 1.356 . S
N407 H410 0.984 . S
N407 H411 0.985 . S
H408 N403 0.984 . S
H409 N403 0.985 . S
H410 N407 0.984 . S
H411 N407 0.985 . S
H412 N406 0.984 . S
H413 N406 0.984 . S
H414 N402 0.984 . S
H415 N402 0.985 . S
C416 C417 1.363 . S
C416 C422 1.379 . S
C416 N424 1.356 . S
C417 C416 1.363 . S
C417 C423 1.363 . S
C418 C419 1.363 . S
C418 C423 1.379 . S
C418 N425 1.356 . S
C419 C418 1.363 . S
C419 C422 1.363 . S
N420 C422 1.356 . S
N420 H432 0.984 . S
N420 H433 0.985 . S
N421 C423 1.356 . S
N421 H426 0.984 . S
N421 H427 0.985 . S
C422 C416 1.379 . S
C422 C419 1.363 . S
C422 N420 1.356 . S
C423 C417 1.363 . S
C423 C418 1.379 . S
C423 N421 1.356 . S
N424 C416 1.356 . S
N424 H430 0.984 . S
N424 H431 0.984 . S
N425 C418 1.356 . S
N425 H428 0.984 . S
N425 H429 0.985 . S
H426 N421 0.984 . S
H427 N421 0.985 . S
H428 N425 0.984 . S
H429 N425 0.985 . S
H430 N424 0.984 . S
H431 N424 0.984 . S
H432 N420 0.984 . S
H433 N420 0.985 . S
C434 C435 1.363 . S
C434 C440 1.379 . S
C434 N442 1.356 . S
C435 C434 1.363 . S
C435 C441 1.363 . S
C436 C437 1.363 . S
C436 C441 1.379 . S
C436 N443 1.356 . S
C437 C436 1.363 . S
C437 C440 1.363 . S
N438 C440 1.356 . S
N438 H450 0.984 . S
N438 H451 0.985 . S
N439 C441 1.356 . S
N439 H444 0.984 . S
N439 H445 0.985 . S
C440 C434 1.379 . S
C440 C437 1.363 . S
C440 N438 1.356 . S
C441 C435 1.363 . S
C441 C436 1.379 . S
C441 N439 1.356 . S
N442 C434 1.356 . S
N442 H448 0.984 . S
N442 H449 0.984 . S
N443 C436 1.356 . S
N443 H446 0.984 . S
N443 H447 0.985 . S
H444 N439 0.984 . S
H445 N439 0.985 . S
H446 N443 0.984 . S
H447 N443 0.985 . S
H448 N442 0.984 . S
H449 N442 0.984 . S
H450 N438 0.984 . S
H451 N438 0.985 . S
C452 C453 1.363 . S
C452 C458 1.379 . S
C452 N460 1.356 . S
C453 C452 1.363 . S
C453 C459 1.363 . S
C454 C455 1.363 . S
C454 C459 1.379 . S
C454 N461 1.356 . S
C455 C454 1.363 . S
C455 C458 1.363 . S
N456 C458 1.356 . S
N456 H468 0.984 . S
N456 H469 0.985 . S
N457 C459 1.356 . S
N457 H462 0.984 . S
N457 H463 0.985 . S
C458 C452 1.379 . S
C458 C455 1.363 . S
C458 N456 1.356 . S
C459 C453 1.363 . S
C459 C454 1.379 . S
C459 N457 1.356 . S
N460 C452 1.356 . S
N460 H466 0.984 . S
N460 H467 0.984 . S
N461 C454 1.356 . S
N461 H464 0.984 . S
N461 H465 0.985 . S
H462 N457 0.984 . S
H463 N457 0.985 . S
H464 N461 0.984 . S
H465 N461 0.985 . S
H466 N460 0.984 . S
H467 N460 0.984 . S
H468 N456 0.984 . S
H469 N456 0.985 . S
C470 C471 1.363 . S
C470 C476 1.379 . S
C470 N478 1.356 . S
C471 C470 1.363 . S
C471 C477 1.363 . S
C472 C473 1.363 . S
C472 C477 1.379 . S
C472 N479 1.356 . S
C473 C472 1.363 . S
C473 C476 1.363 . S
N474 C476 1.356 . S
N474 H486 0.984 . S
N474 H487 0.985 . S
N475 C477 1.356 . S
N475 H480 0.984 . S
N475 H481 0.985 . S
C476 C470 1.379 . S
C476 C473 1.363 . S
C476 N474 1.356 . S
C477 C471 1.363 . S
C477 C472 1.379 . S
C477 N475 1.356 . S
N478 C470 1.356 . S
N478 H484 0.984 . S
N478 H485 0.984 . S
N479 C472 1.356 . S
N479 H482 0.984 . S
N479 H483 0.985 . S
H480 N475 0.984 . S
H481 N475 0.985 . S
H482 N479 0.984 . S
H483 N479 0.985 . S
H484 N478 0.984 . S
H485 N478 0.984 . S
H486 N474 0.984 . S
H487 N474 0.985 . S
C488 C489 1.363 . S
C488 C494 1.379 1_556 S
C488 N496 1.356 . S
C489 C488 1.363 . S
C489 C495 1.363 1_455 S
C490 C491 1.363 1_656 S
C490 C495 1.379 . S
C490 N497 1.356 . S
C491 C490 1.363 1_454 S
C491 C494 1.363 . S
N492 C494 1.356 . S
N492 H504 0.984 . S
N492 H505 0.985 . S
N493 C495 1.356 . S
N493 H498 0.984 . S
N493 H499 0.985 . S
C494 C488 1.379 1_554 S
C494 C491 1.363 . S
C494 N492 1.356 . S
C495 C489 1.363 1_655 S
C495 C490 1.379 . S
C495 N493 1.356 . S
N496 C488 1.356 . S
N496 H502 0.984 . S
N496 H503 0.984 . S
N497 C490 1.356 . S
N497 H500 0.984 1_556 S
N497 H501 0.985 . S
H498 N493 0.984 . S
H499 N493 0.985 . S
H500 N497 0.984 1_554 S
H501 N497 0.985 . S
H502 N496 0.984 . S
H503 N496 0.984 . S
H504 N492 0.984 . S
H505 N492 0.985 . S
C506 C507 1.363 . S
C506 C512 1.379 . S
C506 N514 1.356 . S
C507 C506 1.363 . S
C507 C513 1.363 . S
C508 C509 1.363 . S
C508 C513 1.379 . S
C508 N515 1.356 . S
C509 C508 1.363 . S
C509 C512 1.363 . S
N510 C512 1.356 . S
N510 H522 0.984 . S
N510 H523 0.985 . S
N511 C513 1.356 . S
N511 H516 0.984 . S
N511 H517 0.985 . S
C512 C506 1.379 . S
C512 C509 1.363 . S
C512 N510 1.356 . S
C513 C507 1.363 . S
C513 C508 1.379 . S
C513 N511 1.356 . S
N514 C506 1.356 . S
N514 H520 0.984 . S
N514 H521 0.984 . S
N515 C508 1.356 . S
N515 H518 0.984 . S
N515 H519 0.985 . S
H516 N511 0.984 . S
H517 N511 0.985 . S
H518 N515 0.984 . S
H519 N515 0.985 . S
H520 N514 0.984 . S
H521 N514 0.984 . S
H522 N510 0.984 . S
H523 N510 0.985 . S
C524 C525 1.363 1_554 S
C524 C530 1.379 . S
C524 N532 1.356 . S
C525 C524 1.363 1_556 S
C525 C531 1.363 . S
C526 C527 1.363 . S
C526 C531 1.379 1_554 S
C526 N533 1.356 . S
C527 C526 1.363 . S
C527 C530 1.363 . S
N528 C530 1.356 . S
N528 H540 0.984 . S
N528 H541 0.985 . S
N529 C531 1.356 1_655 S
N529 H534 0.984 . S
N529 H535 0.985 . S
C530 C524 1.379 . S
C530 C527 1.363 . S
C530 N528 1.356 . S
C531 C525 1.363 . S
C531 C526 1.379 1_556 S
C531 N529 1.356 1_455 S
N532 C524 1.356 . S
N532 H538 0.984 . S
N532 H539 0.984 1_554 S
N533 C526 1.356 . S
N533 H536 0.984 . S
N533 H537 0.985 1_554 S
H534 N529 0.984 . S
H535 N529 0.985 . S
H536 N533 0.984 . S
H537 N533 0.985 1_556 S
H538 N532 0.984 . S
H539 N532 0.984 1_556 S
H540 N528 0.984 . S
H541 N528 0.985 . S
C542 C543 1.363 . S
C542 C548 1.379 . S
C542 N550 1.356 . S
C543 C542 1.363 . S
C543 C549 1.363 . S
C544 C545 1.363 . S
C544 C549 1.379 . S
C544 N551 1.356 . S
C545 C544 1.363 . S
C545 C548 1.363 . S
N546 C548 1.356 . S
N546 H558 0.984 . S
N546 H559 0.985 . S
N547 C549 1.356 . S
N547 H552 0.984 . S
N547 H553 0.985 . S
C548 C542 1.379 . S
C548 C545 1.363 . S
C548 N546 1.356 . S
C549 C543 1.363 . S
C549 C544 1.379 . S
C549 N547 1.356 . S
N550 C542 1.356 . S
N550 H556 0.984 . S
N550 H557 0.984 . S
N551 C544 1.356 . S
N551 H554 0.984 . S
N551 H555 0.985 . S
H552 N547 0.984 . S
H553 N547 0.985 . S
H554 N551 0.984 . S
H555 N551 0.985 . S
H556 N550 0.984 . S
H557 N550 0.984 . S
H558 N546 0.984 . S
H559 N546 0.985 . S
C560 C561 1.363 . S
C560 C566 1.379 . S
C560 N568 1.356 . S
C561 C560 1.363 . S
C561 C567 1.363 . S
C562 C563 1.363 . S
C562 C567 1.379 1_554 S
C562 N569 1.356 . S
C563 C562 1.363 . S
C563 C566 1.363 1_554 S
N564 C566 1.356 . S
N564 H576 0.984 . S
N564 H577 0.990 . S
N565 C567 1.356 . S
N565 H570 0.984 . S
N565 H571 0.985 1_556 S
C566 C560 1.379 . S
C566 C563 1.363 1_556 S
C566 N564 1.356 . S
C567 C561 1.363 . S
C567 C562 1.379 1_556 S
C567 N565 1.356 . S
N568 C560 1.356 . S
N568 H574 0.984 . S
N568 H575 0.984 . S
N569 C562 1.356 . S
N569 H572 0.984 . S
N569 H573 0.985 . S
H570 N565 0.984 . S
H571 N565 0.985 1_554 S
H572 N569 0.984 . S
H573 N569 0.985 . S
H574 N568 0.984 . S
H575 N568 0.984 . S
H576 N564 0.984 . S
H577 N564 0.990 . S
C578 C579 1.363 . S
C578 C584 1.379 . S
C578 N586 1.356 1_455 S
C579 C578 1.363 . S
C579 C585 1.363 . S
C580 C581 1.363 . S
C580 C585 1.379 . S
C580 N587 1.356 . S
C581 C580 1.363 . S
C581 C584 1.363 . S
N582 C584 1.356 1_655 S
N582 H594 0.984 . S
N582 H595 0.985 . S
N583 C585 1.356 . S
N583 H588 0.984 . S
N583 H589 0.985 . S
C584 C578 1.379 . S
C584 C581 1.363 . S
C584 N582 1.356 1_455 S
C585 C579 1.363 . S
C585 C580 1.379 . S
C585 N583 1.356 . S
N586 C578 1.356 1_655 S
N586 H592 0.984 . S
N586 H593 0.984 1_655 S
N587 C580 1.356 . S
N587 H590 0.984 . S
N587 H591 0.985 . S
H588 N583 0.984 . S
H589 N583 0.985 . S
H590 N587 0.984 . S
H591 N587 0.985 . S
H592 N586 0.984 . S
H593 N586 0.984 1_455 S
H594 N582 0.984 . S
H595 N582 0.985 . S
C596 C597 1.363 . S
C596 C602 1.379 1_556 S
C596 N604 1.356 . S
C597 C596 1.363 . S
C597 C603 1.363 1_556 S
C598 C599 1.363 . S
C598 C603 1.379 . S
C598 N605 1.356 . S
C599 C598 1.363 . S
C599 C602 1.363 . S
N600 C602 1.356 . S
N600 H612 0.984 1_554 S
N600 H613 0.985 . S
N601 C603 1.356 . S
N601 H606 0.984 1_554 S
N601 H607 0.985 . S
C602 C596 1.379 1_554 S
C602 C599 1.363 . S
C602 N600 1.356 . S
C603 C597 1.363 1_554 S
C603 C598 1.379 . S
C603 N601 1.356 . S
N604 C596 1.356 . S
N604 H610 0.984 . S
N604 H611 0.984 . S
N605 C598 1.356 . S
N605 H608 0.984 . S
N605 H609 0.985 . S
H606 N601 0.984 1_556 S
H607 N601 0.985 . S
H608 N605 0.984 . S
H609 N605 0.985 . S
H610 N604 0.984 . S
H611 N604 0.984 . S
H612 N600 0.984 1_556 S
H613 N600 0.985 . S
C614 C615 1.363 . S
C614 C620 1.379 . S
C614 N622 1.356 . S
C615 C614 1.363 . S
C615 C621 1.363 . S
C616 C617 1.363 . S
C616 C621 1.379 . S
C616 N623 1.356 1_455 S
C617 C616 1.363 . S
C617 C620 1.363 . S
N618 C620 1.356 . S
N618 H630 0.984 . S
N618 H631 0.985 . S
N619 C621 1.358 . S
N619 H624 0.987 . S
N619 H625 0.981 1_455 S
C620 C614 1.379 . S
C620 C617 1.363 . S
C620 N618 1.356 . S
C621 C615 1.363 . S
C621 C616 1.379 . S
C621 N619 1.358 . S
N622 C614 1.356 . S
N622 H628 0.984 . S
N622 H629 0.984 . S
N623 C616 1.356 1_655 S
N623 H626 0.984 . S
N623 H627 0.985 . S
H624 N619 0.987 . S
H625 N619 0.981 1_655 S
H626 N623 0.984 . S
H627 N623 0.985 . S
H628 N622 0.984 . S
H629 N622 0.984 . S
H630 N618 0.984 . S
H631 N618 0.985 . S
C273 C70 1.681 . S
C275 C2 1.681 . S
C291 C104 1.681 . S
C293 C36 1.681 . S
C309 C138 1.681 . S
C311 C206 1.681 . S
C327 C172 1.681 . S
C329 C240 1.681 . S
C345 C111 1.197 . S
C347 C9 1.197 . S
C363 C43 1.197 . S
C365 C77 1.197 . S
C381 C73 1.837 . S
C383 C39 1.837 . S
C399 C107 1.837 . S
C401 C5 1.837 . S
C417 C247 1.197 . S
C419 C145 1.197 . S
C435 C179 1.197 . S
C437 C213 1.197 . S
C453 C209 1.837 . S
C455 C175 1.837 . S
C471 C243 1.837 . S
C473 C141 1.837 . S
C489 C190 1.373 . S
C491 C33 1.370 . S
C507 C67 1.370 . S
C509 C156 1.373 . S
C525 C101 1.370 . S
C527 C258 1.373 . S
C543 C224 1.373 . S
C545 C135 1.370 . S
C561 C54 1.373 . S
C563 C169 1.370 . S
C579 C203 1.370 . S
C581 C20 1.373 . S
C597 C237 1.370 . S
C599 C122 1.373 . S
C615 C271 1.370 . S
C617 C88 1.373 . S
