# Generated by pormake.
# Topology fna, (5)-cn, num edge types: 1
# Building blocks:
#     Node 0, Type 0, BuildingBlock: BEQFEK_clean_sbu_0, # of connection points: 5
#     Node 1, Type 0, BuildingBlock: BEQFEK_clean_sbu_0, # of connection points: 5
#     Node 2, Type 0, BuildingBlock: BEQFEK_clean_sbu_0, # of connection points: 5
#     Node 3, Type 0, BuildingBlock: BEQFEK_clean_sbu_0, # of connection points: 5
#     Node 4, Type 0, BuildingBlock: BEQFEK_clean_sbu_0, # of connection points: 5
#     Node 5, Type 0, BuildingBlock: BEQFEK_clean_sbu_0, # of connection points: 5
#     Node 6, Type 0, BuildingBlock: BEQFEK_clean_sbu_0, # of connection points: 5
#     Node 7, Type 0, BuildingBlock: BEQFEK_clean_sbu_0, # of connection points: 5
#     Node 8, Type 0, BuildingBlock: BEQFEK_clean_sbu_0, # of connection points: 5
#     Node 9, Type 0, BuildingBlock: BEQFEK_clean_sbu_0, # of connection points: 5
#     Node 10, Type 0, BuildingBlock: BEQFEK_clean_sbu_0, # of connection points: 5
#     Node 11, Type 0, BuildingBlock: BEQFEK_clean_sbu_0, # of connection points: 5
#     Edge 12, Type (0, 0), BuildingBlock: EZIPEK_clean_linker_0, # of connection points: 2
#     Edge 13, Type (0, 0), BuildingBlock: EZIPEK_clean_linker_0, # of connection points: 2
#     Edge 14, Type (0, 0), BuildingBlock: EZIPEK_clean_linker_0, # of connection points: 2
#     Edge 15, Type (0, 0), BuildingBlock: EZIPEK_clean_linker_0, # of connection points: 2
#     Edge 16, Type (0, 0), BuildingBlock: EZIPEK_clean_linker_0, # of connection points: 2
#     Edge 17, Type (0, 0), BuildingBlock: EZIPEK_clean_linker_0, # of connection points: 2
#     Edge 18, Type (0, 0), BuildingBlock: EZIPEK_clean_linker_0, # of connection points: 2
#     Edge 19, Type (0, 0), BuildingBlock: EZIPEK_clean_linker_0, # of connection points: 2
#     Edge 20, Type (0, 0), BuildingBlock: EZIPEK_clean_linker_0, # of connection points: 2
#     Edge 21, Type (0, 0), BuildingBlock: EZIPEK_clean_linker_0, # of connection points: 2
#     Edge 22, Type (0, 0), BuildingBlock: EZIPEK_clean_linker_0, # of connection points: 2
#     Edge 23, Type (0, 0), BuildingBlock: EZIPEK_clean_linker_0, # of connection points: 2
#     Edge 24, Type (0, 0), BuildingBlock: EZIPEK_clean_linker_0, # of connection points: 2
#     Edge 25, Type (0, 0), BuildingBlock: EZIPEK_clean_linker_0, # of connection points: 2
#     Edge 26, Type (0, 0), BuildingBlock: EZIPEK_clean_linker_0, # of connection points: 2
#     Edge 27, Type (0, 0), BuildingBlock: EZIPEK_clean_linker_0, # of connection points: 2
#     Edge 28, Type (0, 0), BuildingBlock: EZIPEK_clean_linker_0, # of connection points: 2
#     Edge 29, Type (0, 0), BuildingBlock: EZIPEK_clean_linker_0, # of connection points: 2
#     Edge 30, Type (0, 0), BuildingBlock: EZIPEK_clean_linker_0, # of connection points: 2
#     Edge 31, Type (0, 0), BuildingBlock: EZIPEK_clean_linker_0, # of connection points: 2
#     Edge 32, Type (0, 0), BuildingBlock: EZIPEK_clean_linker_0, # of connection points: 2
#     Edge 33, Type (0, 0), BuildingBlock: EZIPEK_clean_linker_0, # of connection points: 2
#     Edge 34, Type (0, 0), BuildingBlock: EZIPEK_clean_linker_0, # of connection points: 2
#     Edge 35, Type (0, 0), BuildingBlock: EZIPEK_clean_linker_0, # of connection points: 2
#     Edge 36, Type (0, 0), BuildingBlock: EZIPEK_clean_linker_0, # of connection points: 2
#     Edge 37, Type (0, 0), BuildingBlock: EZIPEK_clean_linker_0, # of connection points: 2
#     Edge 38, Type (0, 0), BuildingBlock: EZIPEK_clean_linker_0, # of connection points: 2
#     Edge 39, Type (0, 0), BuildingBlock: EZIPEK_clean_linker_0, # of connection points: 2
#     Edge 40, Type (0, 0), BuildingBlock: EZIPEK_clean_linker_0, # of connection points: 2
#     Edge 41, Type (0, 0), BuildingBlock: EZIPEK_clean_linker_0, # of connection points: 2
# Relax obj value: 0.686
# Max RMSD: 0.274
# Mean RMSD: 0.274
data_MOF--net-fna--node1-BEQFEK_clean_sbu_0--edge1-EZIPEK_clean_linker_0
_symmetry_space_group_name_H-M    P1
_symmetry_Int_Tables_number       1
_symmetry_cell_setting            triclinic
loop_
_symmetry_equiv_pos_as_xyz
'x, y, z'
_cell_length_a     33.639686
_cell_length_b     33.639133
_cell_length_c     31.812101
_cell_angle_alpha  89.787911
_cell_angle_beta   90.171582
_cell_angle_gamma 119.92176
loop_
_atom_site_label
_atom_site_type_symbol
_atom_site_fract_x
_atom_site_fract_y
_atom_site_fract_z
_atom_type_partial_charge
Co0 Co 0.37616 0.37204 0.50724 0.0
Co1 Co 0.35045 0.3154 0.42352 0.0
C2 C 0.43242 0.41072 0.43144 0.0
O3 O 0.42206 0.41399 0.46887 0.0
O4 O 0.40869 0.37458 0.40974 0.0
C5 C 0.43658 0.42869 0.57206 0.0
O6 O 0.46826 0.44313 0.54282 0.0
C7 C 0.3694 0.25796 0.36788 0.0
C8 C 0.30203 0.21324 0.33857 0.0
C9 C 0.34567 0.21913 0.34301 0.0
N10 N 0.34066 0.27324 0.37868 0.0
N11 N 0.3008 0.24711 0.36002 0.0
C12 C 0.41745 0.27823 0.38404 0.0
H13 H 0.41737 0.27925 0.4189 0.0
H14 H 0.43383 0.25846 0.37324 0.0
H15 H 0.4378 0.31418 0.37281 0.0
C16 C 0.37562 0.29002 0.53992 0.0
N17 N 0.37313 0.31475 0.50772 0.0
N18 N 0.35511 0.28803 0.47481 0.0
C19 C 0.34205 0.24449 0.48638 0.0
C20 C 0.35646 0.24502 0.5272 0.0
C21 C 0.39146 0.30793 0.58326 0.0
H22 H 0.36796 0.31852 0.59714 0.0
H23 H 0.4261 0.33841 0.58137 0.0
H24 H 0.39246 0.28178 0.60392 0.0
O25 O 0.31476 0.36275 0.4919 0.0
O26 O 0.29732 0.3258 0.43035 0.0
H27 H 0.27182 0.19439 0.4779 0.0
H28 H 0.3102 0.17255 0.47176 0.0
C29 C 0.30565 0.20243 0.46501 0.0
H30 H 0.30469 0.20746 0.43096 0.0
H31 H 0.27179 0.2503 0.36442 0.0
O32 O 0.39499 0.40006 0.56322 0.0
C33 C 0.28786 0.34459 0.46062 0.0
Co34 Co 1.0036 0.36938 0.66844 0.0
Co35 Co 0.03487 0.34808 0.58318 0.0
C36 C 0.02992 0.43401 0.59672 0.0
O37 O 0.01476 0.42099 0.63352 0.0
O38 O 0.04008 0.40999 0.5728 0.0
C39 C 0.97917 0.41236 0.73271 0.0
O40 O 0.96724 0.43034 0.70189 0.0
C41 C 0.10637 0.35521 0.52524 0.0
C42 C 0.06818 0.29285 0.48674 0.0
C43 C 0.11195 0.32892 0.49481 0.0
N44 N 0.06179 0.33459 0.53603 0.0
N45 N 0.03899 0.298 0.51202 0.0
C46 C 0.14316 0.39844 0.54481 0.0
H47 H 0.1315 0.40514 0.57519 0.0
H48 H 0.17509 0.39686 0.54912 0.0
H49 H 0.15119 0.42755 0.52333 0.0
C50 C 0.07958 0.36033 0.70148 0.0
N51 N 0.05416 0.36074 0.669 0.0
N52 N 0.06563 0.34737 0.63452 0.0
C53 C 0.09771 0.3359 0.64493 0.0
C54 C 0.10798 0.34467 0.68733 0.0
C55 C 0.07562 0.37327 0.74558 0.0
H56 H 0.08008 0.40822 0.74572 0.0
H57 H 0.10151 0.37236 0.76665 0.0
H58 H 0.04087 0.34909 0.75778 0.0
O59 O 0.9495 0.31246 0.65006 0.0
O60 O 0.96836 0.29882 0.58709 0.0
H61 H 0.09019 0.29438 0.5913 0.0
H62 H 0.1216 0.28819 0.63449 0.0
C63 C 0.11533 0.3129 0.61655 0.0
H64 H 0.14859 0.3388 0.60295 0.0
H65 H 1.00382 0.27521 0.51437 0.0
O66 O 0.99379 0.3849 0.72509 0.0
C67 C 0.93956 0.28796 0.61705 0.0
Co68 Co 0.62959 0.99233 0.83697 0.0
Co69 Co 0.68845 0.03811 0.75617 0.0
C70 C 0.59396 0.02023 0.76153 0.0
O71 O 0.59122 1.00154 0.79681 0.0
O72 O 0.63073 0.03803 0.73987 0.0
C73 C 0.574 1.00048 0.8986 0.0
O74 O 0.56324 0.01966 0.86799 0.0
C75 C 0.74357 0.10229 0.6871 0.0
C76 C 0.80786 0.10039 0.69507 0.0
C77 C 0.78916 0.12324 0.67383 0.0
N78 N 0.73681 0.07024 0.71618 0.0
N79 N 0.77505 0.06854 0.71979 0.0
C80 C 0.7071 0.11251 0.67307 0.0
H81 H 0.69566 0.12486 0.70025 0.0
H82 H 0.71956 0.13847 0.6475 0.0
H83 H 0.67688 0.08039 0.66191 0.0
C84 C 0.71086 0.06629 0.8779 0.0
N85 N 0.68699 0.04506 0.84306 0.0
N86 N 0.71042 0.06734 0.80954 0.0
C87 C 0.74925 0.10497 0.82242 0.0
C88 C 0.75069 0.10524 0.86597 0.0
C89 C 0.69766 0.04791 0.92163 0.0
H90 H 0.67987 0.00989 0.9214 0.0
H91 H 0.67409 0.05872 0.93466 0.0
H92 H 0.72825 0.06145 0.94237 0.0
O93 O 0.63865 0.94211 0.81924 0.0
O94 O 0.67832 0.97351 0.76041 0.0
H95 H 0.80905 0.1292 0.78441 0.0
H96 H 0.80411 0.1738 0.81052 0.0
C97 C 0.78455 0.14038 0.79413 0.0
H98 H 0.76767 0.14463 0.76605 0.0
H99 H 0.77955 0.04738 0.74103 0.0
O100 O 0.59849 0.98215 0.89139 0.0
C101 C 0.65949 0.94024 0.78664 0.0
Co102 Co 0.64781 0.6449 -0.01008 0.0
Co103 Co 0.66663 0.692 0.90194 0.0
C104 C 0.58383 0.59869 0.92067 0.0
O105 O 0.59715 0.59902 0.95796 0.0
O106 O 0.60662 0.63195 0.89527 0.0
C107 C 0.60696 0.58849 0.06409 0.0
O108 O 0.57574 0.55859 0.03848 0.0
C109 C 0.65503 0.75171 0.84133 0.0
C110 C 0.71449 0.77274 0.79947 0.0
C111 C 0.67941 0.78158 0.80888 0.0
N112 N 0.67606 0.72806 0.85215 0.0
N113 N 0.71075 0.7398 0.82611 0.0
C114 C 0.61311 0.74682 0.8625 0.0
H115 H 0.60615 0.72732 0.89233 0.0
H116 H 0.61652 0.78093 0.86805 0.0
H117 H 0.58325 0.72771 0.84132 0.0
C118 C 0.64653 0.72857 0.01507 0.0
N119 N 0.65 0.70189 0.98558 0.0
N120 N 0.66513 0.72539 0.95039 0.0
C121 C 0.67557 0.76917 0.95788 0.0
C122 C 0.66313 0.77199 -0.00122 0.0
C123 C 0.62963 0.71391 0.05886 0.0
H124 H 0.65961 0.72355 0.07949 0.0
H125 H 0.6056 0.67649 0.06033 0.0
H126 H 0.61195 0.73209 0.07051 0.0
O127 O 0.70717 0.6517 0.97264 0.0
O128 O 0.72036 0.68238 0.90858 0.0
H129 H 0.72831 0.83879 0.94706 0.0
H130 H 0.67903 0.81943 0.91434 0.0
C131 C 0.70223 0.80888 0.92903 0.0
H132 H 0.71968 0.79976 0.90464 0.0
H133 H 0.73355 0.72733 0.8281 0.0
O134 O 0.63881 0.62558 0.04871 0.0
C135 C 0.7319 0.66653 0.93985 0.0
Co136 Co 1.00114 0.64112 0.1653 0.0
Co137 Co 0.97713 0.66507 0.07692 0.0
C138 C 0.98588 0.58199 0.09103 0.0
O139 O 0.99837 0.59406 0.12857 0.0
O140 O 0.97469 0.60495 0.06663 0.0
C141 C 0.99415 0.58101 0.23225 0.0
O142 O 0.98087 0.54975 0.20274 0.0
C143 C 0.91075 0.65875 0.01301 0.0
C144 C 0.95139 0.72243 0.97658 0.0
C145 C 0.90733 0.6856 0.98157 0.0
N146 N 0.95421 0.67973 0.02731 0.0
N147 N 0.9786 0.71713 0.00452 0.0
C148 C 0.87285 0.61448 0.03008 0.0
H149 H 0.88229 0.60646 0.06111 0.0
H150 H 0.84048 0.61555 0.03227 0.0
H151 H 0.8667 0.58648 0.00805 0.0
C152 C 0.91882 0.64333 0.19007 0.0
N153 N 0.94852 0.64622 0.16043 0.0
N154 N 0.94044 0.66139 0.12503 0.0
C155 C 0.9062 0.67067 0.13209 0.0
C156 C 0.89095 0.65834 0.17304 0.0
C157 C 0.91889 0.62904 0.23463 0.0
H158 H 0.91473 0.59427 0.23499 0.0
H159 H 0.8909 0.62877 0.25325 0.0
H160 H 0.95229 0.65298 0.24946 0.0
O161 O 0.05479 0.70105 0.1522 0.0
O162 O 0.04254 0.7148 0.08647 0.0
H163 H 0.91926 0.71593 0.07973 0.0
H164 H 0.88417 0.71965 0.1206 0.0
C165 C 0.89178 0.69593 0.10275 0.0
H166 H 0.85979 0.6713 0.08638 0.0
H167 H 0.01333 0.74029 0.00945 0.0
O168 O 1.00585 0.62225 0.22303 0.0
C169 C 0.06782 0.72606 0.11926 0.0
Co170 Co 0.37534 0.98478 0.33137 0.0
Co171 Co 0.32379 0.97482 0.24762 0.0
C172 C 0.41578 0.97687 0.25433 0.0
O173 O 0.41725 0.9811 0.29383 0.0
O174 O 0.38268 0.97442 0.23238 0.0
C175 C 0.42397 0.01739 0.40985 0.0
O176 O 0.44567 0.0588 0.39358 0.0
C177 C 0.26905 0.91329 0.18041 0.0
C178 C 0.21677 0.93378 0.17086 0.0
C179 C 0.22631 0.89899 0.16208 0.0
N180 N 0.28226 0.95284 0.20097 0.0
N181 N 0.25177 0.96585 0.19369 0.0
C182 C 0.29667 0.88952 0.17996 0.0
H183 H 0.33162 0.91366 0.16813 0.0
H184 H 0.30064 0.88006 0.21254 0.0
H185 H 0.28074 0.85863 0.15967 0.0
C186 C 0.2882 0.90422 0.35477 0.0
N187 N 0.31622 0.93416 0.32562 0.0
N188 N 0.29182 0.93508 0.29379 0.0
C189 C 0.24695 0.90888 0.3036 0.0
C190 C 0.24328 0.88794 0.34228 0.0
C191 C 0.30383 0.89275 0.39473 0.0
H192 H 0.30632 0.91659 0.41972 0.0
H193 H 0.33797 0.89585 0.39037 0.0
H194 H 0.2787 0.85741 0.40509 0.0
O195 O 0.37421 0.04295 0.3235 0.0
O196 O 0.33671 0.03706 0.26401 0.0
H197 H 0.1776 0.89731 0.30068 0.0
H198 H 0.20003 0.88998 0.25205 0.0
C199 C 0.20887 0.91079 0.28096 0.0
H200 H 0.22005 0.94676 0.27217 0.0
H201 H 0.2527 0.99441 0.20746 0.0
O202 O 0.39526 0.98367 0.38818 0.0
C203 C 0.35765 0.0593 0.2969 0.0
Co204 Co 0.62558 0.64138 0.3079 0.0
Co205 Co 0.68784 0.65825 0.38678 0.0
C206 C 0.59171 0.57892 0.38174 0.0
O207 O 0.58648 0.59196 0.34574 0.0
O208 O 0.62895 0.60109 0.40263 0.0
C209 C 0.56767 0.59139 0.23723 0.0
O210 O 0.556 0.55429 0.25964 0.0
C211 C 0.74265 0.64534 0.45404 0.0
C212 C 0.80605 0.71274 0.45001 0.0
C213 C 0.78791 0.66976 0.46839 0.0
N214 N 0.73565 0.67227 0.42703 0.0
N215 N 0.7733 0.71285 0.42585 0.0
C216 C 0.70666 0.59748 0.46524 0.0
H217 H 0.67577 0.59778 0.47694 0.0
H218 H 0.69629 0.57583 0.4366 0.0
H219 H 0.7191 0.5826 0.48964 0.0
C220 C 0.70413 0.64335 0.26526 0.0
N221 N 0.68223 0.64374 0.30046 0.0
N222 N 0.70855 0.64965 0.33328 0.0
C223 C 0.74788 0.6524 0.31957 0.0
C224 C 0.74618 0.64868 0.2762 0.0
C225 C 0.6867 0.64137 0.22174 0.0
H226 H 0.65727 0.60656 0.216 0.0
H227 H 0.71347 0.64887 0.19778 0.0
H228 H 0.67496 0.66671 0.21877 0.0
O229 O 0.63714 0.70126 0.32635 0.0
O230 O 0.68166 0.71487 0.38243 0.0
H231 H 0.80717 0.69656 0.35563 0.0
H232 H 0.81052 0.65078 0.32991 0.0
C233 C 0.78728 0.65988 0.34671 0.0
H234 H 0.77431 0.63871 0.37536 0.0
H235 H 0.7775 0.73985 0.40659 0.0
O236 O 0.59487 0.63001 0.25359 0.0
C237 C 0.66101 0.72715 0.35618 0.0
Co238 Co 1.00447 0.63491 0.47692 0.0
Co239 Co 0.03331 0.69035 0.56058 0.0
C240 C 0.03051 0.59954 0.55016 0.0
O241 O 0.01465 0.595 0.51334 0.0
O242 O 0.04045 0.63483 0.57238 0.0
C243 C 0.99746 0.5748 0.40938 0.0
O244 O 1.00502 0.55093 0.43779 0.0
C245 C 0.09854 0.7505 0.62607 0.0
C246 C 0.05644 0.77344 0.66002 0.0
C247 C 0.10033 0.77968 0.6577 0.0
N248 N 0.05615 0.72952 0.6092 0.0
N249 N 0.03084 0.74237 0.63061 0.0
C250 C 0.13764 0.7457 0.60983 0.0
H251 H 0.12783 0.72533 0.58039 0.0
H252 H 0.16795 0.7801 0.60424 0.0
H253 H 0.14743 0.72819 0.63391 0.0
C254 C 0.07836 0.71807 0.44256 0.0
N255 N 0.05472 0.6945 0.47636 0.0
N256 N 0.06384 0.72191 0.50855 0.0
C257 C 0.09218 0.76548 0.49497 0.0
C258 C 0.10025 0.76516 0.45118 0.0
C259 C 0.08739 0.69422 0.40711 0.0
H260 H 0.08625 0.66274 0.41929 0.0
H261 H 0.12167 0.716 0.39291 0.0
H262 H 0.06034 0.6834 0.38275 0.0
O263 O 0.94966 0.63804 0.49268 0.0
O264 O 0.96642 0.67106 0.55535 0.0
H265 H 0.09195 0.8217 0.52639 0.0
H266 H 0.14905 0.8304 0.51516 0.0
C267 C 0.11344 0.80533 0.52448 0.0
H268 H 0.1148 0.79376 0.55633 0.0
H269 H 0.99645 0.73126 0.62415 0.0
O270 O 0.99464 0.60971 0.4198 0.0
C271 C 0.93854 0.65282 0.52478 0.0
Co272 Co 0.35653 0.98363 0.65495 0.0
Co273 Co 0.34303 0.02748 0.73587 0.0
C274 C 0.42245 0.012 0.72655 0.0
O275 O 0.40736 0.9941 0.6909 0.0
O276 O 0.40132 0.02667 0.74937 0.0
C277 C 0.40849 0.98262 0.5853 0.0
O278 O 0.44327 0.01257 0.60791 0.0
C279 C 0.35764 0.09345 0.80466 0.0
C280 C 0.29213 0.09346 0.79983 0.0
C281 C 0.33506 0.11632 0.81855 0.0
N282 N 0.32998 0.06062 0.7773 0.0
N283 N 0.29042 0.05992 0.7758 0.0
C284 C 0.40441 0.1023 0.8167 0.0
H285 H 0.40181 0.07001 0.82853 0.0
H286 H 0.42668 0.11278 0.78845 0.0
H287 H 0.42003 0.12917 0.84126 0.0
C288 C 0.35314 0.06086 0.61444 0.0
N289 N 0.35302 0.03729 0.64881 0.0
N290 N 0.34951 0.05762 0.68273 0.0
C291 C 0.34854 0.09571 0.67064 0.0
C292 C 0.35058 0.09868 0.62723 0.0
C293 C 0.35444 0.04694 0.5701 0.0
H294 H 0.38972 0.05452 0.56267 0.0
H295 H 0.3447 0.06589 0.54754 0.0
H296 H 0.3307 0.0096 0.56649 0.0
O297 O 0.298 0.93441 0.67459 0.0
O298 O 0.28668 0.96415 0.73256 0.0
H299 H 0.31037 0.11638 0.7092 0.0
H300 H 0.35885 0.16315 0.68376 0.0
C301 C 0.34642 0.12948 0.69948 0.0
H302 H 0.3677 0.13419 0.72743 0.0
H303 H 0.2633 0.03854 0.75606 0.0
O304 O 0.36854 0.96611 0.60056 0.0
C305 C 0.27356 0.93159 0.70596 0.0
Co306 Co 0.37766 0.36855 0.81268 0.0
Co307 Co 0.32377 0.35024 0.89737 0.0
C308 C 0.41541 0.43276 0.8854 0.0
O309 O 0.41806 0.41781 0.84978 0.0
O310 O 0.3799 0.41145 0.90839 0.0
C311 C 0.42867 0.43064 0.74741 0.0
O312 O 0.43708 0.46178 0.77615 0.0
C313 C 0.26015 0.35907 0.9548 0.0
C314 C 0.23314 0.29568 -0.00742 0.0
C315 C 0.22735 0.33307 0.98473 0.0
N316 N 0.28274 0.33703 0.94397 0.0
N317 N 0.26731 0.29983 0.96761 0.0
C318 C 0.26886 0.40345 0.93574 0.0
H319 H 0.28697 0.40966 0.90525 0.0
H320 H 0.2363 0.40392 0.93178 0.0
H321 H 0.29104 0.4318 0.95736 0.0
C322 C 0.29244 0.35716 0.77738 0.0
N323 N 0.31839 0.36027 0.8108 0.0
N324 N 0.29368 0.35015 0.84537 0.0
C325 C 0.25056 0.33961 0.83431 0.0
C326 C 0.24903 0.34479 0.79118 0.0
C327 C 0.30762 0.36224 0.73259 0.0
H328 H 0.32421 0.34137 0.7269 0.0
H329 H 0.33298 0.39858 0.72645 0.0
H330 H 0.27843 0.35138 0.71048 0.0
O331 O 0.37274 0.31057 0.83098 0.0
O332 O 0.3406 0.30038 0.89409 0.0
H333 H 0.17811 0.29697 0.84571 0.0
H334 H 0.2058 0.34831 0.87597 0.0
C335 C 0.21007 0.32019 0.86299 0.0
H336 H 0.21487 0.30075 0.88865 0.0
H337 H 0.27852 0.27607 0.96526 0.0
O338 O 0.40586 0.38815 0.75667 0.0
C339 C 0.3576 0.28745 0.86487 0.0
Co340 Co 1.00412 0.37521 0.97459 0.0
Co341 Co 0.98036 0.3254 0.06202 0.0
C342 C 0.98948 0.41802 0.04947 0.0
O343 O 1.00119 0.41903 0.01161 0.0
O344 O 0.97935 0.38373 0.0733 0.0
C345 C 0.99609 0.42828 0.90794 0.0
O346 O 0.98601 0.44872 0.93769 0.0
C347 C 0.91311 0.26479 0.12432 0.0
C348 C 0.95314 0.24167 0.16183 0.0
C349 C 0.90905 0.23407 0.15549 0.0
N350 N 0.95694 0.28774 0.11127 0.0
N351 N 0.98098 0.27477 0.13473 0.0
C352 C 0.87542 0.2711 0.10632 0.0
H353 H 0.88619 0.2907 0.07644 0.0
H354 H 0.84384 0.23748 0.10166 0.0
H355 H 0.86701 0.29072 0.12908 0.0
C356 C 0.92121 0.29038 0.94936 0.0
N357 N 0.95101 0.31718 0.97909 0.0
N358 N 0.94334 0.29351 0.01414 0.0
C359 C 0.9099 0.24985 0.00671 0.0
C360 C 0.89409 0.24715 0.96601 0.0
C361 C 0.92069 0.30495 0.905 0.0
H362 H 0.95377 0.31408 0.8897 0.0
H363 H 0.91683 0.33575 0.9051 0.0
H364 H 0.89225 0.27747 0.88658 0.0
O365 O 0.05852 0.369 0.98685 0.0
O366 O 0.0438 0.33719 0.05075 0.0
H367 H 0.89206 0.17963 0.01599 0.0
H368 H 0.86551 0.20006 0.05164 0.0
C369 C 0.89791 0.20979 0.03487 0.0
H370 H 0.92596 0.21811 0.05756 0.0
H371 H 0.0159 0.28662 0.13068 0.0
O372 O 0.00721 0.39826 0.91706 0.0
C373 C 0.06989 0.35385 0.01876 0.0
Co374 Co 0.64876 0.01943 0.13463 0.0
Co375 Co 0.66808 0.97862 0.2159 0.0
C376 C 0.58596 0.98913 0.20884 0.0
O377 O 0.60035 0.00823 0.17358 0.0
O378 O 0.60779 0.97415 0.2303 0.0
C379 C 0.5863 0.01991 0.0736 0.0
O380 O 0.55681 0.00697 0.10465 0.0
C381 C 0.66232 0.90858 0.27652 0.0
C382 C 0.72953 0.94651 0.30827 0.0
C383 C 0.69019 0.90388 0.30606 0.0
N384 N 0.68468 0.95161 0.26109 0.0
N385 N 0.72441 0.9743 0.28095 0.0
C386 C 0.61578 0.87235 0.26236 0.0
H387 H 0.59036 0.86752 0.28688 0.0
H388 H 0.60602 0.88266 0.23262 0.0
H389 H 0.61486 0.83911 0.25847 0.0
C390 C 0.65747 0.94604 0.09453 0.0
N391 N 0.65624 0.9678 0.12946 0.0
N392 N 0.6646 0.94956 0.16269 0.0
C393 C 0.67152 0.91527 0.14934 0.0
C394 C 0.66645 0.91169 0.1059 0.0
C395 C 0.65245 0.95935 0.05073 0.0
H396 H 0.6164 0.95047 0.04557 0.0
H397 H 0.66177 0.94137 0.02692 0.0
H398 H 0.67465 0.99692 0.04657 0.0
O399 O 0.70734 0.07178 0.1518 0.0
O400 O 0.71947 0.0441 0.21127 0.0
H401 H 0.7035 0.87398 0.15872 0.0
H402 H 0.65344 0.85796 0.18962 0.0
C403 C 0.68482 0.88765 0.17681 0.0
H404 H 0.70679 0.90895 0.20294 0.0
H405 H 0.74882 0.00842 0.27482 0.0
O406 O 0.62763 0.02998 0.08014 0.0
C407 C 0.73151 0.07619 0.18416 0.0
C408 C 0.39215 0.16615 0.57909 0.0
C409 C 0.35128 0.13519 0.60049 0.0
C410 C 0.31389 0.17737 0.57523 0.0
C411 C 0.35365 0.20615 0.55148 0.0
N412 N 0.42741 0.22334 0.52425 0.0
N413 N 0.27075 0.10581 0.61343 0.0
C414 C 0.39181 0.19908 0.55137 0.0
C415 C 0.31135 0.13922 0.59704 0.0
N416 N 0.43184 0.16543 0.58666 0.0
N417 N 0.27909 0.18714 0.57765 0.0
H418 H 0.26756 0.0772 0.62935 0.0
H419 H 0.23947 0.10435 0.60827 0.0
H420 H 0.27946 0.21425 0.56126 0.0
H421 H 0.25145 0.17053 0.59814 0.0
H422 H 0.46377 0.19042 0.57559 0.0
H423 H 0.43373 0.14213 0.60711 0.0
H424 H 0.45366 0.21599 0.51934 0.0
H425 H 0.42885 0.24842 0.5039 0.0
C426 C 0.18527 0.38525 0.72073 0.0
C427 C 0.14487 0.34333 0.71168 0.0
C428 C 0.17372 0.30132 0.75288 0.0
C429 C 0.2117 0.34373 0.76549 0.0
N430 N 0.25014 0.42642 0.7673 0.0
N431 N 0.09708 0.262 0.72307 0.0
C432 C 0.21651 0.38584 0.75105 0.0
C433 C 0.13806 0.3014 0.7288 0.0
N434 N 0.19423 0.42436 0.69964 0.0
N435 N 0.17244 0.26115 0.76284 0.0
H436 H 0.0706 0.26073 0.70491 0.0
H437 H 0.08817 0.23138 0.73861 0.0
H438 H 0.19777 0.2599 0.78086 0.0
H439 H 0.14817 0.22945 0.75076 0.0
H440 H 0.22539 0.4549 0.70162 0.0
H441 H 0.17214 0.42524 0.67704 0.0
H442 H 0.25228 0.45788 0.76131 0.0
H443 H 0.27355 0.42835 0.78992 0.0
C444 C 0.83067 0.14292 0.89524 0.0
C445 C 0.78691 0.13952 0.89384 0.0
C446 C 0.81137 0.1998 0.94698 0.0
C447 C 0.85655 0.20706 0.94436 0.0
N448 N 0.91099 0.18852 0.91445 0.0
N449 N 0.7366 0.16797 0.91418 0.0
C450 C 0.86672 0.17934 0.91813 0.0
C451 C 0.77734 0.16858 0.91885 0.0
N452 N 0.83728 0.11049 0.8758 0.0
N453 N 0.80099 0.22265 0.97652 0.0
H454 H 0.71095 0.14603 0.89349 0.0
H455 H 0.72957 0.19174 0.92812 0.0
H456 H 0.82531 0.24646 -0.00285 0.0
H457 H 0.76767 0.21521 0.98307 0.0
H458 H 0.86696 0.10837 0.87917 0.0
H459 H 0.81151 0.08311 0.85905 0.0
H460 H 0.9216 0.17327 0.89208 0.0
H461 H 0.93787 0.21352 0.93229 0.0
C462 C 0.62616 0.81465 0.02683 0.0
C463 C 0.66649 0.81191 0.02154 0.0
C464 C 0.70855 0.87824 0.0678 0.0
C465 C 0.66675 0.87691 0.07745 0.0
N466 N 0.58437 0.83985 0.07076 0.0
N467 N 0.74514 0.83743 0.03997 0.0
C468 C 0.62514 0.84413 0.05807 0.0
C469 C 0.70757 0.84283 0.04271 0.0
N470 N 0.58893 0.7892 0.00171 0.0
N471 N 0.74921 0.91396 0.08158 0.0
H472 H 0.74604 0.81269 0.02096 0.0
H473 H 0.77429 0.85547 0.05855 0.0
H474 H 0.75116 0.94041 0.1001 0.0
H475 H 0.78107 0.91932 0.07192 0.0
H476 H 0.5601 0.79309 0.00112 0.0
H477 H 0.58863 0.7672 0.97852 0.0
H478 H 0.55255 0.81345 0.06091 0.0
H479 H 0.58196 0.86019 0.09415 0.0
C480 C 0.80929 0.61738 0.19572 0.0
C481 C 0.85207 0.65862 0.19431 0.0
C482 C 0.82288 0.69541 0.24154 0.0
C483 C 0.78239 0.65243 0.24732 0.0
N484 N 0.73844 0.57114 0.23374 0.0
N485 N 0.90187 0.73607 0.21771 0.0
C486 C 0.77576 0.61304 0.22519 0.0
C487 C 0.85948 0.69757 0.21756 0.0
N488 N 0.80072 0.58251 0.16863 0.0
N489 N 0.82575 0.73428 0.25795 0.0
H490 H 0.92891 0.73941 0.19916 0.0
H491 H 0.91105 0.76356 0.23796 0.0
H492 H 0.79946 0.73403 0.27546 0.0
H493 H 0.85242 0.76718 0.25128 0.0
H494 H 0.7686 0.55338 0.16511 0.0
H495 H 0.82475 0.58453 0.1468 0.0
H496 H 0.7343 0.54041 0.22209 0.0
H497 H 0.71316 0.56647 0.25529 0.0
C498 C 0.16519 0.81845 0.35185 0.0
C499 C 0.20102 0.86062 0.36763 0.0
C500 C 0.15396 0.85028 0.42999 0.0
C501 C 0.12674 0.80352 0.41947 0.0
N502 N 0.08406 0.76521 0.35756 0.0
N503 N 0.22467 0.92162 0.4188 0.0
C504 C 0.12506 0.79375 0.37619 0.0
C505 C 0.19417 0.87816 0.40599 0.0
N506 N 0.1698 0.80077 0.31485 0.0
N507 N 0.13562 0.87007 0.45452 0.0
H508 H 0.25174 0.94498 0.40007 0.0
H509 H 0.22341 0.93364 0.44866 0.0
H510 H 0.10104 0.85181 0.46287 0.0
H511 H 0.15183 0.90519 0.46043 0.0
H512 H 0.14539 0.76821 0.3044 0.0
H513 H 0.19948 0.81682 0.29667 0.0
H514 H 0.08043 0.76002 0.32514 0.0
H515 H 0.05344 0.75113 0.37455 0.0
C516 C 0.35278 0.15061 0.3624 0.0
C517 C 0.35803 0.18361 0.33181 0.0
C518 C 0.3712 0.13873 0.27841 0.0
C519 C 0.35781 0.10236 0.3079 0.0
N520 N 0.32295 0.07015 0.37527 0.0
N521 N 0.36968 0.20803 0.25944 0.0
C522 C 0.34511 0.10731 0.34921 0.0
C523 C 0.36648 0.17734 0.28933 0.0
N524 N 0.35578 0.16048 0.40417 0.0
N525 N 0.38991 0.13729 0.2408 0.0
H526 H 0.36905 0.23791 0.26685 0.0
H527 H 0.37058 0.20262 0.22732 0.0
H528 H 0.39522 0.11038 0.23237 0.0
H529 H 0.4041 0.1647 0.21974 0.0
H530 H 0.3557 0.13848 0.4274 0.0
H531 H 0.36482 0.19289 0.41513 0.0
H532 H 0.3096 0.07181 0.40432 0.0
H533 H 0.31262 0.03669 0.36593 0.0
C534 C 0.23327 0.37488 0.45227 0.0
C535 C 0.24133 0.33868 0.46354 0.0
C536 C 0.16514 0.29638 0.49546 0.0
C537 C 0.15575 0.33136 0.48219 0.0
N538 N 0.17737 0.3996 0.44134 0.0
N539 N 0.21221 0.26103 0.48779 0.0
C540 C 0.18885 0.36942 0.45859 0.0
C541 C 0.20623 0.29808 0.4823 0.0
N542 N 0.26836 0.41475 0.43636 0.0
N543 N 0.13643 0.26306 0.52293 0.0
H544 H 0.2424 0.26126 0.47989 0.0
H545 H 0.18585 0.22874 0.49672 0.0
H546 H 0.10625 0.26035 0.53433 0.0
H547 H 0.14464 0.24041 0.53772 0.0
H548 H 0.26638 0.4444 0.43197 0.0
H549 H 0.30061 0.41895 0.42976 0.0
H550 H 0.19834 0.4256 0.42054 0.0
H551 H 0.14504 0.39628 0.44509 0.0
C552 C 0.82261 0.20818 0.65663 0.0
C553 C 0.81707 0.16444 0.64691 0.0
C554 C 0.88777 0.20171 0.60509 0.0
C555 C 0.89359 0.24538 0.61586 0.0
N556 N 0.85567 0.28739 0.63469 0.0
N557 N 0.8343 0.12007 0.59884 0.0
C558 C 0.85683 0.2474 0.63532 0.0
C559 C 0.84616 0.16152 0.61638 0.0
N560 N 0.79896 0.21362 0.68872 0.0
N561 N 0.92247 0.19774 0.58718 0.0
H562 H 0.80358 0.09038 0.60624 0.0
H563 H 0.85221 0.11634 0.57391 0.0
H564 H 0.95345 0.22538 0.57755 0.0
H565 H 0.92142 0.1664 0.58412 0.0
H566 H 0.80599 0.24575 0.69943 0.0
H567 H 0.77561 0.18684 0.70735 0.0
H568 H 0.82788 0.28981 0.64597 0.0
H569 H 0.88017 0.31638 0.61854 0.0
C570 C 0.70985 0.90672 0.79818 0.0
C571 C 0.66766 0.90107 0.78321 0.0
C572 C 0.63786 0.8184 0.7754 0.0
C573 C 0.67727 0.82319 0.79646 0.0
N574 N 0.7483 0.87191 0.83365 0.0
N575 N 0.59052 0.85219 0.75865 0.0
C576 C 0.71298 0.86739 0.80885 0.0
C577 C 0.63141 0.85706 0.77184 0.0
N578 N 0.74683 0.94977 0.80305 0.0
N579 N 0.60708 0.77706 0.7583 0.0
H580 H 0.58567 0.88018 0.75368 0.0
H581 H 0.56092 0.82055 0.7546 0.0
H582 H 0.61116 0.74833 0.76021 0.0
H583 H 0.57975 0.77218 0.73932 0.0
H584 H 0.77987 0.95587 0.80906 0.0
H585 H 0.74558 0.97966 0.79742 0.0
H586 H 0.77161 0.90253 0.84816 0.0
H587 H 0.75236 0.84459 0.84326 0.0
C588 C 0.81292 0.71499 0.96192 0.0
C589 C 0.77908 0.67414 0.94261 0.0
C590 C 0.83308 0.64515 0.94087 0.0
C591 C 0.86434 0.68299 0.96576 0.0
N592 N 0.87994 0.75018 0.00629 0.0
N593 N 0.75483 0.59882 0.91544 0.0
C594 C 0.85348 0.71724 0.97762 0.0
C595 C 0.78862 0.6388 0.93232 0.0
N596 N 0.80609 0.75166 0.96562 0.0
N597 N 0.84628 0.61592 0.92478 0.0
H598 H 0.72267 0.59411 0.90731 0.0
H599 H 0.75776 0.56966 0.91162 0.0
H600 H 0.87872 0.61999 0.93019 0.0
H601 H 0.82674 0.59011 0.90334 0.0
H602 H 0.83165 0.78403 0.97525 0.0
H603 H 0.77635 0.75107 0.95525 0.0
H604 H 0.8703 0.77226 0.01982 0.0
H605 H 0.9093 0.75294 0.02001 0.0
C606 C 0.18122 0.8114 0.1648 0.0
C607 C 0.1918 0.85331 0.14448 0.0
C608 C 0.12141 0.81144 0.10263 0.0
C609 C 0.11341 0.76922 0.12074 0.0
N610 N 0.14864 0.73006 0.15469 0.0
N611 N 0.1792 0.88885 0.08372 0.0
C612 C 0.14794 0.7696 0.14666 0.0
C613 C 0.16442 0.8518 0.10976 0.0
N614 N 0.19877 0.81062 0.20329 0.0
N615 N 0.08768 0.8146 0.0815 0.0
H616 H 0.21126 0.91825 0.08718 0.0
H617 H 0.16198 0.88804 0.05614 0.0
H618 H 0.05453 0.78743 0.07746 0.0
H619 H 0.09145 0.8459 0.07169 0.0
H620 H 0.18852 0.7802 0.21986 0.0
H621 H 0.21846 0.83983 0.22106 0.0
H622 H 0.17502 0.72972 0.17174 0.0
H623 H 0.12619 0.69912 0.13997 0.0
C624 C 0.88681 0.68778 0.53571 0.0
C625 C 0.8928 0.6502 0.52401 0.0
C626 C 0.82241 0.6183 0.48217 0.0
C627 C 0.8161 0.65553 0.49397 0.0
N628 N 0.83238 0.71436 0.54504 0.0
N629 N 0.85496 0.57109 0.50224 0.0
C630 C 0.84479 0.6861 0.52556 0.0
C631 C 0.85637 0.61235 0.50309 0.0
N632 N 0.92174 0.72673 0.55301 0.0
N633 N 0.79974 0.5911 0.44868 0.0
H634 H 0.87881 0.56555 0.51846 0.0
H635 H 0.82734 0.54159 0.48972 0.0
H636 H 0.77695 0.59567 0.43011 0.0
H637 H 0.80727 0.56677 0.43679 0.0
H638 H 0.91981 0.75643 0.55727 0.0
H639 H 0.95401 0.73149 0.55983 0.0
H640 H 0.85025 0.73485 0.57063 0.0
H641 H 0.80135 0.71315 0.53852 0.0
C642 C 0.21393 0.84878 0.71614 0.0
C643 C 0.22529 0.89403 0.70484 0.0
C644 C 0.15494 0.86444 0.66332 0.0
C645 C 0.14231 0.81902 0.67582 0.0
N646 N 0.15504 0.7684 0.72046 0.0
N647 N 0.20161 0.94574 0.6771 0.0
C648 C 0.17034 0.81131 0.70435 0.0
C649 C 0.19377 0.902 0.68198 0.0
N650 N 0.24544 0.84169 0.73694 0.0
N651 N 0.13223 0.87182 0.6312 0.0
H652 H 0.23024 0.9743 0.68966 0.0
H653 H 0.17753 0.95321 0.66428 0.0
H654 H 0.10514 0.84554 0.6147 0.0
H655 H 0.14337 0.90394 0.61773 0.0
H656 H 0.24169 0.80938 0.74186 0.0
H657 H 0.27656 0.86874 0.74768 0.0
H658 H 0.17194 0.76128 0.74423 0.0
H659 H 0.12336 0.74039 0.71232 0.0
C660 C 0.32074 0.20164 0.88148 0.0
C661 C 0.35909 0.24387 0.86822 0.0
C662 C 0.38982 0.20193 0.83056 0.0
C663 C 0.35122 0.15956 0.84306 0.0
N664 N 0.29134 0.12054 0.89415 0.0
N665 N 0.43858 0.28207 0.84787 0.0
C666 C 0.32088 0.1601 0.87361 0.0
C667 C 0.39671 0.24307 0.84926 0.0
N668 N 0.28262 0.19999 0.89825 0.0
N669 N 0.41747 0.20433 0.79824 0.0
H670 H 0.44455 0.31243 0.86226 0.0
H671 H 0.46795 0.28245 0.83686 0.0
H672 H 0.4127 0.17612 0.78122 0.0
H673 H 0.44274 0.23538 0.78565 0.0
H674 H 0.25219 0.16928 0.90337 0.0
H675 H 0.27956 0.22864 0.90431 0.0
H676 H 0.27085 0.11957 0.91909 0.0
H677 H 0.29142 0.08991 0.88916 0.0
C678 C 0.15439 0.38213 0.02675 0.0
C679 C 0.10997 0.34722 0.0147 0.0
C680 C 0.14225 0.30355 0.98265 0.0
C681 C 0.18672 0.33708 -0.00322 0.0
N682 N 0.23413 0.40399 0.03859 0.0
N683 N 0.06007 0.27047 -0.0106 0.0
C684 C 0.19252 0.3752 0.02072 0.0
C685 C 0.10348 0.30654 -0.00459 0.0
N686 N 0.16017 0.42219 0.0431 0.0
N687 N 0.13701 0.27029 0.95491 0.0
H688 H 0.03055 0.27158 -0.0027 0.0
H689 H 0.0533 0.23802 0.98011 0.0
H690 H 0.16397 0.26642 0.94401 0.0
H691 H 0.10627 0.2489 0.93948 0.0
H692 H 0.19214 0.45104 0.04822 0.0
H693 H 0.13269 0.42747 0.04922 0.0
H694 H 0.23962 0.42987 0.05964 0.0
H695 H 0.26251 0.39957 0.03506 0.0
C696 C 0.78765 0.15963 0.19727 0.0
C697 C 0.77883 0.1155 0.18502 0.0
C698 C 0.85587 0.1485 0.15528 0.0
C699 C 0.86572 0.19278 0.16893 0.0
N700 N 0.8447 0.23925 0.21033 0.0
N701 N 0.80748 0.06626 0.16172 0.0
C702 C 0.83269 0.19794 0.19232 0.0
C703 C 0.8141 0.10945 0.16748 0.0
N704 N 0.75272 0.16495 0.21266 0.0
N705 N 0.88451 0.14367 0.12798 0.0
H706 H 0.77675 0.03647 0.1686 0.0
H707 H 0.83384 0.05996 0.15371 0.0
H708 H 0.91512 0.17082 0.11693 0.0
H709 H 0.87582 0.11298 0.11285 0.0
H710 H 0.75542 0.19677 0.21768 0.0
H711 H 0.72003 0.1372 0.21837 0.0
H712 H 0.82359 0.24431 0.23084 0.0
H713 H 0.87753 0.26771 0.20752 0.0
C714 C 0.7153 0.84507 0.31 0.0
C715 C 0.68503 0.86046 0.32355 0.0
C716 C 0.64166 0.78984 0.36499 0.0
C717 C 0.67332 0.77585 0.35289 0.0
N718 N 0.74617 0.79465 0.32222 0.0
N719 N 0.62492 0.85208 0.3701 0.0
C720 C 0.71233 0.80527 0.32851 0.0
C721 C 0.64984 0.83422 0.35303 0.0
N722 N 0.74469 0.86635 0.27721 0.0
N723 N 0.60323 0.76019 0.38689 0.0
H724 H 0.63026 0.88449 0.36207 0.0
H725 H 0.60165 0.83653 0.39456 0.0
H726 H 0.59771 0.7285 0.39777 0.0
H727 H 0.57605 0.76596 0.3925 0.0
H728 H 0.76357 0.8533 0.26289 0.0
H729 H 0.74692 0.89442 0.26116 0.0
H730 H 0.77759 0.81722 0.30846 0.0
H731 H 0.7448 0.76513 0.3343 0.0
C732 C 0.4695 0.49175 0.40814 0.0
C733 C 0.47252 0.45153 0.41368 0.0
C734 C 0.55523 0.49525 0.39993 0.0
C735 C 0.55268 0.53613 0.39817 0.0
N736 N 0.5094 0.57484 0.40753 0.0
N737 N 0.51832 0.41505 0.42043 0.0
C738 C 0.5103 0.53476 0.40425 0.0
C739 C 0.51541 0.45321 0.411 0.0
N740 N 0.42737 0.4885 0.4058 0.0
N741 N 0.5951 0.49625 0.38942 0.0
H742 H 0.48963 0.38334 0.42723 0.0
H743 H 0.54929 0.41545 0.42402 0.0
H744 H 0.62521 0.52644 0.38195 0.0
H745 H 0.59758 0.46687 0.38534 0.0
H746 H 0.42259 0.51586 0.39773 0.0
H747 H 0.39676 0.45727 0.40804 0.0
H748 H 0.48034 0.57637 0.41606 0.0
H749 H 0.53894 0.60702 0.40564 0.0
C750 C 0.07407 0.51717 0.57504 0.0
C751 C 0.03148 0.47642 0.5816 0.0
C752 C 0.99118 0.52016 0.57787 0.0
C753 C 0.03298 0.56006 0.56752 0.0
N754 N 0.11359 0.59661 0.55164 0.0
N755 N 0.9488 0.43722 0.58177 0.0
C756 C 0.07437 0.55866 0.56492 0.0
C757 C 0.98981 0.47744 0.58094 0.0
N758 N 0.11413 0.51654 0.57992 0.0
N759 N 0.95286 0.5234 0.58528 0.0
H760 H 0.94646 0.40511 0.5829 0.0
H761 H 0.91724 0.43533 0.57721 0.0
H762 H 0.95287 0.55439 0.58345 0.0
H763 H 0.9224 0.49649 0.59705 0.0
H764 H 0.14631 0.54599 0.5802 0.0
H765 H 0.11508 0.48659 0.58634 0.0
H766 H 0.14363 0.59642 0.54429 0.0
H767 H 0.11529 0.62798 0.54583 0.0
C768 C 0.54996 0.06129 0.7481 0.0
C769 C 0.5522 0.02026 0.74708 0.0
C770 C 0.46849 0.97478 0.7426 0.0
C771 C 0.46632 0.01571 0.73989 0.0
N772 N 0.5052 0.09818 0.73331 0.0
N773 N 0.51508 0.93881 0.73547 0.0
C774 C 0.50711 0.05915 0.74091 0.0
C775 C 0.5118 0.97724 0.7419 0.0
N776 N 0.58831 0.102 0.75754 0.0
N777 N 0.42896 0.93355 0.74696 0.0
H778 H 0.54653 0.93972 0.73403 0.0
H779 H 0.48725 0.90707 0.72749 0.0
H780 H 0.39665 0.93073 0.74852 0.0
H781 H 0.42841 0.90286 0.75316 0.0
H782 H 0.58766 0.13203 0.76379 0.0
H783 H 0.62052 0.10516 0.76176 0.0
H784 H 0.53421 0.1302 0.72873 0.0
H785 H 0.4745 0.09818 0.7287 0.0
C786 C 0.53956 0.51462 0.90875 0.0
C787 C 0.54089 0.55741 0.90773 0.0
C788 C 0.45783 0.51805 0.89519 0.0
C789 C 0.45624 0.47529 0.89956 0.0
N790 N 0.49344 0.43218 0.91743 0.0
N791 N 0.5011 0.60043 0.9059 0.0
C792 C 0.49656 0.47345 0.90848 0.0
C793 C 0.49997 0.55938 0.90243 0.0
N794 N 0.57966 0.51351 0.9087 0.0
N795 N 0.41944 0.51915 0.88279 0.0
H796 H 0.53144 0.6315 0.91014 0.0
H797 H 0.47179 0.60342 0.90724 0.0
H798 H 0.38765 0.48954 0.87885 0.0
H799 H 0.41963 0.54912 0.8741 0.0
H800 H 0.5812 0.48354 0.90529 0.0
H801 H 0.61183 0.54316 0.90802 0.0
H802 H 0.52089 0.42885 0.92822 0.0
H803 H 0.46224 0.4014 0.91784 0.0
C804 C 0.02927 0.50049 0.06838 0.0
C805 C 0.98757 0.45836 0.0647 0.0
C806 C 0.94378 0.49774 0.07623 0.0
C807 C 0.9855 0.54025 0.07654 0.0
N808 N 0.06738 0.5836 0.06711 0.0
N809 N 0.90503 0.41652 0.05983 0.0
C810 C 0.02813 0.54202 0.07093 0.0
C811 C 0.9447 0.45679 0.06734 0.0
N812 N 0.06989 0.50047 0.0704 0.0
N813 N 0.90353 0.49643 0.08576 0.0
H814 H 0.90428 0.38554 0.05466 0.0
H815 H 0.87317 0.4142 0.05627 0.0
H816 H 0.90136 0.52591 0.09088 0.0
H817 H 0.87278 0.46615 0.09105 0.0
H818 H 0.10126 0.52944 0.07713 0.0
H819 H 0.07171 0.47042 0.06907 0.0
H820 H 0.09903 0.58742 0.05889 0.0
H821 H 0.06756 0.61469 0.06854 0.0
C822 C 0.49602 0.02195 0.23029 0.0
C823 C 0.45619 0.97844 0.23482 0.0
C824 C 0.5016 0.94071 0.2233 0.0
C825 C 0.5421 0.98439 0.22329 0.0
N826 N 0.57903 0.06625 0.23275 0.0
N827 N 0.42024 0.89625 0.23922 0.0
C828 C 0.53957 0.02496 0.22836 0.0
C829 C 0.45871 0.93769 0.23215 0.0
N830 N 0.49193 0.06034 0.22773 0.0
N831 N 0.50386 0.90241 0.21322 0.0
H832 H 0.38791 0.89285 0.24334 0.0
H833 H 0.42068 0.86571 0.24293 0.0
H834 H 0.53468 0.90308 0.20739 0.0
H835 H 0.47507 0.87044 0.20797 0.0
H836 H 0.51909 0.09279 0.22051 0.0
H837 H 0.46024 0.05894 0.22893 0.0
H838 H 0.57962 0.09656 0.24053 0.0
H839 H 0.61155 0.06948 0.23251 0.0
C840 C 0.42271 0.4649 0.6792 0.0
C841 C 0.44307 0.44427 0.70357 0.0
C842 C 0.47353 0.42811 0.64035 0.0
C843 C 0.44864 0.44375 0.61594 0.0
N844 N 0.41351 0.49053 0.61016 0.0
N845 N 0.49938 0.42053 0.70981 0.0
C846 C 0.42796 0.46685 0.63489 0.0
C847 C 0.47247 0.43066 0.68481 0.0
N848 N 0.39611 0.47994 0.69797 0.0
N849 N 0.49596 0.40864 0.6212 0.0
H850 H 0.4994 0.42286 0.74253 0.0
H851 H 0.52446 0.41389 0.69844 0.0
H852 H 0.49958 0.4084 0.58872 0.0
H853 H 0.5096 0.39114 0.63721 0.0
H854 H 0.37564 0.48978 0.68149 0.0
H855 H 0.39236 0.48044 0.73041 0.0
H856 H 0.40154 0.51148 0.62184 0.0
H857 H 0.41766 0.49257 0.57756 0.0
C858 C 0.02664 0.45572 0.79365 0.0
C859 C 0.98245 0.42867 0.776 0.0
C860 C 0.94749 0.4188 0.84517 0.0
C861 C 0.99181 0.43733 0.86336 0.0
N862 N 0.074 0.47659 0.8563 0.0
N863 N 0.90033 0.38568 0.78307 0.0
C864 C 0.03163 0.45742 0.83794 0.0
C865 C 0.94258 0.41146 0.80109 0.0
N866 N 0.06353 0.4797 0.7678 0.0
N867 N 0.91024 0.40742 0.87004 0.0
H868 H 0.8957 0.38101 0.75065 0.0
H869 H 0.87016 0.36715 0.80014 0.0
H870 H 0.91241 0.4112 0.90259 0.0
H871 H 0.87775 0.39768 0.85828 0.0
H872 H 0.09629 0.50299 0.77851 0.0
H873 H 0.06038 0.47917 0.73512 0.0
H874 H 0.10419 0.48671 0.8397 0.0
H875 H 0.07872 0.48088 0.88876 0.0
C876 C 0.58818 0.05133 0.96071 0.0
C877 C 0.56493 0.00685 0.94249 0.0
C878 C 0.5446 0.97119 0.01184 0.0
C879 C 0.57035 0.01544 0.02997 0.0
N880 N 0.60397 0.09713 0.02391 0.0
N881 N 0.50976 0.92661 0.94885 0.0
C882 C 0.58768 0.05541 0.005 0.0
C883 C 0.53916 0.96745 0.9676 0.0
N884 N 0.61364 0.08924 0.93626 0.0
N885 N 0.52812 0.9328 0.03649 0.0
H886 H 0.50523 0.92339 0.91631 0.0
H887 H 0.48688 0.89728 0.96541 0.0
H888 H 0.53079 0.93394 0.06915 0.0
H889 H 0.51429 0.89975 0.02451 0.0
H890 H 0.63584 0.12161 0.94843 0.0
H891 H 0.61543 0.08816 0.90366 0.0
H892 H 0.61336 0.12738 0.00752 0.0
H893 H 0.60383 0.10061 0.0565 0.0
C894 C 0.56385 0.54411 0.12938 0.0
C895 C 0.59828 0.58544 0.11036 0.0
C896 C 0.59313 0.62945 0.16792 0.0
C897 C 0.56426 0.58898 0.19036 0.0
N898 N 0.50848 0.50885 0.18633 0.0
N899 N 0.66102 0.66153 0.1263 0.0
C900 C 0.54545 0.54626 0.16927 0.0
C901 C 0.61751 0.62666 0.13365 0.0
N902 N 0.55209 0.50295 0.11123 0.0
N903 N 0.59817 0.67062 0.17977 0.0
H904 H 0.68394 0.65766 0.10711 0.0
H905 H 0.67621 0.69134 0.1444 0.0
H906 H 0.57774 0.67299 0.20317 0.0
H907 H 0.61828 0.70067 0.1627 0.0
H908 H 0.5293 0.47129 0.12438 0.0
H909 H 0.56942 0.50039 0.08517 0.0
H910 H 0.49092 0.47696 0.17185 0.0
H911 H 0.49211 0.51147 0.21314 0.0
C912 C 0.03719 0.58631 0.29785 0.0
C913 C 0.99463 0.56857 0.27657 0.0
C914 C 0.95309 0.54428 0.34316 0.0
C915 C 0.9957 0.56401 0.36447 0.0
N916 N 0.077 0.59199 0.36324 0.0
N917 N 0.91228 0.51988 0.27688 0.0
C918 C 0.0374 0.58093 0.34209 0.0
C919 C 0.95256 0.54366 0.29856 0.0
N920 N 0.07728 0.60951 0.27581 0.0
N921 N 0.9134 0.52795 0.3657 0.0
H922 H 0.91048 0.51933 0.24417 0.0
H923 H 0.88101 0.4977 0.29104 0.0
H924 H 0.9126 0.52567 0.39846 0.0
H925 H 0.88166 0.51856 0.3523 0.0
H926 H 0.10937 0.62834 0.28985 0.0
H927 H 0.07829 0.61152 0.24305 0.0
H928 H 0.10796 0.60097 0.34853 0.0
H929 H 0.07804 0.58832 0.39572 0.0
C930 C 0.45763 1.00038 0.5199 0.0
C931 C 0.41355 0.97981 0.53903 0.0
C932 C 0.38037 0.99043 0.47549 0.0
C933 C 0.42344 0.01021 0.4554 0.0
N934 N 0.50215 0.02772 0.45529 0.0
N935 N 0.3324 0.93219 0.52479 0.0
C936 C 0.46211 0.01353 0.47667 0.0
C937 C 0.37456 0.96732 0.51363 0.0
N938 N 0.4945 0.00597 0.54268 0.0
N939 N 0.34512 0.9944 0.45861 0.0
H940 H 0.32805 0.91017 0.54975 0.0
H941 H 0.30362 0.92107 0.50554 0.0
H942 H 0.34858 0.01272 0.431 0.0
H943 H 0.31414 0.98309 0.4744 0.0
H944 H 0.52835 0.02576 0.53278 0.0
H945 H 0.49075 0.98987 0.57167 0.0
H946 H 0.53044 0.02703 0.46773 0.0
H947 H 0.50633 0.03831 0.42396 0.0
loop_
_geom_bond_atom_site_label_1
_geom_bond_atom_site_label_2
_geom_bond_distance
_geom_bond_site_symmetry_2
_ccdc_geom_bond_type
Co0 O3 1.970 . S
Co0 N17 1.989 . S
Co0 O25 1.967 . S
Co0 O32 1.920 . S
Co1 O4 1.966 . S
Co1 N10 2.022 . S
Co1 N18 1.993 . S
Co1 O26 1.941 . S
C2 O3 1.258 . S
C2 O4 1.263 . S
O3 Co0 1.970 . S
O3 C2 1.258 . S
O4 Co1 1.966 . S
O4 C2 1.263 . S
C5 O6 1.235 . S
C5 O32 1.289 . S
O6 C5 1.235 . S
C7 C9 1.400 . S
C7 N10 1.351 . S
C7 C12 1.501 . S
C8 C9 1.387 . S
C8 N11 1.341 . S
C9 C7 1.400 . S
C9 C8 1.387 . S
N10 Co1 2.022 . S
N10 C7 1.351 . S
N10 N11 1.365 . S
N11 C8 1.341 . S
N11 N10 1.365 . S
N11 H31 0.862 . S
C12 C7 1.501 . S
C12 H13 0.961 . S
C12 H14 0.961 . S
C12 H15 0.960 . S
H13 C12 0.961 . S
H14 C12 0.961 . S
H15 C12 0.960 . S
C16 N17 1.342 . S
C16 C20 1.401 . S
C16 C21 1.499 . S
N17 Co0 1.989 . S
N17 C16 1.342 . S
N17 N18 1.388 . S
N18 Co1 1.993 . S
N18 N17 1.388 . S
N18 C19 1.346 . S
C19 N18 1.346 . S
C19 C20 1.396 . S
C19 C29 1.510 . S
C20 C16 1.401 . S
C20 C19 1.396 . S
C21 C16 1.499 . S
C21 H22 0.959 . S
C21 H23 0.960 . S
C21 H24 0.961 . S
H22 C21 0.959 . S
H23 C21 0.960 . S
H24 C21 0.961 . S
O25 Co0 1.967 . S
O25 C33 1.258 . S
O26 Co1 1.941 . S
O26 C33 1.266 . S
H27 C29 0.959 . S
H28 C29 0.961 . S
C29 C19 1.510 . S
C29 H27 0.959 . S
C29 H28 0.961 . S
C29 H30 0.960 . S
H30 C29 0.960 . S
H31 N11 0.862 . S
O32 Co0 1.920 . S
O32 C5 1.289 . S
C33 O25 1.258 . S
C33 O26 1.266 . S
Co34 O37 1.970 . S
Co34 N51 1.989 . S
Co34 O59 1.967 1_455 S
Co34 O66 1.923 . S
Co35 O38 1.966 . S
Co35 N44 2.022 . S
Co35 N52 1.993 . S
Co35 O60 1.941 1_455 S
C36 O37 1.258 . S
C36 O38 1.263 . S
O37 Co34 1.970 . S
O37 C36 1.258 . S
O38 Co35 1.966 . S
O38 C36 1.263 . S
C39 O40 1.235 . S
C39 O66 1.289 . S
O40 C39 1.235 . S
C41 C43 1.400 . S
C41 N44 1.351 . S
C41 C46 1.501 . S
C42 C43 1.387 . S
C42 N45 1.341 . S
C43 C41 1.400 . S
C43 C42 1.387 . S
N44 Co35 2.022 . S
N44 C41 1.351 . S
N44 N45 1.365 . S
N45 C42 1.341 . S
N45 N44 1.365 . S
N45 H65 0.862 . S
C46 C41 1.501 . S
C46 H47 0.961 . S
C46 H48 0.961 . S
C46 H49 0.960 . S
H47 C46 0.961 . S
H48 C46 0.961 . S
H49 C46 0.960 . S
C50 N51 1.342 . S
C50 C54 1.401 . S
C50 C55 1.499 . S
N51 Co34 1.989 . S
N51 C50 1.342 . S
N51 N52 1.388 . S
N52 Co35 1.993 . S
N52 N51 1.388 . S
N52 C53 1.346 . S
C53 N52 1.346 . S
C53 C54 1.396 . S
C53 C63 1.510 . S
C54 C50 1.401 . S
C54 C53 1.396 . S
C55 C50 1.499 . S
C55 H56 0.959 . S
C55 H57 0.960 . S
C55 H58 0.961 . S
H56 C55 0.959 . S
H57 C55 0.960 . S
H58 C55 0.961 . S
O59 Co34 1.967 1_655 S
O59 C67 1.258 . S
O60 Co35 1.941 1_655 S
O60 C67 1.266 . S
H61 C63 0.959 . S
H62 C63 0.961 . S
C63 C53 1.510 . S
C63 H61 0.959 . S
C63 H62 0.961 . S
C63 H64 0.960 . S
H64 C63 0.960 . S
H65 N45 0.862 . S
O66 Co34 1.923 . S
O66 C39 1.289 . S
C67 O59 1.258 . S
C67 O60 1.266 . S
Co68 O71 1.970 . S
Co68 N85 1.989 . S
Co68 O93 1.967 1_545 S
Co68 O100 1.920 . S
Co69 O72 1.966 . S
Co69 N78 2.022 . S
Co69 N86 1.993 . S
Co69 O94 1.941 . S
C70 O71 1.258 . S
C70 O72 1.263 . S
O71 Co68 1.970 . S
O71 C70 1.258 . S
O72 Co69 1.966 . S
O72 C70 1.263 . S
C73 O74 1.235 . S
C73 O100 1.289 . S
O74 C73 1.235 . S
C75 C77 1.400 . S
C75 N78 1.351 . S
C75 C80 1.501 . S
C76 C77 1.387 . S
C76 N79 1.341 . S
C77 C75 1.400 . S
C77 C76 1.387 . S
N78 Co69 2.022 . S
N78 C75 1.351 . S
N78 N79 1.365 . S
N79 C76 1.341 . S
N79 N78 1.365 . S
N79 H99 0.862 . S
C80 C75 1.501 . S
C80 H81 0.961 . S
C80 H82 0.961 . S
C80 H83 0.960 . S
H81 C80 0.961 . S
H82 C80 0.961 . S
H83 C80 0.960 . S
C84 N85 1.342 . S
C84 C88 1.401 . S
C84 C89 1.499 . S
N85 Co68 1.989 . S
N85 C84 1.342 . S
N85 N86 1.388 . S
N86 Co69 1.993 . S
N86 N85 1.388 . S
N86 C87 1.346 . S
C87 N86 1.346 . S
C87 C88 1.396 . S
C87 C97 1.510 . S
C88 C84 1.401 . S
C88 C87 1.396 . S
C89 C84 1.499 . S
C89 H90 0.959 . S
C89 H91 0.960 . S
C89 H92 0.961 . S
H90 C89 0.959 . S
H91 C89 0.960 . S
H92 C89 0.961 . S
O93 Co68 1.967 1_565 S
O93 C101 1.258 . S
O94 Co69 1.941 . S
O94 C101 1.266 1_545 S
H95 C97 0.959 . S
H96 C97 0.961 . S
C97 C87 1.510 . S
C97 H95 0.959 . S
C97 H96 0.961 . S
C97 H98 0.960 . S
H98 C97 0.960 . S
H99 N79 0.862 . S
O100 Co68 1.920 . S
O100 C73 1.289 . S
C101 O93 1.258 . S
C101 O94 1.266 1_565 S
Co102 O105 1.970 1_554 S
Co102 N119 1.989 . S
Co102 O127 1.967 1_554 S
Co102 O134 1.920 . S
Co103 O106 1.966 . S
Co103 N112 2.022 . S
Co103 N120 1.993 . S
Co103 O128 1.941 . S
C104 O105 1.258 . S
C104 O106 1.263 . S
O105 Co102 1.970 1_556 S
O105 C104 1.258 . S
O106 Co103 1.966 . S
O106 C104 1.263 . S
C107 O108 1.235 . S
C107 O134 1.289 . S
O108 C107 1.235 . S
C109 C111 1.400 . S
C109 N112 1.351 . S
C109 C114 1.501 . S
C110 C111 1.387 . S
C110 N113 1.341 . S
C111 C109 1.400 . S
C111 C110 1.387 . S
N112 Co103 2.022 . S
N112 C109 1.351 . S
N112 N113 1.365 . S
N113 C110 1.341 . S
N113 N112 1.365 . S
N113 H133 0.862 . S
C114 C109 1.501 . S
C114 H115 0.961 . S
C114 H116 0.961 . S
C114 H117 0.960 . S
H115 C114 0.961 . S
H116 C114 0.961 . S
H117 C114 0.960 . S
C118 N119 1.342 . S
C118 C122 1.401 . S
C118 C123 1.499 . S
N119 Co102 1.989 . S
N119 C118 1.342 . S
N119 N120 1.388 1_554 S
N120 Co103 1.993 . S
N120 N119 1.388 1_556 S
N120 C121 1.346 . S
C121 N120 1.346 . S
C121 C122 1.396 1_556 S
C121 C131 1.510 . S
C122 C118 1.401 . S
C122 C121 1.396 1_554 S
C123 C118 1.499 . S
C123 H124 0.959 . S
C123 H125 0.960 . S
C123 H126 0.961 . S
H124 C123 0.959 . S
H125 C123 0.960 . S
H126 C123 0.961 . S
O127 Co102 1.967 1_556 S
O127 C135 1.258 . S
O128 Co103 1.941 . S
O128 C135 1.266 . S
H129 C131 0.959 . S
H130 C131 0.961 . S
C131 C121 1.510 . S
C131 H129 0.959 . S
C131 H130 0.961 . S
C131 H132 0.960 . S
H132 C131 0.960 . S
H133 N113 0.862 . S
O134 Co102 1.920 . S
O134 C107 1.289 . S
C135 O127 1.258 . S
C135 O128 1.266 . S
Co136 O139 1.970 . S
Co136 N153 1.989 . S
Co136 O161 1.967 1_655 S
Co136 O168 1.920 . S
Co137 O140 1.966 . S
Co137 N146 2.022 . S
Co137 N154 1.993 . S
Co137 O162 1.941 . S
C138 O139 1.258 . S
C138 O140 1.263 . S
O139 Co136 1.970 . S
O139 C138 1.258 . S
O140 Co137 1.966 . S
O140 C138 1.263 . S
C141 O142 1.235 . S
C141 O168 1.289 . S
O142 C141 1.235 . S
C143 C145 1.400 1_554 S
C143 N146 1.351 . S
C143 C148 1.501 1_554 S
C144 C145 1.387 . S
C144 N147 1.341 1_556 S
C145 C143 1.400 1_556 S
C145 C144 1.387 . S
N146 Co137 2.022 . S
N146 C143 1.351 . S
N146 N147 1.365 . S
N147 C144 1.341 1_554 S
N147 N146 1.365 . S
N147 H167 0.862 . S
C148 C143 1.501 1_556 S
C148 H149 0.961 1_556 S
C148 H150 0.961 1_556 S
C148 H151 0.960 . S
H149 C148 0.961 1_554 S
H150 C148 0.961 1_554 S
H151 C148 0.960 . S
C152 N153 1.342 . S
C152 C156 1.401 . S
C152 C157 1.499 . S
N153 Co136 1.989 . S
N153 C152 1.342 . S
N153 N154 1.388 . S
N154 Co137 1.993 . S
N154 N153 1.388 . S
N154 C155 1.346 . S
C155 N154 1.346 . S
C155 C156 1.396 . S
C155 C165 1.510 . S
C156 C152 1.401 . S
C156 C155 1.396 . S
C157 C152 1.499 . S
C157 H158 0.959 . S
C157 H159 0.960 . S
C157 H160 0.961 . S
H158 C157 0.959 . S
H159 C157 0.960 . S
H160 C157 0.961 . S
O161 Co136 1.967 1_455 S
O161 C169 1.258 . S
O162 Co137 1.941 . S
O162 C169 1.266 1_655 S
H163 C165 0.959 . S
H164 C165 0.961 . S
C165 C155 1.510 . S
C165 H163 0.959 . S
C165 H164 0.961 . S
C165 H166 0.960 . S
H166 C165 0.960 . S
H167 N147 0.862 . S
O168 Co136 1.920 . S
O168 C141 1.289 . S
C169 O161 1.258 . S
C169 O162 1.266 1_455 S
Co170 O173 1.970 . S
Co170 N187 1.989 . S
Co170 O195 1.967 1_565 S
Co170 O202 1.920 . S
Co171 O174 1.966 . S
Co171 N180 2.022 . S
Co171 N188 1.993 . S
Co171 O196 1.941 . S
C172 O173 1.258 . S
C172 O174 1.263 . S
O173 Co170 1.970 . S
O173 C172 1.258 . S
O174 Co171 1.966 . S
O174 C172 1.263 . S
C175 O176 1.235 . S
C175 O202 1.289 . S
O176 C175 1.235 . S
C177 C179 1.400 . S
C177 N180 1.351 . S
C177 C182 1.501 . S
C178 C179 1.387 . S
C178 N181 1.341 . S
C179 C177 1.400 . S
C179 C178 1.387 . S
N180 Co171 2.022 . S
N180 C177 1.351 . S
N180 N181 1.365 . S
N181 C178 1.341 . S
N181 N180 1.365 . S
N181 H201 0.862 . S
C182 C177 1.501 . S
C182 H183 0.961 . S
C182 H184 0.961 . S
C182 H185 0.960 . S
H183 C182 0.961 . S
H184 C182 0.961 . S
H185 C182 0.960 . S
C186 N187 1.342 . S
C186 C190 1.401 . S
C186 C191 1.499 . S
N187 Co170 1.989 . S
N187 C186 1.342 . S
N187 N188 1.388 . S
N188 Co171 1.993 . S
N188 N187 1.388 . S
N188 C189 1.346 . S
C189 N188 1.346 . S
C189 C190 1.396 . S
C189 C199 1.510 . S
C190 C186 1.401 . S
C190 C189 1.396 . S
C191 C186 1.499 . S
C191 H192 0.959 . S
C191 H193 0.960 . S
C191 H194 0.961 . S
H192 C191 0.959 . S
H193 C191 0.960 . S
H194 C191 0.961 . S
O195 Co170 1.967 1_545 S
O195 C203 1.258 . S
O196 Co171 1.941 . S
O196 C203 1.266 1_565 S
H197 C199 0.959 . S
H198 C199 0.961 . S
C199 C189 1.510 . S
C199 H197 0.959 . S
C199 H198 0.961 . S
C199 H200 0.960 . S
H200 C199 0.960 . S
H201 N181 0.862 . S
O202 Co170 1.920 . S
O202 C175 1.289 . S
C203 O195 1.258 . S
C203 O196 1.266 1_545 S
Co204 O207 1.970 . S
Co204 N221 1.989 . S
Co204 O229 1.967 . S
Co204 O236 1.920 . S
Co205 O208 1.966 . S
Co205 N214 2.022 . S
Co205 N222 1.993 . S
Co205 O230 1.941 . S
C206 O207 1.258 . S
C206 O208 1.263 . S
O207 Co204 1.970 . S
O207 C206 1.258 . S
O208 Co205 1.966 . S
O208 C206 1.263 . S
C209 O210 1.235 . S
C209 O236 1.289 . S
O210 C209 1.235 . S
C211 C213 1.400 . S
C211 N214 1.351 . S
C211 C216 1.501 . S
C212 C213 1.387 . S
C212 N215 1.341 . S
C213 C211 1.400 . S
C213 C212 1.387 . S
N214 Co205 2.022 . S
N214 C211 1.351 . S
N214 N215 1.365 . S
N215 C212 1.341 . S
N215 N214 1.365 . S
N215 H235 0.862 . S
C216 C211 1.501 . S
C216 H217 0.961 . S
C216 H218 0.961 . S
C216 H219 0.960 . S
H217 C216 0.961 . S
H218 C216 0.961 . S
H219 C216 0.960 . S
C220 N221 1.342 . S
C220 C224 1.401 . S
C220 C225 1.499 . S
N221 Co204 1.989 . S
N221 C220 1.342 . S
N221 N222 1.388 . S
N222 Co205 1.993 . S
N222 N221 1.388 . S
N222 C223 1.346 . S
C223 N222 1.346 . S
C223 C224 1.396 . S
C223 C233 1.510 . S
C224 C220 1.401 . S
C224 C223 1.396 . S
C225 C220 1.499 . S
C225 H226 0.959 . S
C225 H227 0.960 . S
C225 H228 0.961 . S
H226 C225 0.959 . S
H227 C225 0.960 . S
H228 C225 0.961 . S
O229 Co204 1.967 . S
O229 C237 1.258 . S
O230 Co205 1.941 . S
O230 C237 1.266 . S
H231 C233 0.959 . S
H232 C233 0.961 . S
C233 C223 1.510 . S
C233 H231 0.959 . S
C233 H232 0.961 . S
C233 H234 0.960 . S
H234 C233 0.960 . S
H235 N215 0.862 . S
O236 Co204 1.920 . S
O236 C209 1.289 . S
C237 O229 1.258 . S
C237 O230 1.266 . S
Co238 O241 1.970 . S
Co238 N255 1.989 . S
Co238 O263 1.967 1_455 S
Co238 O270 1.921 . S
Co239 O242 1.966 . S
Co239 N248 2.022 . S
Co239 N256 1.993 . S
Co239 O264 1.941 1_455 S
C240 O241 1.258 . S
C240 O242 1.263 . S
O241 Co238 1.970 . S
O241 C240 1.258 . S
O242 Co239 1.966 . S
O242 C240 1.263 . S
C243 O244 1.235 . S
C243 O270 1.293 . S
O244 C243 1.235 . S
C245 C247 1.400 . S
C245 N248 1.351 . S
C245 C250 1.501 . S
C246 C247 1.387 . S
C246 N249 1.341 . S
C247 C245 1.400 . S
C247 C246 1.387 . S
N248 Co239 2.022 . S
N248 C245 1.351 . S
N248 N249 1.365 . S
N249 C246 1.341 . S
N249 N248 1.365 . S
N249 H269 0.862 . S
C250 C245 1.501 . S
C250 H251 0.961 . S
C250 H252 0.961 . S
C250 H253 0.960 . S
H251 C250 0.961 . S
H252 C250 0.961 . S
H253 C250 0.960 . S
C254 N255 1.342 . S
C254 C258 1.401 . S
C254 C259 1.499 . S
N255 Co238 1.989 . S
N255 C254 1.342 . S
N255 N256 1.388 . S
N256 Co239 1.993 . S
N256 N255 1.388 . S
N256 C257 1.346 . S
C257 N256 1.346 . S
C257 C258 1.396 . S
C257 C267 1.510 . S
C258 C254 1.401 . S
C258 C257 1.396 . S
C259 C254 1.499 . S
C259 H260 0.959 . S
C259 H261 0.960 . S
C259 H262 0.961 . S
H260 C259 0.959 . S
H261 C259 0.960 . S
H262 C259 0.961 . S
O263 Co238 1.967 1_655 S
O263 C271 1.258 . S
O264 Co239 1.941 1_655 S
O264 C271 1.266 . S
H265 C267 0.959 . S
H266 C267 0.961 . S
C267 C257 1.510 . S
C267 H265 0.959 . S
C267 H266 0.961 . S
C267 H268 0.960 . S
H268 C267 0.960 . S
H269 N249 0.862 . S
O270 Co238 1.921 . S
O270 C243 1.293 . S
C271 O263 1.258 . S
C271 O264 1.266 . S
Co272 O275 1.970 . S
Co272 N289 1.989 . S
Co272 O297 1.967 1_545 S
Co272 O304 1.920 . S
Co273 O276 1.966 . S
Co273 N282 2.022 . S
Co273 N290 1.993 . S
Co273 O298 1.941 . S
C274 O275 1.258 . S
C274 O276 1.263 . S
O275 Co272 1.970 . S
O275 C274 1.258 . S
O276 Co273 1.966 . S
O276 C274 1.263 . S
C277 O278 1.235 . S
C277 O304 1.289 . S
O278 C277 1.235 . S
C279 C281 1.400 . S
C279 N282 1.351 . S
C279 C284 1.501 . S
C280 C281 1.387 . S
C280 N283 1.341 . S
C281 C279 1.400 . S
C281 C280 1.387 . S
N282 Co273 2.022 . S
N282 C279 1.351 . S
N282 N283 1.365 . S
N283 C280 1.341 . S
N283 N282 1.365 . S
N283 H303 0.862 . S
C284 C279 1.501 . S
C284 H285 0.961 . S
C284 H286 0.961 . S
C284 H287 0.960 . S
H285 C284 0.961 . S
H286 C284 0.961 . S
H287 C284 0.960 . S
C288 N289 1.342 . S
C288 C292 1.401 . S
C288 C293 1.499 . S
N289 Co272 1.989 . S
N289 C288 1.342 . S
N289 N290 1.388 . S
N290 Co273 1.993 . S
N290 N289 1.388 . S
N290 C291 1.346 . S
C291 N290 1.346 . S
C291 C292 1.396 . S
C291 C301 1.510 . S
C292 C288 1.401 . S
C292 C291 1.396 . S
C293 C288 1.499 . S
C293 H294 0.959 . S
C293 H295 0.960 . S
C293 H296 0.961 . S
H294 C293 0.959 . S
H295 C293 0.960 . S
H296 C293 0.961 . S
O297 Co272 1.967 1_565 S
O297 C305 1.258 . S
O298 Co273 1.941 . S
O298 C305 1.266 1_545 S
H299 C301 0.959 . S
H300 C301 0.961 . S
C301 C291 1.510 . S
C301 H299 0.959 . S
C301 H300 0.961 . S
C301 H302 0.960 . S
H302 C301 0.960 . S
H303 N283 0.862 . S
O304 Co272 1.920 . S
O304 C277 1.289 . S
C305 O297 1.258 . S
C305 O298 1.266 1_565 S
Co306 O309 1.970 . S
Co306 N323 1.989 . S
Co306 O331 1.967 . S
Co306 O338 1.920 . S
Co307 O310 1.966 . S
Co307 N316 2.022 . S
Co307 N324 1.993 . S
Co307 O332 1.941 . S
C308 O309 1.258 . S
C308 O310 1.263 . S
O309 Co306 1.970 . S
O309 C308 1.258 . S
O310 Co307 1.966 . S
O310 C308 1.263 . S
C311 O312 1.235 . S
C311 O338 1.289 . S
O312 C311 1.235 . S
C313 C315 1.400 1_556 S
C313 N316 1.351 . S
C313 C318 1.501 1_556 S
C314 C315 1.387 . S
C314 N317 1.341 1_554 S
C315 C313 1.400 1_554 S
C315 C314 1.387 . S
N316 Co307 2.022 . S
N316 C313 1.351 . S
N316 N317 1.365 . S
N317 C314 1.341 1_556 S
N317 N316 1.365 . S
N317 H337 0.862 . S
C318 C313 1.501 1_554 S
C318 H319 0.961 1_554 S
C318 H320 0.961 1_554 S
C318 H321 0.960 . S
H319 C318 0.961 1_556 S
H320 C318 0.961 1_556 S
H321 C318 0.960 . S
C322 N323 1.342 . S
C322 C326 1.401 . S
C322 C327 1.499 . S
N323 Co306 1.989 . S
N323 C322 1.342 . S
N323 N324 1.388 . S
N324 Co307 1.993 . S
N324 N323 1.388 . S
N324 C325 1.346 . S
C325 N324 1.346 . S
C325 C326 1.396 . S
C325 C335 1.510 . S
C326 C322 1.401 . S
C326 C325 1.396 . S
C327 C322 1.499 . S
C327 H328 0.959 . S
C327 H329 0.960 . S
C327 H330 0.961 . S
H328 C327 0.959 . S
H329 C327 0.960 . S
H330 C327 0.961 . S
O331 Co306 1.967 . S
O331 C339 1.258 . S
O332 Co307 1.941 . S
O332 C339 1.266 . S
H333 C335 0.959 . S
H334 C335 0.961 . S
C335 C325 1.510 . S
C335 H333 0.959 . S
C335 H334 0.961 . S
C335 H336 0.960 . S
H336 C335 0.960 . S
H337 N317 0.862 . S
O338 Co306 1.920 . S
O338 C311 1.289 . S
C339 O331 1.258 . S
C339 O332 1.266 . S
Co340 O343 1.970 1_556 S
Co340 N357 1.989 . S
Co340 O365 1.967 1_656 S
Co340 O372 1.920 . S
Co341 O344 1.966 . S
Co341 N350 2.022 . S
Co341 N358 1.993 . S
Co341 O366 1.941 . S
C342 O343 1.258 . S
C342 O344 1.263 . S
O343 Co340 1.970 1_554 S
O343 C342 1.258 . S
O344 Co341 1.966 . S
O344 C342 1.263 . S
C345 O346 1.235 . S
C345 O372 1.289 . S
O346 C345 1.235 . S
C347 C349 1.400 . S
C347 N350 1.351 . S
C347 C352 1.501 . S
C348 C349 1.387 . S
C348 N351 1.341 . S
C349 C347 1.400 . S
C349 C348 1.387 . S
N350 Co341 2.022 . S
N350 C347 1.351 . S
N350 N351 1.365 . S
N351 C348 1.341 . S
N351 N350 1.365 . S
N351 H371 0.862 . S
C352 C347 1.501 . S
C352 H353 0.961 . S
C352 H354 0.961 . S
C352 H355 0.960 . S
H353 C352 0.961 . S
H354 C352 0.961 . S
H355 C352 0.960 . S
C356 N357 1.342 . S
C356 C360 1.401 . S
C356 C361 1.499 . S
N357 Co340 1.989 . S
N357 C356 1.342 . S
N357 N358 1.388 1_556 S
N358 Co341 1.993 . S
N358 N357 1.388 1_554 S
N358 C359 1.346 . S
C359 N358 1.346 . S
C359 C360 1.396 1_554 S
C359 C369 1.510 . S
C360 C356 1.401 . S
C360 C359 1.396 1_556 S
C361 C356 1.499 . S
C361 H362 0.959 . S
C361 H363 0.960 . S
C361 H364 0.961 . S
H362 C361 0.959 . S
H363 C361 0.960 . S
H364 C361 0.961 . S
O365 Co340 1.967 1_454 S
O365 C373 1.258 . S
O366 Co341 1.941 . S
O366 C373 1.266 1_655 S
H367 C369 0.959 . S
H368 C369 0.961 . S
C369 C359 1.510 . S
C369 H367 0.959 . S
C369 H368 0.961 . S
C369 H370 0.960 . S
H370 C369 0.960 . S
H371 N351 0.862 . S
O372 Co340 1.920 . S
O372 C345 1.289 . S
C373 O365 1.258 . S
C373 O366 1.266 1_455 S
Co374 O377 1.970 . S
Co374 N391 1.989 . S
Co374 O399 1.967 1_565 S
Co374 O406 1.920 . S
Co375 O378 1.966 . S
Co375 N384 2.022 . S
Co375 N392 1.993 . S
Co375 O400 1.941 . S
C376 O377 1.258 . S
C376 O378 1.263 . S
O377 Co374 1.970 . S
O377 C376 1.258 . S
O378 Co375 1.966 . S
O378 C376 1.263 . S
C379 O380 1.235 . S
C379 O406 1.289 . S
O380 C379 1.235 . S
C381 C383 1.400 . S
C381 N384 1.351 . S
C381 C386 1.501 . S
C382 C383 1.387 . S
C382 N385 1.341 . S
C383 C381 1.400 . S
C383 C382 1.387 . S
N384 Co375 2.022 . S
N384 C381 1.351 . S
N384 N385 1.365 . S
N385 C382 1.341 . S
N385 N384 1.365 . S
N385 H405 0.862 . S
C386 C381 1.501 . S
C386 H387 0.961 . S
C386 H388 0.961 . S
C386 H389 0.960 . S
H387 C386 0.961 . S
H388 C386 0.961 . S
H389 C386 0.960 . S
C390 N391 1.342 . S
C390 C394 1.401 . S
C390 C395 1.499 . S
N391 Co374 1.989 . S
N391 C390 1.342 . S
N391 N392 1.388 . S
N392 Co375 1.993 . S
N392 N391 1.388 . S
N392 C393 1.346 . S
C393 N392 1.346 . S
C393 C394 1.396 . S
C393 C403 1.510 . S
C394 C390 1.401 . S
C394 C393 1.396 . S
C395 C390 1.499 . S
C395 H396 0.959 . S
C395 H397 0.960 . S
C395 H398 0.961 . S
H396 C395 0.959 . S
H397 C395 0.960 . S
H398 C395 0.961 . S
O399 Co374 1.967 1_545 S
O399 C407 1.258 . S
O400 Co375 1.941 . S
O400 C407 1.266 1_565 S
H401 C403 0.959 . S
H402 C403 0.961 . S
C403 C393 1.510 . S
C403 H401 0.959 . S
C403 H402 0.961 . S
C403 H404 0.960 . S
H404 C403 0.960 . S
H405 N385 0.862 . S
O406 Co374 1.920 . S
O406 C379 1.289 . S
C407 O399 1.258 . S
C407 O400 1.266 1_545 S
C408 C409 1.363 . S
C408 C414 1.379 . S
C408 N416 1.356 . S
C409 C408 1.363 . S
C409 C415 1.363 . S
C410 C411 1.363 . S
C410 C415 1.379 . S
C410 N417 1.356 . S
C411 C410 1.363 . S
C411 C414 1.363 . S
N412 C414 1.356 . S
N412 H424 0.984 . S
N412 H425 0.985 . S
N413 C415 1.356 . S
N413 H418 0.984 . S
N413 H419 0.985 . S
C414 C408 1.379 . S
C414 C411 1.363 . S
C414 N412 1.356 . S
C415 C409 1.363 . S
C415 C410 1.379 . S
C415 N413 1.356 . S
N416 C408 1.356 . S
N416 H422 0.984 . S
N416 H423 0.984 . S
N417 C410 1.356 . S
N417 H420 0.984 . S
N417 H421 0.985 . S
H418 N413 0.984 . S
H419 N413 0.985 . S
H420 N417 0.984 . S
H421 N417 0.985 . S
H422 N416 0.984 . S
H423 N416 0.984 . S
H424 N412 0.984 . S
H425 N412 0.985 . S
C426 C427 1.363 . S
C426 C432 1.379 . S
C426 N434 1.356 . S
C427 C426 1.363 . S
C427 C433 1.363 . S
C428 C429 1.363 . S
C428 C433 1.379 . S
C428 N435 1.356 . S
C429 C428 1.363 . S
C429 C432 1.363 . S
N430 C432 1.356 . S
N430 H442 0.984 . S
N430 H443 0.985 . S
N431 C433 1.356 . S
N431 H436 0.984 . S
N431 H437 0.985 . S
C432 C426 1.379 . S
C432 C429 1.363 . S
C432 N430 1.356 . S
C433 C427 1.363 . S
C433 C428 1.379 . S
C433 N431 1.356 . S
N434 C426 1.356 . S
N434 H440 0.984 . S
N434 H441 0.984 . S
N435 C428 1.356 . S
N435 H438 0.984 . S
N435 H439 0.985 . S
H436 N431 0.984 . S
H437 N431 0.985 . S
H438 N435 0.984 . S
H439 N435 0.985 . S
H440 N434 0.984 . S
H441 N434 0.984 . S
H442 N430 0.984 . S
H443 N430 0.985 . S
C444 C445 1.363 . S
C444 C450 1.379 . S
C444 N452 1.356 . S
C445 C444 1.363 . S
C445 C451 1.363 . S
C446 C447 1.363 . S
C446 C451 1.379 . S
C446 N453 1.356 . S
C447 C446 1.363 . S
C447 C450 1.363 . S
N448 C450 1.356 . S
N448 H460 0.984 . S
N448 H461 0.985 . S
N449 C451 1.356 . S
N449 H454 0.984 . S
N449 H455 0.985 . S
C450 C444 1.379 . S
C450 C447 1.363 . S
C450 N448 1.356 . S
C451 C445 1.363 . S
C451 C446 1.379 . S
C451 N449 1.356 . S
N452 C444 1.356 . S
N452 H458 0.984 . S
N452 H459 0.984 . S
N453 C446 1.356 . S
N453 H456 0.984 1_556 S
N453 H457 0.985 1_556 S
H454 N449 0.984 . S
H455 N449 0.985 . S
H456 N453 0.984 1_554 S
H457 N453 0.985 1_554 S
H458 N452 0.984 . S
H459 N452 0.984 . S
H460 N448 0.984 . S
H461 N448 0.985 . S
C462 C463 1.363 . S
C462 C468 1.379 . S
C462 N470 1.356 . S
C463 C462 1.363 . S
C463 C469 1.363 . S
C464 C465 1.363 . S
C464 C469 1.379 . S
C464 N471 1.356 . S
C465 C464 1.363 . S
C465 C468 1.363 . S
N466 C468 1.356 . S
N466 H478 0.984 . S
N466 H479 0.985 . S
N467 C469 1.356 . S
N467 H472 0.984 1_554 S
N467 H473 0.985 . S
C468 C462 1.379 . S
C468 C465 1.363 . S
C468 N466 1.356 . S
C469 C463 1.363 . S
C469 C464 1.379 . S
C469 N467 1.356 . S
N470 C462 1.356 . S
N470 H476 0.984 . S
N470 H477 0.984 . S
N471 C464 1.356 . S
N471 H474 0.984 . S
N471 H475 0.985 . S
H472 N467 0.984 1_556 S
H473 N467 0.985 . S
H474 N471 0.984 . S
H475 N471 0.985 . S
H476 N470 0.984 . S
H477 N470 0.984 . S
H478 N466 0.984 . S
H479 N466 0.985 . S
C480 C481 1.363 . S
C480 C486 1.379 . S
C480 N488 1.356 . S
C481 C480 1.363 . S
C481 C487 1.363 . S
C482 C483 1.363 . S
C482 C487 1.379 . S
C482 N489 1.356 . S
C483 C482 1.363 . S
C483 C486 1.363 . S
N484 C486 1.356 . S
N484 H496 0.984 . S
N484 H497 0.985 . S
N485 C487 1.356 . S
N485 H490 0.984 . S
N485 H491 0.985 . S
C486 C480 1.379 . S
C486 C483 1.363 . S
C486 N484 1.356 . S
C487 C481 1.363 . S
C487 C482 1.379 . S
C487 N485 1.356 . S
N488 C480 1.356 . S
N488 H494 0.984 . S
N488 H495 0.984 . S
N489 C482 1.356 . S
N489 H492 0.984 . S
N489 H493 0.985 . S
H490 N485 0.984 . S
H491 N485 0.985 . S
H492 N489 0.984 . S
H493 N489 0.985 . S
H494 N488 0.984 . S
H495 N488 0.984 . S
H496 N484 0.984 . S
H497 N484 0.985 . S
C498 C499 1.363 . S
C498 C504 1.379 . S
C498 N506 1.356 . S
C499 C498 1.363 . S
C499 C505 1.363 . S
C500 C501 1.363 . S
C500 C505 1.379 . S
C500 N507 1.356 . S
C501 C500 1.363 . S
C501 C504 1.363 . S
N502 C504 1.356 . S
N502 H514 0.984 . S
N502 H515 0.985 . S
N503 C505 1.356 . S
N503 H508 0.984 . S
N503 H509 0.985 . S
C504 C498 1.379 . S
C504 C501 1.363 . S
C504 N502 1.356 . S
C505 C499 1.363 . S
C505 C500 1.379 . S
C505 N503 1.356 . S
N506 C498 1.356 . S
N506 H512 0.984 . S
N506 H513 0.984 . S
N507 C500 1.356 . S
N507 H510 0.984 . S
N507 H511 0.985 . S
H508 N503 0.984 . S
H509 N503 0.985 . S
H510 N507 0.984 . S
H511 N507 0.985 . S
H512 N506 0.984 . S
H513 N506 0.984 . S
H514 N502 0.984 . S
H515 N502 0.985 . S
C516 C517 1.363 . S
C516 C522 1.379 . S
C516 N524 1.356 . S
C517 C516 1.363 . S
C517 C523 1.363 . S
C518 C519 1.363 . S
C518 C523 1.379 . S
C518 N525 1.356 . S
C519 C518 1.363 . S
C519 C522 1.363 . S
N520 C522 1.356 . S
N520 H532 0.984 . S
N520 H533 0.985 . S
N521 C523 1.356 . S
N521 H526 0.984 . S
N521 H527 0.985 . S
C522 C516 1.379 . S
C522 C519 1.363 . S
C522 N520 1.356 . S
C523 C517 1.363 . S
C523 C518 1.379 . S
C523 N521 1.356 . S
N524 C516 1.356 . S
N524 H530 0.984 . S
N524 H531 0.984 . S
N525 C518 1.356 . S
N525 H528 0.984 . S
N525 H529 0.985 . S
H526 N521 0.984 . S
H527 N521 0.985 . S
H528 N525 0.984 . S
H529 N525 0.985 . S
H530 N524 0.984 . S
H531 N524 0.984 . S
H532 N520 0.984 . S
H533 N520 0.985 . S
C534 C535 1.363 . S
C534 C540 1.379 . S
C534 N542 1.356 . S
C535 C534 1.363 . S
C535 C541 1.363 . S
C536 C537 1.363 . S
C536 C541 1.379 . S
C536 N543 1.356 . S
C537 C536 1.363 . S
C537 C540 1.363 . S
N538 C540 1.356 . S
N538 H550 0.984 . S
N538 H551 0.985 . S
N539 C541 1.356 . S
N539 H544 0.984 . S
N539 H545 0.985 . S
C540 C534 1.379 . S
C540 C537 1.363 . S
C540 N538 1.356 . S
C541 C535 1.363 . S
C541 C536 1.379 . S
C541 N539 1.356 . S
N542 C534 1.356 . S
N542 H548 0.984 . S
N542 H549 0.984 . S
N543 C536 1.356 . S
N543 H546 0.984 . S
N543 H547 0.985 . S
H544 N539 0.984 . S
H545 N539 0.985 . S
H546 N543 0.984 . S
H547 N543 0.985 . S
H548 N542 0.984 . S
H549 N542 0.984 . S
H550 N538 0.984 . S
H551 N538 0.985 . S
C552 C553 1.363 . S
C552 C558 1.379 . S
C552 N560 1.356 . S
C553 C552 1.363 . S
C553 C559 1.363 . S
C554 C555 1.363 . S
C554 C559 1.379 . S
C554 N561 1.356 . S
C555 C554 1.363 . S
C555 C558 1.363 . S
N556 C558 1.356 . S
N556 H568 0.984 . S
N556 H569 0.985 . S
N557 C559 1.356 . S
N557 H562 0.984 . S
N557 H563 0.985 . S
C558 C552 1.379 . S
C558 C555 1.363 . S
C558 N556 1.356 . S
C559 C553 1.363 . S
C559 C554 1.379 . S
C559 N557 1.356 . S
N560 C552 1.356 . S
N560 H566 0.984 . S
N560 H567 0.984 . S
N561 C554 1.356 . S
N561 H564 0.984 . S
N561 H565 0.985 . S
H562 N557 0.984 . S
H563 N557 0.985 . S
H564 N561 0.984 . S
H565 N561 0.985 . S
H566 N560 0.984 . S
H567 N560 0.984 . S
H568 N556 0.984 . S
H569 N556 0.985 . S
C570 C571 1.363 . S
C570 C576 1.379 . S
C570 N578 1.356 . S
C571 C570 1.363 . S
C571 C577 1.363 . S
C572 C573 1.363 . S
C572 C577 1.379 . S
C572 N579 1.356 . S
C573 C572 1.363 . S
C573 C576 1.363 . S
N574 C576 1.356 . S
N574 H586 0.984 . S
N574 H587 0.985 . S
N575 C577 1.356 . S
N575 H580 0.984 . S
N575 H581 0.985 . S
C576 C570 1.379 . S
C576 C573 1.363 . S
C576 N574 1.356 . S
C577 C571 1.363 . S
C577 C572 1.379 . S
C577 N575 1.356 . S
N578 C570 1.356 . S
N578 H584 0.984 . S
N578 H585 0.984 . S
N579 C572 1.356 . S
N579 H582 0.984 . S
N579 H583 0.985 . S
H580 N575 0.984 . S
H581 N575 0.985 . S
H582 N579 0.984 . S
H583 N579 0.985 . S
H584 N578 0.984 . S
H585 N578 0.984 . S
H586 N574 0.984 . S
H587 N574 0.985 . S
C588 C589 1.363 . S
C588 C594 1.379 . S
C588 N596 1.356 . S
C589 C588 1.363 . S
C589 C595 1.363 . S
C590 C591 1.363 . S
C590 C595 1.379 . S
C590 N597 1.356 . S
C591 C590 1.363 . S
C591 C594 1.363 . S
N592 C594 1.367 . S
N592 H604 0.973 1_556 S
N592 H605 0.986 . S
N593 C595 1.356 . S
N593 H598 0.984 . S
N593 H599 0.985 . S
C594 C588 1.379 . S
C594 C591 1.363 . S
C594 N592 1.367 . S
C595 C589 1.363 . S
C595 C590 1.379 . S
C595 N593 1.356 . S
N596 C588 1.356 . S
N596 H602 0.984 1_556 S
N596 H603 0.984 . S
N597 C590 1.356 . S
N597 H600 0.984 . S
N597 H601 0.985 . S
H598 N593 0.984 . S
H599 N593 0.985 . S
H600 N597 0.984 . S
H601 N597 0.985 . S
H602 N596 0.984 1_554 S
H603 N596 0.984 . S
H604 N592 0.973 1_554 S
H605 N592 0.986 . S
C606 C607 1.363 . S
C606 C612 1.379 . S
C606 N614 1.356 . S
C607 C606 1.363 . S
C607 C613 1.363 . S
C608 C609 1.363 . S
C608 C613 1.379 . S
C608 N615 1.356 . S
C609 C608 1.363 . S
C609 C612 1.363 . S
N610 C612 1.356 . S
N610 H622 0.984 . S
N610 H623 0.985 . S
N611 C613 1.356 . S
N611 H616 0.984 . S
N611 H617 0.985 . S
C612 C606 1.379 . S
C612 C609 1.363 . S
C612 N610 1.356 . S
C613 C607 1.363 . S
C613 C608 1.379 . S
C613 N611 1.356 . S
N614 C606 1.356 . S
N614 H620 0.984 . S
N614 H621 0.984 . S
N615 C608 1.356 . S
N615 H618 0.984 . S
N615 H619 0.985 . S
H616 N611 0.984 . S
H617 N611 0.985 . S
H618 N615 0.984 . S
H619 N615 0.985 . S
H620 N614 0.984 . S
H621 N614 0.984 . S
H622 N610 0.984 . S
H623 N610 0.985 . S
C624 C625 1.363 . S
C624 C630 1.379 . S
C624 N632 1.356 . S
C625 C624 1.363 . S
C625 C631 1.363 . S
C626 C627 1.363 . S
C626 C631 1.379 . S
C626 N633 1.356 . S
C627 C626 1.363 . S
C627 C630 1.363 . S
N628 C630 1.356 . S
N628 H640 0.984 . S
N628 H641 0.985 . S
N629 C631 1.356 . S
N629 H634 0.984 . S
N629 H635 0.985 . S
C630 C624 1.379 . S
C630 C627 1.363 . S
C630 N628 1.356 . S
C631 C625 1.363 . S
C631 C626 1.379 . S
C631 N629 1.356 . S
N632 C624 1.356 . S
N632 H638 0.984 . S
N632 H639 0.984 . S
N633 C626 1.356 . S
N633 H636 0.984 . S
N633 H637 0.985 . S
H634 N629 0.984 . S
H635 N629 0.985 . S
H636 N633 0.984 . S
H637 N633 0.985 . S
H638 N632 0.984 . S
H639 N632 0.984 . S
H640 N628 0.984 . S
H641 N628 0.985 . S
C642 C643 1.363 . S
C642 C648 1.379 . S
C642 N650 1.356 . S
C643 C642 1.363 . S
C643 C649 1.363 . S
C644 C645 1.363 . S
C644 C649 1.379 . S
C644 N651 1.356 . S
C645 C644 1.363 . S
C645 C648 1.363 . S
N646 C648 1.356 . S
N646 H658 0.984 . S
N646 H659 0.985 . S
N647 C649 1.356 . S
N647 H652 0.984 . S
N647 H653 0.985 . S
C648 C642 1.379 . S
C648 C645 1.363 . S
C648 N646 1.356 . S
C649 C643 1.363 . S
C649 C644 1.379 . S
C649 N647 1.356 . S
N650 C642 1.356 . S
N650 H656 0.984 . S
N650 H657 0.984 . S
N651 C644 1.356 . S
N651 H654 0.984 . S
N651 H655 0.985 . S
H652 N647 0.984 . S
H653 N647 0.985 . S
H654 N651 0.984 . S
H655 N651 0.985 . S
H656 N650 0.984 . S
H657 N650 0.984 . S
H658 N646 0.984 . S
H659 N646 0.985 . S
C660 C661 1.363 . S
C660 C666 1.379 . S
C660 N668 1.356 . S
C661 C660 1.363 . S
C661 C667 1.363 . S
C662 C663 1.363 . S
C662 C667 1.379 . S
C662 N669 1.356 . S
C663 C662 1.363 . S
C663 C666 1.363 . S
N664 C666 1.356 . S
N664 H676 0.984 . S
N664 H677 0.985 . S
N665 C667 1.356 . S
N665 H670 0.984 . S
N665 H671 0.985 . S
C666 C660 1.379 . S
C666 C663 1.363 . S
C666 N664 1.356 . S
C667 C661 1.363 . S
C667 C662 1.379 . S
C667 N665 1.356 . S
N668 C660 1.356 . S
N668 H674 0.984 . S
N668 H675 0.984 . S
N669 C662 1.356 . S
N669 H672 0.984 . S
N669 H673 0.985 . S
H670 N665 0.984 . S
H671 N665 0.985 . S
H672 N669 0.984 . S
H673 N669 0.985 . S
H674 N668 0.984 . S
H675 N668 0.984 . S
H676 N664 0.984 . S
H677 N664 0.985 . S
C678 C679 1.363 . S
C678 C684 1.379 . S
C678 N686 1.356 . S
C679 C678 1.363 . S
C679 C685 1.363 . S
C680 C681 1.363 . S
C680 C685 1.379 . S
C680 N687 1.359 . S
C681 C680 1.363 . S
C681 C684 1.363 . S
N682 C684 1.356 . S
N682 H694 0.984 . S
N682 H695 0.985 . S
N683 C685 1.356 . S
N683 H688 0.984 . S
N683 H689 0.985 1_554 S
C684 C678 1.379 . S
C684 C681 1.363 . S
C684 N682 1.356 . S
C685 C679 1.363 . S
C685 C680 1.379 . S
C685 N683 1.356 . S
N686 C678 1.356 . S
N686 H692 0.984 . S
N686 H693 0.984 . S
N687 C680 1.359 . S
N687 H690 0.985 . S
N687 H691 0.981 1_554 S
H688 N683 0.984 . S
H689 N683 0.985 1_556 S
H690 N687 0.985 . S
H691 N687 0.981 1_556 S
H692 N686 0.984 . S
H693 N686 0.984 . S
H694 N682 0.984 . S
H695 N682 0.985 . S
C696 C697 1.363 . S
C696 C702 1.379 . S
C696 N704 1.356 . S
C697 C696 1.363 . S
C697 C703 1.363 . S
C698 C699 1.363 . S
C698 C703 1.379 . S
C698 N705 1.356 . S
C699 C698 1.363 . S
C699 C702 1.363 . S
N700 C702 1.356 . S
N700 H712 0.984 . S
N700 H713 0.985 . S
N701 C703 1.356 . S
N701 H706 0.984 . S
N701 H707 0.985 . S
C702 C696 1.379 . S
C702 C699 1.363 . S
C702 N700 1.356 . S
C703 C697 1.363 . S
C703 C698 1.379 . S
C703 N701 1.356 . S
N704 C696 1.356 . S
N704 H710 0.984 . S
N704 H711 0.984 . S
N705 C698 1.356 . S
N705 H708 0.984 . S
N705 H709 0.985 . S
H706 N701 0.984 . S
H707 N701 0.985 . S
H708 N705 0.984 . S
H709 N705 0.985 . S
H710 N704 0.984 . S
H711 N704 0.984 . S
H712 N700 0.984 . S
H713 N700 0.985 . S
C714 C715 1.363 . S
C714 C720 1.379 . S
C714 N722 1.356 . S
C715 C714 1.363 . S
C715 C721 1.363 . S
C716 C717 1.363 . S
C716 C721 1.379 . S
C716 N723 1.356 . S
C717 C716 1.363 . S
C717 C720 1.363 . S
N718 C720 1.356 . S
N718 H730 0.984 . S
N718 H731 0.985 . S
N719 C721 1.356 . S
N719 H724 0.984 . S
N719 H725 0.985 . S
C720 C714 1.379 . S
C720 C717 1.363 . S
C720 N718 1.356 . S
C721 C715 1.363 . S
C721 C716 1.379 . S
C721 N719 1.356 . S
N722 C714 1.356 . S
N722 H728 0.984 . S
N722 H729 0.984 . S
N723 C716 1.356 . S
N723 H726 0.984 . S
N723 H727 0.985 . S
H724 N719 0.984 . S
H725 N719 0.985 . S
H726 N723 0.984 . S
H727 N723 0.985 . S
H728 N722 0.984 . S
H729 N722 0.984 . S
H730 N718 0.984 . S
H731 N718 0.985 . S
C732 C733 1.363 . S
C732 C738 1.379 . S
C732 N740 1.356 . S
C733 C732 1.363 . S
C733 C739 1.363 . S
C734 C735 1.363 . S
C734 C739 1.379 . S
C734 N741 1.356 . S
C735 C734 1.363 . S
C735 C738 1.363 . S
N736 C738 1.356 . S
N736 H748 0.984 . S
N736 H749 0.985 . S
N737 C739 1.356 . S
N737 H742 0.984 . S
N737 H743 0.985 . S
C738 C732 1.379 . S
C738 C735 1.363 . S
C738 N736 1.356 . S
C739 C733 1.363 . S
C739 C734 1.379 . S
C739 N737 1.356 . S
N740 C732 1.356 . S
N740 H746 0.984 . S
N740 H747 0.984 . S
N741 C734 1.356 . S
N741 H744 0.984 . S
N741 H745 0.985 . S
H742 N737 0.984 . S
H743 N737 0.985 . S
H744 N741 0.984 . S
H745 N741 0.985 . S
H746 N740 0.984 . S
H747 N740 0.984 . S
H748 N736 0.984 . S
H749 N736 0.985 . S
C750 C751 1.363 . S
C750 C756 1.379 . S
C750 N758 1.356 . S
C751 C750 1.363 . S
C751 C757 1.363 . S
C752 C753 1.363 . S
C752 C757 1.379 . S
C752 N759 1.356 1_455 S
C753 C752 1.363 . S
C753 C756 1.363 . S
N754 C756 1.356 . S
N754 H766 0.984 . S
N754 H767 0.985 . S
N755 C757 1.356 1_655 S
N755 H760 0.984 1_655 S
N755 H761 0.985 . S
C756 C750 1.379 . S
C756 C753 1.363 . S
C756 N754 1.356 . S
C757 C751 1.363 . S
C757 C752 1.379 . S
C757 N755 1.356 1_455 S
N758 C750 1.356 . S
N758 H764 0.984 . S
N758 H765 0.984 . S
N759 C752 1.356 1_655 S
N759 H762 0.984 1_655 S
N759 H763 0.985 . S
H760 N755 0.984 1_455 S
H761 N755 0.985 . S
H762 N759 0.984 1_455 S
H763 N759 0.985 . S
H764 N758 0.984 . S
H765 N758 0.984 . S
H766 N754 0.984 . S
H767 N754 0.985 . S
C768 C769 1.363 . S
C768 C774 1.379 . S
C768 N776 1.356 . S
C769 C768 1.363 . S
C769 C775 1.363 . S
C770 C771 1.363 . S
C770 C775 1.379 . S
C770 N777 1.356 . S
C771 C770 1.363 . S
C771 C774 1.363 . S
N772 C774 1.356 . S
N772 H784 0.984 . S
N772 H785 0.985 . S
N773 C775 1.356 . S
N773 H778 0.984 . S
N773 H779 0.985 . S
C774 C768 1.379 . S
C774 C771 1.363 . S
C774 N772 1.356 . S
C775 C769 1.363 . S
C775 C770 1.379 . S
C775 N773 1.356 . S
N776 C768 1.356 . S
N776 H782 0.984 . S
N776 H783 0.984 . S
N777 C770 1.356 . S
N777 H780 0.984 . S
N777 H781 0.985 . S
H778 N773 0.984 . S
H779 N773 0.985 . S
H780 N777 0.984 . S
H781 N777 0.985 . S
H782 N776 0.984 . S
H783 N776 0.984 . S
H784 N772 0.984 . S
H785 N772 0.985 . S
C786 C787 1.363 . S
C786 C792 1.379 . S
C786 N794 1.356 . S
C787 C786 1.363 . S
C787 C793 1.363 . S
C788 C789 1.363 . S
C788 C793 1.379 . S
C788 N795 1.356 . S
C789 C788 1.363 . S
C789 C792 1.363 . S
N790 C792 1.356 . S
N790 H802 0.984 1_556 S
N790 H803 0.985 . S
N791 C793 1.356 . S
N791 H796 0.984 . S
N791 H797 0.985 . S
C792 C786 1.379 . S
C792 C789 1.363 . S
C792 N790 1.356 . S
C793 C787 1.363 . S
C793 C788 1.379 . S
C793 N791 1.356 . S
N794 C786 1.356 . S
N794 H800 0.984 . S
N794 H801 0.984 . S
N795 C788 1.356 . S
N795 H798 0.984 . S
N795 H799 0.985 . S
H796 N791 0.984 . S
H797 N791 0.985 . S
H798 N795 0.984 . S
H799 N795 0.985 . S
H800 N794 0.984 . S
H801 N794 0.984 . S
H802 N790 0.984 1_554 S
H803 N790 0.985 . S
C804 C805 1.363 . S
C804 C810 1.379 . S
C804 N812 1.356 . S
C805 C804 1.363 . S
C805 C811 1.363 . S
C806 C807 1.363 . S
C806 C811 1.379 . S
C806 N813 1.356 . S
C807 C806 1.363 . S
C807 C810 1.363 . S
N808 C810 1.356 . S
N808 H820 0.984 1_654 S
N808 H821 0.985 . S
N809 C811 1.356 . S
N809 H814 0.984 . S
N809 H815 0.985 . S
C810 C804 1.379 . S
C810 C807 1.363 . S
C810 N808 1.356 . S
C811 C805 1.363 . S
C811 C806 1.379 . S
C811 N809 1.356 . S
N812 C804 1.356 . S
N812 H818 0.984 1_655 S
N812 H819 0.984 . S
N813 C806 1.356 . S
N813 H816 0.984 . S
N813 H817 0.985 . S
H814 N809 0.984 . S
H815 N809 0.985 . S
H816 N813 0.984 . S
H817 N813 0.985 . S
H818 N812 0.984 1_455 S
H819 N812 0.984 . S
H820 N808 0.984 1_456 S
H821 N808 0.985 . S
C822 C823 1.363 . S
C822 C828 1.379 . S
C822 N830 1.356 1_565 S
C823 C822 1.363 . S
C823 C829 1.363 . S
C824 C825 1.363 . S
C824 C829 1.379 . S
C824 N831 1.356 . S
C825 C824 1.363 . S
C825 C828 1.363 . S
N826 C828 1.356 1_545 S
N826 H838 0.984 . S
N826 H839 0.985 . S
N827 C829 1.356 . S
N827 H832 0.984 . S
N827 H833 0.985 . S
C828 C822 1.379 . S
C828 C825 1.363 . S
C828 N826 1.356 1_565 S
C829 C823 1.363 . S
C829 C824 1.379 . S
C829 N827 1.356 . S
N830 C822 1.356 1_545 S
N830 H836 0.984 . S
N830 H837 0.984 . S
N831 C824 1.356 . S
N831 H834 0.984 . S
N831 H835 0.985 . S
H832 N827 0.984 . S
H833 N827 0.985 . S
H834 N831 0.984 . S
H835 N831 0.985 . S
H836 N830 0.984 . S
H837 N830 0.984 . S
H838 N826 0.984 . S
H839 N826 0.985 . S
C840 C841 1.363 . S
C840 C846 1.379 . S
C840 N848 1.356 . S
C841 C840 1.363 . S
C841 C847 1.363 . S
C842 C843 1.363 . S
C842 C847 1.379 . S
C842 N849 1.356 . S
C843 C842 1.363 . S
C843 C846 1.363 . S
N844 C846 1.356 . S
N844 H856 0.984 . S
N844 H857 0.985 . S
N845 C847 1.356 . S
N845 H850 0.984 . S
N845 H851 0.985 . S
C846 C840 1.379 . S
C846 C843 1.363 . S
C846 N844 1.356 . S
C847 C841 1.363 . S
C847 C842 1.379 . S
C847 N845 1.356 . S
N848 C840 1.356 . S
N848 H854 0.984 . S
N848 H855 0.984 . S
N849 C842 1.356 . S
N849 H852 0.984 . S
N849 H853 0.985 . S
H850 N845 0.984 . S
H851 N845 0.985 . S
H852 N849 0.984 . S
H853 N849 0.985 . S
H854 N848 0.984 . S
H855 N848 0.984 . S
H856 N844 0.984 . S
H857 N844 0.985 . S
C858 C859 1.363 . S
C858 C864 1.379 . S
C858 N866 1.356 . S
C859 C858 1.363 . S
C859 C865 1.363 1_455 S
C860 C861 1.363 . S
C860 C865 1.379 . S
C860 N867 1.356 . S
C861 C860 1.363 . S
C861 C864 1.363 1_655 S
N862 C864 1.356 . S
N862 H874 0.984 . S
N862 H875 0.985 . S
N863 C865 1.356 . S
N863 H868 0.984 . S
N863 H869 0.985 . S
C864 C858 1.379 . S
C864 C861 1.363 1_455 S
C864 N862 1.356 . S
C865 C859 1.363 1_655 S
C865 C860 1.379 . S
C865 N863 1.356 . S
N866 C858 1.356 . S
N866 H872 0.984 . S
N866 H873 0.984 . S
N867 C860 1.356 . S
N867 H870 0.984 . S
N867 H871 0.985 . S
H868 N863 0.984 . S
H869 N863 0.985 . S
H870 N867 0.984 . S
H871 N867 0.985 . S
H872 N866 0.984 . S
H873 N866 0.984 . S
H874 N862 0.984 . S
H875 N862 0.985 . S
C876 C877 1.363 . S
C876 C882 1.379 1_556 S
C876 N884 1.356 . S
C877 C876 1.363 . S
C877 C883 1.363 1_545 S
C878 C879 1.363 . S
C878 C883 1.379 1_554 S
C878 N885 1.356 . S
C879 C878 1.363 . S
C879 C882 1.363 1_565 S
N880 C882 1.356 . S
N880 H892 0.984 . S
N880 H893 0.985 . S
N881 C883 1.356 . S
N881 H886 0.984 . S
N881 H887 0.985 . S
C882 C876 1.379 1_554 S
C882 C879 1.363 1_545 S
C882 N880 1.356 . S
C883 C877 1.363 1_565 S
C883 C878 1.379 1_556 S
C883 N881 1.356 . S
N884 C876 1.356 . S
N884 H890 0.984 . S
N884 H891 0.984 . S
N885 C878 1.356 . S
N885 H888 0.984 . S
N885 H889 0.985 . S
H886 N881 0.984 . S
H887 N881 0.985 . S
H888 N885 0.984 . S
H889 N885 0.985 . S
H890 N884 0.984 . S
H891 N884 0.984 . S
H892 N880 0.984 . S
H893 N880 0.985 . S
C894 C895 1.363 . S
C894 C900 1.379 . S
C894 N902 1.356 . S
C895 C894 1.363 . S
C895 C901 1.363 . S
C896 C897 1.363 . S
C896 C901 1.379 . S
C896 N903 1.356 . S
C897 C896 1.363 . S
C897 C900 1.363 . S
N898 C900 1.356 . S
N898 H910 0.984 . S
N898 H911 0.985 . S
N899 C901 1.356 . S
N899 H904 0.984 . S
N899 H905 0.985 . S
C900 C894 1.379 . S
C900 C897 1.363 . S
C900 N898 1.356 . S
C901 C895 1.363 . S
C901 C896 1.379 . S
C901 N899 1.356 . S
N902 C894 1.356 . S
N902 H908 0.984 . S
N902 H909 0.984 . S
N903 C896 1.356 . S
N903 H906 0.984 . S
N903 H907 0.985 . S
H904 N899 0.984 . S
H905 N899 0.985 . S
H906 N903 0.984 . S
H907 N903 0.985 . S
H908 N902 0.984 . S
H909 N902 0.984 . S
H910 N898 0.984 . S
H911 N898 0.985 . S
C912 C913 1.363 1_455 S
C912 C918 1.379 . S
C912 N920 1.356 . S
C913 C912 1.363 1_655 S
C913 C919 1.363 . S
C914 C915 1.363 1_655 S
C914 C919 1.379 . S
C914 N921 1.356 . S
C915 C914 1.363 1_455 S
C915 C918 1.363 . S
N916 C918 1.356 . S
N916 H928 0.984 . S
N916 H929 0.985 . S
N917 C919 1.356 . S
N917 H922 0.984 . S
N917 H923 0.985 . S
C918 C912 1.379 . S
C918 C915 1.363 . S
C918 N916 1.356 . S
C919 C913 1.363 . S
C919 C914 1.379 . S
C919 N917 1.356 . S
N920 C912 1.356 . S
N920 H926 0.984 . S
N920 H927 0.984 . S
N921 C914 1.356 . S
N921 H924 0.984 . S
N921 H925 0.985 . S
H922 N917 0.984 . S
H923 N917 0.985 . S
H924 N921 0.984 . S
H925 N921 0.985 . S
H926 N920 0.984 . S
H927 N920 0.984 . S
H928 N916 0.984 . S
H929 N916 0.985 . S
C930 C931 1.363 1_565 S
C930 C936 1.379 . S
C930 N938 1.356 . S
C931 C930 1.363 1_545 S
C931 C937 1.363 . S
C932 C933 1.363 1_545 S
C932 C937 1.379 . S
C932 N939 1.356 . S
C933 C932 1.363 1_565 S
C933 C936 1.363 . S
N934 C936 1.356 . S
N934 H946 0.984 . S
N934 H947 0.985 . S
N935 C937 1.356 . S
N935 H940 0.984 . S
N935 H941 0.985 . S
C936 C930 1.379 . S
C936 C933 1.363 . S
C936 N934 1.356 . S
C937 C931 1.363 . S
C937 C932 1.379 . S
C937 N935 1.356 . S
N938 C930 1.356 . S
N938 H944 0.984 . S
N938 H945 0.984 . S
N939 C932 1.356 . S
N939 H942 0.984 . S
N939 H943 0.985 . S
H940 N935 0.984 . S
H941 N935 0.985 . S
H942 N939 0.984 . S
H943 N939 0.985 . S
H944 N938 0.984 . S
H945 N938 0.984 . S
H946 N934 0.984 . S
H947 N934 0.985 . S
C409 C292 1.115 . S
C411 C20 1.115 . S
C427 C54 1.115 . S
C429 C326 1.115 . S
C445 C88 1.115 . S
C447 C360 1.115 . S
C463 C122 1.115 . S
C465 C394 1.115 . S
C481 C156 1.115 . S
C483 C224 1.115 . S
C499 C190 1.115 . S
C501 C258 1.115 . S
C517 C9 1.695 . S
C519 C203 1.933 . S
C535 C33 1.933 . S
C537 C43 1.695 . S
C553 C77 1.695 . S
C555 C67 1.933 . S
C571 C101 1.933 . S
C573 C111 1.695 . S
C589 C135 1.933 . S
C591 C145 1.695 . S
C607 C179 1.695 . S
C609 C169 1.933 . S
C625 C271 1.933 . S
C627 C213 1.695 . S
C643 C305 1.933 . S
C645 C247 1.695 . S
C661 C339 1.933 . S
C663 C281 1.695 . S
C679 C373 1.933 . S
C681 C315 1.695 . S
C697 C407 1.933 . S
C699 C349 1.695 . S
C715 C383 1.695 . S
C717 C237 1.933 . S
C733 C2 1.222 . S
C735 C206 1.222 . S
C751 C36 1.222 . S
C753 C240 1.222 . S
C769 C70 1.222 . S
C771 C274 1.222 . S
C787 C104 1.222 . S
C789 C308 1.222 . S
C805 C342 1.222 . S
C807 C138 1.222 . S
C823 C172 1.222 . S
C825 C376 1.222 . S
C841 C311 1.450 . S
C843 C5 1.450 . S
C859 C39 1.450 . S
C861 C345 1.450 . S
C877 C73 1.450 . S
C879 C379 1.450 . S
C895 C107 1.450 . S
C897 C209 1.450 . S
C913 C141 1.450 . S
C915 C243 1.450 . S
C931 C277 1.450 . S
C933 C175 1.450 . S
