# Generated by pormake.
# Topology smm, (6)-cn, num edge types: 1
# Building blocks:
#     Node 0, Type 0, BuildingBlock: BETFEN_clean_sbu_0, # of connection points: 6
#     Node 1, Type 0, BuildingBlock: BETFEN_clean_sbu_0, # of connection points: 6
#     Node 2, Type 0, BuildingBlock: BETFEN_clean_sbu_0, # of connection points: 6
#     Node 3, Type 0, BuildingBlock: BETFEN_clean_sbu_0, # of connection points: 6
#     Node 4, Type 0, BuildingBlock: BETFEN_clean_sbu_0, # of connection points: 6
#     Node 5, Type 0, BuildingBlock: BETFEN_clean_sbu_0, # of connection points: 6
#     Node 6, Type 0, BuildingBlock: BETFEN_clean_sbu_0, # of connection points: 6
#     Node 7, Type 0, BuildingBlock: BETFEN_clean_sbu_0, # of connection points: 6
#     Node 8, Type 0, BuildingBlock: BETFEN_clean_sbu_0, # of connection points: 6
#     Edge 9, Type (0, 0), BuildingBlock: UVAHIK_clean_linker_0, # of connection points: 2
#     Edge 10, Type (0, 0), BuildingBlock: UVAHIK_clean_linker_0, # of connection points: 2
#     Edge 11, Type (0, 0), BuildingBlock: UVAHIK_clean_linker_0, # of connection points: 2
#     Edge 12, Type (0, 0), BuildingBlock: UVAHIK_clean_linker_0, # of connection points: 2
#     Edge 13, Type (0, 0), BuildingBlock: UVAHIK_clean_linker_0, # of connection points: 2
#     Edge 14, Type (0, 0), BuildingBlock: UVAHIK_clean_linker_0, # of connection points: 2
#     Edge 15, Type (0, 0), BuildingBlock: UVAHIK_clean_linker_0, # of connection points: 2
#     Edge 16, Type (0, 0), BuildingBlock: UVAHIK_clean_linker_0, # of connection points: 2
#     Edge 17, Type (0, 0), BuildingBlock: UVAHIK_clean_linker_0, # of connection points: 2
#     Edge 18, Type (0, 0), BuildingBlock: UVAHIK_clean_linker_0, # of connection points: 2
#     Edge 19, Type (0, 0), BuildingBlock: UVAHIK_clean_linker_0, # of connection points: 2
#     Edge 20, Type (0, 0), BuildingBlock: UVAHIK_clean_linker_0, # of connection points: 2
#     Edge 21, Type (0, 0), BuildingBlock: UVAHIK_clean_linker_0, # of connection points: 2
#     Edge 22, Type (0, 0), BuildingBlock: UVAHIK_clean_linker_0, # of connection points: 2
#     Edge 23, Type (0, 0), BuildingBlock: UVAHIK_clean_linker_0, # of connection points: 2
#     Edge 24, Type (0, 0), BuildingBlock: UVAHIK_clean_linker_0, # of connection points: 2
#     Edge 25, Type (0, 0), BuildingBlock: UVAHIK_clean_linker_0, # of connection points: 2
#     Edge 26, Type (0, 0), BuildingBlock: UVAHIK_clean_linker_0, # of connection points: 2
#     Edge 27, Type (0, 0), BuildingBlock: UVAHIK_clean_linker_0, # of connection points: 2
#     Edge 28, Type (0, 0), BuildingBlock: UVAHIK_clean_linker_0, # of connection points: 2
#     Edge 29, Type (0, 0), BuildingBlock: UVAHIK_clean_linker_0, # of connection points: 2
#     Edge 30, Type (0, 0), BuildingBlock: UVAHIK_clean_linker_0, # of connection points: 2
#     Edge 31, Type (0, 0), BuildingBlock: UVAHIK_clean_linker_0, # of connection points: 2
#     Edge 32, Type (0, 0), BuildingBlock: UVAHIK_clean_linker_0, # of connection points: 2
#     Edge 33, Type (0, 0), BuildingBlock: UVAHIK_clean_linker_0, # of connection points: 2
#     Edge 34, Type (0, 0), BuildingBlock: UVAHIK_clean_linker_0, # of connection points: 2
#     Edge 35, Type (0, 0), BuildingBlock: UVAHIK_clean_linker_0, # of connection points: 2
# Relax obj value: 0.092
# Max RMSD: 0.179
# Mean RMSD: 0.151
data_MOF--net-smm--node1-BETFEN_clean_sbu_0--edge1-UVAHIK_clean_linker_0
_symmetry_space_group_name_H-M    P1
_symmetry_Int_Tables_number       1
_symmetry_cell_setting            triclinic
loop_
_symmetry_equiv_pos_as_xyz
'x, y, z'
_cell_length_a     75.557505
_cell_length_b     94.399033
_cell_length_c     18.74537
_cell_angle_alpha  92.466687
_cell_angle_beta   93.434605
_cell_angle_gamma 121.80039
loop_
_atom_site_label
_atom_site_type_symbol
_atom_site_fract_x
_atom_site_fract_y
_atom_site_fract_z
_atom_type_partial_charge
Pr0 Pr 0.07989 0.22767 0.03622 0.0
Pr1 Pr 1.04004 0.19432 0.06895 0.0
C2 C 0.11355 0.25272 -0.01808 0.0
C3 C 0.12539 0.2708 0.97285 0.0
C4 C 0.1473 0.27967 -0.0171 0.0
C5 C 0.15915 0.29652 0.96982 0.0
C6 C 0.14933 0.30489 0.94611 0.0
C7 C 0.12731 0.29608 0.93787 0.0
C8 C 0.11543 0.27917 0.95107 0.0
C9 C 0.07485 0.22365 0.18059 0.0
C10 C 1.03925 0.22976 0.07213 0.0
C11 C 1.00808 0.16603 0.11226 0.0
C12 C 1.00405 0.14888 0.11268 0.0
C13 C 0.98395 0.13497 0.09155 0.0
C14 C 0.98043 0.1188 0.08517 0.0
C15 C 0.99696 0.11617 0.09961 0.0
C16 C 1.01702 0.13016 0.12209 0.0
C17 C 1.02052 0.1463 0.12837 0.0
C18 C 1.04622 0.1986 0.92464 0.0
C19 C 0.08142 0.19295 0.04296 0.0
O20 O 0.09527 0.24332 0.94499 0.0
O21 O 0.11431 0.24817 0.0464 0.0
O22 O 0.07145 0.21227 0.13381 0.0
O23 O 0.08224 0.23803 0.15424 0.0
O24 O 1.03051 0.21428 0.09199 0.0
O25 O 0.0571 0.23717 0.04233 0.0
O26 O 1.02357 0.17765 0.15671 0.0
O27 O 1.00742 0.17108 0.04882 0.0
O28 O 1.04868 0.20966 0.97106 0.0
O29 O 1.03978 0.18443 0.95159 0.0
O30 O 0.08869 0.20733 0.01399 0.0
O31 O 0.06444 0.18644 0.07706 0.0
H32 H 0.15529 0.27346 -0.00016 0.0
H33 H 0.17604 0.30298 0.97803 0.0
H34 H 0.11925 0.3021 0.91926 0.0
H35 H 0.09852 0.27259 0.94302 0.0
H36 H 0.97106 0.13665 0.07834 0.0
H37 H 0.96484 0.10841 0.06683 0.0
H38 H 1.03009 0.12867 0.13472 0.0
H39 H 1.03622 0.1568 0.1444 0.0
Pr40 Pr 0.94226 0.84052 0.01087 0.0
Pr41 Pr 0.93975 0.87143 0.96851 0.0
C42 C 0.93972 0.81367 0.06961 0.0
C43 C 0.92847 0.79514 0.07309 0.0
C44 C 0.91433 0.78367 0.01666 0.0
C45 C 0.90515 0.76628 0.02024 0.0
C46 C 0.90993 0.75985 0.0802 0.0
C47 C 0.92407 0.77152 0.13651 0.0
C48 C 0.9331 0.78881 0.13301 0.0
C49 C 0.9428 0.84504 0.86544 0.0
C50 C 0.89542 0.83641 0.96869 0.0
C51 C 0.94225 0.89859 0.91541 0.0
C52 C 0.94964 0.91634 0.93449 0.0
C53 C 0.95103 0.92245 0.00559 0.0
C54 C 0.95625 0.93896 0.02134 0.0
C55 C 0.96014 0.94967 0.96627 0.0
C56 C 0.95929 0.94356 0.89545 0.0
C57 C 0.95408 0.92709 0.87983 0.0
C58 C 0.9404 0.86737 0.11489 0.0
C59 C 0.9864 0.87635 -0.00504 0.0
O60 O 0.93192 0.82198 0.09715 0.0
O61 O 0.94926 0.81991 0.01252 0.0
O62 O 0.93148 0.84695 0.90642 0.0
O63 O 0.95311 0.83928 0.89768 0.0
O64 O 0.90537 0.85032 0.93659 0.0
O65 O 0.90566 0.83069 0.00531 0.0
O66 O 0.9563 0.89468 0.90731 0.0
O67 O 0.92633 0.88744 0.94692 0.0
O68 O 0.9512 0.86522 0.07251 0.0
O69 O 0.93023 0.8733 0.08364 0.0
O70 O 0.978 0.86307 0.03301 0.0
O71 O 0.97442 0.8799 0.95551 0.0
H72 H 0.9105 0.78816 0.96957 0.0
H73 H 0.89419 0.75788 0.97599 0.0
H74 H 0.92866 0.76737 0.18306 0.0
H75 H 0.94412 0.79733 0.17697 0.0
H76 H 0.94762 0.91436 0.04869 0.0
H77 H 0.95659 0.94316 0.07637 0.0
H78 H 0.96254 0.9515 0.85182 0.0
H79 H 0.95313 0.92264 0.82462 0.0
Pr80 Pr 0.25125 0.03657 0.01585 0.0
Pr81 Pr 0.23511 0.06013 0.05848 0.0
C82 C 0.26006 1.01487 0.9547 0.0
C83 C 0.2771 1.01176 0.94564 0.0
C84 C 0.2873 1.00928 0.0045 0.0
C85 C 0.30195 1.00477 -0.006 0.0
C86 C 0.30675 1.00265 0.92445 0.0
C87 C 0.29691 1.00559 0.86586 0.0
C88 C 0.28221 1.01004 0.87637 0.0
C89 C 0.25358 0.04418 0.16178 0.0
C90 C 0.28704 0.07601 0.05724 0.0
C91 C 0.22714 0.08291 0.11366 0.0
C92 C 0.21346 0.08955 0.10182 0.0
C93 C 0.20657 0.09077 0.03237 0.0
C94 C 0.19523 0.09855 0.02244 0.0
C95 C 0.19055 0.10526 0.08175 0.0
C96 C 0.19698 0.10352 0.15119 0.0
C97 C 0.20833 0.09578 0.16103 0.0
C98 C 0.23329 0.05285 0.91233 0.0
C99 C 0.19953 1.01992 0.02739 0.0
O100 O 0.26036 1.02683 0.92084 0.0
O101 O 0.25333 1.01362 0.01826 0.0
O102 O 0.2387 0.04099 0.1166 0.0
O103 O 0.26764 0.04241 0.13309 0.0
O104 O 0.27213 0.07696 0.08702 0.0
O105 O 0.28277 0.06229 0.0189 0.0
O106 O 0.21886 0.06788 0.13536 0.0
O107 O 0.24077 0.08612 0.06727 0.0
O108 O 0.24796 0.05598 0.95822 0.0
O109 O 0.21917 0.05457 0.94059 0.0
O110 O 0.21425 1.01861 -0.00174 0.0
O111 O 0.20375 0.03422 0.06028 0.0
H112 H 0.28366 1.01043 0.05863 0.0
H113 H 0.30899 1.00243 0.04033 0.0
H114 H 0.30045 1.00434 0.81167 0.0
H115 H 0.27453 1.01182 0.83006 0.0
H116 H 0.21035 0.08605 -0.01422 0.0
H117 H 0.1907 0.09976 0.96822 0.0
H118 H 0.19333 0.10823 0.19814 0.0
H119 H 0.21347 0.09495 0.21505 0.0
Pr120 Pr 0.77322 0.54376 0.15313 0.0
Pr121 Pr 0.81185 0.54221 0.11673 0.0
C122 C 0.74571 0.5489 0.21608 0.0
C123 C 0.74344 0.56252 0.24421 0.0
C124 C 0.72436 0.55873 0.26823 0.0
C125 C 0.72224 0.57141 0.29914 0.0
C126 C 0.7392 0.58812 0.30631 0.0
C127 C 0.75823 0.59191 0.28088 0.0
C128 C 0.76036 0.57916 0.25037 0.0
C129 C 0.77654 0.54001 0.00809 0.0
C130 C 0.81789 0.57976 0.13206 0.0
C131 C 0.8392 0.53489 0.06665 0.0
C132 C 0.84509 0.52236 0.07647 0.0
C133 C 0.86575 0.52679 0.0696 0.0
C134 C 0.8718 0.51526 0.08006 0.0
C135 C 0.85731 0.49897 0.09761 0.0
C136 C 0.83656 0.49456 0.10433 0.0
C137 C 0.83054 0.50614 0.09413 0.0
C138 C 0.8072 0.54426 0.26199 0.0
C139 C 0.7647 0.50615 0.12623 0.0
O140 O 0.75974 0.54713 0.25184 0.0
O141 O 0.74541 0.54685 0.14641 0.0
O142 O 0.79154 0.54954 0.05426 0.0
O143 O 0.75862 0.53267 0.03519 0.0
O144 O 0.82477 0.57087 0.10083 0.0
O145 O 0.80046 0.57228 0.16456 0.0
O146 O 0.82077 0.52959 0.03318 0.0
O147 O 0.84406 0.54578 0.12142 0.0
O148 O 0.79281 0.53539 0.21327 0.0
O149 O 0.82535 0.55202 0.23708 0.0
O150 O 0.75795 0.51513 0.15594 0.0
O151 O 0.78351 0.51341 0.1021 0.0
H152 H 0.71117 0.54591 0.26392 0.0
H153 H 0.70731 0.56815 0.31739 0.0
H154 H 0.77161 0.60464 0.28626 0.0
H155 H 0.77526 0.58222 0.23279 0.0
H156 H 0.87725 0.53923 0.05613 0.0
H157 H 0.88782 0.51907 0.07349 0.0
H158 H 0.82502 0.48223 0.11864 0.0
H159 H 0.81454 0.50245 0.10044 0.0
Pr160 Pr 0.55284 0.21654 0.18619 0.0
Pr161 Pr 0.55102 0.24682 0.13814 0.0
C162 C 0.55104 0.19155 0.25637 0.0
C163 C 0.53996 0.17416 0.27709 0.0
C164 C 0.53826 0.16107 0.23231 0.0
C165 C 0.53149 0.14546 0.25804 0.0
C166 C 0.52647 0.14268 0.32921 0.0
C167 C 0.52709 0.1555 0.37255 0.0
C168 C 0.53381 0.17106 0.34684 0.0
C169 C 0.55194 0.21909 0.03847 0.0
C170 C 0.50584 0.21173 0.14946 0.0
C171 C 0.55909 0.27528 0.08096 0.0
C172 C 0.57662 0.2932 0.08513 0.0
C173 C 0.58245 0.30392 0.14827 0.0
C174 C 0.59869 0.3208 0.15088 0.0
C175 C 0.60964 0.32752 0.09052 0.0
C176 C 0.60387 0.31674 0.02755 0.0
C177 C 0.58757 0.29986 0.02488 0.0
C178 C 0.55272 0.24434 0.28581 0.0
C179 C 0.59733 0.24967 0.16653 0.0
O180 O 0.54642 0.20202 0.28436 0.0
O181 O 0.55688 0.19448 0.19148 0.0
O182 O 0.54113 0.22164 0.07965 0.0
O183 O 0.56276 0.21395 0.07233 0.0
O184 O 0.51489 0.22569 0.11592 0.0
O185 O 0.51718 0.20715 0.18667 0.0
O186 O 0.56198 0.2642 0.04843 0.0
O187 O 0.54876 0.26985 0.1374 0.0
O188 O 0.56338 0.24197 0.24334 0.0
O189 O 0.5413 0.24904 0.25292 0.0
O190 O 0.58822 0.23673 0.2048 0.0
O191 O 0.58627 0.25459 0.12992 0.0
H192 H 0.54309 0.16309 0.17853 0.0
H193 H 0.53134 0.1359 0.22345 0.0
H194 H 0.52304 0.15367 0.42728 0.0
H195 H 0.53511 0.18092 0.38288 0.0
H196 H 0.57447 0.2993 0.19593 0.0
H197 H 0.6028 0.32856 0.20071 0.0
H198 H 0.61168 0.32141 0.97965 0.0
H199 H 0.58342 0.292 0.97527 0.0
Pr200 Pr 0.95952 0.37142 0.20466 0.0
Pr201 Pr 0.91537 0.34245 0.14152 0.0
C202 C 0.99672 0.39149 0.28087 0.0
C203 C 1.01743 0.40283 0.32142 0.0
C204 C 1.03299 0.41677 0.29023 0.0
C205 C 0.05291 0.42712 0.32645 0.0
C206 C 0.05781 0.42382 0.39487 0.0
C207 C 1.04218 0.40992 0.42636 0.0
C208 C 1.02218 0.39955 0.39004 0.0
C209 C 0.95274 0.36836 0.05642 0.0
C210 C 0.95126 0.33312 0.16155 0.0
C211 C 0.87723 0.32248 0.06921 0.0
C212 C 0.85594 0.31911 0.07322 0.0
C213 C 0.85037 0.32384 0.13592 0.0
C214 C 0.8298 0.31977 0.14052 0.0
C215 C 0.8144 0.31093 0.08236 0.0
C216 C 0.82027 0.30661 0.01903 0.0
C217 C 0.84083 0.31064 0.01463 0.0
C218 C 0.92212 0.34612 0.29019 0.0
C219 C 0.92453 0.38134 0.17506 0.0
O220 O 0.98143 0.37837 0.30692 0.0
O221 O 0.99235 0.39418 0.21616 0.0
O222 O 0.94684 0.35629 0.09465 0.0
O223 O 0.96364 0.38273 0.09403 0.0
O224 O 0.93358 0.32898 0.12386 0.0
O225 O 0.96245 0.34756 0.20164 0.0
O226 O 0.89119 0.3371 0.04927 0.0
O227 O 0.88452 0.31777 0.12199 0.0
O228 O 0.92793 0.35788 0.25051 0.0
O229 O 0.91107 0.33163 0.25382 0.0
O230 O 0.94199 0.38565 0.21476 0.0
O231 O 0.91322 0.36654 0.13782 0.0
H232 H 1.02989 0.41959 0.23723 0.0
H233 H 0.06462 0.43755 0.30004 0.0
H234 H 1.04536 0.40712 0.47927 0.0
H235 H 1.01051 0.38888 0.41543 0.0
H236 H 0.86186 0.33043 0.18177 0.0
H237 H 0.82585 0.32315 0.19037 0.0
H238 H 0.80897 0.30008 0.97274 0.0
H239 H 0.84487 0.30697 0.96564 0.0
Pr240 Pr 0.47433 0.93088 0.79523 0.0
Pr241 Pr 0.43617 0.89776 0.83118 0.0
C242 C 0.50473 0.95689 0.7337 0.0
C243 C 0.50595 0.9707 0.69625 0.0
C244 C 0.52545 0.98508 0.68918 0.0
C245 C 0.52666 0.99859 0.65661 0.0
C246 C 0.50834 0.99789 0.63031 0.0
C247 C 0.48882 0.98336 0.63694 0.0
C248 C 0.48763 0.96993 0.67003 0.0
C249 C 0.47097 0.92748 0.94141 0.0
C250 C 0.43345 0.9315 0.83207 0.0
C251 C 0.40278 0.87093 0.87679 0.0
C252 C 0.39261 0.8528 0.85893 0.0
C253 C 0.3894 0.84624 0.78733 0.0
C254 C 0.38165 0.82928 0.77121 0.0
C255 C 0.37719 0.81859 0.82635 0.0
C256 C 0.38002 0.8251 0.89788 0.0
C257 C 0.38762 0.84207 0.91399 0.0
C258 C 0.4401 0.90149 0.68534 0.0
C259 C 0.47816 0.89695 0.80556 0.0
O260 O 0.49287 0.94188 0.70053 0.0
O261 O 0.50249 0.95735 0.80223 0.0
O262 O 0.46759 0.91611 0.89483 0.0
O263 O 0.47759 0.94164 0.91392 0.0
O264 O 0.42855 0.91807 0.8658 0.0
O265 O 0.44854 0.93743 0.78904 0.0
O266 O 0.42145 0.87839 0.91138 0.0
O267 O 0.40127 0.87951 0.82633 0.0
O268 O 0.44285 0.91263 0.73198 0.0
O269 O 0.43434 0.88748 0.71287 0.0
O270 O 0.48629 0.91217 0.78366 0.0
O271 O 0.45982 0.88914 0.83173 0.0
H272 H 0.53974 0.98592 0.70945 0.0
H273 H 0.54192 1.00956 0.65175 0.0
H274 H 0.47444 0.98253 0.61812 0.0
H275 H 0.47241 0.95903 0.67606 0.0
H276 H 0.39342 0.85428 0.74382 0.0
H277 H 0.37991 0.82467 0.71571 0.0
H278 H 0.37658 0.8171 0.94135 0.0
H279 H 0.3901 0.84692 0.96955 0.0
Pr280 Pr 0.32457 0.55211 0.67855 0.0
Pr281 Pr 0.31332 0.57777 0.63151 0.0
C282 C 0.32593 0.52774 0.74355 0.0
C283 C 0.31126 0.51006 0.75749 0.0
C284 C 0.30607 0.49684 0.706 0.0
C285 C 0.29225 0.48022 0.71978 0.0
C286 C 0.28332 0.47642 0.78541 0.0
C287 C 0.28864 0.48964 0.83703 0.0
C288 C 0.30249 0.50625 0.82336 0.0
C289 C 0.32562 0.55671 0.53325 0.0
C290 C 0.2746 0.53942 0.62952 0.0
C291 C 0.30979 0.60154 0.57052 0.0
C292 C 0.31797 0.61938 0.58686 0.0
C293 C 0.3252 0.62676 0.65741 0.0
C294 C 0.33167 0.64347 0.67354 0.0
C295 C 0.3312 0.65314 0.61924 0.0
C296 C 0.32456 0.64578 0.54815 0.0
C297 C 0.31795 0.62901 0.53219 0.0
C298 C 0.31345 0.57391 0.77788 0.0
C299 C 0.36385 0.59085 0.67538 0.0
O300 O 0.32379 0.53906 0.77768 0.0
O301 O 0.33041 0.5309 0.67741 0.0
O302 O 0.31188 0.55565 0.5713 0.0
O303 O 0.33905 0.55437 0.56897 0.0
O304 O 0.28167 0.55319 0.59655 0.0
O305 O 0.2874 0.53701 0.67116 0.0
O306 O 0.3233 0.59763 0.55286 0.0
O307 O 0.2967 0.5915 0.61395 0.0
O308 O 0.32659 0.57458 0.73808 0.0
O309 O 0.30013 0.57651 0.74345 0.0
O310 O 0.358 0.57634 0.7014 0.0
O311 O 0.35019 0.59362 0.64167 0.0
H312 H 0.31263 0.49929 0.65488 0.0
H313 H 0.28836 0.47035 0.6786 0.0
H314 H 0.28233 0.48716 0.88859 0.0
H315 H 0.30637 0.51611 0.86459 0.0
H316 H 0.32539 0.61948 0.70028 0.0
H317 H 0.33644 0.64864 0.72894 0.0
H318 H 0.32435 0.65295 0.50488 0.0
H319 H 0.31254 0.6235 0.47734 0.0
Pr320 Pr 0.62796 0.72973 0.74822 0.0
Pr321 Pr 0.62706 0.76072 0.8053 0.0
C322 C 0.63323 0.70791 0.66987 0.0
C323 C 0.64878 0.7039 0.65025 0.0
C324 C 0.66089 0.70147 0.70228 0.0
C325 C 0.67413 0.69619 0.68142 0.0
C326 C 0.67555 0.69334 0.6083 0.0
C327 C 0.66394 0.69636 0.55656 0.0
C328 C 0.65066 0.70153 0.57739 0.0
C329 C 0.62596 0.73244 0.89538 0.0
C330 C 0.67325 0.76456 0.80411 0.0
C331 C 0.62116 0.78387 0.87003 0.0
C332 C 0.6089 0.79183 0.85935 0.0
C333 C 0.60342 0.79449 0.79048 0.0
C334 C 0.59291 0.80298 0.78186 0.0
C335 C 0.58759 0.80897 0.84191 0.0
C336 C 0.59277 0.80595 0.91068 0.0
C337 C 0.60332 0.7975 0.91921 0.0
C338 C 0.62711 0.75691 0.65708 0.0
C339 C 0.58197 0.72307 0.7678 0.0
O340 O 0.63463 0.72112 0.64438 0.0
O341 O 0.62754 0.70567 0.73517 0.0
O342 O 0.63699 0.74443 0.85889 0.0
O343 O 0.61664 0.71811 0.85711 0.0
O344 O 0.6626 0.76997 0.83739 0.0
O345 O 0.66353 0.75093 0.75912 0.0
O346 O 0.61108 0.7682 0.88448 0.0
O347 O 0.63565 0.78743 0.82679 0.0
O348 O 0.6167 0.74541 0.69627 0.0
O349 O 0.63724 0.7714 0.69365 0.0
O350 O 0.59233 0.71796 0.732 0.0
O351 O 0.59148 0.73808 0.80388 0.0
H352 H 0.65984 0.70331 0.75893 0.0
H353 H 0.68305 0.69413 0.72246 0.0
H354 H 0.66447 0.69407 0.49984 0.0
H355 H 0.64139 0.70327 0.53639 0.0
H356 H 0.60755 0.79023 0.74338 0.0
H357 H 0.58939 0.80519 0.72814 0.0
H358 H 0.58862 0.81007 0.95812 0.0
H359 H 0.60734 0.79555 0.97282 0.0
C360 C 0.15662 0.33423 0.94707 0.0
C361 C 0.16213 0.32257 0.92815 0.0
C362 C 0.16888 0.35086 0.93044 0.0
C363 C 0.20864 0.37757 0.8105 0.0
H364 H 0.22139 0.41372 0.95166 0.0
C365 C 0.27262 0.44622 0.78002 0.0
C366 C 0.26867 0.45874 0.80027 0.0
C367 C 0.25898 0.42964 0.79453 0.0
C368 C 0.21777 0.40378 0.91126 0.0
H369 H 0.18462 0.31921 0.8754 0.0
H370 H 0.20612 0.34815 0.84776 0.0
H371 H 0.19858 0.38478 0.97864 0.0
H372 H 0.24701 0.46353 0.85062 0.0
H373 H 0.22318 0.4346 0.87581 0.0
H374 H 0.22789 0.39654 0.74324 0.0
C375 C 0.19226 0.34447 0.87498 0.0
C376 C 0.20468 0.38718 0.92674 0.0
C377 C 0.18006 0.3279 0.89169 0.0
C378 C 0.25069 0.45425 0.83523 0.0
C379 C 0.23702 0.43766 0.8497 0.0
C380 C 0.22171 0.39416 0.79502 0.0
C381 C 0.18686 0.35618 0.89417 0.0
C382 C 0.20009 0.37386 0.87676 0.0
C383 C 0.241 0.42514 0.82958 0.0
C384 C 0.22657 0.40748 0.84538 0.0
H385 H 0.14299 0.33058 0.97559 0.0
H386 H 0.16416 0.35951 0.94544 0.0
H387 H 0.20513 0.36763 0.77023 0.0
H388 H 0.28649 0.44928 0.75405 0.0
H389 H 0.26273 0.42039 0.77936 0.0
C390 C 0.86355 0.83781 0.96979 0.0
C391 C 0.87231 0.82791 0.96454 0.0
C392 C 0.84197 0.83069 0.95832 0.0
C393 C 0.79021 0.7899 0.93527 0.0
H394 H 0.77236 0.81714 0.84481 0.0
C395 C 0.70576 0.76351 0.80602 0.0
C396 C 0.69614 0.77241 0.82337 0.0
C397 C 0.72697 0.77017 0.82665 0.0
C398 C 0.77707 0.80944 0.87073 0.0
H399 H 0.86523 0.80263 0.94478 0.0
H400 H 0.8273 0.79005 0.92162 0.0
H401 H 0.80946 0.82832 0.87323 0.0
H402 H 0.70158 0.79547 0.87562 0.0
H403 H 0.73899 0.80738 0.90993 0.0
H404 H 0.75757 0.77076 0.92942 0.0
C405 C 0.83712 0.80337 0.93646 0.0
C406 C 0.79842 0.81586 0.88753 0.0
C407 C 0.85888 0.81053 0.9496 0.0
C408 C 0.70846 0.7883 0.86122 0.0
C409 C 0.72987 0.79512 0.88079 0.0
C410 C 0.76882 0.78338 0.91729 0.0
C411 C 0.82837 0.81342 0.93928 0.0
C412 C 0.8054 0.80626 0.92059 0.0
C413 C 0.73932 0.78605 0.86426 0.0
C414 C 0.762 0.7931 0.88505 0.0
H415 H 0.87352 0.85123 -0.01778 0.0
H416 H 0.83603 0.83886 0.96382 0.0
H417 H 0.79475 0.78214 0.96147 0.0
H418 H 0.69681 0.75118 0.77733 0.0
H419 H 0.73379 0.76295 0.8124 0.0
C420 C 0.31705 0.9851 0.85504 0.0
C421 C 0.32132 0.99679 0.91298 0.0
C422 C 0.33022 0.97906 0.84568 0.0
C423 C 0.36904 0.97311 0.94559 0.0
H424 H 0.38229 0.96595 0.75587 0.0
C425 C 0.40604 0.93406 0.88994 0.0
C426 C 0.42166 0.93986 0.84229 0.0
C427 C 0.39467 0.94174 0.8989 0.0
C428 C 0.37889 0.968 0.80929 0.0
H429 H 0.34323 1.01159 0.00542 0.0
H430 H 0.36611 1.00096 -0.01065 0.0
H431 H 0.3613 0.97841 0.77018 0.0
H432 H 0.43763 0.95843 0.76695 0.0
H433 H 0.41782 0.97186 0.78288 0.0
H434 H 0.38671 0.96279 -0.01522 0.0
C435 C 0.3524 0.99632 0.95164 0.0
C436 C 0.36667 0.97498 0.81741 0.0
C437 C 0.33926 1.00241 0.96087 0.0
C438 C 0.42569 0.9536 0.80402 0.0
C439 C 0.41425 0.96125 0.81283 0.0
C440 C 0.38118 0.96607 0.93744 0.0
C441 C 0.34797 0.9845 0.89415 0.0
C442 C 0.36152 0.97756 0.88563 0.0
C443 C 0.39858 0.9554 0.86032 0.0
C444 C 0.38617 0.96335 0.86916 0.0
H445 H 0.30319 0.98025 0.81779 0.0
H446 H 0.32617 0.96978 0.80145 0.0
H447 H 0.3652 0.97477 -0.00119 0.0
H448 H 0.40248 0.92349 0.92022 0.0
H449 H 0.38254 0.93676 0.93521 0.0
C450 C 0.46912 0.20073 0.08987 0.0
C451 C 0.48256 0.19986 0.14249 0.0
C452 C 0.44759 0.18822 0.08019 0.0
C453 C 0.41113 0.14371 0.11522 0.0
H454 H 0.367 0.15238 0.07376 0.0
C455 C 0.32528 0.08955 0.03826 0.0
C456 C 0.30918 0.09068 0.06663 0.0
C457 C 0.34601 0.10326 0.04583 0.0
C458 C 0.37911 0.14973 0.08571 0.0
H459 H 0.48333 0.18543 0.22845 0.0
H460 H 0.44639 0.1641 0.21213 0.0
H461 H 0.40358 0.17574 0.09056 0.0
H462 H 0.30259 0.10747 0.12496 0.0
H463 H 0.33878 0.13134 0.13858 0.0
H464 H 0.38689 0.11783 0.11148 0.0
C465 C 0.45238 0.17413 0.17699 0.0
C466 C 0.40015 0.16314 0.09459 0.0
C467 C 0.4737 0.18652 0.18664 0.0
C468 C 0.3145 0.10605 0.10251 0.0
C469 C 0.33529 0.11982 0.10985 0.0
C470 C 0.39021 0.13036 0.10598 0.0
C471 C 0.439 0.17452 0.12274 0.0
C472 C 0.41648 0.16035 0.11014 0.0
C473 C 0.35142 0.11862 0.0819 0.0
C474 C 0.37381 0.1331 0.09131 0.0
H475 H 0.47533 0.21076 0.05472 0.0
H476 H 0.43782 0.18898 0.03777 0.0
H477 H 0.42318 0.14094 0.12608 0.0
H478 H 0.32191 0.07803 0.00988 0.0
H479 H 0.35782 0.10183 0.02254 0.0
C480 C 0.98065 0.32789 0.1743 0.0
C481 C 0.95935 0.32176 0.15607 0.0
C482 C 0.98846 0.31738 0.16736 0.0
C483 C 0.97471 0.27546 0.08248 0.0
H484 H 1.02303 0.28469 0.20747 0.0
C485 C 1.00754 0.23143 0.0918 0.0
C486 C 1.02911 0.23945 0.08481 0.0
C487 C 0.99821 0.24081 0.1021 0.0
C488 C 1.00954 0.28197 0.17207 0.0
H489 H 0.92949 0.29959 0.1176 0.0
H490 H 0.94279 0.28108 0.1086 0.0
H491 H 1.00815 0.30191 0.22394 0.0
H492 H 0.05781 0.26369 0.08485 0.0
H493 H 1.04167 0.27993 0.10479 0.0
H494 H 0.97593 0.25512 0.03234 0.0
C495 C 0.95374 0.29415 0.12595 0.0
C496 C 1.00104 0.29195 0.18102 0.0
C497 C 0.94601 0.30477 0.13162 0.0
C498 C 1.04115 0.25706 0.0896 0.0
C499 C 1.03193 0.2664 0.10143 0.0
C500 C 0.98299 0.26528 0.07452 0.0
C501 C 0.97516 0.30028 0.14329 0.0
C502 C 0.98364 0.28905 0.13573 0.0
C503 C 1.01034 0.25841 0.1074 0.0
C504 C 1.00067 0.26855 0.11861 0.0
H505 H 0.99144 0.34095 0.19262 0.0
H506 H 1.00509 0.32283 0.17977 0.0
H507 H 0.96158 0.27287 0.0455 0.0
H508 H 0.99781 0.2179 0.08822 0.0
H509 H 0.98155 0.2343 0.10678 0.0
C510 C 0.89644 0.73413 0.1507 0.0
C511 C 0.90052 0.74122 0.0843 0.0
C512 C 0.88831 0.71697 0.1553 0.0
C513 C 0.87917 0.67805 0.05138 0.0
H514 H 0.84333 0.65609 0.20097 0.0
C515 C 0.84851 0.60794 0.10174 0.0
C516 C 0.8286 0.59835 0.12665 0.0
C517 C 0.8579 0.62533 0.09636 0.0
C518 C 0.85311 0.66183 0.15812 0.0
H519 H 0.89892 0.7351 0.97024 0.0
H520 H 0.88408 0.70525 0.97785 0.0
H521 H 0.85718 0.68549 0.18983 0.0
H522 H 0.80289 0.59987 0.16312 0.0
H523 H 0.81868 0.62947 0.15244 0.0
H524 H 0.87434 0.65409 0.01809 0.0
C525 C 0.8876 0.71308 0.02703 0.0
C526 C 0.86144 0.67898 0.15244 0.0
C527 C 0.89588 0.73031 0.02248 0.0
C528 C 0.81837 0.6067 0.14508 0.0
C529 C 0.82759 0.62391 0.13918 0.0
C530 C 0.87068 0.6608 0.05676 0.0
C531 C 0.88367 0.70604 0.09361 0.0
C532 C 0.87467 0.6875 0.09902 0.0
C533 C 0.84761 0.63367 0.11521 0.0
C534 C 0.85738 0.65231 0.11011 0.0
H535 H 0.89937 0.74182 0.19978 0.0
H536 H 0.88593 0.71236 0.20793 0.0
H537 H 0.88947 0.68397 0.00998 0.0
H538 H 0.85693 0.60205 0.08679 0.0
H539 H 0.87338 0.63224 0.07826 0.0
C540 C 0.23819 0.53035 0.58276 0.0
C541 C 0.25193 0.52647 0.61748 0.0
C542 C 0.21686 0.51838 0.56972 0.0
C543 C 0.17886 0.47328 0.54382 0.0
H544 H 0.13905 0.48673 0.56983 0.0
C545 C 0.0894 0.42799 0.46933 0.0
C546 C 0.07924 0.43481 0.43234 0.0
C547 C 0.10998 0.43834 0.50116 0.0
C548 C 0.14994 0.48278 0.5618 0.0
H549 H 0.25391 0.50683 0.66586 0.0
H550 H 0.21637 0.4857 0.64228 0.0
H551 H 0.17596 0.50619 0.60908 0.0
H552 H 0.08258 0.45795 0.40197 0.0
H553 H 0.11839 0.47588 0.45592 0.0
H554 H 0.15287 0.45001 0.49459 0.0
C555 C 0.22229 0.49812 0.62533 0.0
C556 C 0.1711 0.49393 0.58449 0.0
C557 C 0.24375 0.51023 0.63908 0.0
C558 C 0.08999 0.45224 0.42926 0.0
C559 C 0.11048 0.46256 0.46105 0.0
C560 C 0.15764 0.46211 0.5208 0.0
C561 C 0.20862 0.50212 0.59065 0.0
C562 C 0.18589 0.48946 0.57432 0.0
C563 C 0.12081 0.45576 0.49705 0.0
C564 C 0.14299 0.46687 0.52806 0.0
H565 H 0.24388 0.54271 0.56536 0.0
H566 H 0.20685 0.5218 0.54189 0.0
H567 H 0.18988 0.46951 0.53481 0.0
H568 H 0.08165 0.4146 0.47226 0.0
H569 H 0.11739 0.4327 0.52897 0.0
C570 C 0.68637 0.67255 0.61908 0.0
C571 C 0.68783 0.68611 0.58554 0.0
C572 C 0.69595 0.66444 0.59268 0.0
C573 C 0.71364 0.65676 0.425 0.0
H574 H 0.73615 0.63682 0.54811 0.0
C575 C 0.74456 0.61677 0.31152 0.0
C576 C 0.73703 0.60143 0.34144 0.0
C577 C 0.74172 0.629 0.34349 0.0
C578 C 0.72987 0.6423 0.51309 0.0
H579 H 0.70144 0.70238 0.50053 0.0
H580 H 0.71838 0.68831 0.45478 0.0
H581 H 0.72611 0.65532 0.60137 0.0
H582 H 0.72134 0.5871 0.42957 0.0
H583 H 0.71623 0.60836 0.48498 0.0
H584 H 0.7171 0.64352 0.33683 0.0
C585 C 0.70946 0.68374 0.50059 0.0
C586 C 0.7241 0.65287 0.54355 0.0
C587 C 0.6998 0.69181 0.52684 0.0
C588 C 0.72708 0.59873 0.40483 0.0
C589 C 0.72437 0.61098 0.43701 0.0
C590 C 0.7195 0.64625 0.39455 0.0
C591 C 0.70728 0.66973 0.53229 0.0
C592 C 0.71553 0.65997 0.49993 0.0
C593 C 0.73148 0.62618 0.40636 0.0
C594 C 0.7273 0.63865 0.43835 0.0
H595 H 0.67702 0.66771 0.66376 0.0
H596 H 0.69367 0.65355 0.61779 0.0
H597 H 0.7068 0.6618 0.38982 0.0
H598 H 0.75221 0.61916 0.26252 0.0
H599 H 0.74747 0.64065 0.31894 0.0
C600 C 0.51007 0.11139 0.32112 0.0
C601 C 0.52252 0.12713 0.36017 0.0
C602 C 0.50758 0.097 0.34927 0.0
C603 C 0.53405 0.08397 0.47686 0.0
H604 H 0.48011 0.04251 0.46995 0.0
C605 C 0.52322 1.02873 0.62988 0.0
C606 C 0.50959 1.01242 0.59755 0.0
C607 C 0.52429 0.04242 0.59973 0.0
C608 C 0.49535 0.05391 0.47145 0.0
H609 H 0.5421 0.14004 0.45936 0.0
H610 H 0.53763 0.11501 0.5084 0.0
H611 H 0.48262 0.06682 0.41896 0.0
H612 H 0.48653 0.99768 0.50777 0.0
H613 H 0.48866 1.02159 0.45422 0.0
H614 H 0.54692 0.07115 0.52823 0.0
C615 C 0.52984 0.11378 0.45602 0.0
C616 C 0.49675 0.06785 0.44236 0.0
C617 C 0.53219 0.1281 0.42823 0.0
C618 C 0.49704 1.0101 0.53431 0.0
C619 C 0.49823 1.02381 0.50378 0.0
C620 C 0.53269 0.07003 0.50538 0.0
C621 C 0.51769 0.09809 0.41663 0.0
C622 C 0.5161 0.08307 0.44537 0.0
C623 C 0.51189 0.04017 0.53608 0.0
C624 C 0.5133 0.05485 0.50369 0.0
H625 H 0.50235 0.11022 0.26869 0.0
H626 H 0.49818 0.08508 0.31755 0.0
H627 H 0.54925 0.09543 0.47883 0.0
H628 H 0.53282 0.03091 0.67932 0.0
H629 H 0.53467 0.05477 0.62703 0.0
C630 C 0.16302 0.10881 0.01712 0.0
C631 C 0.17952 0.1144 0.07147 0.0
C632 C 0.15272 0.11744 0.00791 0.0
C633 C 0.15837 0.15852 0.05334 0.0
H634 H 0.09801 0.13308 0.01318 0.0
C635 C 0.11142 0.19061 0.00611 0.0
C636 C 0.09264 0.18394 0.03874 0.0
C637 C 0.12209 0.18216 0.00432 0.0
C638 C 0.11487 0.14039 0.0247 0.0
H639 H 0.19839 0.13377 0.15767 0.0
H640 H 0.18014 0.1485 0.14289 0.0
H641 H 0.11654 0.11845 0.02253 0.0
H642 H 0.07033 0.163 0.09443 0.0
H643 H 0.08895 0.1485 0.09203 0.0
H644 H 0.1566 0.18044 0.05788 0.0
C645 C 0.17527 0.13754 0.10676 0.0
C646 C 0.12554 0.13199 0.02921 0.0
C647 C 0.18555 0.12893 0.11594 0.0
C648 C 0.08472 0.16855 0.06874 0.0
C649 C 0.09535 0.16013 0.06691 0.0
C650 C 0.14769 0.16692 0.04887 0.0
C651 C 0.15868 0.13191 0.05274 0.0
C652 C 0.14742 0.14092 0.04435 0.0
C653 C 0.11422 0.16683 0.03494 0.0
C654 C 0.12576 0.15796 0.0353 0.0
H655 H 0.15784 0.09762 -0.01783 0.0
H656 H 0.14016 0.11282 0.96526 0.0
H657 H 0.17525 0.16583 0.06407 0.0
H658 H 0.11795 0.20241 -0.01771 0.0
H659 H 0.13646 0.18761 0.97854 0.0
C660 C 0.95556 0.97336 0.9352 0.0
C661 C 0.96437 0.96692 -0.01802 0.0
C662 C 0.95922 0.9894 0.94991 0.0
C663 C 0.99541 1.03016 0.05497 0.0
H664 H 0.94997 0.03745 0.01575 0.0
C665 C 1.00853 0.09658 0.06067 0.0
C666 C 0.99345 0.09902 0.08951 0.0
C667 C 1.00514 0.08051 0.04995 0.0
C668 C 0.96281 0.03564 0.02762 0.0
H669 H 0.98416 0.97259 0.08091 0.0
H670 H 0.99033 1.0005 0.10707 0.0
H671 H 0.94373 1.00947 -0.00622 0.0
H672 H 0.96307 0.08627 0.13095 0.0
H673 H 0.95712 0.0583 0.11197 0.0
H674 H 1.01444 0.05632 0.08962 0.0
C675 C 0.9807 0.99314 0.05855 0.0
C676 C 0.95929 1.01959 0.01418 0.0
C677 C 0.97698 0.97704 0.04393 0.0
C678 C 0.97491 0.0849 0.10758 0.0
C679 C 0.97149 0.06883 0.09671 0.0
C680 C 0.99896 0.04623 0.06819 0.0
C681 C 0.97181 0.99953 0.01184 0.0
C682 C 0.97555 1.01662 0.02743 0.0
C683 C 0.98653 0.06639 0.06754 0.0
C684 C 0.98272 0.04921 0.05456 0.0
H685 H 0.94555 0.96589 0.88745 0.0
H686 H 0.9523 0.99393 0.91222 0.0
H687 H 1.00836 1.02841 0.06528 0.0
H688 H 1.02285 0.10706 0.04485 0.0
H689 H 1.01694 0.07913 0.02633 0.0
C690 C 1.01728 0.90015 0.94547 0.0
C691 C 1.00952 0.88868 -0.00175 0.0
C692 C 1.03813 0.91347 0.95134 0.0
C693 C 0.09158 0.93033 0.0387 0.0
H694 H 0.09935 0.97274 -0.00868 0.0
C695 C 0.17348 0.98883 -0.00065 0.0
C696 C 0.17788 1.00471 0.02539 0.0
C697 C 0.15337 0.97446 -0.0002 0.0
C698 C 0.09756 0.96107 0.00534 0.0
H699 H 1.01831 0.88201 0.09745 0.0
H700 H 0.05515 0.90539 0.10748 0.0
H701 H 0.06418 0.94807 -0.01331 0.0
H702 H 0.16418 1.01767 0.07251 0.0
H703 H 0.12926 0.99277 0.0728 0.0
H704 H 0.12511 0.94346 0.05726 0.0
C705 C 1.04481 0.90396 0.06144 0.0
C706 C 0.07731 0.94681 0.00197 0.0
C707 C 1.02369 0.89051 0.05564 0.0
C708 C 0.16149 1.00575 0.05164 0.0
C709 C 0.14135 0.99141 0.0516 0.0
C710 C 0.11194 0.94462 0.04147 0.0
C711 C 0.05215 0.91589 0.01018 0.0
C712 C 0.07395 0.93117 0.01794 0.0
C713 C 0.13695 0.97551 0.02578 0.0
C714 C 0.11526 0.96022 0.02451 0.0
H715 H 1.00706 0.89911 0.89979 0.0
H716 H 1.04322 0.92205 0.90977 0.0
H717 H 0.08967 0.91853 0.05118 0.0
H718 H 0.18563 0.98743 0.9789 0.0
H719 H 0.15063 0.96254 0.97865 0.0
C720 C 0.88343 0.4918 0.145 0.0
C721 C 0.86385 0.48668 0.1087 0.0
C722 C 0.88972 0.48037 0.15441 0.0
C723 C 0.87938 0.43934 0.07981 0.0
H724 H 0.90912 0.44094 0.25884 0.0
C725 C 0.89788 0.38835 0.13437 0.0
C726 C 0.9173 0.39329 0.17142 0.0
C727 C 0.89123 0.39963 0.12874 0.0
C728 C 0.90106 0.44041 0.20811 0.0
H729 H 0.83558 0.46536 0.05374 0.0
H730 H 0.84643 0.44543 0.07076 0.0
H731 H 0.89781 0.46066 0.24527 0.0
H732 H 0.94486 0.4141 0.23212 0.0
H733 H 0.93343 0.43382 0.22143 0.0
H734 H 0.88277 0.41924 0.04225 0.0
C735 C 0.85702 0.45835 0.09155 0.0
C736 C 0.89453 0.45175 0.20036 0.0
C737 C 0.85069 0.46976 0.08246 0.0
C738 C 0.92979 0.4098 0.20337 0.0
C739 C 0.92316 0.42112 0.19751 0.0
C740 C 0.88596 0.42806 0.08745 0.0
C741 C 0.87666 0.46349 0.12749 0.0
C742 C 0.88357 0.45136 0.1361 0.0
C743 C 0.90382 0.41623 0.15971 0.0
C744 C 0.89687 0.42838 0.15176 0.0
H745 H 0.89391 0.50466 0.16671 0.0
H746 H 0.90501 0.48485 0.18181 0.0
H747 H 0.87132 0.43882 0.0291 0.0
H748 H 0.88773 0.37573 0.10945 0.0
H749 H 0.87609 0.39524 0.10041 0.0
C750 C 0.7555 0.47666 0.08689 0.0
C751 C 0.75054 0.48748 0.12162 0.0
C752 C 0.7416 0.45915 0.08296 0.0
C753 C 0.69636 0.42608 0.17065 0.0
H754 H 0.68456 0.39815 -0.00496 0.0
C755 C 0.62496 0.35808 0.13051 0.0
C756 C 0.62675 0.34569 0.09314 0.0
C757 C 0.64089 0.37504 0.13352 0.0
C758 C 0.68782 0.40569 0.04491 0.0
H759 H 0.7268 0.48807 0.17932 0.0
H760 H 0.70297 0.45805 0.17222 0.0
H761 H 0.71115 0.42806 0.00154 0.0
H762 H 0.64714 0.34176 0.02981 0.0
H763 H 0.67492 0.37129 0.03526 0.0
H764 H 0.67313 0.40389 0.21422 0.0
C765 C 0.71764 0.46293 0.14867 0.0
C766 C 0.70313 0.4229 0.04862 0.0
C767 C 0.73137 0.48028 0.15227 0.0
C768 C 0.645 0.35088 0.05842 0.0
C769 C 0.66099 0.36789 0.06153 0.0
C770 C 0.68113 0.40894 0.16702 0.0
C771 C 0.72248 0.45203 0.11421 0.0
C772 C 0.7074 0.43342 0.11124 0.0
C773 C 0.65924 0.38025 0.09942 0.0
C774 C 0.67635 0.39847 0.1038 0.0
H775 H 0.77008 0.48169 0.06261 0.0
H776 H 0.74595 0.45118 0.05627 0.0
H777 H 0.69947 0.43363 0.22042 0.0
H778 H 0.61103 0.35471 0.15673 0.0
H779 H 0.63864 0.38412 0.16192 0.0
C780 C 0.63028 0.26989 0.11188 0.0
C781 C 0.62026 0.2582 0.16226 0.0
C782 C 0.65156 0.27666 0.10403 0.0
C783 C 0.69292 0.26718 0.13862 0.0
H784 H 0.73067 0.31322 0.09951 0.0
C785 C 0.77568 0.28997 0.0586 0.0
C786 C 0.7922 0.30577 0.08851 0.0
C787 C 0.75487 0.28483 0.06614 0.0
C788 C 0.72037 0.30035 0.11089 0.0
H789 H 0.62505 0.24507 0.24617 0.0
H790 H 0.66197 0.25702 0.2334 0.0
H791 H 0.69439 0.30348 0.11844 0.0
H792 H 0.79956 0.32869 0.14861 0.0
H793 H 0.76327 0.31956 0.16323 0.0
H794 H 0.71885 0.26407 0.13273 0.0
C795 C 0.65336 0.26069 0.1986 0.0
C796 C 0.6995 0.29472 0.12097 0.0
C797 C 0.63216 0.2539 0.20625 0.0
C798 C 0.78729 0.31637 0.12554 0.0
C799 C 0.76644 0.3112 0.13318 0.0
C800 C 0.71372 0.27279 0.12859 0.0
C801 C 0.66328 0.2719 0.14649 0.0
C802 C 0.68551 0.27806 0.13522 0.0
C803 C 0.74995 0.2953 0.10406 0.0
C804 C 0.72775 0.28944 0.11453 0.0
H805 H 0.62158 0.27345 0.07703 0.0
H806 H 0.65865 0.28519 0.06307 0.0
H807 H 0.68256 0.2542 0.14841 0.0
H808 H 0.7788 0.28137 0.03045 0.0
H809 H 0.74261 0.27259 0.0421 0.0
C810 C 0.56145 0.81398 0.77603 0.0
C811 C 0.57694 0.81849 0.8331 0.0
C812 C 0.55141 0.82285 0.76824 0.0
C813 C 0.55617 0.86315 0.82621 0.0
H814 H 0.49659 0.83831 0.76813 0.0
C815 C 0.50989 0.896 0.77777 0.0
C816 C 0.48996 0.88835 0.80292 0.0
C817 C 0.5209 0.88778 0.7771 0.0
C818 C 0.51322 0.84547 0.78479 0.0
H819 H 0.59424 0.83625 0.92586 0.0
H820 H 0.57639 0.85136 0.91347 0.0
H821 H 0.51493 0.82355 0.77692 0.0
H822 H 0.46605 0.86595 0.84698 0.0
H823 H 0.48519 0.85189 0.84659 0.0
H824 H 0.55426 0.88501 0.83629 0.0
C825 C 0.57214 0.84107 0.87409 0.0
C826 C 0.52382 0.837 0.78896 0.0
C827 C 0.58219 0.83222 0.88181 0.0
C828 C 0.48132 0.87227 0.82694 0.0
C829 C 0.49227 0.8641 0.82626 0.0
C830 C 0.54554 0.87163 0.82209 0.0
C831 C 0.55655 0.83649 0.81732 0.0
C832 C 0.54543 0.84569 0.8103 0.0
C833 C 0.51222 0.8717 0.8014 0.0
C834 C 0.52386 0.86288 0.80201 0.0
H835 H 0.55682 0.80342 0.73776 0.0
H836 H 0.53967 0.81905 0.72336 0.0
H837 H 0.57285 0.87032 0.84189 0.0
H838 H 0.51704 0.90834 0.75876 0.0
H839 H 0.53613 0.89397 0.7569 0.0
C840 C 0.32512 0.6766 0.60399 0.0
C841 C 0.33677 0.67058 0.63739 0.0
C842 C 0.32957 0.69266 0.62381 0.0
C843 C 0.35254 0.72496 0.77438 0.0
H844 H 0.3552 0.75439 0.63163 0.0
C845 C 0.38053 0.79409 0.8479 0.0
C846 C 0.3708 0.80097 0.80907 0.0
C847 C 0.37585 0.77797 0.82792 0.0
C848 C 0.3542 0.74624 0.67222 0.0
H849 H 0.36271 0.67702 0.71618 0.0
H850 H 0.3702 0.70497 0.75153 0.0
H851 H 0.34859 0.72687 0.59332 0.0
H852 H 0.34797 0.79619 0.72072 0.0
H853 H 0.33943 0.76788 0.68662 0.0
H854 H 0.35783 0.74417 0.85335 0.0
C855 C 0.3575 0.69714 0.71049 0.0
C856 C 0.3505 0.73051 0.6502 0.0
C857 C 0.35318 0.68113 0.69028 0.0
C858 C 0.35588 0.79125 0.75108 0.0
C859 C 0.35108 0.77508 0.73139 0.0
C860 C 0.35607 0.74064 0.79644 0.0
C861 C 0.34563 0.70301 0.67782 0.0
C862 C 0.3497 0.71974 0.70106 0.0
C863 C 0.36123 0.76833 0.76895 0.0
C864 C 0.357 0.75149 0.74562 0.0
H865 H 0.31215 0.66873 0.56393 0.0
H866 H 0.32002 0.6968 0.59827 0.0
H867 H 0.35168 0.7168 0.81474 0.0
H868 H 0.39233 0.8014 0.89219 0.0
H869 H 0.38419 0.77327 0.85741 0.0
C870 C 0.55242 0.69383 0.77037 0.0
C871 C 0.5593 0.71083 0.76943 0.0
C872 C 0.53116 0.68158 0.76457 0.0
C873 C 0.4777 0.6741 0.77171 0.0
H874 H 0.46211 0.63281 0.66095 0.0
C875 C 0.39164 0.62134 0.67748 0.0
C876 C 0.38611 0.60483 0.68728 0.0
C877 C 0.4125 0.63465 0.68976 0.0
C878 C 0.46621 0.64419 0.69254 0.0
H879 H 0.54928 0.72845 0.76431 0.0
H880 H 0.51169 0.70685 0.75167 0.0
H881 H 0.49856 0.65556 0.67763 0.0
H882 H 0.39828 0.58944 0.71769 0.0
H883 H 0.43478 0.61267 0.73777 0.0
H884 H 0.44498 0.66265 0.78445 0.0
C885 C 0.52287 0.70302 0.75811 0.0
C886 C 0.48718 0.65728 0.70246 0.0
C887 C 0.54438 0.71541 0.76524 0.0
C888 C 0.40198 0.60197 0.70951 0.0
C889 C 0.4229 0.61527 0.72079 0.0
C890 C 0.45661 0.66103 0.76092 0.0
C891 C 0.51601 0.68588 0.75608 0.0
C892 C 0.49333 0.67235 0.74312 0.0
C893 C 0.42839 0.63177 0.71115 0.0
C894 C 0.45068 0.64585 0.72189 0.0
H895 H 0.56358 0.68993 0.77497 0.0
H896 H 0.52665 0.66864 0.76601 0.0
H897 H 0.48178 0.68542 0.80372 0.0
H898 H 0.37983 0.62405 0.66081 0.0
H899 H 0.41625 0.64718 0.68129 0.0
C900 C 0.05523 0.21678 0.82352 0.0
C901 C 1.04962 0.20131 0.84878 0.0
C902 C 0.05832 0.21933 0.75141 0.0
C903 C 0.06917 0.20287 0.58888 0.0
H904 H 1.04722 0.22655 0.49049 0.0
C905 C 0.06593 0.20555 0.28206 0.0
C906 C 0.07202 0.22112 0.25686 0.0
C907 C 0.06336 0.20319 0.35457 0.0
C908 C 0.05362 0.22007 0.51746 0.0
H909 H 1.04282 0.17636 0.81918 0.0
H910 H 1.04789 0.18071 0.69273 0.0
H911 H 1.04255 0.22234 0.61702 0.0
H912 H 0.08015 0.24642 0.28696 0.0
H913 H 0.07575 0.24234 0.41394 0.0
H914 H 0.08013 0.20052 0.48907 0.0
C915 C 0.05022 0.19096 0.72875 0.0
C916 C 0.05097 0.21767 0.5899 0.0
C917 C 1.04718 0.18843 0.80093 0.0
C918 C 0.07543 0.23429 0.30514 0.0
C919 C 0.0728 0.23192 0.37763 0.0
C920 C 0.07178 0.20524 0.51639 0.0
C921 C 0.05578 0.20643 0.70319 0.0
C922 C 0.05871 0.20905 0.62638 0.0
C923 C 0.06677 0.21635 0.40307 0.0
C924 C 0.06403 0.21386 0.47998 0.0
H925 H 0.05716 0.22691 0.85938 0.0
H926 H 0.06285 0.23146 0.73354 0.0
H927 H 0.07559 0.1964 0.61581 0.0
H928 H 0.0632 0.19519 0.24581 0.0
H929 H 0.05846 0.191 0.37254 0.0
C930 C 0.95542 0.84461 0.74631 0.0
C931 C 0.94328 0.84801 0.78922 0.0
C932 C 0.95561 0.84715 0.67357 0.0
C933 C 0.92439 0.8501 0.52427 0.0
H934 H 0.97611 0.87018 0.43322 0.0
C935 C 0.92938 0.86902 0.23555 0.0
C936 C 0.94101 0.86522 0.19184 0.0
C937 C 0.92993 0.86708 0.30875 0.0
C938 C 0.96153 0.8644 0.45783 0.0
H939 H 0.92222 0.85706 0.79097 0.0
H940 H 0.92265 0.86162 0.66373 0.0
H941 H 0.97681 0.86685 0.56157 0.0
H942 H 0.96222 0.85632 0.1894 0.0
H943 H 0.96305 0.85275 0.3177 0.0
H944 H 0.9091 0.84761 0.42065 0.0
C945 C 0.93175 0.85675 0.68598 0.0
C946 C 0.96193 0.8625 0.53119 0.0
C947 C 0.93156 0.85421 0.75872 0.0
C948 C 0.95318 0.8594 0.22223 0.0
C949 C 0.95373 0.85745 0.29555 0.0
C950 C 0.924 0.85199 0.45099 0.0
C951 C 0.94367 0.85314 0.64263 0.0
C952 C 0.94336 0.85534 0.56508 0.0
C953 C 0.9421 0.86127 0.33946 0.0
C954 C 0.94256 0.85916 0.41708 0.0
H955 H 0.96461 0.83984 0.76876 0.0
H956 H 0.96477 0.84411 0.64126 0.0
H957 H 0.90979 0.84428 0.54877 0.0
H958 H 0.91991 0.87356 0.21328 0.0
H959 H 0.92101 0.87031 0.34148 0.0
C960 C 0.25204 0.05157 0.81067 0.0
C961 C 0.23457 0.05111 0.83511 0.0
C962 C 0.25413 0.05094 0.73761 0.0
C963 C 0.22463 0.03895 0.56031 0.0
H964 H 0.27913 0.06938 0.49625 0.0
C965 C 0.23622 0.0475 0.26334 0.0
C966 C 0.25303 0.0469 0.23889 0.0
C967 C 0.23455 0.04882 0.33643 0.0
C968 C 0.2639 0.06073 0.51355 0.0
H969 H 0.2054 0.04936 0.80317 0.0
H970 H 0.20915 0.04846 0.67463 0.0
H971 H 0.27446 0.06962 0.6239 0.0
H972 H 0.28167 0.0478 0.27076 0.0
H973 H 0.27868 0.05001 0.3996 0.0
H974 H 0.21407 1.03009 0.44997 0.0
C975 C 0.22111 0.04913 0.71207 0.0
C976 C 0.26121 0.06085 0.58642 0.0
C977 C 0.21899 0.04971 0.7854 0.0
C978 C 0.26855 0.0482 0.28857 0.0
C979 C 0.26688 0.04953 0.362 0.0
C980 C 0.22731 0.03887 0.48748 0.0
C981 C 0.23883 0.04992 0.68767 0.0
C982 C 0.24157 0.04992 0.61042 0.0
C983 C 0.24966 0.04956 0.38637 0.0
C984 C 0.24696 0.04976 0.46352 0.0
H985 H 0.26431 0.0527 0.84802 0.0
H986 H 0.26776 0.05129 0.72022 0.0
H987 H 0.20941 0.03024 0.57749 0.0
H988 H 0.22411 0.04663 0.22599 0.0
H989 H 0.22133 0.04912 0.3539 0.0
C990 C 0.82082 0.55292 0.39096 0.0
C991 C 0.80391 0.54364 0.3384 0.0
C992 C 0.81755 0.55182 0.46355 0.0
C993 C 0.77686 0.54054 0.586 0.0
H994 H 0.8145 0.53588 0.71878 0.0
C995 C 0.76169 0.52892 0.88145 0.0
C996 C 0.7791 0.53874 0.93161 0.0
C997 C 0.7643 0.52838 0.80848 0.0
C998 C 0.80395 0.53729 0.68237 0.0
H999 H 0.7704 0.52597 0.3197 0.0
H1000 H 0.76471 0.52409 0.44632 0.0
H1001 H 0.82021 0.53784 0.5919 0.0
H1002 H 0.81287 0.55537 0.94589 0.0
H1003 H 0.8174 0.55461 0.8187 0.0
H1004 H 0.76074 0.5402 0.67644 0.0
C1005 C 0.78042 0.53231 0.43166 0.0
C1006 C 0.80724 0.53844 0.60991 0.0
C1007 C 0.7837 0.53336 0.35928 0.0
C1008 C 0.79917 0.54772 0.90815 0.0
C1009 C 0.80178 0.54719 0.83541 0.0
C1010 C 0.77359 0.53943 0.65847 0.0
C1011 C 0.79732 0.54148 0.48447 0.0
C1012 C 0.79379 0.54016 0.56116 0.0
C1013 C 0.78437 0.53764 0.78478 0.0
C1014 C 0.78718 0.53789 0.70741 0.0
H1015 H 0.83655 0.56094 0.37603 0.0
H1016 H 0.83082 0.55916 0.50329 0.0
H1017 H 0.76638 0.54205 0.54963 0.0
H1018 H 0.74608 0.5218 0.89845 0.0
H1019 H 0.75064 0.52075 0.77061 0.0
C1020 C 0.5401 0.24436 0.40593 0.0
C1021 C 0.55295 0.24184 0.36296 0.0
C1022 C 0.54002 0.24172 0.47876 0.0
C1023 C 0.57133 0.23875 0.63007 0.0
H1024 H 0.51874 0.21716 0.71583 0.0
C1025 C 0.56454 0.21837 0.91885 0.0
C1026 C 0.55191 0.22135 0.96106 0.0
C1027 C 0.56467 0.22069 0.84566 0.0
C1028 C 0.53359 0.22336 0.69288 0.0
H1029 H 0.57584 0.23462 0.36215 0.0
H1030 H 0.57553 0.2298 0.48916 0.0
H1031 H 0.519 0.22152 0.58857 0.0
H1032 H 0.52959 0.22917 0.96022 0.0
H1033 H 0.5299 0.23333 0.83256 0.0
H1034 H 0.5859 0.24057 0.73446 0.0
C1035 C 0.5657 0.23403 0.46695 0.0
C1036 C 0.53374 0.22587 0.61992 0.0
C1037 C 0.5658 0.23669 0.39412 0.0
C1038 C 0.53941 0.22669 0.92884 0.0
C1039 C 0.53951 0.22899 0.85566 0.0
C1040 C 0.57117 0.23622 0.70305 0.0
C1041 C 0.55279 0.23649 0.51016 0.0
C1042 C 0.55262 0.23364 0.58764 0.0
C1043 C 0.55215 0.22603 0.81318 0.0
C1044 C 0.55231 0.22854 0.73537 0.0
H1045 H 0.53007 0.24835 0.3833 0.0
H1046 H 0.53011 0.24397 0.51065 0.0
H1047 H 0.58618 0.24499 0.6072 0.0
H1048 H 0.57434 0.21424 0.94237 0.0
H1049 H 0.57441 0.21812 0.81432 0.0
C1050 C 0.93794 0.36484 0.40295 0.0
C1051 C 0.92626 0.3486 0.36849 0.0
C1052 C 0.94163 0.36725 0.47747 0.0
C1053 C 0.94242 0.34629 0.63702 0.0
H1054 H 0.93454 0.37924 0.73588 0.0
C1055 C 0.93857 0.35029 0.94164 0.0
C1056 C 0.94972 0.36636 0.97791 0.0
C1057 C 0.93612 0.34835 0.86694 0.0
C1058 C 0.93702 0.37014 0.70892 0.0
H1059 H 0.90947 0.32214 0.38381 0.0
H1060 H 0.9157 0.32633 0.5145 0.0
H1061 H 0.92989 0.37545 0.60516 0.0
H1062 H 0.96686 0.39297 0.96555 0.0
H1063 H 0.96269 0.38957 0.83458 0.0
H1064 H 0.94946 0.34092 0.74085 0.0
C1065 C 0.92218 0.33719 0.48394 0.0
C1066 C 0.93438 0.36797 0.63423 0.0
C1067 C 0.91851 0.33479 0.40936 0.0
C1068 C 0.95819 0.38045 0.9386 0.0
C1069 C 0.95573 0.37851 0.86385 0.0
C1070 C 0.94506 0.34845 0.71172 0.0
C1071 C 0.93367 0.35345 0.51864 0.0
C1072 C 0.93698 0.35599 0.59766 0.0
C1073 C 0.94476 0.36243 0.8274 0.0
C1074 C 0.9423 0.36034 0.7483 0.0
H1075 H 0.94419 0.3757 0.37239 0.0
H1076 H 0.95077 0.37991 0.50288 0.0
H1077 H 0.9448 0.33713 0.61003 0.0
H1078 H 0.93179 0.33923 0.97093 0.0
H1079 H 0.92732 0.33582 0.84012 0.0
C1080 C 0.44881 0.91964 0.58392 0.0
C1081 C 0.44266 0.90402 0.60877 0.0
C1082 C 0.4516 0.92215 0.51156 0.0
C1083 C 0.46123 0.90501 0.34816 0.0
H1084 H 0.44257 0.93097 0.25089 0.0
C1085 C 0.46105 0.90919 0.04243 0.0
C1086 C 0.46781 0.92493 0.01766 0.0
C1087 C 0.45776 0.90664 0.11446 0.0
C1088 C 0.44806 0.92385 0.27752 0.0
H1089 H 0.43429 0.8787 0.57778 0.0
H1090 H 0.43881 0.88297 0.451 0.0
H1091 H 0.43703 0.92641 0.37684 0.0
H1092 H 0.47643 0.95032 0.04831 0.0
H1093 H 0.47095 0.94595 0.17467 0.0
H1094 H 0.47227 0.90244 0.24894 0.0
C1095 C 0.44185 0.89338 0.48755 0.0
C1096 C 0.44489 0.92123 0.34965 0.0
C1097 C 0.43913 0.89089 0.56 0.0
C1098 C 0.47122 0.93807 0.06611 0.0
C1099 C 0.46794 0.93553 0.13826 0.0
C1100 C 0.46439 0.90761 0.27607 0.0
C1101 C 0.4482 0.90906 0.46255 0.0
C1102 C 0.45144 0.91178 0.38579 0.0
C1103 C 0.4612 0.91978 0.16324 0.0
C1104 C 0.45784 0.91706 0.23992 0.0
H1105 H 0.45159 0.92995 0.62049 0.0
H1106 H 0.45674 0.93443 0.49426 0.0
H1107 H 0.46678 0.89791 0.37475 0.0
H1108 H 0.45826 0.89883 0.00611 0.0
H1109 H 0.45229 0.89431 0.13178 0.0
C1110 C 0.33088 0.57081 0.8876 0.0
C1111 C 0.31464 0.57216 0.85528 0.0
C1112 C 0.33223 0.56919 0.96096 0.0
C1113 C 0.30093 0.55681 0.11538 0.0
H1114 H 0.35515 0.58152 0.22659 0.0
C1115 C 0.30957 0.56097 0.4232 0.0
C1116 C 0.3252 0.55897 0.45617 0.0
C1117 C 0.30862 0.56272 0.34989 0.0
C1118 C 0.33995 0.57441 0.19606 0.0
H1119 H 0.28713 0.57293 0.87373 0.0
H1120 H 0.28962 0.57031 0.00264 0.0
H1121 H 0.35263 0.58437 0.09821 0.0
H1122 H 0.35229 0.55747 0.43913 0.0
H1123 H 0.35059 0.56044 0.31019 0.0
H1124 H 0.28825 0.54691 0.21325 0.0
C1125 C 0.30114 0.57028 0.97104 0.0
C1126 C 0.33849 0.57604 0.12261 0.0
C1127 C 0.29977 0.57187 0.89747 0.0
C1128 C 0.34008 0.55898 0.41483 0.0
C1129 C 0.33915 0.56075 0.34127 0.0
C1130 C 0.30239 0.55521 0.18879 0.0
C1131 C 0.31741 0.56894 0.00353 0.0
C1132 C 0.31896 0.56727 0.08153 0.0
C1133 C 0.3233 0.56251 0.30804 0.0
C1134 C 0.3219 0.56402 0.22991 0.0
H1135 H 0.34257 0.571 0.85621 0.0
H1136 H 0.34477 0.56794 -0.01582 0.0
H1137 H 0.28572 0.54967 0.08494 0.0
H1138 H 0.29799 0.56115 0.45399 0.0
H1139 H 0.29646 0.56434 0.32602 0.0
C1140 C 0.614 0.73806 0.54401 0.0
C1141 C 0.62642 0.75425 0.57883 0.0
C1142 C 0.61334 0.73545 0.46982 0.0
C1143 C 0.62285 0.75704 0.3047 0.0
H1144 H 0.62599 0.71995 0.22449 0.0
C1145 C 0.6363 0.7506 0.00941 0.0
C1146 C 0.62505 0.73454 0.973 0.0
C1147 C 0.63569 0.75272 0.0831 0.0
C1148 C 0.62481 0.73022 0.24599 0.0
H1149 H 0.64786 0.7804 0.56399 0.0
H1150 H 0.64677 0.77585 0.43402 0.0
H1151 H 0.62661 0.72429 0.35404 0.0
H1152 H 0.60413 0.70812 -0.01569 0.0
H1153 H 0.6029 0.71182 0.11348 0.0
H1154 H 0.62107 0.763 0.19675 0.0
C1155 C 0.63741 0.7652 0.464 0.0
C1156 C 0.6252 0.73272 0.32016 0.0
C1157 C 0.63812 0.7678 0.5383 0.0
C1158 C 0.61304 0.72063 0.01133 0.0
C1159 C 0.61242 0.72275 0.08519 0.0
C1160 C 0.62242 0.75453 0.23055 0.0
C1161 C 0.62502 0.74899 0.42903 0.0
C1162 C 0.62432 0.74621 0.35027 0.0
C1163 C 0.62379 0.73882 0.12186 0.0
C1164 C 0.62351 0.74114 0.20042 0.0
H1165 H 0.60473 0.7274 0.57405 0.0
H1166 H 0.60347 0.72285 0.44427 0.0
H1167 H 0.6218 0.76738 0.32631 0.0
H1168 H 0.64568 0.76155 -0.01895 0.0
H1169 H 0.64484 0.76524 0.1099 0.0
loop_
_geom_bond_atom_site_label_1
_geom_bond_atom_site_label_2
_geom_bond_distance
_geom_bond_site_symmetry_2
_ccdc_geom_bond_type
Pr0 C2 2.880 . S
Pr0 O20 2.562 . S
Pr0 O21 2.490 . S
Pr0 O22 2.695 . S
Pr0 O23 2.512 . S
Pr0 O25 2.437 . S
Pr0 O28 2.436 1_554 S
Pr0 O30 2.438 . S
Pr1 C11 2.880 1_455 S
Pr1 O22 2.436 . S
Pr1 O24 2.438 . S
Pr1 O26 2.562 . S
Pr1 O27 2.490 1_455 S
Pr1 O28 2.695 1_554 S
Pr1 O29 2.512 1_554 S
Pr1 O31 2.437 . S
C2 Pr0 2.880 . S
C2 C3 1.491 . S
C2 O20 1.254 . S
C2 O21 1.225 . S
C3 C2 1.491 . S
C3 C4 1.392 . S
C3 C8 1.360 . S
C4 C3 1.392 . S
C4 C5 1.368 . S
C4 H32 0.929 . S
C5 C4 1.368 . S
C5 C6 1.386 . S
C5 H33 0.929 . S
C6 C5 1.386 . S
C6 C7 1.373 1_554 S
C7 C6 1.373 1_556 S
C7 C8 1.408 1_556 S
C7 H34 0.931 . S
C8 C3 1.360 . S
C8 C7 1.408 1_554 S
C8 H35 0.926 1_554 S
C9 O22 1.270 . S
C9 O23 1.248 . S
C10 O24 1.267 . S
C10 O25 1.278 . S
C11 Pr1 2.880 1_655 S
C11 C12 1.491 . S
C11 O26 1.254 1_655 S
C11 O27 1.225 . S
C12 C11 1.491 . S
C12 C13 1.392 . S
C12 C17 1.356 . S
C13 C12 1.392 . S
C13 C14 1.368 . S
C13 H36 0.929 1_554 S
C14 C13 1.368 . S
C14 C15 1.386 . S
C14 H37 0.929 1_554 S
C15 C14 1.386 . S
C15 C16 1.373 . S
C16 C15 1.373 . S
C16 C17 1.409 . S
C16 H38 0.931 . S
C17 C12 1.356 . S
C17 C16 1.409 . S
C17 H39 0.931 . S
C18 O28 1.270 . S
C18 O29 1.248 . S
C19 O30 1.267 . S
C19 O31 1.278 . S
O20 Pr0 2.562 . S
O20 C2 1.254 . S
O21 Pr0 2.490 . S
O21 C2 1.225 . S
O22 Pr0 2.695 . S
O22 Pr1 2.436 . S
O22 C9 1.270 . S
O23 Pr0 2.512 . S
O23 C9 1.248 . S
O24 Pr1 2.438 . S
O24 C10 1.267 . S
O25 Pr0 2.437 . S
O25 C10 1.278 . S
O26 Pr1 2.562 . S
O26 C11 1.254 1_455 S
O27 Pr1 2.490 1_655 S
O27 C11 1.225 . S
O28 Pr0 2.436 1_556 S
O28 Pr1 2.695 1_556 S
O28 C18 1.270 . S
O29 Pr1 2.512 1_556 S
O29 C18 1.248 . S
O30 Pr0 2.438 . S
O30 C19 1.267 . S
O31 Pr1 2.437 . S
O31 C19 1.278 . S
H32 C4 0.929 . S
H33 C5 0.929 . S
H34 C7 0.931 . S
H35 C8 0.926 1_556 S
H36 C13 0.929 1_556 S
H37 C14 0.929 1_556 S
H38 C16 0.931 . S
H39 C17 0.931 . S
Pr40 C42 2.880 . S
Pr40 O60 2.562 . S
Pr40 O61 2.490 1_554 S
Pr40 O62 2.695 1_554 S
Pr40 O63 2.512 1_554 S
Pr40 O65 2.437 1_554 S
Pr40 O68 2.436 . S
Pr40 O70 2.438 . S
Pr41 C51 2.880 . S
Pr41 O62 2.436 1_554 S
Pr41 O64 2.438 . S
Pr41 O66 2.562 1_554 S
Pr41 O67 2.490 . S
Pr41 O68 2.695 . S
Pr41 O69 2.512 . S
Pr41 O71 2.437 . S
C42 Pr40 2.880 . S
C42 C43 1.491 . S
C42 O60 1.254 . S
C42 O61 1.225 1_554 S
C43 C42 1.491 . S
C43 C44 1.392 1_554 S
C43 C48 1.356 . S
C44 C43 1.392 1_556 S
C44 C45 1.368 . S
C44 H72 0.929 . S
C45 C44 1.368 . S
C45 C46 1.386 1_556 S
C45 H73 0.929 . S
C46 C45 1.386 1_554 S
C46 C47 1.373 . S
C47 C46 1.373 . S
C47 C48 1.409 . S
C47 H74 0.931 . S
C48 C43 1.356 . S
C48 C47 1.409 . S
C48 H75 0.930 . S
C49 O62 1.270 . S
C49 O63 1.248 . S
C50 O64 1.267 . S
C50 O65 1.278 1_554 S
C51 Pr41 2.880 . S
C51 C52 1.491 . S
C51 O66 1.254 1_554 S
C51 O67 1.225 . S
C52 C51 1.491 . S
C52 C53 1.392 . S
C52 C57 1.356 1_554 S
C53 C52 1.392 . S
C53 C54 1.368 . S
C53 H76 0.929 . S
C54 C53 1.368 . S
C54 C55 1.386 . S
C54 H77 0.929 . S
C55 C54 1.386 . S
C55 C56 1.373 1_554 S
C56 C55 1.373 1_556 S
C56 C57 1.409 . S
C56 H78 0.931 . S
C57 C52 1.356 1_556 S
C57 C56 1.409 . S
C57 H79 0.930 . S
C58 O68 1.270 . S
C58 O69 1.248 . S
C59 O70 1.267 . S
C59 O71 1.278 . S
O60 Pr40 2.562 . S
O60 C42 1.254 . S
O61 Pr40 2.490 1_556 S
O61 C42 1.225 1_556 S
O62 Pr40 2.695 1_556 S
O62 Pr41 2.436 1_556 S
O62 C49 1.270 . S
O63 Pr40 2.512 1_556 S
O63 C49 1.248 . S
O64 Pr41 2.438 . S
O64 C50 1.267 . S
O65 Pr40 2.437 1_556 S
O65 C50 1.278 1_556 S
O66 Pr41 2.562 1_556 S
O66 C51 1.254 1_556 S
O67 Pr41 2.490 . S
O67 C51 1.225 . S
O68 Pr40 2.436 . S
O68 Pr41 2.695 . S
O68 C58 1.270 . S
O69 Pr41 2.512 . S
O69 C58 1.248 . S
O70 Pr40 2.438 . S
O70 C59 1.267 . S
O71 Pr41 2.437 . S
O71 C59 1.278 . S
H72 C44 0.929 . S
H73 C45 0.929 . S
H74 C47 0.931 . S
H75 C48 0.930 . S
H76 C53 0.929 . S
H77 C54 0.929 . S
H78 C56 0.931 . S
H79 C57 0.930 . S
Pr80 C82 2.881 1_545 S
Pr80 O100 2.594 1_554 S
Pr80 O101 2.490 1_545 S
Pr80 O102 2.695 . S
Pr80 O103 2.512 . S
Pr80 O105 2.437 . S
Pr80 O108 2.436 1_554 S
Pr80 O110 2.438 1_545 S
Pr81 C91 2.880 . S
Pr81 O102 2.436 . S
Pr81 O104 2.438 . S
Pr81 O106 2.562 . S
Pr81 O107 2.490 1_554 S
Pr81 O108 2.695 1_554 S
Pr81 O109 2.512 1_554 S
Pr81 O111 2.437 1_554 S
C82 Pr80 2.881 1_565 S
C82 C83 1.490 1_554 S
C82 O100 1.201 1_564 S
C82 O101 1.232 . S
C83 C82 1.490 1_556 S
C83 C84 1.392 1_556 S
C83 C88 1.356 . S
C84 C83 1.392 1_554 S
C84 C85 1.368 . S
C84 H112 0.929 . S
C85 C84 1.368 . S
C85 C86 1.386 1_554 S
C85 H113 0.929 . S
C86 C85 1.386 1_556 S
C86 C87 1.373 . S
C87 C86 1.373 . S
C87 C88 1.409 . S
C87 H114 0.931 . S
C88 C83 1.356 . S
C88 C87 1.409 . S
C88 H115 0.876 1_565 S
C89 O102 1.270 . S
C89 O103 1.248 . S
C90 O104 1.267 . S
C90 O105 1.278 . S
C91 Pr81 2.880 . S
C91 C92 1.491 . S
C91 O106 1.254 . S
C91 O107 1.225 1_554 S
C92 C91 1.491 . S
C92 C93 1.392 1_554 S
C92 C97 1.356 . S
C93 C92 1.392 1_556 S
C93 C94 1.366 1_556 S
C93 H116 0.929 . S
C94 C93 1.366 1_554 S
C94 C95 1.399 . S
C94 H117 0.918 1_554 S
C95 C94 1.399 . S
C95 C96 1.373 . S
C96 C95 1.373 . S
C96 C97 1.409 . S
C96 H118 0.931 . S
C97 C92 1.356 . S
C97 C96 1.409 . S
C97 H119 0.930 . S
C98 O108 1.270 . S
C98 O109 1.248 . S
C99 O110 1.267 1_545 S
C99 O111 1.278 1_554 S
O100 Pr80 2.594 1_556 S
O100 C82 1.201 1_546 S
O101 Pr80 2.490 1_565 S
O101 C82 1.232 . S
O102 Pr80 2.695 . S
O102 Pr81 2.436 . S
O102 C89 1.270 . S
O103 Pr80 2.512 . S
O103 C89 1.248 . S
O104 Pr81 2.438 . S
O104 C90 1.267 . S
O105 Pr80 2.437 . S
O105 C90 1.278 . S
O106 Pr81 2.562 . S
O106 C91 1.254 . S
O107 Pr81 2.490 1_556 S
O107 C91 1.225 1_556 S
O108 Pr80 2.436 1_556 S
O108 Pr81 2.695 1_556 S
O108 C98 1.270 . S
O109 Pr81 2.512 1_556 S
O109 C98 1.248 . S
O110 Pr80 2.438 1_565 S
O110 C99 1.267 1_565 S
O111 Pr81 2.437 1_556 S
O111 C99 1.278 1_556 S
H112 C84 0.929 . S
H113 C85 0.929 . S
H114 C87 0.931 . S
H115 C88 0.876 1_545 S
H116 C93 0.929 . S
H117 C94 0.918 1_556 S
H118 C96 0.931 . S
H119 C97 0.930 . S
Pr120 C122 2.880 . S
Pr120 O140 2.562 . S
Pr120 O141 2.490 . S
Pr120 O142 2.695 . S
Pr120 O143 2.512 . S
Pr120 O145 2.437 . S
Pr120 O148 2.436 . S
Pr120 O150 2.438 . S
Pr121 C131 2.880 . S
Pr121 O142 2.436 . S
Pr121 O144 2.438 . S
Pr121 O146 2.562 . S
Pr121 O147 2.490 . S
Pr121 O148 2.695 . S
Pr121 O149 2.512 . S
Pr121 O151 2.437 . S
C122 Pr120 2.880 . S
C122 C123 1.491 . S
C122 O140 1.254 . S
C122 O141 1.225 . S
C123 C122 1.491 . S
C123 C124 1.392 . S
C123 C128 1.356 . S
C124 C123 1.392 . S
C124 C125 1.368 . S
C124 H152 0.929 . S
C125 C124 1.368 . S
C125 C126 1.386 . S
C125 H153 0.929 . S
C126 C125 1.386 . S
C126 C127 1.373 . S
C127 C126 1.373 . S
C127 C128 1.409 . S
C127 H154 0.931 . S
C128 C123 1.356 . S
C128 C127 1.409 . S
C128 H155 0.930 . S
C129 O142 1.270 . S
C129 O143 1.248 . S
C130 O144 1.267 . S
C130 O145 1.278 . S
C131 Pr121 2.880 . S
C131 C132 1.491 . S
C131 O146 1.254 . S
C131 O147 1.225 . S
C132 C131 1.491 . S
C132 C133 1.392 . S
C132 C137 1.356 . S
C133 C132 1.392 . S
C133 C134 1.368 . S
C133 H156 0.929 . S
C134 C133 1.368 . S
C134 C135 1.386 . S
C134 H157 0.929 . S
C135 C134 1.386 . S
C135 C136 1.373 . S
C136 C135 1.373 . S
C136 C137 1.409 . S
C136 H158 0.931 . S
C137 C132 1.356 . S
C137 C136 1.409 . S
C137 H159 0.930 . S
C138 O148 1.270 . S
C138 O149 1.248 . S
C139 O150 1.267 . S
C139 O151 1.278 . S
O140 Pr120 2.562 . S
O140 C122 1.254 . S
O141 Pr120 2.490 . S
O141 C122 1.225 . S
O142 Pr120 2.695 . S
O142 Pr121 2.436 . S
O142 C129 1.270 . S
O143 Pr120 2.512 . S
O143 C129 1.248 . S
O144 Pr121 2.438 . S
O144 C130 1.267 . S
O145 Pr120 2.437 . S
O145 C130 1.278 . S
O146 Pr121 2.562 . S
O146 C131 1.254 . S
O147 Pr121 2.490 . S
O147 C131 1.225 . S
O148 Pr120 2.436 . S
O148 Pr121 2.695 . S
O148 C138 1.270 . S
O149 Pr121 2.512 . S
O149 C138 1.248 . S
O150 Pr120 2.438 . S
O150 C139 1.267 . S
O151 Pr121 2.437 . S
O151 C139 1.278 . S
H152 C124 0.929 . S
H153 C125 0.929 . S
H154 C127 0.931 . S
H155 C128 0.930 . S
H156 C133 0.929 . S
H157 C134 0.929 . S
H158 C136 0.931 . S
H159 C137 0.930 . S
Pr160 C162 2.880 . S
Pr160 O180 2.562 . S
Pr160 O181 2.490 . S
Pr160 O182 2.695 . S
Pr160 O183 2.512 . S
Pr160 O185 2.437 . S
Pr160 O188 2.436 . S
Pr160 O190 2.438 . S
Pr161 C171 2.880 . S
Pr161 O182 2.436 . S
Pr161 O184 2.438 . S
Pr161 O186 2.562 . S
Pr161 O187 2.490 . S
Pr161 O188 2.695 . S
Pr161 O189 2.512 . S
Pr161 O191 2.437 . S
C162 Pr160 2.880 . S
C162 C163 1.491 . S
C162 O180 1.254 . S
C162 O181 1.225 . S
C163 C162 1.491 . S
C163 C164 1.392 . S
C163 C168 1.356 . S
C164 C163 1.392 . S
C164 C165 1.368 . S
C164 H192 0.929 . S
C165 C164 1.368 . S
C165 C166 1.386 . S
C165 H193 0.929 . S
C166 C165 1.386 . S
C166 C167 1.373 . S
C167 C166 1.373 . S
C167 C168 1.409 . S
C167 H194 0.931 . S
C168 C163 1.356 . S
C168 C167 1.409 . S
C168 H195 0.930 . S
C169 O182 1.270 . S
C169 O183 1.248 . S
C170 O184 1.267 . S
C170 O185 1.278 . S
C171 Pr161 2.880 . S
C171 C172 1.491 . S
C171 O186 1.254 . S
C171 O187 1.225 . S
C172 C171 1.491 . S
C172 C173 1.392 . S
C172 C177 1.356 . S
C173 C172 1.392 . S
C173 C174 1.368 . S
C173 H196 0.929 . S
C174 C173 1.368 . S
C174 C175 1.386 . S
C174 H197 0.929 . S
C175 C174 1.386 . S
C175 C176 1.373 . S
C176 C175 1.373 . S
C176 C177 1.409 . S
C176 H198 0.931 . S
C177 C172 1.356 . S
C177 C176 1.409 . S
C177 H199 0.930 . S
C178 O188 1.270 . S
C178 O189 1.248 . S
C179 O190 1.267 . S
C179 O191 1.278 . S
O180 Pr160 2.562 . S
O180 C162 1.254 . S
O181 Pr160 2.490 . S
O181 C162 1.225 . S
O182 Pr160 2.695 . S
O182 Pr161 2.436 . S
O182 C169 1.270 . S
O183 Pr160 2.512 . S
O183 C169 1.248 . S
O184 Pr161 2.438 . S
O184 C170 1.267 . S
O185 Pr160 2.437 . S
O185 C170 1.278 . S
O186 Pr161 2.562 . S
O186 C171 1.254 . S
O187 Pr161 2.490 . S
O187 C171 1.225 . S
O188 Pr160 2.436 . S
O188 Pr161 2.695 . S
O188 C178 1.270 . S
O189 Pr161 2.512 . S
O189 C178 1.248 . S
O190 Pr160 2.438 . S
O190 C179 1.267 . S
O191 Pr161 2.437 . S
O191 C179 1.278 . S
H192 C164 0.929 . S
H193 C165 0.929 . S
H194 C167 0.931 . S
H195 C168 0.930 . S
H196 C173 0.929 . S
H197 C174 0.929 . S
H198 C176 0.931 . S
H199 C177 0.930 . S
Pr200 C202 2.880 . S
Pr200 O220 2.562 . S
Pr200 O221 2.490 . S
Pr200 O222 2.695 . S
Pr200 O223 2.512 . S
Pr200 O225 2.437 . S
Pr200 O228 2.436 . S
Pr200 O230 2.438 . S
Pr201 C211 2.880 . S
Pr201 O222 2.436 . S
Pr201 O224 2.438 . S
Pr201 O226 2.562 . S
Pr201 O227 2.490 . S
Pr201 O228 2.695 . S
Pr201 O229 2.512 . S
Pr201 O231 2.437 . S
C202 Pr200 2.880 . S
C202 C203 1.491 . S
C202 O220 1.254 . S
C202 O221 1.225 . S
C203 C202 1.491 . S
C203 C204 1.392 1_655 S
C203 C208 1.356 . S
C204 C203 1.392 1_455 S
C204 C205 1.368 . S
C204 H232 0.913 1_455 S
C205 C204 1.368 . S
C205 C206 1.386 . S
C205 H233 0.929 . S
C206 C205 1.386 . S
C206 C207 1.373 . S
C207 C206 1.373 . S
C207 C208 1.409 1_455 S
C207 H234 0.931 . S
C208 C203 1.356 . S
C208 C207 1.409 1_655 S
C208 H235 0.930 . S
C209 O222 1.270 . S
C209 O223 1.248 . S
C210 O224 1.267 . S
C210 O225 1.278 . S
C211 Pr201 2.880 . S
C211 C212 1.491 . S
C211 O226 1.254 . S
C211 O227 1.225 . S
C212 C211 1.491 . S
C212 C213 1.392 . S
C212 C217 1.356 . S
C213 C212 1.392 . S
C213 C214 1.368 . S
C213 H236 0.929 . S
C214 C213 1.368 . S
C214 C215 1.386 . S
C214 H237 0.929 . S
C215 C214 1.386 . S
C215 C216 1.373 . S
C216 C215 1.373 . S
C216 C217 1.409 . S
C216 H238 0.931 . S
C217 C212 1.356 . S
C217 C216 1.409 . S
C217 H239 0.930 . S
C218 O228 1.270 . S
C218 O229 1.248 . S
C219 O230 1.267 . S
C219 O231 1.278 . S
O220 Pr200 2.562 . S
O220 C202 1.254 . S
O221 Pr200 2.490 . S
O221 C202 1.225 . S
O222 Pr200 2.695 . S
O222 Pr201 2.436 . S
O222 C209 1.270 . S
O223 Pr200 2.512 . S
O223 C209 1.248 . S
O224 Pr201 2.438 . S
O224 C210 1.267 . S
O225 Pr200 2.437 . S
O225 C210 1.278 . S
O226 Pr201 2.562 . S
O226 C211 1.254 . S
O227 Pr201 2.490 . S
O227 C211 1.225 . S
O228 Pr200 2.436 . S
O228 Pr201 2.695 . S
O228 C218 1.270 . S
O229 Pr201 2.512 . S
O229 C218 1.248 . S
O230 Pr200 2.438 . S
O230 C219 1.267 . S
O231 Pr201 2.437 . S
O231 C219 1.278 . S
H232 C204 0.913 1_655 S
H233 C205 0.929 . S
H234 C207 0.931 . S
H235 C208 0.930 . S
H236 C213 0.929 . S
H237 C214 0.929 . S
H238 C216 0.931 . S
H239 C217 0.930 . S
Pr240 C242 2.880 . S
Pr240 O260 2.562 . S
Pr240 O261 2.490 . S
Pr240 O262 2.695 . S
Pr240 O263 2.512 . S
Pr240 O265 2.437 . S
Pr240 O268 2.436 . S
Pr240 O270 2.438 . S
Pr241 C251 2.880 . S
Pr241 O262 2.436 . S
Pr241 O264 2.438 . S
Pr241 O266 2.562 . S
Pr241 O267 2.490 . S
Pr241 O268 2.695 . S
Pr241 O269 2.512 . S
Pr241 O271 2.437 . S
C242 Pr240 2.880 . S
C242 C243 1.491 . S
C242 O260 1.254 . S
C242 O261 1.225 . S
C243 C242 1.491 . S
C243 C244 1.392 . S
C243 C248 1.356 . S
C244 C243 1.392 . S
C244 C245 1.368 . S
C244 H272 0.929 . S
C245 C244 1.368 . S
C245 C246 1.386 . S
C245 H273 0.929 . S
C246 C245 1.386 . S
C246 C247 1.373 . S
C247 C246 1.373 . S
C247 C248 1.409 . S
C247 H274 0.931 . S
C248 C243 1.356 . S
C248 C247 1.409 . S
C248 H275 0.930 . S
C249 O262 1.270 . S
C249 O263 1.248 . S
C250 O264 1.267 . S
C250 O265 1.278 . S
C251 Pr241 2.880 . S
C251 C252 1.491 . S
C251 O266 1.254 . S
C251 O267 1.225 . S
C252 C251 1.491 . S
C252 C253 1.392 . S
C252 C257 1.356 . S
C253 C252 1.392 . S
C253 C254 1.368 . S
C253 H276 0.929 . S
C254 C253 1.368 . S
C254 C255 1.386 . S
C254 H277 0.929 . S
C255 C254 1.386 . S
C255 C256 1.373 . S
C256 C255 1.373 . S
C256 C257 1.409 . S
C256 H278 0.931 . S
C257 C252 1.356 . S
C257 C256 1.409 . S
C257 H279 0.930 . S
C258 O268 1.270 . S
C258 O269 1.248 . S
C259 O270 1.267 . S
C259 O271 1.278 . S
O260 Pr240 2.562 . S
O260 C242 1.254 . S
O261 Pr240 2.490 . S
O261 C242 1.225 . S
O262 Pr240 2.695 . S
O262 Pr241 2.436 . S
O262 C249 1.270 . S
O263 Pr240 2.512 . S
O263 C249 1.248 . S
O264 Pr241 2.438 . S
O264 C250 1.267 . S
O265 Pr240 2.437 . S
O265 C250 1.278 . S
O266 Pr241 2.562 . S
O266 C251 1.254 . S
O267 Pr241 2.490 . S
O267 C251 1.225 . S
O268 Pr240 2.436 . S
O268 Pr241 2.695 . S
O268 C258 1.270 . S
O269 Pr241 2.512 . S
O269 C258 1.248 . S
O270 Pr240 2.438 . S
O270 C259 1.267 . S
O271 Pr241 2.437 . S
O271 C259 1.278 . S
H272 C244 0.929 . S
H273 C245 0.929 . S
H274 C247 0.931 . S
H275 C248 0.930 . S
H276 C253 0.929 . S
H277 C254 0.929 . S
H278 C256 0.931 . S
H279 C257 0.930 . S
Pr280 C282 2.880 . S
Pr280 O300 2.562 . S
Pr280 O301 2.490 . S
Pr280 O302 2.695 . S
Pr280 O303 2.512 . S
Pr280 O305 2.437 . S
Pr280 O308 2.436 . S
Pr280 O310 2.438 . S
Pr281 C291 2.880 . S
Pr281 O302 2.436 . S
Pr281 O304 2.438 . S
Pr281 O306 2.562 . S
Pr281 O307 2.490 . S
Pr281 O308 2.695 . S
Pr281 O309 2.512 . S
Pr281 O311 2.437 . S
C282 Pr280 2.880 . S
C282 C283 1.491 . S
C282 O300 1.254 . S
C282 O301 1.225 . S
C283 C282 1.491 . S
C283 C284 1.392 . S
C283 C288 1.356 . S
C284 C283 1.392 . S
C284 C285 1.368 . S
C284 H312 0.929 . S
C285 C284 1.368 . S
C285 C286 1.386 . S
C285 H313 0.929 . S
C286 C285 1.386 . S
C286 C287 1.373 . S
C287 C286 1.373 . S
C287 C288 1.409 . S
C287 H314 0.931 . S
C288 C283 1.356 . S
C288 C287 1.409 . S
C288 H315 0.930 . S
C289 O302 1.270 . S
C289 O303 1.248 . S
C290 O304 1.267 . S
C290 O305 1.278 . S
C291 Pr281 2.880 . S
C291 C292 1.491 . S
C291 O306 1.254 . S
C291 O307 1.225 . S
C292 C291 1.491 . S
C292 C293 1.392 . S
C292 C297 1.356 . S
C293 C292 1.392 . S
C293 C294 1.368 . S
C293 H316 0.929 . S
C294 C293 1.368 . S
C294 C295 1.386 . S
C294 H317 0.929 . S
C295 C294 1.386 . S
C295 C296 1.373 . S
C296 C295 1.373 . S
C296 C297 1.409 . S
C296 H318 0.931 . S
C297 C292 1.356 . S
C297 C296 1.409 . S
C297 H319 0.930 . S
C298 O308 1.270 . S
C298 O309 1.248 . S
C299 O310 1.267 . S
C299 O311 1.278 . S
O300 Pr280 2.562 . S
O300 C282 1.254 . S
O301 Pr280 2.490 . S
O301 C282 1.225 . S
O302 Pr280 2.695 . S
O302 Pr281 2.436 . S
O302 C289 1.270 . S
O303 Pr280 2.512 . S
O303 C289 1.248 . S
O304 Pr281 2.438 . S
O304 C290 1.267 . S
O305 Pr280 2.437 . S
O305 C290 1.278 . S
O306 Pr281 2.562 . S
O306 C291 1.254 . S
O307 Pr281 2.490 . S
O307 C291 1.225 . S
O308 Pr280 2.436 . S
O308 Pr281 2.695 . S
O308 C298 1.270 . S
O309 Pr281 2.512 . S
O309 C298 1.248 . S
O310 Pr280 2.438 . S
O310 C299 1.267 . S
O311 Pr281 2.437 . S
O311 C299 1.278 . S
H312 C284 0.929 . S
H313 C285 0.929 . S
H314 C287 0.931 . S
H315 C288 0.930 . S
H316 C293 0.929 . S
H317 C294 0.929 . S
H318 C296 0.931 . S
H319 C297 0.930 . S
Pr320 C322 2.880 . S
Pr320 O340 2.562 . S
Pr320 O341 2.490 . S
Pr320 O342 2.695 . S
Pr320 O343 2.512 . S
Pr320 O345 2.437 . S
Pr320 O348 2.436 . S
Pr320 O350 2.438 . S
Pr321 C331 2.880 . S
Pr321 O342 2.436 . S
Pr321 O344 2.438 . S
Pr321 O346 2.562 . S
Pr321 O347 2.490 . S
Pr321 O348 2.695 . S
Pr321 O349 2.512 . S
Pr321 O351 2.437 . S
C322 Pr320 2.880 . S
C322 C323 1.491 . S
C322 O340 1.254 . S
C322 O341 1.225 . S
C323 C322 1.491 . S
C323 C324 1.392 . S
C323 C328 1.356 . S
C324 C323 1.392 . S
C324 C325 1.368 . S
C324 H352 0.929 . S
C325 C324 1.368 . S
C325 C326 1.386 . S
C325 H353 0.929 . S
C326 C325 1.386 . S
C326 C327 1.373 . S
C327 C326 1.373 . S
C327 C328 1.409 . S
C327 H354 0.931 . S
C328 C323 1.356 . S
C328 C327 1.409 . S
C328 H355 0.930 . S
C329 O342 1.270 . S
C329 O343 1.248 . S
C330 O344 1.267 . S
C330 O345 1.278 . S
C331 Pr321 2.880 . S
C331 C332 1.491 . S
C331 O346 1.254 . S
C331 O347 1.225 . S
C332 C331 1.491 . S
C332 C333 1.392 . S
C332 C337 1.356 . S
C333 C332 1.392 . S
C333 C334 1.368 . S
C333 H356 0.929 . S
C334 C333 1.368 . S
C334 C335 1.386 . S
C334 H357 0.929 . S
C335 C334 1.386 . S
C335 C336 1.373 . S
C336 C335 1.373 . S
C336 C337 1.409 . S
C336 H358 0.931 . S
C337 C332 1.356 . S
C337 C336 1.409 . S
C337 H359 0.930 . S
C338 O348 1.270 . S
C338 O349 1.248 . S
C339 O350 1.267 . S
C339 O351 1.278 . S
O340 Pr320 2.562 . S
O340 C322 1.254 . S
O341 Pr320 2.490 . S
O341 C322 1.225 . S
O342 Pr320 2.695 . S
O342 Pr321 2.436 . S
O342 C329 1.270 . S
O343 Pr320 2.512 . S
O343 C329 1.248 . S
O344 Pr321 2.438 . S
O344 C330 1.267 . S
O345 Pr320 2.437 . S
O345 C330 1.278 . S
O346 Pr321 2.562 . S
O346 C331 1.254 . S
O347 Pr321 2.490 . S
O347 C331 1.225 . S
O348 Pr320 2.436 . S
O348 Pr321 2.695 . S
O348 C338 1.270 . S
O349 Pr321 2.512 . S
O349 C338 1.248 . S
O350 Pr320 2.438 . S
O350 C339 1.267 . S
O351 Pr321 2.437 . S
O351 C339 1.278 . S
H352 C324 0.929 . S
H353 C325 0.929 . S
H354 C327 0.931 . S
H355 C328 0.930 . S
H356 C333 0.929 . S
H357 C334 0.929 . S
H358 C336 0.931 . S
H359 C337 0.930 . S
C360 C361 1.349 . S
C360 C362 1.327 . S
C360 H385 0.950 . S
C361 C360 1.349 . S
C361 C377 1.349 1_554 S
C362 C360 1.327 . S
C362 C381 1.429 1_554 S
C362 H386 0.950 . S
C363 C380 1.574 . S
C363 C382 1.368 . S
C363 H387 0.949 . S
H364 C368 0.949 . S
C365 C366 1.349 . S
C365 C367 1.327 . S
C365 H388 0.950 . S
C366 C365 1.349 . S
C366 C378 1.349 . S
C367 C365 1.327 . S
C367 C383 1.429 . S
C367 H389 0.950 . S
C368 H364 0.949 . S
C368 C376 1.574 . S
C368 C384 1.368 . S
H369 C377 0.950 . S
H370 C375 0.950 . S
H371 C376 0.949 1_554 S
H372 C378 0.950 . S
H373 C379 0.950 . S
H374 C380 0.949 . S
C375 H370 0.950 . S
C375 C377 1.327 . S
C375 C381 1.429 . S
C376 C368 1.574 . S
C376 H371 0.949 1_556 S
C376 C382 1.368 . S
C377 C361 1.349 1_556 S
C377 H369 0.950 . S
C377 C375 1.327 . S
C378 C366 1.349 . S
C378 H372 0.950 . S
C378 C379 1.327 . S
C379 H373 0.950 . S
C379 C378 1.327 . S
C379 C383 1.429 . S
C380 C363 1.574 . S
C380 H374 0.949 . S
C380 C384 1.368 . S
C381 C362 1.429 1_556 S
C381 C375 1.429 . S
C381 C382 1.523 . S
C382 C363 1.368 . S
C382 C376 1.368 . S
C382 C381 1.523 . S
C383 C367 1.429 . S
C383 C379 1.429 . S
C383 C384 1.523 . S
C384 C368 1.368 . S
C384 C380 1.368 . S
C384 C383 1.523 . S
H385 C360 0.950 . S
H386 C362 0.950 . S
H387 C363 0.949 . S
H388 C365 0.950 . S
H389 C367 0.950 . S
C390 C391 1.349 . S
C390 C392 1.327 . S
C390 H415 0.950 . S
C391 C390 1.349 . S
C391 C407 1.349 1_556 S
C392 C390 1.327 . S
C392 C411 1.429 . S
C392 H416 0.950 . S
C393 C410 1.574 . S
C393 C412 1.368 . S
C393 H417 0.949 . S
H394 C398 0.949 . S
C395 C396 1.349 . S
C395 C397 1.327 . S
C395 H418 0.950 . S
C396 C395 1.349 . S
C396 C408 1.349 . S
C397 C395 1.327 . S
C397 C413 1.429 . S
C397 H419 0.950 . S
C398 H394 0.949 . S
C398 C406 1.574 . S
C398 C414 1.368 . S
H399 C407 0.950 . S
H400 C405 0.950 . S
H401 C406 0.949 . S
H402 C408 0.950 . S
H403 C409 0.950 . S
H404 C410 0.949 . S
C405 H400 0.950 . S
C405 C407 1.327 . S
C405 C411 1.429 1_554 S
C406 C398 1.574 . S
C406 H401 0.949 . S
C406 C412 1.368 . S
C407 C391 1.349 1_554 S
C407 H399 0.950 . S
C407 C405 1.327 . S
C408 C396 1.349 . S
C408 H402 0.950 . S
C408 C409 1.327 . S
C409 H403 0.950 . S
C409 C408 1.327 . S
C409 C413 1.429 . S
C410 C393 1.574 . S
C410 H404 0.949 . S
C410 C414 1.368 . S
C411 C392 1.429 . S
C411 C405 1.429 1_556 S
C411 C412 1.523 . S
C412 C393 1.368 . S
C412 C406 1.368 . S
C412 C411 1.523 . S
C413 C397 1.429 . S
C413 C409 1.429 . S
C413 C414 1.523 . S
C414 C398 1.368 . S
C414 C410 1.368 . S
C414 C413 1.523 . S
H415 C390 0.950 . S
H416 C392 0.950 . S
H417 C393 0.949 . S
H418 C395 0.950 . S
H419 C397 0.950 . S
C420 C421 1.349 . S
C420 C422 1.327 . S
C420 H445 0.950 . S
C421 C420 1.349 . S
C421 C437 1.345 1_556 S
C422 C420 1.327 . S
C422 C441 1.429 . S
C422 H446 0.950 . S
C423 C440 1.574 . S
C423 C442 1.368 . S
C423 H447 0.949 . S
H424 C428 0.949 . S
C425 C426 1.349 . S
C425 C427 1.327 . S
C425 H448 0.950 . S
C426 C425 1.349 . S
C426 C438 1.349 . S
C427 C425 1.327 . S
C427 C443 1.429 . S
C427 H449 0.950 . S
C428 H424 0.949 . S
C428 C436 1.574 . S
C428 C444 1.368 . S
H429 C437 0.955 . S
H430 C435 0.950 1_554 S
H431 C436 0.949 . S
H432 C438 0.950 . S
H433 C439 0.950 . S
H434 C440 0.949 . S
C435 H430 0.950 1_556 S
C435 C437 1.325 1_556 S
C435 C441 1.429 . S
C436 C428 1.574 . S
C436 H431 0.949 . S
C436 C442 1.368 . S
C437 C421 1.345 1_554 S
C437 H429 0.955 . S
C437 C435 1.325 1_554 S
C438 C426 1.349 . S
C438 H432 0.950 . S
C438 C439 1.327 . S
C439 H433 0.950 . S
C439 C438 1.327 . S
C439 C443 1.429 . S
C440 C423 1.574 . S
C440 H434 0.949 . S
C440 C444 1.368 . S
C441 C422 1.429 . S
C441 C435 1.429 . S
C441 C442 1.523 . S
C442 C423 1.368 . S
C442 C436 1.368 . S
C442 C441 1.523 . S
C443 C427 1.429 . S
C443 C439 1.429 . S
C443 C444 1.523 . S
C444 C428 1.368 . S
C444 C440 1.368 . S
C444 C443 1.523 . S
H445 C420 0.950 . S
H446 C422 0.950 . S
H447 C423 0.949 . S
H448 C425 0.950 . S
H449 C427 0.950 . S
C450 C451 1.349 . S
C450 C452 1.327 . S
C450 H475 0.950 . S
C451 C450 1.349 . S
C451 C467 1.349 . S
C452 C450 1.327 . S
C452 C471 1.429 . S
C452 H476 0.950 . S
C453 C470 1.574 . S
C453 C472 1.368 . S
C453 H477 0.949 . S
H454 C458 0.949 . S
C455 C456 1.349 . S
C455 C457 1.327 . S
C455 H478 0.950 1_554 S
C456 C455 1.349 . S
C456 C468 1.349 . S
C457 C455 1.327 . S
C457 C473 1.429 . S
C457 H479 0.950 . S
C458 H454 0.949 . S
C458 C466 1.574 . S
C458 C474 1.368 . S
H459 C467 0.950 . S
H460 C465 0.950 . S
H461 C466 0.949 . S
H462 C468 0.950 . S
H463 C469 0.950 . S
H464 C470 0.949 . S
C465 H460 0.950 . S
C465 C467 1.327 . S
C465 C471 1.429 . S
C466 C458 1.574 . S
C466 H461 0.949 . S
C466 C472 1.368 . S
C467 C451 1.349 . S
C467 H459 0.950 . S
C467 C465 1.327 . S
C468 C456 1.349 . S
C468 H462 0.950 . S
C468 C469 1.327 . S
C469 H463 0.950 . S
C469 C468 1.327 . S
C469 C473 1.429 . S
C470 C453 1.574 . S
C470 H464 0.949 . S
C470 C474 1.368 . S
C471 C452 1.429 . S
C471 C465 1.429 . S
C471 C472 1.523 . S
C472 C453 1.368 . S
C472 C466 1.368 . S
C472 C471 1.523 . S
C473 C457 1.429 . S
C473 C469 1.429 . S
C473 C474 1.523 . S
C474 C458 1.368 . S
C474 C470 1.368 . S
C474 C473 1.523 . S
H475 C450 0.950 . S
H476 C452 0.950 . S
H477 C453 0.949 . S
H478 C455 0.950 1_556 S
H479 C457 0.950 . S
C480 C481 1.349 . S
C480 C482 1.327 . S
C480 H505 0.950 . S
C481 C480 1.349 . S
C481 C497 1.349 . S
C482 C480 1.327 . S
C482 C501 1.429 . S
C482 H506 0.950 . S
C483 C500 1.574 . S
C483 C502 1.368 . S
C483 H507 0.949 . S
H484 C488 0.949 . S
C485 C486 1.349 . S
C485 C487 1.327 . S
C485 H508 0.950 1_554 S
C486 C485 1.349 . S
C486 C498 1.349 1_655 S
C487 C485 1.327 . S
C487 C503 1.429 . S
C487 H509 0.950 . S
C488 H484 0.949 . S
C488 C496 1.574 . S
C488 C504 1.368 . S
H489 C497 0.950 . S
H490 C495 0.950 . S
H491 C496 0.949 . S
H492 C498 0.950 . S
H493 C499 0.950 1_455 S
H494 C500 0.949 . S
C495 H490 0.950 . S
C495 C497 1.327 . S
C495 C501 1.429 . S
C496 C488 1.574 . S
C496 H491 0.949 . S
C496 C502 1.368 . S
C497 C481 1.349 . S
C497 H489 0.950 . S
C497 C495 1.327 . S
C498 C486 1.349 1_455 S
C498 H492 0.950 . S
C498 C499 1.327 1_455 S
C499 H493 0.950 1_655 S
C499 C498 1.327 1_655 S
C499 C503 1.429 . S
C500 C483 1.574 . S
C500 H494 0.949 . S
C500 C504 1.368 . S
C501 C482 1.429 . S
C501 C495 1.429 . S
C501 C502 1.523 . S
C502 C483 1.368 . S
C502 C496 1.368 . S
C502 C501 1.523 . S
C503 C487 1.429 . S
C503 C499 1.429 . S
C503 C504 1.523 . S
C504 C488 1.368 . S
C504 C500 1.368 . S
C504 C503 1.523 . S
H505 C480 0.950 . S
H506 C482 0.950 . S
H507 C483 0.949 . S
H508 C485 0.950 1_556 S
H509 C487 0.950 . S
C510 C511 1.349 . S
C510 C512 1.327 . S
C510 H535 0.950 . S
C511 C510 1.349 . S
C511 C527 1.349 . S
C512 C510 1.327 . S
C512 C531 1.429 . S
C512 H536 0.950 . S
C513 C530 1.574 . S
C513 C532 1.368 . S
C513 H537 0.949 . S
H514 C518 0.949 . S
C515 C516 1.349 . S
C515 C517 1.327 . S
C515 H538 0.950 . S
C516 C515 1.349 . S
C516 C528 1.349 . S
C517 C515 1.327 . S
C517 C533 1.429 . S
C517 H539 0.950 . S
C518 H514 0.949 . S
C518 C526 1.574 . S
C518 C534 1.368 . S
H519 C527 0.950 1_556 S
H520 C525 0.950 . S
H521 C526 0.949 . S
H522 C528 0.950 . S
H523 C529 0.950 . S
H524 C530 0.949 . S
C525 H520 0.950 . S
C525 C527 1.327 . S
C525 C531 1.429 . S
C526 C518 1.574 . S
C526 H521 0.949 . S
C526 C532 1.368 . S
C527 C511 1.349 . S
C527 H519 0.950 1_554 S
C527 C525 1.327 . S
C528 C516 1.349 . S
C528 H522 0.950 . S
C528 C529 1.327 . S
C529 H523 0.950 . S
C529 C528 1.327 . S
C529 C533 1.429 . S
C530 C513 1.574 . S
C530 H524 0.949 . S
C530 C534 1.368 . S
C531 C512 1.429 . S
C531 C525 1.429 . S
C531 C532 1.523 . S
C532 C513 1.368 . S
C532 C526 1.368 . S
C532 C531 1.523 . S
C533 C517 1.429 . S
C533 C529 1.429 . S
C533 C534 1.523 . S
C534 C518 1.368 . S
C534 C530 1.368 . S
C534 C533 1.523 . S
H535 C510 0.950 . S
H536 C512 0.950 . S
H537 C513 0.949 . S
H538 C515 0.950 . S
H539 C517 0.950 . S
C540 C541 1.349 . S
C540 C542 1.327 . S
C540 H565 0.950 . S
C541 C540 1.349 . S
C541 C557 1.349 . S
C542 C540 1.327 . S
C542 C561 1.429 . S
C542 H566 0.950 . S
C543 C560 1.574 . S
C543 C562 1.368 . S
C543 H567 0.949 . S
H544 C548 0.949 . S
C545 C546 1.349 . S
C545 C547 1.327 . S
C545 H568 0.950 . S
C546 C545 1.349 . S
C546 C558 1.349 . S
C547 C545 1.327 . S
C547 C563 1.429 . S
C547 H569 0.950 . S
C548 H544 0.949 . S
C548 C556 1.574 . S
C548 C564 1.368 . S
H549 C557 0.950 . S
H550 C555 0.950 . S
H551 C556 0.949 . S
H552 C558 0.950 . S
H553 C559 0.950 . S
H554 C560 0.949 . S
C555 H550 0.950 . S
C555 C557 1.327 . S
C555 C561 1.429 . S
C556 C548 1.574 . S
C556 H551 0.949 . S
C556 C562 1.368 . S
C557 C541 1.349 . S
C557 H549 0.950 . S
C557 C555 1.327 . S
C558 C546 1.349 . S
C558 H552 0.950 . S
C558 C559 1.327 . S
C559 H553 0.950 . S
C559 C558 1.327 . S
C559 C563 1.429 . S
C560 C543 1.574 . S
C560 H554 0.949 . S
C560 C564 1.368 . S
C561 C542 1.429 . S
C561 C555 1.429 . S
C561 C562 1.523 . S
C562 C543 1.368 . S
C562 C556 1.368 . S
C562 C561 1.523 . S
C563 C547 1.429 . S
C563 C559 1.429 . S
C563 C564 1.523 . S
C564 C548 1.368 . S
C564 C560 1.368 . S
C564 C563 1.523 . S
H565 C540 0.950 . S
H566 C542 0.950 . S
H567 C543 0.949 . S
H568 C545 0.950 . S
H569 C547 0.950 . S
C570 C571 1.349 . S
C570 C572 1.327 . S
C570 H595 0.950 . S
C571 C570 1.349 . S
C571 C587 1.349 . S
C572 C570 1.327 . S
C572 C591 1.429 . S
C572 H596 0.950 . S
C573 C590 1.574 . S
C573 C592 1.368 . S
C573 H597 0.949 . S
H574 C578 0.949 . S
C575 C576 1.349 . S
C575 C577 1.327 . S
C575 H598 0.950 . S
C576 C575 1.349 . S
C576 C588 1.349 . S
C577 C575 1.327 . S
C577 C593 1.429 . S
C577 H599 0.950 . S
C578 H574 0.949 . S
C578 C586 1.574 . S
C578 C594 1.368 . S
H579 C587 0.950 . S
H580 C585 0.950 . S
H581 C586 0.949 . S
H582 C588 0.950 . S
H583 C589 0.950 . S
H584 C590 0.949 . S
C585 H580 0.950 . S
C585 C587 1.327 . S
C585 C591 1.429 . S
C586 C578 1.574 . S
C586 H581 0.949 . S
C586 C592 1.368 . S
C587 C571 1.349 . S
C587 H579 0.950 . S
C587 C585 1.327 . S
C588 C576 1.349 . S
C588 H582 0.950 . S
C588 C589 1.327 . S
C589 H583 0.950 . S
C589 C588 1.327 . S
C589 C593 1.429 . S
C590 C573 1.574 . S
C590 H584 0.949 . S
C590 C594 1.368 . S
C591 C572 1.429 . S
C591 C585 1.429 . S
C591 C592 1.523 . S
C592 C573 1.368 . S
C592 C586 1.368 . S
C592 C591 1.523 . S
C593 C577 1.429 . S
C593 C589 1.429 . S
C593 C594 1.523 . S
C594 C578 1.368 . S
C594 C590 1.368 . S
C594 C593 1.523 . S
H595 C570 0.950 . S
H596 C572 0.950 . S
H597 C573 0.949 . S
H598 C575 0.950 . S
H599 C577 0.950 . S
C600 C601 1.349 . S
C600 C602 1.327 . S
C600 H625 0.950 . S
C601 C600 1.349 . S
C601 C617 1.349 . S
C602 C600 1.327 . S
C602 C621 1.429 . S
C602 H626 0.950 . S
C603 C620 1.574 . S
C603 C622 1.368 . S
C603 H627 0.949 . S
H604 C608 0.949 . S
C605 C606 1.349 1_545 S
C605 C607 1.327 . S
C605 H628 0.950 . S
C606 C605 1.349 1_565 S
C606 C618 1.349 . S
C607 C605 1.327 . S
C607 C623 1.429 . S
C607 H629 0.950 . S
C608 H604 0.949 . S
C608 C616 1.574 . S
C608 C624 1.368 . S
H609 C617 0.950 . S
H610 C615 0.950 . S
H611 C616 0.949 . S
H612 C618 0.950 . S
H613 C619 0.950 . S
H614 C620 0.949 . S
C615 H610 0.950 . S
C615 C617 1.327 . S
C615 C621 1.429 . S
C616 C608 1.574 . S
C616 H611 0.949 . S
C616 C622 1.368 . S
C617 C601 1.349 . S
C617 H609 0.950 . S
C617 C615 1.327 . S
C618 C606 1.349 . S
C618 H612 0.950 . S
C618 C619 1.327 . S
C619 H613 0.950 . S
C619 C618 1.327 . S
C619 C623 1.429 1_565 S
C620 C603 1.574 . S
C620 H614 0.949 . S
C620 C624 1.368 . S
C621 C602 1.429 . S
C621 C615 1.429 . S
C621 C622 1.523 . S
C622 C603 1.368 . S
C622 C616 1.368 . S
C622 C621 1.523 . S
C623 C607 1.429 . S
C623 C619 1.429 1_545 S
C623 C624 1.523 . S
C624 C608 1.368 . S
C624 C620 1.368 . S
C624 C623 1.523 . S
H625 C600 0.950 . S
H626 C602 0.950 . S
H627 C603 0.949 . S
H628 C605 0.950 . S
H629 C607 0.950 . S
C630 C631 1.349 . S
C630 C632 1.327 . S
C630 H655 0.950 1_554 S
C631 C630 1.349 . S
C631 C647 1.349 . S
C632 C630 1.327 . S
C632 C651 1.429 . S
C632 H656 0.950 1_554 S
C633 C650 1.574 . S
C633 C652 1.368 . S
C633 H657 0.949 . S
H634 C638 0.949 1_556 S
C635 C636 1.349 . S
C635 C637 1.327 . S
C635 H658 0.950 . S
C636 C635 1.349 . S
C636 C648 1.349 . S
C637 C635 1.327 . S
C637 C653 1.429 . S
C637 H659 0.950 . S
C638 H634 0.949 1_554 S
C638 C646 1.574 . S
C638 C654 1.368 . S
H639 C647 0.950 . S
H640 C645 0.950 . S
H641 C646 0.949 1_556 S
H642 C648 0.950 1_556 S
H643 C649 0.950 1_556 S
H644 C650 0.949 . S
C645 H640 0.950 . S
C645 C647 1.327 . S
C645 C651 1.429 . S
C646 C638 1.574 . S
C646 H641 0.949 1_554 S
C646 C652 1.368 . S
C647 C631 1.349 . S
C647 H639 0.950 . S
C647 C645 1.327 . S
C648 C636 1.349 . S
C648 H642 0.950 1_554 S
C648 C649 1.327 . S
C649 H643 0.950 1_554 S
C649 C648 1.327 . S
C649 C653 1.429 . S
C650 C633 1.574 . S
C650 H644 0.949 . S
C650 C654 1.368 . S
C651 C632 1.429 . S
C651 C645 1.429 . S
C651 C652 1.523 . S
C652 C633 1.368 . S
C652 C646 1.368 . S
C652 C651 1.523 . S
C653 C637 1.429 . S
C653 C649 1.429 . S
C653 C654 1.523 . S
C654 C638 1.368 . S
C654 C650 1.368 . S
C654 C653 1.523 . S
H655 C630 0.950 1_556 S
H656 C632 0.950 1_556 S
H657 C633 0.949 . S
H658 C635 0.950 . S
H659 C637 0.950 . S
C660 C661 1.349 1_556 S
C660 C662 1.327 . S
C660 H685 0.950 . S
C661 C660 1.349 1_554 S
C661 C677 1.349 . S
C662 C660 1.327 . S
C662 C681 1.429 1_556 S
C662 H686 0.950 . S
C663 C680 1.574 . S
C663 C682 1.368 1_545 S
C663 H687 0.949 1_545 S
H664 C668 0.949 . S
C665 C666 1.349 . S
C665 C667 1.327 . S
C665 H688 0.950 . S
C666 C665 1.349 . S
C666 C678 1.349 . S
C667 C665 1.327 . S
C667 C683 1.429 . S
C667 H689 0.950 . S
C668 H664 0.949 . S
C668 C676 1.574 1_545 S
C668 C684 1.368 1_556 S
H669 C677 0.950 . S
H670 C675 0.950 . S
H671 C676 0.949 . S
H672 C678 0.950 1_556 S
H673 C679 0.950 1_556 S
H674 C680 0.949 . S
C675 H670 0.950 . S
C675 C677 1.327 . S
C675 C681 1.429 . S
C676 C668 1.574 1_565 S
C676 H671 0.949 . S
C676 C682 1.368 1_556 S
C677 C661 1.349 . S
C677 H669 0.950 . S
C677 C675 1.327 . S
C678 C666 1.349 . S
C678 H672 0.950 1_554 S
C678 C679 1.327 . S
C679 H673 0.950 1_554 S
C679 C678 1.327 . S
C679 C683 1.429 . S
C680 C663 1.574 . S
C680 H674 0.949 . S
C680 C684 1.368 . S
C681 C662 1.429 1_554 S
C681 C675 1.429 . S
C681 C682 1.523 . S
C682 C663 1.368 1_565 S
C682 C676 1.368 1_554 S
C682 C681 1.523 . S
C683 C667 1.429 . S
C683 C679 1.429 . S
C683 C684 1.523 . S
C684 C668 1.368 1_554 S
C684 C680 1.368 . S
C684 C683 1.523 . S
H685 C660 0.950 . S
H686 C662 0.950 . S
H687 C663 0.949 1_565 S
H688 C665 0.950 . S
H689 C667 0.950 . S
C690 C691 1.349 1_556 S
C690 C692 1.327 . S
C690 H715 0.950 . S
C691 C690 1.349 1_554 S
C691 C707 1.349 . S
C692 C690 1.327 . S
C692 C711 1.458 1_556 S
C692 H716 0.950 . S
C693 C710 1.574 . S
C693 C712 1.368 . S
C693 H717 0.949 . S
H694 C698 0.949 . S
C695 C696 1.349 . S
C695 C697 1.327 . S
C695 H718 0.950 . S
C696 C695 1.349 . S
C696 C708 1.349 1_554 S
C697 C695 1.327 . S
C697 C713 1.429 . S
C697 H719 0.950 . S
C698 H694 0.949 . S
C698 C706 1.574 . S
C698 C714 1.368 1_556 S
H699 C707 0.950 . S
H700 C705 0.950 1_455 S
H701 C706 0.949 . S
H702 C708 0.950 . S
H703 C709 0.950 . S
H704 C710 0.949 . S
C705 H700 0.950 1_655 S
C705 C707 1.327 . S
C705 C711 1.429 . S
C706 C698 1.574 . S
C706 H701 0.949 . S
C706 C712 1.368 1_556 S
C707 C691 1.349 . S
C707 H699 0.950 . S
C707 C705 1.327 . S
C708 C696 1.349 1_556 S
C708 H702 0.950 . S
C708 C709 1.327 . S
C709 H703 0.950 . S
C709 C708 1.327 . S
C709 C713 1.429 1_556 S
C710 C693 1.574 . S
C710 H704 0.949 . S
C710 C714 1.368 . S
C711 C692 1.458 1_554 S
C711 C705 1.429 . S
C711 C712 1.496 1_655 S
C712 C693 1.368 . S
C712 C706 1.368 1_554 S
C712 C711 1.496 1_455 S
C713 C697 1.429 . S
C713 C709 1.429 1_554 S
C713 C714 1.523 . S
C714 C698 1.368 1_554 S
C714 C710 1.368 . S
C714 C713 1.523 . S
H715 C690 0.950 . S
H716 C692 0.950 . S
H717 C693 0.949 . S
H718 C695 0.950 . S
H719 C697 0.950 . S
C720 C721 1.349 . S
C720 C722 1.327 . S
C720 H745 0.950 . S
C721 C720 1.349 . S
C721 C737 1.349 . S
C722 C720 1.327 . S
C722 C741 1.429 . S
C722 H746 0.950 . S
C723 C740 1.574 . S
C723 C742 1.368 . S
C723 H747 0.949 . S
H724 C728 0.949 . S
C725 C726 1.349 . S
C725 C727 1.327 . S
C725 H748 0.950 . S
C726 C725 1.349 . S
C726 C738 1.349 . S
C727 C725 1.327 . S
C727 C743 1.429 . S
C727 H749 0.950 . S
C728 H724 0.949 . S
C728 C736 1.574 . S
C728 C744 1.368 . S
H729 C737 0.950 . S
H730 C735 0.950 . S
H731 C736 0.949 . S
H732 C738 0.950 . S
H733 C739 0.950 . S
H734 C740 0.949 . S
C735 H730 0.950 . S
C735 C737 1.327 . S
C735 C741 1.429 . S
C736 C728 1.574 . S
C736 H731 0.949 . S
C736 C742 1.368 . S
C737 C721 1.349 . S
C737 H729 0.950 . S
C737 C735 1.327 . S
C738 C726 1.349 . S
C738 H732 0.950 . S
C738 C739 1.327 . S
C739 H733 0.950 . S
C739 C738 1.327 . S
C739 C743 1.429 . S
C740 C723 1.574 . S
C740 H734 0.949 . S
C740 C744 1.368 . S
C741 C722 1.429 . S
C741 C735 1.429 . S
C741 C742 1.523 . S
C742 C723 1.368 . S
C742 C736 1.368 . S
C742 C741 1.523 . S
C743 C727 1.429 . S
C743 C739 1.429 . S
C743 C744 1.523 . S
C744 C728 1.368 . S
C744 C740 1.368 . S
C744 C743 1.523 . S
H745 C720 0.950 . S
H746 C722 0.950 . S
H747 C723 0.949 . S
H748 C725 0.950 . S
H749 C727 0.950 . S
C750 C751 1.349 . S
C750 C752 1.327 . S
C750 H775 0.950 . S
C751 C750 1.349 . S
C751 C767 1.349 . S
C752 C750 1.327 . S
C752 C771 1.429 . S
C752 H776 0.950 . S
C753 C770 1.574 . S
C753 C772 1.368 . S
C753 H777 0.949 . S
H754 C758 0.949 . S
C755 C756 1.349 . S
C755 C757 1.327 . S
C755 H778 0.950 . S
C756 C755 1.349 . S
C756 C768 1.349 . S
C757 C755 1.327 . S
C757 C773 1.429 . S
C757 H779 0.950 . S
C758 H754 0.949 . S
C758 C766 1.574 . S
C758 C774 1.368 . S
H759 C767 0.950 . S
H760 C765 0.950 . S
H761 C766 0.949 . S
H762 C768 0.950 . S
H763 C769 0.950 . S
H764 C770 0.949 . S
C765 H760 0.950 . S
C765 C767 1.327 . S
C765 C771 1.429 . S
C766 C758 1.574 . S
C766 H761 0.949 . S
C766 C772 1.368 . S
C767 C751 1.349 . S
C767 H759 0.950 . S
C767 C765 1.327 . S
C768 C756 1.349 . S
C768 H762 0.950 . S
C768 C769 1.327 . S
C769 H763 0.950 . S
C769 C768 1.327 . S
C769 C773 1.429 . S
C770 C753 1.574 . S
C770 H764 0.949 . S
C770 C774 1.368 . S
C771 C752 1.429 . S
C771 C765 1.429 . S
C771 C772 1.523 . S
C772 C753 1.368 . S
C772 C766 1.368 . S
C772 C771 1.523 . S
C773 C757 1.429 . S
C773 C769 1.429 . S
C773 C774 1.523 . S
C774 C758 1.368 . S
C774 C770 1.368 . S
C774 C773 1.523 . S
H775 C750 0.950 . S
H776 C752 0.950 . S
H777 C753 0.949 . S
H778 C755 0.950 . S
H779 C757 0.950 . S
C780 C781 1.349 . S
C780 C782 1.327 . S
C780 H805 0.950 . S
C781 C780 1.349 . S
C781 C797 1.349 . S
C782 C780 1.327 . S
C782 C801 1.429 . S
C782 H806 0.950 . S
C783 C800 1.574 . S
C783 C802 1.368 . S
C783 H807 0.949 . S
H784 C788 0.949 . S
C785 C786 1.349 . S
C785 C787 1.327 . S
C785 H808 0.950 . S
C786 C785 1.349 . S
C786 C798 1.349 . S
C787 C785 1.327 . S
C787 C803 1.429 . S
C787 H809 0.950 . S
C788 H784 0.949 . S
C788 C796 1.574 . S
C788 C804 1.368 . S
H789 C797 0.950 . S
H790 C795 0.950 . S
H791 C796 0.949 . S
H792 C798 0.950 . S
H793 C799 0.950 . S
H794 C800 0.949 . S
C795 H790 0.950 . S
C795 C797 1.327 . S
C795 C801 1.429 . S
C796 C788 1.574 . S
C796 H791 0.949 . S
C796 C802 1.368 . S
C797 C781 1.349 . S
C797 H789 0.950 . S
C797 C795 1.327 . S
C798 C786 1.349 . S
C798 H792 0.950 . S
C798 C799 1.327 . S
C799 H793 0.950 . S
C799 C798 1.327 . S
C799 C803 1.429 . S
C800 C783 1.574 . S
C800 H794 0.949 . S
C800 C804 1.368 . S
C801 C782 1.429 . S
C801 C795 1.429 . S
C801 C802 1.523 . S
C802 C783 1.368 . S
C802 C796 1.368 . S
C802 C801 1.523 . S
C803 C787 1.429 . S
C803 C799 1.429 . S
C803 C804 1.523 . S
C804 C788 1.368 . S
C804 C800 1.368 . S
C804 C803 1.523 . S
H805 C780 0.950 . S
H806 C782 0.950 . S
H807 C783 0.949 . S
H808 C785 0.950 . S
H809 C787 0.950 . S
C810 C811 1.349 . S
C810 C812 1.327 . S
C810 H835 0.950 . S
C811 C810 1.349 . S
C811 C827 1.349 . S
C812 C810 1.327 . S
C812 C831 1.429 . S
C812 H836 0.950 . S
C813 C830 1.574 . S
C813 C832 1.368 . S
C813 H837 0.949 . S
H814 C818 0.949 . S
C815 C816 1.349 . S
C815 C817 1.327 . S
C815 H838 0.950 . S
C816 C815 1.349 . S
C816 C828 1.349 . S
C817 C815 1.327 . S
C817 C833 1.429 . S
C817 H839 0.950 . S
C818 H814 0.949 . S
C818 C826 1.574 . S
C818 C834 1.368 . S
H819 C827 0.950 . S
H820 C825 0.950 . S
H821 C826 0.949 . S
H822 C828 0.950 . S
H823 C829 0.950 . S
H824 C830 0.949 . S
C825 H820 0.950 . S
C825 C827 1.327 . S
C825 C831 1.429 . S
C826 C818 1.574 . S
C826 H821 0.949 . S
C826 C832 1.368 . S
C827 C811 1.349 . S
C827 H819 0.950 . S
C827 C825 1.327 . S
C828 C816 1.349 . S
C828 H822 0.950 . S
C828 C829 1.327 . S
C829 H823 0.950 . S
C829 C828 1.327 . S
C829 C833 1.429 . S
C830 C813 1.574 . S
C830 H824 0.949 . S
C830 C834 1.368 . S
C831 C812 1.429 . S
C831 C825 1.429 . S
C831 C832 1.523 . S
C832 C813 1.368 . S
C832 C826 1.368 . S
C832 C831 1.523 . S
C833 C817 1.429 . S
C833 C829 1.429 . S
C833 C834 1.523 . S
C834 C818 1.368 . S
C834 C830 1.368 . S
C834 C833 1.523 . S
H835 C810 0.950 . S
H836 C812 0.950 . S
H837 C813 0.949 . S
H838 C815 0.950 . S
H839 C817 0.950 . S
C840 C841 1.349 . S
C840 C842 1.327 . S
C840 H865 0.950 . S
C841 C840 1.349 . S
C841 C857 1.349 . S
C842 C840 1.327 . S
C842 C861 1.429 . S
C842 H866 0.950 . S
C843 C860 1.574 . S
C843 C862 1.368 . S
C843 H867 0.949 . S
H844 C848 0.949 . S
C845 C846 1.349 . S
C845 C847 1.327 . S
C845 H868 0.950 . S
C846 C845 1.349 . S
C846 C858 1.349 . S
C847 C845 1.327 . S
C847 C863 1.429 . S
C847 H869 0.950 . S
C848 H844 0.949 . S
C848 C856 1.574 . S
C848 C864 1.368 . S
H849 C857 0.950 . S
H850 C855 0.950 . S
H851 C856 0.949 . S
H852 C858 0.950 . S
H853 C859 0.950 . S
H854 C860 0.949 . S
C855 H850 0.950 . S
C855 C857 1.327 . S
C855 C861 1.429 . S
C856 C848 1.574 . S
C856 H851 0.949 . S
C856 C862 1.368 . S
C857 C841 1.349 . S
C857 H849 0.950 . S
C857 C855 1.327 . S
C858 C846 1.349 . S
C858 H852 0.950 . S
C858 C859 1.327 . S
C859 H853 0.950 . S
C859 C858 1.327 . S
C859 C863 1.429 . S
C860 C843 1.574 . S
C860 H854 0.949 . S
C860 C864 1.368 . S
C861 C842 1.429 . S
C861 C855 1.429 . S
C861 C862 1.523 . S
C862 C843 1.368 . S
C862 C856 1.368 . S
C862 C861 1.523 . S
C863 C847 1.429 . S
C863 C859 1.429 . S
C863 C864 1.523 . S
C864 C848 1.368 . S
C864 C860 1.368 . S
C864 C863 1.523 . S
H865 C840 0.950 . S
H866 C842 0.950 . S
H867 C843 0.949 . S
H868 C845 0.950 . S
H869 C847 0.950 . S
C870 C871 1.349 . S
C870 C872 1.327 . S
C870 H895 0.950 . S
C871 C870 1.349 . S
C871 C887 1.349 . S
C872 C870 1.327 . S
C872 C891 1.429 . S
C872 H896 0.950 . S
C873 C890 1.574 . S
C873 C892 1.368 . S
C873 H897 0.949 . S
H874 C878 0.949 . S
C875 C876 1.349 . S
C875 C877 1.327 . S
C875 H898 0.950 . S
C876 C875 1.349 . S
C876 C888 1.349 . S
C877 C875 1.327 . S
C877 C893 1.429 . S
C877 H899 0.950 . S
C878 H874 0.949 . S
C878 C886 1.574 . S
C878 C894 1.368 . S
H879 C887 0.950 . S
H880 C885 0.950 . S
H881 C886 0.949 . S
H882 C888 0.950 . S
H883 C889 0.950 . S
H884 C890 0.949 . S
C885 H880 0.950 . S
C885 C887 1.327 . S
C885 C891 1.429 . S
C886 C878 1.574 . S
C886 H881 0.949 . S
C886 C892 1.368 . S
C887 C871 1.349 . S
C887 H879 0.950 . S
C887 C885 1.327 . S
C888 C876 1.349 . S
C888 H882 0.950 . S
C888 C889 1.327 . S
C889 H883 0.950 . S
C889 C888 1.327 . S
C889 C893 1.429 . S
C890 C873 1.574 . S
C890 H884 0.949 . S
C890 C894 1.368 . S
C891 C872 1.429 . S
C891 C885 1.429 . S
C891 C892 1.523 . S
C892 C873 1.368 . S
C892 C886 1.368 . S
C892 C891 1.523 . S
C893 C877 1.429 . S
C893 C889 1.429 . S
C893 C894 1.523 . S
C894 C878 1.368 . S
C894 C890 1.368 . S
C894 C893 1.523 . S
H895 C870 0.950 . S
H896 C872 0.950 . S
H897 C873 0.949 . S
H898 C875 0.950 . S
H899 C877 0.950 . S
C900 C901 1.349 . S
C900 C902 1.327 . S
C900 H925 0.950 . S
C901 C900 1.349 . S
C901 C917 1.349 . S
C902 C900 1.327 . S
C902 C921 1.429 . S
C902 H926 0.950 . S
C903 C920 1.574 . S
C903 C922 1.368 . S
C903 H927 0.949 . S
H904 C908 0.949 . S
C905 C906 1.349 . S
C905 C907 1.327 . S
C905 H928 0.950 . S
C906 C905 1.349 . S
C906 C918 1.349 . S
C907 C905 1.327 . S
C907 C923 1.429 . S
C907 H929 0.950 . S
C908 H904 0.949 . S
C908 C916 1.574 . S
C908 C924 1.368 . S
H909 C917 0.950 . S
H910 C915 0.950 . S
H911 C916 0.949 . S
H912 C918 0.950 . S
H913 C919 0.950 . S
H914 C920 0.949 . S
C915 H910 0.950 . S
C915 C917 1.327 . S
C915 C921 1.429 . S
C916 C908 1.574 . S
C916 H911 0.949 . S
C916 C922 1.368 . S
C917 C901 1.349 . S
C917 H909 0.950 . S
C917 C915 1.327 . S
C918 C906 1.349 . S
C918 H912 0.950 . S
C918 C919 1.327 . S
C919 H913 0.950 . S
C919 C918 1.327 . S
C919 C923 1.429 . S
C920 C903 1.574 . S
C920 H914 0.949 . S
C920 C924 1.368 . S
C921 C902 1.429 . S
C921 C915 1.429 . S
C921 C922 1.523 . S
C922 C903 1.368 . S
C922 C916 1.368 . S
C922 C921 1.523 . S
C923 C907 1.429 . S
C923 C919 1.429 . S
C923 C924 1.523 . S
C924 C908 1.368 . S
C924 C920 1.368 . S
C924 C923 1.523 . S
H925 C900 0.950 . S
H926 C902 0.950 . S
H927 C903 0.949 . S
H928 C905 0.950 . S
H929 C907 0.950 . S
C930 C931 1.349 . S
C930 C932 1.327 . S
C930 H955 0.950 . S
C931 C930 1.349 . S
C931 C947 1.349 . S
C932 C930 1.327 . S
C932 C951 1.429 . S
C932 H956 0.950 . S
C933 C950 1.574 . S
C933 C952 1.368 . S
C933 H957 0.949 . S
H934 C938 0.949 . S
C935 C936 1.349 . S
C935 C937 1.327 . S
C935 H958 0.950 . S
C936 C935 1.349 . S
C936 C948 1.349 . S
C937 C935 1.327 . S
C937 C953 1.429 . S
C937 H959 0.950 . S
C938 H934 0.949 . S
C938 C946 1.574 . S
C938 C954 1.368 . S
H939 C947 0.950 . S
H940 C945 0.950 . S
H941 C946 0.949 . S
H942 C948 0.950 . S
H943 C949 0.950 . S
H944 C950 0.949 . S
C945 H940 0.950 . S
C945 C947 1.327 . S
C945 C951 1.429 . S
C946 C938 1.574 . S
C946 H941 0.949 . S
C946 C952 1.368 . S
C947 C931 1.349 . S
C947 H939 0.950 . S
C947 C945 1.327 . S
C948 C936 1.349 . S
C948 H942 0.950 . S
C948 C949 1.327 . S
C949 H943 0.950 . S
C949 C948 1.327 . S
C949 C953 1.429 . S
C950 C933 1.574 . S
C950 H944 0.949 . S
C950 C954 1.368 . S
C951 C932 1.429 . S
C951 C945 1.429 . S
C951 C952 1.523 . S
C952 C933 1.368 . S
C952 C946 1.368 . S
C952 C951 1.523 . S
C953 C937 1.429 . S
C953 C949 1.429 . S
C953 C954 1.523 . S
C954 C938 1.368 . S
C954 C950 1.368 . S
C954 C953 1.523 . S
H955 C930 0.950 . S
H956 C932 0.950 . S
H957 C933 0.949 . S
H958 C935 0.950 . S
H959 C937 0.950 . S
C960 C961 1.349 . S
C960 C962 1.327 . S
C960 H985 0.950 . S
C961 C960 1.349 . S
C961 C977 1.349 . S
C962 C960 1.327 . S
C962 C981 1.429 . S
C962 H986 0.950 . S
C963 C980 1.574 . S
C963 C982 1.368 . S
C963 H987 0.949 1_545 S
H964 C968 0.949 . S
C965 C966 1.349 . S
C965 C967 1.327 . S
C965 H988 0.950 1_545 S
C966 C965 1.349 . S
C966 C978 1.349 . S
C967 C965 1.327 . S
C967 C983 1.429 . S
C967 H989 0.950 1_545 S
C968 H964 0.949 . S
C968 C976 1.574 . S
C968 C984 1.368 . S
H969 C977 0.950 1_565 S
H970 C975 0.950 1_565 S
H971 C976 0.949 . S
H972 C978 0.950 . S
H973 C979 0.950 . S
H974 C980 0.949 1_565 S
C975 H970 0.950 1_545 S
C975 C977 1.327 . S
C975 C981 1.429 . S
C976 C968 1.574 . S
C976 H971 0.949 . S
C976 C982 1.368 . S
C977 C961 1.349 . S
C977 H969 0.950 1_545 S
C977 C975 1.327 . S
C978 C966 1.349 . S
C978 H972 0.950 . S
C978 C979 1.327 . S
C979 H973 0.950 . S
C979 C978 1.327 . S
C979 C983 1.429 . S
C980 C963 1.574 . S
C980 H974 0.949 1_545 S
C980 C984 1.368 . S
C981 C962 1.429 . S
C981 C975 1.429 . S
C981 C982 1.523 . S
C982 C963 1.368 . S
C982 C976 1.368 . S
C982 C981 1.523 . S
C983 C967 1.429 . S
C983 C979 1.429 . S
C983 C984 1.523 . S
C984 C968 1.368 . S
C984 C980 1.368 . S
C984 C983 1.523 . S
H985 C960 0.950 . S
H986 C962 0.950 . S
H987 C963 0.949 1_565 S
H988 C965 0.950 1_565 S
H989 C967 0.950 1_565 S
C990 C991 1.349 . S
C990 C992 1.327 . S
C990 H1015 0.950 . S
C991 C990 1.349 . S
C991 C1007 1.349 . S
C992 C990 1.327 . S
C992 C1011 1.429 . S
C992 H1016 0.950 . S
C993 C1010 1.574 . S
C993 C1012 1.368 . S
C993 H1017 0.949 . S
H994 C998 0.949 . S
C995 C996 1.349 1_556 S
C995 C997 1.327 . S
C995 H1018 0.950 1_556 S
C996 C995 1.349 1_554 S
C996 C1008 1.349 . S
C997 C995 1.327 . S
C997 C1013 1.429 . S
C997 H1019 0.950 . S
C998 H994 0.949 . S
C998 C1006 1.574 . S
C998 C1014 1.368 . S
H999 C1007 0.950 . S
H1000 C1005 0.950 . S
H1001 C1006 0.949 . S
H1002 C1008 0.950 . S
H1003 C1009 0.950 . S
H1004 C1010 0.949 . S
C1005 H1000 0.950 . S
C1005 C1007 1.327 . S
C1005 C1011 1.429 . S
C1006 C998 1.574 . S
C1006 H1001 0.949 . S
C1006 C1012 1.368 . S
C1007 C991 1.349 . S
C1007 H999 0.950 . S
C1007 C1005 1.327 . S
C1008 C996 1.349 . S
C1008 H1002 0.950 . S
C1008 C1009 1.327 1_554 S
C1009 H1003 0.950 . S
C1009 C1008 1.327 1_556 S
C1009 C1013 1.429 . S
C1010 C993 1.574 . S
C1010 H1004 0.949 . S
C1010 C1014 1.368 . S
C1011 C992 1.429 . S
C1011 C1005 1.429 . S
C1011 C1012 1.523 . S
C1012 C993 1.368 . S
C1012 C1006 1.368 . S
C1012 C1011 1.523 . S
C1013 C997 1.429 . S
C1013 C1009 1.429 . S
C1013 C1014 1.523 . S
C1014 C998 1.368 . S
C1014 C1010 1.368 . S
C1014 C1013 1.523 . S
H1015 C990 0.950 . S
H1016 C992 0.950 . S
H1017 C993 0.949 . S
H1018 C995 0.950 1_554 S
H1019 C997 0.950 . S
C1020 C1021 1.349 . S
C1020 C1022 1.327 . S
C1020 H1045 0.950 . S
C1021 C1020 1.349 . S
C1021 C1037 1.349 . S
C1022 C1020 1.327 . S
C1022 C1041 1.429 . S
C1022 H1046 0.950 . S
C1023 C1040 1.574 . S
C1023 C1042 1.368 . S
C1023 H1047 0.949 . S
H1024 C1028 0.949 . S
C1025 C1026 1.349 1_556 S
C1025 C1027 1.327 . S
C1025 H1048 0.950 . S
C1026 C1025 1.349 1_554 S
C1026 C1038 1.349 1_554 S
C1027 C1025 1.327 . S
C1027 C1043 1.429 . S
C1027 H1049 0.950 . S
C1028 H1024 0.949 . S
C1028 C1036 1.574 . S
C1028 C1044 1.368 . S
H1029 C1037 0.950 . S
H1030 C1035 0.950 . S
H1031 C1036 0.949 . S
H1032 C1038 0.950 1_554 S
H1033 C1039 0.950 . S
H1034 C1040 0.949 . S
C1035 H1030 0.950 . S
C1035 C1037 1.327 . S
C1035 C1041 1.429 . S
C1036 C1028 1.574 . S
C1036 H1031 0.949 . S
C1036 C1042 1.368 . S
C1037 C1021 1.349 . S
C1037 H1029 0.950 . S
C1037 C1035 1.327 . S
C1038 C1026 1.349 1_556 S
C1038 H1032 0.950 1_556 S
C1038 C1039 1.327 . S
C1039 H1033 0.950 . S
C1039 C1038 1.327 . S
C1039 C1043 1.429 . S
C1040 C1023 1.574 . S
C1040 H1034 0.949 . S
C1040 C1044 1.368 . S
C1041 C1022 1.429 . S
C1041 C1035 1.429 . S
C1041 C1042 1.523 . S
C1042 C1023 1.368 . S
C1042 C1036 1.368 . S
C1042 C1041 1.523 . S
C1043 C1027 1.429 . S
C1043 C1039 1.429 . S
C1043 C1044 1.523 . S
C1044 C1028 1.368 . S
C1044 C1040 1.368 . S
C1044 C1043 1.523 . S
H1045 C1020 0.950 . S
H1046 C1022 0.950 . S
H1047 C1023 0.949 . S
H1048 C1025 0.950 . S
H1049 C1027 0.950 . S
C1050 C1051 1.349 . S
C1050 C1052 1.327 . S
C1050 H1075 0.950 . S
C1051 C1050 1.349 . S
C1051 C1067 1.349 . S
C1052 C1050 1.327 . S
C1052 C1071 1.429 . S
C1052 H1076 0.950 . S
C1053 C1070 1.574 . S
C1053 C1072 1.368 . S
C1053 H1077 0.949 . S
H1054 C1058 0.949 . S
C1055 C1056 1.349 . S
C1055 C1057 1.327 1_554 S
C1055 H1078 0.950 . S
C1056 C1055 1.349 . S
C1056 C1068 1.349 . S
C1057 C1055 1.327 1_556 S
C1057 C1073 1.429 . S
C1057 H1079 0.950 . S
C1058 H1054 0.949 . S
C1058 C1066 1.574 . S
C1058 C1074 1.368 . S
H1059 C1067 0.950 . S
H1060 C1065 0.950 . S
H1061 C1066 0.949 . S
H1062 C1068 0.950 . S
H1063 C1069 0.950 . S
H1064 C1070 0.949 . S
C1065 H1060 0.950 . S
C1065 C1067 1.327 . S
C1065 C1071 1.429 . S
C1066 C1058 1.574 . S
C1066 H1061 0.949 . S
C1066 C1072 1.368 . S
C1067 C1051 1.349 . S
C1067 H1059 0.950 . S
C1067 C1065 1.327 . S
C1068 C1056 1.349 . S
C1068 H1062 0.950 . S
C1068 C1069 1.327 1_554 S
C1069 H1063 0.950 . S
C1069 C1068 1.327 1_556 S
C1069 C1073 1.429 . S
C1070 C1053 1.574 . S
C1070 H1064 0.949 . S
C1070 C1074 1.368 . S
C1071 C1052 1.429 . S
C1071 C1065 1.429 . S
C1071 C1072 1.523 . S
C1072 C1053 1.368 . S
C1072 C1066 1.368 . S
C1072 C1071 1.523 . S
C1073 C1057 1.429 . S
C1073 C1069 1.429 . S
C1073 C1074 1.523 . S
C1074 C1058 1.368 . S
C1074 C1070 1.368 . S
C1074 C1073 1.523 . S
H1075 C1050 0.950 . S
H1076 C1052 0.950 . S
H1077 C1053 0.949 . S
H1078 C1055 0.950 . S
H1079 C1057 0.950 . S
C1080 C1081 1.349 . S
C1080 C1082 1.327 . S
C1080 H1105 0.950 . S
C1081 C1080 1.349 . S
C1081 C1097 1.349 . S
C1082 C1080 1.327 . S
C1082 C1101 1.429 . S
C1082 H1106 0.950 . S
C1083 C1100 1.574 . S
C1083 C1102 1.368 . S
C1083 H1107 0.949 . S
H1084 C1088 0.949 . S
C1085 C1086 1.349 . S
C1085 C1087 1.327 1_556 S
C1085 H1108 0.950 . S
C1086 C1085 1.349 . S
C1086 C1098 1.349 . S
C1087 C1085 1.327 1_554 S
C1087 C1103 1.429 . S
C1087 H1109 0.950 . S
C1088 H1084 0.949 . S
C1088 C1096 1.574 . S
C1088 C1104 1.368 . S
H1089 C1097 0.950 . S
H1090 C1095 0.950 . S
H1091 C1096 0.949 . S
H1092 C1098 0.950 . S
H1093 C1099 0.950 . S
H1094 C1100 0.949 . S
C1095 H1090 0.950 . S
C1095 C1097 1.327 . S
C1095 C1101 1.429 . S
C1096 C1088 1.574 . S
C1096 H1091 0.949 . S
C1096 C1102 1.368 . S
C1097 C1081 1.349 . S
C1097 H1089 0.950 . S
C1097 C1095 1.327 . S
C1098 C1086 1.349 . S
C1098 H1092 0.950 . S
C1098 C1099 1.327 1_556 S
C1099 H1093 0.950 . S
C1099 C1098 1.327 1_554 S
C1099 C1103 1.429 . S
C1100 C1083 1.574 . S
C1100 H1094 0.949 . S
C1100 C1104 1.368 . S
C1101 C1082 1.429 . S
C1101 C1095 1.429 . S
C1101 C1102 1.523 . S
C1102 C1083 1.368 . S
C1102 C1096 1.368 . S
C1102 C1101 1.523 . S
C1103 C1087 1.429 . S
C1103 C1099 1.429 . S
C1103 C1104 1.523 . S
C1104 C1088 1.368 . S
C1104 C1100 1.368 . S
C1104 C1103 1.523 . S
H1105 C1080 0.950 . S
H1106 C1082 0.950 . S
H1107 C1083 0.949 . S
H1108 C1085 0.950 . S
H1109 C1087 0.950 . S
C1110 C1111 1.349 . S
C1110 C1112 1.327 1_556 S
C1110 H1135 0.950 . S
C1111 C1110 1.349 . S
C1111 C1127 1.349 . S
C1112 C1110 1.327 1_554 S
C1112 C1131 1.429 . S
C1112 H1136 0.950 . S
C1113 C1130 1.574 . S
C1113 C1132 1.368 . S
C1113 H1137 0.949 . S
H1114 C1118 0.949 . S
C1115 C1116 1.349 . S
C1115 C1117 1.327 . S
C1115 H1138 0.950 . S
C1116 C1115 1.349 . S
C1116 C1128 1.349 . S
C1117 C1115 1.327 . S
C1117 C1133 1.429 . S
C1117 H1139 0.950 . S
C1118 H1114 0.949 . S
C1118 C1126 1.574 . S
C1118 C1134 1.368 . S
H1119 C1127 0.950 . S
H1120 C1125 0.950 . S
H1121 C1126 0.949 . S
H1122 C1128 0.950 . S
H1123 C1129 0.950 . S
H1124 C1130 0.949 . S
C1125 H1120 0.950 . S
C1125 C1127 1.327 1_554 S
C1125 C1131 1.429 . S
C1126 C1118 1.574 . S
C1126 H1121 0.949 . S
C1126 C1132 1.368 . S
C1127 C1111 1.349 . S
C1127 H1119 0.950 . S
C1127 C1125 1.327 1_556 S
C1128 C1116 1.349 . S
C1128 H1122 0.950 . S
C1128 C1129 1.327 . S
C1129 H1123 0.950 . S
C1129 C1128 1.327 . S
C1129 C1133 1.429 . S
C1130 C1113 1.574 . S
C1130 H1124 0.949 . S
C1130 C1134 1.368 . S
C1131 C1112 1.429 . S
C1131 C1125 1.429 . S
C1131 C1132 1.523 . S
C1132 C1113 1.368 . S
C1132 C1126 1.368 . S
C1132 C1131 1.523 . S
C1133 C1117 1.429 . S
C1133 C1129 1.429 . S
C1133 C1134 1.523 . S
C1134 C1118 1.368 . S
C1134 C1130 1.368 . S
C1134 C1133 1.523 . S
H1135 C1110 0.950 . S
H1136 C1112 0.950 . S
H1137 C1113 0.949 . S
H1138 C1115 0.950 . S
H1139 C1117 0.950 . S
C1140 C1141 1.349 . S
C1140 C1142 1.327 . S
C1140 H1165 0.950 . S
C1141 C1140 1.349 . S
C1141 C1157 1.349 . S
C1142 C1140 1.327 . S
C1142 C1161 1.429 . S
C1142 H1166 0.950 . S
C1143 C1160 1.574 . S
C1143 C1162 1.368 . S
C1143 H1167 0.949 . S
H1144 C1148 0.949 . S
C1145 C1146 1.349 . S
C1145 C1147 1.327 1_556 S
C1145 H1168 0.950 . S
C1146 C1145 1.349 . S
C1146 C1158 1.349 . S
C1147 C1145 1.327 1_554 S
C1147 C1163 1.429 . S
C1147 H1169 0.950 . S
C1148 H1144 0.949 . S
C1148 C1156 1.574 . S
C1148 C1164 1.368 . S
H1149 C1157 0.950 . S
H1150 C1155 0.950 . S
H1151 C1156 0.949 . S
H1152 C1158 0.950 . S
H1153 C1159 0.950 . S
H1154 C1160 0.949 . S
C1155 H1150 0.950 . S
C1155 C1157 1.327 . S
C1155 C1161 1.429 . S
C1156 C1148 1.574 . S
C1156 H1151 0.949 . S
C1156 C1162 1.368 . S
C1157 C1141 1.349 . S
C1157 H1149 0.950 . S
C1157 C1155 1.327 . S
C1158 C1146 1.349 . S
C1158 H1152 0.950 . S
C1158 C1159 1.327 1_556 S
C1159 H1153 0.950 . S
C1159 C1158 1.327 1_554 S
C1159 C1163 1.429 . S
C1160 C1143 1.574 . S
C1160 H1154 0.949 . S
C1160 C1164 1.368 . S
C1161 C1142 1.429 . S
C1161 C1155 1.429 . S
C1161 C1162 1.523 . S
C1162 C1143 1.368 . S
C1162 C1156 1.368 . S
C1162 C1161 1.523 . S
C1163 C1147 1.429 . S
C1163 C1159 1.429 . S
C1163 C1164 1.523 . S
C1164 C1148 1.368 . S
C1164 C1160 1.368 . S
C1164 C1163 1.523 . S
H1165 C1140 0.950 . S
H1166 C1142 0.950 . S
H1167 C1143 0.949 . S
H1168 C1145 0.950 . S
H1169 C1147 0.950 . S
C361 C6 1.494 . S
C366 C286 1.501 . S
C391 C50 2.717 1_556 S
C396 C330 2.755 . S
C421 C86 1.889 . S
C426 C250 1.848 . S
C451 C170 3.075 . S
C456 C90 3.053 . S
C481 C210 2.871 . S
C486 C10 2.895 1_655 S
C511 C46 2.631 . S
C516 C130 2.586 . S
C541 C290 1.866 . S
C546 C206 1.882 . S
C571 C326 1.552 . S
C576 C126 1.565 . S
C601 C166 1.590 . S
C606 C246 1.607 . S
C631 C95 1.837 . S
C636 C19 1.870 . S
C661 C55 1.308 . S
C666 C15 1.314 . S
C691 C59 3.334 . S
C696 C99 3.298 1_565 S
C721 C135 1.876 . S
C726 C219 1.868 . S
C751 C139 1.962 . S
C756 C175 1.984 . S
C781 C179 1.669 . S
C786 C215 1.675 . S
C811 C335 1.953 . S
C816 C259 1.981 . S
C841 C295 0.651 . S
C846 C255 0.646 . S
C871 C339 2.213 . S
C876 C299 2.256 . S
C901 C18 0.873 . S
C906 C9 0.873 . S
C931 C49 0.860 . S
C936 C58 0.860 . S
C961 C98 0.857 . S
C966 C89 0.857 . S
C991 C138 0.882 . S
C996 C129 0.882 . S
C1021 C178 0.875 . S
C1026 C169 0.875 . S
C1051 C218 0.862 . S
C1056 C209 0.862 . S
C1081 C258 0.885 . S
C1086 C249 0.885 . S
C1111 C298 0.876 . S
C1116 C289 0.876 . S
C1141 C338 0.862 . S
C1146 C329 0.862 . S
