# Generated by pormake.
# Topology unc, (4)-cn, num edge types: 1
# Building blocks:
#     Node 0, Type 0, BuildingBlock: CEKHIL_clean_sbu_0, # of connection points: 4
#     Node 1, Type 0, BuildingBlock: CEKHIL_clean_sbu_0, # of connection points: 4
#     Node 2, Type 0, BuildingBlock: CEKHIL_clean_sbu_0, # of connection points: 4
#     Node 3, Type 0, BuildingBlock: CEKHIL_clean_sbu_0, # of connection points: 4
#     Edge 4, Type (0, 0), BuildingBlock: UVAHIK_clean_linker_0, # of connection points: 2
#     Edge 5, Type (0, 0), BuildingBlock: UVAHIK_clean_linker_0, # of connection points: 2
#     Edge 6, Type (0, 0), BuildingBlock: UVAHIK_clean_linker_0, # of connection points: 2
#     Edge 7, Type (0, 0), BuildingBlock: UVAHIK_clean_linker_0, # of connection points: 2
#     Edge 8, Type (0, 0), BuildingBlock: UVAHIK_clean_linker_0, # of connection points: 2
#     Edge 9, Type (0, 0), BuildingBlock: UVAHIK_clean_linker_0, # of connection points: 2
#     Edge 10, Type (0, 0), BuildingBlock: UVAHIK_clean_linker_0, # of connection points: 2
#     Edge 11, Type (0, 0), BuildingBlock: UVAHIK_clean_linker_0, # of connection points: 2
# Relax obj value: 0.004
# Max RMSD: 0.040
# Mean RMSD: 0.040
data_MOF--net-unc--node1-CEKHIL_clean_sbu_0--edge1-UVAHIK_clean_linker_0
_symmetry_space_group_name_H-M    P1
_symmetry_Int_Tables_number       1
_symmetry_cell_setting            triclinic
loop_
_symmetry_equiv_pos_as_xyz
'x, y, z'
_cell_length_a     38.513862
_cell_length_b     38.54421
_cell_length_c     28.559839
_cell_angle_alpha  90.018038
_cell_angle_beta   90.033831
_cell_angle_gamma 92.963759
loop_
_atom_site_label
_atom_site_type_symbol
_atom_site_fract_x
_atom_site_fract_y
_atom_site_fract_z
_atom_type_partial_charge
Co0 Co 0.02808 0.70222 0.98484 0.0
O1 O 0.01402 0.73465 0.93825 0.0
O2 O 0.98997 0.7284 0.00826 0.0
C3 C 0.0303 0.65646 0.93548 0.0
O4 O 0.03465 0.67022 0.04092 0.0
Co5 Co 0.09965 0.66934 0.97613 0.0
O6 O 0.08291 0.64066 0.02993 0.0
C7 C 0.09657 0.74171 0.00851 0.0
C8 C 0.99046 0.74369 0.96759 0.0
C9 C 0.05581 0.64706 0.05339 0.0
O10 O 0.0632 0.73796 0.0112 0.0
O11 O 0.11544 0.71852 0.99115 0.0
O12 O 0.00094 0.66482 0.95353 0.0
O13 O 0.05653 0.67766 0.94443 0.0
Co14 Co 0.3618 0.03616 0.30269 0.0
O15 O 0.32926 0.04994 0.34921 0.0
O16 O 0.335 0.07379 0.27902 0.0
C17 C 0.40777 0.03483 0.35195 0.0
O18 O 0.3939 0.02955 0.24666 0.0
Co19 Co 0.39507 0.96486 0.31294 0.0
O20 O 0.42314 0.98114 0.25838 0.0
C21 C 0.3229 0.96718 0.27939 0.0
C22 C 0.31979 0.07322 0.31976 0.0
C23 C 0.41684 0.00805 0.23451 0.0
O24 O 0.32638 0.00054 0.27668 0.0
O25 O 0.34616 0.94857 0.29712 0.0
O26 O 0.39897 0.06393 0.33362 0.0
O27 O 0.38677 0.00836 0.34347 0.0
Co28 Co 0.03653 0.36292 0.48508 0.0
O29 O 0.04931 0.32986 0.43856 0.0
O30 O 0.07397 0.33573 0.50827 0.0
C31 C 0.03536 0.40859 0.4354 0.0
O32 O 0.0313 0.39532 0.54107 0.0
Co33 Co 0.96605 0.39793 0.47695 0.0
O34 O 0.98375 0.42609 0.53075 0.0
C35 C 0.96717 0.3257 0.51058 0.0
C36 C 0.07279 0.3203 0.4677 0.0
C37 C 0.01081 0.41898 0.55386 0.0
O38 O 0.00064 0.32828 0.5121 0.0
O39 O 0.94885 0.34947 0.49358 0.0
O40 O 0.06451 0.39941 0.45326 0.0
O41 O 0.00858 0.38821 0.44475 0.0
Co42 Co 0.70244 0.02863 0.80138 0.0
O43 O 0.7347 0.01493 0.84841 0.0
O44 O 0.72958 0.99114 0.77811 0.0
C45 C 0.65614 0.02956 0.85008 0.0
O46 O 0.67079 0.03488 0.74482 0.0
Co47 Co 0.66821 0.09929 0.81021 0.0
O48 O 0.64037 0.08257 0.75558 0.0
C49 C 0.74097 0.09781 0.77893 0.0
C50 C 0.74443 0.99167 0.8191 0.0
C51 C 0.64742 0.05572 0.73206 0.0
O52 O 0.73784 0.06445 0.77601 0.0
O53 O 0.71726 0.11617 0.79601 0.0
O54 O 0.66525 0.00063 0.83158 0.0
O55 O 0.67691 0.05628 0.84191 0.0
C56 C 0.01617 0.62333 0.11739 0.0
C57 C 0.04955 0.62746 0.09754 0.0
C58 C 0.0108 0.60372 0.1584 0.0
C59 C 0.05636 0.57153 0.26167 0.0
H60 H 0.98761 0.49446 0.2607 0.0
C61 C 0.06421 0.45647 0.38829 0.0
C62 C 0.03355 0.43872 0.40357 0.0
C63 C 0.06296 0.48319 0.35539 0.0
C64 C 0.00646 0.51626 0.26214 0.0
H65 H 0.10355 0.61507 0.10597 0.0
H66 H 0.09424 0.5816 0.1774 0.0
H67 H 0.99056 0.53521 0.19522 0.0
H68 H 0.97737 0.43589 0.3977 0.0
H69 H 0.97504 0.48318 0.34102 0.0
H70 H 0.07249 0.55281 0.32826 0.0
C71 C 0.07221 0.59328 0.16127 0.0
C72 C 0.00816 0.53956 0.22449 0.0
C73 C 0.07745 0.61225 0.12008 0.0
C74 C 0.00148 0.44897 0.38635 0.0
C75 C 0.00018 0.47594 0.35363 0.0
C76 C 0.05444 0.54853 0.2995 0.0
C77 C 0.03885 0.58859 0.18074 0.0
C78 C 0.03373 0.56687 0.22334 0.0
C79 C 0.03096 0.4931 0.3372 0.0
C80 C 0.03011 0.52 0.29969 0.0
H81 H 0.99415 0.63469 0.10081 0.0
H82 H 0.98482 0.6005 0.17276 0.0
H83 H 0.07603 0.59267 0.26198 0.0
H84 H 0.08936 0.44909 0.40075 0.0
H85 H 0.08727 0.49527 0.34311 0.0
C86 C 0.45675 0.06328 0.39756 0.0
C87 C 0.43821 0.0328 0.38325 0.0
C88 C 0.4838 0.06188 0.43001 0.0
C89 C 0.51649 0.00587 0.52396 0.0
H90 H 0.59409 0.07409 0.52206 0.0
C91 C 0.62389 0.01575 0.6683 0.0
C92 C 0.62827 0.04927 0.68759 0.0
C93 C 0.60438 0.01017 0.62721 0.0
C94 C 0.57262 0.05479 0.52292 0.0
H95 H 0.43434 0.97675 0.39027 0.0
H96 H 0.48219 0.97414 0.44614 0.0
H97 H 0.55382 0.07039 0.45613 0.0
H98 H 0.6166 0.10332 0.67803 0.0
H99 H 0.58335 0.09364 0.60638 0.0
H100 H 0.5355 0.99052 0.59107 0.0
C101 C 0.47532 -0.00073 0.43315 0.0
C102 C 0.54939 0.05278 0.4853 0.0
C103 C 0.44803 0.00072 0.4009 0.0
C104 C 0.61355 0.07712 0.66433 0.0
C105 C 0.59471 0.07166 0.62304 0.0
C106 C 0.54002 0.00764 0.56138 0.0
C107 C 0.49325 0.02991 0.44868 0.0
C108 C 0.52042 0.02898 0.48589 0.0
C109 C 0.58964 0.03814 0.60422 0.0
C110 C 0.56776 0.03275 0.56178 0.0
H111 H 0.44974 0.08842 0.38473 0.0
H112 H 0.49648 0.0861 0.44161 0.0
H113 H 0.49436 0.98745 0.52599 0.0
H114 H 0.63487 0.99378 0.68547 0.0
H115 H 0.60087 0.98406 0.61335 0.0
C116 C 0.06522 0.61723 0.88609 0.0
C117 C 0.03292 0.62619 0.90405 0.0
C118 C 0.06719 0.59015 0.85365 0.0
C119 C 0.01521 0.51509 0.8016 0.0
H120 H 0.07609 0.53121 0.69479 0.0
C121 C 0.98992 0.45253 0.62209 0.0
C122 C 0.01767 0.43816 0.59818 0.0
C123 C 0.99565 0.47112 0.66349 0.0
C124 C 0.0594 0.52607 0.72478 0.0
H125 H 0.97748 0.61333 0.90296 0.0
H126 H 0.9807 0.5669 0.84583 0.0
H127 H 0.07883 0.57192 0.76038 0.0
H128 H 0.07329 0.432 0.59917 0.0
H129 H 0.08349 0.46568 0.67149 0.0
H130 H 0.99457 0.47024 0.76465 0.0
C131 C 0.0047 0.58013 0.85729 0.0
C132 C 0.06097 0.54935 0.76247 0.0
C133 C 0.00278 0.60699 0.88988 0.0
C134 C 0.0514 0.44272 0.61686 0.0
C135 C 0.05725 0.46203 0.65806 0.0
C136 C 0.01339 0.49212 0.76373 0.0
C137 C 0.03688 0.57156 0.83829 0.0
C138 C 0.03828 0.54462 0.80089 0.0
C139 C 0.02935 0.47632 0.68177 0.0
C140 C 0.03489 0.49781 0.72449 0.0
H141 H 0.08895 0.63145 0.89659 0.0
H142 H 0.09247 0.58397 0.84037 0.0
H143 H 0.99797 0.51007 0.83103 0.0
H144 H 0.96357 0.44931 0.60888 0.0
H145 H 0.97372 0.48216 0.68072 0.0
C146 C 0.44491 0.04696 0.17265 0.0
C147 C 0.43653 0.01355 0.19037 0.0
C148 C 0.46627 0.05128 0.13298 0.0
C149 C 0.5314 0.00322 0.06639 0.0
H150 H 0.52092 0.07359 0.97116 0.0
C151 C 0.60765 -3e-05 0.89517 0.0
C152 C 0.62637 0.0308 0.88265 0.0
C153 C 0.58217 0.00013 0.92989 0.0
C154 C 0.52417 0.05394 0.99769 0.0
H155 H 0.44177 0.95849 0.17856 0.0
H156 H 0.47749 0.96583 0.10917 0.0
H157 H 0.48042 0.06973 0.03749 0.0
H158 H 0.63171 0.08635 0.89484 0.0
H159 H 0.58678 0.08662 0.95561 0.0
H160 H 0.57463 0.98704 0.02653 0.0
C161 C 0.4691 0.98887 0.12667 0.0
C162 C 0.5011 0.05179 0.03574 0.0
C163 C 0.44838 0.98463 0.16641 0.0
C164 C 0.61781 0.06215 0.90392 0.0
C165 C 0.59202 0.06235 0.93854 0.0
C166 C 0.55405 0.00513 0.02834 0.0
C167 C 0.47921 0.02222 0.1101 0.0
C168 C 0.5042 0.02606 0.0703 0.0
C169 C 0.57462 0.03116 0.95271 0.0
C170 C 0.55052 0.03022 0.99331 0.0
H171 H 0.43608 0.06972 0.1904 0.0
H172 H 0.47356 0.07736 0.12127 0.0
H173 H 0.5354 0.98378 0.09295 0.0
H174 H 0.61343 0.97542 0.87922 0.0
H175 H 0.56879 0.97578 0.93962 0.0
C176 C 0.28535 0.91317 0.26591 0.0
C177 C 0.2922 0.94879 0.25743 0.0
C178 C 0.26001 0.89426 0.24023 0.0
C179 C 0.2293 0.85729 0.15616 0.0
H180 H 0.13881 0.88766 0.11938 0.0
C181 C 0.14967 0.78108 0.0189 0.0
C182 C 0.11469 0.7727 0.02995 0.0
C183 C 0.16874 0.80661 0.04401 0.0
C184 C 0.16398 0.87884 0.1295 0.0
H185 H 0.27607 0.99291 0.21717 0.0
H186 H 0.23189 0.95962 0.17184 0.0
H187 H 0.17561 0.92385 0.17227 0.0
H188 H 0.07169 0.78625 0.07424 0.0
H189 H 0.10531 0.83064 0.11873 0.0
H190 H 0.2179 0.81224 0.11443 0.0
C191 C 0.24615 0.94644 0.19862 0.0
C192 C 0.18511 0.89964 0.1595 0.0
C193 C 0.27152 0.96549 0.22456 0.0
C194 C 0.09861 0.79205 0.06485 0.0
C195 C 0.11786 0.81755 0.0903 0.0
C196 C 0.20838 0.83671 0.12624 0.0
C197 C 0.24094 0.91038 0.20517 0.0
C198 C 0.21794 0.88892 0.17339 0.0
C199 C 0.15346 0.82426 0.08114 0.0
C200 C 0.1755 0.84716 0.1124 0.0
H201 H 0.30034 0.89951 0.29144 0.0
H202 H 0.25604 0.86669 0.24697 0.0
H203 H 0.25465 0.84848 0.16549 0.0
H204 H 0.16274 0.76711 0.99173 0.0
H205 H 0.19587 0.81178 0.03521 0.0
C206 C 0.28528 0.10197 0.38107 0.0
C207 C 0.294 0.09851 0.33359 0.0
C208 C 0.26156 0.12602 0.39531 0.0
C209 C 0.21772 0.2048 0.35567 0.0
H210 H 0.15739 0.18225 0.46131 0.0
C211 C 0.10078 0.28506 0.40633 0.0
C212 C 0.09786 0.29432 0.45375 0.0
C213 C 0.12503 0.26152 0.39207 0.0
C214 C 0.17429 0.189 0.43204 0.0
H215 H 0.28444 0.11747 0.26365 0.0
H216 H 0.24185 0.15877 0.28819 0.0
H217 H 0.19779 0.14004 0.43406 0.0
H218 H 0.11784 0.2858 0.52351 0.0
H219 H 0.15991 0.24377 0.49858 0.0
H220 H 0.19313 0.25342 0.35301 0.0
C221 C 0.25406 0.14345 0.31471 0.0
C222 C 0.19759 0.16487 0.4164 0.0
C223 C 0.27829 0.11961 0.3005 0.0
C224 C 0.11949 0.27915 0.48676 0.0
C225 C 0.14345 0.25507 0.47252 0.0
C226 C 0.19403 0.22871 0.37092 0.0
C227 C 0.24538 0.147 0.3624 0.0
C228 C 0.21982 0.17247 0.37813 0.0
C229 C 0.14662 0.24625 0.42495 0.0
C230 C 0.17217 0.2211 0.40935 0.0
H231 H 0.29722 0.0864 0.40759 0.0
H232 H 0.25637 0.12844 0.43238 0.0
H233 H 0.23474 0.21196 0.32671 0.0
H234 H 0.08459 0.29636 0.37996 0.0
H235 H 0.12665 0.25495 0.35528 0.0
C236 C 0.79163 0.10089 0.72317 0.0
C237 C 0.77187 0.11647 0.75805 0.0
C238 C 0.81711 0.12055 0.6983 0.0
C239 C 0.83621 0.21162 0.66442 0.0
H240 H 0.92306 0.17891 0.61718 0.0
C241 C 0.96518 0.27423 0.56515 0.0
C242 C 0.94844 0.29538 0.53292 0.0
C243 C 0.94601 0.24907 0.59124 0.0
C244 C 0.89895 0.18842 0.63033 0.0
H245 H 0.76547 0.16412 0.79682 0.0
H246 H 0.81021 0.19797 0.75445 0.0
H247 H 0.88688 0.14178 0.6695 0.0
H248 H 0.89886 0.30472 0.50032 0.0
H249 H 0.86583 0.26075 0.54496 0.0
H250 H 0.84813 0.25825 0.62616 0.0
C251 C 0.80534 0.17091 0.74516 0.0
C252 C 0.87813 0.16709 0.65999 0.0
C253 C 0.77978 0.15143 0.76965 0.0
C254 C 0.91257 0.28932 0.52533 0.0
C255 C 0.89355 0.26419 0.55114 0.0
C256 C 0.85685 0.23277 0.63488 0.0
C257 C 0.82345 0.15611 0.70804 0.0
C258 C 0.8465 0.17852 0.67744 0.0
C259 C 0.90977 0.24454 0.58549 0.0
C260 C 0.88836 0.22144 0.61717 0.0
H261 H 0.78619 0.07401 0.71335 0.0
H262 H 0.83052 0.10834 0.66987 0.0
H263 H 0.81179 0.22111 0.67647 0.0
H264 H 0.99278 0.27818 0.57186 0.0
H265 H 0.9593 0.23438 0.61746 0.0
C266 C 0.77845 0.96281 0.88092 0.0
C267 C 0.76994 0.96619 0.83334 0.0
C268 C 0.8017 0.93839 0.89551 0.0
C269 C 0.8443 0.85863 0.85664 0.0
H270 H 0.90506 0.88079 0.96207 0.0
C271 C 0.96119 0.77803 0.90641 0.0
C272 C 0.96475 0.7691 0.95385 0.0
C273 C 0.93664 0.80135 0.89241 0.0
C274 C 0.88801 0.87412 0.93289 0.0
H275 H 0.77938 0.94674 0.76362 0.0
H276 H 0.82115 0.90482 0.78878 0.0
H277 H 0.86508 0.92339 0.93478 0.0
H278 H 0.94545 0.77783 0.0239 0.0
H279 H 0.90284 0.81947 0.9994 0.0
H280 H 0.86835 0.80971 0.85407 0.0
C281 C 0.80914 0.92047 0.8151 0.0
C282 C 0.86496 0.89849 0.91721 0.0
C283 C 0.7854 0.94468 0.80053 0.0
C284 C 0.94332 0.78424 0.98712 0.0
C285 C 0.91905 0.80809 0.97313 0.0
C286 C 0.86773 0.83447 0.87193 0.0
C287 C 0.81758 0.91695 0.86288 0.0
C288 C 0.84266 0.89109 0.87893 0.0
C289 C 0.91536 0.81671 0.92556 0.0
C290 C 0.88978 0.84195 0.91026 0.0
H291 H 0.76668 0.97869 0.90722 0.0
H292 H 0.80674 0.93603 0.93264 0.0
H293 H 0.82718 0.85161 0.8277 0.0
H294 H 0.9772 0.76674 0.87985 0.0
H295 H 0.93463 0.80775 0.85561 0.0
loop_
_geom_bond_atom_site_label_1
_geom_bond_atom_site_label_2
_geom_bond_distance
_geom_bond_site_symmetry_2
_ccdc_geom_bond_type
Co0 O1 2.216 1_554 S
Co0 O2 2.091 1_455 S
Co0 O4 2.004 . S
Co0 O10 2.021 . S
Co0 O12 2.133 1_454 S
Co0 O13 2.244 1_554 S
O1 Co0 2.216 1_556 S
O1 C8 1.247 1_455 S
O2 Co0 2.091 1_655 S
O2 C8 1.261 1_554 S
C3 O12 1.232 1_455 S
C3 O13 1.272 . S
O4 Co0 2.004 . S
O4 C9 1.259 . S
Co5 O6 2.061 . S
Co5 O11 2.052 . S
Co5 O13 2.135 1_554 S
O6 Co5 2.061 . S
O6 C9 1.235 . S
C7 O10 1.238 . S
C7 O11 1.241 . S
C8 O1 1.247 1_655 S
C8 O2 1.261 1_556 S
C9 O4 1.259 . S
C9 O6 1.235 . S
O10 Co0 2.021 . S
O10 C7 1.238 . S
O11 Co5 2.052 . S
O11 C7 1.241 . S
O12 Co0 2.133 1_656 S
O12 C3 1.232 1_655 S
O13 Co0 2.244 1_556 S
O13 C3 1.272 . S
O13 Co5 2.135 1_556 S
Co14 O15 2.216 . S
Co14 O16 2.091 . S
Co14 O18 2.004 . S
Co14 O24 2.021 . S
Co14 O26 2.137 . S
Co14 O27 2.244 . S
O15 Co14 2.216 . S
O15 C22 1.247 . S
O16 Co14 2.091 . S
O16 C22 1.261 . S
C17 O26 1.247 . S
C17 O27 1.272 . S
O18 Co14 2.004 . S
O18 C23 1.259 . S
Co19 O20 2.061 1_565 S
Co19 O25 2.052 . S
Co19 O27 2.135 1_565 S
O20 Co19 2.061 1_545 S
O20 C23 1.235 . S
C21 O24 1.238 1_565 S
C21 O25 1.241 . S
C22 O15 1.247 . S
C22 O16 1.261 . S
C23 O18 1.259 . S
C23 O20 1.235 . S
O24 Co14 2.021 . S
O24 C21 1.238 1_545 S
O25 Co19 2.052 . S
O25 C21 1.241 . S
O26 Co14 2.137 . S
O26 C17 1.247 . S
O27 Co14 2.244 . S
O27 C17 1.272 . S
O27 Co19 2.135 1_545 S
Co28 O29 2.216 . S
Co28 O30 2.091 . S
Co28 O32 2.004 . S
Co28 O38 2.021 . S
Co28 O40 2.137 . S
Co28 O41 2.244 . S
O29 Co28 2.216 . S
O29 C36 1.247 . S
O30 Co28 2.091 . S
O30 C36 1.261 . S
C31 O40 1.247 . S
C31 O41 1.272 . S
O32 Co28 2.004 . S
O32 C37 1.259 . S
Co33 O34 2.061 1_655 S
Co33 O39 2.052 . S
Co33 O41 2.135 1_655 S
O34 Co33 2.061 1_455 S
O34 C37 1.235 . S
C35 O38 1.238 1_655 S
C35 O39 1.241 . S
C36 O29 1.247 . S
C36 O30 1.261 . S
C37 O32 1.259 . S
C37 O34 1.235 . S
O38 Co28 2.021 . S
O38 C35 1.238 1_455 S
O39 Co33 2.052 . S
O39 C35 1.241 . S
O40 Co28 2.137 . S
O40 C31 1.247 . S
O41 Co28 2.244 . S
O41 C31 1.272 . S
O41 Co33 2.135 1_455 S
Co42 O43 2.216 . S
Co42 O44 2.091 1_545 S
Co42 O46 2.004 . S
Co42 O52 2.021 . S
Co42 O54 2.133 1_545 S
Co42 O55 2.244 . S
O43 Co42 2.216 . S
O43 C50 1.247 1_545 S
O44 Co42 2.091 1_565 S
O44 C50 1.261 . S
C45 O54 1.232 1_545 S
C45 O55 1.272 . S
O46 Co42 2.004 . S
O46 C51 1.259 . S
Co47 O48 2.061 . S
Co47 O53 2.052 . S
Co47 O55 2.135 . S
O48 Co47 2.061 . S
O48 C51 1.235 . S
C49 O52 1.238 . S
C49 O53 1.241 . S
C50 O43 1.247 1_565 S
C50 O44 1.261 . S
C51 O46 1.259 . S
C51 O48 1.235 . S
O52 Co42 2.021 . S
O52 C49 1.238 . S
O53 Co47 2.052 . S
O53 C49 1.241 . S
O54 Co42 2.133 1_565 S
O54 C45 1.232 1_565 S
O55 Co42 2.244 . S
O55 C45 1.272 . S
O55 Co47 2.135 . S
C56 C57 1.349 . S
C56 C58 1.327 . S
C56 H81 0.950 . S
C57 C56 1.349 . S
C57 C73 1.349 . S
C58 C56 1.327 . S
C58 C77 1.429 . S
C58 H82 0.950 . S
C59 C76 1.574 . S
C59 C78 1.368 . S
C59 H83 0.949 . S
H60 C64 0.949 . S
C61 C62 1.349 . S
C61 C63 1.327 . S
C61 H84 0.950 . S
C62 C61 1.349 . S
C62 C74 1.349 . S
C63 C61 1.327 . S
C63 C79 1.429 . S
C63 H85 0.950 . S
C64 H60 0.949 . S
C64 C72 1.574 . S
C64 C80 1.368 . S
H65 C73 0.950 . S
H66 C71 0.950 . S
H67 C72 0.949 . S
H68 C74 0.950 . S
H69 C75 0.950 . S
H70 C76 0.949 . S
C71 H66 0.950 . S
C71 C73 1.327 . S
C71 C77 1.429 . S
C72 C64 1.574 . S
C72 H67 0.949 . S
C72 C78 1.368 . S
C73 C57 1.349 . S
C73 H65 0.950 . S
C73 C71 1.327 . S
C74 C62 1.349 . S
C74 H68 0.950 . S
C74 C75 1.327 . S
C75 H69 0.950 . S
C75 C74 1.327 . S
C75 C79 1.429 . S
C76 C59 1.574 . S
C76 H70 0.949 . S
C76 C80 1.368 . S
C77 C58 1.429 . S
C77 C71 1.429 . S
C77 C78 1.523 . S
C78 C59 1.368 . S
C78 C72 1.368 . S
C78 C77 1.523 . S
C79 C63 1.429 . S
C79 C75 1.429 . S
C79 C80 1.523 . S
C80 C64 1.368 . S
C80 C76 1.368 . S
C80 C79 1.523 . S
H81 C56 0.950 . S
H82 C58 0.950 . S
H83 C59 0.949 . S
H84 C61 0.950 . S
H85 C63 0.950 . S
C86 C87 1.349 . S
C86 C88 1.327 . S
C86 H111 0.950 . S
C87 C86 1.349 . S
C87 C103 1.349 . S
C88 C86 1.327 . S
C88 C107 1.429 . S
C88 H112 0.950 . S
C89 C106 1.574 . S
C89 C108 1.368 . S
C89 H113 0.949 1_545 S
H90 C94 0.949 . S
C91 C92 1.349 . S
C91 C93 1.327 . S
C91 H114 0.950 1_545 S
C92 C91 1.349 . S
C92 C104 1.349 . S
C93 C91 1.327 . S
C93 C109 1.429 . S
C93 H115 0.950 1_545 S
C94 H90 0.949 . S
C94 C102 1.574 . S
C94 C110 1.368 . S
H95 C103 0.950 1_565 S
H96 C101 0.950 1_565 S
H97 C102 0.949 . S
H98 C104 0.950 . S
H99 C105 0.950 . S
H100 C106 0.949 1_565 S
C101 H96 0.950 1_545 S
C101 C103 1.327 . S
C101 C107 1.429 . S
C102 C94 1.574 . S
C102 H97 0.949 . S
C102 C108 1.368 . S
C103 C87 1.349 . S
C103 H95 0.950 1_545 S
C103 C101 1.327 . S
C104 C92 1.349 . S
C104 H98 0.950 . S
C104 C105 1.327 . S
C105 H99 0.950 . S
C105 C104 1.327 . S
C105 C109 1.429 . S
C106 C89 1.574 . S
C106 H100 0.949 1_545 S
C106 C110 1.368 . S
C107 C88 1.429 . S
C107 C101 1.429 . S
C107 C108 1.523 . S
C108 C89 1.368 . S
C108 C102 1.368 . S
C108 C107 1.523 . S
C109 C93 1.429 . S
C109 C105 1.429 . S
C109 C110 1.523 . S
C110 C94 1.368 . S
C110 C106 1.368 . S
C110 C109 1.523 . S
H111 C86 0.950 . S
H112 C88 0.950 . S
H113 C89 0.949 1_565 S
H114 C91 0.950 1_565 S
H115 C93 0.950 1_565 S
C116 C117 1.349 . S
C116 C118 1.327 . S
C116 H141 0.950 . S
C117 C116 1.349 . S
C117 C133 1.349 . S
C118 C116 1.327 . S
C118 C137 1.429 . S
C118 H142 0.950 . S
C119 C136 1.574 . S
C119 C138 1.368 . S
C119 H143 0.949 . S
H120 C124 0.949 . S
C121 C122 1.349 . S
C121 C123 1.327 . S
C121 H144 0.950 . S
C122 C121 1.349 . S
C122 C134 1.349 . S
C123 C121 1.327 . S
C123 C139 1.429 . S
C123 H145 0.950 . S
C124 H120 0.949 . S
C124 C132 1.574 . S
C124 C140 1.368 . S
H125 C133 0.950 . S
H126 C131 0.950 . S
H127 C132 0.949 . S
H128 C134 0.950 . S
H129 C135 0.950 . S
H130 C136 0.949 . S
C131 H126 0.950 . S
C131 C133 1.327 . S
C131 C137 1.429 . S
C132 C124 1.574 . S
C132 H127 0.949 . S
C132 C138 1.368 . S
C133 C117 1.349 . S
C133 H125 0.950 . S
C133 C131 1.327 . S
C134 C122 1.349 . S
C134 H128 0.950 . S
C134 C135 1.327 . S
C135 H129 0.950 . S
C135 C134 1.327 . S
C135 C139 1.429 . S
C136 C119 1.574 . S
C136 H130 0.949 . S
C136 C140 1.368 . S
C137 C118 1.429 . S
C137 C131 1.429 . S
C137 C138 1.523 . S
C138 C119 1.368 . S
C138 C132 1.368 . S
C138 C137 1.523 . S
C139 C123 1.429 . S
C139 C135 1.429 . S
C139 C140 1.523 . S
C140 C124 1.368 . S
C140 C136 1.368 . S
C140 C139 1.523 . S
H141 C116 0.950 . S
H142 C118 0.950 . S
H143 C119 0.949 . S
H144 C121 0.950 . S
H145 C123 0.950 . S
C146 C147 1.349 . S
C146 C148 1.327 . S
C146 H171 0.950 . S
C147 C146 1.349 . S
C147 C163 1.349 . S
C148 C146 1.327 . S
C148 C167 1.429 . S
C148 H172 0.950 . S
C149 C166 1.574 1_554 S
C149 C168 1.368 . S
C149 H173 0.949 1_545 S
H150 C154 0.949 1_556 S
C151 C152 1.349 . S
C151 C153 1.327 . S
C151 H174 0.950 1_545 S
C152 C151 1.349 . S
C152 C164 1.349 . S
C153 C151 1.327 . S
C153 C169 1.429 . S
C153 H175 0.950 1_545 S
C154 H150 0.949 1_554 S
C154 C162 1.574 . S
C154 C170 1.368 1_554 S
H155 C163 0.950 1_565 S
H156 C161 0.950 1_565 S
H157 C162 0.949 . S
H158 C164 0.950 . S
H159 C165 0.950 . S
H160 C166 0.949 1_565 S
C161 H156 0.950 1_545 S
C161 C163 1.327 . S
C161 C167 1.429 . S
C162 C154 1.574 . S
C162 H157 0.949 . S
C162 C168 1.368 . S
C163 C147 1.349 . S
C163 H155 0.950 1_545 S
C163 C161 1.327 . S
C164 C152 1.349 . S
C164 H158 0.950 . S
C164 C165 1.327 . S
C165 H159 0.950 . S
C165 C164 1.327 . S
C165 C169 1.429 . S
C166 C149 1.574 1_556 S
C166 H160 0.949 1_545 S
C166 C170 1.368 . S
C167 C148 1.429 . S
C167 C161 1.429 . S
C167 C168 1.523 . S
C168 C149 1.368 . S
C168 C162 1.368 . S
C168 C167 1.523 . S
C169 C153 1.429 . S
C169 C165 1.429 . S
C169 C170 1.523 . S
C170 C154 1.368 1_556 S
C170 C166 1.368 . S
C170 C169 1.523 . S
H171 C146 0.950 . S
H172 C148 0.950 . S
H173 C149 0.949 1_565 S
H174 C151 0.950 1_565 S
H175 C153 0.950 1_565 S
C176 C177 1.349 . S
C176 C178 1.327 . S
C176 H201 0.950 . S
C177 C176 1.349 . S
C177 C193 1.349 . S
C178 C176 1.327 . S
C178 C197 1.429 . S
C178 H202 0.950 . S
C179 C196 1.574 . S
C179 C198 1.368 . S
C179 H203 0.949 . S
H180 C184 0.949 . S
C181 C182 1.349 . S
C181 C183 1.327 . S
C181 H204 0.950 . S
C182 C181 1.349 . S
C182 C194 1.349 . S
C183 C181 1.327 . S
C183 C199 1.429 . S
C183 H205 0.950 . S
C184 H180 0.949 . S
C184 C192 1.574 . S
C184 C200 1.368 . S
H185 C193 0.950 . S
H186 C191 0.950 . S
H187 C192 0.949 . S
H188 C194 0.950 . S
H189 C195 0.950 . S
H190 C196 0.949 . S
C191 H186 0.950 . S
C191 C193 1.327 . S
C191 C197 1.429 . S
C192 C184 1.574 . S
C192 H187 0.949 . S
C192 C198 1.368 . S
C193 C177 1.349 . S
C193 H185 0.950 . S
C193 C191 1.327 . S
C194 C182 1.349 . S
C194 H188 0.950 . S
C194 C195 1.327 . S
C195 H189 0.950 . S
C195 C194 1.327 . S
C195 C199 1.429 . S
C196 C179 1.574 . S
C196 H190 0.949 . S
C196 C200 1.368 . S
C197 C178 1.429 . S
C197 C191 1.429 . S
C197 C198 1.523 . S
C198 C179 1.368 . S
C198 C192 1.368 . S
C198 C197 1.523 . S
C199 C183 1.429 . S
C199 C195 1.429 . S
C199 C200 1.523 . S
C200 C184 1.368 . S
C200 C196 1.368 . S
C200 C199 1.523 . S
H201 C176 0.950 . S
H202 C178 0.950 . S
H203 C179 0.949 . S
H204 C181 0.950 . S
H205 C183 0.950 . S
C206 C207 1.349 . S
C206 C208 1.327 . S
C206 H231 0.950 . S
C207 C206 1.349 . S
C207 C223 1.349 . S
C208 C206 1.327 . S
C208 C227 1.429 . S
C208 H232 0.950 . S
C209 C226 1.574 . S
C209 C228 1.368 . S
C209 H233 0.949 . S
H210 C214 0.949 . S
C211 C212 1.349 . S
C211 C213 1.327 . S
C211 H234 0.950 . S
C212 C211 1.349 . S
C212 C224 1.349 . S
C213 C211 1.327 . S
C213 C229 1.429 . S
C213 H235 0.950 . S
C214 H210 0.949 . S
C214 C222 1.574 . S
C214 C230 1.368 . S
H215 C223 0.950 . S
H216 C221 0.950 . S
H217 C222 0.949 . S
H218 C224 0.950 . S
H219 C225 0.950 . S
H220 C226 0.949 . S
C221 H216 0.950 . S
C221 C223 1.327 . S
C221 C227 1.429 . S
C222 C214 1.574 . S
C222 H217 0.949 . S
C222 C228 1.368 . S
C223 C207 1.349 . S
C223 H215 0.950 . S
C223 C221 1.327 . S
C224 C212 1.349 . S
C224 H218 0.950 . S
C224 C225 1.327 . S
C225 H219 0.950 . S
C225 C224 1.327 . S
C225 C229 1.429 . S
C226 C209 1.574 . S
C226 H220 0.949 . S
C226 C230 1.368 . S
C227 C208 1.429 . S
C227 C221 1.429 . S
C227 C228 1.523 . S
C228 C209 1.368 . S
C228 C222 1.368 . S
C228 C227 1.523 . S
C229 C213 1.429 . S
C229 C225 1.429 . S
C229 C230 1.523 . S
C230 C214 1.368 . S
C230 C226 1.368 . S
C230 C229 1.523 . S
H231 C206 0.950 . S
H232 C208 0.950 . S
H233 C209 0.949 . S
H234 C211 0.950 . S
H235 C213 0.950 . S
C236 C237 1.349 . S
C236 C238 1.327 . S
C236 H261 0.950 . S
C237 C236 1.349 . S
C237 C253 1.349 . S
C238 C236 1.327 . S
C238 C257 1.429 . S
C238 H262 0.950 . S
C239 C256 1.574 . S
C239 C258 1.368 . S
C239 H263 0.949 . S
H240 C244 0.949 . S
C241 C242 1.349 . S
C241 C243 1.327 . S
C241 H264 0.950 . S
C242 C241 1.349 . S
C242 C254 1.349 . S
C243 C241 1.327 . S
C243 C259 1.429 . S
C243 H265 0.950 . S
C244 H240 0.949 . S
C244 C252 1.574 . S
C244 C260 1.368 . S
H245 C253 0.950 . S
H246 C251 0.950 . S
H247 C252 0.949 . S
H248 C254 0.950 . S
H249 C255 0.950 . S
H250 C256 0.949 . S
C251 H246 0.950 . S
C251 C253 1.327 . S
C251 C257 1.429 . S
C252 C244 1.574 . S
C252 H247 0.949 . S
C252 C258 1.368 . S
C253 C237 1.349 . S
C253 H245 0.950 . S
C253 C251 1.327 . S
C254 C242 1.349 . S
C254 H248 0.950 . S
C254 C255 1.327 . S
C255 H249 0.950 . S
C255 C254 1.327 . S
C255 C259 1.429 . S
C256 C239 1.574 . S
C256 H250 0.949 . S
C256 C260 1.368 . S
C257 C238 1.429 . S
C257 C251 1.429 . S
C257 C258 1.523 . S
C258 C239 1.368 . S
C258 C252 1.368 . S
C258 C257 1.523 . S
C259 C243 1.429 . S
C259 C255 1.429 . S
C259 C260 1.523 . S
C260 C244 1.368 . S
C260 C256 1.368 . S
C260 C259 1.523 . S
H261 C236 0.950 . S
H262 C238 0.950 . S
H263 C239 0.949 . S
H264 C241 0.950 . S
H265 C243 0.950 . S
C266 C267 1.349 . S
C266 C268 1.327 . S
C266 H291 0.950 . S
C267 C266 1.349 . S
C267 C283 1.349 . S
C268 C266 1.327 . S
C268 C287 1.429 . S
C268 H292 0.950 . S
C269 C286 1.574 . S
C269 C288 1.368 . S
C269 H293 0.949 . S
H270 C274 0.949 . S
C271 C272 1.349 . S
C271 C273 1.327 . S
C271 H294 0.950 . S
C272 C271 1.349 . S
C272 C284 1.349 . S
C273 C271 1.327 . S
C273 C289 1.429 . S
C273 H295 0.950 . S
C274 H270 0.949 . S
C274 C282 1.574 . S
C274 C290 1.368 . S
H275 C283 0.950 . S
H276 C281 0.950 . S
H277 C282 0.949 . S
H278 C284 0.950 1_554 S
H279 C285 0.950 . S
H280 C286 0.949 . S
C281 H276 0.950 . S
C281 C283 1.327 . S
C281 C287 1.429 . S
C282 C274 1.574 . S
C282 H277 0.949 . S
C282 C288 1.368 . S
C283 C267 1.349 . S
C283 H275 0.950 . S
C283 C281 1.327 . S
C284 C272 1.349 . S
C284 H278 0.950 1_556 S
C284 C285 1.327 . S
C285 H279 0.950 . S
C285 C284 1.327 . S
C285 C289 1.429 . S
C286 C269 1.574 . S
C286 H280 0.949 . S
C286 C290 1.368 . S
C287 C268 1.429 . S
C287 C281 1.429 . S
C287 C288 1.523 . S
C288 C269 1.368 . S
C288 C282 1.368 . S
C288 C287 1.523 . S
C289 C273 1.429 . S
C289 C285 1.429 . S
C289 C290 1.523 . S
C290 C274 1.368 . S
C290 C286 1.368 . S
C290 C289 1.523 . S
H291 C266 0.950 . S
H292 C268 0.950 . S
H293 C269 0.949 . S
H294 C271 0.950 . S
H295 C273 0.950 . S
C57 C9 1.380 . S
C62 C31 1.395 . S
C87 C17 1.395 . S
C92 C51 1.380 . S
C117 C3 1.395 . S
C122 C37 1.380 . S
C147 C23 1.380 . S
C152 C45 1.395 . S
C177 C21 1.462 . S
C182 C7 1.462 . S
C207 C22 1.484 . S
C212 C36 1.484 . S
C237 C49 1.462 . S
C242 C35 1.462 . S
C267 C50 1.484 . S
C272 C8 1.484 . S
