# Generated by pormake.
# Topology snz, (6)-cn, num edge types: 1
# Building blocks:
#     Node 0, Type 0, BuildingBlock: UKALOJ_clean_sbu_0, # of connection points: 6
#     Node 1, Type 0, BuildingBlock: UKALOJ_clean_sbu_0, # of connection points: 6
#     Node 2, Type 0, BuildingBlock: UKALOJ_clean_sbu_0, # of connection points: 6
#     Node 3, Type 0, BuildingBlock: UKALOJ_clean_sbu_0, # of connection points: 6
#     Node 4, Type 0, BuildingBlock: UKALOJ_clean_sbu_0, # of connection points: 6
#     Node 5, Type 0, BuildingBlock: UKALOJ_clean_sbu_0, # of connection points: 6
#     Node 6, Type 0, BuildingBlock: UKALOJ_clean_sbu_0, # of connection points: 6
#     Node 7, Type 0, BuildingBlock: UKALOJ_clean_sbu_0, # of connection points: 6
#     Node 8, Type 0, BuildingBlock: UKALOJ_clean_sbu_0, # of connection points: 6
#     Edge 9, Type (0, 0), BuildingBlock: ZUJKAS_clean_linker_0, # of connection points: 2
#     Edge 10, Type (0, 0), BuildingBlock: ZUJKAS_clean_linker_0, # of connection points: 2
#     Edge 11, Type (0, 0), BuildingBlock: ZUJKAS_clean_linker_0, # of connection points: 2
#     Edge 12, Type (0, 0), BuildingBlock: ZUJKAS_clean_linker_0, # of connection points: 2
#     Edge 13, Type (0, 0), BuildingBlock: ZUJKAS_clean_linker_0, # of connection points: 2
#     Edge 14, Type (0, 0), BuildingBlock: ZUJKAS_clean_linker_0, # of connection points: 2
#     Edge 15, Type (0, 0), BuildingBlock: ZUJKAS_clean_linker_0, # of connection points: 2
#     Edge 16, Type (0, 0), BuildingBlock: ZUJKAS_clean_linker_0, # of connection points: 2
#     Edge 17, Type (0, 0), BuildingBlock: ZUJKAS_clean_linker_0, # of connection points: 2
#     Edge 18, Type (0, 0), BuildingBlock: ZUJKAS_clean_linker_0, # of connection points: 2
#     Edge 19, Type (0, 0), BuildingBlock: ZUJKAS_clean_linker_0, # of connection points: 2
#     Edge 20, Type (0, 0), BuildingBlock: ZUJKAS_clean_linker_0, # of connection points: 2
#     Edge 21, Type (0, 0), BuildingBlock: ZUJKAS_clean_linker_0, # of connection points: 2
#     Edge 22, Type (0, 0), BuildingBlock: ZUJKAS_clean_linker_0, # of connection points: 2
#     Edge 23, Type (0, 0), BuildingBlock: ZUJKAS_clean_linker_0, # of connection points: 2
#     Edge 24, Type (0, 0), BuildingBlock: ZUJKAS_clean_linker_0, # of connection points: 2
#     Edge 25, Type (0, 0), BuildingBlock: ZUJKAS_clean_linker_0, # of connection points: 2
#     Edge 26, Type (0, 0), BuildingBlock: ZUJKAS_clean_linker_0, # of connection points: 2
#     Edge 27, Type (0, 0), BuildingBlock: ZUJKAS_clean_linker_0, # of connection points: 2
#     Edge 28, Type (0, 0), BuildingBlock: ZUJKAS_clean_linker_0, # of connection points: 2
#     Edge 29, Type (0, 0), BuildingBlock: ZUJKAS_clean_linker_0, # of connection points: 2
#     Edge 30, Type (0, 0), BuildingBlock: ZUJKAS_clean_linker_0, # of connection points: 2
#     Edge 31, Type (0, 0), BuildingBlock: ZUJKAS_clean_linker_0, # of connection points: 2
#     Edge 32, Type (0, 0), BuildingBlock: ZUJKAS_clean_linker_0, # of connection points: 2
#     Edge 33, Type (0, 0), BuildingBlock: ZUJKAS_clean_linker_0, # of connection points: 2
#     Edge 34, Type (0, 0), BuildingBlock: ZUJKAS_clean_linker_0, # of connection points: 2
#     Edge 35, Type (0, 0), BuildingBlock: ZUJKAS_clean_linker_0, # of connection points: 2
# Relax obj value: 0.411
# Max RMSD: 0.288
# Mean RMSD: 0.254
data_MOF--net-snz--node1-UKALOJ_clean_sbu_0--edge1-ZUJKAS_clean_linker_0
_symmetry_space_group_name_H-M    P1
_symmetry_Int_Tables_number       1
_symmetry_cell_setting            triclinic
loop_
_symmetry_equiv_pos_as_xyz
'x, y, z'
_cell_length_a     63.93977
_cell_length_b     68.751722
_cell_length_c     20.012877
_cell_angle_alpha  90.568577
_cell_angle_beta   90.876778
_cell_angle_gamma 120.26358
loop_
_atom_site_label
_atom_site_type_symbol
_atom_site_fract_x
_atom_site_fract_y
_atom_site_fract_z
_atom_type_partial_charge
Zn0 Zn 0.00898 0.48593 0.09613 0.0
O1 O 0.98938 0.45393 0.04876 0.0
C2 C 0.04962 0.47723 0.12328 0.0
Zn3 Zn 0.03522 0.49689 0.01398 0.0
C4 C -0.00464 0.44989 0.99245 0.0
O5 O 0.01408 0.46516 0.96474 0.0
C6 C 0.04882 0.53328 0.11595 0.0
O7 O 0.01438 0.5091 0.96493 0.0
O8 O 0.98731 0.49589 0.04397 0.0
N9 N 0.05998 0.50734 0.94048 0.0
C10 C 0.05719 0.50259 0.87454 0.0
C11 C 0.09485 0.51752 0.89842 0.0
N12 N 0.08344 0.51688 0.95518 0.0
N13 N 0.07873 0.50886 0.84716 0.0
C14 C 0.98075 0.45633 0.20991 0.0
C15 C 0.98312 0.48062 0.28043 0.0
N16 N 0.98663 0.47521 0.17614 0.0
N17 N 0.98748 0.49014 0.21993 0.0
N18 N 0.97938 0.45948 0.27597 0.0
H19 H 0.96182 0.4298 0.13721 0.0
H20 H 0.96803 0.42063 0.21472 0.0
H21 H 0.99219 0.43599 0.15702 0.0
C22 C 0.97549 0.43442 0.17813 0.0
C23 C 0.03328 0.48939 0.83795 0.0
H24 H 0.01862 0.49003 0.86462 0.0
H25 H 0.02873 0.47159 0.83259 0.0
H26 H 0.03449 0.49601 0.78695 0.0
O27 O 0.05607 0.52844 0.063 0.0
O28 O 0.02906 0.51853 0.14107 0.0
C29 C 0.99446 0.50579 0.98852 0.0
O30 O 0.03115 0.47636 0.14865 0.0
O31 O 0.05549 0.48455 0.06459 0.0
Zn32 Zn 0.52994 0.51542 0.08723 0.0
O33 O 0.50122 0.50739 0.15395 0.0
C34 C 0.49888 0.47044 0.0243 0.0
Zn35 Zn 0.50745 0.51676 1.00419 0.0
C36 C 0.48226 0.50725 0.13321 0.0
O37 O 0.48048 0.51134 0.07232 0.0
C38 C 0.55479 0.52417 0.95776 0.0
O39 O 0.52312 0.55181 0.01937 0.0
O40 O 0.54427 0.55044 0.10444 0.0
N41 N 0.48606 0.51743 0.92909 0.0
C42 C 0.49203 0.52987 0.87369 0.0
C43 C 0.45459 0.50529 0.86424 0.0
N44 N 0.46265 0.50246 0.9239 0.0
N45 N 0.47264 0.52255 0.83176 0.0
C46 C 0.55749 0.52525 0.2222 0.0
C47 C 0.57471 0.50565 0.21584 0.0
N48 N 0.55156 0.51485 0.16192 0.0
N49 N 0.56247 0.50283 0.15765 0.0
N50 N 0.57235 0.52012 0.25646 0.0
H51 H 0.53938 0.5323 0.30048 0.0
H52 H 0.53263 0.53828 0.21853 0.0
H53 H 0.56163 0.55653 0.25763 0.0
C54 C 0.547 0.53874 0.25069 0.0
C55 C 0.51744 0.54754 0.85691 0.0
H56 H 0.5301 0.55251 0.9001 0.0
H57 H 0.51773 0.56294 0.83973 0.0
H58 H 0.52398 0.54118 0.81574 0.0
O59 O 0.53477 0.52158 0.936 0.0
O60 O 0.55782 0.52288 0.02003 0.0
C61 C 0.53826 0.56172 0.06709 0.0
O62 O 0.51545 0.48055 0.06879 0.0
O63 O 0.49177 0.48161 0.99011 0.0
Zn64 Zn 0.4882 0.01643 0.02172 0.0
O65 O 0.47479 0.0383 0.9996 0.0
C66 C 0.44151 0.98219 0.07654 0.0
Zn67 Zn 0.464 0.99243 0.94272 0.0
C68 C 0.45723 0.03199 0.95807 0.0
O69 O 0.44873 0.01303 0.92834 0.0
C70 C 0.49432 0.97615 1.00304 0.0
O71 O 0.4908 0.01167 0.87028 0.0
O72 O 0.51502 0.03272 0.95271 0.0
N73 N 0.43942 0.97001 0.87446 0.0
C74 C 0.44108 0.9653 0.81013 0.0
C75 C 0.4036 0.94947 0.83133 0.0
N76 N 0.41609 0.95965 0.88801 0.0
N77 N 0.41882 0.95272 0.78124 0.0
C78 C 0.506 0.04947 0.14043 0.0
C79 C 0.52647 0.03809 0.19415 0.0
N80 N 0.51055 0.03689 0.09768 0.0
N81 N 0.52391 0.03035 0.13082 0.0
N82 N 0.51484 0.04974 0.20239 0.0
H83 H 0.50387 0.0723 0.07246 0.0
H84 H 0.49961 0.07701 0.1588 0.0
H85 H 0.47582 0.05341 0.11228 0.0
C86 C 0.49571 0.0639 0.11994 0.0
C87 C 0.46455 0.97472 0.77429 0.0
H88 H 0.47915 0.97664 0.80912 0.0
H89 H 0.46928 0.99133 0.75369 0.0
H90 H 0.46332 0.96349 0.73257 0.0
O91 O 0.47895 0.97168 0.95595 0.0
O92 O 0.50093 0.99355 0.03991 0.0
C93 C 0.51131 0.02776 0.89075 0.0
O94 O 0.46096 9e-05 0.09287 0.0
O95 O 0.43846 0.97472 0.01684 0.0
Zn96 Zn 0.71139 0.84608 0.16488 0.0
O97 O 0.73431 0.88091 0.18252 0.0
C98 C 0.69242 0.84244 0.30311 0.0
Zn99 Zn 0.67854 0.84935 0.1647 0.0
C100 C 0.72482 0.89321 0.1873 0.0
O101 O 0.70206 0.88435 0.17886 0.0
C102 C 0.66498 0.80207 0.14553 0.0
O103 O 0.68043 0.85299 0.05787 0.0
O104 O 0.71352 0.85085 0.05939 0.0
N105 N 0.64995 0.85467 0.17058 0.0
C106 C 0.63251 0.85247 0.12726 0.0
C107 C 0.62873 0.86716 0.21719 0.0
N108 N 0.64742 0.86365 0.22649 0.0
N109 N 0.61903 0.86036 0.15524 0.0
C110 C 0.75943 0.84757 0.20535 0.0
C111 C 0.76123 0.82638 0.13011 0.0
N112 N 0.7406 0.84154 0.16232 0.0
N113 N 0.74199 0.82866 0.11509 0.0
N114 N 0.77263 0.83818 0.18638 0.0
H115 H 0.75098 0.86733 0.2738 0.0
H116 H 0.78226 0.87656 0.2672 0.0
H117 H 0.76333 0.85142 0.31222 0.0
C118 C 0.76399 0.86139 0.26819 0.0
C119 C 0.62799 0.84156 0.05943 0.0
H120 H 0.63312 0.82836 0.05921 0.0
H121 H 0.63919 0.8545 0.02284 0.0
H122 H 0.60865 0.83398 0.044 0.0
O123 O 0.65533 0.81422 0.15234 0.0
O124 O 0.68793 0.8112 0.1477 0.0
C125 C 0.69752 0.85281 0.02643 0.0
O126 O 0.70851 0.84087 0.27092 0.0
O127 O 0.67731 0.84579 0.27083 0.0
Zn128 Zn 0.16143 0.85366 0.36561 0.0
O129 O 0.12354 0.83313 0.37207 0.0
C130 C 0.16712 0.84064 0.50429 0.0
Zn131 Zn 0.16541 0.82335 0.36504 0.0
C132 C 0.11405 0.81192 0.37596 0.0
O133 O 0.12748 0.80326 0.37293 0.0
C134 C 0.21292 0.8652 0.35824 0.0
O135 O 0.16285 0.82207 0.25803 0.0
O136 O 0.1585 0.8517 0.25903 0.0
N137 N 0.16874 0.79532 0.36584 0.0
C138 C 0.15769 0.77612 0.32873 0.0
C139 C 0.18055 0.77274 0.40064 0.0
N140 N 0.18298 0.79321 0.41033 0.0
N141 N 0.16492 0.76174 0.34937 0.0
C142 C 0.14568 0.88871 0.40005 0.0
C143 C 0.16701 0.91497 0.33304 0.0
N144 N 0.1584 0.88182 0.36356 0.0
N145 N 0.17143 0.89807 0.32151 0.0
N146 N 0.15074 0.90949 0.38172 0.0
H147 H 0.13049 0.86065 0.4682 0.0
H148 H 0.11025 0.8697 0.44012 0.0
H149 H 0.13361 0.88659 0.5009 0.0
C150 C 0.12927 0.87563 0.45568 0.0
C151 C 0.13881 0.77092 0.27515 0.0
H152 H 0.13036 0.78142 0.28068 0.0
H153 H 0.12447 0.7529 0.27598 0.0
H154 H 0.14744 0.77434 0.22571 0.0
O155 O 0.20329 0.84391 0.35926 0.0
O156 O 0.1995 0.87392 0.36003 0.0
C157 C 0.16007 0.83657 0.22621 0.0
O158 O 0.16483 0.85538 0.4723 0.0
O159 O 0.16817 0.82518 0.47169 0.0
Zn160 Zn 0.14048 0.30652 0.41814 0.0
O161 O 0.14857 0.28089 0.4307 0.0
C162 C 0.15718 0.32236 0.5592 0.0
Zn163 Zn 0.17932 0.3328 0.42319 0.0
C164 C 0.17041 0.28591 0.43976 0.0
O165 O 0.18714 0.30641 0.43695 0.0
C166 C 0.14865 0.3531 0.40364 0.0
O167 O 0.18145 0.33042 0.31635 0.0
O168 O 0.14297 0.30451 0.31236 0.0
N169 N 0.21536 0.35562 0.43364 0.0
C170 C 0.23164 0.37186 0.3945 0.0
C171 C 0.25041 0.37184 0.48347 0.0
N172 N 0.22707 0.3557 0.48891 0.0
N173 N 0.2538 0.38222 0.42464 0.0
C174 C 0.08972 0.26644 0.44988 0.0
C175 C 0.06768 0.26946 0.37448 0.0
N176 N 0.10453 0.28351 0.4105 0.0
N177 N 0.09084 0.28518 0.36321 0.0
N178 N 0.06657 0.25734 0.42813 0.0
H179 H 0.1172 0.26732 0.51715 0.0
H180 H 0.08858 0.2415 0.51609 0.0
H181 H 0.09132 0.26603 0.55657 0.0
C182 C 0.09739 0.26007 0.51331 0.0
C183 C 0.22552 0.37825 0.32882 0.0
H184 H 0.2274 0.36814 0.28836 0.0
H185 H 0.23799 0.39636 0.31922 0.0
H186 H 0.20659 0.37472 0.32777 0.0
O187 O 0.17086 0.35887 0.41098 0.0
O188 O 0.13255 0.33239 0.40535 0.0
C189 C 0.16256 0.31688 0.28209 0.0
O190 O 0.13833 0.309 0.52476 0.0
O191 O 0.17674 0.33471 0.52904 0.0
Zn192 Zn 0.29909 0.17052 0.85659 0.0
O193 O 0.29714 0.17249 0.96328 0.0
C194 C 0.31593 0.1381 0.87307 0.0
Zn195 Zn 0.26801 0.13547 0.85444 0.0
C196 C 0.28087 0.15565 0.99409 0.0
O197 O 0.26584 0.13818 0.96042 0.0
C198 C 0.28625 0.15026 0.71695 0.0
O199 O 0.24337 0.14695 0.8383 0.0
O200 O 0.274 0.18159 0.84354 0.0
N201 N 0.24012 0.10293 0.85694 0.0
C202 C 0.22043 0.09074 0.81693 0.0
C203 C 0.22094 0.06861 0.88984 0.0
N204 N 0.24022 0.08919 0.90264 0.0
N205 N 0.20806 0.0691 0.83661 0.0
C206 C 0.34454 0.21716 0.89432 0.0
C207 C 0.34639 0.23582 0.80799 0.0
N208 N 0.32638 0.20313 0.8521 0.0
N209 N 0.32766 0.21477 0.79847 0.0
N210 N 0.35731 0.23784 0.86781 0.0
H211 H 0.34497 0.19213 0.95731 0.0
H212 H 0.34022 0.21271 0.99957 0.0
H213 H 0.37004 0.2205 0.9717 0.0
C214 C 0.35039 0.21019 0.95935 0.0
C215 C 0.21404 0.09963 0.75652 0.0
H216 H 0.22791 0.11713 0.74593 0.0
H217 H 0.19686 0.09945 0.76512 0.0
H218 H 0.2113 0.08869 0.71224 0.0
O219 O 0.2709 0.13309 0.74831 0.0
O220 O 0.3005 0.16811 0.75014 0.0
C221 C 0.25147 0.16798 0.83464 0.0
O222 O 0.32395 0.15911 0.86814 0.0
O223 O 0.29321 0.12445 0.8697 0.0
Zn224 Zn 0.79614 0.16211 0.6972 0.0
O225 O 0.75898 0.15246 0.69014 0.0
C226 C 0.78994 0.1426 0.83555 0.0
Zn227 Zn 0.78676 0.12624 0.69644 0.0
C228 C 0.74327 0.13156 0.68981 0.0
O229 O 0.75011 0.11716 0.6936 0.0
C230 C 0.83952 0.15633 0.70172 0.0
O231 O 0.78687 0.1277 0.58956 0.0
O232 O 0.79776 0.16342 0.59108 0.0
N233 N 0.77709 0.09307 0.6902 0.0
C234 C 0.78578 0.08249 0.65237 0.0
C235 C 0.7545 0.05714 0.70039 0.0
N236 N 0.75778 0.07729 0.72048 0.0
N237 N 0.77201 0.05998 0.65823 0.0
C238 C 0.82486 0.21322 0.73324 0.0
C239 C 0.80721 0.22613 0.67223 0.0
N240 N 0.80623 0.19552 0.7008 0.0
N241 N 0.79527 0.20358 0.66305 0.0
N242 N 0.82604 0.23268 0.71554 0.0
H243 H 0.83227 0.19462 0.80756 0.0
H244 H 0.84664 0.22443 0.8242 0.0
H245 H 0.85762 0.21359 0.75983 0.0
C246 C 0.84113 0.2113 0.78436 0.0
C247 C 0.80654 0.09388 0.60549 0.0
H248 H 0.80129 0.08528 0.55573 0.0
H249 H 0.82205 0.09256 0.62534 0.0
H250 H 0.81271 0.11187 0.59925 0.0
O251 O 0.82345 0.13563 0.70012 0.0
O252 O 0.83307 0.17104 0.70191 0.0
C253 C 0.79245 0.14557 0.55803 0.0
O254 O 0.79396 0.1601 0.80399 0.0
O255 O 0.78631 0.1252 0.80259 0.0
Zn256 Zn 0.83321 0.63852 0.66603 0.0
O257 O 0.83539 0.64052 0.77332 0.0
C258 C 0.7819 0.62631 0.67486 0.0
Zn259 Zn 0.82945 0.66898 0.66846 0.0
C260 C 0.83462 0.65605 0.80637 0.0
O261 O 0.83265 0.67102 0.77476 0.0
C262 C 0.82763 0.65127 0.5283 0.0
O263 O 0.86716 0.68992 0.66156 0.0
O264 O 0.87111 0.66008 0.65835 0.0
N265 N 0.82528 0.69655 0.66904 0.0
C266 C 0.83572 0.71559 0.63339 0.0
C267 C 0.81004 0.71716 0.69649 0.0
N268 N 0.80947 0.69766 0.70855 0.0
N269 N 0.82656 0.72887 0.65003 0.0
C270 C 0.85194 0.60639 0.70563 0.0
C271 C 0.83378 0.57926 0.6349 0.0
N272 N 0.83766 0.61104 0.66672 0.0
N273 N 0.82637 0.59415 0.62286 0.0
N274 N 0.84967 0.58648 0.68698 0.0
H275 H 0.87385 0.63953 0.75212 0.0
H276 H 0.88616 0.62117 0.75971 0.0
H277 H 0.86071 0.61653 0.80838 0.0
C278 C 0.86922 0.62192 0.75904 0.0
C279 C 0.85384 0.72064 0.57974 0.0
H280 H 0.85502 0.70576 0.56481 0.0
H281 H 0.87201 0.73373 0.59863 0.0
H282 H 0.84916 0.72725 0.53508 0.0
O283 O 0.82589 0.66625 0.56157 0.0
O284 O 0.83065 0.63683 0.55961 0.0
C285 C 0.88059 0.68133 0.65645 0.0
O286 O 0.79515 0.61744 0.67091 0.0
O287 O 0.79168 0.64763 0.67543 0.0
H288 H 0.0806 0.47136 0.82638 0.0
H289 H 0.07172 0.45088 0.71884 0.0
H290 H 0.07282 0.50709 0.6211 0.0
H291 H 0.08168 0.52727 0.72845 0.0
H292 H 0.02876 0.43969 0.66076 0.0
H293 H 0.09966 0.48456 0.47723 0.0
H294 H 0.1059 0.48857 0.56633 0.0
H295 H 0.09482 0.50451 0.52249 0.0
C296 C 0.08026 0.47966 0.78101 0.0
C297 C 0.08201 0.50082 0.78452 0.0
C298 C 0.07507 0.46798 0.71993 0.0
C299 C 0.07182 0.47753 0.66192 0.0
C300 C 0.07587 0.49961 0.66484 0.0
H301 H 0.96697 0.45699 0.40476 0.0
H302 H 0.98786 0.4513 0.49902 0.0
C303 C 0.08089 0.51117 0.72593 0.0
C304 C 0.059 0.46326 0.60265 0.0
H305 H 0.0575 0.46797 0.43421 0.0
C306 C 0.0353 0.44527 0.61089 0.0
C307 C 0.06764 0.47005 0.53769 0.0
C308 C 0.09353 0.48783 0.52554 0.0
C309 C 0.01908 0.43598 0.55626 0.0
C310 C 0.02674 0.44526 0.49254 0.0
C311 C 0.05133 0.46111 0.4833 0.0
C312 C 0.00935 0.44204 0.43791 0.0
C313 C 0.99358 0.41726 0.56814 0.0
C314 C 0.01403 0.43831 0.37238 0.0
C315 C 0.00266 0.44226 0.31874 0.0
C316 C 0.9858 0.44943 0.32939 0.0
C317 C 0.97952 0.45114 0.39514 0.0
C318 C 0.99133 0.44765 0.449 0.0
H319 H 0.99347 0.40595 0.60759 0.0
H320 H 0.98265 0.42459 0.5861 0.0
H321 H 0.98486 0.40711 0.52191 0.0
H322 H 0.02806 0.43428 0.36256 0.0
H323 H 0.00896 0.44171 0.26942 0.0
H324 H 0.48953 0.56063 0.76043 0.0
H325 H 0.50966 0.56557 0.65324 0.0
H326 H 0.4792 0.49365 0.63529 0.0
H327 H 0.46024 0.48891 0.74304 0.0
H328 H 0.54358 0.5484 0.65809 0.0
H329 H 0.47952 0.51448 0.44047 0.0
H330 H 0.47308 0.52509 0.51579 0.0
H331 H 0.46927 0.49734 0.51332 0.0
C332 C 0.48648 0.5459 0.73209 0.0
C333 C 0.47419 0.52452 0.76058 0.0
C334 C 0.49791 0.54872 0.67113 0.0
C335 C 0.49614 0.52998 0.63727 0.0
C336 C 0.48068 0.5083 0.66073 0.0
H337 H 0.55623 0.48745 0.34635 0.0
H338 H 0.54445 0.49239 0.45784 0.0
C339 C 0.46969 0.50557 0.72208 0.0
C340 C 0.51381 0.53289 0.58646 0.0
H341 H 0.51746 0.5159 0.42919 0.0
C342 C 0.53809 0.54176 0.60745 0.0
C343 C 0.50636 0.52394 0.52117 0.0
C344 C 0.48067 0.51484 0.49598 0.0
C345 C 0.55495 0.54087 0.56535 0.0
C346 C 0.54715 0.53095 0.50119 0.0
C347 C 0.52316 0.52305 0.47928 0.0
C348 C 0.56329 0.52876 0.45403 0.0
C349 C 0.58058 0.54957 0.59029 0.0
C350 C 0.57979 0.54767 0.41865 0.0
C351 C 0.58683 0.54479 0.35541 0.0
C352 C 0.57685 0.52307 0.32706 0.0
C353 C 0.56402 0.50432 0.36743 0.0
C354 C 0.55715 0.50715 0.43085 0.0
H355 H 0.58308 0.55468 0.64399 0.0
H356 H 0.58566 0.53646 0.58303 0.0
H357 H 0.59317 0.56439 0.56089 0.0
H358 H 0.58465 0.56446 0.43571 0.0
H359 H 0.59697 0.55941 0.32483 0.0
H360 H 0.39736 0.97497 0.73604 0.0
H361 H 0.40316 0.99112 0.62533 0.0
H362 H 0.43581 0.95245 0.56232 0.0
H363 H 0.42888 0.93546 0.67268 0.0
H364 H 0.45179 0.01689 0.60109 0.0
H365 H 0.40441 0.95734 0.38902 0.0
H366 H 0.39325 0.95164 0.47316 0.0
H367 H 0.41737 0.94696 0.449 0.0
C368 C 0.40441 0.96891 0.69727 0.0
C369 C 0.41336 0.95453 0.71277 0.0
C370 C 0.40787 0.97825 0.63426 0.0
C371 C 0.42024 0.97324 0.58624 0.0
C372 C 0.42608 0.95644 0.59867 0.0
H373 H 0.53369 0.05398 0.32689 0.0
H374 H 0.5098 0.03957 0.4276 0.0
C375 C 0.42233 0.94688 0.66169 0.0
C376 C 0.43201 0.98899 0.53152 0.0
H377 H 0.44089 0.99141 0.36416 0.0
C378 C 0.44903 0.01148 0.54898 0.0
C379 C 0.42843 0.98183 0.46404 0.0
C380 C 0.4097 0.95816 0.44252 0.0
C381 C 0.46324 0.02686 0.50067 0.0
C382 C 0.46055 0.01938 0.43362 0.0
C383 C 0.44292 -0.0029 0.41587 0.0
C384 C 0.47635 0.03382 0.38072 0.0
C385 C 0.48116 0.05081 0.52196 0.0
C386 C 0.46571 0.03623 0.32236 0.0
C387 C 0.47907 0.04384 0.26476 0.0
C388 C 0.50363 0.04967 0.26448 0.0
C389 C 0.51492 0.04974 0.32544 0.0
C390 C 0.5013 0.04159 0.38307 0.0
H391 H 0.47587 0.05551 0.56943 0.0
H392 H 0.49921 0.05252 0.53038 0.0
H393 H 0.48281 0.06284 0.48291 0.0
H394 H 0.44644 0.03024 0.31962 0.0
H395 H 0.46908 0.0426 0.21966 0.0
H396 H 0.72418 0.83881 0.38908 0.0
H397 H 0.72492 0.84017 0.51158 0.0
H398 H 0.6614 0.84686 0.50833 0.0
H399 H 0.66037 0.84528 0.38621 0.0
H400 H 0.72939 0.87478 0.5957 0.0
H401 H 0.64287 0.79602 0.63961 0.0
H402 H 0.65745 0.80222 0.55983 0.0
H403 H 0.63995 0.81489 0.58399 0.0
C404 C 0.71018 0.84029 0.41438 0.0
C405 C 0.69212 0.84178 0.37754 0.0
C406 C 0.71069 0.84115 0.48451 0.0
C407 C 0.69304 0.84333 0.51943 0.0
C408 C 0.67493 0.84471 0.48278 0.0
H409 H 0.66577 0.85589 0.93885 0.0
H410 H 0.66553 0.85458 0.8166 0.0
C411 C 0.67443 0.84389 0.41275 0.0
C412 C 0.69405 0.845 0.59398 0.0
H413 H 0.66164 0.82046 0.73368 0.0
C414 C 0.71464 0.86282 0.62589 0.0
C415 C 0.67477 0.82947 0.63353 0.0
C416 C 0.65259 0.80944 0.60266 0.0
C417 C 0.71628 0.86578 0.69591 0.0
C418 C 0.69698 0.85026 0.73547 0.0
C419 C 0.67641 0.83242 0.70353 0.0
C420 C 0.69782 0.85204 0.81002 0.0
C421 C 0.73841 0.88586 0.72672 0.0
C422 C 0.716 0.85102 0.84743 0.0
C423 C 0.71621 0.85182 0.91747 0.0
C424 C 0.69812 0.8535 0.95195 0.0
C425 C 0.68001 0.85466 0.9143 0.0
C426 C 0.67982 0.85386 0.84421 0.0
H427 H 0.74809 0.89929 0.68973 0.0
H428 H 0.73352 0.89307 0.76952 0.0
H429 H 0.75111 0.88049 0.74541 0.0
H430 H 0.7298 0.84913 0.82248 0.0
H431 H 0.73034 0.85069 0.94457 0.0
H432 H 0.17187 0.81169 0.58794 0.0
H433 H 0.17051 0.81101 0.71 0.0
H434 H 0.16126 0.86894 0.7116 0.0
H435 H 0.16288 0.86993 0.58942 0.0
H436 H 0.19508 0.87199 0.80714 0.0
H437 H 0.10991 0.78965 0.8208 0.0
H438 H 0.13294 0.78884 0.77271 0.0
H439 H 0.11979 0.80515 0.74436 0.0
C440 C 0.1696 0.82434 0.61415 0.0
C441 C 0.16741 0.84083 0.57866 0.0
C442 C 0.16865 0.82382 0.68403 0.0
C443 C 0.16532 0.83966 0.72004 0.0
C444 C 0.16368 0.85644 0.68493 0.0
H445 H 0.15506 0.86553 0.14321 0.0
H446 H 0.15611 0.86628 0.02112 0.0
C447 C 0.16463 0.85699 0.615 0.0
C448 C 0.16383 0.83887 0.79431 0.0
H449 H 0.13146 0.80544 0.92318 0.0
C450 C 0.1811 0.85749 0.83251 0.0
C451 C 0.14559 0.81993 0.8275 0.0
C452 C 0.12585 0.79983 0.78934 0.0
C453 C 0.18094 0.85751 0.90282 0.0
C454 C 0.16273 0.83855 0.93602 0.0
C455 C 0.14543 0.81995 0.89782 0.0
C456 C 0.16136 0.83769 0.01032 0.0
C457 C 0.20065 0.87764 0.94095 0.0
C458 C 0.16314 0.82091 0.04506 0.0
C459 C 0.16238 0.82032 0.11501 0.0
C460 C 0.15966 0.83644 0.15179 0.0
C461 C 0.15731 0.85291 0.11668 0.0
C462 C 0.15808 0.85348 0.04677 0.0
H463 H 0.21654 0.88789 0.90941 0.0
H464 H 0.19349 0.88855 0.95783 0.0
H465 H 0.2068 0.87234 0.98579 0.0
H466 H 0.16551 0.80845 0.01804 0.0
H467 H 0.16421 0.80738 0.14025 0.0
H468 H 0.19473 0.34844 0.6465 0.0
H469 H 0.19533 0.34681 0.76845 0.0
H470 H 0.11996 0.29509 0.76331 0.0
H471 H 0.11925 0.29643 0.64106 0.0
H472 H 0.16863 0.35407 0.86312 0.0
H473 H 0.15098 0.26645 0.87512 0.0
H474 H 0.15951 0.28228 0.79906 0.0
H475 H 0.12886 0.26941 0.82693 0.0
C476 C 0.17821 0.33675 0.67116 0.0
C477 C 0.15694 0.32249 0.63366 0.0
C478 C 0.17861 0.33583 0.74105 0.0
C479 C 0.15783 0.32055 0.77522 0.0
C480 C 0.13639 0.30668 0.73813 0.0
H481 H 0.12493 0.29055 0.19517 0.0
H482 H 0.12433 0.29158 0.07309 0.0
C483 C 0.13596 0.30759 0.66814 0.0
C484 C 0.15866 0.31934 0.84959 0.0
H485 H 0.15104 0.28397 0.97791 0.0
C486 C 0.16487 0.33876 0.88819 0.0
C487 C 0.15379 0.29937 0.88246 0.0
C488 C 0.14812 0.27823 0.8439 0.0
C489 C 0.1659 0.33867 0.95851 0.0
C490 C 0.16103 0.31871 0.99141 0.0
C491 C 0.1548 0.29927 0.95282 0.0
C492 C 0.1619 0.3176 0.06581 0.0
C493 C 0.17162 0.35984 0.997 0.0
C494 C 0.18339 0.3315 0.10269 0.0
C495 C 0.18382 0.33094 0.17275 0.0
C496 C 0.16278 0.31639 0.20757 0.0
C497 C 0.14148 0.30202 0.17029 0.0
C498 C 0.14109 0.30258 0.10031 0.0
H499 H 0.1688 0.37162 0.96574 0.0
H500 H 0.16023 0.35582 0.04182 0.0
H501 H 0.19089 0.36862 0.01397 0.0
H502 H 0.19984 0.34289 0.07727 0.0
H503 H 0.20057 0.34213 0.19957 0.0
H504 H 0.256 0.11612 0.62942 0.0
H505 H 0.25526 0.11687 0.50699 0.0
H506 H 0.31572 0.18489 0.51335 0.0
H507 H 0.3168 0.18421 0.63538 0.0
H508 H 0.24817 0.14554 0.42495 0.0
H509 H 0.33789 0.15449 0.37932 0.0
H510 H 0.3234 0.14629 0.45903 0.0
H511 H 0.33904 0.17541 0.43606 0.0
C512 C 0.26936 0.13115 0.60479 0.0
C513 C 0.2866 0.15004 0.64248 0.0
C514 C 0.26884 0.13158 0.5347 0.0
C515 C 0.28565 0.15082 0.50066 0.0
C516 C 0.3029 0.16966 0.53818 0.0
H517 H 0.31076 0.18959 0.08275 0.0
H518 H 0.31105 0.18858 0.20501 0.0
C519 C 0.30342 0.16927 0.60816 0.0
C520 C 0.28461 0.15152 0.42617 0.0
H521 H 0.31791 0.15975 0.28614 0.0
C522 C 0.26336 0.1485 0.39458 0.0
C523 C 0.30447 0.15549 0.38635 0.0
C524 C 0.32742 0.1579 0.41674 0.0
C525 C 0.2616 0.14978 0.32469 0.0
C526 C 0.28147 0.15378 0.28489 0.0
C527 C 0.3027 0.15677 0.31648 0.0
C528 C 0.28055 0.15466 0.21041 0.0
C529 C 0.23865 0.14737 0.29428 0.0
C530 C 0.26336 0.13594 0.17237 0.0
C531 C 0.26312 0.13648 0.10237 0.0
C532 C 0.2802 0.15573 0.06857 0.0
C533 C 0.29731 0.17452 0.10684 0.0
C534 C 0.29753 0.17395 0.17689 0.0
H535 H 0.22813 0.15071 0.33174 0.0
H536 H 0.24269 0.15904 0.25213 0.0
H537 H 0.22706 0.12988 0.27475 0.0
H538 H 0.25038 0.12068 0.19677 0.0
H539 H 0.24979 0.12162 0.07475 0.0
H540 H 0.80208 0.18039 0.47455 0.0
H541 H 0.80171 0.1799 0.35223 0.0
H542 H 0.7825 0.11011 0.35065 0.0
H543 H 0.78313 0.11049 0.47296 0.0
H544 H 0.81933 0.13614 0.26273 0.0
H545 H 0.74183 0.15039 0.22823 0.0
H546 H 0.76594 0.17107 0.28101 0.0
H547 H 0.74892 0.14233 0.30719 0.0
C548 C 0.79774 0.16491 0.44826 0.0
C549 C 0.79249 0.14544 0.48373 0.0
C550 C 0.79738 0.16462 0.37824 0.0
C551 C 0.79166 0.14485 0.34214 0.0
C552 C 0.78681 0.12551 0.37738 0.0
H553 H 0.78086 0.10786 0.9188 0.0
H554 H 0.78137 0.10827 0.0411 0.0
C555 C 0.78714 0.12577 0.44738 0.0
C556 C 0.79111 0.14442 0.26769 0.0
H557 H 0.7633 0.15183 0.13103 0.0
C558 C 0.80701 0.13947 0.23391 0.0
C559 C 0.77504 0.14879 0.23006 0.0
C560 C 0.7568 0.15325 0.26331 0.0
C561 C 0.80761 0.13919 0.16367 0.0
C562 C 0.79155 0.14357 0.12602 0.0
C563 C 0.77563 0.1485 0.15983 0.0
C564 C 0.79101 0.14319 0.05154 0.0
C565 C 0.82587 0.13475 0.13047 0.0
C566 C 0.79557 0.16249 0.01645 0.0
C567 C 0.79512 0.16226 0.94644 0.0
C568 C 0.78994 0.14267 0.9099 0.0
C569 C 0.78505 0.12327 0.94522 0.0
C570 C 0.78549 0.12352 0.01525 0.0
H571 H 0.84089 0.13772 0.16552 0.0
H572 H 0.81677 0.1169 0.1131 0.0
H573 H 0.83367 0.14558 0.08641 0.0
H574 H 0.79974 0.17783 0.04331 0.0
H575 H 0.79897 0.17751 0.92101 0.0
H576 H 0.83045 0.62155 0.44166 0.0
H577 H 0.83198 0.62291 0.31953 0.0
H578 H 0.82552 0.68237 0.32407 0.0
H579 H 0.82425 0.68132 0.44617 0.0
H580 H 0.7984 0.62145 0.22528 0.0
H581 H 0.8857 0.70199 0.21198 0.0
H582 H 0.87546 0.68633 0.28807 0.0
H583 H 0.86326 0.70353 0.26095 0.0
C584 C 0.82931 0.63492 0.41676 0.0
C585 C 0.8273 0.65137 0.45393 0.0
C586 C 0.8302 0.63567 0.34686 0.0
C587 C 0.82928 0.65296 0.31256 0.0
C588 C 0.82678 0.66914 0.3494 0.0
H589 H 0.83275 0.68645 0.89233 0.0
H590 H 0.83135 0.68546 0.01451 0.0
C591 C 0.82586 0.6684 0.41929 0.0
C592 C 0.83066 0.65388 0.23829 0.0
H593 H 0.86405 0.68666 0.10962 0.0
C594 C 0.81281 0.63567 0.19999 0.0
C595 C 0.84944 0.67245 0.20522 0.0
C596 C 0.8697 0.69212 0.24353 0.0
C597 C 0.81296 0.63568 0.12969 0.0
C598 C 0.83179 0.65422 0.09658 0.0
C599 C 0.84963 0.67246 0.1349 0.0
C600 C 0.83324 0.65502 0.02228 0.0
C601 C 0.79261 0.61605 0.0915 0.0
C602 C 0.83528 0.63851 0.98582 0.0
C603 C 0.83605 0.639 0.9159 0.0
C604 C 0.83501 0.65615 0.88079 0.0
C605 C 0.83355 0.67297 0.91758 0.0
C606 C 0.83275 0.67244 0.98752 0.0
H607 H 0.7765 0.60646 0.12292 0.0
H608 H 0.78708 0.62181 0.04646 0.0
H609 H 0.79882 0.60437 0.075 0.0
H610 H 0.83625 0.62517 0.01146 0.0
H611 H 0.83723 0.6258 0.8894 0.0
H612 H 0.17568 0.3992 0.41868 0.0
H613 H 0.16286 0.42649 0.3919 0.0
H614 H 0.09284 0.37198 0.32626 0.0
H615 H 0.10502 0.34488 0.35536 0.0
H616 H 0.15078 0.43647 0.27875 0.0
H617 H 0.07162 0.40627 0.4385 0.0
H618 H 0.09306 0.39668 0.44816 0.0
H619 H 0.06815 0.38307 0.38839 0.0
C620 C 0.15744 0.3931 0.39948 0.0
C621 C 0.14128 0.3699 0.38981 0.0
C622 C 0.15014 0.40868 0.38421 0.0
C623 C 0.12664 0.40128 0.35872 0.0
C624 C 0.1107 0.37812 0.34833 0.0
H625 H 0.07654 0.45985 0.07528 0.0
H626 H 0.0979 0.44497 0.13979 0.0
C627 C 0.11781 0.36261 0.36446 0.0
C628 C 0.11906 0.41751 0.33782 0.0
H629 H 0.07022 0.42493 0.33672 0.0
C630 C 0.13339 0.43428 0.29254 0.0
C631 C 0.09676 0.41527 0.35726 0.0
C632 C 0.08172 0.39951 0.41141 0.0
C633 C 0.12517 0.44764 0.2624 0.0
C634 C 0.10156 0.44342 0.27569 0.0
C635 C 0.08807 0.42786 0.32488 0.0
C636 C 0.08982 0.45376 0.23658 0.0
C637 C 0.14194 0.46601 0.2165 0.0
C638 C 0.07729 0.46288 0.26915 0.0
C639 C 0.0643 0.4706 0.23221 0.0
C640 C 0.06394 0.4697 0.162 0.0
C641 C 0.07681 0.461 0.12935 0.0
C642 C 0.08927 0.45274 0.1663 0.0
H643 H 0.16115 0.47301 0.23276 0.0
H644 H 0.13992 0.45885 0.16528 0.0
H645 H 0.138 0.47998 0.21482 0.0
H646 H 0.07727 0.46376 0.32323 0.0
H647 H 0.05458 0.47732 0.25862 0.0
H648 H 0.5564 0.58529 0.1843 0.0
H649 H 0.57425 0.62584 0.2033 0.0
H650 H 0.56333 0.63379 0.99417 0.0
H651 H 0.54425 0.59313 0.9759 0.0
H652 H 0.61301 0.65874 0.15938 0.0
H653 H 0.53802 0.67069 0.07205 0.0
H654 H 0.5341 0.64311 0.08438 0.0
H655 H 0.54621 0.6577 1.00756 0.0
C656 C 0.55761 0.5957 0.14261 0.0
C657 C 0.54887 0.58612 0.07874 0.0
C658 C 0.56777 0.61886 0.15348 0.0
C659 C 0.56972 0.63289 0.10047 0.0
C660 C 0.56127 0.6233 0.03639 0.0
H661 H 0.67762 0.77368 0.08759 0.0
H662 H 0.65351 0.7327 0.07784 0.0
C663 C 0.55059 0.60008 0.02584 0.0
C664 C 0.58202 0.65767 0.11133 0.0
H665 H 0.5775 0.70408 0.07878 0.0
C666 C 0.60507 0.66859 0.14247 0.0
C667 C 0.57154 0.67057 0.09059 0.0
C668 C 0.54599 0.65985 0.06252 0.0
C669 C 0.61821 0.69205 0.15161 0.0
C670 C 0.60853 0.70508 0.12616 0.0
C671 C 0.58515 0.69414 0.09709 0.0
C672 C 0.62251 0.73006 0.12855 0.0
C673 C 0.64218 0.70248 0.18939 0.0
C674 C 0.61259 0.74233 0.15671 0.0
C675 C 0.62611 0.76586 0.16054 0.0
C676 C 0.64986 0.77743 0.13696 0.0
C677 C 0.65949 0.76516 0.10714 0.0
C678 C 0.6458 0.74173 0.10207 0.0
H679 H 0.64282 0.69037 0.22454 0.0
H680 H 0.65696 0.70728 0.15343 0.0
H681 H 0.64571 0.71775 0.21829 0.0
H682 H 0.59456 0.7337 0.1769 0.0
H683 H 0.61826 0.77494 0.18372 0.0
H684 H 0.39844 0.94336 0.05692 0.0
H685 H 0.3638 0.9274 0.13028 0.0
H686 H 0.40483 0.97974 0.2778 0.0
H687 H 0.4399 0.99595 0.20464 0.0
H688 H 0.37106 0.92817 0.31994 0.0
H689 H 0.32984 0.96777 0.16681 0.0
H690 H 0.34279 0.95394 0.12076 0.0
H691 H 0.36211 0.97851 0.17121 0.0
C692 C 0.4003 0.95134 0.10531 0.0
C693 C 0.42182 0.97106 0.12466 0.0
C694 C 0.3805 0.94218 0.14712 0.0
C695 C 0.38185 0.95254 0.2089 0.0
C696 C 0.4036 0.97156 0.23016 0.0
H697 H 0.23991 0.91106 0.37115 0.0
H698 H 0.28327 0.93506 0.35265 0.0
C699 C 0.42352 0.98079 0.18825 0.0
C700 C 0.35973 0.94425 0.24793 0.0
H701 H 0.30358 0.93823 0.23769 0.0
C702 C 0.35645 0.93077 0.3033 0.0
C703 C 0.3409 0.94789 0.22616 0.0
C704 C 0.34403 0.96296 0.16828 0.0
C705 C 0.33413 0.91976 0.33542 0.0
C706 C 0.31458 0.92184 0.3099 0.0
C707 C 0.31848 0.9365 0.25708 0.0
C708 C 0.28939 0.90739 0.3319 0.0
C709 C 0.33165 0.90575 0.39548 0.0
C710 C 0.27847 0.88386 0.32699 0.0
C711 C 0.25376 0.87011 0.33787 0.0
C712 C 0.23941 0.87966 0.35272 0.0
C713 C 0.25047 0.90321 0.3594 0.0
C714 C 0.27525 0.91694 0.34913 0.0
H715 H 0.34923 0.91257 0.4232 0.0
H716 H 0.3179 0.90503 0.43017 0.0
H717 H 0.32605 0.88834 0.37855 0.0
H718 H 0.28882 0.8761 0.31176 0.0
H719 H 0.24576 0.85204 0.33209 0.0
H720 H 0.41952 0.0229 0.87279 0.0
H721 H 0.39968 0.04502 0.85704 0.0
H722 H 0.44977 0.09495 0.99926 0.0
H723 H 0.46989 0.07304 0.01511 0.0
H724 H 0.39935 0.07832 0.02285 0.0
H725 H 0.42437 0.10611 0.76201 0.0
H726 H 0.4124 0.07651 0.77398 0.0
H727 H 0.44077 0.09654 0.81342 0.0
C728 C 0.42651 0.03869 0.90031 0.0
C729 C 0.44622 0.04611 0.94567 0.0
C730 C 0.41522 0.05136 0.89093 0.0
C731 C 0.42343 0.07167 0.92656 0.0
C732 C 0.44326 0.07932 0.97116 0.0
H733 H 0.36547 0.16188 0.87018 0.0
H734 H 0.39319 0.14735 0.88571 0.0
C735 C 0.45468 0.06673 0.98029 0.0
C736 C 0.41028 0.08413 0.92031 0.0
H737 H 0.39262 0.11037 0.80789 0.0
C738 C 0.39807 0.08555 0.9761 0.0
C739 C 0.40887 0.09367 0.85939 0.0
C740 C 0.42246 0.09336 0.79885 0.0
C741 C 0.38367 0.09555 0.97182 0.0
C742 C 0.38137 0.10417 0.91009 0.0
C743 C 0.39432 0.10355 0.85498 0.0
C744 C 0.36476 0.11303 0.90113 0.0
C745 C 0.37081 0.09664 0.03309 0.0
C746 C 0.33968 0.09843 0.90403 0.0
C747 C 0.32382 0.10659 0.89486 0.0
C748 C 0.33281 0.12954 0.8827 0.0
C749 C 0.358 0.14413 0.87965 0.0
C750 C 0.37384 0.13589 0.88841 0.0
H751 H 0.37878 0.09413 0.07963 0.0
H752 H 0.37152 0.11309 0.03694 0.0
H753 H 0.35149 0.08318 0.02931 0.0
H754 H 0.33236 0.08066 0.91297 0.0
H755 H 0.30453 0.0949 0.89741 0.0
H756 H 0.81696 0.26648 0.73648 0.0
H757 H 0.8461 0.30539 0.77096 0.0
H758 H 0.90314 0.2892 0.77586 0.0
H759 H 0.87471 0.25128 0.73505 0.0
H760 H 0.87028 0.32108 0.87965 0.0
H761 H 0.93725 0.34622 0.68082 0.0
H762 H 0.90839 0.32047 0.67507 0.0
H763 H 0.93364 0.32142 0.71974 0.0
C764 C 0.83581 0.27139 0.74411 0.0
C765 C 0.84335 0.25557 0.73535 0.0
C766 C 0.85243 0.29358 0.76401 0.0
C767 C 0.87695 0.30038 0.77557 0.0
C768 C 0.88451 0.28462 0.76601 0.0
H769 H 0.97133 0.40866 0.04847 0.0
H770 H 0.943 0.37279 0.9931 0.0
C771 C 0.86802 0.26264 0.7446 0.0
C772 C 0.89428 0.32347 0.80159 0.0
H773 H 0.95149 0.36804 0.7839 0.0
C774 C 0.8879 0.33146 0.85803 0.0
C775 C 0.91713 0.33733 0.7728 0.0
C776 C 0.92434 0.33099 0.70832 0.0
C777 C 0.90394 0.35249 0.88771 0.0
C778 C 0.92754 0.36549 0.8623 0.0
C779 C 0.93363 0.3579 0.80443 0.0
C780 C 0.94612 0.38697 0.895 0.0
C781 C 0.89513 0.36063 0.94525 0.0
C782 C 0.9586 0.40664 0.85764 0.0
C783 C 0.97544 0.42701 0.88894 0.0
C784 C 0.97977 0.42808 0.95822 0.0
C785 C 0.96792 0.40831 0.99519 0.0
C786 C 0.95158 0.38787 0.96365 0.0
H787 H 0.87513 0.35303 0.94265 0.0
H788 H 0.89976 0.35547 0.99301 0.0
H789 H 0.90354 0.37924 0.94596 0.0
H790 H 0.9549 0.40637 0.80453 0.0
H791 H 0.98431 0.44208 0.85947 0.0
H792 H 0.75343 0.58123 0.64604 0.0
H793 H 0.70979 0.55758 0.66231 0.0
H794 H 0.70751 0.61553 0.73759 0.0
H795 H 0.75061 0.63926 0.71858 0.0
H796 H 0.68736 0.54734 0.77146 0.0
H797 H 0.64795 0.58846 0.62452 0.0
H798 H 0.67893 0.59529 0.61455 0.0
H799 H 0.67132 0.60943 0.67794 0.0
C800 C 0.74347 0.58894 0.66497 0.0
C801 C 0.75541 0.61208 0.68099 0.0
C802 C 0.71854 0.57544 0.67405 0.0
C803 C 0.70516 0.58481 0.69983 0.0
C804 C 0.71712 0.60798 0.71526 0.0
H805 H 0.60175 0.53861 0.99126 0.0
H806 H 0.63525 0.5489 0.91686 0.0
C807 C 0.7419 0.62152 0.70513 0.0
C808 C 0.67951 0.57021 0.71854 0.0
H809 H 0.626 0.56975 0.72619 0.0
C810 C 0.67378 0.55192 0.76005 0.0
C811 C 0.66135 0.57552 0.70215 0.0
C812 C 0.66519 0.59309 0.65162 0.0
C813 C 0.65126 0.54028 0.79059 0.0
C814 C 0.63443 0.54771 0.78155 0.0
C815 C 0.63917 0.56446 0.73485 0.0
C816 C 0.61343 0.5403 0.82567 0.0
C817 C 0.6461 0.52053 0.83373 0.0
C818 C 0.59006 0.53289 0.79929 0.0
C819 C 0.57082 0.52746 0.84205 0.0
C820 C 0.57469 0.5293 0.9118 0.0
C821 C 0.59808 0.5367 0.93784 0.0
C822 C 0.61725 0.54238 0.89526 0.0
H823 H 0.65504 0.51146 0.81397 0.0
H824 H 0.65361 0.52675 0.8849 0.0
H825 H 0.62636 0.50844 0.83677 0.0
H826 H 0.58675 0.53143 0.74573 0.0
H827 H 0.55299 0.52188 0.82054 0.0
H828 H 0.85656 0.58005 0.81668 0.0
H829 H 0.88176 0.5653 0.86014 0.0
H830 H 0.89562 0.5527 0.65876 0.0
H831 H 0.87089 0.56812 0.61504 0.0
H832 H 0.88204 0.51599 0.76189 0.0
H833 H 0.95859 0.60078 0.83556 0.0
H834 H 0.92894 0.59449 0.86055 0.0
H835 H 0.93585 0.59671 0.77343 0.0
C836 C 0.86524 0.5744 0.7818 0.0
C837 C 0.86247 0.57583 0.7126 0.0
C838 C 0.87943 0.56583 0.80658 0.0
C839 C 0.89082 0.55831 0.76253 0.0
C840 C 0.88709 0.55862 0.6934 0.0
H841 H 0.00587 0.53079 0.87505 0.0
H842 H 0.98084 0.54287 0.81469 0.0
C843 C 0.87297 0.56733 0.66857 0.0
C844 C 0.90704 0.55062 0.78906 0.0
H845 H 0.96101 0.56928 0.87224 0.0
C846 C 0.89938 0.5276 0.78561 0.0
C847 C 0.92971 0.56592 0.81925 0.0
C848 C 0.93897 0.59091 0.8222 0.0
C849 C 0.91358 0.51936 0.81376 0.0
C850 C 0.93585 0.53458 0.84617 0.0
C851 C 0.94385 0.55768 0.84758 0.0
C852 C 0.95068 0.52675 0.8813 0.0
C853 C 0.90466 0.49447 0.80897 0.0
C854 C 0.94204 0.51395 0.93901 0.0
C855 C 0.9563 0.50718 0.97385 0.0
C856 C 0.97949 0.5131 0.95151 0.0
C857 C 0.98809 0.52594 0.89351 0.0
C858 C 0.97384 0.53284 0.85895 0.0
H859 H 0.89025 0.4859 0.76973 0.0
H860 H 0.91978 0.49146 0.79794 0.0
H861 H 0.89705 0.48669 0.85758 0.0
H862 H 0.92435 0.5094 0.95755 0.0
H863 H 0.94913 0.49731 0.0183 0.0
H864 H 0.50555 0.44056 0.09806 0.0
H865 H 0.48479 0.39957 0.08286 0.0
H866 H 0.44589 0.40383 0.91091 0.0
H867 H 0.46614 0.44464 0.92635 0.0
H868 H 0.41634 0.37232 1.00056 0.0
H869 H 0.49476 0.36173 0.94165 0.0
H870 H 0.49774 0.37699 0.018 0.0
H871 H 0.49637 0.3887 0.93933 0.0
C872 C 0.49273 0.43278 0.05666 0.0
C873 C 0.48746 0.44584 0.01342 0.0
C874 C 0.48099 0.40937 0.04788 0.0
C875 C 0.46401 0.39872 0.99535 0.0
C876 C 0.45898 0.41176 0.95171 0.0
H877 H 0.39539 0.26992 0.8035 0.0
H878 H 0.42327 0.30836 0.84424 0.0
C879 C 0.47057 0.43508 0.96061 0.0
C880 C 0.45048 0.37389 0.98721 0.0
H881 H 0.45669 0.3285 0.95007 0.0
C882 C 0.42514 0.36269 0.98995 0.0
C883 C 0.46209 0.36147 0.97309 0.0
C884 C 0.48922 0.37279 0.96723 0.0
C885 C 0.41098 0.33946 0.9773 0.0
C886 C 0.42255 0.32699 0.9632 0.0
C887 C 0.44794 0.3381 0.96176 0.0
C888 C 0.40842 0.30287 0.94327 0.0
C889 C 0.38374 0.32871 0.9761 0.0
C890 C 0.39147 0.28686 0.98624 0.0
C891 C 0.37539 0.26497 0.96277 0.0
C892 C 0.37636 0.25868 0.89635 0.0
C893 C 0.39437 0.27437 0.85491 0.0
C894 C 0.4103 0.29626 0.87819 0.0
H895 H 0.37793 0.34144 0.97367 0.0
H896 H 0.37553 0.31691 0.93264 0.0
H897 H 0.37647 0.31901 0.02236 0.0
H898 H 0.38992 0.29159 0.03691 0.0
H899 H 0.36133 0.25349 0.99532 0.0
H900 H 0.72112 0.15313 0.63481 0.0
H901 H 0.67743 0.13918 0.62673 0.0
H902 H 0.66346 0.07887 0.72867 0.0
H903 H 0.70662 0.09209 0.73345 0.0
H904 H 0.63146 0.06887 0.62933 0.0
H905 H 0.63909 0.14121 0.77868 0.0
H906 H 0.6545 0.14758 0.70075 0.0
H907 H 0.66459 0.13715 0.76862 0.0
C908 C 0.70862 0.13689 0.65535 0.0
C909 C 0.71719 0.12375 0.68531 0.0
C910 C 0.68371 0.12897 0.65081 0.0
C911 C 0.66715 0.10811 0.67791 0.0
C912 C 0.67583 0.09495 0.70699 0.0
H913 H 0.55848 0.0551 0.92452 0.0
H914 H 0.59213 0.07614 0.85174 0.0
C915 C 0.70053 0.10259 0.71015 0.0
C916 C 0.64085 0.10002 0.68047 0.0
H917 H 0.60087 0.10959 0.76478 0.0
C918 C 0.6246 0.07792 0.65769 0.0
C919 C 0.63193 0.11205 0.71638 0.0
C920 C 0.64836 0.13575 0.74293 0.0
C921 C 0.60035 0.06654 0.67714 0.0
C922 C 0.59207 0.07792 0.71852 0.0
C923 C 0.60746 0.10092 0.73355 0.0
C924 C 0.57047 0.06542 0.7601 0.0
C925 C 0.58458 0.04188 0.65899 0.0
C926 C 0.54693 0.05219 0.7328 0.0
C927 C 0.52741 0.03966 0.77484 0.0
C928 C 0.53125 0.04054 0.84451 0.0
C929 C 0.5548 0.05409 0.87118 0.0
C930 C 0.57412 0.06626 0.82954 0.0
H931 H 0.59456 0.03515 0.63116 0.0
H932 H 0.57726 0.03187 0.70479 0.0
H933 H 0.56903 0.03941 0.62721 0.0
H934 H 0.54368 0.05152 0.67936 0.0
H935 H 0.5094 0.02949 0.75302 0.0
H936 H 0.5257 0.97941 0.10284 0.0
H937 H 0.5439 0.95581 0.11793 0.0
H938 H 0.50516 0.91643 0.94235 0.0
H939 H 0.48653 0.93967 0.9274 0.0
H940 H 0.50402 0.89016 0.04807 0.0
H941 H 0.5977 0.95885 1.00339 0.0
H942 H 0.58324 0.96563 0.06834 0.0
H943 H 0.5715 0.96132 0.98386 0.0
C944 C 0.52102 0.96572 0.06745 0.0
C945 C 0.5048 0.96151 0.01366 0.0
C946 C 0.53153 0.95232 0.07597 0.0
C947 C 0.5262 0.93465 0.03053 0.0
C948 C 0.5096 0.93007 0.97771 0.0
H949 H 0.61935 0.87632 0.03158 0.0
H950 H 0.59341 0.89046 0.99087 0.0
C951 C 0.49901 0.9434 0.96926 0.0
C952 C 0.53804 0.92102 0.03814 0.0
H953 H 0.59344 0.92528 0.04986 0.0
C954 C 0.52356 0.89776 0.04786 0.0
C955 C 0.56349 0.93089 0.03638 0.0
C956 C 0.57989 0.9555 0.02174 0.0
C957 C 0.53396 0.88426 0.05863 0.0
C958 C 0.55948 0.89441 0.06083 0.0
C959 C 0.57387 0.91751 0.04853 0.0
C960 C 0.57188 0.88189 0.07975 0.0
C961 C 0.51752 0.8593 0.06753 0.0
C962 C 0.568 0.87185 0.14249 0.0
C963 C 0.58251 0.86335 0.16521 0.0
C964 C 0.60126 0.86484 0.12588 0.0
C965 C 0.60452 0.87413 0.06202 0.0
C966 C 0.5899 0.88251 0.03909 0.0
H967 H 0.49958 0.85321 0.0426 0.0
H968 H 0.52563 0.84957 0.04716 0.0
H969 H 0.51448 0.85582 0.12162 0.0
H970 H 0.55467 0.87171 0.17553 0.0
H971 H 0.5799 0.85657 0.21497 0.0
H972 H 0.15217 0.72608 0.42759 0.0
H973 H 0.13495 0.68664 0.39096 0.0
H974 H 0.14162 0.70668 0.18523 0.0
H975 H 0.15923 0.7461 0.22181 0.0
H976 H 0.09448 0.67131 0.22152 0.0
H977 H 0.16777 0.65464 0.29915 0.0
H978 H 0.15836 0.66726 0.36221 0.0
H979 H 0.17284 0.68277 0.28893 0.0
C980 C 0.15022 0.72201 0.37462 0.0
C981 C 0.15646 0.73896 0.32746 0.0
C982 C 0.14047 0.69957 0.35378 0.0
C983 C 0.13708 0.69382 0.28544 0.0
C984 C 0.144 0.71082 0.23822 0.0
H985 H 0.09289 0.56764 0.07884 0.0
H986 H 0.11452 0.6063 0.12328 0.0
C987 C 0.15382 0.73325 0.25907 0.0
C988 C 0.12495 0.66996 0.26316 0.0
H989 H 0.13066 0.62319 0.26082 0.0
C990 C 0.10237 0.66077 0.23001 0.0
C991 C 0.13543 0.65639 0.2741 0.0
C992 C 0.16003 0.66573 0.30756 0.0
C993 C 0.08982 0.63822 0.20792 0.0
C994 C 0.10008 0.62452 0.21993 0.0
C995 C 0.12279 0.63375 0.25242 0.0
C996 C 0.08774 0.60074 0.19688 0.0
C997 C 0.06588 0.62929 0.17095 0.0
C998 C 0.0658 0.58477 0.2247 0.0
C999 C 0.05339 0.56264 0.19957 0.0
C1000 C 0.06274 0.55618 0.1461 0.0
C1001 C 0.08513 0.5721 0.1198 0.0
C1002 C 0.09755 0.59418 0.14518 0.0
H1003 H 0.0628 0.64305 0.15447 0.0
H1004 H 0.06491 0.61906 0.12645 0.0
H1005 H 0.05098 0.61825 0.20438 0.0
H1006 H 0.05812 0.58953 0.2652 0.0
H1007 H 0.03625 0.55076 0.2211 0.0
H1008 H 0.4399 0.50608 0.10357 0.0
H1009 H 0.40358 0.4902 0.17008 0.0
H1010 H 0.44104 0.47751 0.32951 0.0
H1011 H 0.47763 0.49323 0.26271 0.0
H1012 H 0.39854 0.43981 0.28731 0.0
H1013 H 0.38236 0.51052 0.33483 0.0
H1014 H 0.38788 0.50791 0.24847 0.0
H1015 H 0.41144 0.51477 0.31034 0.0
C1016 C 0.44063 0.50033 0.15329 0.0
C1017 C 0.46159 0.50072 0.17762 0.0
C1018 C 0.41987 0.49143 0.1915 0.0
C1019 C 0.4197 0.48291 0.25495 0.0
C1020 C 0.44089 0.48414 0.28072 0.0
H1021 H 0.28887 0.41759 0.4941 0.0
H1022 H 0.33019 0.44356 0.45742 0.0
C1023 C 0.46175 0.4931 0.24249 0.0
C1024 C 0.39654 0.47016 0.28993 0.0
H1025 H 0.34765 0.47312 0.34248 0.0
C1026 C 0.38759 0.44718 0.30043 0.0
C1027 C 0.38235 0.47984 0.30729 0.0
C1028 C 0.3916 0.50468 0.30029 0.0
C1029 C 0.36433 0.43336 0.32488 0.0
C1030 C 0.34957 0.44275 0.33825 0.0
C1031 C 0.35892 0.46594 0.33102 0.0
C1032 C 0.32421 0.42851 0.35845 0.0
C1033 C 0.35559 0.40874 0.33534 0.0
C1034 C 0.30715 0.41192 0.31428 0.0
C1035 C 0.28366 0.39719 0.33505 0.0
C1036 C 0.27683 0.39899 0.40011 0.0
C1037 C 0.29375 0.41605 0.44357 0.0
C1038 C 0.31724 0.43083 0.42273 0.0
H1039 H 0.37089 0.40545 0.33887 0.0
H1040 H 0.34489 0.40276 0.38148 0.0
H1041 H 0.34373 0.39872 0.29235 0.0
H1042 H 0.31223 0.40999 0.26429 0.0
H1043 H 0.27123 0.3838 0.30129 0.0
H1044 H 0.86882 0.76578 0.61532 0.0
H1045 H 0.87289 0.79627 0.54391 0.0
H1046 H 0.79534 0.76758 0.5427 0.0
H1047 H 0.79124 0.73687 0.61206 0.0
H1048 H 0.85157 0.78775 0.41589 0.0
H1049 H 0.82048 0.83497 0.5698 0.0
H1050 H 0.83083 0.81719 0.60582 0.0
H1051 H 0.80016 0.80518 0.57431 0.0
C1052 C 0.85271 0.76603 0.59964 0.0
C1053 C 0.82964 0.74864 0.61734 0.0
C1054 C 0.85507 0.78358 0.55971 0.0
C1055 C 0.83444 0.78426 0.53848 0.0
C1056 C 0.81155 0.76763 0.5596 0.0
H1057 H 0.77006 0.7987 0.20897 0.0
H1058 H 0.79381 0.7914 0.29069 0.0
C1059 C 0.80919 0.75005 0.59895 0.0
C1060 C 0.83605 0.80028 0.48729 0.0
H1061 H 0.81329 0.83433 0.44935 0.0
C1062 C 0.8439 0.79851 0.42359 0.0
C1063 C 0.82645 0.8146 0.49758 0.0
C1064 C 0.81925 0.81829 0.56585 0.0
C1065 C 0.84003 0.80884 0.3685 0.0
C1066 C 0.82787 0.82101 0.37758 0.0
C1067 C 0.82237 0.82475 0.44237 0.0
C1068 C 0.81686 0.82639 0.32055 0.0
C1069 C 0.8477 0.80555 0.30044 0.0
C1070 C 0.82219 0.84854 0.3095 0.0
C1071 C 0.8087 0.85274 0.26209 0.0
C1072 C 0.78929 0.83479 0.22671 0.0
C1073 C 0.78492 0.81283 0.2355 0.0
C1074 C 0.79852 0.80866 0.28208 0.0
H1075 H 0.8635 0.80299 0.30442 0.0
H1076 H 0.83255 0.79029 0.27585 0.0
H1077 H 0.85242 0.82019 0.2682 0.0
H1078 H 0.83632 0.86243 0.33871 0.0
H1079 H 0.8131 0.86991 0.25423 0.0
H1080 H 0.16616 0.06314 0.77959 0.0
H1081 H 0.13915 0.03244 0.70188 0.0
H1082 H 0.18124 0.00019 0.73615 0.0
H1083 H 0.20841 0.03094 0.81173 0.0
H1084 H 0.15502 0.02329 0.58602 0.0
H1085 H 0.1129 0.9469 0.73681 0.0
H1086 H 0.12597 0.97482 0.77389 0.0
H1087 H 0.14473 0.9628 0.75606 0.0
C1088 C 0.16957 0.04947 0.77037 0.0
C1089 C 0.18976 0.04968 0.80002 0.0
C1090 C 0.15395 0.03181 0.72685 0.0
C1091 C 0.15803 0.01391 0.7138 0.0
C1092 C 0.17735 0.01352 0.74666 0.0
H1093 H 0.18225 0.95272 0.4128 0.0
H1094 H 0.17529 0.9778 0.48368 0.0
C1095 C 0.19297 0.03116 0.78958 0.0
C1096 C 0.1448 -0.00266 0.65907 0.0
H1097 H 0.12307 0.9419 0.62161 0.0
C1098 C 0.14721 0.00537 0.59379 0.0
C1099 C 0.13403 0.97393 0.66901 0.0
C1100 C 0.12902 0.96413 0.73792 0.0
C1101 C 0.14202 0.99092 0.53831 0.0
C1102 C 0.13464 0.96806 0.54877 0.0
C1103 C 0.12922 0.95954 0.61359 0.0
C1104 C 0.13714 0.95407 0.49645 0.0
C1105 C 0.14603 0.00055 0.46924 0.0
C1106 C 0.11799 0.93241 0.47966 0.0
C1107 C 0.12201 0.91801 0.43887 0.0
C1108 C 0.14536 0.92491 0.41581 0.0
C1109 C 0.16411 0.94699 0.42993 0.0
C1110 C 0.16009 0.96137 0.47012 0.0
H1111 H 0.14206 0.01452 0.46726 0.0
H1112 H 0.16532 0.00759 0.45647 0.0
H1113 H 0.13455 0.9875 0.43105 0.0
H1114 H 0.10016 0.92646 0.4996 0.0
H1115 H 0.10703 0.90139 0.42658 0.0
H1116 H 0.87785 0.19883 0.68864 0.0
H1117 H 0.91927 0.20946 0.66203 0.0
H1118 H 0.90122 0.14015 0.6757 0.0
H1119 H 0.85944 0.12921 0.70158 0.0
H1120 H 0.95585 0.20383 0.72419 0.0
H1121 H 0.92252 0.15622 0.4817 0.0
H1122 H 0.90334 0.16187 0.53377 0.0
H1123 H 0.91058 0.14075 0.55697 0.0
C1124 C 0.88273 0.18587 0.68732 0.0
C1125 C 0.8653 0.16315 0.69647 0.0
C1126 C 0.90643 0.19198 0.67214 0.0
C1127 C 0.91313 0.17552 0.66586 0.0
C1128 C 0.89624 0.15302 0.67924 0.0
H1129 H 0.04999 0.21411 0.46148 0.0
H1130 H 0.01405 0.19049 0.5285 0.0
C1131 C 0.87243 0.14685 0.69423 0.0
C1132 C 0.93715 0.18203 0.63936 0.0
H1133 H 0.96428 0.18042 0.49551 0.0
C1134 C 0.95779 0.19836 0.67481 0.0
C1135 C 0.93956 0.17474 0.57499 0.0
C1136 C 0.91788 0.15753 0.5342 0.0
C1137 C 0.98062 0.20864 0.64581 0.0
C1138 C 0.98268 0.20253 0.57971 0.0
C1139 C 0.96246 0.185 0.54621 0.0
C1140 C 0.0046 0.2164 0.54117 0.0
C1141 C 0.00217 0.22673 0.68477 0.0
C1142 C 0.01059 0.23839 0.52514 0.0
C1143 C 0.03073 0.25162 0.48682 0.0
C1144 C 0.0452 0.24307 0.46425 0.0
C1145 C 0.03908 0.22096 0.47934 0.0
C1146 C 0.01871 0.20758 0.51736 0.0
H1147 H -0.00071 0.22491 0.73949 0.0
H1148 H 0.01887 0.22631 0.67317 0.0
H1149 H 0.00501 0.24347 0.67086 0.0
H1150 H -0.00042 0.24528 0.54202 0.0
H1151 H 0.03531 0.26868 0.47559 0.0
H1152 H 0.20685 0.14368 0.77347 0.0
H1153 H 0.18642 0.15879 0.70518 0.0
H1154 H 0.24079 0.22632 0.7653 0.0
H1155 H 0.26143 0.21148 0.8334 0.0
H1156 H 0.1886 0.21543 0.75433 0.0
H1157 H 0.22461 0.19358 0.5315 0.0
H1158 H 0.20822 0.17192 0.59118 0.0
H1159 H 0.23706 0.19571 0.61465 0.0
C1160 C 0.21407 0.16171 0.77378 0.0
C1161 C 0.23591 0.17643 0.80822 0.0
C1162 C 0.20245 0.17029 0.73443 0.0
C1163 C 0.21239 0.19362 0.72962 0.0
C1164 C 0.23297 0.20824 0.76832 0.0
H1165 H 0.2148 0.29079 0.46857 0.0
H1166 H 0.22276 0.26507 0.53315 0.0
C1167 C 0.24471 0.19973 0.80721 0.0
C1168 C 0.20301 0.20305 0.67944 0.0
H1169 H 0.2044 0.21372 0.51274 0.0
C1170 C 0.19167 0.21479 0.7014 0.0
C1171 C 0.20741 0.20234 0.61064 0.0
C1172 C 0.2201 0.19034 0.58513 0.0
C1173 C 0.18493 0.22622 0.65616 0.0
C1174 C 0.18973 0.22584 0.58757 0.0
C1175 C 0.20066 0.21378 0.56541 0.0
C1176 C 0.18504 0.23933 0.5393 0.0
C1177 C 0.17354 0.23936 0.68205 0.0
C1178 C 0.16129 0.23278 0.51916 0.0
C1179 C 0.15667 0.24731 0.48188 0.0
C1180 C 0.17577 0.2687 0.46473 0.0
C1181 C 0.19971 0.27449 0.48111 0.0
C1182 C 0.20429 0.25986 0.51806 0.0
H1183 H 0.17324 0.23976 0.73753 0.0
H1184 H 0.18357 0.25693 0.66419 0.0
H1185 H 0.15463 0.23156 0.66239 0.0
H1186 H 0.14627 0.21688 0.53488 0.0
H1187 H 0.13802 0.2423 0.46999 0.0
H1188 H 0.71054 0.92432 0.19847 0.0
H1189 H 0.72901 0.95778 0.27059 0.0
H1190 H 0.7894 0.948 0.31291 0.0
H1191 H 0.7708 0.91412 0.24131 0.0
H1192 H 0.76665 0.94893 0.42502 0.0
H1193 H 0.78465 0.02181 0.27158 0.0
H1194 H 0.75456 -0.00124 0.25563 0.0
H1195 H 0.78018 0.99578 0.23528 0.0
C1196 C 0.72815 0.92967 0.22125 0.0
C1197 C 0.73908 0.91643 0.2147 0.0
C1198 C 0.73878 0.94893 0.26224 0.0
C1199 C 0.76065 0.95546 0.29689 0.0
C1200 C 0.77256 0.94328 0.28637 0.0
H1201 H 0.80944 0.05316 0.63548 0.0
H1202 H 0.81061 0.02802 0.54899 0.0
C1203 C 0.76194 0.92398 0.2452 0.0
C1204 C 0.76866 0.97254 0.35159 0.0
H1205 H 0.7764 0.02431 0.38894 0.0
C1206 C 0.76947 0.96566 0.41704 0.0
C1207 C 0.7723 0.99432 0.34111 0.0
C1208 C 0.77313 0.00317 0.27195 0.0
C1209 C 0.77212 0.97944 0.47245 0.0
C1210 C 0.77402 0.0005 0.46187 0.0
C1211 C 0.77467 0.00797 0.39658 0.0
C1212 C 0.77316 0.01417 0.51771 0.0
C1213 C 0.77146 0.97096 0.54205 0.0
C1214 C 0.75159 0.01418 0.52923 0.0
C1215 C 0.75092 0.0284 0.57825 0.0
C1216 C 0.77189 0.04298 0.61582 0.0
C1217 C 0.7932 0.04225 0.60624 0.0
C1218 C 0.79386 0.02793 0.55726 0.0
H1219 H 0.76957 0.95398 0.54179 0.0
H1220 H 0.78834 0.98287 0.57009 0.0
H1221 H 0.75606 0.9702 0.56922 0.0
H1222 H 0.73545 0.00358 0.49908 0.0
H1223 H 0.73438 0.02883 0.58467 0.0
H1224 H 0.91338 0.66795 0.63088 0.0
H1225 H 0.95364 0.69071 0.58485 0.0
H1226 H 0.94624 0.74962 0.59688 0.0
H1227 H 0.90585 0.72699 0.64238 0.0
H1228 H 0.95833 0.74121 0.46997 0.0
H1229 H 0.01871 0.73871 0.66784 0.0
H1230 H 0.99383 0.71158 0.64292 0.0
H1231 H 0.98797 0.73176 0.68332 0.0
C1232 C 0.9205 0.68584 0.6251 0.0
C1233 C 0.90636 0.69564 0.63992 0.0
C1234 C 0.94354 0.69883 0.59896 0.0
C1235 C 0.9529 0.72184 0.58778 0.0
C1236 C 0.93928 0.73187 0.60522 0.0
H1237 H 0.08159 0.8257 0.40146 0.0
H1238 H 0.04128 0.80322 0.44747 0.0
C1239 C 0.91625 0.71892 0.63136 0.0
C1240 C 0.97596 0.73499 0.55277 0.0
H1241 H 0.03626 0.75275 0.56261 0.0
C1242 C 0.97543 0.74388 0.49033 0.0
C1243 C -0.00188 0.73827 0.57942 0.0
C1244 C -0.00016 0.72976 0.64733 0.0
C1245 C -0.00351 0.75571 0.45318 0.0
C1246 C 0.01863 0.75894 0.47977 0.0
C1247 C 0.01917 0.75009 0.54226 0.0
C1248 C 0.04167 0.77193 0.44455 0.0
C1249 C 0.99479 0.76425 0.38532 0.0
C1250 C 0.0551 0.7617 0.42711 0.0
C1251 C 0.07817 0.7745 0.40101 0.0
C1252 C 0.08826 0.79779 0.39241 0.0
C1253 C 0.0743 0.80778 0.40718 0.0
C1254 C 0.05123 0.79496 0.43334 0.0
H1255 H 0.9759 0.75544 0.36497 0.0
H1256 H 0.001 0.78248 0.38969 0.0
H1257 H 0.00652 0.7621 0.3492 0.0
H1258 H 0.04799 0.74393 0.4355 0.0
H1259 H 0.08845 0.76629 0.39009 0.0
loop_
_geom_bond_atom_site_label_1
_geom_bond_atom_site_label_2
_geom_bond_distance
_geom_bond_site_symmetry_2
_ccdc_geom_bond_type
Zn0 O1 2.055 1_455 S
Zn0 O8 2.046 1_455 S
Zn0 N16 2.036 . S
Zn0 O28 2.053 . S
Zn0 O30 2.066 . S
O1 Zn0 2.055 1_655 S
O1 C4 1.259 . S
C2 O30 1.256 . S
C2 O31 1.244 . S
Zn3 O5 2.046 . S
Zn3 O7 2.055 . S
Zn3 N9 2.036 . S
Zn3 O27 2.066 . S
Zn3 O31 2.053 1_556 S
C4 O1 1.259 . S
C4 O5 1.254 1_654 S
O5 Zn3 2.046 . S
O5 C4 1.254 1_456 S
C6 O27 1.256 1_554 S
C6 O28 1.244 . S
O7 Zn3 2.055 . S
O7 C29 1.259 1_456 S
O8 Zn0 2.046 1_655 S
O8 C29 1.254 . S
N9 Zn3 2.036 . S
N9 C10 1.298 . S
N9 N12 1.398 . S
C10 N9 1.298 . S
C10 N13 1.367 . S
C10 C23 1.481 . S
C11 N12 1.299 . S
C11 N13 1.379 . S
N12 N9 1.398 . S
N12 C11 1.299 . S
N13 C10 1.367 . S
N13 C11 1.379 . S
C14 N16 1.298 . S
C14 N18 1.367 . S
C14 C22 1.481 1_455 S
C15 N17 1.299 . S
C15 N18 1.379 . S
N16 Zn0 2.036 . S
N16 C14 1.298 . S
N16 N17 1.398 . S
N17 C15 1.299 . S
N17 N16 1.398 . S
N18 C14 1.367 . S
N18 C15 1.379 . S
H19 C22 0.980 . S
H20 C22 0.981 . S
H21 C22 0.981 1_455 S
C22 C14 1.481 1_655 S
C22 H19 0.980 . S
C22 H20 0.981 . S
C22 H21 0.981 1_655 S
C23 C10 1.481 . S
C23 H24 0.980 . S
C23 H25 0.981 . S
C23 H26 0.981 . S
H24 C23 0.980 . S
H25 C23 0.981 . S
H26 C23 0.981 . S
O27 Zn3 2.066 . S
O27 C6 1.256 1_556 S
O28 Zn0 2.053 . S
O28 C6 1.244 . S
C29 O7 1.259 1_654 S
C29 O8 1.254 . S
O30 Zn0 2.066 . S
O30 C2 1.256 . S
O31 C2 1.244 . S
O31 Zn3 2.053 1_554 S
Zn32 O33 2.055 . S
Zn32 O40 2.046 . S
Zn32 N48 2.036 . S
Zn32 O60 2.053 . S
Zn32 O62 2.066 . S
O33 Zn32 2.055 . S
O33 C36 1.259 . S
C34 O62 1.256 . S
C34 O63 1.244 1_554 S
Zn35 O37 2.046 . S
Zn35 O39 2.055 . S
Zn35 N41 2.036 . S
Zn35 O59 2.066 . S
Zn35 O63 2.053 . S
C36 O33 1.259 . S
C36 O37 1.254 1_554 S
O37 Zn35 2.046 . S
O37 C36 1.254 1_556 S
C38 O59 1.256 . S
C38 O60 1.244 1_556 S
O39 Zn35 2.055 . S
O39 C61 1.259 1_556 S
O40 Zn32 2.046 . S
O40 C61 1.254 . S
N41 Zn35 2.036 . S
N41 C42 1.298 . S
N41 N44 1.398 . S
C42 N41 1.298 . S
C42 N45 1.367 . S
C42 C55 1.481 . S
C43 N44 1.299 . S
C43 N45 1.379 . S
N44 N41 1.398 . S
N44 C43 1.299 . S
N45 C42 1.367 . S
N45 C43 1.379 . S
C46 N48 1.298 . S
C46 N50 1.367 . S
C46 C54 1.481 . S
C47 N49 1.299 . S
C47 N50 1.379 . S
N48 Zn32 2.036 . S
N48 C46 1.298 . S
N48 N49 1.398 . S
N49 C47 1.299 . S
N49 N48 1.398 . S
N50 C46 1.367 . S
N50 C47 1.379 . S
H51 C54 0.980 . S
H52 C54 0.981 . S
H53 C54 0.981 . S
C54 C46 1.481 . S
C54 H51 0.980 . S
C54 H52 0.981 . S
C54 H53 0.981 . S
C55 C42 1.481 . S
C55 H56 0.980 . S
C55 H57 0.981 . S
C55 H58 0.981 . S
H56 C55 0.980 . S
H57 C55 0.981 . S
H58 C55 0.981 . S
O59 Zn35 2.066 . S
O59 C38 1.256 . S
O60 Zn32 2.053 . S
O60 C38 1.244 1_554 S
C61 O39 1.259 1_554 S
C61 O40 1.254 . S
O62 Zn32 2.066 . S
O62 C34 1.256 . S
O63 C34 1.244 1_556 S
O63 Zn35 2.053 . S
Zn64 O65 2.055 . S
Zn64 O72 2.046 . S
Zn64 N80 2.036 . S
Zn64 O92 2.053 1_545 S
Zn64 O94 2.066 1_545 S
O65 Zn64 2.055 . S
O65 C68 1.259 1_554 S
C66 O94 1.256 . S
C66 O95 1.244 1_554 S
Zn67 O69 2.046 . S
Zn67 O71 2.055 . S
Zn67 N73 2.036 1_545 S
Zn67 O91 2.066 1_545 S
Zn67 O95 2.053 1_545 S
C68 O65 1.259 1_556 S
C68 O69 1.254 . S
O69 Zn67 2.046 . S
O69 C68 1.254 . S
C70 O91 1.256 1_554 S
C70 O92 1.244 . S
O71 Zn67 2.055 . S
O71 C93 1.259 . S
O72 Zn64 2.046 . S
O72 C93 1.254 1_554 S
N73 Zn67 2.036 1_565 S
N73 C74 1.298 . S
N73 N76 1.398 . S
C74 N73 1.298 . S
C74 N77 1.367 . S
C74 C87 1.481 1_565 S
C75 N76 1.299 . S
C75 N77 1.379 . S
N76 N73 1.398 . S
N76 C75 1.299 . S
N77 C74 1.367 . S
N77 C75 1.379 . S
C78 N80 1.298 . S
C78 N82 1.367 . S
C78 C86 1.481 . S
C79 N81 1.299 . S
C79 N82 1.379 . S
N80 Zn64 2.036 . S
N80 C78 1.298 . S
N80 N81 1.398 . S
N81 C79 1.299 . S
N81 N80 1.398 . S
N82 C78 1.367 . S
N82 C79 1.379 . S
H83 C86 0.980 . S
H84 C86 0.981 . S
H85 C86 0.981 . S
C86 C78 1.481 . S
C86 H83 0.980 . S
C86 H84 0.981 . S
C86 H85 0.981 . S
C87 C74 1.481 1_545 S
C87 H88 0.980 . S
C87 H89 0.981 . S
C87 H90 0.981 1_545 S
H88 C87 0.980 . S
H89 C87 0.981 . S
H90 C87 0.981 1_565 S
O91 Zn67 2.066 1_565 S
O91 C70 1.256 1_556 S
O92 Zn64 2.053 1_565 S
O92 C70 1.244 . S
C93 O71 1.259 . S
C93 O72 1.254 1_556 S
O94 Zn64 2.066 1_565 S
O94 C66 1.256 . S
O95 C66 1.244 1_556 S
O95 Zn67 2.053 1_565 S
Zn96 O97 2.055 . S
Zn96 O104 2.046 . S
Zn96 N112 2.036 . S
Zn96 O124 2.053 . S
Zn96 O126 2.066 . S
O97 Zn96 2.055 . S
O97 C100 1.259 . S
C98 O126 1.256 . S
C98 O127 1.244 . S
Zn99 O101 2.046 . S
Zn99 O103 2.055 . S
Zn99 N105 2.036 . S
Zn99 O123 2.066 . S
Zn99 O127 2.053 . S
C100 O97 1.259 . S
C100 O101 1.254 . S
O101 Zn99 2.046 . S
O101 C100 1.254 . S
C102 O123 1.256 . S
C102 O124 1.244 . S
O103 Zn99 2.055 . S
O103 C125 1.259 . S
O104 Zn96 2.046 . S
O104 C125 1.254 . S
N105 Zn99 2.036 . S
N105 C106 1.298 . S
N105 N108 1.398 . S
C106 N105 1.298 . S
C106 N109 1.367 . S
C106 C119 1.481 . S
C107 N108 1.299 . S
C107 N109 1.379 . S
N108 N105 1.398 . S
N108 C107 1.299 . S
N109 C106 1.367 . S
N109 C107 1.379 . S
C110 N112 1.298 . S
C110 N114 1.367 . S
C110 C118 1.481 . S
C111 N113 1.299 . S
C111 N114 1.379 . S
N112 Zn96 2.036 . S
N112 C110 1.298 . S
N112 N113 1.398 . S
N113 C111 1.299 . S
N113 N112 1.398 . S
N114 C110 1.367 . S
N114 C111 1.379 . S
H115 C118 0.980 . S
H116 C118 0.981 . S
H117 C118 0.981 . S
C118 C110 1.481 . S
C118 H115 0.980 . S
C118 H116 0.981 . S
C118 H117 0.981 . S
C119 C106 1.481 . S
C119 H120 0.980 . S
C119 H121 0.981 . S
C119 H122 0.981 . S
H120 C119 0.980 . S
H121 C119 0.981 . S
H122 C119 0.981 . S
O123 Zn99 2.066 . S
O123 C102 1.256 . S
O124 Zn96 2.053 . S
O124 C102 1.244 . S
C125 O103 1.259 . S
C125 O104 1.254 . S
O126 Zn96 2.066 . S
O126 C98 1.256 . S
O127 C98 1.244 . S
O127 Zn99 2.053 . S
Zn128 O129 2.055 . S
Zn128 O136 2.046 . S
Zn128 N144 2.036 . S
Zn128 O156 2.053 . S
Zn128 O158 2.066 . S
O129 Zn128 2.055 . S
O129 C132 1.259 . S
C130 O158 1.256 . S
C130 O159 1.244 . S
Zn131 O133 2.046 . S
Zn131 O135 2.055 . S
Zn131 N137 2.036 . S
Zn131 O155 2.066 . S
Zn131 O159 2.053 . S
C132 O129 1.259 . S
C132 O133 1.254 . S
O133 Zn131 2.046 . S
O133 C132 1.254 . S
C134 O155 1.256 . S
C134 O156 1.244 . S
O135 Zn131 2.055 . S
O135 C157 1.259 . S
O136 Zn128 2.046 . S
O136 C157 1.254 . S
N137 Zn131 2.036 . S
N137 C138 1.298 . S
N137 N140 1.398 . S
C138 N137 1.298 . S
C138 N141 1.367 . S
C138 C151 1.481 . S
C139 N140 1.299 . S
C139 N141 1.379 . S
N140 N137 1.398 . S
N140 C139 1.299 . S
N141 C138 1.367 . S
N141 C139 1.379 . S
C142 N144 1.298 . S
C142 N146 1.367 . S
C142 C150 1.481 . S
C143 N145 1.299 . S
C143 N146 1.379 . S
N144 Zn128 2.036 . S
N144 C142 1.298 . S
N144 N145 1.398 . S
N145 C143 1.299 . S
N145 N144 1.398 . S
N146 C142 1.367 . S
N146 C143 1.379 . S
H147 C150 0.980 . S
H148 C150 0.981 . S
H149 C150 0.981 . S
C150 C142 1.481 . S
C150 H147 0.980 . S
C150 H148 0.981 . S
C150 H149 0.981 . S
C151 C138 1.481 . S
C151 H152 0.980 . S
C151 H153 0.981 . S
C151 H154 0.981 . S
H152 C151 0.980 . S
H153 C151 0.981 . S
H154 C151 0.981 . S
O155 Zn131 2.066 . S
O155 C134 1.256 . S
O156 Zn128 2.053 . S
O156 C134 1.244 . S
C157 O135 1.259 . S
C157 O136 1.254 . S
O158 Zn128 2.066 . S
O158 C130 1.256 . S
O159 C130 1.244 . S
O159 Zn131 2.053 . S
Zn160 O161 2.055 . S
Zn160 O168 2.046 . S
Zn160 N176 2.036 . S
Zn160 O188 2.053 . S
Zn160 O190 2.066 . S
O161 Zn160 2.055 . S
O161 C164 1.259 . S
C162 O190 1.256 . S
C162 O191 1.244 . S
Zn163 O165 2.046 . S
Zn163 O167 2.055 . S
Zn163 N169 2.036 . S
Zn163 O187 2.066 . S
Zn163 O191 2.053 . S
C164 O161 1.259 . S
C164 O165 1.254 . S
O165 Zn163 2.046 . S
O165 C164 1.254 . S
C166 O187 1.256 . S
C166 O188 1.244 . S
O167 Zn163 2.055 . S
O167 C189 1.259 . S
O168 Zn160 2.046 . S
O168 C189 1.254 . S
N169 Zn163 2.036 . S
N169 C170 1.298 . S
N169 N172 1.398 . S
C170 N169 1.298 . S
C170 N173 1.367 . S
C170 C183 1.481 . S
C171 N172 1.299 . S
C171 N173 1.379 . S
N172 N169 1.398 . S
N172 C171 1.299 . S
N173 C170 1.367 . S
N173 C171 1.379 . S
C174 N176 1.298 . S
C174 N178 1.367 . S
C174 C182 1.481 . S
C175 N177 1.299 . S
C175 N178 1.379 . S
N176 Zn160 2.036 . S
N176 C174 1.298 . S
N176 N177 1.398 . S
N177 C175 1.299 . S
N177 N176 1.398 . S
N178 C174 1.367 . S
N178 C175 1.379 . S
H179 C182 0.980 . S
H180 C182 0.981 . S
H181 C182 0.981 . S
C182 C174 1.481 . S
C182 H179 0.980 . S
C182 H180 0.981 . S
C182 H181 0.981 . S
C183 C170 1.481 . S
C183 H184 0.980 . S
C183 H185 0.981 . S
C183 H186 0.981 . S
H184 C183 0.980 . S
H185 C183 0.981 . S
H186 C183 0.981 . S
O187 Zn163 2.066 . S
O187 C166 1.256 . S
O188 Zn160 2.053 . S
O188 C166 1.244 . S
C189 O167 1.259 . S
C189 O168 1.254 . S
O190 Zn160 2.066 . S
O190 C162 1.256 . S
O191 C162 1.244 . S
O191 Zn163 2.053 . S
Zn192 O193 2.055 . S
Zn192 O200 2.046 . S
Zn192 N208 2.036 . S
Zn192 O220 2.053 . S
Zn192 O222 2.066 . S
O193 Zn192 2.055 . S
O193 C196 1.259 . S
C194 O222 1.256 . S
C194 O223 1.244 . S
Zn195 O197 2.046 . S
Zn195 O199 2.055 . S
Zn195 N201 2.036 . S
Zn195 O219 2.066 . S
Zn195 O223 2.053 . S
C196 O193 1.259 . S
C196 O197 1.254 . S
O197 Zn195 2.046 . S
O197 C196 1.254 . S
C198 O219 1.256 . S
C198 O220 1.244 . S
O199 Zn195 2.055 . S
O199 C221 1.259 . S
O200 Zn192 2.046 . S
O200 C221 1.254 . S
N201 Zn195 2.036 . S
N201 C202 1.298 . S
N201 N204 1.398 . S
C202 N201 1.298 . S
C202 N205 1.367 . S
C202 C215 1.481 . S
C203 N204 1.299 . S
C203 N205 1.379 . S
N204 N201 1.398 . S
N204 C203 1.299 . S
N205 C202 1.367 . S
N205 C203 1.379 . S
C206 N208 1.298 . S
C206 N210 1.367 . S
C206 C214 1.481 . S
C207 N209 1.299 . S
C207 N210 1.379 . S
N208 Zn192 2.036 . S
N208 C206 1.298 . S
N208 N209 1.398 . S
N209 C207 1.299 . S
N209 N208 1.398 . S
N210 C206 1.367 . S
N210 C207 1.379 . S
H211 C214 0.980 . S
H212 C214 0.981 . S
H213 C214 0.981 . S
C214 C206 1.481 . S
C214 H211 0.980 . S
C214 H212 0.981 . S
C214 H213 0.981 . S
C215 C202 1.481 . S
C215 H216 0.980 . S
C215 H217 0.981 . S
C215 H218 0.981 . S
H216 C215 0.980 . S
H217 C215 0.981 . S
H218 C215 0.981 . S
O219 Zn195 2.066 . S
O219 C198 1.256 . S
O220 Zn192 2.053 . S
O220 C198 1.244 . S
C221 O199 1.259 . S
C221 O200 1.254 . S
O222 Zn192 2.066 . S
O222 C194 1.256 . S
O223 C194 1.244 . S
O223 Zn195 2.053 . S
Zn224 O225 2.055 . S
Zn224 O232 2.046 . S
Zn224 N240 2.036 . S
Zn224 O252 2.053 . S
Zn224 O254 2.066 . S
O225 Zn224 2.055 . S
O225 C228 1.259 . S
C226 O254 1.256 . S
C226 O255 1.244 . S
Zn227 O229 2.046 . S
Zn227 O231 2.055 . S
Zn227 N233 2.036 . S
Zn227 O251 2.066 . S
Zn227 O255 2.053 . S
C228 O225 1.259 . S
C228 O229 1.254 . S
O229 Zn227 2.046 . S
O229 C228 1.254 . S
C230 O251 1.256 . S
C230 O252 1.244 . S
O231 Zn227 2.055 . S
O231 C253 1.259 . S
O232 Zn224 2.046 . S
O232 C253 1.254 . S
N233 Zn227 2.036 . S
N233 C234 1.298 . S
N233 N236 1.398 . S
C234 N233 1.298 . S
C234 N237 1.367 . S
C234 C247 1.481 . S
C235 N236 1.299 . S
C235 N237 1.379 . S
N236 N233 1.398 . S
N236 C235 1.299 . S
N237 C234 1.367 . S
N237 C235 1.379 . S
C238 N240 1.298 . S
C238 N242 1.367 . S
C238 C246 1.481 . S
C239 N241 1.299 . S
C239 N242 1.379 . S
N240 Zn224 2.036 . S
N240 C238 1.298 . S
N240 N241 1.398 . S
N241 C239 1.299 . S
N241 N240 1.398 . S
N242 C238 1.367 . S
N242 C239 1.379 . S
H243 C246 0.980 . S
H244 C246 0.981 . S
H245 C246 0.981 . S
C246 C238 1.481 . S
C246 H243 0.980 . S
C246 H244 0.981 . S
C246 H245 0.981 . S
C247 C234 1.481 . S
C247 H248 0.980 . S
C247 H249 0.981 . S
C247 H250 0.981 . S
H248 C247 0.980 . S
H249 C247 0.981 . S
H250 C247 0.981 . S
O251 Zn227 2.066 . S
O251 C230 1.256 . S
O252 Zn224 2.053 . S
O252 C230 1.244 . S
C253 O231 1.259 . S
C253 O232 1.254 . S
O254 Zn224 2.066 . S
O254 C226 1.256 . S
O255 C226 1.244 . S
O255 Zn227 2.053 . S
Zn256 O257 2.055 . S
Zn256 O264 2.046 . S
Zn256 N272 2.036 . S
Zn256 O284 2.053 . S
Zn256 O286 2.066 . S
O257 Zn256 2.055 . S
O257 C260 1.259 . S
C258 O286 1.256 . S
C258 O287 1.244 . S
Zn259 O261 2.046 . S
Zn259 O263 2.055 . S
Zn259 N265 2.036 . S
Zn259 O283 2.066 . S
Zn259 O287 2.053 . S
C260 O257 1.259 . S
C260 O261 1.254 . S
O261 Zn259 2.046 . S
O261 C260 1.254 . S
C262 O283 1.256 . S
C262 O284 1.244 . S
O263 Zn259 2.055 . S
O263 C285 1.259 . S
O264 Zn256 2.046 . S
O264 C285 1.254 . S
N265 Zn259 2.036 . S
N265 C266 1.298 . S
N265 N268 1.398 . S
C266 N265 1.298 . S
C266 N269 1.367 . S
C266 C279 1.481 . S
C267 N268 1.299 . S
C267 N269 1.379 . S
N268 N265 1.398 . S
N268 C267 1.299 . S
N269 C266 1.367 . S
N269 C267 1.379 . S
C270 N272 1.298 . S
C270 N274 1.367 . S
C270 C278 1.481 . S
C271 N273 1.299 . S
C271 N274 1.379 . S
N272 Zn256 2.036 . S
N272 C270 1.298 . S
N272 N273 1.398 . S
N273 C271 1.299 . S
N273 N272 1.398 . S
N274 C270 1.367 . S
N274 C271 1.379 . S
H275 C278 0.980 . S
H276 C278 0.981 . S
H277 C278 0.981 . S
C278 C270 1.481 . S
C278 H275 0.980 . S
C278 H276 0.981 . S
C278 H277 0.981 . S
C279 C266 1.481 . S
C279 H280 0.980 . S
C279 H281 0.981 . S
C279 H282 0.981 . S
H280 C279 0.980 . S
H281 C279 0.981 . S
H282 C279 0.981 . S
O283 Zn259 2.066 . S
O283 C262 1.256 . S
O284 Zn256 2.053 . S
O284 C262 1.244 . S
C285 O263 1.259 . S
C285 O264 1.254 . S
O286 Zn256 2.066 . S
O286 C258 1.256 . S
O287 C258 1.244 . S
O287 Zn259 2.053 . S
H288 C296 0.929 . S
H289 C298 0.930 . S
H290 C300 0.930 . S
H291 C303 0.929 . S
H292 C306 0.930 . S
H293 C308 0.960 . S
H294 C308 0.960 . S
H295 C308 0.960 . S
C296 H288 0.929 . S
C296 C297 1.377 . S
C296 C298 1.384 . S
C297 C296 1.377 . S
C297 C303 1.390 . S
C298 H289 0.930 . S
C298 C296 1.384 . S
C298 C299 1.372 . S
C299 C298 1.372 . S
C299 C300 1.400 . S
C299 C304 1.490 . S
C300 H290 0.930 . S
C300 C299 1.400 . S
C300 C303 1.386 . S
H301 C317 0.930 . S
H302 C318 0.927 1_655 S
C303 H291 0.929 . S
C303 C297 1.390 . S
C303 C300 1.386 . S
C304 C299 1.490 . S
C304 C306 1.395 . S
C304 C307 1.403 . S
H305 C311 0.930 . S
C306 H292 0.930 . S
C306 C304 1.395 . S
C306 C309 1.403 . S
C307 C304 1.403 . S
C307 C308 1.524 . S
C307 C311 1.400 . S
C308 H293 0.960 . S
C308 H294 0.960 . S
C308 H295 0.960 . S
C308 C307 1.524 . S
C309 C306 1.403 . S
C309 C310 1.392 . S
C309 C313 1.495 . S
C310 C309 1.392 . S
C310 C311 1.385 . S
C310 C312 1.478 . S
C311 H305 0.930 . S
C311 C307 1.400 . S
C311 C310 1.385 . S
C312 C310 1.478 . S
C312 C314 1.381 . S
C312 C318 1.388 . S
C313 C309 1.495 . S
C313 H319 0.959 . S
C313 H320 0.961 1_455 S
C313 H321 0.960 . S
C314 C312 1.381 . S
C314 C315 1.394 . S
C314 H322 0.930 . S
C315 C314 1.394 . S
C315 C316 1.383 . S
C315 H323 0.929 . S
C316 C315 1.383 . S
C316 C317 1.377 1_455 S
C317 H301 0.930 . S
C317 C316 1.377 1_655 S
C317 C318 1.378 1_655 S
C318 H302 0.927 1_455 S
C318 C312 1.388 . S
C318 C317 1.378 1_455 S
H319 C313 0.959 . S
H320 C313 0.961 1_655 S
H321 C313 0.960 . S
H322 C314 0.930 . S
H323 C315 0.929 . S
H324 C332 0.929 . S
H325 C334 0.930 . S
H326 C336 0.930 . S
H327 C339 0.929 . S
H328 C342 0.930 . S
H329 C344 0.960 . S
H330 C344 0.960 . S
H331 C344 0.960 . S
C332 H324 0.929 . S
C332 C333 1.377 . S
C332 C334 1.384 . S
C333 C332 1.377 . S
C333 C339 1.390 . S
C334 H325 0.930 . S
C334 C332 1.384 . S
C334 C335 1.372 . S
C335 C334 1.372 . S
C335 C336 1.400 . S
C335 C340 1.490 . S
C336 H326 0.930 . S
C336 C335 1.400 . S
C336 C339 1.386 . S
H337 C353 0.930 . S
H338 C354 0.931 . S
C339 H327 0.929 . S
C339 C333 1.390 . S
C339 C336 1.386 . S
C340 C335 1.490 . S
C340 C342 1.395 . S
C340 C343 1.403 . S
H341 C347 0.930 . S
C342 H328 0.930 . S
C342 C340 1.395 . S
C342 C345 1.403 . S
C343 C340 1.403 . S
C343 C344 1.524 . S
C343 C347 1.400 . S
C344 H329 0.960 . S
C344 H330 0.960 . S
C344 H331 0.960 . S
C344 C343 1.524 . S
C345 C342 1.403 . S
C345 C346 1.392 . S
C345 C349 1.495 . S
C346 C345 1.392 . S
C346 C347 1.385 . S
C346 C348 1.478 . S
C347 H341 0.930 . S
C347 C343 1.400 . S
C347 C346 1.385 . S
C348 C346 1.478 . S
C348 C350 1.381 . S
C348 C354 1.383 . S
C349 C345 1.495 . S
C349 H355 0.959 . S
C349 H356 0.961 . S
C349 H357 0.960 . S
C350 C348 1.381 . S
C350 C351 1.394 . S
C350 H358 0.930 . S
C351 C350 1.394 . S
C351 C352 1.383 . S
C351 H359 0.929 . S
C352 C351 1.383 . S
C352 C353 1.377 . S
C353 H337 0.930 . S
C353 C352 1.377 . S
C353 C354 1.379 . S
C354 H338 0.931 . S
C354 C348 1.383 . S
C354 C353 1.379 . S
H355 C349 0.959 . S
H356 C349 0.961 . S
H357 C349 0.960 . S
H358 C350 0.930 . S
H359 C351 0.929 . S
H360 C368 0.929 . S
H361 C370 0.930 . S
H362 C372 0.930 . S
H363 C375 0.929 . S
H364 C378 0.930 . S
H365 C380 0.960 . S
H366 C380 0.960 . S
H367 C380 0.960 . S
C368 H360 0.929 . S
C368 C369 1.377 . S
C368 C370 1.384 . S
C369 C368 1.377 . S
C369 C375 1.390 . S
C370 H361 0.930 . S
C370 C368 1.384 . S
C370 C371 1.372 . S
C371 C370 1.372 . S
C371 C372 1.400 . S
C371 C376 1.490 . S
C372 H362 0.930 . S
C372 C371 1.400 . S
C372 C375 1.386 . S
H373 C389 0.930 . S
H374 C390 0.931 . S
C375 H363 0.929 . S
C375 C369 1.390 . S
C375 C372 1.386 . S
C376 C371 1.490 . S
C376 C378 1.395 1_565 S
C376 C379 1.403 . S
H377 C383 0.930 . S
C378 H364 0.930 . S
C378 C376 1.395 1_545 S
C378 C381 1.403 . S
C379 C376 1.403 . S
C379 C380 1.524 . S
C379 C383 1.400 . S
C380 H365 0.960 . S
C380 H366 0.960 . S
C380 H367 0.960 . S
C380 C379 1.524 . S
C381 C378 1.403 . S
C381 C382 1.392 . S
C381 C385 1.495 . S
C382 C381 1.392 . S
C382 C383 1.385 1_545 S
C382 C384 1.478 . S
C383 H377 0.930 . S
C383 C379 1.400 . S
C383 C382 1.385 1_565 S
C384 C382 1.478 . S
C384 C386 1.381 . S
C384 C390 1.383 . S
C385 C381 1.495 . S
C385 H391 0.959 . S
C385 H392 0.961 . S
C385 H393 0.960 . S
C386 C384 1.381 . S
C386 C387 1.394 . S
C386 H394 0.930 . S
C387 C386 1.394 . S
C387 C388 1.383 . S
C387 H395 0.929 . S
C388 C387 1.383 . S
C388 C389 1.377 . S
C389 H373 0.930 . S
C389 C388 1.377 . S
C389 C390 1.379 . S
C390 H374 0.931 . S
C390 C384 1.383 . S
C390 C389 1.379 . S
H391 C385 0.959 . S
H392 C385 0.961 . S
H393 C385 0.960 . S
H394 C386 0.930 . S
H395 C387 0.929 . S
H396 C404 0.929 . S
H397 C406 0.930 . S
H398 C408 0.930 . S
H399 C411 0.929 . S
H400 C414 0.930 . S
H401 C416 0.960 . S
H402 C416 0.960 . S
H403 C416 0.960 . S
C404 H396 0.929 . S
C404 C405 1.377 . S
C404 C406 1.384 . S
C405 C404 1.377 . S
C405 C411 1.390 . S
C406 H397 0.930 . S
C406 C404 1.384 . S
C406 C407 1.372 . S
C407 C406 1.372 . S
C407 C408 1.400 . S
C407 C412 1.490 . S
C408 H398 0.930 . S
C408 C407 1.400 . S
C408 C411 1.386 . S
H409 C425 0.930 . S
H410 C426 0.931 . S
C411 H399 0.929 . S
C411 C405 1.390 . S
C411 C408 1.386 . S
C412 C407 1.490 . S
C412 C414 1.395 . S
C412 C415 1.403 . S
H413 C419 0.930 . S
C414 H400 0.930 . S
C414 C412 1.395 . S
C414 C417 1.403 . S
C415 C412 1.403 . S
C415 C416 1.524 . S
C415 C419 1.400 . S
C416 H401 0.960 . S
C416 H402 0.960 . S
C416 H403 0.960 . S
C416 C415 1.524 . S
C417 C414 1.403 . S
C417 C418 1.392 . S
C417 C421 1.495 . S
C418 C417 1.392 . S
C418 C419 1.385 . S
C418 C420 1.478 . S
C419 H413 0.930 . S
C419 C415 1.400 . S
C419 C418 1.385 . S
C420 C418 1.478 . S
C420 C422 1.381 . S
C420 C426 1.383 . S
C421 C417 1.495 . S
C421 H427 0.959 . S
C421 H428 0.961 . S
C421 H429 0.960 . S
C422 C420 1.381 . S
C422 C423 1.394 . S
C422 H430 0.930 . S
C423 C422 1.394 . S
C423 C424 1.383 1_556 S
C423 H431 0.929 . S
C424 C423 1.383 1_554 S
C424 C425 1.377 1_554 S
C425 H409 0.930 . S
C425 C424 1.377 1_556 S
C425 C426 1.379 . S
C426 H410 0.931 . S
C426 C420 1.383 . S
C426 C425 1.379 . S
H427 C421 0.959 . S
H428 C421 0.961 . S
H429 C421 0.960 . S
H430 C422 0.930 . S
H431 C423 0.929 . S
H432 C440 0.929 . S
H433 C442 0.930 . S
H434 C444 0.930 . S
H435 C447 0.929 . S
H436 C450 0.930 . S
H437 C452 0.960 . S
H438 C452 0.960 . S
H439 C452 0.960 . S
C440 H432 0.929 . S
C440 C441 1.377 . S
C440 C442 1.384 . S
C441 C440 1.377 . S
C441 C447 1.390 . S
C442 H433 0.930 . S
C442 C440 1.384 . S
C442 C443 1.372 . S
C443 C442 1.372 . S
C443 C444 1.400 . S
C443 C448 1.490 . S
C444 H434 0.930 . S
C444 C443 1.400 . S
C444 C447 1.386 . S
H445 C461 0.930 . S
H446 C462 0.931 . S
C447 H435 0.929 . S
C447 C441 1.390 . S
C447 C444 1.386 . S
C448 C443 1.490 . S
C448 C450 1.395 . S
C448 C451 1.403 . S
H449 C455 0.930 . S
C450 H436 0.930 . S
C450 C448 1.395 . S
C450 C453 1.403 . S
C451 C448 1.403 . S
C451 C452 1.524 . S
C451 C455 1.400 . S
C452 H437 0.960 . S
C452 H438 0.960 . S
C452 H439 0.960 . S
C452 C451 1.524 . S
C453 C450 1.403 . S
C453 C454 1.392 . S
C453 C457 1.495 . S
C454 C453 1.392 . S
C454 C455 1.385 . S
C454 C456 1.478 . S
C455 H449 0.930 . S
C455 C451 1.400 . S
C455 C454 1.385 . S
C456 C454 1.478 . S
C456 C458 1.381 . S
C456 C462 1.383 . S
C457 C453 1.495 . S
C457 H463 0.959 . S
C457 H464 0.961 . S
C457 H465 0.960 . S
C458 C456 1.381 . S
C458 C459 1.394 1_556 S
C458 H466 0.930 . S
C459 C458 1.394 1_554 S
C459 C460 1.383 . S
C459 H467 0.929 . S
C460 C459 1.383 . S
C460 C461 1.377 . S
C461 H445 0.930 . S
C461 C460 1.377 . S
C461 C462 1.379 1_554 S
C462 H446 0.931 . S
C462 C456 1.383 . S
C462 C461 1.379 1_556 S
H463 C457 0.959 . S
H464 C457 0.961 . S
H465 C457 0.960 . S
H466 C458 0.930 . S
H467 C459 0.929 . S
H468 C476 0.929 . S
H469 C478 0.930 . S
H470 C480 0.930 . S
H471 C483 0.929 . S
H472 C486 0.930 . S
H473 C488 0.960 . S
H474 C488 0.960 . S
H475 C488 0.960 . S
C476 H468 0.929 . S
C476 C477 1.377 . S
C476 C478 1.384 . S
C477 C476 1.377 . S
C477 C483 1.390 . S
C478 H469 0.930 . S
C478 C476 1.384 . S
C478 C479 1.372 . S
C479 C478 1.372 . S
C479 C480 1.400 . S
C479 C484 1.490 . S
C480 H470 0.930 . S
C480 C479 1.400 . S
C480 C483 1.386 . S
H481 C497 0.930 . S
H482 C498 0.931 1_556 S
C483 H471 0.929 . S
C483 C477 1.390 . S
C483 C480 1.386 . S
C484 C479 1.490 . S
C484 C486 1.395 . S
C484 C487 1.403 . S
H485 C491 0.930 . S
C486 H472 0.930 . S
C486 C484 1.395 . S
C486 C489 1.403 . S
C487 C484 1.403 . S
C487 C488 1.524 . S
C487 C491 1.400 . S
C488 H473 0.960 . S
C488 H474 0.960 . S
C488 H475 0.960 . S
C488 C487 1.524 . S
C489 C486 1.403 . S
C489 C490 1.392 . S
C489 C493 1.495 . S
C490 C489 1.392 . S
C490 C491 1.385 . S
C490 C492 1.478 . S
C491 H485 0.930 . S
C491 C487 1.400 . S
C491 C490 1.385 . S
C492 C490 1.478 . S
C492 C494 1.381 1_556 S
C492 C498 1.383 1_556 S
C493 C489 1.495 . S
C493 H499 0.959 . S
C493 H500 0.961 . S
C493 H501 0.960 . S
C494 C492 1.381 1_554 S
C494 C495 1.394 . S
C494 H502 0.930 . S
C495 C494 1.394 . S
C495 C496 1.383 . S
C495 H503 0.929 . S
C496 C495 1.383 . S
C496 C497 1.377 . S
C497 H481 0.930 . S
C497 C496 1.377 . S
C497 C498 1.379 . S
C498 H482 0.931 1_554 S
C498 C492 1.383 1_554 S
C498 C497 1.379 . S
H499 C493 0.959 . S
H500 C493 0.961 . S
H501 C493 0.960 . S
H502 C494 0.930 . S
H503 C495 0.929 . S
H504 C512 0.929 . S
H505 C514 0.930 . S
H506 C516 0.930 . S
H507 C519 0.929 . S
H508 C522 0.930 . S
H509 C524 0.960 . S
H510 C524 0.960 . S
H511 C524 0.960 . S
C512 H504 0.929 . S
C512 C513 1.377 . S
C512 C514 1.384 . S
C513 C512 1.377 . S
C513 C519 1.390 . S
C514 H505 0.930 . S
C514 C512 1.384 . S
C514 C515 1.372 . S
C515 C514 1.372 . S
C515 C516 1.400 . S
C515 C520 1.490 . S
C516 H506 0.930 . S
C516 C515 1.400 . S
C516 C519 1.386 . S
H517 C533 0.930 . S
H518 C534 0.931 . S
C519 H507 0.929 . S
C519 C513 1.390 . S
C519 C516 1.386 . S
C520 C515 1.490 . S
C520 C522 1.395 . S
C520 C523 1.403 . S
H521 C527 0.930 . S
C522 H508 0.930 . S
C522 C520 1.395 . S
C522 C525 1.403 . S
C523 C520 1.403 . S
C523 C524 1.524 . S
C523 C527 1.400 . S
C524 H509 0.960 . S
C524 H510 0.960 . S
C524 H511 0.960 . S
C524 C523 1.524 . S
C525 C522 1.403 . S
C525 C526 1.392 . S
C525 C529 1.495 . S
C526 C525 1.392 . S
C526 C527 1.385 . S
C526 C528 1.478 . S
C527 H521 0.930 . S
C527 C523 1.400 . S
C527 C526 1.385 . S
C528 C526 1.478 . S
C528 C530 1.381 . S
C528 C534 1.383 . S
C529 C525 1.495 . S
C529 H535 0.959 . S
C529 H536 0.961 . S
C529 H537 0.960 . S
C530 C528 1.381 . S
C530 C531 1.394 . S
C530 H538 0.930 . S
C531 C530 1.394 . S
C531 C532 1.383 . S
C531 H539 0.929 . S
C532 C531 1.383 . S
C532 C533 1.377 . S
C533 H517 0.930 . S
C533 C532 1.377 . S
C533 C534 1.379 . S
C534 H518 0.931 . S
C534 C528 1.383 . S
C534 C533 1.379 . S
H535 C529 0.959 . S
H536 C529 0.961 . S
H537 C529 0.960 . S
H538 C530 0.930 . S
H539 C531 0.929 . S
H540 C548 0.929 . S
H541 C550 0.930 . S
H542 C552 0.930 . S
H543 C555 0.929 . S
H544 C558 0.930 . S
H545 C560 0.960 . S
H546 C560 0.960 . S
H547 C560 0.960 . S
C548 H540 0.929 . S
C548 C549 1.377 . S
C548 C550 1.384 . S
C549 C548 1.377 . S
C549 C555 1.390 . S
C550 H541 0.930 . S
C550 C548 1.384 . S
C550 C551 1.372 . S
C551 C550 1.372 . S
C551 C552 1.400 . S
C551 C556 1.490 . S
C552 H542 0.930 . S
C552 C551 1.400 . S
C552 C555 1.386 . S
H553 C569 0.930 . S
H554 C570 0.931 . S
C555 H543 0.929 . S
C555 C549 1.390 . S
C555 C552 1.386 . S
C556 C551 1.490 . S
C556 C558 1.395 . S
C556 C559 1.403 . S
H557 C563 0.930 . S
C558 H544 0.930 . S
C558 C556 1.395 . S
C558 C561 1.403 . S
C559 C556 1.403 . S
C559 C560 1.524 . S
C559 C563 1.400 . S
C560 H545 0.960 . S
C560 H546 0.960 . S
C560 H547 0.960 . S
C560 C559 1.524 . S
C561 C558 1.403 . S
C561 C562 1.392 . S
C561 C565 1.495 . S
C562 C561 1.392 . S
C562 C563 1.385 . S
C562 C564 1.478 . S
C563 H557 0.930 . S
C563 C559 1.400 . S
C563 C562 1.385 . S
C564 C562 1.478 . S
C564 C566 1.381 . S
C564 C570 1.383 . S
C565 C561 1.495 . S
C565 H571 0.959 . S
C565 H572 0.961 . S
C565 H573 0.960 . S
C566 C564 1.381 . S
C566 C567 1.394 1_554 S
C566 H574 0.930 . S
C567 C566 1.394 1_556 S
C567 C568 1.383 . S
C567 H575 0.929 . S
C568 C567 1.383 . S
C568 C569 1.377 . S
C569 H553 0.930 . S
C569 C568 1.377 . S
C569 C570 1.379 1_556 S
C570 H554 0.931 . S
C570 C564 1.383 . S
C570 C569 1.379 1_554 S
H571 C565 0.959 . S
H572 C565 0.961 . S
H573 C565 0.960 . S
H574 C566 0.930 . S
H575 C567 0.929 . S
H576 C584 0.929 . S
H577 C586 0.930 . S
H578 C588 0.930 . S
H579 C591 0.929 . S
H580 C594 0.930 . S
H581 C596 0.960 . S
H582 C596 0.960 . S
H583 C596 0.960 . S
C584 H576 0.929 . S
C584 C585 1.377 . S
C584 C586 1.384 . S
C585 C584 1.377 . S
C585 C591 1.390 . S
C586 H577 0.930 . S
C586 C584 1.384 . S
C586 C587 1.372 . S
C587 C586 1.372 . S
C587 C588 1.400 . S
C587 C592 1.490 . S
C588 H578 0.930 . S
C588 C587 1.400 . S
C588 C591 1.386 . S
H589 C605 0.930 . S
H590 C606 0.931 . S
C591 H579 0.929 . S
C591 C585 1.390 . S
C591 C588 1.386 . S
C592 C587 1.490 . S
C592 C594 1.395 . S
C592 C595 1.403 . S
H593 C599 0.930 . S
C594 H580 0.930 . S
C594 C592 1.395 . S
C594 C597 1.403 . S
C595 C592 1.403 . S
C595 C596 1.524 . S
C595 C599 1.400 . S
C596 H581 0.960 . S
C596 H582 0.960 . S
C596 H583 0.960 . S
C596 C595 1.524 . S
C597 C594 1.403 . S
C597 C598 1.392 . S
C597 C601 1.495 . S
C598 C597 1.392 . S
C598 C599 1.385 . S
C598 C600 1.478 . S
C599 H593 0.930 . S
C599 C595 1.400 . S
C599 C598 1.385 . S
C600 C598 1.478 . S
C600 C602 1.381 . S
C600 C606 1.383 . S
C601 C597 1.495 . S
C601 H607 0.959 . S
C601 H608 0.961 . S
C601 H609 0.960 . S
C602 C600 1.381 . S
C602 C603 1.394 1_554 S
C602 H610 0.930 . S
C603 C602 1.394 1_556 S
C603 C604 1.383 . S
C603 H611 0.929 . S
C604 C603 1.383 . S
C604 C605 1.377 . S
C605 H589 0.930 . S
C605 C604 1.377 . S
C605 C606 1.379 1_556 S
C606 H590 0.931 . S
C606 C600 1.383 . S
C606 C605 1.379 1_554 S
H607 C601 0.959 . S
H608 C601 0.961 . S
H609 C601 0.960 . S
H610 C602 0.930 . S
H611 C603 0.929 . S
H612 C620 0.929 . S
H613 C622 0.930 . S
H614 C624 0.930 . S
H615 C627 0.929 . S
H616 C630 0.930 . S
H617 C632 0.960 . S
H618 C632 0.960 . S
H619 C632 0.960 . S
C620 H612 0.929 . S
C620 C621 1.377 . S
C620 C622 1.384 . S
C621 C620 1.377 . S
C621 C627 1.390 . S
C622 H613 0.930 . S
C622 C620 1.384 . S
C622 C623 1.372 . S
C623 C622 1.372 . S
C623 C624 1.400 . S
C623 C628 1.490 . S
C624 H614 0.930 . S
C624 C623 1.400 . S
C624 C627 1.386 . S
H625 C641 0.930 . S
H626 C642 0.931 . S
C627 H615 0.929 . S
C627 C621 1.390 . S
C627 C624 1.386 . S
C628 C623 1.490 . S
C628 C630 1.395 . S
C628 C631 1.403 . S
H629 C635 0.930 . S
C630 H616 0.930 . S
C630 C628 1.395 . S
C630 C633 1.403 . S
C631 C628 1.403 . S
C631 C632 1.524 . S
C631 C635 1.400 . S
C632 H617 0.960 . S
C632 H618 0.960 . S
C632 H619 0.960 . S
C632 C631 1.524 . S
C633 C630 1.403 . S
C633 C634 1.392 . S
C633 C637 1.495 . S
C634 C633 1.392 . S
C634 C635 1.385 . S
C634 C636 1.478 . S
C635 H629 0.930 . S
C635 C631 1.400 . S
C635 C634 1.385 . S
C636 C634 1.478 . S
C636 C638 1.381 . S
C636 C642 1.383 . S
C637 C633 1.495 . S
C637 H643 0.959 . S
C637 H644 0.961 . S
C637 H645 0.960 . S
C638 C636 1.381 . S
C638 C639 1.394 . S
C638 H646 0.930 . S
C639 C638 1.394 . S
C639 C640 1.383 . S
C639 H647 0.929 . S
C640 C639 1.383 . S
C640 C641 1.377 . S
C641 H625 0.930 . S
C641 C640 1.377 . S
C641 C642 1.379 . S
C642 H626 0.931 . S
C642 C636 1.383 . S
C642 C641 1.379 . S
H643 C637 0.959 . S
H644 C637 0.961 . S
H645 C637 0.960 . S
H646 C638 0.930 . S
H647 C639 0.929 . S
H648 C656 0.929 . S
H649 C658 0.930 . S
H650 C660 0.930 1_556 S
H651 C663 0.929 . S
H652 C666 0.930 . S
H653 C668 0.954 1_556 S
H654 C668 0.966 . S
H655 C668 0.948 1_556 S
C656 H648 0.929 . S
C656 C657 1.377 . S
C656 C658 1.384 . S
C657 C656 1.377 . S
C657 C663 1.390 1_554 S
C658 H649 0.930 . S
C658 C656 1.384 . S
C658 C659 1.372 . S
C659 C658 1.372 . S
C659 C660 1.400 . S
C659 C664 1.490 . S
C660 H650 0.930 1_554 S
C660 C659 1.400 . S
C660 C663 1.386 1_554 S
H661 C677 0.930 . S
H662 C678 0.931 . S
C663 H651 0.929 . S
C663 C657 1.390 1_556 S
C663 C660 1.386 1_556 S
C664 C659 1.490 . S
C664 C666 1.395 . S
C664 C667 1.403 . S
H665 C671 0.930 . S
C666 H652 0.930 . S
C666 C664 1.395 . S
C666 C669 1.403 . S
C667 C664 1.403 . S
C667 C668 1.536 . S
C667 C671 1.400 . S
C668 H653 0.954 1_554 S
C668 H654 0.966 . S
C668 H655 0.948 1_554 S
C668 C667 1.536 . S
C669 C666 1.403 . S
C669 C670 1.392 . S
C669 C673 1.495 . S
C670 C669 1.392 . S
C670 C671 1.385 . S
C670 C672 1.478 . S
C671 H665 0.930 . S
C671 C667 1.400 . S
C671 C670 1.385 . S
C672 C670 1.478 . S
C672 C674 1.381 . S
C672 C678 1.383 . S
C673 C669 1.495 . S
C673 H679 0.959 . S
C673 H680 0.961 . S
C673 H681 0.960 . S
C674 C672 1.381 . S
C674 C675 1.394 . S
C674 H682 0.930 . S
C675 C674 1.394 . S
C675 C676 1.383 . S
C675 H683 0.929 . S
C676 C675 1.383 . S
C676 C677 1.377 . S
C677 H661 0.930 . S
C677 C676 1.377 . S
C677 C678 1.379 . S
C678 H662 0.931 . S
C678 C672 1.383 . S
C678 C677 1.379 . S
H679 C673 0.959 . S
H680 C673 0.961 . S
H681 C673 0.960 . S
H682 C674 0.930 . S
H683 C675 0.929 . S
H684 C692 0.929 . S
H685 C694 0.930 . S
H686 C696 0.930 . S
H687 C699 0.929 . S
H688 C702 0.930 . S
H689 C704 0.960 . S
H690 C704 0.960 1_556 S
H691 C704 0.960 . S
C692 H684 0.929 . S
C692 C693 1.377 . S
C692 C694 1.384 . S
C693 C692 1.377 . S
C693 C699 1.390 . S
C694 H685 0.930 . S
C694 C692 1.384 . S
C694 C695 1.372 . S
C695 C694 1.372 . S
C695 C696 1.400 . S
C695 C700 1.490 . S
C696 H686 0.930 . S
C696 C695 1.400 . S
C696 C699 1.386 . S
H697 C713 0.930 . S
H698 C714 0.931 . S
C699 H687 0.929 . S
C699 C693 1.390 . S
C699 C696 1.386 . S
C700 C695 1.490 . S
C700 C702 1.395 . S
C700 C703 1.403 . S
H701 C707 0.930 . S
C702 H688 0.930 . S
C702 C700 1.395 . S
C702 C705 1.403 . S
C703 C700 1.403 . S
C703 C704 1.524 . S
C703 C707 1.400 . S
C704 H689 0.960 . S
C704 H690 0.960 1_554 S
C704 H691 0.960 . S
C704 C703 1.524 . S
C705 C702 1.403 . S
C705 C706 1.392 . S
C705 C709 1.495 . S
C706 C705 1.392 . S
C706 C707 1.385 . S
C706 C708 1.478 . S
C707 H701 0.930 . S
C707 C703 1.400 . S
C707 C706 1.385 . S
C708 C706 1.478 . S
C708 C710 1.381 . S
C708 C714 1.383 . S
C709 C705 1.495 . S
C709 H715 0.959 . S
C709 H716 0.961 . S
C709 H717 0.960 . S
C710 C708 1.381 . S
C710 C711 1.394 . S
C710 H718 0.930 . S
C711 C710 1.394 . S
C711 C712 1.383 . S
C711 H719 0.929 . S
C712 C711 1.383 . S
C712 C713 1.377 . S
C713 H697 0.930 . S
C713 C712 1.377 . S
C713 C714 1.379 . S
C714 H698 0.931 . S
C714 C708 1.383 . S
C714 C713 1.379 . S
H715 C709 0.959 . S
H716 C709 0.961 . S
H717 C709 0.960 . S
H718 C710 0.930 . S
H719 C711 0.929 . S
H720 C728 0.929 . S
H721 C730 0.930 . S
H722 C732 0.930 . S
H723 C735 0.929 . S
H724 C738 0.930 . S
H725 C740 0.960 . S
H726 C740 0.960 . S
H727 C740 0.960 . S
C728 H720 0.929 . S
C728 C729 1.377 . S
C728 C730 1.384 . S
C729 C728 1.377 . S
C729 C735 1.390 1_556 S
C730 H721 0.930 . S
C730 C728 1.384 . S
C730 C731 1.372 . S
C731 C730 1.372 . S
C731 C732 1.400 1_556 S
C731 C736 1.490 . S
C732 H722 0.930 . S
C732 C731 1.400 1_554 S
C732 C735 1.386 . S
H733 C749 0.930 . S
H734 C750 0.931 . S
C735 H723 0.929 . S
C735 C729 1.390 1_554 S
C735 C732 1.386 . S
C736 C731 1.490 . S
C736 C738 1.395 . S
C736 C739 1.403 . S
H737 C743 0.930 . S
C738 H724 0.930 . S
C738 C736 1.395 . S
C738 C741 1.403 . S
C739 C736 1.403 . S
C739 C740 1.524 . S
C739 C743 1.400 . S
C740 H725 0.960 . S
C740 H726 0.960 . S
C740 H727 0.960 . S
C740 C739 1.524 . S
C741 C738 1.403 . S
C741 C742 1.392 . S
C741 C745 1.495 . S
C742 C741 1.392 . S
C742 C743 1.385 . S
C742 C744 1.478 . S
C743 H737 0.930 . S
C743 C739 1.400 . S
C743 C742 1.385 . S
C744 C742 1.478 . S
C744 C746 1.381 . S
C744 C750 1.383 . S
C745 C741 1.495 . S
C745 H751 0.959 . S
C745 H752 0.961 . S
C745 H753 0.960 . S
C746 C744 1.381 . S
C746 C747 1.394 . S
C746 H754 0.930 . S
C747 C746 1.394 . S
C747 C748 1.383 . S
C747 H755 0.929 . S
C748 C747 1.383 . S
C748 C749 1.377 . S
C749 H733 0.930 . S
C749 C748 1.377 . S
C749 C750 1.379 . S
C750 H734 0.931 . S
C750 C744 1.383 . S
C750 C749 1.379 . S
H751 C745 0.959 . S
H752 C745 0.961 . S
H753 C745 0.960 . S
H754 C746 0.930 . S
H755 C747 0.929 . S
H756 C764 0.929 . S
H757 C766 0.930 . S
H758 C768 0.930 . S
H759 C771 0.929 . S
H760 C774 0.930 . S
H761 C776 0.960 . S
H762 C776 0.960 . S
H763 C776 0.960 . S
C764 H756 0.929 . S
C764 C765 1.377 . S
C764 C766 1.384 . S
C765 C764 1.377 . S
C765 C771 1.390 . S
C766 H757 0.930 . S
C766 C764 1.384 . S
C766 C767 1.372 . S
C767 C766 1.372 . S
C767 C768 1.400 . S
C767 C772 1.490 . S
C768 H758 0.930 . S
C768 C767 1.400 . S
C768 C771 1.386 . S
H769 C785 0.930 . S
H770 C786 0.931 . S
C771 H759 0.929 . S
C771 C765 1.390 . S
C771 C768 1.386 . S
C772 C767 1.490 . S
C772 C774 1.395 . S
C772 C775 1.403 . S
H773 C779 0.930 . S
C774 H760 0.930 . S
C774 C772 1.395 . S
C774 C777 1.403 . S
C775 C772 1.403 . S
C775 C776 1.524 . S
C775 C779 1.400 . S
C776 H761 0.960 . S
C776 H762 0.960 . S
C776 H763 0.960 . S
C776 C775 1.524 . S
C777 C774 1.403 . S
C777 C778 1.392 . S
C777 C781 1.495 1_556 S
C778 C777 1.392 . S
C778 C779 1.385 . S
C778 C780 1.478 . S
C779 H773 0.930 . S
C779 C775 1.400 . S
C779 C778 1.385 . S
C780 C778 1.478 . S
C780 C782 1.381 . S
C780 C786 1.383 1_556 S
C781 C777 1.495 1_554 S
C781 H787 0.959 . S
C781 H788 0.961 . S
C781 H789 0.960 1_554 S
C782 C780 1.381 . S
C782 C783 1.394 . S
C782 H790 0.930 . S
C783 C782 1.394 . S
C783 C784 1.383 1_556 S
C783 H791 0.929 . S
C784 C783 1.383 1_554 S
C784 C785 1.377 . S
C785 H769 0.930 . S
C785 C784 1.377 . S
C785 C786 1.379 . S
C786 H770 0.931 . S
C786 C780 1.383 1_554 S
C786 C785 1.379 . S
H787 C781 0.959 . S
H788 C781 0.961 . S
H789 C781 0.960 1_556 S
H790 C782 0.930 . S
H791 C783 0.929 . S
H792 C800 0.929 . S
H793 C802 0.930 . S
H794 C804 0.930 . S
H795 C807 0.929 . S
H796 C810 0.930 . S
H797 C812 0.960 . S
H798 C812 0.960 . S
H799 C812 0.960 . S
C800 H792 0.929 . S
C800 C801 1.377 . S
C800 C802 1.384 . S
C801 C800 1.377 . S
C801 C807 1.390 . S
C802 H793 0.930 . S
C802 C800 1.384 . S
C802 C803 1.372 . S
C803 C802 1.372 . S
C803 C804 1.400 . S
C803 C808 1.490 . S
C804 H794 0.930 . S
C804 C803 1.400 . S
C804 C807 1.386 . S
H805 C821 0.930 1_554 S
H806 C822 0.931 . S
C807 H795 0.929 . S
C807 C801 1.390 . S
C807 C804 1.386 . S
C808 C803 1.490 . S
C808 C810 1.395 . S
C808 C811 1.403 . S
H809 C815 0.930 . S
C810 H796 0.930 . S
C810 C808 1.395 . S
C810 C813 1.403 . S
C811 C808 1.403 . S
C811 C812 1.524 . S
C811 C815 1.400 . S
C812 H797 0.960 . S
C812 H798 0.960 . S
C812 H799 0.960 . S
C812 C811 1.524 . S
C813 C810 1.403 . S
C813 C814 1.392 . S
C813 C817 1.495 . S
C814 C813 1.392 . S
C814 C815 1.385 . S
C814 C816 1.478 . S
C815 H809 0.930 . S
C815 C811 1.400 . S
C815 C814 1.385 . S
C816 C814 1.478 . S
C816 C818 1.381 . S
C816 C822 1.383 . S
C817 C813 1.495 . S
C817 H823 0.959 . S
C817 H824 0.960 1_556 S
C817 H825 0.960 . S
C818 C816 1.381 . S
C818 C819 1.394 . S
C818 H826 0.930 . S
C819 C818 1.394 . S
C819 C820 1.383 . S
C819 H827 0.929 . S
C820 C819 1.383 . S
C820 C821 1.377 . S
C821 H805 0.930 1_556 S
C821 C820 1.377 . S
C821 C822 1.379 . S
C822 H806 0.931 . S
C822 C816 1.383 . S
C822 C821 1.379 . S
H823 C817 0.959 . S
H824 C817 0.960 1_554 S
H825 C817 0.960 . S
H826 C818 0.930 . S
H827 C819 0.929 . S
H828 C836 0.929 . S
H829 C838 0.930 . S
H830 C840 0.930 . S
H831 C843 0.929 . S
H832 C846 0.930 . S
H833 C848 0.960 . S
H834 C848 0.960 . S
H835 C848 0.960 . S
C836 H828 0.929 . S
C836 C837 1.377 . S
C836 C838 1.384 . S
C837 C836 1.377 . S
C837 C843 1.390 . S
C838 H829 0.930 . S
C838 C836 1.384 . S
C838 C839 1.372 . S
C839 C838 1.372 . S
C839 C840 1.400 . S
C839 C844 1.490 . S
C840 H830 0.930 . S
C840 C839 1.400 . S
C840 C843 1.386 . S
H841 C857 0.930 1_455 S
H842 C858 0.931 . S
C843 H831 0.929 . S
C843 C837 1.390 . S
C843 C840 1.386 . S
C844 C839 1.490 . S
C844 C846 1.395 . S
C844 C847 1.403 . S
H845 C851 0.930 . S
C846 H832 0.930 . S
C846 C844 1.395 . S
C846 C849 1.403 . S
C847 C844 1.403 . S
C847 C848 1.524 . S
C847 C851 1.400 . S
C848 H833 0.960 . S
C848 H834 0.960 . S
C848 H835 0.960 . S
C848 C847 1.524 . S
C849 C846 1.403 . S
C849 C850 1.392 . S
C849 C853 1.495 . S
C850 C849 1.392 . S
C850 C851 1.385 . S
C850 C852 1.478 . S
C851 H845 0.930 . S
C851 C847 1.400 . S
C851 C850 1.385 . S
C852 C850 1.478 . S
C852 C854 1.381 . S
C852 C858 1.383 . S
C853 C849 1.495 . S
C853 H859 0.959 . S
C853 H860 0.961 . S
C853 H861 0.960 . S
C854 C852 1.381 . S
C854 C855 1.394 1_556 S
C854 H862 0.930 1_556 S
C855 C854 1.394 1_554 S
C855 C856 1.385 . S
C855 H863 0.929 . S
C856 C855 1.385 . S
C856 C857 1.373 1_554 S
C857 H841 0.930 1_655 S
C857 C856 1.373 1_556 S
C857 C858 1.379 . S
C858 H842 0.931 . S
C858 C852 1.383 . S
C858 C857 1.379 . S
H859 C853 0.959 . S
H860 C853 0.961 . S
H861 C853 0.960 . S
H862 C854 0.930 1_554 S
H863 C855 0.929 . S
H864 C872 0.929 . S
H865 C874 0.930 . S
H866 C876 0.930 . S
H867 C879 0.929 . S
H868 C882 0.930 1_554 S
H869 C884 0.960 . S
H870 C884 0.960 . S
H871 C884 0.960 . S
C872 H864 0.929 . S
C872 C873 1.377 . S
C872 C874 1.384 . S
C873 C872 1.377 . S
C873 C879 1.390 1_554 S
C874 H865 0.930 . S
C874 C872 1.384 . S
C874 C875 1.372 1_554 S
C875 C874 1.372 1_556 S
C875 C876 1.400 . S
C875 C880 1.490 . S
C876 H866 0.930 . S
C876 C875 1.400 . S
C876 C879 1.386 . S
H877 C893 0.930 . S
H878 C894 0.931 . S
C879 H867 0.929 . S
C879 C873 1.390 1_556 S
C879 C876 1.386 . S
C880 C875 1.490 . S
C880 C882 1.395 . S
C880 C883 1.403 . S
H881 C887 0.930 . S
C882 H868 0.930 1_556 S
C882 C880 1.395 . S
C882 C885 1.403 . S
C883 C880 1.403 . S
C883 C884 1.524 . S
C883 C887 1.400 . S
C884 H869 0.960 . S
C884 H870 0.960 . S
C884 H871 0.960 . S
C884 C883 1.524 . S
C885 C882 1.403 . S
C885 C886 1.392 . S
C885 C889 1.495 . S
C886 C885 1.392 . S
C886 C887 1.385 . S
C886 C888 1.478 . S
C887 H881 0.930 . S
C887 C883 1.400 . S
C887 C886 1.385 . S
C888 C886 1.478 . S
C888 C890 1.381 . S
C888 C894 1.383 . S
C889 C885 1.495 . S
C889 H895 0.959 1_556 S
C889 H896 0.961 . S
C889 H897 0.960 1_556 S
C890 C888 1.381 . S
C890 C891 1.394 . S
C890 H898 0.930 1_556 S
C891 C890 1.394 . S
C891 C892 1.383 . S
C891 H899 0.929 . S
C892 C891 1.383 . S
C892 C893 1.377 . S
C893 H877 0.930 . S
C893 C892 1.377 . S
C893 C894 1.379 . S
C894 H878 0.931 . S
C894 C888 1.383 . S
C894 C893 1.379 . S
H895 C889 0.959 1_554 S
H896 C889 0.961 . S
H897 C889 0.960 1_554 S
H898 C890 0.930 1_554 S
H899 C891 0.929 . S
H900 C908 0.929 . S
H901 C910 0.930 . S
H902 C912 0.930 . S
H903 C915 0.929 . S
H904 C918 0.930 . S
H905 C920 0.960 . S
H906 C920 0.960 . S
H907 C920 0.960 . S
C908 H900 0.929 . S
C908 C909 1.377 . S
C908 C910 1.384 . S
C909 C908 1.377 . S
C909 C915 1.390 . S
C910 H901 0.930 . S
C910 C908 1.384 . S
C910 C911 1.372 . S
C911 C910 1.372 . S
C911 C912 1.400 . S
C911 C916 1.490 . S
C912 H902 0.930 . S
C912 C911 1.400 . S
C912 C915 1.386 . S
H913 C929 0.926 1_554 S
H914 C930 0.931 . S
C915 H903 0.929 . S
C915 C909 1.390 . S
C915 C912 1.386 . S
C916 C911 1.490 . S
C916 C918 1.395 . S
C916 C919 1.403 . S
H917 C923 0.930 . S
C918 H904 0.930 . S
C918 C916 1.395 . S
C918 C921 1.403 . S
C919 C916 1.403 . S
C919 C920 1.524 . S
C919 C923 1.400 . S
C920 H905 0.960 . S
C920 H906 0.960 . S
C920 H907 0.960 . S
C920 C919 1.524 . S
C921 C918 1.403 . S
C921 C922 1.392 . S
C921 C925 1.495 . S
C922 C921 1.392 . S
C922 C923 1.385 . S
C922 C924 1.478 . S
C923 H917 0.930 . S
C923 C919 1.400 . S
C923 C922 1.385 . S
C924 C922 1.478 . S
C924 C926 1.381 . S
C924 C930 1.383 . S
C925 C921 1.495 . S
C925 H931 0.959 . S
C925 H932 0.961 . S
C925 H933 0.960 . S
C926 C924 1.381 . S
C926 C927 1.394 . S
C926 H934 0.930 . S
C927 C926 1.394 . S
C927 C928 1.383 . S
C927 H935 0.929 . S
C928 C927 1.383 . S
C928 C929 1.379 . S
C929 H913 0.926 1_556 S
C929 C928 1.379 . S
C929 C930 1.381 . S
C930 H914 0.931 . S
C930 C924 1.383 . S
C930 C929 1.381 . S
H931 C925 0.959 . S
H932 C925 0.961 . S
H933 C925 0.960 . S
H934 C926 0.930 . S
H935 C927 0.929 . S
H936 C944 0.929 . S
H937 C946 0.930 . S
H938 C948 0.930 . S
H939 C951 0.929 . S
H940 C954 0.930 . S
H941 C956 0.960 . S
H942 C956 0.960 . S
H943 C956 0.960 . S
C944 H936 0.929 . S
C944 C945 1.377 . S
C944 C946 1.384 . S
C945 C944 1.377 . S
C945 C951 1.390 1_554 S
C946 H937 0.930 . S
C946 C944 1.384 . S
C946 C947 1.372 . S
C947 C946 1.372 . S
C947 C948 1.400 1_554 S
C947 C952 1.490 . S
C948 H938 0.930 . S
C948 C947 1.400 1_556 S
C948 C951 1.386 . S
H949 C965 0.930 . S
H950 C966 0.931 . S
C951 H939 0.929 . S
C951 C945 1.390 1_556 S
C951 C948 1.386 . S
C952 C947 1.490 . S
C952 C954 1.395 . S
C952 C955 1.403 . S
H953 C959 0.930 . S
C954 H940 0.930 . S
C954 C952 1.395 . S
C954 C957 1.403 . S
C955 C952 1.403 . S
C955 C956 1.524 . S
C955 C959 1.400 . S
C956 H941 0.960 . S
C956 H942 0.960 . S
C956 H943 0.960 . S
C956 C955 1.524 . S
C957 C954 1.403 . S
C957 C958 1.392 . S
C957 C961 1.495 . S
C958 C957 1.392 . S
C958 C959 1.385 . S
C958 C960 1.478 . S
C959 H953 0.930 . S
C959 C955 1.400 . S
C959 C958 1.385 . S
C960 C958 1.478 . S
C960 C962 1.381 . S
C960 C966 1.383 . S
C961 C957 1.495 . S
C961 H967 0.959 . S
C961 H968 0.961 . S
C961 H969 0.960 . S
C962 C960 1.381 . S
C962 C963 1.394 . S
C962 H970 0.930 . S
C963 C962 1.394 . S
C963 C964 1.383 . S
C963 H971 0.929 . S
C964 C963 1.383 . S
C964 C965 1.377 . S
C965 H949 0.930 . S
C965 C964 1.377 . S
C965 C966 1.379 . S
C966 H950 0.931 . S
C966 C960 1.383 . S
C966 C965 1.379 . S
H967 C961 0.959 . S
H968 C961 0.961 . S
H969 C961 0.960 . S
H970 C962 0.930 . S
H971 C963 0.929 . S
H972 C980 0.929 . S
H973 C982 0.930 . S
H974 C984 0.930 . S
H975 C987 0.929 . S
H976 C990 0.930 . S
H977 C992 0.960 . S
H978 C992 0.960 . S
H979 C992 0.960 . S
C980 H972 0.929 . S
C980 C981 1.377 . S
C980 C982 1.384 . S
C981 C980 1.377 . S
C981 C987 1.390 . S
C982 H973 0.930 . S
C982 C980 1.384 . S
C982 C983 1.372 . S
C983 C982 1.372 . S
C983 C984 1.400 . S
C983 C988 1.490 . S
C984 H974 0.930 . S
C984 C983 1.400 . S
C984 C987 1.386 . S
H985 C1001 0.930 1_556 S
H986 C1002 0.931 . S
C987 H975 0.929 . S
C987 C981 1.390 . S
C987 C984 1.386 . S
C988 C983 1.490 . S
C988 C990 1.395 . S
C988 C991 1.403 . S
H989 C995 0.930 . S
C990 H976 0.930 . S
C990 C988 1.395 . S
C990 C993 1.403 . S
C991 C988 1.403 . S
C991 C992 1.524 . S
C991 C995 1.400 . S
C992 H977 0.960 . S
C992 H978 0.960 . S
C992 H979 0.960 . S
C992 C991 1.524 . S
C993 C990 1.403 . S
C993 C994 1.392 . S
C993 C997 1.495 . S
C994 C993 1.392 . S
C994 C995 1.385 . S
C994 C996 1.478 . S
C995 H989 0.930 . S
C995 C991 1.400 . S
C995 C994 1.385 . S
C996 C994 1.478 . S
C996 C998 1.381 . S
C996 C1002 1.383 . S
C997 C993 1.495 . S
C997 H1003 0.959 . S
C997 H1004 0.961 . S
C997 H1005 0.960 . S
C998 C996 1.381 . S
C998 C999 1.394 . S
C998 H1006 0.930 . S
C999 C998 1.394 . S
C999 C1000 1.383 . S
C999 H1007 0.929 . S
C1000 C999 1.383 . S
C1000 C1001 1.377 . S
C1001 H985 0.930 1_554 S
C1001 C1000 1.377 . S
C1001 C1002 1.379 . S
C1002 H986 0.931 . S
C1002 C996 1.383 . S
C1002 C1001 1.379 . S
H1003 C997 0.959 . S
H1004 C997 0.961 . S
H1005 C997 0.960 . S
H1006 C998 0.930 . S
H1007 C999 0.929 . S
H1008 C1016 0.929 1_556 S
H1009 C1018 0.930 . S
H1010 C1020 0.930 . S
H1011 C1023 0.929 . S
H1012 C1026 0.930 . S
H1013 C1028 0.960 . S
H1014 C1028 0.960 . S
H1015 C1028 0.960 . S
C1016 H1008 0.929 1_554 S
C1016 C1017 1.377 . S
C1016 C1018 1.384 . S
C1017 C1016 1.377 . S
C1017 C1023 1.390 . S
C1018 H1009 0.930 . S
C1018 C1016 1.384 . S
C1018 C1019 1.372 . S
C1019 C1018 1.372 . S
C1019 C1020 1.400 . S
C1019 C1024 1.490 . S
C1020 H1010 0.930 . S
C1020 C1019 1.400 . S
C1020 C1023 1.386 . S
H1021 C1037 0.930 . S
H1022 C1038 0.931 . S
C1023 H1011 0.929 . S
C1023 C1017 1.390 . S
C1023 C1020 1.386 . S
C1024 C1019 1.490 . S
C1024 C1026 1.395 . S
C1024 C1027 1.403 . S
H1025 C1031 0.930 . S
C1026 H1012 0.930 . S
C1026 C1024 1.395 . S
C1026 C1029 1.403 . S
C1027 C1024 1.403 . S
C1027 C1028 1.524 . S
C1027 C1031 1.400 . S
C1028 H1013 0.960 . S
C1028 H1014 0.960 . S
C1028 H1015 0.960 . S
C1028 C1027 1.524 . S
C1029 C1026 1.403 . S
C1029 C1030 1.392 . S
C1029 C1033 1.495 . S
C1030 C1029 1.392 . S
C1030 C1031 1.385 . S
C1030 C1032 1.478 . S
C1031 H1025 0.930 . S
C1031 C1027 1.400 . S
C1031 C1030 1.385 . S
C1032 C1030 1.478 . S
C1032 C1034 1.381 . S
C1032 C1038 1.383 . S
C1033 C1029 1.495 . S
C1033 H1039 0.959 . S
C1033 H1040 0.961 . S
C1033 H1041 0.960 . S
C1034 C1032 1.381 . S
C1034 C1035 1.394 . S
C1034 H1042 0.930 . S
C1035 C1034 1.394 . S
C1035 C1036 1.383 . S
C1035 H1043 0.929 . S
C1036 C1035 1.383 . S
C1036 C1037 1.377 . S
C1037 H1021 0.930 . S
C1037 C1036 1.377 . S
C1037 C1038 1.379 . S
C1038 H1022 0.931 . S
C1038 C1032 1.383 . S
C1038 C1037 1.379 . S
H1039 C1033 0.959 . S
H1040 C1033 0.961 . S
H1041 C1033 0.960 . S
H1042 C1034 0.930 . S
H1043 C1035 0.929 . S
H1044 C1052 0.929 . S
H1045 C1054 0.930 . S
H1046 C1056 0.930 . S
H1047 C1059 0.929 . S
H1048 C1062 0.930 . S
H1049 C1064 0.960 . S
H1050 C1064 0.960 . S
H1051 C1064 0.960 . S
C1052 H1044 0.929 . S
C1052 C1053 1.377 . S
C1052 C1054 1.384 . S
C1053 C1052 1.377 . S
C1053 C1059 1.390 . S
C1054 H1045 0.930 . S
C1054 C1052 1.384 . S
C1054 C1055 1.372 . S
C1055 C1054 1.372 . S
C1055 C1056 1.400 . S
C1055 C1060 1.490 . S
C1056 H1046 0.930 . S
C1056 C1055 1.400 . S
C1056 C1059 1.386 . S
H1057 C1073 0.930 . S
H1058 C1074 0.931 . S
C1059 H1047 0.929 . S
C1059 C1053 1.390 . S
C1059 C1056 1.386 . S
C1060 C1055 1.490 . S
C1060 C1062 1.395 . S
C1060 C1063 1.403 . S
H1061 C1067 0.930 . S
C1062 H1048 0.930 . S
C1062 C1060 1.395 . S
C1062 C1065 1.403 . S
C1063 C1060 1.403 . S
C1063 C1064 1.524 . S
C1063 C1067 1.400 . S
C1064 H1049 0.960 . S
C1064 H1050 0.960 . S
C1064 H1051 0.960 . S
C1064 C1063 1.524 . S
C1065 C1062 1.403 . S
C1065 C1066 1.392 . S
C1065 C1069 1.495 . S
C1066 C1065 1.392 . S
C1066 C1067 1.385 . S
C1066 C1068 1.478 . S
C1067 H1061 0.930 . S
C1067 C1063 1.400 . S
C1067 C1066 1.385 . S
C1068 C1066 1.478 . S
C1068 C1070 1.381 . S
C1068 C1074 1.383 . S
C1069 C1065 1.495 . S
C1069 H1075 0.959 . S
C1069 H1076 0.961 . S
C1069 H1077 0.960 . S
C1070 C1068 1.381 . S
C1070 C1071 1.394 . S
C1070 H1078 0.930 . S
C1071 C1070 1.394 . S
C1071 C1072 1.383 . S
C1071 H1079 0.929 . S
C1072 C1071 1.383 . S
C1072 C1073 1.377 . S
C1073 H1057 0.930 . S
C1073 C1072 1.377 . S
C1073 C1074 1.379 . S
C1074 H1058 0.931 . S
C1074 C1068 1.383 . S
C1074 C1073 1.379 . S
H1075 C1069 0.959 . S
H1076 C1069 0.961 . S
H1077 C1069 0.960 . S
H1078 C1070 0.930 . S
H1079 C1071 0.929 . S
H1080 C1088 0.929 . S
H1081 C1090 0.930 . S
H1082 C1092 0.930 . S
H1083 C1095 0.929 . S
H1084 C1098 0.930 . S
H1085 C1100 0.960 . S
H1086 C1100 0.960 1_545 S
H1087 C1100 0.960 1_545 S
C1088 H1080 0.929 . S
C1088 C1089 1.377 . S
C1088 C1090 1.384 . S
C1089 C1088 1.377 . S
C1089 C1095 1.390 . S
C1090 H1081 0.930 . S
C1090 C1088 1.384 . S
C1090 C1091 1.372 . S
C1091 C1090 1.372 . S
C1091 C1092 1.400 . S
C1091 C1096 1.490 . S
C1092 H1082 0.930 . S
C1092 C1091 1.400 . S
C1092 C1095 1.386 . S
H1093 C1109 0.930 . S
H1094 C1110 0.931 . S
C1095 H1083 0.929 . S
C1095 C1089 1.390 . S
C1095 C1092 1.386 . S
C1096 C1091 1.490 . S
C1096 C1098 1.395 . S
C1096 C1099 1.403 . S
H1097 C1103 0.930 . S
C1098 H1084 0.930 . S
C1098 C1096 1.395 . S
C1098 C1101 1.403 . S
C1099 C1096 1.403 . S
C1099 C1100 1.524 1_545 S
C1099 C1103 1.400 1_545 S
C1100 H1085 0.960 . S
C1100 H1086 0.960 1_565 S
C1100 H1087 0.960 1_565 S
C1100 C1099 1.524 1_565 S
C1101 C1098 1.403 . S
C1101 C1102 1.392 1_545 S
C1101 C1105 1.495 . S
C1102 C1101 1.392 1_565 S
C1102 C1103 1.385 . S
C1102 C1104 1.478 . S
C1103 H1097 0.930 . S
C1103 C1099 1.400 1_565 S
C1103 C1102 1.385 . S
C1104 C1102 1.478 . S
C1104 C1106 1.381 . S
C1104 C1110 1.383 . S
C1105 C1101 1.495 . S
C1105 H1111 0.959 . S
C1105 H1112 0.961 . S
C1105 H1113 0.960 1_545 S
C1106 C1104 1.381 . S
C1106 C1107 1.394 . S
C1106 H1114 0.930 . S
C1107 C1106 1.394 . S
C1107 C1108 1.383 . S
C1107 H1115 0.929 . S
C1108 C1107 1.383 . S
C1108 C1109 1.377 . S
C1109 H1093 0.930 . S
C1109 C1108 1.377 . S
C1109 C1110 1.379 . S
C1110 H1094 0.931 . S
C1110 C1104 1.383 . S
C1110 C1109 1.379 . S
H1111 C1105 0.959 . S
H1112 C1105 0.961 . S
H1113 C1105 0.960 1_565 S
H1114 C1106 0.930 . S
H1115 C1107 0.929 . S
H1116 C1124 0.929 . S
H1117 C1126 0.930 . S
H1118 C1128 0.930 . S
H1119 C1131 0.929 . S
H1120 C1134 0.930 . S
H1121 C1136 0.960 . S
H1122 C1136 0.960 . S
H1123 C1136 0.960 . S
C1124 H1116 0.929 . S
C1124 C1125 1.377 . S
C1124 C1126 1.384 . S
C1125 C1124 1.377 . S
C1125 C1131 1.390 . S
C1126 H1117 0.930 . S
C1126 C1124 1.384 . S
C1126 C1127 1.372 . S
C1127 C1126 1.372 . S
C1127 C1128 1.400 . S
C1127 C1132 1.490 . S
C1128 H1118 0.930 . S
C1128 C1127 1.400 . S
C1128 C1131 1.386 . S
H1129 C1145 0.930 . S
H1130 C1146 0.931 . S
C1131 H1119 0.929 . S
C1131 C1125 1.390 . S
C1131 C1128 1.386 . S
C1132 C1127 1.490 . S
C1132 C1134 1.395 . S
C1132 C1135 1.403 . S
H1133 C1139 0.930 . S
C1134 H1120 0.930 . S
C1134 C1132 1.395 . S
C1134 C1137 1.403 . S
C1135 C1132 1.403 . S
C1135 C1136 1.524 . S
C1135 C1139 1.400 . S
C1136 H1121 0.960 . S
C1136 H1122 0.960 . S
C1136 H1123 0.960 . S
C1136 C1135 1.524 . S
C1137 C1134 1.403 . S
C1137 C1138 1.392 . S
C1137 C1141 1.519 . S
C1138 C1137 1.392 . S
C1138 C1139 1.385 . S
C1138 C1140 1.478 1_655 S
C1139 H1133 0.930 . S
C1139 C1135 1.400 . S
C1139 C1138 1.385 . S
C1140 C1138 1.478 1_455 S
C1140 C1142 1.381 . S
C1140 C1146 1.383 . S
C1141 C1137 1.519 . S
C1141 H1147 0.986 . S
C1141 H1148 0.912 1_655 S
C1141 H1149 0.961 1_655 S
C1142 C1140 1.381 . S
C1142 C1143 1.394 . S
C1142 H1150 0.930 . S
C1143 C1142 1.394 . S
C1143 C1144 1.383 . S
C1143 H1151 0.929 . S
C1144 C1143 1.383 . S
C1144 C1145 1.377 . S
C1145 H1129 0.930 . S
C1145 C1144 1.377 . S
C1145 C1146 1.379 . S
C1146 H1130 0.931 . S
C1146 C1140 1.383 . S
C1146 C1145 1.379 . S
H1147 C1141 0.986 . S
H1148 C1141 0.912 1_455 S
H1149 C1141 0.961 1_455 S
H1150 C1142 0.930 . S
H1151 C1143 0.929 . S
H1152 C1160 0.929 . S
H1153 C1162 0.930 . S
H1154 C1164 0.930 . S
H1155 C1167 0.929 . S
H1156 C1170 0.930 . S
H1157 C1172 0.960 . S
H1158 C1172 0.960 . S
H1159 C1172 0.960 . S
C1160 H1152 0.929 . S
C1160 C1161 1.377 . S
C1160 C1162 1.384 . S
C1161 C1160 1.377 . S
C1161 C1167 1.390 . S
C1162 H1153 0.930 . S
C1162 C1160 1.384 . S
C1162 C1163 1.372 . S
C1163 C1162 1.372 . S
C1163 C1164 1.400 . S
C1163 C1168 1.490 . S
C1164 H1154 0.930 . S
C1164 C1163 1.400 . S
C1164 C1167 1.386 . S
H1165 C1181 0.930 . S
H1166 C1182 0.931 . S
C1167 H1155 0.929 . S
C1167 C1161 1.390 . S
C1167 C1164 1.386 . S
C1168 C1163 1.490 . S
C1168 C1170 1.395 . S
C1168 C1171 1.403 . S
H1169 C1175 0.930 . S
C1170 H1156 0.930 . S
C1170 C1168 1.395 . S
C1170 C1173 1.403 . S
C1171 C1168 1.403 . S
C1171 C1172 1.524 . S
C1171 C1175 1.400 . S
C1172 H1157 0.960 . S
C1172 H1158 0.960 . S
C1172 H1159 0.960 . S
C1172 C1171 1.524 . S
C1173 C1170 1.403 . S
C1173 C1174 1.392 . S
C1173 C1177 1.495 . S
C1174 C1173 1.392 . S
C1174 C1175 1.385 . S
C1174 C1176 1.478 . S
C1175 H1169 0.930 . S
C1175 C1171 1.400 . S
C1175 C1174 1.385 . S
C1176 C1174 1.478 . S
C1176 C1178 1.381 . S
C1176 C1182 1.383 . S
C1177 C1173 1.495 . S
C1177 H1183 0.959 . S
C1177 H1184 0.961 . S
C1177 H1185 0.960 . S
C1178 C1176 1.381 . S
C1178 C1179 1.394 . S
C1178 H1186 0.930 . S
C1179 C1178 1.394 . S
C1179 C1180 1.383 . S
C1179 H1187 0.929 . S
C1180 C1179 1.383 . S
C1180 C1181 1.377 . S
C1181 H1165 0.930 . S
C1181 C1180 1.377 . S
C1181 C1182 1.379 . S
C1182 H1166 0.931 . S
C1182 C1176 1.383 . S
C1182 C1181 1.379 . S
H1183 C1177 0.959 . S
H1184 C1177 0.961 . S
H1185 C1177 0.960 . S
H1186 C1178 0.930 . S
H1187 C1179 0.929 . S
H1188 C1196 0.929 . S
H1189 C1198 0.930 . S
H1190 C1200 0.930 . S
H1191 C1203 0.929 . S
H1192 C1206 0.930 . S
H1193 C1208 0.960 . S
H1194 C1208 0.960 . S
H1195 C1208 0.960 . S
C1196 H1188 0.929 . S
C1196 C1197 1.377 . S
C1196 C1198 1.384 . S
C1197 C1196 1.377 . S
C1197 C1203 1.390 . S
C1198 H1189 0.930 . S
C1198 C1196 1.384 . S
C1198 C1199 1.372 . S
C1199 C1198 1.372 . S
C1199 C1200 1.400 . S
C1199 C1204 1.490 . S
C1200 H1190 0.930 . S
C1200 C1199 1.400 . S
C1200 C1203 1.386 . S
H1201 C1217 0.930 . S
H1202 C1218 0.931 . S
C1203 H1191 0.929 . S
C1203 C1197 1.390 . S
C1203 C1200 1.386 . S
C1204 C1199 1.490 . S
C1204 C1206 1.395 . S
C1204 C1207 1.403 . S
H1205 C1211 0.930 1_545 S
C1206 H1192 0.930 . S
C1206 C1204 1.395 . S
C1206 C1209 1.403 . S
C1207 C1204 1.403 . S
C1207 C1208 1.524 . S
C1207 C1211 1.400 . S
C1208 H1193 0.960 . S
C1208 H1194 0.960 . S
C1208 H1195 0.960 . S
C1208 C1207 1.524 . S
C1209 C1206 1.403 . S
C1209 C1210 1.392 . S
C1209 C1213 1.495 . S
C1210 C1209 1.392 . S
C1210 C1211 1.385 . S
C1210 C1212 1.478 1_565 S
C1211 H1205 0.930 1_565 S
C1211 C1207 1.400 . S
C1211 C1210 1.385 . S
C1212 C1210 1.478 1_545 S
C1212 C1214 1.381 . S
C1212 C1218 1.383 . S
C1213 C1209 1.495 . S
C1213 H1219 0.959 . S
C1213 H1220 0.961 . S
C1213 H1221 0.960 . S
C1214 C1212 1.381 . S
C1214 C1215 1.394 . S
C1214 H1222 0.918 1_545 S
C1215 C1214 1.394 . S
C1215 C1216 1.383 . S
C1215 H1223 0.929 . S
C1216 C1215 1.383 . S
C1216 C1217 1.377 . S
C1217 H1201 0.930 . S
C1217 C1216 1.377 . S
C1217 C1218 1.379 . S
C1218 H1202 0.931 . S
C1218 C1212 1.383 . S
C1218 C1217 1.379 . S
H1219 C1213 0.959 . S
H1220 C1213 0.961 . S
H1221 C1213 0.960 . S
H1222 C1214 0.918 1_565 S
H1223 C1215 0.929 . S
H1224 C1232 0.929 . S
H1225 C1234 0.930 . S
H1226 C1236 0.930 . S
H1227 C1239 0.929 . S
H1228 C1242 0.930 . S
H1229 C1244 0.978 . S
H1230 C1244 0.953 1_655 S
H1231 C1244 0.949 1_655 S
C1232 H1224 0.929 . S
C1232 C1233 1.377 . S
C1232 C1234 1.384 . S
C1233 C1232 1.377 . S
C1233 C1239 1.390 . S
C1234 H1225 0.930 . S
C1234 C1232 1.384 . S
C1234 C1235 1.372 . S
C1235 C1234 1.372 . S
C1235 C1236 1.400 . S
C1235 C1240 1.490 . S
C1236 H1226 0.930 . S
C1236 C1235 1.400 . S
C1236 C1239 1.386 . S
H1237 C1253 0.930 . S
H1238 C1254 0.931 . S
C1239 H1227 0.929 . S
C1239 C1233 1.390 . S
C1239 C1236 1.386 . S
C1240 C1235 1.490 . S
C1240 C1242 1.395 . S
C1240 C1243 1.362 1_655 S
H1241 C1247 0.930 . S
C1242 H1228 0.930 . S
C1242 C1240 1.395 . S
C1242 C1245 1.403 1_655 S
C1243 C1240 1.362 1_455 S
C1243 C1244 1.533 . S
C1243 C1247 1.425 . S
C1244 H1229 0.978 . S
C1244 H1230 0.953 1_455 S
C1244 H1231 0.949 1_455 S
C1244 C1243 1.533 . S
C1245 C1242 1.403 1_455 S
C1245 C1246 1.392 . S
C1245 C1249 1.495 . S
C1246 C1245 1.392 . S
C1246 C1247 1.385 . S
C1246 C1248 1.478 . S
C1247 H1241 0.930 . S
C1247 C1243 1.425 . S
C1247 C1246 1.385 . S
C1248 C1246 1.478 . S
C1248 C1250 1.381 . S
C1248 C1254 1.383 . S
C1249 C1245 1.495 . S
C1249 H1255 0.959 1_455 S
C1249 H1256 0.961 . S
C1249 H1257 0.960 . S
C1250 C1248 1.381 . S
C1250 C1251 1.394 . S
C1250 H1258 0.930 . S
C1251 C1250 1.394 . S
C1251 C1252 1.383 . S
C1251 H1259 0.929 . S
C1252 C1251 1.383 . S
C1252 C1253 1.377 . S
C1253 H1237 0.930 . S
C1253 C1252 1.377 . S
C1253 C1254 1.379 . S
C1254 H1238 0.931 . S
C1254 C1248 1.383 . S
C1254 C1253 1.379 . S
H1255 C1249 0.959 1_655 S
H1256 C1249 0.961 . S
H1257 C1249 0.960 . S
H1258 C1250 0.930 . S
H1259 C1251 0.929 . S
C297 N13 1.065 . S
C316 N18 1.012 . S
C333 N45 0.981 . S
C352 N50 1.074 . S
C369 N77 1.108 . S
C388 N82 1.060 . S
C405 C98 2.021 . S
C424 C125 2.032 . S
C441 C130 2.028 . S
C460 C157 2.033 . S
C477 C162 2.031 . S
C496 C189 2.031 . S
C513 C198 2.010 . S
C532 C196 2.018 1_554 S
C549 C253 2.044 . S
C568 C226 2.041 . S
C585 C262 2.050 . S
C604 C260 2.055 . S
C621 C166 1.484 . S
C640 C2 1.480 . S
C657 C61 1.442 . S
C676 C102 1.405 . S
C693 C66 1.485 . S
C712 C134 1.477 . S
C729 C68 1.631 . S
C748 C194 1.607 . S
C765 N242 0.931 . S
C784 C4 0.973 . S
C801 C258 1.564 . S
C820 C38 1.578 . S
C837 N274 1.090 . S
C856 C29 1.121 . S
C873 C34 1.096 . S
C892 N210 1.022 . S
C909 C228 1.502 . S
C928 C93 1.488 . S
C945 C70 1.169 . S
C964 N109 1.119 . S
C981 N141 1.026 . S
C1000 C6 1.045 . S
C1017 C36 1.418 . S
C1036 N173 1.349 . S
C1053 N269 0.390 . S
C1072 N114 0.439 . S
C1089 N205 0.560 . S
C1108 N146 0.533 . S
C1125 C230 0.871 . S
C1144 N178 0.875 . S
C1161 C221 1.092 . S
C1180 C164 1.103 . S
C1197 C100 0.849 . S
C1216 N237 0.853 . S
C1233 C285 0.743 . S
C1252 C132 0.772 . S
