# Generated by pormake.
# Topology uow, (4)-cn, num edge types: 1
# Building blocks:
#     Node 0, Type 0, BuildingBlock: QUQFOY_clean_sbu_1, # of connection points: 4
#     Node 1, Type 0, BuildingBlock: QUQFOY_clean_sbu_1, # of connection points: 4
#     Node 2, Type 0, BuildingBlock: QUQFOY_clean_sbu_1, # of connection points: 4
#     Node 3, Type 0, BuildingBlock: QUQFOY_clean_sbu_1, # of connection points: 4
#     Node 4, Type 0, BuildingBlock: QUQFOY_clean_sbu_1, # of connection points: 4
#     Node 5, Type 0, BuildingBlock: QUQFOY_clean_sbu_1, # of connection points: 4
#     Node 6, Type 0, BuildingBlock: QUQFOY_clean_sbu_1, # of connection points: 4
#     Node 7, Type 0, BuildingBlock: QUQFOY_clean_sbu_1, # of connection points: 4
#     Node 8, Type 0, BuildingBlock: QUQFOY_clean_sbu_1, # of connection points: 4
#     Node 9, Type 0, BuildingBlock: QUQFOY_clean_sbu_1, # of connection points: 4
#     Node 10, Type 0, BuildingBlock: QUQFOY_clean_sbu_1, # of connection points: 4
#     Node 11, Type 0, BuildingBlock: QUQFOY_clean_sbu_1, # of connection points: 4
#     Node 12, Type 0, BuildingBlock: QUQFOY_clean_sbu_1, # of connection points: 4
#     Node 13, Type 0, BuildingBlock: QUQFOY_clean_sbu_1, # of connection points: 4
#     Node 14, Type 0, BuildingBlock: QUQFOY_clean_sbu_1, # of connection points: 4
#     Node 15, Type 0, BuildingBlock: QUQFOY_clean_sbu_1, # of connection points: 4
#     Node 16, Type 0, BuildingBlock: QUQFOY_clean_sbu_1, # of connection points: 4
#     Node 17, Type 0, BuildingBlock: QUQFOY_clean_sbu_1, # of connection points: 4
#     Node 18, Type 0, BuildingBlock: QUQFOY_clean_sbu_1, # of connection points: 4
#     Node 19, Type 0, BuildingBlock: QUQFOY_clean_sbu_1, # of connection points: 4
#     Node 20, Type 0, BuildingBlock: QUQFOY_clean_sbu_1, # of connection points: 4
#     Node 21, Type 0, BuildingBlock: QUQFOY_clean_sbu_1, # of connection points: 4
#     Node 22, Type 0, BuildingBlock: QUQFOY_clean_sbu_1, # of connection points: 4
#     Node 23, Type 0, BuildingBlock: QUQFOY_clean_sbu_1, # of connection points: 4
#     Node 24, Type 0, BuildingBlock: QUQFOY_clean_sbu_1, # of connection points: 4
#     Node 25, Type 0, BuildingBlock: QUQFOY_clean_sbu_1, # of connection points: 4
#     Node 26, Type 0, BuildingBlock: QUQFOY_clean_sbu_1, # of connection points: 4
#     Node 27, Type 0, BuildingBlock: QUQFOY_clean_sbu_1, # of connection points: 4
#     Node 28, Type 0, BuildingBlock: QUQFOY_clean_sbu_1, # of connection points: 4
#     Node 29, Type 0, BuildingBlock: QUQFOY_clean_sbu_1, # of connection points: 4
#     Node 30, Type 0, BuildingBlock: QUQFOY_clean_sbu_1, # of connection points: 4
#     Node 31, Type 0, BuildingBlock: QUQFOY_clean_sbu_1, # of connection points: 4
#     Edge 32, Type (0, 0), BuildingBlock: TEMPAE_clean_linker_10, # of connection points: 2
#     Edge 33, Type (0, 0), BuildingBlock: TEMPAE_clean_linker_10, # of connection points: 2
#     Edge 34, Type (0, 0), BuildingBlock: TEMPAE_clean_linker_10, # of connection points: 2
#     Edge 35, Type (0, 0), BuildingBlock: TEMPAE_clean_linker_10, # of connection points: 2
#     Edge 36, Type (0, 0), BuildingBlock: TEMPAE_clean_linker_10, # of connection points: 2
#     Edge 37, Type (0, 0), BuildingBlock: TEMPAE_clean_linker_10, # of connection points: 2
#     Edge 38, Type (0, 0), BuildingBlock: TEMPAE_clean_linker_10, # of connection points: 2
#     Edge 39, Type (0, 0), BuildingBlock: TEMPAE_clean_linker_10, # of connection points: 2
#     Edge 40, Type (0, 0), BuildingBlock: TEMPAE_clean_linker_10, # of connection points: 2
#     Edge 41, Type (0, 0), BuildingBlock: TEMPAE_clean_linker_10, # of connection points: 2
#     Edge 42, Type (0, 0), BuildingBlock: TEMPAE_clean_linker_10, # of connection points: 2
#     Edge 43, Type (0, 0), BuildingBlock: TEMPAE_clean_linker_10, # of connection points: 2
#     Edge 44, Type (0, 0), BuildingBlock: TEMPAE_clean_linker_10, # of connection points: 2
#     Edge 45, Type (0, 0), BuildingBlock: TEMPAE_clean_linker_10, # of connection points: 2
#     Edge 46, Type (0, 0), BuildingBlock: TEMPAE_clean_linker_10, # of connection points: 2
#     Edge 47, Type (0, 0), BuildingBlock: TEMPAE_clean_linker_10, # of connection points: 2
#     Edge 48, Type (0, 0), BuildingBlock: TEMPAE_clean_linker_10, # of connection points: 2
#     Edge 49, Type (0, 0), BuildingBlock: TEMPAE_clean_linker_10, # of connection points: 2
#     Edge 50, Type (0, 0), BuildingBlock: TEMPAE_clean_linker_10, # of connection points: 2
#     Edge 51, Type (0, 0), BuildingBlock: TEMPAE_clean_linker_10, # of connection points: 2
#     Edge 52, Type (0, 0), BuildingBlock: TEMPAE_clean_linker_10, # of connection points: 2
#     Edge 53, Type (0, 0), BuildingBlock: TEMPAE_clean_linker_10, # of connection points: 2
#     Edge 54, Type (0, 0), BuildingBlock: TEMPAE_clean_linker_10, # of connection points: 2
#     Edge 55, Type (0, 0), BuildingBlock: TEMPAE_clean_linker_10, # of connection points: 2
#     Edge 56, Type (0, 0), BuildingBlock: TEMPAE_clean_linker_10, # of connection points: 2
#     Edge 57, Type (0, 0), BuildingBlock: TEMPAE_clean_linker_10, # of connection points: 2
#     Edge 58, Type (0, 0), BuildingBlock: TEMPAE_clean_linker_10, # of connection points: 2
#     Edge 59, Type (0, 0), BuildingBlock: TEMPAE_clean_linker_10, # of connection points: 2
#     Edge 60, Type (0, 0), BuildingBlock: TEMPAE_clean_linker_10, # of connection points: 2
#     Edge 61, Type (0, 0), BuildingBlock: TEMPAE_clean_linker_10, # of connection points: 2
#     Edge 62, Type (0, 0), BuildingBlock: TEMPAE_clean_linker_10, # of connection points: 2
#     Edge 63, Type (0, 0), BuildingBlock: TEMPAE_clean_linker_10, # of connection points: 2
#     Edge 64, Type (0, 0), BuildingBlock: TEMPAE_clean_linker_10, # of connection points: 2
#     Edge 65, Type (0, 0), BuildingBlock: TEMPAE_clean_linker_10, # of connection points: 2
#     Edge 66, Type (0, 0), BuildingBlock: TEMPAE_clean_linker_10, # of connection points: 2
#     Edge 67, Type (0, 0), BuildingBlock: TEMPAE_clean_linker_10, # of connection points: 2
#     Edge 68, Type (0, 0), BuildingBlock: TEMPAE_clean_linker_10, # of connection points: 2
#     Edge 69, Type (0, 0), BuildingBlock: TEMPAE_clean_linker_10, # of connection points: 2
#     Edge 70, Type (0, 0), BuildingBlock: TEMPAE_clean_linker_10, # of connection points: 2
#     Edge 71, Type (0, 0), BuildingBlock: TEMPAE_clean_linker_10, # of connection points: 2
#     Edge 72, Type (0, 0), BuildingBlock: TEMPAE_clean_linker_10, # of connection points: 2
#     Edge 73, Type (0, 0), BuildingBlock: TEMPAE_clean_linker_10, # of connection points: 2
#     Edge 74, Type (0, 0), BuildingBlock: TEMPAE_clean_linker_10, # of connection points: 2
#     Edge 75, Type (0, 0), BuildingBlock: TEMPAE_clean_linker_10, # of connection points: 2
#     Edge 76, Type (0, 0), BuildingBlock: TEMPAE_clean_linker_10, # of connection points: 2
#     Edge 77, Type (0, 0), BuildingBlock: TEMPAE_clean_linker_10, # of connection points: 2
#     Edge 78, Type (0, 0), BuildingBlock: TEMPAE_clean_linker_10, # of connection points: 2
#     Edge 79, Type (0, 0), BuildingBlock: TEMPAE_clean_linker_10, # of connection points: 2
#     Edge 80, Type (0, 0), BuildingBlock: TEMPAE_clean_linker_10, # of connection points: 2
#     Edge 81, Type (0, 0), BuildingBlock: TEMPAE_clean_linker_10, # of connection points: 2
#     Edge 82, Type (0, 0), BuildingBlock: TEMPAE_clean_linker_10, # of connection points: 2
#     Edge 83, Type (0, 0), BuildingBlock: TEMPAE_clean_linker_10, # of connection points: 2
#     Edge 84, Type (0, 0), BuildingBlock: TEMPAE_clean_linker_10, # of connection points: 2
#     Edge 85, Type (0, 0), BuildingBlock: TEMPAE_clean_linker_10, # of connection points: 2
#     Edge 86, Type (0, 0), BuildingBlock: TEMPAE_clean_linker_10, # of connection points: 2
#     Edge 87, Type (0, 0), BuildingBlock: TEMPAE_clean_linker_10, # of connection points: 2
#     Edge 88, Type (0, 0), BuildingBlock: TEMPAE_clean_linker_10, # of connection points: 2
#     Edge 89, Type (0, 0), BuildingBlock: TEMPAE_clean_linker_10, # of connection points: 2
#     Edge 90, Type (0, 0), BuildingBlock: TEMPAE_clean_linker_10, # of connection points: 2
#     Edge 91, Type (0, 0), BuildingBlock: TEMPAE_clean_linker_10, # of connection points: 2
#     Edge 92, Type (0, 0), BuildingBlock: TEMPAE_clean_linker_10, # of connection points: 2
#     Edge 93, Type (0, 0), BuildingBlock: TEMPAE_clean_linker_10, # of connection points: 2
#     Edge 94, Type (0, 0), BuildingBlock: TEMPAE_clean_linker_10, # of connection points: 2
#     Edge 95, Type (0, 0), BuildingBlock: TEMPAE_clean_linker_10, # of connection points: 2
# Relax obj value: 0.134
# Max RMSD: 0.127
# Mean RMSD: 0.127
data_MOF--net-uow--node1-QUQFOY_clean_sbu_1--edge1-TEMPAE_clean_linker_10
_symmetry_space_group_name_H-M    P1
_symmetry_Int_Tables_number       1
_symmetry_cell_setting            triclinic
loop_
_symmetry_equiv_pos_as_xyz
'x, y, z'
_cell_length_a     65.231346
_cell_length_b     65.240344
_cell_length_c     44.919113
_cell_angle_alpha  90.011186
_cell_angle_beta   90.010099
_cell_angle_gamma 90.007184
loop_
_atom_site_label
_atom_site_type_symbol
_atom_site_fract_x
_atom_site_fract_y
_atom_site_fract_z
_atom_type_partial_charge
O0 O 0.01682 0.39077 0.31328 0.0
Cd1 Cd 0.04746 0.39823 0.30839 0.0
Cd2 Cd 0.04617 0.36521 0.2711 0.0
O3 O 0.01517 0.36563 0.28052 0.0
O4 O 0.04931 0.42793 0.3184 0.0
O5 O 0.05671 0.41546 0.27377 0.0
C6 C 0.05467 0.43113 0.29114 0.0
C7 C 0.05748 0.35577 0.22347 0.0
C8 C 0.00654 0.3771 0.29968 0.0
C9 C 0.07223 0.36278 0.32767 0.0
O10 O 0.06479 0.35446 0.3045 0.0
O11 O 0.0681 0.38138 0.3337 0.0
O12 O 0.04939 0.34271 0.24143 0.0
O13 O 0.0584 0.37466 0.23198 0.0
O14 O 0.86304 0.77131 0.57045 0.0
Cd15 Cd 0.85714 0.8016 0.55969 0.0
Cd16 Cd 0.88819 0.79581 0.52119 0.0
O17 O 0.88503 0.76557 0.53404 0.0
O18 O 0.82777 0.80813 0.56797 0.0
O19 O 0.84086 0.80628 0.52245 0.0
C20 C 0.82511 0.80894 0.53951 0.0
C21 C 0.89658 0.80445 0.47202 0.0
C22 C 0.8747 0.75913 0.55619 0.0
C23 C 0.89483 0.82503 0.57298 0.0
O24 O 0.9022 0.81473 0.55152 0.0
O25 O 0.87592 0.82348 0.57944 0.0
O26 O 0.90945 0.79542 0.48932 0.0
O27 O 0.87831 0.80764 0.48206 0.0
O28 O 0.48769 0.61506 0.81054 0.0
Cd29 Cd 0.45691 0.6083 0.80491 0.0
Cd30 Cd 0.45956 0.64072 0.76702 0.0
O31 O 0.49047 0.6394 0.77671 0.0
O32 O 0.45413 0.57873 0.81536 0.0
O33 O 0.44774 0.59102 0.77029 0.0
C34 C 0.4491 0.57544 0.78799 0.0
C35 C 0.44866 0.64965 0.71903 0.0
C36 C 0.49855 0.62809 0.79657 0.0
C37 C 0.43299 0.64468 0.82277 0.0
O38 O 0.44119 0.65262 0.79988 0.0
O39 O 0.43621 0.62593 0.82903 0.0
O40 O 0.4572 0.66274 0.7365 0.0
O41 O 0.44706 0.63097 0.72826 0.0
O42 O 0.64363 0.23699 0.06485 0.0
Cd43 Cd 0.6486 0.2065 0.05422 0.0
Cd44 Cd 0.6183 0.21319 0.01607 0.0
O45 O 0.62349 0.24358 0.02658 0.0
O46 O 0.6776 0.19886 0.06354 0.0
O47 O 0.66535 0.20143 0.01761 0.0
C48 C 0.68069 0.19812 0.03516 0.0
C49 C 0.61321 0.20146 0.96765 0.0
C50 C 0.6333 0.24969 0.04942 0.0
C51 C 0.60944 0.18535 0.06771 0.0
O52 O 0.60225 0.19668 0.04721 0.0
O53 O 0.62862 0.18521 0.07288 0.0
O54 O 0.60004 0.21326 0.98038 0.0
O55 O 0.62989 0.19708 0.98173 0.0
O56 O 0.01472 0.61442 0.18582 0.0
Cd57 Cd 0.04547 0.60736 0.19114 0.0
Cd58 Cd 0.04326 0.63971 0.22925 0.0
O59 O 0.01228 0.63849 0.22011 0.0
O60 O 0.04806 0.57774 0.18092 0.0
O61 O 0.05466 0.5902 0.22584 0.0
C62 C 0.05319 0.57455 0.20829 0.0
C63 C 0.05453 0.6491 0.27687 0.0
C64 C 0.00403 0.6274 0.20015 0.0
C65 C 0.06954 0.64354 0.17316 0.0
O66 O 0.06144 0.65149 0.19612 0.0
O67 O 0.06623 0.62481 0.16689 0.0
O68 O 0.04581 0.66201 0.2593 0.0
O69 O 0.05606 0.63034 0.26801 0.0
O70 O 0.64213 0.76899 0.4329 0.0
Cd71 Cd 0.64808 0.79942 0.44302 0.0
Cd72 Cd 0.61621 0.79416 0.48053 0.0
O73 O 0.61935 0.76378 0.46847 0.0
O74 O 0.67749 0.80575 0.43473 0.0
O75 O 0.66429 0.80466 0.48023 0.0
C76 C 0.68006 0.80709 0.46316 0.0
C77 C 0.60694 0.80346 0.52906 0.0
C78 C 0.63009 0.75703 0.44693 0.0
C79 C 0.61076 0.823 0.42804 0.0
O80 O 0.60293 0.8129 0.44933 0.0
O81 O 0.62976 0.82126 0.42229 0.0
O82 O 0.59432 0.79436 0.51144 0.0
O83 O 0.62546 0.80628 0.51979 0.0
O84 O 0.48763 0.39255 0.6839 0.0
Cd85 Cd 0.45682 0.39899 0.68921 0.0
Cd86 Cd 0.45954 0.3664 0.727 0.0
O87 O 0.49046 0.36788 0.71721 0.0
O88 O 0.45395 0.42853 0.6787 0.0
O89 O 0.44735 0.41623 0.7237 0.0
C90 C 0.44879 0.43181 0.70603 0.0
C91 C 0.44872 0.35729 0.77499 0.0
C92 C 0.49851 0.37943 0.69764 0.0
C93 C 0.43324 0.36248 0.67087 0.0
O94 O 0.44118 0.3546 0.69401 0.0
O95 O 0.43657 0.3812 0.66456 0.0
O96 O 0.45722 0.34426 0.7574 0.0
O97 O 0.4471 0.376 0.76589 0.0
O98 O 0.86255 0.23388 0.92693 0.0
Cd99 Cd 0.85728 0.20353 0.93812 0.0
Cd100 Cd 0.88836 0.21009 0.97598 0.0
O101 O 0.88442 0.24023 0.96328 0.0
O102 O 0.82796 0.19644 0.9306 0.0
O103 O 0.84153 0.19881 0.9758 0.0
C104 C 0.82565 0.19577 0.95913 0.0
C105 C 0.89726 0.20153 0.02492 0.0
C106 C 0.87393 0.24638 0.94112 0.0
C107 C 0.89524 0.18079 0.92447 0.0
O108 O 0.90259 0.19151 0.94549 0.0
O109 O 0.87622 0.18176 0.91846 0.0
O110 O 0.90981 0.21091 0.00751 0.0
O111 O 0.87898 0.19799 0.01515 0.0
O112 O 0.98551 0.61179 0.67749 0.0
Cd113 Cd 0.95511 0.60633 0.68819 0.0
Cd114 Cd 0.96126 0.63729 0.72659 0.0
O115 O 0.99148 0.63367 0.71397 0.0
O116 O 0.94814 0.57704 0.68018 0.0
O117 O 0.95014 0.59034 0.72558 0.0
C118 C 0.94723 0.57456 0.70868 0.0
C119 C 0.95259 0.6458 0.77568 0.0
C120 C 0.99783 0.62326 0.69185 0.0
C121 C 0.93217 0.64428 0.6748 0.0
O122 O 0.9426 0.65156 0.69618 0.0
O123 O 0.93345 0.62533 0.66842 0.0
O124 O 0.96188 0.65853 0.75845 0.0
O125 O 0.94917 0.62758 0.76561 0.0
O126 O 0.14219 0.24094 0.43687 0.0
Cd127 Cd 0.14938 0.21016 0.44097 0.0
Cd128 Cd 0.11651 0.21136 0.47851 0.0
O129 O 0.11724 0.24244 0.46994 0.0
O130 O 0.17903 0.20806 0.43072 0.0
O131 O 0.16661 0.20033 0.47526 0.0
C132 C 0.18226 0.20234 0.45782 0.0
C133 C 0.10704 0.19962 0.52588 0.0
C134 C 0.12869 0.25119 0.45088 0.0
C135 C 0.11357 0.18596 0.42141 0.0
O136 O 0.10538 0.19328 0.44475 0.0
O137 O 0.13222 0.18989 0.4154 0.0
O138 O 0.09404 0.20808 0.50818 0.0
O139 O 0.12589 0.19855 0.51726 0.0
O140 O 0.52132 0.39089 0.18384 0.0
Cd141 Cd 0.55199 0.39757 0.1908 0.0
Cd142 Cd 0.54846 0.36473 0.22795 0.0
O143 O 0.51771 0.36637 0.21723 0.0
O144 O 0.55489 0.42718 0.18059 0.0
O145 O 0.5605 0.41483 0.22583 0.0
C146 C 0.55938 0.43044 0.20817 0.0
C147 C 0.55869 0.35553 0.27618 0.0
C148 C 0.51011 0.37785 0.19718 0.0
C149 C 0.57591 0.36113 0.17303 0.0
O150 O 0.5672 0.353 0.1954 0.0
O151 O 0.57306 0.38001 0.16719 0.0
O152 O 0.55032 0.34255 0.25837 0.0
O153 O 0.5605 0.37424 0.26715 0.0
O154 O 0.36379 0.76844 0.93234 0.0
Cd155 Cd 0.35774 0.79881 0.94261 0.0
Cd156 Cd 0.38961 0.79363 0.97995 0.0
O157 O 0.38643 0.76322 0.96808 0.0
O158 O 0.32827 0.80499 0.9347 0.0
O159 O 0.34177 0.80382 0.98004 0.0
C160 C 0.32587 0.80619 0.96318 0.0
C161 C 0.39916 0.80306 0.02831 0.0
C162 C 0.37577 0.75648 0.94646 0.0
C163 C 0.39492 0.82242 0.92739 0.0
O164 O 0.40281 0.81227 0.94858 0.0
O165 O 0.37588 0.82076 0.92183 0.0
O166 O 0.41167 0.79387 0.01063 0.0
O167 O 0.38059 0.80588 0.01922 0.0
O168 O 0.98389 0.39258 0.81898 0.0
Cd169 Cd 0.95364 0.39828 0.80768 0.0
Cd170 Cd 0.95985 0.36694 0.76979 0.0
O171 O 0.98999 0.37033 0.78302 0.0
O172 O 0.94691 0.42766 0.81542 0.0
O173 O 0.94909 0.41423 0.77012 0.0
C174 C 0.94622 0.43008 0.78691 0.0
C175 C 0.95144 0.35792 0.72079 0.0
C176 C 0.99623 0.38086 0.8051 0.0
C177 C 0.93021 0.36068 0.82116 0.0
O178 O 0.94076 0.35318 0.80006 0.0
O179 O 0.93163 0.37964 0.82734 0.0
O180 O 0.96047 0.3453 0.73849 0.0
O181 O 0.94822 0.37632 0.73029 0.0
O182 O 0.36624 0.23798 0.56186 0.0
Cd183 Cd 0.35911 0.20727 0.55623 0.0
Cd184 Cd 0.39207 0.20959 0.51908 0.0
O185 O 0.39089 0.24052 0.52846 0.0
O186 O 0.3295 0.20501 0.56671 0.0
O187 O 0.34164 0.19839 0.52164 0.0
C188 C 0.3261 0.20005 0.53934 0.0
C189 C 0.40134 0.1984 0.47137 0.0
C190 C 0.37947 0.24871 0.54807 0.0
C191 C 0.39512 0.18307 0.57497 0.0
O192 O 0.40345 0.19127 0.55237 0.0
O193 O 0.37629 0.18632 0.58062 0.0
O194 O 0.41437 0.20686 0.48903 0.0
O195 O 0.38255 0.19704 0.48024 0.0
O196 O 0.51952 0.61362 0.31341 0.0
Cd197 Cd 0.55029 0.60694 0.30749 0.0
Cd198 Cd 0.54729 0.63893 0.2691 0.0
O199 O 0.51641 0.63753 0.279 0.0
O200 O 0.55326 0.57737 0.31792 0.0
O201 O 0.55934 0.58969 0.27278 0.0
C202 C 0.55813 0.5741 0.29048 0.0
C203 C 0.55803 0.64741 0.22086 0.0
C204 C 0.50852 0.62643 0.29925 0.0
C205 C 0.57396 0.64364 0.32464 0.0
O206 O 0.56561 0.6513 0.30165 0.0
O207 O 0.57098 0.6249 0.33121 0.0
O208 O 0.54946 0.66064 0.23808 0.0
O209 O 0.55976 0.62885 0.2305 0.0
O210 O 0.14262 0.76678 0.06831 0.0
Cd211 Cd 0.14915 0.7973 0.06013 0.0
Cd212 Cd 0.11717 0.79397 0.02206 0.0
O213 O 0.11944 0.76327 0.03285 0.0
O214 O 0.17868 0.80285 0.06857 0.0
O215 O 0.16524 0.80342 0.02316 0.0
C216 C 0.18113 0.80504 0.04023 0.0
C217 C 0.10775 0.80404 0.97385 0.0
C218 C 0.13012 0.7556 0.05378 0.0
C219 C 0.11247 0.82143 0.07642 0.0
O220 O 0.10453 0.81252 0.0541 0.0
O221 O 0.1313 0.81867 0.08252 0.0
O222 O 0.09503 0.79517 0.99153 0.0
O223 O 0.1264 0.80631 0.9829 0.0
O224 O 0.51929 0.89358 0.82088 0.0
Cd225 Cd 0.54969 0.89931 0.81068 0.0
Cd226 Cd 0.54435 0.86764 0.77305 0.0
O227 O 0.51397 0.87098 0.78512 0.0
O228 O 0.5562 0.92874 0.81822 0.0
O229 O 0.55496 0.91496 0.77306 0.0
C230 C 0.55748 0.93094 0.78972 0.0
C231 C 0.55344 0.85811 0.72451 0.0
C232 C 0.50727 0.88166 0.80675 0.0
C233 C 0.57301 0.86198 0.82581 0.0
O234 O 0.56302 0.85428 0.80429 0.0
O235 O 0.57129 0.88096 0.83171 0.0
O236 O 0.54429 0.84564 0.74227 0.0
O237 O 0.55647 0.87663 0.73366 0.0
O238 O 0.36182 0.27216 0.06997 0.0
Cd239 Cd 0.35666 0.30271 0.06022 0.0
Cd240 Cd 0.38804 0.29713 0.02222 0.0
O241 O 0.38439 0.26676 0.0342 0.0
O242 O 0.32729 0.30966 0.06769 0.0
O243 O 0.34114 0.30833 0.02259 0.0
C244 C 0.32515 0.31096 0.03916 0.0
C245 C 0.39669 0.30621 0.9733 0.0
C246 C 0.37358 0.26008 0.05571 0.0
C247 C 0.39457 0.32532 0.07528 0.0
O248 O 0.40197 0.3155 0.05338 0.0
O249 O 0.3756 0.32376 0.08146 0.0
O250 O 0.40945 0.29696 0.99053 0.0
O251 O 0.37841 0.30945 0.98328 0.0
O252 O 0.99165 0.11501 0.31215 0.0
Cd253 Cd 0.96095 0.10778 0.30676 0.0
Cd254 Cd 0.96293 0.14023 0.26883 0.0
O255 O 0.99388 0.13935 0.27825 0.0
O256 O 0.95848 0.0781 0.31666 0.0
O257 O 0.9518 0.09076 0.27189 0.0
C258 C 0.95332 0.07503 0.28927 0.0
C259 C 0.95175 0.14953 0.22114 0.0
C260 C 1.00223 0.12821 0.29805 0.0
C261 C 0.93649 0.14369 0.32483 0.0
O262 O 0.94446 0.15174 0.30184 0.0
O263 O 0.94007 0.12503 0.33113 0.0
O264 O 0.96022 0.16253 0.23883 0.0
O265 O 0.95043 0.13073 0.22993 0.0
O266 O 0.1443 0.7343 0.57045 0.0
Cd267 Cd 0.14988 0.704 0.55926 0.0
Cd268 Cd 0.11861 0.71013 0.52147 0.0
O269 O 0.12212 0.7403 0.53436 0.0
O270 O 0.17933 0.69714 0.56614 0.0
O271 O 0.16527 0.69944 0.52124 0.0
C272 C 0.18134 0.69648 0.53755 0.0
C273 C 0.10952 0.70158 0.47258 0.0
C274 C 0.13264 0.74661 0.5564 0.0
C275 C 0.11224 0.68073 0.57305 0.0
O276 O 0.10476 0.69124 0.55192 0.0
O277 O 0.13123 0.68207 0.57915 0.0
O278 O 0.09695 0.71072 0.49022 0.0
O279 O 0.12791 0.6983 0.48207 0.0
O280 O 0.5179 0.11287 0.6828 0.0
Cd281 Cd 0.54833 0.10771 0.69349 0.0
Cd282 Cd 0.54205 0.13813 0.73161 0.0
O283 O 0.51163 0.13313 0.72102 0.0
O284 O 0.55575 0.07862 0.6845 0.0
O285 O 0.55329 0.09114 0.7303 0.0
C286 C 0.55647 0.07567 0.71291 0.0
C287 C 0.55328 0.14362 0.78031 0.0
C288 C 0.50535 0.12336 0.69826 0.0
C289 C 0.56991 0.1466 0.67981 0.0
O290 O 0.55881 0.15395 0.70045 0.0
O291 O 0.56972 0.12743 0.6746 0.0
O292 O 0.54153 0.1566 0.76706 0.0
O293 O 0.55789 0.12689 0.76649 0.0
O294 O 0.14413 0.272 0.92709 0.0
Cd295 Cd 0.14945 0.30234 0.93825 0.0
Cd296 Cd 0.11856 0.29583 0.97659 0.0
O297 O 0.12235 0.26569 0.96356 0.0
O298 O 0.17875 0.30955 0.93059 0.0
O299 O 0.16529 0.30713 0.97584 0.0
C300 C 0.18112 0.31026 0.95912 0.0
C301 C 0.11015 0.30422 0.02584 0.0
C302 C 0.13273 0.25953 0.9413 0.0
C303 C 0.11136 0.32511 0.9251 0.0
O304 O 0.10415 0.31455 0.94639 0.0
O305 O 0.13032 0.32398 0.91871 0.0
O306 O 0.09741 0.29493 0.0086 0.0
O307 O 0.12831 0.3078 0.01568 0.0
O308 O 0.98888 0.89143 0.18394 0.0
Cd309 Cd 0.95824 0.89875 0.18895 0.0
Cd310 Cd 0.9598 0.86591 0.22659 0.0
O311 O 0.99079 0.86659 0.21714 0.0
O312 O 0.95622 0.92841 0.17875 0.0
O313 O 0.94906 0.91605 0.22353 0.0
C314 C 0.951 0.93168 0.20605 0.0
C315 C 0.94865 0.85644 0.27429 0.0
C316 C 0.99929 0.87796 0.19774 0.0
C317 C 0.93369 0.86303 0.17009 0.0
O318 O 0.94125 0.85486 0.19328 0.0
O319 O 0.93762 0.88165 0.16392 0.0
O320 O 0.95687 0.84345 0.25636 0.0
O321 O 0.94748 0.87529 0.26569 0.0
O322 O 0.3619 0.73597 0.42481 0.0
Cd323 Cd 0.35621 0.70541 0.43398 0.0
Cd324 Cd 0.38761 0.7101 0.47223 0.0
O325 O 0.38455 0.74061 0.4607 0.0
O326 O 0.32673 0.69893 0.42658 0.0
O327 O 0.34077 0.69964 0.4716 0.0
C328 C 0.32469 0.69733 0.45509 0.0
C329 C 0.39632 0.70071 0.52099 0.0
C330 C 0.37389 0.74769 0.43932 0.0
C331 C 0.39365 0.68212 0.41881 0.0
O332 O 0.40119 0.69162 0.44091 0.0
O333 O 0.37476 0.68416 0.41248 0.0
O334 O 0.40916 0.70979 0.5037 0.0
O335 O 0.37795 0.69781 0.51117 0.0
O336 O 0.48351 0.11324 0.17296 0.0
Cd337 Cd 0.45355 0.107 0.18514 0.0
Cd338 Cd 0.45986 0.13774 0.22367 0.0
O339 O 0.48988 0.13479 0.20971 0.0
O340 O 0.447 0.07752 0.17786 0.0
O341 O 0.44979 0.09118 0.22296 0.0
C342 C 0.4468 0.07522 0.20642 0.0
C343 C 0.45203 0.14611 0.27312 0.0
C344 C 0.49592 0.12482 0.18697 0.0
C345 C 0.42971 0.14448 0.17304 0.0
O346 O 0.44041 0.15179 0.19413 0.0
O347 O 0.43115 0.12559 0.16639 0.0
O348 O 0.46077 0.15899 0.25553 0.0
O349 O 0.44872 0.12784 0.26319 0.0
O350 O 0.64313 0.73668 0.92954 0.0
Cd351 Cd 0.64971 0.70593 0.9353 0.0
Cd352 Cd 0.61781 0.70872 0.97375 0.0
O353 O 0.61937 0.73964 0.96418 0.0
O354 O 0.6793 0.7029 0.92524 0.0
O355 O 0.6667 0.69694 0.97026 0.0
C356 C 0.68241 0.69815 0.95278 0.0
C357 C 0.60915 0.69797 0.02195 0.0
C358 C 0.63042 0.74763 0.94395 0.0
C359 C 0.61307 0.68236 0.91786 0.0
O360 O 0.60542 0.69052 0.94101 0.0
O361 O 0.63179 0.68545 0.91128 0.0
O362 O 0.59603 0.70665 0.00469 0.0
O363 O 0.62772 0.69608 0.01235 0.0
O364 O 0.02183 0.89241 0.67982 0.0
Cd365 Cd 0.05217 0.89806 0.69074 0.0
Cd366 Cd 0.04616 0.86657 0.72853 0.0
O367 O 0.01596 0.8699 0.71551 0.0
O368 O 0.05889 0.92742 0.68279 0.0
O369 O 0.05705 0.91409 0.72817 0.0
C370 C 0.05983 0.9299 0.71128 0.0
C371 C 0.05475 0.8576 0.77747 0.0
C372 C 0.00959 0.88056 0.69366 0.0
C373 C 0.07556 0.86045 0.67686 0.0
O374 O 0.06518 0.8529 0.69807 0.0
O375 O 0.07403 0.87942 0.67072 0.0
O376 O 0.04572 0.84494 0.75984 0.0
O377 O 0.0579 0.876 0.76794 0.0
O378 O 0.86335 0.26639 0.43065 0.0
Cd379 Cd 0.85695 0.29696 0.43871 0.0
Cd380 Cd 0.88906 0.29379 0.47643 0.0
O381 O 0.88683 0.26306 0.46573 0.0
O382 O 0.82733 0.30262 0.43107 0.0
O383 O 0.84137 0.30324 0.47609 0.0
C384 C 0.82526 0.30489 0.45947 0.0
C385 C 0.89855 0.30397 0.52456 0.0
C386 C 0.876 0.2553 0.44502 0.0
C387 C 0.89355 0.32105 0.42186 0.0
O388 O 0.90157 0.31229 0.44424 0.0
O389 O 0.87472 0.3182 0.41589 0.0
O390 O 0.91127 0.2951 0.50686 0.0
O391 O 0.87988 0.30618 0.51557 0.0
O392 O 0.48638 0.89399 0.32033 0.0
Cd393 Cd 0.45611 0.89988 0.30926 0.0
Cd394 Cd 0.46199 0.86846 0.27133 0.0
O395 O 0.49219 0.87172 0.28429 0.0
O396 O 0.44952 0.92934 0.31659 0.0
O397 O 0.45142 0.91555 0.27149 0.0
C398 C 0.44865 0.93153 0.28804 0.0
C399 C 0.45343 0.85882 0.22265 0.0
C400 C 0.49858 0.88219 0.30634 0.0
C401 C 0.4325 0.86249 0.32303 0.0
O402 O 0.44291 0.85494 0.30184 0.0
O403 O 0.43408 0.88144 0.32924 0.0
O404 O 0.46248 0.84642 0.24063 0.0
O405 O 0.4503 0.87736 0.23162 0.0
O406 O 0.86448 0.7403 0.06103 0.0
Cd407 Cd 0.85744 0.7095 0.05667 0.0
Cd408 Cd 0.89044 0.71083 0.01962 0.0
O409 O 0.88963 0.74189 0.02831 0.0
O410 O 0.82765 0.70719 0.06595 0.0
O411 O 0.84083 0.69957 0.02181 0.0
C412 C 0.8249 0.70145 0.03874 0.0
C413 C 0.90004 0.69915 0.97228 0.0
C414 C 0.87805 0.75059 0.04725 0.0
C415 C 0.89312 0.68534 0.07665 0.0
O416 O 0.90142 0.69272 0.05344 0.0
O417 O 0.87443 0.68924 0.08246 0.0
O418 O 0.91299 0.70759 0.99008 0.0
O419 O 0.88116 0.69806 0.98079 0.0
O420 O 0.02251 0.11175 0.82098 0.0
Cd421 Cd 0.05284 0.10629 0.80984 0.0
Cd422 Cd 0.04634 0.13711 0.77146 0.0
O423 O 0.01617 0.1332 0.78412 0.0
O424 O 0.05986 0.077 0.81774 0.0
O425 O 0.05747 0.09027 0.77237 0.0
C426 C 0.06049 0.07449 0.78923 0.0
C427 C 0.05491 0.14572 0.72238 0.0
C428 C 0.01001 0.12296 0.80652 0.0
C429 C 0.07558 0.14436 0.82298 0.0
O430 O 0.06487 0.15157 0.80185 0.0
O431 O 0.07463 0.12537 0.82921 0.0
O432 O 0.0455 0.15835 0.73963 0.0
O433 O 0.0585 0.12753 0.73241 0.0
O434 O 0.64331 0.27115 0.57344 0.0
Cd435 Cd 0.64987 0.3012 0.56235 0.0
Cd436 Cd 0.61829 0.2963 0.52453 0.0
O437 O 0.62056 0.26603 0.5378 0.0
O438 O 0.67951 0.30712 0.56951 0.0
O439 O 0.66553 0.30556 0.52449 0.0
C440 C 0.68162 0.30793 0.54095 0.0
C441 C 0.60968 0.30479 0.47534 0.0
C442 C 0.63097 0.25934 0.55972 0.0
C443 C 0.61306 0.32561 0.57664 0.0
O444 O 0.60525 0.3158 0.55502 0.0
O445 O 0.63194 0.32334 0.58291 0.0
O446 O 0.59668 0.29638 0.4931 0.0
O447 O 0.62814 0.30747 0.48496 0.0
C448 C 0.07062 0.32807 0.19037 0.0
C449 C 0.06611 0.34889 0.19467 0.0
C450 C 0.07899 0.32101 0.16351 0.0
C451 C 0.08258 0.33504 0.14007 0.0
C452 C 0.07815 0.35612 0.14428 0.0
C453 C 0.07016 0.36284 0.17169 0.0
C454 C 0.08379 0.29848 0.16012 0.0
C455 C 0.08143 0.37148 0.1196 0.0
C456 C 0.11768 0.31875 0.07649 0.0
C457 C 0.10347 0.31163 0.05547 0.0
C458 C 0.11114 0.32645 0.10417 0.0
C459 C 0.0899 0.32738 0.11069 0.0
C460 C 0.07552 0.32036 0.08942 0.0
C461 C 0.08248 0.31242 0.06223 0.0
C462 C 0.12694 0.33343 0.12654 0.0
C463 C 0.05274 0.3213 0.09531 0.0
H464 H 0.06778 0.31722 0.20818 0.0
H465 H 0.06671 0.37894 0.17492 0.0
H466 H 0.07395 0.2917 0.14255 0.0
H467 H 0.09995 0.29642 0.15303 0.0
H468 H 0.08132 0.28981 0.1811 0.0
H469 H 0.07775 0.38738 0.12667 0.0
H470 H 0.09758 0.37099 0.11191 0.0
H471 H 0.07164 0.36746 0.10026 0.0
H472 H 0.13391 0.3182 0.07138 0.0
H473 H 0.07137 0.30714 0.046 0.0
H474 H 0.12539 0.32443 0.14737 0.0
H475 H 0.12435 0.34975 0.13235 0.0
H476 H 0.14285 0.33171 0.11808 0.0
H477 H 0.04885 0.31166 0.11485 0.0
H478 H 0.04355 0.31596 0.07598 0.0
H479 H 0.04815 0.33725 0.10071 0.0
C480 C 0.93555 0.86351 0.32587 0.0
C481 C 0.94015 0.84951 0.30316 0.0
C482 C 0.92763 0.85676 0.35331 0.0
C483 C 0.92386 0.83559 0.35784 0.0
C484 C 0.92804 0.82149 0.33469 0.0
C485 C 0.93629 0.82859 0.30778 0.0
C486 C 0.92371 0.87221 0.37767 0.0
C487 C 0.92397 0.79884 0.33842 0.0
C488 C 0.9242 0.81351 0.43598 0.0
C489 C 0.9032 0.81203 0.44245 0.0
C490 C 0.93107 0.82154 0.40882 0.0
C491 C 0.9166 0.82793 0.38725 0.0
C492 C 0.89536 0.82633 0.39349 0.0
C493 C 0.8889 0.81857 0.42117 0.0
C494 C 0.95385 0.82322 0.40323 0.0
C495 C 0.87949 0.83263 0.37082 0.0
H496 H 0.93849 0.87969 0.3224 0.0
H497 H 0.93957 0.81769 0.29019 0.0
H498 H 0.90754 0.87127 0.38516 0.0
H499 H 0.9335 0.86868 0.39721 0.0
H500 H 0.92692 0.88816 0.37037 0.0
H501 H 0.92687 0.79007 0.31764 0.0
H502 H 0.93391 0.79256 0.35626 0.0
H503 H 0.90784 0.79629 0.34533 0.0
H504 H 0.93536 0.8087 0.45243 0.0
H505 H 0.87267 0.81748 0.42606 0.0
H506 H 0.95792 0.83927 0.3976 0.0
H507 H 0.9582 0.81355 0.38393 0.0
H508 H 0.96307 0.81837 0.42279 0.0
H509 H 0.88162 0.84897 0.36472 0.0
H510 H 0.86359 0.8305 0.37912 0.0
H511 H 0.88144 0.82349 0.35018 0.0
C512 C 0.43683 0.67723 0.68471 0.0
C513 C 0.44023 0.65631 0.68999 0.0
C514 C 0.42856 0.68409 0.65768 0.0
C515 C 0.42391 0.66973 0.63507 0.0
C516 C 0.42725 0.64855 0.64024 0.0
C517 C 0.43519 0.64207 0.6678 0.0
C518 C 0.42497 0.70677 0.65325 0.0
C519 C 0.42282 0.63282 0.61645 0.0
C520 C 0.38879 0.68683 0.57199 0.0
C521 C 0.40304 0.69291 0.55037 0.0
C522 C 0.39532 0.67911 0.59967 0.0
C523 C 0.41657 0.67709 0.60554 0.0
C524 C 0.43098 0.68292 0.58358 0.0
C525 C 0.42405 0.69093 0.55643 0.0
C526 C 0.37951 0.67342 0.62277 0.0
C527 C 0.45376 0.68076 0.58878 0.0
H528 H 0.44045 0.68833 0.70189 0.0
H529 H 0.43777 0.62588 0.67178 0.0
H530 H 0.43488 0.71254 0.63503 0.0
H531 H 0.40883 0.70956 0.64655 0.0
H532 H 0.42825 0.71579 0.67367 0.0
H533 H 0.42577 0.61692 0.62421 0.0
H534 H 0.40661 0.63397 0.6092 0.0
H535 H 0.43252 0.63585 0.59664 0.0
H536 H 0.37254 0.68831 0.56741 0.0
H537 H 0.43517 0.69537 0.5397 0.0
H538 H 0.38173 0.68289 0.64304 0.0
H539 H 0.38145 0.65716 0.62943 0.0
H540 H 0.36359 0.67564 0.6146 0.0
H541 H 0.45855 0.69066 0.60762 0.0
H542 H 0.46291 0.68503 0.56887 0.0
H543 H 0.4575 0.66471 0.59493 0.0
C544 C 0.55127 0.15991 0.83036 0.0
C545 C 0.56253 0.14881 0.80929 0.0
C546 C 0.56052 0.16699 0.85663 0.0
C547 C 0.58174 0.16363 0.8613 0.0
C548 C 0.59312 0.1522 0.84019 0.0
C549 C 0.58327 0.14459 0.81464 0.0
C550 C 0.54766 0.17845 0.87909 0.0
C551 C 0.61588 0.14884 0.84387 0.0
C552 C 0.60633 0.20257 0.91317 0.0
C553 C 0.60795 0.19129 0.93951 0.0
C554 C 0.59883 0.19339 0.88704 0.0
C555 C 0.59205 0.17274 0.88779 0.0
C556 C 0.59396 0.16126 0.91441 0.0
C557 C 0.60218 0.17064 0.93989 0.0
C558 C 0.59762 0.20597 0.85889 0.0
C559 C 0.58632 0.13946 0.91645 0.0
H560 H 0.53523 0.16315 0.82617 0.0
H561 H 0.59204 0.13629 0.79806 0.0
H562 H 0.54979 0.17179 0.90161 0.0
H563 H 0.55265 0.19469 0.88015 0.0
H564 H 0.53108 0.17808 0.87346 0.0
H565 H 0.62237 0.13902 0.826 0.0
H566 H 0.6239 0.16385 0.84353 0.0
H567 H 0.61917 0.14163 0.8657 0.0
H568 H 0.61068 0.21861 0.91315 0.0
H569 H 0.60316 0.16212 0.96057 0.0
H570 H 0.58134 0.20891 0.8532 0.0
H571 H 0.60451 0.19742 0.84001 0.0
H572 H 0.60559 0.22094 0.86115 0.0
H573 H 0.56946 0.1392 0.91312 0.0
H574 H 0.58987 0.13234 0.93831 0.0
H575 H 0.59321 0.12994 0.89861 0.0
C576 C 0.06667 0.67709 0.31027 0.0
C577 C 0.06329 0.6561 0.30553 0.0
C578 C 0.07531 0.68426 0.33688 0.0
C579 C 0.08035 0.67014 0.35963 0.0
C580 C 0.07702 0.6489 0.35502 0.0
C581 C 0.0687 0.6421 0.32786 0.0
C582 C 0.07888 0.70699 0.34072 0.0
C583 C 0.08187 0.63343 0.37898 0.0
C584 C 0.11635 0.68776 0.42134 0.0
C585 C 0.1024 0.69392 0.44332 0.0
C586 C 0.10944 0.67992 0.39394 0.0
C587 C 0.08811 0.67782 0.38875 0.0
C588 C 0.074 0.6838 0.41104 0.0
C589 C 0.08131 0.69195 0.43789 0.0
C590 C 0.12491 0.6741 0.37044 0.0
C591 C 0.05115 0.68155 0.40658 0.0
H592 H 0.06275 0.68799 0.29297 0.0
H593 H 0.06613 0.62587 0.32429 0.0
H594 H 0.06921 0.71291 0.35913 0.0
H595 H 0.0951 0.7099 0.34685 0.0
H596 H 0.07525 0.71579 0.32022 0.0
H597 H 0.07884 0.61745 0.37167 0.0
H598 H 0.09819 0.6347 0.38565 0.0
H599 H 0.07249 0.63665 0.39905 0.0
H600 H 0.13266 0.68923 0.42545 0.0
H601 H 0.07043 0.69645 0.45491 0.0
H602 H 0.12227 0.68329 0.35001 0.0
H603 H 0.12302 0.65775 0.36425 0.0
H604 H 0.14094 0.67656 0.37799 0.0
H605 H 0.04609 0.69121 0.38764 0.0
H606 H 0.04228 0.68605 0.42665 0.0
H607 H 0.04736 0.66543 0.40094 0.0
C608 C 0.57872 0.81439 0.5629 0.0
C609 C 0.59978 0.81153 0.55806 0.0
C610 C 0.57141 0.82286 0.58955 0.0
C611 C 0.58545 0.82822 0.61226 0.0
C612 C 0.60675 0.82525 0.60764 0.0
C613 C 0.61369 0.81714 0.58041 0.0
C614 C 0.54863 0.82608 0.59337 0.0
C615 C 0.62215 0.83037 0.63159 0.0
C616 C 0.56739 0.86459 0.67324 0.0
C617 C 0.56132 0.85079 0.69547 0.0
C618 C 0.57534 0.8575 0.646 0.0
C619 C 0.57767 0.83614 0.64123 0.0
C620 C 0.57182 0.8222 0.6638 0.0
C621 C 0.56353 0.82968 0.69047 0.0
C622 C 0.58102 0.87281 0.62221 0.0
C623 C 0.57432 0.79934 0.65981 0.0
H624 H 0.56789 0.81033 0.54557 0.0
H625 H 0.62997 0.81498 0.57676 0.0
H626 H 0.54289 0.81657 0.61206 0.0
H627 H 0.54546 0.84233 0.59905 0.0
H628 H 0.53985 0.82205 0.57299 0.0
H629 H 0.63815 0.82727 0.62446 0.0
H630 H 0.62085 0.84677 0.63783 0.0
H631 H 0.61887 0.82124 0.65188 0.0
H632 H 0.56573 0.88092 0.67701 0.0
H633 H 0.55911 0.81891 0.70769 0.0
H634 H 0.57187 0.86987 0.60182 0.0
H635 H 0.5974 0.87105 0.6161 0.0
H636 H 0.57837 0.88888 0.62943 0.0
H637 H 0.5647 0.79398 0.64099 0.0
H638 H 0.56994 0.79062 0.68007 0.0
H639 H 0.59048 0.79568 0.65422 0.0
C640 C 0.42441 0.31543 0.9375 0.0
C641 C 0.4034 0.31384 0.9438 0.0
C642 C 0.43133 0.32337 0.91029 0.0
C643 C 0.41692 0.32953 0.88852 0.0
C644 C 0.39566 0.32785 0.89462 0.0
C645 C 0.38914 0.32021 0.92235 0.0
C646 C 0.45412 0.32516 0.90486 0.0
C647 C 0.37983 0.33389 0.87174 0.0
C648 C 0.43567 0.3647 0.8265 0.0
C649 C 0.44037 0.35054 0.80405 0.0
C650 C 0.42782 0.35813 0.85408 0.0
C651 C 0.42422 0.33697 0.85901 0.0
C652 C 0.42853 0.3227 0.83613 0.0
C653 C 0.43673 0.32963 0.80909 0.0
C654 C 0.42378 0.37377 0.87815 0.0
C655 C 0.42463 0.30005 0.84028 0.0
H656 H 0.43554 0.31076 0.95408 0.0
H657 H 0.3729 0.31902 0.92711 0.0
H658 H 0.45862 0.31532 0.88581 0.0
H659 H 0.45811 0.34118 0.89891 0.0
H660 H 0.4633 0.32057 0.9246 0.0
H661 H 0.36392 0.33179 0.87999 0.0
H662 H 0.38194 0.35017 0.86532 0.0
H663 H 0.38186 0.32455 0.8513 0.0
H664 H 0.43844 0.38087 0.82271 0.0
H665 H 0.44009 0.31861 0.7917 0.0
H666 H 0.43351 0.37043 0.89782 0.0
H667 H 0.40758 0.37284 0.88554 0.0
H668 H 0.42696 0.38967 0.8706 0.0
H669 H 0.43455 0.29402 0.85832 0.0
H670 H 0.42768 0.29112 0.8197 0.0
H671 H 0.40849 0.29745 0.84711 0.0
C672 C 0.92537 0.19247 0.06009 0.0
C673 C 0.90429 0.19393 0.05425 0.0
C674 C 0.93262 0.18438 0.08701 0.0
C675 C 0.91846 0.17795 0.10896 0.0
C676 C 0.89714 0.17953 0.10335 0.0
C677 C 0.89029 0.18733 0.07589 0.0
C678 C 0.95548 0.1827 0.09193 0.0
C679 C 0.88159 0.17321 0.12647 0.0
C680 C 0.93818 0.14242 0.16985 0.0
C681 C 0.94305 0.15644 0.19241 0.0
C682 C 0.92994 0.14915 0.1426 0.0
C683 C 0.92612 0.17032 0.13815 0.0
C684 C 0.9306 0.18444 0.16115 0.0
C685 C 0.93918 0.17736 0.18784 0.0
C686 C 0.92571 0.13368 0.11837 0.0
C687 C 0.92649 0.20709 0.15748 0.0
H688 H 0.9363 0.19732 0.04334 0.0
H689 H 0.87399 0.1884 0.07146 0.0
H690 H 0.96011 0.19239 0.11107 0.0
H691 H 0.95963 0.16665 0.09747 0.0
H692 H 0.96442 0.18753 0.07209 0.0
H693 H 0.86558 0.17531 0.11862 0.0
H694 H 0.88383 0.15688 0.13251 0.0
H695 H 0.8838 0.18236 0.14705 0.0
H696 H 0.94112 0.12624 0.17329 0.0
H697 H 0.94267 0.18827 0.20533 0.0
H698 H 0.93521 0.13724 0.09854 0.0
H699 H 0.90943 0.13458 0.11137 0.0
H700 H 0.92907 0.11774 0.12557 0.0
H701 H 0.93618 0.21336 0.13934 0.0
H702 H 0.92969 0.21588 0.17815 0.0
H703 H 0.91027 0.20963 0.15105 0.0
C704 C 0.94376 0.67356 0.81157 0.0
C705 C 0.94498 0.65255 0.80516 0.0
C706 C 0.93565 0.68057 0.83862 0.0
C707 C 0.92892 0.66622 0.86011 0.0
C708 C 0.93027 0.64496 0.85394 0.0
C709 C 0.93812 0.63836 0.82637 0.0
C710 C 0.93424 0.70338 0.84414 0.0
C711 C 0.92361 0.6292 0.87656 0.0
C712 C 0.92795 0.68617 0.93942 0.0
C713 C 0.90705 0.69034 0.94367 0.0
C714 C 0.93513 0.67769 0.91271 0.0
C715 C 0.92114 0.67362 0.88937 0.0
C716 C 0.89999 0.67768 0.89354 0.0
C717 C 0.89315 0.68582 0.92079 0.0
C718 C 0.95775 0.67329 0.90937 0.0
C719 C 0.88466 0.67389 0.86896 0.0
H720 H 0.94883 0.68465 0.79517 0.0
H721 H 0.939 0.62211 0.82152 0.0
H722 H 0.91821 0.70767 0.84951 0.0
H723 H 0.94383 0.70762 0.86358 0.0
H724 H 0.93936 0.71251 0.82465 0.0
H725 H 0.92562 0.61327 0.86833 0.0
H726 H 0.93262 0.63108 0.89734 0.0
H727 H 0.90725 0.63153 0.88238 0.0
H728 H 0.93876 0.6894 0.95715 0.0
H729 H 0.87699 0.689 0.92399 0.0
H730 H 0.96432 0.68314 0.89164 0.0
H731 H 0.96012 0.65712 0.90251 0.0
H732 H 0.96639 0.67608 0.9303 0.0
H733 H 0.88844 0.68362 0.84946 0.0
H734 H 0.8687 0.67728 0.87602 0.0
H735 H 0.88548 0.6577 0.86152 0.0
C736 C 0.07921 0.18654 0.5588 0.0
C737 C 0.1001 0.19076 0.55449 0.0
C738 C 0.07209 0.17799 0.58549 0.0
C739 C 0.08613 0.17391 0.60876 0.0
C740 C 0.10727 0.17803 0.60454 0.0
C741 C 0.11405 0.18623 0.57729 0.0
C742 C 0.04949 0.17353 0.5889 0.0
C743 C 0.12264 0.17423 0.62905 0.0
C744 C 0.06361 0.1736 0.68662 0.0
C745 C 0.06246 0.15256 0.69292 0.0
C746 C 0.07167 0.18069 0.6596 0.0
C747 C 0.07842 0.16642 0.63801 0.0
C748 C 0.07713 0.14513 0.64406 0.0
C749 C 0.06935 0.13845 0.67161 0.0
C750 C 0.07302 0.20352 0.65421 0.0
C751 C 0.0838 0.12945 0.62133 0.0
H752 H 0.06837 0.18977 0.54113 0.0
H753 H 0.13019 0.18945 0.57406 0.0
H754 H 0.04717 0.15734 0.59567 0.0
H755 H 0.04293 0.18332 0.6067 0.0
H756 H 0.04081 0.17635 0.56801 0.0
H757 H 0.13859 0.17769 0.62197 0.0
H758 H 0.11886 0.1839 0.64862 0.0
H759 H 0.12189 0.15802 0.6364 0.0
H760 H 0.05854 0.18462 0.7031 0.0
H761 H 0.06851 0.12218 0.67638 0.0
H762 H 0.06338 0.20778 0.63483 0.0
H763 H 0.08903 0.20787 0.6488 0.0
H764 H 0.06791 0.21259 0.67378 0.0
H765 H 0.07476 0.13135 0.60059 0.0
H766 H 0.08185 0.11349 0.62947 0.0
H767 H 0.10015 0.13185 0.61547 0.0
C768 C 0.61739 0.318 0.42399 0.0
C769 C 0.60305 0.31218 0.44566 0.0
C770 C 0.61097 0.32553 0.39616 0.0
C771 C 0.58974 0.32764 0.39013 0.0
C772 C 0.57525 0.32198 0.41207 0.0
C773 C 0.58207 0.31416 0.43941 0.0
C774 C 0.62687 0.33104 0.3731 0.0
C775 C 0.55249 0.32421 0.4067 0.0
C776 C 0.57174 0.36288 0.32773 0.0
C777 C 0.56674 0.34872 0.3054 0.0
C778 C 0.57942 0.35628 0.35539 0.0
C779 C 0.58253 0.33507 0.36056 0.0
C780 C 0.57788 0.32078 0.33784 0.0
C781 C 0.56988 0.32775 0.31069 0.0
C782 C 0.58385 0.37195 0.37927 0.0
C783 C 0.58124 0.29807 0.34226 0.0
H784 H 0.63362 0.31651 0.4287 0.0
H785 H 0.57088 0.3099 0.45614 0.0
H786 H 0.62453 0.32166 0.35277 0.0
H787 H 0.62517 0.34734 0.36652 0.0
H788 H 0.64275 0.32858 0.38127 0.0
H789 H 0.54326 0.31991 0.42652 0.0
H790 H 0.54883 0.34029 0.40064 0.0
H791 H 0.54775 0.3144 0.38775 0.0
H792 H 0.56936 0.37909 0.32375 0.0
H793 H 0.56628 0.31672 0.29342 0.0
H794 H 0.60005 0.37073 0.38656 0.0
H795 H 0.57412 0.3689 0.39904 0.0
H796 H 0.58096 0.38787 0.37157 0.0
H797 H 0.59734 0.29513 0.34899 0.0
H798 H 0.57789 0.28908 0.32182 0.0
H799 H 0.57126 0.29239 0.36046 0.0
C800 C 0.43968 0.86501 0.17119 0.0
C801 C 0.44564 0.85134 0.19365 0.0
C802 C 0.43167 0.85776 0.14407 0.0
C803 C 0.42914 0.83638 0.13968 0.0
C804 C 0.43491 0.82257 0.16247 0.0
C805 C 0.44328 0.8302 0.189 0.0
C806 C 0.42609 0.87292 0.12002 0.0
C807 C 0.43219 0.79971 0.15889 0.0
C808 C 0.39273 0.8172 0.07947 0.0
C809 C 0.40651 0.81127 0.05713 0.0
C810 C 0.39985 0.82548 0.1065 0.0
C811 C 0.42119 0.82829 0.11091 0.0
C812 C 0.4351 0.82259 0.08822 0.0
C813 C 0.42761 0.81396 0.06178 0.0
C814 C 0.38458 0.83097 0.13045 0.0
C815 C 0.45792 0.82562 0.09183 0.0
H816 H 0.44146 0.88135 0.17469 0.0
H817 H 0.44761 0.81954 0.20641 0.0
H818 H 0.43512 0.86968 0.09962 0.0
H819 H 0.40967 0.87131 0.11409 0.0
H820 H 0.42898 0.88902 0.12691 0.0
H821 H 0.43658 0.79111 0.17926 0.0
H822 H 0.41597 0.79614 0.15352 0.0
H823 H 0.44167 0.79411 0.14008 0.0
H824 H 0.37642 0.81517 0.07597 0.0
H825 H 0.43834 0.80965 0.04445 0.0
H826 H 0.38606 0.84741 0.13636 0.0
H827 H 0.38785 0.822 0.1509 0.0
H828 H 0.36852 0.82795 0.12349 0.0
H829 H 0.46128 0.84188 0.09719 0.0
H830 H 0.46659 0.82132 0.07148 0.0
H831 H 0.46363 0.81622 0.11066 0.0
C832 C 0.93776 0.36483 0.66948 0.0
C833 C 0.94384 0.35084 0.69147 0.0
C834 C 0.92992 0.35796 0.64204 0.0
C835 C 0.92773 0.33664 0.63681 0.0
C836 C 0.93364 0.3225 0.6591 0.0
C837 C 0.9418 0.32977 0.68598 0.0
C838 C 0.92418 0.37347 0.61855 0.0
C839 C 0.93129 0.29967 0.65461 0.0
C840 C 0.89177 0.31771 0.57586 0.0
C841 C 0.90569 0.3123 0.55343 0.0
C842 C 0.89869 0.32581 0.60311 0.0
C843 C 0.91996 0.32894 0.6077 0.0
C844 C 0.93401 0.32384 0.58487 0.0
C845 C 0.92672 0.3154 0.55818 0.0
C846 C 0.88329 0.33069 0.62716 0.0
C847 C 0.95677 0.32722 0.58867 0.0
H848 H 0.93927 0.38113 0.67362 0.0
H849 H 0.94624 0.31886 0.703 0.0
H850 H 0.93331 0.37075 0.59809 0.0
H851 H 0.9078 0.37171 0.61245 0.0
H852 H 0.92679 0.38948 0.62609 0.0
H853 H 0.93579 0.29077 0.67466 0.0
H854 H 0.91514 0.29595 0.64903 0.0
H855 H 0.9409 0.29458 0.63563 0.0
H856 H 0.87551 0.31536 0.57228 0.0
H857 H 0.93757 0.31149 0.5408 0.0
H858 H 0.88458 0.34702 0.63377 0.0
H859 H 0.88656 0.32134 0.64723 0.0
H860 H 0.86728 0.32766 0.61995 0.0
H861 H 0.95982 0.34343 0.59474 0.0
H862 H 0.96553 0.3235 0.56816 0.0
H863 H 0.96263 0.31754 0.6071 0.0
C864 C 0.44351 0.17374 0.30939 0.0
C865 C 0.44485 0.15275 0.30288 0.0
C866 C 0.4357 0.18063 0.33669 0.0
C867 C 0.42941 0.16618 0.35833 0.0
C868 C 0.43092 0.14494 0.35208 0.0
C869 C 0.43845 0.13846 0.32427 0.0
C870 C 0.43411 0.20341 0.34231 0.0
C871 C 0.42473 0.12909 0.37484 0.0
C872 C 0.42907 0.18598 0.43774 0.0
C873 C 0.40816 0.18985 0.4425 0.0
C874 C 0.43606 0.17766 0.41082 0.0
C875 C 0.42188 0.17346 0.38779 0.0
C876 C 0.40072 0.17725 0.39246 0.0
C877 C 0.39407 0.18521 0.41992 0.0
C878 C 0.4587 0.17356 0.40693 0.0
C879 C 0.38518 0.17331 0.36822 0.0
H880 H 0.44821 0.1849 0.29287 0.0
H881 H 0.43944 0.12223 0.31934 0.0
H882 H 0.41809 0.20753 0.34803 0.0
H883 H 0.44385 0.20774 0.36155 0.0
H884 H 0.43893 0.21263 0.32273 0.0
H885 H 0.42689 0.11319 0.36656 0.0
H886 H 0.43393 0.13109 0.39542 0.0
H887 H 0.40841 0.13119 0.38102 0.0
H888 H 0.44003 0.18929 0.45524 0.0
H889 H 0.37791 0.18816 0.4235 0.0
H890 H 0.46494 0.18349 0.38905 0.0
H891 H 0.4612 0.15743 0.40001 0.0
H892 H 0.46754 0.17646 0.42765 0.0
H893 H 0.38865 0.18308 0.34864 0.0
H894 H 0.36925 0.17653 0.37563 0.0
H895 H 0.38608 0.15713 0.36075 0.0
C896 C 0.57137 0.63938 0.1697 0.0
C897 C 0.56636 0.65382 0.19164 0.0
C898 C 0.57918 0.64564 0.14195 0.0
C899 C 0.5824 0.66678 0.13632 0.0
C900 C 0.57778 0.68134 0.15868 0.0
C901 C 0.56965 0.67471 0.18591 0.0
C902 C 0.58359 0.6297 0.11846 0.0
C903 C 0.58124 0.70398 0.15376 0.0
C904 C 0.61707 0.68388 0.07273 0.0
C905 C 0.60265 0.68977 0.05122 0.0
C906 C 0.61075 0.67612 0.10048 0.0
C907 C 0.58954 0.6739 0.10658 0.0
C908 C 0.57498 0.67946 0.08468 0.0
C909 C 0.5817 0.68747 0.05742 0.0
C910 C 0.62671 0.67067 0.12348 0.0
C911 C 0.55224 0.67713 0.09012 0.0
H912 H 0.56887 0.62323 0.17403 0.0
H913 H 0.56605 0.68595 0.20289 0.0
H914 H 0.57374 0.63245 0.09871 0.0
H915 H 0.59975 0.63091 0.11096 0.0
H916 H 0.58082 0.61386 0.1266 0.0
H917 H 0.57801 0.71319 0.17403 0.0
H918 H 0.59733 0.70679 0.14685 0.0
H919 H 0.57121 0.70953 0.13552 0.0
H920 H 0.63328 0.6856 0.06806 0.0
H921 H 0.57045 0.69178 0.04079 0.0
H922 H 0.6248 0.6545 0.1306 0.0
H923 H 0.62466 0.68039 0.14352 0.0
H924 H 0.64258 0.67276 0.11501 0.0
H925 H 0.54868 0.66113 0.09672 0.0
H926 H 0.54297 0.68108 0.07019 0.0
H927 H 0.54745 0.68721 0.10875 0.0
C928 C 0.06452 0.82951 0.8123 0.0
C929 C 0.06244 0.85058 0.80677 0.0
C930 C 0.07271 0.8223 0.83918 0.0
C931 C 0.07862 0.83647 0.86143 0.0
C932 C 0.07641 0.85778 0.85615 0.0
C933 C 0.06854 0.8646 0.82871 0.0
C934 C 0.07509 0.79948 0.84373 0.0
C935 C 0.08215 0.87333 0.87959 0.0
C936 C 0.0796 0.81538 0.94013 0.0
C937 C 0.10063 0.8123 0.94493 0.0
C938 C 0.07233 0.82376 0.91341 0.0
C939 C 0.08639 0.82883 0.89058 0.0
C940 C 0.10766 0.82572 0.89521 0.0
C941 C 0.11456 0.81769 0.9225 0.0
C942 C 0.04957 0.82712 0.90957 0.0
C943 C 0.12307 0.83057 0.87116 0.0
H944 H 0.06007 0.81857 0.79532 0.0
H945 H 0.06699 0.88089 0.82454 0.0
H946 H 0.09124 0.79578 0.84935 0.0
H947 H 0.06547 0.79439 0.8627 0.0
H948 H 0.07062 0.79054 0.8237 0.0
H949 H 0.07956 0.88933 0.872 0.0
H950 H 0.07301 0.87066 0.90005 0.0
H951 H 0.09853 0.87158 0.88572 0.0
H952 H 0.06875 0.81149 0.95751 0.0
H953 H 0.13083 0.81536 0.92611 0.0
H954 H 0.04372 0.8174 0.89116 0.0
H955 H 0.04651 0.84331 0.90345 0.0
H956 H 0.04079 0.82342 0.93008 0.0
H957 H 0.11981 0.82117 0.85111 0.0
H958 H 0.13908 0.82756 0.8784 0.0
H959 H 0.12177 0.84688 0.86449 0.0
C960 C 0.08625 0.32878 0.34249 0.0
C961 C 0.0843 0.34981 0.34846 0.0
C962 C 0.09559 0.31549 0.36278 0.0
C963 C 0.10362 0.32336 0.38973 0.0
C964 C 0.1026 0.34471 0.39545 0.0
C965 C 0.09275 0.3577 0.37484 0.0
C966 C 0.09621 0.29282 0.35573 0.0
C967 C 0.11139 0.35372 0.42362 0.0
C968 C 0.105 0.28119 0.44719 0.0
C969 C 0.12431 0.27256 0.44159 0.0
C970 C 0.09865 0.29907 0.43244 0.0
C971 C 0.11208 0.30873 0.41202 0.0
C972 C 0.1324 0.3014 0.40894 0.0
C973 C 0.13822 0.28327 0.42352 0.0
C974 C 0.07683 0.30628 0.43636 0.0
C975 C 0.14742 0.31162 0.38814 0.0
H976 H 0.07988 0.32244 0.32219 0.0
H977 H 0.09139 0.37392 0.37962 0.0
H978 H 0.11228 0.28727 0.3558 0.0
H979 H 0.08777 0.28412 0.37305 0.0
H980 H 0.08934 0.28921 0.33371 0.0
H981 H 0.11232 0.37071 0.42257 0.0
H982 H 0.10156 0.34946 0.44279 0.0
H983 H 0.12692 0.34748 0.42798 0.0
H984 H 0.09418 0.27312 0.46126 0.0
H985 H 0.15332 0.2769 0.41947 0.0
H986 H 0.06779 0.30209 0.41632 0.0
H987 H 0.07621 0.32319 0.43866 0.0
H988 H 0.06941 0.29923 0.45613 0.0
H989 H 0.14378 0.30725 0.36485 0.0
H990 H 0.16346 0.30693 0.39292 0.0
H991 H 0.14629 0.32855 0.38976 0.0
C992 C 0.93022 0.83629 0.58609 0.0
C993 C 0.90905 0.83741 0.59155 0.0
C994 C 0.94439 0.84592 0.60484 0.0
C995 C 0.93732 0.85735 0.62956 0.0
C996 C 0.91596 0.85941 0.63454 0.0
C997 C 0.90204 0.84924 0.6156 0.0
C998 C 0.96702 0.84315 0.59875 0.0
C999 C 0.90786 0.87185 0.66028 0.0
C1000 C 0.97779 0.85934 0.68976 0.0
C1001 C 0.98863 0.8771 0.68183 0.0
C1002 C 0.96 0.8535 0.67437 0.0
C1003 C 0.95263 0.86591 0.65083 0.0
C1004 C 0.96236 0.88485 0.64467 0.0
C1005 C 0.98039 0.89012 0.66002 0.0
C1006 C 0.95024 0.83309 0.68154 0.0
C1007 C 0.95466 0.89881 0.62034 0.0
H1008 H 0.93588 0.82726 0.56757 0.0
H1009 H 0.88573 0.85028 0.61994 0.0
H1010 H 0.97456 0.85828 0.59624 0.0
H1011 H 0.97439 0.83526 0.61785 0.0
H1012 H 0.96996 0.83403 0.5783 0.0
H1013 H 0.89103 0.87428 0.65873 0.0
H1014 H 0.9112 0.86381 0.68149 0.0
H1015 H 0.91558 0.88699 0.66125 0.0
H1016 H 0.98395 0.8492 0.70666 0.0
H1017 H 0.98849 0.90403 0.65403 0.0
H1018 H 0.95357 0.82208 0.66333 0.0
H1019 H 0.93335 0.83461 0.68312 0.0
H1020 H 0.95609 0.82655 0.70274 0.0
H1021 H 0.95901 0.8924 0.59835 0.0
H1022 H 0.96125 0.91446 0.62219 0.0
H1023 H 0.93769 0.89993 0.62093 0.0
C1024 C 0.36672 0.72696 0.91315 0.0
C1025 C 0.37948 0.73545 0.93508 0.0
C1026 C 0.37242 0.70905 0.89786 0.0
C1027 C 0.3915 0.69968 0.90425 0.0
C1028 C 0.40356 0.70716 0.92812 0.0
C1029 C 0.39731 0.72485 0.94342 0.0
C1030 C 0.35883 0.7012 0.87318 0.0
C1031 C 0.42409 0.69779 0.93557 0.0
C1032 C 0.40954 0.6503 0.86681 0.0
C1033 C 0.42098 0.65815 0.84292 0.0
C1034 C 0.39918 0.66353 0.88655 0.0
C1035 C 0.40071 0.68503 0.8826 0.0
C1036 C 0.41198 0.69294 0.85827 0.0
C1037 C 0.42176 0.67945 0.83869 0.0
C1038 C 0.38692 0.65455 0.91186 0.0
C1039 C 0.41426 0.71576 0.8533 0.0
H1040 H 0.35275 0.73485 0.90688 0.0
H1041 H 0.40722 0.73118 0.96047 0.0
H1042 H 0.36521 0.70604 0.85138 0.0
H1043 H 0.35821 0.68421 0.87332 0.0
H1044 H 0.34297 0.7073 0.87502 0.0
H1045 H 0.43008 0.70333 0.95729 0.0
H1046 H 0.42304 0.68084 0.93626 0.0
H1047 H 0.43531 0.70188 0.91798 0.0
H1048 H 0.40877 0.63387 0.87017 0.0
H1049 H 0.43057 0.68576 0.82039 0.0
H1050 H 0.37146 0.66161 0.91276 0.0
H1051 H 0.39463 0.65797 0.93331 0.0
H1052 H 0.38521 0.63766 0.90981 0.0
H1053 H 0.39896 0.72294 0.85063 0.0
H1054 H 0.42358 0.71938 0.83329 0.0
H1055 H 0.42167 0.72293 0.87296 0.0
C1056 C 0.57384 0.17632 0.08316 0.0
C1057 C 0.59503 0.17322 0.08626 0.0
C1058 C 0.55976 0.16607 0.10135 0.0
C1059 C 0.56692 0.1521 0.12309 0.0
C1060 C 0.58823 0.14842 0.12591 0.0
C1061 C 0.60208 0.15915 0.10757 0.0
C1062 C 0.53716 0.17061 0.09771 0.0
C1063 C 0.59639 0.1334 0.14853 0.0
C1064 C 0.5282 0.14551 0.18504 0.0
C1065 C 0.51659 0.12891 0.17447 0.0
C1066 C 0.54566 0.15233 0.1697 0.0
C1067 C 0.55183 0.14214 0.14335 0.0
C1068 C 0.5413 0.12425 0.13412 0.0
C1069 C 0.52372 0.11792 0.14968 0.0
C1070 C 0.55638 0.17151 0.18029 0.0
C1071 C 0.54764 0.1127 0.10651 0.0
H1072 H 0.56818 0.18716 0.06684 0.0
H1073 H 0.61841 0.15659 0.11005 0.0
H1074 H 0.52867 0.15628 0.09276 0.0
H1075 H 0.5309 0.17691 0.11878 0.0
H1076 H 0.53412 0.18177 0.07957 0.0
H1077 H 0.6132 0.1311 0.14642 0.0
H1078 H 0.59303 0.13901 0.17133 0.0
H1079 H 0.58863 0.11836 0.14601 0.0
H1080 H 0.52294 0.15406 0.20428 0.0
H1081 H 0.51503 0.10491 0.14154 0.0
H1082 H 0.55275 0.18434 0.16494 0.0
H1083 H 0.57325 0.16941 0.18007 0.0
H1084 H 0.55156 0.17596 0.20311 0.0
H1085 H 0.54301 0.12153 0.0865 0.0
H1086 H 0.54037 0.09732 0.10533 0.0
H1087 H 0.56454 0.11083 0.1057 0.0
C1088 C 0.09319 0.64907 0.12932 0.0
C1089 C 0.08169 0.65696 0.15312 0.0
C1090 C 0.1039 0.66226 0.10991 0.0
C1091 C 0.1027 0.68376 0.11417 0.0
C1092 C 0.09127 0.6917 0.13832 0.0
C1093 C 0.08111 0.67825 0.15753 0.0
C1094 C 0.11626 0.65326 0.08472 0.0
C1095 C 0.08935 0.71452 0.1436 0.0
C1096 C 0.13813 0.72522 0.08598 0.0
C1097 C 0.12585 0.73439 0.06404 0.0
C1098 C 0.1318 0.70721 0.10046 0.0
C1099 C 0.1126 0.6984 0.09317 0.0
C1100 C 0.10109 0.70652 0.06918 0.0
C1101 C 0.10794 0.72433 0.05476 0.0
C1102 C 0.1448 0.69873 0.12537 0.0
C1103 C 0.08049 0.69771 0.06074 0.0
H1104 H 0.09379 0.63265 0.12581 0.0
H1105 H 0.07223 0.68458 0.17574 0.0
H1106 H 0.10922 0.65752 0.06312 0.0
H1107 H 0.13204 0.65962 0.08489 0.0
H1108 H 0.11717 0.63628 0.08603 0.0
H1109 H 0.07979 0.71817 0.16337 0.0
H1110 H 0.10474 0.72139 0.14689 0.0
H1111 H 0.08238 0.72198 0.12384 0.0
H1112 H 0.15217 0.73268 0.09298 0.0
H1113 H 0.0984 0.73117 0.03767 0.0
H1114 H 0.145 0.68173 0.12479 0.0
H1115 H 0.13819 0.70346 0.14707 0.0
H1116 H 0.16082 0.70446 0.12421 0.0
H1117 H 0.08109 0.68074 0.0599 0.0
H1118 H 0.0751 0.70352 0.03885 0.0
H1119 H 0.06902 0.70203 0.07789 0.0
C1120 C 0.53046 0.86099 0.30923 0.0
C1121 C 0.51947 0.87841 0.31826 0.0
C1122 C 0.54803 0.85458 0.32467 0.0
C1123 C 0.555 0.86606 0.34945 0.0
C1124 C 0.5452 0.88476 0.35675 0.0
C1125 C 0.52742 0.89063 0.34125 0.0
C1126 C 0.55789 0.83447 0.31621 0.0
C1127 C 0.55247 0.89775 0.38247 0.0
C1128 C 0.57572 0.83416 0.41305 0.0
C1129 C 0.59701 0.83556 0.409 0.0
C1130 C 0.56205 0.84433 0.39414 0.0
C1131 C 0.56976 0.8566 0.3707 0.0
C1132 C 0.59123 0.85879 0.36705 0.0
C1133 C 0.60465 0.84807 0.38611 0.0
C1134 C 0.53928 0.84137 0.39875 0.0
C1135 C 0.6 0.87207 0.34269 0.0
H1136 H 0.52455 0.85149 0.29138 0.0
H1137 H 0.51923 0.9043 0.34811 0.0
H1138 H 0.57482 0.83592 0.31575 0.0
H1139 H 0.55399 0.82271 0.33315 0.0
H1140 H 0.5526 0.82891 0.29413 0.0
H1141 H 0.546 0.91349 0.38157 0.0
H1142 H 0.54762 0.89056 0.40372 0.0
H1143 H 0.56945 0.89877 0.38271 0.0
H1144 H 0.56958 0.82456 0.43061 0.0
H1145 H 0.62107 0.84932 0.38288 0.0
H1146 H 0.53239 0.8343 0.37863 0.0
H1147 H 0.5317 0.85641 0.40217 0.0
H1148 H 0.53581 0.83145 0.41821 0.0
H1149 H 0.59688 0.86496 0.32072 0.0
H1150 H 0.61683 0.87415 0.34504 0.0
H1151 H 0.59254 0.88735 0.34275 0.0
C1152 C 0.40253 0.2792 0.55229 0.0
C1153 C 0.38347 0.27004 0.55797 0.0
C1154 C 0.40847 0.29718 0.56713 0.0
C1155 C 0.39488 0.30642 0.58775 0.0
C1156 C 0.37482 0.29846 0.59111 0.0
C1157 C 0.36941 0.28023 0.57642 0.0
C1158 C 0.43005 0.30505 0.56297 0.0
C1159 C 0.35964 0.30817 0.61218 0.0
C1160 C 0.42044 0.32786 0.65667 0.0
C1161 C 0.42154 0.34892 0.65042 0.0
C1162 C 0.41147 0.31409 0.63667 0.0
C1163 C 0.40297 0.32149 0.60975 0.0
C1164 C 0.40316 0.34281 0.60374 0.0
C1165 C 0.41263 0.3563 0.62406 0.0
C1166 C 0.41174 0.29146 0.644 0.0
C1167 C 0.39386 0.3513 0.57558 0.0
H1168 H 0.41347 0.27151 0.53796 0.0
H1169 H 0.35451 0.27344 0.58056 0.0
H1170 H 0.43013 0.32196 0.56054 0.0
H1171 H 0.43929 0.30123 0.58297 0.0
H1172 H 0.4376 0.29816 0.54319 0.0
H1173 H 0.34374 0.3029 0.60776 0.0
H1174 H 0.36367 0.30401 0.63541 0.0
H1175 H 0.36015 0.32513 0.61046 0.0
H1176 H 0.42718 0.3219 0.67695 0.0
H1177 H 0.41334 0.37254 0.61906 0.0
H1178 H 0.42042 0.28299 0.62667 0.0
H1179 H 0.3959 0.28531 0.64417 0.0
H1180 H 0.41887 0.28826 0.66597 0.0
H1181 H 0.40347 0.34692 0.55624 0.0
H1182 H 0.39265 0.36828 0.57616 0.0
H1183 H 0.37837 0.34474 0.57187 0.0
C1184 C 0.98142 0.11443 0.8418 0.0
C1185 C 0.98897 0.1263 0.81815 0.0
C1186 C 0.96338 0.12003 0.85683 0.0
C1187 C 0.95287 0.1381 0.84835 0.0
C1188 C 0.95947 0.14913 0.82295 0.0
C1189 C 0.97734 0.143 0.80803 0.0
C1190 C 0.95655 0.10753 0.8833 0.0
C1191 C 0.94883 0.16856 0.81321 0.0
C1192 C 0.90245 0.155 0.88384 0.0
C1193 C 0.90952 0.16841 0.90604 0.0
C1194 C 0.91633 0.14437 0.8654 0.0
C1195 C 0.93769 0.14757 0.86895 0.0
C1196 C 0.94484 0.16078 0.89167 0.0
C1197 C 0.93073 0.17085 0.91 0.0
C1198 C 0.90817 0.13008 0.8418 0.0
C1199 C 0.96746 0.16483 0.89613 0.0
H1200 H 0.99012 0.10131 0.84951 0.0
H1201 H 0.98293 0.15221 0.78965 0.0
H1202 H 0.96104 0.11553 0.90411 0.0
H1203 H 0.93963 0.10582 0.88352 0.0
H1204 H 0.96366 0.09206 0.88341 0.0
H1205 H 0.95394 0.17365 0.79081 0.0
H1206 H 0.93197 0.16643 0.81283 0.0
H1207 H 0.95224 0.18096 0.8294 0.0
H1208 H 0.8861 0.15295 0.8807 0.0
H1209 H 0.93643 0.18116 0.92702 0.0
H1210 H 0.91616 0.11508 0.84293 0.0
H1211 H 0.91119 0.13661 0.81944 0.0
H1212 H 0.89142 0.12748 0.84409 0.0
H1213 H 0.97566 0.15024 0.90047 0.0
H1214 H 0.97048 0.17544 0.91498 0.0
H1215 H 0.97409 0.1716 0.87561 0.0
C1216 C 0.90731 0.65157 0.63301 0.0
C1217 C 0.91982 0.65857 0.65634 0.0
C1218 C 0.8969 0.6655 0.6144 0.0
C1219 C 0.89937 0.68685 0.61896 0.0
C1220 C 0.9116 0.69393 0.64288 0.0
C1221 C 0.92148 0.67975 0.66132 0.0
C1222 C 0.88365 0.6574 0.5895 0.0
C1223 C 0.91484 0.71655 0.64848 0.0
C1224 C 0.8958 0.72717 0.55875 0.0
C1225 C 0.87838 0.73814 0.5678 0.0
C1226 C 0.90198 0.70936 0.5738 0.0
C1227 C 0.89027 0.70214 0.59818 0.0
C1228 C 0.87161 0.71201 0.60553 0.0
C1229 C 0.86597 0.73002 0.59044 0.0
C1230 C 0.92206 0.69944 0.56533 0.0
C1231 C 0.85839 0.70449 0.63085 0.0
H1232 H 0.90586 0.63524 0.62906 0.0
H1233 H 0.93106 0.6854 0.67925 0.0
H1234 H 0.86845 0.66505 0.58971 0.0
H1235 H 0.89092 0.6609 0.56776 0.0
H1236 H 0.88135 0.64057 0.59107 0.0
H1237 H 0.92465 0.7195 0.66824 0.0
H1238 H 0.92218 0.72372 0.62877 0.0
H1239 H 0.89989 0.72429 0.65193 0.0
H1240 H 0.90545 0.73323 0.54119 0.0
H1241 H 0.85232 0.73822 0.59731 0.0
H1242 H 0.92041 0.68254 0.56413 0.0
H1243 H 0.9337 0.70286 0.58266 0.0
H1244 H 0.92789 0.70509 0.54359 0.0
H1245 H 0.85711 0.68754 0.63044 0.0
H1246 H 0.84275 0.71121 0.63003 0.0
H1247 H 0.86555 0.70886 0.65234 0.0
C1248 C 0.03361 0.11931 0.32756 0.0
C1249 C 0.02349 0.13263 0.3079 0.0
C1250 C 0.05161 0.12539 0.34229 0.0
C1251 C 0.05944 0.14538 0.33766 0.0
C1252 C 0.05039 0.15812 0.31577 0.0
C1253 C 0.03261 0.15152 0.30098 0.0
C1254 C 0.06112 0.11109 0.3648 0.0
C1255 C 0.05814 0.17958 0.31019 0.0
C1256 C 0.07923 0.17323 0.40573 0.0
C1257 C 0.10044 0.17411 0.40055 0.0
C1258 C 0.06594 0.16371 0.38559 0.0
C1259 C 0.07398 0.15442 0.35963 0.0
C1260 C 0.09543 0.15456 0.35461 0.0
C1261 C 0.10844 0.16459 0.37503 0.0
C1262 C 0.04316 0.16411 0.39183 0.0
C1263 C 0.10457 0.14446 0.32747 0.0
H1264 H 0.02687 0.10453 0.33267 0.0
H1265 H 0.02501 0.16189 0.28568 0.0
H1266 H 0.0781 0.11175 0.36368 0.0
H1267 H 0.05649 0.11588 0.38753 0.0
H1268 H 0.0561 0.09499 0.36137 0.0
H1269 H 0.05168 0.18623 0.28945 0.0
H1270 H 0.0537 0.18957 0.32913 0.0
H1271 H 0.0751 0.17979 0.30866 0.0
H1272 H 0.0728 0.18051 0.42531 0.0
H1273 H 0.12479 0.16514 0.37087 0.0
H1274 H 0.03709 0.14825 0.39296 0.0
H1275 H 0.03502 0.17206 0.37346 0.0
H1276 H 0.03942 0.17201 0.41305 0.0
H1277 H 0.0985 0.12867 0.3249 0.0
H1278 H 0.12157 0.14376 0.32859 0.0
H1279 H 0.10016 0.15315 0.30725 0.0
C1280 C 0.61288 0.28207 0.05146 0.0
C1281 C 0.63008 0.27082 0.0607 0.0
C1282 C 0.60667 0.29975 0.06682 0.0
C1283 C 0.61817 0.30658 0.09166 0.0
C1284 C 0.63679 0.2966 0.09897 0.0
C1285 C 0.64241 0.27868 0.08362 0.0
C1286 C 0.58664 0.30977 0.05837 0.0
C1287 C 0.64984 0.30375 0.12469 0.0
C1288 C 0.60027 0.35573 0.12997 0.0
C1289 C 0.58806 0.34774 0.15293 0.0
C1290 C 0.61082 0.3426 0.11026 0.0
C1291 C 0.60866 0.32108 0.11327 0.0
C1292 C 0.59655 0.31302 0.13663 0.0
C1293 C 0.58661 0.32639 0.15622 0.0
C1294 C 0.62396 0.35173 0.08603 0.0
C1295 C 0.59358 0.29019 0.14055 0.0
H1296 H 0.60329 0.27621 0.03368 0.0
H1297 H 0.65591 0.27028 0.09061 0.0
H1298 H 0.57476 0.30563 0.07501 0.0
H1299 H 0.58809 0.3267 0.05844 0.0
H1300 H 0.58123 0.30479 0.03606 0.0
H1301 H 0.66559 0.29729 0.12358 0.0
H1302 H 0.65085 0.32072 0.12513 0.0
H1303 H 0.64274 0.29874 0.14592 0.0
H1304 H 0.60154 0.3722 0.12732 0.0
H1305 H 0.57718 0.31998 0.17377 0.0
H1306 H 0.61675 0.34893 0.06405 0.0
H1307 H 0.63925 0.34428 0.0857 0.0
H1308 H 0.62606 0.36852 0.08888 0.0
H1309 H 0.58664 0.28354 0.12015 0.0
H1310 H 0.58353 0.28645 0.15977 0.0
H1311 H 0.6086 0.28259 0.14398 0.0
C1312 C 0.42992 0.83348 0.91215 0.0
C1313 C 0.40861 0.83497 0.90828 0.0
C1314 C 0.44354 0.84369 0.89322 0.0
C1315 C 0.43577 0.85608 0.86995 0.0
C1316 C 0.41429 0.85833 0.86647 0.0
C1317 C 0.40092 0.84758 0.88554 0.0
C1318 C 0.46632 0.84068 0.89766 0.0
C1319 C 0.40547 0.87172 0.84228 0.0
C1320 C 0.47818 0.89018 0.84112 0.0
C1321 C 0.48623 0.878 0.81816 0.0
C1322 C 0.46031 0.88431 0.85637 0.0
C1323 C 0.45049 0.86567 0.84878 0.0
C1324 C 0.4575 0.85431 0.82393 0.0
C1325 C 0.4752 0.8607 0.80878 0.0
C1326 C 0.45301 0.89716 0.88221 0.0
C1327 C 0.44758 0.83429 0.81513 0.0
H1328 H 0.4361 0.82381 0.92959 0.0
H1329 H 0.38449 0.84889 0.88246 0.0
H1330 H 0.47315 0.83372 0.87741 0.0
H1331 H 0.47393 0.85568 0.90124 0.0
H1332 H 0.46983 0.83063 0.91697 0.0
H1333 H 0.38865 0.87379 0.84471 0.0
H1334 H 0.41293 0.88701 0.84248 0.0
H1335 H 0.40856 0.86473 0.82022 0.0
H1336 H 0.4864 0.90377 0.84824 0.0
H1337 H 0.48116 0.85125 0.79091 0.0
H1338 H 0.45788 0.88988 0.90339 0.0
H1339 H 0.43604 0.89817 0.88245 0.0
H1340 H 0.45948 0.91291 0.88148 0.0
H1341 H 0.45153 0.82237 0.8318 0.0
H1342 H 0.4528 0.82894 0.7929 0.0
H1343 H 0.43065 0.83576 0.8148 0.0
C1344 C 0.89453 0.27861 0.93803 0.0
C1345 C 0.87715 0.26739 0.9294 0.0
C1346 C 0.90035 0.29643 0.92274 0.0
C1347 C 0.8883 0.30344 0.89858 0.0
C1348 C 0.86964 0.29337 0.89175 0.0
C1349 C 0.86439 0.27532 0.90703 0.0
C1350 C 0.92044 0.30656 0.93065 0.0
C1351 C 0.85604 0.30072 0.86677 0.0
C1352 C 0.90526 0.35376 0.86296 0.0
C1353 C 0.91763 0.34658 0.8396 0.0
C1354 C 0.8948 0.33997 0.88174 0.0
C1355 C 0.89713 0.31859 0.87734 0.0
C1356 C 0.90913 0.31134 0.8533 0.0
C1357 C 0.91903 0.32538 0.83467 0.0
C1358 C 0.88176 0.34827 0.90672 0.0
C1359 C 0.9122 0.28867 0.84786 0.0
H1360 H 0.90444 0.2727 0.9554 0.0
H1361 H 0.85076 0.26694 0.90052 0.0
H1362 H 0.9319 0.3032 0.91304 0.0
H1363 H 0.91866 0.32344 0.93181 0.0
H1364 H 0.9266 0.30102 0.95226 0.0
H1365 H 0.84042 0.29399 0.86819 0.0
H1366 H 0.85475 0.31768 0.86698 0.0
H1367 H 0.86286 0.29621 0.84511 0.0
H1368 H 0.904 0.37011 0.86686 0.0
H1369 H 0.92847 0.31958 0.81669 0.0
H1370 H 0.8895 0.34546 0.92832 0.0
H1371 H 0.86675 0.34027 0.90743 0.0
H1372 H 0.87903 0.365 0.90446 0.0
H1373 H 0.91972 0.28157 0.86748 0.0
H1374 H 0.92179 0.28559 0.82792 0.0
H1375 H 0.89719 0.28099 0.8448 0.0
C1376 C 0.47296 0.14382 0.69711 0.0
C1377 C 0.48422 0.12684 0.68709 0.0
C1378 C 0.45534 0.15042 0.68194 0.0
C1379 C 0.44862 0.13956 0.65644 0.0
C1380 C 0.45858 0.1211 0.64831 0.0
C1381 C 0.4764 0.11506 0.66354 0.0
C1382 C 0.44533 0.17026 0.69132 0.0
C1383 C 0.45157 0.10873 0.6218 0.0
C1384 C 0.39995 0.15836 0.61774 0.0
C1385 C 0.40824 0.17093 0.59542 0.0
C1386 C 0.41282 0.1475 0.63744 0.0
C1387 C 0.43439 0.14969 0.63508 0.0
C1388 C 0.44274 0.16229 0.61249 0.0
C1389 C 0.42963 0.17254 0.59289 0.0
C1390 C 0.4034 0.13387 0.66086 0.0
C1391 C 0.46563 0.16533 0.60931 0.0
H1392 H 0.47876 0.15297 0.71542 0.0
H1393 H 0.48481 0.10171 0.65593 0.0
H1394 H 0.44984 0.18258 0.67559 0.0
H1395 H 0.4284 0.16897 0.69062 0.0
H1396 H 0.45003 0.17495 0.7141 0.0
H1397 H 0.45792 0.09293 0.62221 0.0
H1398 H 0.43459 0.10784 0.621 0.0
H1399 H 0.4568 0.11632 0.60105 0.0
H1400 H 0.38345 0.15698 0.61977 0.0
H1401 H 0.43625 0.18229 0.57588 0.0
H1402 H 0.40658 0.14021 0.6833 0.0
H1403 H 0.41037 0.11837 0.65996 0.0
H1404 H 0.38654 0.13239 0.65811 0.0
H1405 H 0.47204 0.17172 0.63023 0.0
H1406 H 0.4696 0.17585 0.59075 0.0
H1407 H 0.47325 0.1504 0.60526 0.0
C1408 C 0.60873 0.72524 0.44405 0.0
C1409 C 0.62647 0.73596 0.4356 0.0
C1410 C 0.60263 0.70742 0.42896 0.0
C1411 C 0.61472 0.69992 0.40515 0.0
C1412 C 0.63369 0.70946 0.39859 0.0
C1413 C 0.63925 0.7275 0.41369 0.0
C1414 C 0.58221 0.69787 0.43659 0.0
C1415 C 0.64732 0.70163 0.37393 0.0
C1416 C 0.59736 0.64996 0.36857 0.0
C1417 C 0.5858 0.65744 0.34455 0.0
C1418 C 0.60752 0.66351 0.38809 0.0
C1419 C 0.60568 0.68496 0.38378 0.0
C1420 C 0.59427 0.6925 0.35933 0.0
C1421 C 0.58469 0.67871 0.33998 0.0
C1422 C 0.61993 0.65492 0.41355 0.0
C1423 C 0.59165 0.71524 0.354 0.0
H1424 H 0.59879 0.73155 0.46108 0.0
H1425 H 0.65315 0.73548 0.40731 0.0
H1426 H 0.57092 0.70172 0.41895 0.0
H1427 H 0.58344 0.68094 0.43752 0.0
H1428 H 0.57617 0.70349 0.45823 0.0
H1429 H 0.66309 0.70797 0.37557 0.0
H1430 H 0.64817 0.68465 0.37435 0.0
H1431 H 0.6408 0.7062 0.35211 0.0
H1432 H 0.59837 0.63357 0.37221 0.0
H1433 H 0.57577 0.68473 0.32159 0.0
H1434 H 0.61233 0.65863 0.43497 0.0
H1435 H 0.63537 0.66205 0.41406 0.0
H1436 H 0.62169 0.63802 0.41198 0.0
H1437 H 0.58414 0.72244 0.37355 0.0
H1438 H 0.58225 0.71856 0.33394 0.0
H1439 H 0.60683 0.72263 0.35119 0.0
C1440 C 0.10641 0.84289 0.12238 0.0
C1441 C 0.09896 0.83363 0.0963 0.0
C1442 C 0.09299 0.85272 0.1424 0.0
C1443 C 0.07167 0.85298 0.13636 0.0
C1444 C 0.06422 0.8442 0.10966 0.0
C1445 C 0.07792 0.83481 0.08996 0.0
C1446 C 0.10154 0.86228 0.17036 0.0
C1447 C 0.0416 0.84405 0.10228 0.0
C1448 C 0.02947 0.85447 0.19393 0.0
C1449 C 0.02057 0.8736 0.18794 0.0
C1450 C 0.04734 0.84816 0.1791 0.0
C1451 C 0.05668 0.86143 0.15816 0.0
C1452 C 0.049 0.88156 0.15445 0.0
C1453 C 0.03091 0.88736 0.16919 0.0
C1454 C 0.05496 0.82654 0.18369 0.0
C1455 C 0.05882 0.89639 0.13298 0.0
H1456 H 0.12264 0.84212 0.12745 0.0
H1457 H 0.07194 0.82782 0.06986 0.0
H1458 H 0.09513 0.87787 0.17364 0.0
H1459 H 0.09702 0.85295 0.18992 0.0
H1460 H 0.11854 0.86331 0.1698 0.0
H1461 H 0.03835 0.83678 0.08041 0.0
H1462 H 0.03304 0.83556 0.11972 0.0
H1463 H 0.03556 0.85994 0.10186 0.0
H1464 H 0.02168 0.84377 0.2085 0.0
H1465 H 0.02432 0.90231 0.1648 0.0
H1466 H 0.07188 0.8263 0.1861 0.0
H1467 H 0.05103 0.81715 0.16388 0.0
H1468 H 0.04801 0.81925 0.20362 0.0
H1469 H 0.07578 0.89573 0.13463 0.0
H1470 H 0.05373 0.9124 0.13704 0.0
H1471 H 0.05456 0.89214 0.10987 0.0
C1472 C 0.63957 0.77849 0.91353 0.0
C1473 C 0.62646 0.76898 0.9341 0.0
C1474 C 0.63378 0.79666 0.89902 0.0
C1475 C 0.6143 0.80532 0.90491 0.0
C1476 C 0.60186 0.79683 0.92762 0.0
C1477 C 0.60816 0.77883 0.9421 0.0
C1478 C 0.64775 0.80551 0.87553 0.0
C1479 C 0.58096 0.80553 0.93459 0.0
C1480 C 0.59628 0.85543 0.86971 0.0
C1481 C 0.58532 0.84811 0.84499 0.0
C1482 C 0.60645 0.8418 0.88906 0.0
C1483 C 0.60532 0.82042 0.88374 0.0
C1484 C 0.59472 0.81306 0.85842 0.0
C1485 C 0.58503 0.82695 0.83933 0.0
C1486 C 0.61794 0.85021 0.91553 0.0
C1487 C 0.59303 0.79038 0.85187 0.0
H1488 H 0.65391 0.77117 0.90755 0.0
H1489 H 0.59798 0.77171 0.95812 0.0
H1490 H 0.64197 0.80118 0.85316 0.0
H1491 H 0.64797 0.82249 0.87674 0.0
H1492 H 0.66369 0.79971 0.87778 0.0
H1493 H 0.57459 0.79923 0.95562 0.0
H1494 H 0.58161 0.82247 0.93639 0.0
H1495 H 0.57025 0.80174 0.91619 0.0
H1496 H 0.59665 0.87175 0.87423 0.0
H1497 H 0.57668 0.82106 0.8203 0.0
H1498 H 0.63343 0.84327 0.91695 0.0
H1499 H 0.60968 0.84618 0.9363 0.0
H1500 H 0.61954 0.86715 0.91451 0.0
H1501 H 0.60852 0.78354 0.84975 0.0
H1502 H 0.58437 0.78721 0.83107 0.0
H1503 H 0.58517 0.78251 0.87057 0.0
C1504 C 0.47954 0.3881 0.16681 0.0
C1505 C 0.48892 0.37418 0.18637 0.0
C1506 C 0.4614 0.38296 0.15167 0.0
C1507 C 0.45265 0.36331 0.1558 0.0
C1508 C 0.46111 0.34987 0.17731 0.0
C1509 C 0.47906 0.35554 0.1925 0.0
C1510 C 0.45257 0.39795 0.12953 0.0
C1511 C 0.45236 0.32873 0.18232 0.0
C1512 C 0.40191 0.34716 0.12048 0.0
C1513 C 0.40878 0.33708 0.09472 0.0
C1514 C 0.41589 0.35648 0.14021 0.0
C1515 C 0.43719 0.35542 0.1342 0.0
C1516 C 0.4441 0.34582 0.10779 0.0
C1517 C 0.42986 0.33695 0.08837 0.0
C1518 C 0.40793 0.36694 0.16785 0.0
C1519 C 0.46667 0.34424 0.10046 0.0
H1520 H 0.48688 0.40268 0.16224 0.0
H1521 H 0.48611 0.34471 0.20766 0.0
H1522 H 0.45664 0.39303 0.10664 0.0
H1523 H 0.4356 0.39832 0.13103 0.0
H1524 H 0.45858 0.4137 0.13301 0.0
H1525 H 0.45889 0.32128 0.20244 0.0
H1526 H 0.43545 0.32941 0.18468 0.0
H1527 H 0.4558 0.31894 0.16273 0.0
H1528 H 0.38567 0.3474 0.12556 0.0
H1529 H 0.43541 0.32931 0.06851 0.0
H1530 H 0.41505 0.38228 0.17041 0.0
H1531 H 0.41216 0.3578 0.18775 0.0
H1532 H 0.391 0.36872 0.16743 0.0
H1533 H 0.47365 0.35973 0.09966 0.0
H1534 H 0.46947 0.33653 0.07879 0.0
H1535 H 0.47469 0.33547 0.11814 0.0
C1536 C 0.89848 0.22427 0.44344 0.0
C1537 C 0.88029 0.2341 0.43477 0.0
C1538 C 0.90528 0.2065 0.42886 0.0
C1539 C 0.89344 0.19816 0.40538 0.0
C1540 C 0.87401 0.20671 0.39879 0.0
C1541 C 0.86774 0.22471 0.41337 0.0
C1542 C 0.92615 0.198 0.43654 0.0
C1543 C 0.86064 0.19795 0.37448 0.0
C1544 C 0.92422 0.17824 0.34015 0.0
C1545 C 0.92418 0.15697 0.34487 0.0
C1546 C 0.91405 0.1916 0.35948 0.0
C1547 C 0.90315 0.18359 0.3841 0.0
C1548 C 0.90242 0.16209 0.38861 0.0
C1549 C 0.91314 0.149 0.36907 0.0
C1550 C 0.91546 0.21442 0.35389 0.0
C1551 C 0.89061 0.15299 0.41428 0.0
H1552 H 0.90824 0.23128 0.46011 0.0
H1553 H 0.85349 0.23198 0.40685 0.0
H1554 H 0.92576 0.18103 0.43764 0.0
H1555 H 0.93721 0.20232 0.41886 0.0
H1556 H 0.93191 0.20401 0.45812 0.0
H1557 H 0.84457 0.20345 0.37628 0.0
H1558 H 0.86675 0.2027 0.35248 0.0
H1559 H 0.8607 0.18095 0.37518 0.0
H1560 H 0.93271 0.18464 0.32161 0.0
H1561 H 0.91295 0.1326 0.37283 0.0
H1562 H 0.92265 0.22212 0.37331 0.0
H1563 H 0.8999 0.221 0.35112 0.0
H1564 H 0.92459 0.21814 0.33373 0.0
H1565 H 0.89821 0.15706 0.43556 0.0
H1566 H 0.8896 0.13602 0.41278 0.0
H1567 H 0.87487 0.15941 0.41504 0.0
C1568 C 0.07691 0.66981 0.58685 0.0
C1569 C 0.09812 0.6682 0.59155 0.0
C1570 C 0.06287 0.65981 0.60537 0.0
C1571 C 0.07013 0.64749 0.62906 0.0
C1572 C 0.09152 0.64503 0.63329 0.0
C1573 C 0.10531 0.65559 0.61463 0.0
C1574 C 0.0402 0.66304 0.60011 0.0
C1575 C 0.09981 0.63168 0.65792 0.0
C1576 C 0.03006 0.64395 0.68955 0.0
C1577 C 0.01889 0.62669 0.68035 0.0
C1578 C 0.04791 0.65001 0.67451 0.0
C1579 C 0.05498 0.63833 0.65 0.0
C1580 C 0.04495 0.61977 0.64257 0.0
C1581 C 0.02689 0.61426 0.65764 0.0
C1582 C 0.05801 0.66999 0.68308 0.0
C1583 C 0.05232 0.60657 0.61715 0.0
H1584 H 0.07111 0.67946 0.56911 0.0
H1585 H 0.12166 0.65417 0.61835 0.0
H1586 H 0.03247 0.6481 0.5966 0.0
H1587 H 0.03315 0.67027 0.62 0.0
H1588 H 0.03711 0.67294 0.5805 0.0
H1589 H 0.11659 0.62918 0.65581 0.0
H1590 H 0.09675 0.639 0.67976 0.0
H1591 H 0.09198 0.61658 0.65797 0.0
H1592 H 0.02411 0.6536 0.70719 0.0
H1593 H 0.01854 0.60071 0.65068 0.0
H1594 H 0.05456 0.68173 0.66592 0.0
H1595 H 0.0749 0.66824 0.68406 0.0
H1596 H 0.05251 0.67574 0.70495 0.0
H1597 H 0.04783 0.61374 0.59572 0.0
H1598 H 0.04559 0.59093 0.61802 0.0
H1599 H 0.06928 0.60528 0.61735 0.0
C1600 C 0.60931 0.22771 0.56208 0.0
C1601 C 0.62658 0.23863 0.57188 0.0
C1602 C 0.60235 0.21033 0.57746 0.0
C1603 C 0.61305 0.20354 0.60305 0.0
C1604 C 0.63154 0.21335 0.61139 0.0
C1605 C 0.63803 0.23086 0.59581 0.0
C1606 C 0.58253 0.20036 0.56781 0.0
C1607 C 0.64364 0.20634 0.63816 0.0
C1608 C 0.57981 0.18205 0.66475 0.0
C1609 C 0.58212 0.16082 0.66105 0.0
C1610 C 0.59004 0.19598 0.64627 0.0
C1611 C 0.60317 0.18859 0.62359 0.0
C1612 C 0.60608 0.16721 0.62017 0.0
C1613 C 0.59541 0.15353 0.63885 0.0
C1614 C 0.58637 0.21867 0.65062 0.0
C1615 C 0.62018 0.15879 0.59651 0.0
H1616 H 0.6004 0.23347 0.54351 0.0
H1617 H 0.65155 0.23902 0.60334 0.0
H1618 H 0.58407 0.18343 0.56758 0.0
H1619 H 0.57027 0.20427 0.58397 0.0
H1620 H 0.57762 0.20555 0.54536 0.0
H1621 H 0.65929 0.21308 0.63855 0.0
H1622 H 0.63554 0.21107 0.65877 0.0
H1623 H 0.64495 0.18939 0.63853 0.0
H1624 H 0.5696 0.1879 0.68178 0.0
H1625 H 0.59735 0.13716 0.63588 0.0
H1626 H 0.57966 0.22534 0.63009 0.0
H1627 H 0.60111 0.22664 0.65482 0.0
H1628 H 0.57586 0.22189 0.66951 0.0
H1629 H 0.614 0.16248 0.57415 0.0
H1630 H 0.62204 0.14191 0.59824 0.0
H1631 H 0.6355 0.16609 0.59819 0.0
C1632 C 0.02513 0.3901 0.83947 0.0
C1633 C 0.01716 0.3774 0.81707 0.0
C1634 C 0.04312 0.38476 0.85483 0.0
C1635 C 0.05313 0.36607 0.84802 0.0
C1636 C 0.04603 0.35401 0.82391 0.0
C1637 C 0.02824 0.35991 0.80857 0.0
C1638 C 0.05051 0.39833 0.87983 0.0
C1639 C 0.0561 0.33389 0.81602 0.0
C1640 C 0.10386 0.34972 0.88309 0.0
C1641 C 0.09697 0.33738 0.90666 0.0
C1642 C 0.08983 0.3599 0.86435 0.0
C1643 C 0.0685 0.35735 0.86904 0.0
C1644 C 0.06154 0.34535 0.89325 0.0
C1645 C 0.0758 0.33571 0.91182 0.0
C1646 C 0.09781 0.37293 0.83914 0.0
C1647 C 0.03894 0.34205 0.899 0.0
H1648 H 0.01684 0.4038 0.84592 0.0
H1649 H 0.02229 0.35002 0.7912 0.0
H1650 H 0.04618 0.39141 0.90149 0.0
H1651 H 0.06746 0.39974 0.87943 0.0
H1652 H 0.04367 0.41391 0.87861 0.0
H1653 H 0.05044 0.32768 0.79449 0.0
H1654 H 0.07297 0.33566 0.8147 0.0
H1655 H 0.05281 0.32248 0.83373 0.0
H1656 H 0.12016 0.35118 0.879 0.0
H1657 H 0.07024 0.32627 0.92995 0.0
H1658 H 0.08999 0.38803 0.83892 0.0
H1659 H 0.09444 0.36534 0.81759 0.0
H1660 H 0.11462 0.37544 0.84072 0.0
H1661 H 0.03111 0.35699 0.90203 0.0
H1662 H 0.03608 0.3325 0.91906 0.0
H1663 H 0.0318 0.33439 0.87953 0.0
C1664 C 0.9016 0.78071 0.05111 0.0
C1665 C 0.88232 0.77198 0.05664 0.0
C1666 C 0.90782 0.79864 0.06585 0.0
C1667 C 0.8943 0.80825 0.0862 0.0
C1668 C 0.87403 0.80079 0.08926 0.0
C1669 C 0.86834 0.7826 0.07469 0.0
C1670 C 0.92961 0.806 0.06198 0.0
C1671 C 0.85892 0.81093 0.11 0.0
C1672 C 0.91992 0.82884 0.1556 0.0
C1673 C 0.9217 0.84986 0.14944 0.0
C1674 C 0.9107 0.81538 0.13541 0.0
C1675 C 0.90262 0.82306 0.10839 0.0
C1676 C 0.90347 0.84438 0.10248 0.0
C1677 C 0.91319 0.85756 0.12298 0.0
C1678 C 0.91026 0.79274 0.14267 0.0
C1679 C 0.89462 0.85319 0.07421 0.0
H1680 H 0.91249 0.7727 0.03707 0.0
H1681 H 0.85327 0.77615 0.07869 0.0
H1682 H 0.93011 0.8229 0.05957 0.0
H1683 H 0.93863 0.80194 0.08208 0.0
H1684 H 0.93711 0.79894 0.04228 0.0
H1685 H 0.84292 0.80609 0.10524 0.0
H1686 H 0.86259 0.80666 0.13331 0.0
H1687 H 0.85991 0.82787 0.1083 0.0
H1688 H 0.92635 0.82265 0.17596 0.0
H1689 H 0.91442 0.87377 0.11805 0.0
H1690 H 0.91882 0.78404 0.12545 0.0
H1691 H 0.89425 0.78704 0.14258 0.0
H1692 H 0.91714 0.78929 0.16474 0.0
H1693 H 0.9044 0.8488 0.05506 0.0
H1694 H 0.89366 0.87018 0.07502 0.0
H1695 H 0.87908 0.8469 0.07002 0.0
C1696 C 0.40054 0.65977 0.37399 0.0
C1697 C 0.40764 0.67006 0.39945 0.0
C1698 C 0.41432 0.64995 0.35447 0.0
C1699 C 0.43564 0.65074 0.36038 0.0
C1700 C 0.44278 0.66062 0.38645 0.0
C1701 C 0.42873 0.66998 0.40567 0.0
C1702 C 0.40612 0.63922 0.3272 0.0
C1703 C 0.46539 0.66195 0.39363 0.0
C1704 C 0.47756 0.61692 0.32928 0.0
C1705 C 0.48723 0.63041 0.3094 0.0
C1706 C 0.45938 0.62253 0.34396 0.0
C1707 C 0.45092 0.64222 0.33905 0.0
C1708 C 0.45965 0.65517 0.31713 0.0
C1709 C 0.47761 0.64903 0.3024 0.0
C1710 C 0.45025 0.60804 0.36653 0.0
C1711 C 0.45121 0.67633 0.31127 0.0
H1712 H 0.38428 0.65969 0.36902 0.0
H1713 H 0.43446 0.67779 0.42528 0.0
H1714 H 0.41043 0.64799 0.307 0.0
H1715 H 0.41299 0.62373 0.32508 0.0
H1716 H 0.38916 0.63771 0.32776 0.0
H1717 H 0.46838 0.67001 0.41498 0.0
H1718 H 0.47209 0.64635 0.39504 0.0
H1719 H 0.47354 0.67023 0.37559 0.0
H1720 H 0.48471 0.60236 0.3345 0.0
H1721 H 0.4849 0.65953 0.28697 0.0
H1722 H 0.43328 0.60795 0.36499 0.0
H1723 H 0.4544 0.61322 0.38928 0.0
H1724 H 0.45598 0.59213 0.36355 0.0
H1725 H 0.43429 0.67588 0.30901 0.0
H1726 H 0.45782 0.68328 0.29083 0.0
H1727 H 0.45486 0.68644 0.33043 0.0
C1728 C 0.41831 0.17989 0.16053 0.0
C1729 C 0.41704 0.15874 0.155 0.0
C1730 C 0.40848 0.19412 0.14213 0.0
C1731 C 0.39667 0.18713 0.11772 0.0
C1732 C 0.39444 0.16579 0.11274 0.0
C1733 C 0.40482 0.15181 0.13131 0.0
C1734 C 0.41145 0.21672 0.14821 0.0
C1735 C 0.38159 0.15777 0.08736 0.0
C1736 C 0.36392 0.23058 0.08868 0.0
C1737 C 0.37682 0.23889 0.06677 0.0
C1738 C 0.36917 0.21237 0.10356 0.0
C1739 C 0.38793 0.2025 0.09676 0.0
C1740 C 0.40011 0.20989 0.07298 0.0
C1741 C 0.39432 0.22789 0.05811 0.0
C1742 C 0.35544 0.20465 0.12816 0.0
C1743 C 0.4203 0.19995 0.06509 0.0
H1744 H 0.42763 0.18549 0.17878 0.0
H1745 H 0.40366 0.13551 0.12693 0.0
H1746 H 0.41911 0.22408 0.12891 0.0
H1747 H 0.39638 0.22433 0.15118 0.0
H1748 H 0.42086 0.21959 0.16839 0.0
H1749 H 0.37893 0.14099 0.08912 0.0
H1750 H 0.36655 0.1657 0.08666 0.0
H1751 H 0.38945 0.1609 0.06595 0.0
H1752 H 0.3502 0.23879 0.09521 0.0
H1753 H 0.40433 0.23409 0.04108 0.0
H1754 H 0.36211 0.20893 0.15002 0.0
H1755 H 0.35424 0.18769 0.12749 0.0
H1756 H 0.3398 0.21132 0.1267 0.0
H1757 H 0.43163 0.20316 0.08293 0.0
H1758 H 0.42655 0.20578 0.0437 0.0
H1759 H 0.4186 0.18308 0.06349 0.0
C1760 C 0.52933 0.65084 0.80006 0.0
C1761 C 0.51989 0.63203 0.8065 0.0
C1762 C 0.54735 0.65684 0.81477 0.0
C1763 C 0.55632 0.64357 0.83607 0.0
C1764 C 0.54805 0.62372 0.8403 0.0
C1765 C 0.52981 0.61825 0.82568 0.0
C1766 C 0.55555 0.67819 0.80967 0.0
C1767 C 0.55745 0.60889 0.86217 0.0
C1768 C 0.6065 0.66111 0.87177 0.0
C1769 C 0.59926 0.67067 0.89773 0.0
C1770 C 0.59285 0.65153 0.85179 0.0
C1771 C 0.57151 0.65189 0.85772 0.0
C1772 C 0.56424 0.6611 0.88422 0.0
C1773 C 0.57817 0.67017 0.9039 0.0
C1774 C 0.60118 0.64147 0.82408 0.0
C1775 C 0.54161 0.66198 0.89144 0.0
H1776 H 0.52185 0.66156 0.78517 0.0
H1777 H 0.5228 0.60354 0.83044 0.0
H1778 H 0.5518 0.68793 0.82919 0.0
H1779 H 0.57247 0.67798 0.80739 0.0
H1780 H 0.54885 0.6854 0.78949 0.0
H1781 H 0.55192 0.59298 0.85851 0.0
H1782 H 0.57442 0.60907 0.86054 0.0
H1783 H 0.55329 0.61353 0.88516 0.0
H1784 H 0.62276 0.66135 0.86685 0.0
H1785 H 0.57232 0.67744 0.92387 0.0
H1786 H 0.5967 0.65056 0.80425 0.0
H1787 H 0.59456 0.62592 0.82135 0.0
H1788 H 0.61816 0.64023 0.82454 0.0
H1789 H 0.53334 0.67044 0.87369 0.0
H1790 H 0.53852 0.66965 0.91306 0.0
H1791 H 0.53514 0.64628 0.89231 0.0
C1792 C 0.1003 0.85368 0.63473 0.0
C1793 C 0.08812 0.84643 0.65825 0.0
C1794 C 0.11077 0.83996 0.61586 0.0
C1795 C 0.10867 0.81856 0.62034 0.0
C1796 C 0.09684 0.81124 0.64452 0.0
C1797 C 0.08691 0.82522 0.66323 0.0
C1798 C 0.12361 0.84832 0.59071 0.0
C1799 C 0.094 0.78855 0.65006 0.0
C1800 C 0.11156 0.77852 0.55971 0.0
C1801 C 0.12914 0.76757 0.56819 0.0
C1802 C 0.10555 0.79626 0.57505 0.0
C1803 C 0.11759 0.80346 0.59911 0.0
C1804 C 0.1364 0.79365 0.6058 0.0
C1805 C 0.14186 0.77568 0.59048 0.0
C1806 C 0.08528 0.80611 0.56729 0.0
C1807 C 0.14999 0.80119 0.6307 0.0
H1808 H 0.10141 0.87003 0.63079 0.0
H1809 H 0.07761 0.81937 0.68133 0.0
H1810 H 0.13876 0.8406 0.59006 0.0
H1811 H 0.1159 0.84521 0.56918 0.0
H1812 H 0.12604 0.86512 0.59273 0.0
H1813 H 0.08452 0.78541 0.6701 0.0
H1814 H 0.08647 0.78135 0.63053 0.0
H1815 H 0.1091 0.78102 0.653 0.0
H1816 H 0.10167 0.77247 0.54242 0.0
H1817 H 0.15563 0.7675 0.59688 0.0
H1818 H 0.08684 0.82301 0.5661 0.0
H1819 H 0.07394 0.8026 0.58499 0.0
H1820 H 0.07913 0.80046 0.54573 0.0
H1821 H 0.15109 0.81817 0.63041 0.0
H1822 H 0.16567 0.79464 0.62923 0.0
H1823 H 0.14326 0.79666 0.6524 0.0
C1824 C 0.89954 0.342 0.37539 0.0
C1825 C 0.90699 0.33317 0.40177 0.0
C1826 C 0.91293 0.35169 0.35518 0.0
C1827 C 0.93422 0.35226 0.36137 0.0
C1828 C 0.94167 0.34394 0.38838 0.0
C1829 C 0.92799 0.33468 0.40824 0.0
C1830 C 0.90438 0.36075 0.32689 0.0
C1831 C 0.96426 0.34414 0.39593 0.0
C1832 C 0.97659 0.35335 0.30403 0.0
C1833 C 0.98528 0.37266 0.30949 0.0
C1834 C 0.95875 0.34707 0.31894 0.0
C1835 C 0.94921 0.36055 0.33942 0.0
C1836 C 0.95668 0.3808 0.34257 0.0
C1837 C 0.97475 0.38657 0.32778 0.0
C1838 C 0.95136 0.32531 0.31497 0.0
C1839 C 0.94663 0.39584 0.36352 0.0
H1840 H 0.88334 0.34097 0.37022 0.0
H1841 H 0.93397 0.32804 0.42858 0.0
H1842 H 0.91066 0.37635 0.32316 0.0
H1843 H 0.90904 0.35117 0.30764 0.0
H1844 H 0.88738 0.36164 0.3273 0.0
H1845 H 0.9675 0.33723 0.41804 0.0
H1846 H 0.97296 0.33549 0.37881 0.0
H1847 H 0.97013 0.36009 0.39591 0.0
H1848 H 0.98454 0.34253 0.28983 0.0
H1849 H 0.98118 0.40165 0.33176 0.0
H1850 H 0.93446 0.32486 0.31243 0.0
H1851 H 0.95532 0.31625 0.33508 0.0
H1852 H 0.95846 0.3178 0.29531 0.0
H1853 H 0.92969 0.39499 0.36177 0.0
H1854 H 0.95158 0.41184 0.35902 0.0
H1855 H 0.95085 0.39197 0.38678 0.0
C1856 C 0.42075 0.82728 0.33602 0.0
C1857 C 0.41981 0.84846 0.34142 0.0
C1858 C 0.41061 0.81326 0.3544 0.0
C1859 C 0.39885 0.8205 0.37869 0.0
C1860 C 0.39704 0.84188 0.38365 0.0
C1861 C 0.40771 0.85565 0.36508 0.0
C1862 C 0.41313 0.7906 0.34834 0.0
C1863 C 0.38429 0.85016 0.40895 0.0
C1864 C 0.36497 0.77766 0.40678 0.0
C1865 C 0.37757 0.76892 0.4287 0.0
C1866 C 0.37068 0.79586 0.39227 0.0
C1867 C 0.3896 0.80529 0.39945 0.0
C1868 C 0.40147 0.79751 0.42329 0.0
C1869 C 0.39522 0.77951 0.4378 0.0
C1870 C 0.35727 0.80401 0.36758 0.0
C1871 C 0.42181 0.80697 0.43159 0.0
H1872 H 0.42998 0.82148 0.31781 0.0
H1873 H 0.40681 0.87197 0.36936 0.0
H1874 H 0.42046 0.78305 0.36775 0.0
H1875 H 0.39792 0.78333 0.34507 0.0
H1876 H 0.42264 0.78753 0.32831 0.0
H1877 H 0.38211 0.86701 0.40731 0.0
H1878 H 0.36903 0.84264 0.40939 0.0
H1879 H 0.39193 0.84671 0.43043 0.0
H1880 H 0.35113 0.76976 0.39993 0.0
H1881 H 0.40501 0.77299 0.45485 0.0
H1882 H 0.36396 0.79968 0.34576 0.0
H1883 H 0.35646 0.82099 0.3684 0.0
H1884 H 0.34148 0.7977 0.36878 0.0
H1885 H 0.43323 0.80348 0.41398 0.0
H1886 H 0.42772 0.80098 0.4531 0.0
H1887 H 0.42051 0.82387 0.43316 0.0
C1888 C 0.97277 0.61848 0.17039 0.0
C1889 C 0.98272 0.63169 0.19038 0.0
C1890 C 0.95477 0.62455 0.15566 0.0
C1891 C 0.94678 0.64443 0.16065 0.0
C1892 C 0.95562 0.65701 0.18292 0.0
C1893 C 0.97341 0.65041 0.19769 0.0
C1894 C 0.94549 0.61042 0.13273 0.0
C1895 C 0.94767 0.67834 0.18893 0.0
C1896 C 0.9274 0.67281 0.09282 0.0
C1897 C 0.90614 0.67348 0.09761 0.0
C1898 C 0.94057 0.6632 0.11302 0.0
C1899 C 0.93237 0.65362 0.13864 0.0
C1900 C 0.91087 0.65357 0.14327 0.0
C1901 C 0.89798 0.6637 0.1228 0.0
C1902 C 0.96341 0.66381 0.10722 0.0
C1903 C 0.90156 0.64316 0.17003 0.0
H1904 H 0.97965 0.60382 0.16498 0.0
H1905 H 0.98086 0.66068 0.21328 0.0
H1906 H 0.9285 0.61097 0.13363 0.0
H1907 H 0.95024 0.61544 0.11016 0.0
H1908 H 0.95057 0.59432 0.13589 0.0
H1909 H 0.95392 0.68477 0.20996 0.0
H1910 H 0.95221 0.68859 0.17034 0.0
H1911 H 0.9307 0.67842 0.19016 0.0
H1912 H 0.93395 0.68031 0.07351 0.0
H1913 H 0.88159 0.66408 0.12665 0.0
H1914 H 0.96958 0.648 0.10581 0.0
H1915 H 0.97134 0.67161 0.12592 0.0
H1916 H 0.96728 0.67197 0.08626 0.0
H1917 H 0.90773 0.62739 0.17241 0.0
H1918 H 0.88458 0.64235 0.16857 0.0
H1919 H 0.90572 0.6517 0.1905 0.0
C1920 C 0.1414 0.23096 0.90604 0.0
C1921 C 0.12938 0.23852 0.92952 0.0
C1922 C 0.13587 0.21294 0.89088 0.0
C1923 C 0.11771 0.20246 0.89908 0.0
C1924 C 0.10649 0.20909 0.92428 0.0
C1925 C 0.11255 0.22695 0.93933 0.0
C1926 C 0.14856 0.20608 0.86463 0.0
C1927 C 0.08696 0.19849 0.9337 0.0
C1928 C 0.08546 0.17995 0.83711 0.0
C1929 C 0.08788 0.15876 0.84134 0.0
C1930 C 0.09539 0.19417 0.85543 0.0
C1931 C 0.10845 0.18716 0.87843 0.0
C1932 C 0.11164 0.16583 0.88224 0.0
C1933 C 0.10116 0.15184 0.8638 0.0
C1934 C 0.09134 0.21676 0.85068 0.0
C1935 C 0.12578 0.15782 0.90614 0.0
H1936 H 0.15461 0.23962 0.89856 0.0
H1937 H 0.10322 0.23255 0.95756 0.0
H1938 H 0.15031 0.18916 0.86452 0.0
H1939 H 0.1407 0.21049 0.84369 0.0
H1940 H 0.16403 0.21322 0.86471 0.0
H1941 H 0.08164 0.20369 0.95594 0.0
H1942 H 0.07472 0.2018 0.91722 0.0
H1943 H 0.0891 0.18163 0.93429 0.0
H1944 H 0.07525 0.18554 0.81988 0.0
H1945 H 0.1032 0.13551 0.86716 0.0
H1946 H 0.10595 0.22497 0.84657 0.0
H1947 H 0.08437 0.22346 0.87101 0.0
H1948 H 0.0809 0.21966 0.83161 0.0
H1949 H 0.14078 0.16582 0.90515 0.0
H1950 H 0.12841 0.14106 0.90408 0.0
H1951 H 0.11909 0.16095 0.92838 0.0
C1952 C 0.57833 0.33896 0.58918 0.0
C1953 C 0.59933 0.33803 0.59589 0.0
C1954 C 0.56435 0.34811 0.60872 0.0
C1955 C 0.57149 0.35692 0.63559 0.0
C1956 C 0.59278 0.35707 0.64185 0.0
C1957 C 0.60648 0.34747 0.622 0.0
C1958 C 0.54178 0.34753 0.60109 0.0
C1959 C 0.601 0.36671 0.66995 0.0
C1960 C 0.52978 0.38988 0.66903 0.0
C1961 C 0.51985 0.3757 0.68761 0.0
C1962 C 0.54799 0.3847 0.65414 0.0
C1963 C 0.55621 0.36475 0.65745 0.0
C1964 C 0.54725 0.35105 0.67816 0.0
C1965 C 0.52926 0.35676 0.69319 0.0
C1966 C 0.55741 0.39999 0.63297 0.0
C1967 C 0.55545 0.3296 0.68232 0.0
H1968 H 0.57259 0.33187 0.56902 0.0
H1969 H 0.62267 0.3469 0.62735 0.0
H1970 H 0.53335 0.33866 0.61825 0.0
H1971 H 0.53537 0.36327 0.60097 0.0
H1972 H 0.53881 0.34043 0.57902 0.0
H1973 H 0.61794 0.36843 0.66932 0.0
H1974 H 0.59398 0.382 0.67361 0.0
H1975 H 0.59693 0.357 0.68934 0.0
H1976 H 0.52279 0.40469 0.66495 0.0
H1977 H 0.52178 0.34573 0.7076 0.0
H1978 H 0.55329 0.39584 0.60977 0.0
H1979 H 0.57438 0.39977 0.63464 0.0
H1980 H 0.55188 0.41581 0.63732 0.0
H1981 H 0.55193 0.32034 0.66222 0.0
H1982 H 0.54858 0.32187 0.70197 0.0
H1983 H 0.57235 0.32982 0.68498 0.0
C1984 C 0.07027 0.4567 0.25613 0.0
C1985 C 0.057 0.45229 0.27981 0.0
C1986 C 0.0718 0.47671 0.24465 0.0
C1987 C 0.05918 0.49244 0.2564 0.0
C1988 C 0.0458 0.48801 0.28038 0.0
C1989 C 0.04515 0.46808 0.29211 0.0
C1990 C 0.08675 0.48098 0.21976 0.0
C1991 C 0.03158 0.50411 0.29293 0.0
C1992 C 0.06901 0.54933 0.24359 0.0
C1993 C 0.056 0.55342 0.21948 0.0
C1994 C 0.07097 0.52933 0.25498 0.0
C1995 C 0.05902 0.51326 0.24269 0.0
C1996 C 0.04593 0.51737 0.21825 0.0
C1997 C 0.04486 0.53731 0.20664 0.0
C1998 C 0.0856 0.52544 0.28039 0.0
C1999 C 0.03242 0.50088 0.20508 0.0
H2000 H 0.07953 0.44452 0.24671 0.0
H2001 H 0.03472 0.46467 0.31024 0.0
H2002 H 0.07827 0.4849 0.19914 0.0
H2003 H 0.0965 0.49436 0.22548 0.0
H2004 H 0.09681 0.46762 0.21507 0.0
H2005 H 0.02212 0.49817 0.3116 0.0
H2006 H 0.04051 0.51745 0.30102 0.0
H2007 H 0.02117 0.50974 0.27517 0.0
H2008 H 0.07774 0.56174 0.25342 0.0
H2009 H 0.03463 0.54047 0.18816 0.0
H2010 H 0.09578 0.51232 0.27503 0.0
H2011 H 0.07688 0.5213 0.30071 0.0
H2012 H 0.09523 0.53905 0.28544 0.0
H2013 H 0.04187 0.48778 0.19742 0.0
H2014 H 0.0232 0.50656 0.18599 0.0
H2015 H 0.02181 0.49498 0.22239 0.0
C2016 C 0.79835 0.79976 0.50224 0.0
C2017 C 0.80433 0.81139 0.52696 0.0
C2018 C 0.77798 0.80005 0.49206 0.0
C2019 C 0.76346 0.81294 0.50623 0.0
C2020 C 0.76971 0.82546 0.53036 0.0
C2021 C 0.78998 0.82418 0.54088 0.0
C2022 C 0.77182 0.78593 0.46696 0.0
C2023 C 0.75495 0.84002 0.54529 0.0
C2024 C 0.71485 0.82305 0.46163 0.0
C2025 C 0.70079 0.81003 0.47569 0.0
C2026 C 0.73507 0.82488 0.47218 0.0
C2027 C 0.74158 0.81267 0.49649 0.0
C2028 C 0.72734 0.79953 0.51079 0.0
C2029 C 0.70699 0.7987 0.50059 0.0
C2030 C 0.7495 0.83968 0.45709 0.0
C2031 C 0.73379 0.78572 0.53609 0.0
H2032 H 0.8094 0.78967 0.49172 0.0
H2033 H 0.79464 0.83323 0.55996 0.0
H2034 H 0.75967 0.77529 0.47471 0.0
H2035 H 0.76536 0.79491 0.44823 0.0
H2036 H 0.78492 0.77674 0.4585 0.0
H2037 H 0.76271 0.85011 0.56172 0.0
H2038 H 0.74726 0.84975 0.52837 0.0
H2039 H 0.74283 0.83123 0.55697 0.0
H2040 H 0.71 0.83187 0.44243 0.0
H2041 H 0.69615 0.78844 0.51122 0.0
H2042 H 0.76182 0.8311 0.44552 0.0
H2043 H 0.75697 0.84968 0.47389 0.0
H2044 H 0.74153 0.8495 0.44053 0.0
H2045 H 0.74618 0.7753 0.52849 0.0
H2046 H 0.72089 0.7763 0.54467 0.0
H2047 H 0.74006 0.79496 0.5547 0.0
C2048 C 0.43295 0.4573 0.74094 0.0
C2049 C 0.44612 0.45299 0.71711 0.0
C2050 C 0.43119 0.47733 0.75227 0.0
C2051 C 0.44352 0.4932 0.74024 0.0
C2052 C 0.45678 0.48887 0.71608 0.0
C2053 C 0.45763 0.46891 0.70449 0.0
C2054 C 0.41635 0.48148 0.77734 0.0
C2055 C 0.47071 0.50511 0.70323 0.0
C2056 C 0.43323 0.55001 0.75301 0.0
C2057 C 0.44636 0.55427 0.77692 0.0
C2058 C 0.43137 0.52997 0.74172 0.0
C2059 C 0.44355 0.51405 0.75389 0.0
C2060 C 0.45677 0.51832 0.77813 0.0
C2061 C 0.45772 0.53829 0.78967 0.0
C2062 C 0.41659 0.5259 0.71655 0.0
C2063 C 0.47053 0.50199 0.79113 0.0
H2064 H 0.42394 0.44502 0.75061 0.0
H2065 H 0.46799 0.46558 0.68625 0.0
H2066 H 0.42492 0.48547 0.79786 0.0
H2067 H 0.40646 0.49477 0.77175 0.0
H2068 H 0.40643 0.46804 0.78215 0.0
H2069 H 0.48008 0.49926 0.68441 0.0
H2070 H 0.46156 0.51834 0.69526 0.0
H2071 H 0.48119 0.51089 0.72079 0.0
H2072 H 0.42434 0.56234 0.74325 0.0
H2073 H 0.46804 0.54158 0.80799 0.0
H2074 H 0.40661 0.51266 0.72208 0.0
H2075 H 0.4252 0.52185 0.6961 0.0
H2076 H 0.40677 0.53939 0.71166 0.0
H2077 H 0.46127 0.48882 0.79901 0.0
H2078 H 0.47985 0.5078 0.81005 0.0
H2079 H 0.48107 0.49616 0.77368 0.0
C2080 C 0.79924 0.20467 0.99704 0.0
C2081 C 0.80505 0.19309 0.97218 0.0
C2082 C 0.77894 0.20432 0.00751 0.0
C2083 C 0.76435 0.19143 0.99349 0.0
C2084 C 0.77047 0.17889 0.96932 0.0
C2085 C 0.79065 0.18022 0.95853 0.0
C2086 C 0.77292 0.21847 0.03264 0.0
C2087 C 0.75562 0.16435 0.95453 0.0
C2088 C 0.71539 0.18191 0.03755 0.0
C2089 C 0.70155 0.19503 0.02321 0.0
C2090 C 0.73567 0.1799 0.02734 0.0
C2091 C 0.74246 0.19199 0.00306 0.0
C2092 C 0.72846 0.20525 0.98851 0.0
C2093 C 0.70806 0.20628 0.9984 0.0
C2094 C 0.74986 0.16498 0.04267 0.0
C2095 C 0.7352 0.21893 0.96322 0.0
H2096 H 0.81032 0.21482 0.00736 0.0
H2097 H 0.79519 0.17119 0.93936 0.0
H2098 H 0.76101 0.22935 0.02479 0.0
H2099 H 0.76617 0.20957 0.05124 0.0
H2100 H 0.78614 0.22739 0.04131 0.0
H2101 H 0.76335 0.15404 0.93836 0.0
H2102 H 0.74774 0.15485 0.97152 0.0
H2103 H 0.74367 0.17317 0.94254 0.0
H2104 H 0.71031 0.17315 0.05668 0.0
H2105 H 0.69741 0.21662 0.98753 0.0
H2106 H 0.76228 0.17345 0.05421 0.0
H2107 H 0.75722 0.1548 0.02602 0.0
H2108 H 0.74171 0.15536 0.05929 0.0
H2109 H 0.74777 0.22913 0.97085 0.0
H2110 H 0.72249 0.22858 0.95458 0.0
H2111 H 0.74132 0.20956 0.94465 0.0
C2112 C 0.95521 0.45662 0.74923 0.0
C2113 C 0.9436 0.45074 0.77402 0.0
C2114 C 0.95475 0.4769 0.73874 0.0
C2115 C 0.94171 0.49142 0.75266 0.0
C2116 C 0.92921 0.48523 0.77684 0.0
C2117 C 0.93066 0.46507 0.78767 0.0
C2118 C 0.96884 0.48299 0.71359 0.0
C2119 C 0.91452 0.49998 0.79152 0.0
C2120 C 0.95566 0.54789 0.74643 0.0
C2121 C 0.94433 0.55391 0.72144 0.0
C2122 C 0.95492 0.52761 0.75687 0.0
C2123 C 0.94187 0.51323 0.74268 0.0
C2124 C 0.92965 0.51954 0.71827 0.0
C2125 C 0.93138 0.5397 0.70751 0.0
C2126 C 0.96873 0.52137 0.78229 0.0
C2127 C 0.91495 0.50494 0.70329 0.0
H2128 H 0.96541 0.44558 0.73892 0.0
H2129 H 0.92162 0.46047 0.80678 0.0
H2130 H 0.95984 0.48932 0.69478 0.0
H2131 H 0.97943 0.49524 0.72123 0.0
H2132 H 0.9781 0.4699 0.70528 0.0
H2133 H 0.90444 0.49225 0.80798 0.0
H2134 H 0.92321 0.51222 0.80311 0.0
H2135 H 0.90478 0.50751 0.77446 0.0
H2136 H 0.96587 0.55883 0.75697 0.0
H2137 H 0.92254 0.5444 0.68823 0.0
H2138 H 0.97923 0.509 0.77486 0.0
H2139 H 0.95949 0.51515 0.80093 0.0
H2140 H 0.97806 0.53436 0.79076 0.0
H2141 H 0.92362 0.49261 0.69189 0.0
H2142 H 0.90511 0.51277 0.68661 0.0
H2143 H 0.90496 0.49752 0.72014 0.0
C2144 C 0.30036 0.185 0.50405 0.0
C2145 C 0.30485 0.19776 0.52829 0.0
C2146 C 0.28027 0.18359 0.49278 0.0
C2147 C 0.26454 0.19582 0.50536 0.0
C2148 C 0.26905 0.20865 0.52994 0.0
C2149 C 0.28905 0.20918 0.54141 0.0
C2150 C 0.27594 0.16922 0.46721 0.0
C2151 C 0.25293 0.22246 0.54342 0.0
C2152 C 0.21942 0.21105 0.45661 0.0
C2153 C 0.20342 0.19948 0.46891 0.0
C2154 C 0.23939 0.20986 0.46811 0.0
C2155 C 0.24365 0.19622 0.49185 0.0
C2156 C 0.22769 0.18389 0.5036 0.0
C2157 C 0.20765 0.18596 0.49236 0.0
C2158 C 0.25576 0.22378 0.45557 0.0
C2159 C 0.23173 0.16869 0.52823 0.0
H2160 H 0.31253 0.17606 0.49399 0.0
H2161 H 0.29252 0.21922 0.55999 0.0
H2162 H 0.26261 0.1593 0.47254 0.0
H2163 H 0.27191 0.17816 0.44705 0.0
H2164 H 0.28931 0.15932 0.46191 0.0
H2165 H 0.2589 0.23143 0.56257 0.0
H2166 H 0.2472 0.23331 0.5263 0.0
H2167 H 0.23965 0.21327 0.55109 0.0
H2168 H 0.21616 0.22167 0.43866 0.0
H2169 H 0.19532 0.1769 0.50177 0.0
H2170 H 0.26886 0.2146 0.44724 0.0
H2171 H 0.26171 0.23395 0.4734 0.0
H2172 H 0.24995 0.23348 0.43707 0.0
H2173 H 0.24485 0.15868 0.52224 0.0
H2174 H 0.21817 0.15891 0.53294 0.0
H2175 H 0.23596 0.17694 0.54893 0.0
C2176 C 0.54924 0.537 0.29176 0.0
C2177 C 0.56083 0.55294 0.27935 0.0
C2178 C 0.55022 0.51704 0.28017 0.0
C2179 C 0.56371 0.51272 0.25627 0.0
C2180 C 0.57609 0.52862 0.24444 0.0
C2181 C 0.57419 0.54866 0.25573 0.0
C2182 C 0.53621 0.50077 0.29277 0.0
C2183 C 0.59117 0.5245 0.21967 0.0
C2184 C 0.57453 0.45595 0.24372 0.0
C2185 C 0.56175 0.45162 0.21944 0.0
C2186 C 0.57607 0.476 0.25512 0.0
C2187 C 0.56391 0.49184 0.24268 0.0
C2188 C 0.55101 0.48748 0.21811 0.0
C2189 C 0.55038 0.46752 0.20648 0.0
C2190 C 0.59053 0.48017 0.28064 0.0
C2191 C 0.53725 0.50369 0.20482 0.0
H2192 H 0.53874 0.54032 0.30983 0.0
H2193 H 0.58326 0.56095 0.24623 0.0
H2194 H 0.52594 0.49492 0.27499 0.0
H2195 H 0.54532 0.48759 0.301 0.0
H2196 H 0.52661 0.50663 0.31134 0.0
H2197 H 0.60105 0.53799 0.21496 0.0
H2198 H 0.60109 0.51128 0.22551 0.0
H2199 H 0.58281 0.5204 0.19901 0.0
H2200 H 0.58342 0.4437 0.25366 0.0
H2201 H 0.54032 0.46416 0.18788 0.0
H2202 H 0.58166 0.48424 0.30086 0.0
H2203 H 0.60053 0.49343 0.2753 0.0
H2204 H 0.60034 0.46672 0.28584 0.0
H2205 H 0.52654 0.50951 0.22206 0.0
H2206 H 0.52812 0.4978 0.18577 0.0
H2207 H 0.5465 0.51691 0.19704 0.0
C2208 C 0.21607 0.82063 0.04216 0.0
C2209 C 0.20184 0.80799 0.0277 0.0
C2210 C 0.23628 0.8224 0.03159 0.0
C2211 C 0.2426 0.81049 0.00686 0.0
C2212 C 0.22819 0.79775 0.99216 0.0
C2213 C 0.20785 0.797 0.00241 0.0
C2214 C 0.2509 0.83681 0.0471 0.0
C2215 C 0.23444 0.78425 0.9664 0.0
C2216 C 0.291 0.82197 0.96254 0.0
C2217 C 0.3052 0.8088 0.97599 0.0
C2218 C 0.2708 0.82341 0.97326 0.0
C2219 C 0.26446 0.81065 0.99706 0.0
C2220 C 0.27884 0.79737 0.01076 0.0
C2221 C 0.29917 0.79694 0.00044 0.0
C2222 C 0.2562 0.83839 0.95888 0.0
C2223 C 0.27257 0.78299 0.03547 0.0
H2224 H 0.21135 0.82919 0.06168 0.0
H2225 H 0.19688 0.78703 0.99148 0.0
H2226 H 0.26312 0.82792 0.0584 0.0
H2227 H 0.25848 0.84695 0.0306 0.0
H2228 H 0.24306 0.84649 0.06396 0.0
H2229 H 0.22143 0.77509 0.95758 0.0
H2230 H 0.24076 0.7937 0.94806 0.0
H2231 H 0.24674 0.77359 0.97361 0.0
H2232 H 0.29573 0.83119 0.94368 0.0
H2233 H 0.31012 0.78656 0.01057 0.0
H2234 H 0.24864 0.84792 0.97614 0.0
H2235 H 0.24398 0.82994 0.9469 0.0
H2236 H 0.26407 0.84866 0.9428 0.0
H2237 H 0.26625 0.79178 0.05449 0.0
H2238 H 0.28558 0.77352 0.04359 0.0
H2239 H 0.26027 0.7726 0.02746 0.0
C2240 C 0.5489 0.95733 0.75165 0.0
C2241 C 0.56032 0.95149 0.77664 0.0
C2242 C 0.54943 0.97759 0.74111 0.0
C2243 C 0.56236 0.99213 0.7552 0.0
C2244 C 0.57474 0.98597 0.77951 0.0
C2245 C 0.57322 0.96583 0.79038 0.0
C2246 C 0.53544 0.98367 0.71581 0.0
C2247 C 0.58933 1.00074 0.79438 0.0
C2248 C 0.57246 0.04087 0.71093 0.0
C2249 C 0.55939 0.05485 0.72508 0.0
C2250 C 0.57428 0.02061 0.72129 0.0
C2251 C 0.56202 0.01399 0.74549 0.0
C2252 C 0.54882 0.02814 0.75985 0.0
C2253 C 0.54799 0.04851 0.74983 0.0
C2254 C 0.58915 0.00626 0.70618 0.0
C2255 C 0.53497 0.02158 0.78505 0.0
H2256 H 0.53874 0.94628 0.74126 0.0
H2257 H 0.58212 0.96126 0.80966 0.0
H2258 H 0.52463 0.9957 0.72349 0.0
H2259 H 0.54448 0.99027 0.69725 0.0
H2260 H 0.52643 0.9705 0.70716 0.0
H2261 H 0.5995 0.99297 0.81069 0.0
H2262 H 0.59898 0.0085 0.77743 0.0
H2263 H 0.58055 0.0128 0.8062 0.0
H2264 H 0.58134 0.04583 0.69184 0.0
H2265 H 0.53769 0.05928 0.76053 0.0
H2266 H 0.58063 0.9939 0.6946 0.0
H2267 H 0.59919 0.99885 0.72297 0.0
H2268 H 0.59893 0.01429 0.68963 0.0
H2269 H 0.5247 0.00907 0.7774 0.0
H2270 H 0.52539 0.03439 0.79353 0.0
H2271 H 0.54421 0.01544 0.80374 0.0
C2272 C 0.29016 0.32657 0.03972 0.0
C2273 C 0.30461 0.31383 0.02595 0.0
C2274 C 0.27006 0.32811 0.02863 0.0
C2275 C 0.26407 0.3159 0.00403 0.0
C2276 C 0.27872 0.3031 0.98996 0.0
C2277 C 0.29893 0.30256 0.00073 0.0
C2278 C 0.25517 0.34257 0.04349 0.0
C2279 C 0.27283 0.28929 0.96435 0.0
C2280 C 0.20771 0.30162 0.99691 0.0
C2281 C 0.20171 0.31317 0.97212 0.0
C2282 C 0.22794 0.3024 0.00757 0.0
C2283 C 0.24229 0.31571 0.99383 0.0
C2284 C 0.23599 0.32814 0.96964 0.0
C2285 C 0.21589 0.32637 0.95864 0.0
C2286 C 0.23417 0.28836 0.03272 0.0
C2287 C 0.25054 0.34312 0.95517 0.0
H2288 H 0.2946 0.33535 0.05918 0.0
H2289 H 0.31006 0.29251 0.99031 0.0
H2290 H 0.24761 0.35241 0.02659 0.0
H2291 H 0.24296 0.33369 0.05484 0.0
H2292 H 0.26279 0.35255 0.06021 0.0
H2293 H 0.28603 0.28024 0.95591 0.0
H2294 H 0.26064 0.27852 0.97159 0.0
H2295 H 0.26651 0.29848 0.94574 0.0
H2296 H 0.1968 0.29123 0.0071 0.0
H2297 H 0.2112 0.33537 0.93952 0.0
H2298 H 0.24021 0.29743 0.05165 0.0
H2299 H 0.24667 0.27805 0.02517 0.0
H2300 H 0.22121 0.27882 0.04081 0.0
H2301 H 0.25784 0.35295 0.97233 0.0
H2302 H 0.2427 0.3531 0.93868 0.0
H2303 H 0.26298 0.33467 0.94365 0.0
C2304 C 0.93727 0.04994 0.25398 0.0
C2305 C 0.95048 0.05395 0.27788 0.0
C2306 C 0.93519 0.02997 0.24248 0.0
C2307 C 0.94722 0.01386 0.25446 0.0
C2308 C 0.96054 0.01789 0.27867 0.0
C2309 C 0.96172 0.0378 0.2904 0.0
C2310 C 0.92032 0.02616 0.21734 0.0
C2311 C 0.97414 1.00136 0.29148 0.0
C2312 C 0.93569 0.95732 0.24123 0.0
C2313 C 0.94874 0.95287 0.21731 0.0
C2314 C 0.9343 0.97735 0.25271 0.0
C2315 C 0.94685 0.99305 0.24071 0.0
C2316 C 0.95999 0.98858 0.21647 0.0
C2317 C 0.96049 0.96864 0.20475 0.0
C2318 C 0.9196 0.98166 0.2779 0.0
C2319 C 0.97413 0.00464 0.20362 0.0
H2320 H 0.92845 0.06238 0.2444 0.0
H2321 H 0.9721 0.0409 0.30872 0.0
H2322 H 0.92884 0.02197 0.19686 0.0
H2323 H 0.91012 0.01309 0.22288 0.0
H2324 H 0.91072 0.03982 0.21248 0.0
H2325 H 0.98361 0.007 0.31035 0.0
H2326 H 0.96473 0.9883 0.29937 0.0
H2327 H 0.98453 0.99542 0.27392 0.0
H2328 H 0.9265 0.94517 0.25086 0.0
H2329 H 0.97075 0.9652 0.18643 0.0
H2330 H 0.90987 0.99509 0.27241 0.0
H2331 H 0.92829 0.98551 0.29837 0.0
H2332 H 0.90952 0.96834 0.28274 0.0
H2333 H 0.96516 0.01803 0.1958 0.0
H2334 H 0.98335 0.9987 0.18471 0.0
H2335 H 0.98476 0.0102 0.22116 0.0
C2336 C 0.28962 0.68191 0.45431 0.0
C2337 C 0.3042 0.69435 0.46839 0.0
C2338 C 0.26961 0.68018 0.46564 0.0
C2339 C 0.26382 0.69191 0.49082 0.0
C2340 C 0.27859 0.70443 0.50518 0.0
C2341 C 0.29872 0.70516 0.49412 0.0
C2342 C 0.25459 0.66603 0.45043 0.0
C2343 C 0.27292 0.71773 0.53143 0.0
C2344 C 0.20752 0.7059 0.4996 0.0
C2345 C 0.20179 0.69386 0.52402 0.0
C2346 C 0.22765 0.70539 0.48853 0.0
C2347 C 0.24215 0.69185 0.50143 0.0
C2348 C 0.2361 0.67893 0.52521 0.0
C2349 C 0.21611 0.68044 0.53669 0.0
C2350 C 0.23362 0.71994 0.46388 0.0
C2351 C 0.25081 0.6637 0.53877 0.0
H2352 H 0.29391 0.67348 0.43446 0.0
H2353 H 0.30995 0.71498 0.50479 0.0
H2354 H 0.24722 0.65581 0.46703 0.0
H2355 H 0.24225 0.67511 0.43974 0.0
H2356 H 0.26205 0.65643 0.43311 0.0
H2357 H 0.28617 0.72667 0.53997 0.0
H2358 H 0.26062 0.72859 0.52488 0.0
H2359 H 0.26681 0.70817 0.5498 0.0
H2360 H 0.19649 0.71647 0.49007 0.0
H2361 H 0.21162 0.67106 0.55552 0.0
H2362 H 0.23952 0.71128 0.44446 0.0
H2363 H 0.24616 0.73014 0.47163 0.0
H2364 H 0.22057 0.7296 0.45642 0.0
H2365 H 0.25797 0.65424 0.52105 0.0
H2366 H 0.24314 0.65337 0.55497 0.0
H2367 H 0.26334 0.67193 0.55041 0.0
C2368 C 0.43157 0.04007 0.20651 0.0
C2369 C 0.44453 0.05462 0.21964 0.0
C2370 C 0.43033 0.02001 0.21778 0.0
C2371 C 0.44304 0.01414 0.2419 0.0
C2372 C 0.45614 0.02886 0.25525 0.0
C2373 C 0.4564 0.04904 0.24432 0.0
C2374 C 0.41557 0.00504 0.2037 0.0
C2375 C 0.47045 0.0231 0.28031 0.0
C2376 C 0.43297 0.96647 0.28852 0.0
C2377 C 0.4458 0.95206 0.27482 0.0
C2378 C 0.43121 0.98649 0.27725 0.0
C2379 C 0.44328 0.99247 0.2525 0.0
C2380 C 0.45622 0.97789 0.23855 0.0
C2381 C 0.457 0.95774 0.24954 0.0
C2382 C 0.41663 1.0013 0.29202 0.0
C2383 C 0.46987 0.98378 0.21278 0.0
H2384 H 0.42232 0.04444 0.18748 0.0
H2385 H 0.46661 0.06023 0.25424 0.0
H2386 H 0.42421 0.99262 0.19244 0.0
H2387 H 0.40591 0.99777 0.22108 0.0
H2388 H 0.40542 0.01251 0.18708 0.0
H2389 H 0.4798 0.0363 0.28806 0.0
H2390 H 0.46161 0.01706 0.29947 0.0
H2391 H 0.48095 0.01074 0.27285 0.0
H2392 H 0.42424 0.96203 0.30802 0.0
H2393 H 0.46711 0.94665 0.23916 0.0
H2394 H 0.40651 0.00848 0.27511 0.0
H2395 H 0.42539 0.01381 0.30289 0.0
H2396 H 0.40693 0.99372 0.3091 0.0
H2397 H 0.46051 0.98976 0.19409 0.0
H2398 H 0.47913 0.97066 0.20454 0.0
H2399 H 0.48043 0.99623 0.21972 0.0
C2400 C 0.80011 0.68436 0.00402 0.0
C2401 C 0.80395 0.69841 0.02696 0.0
C2402 C 0.78027 0.68206 0.99216 0.0
C2403 C 0.76415 0.69469 0.00269 0.0
C2404 C 0.76802 0.70888 0.0259 0.0
C2405 C 0.78778 0.71028 0.0381 0.0
C2406 C 0.77661 0.66627 0.96818 0.0
C2407 C 0.75149 0.72314 0.03712 0.0
C2408 C 0.7196 0.7067 0.95105 0.0
C2409 C 0.70352 0.69574 0.96429 0.0
C2410 C 0.73944 0.70627 0.96312 0.0
C2411 C 0.7435 0.69401 0.98846 0.0
C2412 C 0.7275 0.68217 0.00113 0.0
C2413 C 0.70758 0.68349 0.98923 0.0
C2414 C 0.75585 0.71965 0.94948 0.0
C2415 C 0.73134 0.66839 0.02753 0.0
H2416 H 0.81259 0.67507 0.99552 0.0
H2417 H 0.79077 0.7213 0.05565 0.0
H2418 H 0.76336 0.65643 0.97421 0.0
H2419 H 0.77275 0.67401 0.94693 0.0
H2420 H 0.79022 0.65636 0.96447 0.0
H2421 H 0.75702 0.7333 0.05527 0.0
H2422 H 0.74585 0.73284 0.01856 0.0
H2423 H 0.73825 0.71419 0.0455 0.0
H2424 H 0.71647 0.71635 0.93194 0.0
H2425 H 0.69519 0.67491 0.99939 0.0
H2426 H 0.76923 0.71024 0.94285 0.0
H2427 H 0.76131 0.73095 0.96619 0.0
H2428 H 0.75026 0.72812 0.92962 0.0
H2429 H 0.74478 0.65839 0.02323 0.0
H2430 H 0.71789 0.65859 0.03274 0.0
H2431 H 0.73496 0.6778 0.04741 0.0
C2432 C 0.05144 0.04782 0.75178 0.0
C2433 C 0.06314 0.05381 0.77643 0.0
C2434 C 0.05194 0.02751 0.74138 0.0
C2435 C 0.0651 0.01309 0.75523 0.0
C2436 C 0.07768 0.01938 0.77928 0.0
C2437 C 0.0762 0.03957 0.79003 0.0
C2438 C 0.03776 0.0213 0.71638 0.0
C2439 C 0.09251 0.00473 0.79387 0.0
C2440 C 0.05143 0.95652 0.74914 0.0
C2441 C 0.06268 0.95057 0.72404 0.0
C2442 C 0.05212 0.97682 0.75958 0.0
C2443 C 0.06503 0.99126 0.74528 0.0
C2444 C 0.07717 0.98501 0.72076 0.0
C2445 C 0.0755 0.96483 0.71002 0.0
C2446 C 0.03839 0.98299 0.78512 0.0
C2447 C 0.09173 0.99968 0.70565 0.0
H2448 H 0.04115 0.05878 0.74151 0.0
H2449 H 0.08531 0.04425 0.80904 0.0
H2450 H 0.0467 0.01502 0.69749 0.0
H2451 H 0.0273 0.00899 0.72414 0.0
H2452 H 0.02837 0.03433 0.70815 0.0
H2453 H 0.10261 0.01253 0.81025 0.0
H2454 H 0.08394 0.99245 0.80554 0.0
H2455 H 0.10223 0.99724 0.77675 0.0
H2456 H 0.04132 0.94554 0.75976 0.0
H2457 H 0.08427 0.96018 0.69066 0.0
H2458 H 0.02776 0.99527 0.77777 0.0
H2459 H 0.04767 0.9893 0.80366 0.0
H2460 H 0.02919 0.96994 0.79371 0.0
H2461 H 0.08294 0.01195 0.6943 0.0
H2462 H 0.10155 0.99189 0.68891 0.0
H2463 H 0.10173 0.00718 0.72241 0.0
C2464 C 0.71675 0.32319 0.54048 0.0
C2465 C 0.70218 0.31013 0.5276 0.0
C2466 C 0.73681 0.32432 0.52914 0.0
C2467 C 0.74265 0.31137 0.50527 0.0
C2468 C 0.7279 0.29819 0.49218 0.0
C2469 C 0.70772 0.29806 0.50312 0.0
C2470 C 0.75179 0.3392 0.5429 0.0
C2471 C 0.73363 0.2836 0.46743 0.0
C2472 C 0.7904 0.32069 0.45848 0.0
C2473 C 0.80475 0.30801 0.47258 0.0
C2474 C 0.77038 0.32268 0.46968 0.0
C2475 C 0.76433 0.31095 0.49473 0.0
C2476 C 0.77886 0.29814 0.50906 0.0
C2477 C 0.79903 0.29717 0.49816 0.0
C2478 C 0.75564 0.33715 0.45453 0.0
C2479 C 0.7729 0.28481 0.53514 0.0
H2480 H 0.71241 0.33258 0.55936 0.0
H2481 H 0.6965 0.28777 0.49341 0.0
H2482 H 0.76414 0.33067 0.55448 0.0
H2483 H 0.75915 0.34861 0.52531 0.0
H2484 H 0.74431 0.34959 0.5592 0.0
H2485 H 0.72042 0.27421 0.45987 0.0
H2486 H 0.73971 0.29223 0.44809 0.0
H2487 H 0.74597 0.27316 0.47513 0.0
H2488 H 0.79489 0.32914 0.43874 0.0
H2489 H 0.81009 0.28717 0.50883 0.0
H2490 H 0.74844 0.34745 0.47118 0.0
H2491 H 0.74315 0.32832 0.44376 0.0
H2492 H 0.7633 0.34666 0.43729 0.0
H2493 H 0.76697 0.2944 0.55361 0.0
H2494 H 0.78596 0.27557 0.5436 0.0
H2495 H 0.76039 0.27424 0.52844 0.0
loop_
_geom_bond_atom_site_label_1
_geom_bond_atom_site_label_2
_geom_bond_distance
_geom_bond_site_symmetry_2
_ccdc_geom_bond_type
O0 Cd1 2.223 . S
O0 C8 1.315 . S
Cd1 O0 2.223 . S
Cd1 O4 2.297 . S
Cd1 O5 2.439 . S
Cd1 O11 2.240 . S
Cd2 O3 2.240 . S
Cd2 O10 2.223 . S
Cd2 O12 2.297 . S
Cd2 O13 2.439 . S
O3 Cd2 2.240 . S
O3 C8 1.279 . S
O4 Cd1 2.297 . S
O4 C6 1.247 . S
O5 Cd1 2.439 . S
O5 C6 1.208 . S
C6 O4 1.247 . S
C6 O5 1.208 . S
C7 O12 1.247 . S
C7 O13 1.208 . S
C8 O0 1.315 . S
C8 O3 1.279 . S
C9 O10 1.315 . S
C9 O11 1.279 . S
O10 Cd2 2.223 . S
O10 C9 1.315 . S
O11 Cd1 2.240 . S
O11 C9 1.279 . S
O12 Cd2 2.297 . S
O12 C7 1.247 . S
O13 Cd2 2.439 . S
O13 C7 1.208 . S
O14 Cd15 2.223 . S
O14 C22 1.315 . S
Cd15 O14 2.223 . S
Cd15 O18 2.297 . S
Cd15 O19 2.439 . S
Cd15 O25 2.240 . S
Cd16 O17 2.240 . S
Cd16 O24 2.223 . S
Cd16 O26 2.297 . S
Cd16 O27 2.439 . S
O17 Cd16 2.240 . S
O17 C22 1.279 . S
O18 Cd15 2.297 . S
O18 C20 1.247 . S
O19 Cd15 2.439 . S
O19 C20 1.208 . S
C20 O18 1.247 . S
C20 O19 1.208 . S
C21 O26 1.247 . S
C21 O27 1.208 . S
C22 O14 1.315 . S
C22 O17 1.279 . S
C23 O24 1.315 . S
C23 O25 1.279 . S
O24 Cd16 2.223 . S
O24 C23 1.315 . S
O25 Cd15 2.240 . S
O25 C23 1.279 . S
O26 Cd16 2.297 . S
O26 C21 1.247 . S
O27 Cd16 2.439 . S
O27 C21 1.208 . S
O28 Cd29 2.223 . S
O28 C36 1.315 . S
Cd29 O28 2.223 . S
Cd29 O32 2.297 . S
Cd29 O33 2.439 . S
Cd29 O39 2.240 . S
Cd30 O31 2.240 . S
Cd30 O38 2.223 . S
Cd30 O40 2.297 . S
Cd30 O41 2.439 . S
O31 Cd30 2.240 . S
O31 C36 1.279 . S
O32 Cd29 2.297 . S
O32 C34 1.247 . S
O33 Cd29 2.439 . S
O33 C34 1.208 . S
C34 O32 1.247 . S
C34 O33 1.208 . S
C35 O40 1.247 . S
C35 O41 1.208 . S
C36 O28 1.315 . S
C36 O31 1.279 . S
C37 O38 1.315 . S
C37 O39 1.279 . S
O38 Cd30 2.223 . S
O38 C37 1.315 . S
O39 Cd29 2.240 . S
O39 C37 1.279 . S
O40 Cd30 2.297 . S
O40 C35 1.247 . S
O41 Cd30 2.439 . S
O41 C35 1.208 . S
O42 Cd43 2.223 . S
O42 C50 1.315 . S
Cd43 O42 2.223 . S
Cd43 O46 2.297 . S
Cd43 O47 2.439 . S
Cd43 O53 2.240 . S
Cd44 O45 2.240 . S
Cd44 O52 2.223 . S
Cd44 O54 2.297 1_554 S
Cd44 O55 2.439 1_554 S
O45 Cd44 2.240 . S
O45 C50 1.279 . S
O46 Cd43 2.297 . S
O46 C48 1.247 . S
O47 Cd43 2.439 . S
O47 C48 1.208 . S
C48 O46 1.247 . S
C48 O47 1.208 . S
C49 O54 1.247 . S
C49 O55 1.208 . S
C50 O42 1.315 . S
C50 O45 1.279 . S
C51 O52 1.315 . S
C51 O53 1.279 . S
O52 Cd44 2.223 . S
O52 C51 1.315 . S
O53 Cd43 2.240 . S
O53 C51 1.279 . S
O54 Cd44 2.297 1_556 S
O54 C49 1.247 . S
O55 Cd44 2.439 1_556 S
O55 C49 1.208 . S
O56 Cd57 2.223 . S
O56 C64 1.315 . S
Cd57 O56 2.223 . S
Cd57 O60 2.297 . S
Cd57 O61 2.439 . S
Cd57 O67 2.240 . S
Cd58 O59 2.240 . S
Cd58 O66 2.223 . S
Cd58 O68 2.297 . S
Cd58 O69 2.439 . S
O59 Cd58 2.240 . S
O59 C64 1.279 . S
O60 Cd57 2.297 . S
O60 C62 1.247 . S
O61 Cd57 2.439 . S
O61 C62 1.208 . S
C62 O60 1.247 . S
C62 O61 1.208 . S
C63 O68 1.247 . S
C63 O69 1.208 . S
C64 O56 1.315 . S
C64 O59 1.279 . S
C65 O66 1.315 . S
C65 O67 1.279 . S
O66 Cd58 2.223 . S
O66 C65 1.315 . S
O67 Cd57 2.240 . S
O67 C65 1.279 . S
O68 Cd58 2.297 . S
O68 C63 1.247 . S
O69 Cd58 2.439 . S
O69 C63 1.208 . S
O70 Cd71 2.223 . S
O70 C78 1.315 . S
Cd71 O70 2.223 . S
Cd71 O74 2.297 . S
Cd71 O75 2.439 . S
Cd71 O81 2.240 . S
Cd72 O73 2.240 . S
Cd72 O80 2.223 . S
Cd72 O82 2.297 . S
Cd72 O83 2.439 . S
O73 Cd72 2.240 . S
O73 C78 1.279 . S
O74 Cd71 2.297 . S
O74 C76 1.247 . S
O75 Cd71 2.439 . S
O75 C76 1.208 . S
C76 O74 1.247 . S
C76 O75 1.208 . S
C77 O82 1.247 . S
C77 O83 1.208 . S
C78 O70 1.315 . S
C78 O73 1.279 . S
C79 O80 1.315 . S
C79 O81 1.279 . S
O80 Cd72 2.223 . S
O80 C79 1.315 . S
O81 Cd71 2.240 . S
O81 C79 1.279 . S
O82 Cd72 2.297 . S
O82 C77 1.247 . S
O83 Cd72 2.439 . S
O83 C77 1.208 . S
O84 Cd85 2.223 . S
O84 C92 1.315 . S
Cd85 O84 2.223 . S
Cd85 O88 2.297 . S
Cd85 O89 2.439 . S
Cd85 O95 2.240 . S
Cd86 O87 2.240 . S
Cd86 O94 2.223 . S
Cd86 O96 2.297 . S
Cd86 O97 2.439 . S
O87 Cd86 2.240 . S
O87 C92 1.279 . S
O88 Cd85 2.297 . S
O88 C90 1.247 . S
O89 Cd85 2.439 . S
O89 C90 1.208 . S
C90 O88 1.247 . S
C90 O89 1.208 . S
C91 O96 1.247 . S
C91 O97 1.208 . S
C92 O84 1.315 . S
C92 O87 1.279 . S
C93 O94 1.315 . S
C93 O95 1.279 . S
O94 Cd86 2.223 . S
O94 C93 1.315 . S
O95 Cd85 2.240 . S
O95 C93 1.279 . S
O96 Cd86 2.297 . S
O96 C91 1.247 . S
O97 Cd86 2.439 . S
O97 C91 1.208 . S
O98 Cd99 2.223 . S
O98 C106 1.315 . S
Cd99 O98 2.223 . S
Cd99 O102 2.297 . S
Cd99 O103 2.439 . S
Cd99 O109 2.240 . S
Cd100 O101 2.240 . S
Cd100 O108 2.223 . S
Cd100 O110 2.297 1_556 S
Cd100 O111 2.439 1_556 S
O101 Cd100 2.240 . S
O101 C106 1.279 . S
O102 Cd99 2.297 . S
O102 C104 1.247 . S
O103 Cd99 2.439 . S
O103 C104 1.208 . S
C104 O102 1.247 . S
C104 O103 1.208 . S
C105 O110 1.247 . S
C105 O111 1.208 . S
C106 O98 1.315 . S
C106 O101 1.279 . S
C107 O108 1.315 . S
C107 O109 1.279 . S
O108 Cd100 2.223 . S
O108 C107 1.315 . S
O109 Cd99 2.240 . S
O109 C107 1.279 . S
O110 Cd100 2.297 1_554 S
O110 C105 1.247 . S
O111 Cd100 2.439 1_554 S
O111 C105 1.208 . S
O112 Cd113 2.223 . S
O112 C120 1.315 . S
Cd113 O112 2.223 . S
Cd113 O116 2.297 . S
Cd113 O117 2.439 . S
Cd113 O123 2.240 . S
Cd114 O115 2.240 . S
Cd114 O122 2.223 . S
Cd114 O124 2.297 . S
Cd114 O125 2.439 . S
O115 Cd114 2.240 . S
O115 C120 1.279 . S
O116 Cd113 2.297 . S
O116 C118 1.247 . S
O117 Cd113 2.439 . S
O117 C118 1.208 . S
C118 O116 1.247 . S
C118 O117 1.208 . S
C119 O124 1.247 . S
C119 O125 1.208 . S
C120 O112 1.315 . S
C120 O115 1.279 . S
C121 O122 1.315 . S
C121 O123 1.279 . S
O122 Cd114 2.223 . S
O122 C121 1.315 . S
O123 Cd113 2.240 . S
O123 C121 1.279 . S
O124 Cd114 2.297 . S
O124 C119 1.247 . S
O125 Cd114 2.439 . S
O125 C119 1.208 . S
O126 Cd127 2.223 . S
O126 C134 1.315 . S
Cd127 O126 2.223 . S
Cd127 O130 2.297 . S
Cd127 O131 2.439 . S
Cd127 O137 2.240 . S
Cd128 O129 2.240 . S
Cd128 O136 2.223 . S
Cd128 O138 2.297 . S
Cd128 O139 2.439 . S
O129 Cd128 2.240 . S
O129 C134 1.279 . S
O130 Cd127 2.297 . S
O130 C132 1.247 . S
O131 Cd127 2.439 . S
O131 C132 1.208 . S
C132 O130 1.247 . S
C132 O131 1.208 . S
C133 O138 1.247 . S
C133 O139 1.208 . S
C134 O126 1.315 . S
C134 O129 1.279 . S
C135 O136 1.315 . S
C135 O137 1.279 . S
O136 Cd128 2.223 . S
O136 C135 1.315 . S
O137 Cd127 2.240 . S
O137 C135 1.279 . S
O138 Cd128 2.297 . S
O138 C133 1.247 . S
O139 Cd128 2.439 . S
O139 C133 1.208 . S
O140 Cd141 2.223 . S
O140 C148 1.315 . S
Cd141 O140 2.223 . S
Cd141 O144 2.297 . S
Cd141 O145 2.439 . S
Cd141 O151 2.240 . S
Cd142 O143 2.240 . S
Cd142 O150 2.223 . S
Cd142 O152 2.297 . S
Cd142 O153 2.439 . S
O143 Cd142 2.240 . S
O143 C148 1.279 . S
O144 Cd141 2.297 . S
O144 C146 1.247 . S
O145 Cd141 2.439 . S
O145 C146 1.208 . S
C146 O144 1.247 . S
C146 O145 1.208 . S
C147 O152 1.247 . S
C147 O153 1.208 . S
C148 O140 1.315 . S
C148 O143 1.279 . S
C149 O150 1.315 . S
C149 O151 1.279 . S
O150 Cd142 2.223 . S
O150 C149 1.315 . S
O151 Cd141 2.240 . S
O151 C149 1.279 . S
O152 Cd142 2.297 . S
O152 C147 1.247 . S
O153 Cd142 2.439 . S
O153 C147 1.208 . S
O154 Cd155 2.223 . S
O154 C162 1.315 . S
Cd155 O154 2.223 . S
Cd155 O158 2.297 . S
Cd155 O159 2.439 . S
Cd155 O165 2.240 . S
Cd156 O157 2.240 . S
Cd156 O164 2.223 . S
Cd156 O166 2.297 1_556 S
Cd156 O167 2.439 1_556 S
O157 Cd156 2.240 . S
O157 C162 1.279 . S
O158 Cd155 2.297 . S
O158 C160 1.247 . S
O159 Cd155 2.439 . S
O159 C160 1.208 . S
C160 O158 1.247 . S
C160 O159 1.208 . S
C161 O166 1.247 . S
C161 O167 1.208 . S
C162 O154 1.315 . S
C162 O157 1.279 . S
C163 O164 1.315 . S
C163 O165 1.279 . S
O164 Cd156 2.223 . S
O164 C163 1.315 . S
O165 Cd155 2.240 . S
O165 C163 1.279 . S
O166 Cd156 2.297 1_554 S
O166 C161 1.247 . S
O167 Cd156 2.439 1_554 S
O167 C161 1.208 . S
O168 Cd169 2.223 . S
O168 C176 1.315 . S
Cd169 O168 2.223 . S
Cd169 O172 2.297 . S
Cd169 O173 2.439 . S
Cd169 O179 2.240 . S
Cd170 O171 2.240 . S
Cd170 O178 2.223 . S
Cd170 O180 2.297 . S
Cd170 O181 2.439 . S
O171 Cd170 2.240 . S
O171 C176 1.279 . S
O172 Cd169 2.297 . S
O172 C174 1.247 . S
O173 Cd169 2.439 . S
O173 C174 1.208 . S
C174 O172 1.247 . S
C174 O173 1.208 . S
C175 O180 1.247 . S
C175 O181 1.208 . S
C176 O168 1.315 . S
C176 O171 1.279 . S
C177 O178 1.315 . S
C177 O179 1.279 . S
O178 Cd170 2.223 . S
O178 C177 1.315 . S
O179 Cd169 2.240 . S
O179 C177 1.279 . S
O180 Cd170 2.297 . S
O180 C175 1.247 . S
O181 Cd170 2.439 . S
O181 C175 1.208 . S
O182 Cd183 2.223 . S
O182 C190 1.315 . S
Cd183 O182 2.223 . S
Cd183 O186 2.297 . S
Cd183 O187 2.439 . S
Cd183 O193 2.240 . S
Cd184 O185 2.240 . S
Cd184 O192 2.223 . S
Cd184 O194 2.297 . S
Cd184 O195 2.439 . S
O185 Cd184 2.240 . S
O185 C190 1.279 . S
O186 Cd183 2.297 . S
O186 C188 1.247 . S
O187 Cd183 2.439 . S
O187 C188 1.208 . S
C188 O186 1.247 . S
C188 O187 1.208 . S
C189 O194 1.247 . S
C189 O195 1.208 . S
C190 O182 1.315 . S
C190 O185 1.279 . S
C191 O192 1.315 . S
C191 O193 1.279 . S
O192 Cd184 2.223 . S
O192 C191 1.315 . S
O193 Cd183 2.240 . S
O193 C191 1.279 . S
O194 Cd184 2.297 . S
O194 C189 1.247 . S
O195 Cd184 2.439 . S
O195 C189 1.208 . S
O196 Cd197 2.223 . S
O196 C204 1.315 . S
Cd197 O196 2.223 . S
Cd197 O200 2.297 . S
Cd197 O201 2.439 . S
Cd197 O207 2.240 . S
Cd198 O199 2.240 . S
Cd198 O206 2.223 . S
Cd198 O208 2.297 . S
Cd198 O209 2.439 . S
O199 Cd198 2.240 . S
O199 C204 1.279 . S
O200 Cd197 2.297 . S
O200 C202 1.247 . S
O201 Cd197 2.439 . S
O201 C202 1.208 . S
C202 O200 1.247 . S
C202 O201 1.208 . S
C203 O208 1.247 . S
C203 O209 1.208 . S
C204 O196 1.315 . S
C204 O199 1.279 . S
C205 O206 1.315 . S
C205 O207 1.279 . S
O206 Cd198 2.223 . S
O206 C205 1.315 . S
O207 Cd197 2.240 . S
O207 C205 1.279 . S
O208 Cd198 2.297 . S
O208 C203 1.247 . S
O209 Cd198 2.439 . S
O209 C203 1.208 . S
O210 Cd211 2.223 . S
O210 C218 1.315 . S
Cd211 O210 2.223 . S
Cd211 O214 2.297 . S
Cd211 O215 2.439 . S
Cd211 O221 2.240 . S
Cd212 O213 2.240 . S
Cd212 O220 2.223 . S
Cd212 O222 2.297 1_554 S
Cd212 O223 2.439 1_554 S
O213 Cd212 2.240 . S
O213 C218 1.279 . S
O214 Cd211 2.297 . S
O214 C216 1.247 . S
O215 Cd211 2.439 . S
O215 C216 1.208 . S
C216 O214 1.247 . S
C216 O215 1.208 . S
C217 O222 1.247 . S
C217 O223 1.208 . S
C218 O210 1.315 . S
C218 O213 1.279 . S
C219 O220 1.315 . S
C219 O221 1.279 . S
O220 Cd212 2.223 . S
O220 C219 1.315 . S
O221 Cd211 2.240 . S
O221 C219 1.279 . S
O222 Cd212 2.297 1_556 S
O222 C217 1.247 . S
O223 Cd212 2.439 1_556 S
O223 C217 1.208 . S
O224 Cd225 2.223 . S
O224 C232 1.315 . S
Cd225 O224 2.223 . S
Cd225 O228 2.297 . S
Cd225 O229 2.439 . S
Cd225 O235 2.240 . S
Cd226 O227 2.240 . S
Cd226 O234 2.223 . S
Cd226 O236 2.297 . S
Cd226 O237 2.439 . S
O227 Cd226 2.240 . S
O227 C232 1.279 . S
O228 Cd225 2.297 . S
O228 C230 1.247 . S
O229 Cd225 2.439 . S
O229 C230 1.208 . S
C230 O228 1.247 . S
C230 O229 1.208 . S
C231 O236 1.247 . S
C231 O237 1.208 . S
C232 O224 1.315 . S
C232 O227 1.279 . S
C233 O234 1.315 . S
C233 O235 1.279 . S
O234 Cd226 2.223 . S
O234 C233 1.315 . S
O235 Cd225 2.240 . S
O235 C233 1.279 . S
O236 Cd226 2.297 . S
O236 C231 1.247 . S
O237 Cd226 2.439 . S
O237 C231 1.208 . S
O238 Cd239 2.223 . S
O238 C246 1.315 . S
Cd239 O238 2.223 . S
Cd239 O242 2.297 . S
Cd239 O243 2.439 . S
Cd239 O249 2.240 . S
Cd240 O241 2.240 . S
Cd240 O248 2.223 . S
Cd240 O250 2.297 1_554 S
Cd240 O251 2.439 1_554 S
O241 Cd240 2.240 . S
O241 C246 1.279 . S
O242 Cd239 2.297 . S
O242 C244 1.247 . S
O243 Cd239 2.439 . S
O243 C244 1.208 . S
C244 O242 1.247 . S
C244 O243 1.208 . S
C245 O250 1.247 . S
C245 O251 1.208 . S
C246 O238 1.315 . S
C246 O241 1.279 . S
C247 O248 1.315 . S
C247 O249 1.279 . S
O248 Cd240 2.223 . S
O248 C247 1.315 . S
O249 Cd239 2.240 . S
O249 C247 1.279 . S
O250 Cd240 2.297 1_556 S
O250 C245 1.247 . S
O251 Cd240 2.439 1_556 S
O251 C245 1.208 . S
O252 Cd253 2.223 . S
O252 C260 1.315 . S
Cd253 O252 2.223 . S
Cd253 O256 2.297 . S
Cd253 O257 2.439 . S
Cd253 O263 2.240 . S
Cd254 O255 2.240 . S
Cd254 O262 2.223 . S
Cd254 O264 2.297 . S
Cd254 O265 2.439 . S
O255 Cd254 2.240 . S
O255 C260 1.279 . S
O256 Cd253 2.297 . S
O256 C258 1.247 . S
O257 Cd253 2.439 . S
O257 C258 1.208 . S
C258 O256 1.247 . S
C258 O257 1.208 . S
C259 O264 1.247 . S
C259 O265 1.208 . S
C260 O252 1.315 . S
C260 O255 1.279 . S
C261 O262 1.315 . S
C261 O263 1.279 . S
O262 Cd254 2.223 . S
O262 C261 1.315 . S
O263 Cd253 2.240 . S
O263 C261 1.279 . S
O264 Cd254 2.297 . S
O264 C259 1.247 . S
O265 Cd254 2.439 . S
O265 C259 1.208 . S
O266 Cd267 2.223 . S
O266 C274 1.315 . S
Cd267 O266 2.223 . S
Cd267 O270 2.297 . S
Cd267 O271 2.439 . S
Cd267 O277 2.240 . S
Cd268 O269 2.240 . S
Cd268 O276 2.223 . S
Cd268 O278 2.297 . S
Cd268 O279 2.439 . S
O269 Cd268 2.240 . S
O269 C274 1.279 . S
O270 Cd267 2.297 . S
O270 C272 1.247 . S
O271 Cd267 2.439 . S
O271 C272 1.208 . S
C272 O270 1.247 . S
C272 O271 1.208 . S
C273 O278 1.247 . S
C273 O279 1.208 . S
C274 O266 1.315 . S
C274 O269 1.279 . S
C275 O276 1.315 . S
C275 O277 1.279 . S
O276 Cd268 2.223 . S
O276 C275 1.315 . S
O277 Cd267 2.240 . S
O277 C275 1.279 . S
O278 Cd268 2.297 . S
O278 C273 1.247 . S
O279 Cd268 2.439 . S
O279 C273 1.208 . S
O280 Cd281 2.223 . S
O280 C288 1.315 . S
Cd281 O280 2.223 . S
Cd281 O284 2.297 . S
Cd281 O285 2.439 . S
Cd281 O291 2.240 . S
Cd282 O283 2.240 . S
Cd282 O290 2.223 . S
Cd282 O292 2.297 . S
Cd282 O293 2.439 . S
O283 Cd282 2.240 . S
O283 C288 1.279 . S
O284 Cd281 2.297 . S
O284 C286 1.247 . S
O285 Cd281 2.439 . S
O285 C286 1.208 . S
C286 O284 1.247 . S
C286 O285 1.208 . S
C287 O292 1.247 . S
C287 O293 1.208 . S
C288 O280 1.315 . S
C288 O283 1.279 . S
C289 O290 1.315 . S
C289 O291 1.279 . S
O290 Cd282 2.223 . S
O290 C289 1.315 . S
O291 Cd281 2.240 . S
O291 C289 1.279 . S
O292 Cd282 2.297 . S
O292 C287 1.247 . S
O293 Cd282 2.439 . S
O293 C287 1.208 . S
O294 Cd295 2.223 . S
O294 C302 1.315 . S
Cd295 O294 2.223 . S
Cd295 O298 2.297 . S
Cd295 O299 2.439 . S
Cd295 O305 2.240 . S
Cd296 O297 2.240 . S
Cd296 O304 2.223 . S
Cd296 O306 2.297 1_556 S
Cd296 O307 2.439 1_556 S
O297 Cd296 2.240 . S
O297 C302 1.279 . S
O298 Cd295 2.297 . S
O298 C300 1.247 . S
O299 Cd295 2.439 . S
O299 C300 1.208 . S
C300 O298 1.247 . S
C300 O299 1.208 . S
C301 O306 1.247 . S
C301 O307 1.208 . S
C302 O294 1.315 . S
C302 O297 1.279 . S
C303 O304 1.315 . S
C303 O305 1.279 . S
O304 Cd296 2.223 . S
O304 C303 1.315 . S
O305 Cd295 2.240 . S
O305 C303 1.279 . S
O306 Cd296 2.297 1_554 S
O306 C301 1.247 . S
O307 Cd296 2.439 1_554 S
O307 C301 1.208 . S
O308 Cd309 2.223 . S
O308 C316 1.315 . S
Cd309 O308 2.223 . S
Cd309 O312 2.297 . S
Cd309 O313 2.439 . S
Cd309 O319 2.240 . S
Cd310 O311 2.240 . S
Cd310 O318 2.223 . S
Cd310 O320 2.297 . S
Cd310 O321 2.439 . S
O311 Cd310 2.240 . S
O311 C316 1.279 . S
O312 Cd309 2.297 . S
O312 C314 1.247 . S
O313 Cd309 2.439 . S
O313 C314 1.208 . S
C314 O312 1.247 . S
C314 O313 1.208 . S
C315 O320 1.247 . S
C315 O321 1.208 . S
C316 O308 1.315 . S
C316 O311 1.279 . S
C317 O318 1.315 . S
C317 O319 1.279 . S
O318 Cd310 2.223 . S
O318 C317 1.315 . S
O319 Cd309 2.240 . S
O319 C317 1.279 . S
O320 Cd310 2.297 . S
O320 C315 1.247 . S
O321 Cd310 2.439 . S
O321 C315 1.208 . S
O322 Cd323 2.223 . S
O322 C330 1.315 . S
Cd323 O322 2.223 . S
Cd323 O326 2.297 . S
Cd323 O327 2.439 . S
Cd323 O333 2.240 . S
Cd324 O325 2.240 . S
Cd324 O332 2.223 . S
Cd324 O334 2.297 . S
Cd324 O335 2.439 . S
O325 Cd324 2.240 . S
O325 C330 1.279 . S
O326 Cd323 2.297 . S
O326 C328 1.247 . S
O327 Cd323 2.439 . S
O327 C328 1.208 . S
C328 O326 1.247 . S
C328 O327 1.208 . S
C329 O334 1.247 . S
C329 O335 1.208 . S
C330 O322 1.315 . S
C330 O325 1.279 . S
C331 O332 1.315 . S
C331 O333 1.279 . S
O332 Cd324 2.223 . S
O332 C331 1.315 . S
O333 Cd323 2.240 . S
O333 C331 1.279 . S
O334 Cd324 2.297 . S
O334 C329 1.247 . S
O335 Cd324 2.439 . S
O335 C329 1.208 . S
O336 Cd337 2.223 . S
O336 C344 1.315 . S
Cd337 O336 2.223 . S
Cd337 O340 2.297 . S
Cd337 O341 2.439 . S
Cd337 O347 2.240 . S
Cd338 O339 2.240 . S
Cd338 O346 2.223 . S
Cd338 O348 2.297 . S
Cd338 O349 2.439 . S
O339 Cd338 2.240 . S
O339 C344 1.279 . S
O340 Cd337 2.297 . S
O340 C342 1.247 . S
O341 Cd337 2.439 . S
O341 C342 1.208 . S
C342 O340 1.247 . S
C342 O341 1.208 . S
C343 O348 1.247 . S
C343 O349 1.208 . S
C344 O336 1.315 . S
C344 O339 1.279 . S
C345 O346 1.315 . S
C345 O347 1.279 . S
O346 Cd338 2.223 . S
O346 C345 1.315 . S
O347 Cd337 2.240 . S
O347 C345 1.279 . S
O348 Cd338 2.297 . S
O348 C343 1.247 . S
O349 Cd338 2.439 . S
O349 C343 1.208 . S
O350 Cd351 2.223 . S
O350 C358 1.315 . S
Cd351 O350 2.223 . S
Cd351 O354 2.297 . S
Cd351 O355 2.439 . S
Cd351 O361 2.240 . S
Cd352 O353 2.240 . S
Cd352 O360 2.223 . S
Cd352 O362 2.297 1_556 S
Cd352 O363 2.439 1_556 S
O353 Cd352 2.240 . S
O353 C358 1.279 . S
O354 Cd351 2.297 . S
O354 C356 1.247 . S
O355 Cd351 2.439 . S
O355 C356 1.208 . S
C356 O354 1.247 . S
C356 O355 1.208 . S
C357 O362 1.247 . S
C357 O363 1.208 . S
C358 O350 1.315 . S
C358 O353 1.279 . S
C359 O360 1.315 . S
C359 O361 1.279 . S
O360 Cd352 2.223 . S
O360 C359 1.315 . S
O361 Cd351 2.240 . S
O361 C359 1.279 . S
O362 Cd352 2.297 1_554 S
O362 C357 1.247 . S
O363 Cd352 2.439 1_554 S
O363 C357 1.208 . S
O364 Cd365 2.223 . S
O364 C372 1.315 . S
Cd365 O364 2.223 . S
Cd365 O368 2.297 . S
Cd365 O369 2.439 . S
Cd365 O375 2.240 . S
Cd366 O367 2.240 . S
Cd366 O374 2.223 . S
Cd366 O376 2.297 . S
Cd366 O377 2.439 . S
O367 Cd366 2.240 . S
O367 C372 1.279 . S
O368 Cd365 2.297 . S
O368 C370 1.247 . S
O369 Cd365 2.439 . S
O369 C370 1.208 . S
C370 O368 1.247 . S
C370 O369 1.208 . S
C371 O376 1.247 . S
C371 O377 1.208 . S
C372 O364 1.315 . S
C372 O367 1.279 . S
C373 O374 1.315 . S
C373 O375 1.279 . S
O374 Cd366 2.223 . S
O374 C373 1.315 . S
O375 Cd365 2.240 . S
O375 C373 1.279 . S
O376 Cd366 2.297 . S
O376 C371 1.247 . S
O377 Cd366 2.439 . S
O377 C371 1.208 . S
O378 Cd379 2.223 . S
O378 C386 1.315 . S
Cd379 O378 2.223 . S
Cd379 O382 2.297 . S
Cd379 O383 2.439 . S
Cd379 O389 2.240 . S
Cd380 O381 2.240 . S
Cd380 O388 2.223 . S
Cd380 O390 2.297 . S
Cd380 O391 2.439 . S
O381 Cd380 2.240 . S
O381 C386 1.279 . S
O382 Cd379 2.297 . S
O382 C384 1.247 . S
O383 Cd379 2.439 . S
O383 C384 1.208 . S
C384 O382 1.247 . S
C384 O383 1.208 . S
C385 O390 1.247 . S
C385 O391 1.208 . S
C386 O378 1.315 . S
C386 O381 1.279 . S
C387 O388 1.315 . S
C387 O389 1.279 . S
O388 Cd380 2.223 . S
O388 C387 1.315 . S
O389 Cd379 2.240 . S
O389 C387 1.279 . S
O390 Cd380 2.297 . S
O390 C385 1.247 . S
O391 Cd380 2.439 . S
O391 C385 1.208 . S
O392 Cd393 2.223 . S
O392 C400 1.315 . S
Cd393 O392 2.223 . S
Cd393 O396 2.297 . S
Cd393 O397 2.439 . S
Cd393 O403 2.240 . S
Cd394 O395 2.240 . S
Cd394 O402 2.223 . S
Cd394 O404 2.297 . S
Cd394 O405 2.439 . S
O395 Cd394 2.240 . S
O395 C400 1.279 . S
O396 Cd393 2.297 . S
O396 C398 1.247 . S
O397 Cd393 2.439 . S
O397 C398 1.208 . S
C398 O396 1.247 . S
C398 O397 1.208 . S
C399 O404 1.247 . S
C399 O405 1.208 . S
C400 O392 1.315 . S
C400 O395 1.279 . S
C401 O402 1.315 . S
C401 O403 1.279 . S
O402 Cd394 2.223 . S
O402 C401 1.315 . S
O403 Cd393 2.240 . S
O403 C401 1.279 . S
O404 Cd394 2.297 . S
O404 C399 1.247 . S
O405 Cd394 2.439 . S
O405 C399 1.208 . S
O406 Cd407 2.223 . S
O406 C414 1.315 . S
Cd407 O406 2.223 . S
Cd407 O410 2.297 . S
Cd407 O411 2.439 . S
Cd407 O417 2.240 . S
Cd408 O409 2.240 . S
Cd408 O416 2.223 . S
Cd408 O418 2.297 1_554 S
Cd408 O419 2.439 1_554 S
O409 Cd408 2.240 . S
O409 C414 1.279 . S
O410 Cd407 2.297 . S
O410 C412 1.247 . S
O411 Cd407 2.439 . S
O411 C412 1.208 . S
C412 O410 1.247 . S
C412 O411 1.208 . S
C413 O418 1.247 . S
C413 O419 1.208 . S
C414 O406 1.315 . S
C414 O409 1.279 . S
C415 O416 1.315 . S
C415 O417 1.279 . S
O416 Cd408 2.223 . S
O416 C415 1.315 . S
O417 Cd407 2.240 . S
O417 C415 1.279 . S
O418 Cd408 2.297 1_556 S
O418 C413 1.247 . S
O419 Cd408 2.439 1_556 S
O419 C413 1.208 . S
O420 Cd421 2.223 . S
O420 C428 1.315 . S
Cd421 O420 2.223 . S
Cd421 O424 2.297 . S
Cd421 O425 2.439 . S
Cd421 O431 2.240 . S
Cd422 O423 2.240 . S
Cd422 O430 2.223 . S
Cd422 O432 2.297 . S
Cd422 O433 2.439 . S
O423 Cd422 2.240 . S
O423 C428 1.279 . S
O424 Cd421 2.297 . S
O424 C426 1.247 . S
O425 Cd421 2.439 . S
O425 C426 1.208 . S
C426 O424 1.247 . S
C426 O425 1.208 . S
C427 O432 1.247 . S
C427 O433 1.208 . S
C428 O420 1.315 . S
C428 O423 1.279 . S
C429 O430 1.315 . S
C429 O431 1.279 . S
O430 Cd422 2.223 . S
O430 C429 1.315 . S
O431 Cd421 2.240 . S
O431 C429 1.279 . S
O432 Cd422 2.297 . S
O432 C427 1.247 . S
O433 Cd422 2.439 . S
O433 C427 1.208 . S
O434 Cd435 2.223 . S
O434 C442 1.315 . S
Cd435 O434 2.223 . S
Cd435 O438 2.297 . S
Cd435 O439 2.439 . S
Cd435 O445 2.240 . S
Cd436 O437 2.240 . S
Cd436 O444 2.223 . S
Cd436 O446 2.297 . S
Cd436 O447 2.439 . S
O437 Cd436 2.240 . S
O437 C442 1.279 . S
O438 Cd435 2.297 . S
O438 C440 1.247 . S
O439 Cd435 2.439 . S
O439 C440 1.208 . S
C440 O438 1.247 . S
C440 O439 1.208 . S
C441 O446 1.247 . S
C441 O447 1.208 . S
C442 O434 1.315 . S
C442 O437 1.279 . S
C443 O444 1.315 . S
C443 O445 1.279 . S
O444 Cd436 2.223 . S
O444 C443 1.315 . S
O445 Cd435 2.240 . S
O445 C443 1.279 . S
O446 Cd436 2.297 . S
O446 C441 1.247 . S
O447 Cd436 2.439 . S
O447 C441 1.208 . S
C448 C449 1.391 . S
C448 C450 1.394 . S
C448 H464 0.931 . S
C449 C448 1.391 . S
C449 C453 1.376 . S
C450 C448 1.394 . S
C450 C451 1.369 . S
C450 C454 1.531 . S
C451 C450 1.369 . S
C451 C452 1.410 . S
C451 C459 1.503 . S
C452 C451 1.410 . S
C452 C453 1.392 . S
C452 C455 1.511 . S
C453 C449 1.376 . S
C453 C452 1.392 . S
C453 H465 0.929 . S
C454 C450 1.531 . S
C454 H466 0.960 . S
C454 H467 0.962 . S
C454 H468 0.960 . S
C455 C452 1.511 . S
C455 H469 0.961 . S
C455 H470 0.961 . S
C455 H471 0.961 . S
C456 C457 1.370 . S
C456 C458 1.363 . S
C456 H472 0.931 . S
C457 C456 1.370 . S
C457 C461 1.408 . S
C458 C456 1.363 . S
C458 C459 1.370 . S
C458 C462 1.524 . S
C459 C451 1.503 . S
C459 C458 1.370 . S
C459 C460 1.403 . S
C460 C459 1.403 . S
C460 C461 1.404 . S
C460 C463 1.539 . S
C461 C457 1.408 . S
C461 C460 1.404 . S
C461 H473 0.930 . S
C462 C458 1.524 . S
C462 H474 0.956 . S
C462 H475 0.961 . S
C462 H476 0.961 . S
C463 C460 1.539 . S
C463 H477 0.958 . S
C463 H478 0.961 . S
C463 H479 0.960 . S
H464 C448 0.931 . S
H465 C453 0.929 . S
H466 C454 0.960 . S
H467 C454 0.962 . S
H468 C454 0.960 . S
H469 C455 0.961 . S
H470 C455 0.961 . S
H471 C455 0.961 . S
H472 C456 0.931 . S
H473 C461 0.930 . S
H474 C462 0.956 . S
H475 C462 0.961 . S
H476 C462 0.961 . S
H477 C463 0.958 . S
H478 C463 0.961 . S
H479 C463 0.960 . S
C480 C481 1.391 . S
C480 C482 1.394 . S
C480 H496 0.931 . S
C481 C480 1.391 . S
C481 C485 1.376 . S
C482 C480 1.394 . S
C482 C483 1.369 . S
C482 C486 1.531 . S
C483 C482 1.369 . S
C483 C484 1.410 . S
C483 C491 1.503 . S
C484 C483 1.410 . S
C484 C485 1.392 . S
C484 C487 1.511 . S
C485 C481 1.376 . S
C485 C484 1.392 . S
C485 H497 0.929 . S
C486 C482 1.531 . S
C486 H498 0.960 . S
C486 H499 0.962 . S
C486 H500 0.960 . S
C487 C484 1.511 . S
C487 H501 0.961 . S
C487 H502 0.961 . S
C487 H503 0.961 . S
C488 C489 1.370 . S
C488 C490 1.363 . S
C488 H504 0.931 . S
C489 C488 1.370 . S
C489 C493 1.408 . S
C490 C488 1.363 . S
C490 C491 1.370 . S
C490 C494 1.524 . S
C491 C483 1.503 . S
C491 C490 1.370 . S
C491 C492 1.403 . S
C492 C491 1.403 . S
C492 C493 1.404 . S
C492 C495 1.539 . S
C493 C489 1.408 . S
C493 C492 1.404 . S
C493 H505 0.930 . S
C494 C490 1.524 . S
C494 H506 0.956 . S
C494 H507 0.961 . S
C494 H508 0.961 . S
C495 C492 1.539 . S
C495 H509 0.958 . S
C495 H510 0.961 . S
C495 H511 0.960 . S
H496 C480 0.931 . S
H497 C485 0.929 . S
H498 C486 0.960 . S
H499 C486 0.962 . S
H500 C486 0.960 . S
H501 C487 0.961 . S
H502 C487 0.961 . S
H503 C487 0.961 . S
H504 C488 0.931 . S
H505 C493 0.930 . S
H506 C494 0.956 . S
H507 C494 0.961 . S
H508 C494 0.961 . S
H509 C495 0.958 . S
H510 C495 0.961 . S
H511 C495 0.960 . S
C512 C513 1.391 . S
C512 C514 1.394 . S
C512 H528 0.931 . S
C513 C512 1.391 . S
C513 C517 1.376 . S
C514 C512 1.394 . S
C514 C515 1.369 . S
C514 C518 1.531 . S
C515 C514 1.369 . S
C515 C516 1.410 . S
C515 C523 1.503 . S
C516 C515 1.410 . S
C516 C517 1.392 . S
C516 C519 1.511 . S
C517 C513 1.376 . S
C517 C516 1.392 . S
C517 H529 0.929 . S
C518 C514 1.531 . S
C518 H530 0.960 . S
C518 H531 0.962 . S
C518 H532 0.960 . S
C519 C516 1.511 . S
C519 H533 0.961 . S
C519 H534 0.961 . S
C519 H535 0.961 . S
C520 C521 1.370 . S
C520 C522 1.363 . S
C520 H536 0.931 . S
C521 C520 1.370 . S
C521 C525 1.408 . S
C522 C520 1.363 . S
C522 C523 1.370 . S
C522 C526 1.524 . S
C523 C515 1.503 . S
C523 C522 1.370 . S
C523 C524 1.403 . S
C524 C523 1.403 . S
C524 C525 1.404 . S
C524 C527 1.539 . S
C525 C521 1.408 . S
C525 C524 1.404 . S
C525 H537 0.930 . S
C526 C522 1.524 . S
C526 H538 0.956 . S
C526 H539 0.961 . S
C526 H540 0.961 . S
C527 C524 1.539 . S
C527 H541 0.958 . S
C527 H542 0.961 . S
C527 H543 0.960 . S
H528 C512 0.931 . S
H529 C517 0.929 . S
H530 C518 0.960 . S
H531 C518 0.962 . S
H532 C518 0.960 . S
H533 C519 0.961 . S
H534 C519 0.961 . S
H535 C519 0.961 . S
H536 C520 0.931 . S
H537 C525 0.930 . S
H538 C526 0.956 . S
H539 C526 0.961 . S
H540 C526 0.961 . S
H541 C527 0.958 . S
H542 C527 0.961 . S
H543 C527 0.960 . S
C544 C545 1.391 . S
C544 C546 1.394 . S
C544 H560 0.931 . S
C545 C544 1.391 . S
C545 C549 1.376 . S
C546 C544 1.394 . S
C546 C547 1.369 . S
C546 C550 1.531 . S
C547 C546 1.369 . S
C547 C548 1.410 . S
C547 C555 1.503 . S
C548 C547 1.410 . S
C548 C549 1.392 . S
C548 C551 1.511 . S
C549 C545 1.376 . S
C549 C548 1.392 . S
C549 H561 0.929 . S
C550 C546 1.531 . S
C550 H562 0.960 . S
C550 H563 0.962 . S
C550 H564 0.960 . S
C551 C548 1.511 . S
C551 H565 0.961 . S
C551 H566 0.961 . S
C551 H567 0.961 . S
C552 C553 1.370 . S
C552 C554 1.363 . S
C552 H568 0.931 . S
C553 C552 1.370 . S
C553 C557 1.408 . S
C554 C552 1.363 . S
C554 C555 1.370 . S
C554 C558 1.524 . S
C555 C547 1.503 . S
C555 C554 1.370 . S
C555 C556 1.403 . S
C556 C555 1.403 . S
C556 C557 1.404 . S
C556 C559 1.539 . S
C557 C553 1.408 . S
C557 C556 1.404 . S
C557 H569 0.930 . S
C558 C554 1.524 . S
C558 H570 0.956 . S
C558 H571 0.961 . S
C558 H572 0.961 . S
C559 C556 1.539 . S
C559 H573 0.958 . S
C559 H574 0.961 . S
C559 H575 0.960 . S
H560 C544 0.931 . S
H561 C549 0.929 . S
H562 C550 0.960 . S
H563 C550 0.962 . S
H564 C550 0.960 . S
H565 C551 0.961 . S
H566 C551 0.961 . S
H567 C551 0.961 . S
H568 C552 0.931 . S
H569 C557 0.930 . S
H570 C558 0.956 . S
H571 C558 0.961 . S
H572 C558 0.961 . S
H573 C559 0.958 . S
H574 C559 0.961 . S
H575 C559 0.960 . S
C576 C577 1.391 . S
C576 C578 1.394 . S
C576 H592 0.931 . S
C577 C576 1.391 . S
C577 C581 1.376 . S
C578 C576 1.394 . S
C578 C579 1.369 . S
C578 C582 1.531 . S
C579 C578 1.369 . S
C579 C580 1.410 . S
C579 C587 1.503 . S
C580 C579 1.410 . S
C580 C581 1.392 . S
C580 C583 1.511 . S
C581 C577 1.376 . S
C581 C580 1.392 . S
C581 H593 0.929 . S
C582 C578 1.531 . S
C582 H594 0.960 . S
C582 H595 0.962 . S
C582 H596 0.960 . S
C583 C580 1.511 . S
C583 H597 0.961 . S
C583 H598 0.961 . S
C583 H599 0.961 . S
C584 C585 1.370 . S
C584 C586 1.363 . S
C584 H600 0.931 . S
C585 C584 1.370 . S
C585 C589 1.408 . S
C586 C584 1.363 . S
C586 C587 1.370 . S
C586 C590 1.524 . S
C587 C579 1.503 . S
C587 C586 1.370 . S
C587 C588 1.403 . S
C588 C587 1.403 . S
C588 C589 1.404 . S
C588 C591 1.539 . S
C589 C585 1.408 . S
C589 C588 1.404 . S
C589 H601 0.930 . S
C590 C586 1.524 . S
C590 H602 0.956 . S
C590 H603 0.961 . S
C590 H604 0.961 . S
C591 C588 1.539 . S
C591 H605 0.958 . S
C591 H606 0.961 . S
C591 H607 0.960 . S
H592 C576 0.931 . S
H593 C581 0.929 . S
H594 C582 0.960 . S
H595 C582 0.962 . S
H596 C582 0.960 . S
H597 C583 0.961 . S
H598 C583 0.961 . S
H599 C583 0.961 . S
H600 C584 0.931 . S
H601 C589 0.930 . S
H602 C590 0.956 . S
H603 C590 0.961 . S
H604 C590 0.961 . S
H605 C591 0.958 . S
H606 C591 0.961 . S
H607 C591 0.960 . S
C608 C609 1.391 . S
C608 C610 1.394 . S
C608 H624 0.931 . S
C609 C608 1.391 . S
C609 C613 1.376 . S
C610 C608 1.394 . S
C610 C611 1.369 . S
C610 C614 1.531 . S
C611 C610 1.369 . S
C611 C612 1.410 . S
C611 C619 1.503 . S
C612 C611 1.410 . S
C612 C613 1.392 . S
C612 C615 1.511 . S
C613 C609 1.376 . S
C613 C612 1.392 . S
C613 H625 0.929 . S
C614 C610 1.531 . S
C614 H626 0.960 . S
C614 H627 0.962 . S
C614 H628 0.960 . S
C615 C612 1.511 . S
C615 H629 0.961 . S
C615 H630 0.961 . S
C615 H631 0.961 . S
C616 C617 1.370 . S
C616 C618 1.363 . S
C616 H632 0.931 . S
C617 C616 1.370 . S
C617 C621 1.408 . S
C618 C616 1.363 . S
C618 C619 1.370 . S
C618 C622 1.524 . S
C619 C611 1.503 . S
C619 C618 1.370 . S
C619 C620 1.403 . S
C620 C619 1.403 . S
C620 C621 1.404 . S
C620 C623 1.539 . S
C621 C617 1.408 . S
C621 C620 1.404 . S
C621 H633 0.930 . S
C622 C618 1.524 . S
C622 H634 0.956 . S
C622 H635 0.961 . S
C622 H636 0.961 . S
C623 C620 1.539 . S
C623 H637 0.958 . S
C623 H638 0.961 . S
C623 H639 0.960 . S
H624 C608 0.931 . S
H625 C613 0.929 . S
H626 C614 0.960 . S
H627 C614 0.962 . S
H628 C614 0.960 . S
H629 C615 0.961 . S
H630 C615 0.961 . S
H631 C615 0.961 . S
H632 C616 0.931 . S
H633 C621 0.930 . S
H634 C622 0.956 . S
H635 C622 0.961 . S
H636 C622 0.961 . S
H637 C623 0.958 . S
H638 C623 0.961 . S
H639 C623 0.960 . S
C640 C641 1.391 . S
C640 C642 1.394 . S
C640 H656 0.931 . S
C641 C640 1.391 . S
C641 C645 1.376 . S
C642 C640 1.394 . S
C642 C643 1.369 . S
C642 C646 1.531 . S
C643 C642 1.369 . S
C643 C644 1.410 . S
C643 C651 1.503 . S
C644 C643 1.410 . S
C644 C645 1.392 . S
C644 C647 1.511 . S
C645 C641 1.376 . S
C645 C644 1.392 . S
C645 H657 0.929 . S
C646 C642 1.531 . S
C646 H658 0.960 . S
C646 H659 0.962 . S
C646 H660 0.960 . S
C647 C644 1.511 . S
C647 H661 0.961 . S
C647 H662 0.961 . S
C647 H663 0.961 . S
C648 C649 1.370 . S
C648 C650 1.363 . S
C648 H664 0.931 . S
C649 C648 1.370 . S
C649 C653 1.408 . S
C650 C648 1.363 . S
C650 C651 1.370 . S
C650 C654 1.524 . S
C651 C643 1.503 . S
C651 C650 1.370 . S
C651 C652 1.403 . S
C652 C651 1.403 . S
C652 C653 1.404 . S
C652 C655 1.539 . S
C653 C649 1.408 . S
C653 C652 1.404 . S
C653 H665 0.930 . S
C654 C650 1.524 . S
C654 H666 0.956 . S
C654 H667 0.961 . S
C654 H668 0.961 . S
C655 C652 1.539 . S
C655 H669 0.958 . S
C655 H670 0.961 . S
C655 H671 0.960 . S
H656 C640 0.931 . S
H657 C645 0.929 . S
H658 C646 0.960 . S
H659 C646 0.962 . S
H660 C646 0.960 . S
H661 C647 0.961 . S
H662 C647 0.961 . S
H663 C647 0.961 . S
H664 C648 0.931 . S
H665 C653 0.930 . S
H666 C654 0.956 . S
H667 C654 0.961 . S
H668 C654 0.961 . S
H669 C655 0.958 . S
H670 C655 0.961 . S
H671 C655 0.960 . S
C672 C673 1.391 . S
C672 C674 1.394 . S
C672 H688 0.931 . S
C673 C672 1.391 . S
C673 C677 1.376 . S
C674 C672 1.394 . S
C674 C675 1.369 . S
C674 C678 1.531 . S
C675 C674 1.369 . S
C675 C676 1.410 . S
C675 C683 1.503 . S
C676 C675 1.410 . S
C676 C677 1.392 . S
C676 C679 1.511 . S
C677 C673 1.376 . S
C677 C676 1.392 . S
C677 H689 0.929 . S
C678 C674 1.531 . S
C678 H690 0.960 . S
C678 H691 0.962 . S
C678 H692 0.960 . S
C679 C676 1.511 . S
C679 H693 0.961 . S
C679 H694 0.961 . S
C679 H695 0.961 . S
C680 C681 1.370 . S
C680 C682 1.363 . S
C680 H696 0.931 . S
C681 C680 1.370 . S
C681 C685 1.408 . S
C682 C680 1.363 . S
C682 C683 1.370 . S
C682 C686 1.524 . S
C683 C675 1.503 . S
C683 C682 1.370 . S
C683 C684 1.403 . S
C684 C683 1.403 . S
C684 C685 1.404 . S
C684 C687 1.539 . S
C685 C681 1.408 . S
C685 C684 1.404 . S
C685 H697 0.930 . S
C686 C682 1.524 . S
C686 H698 0.956 . S
C686 H699 0.961 . S
C686 H700 0.961 . S
C687 C684 1.539 . S
C687 H701 0.958 . S
C687 H702 0.961 . S
C687 H703 0.960 . S
H688 C672 0.931 . S
H689 C677 0.929 . S
H690 C678 0.960 . S
H691 C678 0.962 . S
H692 C678 0.960 . S
H693 C679 0.961 . S
H694 C679 0.961 . S
H695 C679 0.961 . S
H696 C680 0.931 . S
H697 C685 0.930 . S
H698 C686 0.956 . S
H699 C686 0.961 . S
H700 C686 0.961 . S
H701 C687 0.958 . S
H702 C687 0.961 . S
H703 C687 0.960 . S
C704 C705 1.391 . S
C704 C706 1.394 . S
C704 H720 0.931 . S
C705 C704 1.391 . S
C705 C709 1.376 . S
C706 C704 1.394 . S
C706 C707 1.369 . S
C706 C710 1.531 . S
C707 C706 1.369 . S
C707 C708 1.410 . S
C707 C715 1.503 . S
C708 C707 1.410 . S
C708 C709 1.392 . S
C708 C711 1.511 . S
C709 C705 1.376 . S
C709 C708 1.392 . S
C709 H721 0.929 . S
C710 C706 1.531 . S
C710 H722 0.960 . S
C710 H723 0.962 . S
C710 H724 0.960 . S
C711 C708 1.511 . S
C711 H725 0.961 . S
C711 H726 0.961 . S
C711 H727 0.961 . S
C712 C713 1.370 . S
C712 C714 1.363 . S
C712 H728 0.931 . S
C713 C712 1.370 . S
C713 C717 1.408 . S
C714 C712 1.363 . S
C714 C715 1.370 . S
C714 C718 1.524 . S
C715 C707 1.503 . S
C715 C714 1.370 . S
C715 C716 1.403 . S
C716 C715 1.403 . S
C716 C717 1.404 . S
C716 C719 1.539 . S
C717 C713 1.408 . S
C717 C716 1.404 . S
C717 H729 0.930 . S
C718 C714 1.524 . S
C718 H730 0.956 . S
C718 H731 0.961 . S
C718 H732 0.961 . S
C719 C716 1.539 . S
C719 H733 0.958 . S
C719 H734 0.961 . S
C719 H735 0.960 . S
H720 C704 0.931 . S
H721 C709 0.929 . S
H722 C710 0.960 . S
H723 C710 0.962 . S
H724 C710 0.960 . S
H725 C711 0.961 . S
H726 C711 0.961 . S
H727 C711 0.961 . S
H728 C712 0.931 . S
H729 C717 0.930 . S
H730 C718 0.956 . S
H731 C718 0.961 . S
H732 C718 0.961 . S
H733 C719 0.958 . S
H734 C719 0.961 . S
H735 C719 0.960 . S
C736 C737 1.391 . S
C736 C738 1.394 . S
C736 H752 0.931 . S
C737 C736 1.391 . S
C737 C741 1.376 . S
C738 C736 1.394 . S
C738 C739 1.369 . S
C738 C742 1.531 . S
C739 C738 1.369 . S
C739 C740 1.410 . S
C739 C747 1.503 . S
C740 C739 1.410 . S
C740 C741 1.392 . S
C740 C743 1.511 . S
C741 C737 1.376 . S
C741 C740 1.392 . S
C741 H753 0.929 . S
C742 C738 1.531 . S
C742 H754 0.960 . S
C742 H755 0.962 . S
C742 H756 0.960 . S
C743 C740 1.511 . S
C743 H757 0.961 . S
C743 H758 0.961 . S
C743 H759 0.961 . S
C744 C745 1.370 . S
C744 C746 1.363 . S
C744 H760 0.931 . S
C745 C744 1.370 . S
C745 C749 1.408 . S
C746 C744 1.363 . S
C746 C747 1.370 . S
C746 C750 1.524 . S
C747 C739 1.503 . S
C747 C746 1.370 . S
C747 C748 1.403 . S
C748 C747 1.403 . S
C748 C749 1.404 . S
C748 C751 1.539 . S
C749 C745 1.408 . S
C749 C748 1.404 . S
C749 H761 0.930 . S
C750 C746 1.524 . S
C750 H762 0.956 . S
C750 H763 0.961 . S
C750 H764 0.961 . S
C751 C748 1.539 . S
C751 H765 0.958 . S
C751 H766 0.961 . S
C751 H767 0.960 . S
H752 C736 0.931 . S
H753 C741 0.929 . S
H754 C742 0.960 . S
H755 C742 0.962 . S
H756 C742 0.960 . S
H757 C743 0.961 . S
H758 C743 0.961 . S
H759 C743 0.961 . S
H760 C744 0.931 . S
H761 C749 0.930 . S
H762 C750 0.956 . S
H763 C750 0.961 . S
H764 C750 0.961 . S
H765 C751 0.958 . S
H766 C751 0.961 . S
H767 C751 0.960 . S
C768 C769 1.391 . S
C768 C770 1.394 . S
C768 H784 0.931 . S
C769 C768 1.391 . S
C769 C773 1.376 . S
C770 C768 1.394 . S
C770 C771 1.369 . S
C770 C774 1.531 . S
C771 C770 1.369 . S
C771 C772 1.410 . S
C771 C779 1.503 . S
C772 C771 1.410 . S
C772 C773 1.392 . S
C772 C775 1.511 . S
C773 C769 1.376 . S
C773 C772 1.392 . S
C773 H785 0.929 . S
C774 C770 1.531 . S
C774 H786 0.960 . S
C774 H787 0.962 . S
C774 H788 0.960 . S
C775 C772 1.511 . S
C775 H789 0.961 . S
C775 H790 0.961 . S
C775 H791 0.961 . S
C776 C777 1.370 . S
C776 C778 1.363 . S
C776 H792 0.931 . S
C777 C776 1.370 . S
C777 C781 1.408 . S
C778 C776 1.363 . S
C778 C779 1.370 . S
C778 C782 1.524 . S
C779 C771 1.503 . S
C779 C778 1.370 . S
C779 C780 1.403 . S
C780 C779 1.403 . S
C780 C781 1.404 . S
C780 C783 1.539 . S
C781 C777 1.408 . S
C781 C780 1.404 . S
C781 H793 0.930 . S
C782 C778 1.524 . S
C782 H794 0.956 . S
C782 H795 0.961 . S
C782 H796 0.961 . S
C783 C780 1.539 . S
C783 H797 0.958 . S
C783 H798 0.961 . S
C783 H799 0.960 . S
H784 C768 0.931 . S
H785 C773 0.929 . S
H786 C774 0.960 . S
H787 C774 0.962 . S
H788 C774 0.960 . S
H789 C775 0.961 . S
H790 C775 0.961 . S
H791 C775 0.961 . S
H792 C776 0.931 . S
H793 C781 0.930 . S
H794 C782 0.956 . S
H795 C782 0.961 . S
H796 C782 0.961 . S
H797 C783 0.958 . S
H798 C783 0.961 . S
H799 C783 0.960 . S
C800 C801 1.391 . S
C800 C802 1.394 . S
C800 H816 0.931 . S
C801 C800 1.391 . S
C801 C805 1.376 . S
C802 C800 1.394 . S
C802 C803 1.369 . S
C802 C806 1.531 . S
C803 C802 1.369 . S
C803 C804 1.410 . S
C803 C811 1.503 . S
C804 C803 1.410 . S
C804 C805 1.392 . S
C804 C807 1.511 . S
C805 C801 1.376 . S
C805 C804 1.392 . S
C805 H817 0.929 . S
C806 C802 1.531 . S
C806 H818 0.960 . S
C806 H819 0.962 . S
C806 H820 0.960 . S
C807 C804 1.511 . S
C807 H821 0.961 . S
C807 H822 0.961 . S
C807 H823 0.961 . S
C808 C809 1.370 . S
C808 C810 1.363 . S
C808 H824 0.931 . S
C809 C808 1.370 . S
C809 C813 1.408 . S
C810 C808 1.363 . S
C810 C811 1.370 . S
C810 C814 1.524 . S
C811 C803 1.503 . S
C811 C810 1.370 . S
C811 C812 1.403 . S
C812 C811 1.403 . S
C812 C813 1.404 . S
C812 C815 1.539 . S
C813 C809 1.408 . S
C813 C812 1.404 . S
C813 H825 0.930 . S
C814 C810 1.524 . S
C814 H826 0.956 . S
C814 H827 0.961 . S
C814 H828 0.961 . S
C815 C812 1.539 . S
C815 H829 0.958 . S
C815 H830 0.961 . S
C815 H831 0.960 . S
H816 C800 0.931 . S
H817 C805 0.929 . S
H818 C806 0.960 . S
H819 C806 0.962 . S
H820 C806 0.960 . S
H821 C807 0.961 . S
H822 C807 0.961 . S
H823 C807 0.961 . S
H824 C808 0.931 . S
H825 C813 0.930 . S
H826 C814 0.956 . S
H827 C814 0.961 . S
H828 C814 0.961 . S
H829 C815 0.958 . S
H830 C815 0.961 . S
H831 C815 0.960 . S
C832 C833 1.391 . S
C832 C834 1.394 . S
C832 H848 0.931 . S
C833 C832 1.391 . S
C833 C837 1.376 . S
C834 C832 1.394 . S
C834 C835 1.369 . S
C834 C838 1.531 . S
C835 C834 1.369 . S
C835 C836 1.410 . S
C835 C843 1.503 . S
C836 C835 1.410 . S
C836 C837 1.392 . S
C836 C839 1.511 . S
C837 C833 1.376 . S
C837 C836 1.392 . S
C837 H849 0.929 . S
C838 C834 1.531 . S
C838 H850 0.960 . S
C838 H851 0.962 . S
C838 H852 0.960 . S
C839 C836 1.511 . S
C839 H853 0.961 . S
C839 H854 0.961 . S
C839 H855 0.961 . S
C840 C841 1.370 . S
C840 C842 1.363 . S
C840 H856 0.931 . S
C841 C840 1.370 . S
C841 C845 1.408 . S
C842 C840 1.363 . S
C842 C843 1.370 . S
C842 C846 1.524 . S
C843 C835 1.503 . S
C843 C842 1.370 . S
C843 C844 1.403 . S
C844 C843 1.403 . S
C844 C845 1.404 . S
C844 C847 1.539 . S
C845 C841 1.408 . S
C845 C844 1.404 . S
C845 H857 0.930 . S
C846 C842 1.524 . S
C846 H858 0.956 . S
C846 H859 0.961 . S
C846 H860 0.961 . S
C847 C844 1.539 . S
C847 H861 0.958 . S
C847 H862 0.961 . S
C847 H863 0.960 . S
H848 C832 0.931 . S
H849 C837 0.929 . S
H850 C838 0.960 . S
H851 C838 0.962 . S
H852 C838 0.960 . S
H853 C839 0.961 . S
H854 C839 0.961 . S
H855 C839 0.961 . S
H856 C840 0.931 . S
H857 C845 0.930 . S
H858 C846 0.956 . S
H859 C846 0.961 . S
H860 C846 0.961 . S
H861 C847 0.958 . S
H862 C847 0.961 . S
H863 C847 0.960 . S
C864 C865 1.391 . S
C864 C866 1.394 . S
C864 H880 0.931 . S
C865 C864 1.391 . S
C865 C869 1.376 . S
C866 C864 1.394 . S
C866 C867 1.369 . S
C866 C870 1.531 . S
C867 C866 1.369 . S
C867 C868 1.410 . S
C867 C875 1.503 . S
C868 C867 1.410 . S
C868 C869 1.392 . S
C868 C871 1.511 . S
C869 C865 1.376 . S
C869 C868 1.392 . S
C869 H881 0.929 . S
C870 C866 1.531 . S
C870 H882 0.960 . S
C870 H883 0.962 . S
C870 H884 0.960 . S
C871 C868 1.511 . S
C871 H885 0.961 . S
C871 H886 0.961 . S
C871 H887 0.961 . S
C872 C873 1.370 . S
C872 C874 1.363 . S
C872 H888 0.931 . S
C873 C872 1.370 . S
C873 C877 1.408 . S
C874 C872 1.363 . S
C874 C875 1.370 . S
C874 C878 1.524 . S
C875 C867 1.503 . S
C875 C874 1.370 . S
C875 C876 1.403 . S
C876 C875 1.403 . S
C876 C877 1.404 . S
C876 C879 1.539 . S
C877 C873 1.408 . S
C877 C876 1.404 . S
C877 H889 0.930 . S
C878 C874 1.524 . S
C878 H890 0.956 . S
C878 H891 0.961 . S
C878 H892 0.961 . S
C879 C876 1.539 . S
C879 H893 0.958 . S
C879 H894 0.961 . S
C879 H895 0.960 . S
H880 C864 0.931 . S
H881 C869 0.929 . S
H882 C870 0.960 . S
H883 C870 0.962 . S
H884 C870 0.960 . S
H885 C871 0.961 . S
H886 C871 0.961 . S
H887 C871 0.961 . S
H888 C872 0.931 . S
H889 C877 0.930 . S
H890 C878 0.956 . S
H891 C878 0.961 . S
H892 C878 0.961 . S
H893 C879 0.958 . S
H894 C879 0.961 . S
H895 C879 0.960 . S
C896 C897 1.391 . S
C896 C898 1.394 . S
C896 H912 0.931 . S
C897 C896 1.391 . S
C897 C901 1.376 . S
C898 C896 1.394 . S
C898 C899 1.369 . S
C898 C902 1.531 . S
C899 C898 1.369 . S
C899 C900 1.410 . S
C899 C907 1.503 . S
C900 C899 1.410 . S
C900 C901 1.392 . S
C900 C903 1.511 . S
C901 C897 1.376 . S
C901 C900 1.392 . S
C901 H913 0.929 . S
C902 C898 1.531 . S
C902 H914 0.960 . S
C902 H915 0.962 . S
C902 H916 0.960 . S
C903 C900 1.511 . S
C903 H917 0.961 . S
C903 H918 0.961 . S
C903 H919 0.961 . S
C904 C905 1.370 . S
C904 C906 1.363 . S
C904 H920 0.931 . S
C905 C904 1.370 . S
C905 C909 1.408 . S
C906 C904 1.363 . S
C906 C907 1.370 . S
C906 C910 1.524 . S
C907 C899 1.503 . S
C907 C906 1.370 . S
C907 C908 1.403 . S
C908 C907 1.403 . S
C908 C909 1.404 . S
C908 C911 1.539 . S
C909 C905 1.408 . S
C909 C908 1.404 . S
C909 H921 0.930 . S
C910 C906 1.524 . S
C910 H922 0.956 . S
C910 H923 0.961 . S
C910 H924 0.961 . S
C911 C908 1.539 . S
C911 H925 0.958 . S
C911 H926 0.961 . S
C911 H927 0.960 . S
H912 C896 0.931 . S
H913 C901 0.929 . S
H914 C902 0.960 . S
H915 C902 0.962 . S
H916 C902 0.960 . S
H917 C903 0.961 . S
H918 C903 0.961 . S
H919 C903 0.961 . S
H920 C904 0.931 . S
H921 C909 0.930 . S
H922 C910 0.956 . S
H923 C910 0.961 . S
H924 C910 0.961 . S
H925 C911 0.958 . S
H926 C911 0.961 . S
H927 C911 0.960 . S
C928 C929 1.391 . S
C928 C930 1.394 . S
C928 H944 0.931 . S
C929 C928 1.391 . S
C929 C933 1.376 . S
C930 C928 1.394 . S
C930 C931 1.369 . S
C930 C934 1.531 . S
C931 C930 1.369 . S
C931 C932 1.410 . S
C931 C939 1.503 . S
C932 C931 1.410 . S
C932 C933 1.392 . S
C932 C935 1.511 . S
C933 C929 1.376 . S
C933 C932 1.392 . S
C933 H945 0.929 . S
C934 C930 1.531 . S
C934 H946 0.960 . S
C934 H947 0.962 . S
C934 H948 0.960 . S
C935 C932 1.511 . S
C935 H949 0.961 . S
C935 H950 0.961 . S
C935 H951 0.961 . S
C936 C937 1.370 . S
C936 C938 1.363 . S
C936 H952 0.931 . S
C937 C936 1.370 . S
C937 C941 1.408 . S
C938 C936 1.363 . S
C938 C939 1.370 . S
C938 C942 1.524 . S
C939 C931 1.503 . S
C939 C938 1.370 . S
C939 C940 1.403 . S
C940 C939 1.403 . S
C940 C941 1.404 . S
C940 C943 1.539 . S
C941 C937 1.408 . S
C941 C940 1.404 . S
C941 H953 0.930 . S
C942 C938 1.524 . S
C942 H954 0.956 . S
C942 H955 0.961 . S
C942 H956 0.961 . S
C943 C940 1.539 . S
C943 H957 0.958 . S
C943 H958 0.961 . S
C943 H959 0.960 . S
H944 C928 0.931 . S
H945 C933 0.929 . S
H946 C934 0.960 . S
H947 C934 0.962 . S
H948 C934 0.960 . S
H949 C935 0.961 . S
H950 C935 0.961 . S
H951 C935 0.961 . S
H952 C936 0.931 . S
H953 C941 0.930 . S
H954 C942 0.956 . S
H955 C942 0.961 . S
H956 C942 0.961 . S
H957 C943 0.958 . S
H958 C943 0.961 . S
H959 C943 0.960 . S
C960 C961 1.391 . S
C960 C962 1.394 . S
C960 H976 0.931 . S
C961 C960 1.391 . S
C961 C965 1.376 . S
C962 C960 1.394 . S
C962 C963 1.369 . S
C962 C966 1.531 . S
C963 C962 1.369 . S
C963 C964 1.410 . S
C963 C971 1.503 . S
C964 C963 1.410 . S
C964 C965 1.392 . S
C964 C967 1.511 . S
C965 C961 1.376 . S
C965 C964 1.392 . S
C965 H977 0.929 . S
C966 C962 1.531 . S
C966 H978 0.960 . S
C966 H979 0.962 . S
C966 H980 0.960 . S
C967 C964 1.511 . S
C967 H981 0.961 . S
C967 H982 0.961 . S
C967 H983 0.961 . S
C968 C969 1.370 . S
C968 C970 1.363 . S
C968 H984 0.931 . S
C969 C968 1.370 . S
C969 C973 1.408 . S
C970 C968 1.363 . S
C970 C971 1.370 . S
C970 C974 1.524 . S
C971 C963 1.503 . S
C971 C970 1.370 . S
C971 C972 1.403 . S
C972 C971 1.403 . S
C972 C973 1.404 . S
C972 C975 1.539 . S
C973 C969 1.408 . S
C973 C972 1.404 . S
C973 H985 0.930 . S
C974 C970 1.524 . S
C974 H986 0.956 . S
C974 H987 0.961 . S
C974 H988 0.961 . S
C975 C972 1.539 . S
C975 H989 0.958 . S
C975 H990 0.961 . S
C975 H991 0.960 . S
H976 C960 0.931 . S
H977 C965 0.929 . S
H978 C966 0.960 . S
H979 C966 0.962 . S
H980 C966 0.960 . S
H981 C967 0.961 . S
H982 C967 0.961 . S
H983 C967 0.961 . S
H984 C968 0.931 . S
H985 C973 0.930 . S
H986 C974 0.956 . S
H987 C974 0.961 . S
H988 C974 0.961 . S
H989 C975 0.958 . S
H990 C975 0.961 . S
H991 C975 0.960 . S
C992 C993 1.391 . S
C992 C994 1.394 . S
C992 H1008 0.931 . S
C993 C992 1.391 . S
C993 C997 1.376 . S
C994 C992 1.394 . S
C994 C995 1.369 . S
C994 C998 1.531 . S
C995 C994 1.369 . S
C995 C996 1.410 . S
C995 C1003 1.503 . S
C996 C995 1.410 . S
C996 C997 1.392 . S
C996 C999 1.511 . S
C997 C993 1.376 . S
C997 C996 1.392 . S
C997 H1009 0.929 . S
C998 C994 1.531 . S
C998 H1010 0.960 . S
C998 H1011 0.962 . S
C998 H1012 0.960 . S
C999 C996 1.511 . S
C999 H1013 0.961 . S
C999 H1014 0.961 . S
C999 H1015 0.961 . S
C1000 C1001 1.370 . S
C1000 C1002 1.363 . S
C1000 H1016 0.931 1_655 S
C1001 C1000 1.370 . S
C1001 C1005 1.408 . S
C1002 C1000 1.363 . S
C1002 C1003 1.370 . S
C1002 C1006 1.524 . S
C1003 C995 1.503 . S
C1003 C1002 1.370 . S
C1003 C1004 1.403 . S
C1004 C1003 1.403 . S
C1004 C1005 1.404 . S
C1004 C1007 1.539 . S
C1005 C1001 1.408 . S
C1005 C1004 1.404 . S
C1005 H1017 0.930 . S
C1006 C1002 1.524 . S
C1006 H1018 0.956 . S
C1006 H1019 0.961 . S
C1006 H1020 0.961 . S
C1007 C1004 1.539 . S
C1007 H1021 0.958 . S
C1007 H1022 0.961 . S
C1007 H1023 0.960 . S
H1008 C992 0.931 . S
H1009 C997 0.929 . S
H1010 C998 0.960 . S
H1011 C998 0.962 . S
H1012 C998 0.960 . S
H1013 C999 0.961 . S
H1014 C999 0.961 . S
H1015 C999 0.961 . S
H1016 C1000 0.931 1_455 S
H1017 C1005 0.930 . S
H1018 C1006 0.956 . S
H1019 C1006 0.961 . S
H1020 C1006 0.961 . S
H1021 C1007 0.958 . S
H1022 C1007 0.961 . S
H1023 C1007 0.960 . S
C1024 C1025 1.391 . S
C1024 C1026 1.394 . S
C1024 H1040 0.931 . S
C1025 C1024 1.391 . S
C1025 C1029 1.376 . S
C1026 C1024 1.394 . S
C1026 C1027 1.369 . S
C1026 C1030 1.531 . S
C1027 C1026 1.369 . S
C1027 C1028 1.410 . S
C1027 C1035 1.503 . S
C1028 C1027 1.410 . S
C1028 C1029 1.392 . S
C1028 C1031 1.511 . S
C1029 C1025 1.376 . S
C1029 C1028 1.392 . S
C1029 H1041 0.929 . S
C1030 C1026 1.531 . S
C1030 H1042 0.960 . S
C1030 H1043 0.962 . S
C1030 H1044 0.960 . S
C1031 C1028 1.511 . S
C1031 H1045 0.961 . S
C1031 H1046 0.961 . S
C1031 H1047 0.961 . S
C1032 C1033 1.370 . S
C1032 C1034 1.363 . S
C1032 H1048 0.931 . S
C1033 C1032 1.370 . S
C1033 C1037 1.408 . S
C1034 C1032 1.363 . S
C1034 C1035 1.370 . S
C1034 C1038 1.524 . S
C1035 C1027 1.503 . S
C1035 C1034 1.370 . S
C1035 C1036 1.403 . S
C1036 C1035 1.403 . S
C1036 C1037 1.404 . S
C1036 C1039 1.539 . S
C1037 C1033 1.408 . S
C1037 C1036 1.404 . S
C1037 H1049 0.930 . S
C1038 C1034 1.524 . S
C1038 H1050 0.956 . S
C1038 H1051 0.961 . S
C1038 H1052 0.961 . S
C1039 C1036 1.539 . S
C1039 H1053 0.958 . S
C1039 H1054 0.961 . S
C1039 H1055 0.960 . S
H1040 C1024 0.931 . S
H1041 C1029 0.929 . S
H1042 C1030 0.960 . S
H1043 C1030 0.962 . S
H1044 C1030 0.960 . S
H1045 C1031 0.961 . S
H1046 C1031 0.961 . S
H1047 C1031 0.961 . S
H1048 C1032 0.931 . S
H1049 C1037 0.930 . S
H1050 C1038 0.956 . S
H1051 C1038 0.961 . S
H1052 C1038 0.961 . S
H1053 C1039 0.958 . S
H1054 C1039 0.961 . S
H1055 C1039 0.960 . S
C1056 C1057 1.391 . S
C1056 C1058 1.394 . S
C1056 H1072 0.931 . S
C1057 C1056 1.391 . S
C1057 C1061 1.376 . S
C1058 C1056 1.394 . S
C1058 C1059 1.369 . S
C1058 C1062 1.531 . S
C1059 C1058 1.369 . S
C1059 C1060 1.410 . S
C1059 C1067 1.503 . S
C1060 C1059 1.410 . S
C1060 C1061 1.392 . S
C1060 C1063 1.511 . S
C1061 C1057 1.376 . S
C1061 C1060 1.392 . S
C1061 H1073 0.929 . S
C1062 C1058 1.531 . S
C1062 H1074 0.960 . S
C1062 H1075 0.962 . S
C1062 H1076 0.960 . S
C1063 C1060 1.511 . S
C1063 H1077 0.961 . S
C1063 H1078 0.961 . S
C1063 H1079 0.961 . S
C1064 C1065 1.370 . S
C1064 C1066 1.363 . S
C1064 H1080 0.931 . S
C1065 C1064 1.370 . S
C1065 C1069 1.408 . S
C1066 C1064 1.363 . S
C1066 C1067 1.370 . S
C1066 C1070 1.524 . S
C1067 C1059 1.503 . S
C1067 C1066 1.370 . S
C1067 C1068 1.403 . S
C1068 C1067 1.403 . S
C1068 C1069 1.404 . S
C1068 C1071 1.539 . S
C1069 C1065 1.408 . S
C1069 C1068 1.404 . S
C1069 H1081 0.930 . S
C1070 C1066 1.524 . S
C1070 H1082 0.956 . S
C1070 H1083 0.961 . S
C1070 H1084 0.961 . S
C1071 C1068 1.539 . S
C1071 H1085 0.958 . S
C1071 H1086 0.961 . S
C1071 H1087 0.960 . S
H1072 C1056 0.931 . S
H1073 C1061 0.929 . S
H1074 C1062 0.960 . S
H1075 C1062 0.962 . S
H1076 C1062 0.960 . S
H1077 C1063 0.961 . S
H1078 C1063 0.961 . S
H1079 C1063 0.961 . S
H1080 C1064 0.931 . S
H1081 C1069 0.930 . S
H1082 C1070 0.956 . S
H1083 C1070 0.961 . S
H1084 C1070 0.961 . S
H1085 C1071 0.958 . S
H1086 C1071 0.961 . S
H1087 C1071 0.960 . S
C1088 C1089 1.391 . S
C1088 C1090 1.394 . S
C1088 H1104 0.931 . S
C1089 C1088 1.391 . S
C1089 C1093 1.376 . S
C1090 C1088 1.394 . S
C1090 C1091 1.369 . S
C1090 C1094 1.531 . S
C1091 C1090 1.369 . S
C1091 C1092 1.410 . S
C1091 C1099 1.503 . S
C1092 C1091 1.410 . S
C1092 C1093 1.392 . S
C1092 C1095 1.511 . S
C1093 C1089 1.376 . S
C1093 C1092 1.392 . S
C1093 H1105 0.929 . S
C1094 C1090 1.531 . S
C1094 H1106 0.960 . S
C1094 H1107 0.962 . S
C1094 H1108 0.960 . S
C1095 C1092 1.511 . S
C1095 H1109 0.961 . S
C1095 H1110 0.961 . S
C1095 H1111 0.961 . S
C1096 C1097 1.370 . S
C1096 C1098 1.363 . S
C1096 H1112 0.931 . S
C1097 C1096 1.370 . S
C1097 C1101 1.408 . S
C1098 C1096 1.363 . S
C1098 C1099 1.370 . S
C1098 C1102 1.524 . S
C1099 C1091 1.503 . S
C1099 C1098 1.370 . S
C1099 C1100 1.403 . S
C1100 C1099 1.403 . S
C1100 C1101 1.404 . S
C1100 C1103 1.539 . S
C1101 C1097 1.408 . S
C1101 C1100 1.404 . S
C1101 H1113 0.930 . S
C1102 C1098 1.524 . S
C1102 H1114 0.956 . S
C1102 H1115 0.961 . S
C1102 H1116 0.961 . S
C1103 C1100 1.539 . S
C1103 H1117 0.958 . S
C1103 H1118 0.961 . S
C1103 H1119 0.960 . S
H1104 C1088 0.931 . S
H1105 C1093 0.929 . S
H1106 C1094 0.960 . S
H1107 C1094 0.962 . S
H1108 C1094 0.960 . S
H1109 C1095 0.961 . S
H1110 C1095 0.961 . S
H1111 C1095 0.961 . S
H1112 C1096 0.931 . S
H1113 C1101 0.930 . S
H1114 C1102 0.956 . S
H1115 C1102 0.961 . S
H1116 C1102 0.961 . S
H1117 C1103 0.958 . S
H1118 C1103 0.961 . S
H1119 C1103 0.960 . S
C1120 C1121 1.391 . S
C1120 C1122 1.394 . S
C1120 H1136 0.931 . S
C1121 C1120 1.391 . S
C1121 C1125 1.376 . S
C1122 C1120 1.394 . S
C1122 C1123 1.369 . S
C1122 C1126 1.531 . S
C1123 C1122 1.369 . S
C1123 C1124 1.410 . S
C1123 C1131 1.503 . S
C1124 C1123 1.410 . S
C1124 C1125 1.392 . S
C1124 C1127 1.511 . S
C1125 C1121 1.376 . S
C1125 C1124 1.392 . S
C1125 H1137 0.929 . S
C1126 C1122 1.531 . S
C1126 H1138 0.960 . S
C1126 H1139 0.962 . S
C1126 H1140 0.960 . S
C1127 C1124 1.511 . S
C1127 H1141 0.961 . S
C1127 H1142 0.961 . S
C1127 H1143 0.961 . S
C1128 C1129 1.370 . S
C1128 C1130 1.363 . S
C1128 H1144 0.931 . S
C1129 C1128 1.370 . S
C1129 C1133 1.408 . S
C1130 C1128 1.363 . S
C1130 C1131 1.370 . S
C1130 C1134 1.524 . S
C1131 C1123 1.503 . S
C1131 C1130 1.370 . S
C1131 C1132 1.403 . S
C1132 C1131 1.403 . S
C1132 C1133 1.404 . S
C1132 C1135 1.539 . S
C1133 C1129 1.408 . S
C1133 C1132 1.404 . S
C1133 H1145 0.930 . S
C1134 C1130 1.524 . S
C1134 H1146 0.956 . S
C1134 H1147 0.961 . S
C1134 H1148 0.961 . S
C1135 C1132 1.539 . S
C1135 H1149 0.958 . S
C1135 H1150 0.961 . S
C1135 H1151 0.960 . S
H1136 C1120 0.931 . S
H1137 C1125 0.929 . S
H1138 C1126 0.960 . S
H1139 C1126 0.962 . S
H1140 C1126 0.960 . S
H1141 C1127 0.961 . S
H1142 C1127 0.961 . S
H1143 C1127 0.961 . S
H1144 C1128 0.931 . S
H1145 C1133 0.930 . S
H1146 C1134 0.956 . S
H1147 C1134 0.961 . S
H1148 C1134 0.961 . S
H1149 C1135 0.958 . S
H1150 C1135 0.961 . S
H1151 C1135 0.960 . S
C1152 C1153 1.391 . S
C1152 C1154 1.394 . S
C1152 H1168 0.931 . S
C1153 C1152 1.391 . S
C1153 C1157 1.376 . S
C1154 C1152 1.394 . S
C1154 C1155 1.369 . S
C1154 C1158 1.531 . S
C1155 C1154 1.369 . S
C1155 C1156 1.410 . S
C1155 C1163 1.503 . S
C1156 C1155 1.410 . S
C1156 C1157 1.392 . S
C1156 C1159 1.511 . S
C1157 C1153 1.376 . S
C1157 C1156 1.392 . S
C1157 H1169 0.929 . S
C1158 C1154 1.531 . S
C1158 H1170 0.960 . S
C1158 H1171 0.962 . S
C1158 H1172 0.960 . S
C1159 C1156 1.511 . S
C1159 H1173 0.961 . S
C1159 H1174 0.961 . S
C1159 H1175 0.961 . S
C1160 C1161 1.370 . S
C1160 C1162 1.363 . S
C1160 H1176 0.931 . S
C1161 C1160 1.370 . S
C1161 C1165 1.408 . S
C1162 C1160 1.363 . S
C1162 C1163 1.370 . S
C1162 C1166 1.524 . S
C1163 C1155 1.503 . S
C1163 C1162 1.370 . S
C1163 C1164 1.403 . S
C1164 C1163 1.403 . S
C1164 C1165 1.404 . S
C1164 C1167 1.539 . S
C1165 C1161 1.408 . S
C1165 C1164 1.404 . S
C1165 H1177 0.930 . S
C1166 C1162 1.524 . S
C1166 H1178 0.956 . S
C1166 H1179 0.961 . S
C1166 H1180 0.961 . S
C1167 C1164 1.539 . S
C1167 H1181 0.958 . S
C1167 H1182 0.961 . S
C1167 H1183 0.960 . S
H1168 C1152 0.931 . S
H1169 C1157 0.929 . S
H1170 C1158 0.960 . S
H1171 C1158 0.962 . S
H1172 C1158 0.960 . S
H1173 C1159 0.961 . S
H1174 C1159 0.961 . S
H1175 C1159 0.961 . S
H1176 C1160 0.931 . S
H1177 C1165 0.930 . S
H1178 C1166 0.956 . S
H1179 C1166 0.961 . S
H1180 C1166 0.961 . S
H1181 C1167 0.958 . S
H1182 C1167 0.961 . S
H1183 C1167 0.960 . S
C1184 C1185 1.391 . S
C1184 C1186 1.394 . S
C1184 H1200 0.931 1_655 S
C1185 C1184 1.391 . S
C1185 C1189 1.376 . S
C1186 C1184 1.394 . S
C1186 C1187 1.369 . S
C1186 C1190 1.531 . S
C1187 C1186 1.369 . S
C1187 C1188 1.410 . S
C1187 C1195 1.503 . S
C1188 C1187 1.410 . S
C1188 C1189 1.392 . S
C1188 C1191 1.511 . S
C1189 C1185 1.376 . S
C1189 C1188 1.392 . S
C1189 H1201 0.929 . S
C1190 C1186 1.531 . S
C1190 H1202 0.960 . S
C1190 H1203 0.962 . S
C1190 H1204 0.960 1_655 S
C1191 C1188 1.511 . S
C1191 H1205 0.961 . S
C1191 H1206 0.961 . S
C1191 H1207 0.961 . S
C1192 C1193 1.370 . S
C1192 C1194 1.363 . S
C1192 H1208 0.931 . S
C1193 C1192 1.370 . S
C1193 C1197 1.408 . S
C1194 C1192 1.363 . S
C1194 C1195 1.370 . S
C1194 C1198 1.524 . S
C1195 C1187 1.503 . S
C1195 C1194 1.370 . S
C1195 C1196 1.403 . S
C1196 C1195 1.403 . S
C1196 C1197 1.404 . S
C1196 C1199 1.539 . S
C1197 C1193 1.408 . S
C1197 C1196 1.404 . S
C1197 H1209 0.930 . S
C1198 C1194 1.524 . S
C1198 H1210 0.956 . S
C1198 H1211 0.961 . S
C1198 H1212 0.961 . S
C1199 C1196 1.539 . S
C1199 H1213 0.958 . S
C1199 H1214 0.961 . S
C1199 H1215 0.960 . S
H1200 C1184 0.931 1_455 S
H1201 C1189 0.929 . S
H1202 C1190 0.960 . S
H1203 C1190 0.962 . S
H1204 C1190 0.960 1_455 S
H1205 C1191 0.961 . S
H1206 C1191 0.961 . S
H1207 C1191 0.961 . S
H1208 C1192 0.931 . S
H1209 C1197 0.930 . S
H1210 C1198 0.956 . S
H1211 C1198 0.961 . S
H1212 C1198 0.961 . S
H1213 C1199 0.958 . S
H1214 C1199 0.961 . S
H1215 C1199 0.960 . S
C1216 C1217 1.391 . S
C1216 C1218 1.394 . S
C1216 H1232 0.931 . S
C1217 C1216 1.391 . S
C1217 C1221 1.376 . S
C1218 C1216 1.394 . S
C1218 C1219 1.369 . S
C1218 C1222 1.531 . S
C1219 C1218 1.369 . S
C1219 C1220 1.410 . S
C1219 C1227 1.503 . S
C1220 C1219 1.410 . S
C1220 C1221 1.392 . S
C1220 C1223 1.511 . S
C1221 C1217 1.376 . S
C1221 C1220 1.392 . S
C1221 H1233 0.929 . S
C1222 C1218 1.531 . S
C1222 H1234 0.960 . S
C1222 H1235 0.962 . S
C1222 H1236 0.960 . S
C1223 C1220 1.511 . S
C1223 H1237 0.961 . S
C1223 H1238 0.961 . S
C1223 H1239 0.961 . S
C1224 C1225 1.370 . S
C1224 C1226 1.363 . S
C1224 H1240 0.931 . S
C1225 C1224 1.370 . S
C1225 C1229 1.408 . S
C1226 C1224 1.363 . S
C1226 C1227 1.370 . S
C1226 C1230 1.524 . S
C1227 C1219 1.503 . S
C1227 C1226 1.370 . S
C1227 C1228 1.403 . S
C1228 C1227 1.403 . S
C1228 C1229 1.404 . S
C1228 C1231 1.539 . S
C1229 C1225 1.408 . S
C1229 C1228 1.404 . S
C1229 H1241 0.930 . S
C1230 C1226 1.524 . S
C1230 H1242 0.956 . S
C1230 H1243 0.961 . S
C1230 H1244 0.961 . S
C1231 C1228 1.539 . S
C1231 H1245 0.958 . S
C1231 H1246 0.961 . S
C1231 H1247 0.960 . S
H1232 C1216 0.931 . S
H1233 C1221 0.929 . S
H1234 C1222 0.960 . S
H1235 C1222 0.962 . S
H1236 C1222 0.960 . S
H1237 C1223 0.961 . S
H1238 C1223 0.961 . S
H1239 C1223 0.961 . S
H1240 C1224 0.931 . S
H1241 C1229 0.930 . S
H1242 C1230 0.956 . S
H1243 C1230 0.961 . S
H1244 C1230 0.961 . S
H1245 C1231 0.958 . S
H1246 C1231 0.961 . S
H1247 C1231 0.960 . S
C1248 C1249 1.391 . S
C1248 C1250 1.394 . S
C1248 H1264 0.961 . S
C1249 C1248 1.391 . S
C1249 C1253 1.376 . S
C1250 C1248 1.394 . S
C1250 C1251 1.369 . S
C1250 C1254 1.531 . S
C1251 C1250 1.369 . S
C1251 C1252 1.410 . S
C1251 C1259 1.503 . S
C1252 C1251 1.410 . S
C1252 C1253 1.392 . S
C1252 C1255 1.511 . S
C1253 C1249 1.376 . S
C1253 C1252 1.392 . S
C1253 H1265 0.929 . S
C1254 C1250 1.531 . S
C1254 H1266 0.960 . S
C1254 H1267 0.962 . S
C1254 H1268 0.960 . S
C1255 C1252 1.511 . S
C1255 H1269 0.961 . S
C1255 H1270 0.961 . S
C1255 H1271 0.961 . S
C1256 C1257 1.370 . S
C1256 C1258 1.363 . S
C1256 H1272 0.931 . S
C1257 C1256 1.370 . S
C1257 C1261 1.408 . S
C1258 C1256 1.363 . S
C1258 C1259 1.370 . S
C1258 C1262 1.524 . S
C1259 C1251 1.503 . S
C1259 C1258 1.370 . S
C1259 C1260 1.403 . S
C1260 C1259 1.403 . S
C1260 C1261 1.404 . S
C1260 C1263 1.539 . S
C1261 C1257 1.408 . S
C1261 C1260 1.404 . S
C1261 H1273 0.930 . S
C1262 C1258 1.524 . S
C1262 H1274 0.956 . S
C1262 H1275 0.961 . S
C1262 H1276 0.961 . S
C1263 C1260 1.539 . S
C1263 H1277 0.958 . S
C1263 H1278 0.961 . S
C1263 H1279 0.960 . S
H1264 C1248 0.961 . S
H1265 C1253 0.929 . S
H1266 C1254 0.960 . S
H1267 C1254 0.962 . S
H1268 C1254 0.960 . S
H1269 C1255 0.961 . S
H1270 C1255 0.961 . S
H1271 C1255 0.961 . S
H1272 C1256 0.931 . S
H1273 C1261 0.930 . S
H1274 C1262 0.956 . S
H1275 C1262 0.961 . S
H1276 C1262 0.961 . S
H1277 C1263 0.958 . S
H1278 C1263 0.961 . S
H1279 C1263 0.960 . S
C1280 C1281 1.391 . S
C1280 C1282 1.394 . S
C1280 H1296 0.931 . S
C1281 C1280 1.391 . S
C1281 C1285 1.376 . S
C1282 C1280 1.394 . S
C1282 C1283 1.369 . S
C1282 C1286 1.531 . S
C1283 C1282 1.369 . S
C1283 C1284 1.410 . S
C1283 C1291 1.503 . S
C1284 C1283 1.410 . S
C1284 C1285 1.392 . S
C1284 C1287 1.511 . S
C1285 C1281 1.376 . S
C1285 C1284 1.392 . S
C1285 H1297 0.929 . S
C1286 C1282 1.531 . S
C1286 H1298 0.960 . S
C1286 H1299 0.962 . S
C1286 H1300 0.960 . S
C1287 C1284 1.511 . S
C1287 H1301 0.961 . S
C1287 H1302 0.961 . S
C1287 H1303 0.961 . S
C1288 C1289 1.370 . S
C1288 C1290 1.363 . S
C1288 H1304 0.931 . S
C1289 C1288 1.370 . S
C1289 C1293 1.408 . S
C1290 C1288 1.363 . S
C1290 C1291 1.370 . S
C1290 C1294 1.524 . S
C1291 C1283 1.503 . S
C1291 C1290 1.370 . S
C1291 C1292 1.403 . S
C1292 C1291 1.403 . S
C1292 C1293 1.404 . S
C1292 C1295 1.539 . S
C1293 C1289 1.408 . S
C1293 C1292 1.404 . S
C1293 H1305 0.930 . S
C1294 C1290 1.524 . S
C1294 H1306 0.956 . S
C1294 H1307 0.961 . S
C1294 H1308 0.961 . S
C1295 C1292 1.539 . S
C1295 H1309 0.958 . S
C1295 H1310 0.961 . S
C1295 H1311 0.960 . S
H1296 C1280 0.931 . S
H1297 C1285 0.929 . S
H1298 C1286 0.960 . S
H1299 C1286 0.962 . S
H1300 C1286 0.960 . S
H1301 C1287 0.961 . S
H1302 C1287 0.961 . S
H1303 C1287 0.961 . S
H1304 C1288 0.931 . S
H1305 C1293 0.930 . S
H1306 C1294 0.956 . S
H1307 C1294 0.961 . S
H1308 C1294 0.961 . S
H1309 C1295 0.958 . S
H1310 C1295 0.961 . S
H1311 C1295 0.960 . S
C1312 C1313 1.391 . S
C1312 C1314 1.394 . S
C1312 H1328 0.931 . S
C1313 C1312 1.391 . S
C1313 C1317 1.376 . S
C1314 C1312 1.394 . S
C1314 C1315 1.369 . S
C1314 C1318 1.531 . S
C1315 C1314 1.369 . S
C1315 C1316 1.410 . S
C1315 C1323 1.503 . S
C1316 C1315 1.410 . S
C1316 C1317 1.392 . S
C1316 C1319 1.511 . S
C1317 C1313 1.376 . S
C1317 C1316 1.392 . S
C1317 H1329 0.929 . S
C1318 C1314 1.531 . S
C1318 H1330 0.960 . S
C1318 H1331 0.962 . S
C1318 H1332 0.960 . S
C1319 C1316 1.511 . S
C1319 H1333 0.961 . S
C1319 H1334 0.961 . S
C1319 H1335 0.961 . S
C1320 C1321 1.370 . S
C1320 C1322 1.363 . S
C1320 H1336 0.931 . S
C1321 C1320 1.370 . S
C1321 C1325 1.408 . S
C1322 C1320 1.363 . S
C1322 C1323 1.370 . S
C1322 C1326 1.524 . S
C1323 C1315 1.503 . S
C1323 C1322 1.370 . S
C1323 C1324 1.403 . S
C1324 C1323 1.403 . S
C1324 C1325 1.404 . S
C1324 C1327 1.539 . S
C1325 C1321 1.408 . S
C1325 C1324 1.404 . S
C1325 H1337 0.930 . S
C1326 C1322 1.524 . S
C1326 H1338 0.956 . S
C1326 H1339 0.961 . S
C1326 H1340 0.961 . S
C1327 C1324 1.539 . S
C1327 H1341 0.958 . S
C1327 H1342 0.961 . S
C1327 H1343 0.960 . S
H1328 C1312 0.931 . S
H1329 C1317 0.929 . S
H1330 C1318 0.960 . S
H1331 C1318 0.962 . S
H1332 C1318 0.960 . S
H1333 C1319 0.961 . S
H1334 C1319 0.961 . S
H1335 C1319 0.961 . S
H1336 C1320 0.931 . S
H1337 C1325 0.930 . S
H1338 C1326 0.956 . S
H1339 C1326 0.961 . S
H1340 C1326 0.961 . S
H1341 C1327 0.958 . S
H1342 C1327 0.961 . S
H1343 C1327 0.960 . S
C1344 C1345 1.391 . S
C1344 C1346 1.394 . S
C1344 H1360 0.931 . S
C1345 C1344 1.391 . S
C1345 C1349 1.376 . S
C1346 C1344 1.394 . S
C1346 C1347 1.369 . S
C1346 C1350 1.531 . S
C1347 C1346 1.369 . S
C1347 C1348 1.410 . S
C1347 C1355 1.503 . S
C1348 C1347 1.410 . S
C1348 C1349 1.392 . S
C1348 C1351 1.511 . S
C1349 C1345 1.376 . S
C1349 C1348 1.392 . S
C1349 H1361 0.929 . S
C1350 C1346 1.531 . S
C1350 H1362 0.960 . S
C1350 H1363 0.962 . S
C1350 H1364 0.960 . S
C1351 C1348 1.511 . S
C1351 H1365 0.961 . S
C1351 H1366 0.961 . S
C1351 H1367 0.961 . S
C1352 C1353 1.370 . S
C1352 C1354 1.363 . S
C1352 H1368 0.931 . S
C1353 C1352 1.370 . S
C1353 C1357 1.408 . S
C1354 C1352 1.363 . S
C1354 C1355 1.370 . S
C1354 C1358 1.524 . S
C1355 C1347 1.503 . S
C1355 C1354 1.370 . S
C1355 C1356 1.403 . S
C1356 C1355 1.403 . S
C1356 C1357 1.404 . S
C1356 C1359 1.539 . S
C1357 C1353 1.408 . S
C1357 C1356 1.404 . S
C1357 H1369 0.930 . S
C1358 C1354 1.524 . S
C1358 H1370 0.956 . S
C1358 H1371 0.961 . S
C1358 H1372 0.961 . S
C1359 C1356 1.539 . S
C1359 H1373 0.958 . S
C1359 H1374 0.961 . S
C1359 H1375 0.960 . S
H1360 C1344 0.931 . S
H1361 C1349 0.929 . S
H1362 C1350 0.960 . S
H1363 C1350 0.962 . S
H1364 C1350 0.960 . S
H1365 C1351 0.961 . S
H1366 C1351 0.961 . S
H1367 C1351 0.961 . S
H1368 C1352 0.931 . S
H1369 C1357 0.930 . S
H1370 C1358 0.956 . S
H1371 C1358 0.961 . S
H1372 C1358 0.961 . S
H1373 C1359 0.958 . S
H1374 C1359 0.961 . S
H1375 C1359 0.960 . S
C1376 C1377 1.391 . S
C1376 C1378 1.394 . S
C1376 H1392 0.931 . S
C1377 C1376 1.391 . S
C1377 C1381 1.376 . S
C1378 C1376 1.394 . S
C1378 C1379 1.369 . S
C1378 C1382 1.531 . S
C1379 C1378 1.369 . S
C1379 C1380 1.410 . S
C1379 C1387 1.503 . S
C1380 C1379 1.410 . S
C1380 C1381 1.392 . S
C1380 C1383 1.511 . S
C1381 C1377 1.376 . S
C1381 C1380 1.392 . S
C1381 H1393 0.929 . S
C1382 C1378 1.531 . S
C1382 H1394 0.960 . S
C1382 H1395 0.962 . S
C1382 H1396 0.960 . S
C1383 C1380 1.511 . S
C1383 H1397 0.961 . S
C1383 H1398 0.961 . S
C1383 H1399 0.961 . S
C1384 C1385 1.370 . S
C1384 C1386 1.363 . S
C1384 H1400 0.931 . S
C1385 C1384 1.370 . S
C1385 C1389 1.408 . S
C1386 C1384 1.363 . S
C1386 C1387 1.370 . S
C1386 C1390 1.524 . S
C1387 C1379 1.503 . S
C1387 C1386 1.370 . S
C1387 C1388 1.403 . S
C1388 C1387 1.403 . S
C1388 C1389 1.404 . S
C1388 C1391 1.539 . S
C1389 C1385 1.408 . S
C1389 C1388 1.404 . S
C1389 H1401 0.930 . S
C1390 C1386 1.524 . S
C1390 H1402 0.956 . S
C1390 H1403 0.961 . S
C1390 H1404 0.961 . S
C1391 C1388 1.539 . S
C1391 H1405 0.958 . S
C1391 H1406 0.961 . S
C1391 H1407 0.960 . S
H1392 C1376 0.931 . S
H1393 C1381 0.929 . S
H1394 C1382 0.960 . S
H1395 C1382 0.962 . S
H1396 C1382 0.960 . S
H1397 C1383 0.961 . S
H1398 C1383 0.961 . S
H1399 C1383 0.961 . S
H1400 C1384 0.931 . S
H1401 C1389 0.930 . S
H1402 C1390 0.956 . S
H1403 C1390 0.961 . S
H1404 C1390 0.961 . S
H1405 C1391 0.958 . S
H1406 C1391 0.961 . S
H1407 C1391 0.960 . S
C1408 C1409 1.391 . S
C1408 C1410 1.394 . S
C1408 H1424 0.931 . S
C1409 C1408 1.391 . S
C1409 C1413 1.376 . S
C1410 C1408 1.394 . S
C1410 C1411 1.369 . S
C1410 C1414 1.531 . S
C1411 C1410 1.369 . S
C1411 C1412 1.410 . S
C1411 C1419 1.503 . S
C1412 C1411 1.410 . S
C1412 C1413 1.392 . S
C1412 C1415 1.511 . S
C1413 C1409 1.376 . S
C1413 C1412 1.392 . S
C1413 H1425 0.929 . S
C1414 C1410 1.531 . S
C1414 H1426 0.960 . S
C1414 H1427 0.962 . S
C1414 H1428 0.960 . S
C1415 C1412 1.511 . S
C1415 H1429 0.961 . S
C1415 H1430 0.961 . S
C1415 H1431 0.961 . S
C1416 C1417 1.370 . S
C1416 C1418 1.363 . S
C1416 H1432 0.931 . S
C1417 C1416 1.370 . S
C1417 C1421 1.408 . S
C1418 C1416 1.363 . S
C1418 C1419 1.370 . S
C1418 C1422 1.524 . S
C1419 C1411 1.503 . S
C1419 C1418 1.370 . S
C1419 C1420 1.403 . S
C1420 C1419 1.403 . S
C1420 C1421 1.404 . S
C1420 C1423 1.539 . S
C1421 C1417 1.408 . S
C1421 C1420 1.404 . S
C1421 H1433 0.930 . S
C1422 C1418 1.524 . S
C1422 H1434 0.956 . S
C1422 H1435 0.961 . S
C1422 H1436 0.961 . S
C1423 C1420 1.539 . S
C1423 H1437 0.958 . S
C1423 H1438 0.961 . S
C1423 H1439 0.960 . S
H1424 C1408 0.931 . S
H1425 C1413 0.929 . S
H1426 C1414 0.960 . S
H1427 C1414 0.962 . S
H1428 C1414 0.960 . S
H1429 C1415 0.961 . S
H1430 C1415 0.961 . S
H1431 C1415 0.961 . S
H1432 C1416 0.931 . S
H1433 C1421 0.930 . S
H1434 C1422 0.956 . S
H1435 C1422 0.961 . S
H1436 C1422 0.961 . S
H1437 C1423 0.958 . S
H1438 C1423 0.961 . S
H1439 C1423 0.960 . S
C1440 C1441 1.391 . S
C1440 C1442 1.394 . S
C1440 H1456 0.931 . S
C1441 C1440 1.391 . S
C1441 C1445 1.376 . S
C1442 C1440 1.394 . S
C1442 C1443 1.369 . S
C1442 C1446 1.531 . S
C1443 C1442 1.369 . S
C1443 C1444 1.410 . S
C1443 C1451 1.503 . S
C1444 C1443 1.410 . S
C1444 C1445 1.392 . S
C1444 C1447 1.511 . S
C1445 C1441 1.376 . S
C1445 C1444 1.392 . S
C1445 H1457 0.929 . S
C1446 C1442 1.531 . S
C1446 H1458 0.960 . S
C1446 H1459 0.962 . S
C1446 H1460 0.960 . S
C1447 C1444 1.511 . S
C1447 H1461 0.961 . S
C1447 H1462 0.961 . S
C1447 H1463 0.961 . S
C1448 C1449 1.370 . S
C1448 C1450 1.363 . S
C1448 H1464 0.931 1_455 S
C1449 C1448 1.370 . S
C1449 C1453 1.408 . S
C1450 C1448 1.363 . S
C1450 C1451 1.370 . S
C1450 C1454 1.524 . S
C1451 C1443 1.503 . S
C1451 C1450 1.370 . S
C1451 C1452 1.403 . S
C1452 C1451 1.403 . S
C1452 C1453 1.404 . S
C1452 C1455 1.539 . S
C1453 C1449 1.408 . S
C1453 C1452 1.404 . S
C1453 H1465 0.930 . S
C1454 C1450 1.524 . S
C1454 H1466 0.956 . S
C1454 H1467 0.961 . S
C1454 H1468 0.961 . S
C1455 C1452 1.539 . S
C1455 H1469 0.958 . S
C1455 H1470 0.961 . S
C1455 H1471 0.960 . S
H1456 C1440 0.931 . S
H1457 C1445 0.929 . S
H1458 C1446 0.960 . S
H1459 C1446 0.962 . S
H1460 C1446 0.960 . S
H1461 C1447 0.961 . S
H1462 C1447 0.961 . S
H1463 C1447 0.961 . S
H1464 C1448 0.931 1_655 S
H1465 C1453 0.930 . S
H1466 C1454 0.956 . S
H1467 C1454 0.961 . S
H1468 C1454 0.961 . S
H1469 C1455 0.958 . S
H1470 C1455 0.961 . S
H1471 C1455 0.960 . S
C1472 C1473 1.391 . S
C1472 C1474 1.394 . S
C1472 H1488 0.931 . S
C1473 C1472 1.391 . S
C1473 C1477 1.376 . S
C1474 C1472 1.394 . S
C1474 C1475 1.369 . S
C1474 C1478 1.531 . S
C1475 C1474 1.369 . S
C1475 C1476 1.410 . S
C1475 C1483 1.503 . S
C1476 C1475 1.410 . S
C1476 C1477 1.392 . S
C1476 C1479 1.511 . S
C1477 C1473 1.376 . S
C1477 C1476 1.392 . S
C1477 H1489 0.929 . S
C1478 C1474 1.531 . S
C1478 H1490 0.960 . S
C1478 H1491 0.962 . S
C1478 H1492 0.960 . S
C1479 C1476 1.511 . S
C1479 H1493 0.961 . S
C1479 H1494 0.961 . S
C1479 H1495 0.961 . S
C1480 C1481 1.370 . S
C1480 C1482 1.363 . S
C1480 H1496 0.931 . S
C1481 C1480 1.370 . S
C1481 C1485 1.408 . S
C1482 C1480 1.363 . S
C1482 C1483 1.370 . S
C1482 C1486 1.524 . S
C1483 C1475 1.503 . S
C1483 C1482 1.370 . S
C1483 C1484 1.403 . S
C1484 C1483 1.403 . S
C1484 C1485 1.404 . S
C1484 C1487 1.539 . S
C1485 C1481 1.408 . S
C1485 C1484 1.404 . S
C1485 H1497 0.930 . S
C1486 C1482 1.524 . S
C1486 H1498 0.956 . S
C1486 H1499 0.961 . S
C1486 H1500 0.961 . S
C1487 C1484 1.539 . S
C1487 H1501 0.958 . S
C1487 H1502 0.961 . S
C1487 H1503 0.960 . S
H1488 C1472 0.931 . S
H1489 C1477 0.929 . S
H1490 C1478 0.960 . S
H1491 C1478 0.962 . S
H1492 C1478 0.960 . S
H1493 C1479 0.961 . S
H1494 C1479 0.961 . S
H1495 C1479 0.961 . S
H1496 C1480 0.931 . S
H1497 C1485 0.930 . S
H1498 C1486 0.956 . S
H1499 C1486 0.961 . S
H1500 C1486 0.961 . S
H1501 C1487 0.958 . S
H1502 C1487 0.961 . S
H1503 C1487 0.960 . S
C1504 C1505 1.391 . S
C1504 C1506 1.394 . S
C1504 H1520 0.931 . S
C1505 C1504 1.391 . S
C1505 C1509 1.376 . S
C1506 C1504 1.394 . S
C1506 C1507 1.369 . S
C1506 C1510 1.531 . S
C1507 C1506 1.369 . S
C1507 C1508 1.410 . S
C1507 C1515 1.503 . S
C1508 C1507 1.410 . S
C1508 C1509 1.392 . S
C1508 C1511 1.511 . S
C1509 C1505 1.376 . S
C1509 C1508 1.392 . S
C1509 H1521 0.929 . S
C1510 C1506 1.531 . S
C1510 H1522 0.960 . S
C1510 H1523 0.962 . S
C1510 H1524 0.960 . S
C1511 C1508 1.511 . S
C1511 H1525 0.961 . S
C1511 H1526 0.961 . S
C1511 H1527 0.961 . S
C1512 C1513 1.370 . S
C1512 C1514 1.363 . S
C1512 H1528 0.931 . S
C1513 C1512 1.370 . S
C1513 C1517 1.408 . S
C1514 C1512 1.363 . S
C1514 C1515 1.370 . S
C1514 C1518 1.524 . S
C1515 C1507 1.503 . S
C1515 C1514 1.370 . S
C1515 C1516 1.403 . S
C1516 C1515 1.403 . S
C1516 C1517 1.404 . S
C1516 C1519 1.539 . S
C1517 C1513 1.408 . S
C1517 C1516 1.404 . S
C1517 H1529 0.930 . S
C1518 C1514 1.524 . S
C1518 H1530 0.956 . S
C1518 H1531 0.961 . S
C1518 H1532 0.961 . S
C1519 C1516 1.539 . S
C1519 H1533 0.958 . S
C1519 H1534 0.961 . S
C1519 H1535 0.960 . S
H1520 C1504 0.931 . S
H1521 C1509 0.929 . S
H1522 C1510 0.960 . S
H1523 C1510 0.962 . S
H1524 C1510 0.960 . S
H1525 C1511 0.961 . S
H1526 C1511 0.961 . S
H1527 C1511 0.961 . S
H1528 C1512 0.931 . S
H1529 C1517 0.930 . S
H1530 C1518 0.956 . S
H1531 C1518 0.961 . S
H1532 C1518 0.961 . S
H1533 C1519 0.958 . S
H1534 C1519 0.961 . S
H1535 C1519 0.960 . S
C1536 C1537 1.391 . S
C1536 C1538 1.394 . S
C1536 H1552 0.931 . S
C1537 C1536 1.391 . S
C1537 C1541 1.376 . S
C1538 C1536 1.394 . S
C1538 C1539 1.369 . S
C1538 C1542 1.531 . S
C1539 C1538 1.369 . S
C1539 C1540 1.410 . S
C1539 C1547 1.503 . S
C1540 C1539 1.410 . S
C1540 C1541 1.392 . S
C1540 C1543 1.511 . S
C1541 C1537 1.376 . S
C1541 C1540 1.392 . S
C1541 H1553 0.929 . S
C1542 C1538 1.531 . S
C1542 H1554 0.960 . S
C1542 H1555 0.962 . S
C1542 H1556 0.960 . S
C1543 C1540 1.511 . S
C1543 H1557 0.961 . S
C1543 H1558 0.961 . S
C1543 H1559 0.961 . S
C1544 C1545 1.370 . S
C1544 C1546 1.363 . S
C1544 H1560 0.931 . S
C1545 C1544 1.370 . S
C1545 C1549 1.408 . S
C1546 C1544 1.363 . S
C1546 C1547 1.370 . S
C1546 C1550 1.524 . S
C1547 C1539 1.503 . S
C1547 C1546 1.370 . S
C1547 C1548 1.403 . S
C1548 C1547 1.403 . S
C1548 C1549 1.404 . S
C1548 C1551 1.539 . S
C1549 C1545 1.408 . S
C1549 C1548 1.404 . S
C1549 H1561 0.930 . S
C1550 C1546 1.524 . S
C1550 H1562 0.956 . S
C1550 H1563 0.961 . S
C1550 H1564 0.961 . S
C1551 C1548 1.539 . S
C1551 H1565 0.958 . S
C1551 H1566 0.961 . S
C1551 H1567 0.960 . S
H1552 C1536 0.931 . S
H1553 C1541 0.929 . S
H1554 C1542 0.960 . S
H1555 C1542 0.962 . S
H1556 C1542 0.960 . S
H1557 C1543 0.961 . S
H1558 C1543 0.961 . S
H1559 C1543 0.961 . S
H1560 C1544 0.931 . S
H1561 C1549 0.930 . S
H1562 C1550 0.956 . S
H1563 C1550 0.961 . S
H1564 C1550 0.961 . S
H1565 C1551 0.958 . S
H1566 C1551 0.961 . S
H1567 C1551 0.960 . S
C1568 C1569 1.391 . S
C1568 C1570 1.394 . S
C1568 H1584 0.931 . S
C1569 C1568 1.391 . S
C1569 C1573 1.376 . S
C1570 C1568 1.394 . S
C1570 C1571 1.369 . S
C1570 C1574 1.531 . S
C1571 C1570 1.369 . S
C1571 C1572 1.410 . S
C1571 C1579 1.503 . S
C1572 C1571 1.410 . S
C1572 C1573 1.392 . S
C1572 C1575 1.511 . S
C1573 C1569 1.376 . S
C1573 C1572 1.392 . S
C1573 H1585 0.929 . S
C1574 C1570 1.531 . S
C1574 H1586 0.960 . S
C1574 H1587 0.962 . S
C1574 H1588 0.960 . S
C1575 C1572 1.511 . S
C1575 H1589 0.961 . S
C1575 H1590 0.961 . S
C1575 H1591 0.961 . S
C1576 C1577 1.370 . S
C1576 C1578 1.363 . S
C1576 H1592 0.931 . S
C1577 C1576 1.370 . S
C1577 C1581 1.408 . S
C1578 C1576 1.363 . S
C1578 C1579 1.370 . S
C1578 C1582 1.524 . S
C1579 C1571 1.503 . S
C1579 C1578 1.370 . S
C1579 C1580 1.403 . S
C1580 C1579 1.403 . S
C1580 C1581 1.404 . S
C1580 C1583 1.539 . S
C1581 C1577 1.408 . S
C1581 C1580 1.404 . S
C1581 H1593 0.930 . S
C1582 C1578 1.524 . S
C1582 H1594 0.956 . S
C1582 H1595 0.961 . S
C1582 H1596 0.961 . S
C1583 C1580 1.539 . S
C1583 H1597 0.958 . S
C1583 H1598 0.961 . S
C1583 H1599 0.960 . S
H1584 C1568 0.931 . S
H1585 C1573 0.929 . S
H1586 C1574 0.960 . S
H1587 C1574 0.962 . S
H1588 C1574 0.960 . S
H1589 C1575 0.961 . S
H1590 C1575 0.961 . S
H1591 C1575 0.961 . S
H1592 C1576 0.931 . S
H1593 C1581 0.930 . S
H1594 C1582 0.956 . S
H1595 C1582 0.961 . S
H1596 C1582 0.961 . S
H1597 C1583 0.958 . S
H1598 C1583 0.961 . S
H1599 C1583 0.960 . S
C1600 C1601 1.391 . S
C1600 C1602 1.394 . S
C1600 H1616 0.931 . S
C1601 C1600 1.391 . S
C1601 C1605 1.376 . S
C1602 C1600 1.394 . S
C1602 C1603 1.369 . S
C1602 C1606 1.531 . S
C1603 C1602 1.369 . S
C1603 C1604 1.410 . S
C1603 C1611 1.503 . S
C1604 C1603 1.410 . S
C1604 C1605 1.392 . S
C1604 C1607 1.511 . S
C1605 C1601 1.376 . S
C1605 C1604 1.392 . S
C1605 H1617 0.929 . S
C1606 C1602 1.531 . S
C1606 H1618 0.960 . S
C1606 H1619 0.962 . S
C1606 H1620 0.960 . S
C1607 C1604 1.511 . S
C1607 H1621 0.961 . S
C1607 H1622 0.961 . S
C1607 H1623 0.961 . S
C1608 C1609 1.370 . S
C1608 C1610 1.363 . S
C1608 H1624 0.931 . S
C1609 C1608 1.370 . S
C1609 C1613 1.408 . S
C1610 C1608 1.363 . S
C1610 C1611 1.370 . S
C1610 C1614 1.524 . S
C1611 C1603 1.503 . S
C1611 C1610 1.370 . S
C1611 C1612 1.403 . S
C1612 C1611 1.403 . S
C1612 C1613 1.404 . S
C1612 C1615 1.539 . S
C1613 C1609 1.408 . S
C1613 C1612 1.404 . S
C1613 H1625 0.930 . S
C1614 C1610 1.524 . S
C1614 H1626 0.956 . S
C1614 H1627 0.961 . S
C1614 H1628 0.961 . S
C1615 C1612 1.539 . S
C1615 H1629 0.958 . S
C1615 H1630 0.961 . S
C1615 H1631 0.960 . S
H1616 C1600 0.931 . S
H1617 C1605 0.929 . S
H1618 C1606 0.960 . S
H1619 C1606 0.962 . S
H1620 C1606 0.960 . S
H1621 C1607 0.961 . S
H1622 C1607 0.961 . S
H1623 C1607 0.961 . S
H1624 C1608 0.931 . S
H1625 C1613 0.930 . S
H1626 C1614 0.956 . S
H1627 C1614 0.961 . S
H1628 C1614 0.961 . S
H1629 C1615 0.958 . S
H1630 C1615 0.961 . S
H1631 C1615 0.960 . S
C1632 C1633 1.391 . S
C1632 C1634 1.394 . S
C1632 H1648 0.931 . S
C1633 C1632 1.391 . S
C1633 C1637 1.376 . S
C1634 C1632 1.394 . S
C1634 C1635 1.369 . S
C1634 C1638 1.531 . S
C1635 C1634 1.369 . S
C1635 C1636 1.410 . S
C1635 C1643 1.503 . S
C1636 C1635 1.410 . S
C1636 C1637 1.392 . S
C1636 C1639 1.511 . S
C1637 C1633 1.376 . S
C1637 C1636 1.392 . S
C1637 H1649 0.929 1_455 S
C1638 C1634 1.531 . S
C1638 H1650 0.960 . S
C1638 H1651 0.962 . S
C1638 H1652 0.960 . S
C1639 C1636 1.511 . S
C1639 H1653 0.951 1_455 S
C1639 H1654 0.961 . S
C1639 H1655 0.961 . S
C1640 C1641 1.370 . S
C1640 C1642 1.363 . S
C1640 H1656 0.931 . S
C1641 C1640 1.370 . S
C1641 C1645 1.408 . S
C1642 C1640 1.363 . S
C1642 C1643 1.370 . S
C1642 C1646 1.524 . S
C1643 C1635 1.503 . S
C1643 C1642 1.370 . S
C1643 C1644 1.403 . S
C1644 C1643 1.403 . S
C1644 C1645 1.404 . S
C1644 C1647 1.539 . S
C1645 C1641 1.408 . S
C1645 C1644 1.404 . S
C1645 H1657 0.930 . S
C1646 C1642 1.524 . S
C1646 H1658 0.956 . S
C1646 H1659 0.961 . S
C1646 H1660 0.961 . S
C1647 C1644 1.539 . S
C1647 H1661 0.958 . S
C1647 H1662 0.961 . S
C1647 H1663 0.960 . S
H1648 C1632 0.931 . S
H1649 C1637 0.929 1_655 S
H1650 C1638 0.960 . S
H1651 C1638 0.962 . S
H1652 C1638 0.960 . S
H1653 C1639 0.951 1_655 S
H1654 C1639 0.961 . S
H1655 C1639 0.961 . S
H1656 C1640 0.931 . S
H1657 C1645 0.930 . S
H1658 C1646 0.956 . S
H1659 C1646 0.961 . S
H1660 C1646 0.961 . S
H1661 C1647 0.958 . S
H1662 C1647 0.961 . S
H1663 C1647 0.960 . S
C1664 C1665 1.391 . S
C1664 C1666 1.394 . S
C1664 H1680 0.931 . S
C1665 C1664 1.391 . S
C1665 C1669 1.376 . S
C1666 C1664 1.394 . S
C1666 C1667 1.369 . S
C1666 C1670 1.531 . S
C1667 C1666 1.369 . S
C1667 C1668 1.410 . S
C1667 C1675 1.503 . S
C1668 C1667 1.410 . S
C1668 C1669 1.392 . S
C1668 C1671 1.511 . S
C1669 C1665 1.376 . S
C1669 C1668 1.392 . S
C1669 H1681 0.929 . S
C1670 C1666 1.531 . S
C1670 H1682 0.960 . S
C1670 H1683 0.962 . S
C1670 H1684 0.960 . S
C1671 C1668 1.511 . S
C1671 H1685 0.961 . S
C1671 H1686 0.961 . S
C1671 H1687 0.961 . S
C1672 C1673 1.370 . S
C1672 C1674 1.363 . S
C1672 H1688 0.931 . S
C1673 C1672 1.370 . S
C1673 C1677 1.408 . S
C1674 C1672 1.363 . S
C1674 C1675 1.370 . S
C1674 C1678 1.524 . S
C1675 C1667 1.503 . S
C1675 C1674 1.370 . S
C1675 C1676 1.403 . S
C1676 C1675 1.403 . S
C1676 C1677 1.404 . S
C1676 C1679 1.539 . S
C1677 C1673 1.408 . S
C1677 C1676 1.404 . S
C1677 H1689 0.930 . S
C1678 C1674 1.524 . S
C1678 H1690 0.956 . S
C1678 H1691 0.961 . S
C1678 H1692 0.961 . S
C1679 C1676 1.539 . S
C1679 H1693 0.958 . S
C1679 H1694 0.961 . S
C1679 H1695 0.960 . S
H1680 C1664 0.931 . S
H1681 C1669 0.929 . S
H1682 C1670 0.960 . S
H1683 C1670 0.962 . S
H1684 C1670 0.960 . S
H1685 C1671 0.961 . S
H1686 C1671 0.961 . S
H1687 C1671 0.961 . S
H1688 C1672 0.931 . S
H1689 C1677 0.930 . S
H1690 C1678 0.956 . S
H1691 C1678 0.961 . S
H1692 C1678 0.961 . S
H1693 C1679 0.958 . S
H1694 C1679 0.961 . S
H1695 C1679 0.960 . S
C1696 C1697 1.391 . S
C1696 C1698 1.394 . S
C1696 H1712 0.931 . S
C1697 C1696 1.391 . S
C1697 C1701 1.376 . S
C1698 C1696 1.394 . S
C1698 C1699 1.369 . S
C1698 C1702 1.531 . S
C1699 C1698 1.369 . S
C1699 C1700 1.410 . S
C1699 C1707 1.503 . S
C1700 C1699 1.410 . S
C1700 C1701 1.392 . S
C1700 C1703 1.511 . S
C1701 C1697 1.376 . S
C1701 C1700 1.392 . S
C1701 H1713 0.929 . S
C1702 C1698 1.531 . S
C1702 H1714 0.960 . S
C1702 H1715 0.962 . S
C1702 H1716 0.960 . S
C1703 C1700 1.511 . S
C1703 H1717 0.961 . S
C1703 H1718 0.961 . S
C1703 H1719 0.961 . S
C1704 C1705 1.370 . S
C1704 C1706 1.363 . S
C1704 H1720 0.931 . S
C1705 C1704 1.370 . S
C1705 C1709 1.408 . S
C1706 C1704 1.363 . S
C1706 C1707 1.370 . S
C1706 C1710 1.524 . S
C1707 C1699 1.503 . S
C1707 C1706 1.370 . S
C1707 C1708 1.403 . S
C1708 C1707 1.403 . S
C1708 C1709 1.404 . S
C1708 C1711 1.539 . S
C1709 C1705 1.408 . S
C1709 C1708 1.404 . S
C1709 H1721 0.930 . S
C1710 C1706 1.524 . S
C1710 H1722 0.956 . S
C1710 H1723 0.961 . S
C1710 H1724 0.961 . S
C1711 C1708 1.539 . S
C1711 H1725 0.958 . S
C1711 H1726 0.961 . S
C1711 H1727 0.960 . S
H1712 C1696 0.931 . S
H1713 C1701 0.929 . S
H1714 C1702 0.960 . S
H1715 C1702 0.962 . S
H1716 C1702 0.960 . S
H1717 C1703 0.961 . S
H1718 C1703 0.961 . S
H1719 C1703 0.961 . S
H1720 C1704 0.931 . S
H1721 C1709 0.930 . S
H1722 C1710 0.956 . S
H1723 C1710 0.961 . S
H1724 C1710 0.961 . S
H1725 C1711 0.958 . S
H1726 C1711 0.961 . S
H1727 C1711 0.960 . S
C1728 C1729 1.391 . S
C1728 C1730 1.394 . S
C1728 H1744 0.931 . S
C1729 C1728 1.391 . S
C1729 C1733 1.376 . S
C1730 C1728 1.394 . S
C1730 C1731 1.369 . S
C1730 C1734 1.531 . S
C1731 C1730 1.369 . S
C1731 C1732 1.410 . S
C1731 C1739 1.503 . S
C1732 C1731 1.410 . S
C1732 C1733 1.392 . S
C1732 C1735 1.511 . S
C1733 C1729 1.376 . S
C1733 C1732 1.392 . S
C1733 H1745 0.929 . S
C1734 C1730 1.531 . S
C1734 H1746 0.960 . S
C1734 H1747 0.962 . S
C1734 H1748 0.960 . S
C1735 C1732 1.511 . S
C1735 H1749 0.961 . S
C1735 H1750 0.961 . S
C1735 H1751 0.961 . S
C1736 C1737 1.370 . S
C1736 C1738 1.363 . S
C1736 H1752 0.931 . S
C1737 C1736 1.370 . S
C1737 C1741 1.408 . S
C1738 C1736 1.363 . S
C1738 C1739 1.370 . S
C1738 C1742 1.524 . S
C1739 C1731 1.503 . S
C1739 C1738 1.370 . S
C1739 C1740 1.403 . S
C1740 C1739 1.403 . S
C1740 C1741 1.404 . S
C1740 C1743 1.539 . S
C1741 C1737 1.408 . S
C1741 C1740 1.404 . S
C1741 H1753 0.930 . S
C1742 C1738 1.524 . S
C1742 H1754 0.956 . S
C1742 H1755 0.961 . S
C1742 H1756 0.961 . S
C1743 C1740 1.539 . S
C1743 H1757 0.958 . S
C1743 H1758 0.961 . S
C1743 H1759 0.960 . S
H1744 C1728 0.931 . S
H1745 C1733 0.929 . S
H1746 C1734 0.960 . S
H1747 C1734 0.962 . S
H1748 C1734 0.960 . S
H1749 C1735 0.961 . S
H1750 C1735 0.961 . S
H1751 C1735 0.961 . S
H1752 C1736 0.931 . S
H1753 C1741 0.930 . S
H1754 C1742 0.956 . S
H1755 C1742 0.961 . S
H1756 C1742 0.961 . S
H1757 C1743 0.958 . S
H1758 C1743 0.961 . S
H1759 C1743 0.960 . S
C1760 C1761 1.391 . S
C1760 C1762 1.394 . S
C1760 H1776 0.931 . S
C1761 C1760 1.391 . S
C1761 C1765 1.376 . S
C1762 C1760 1.394 . S
C1762 C1763 1.369 . S
C1762 C1766 1.531 . S
C1763 C1762 1.369 . S
C1763 C1764 1.410 . S
C1763 C1771 1.503 . S
C1764 C1763 1.410 . S
C1764 C1765 1.392 . S
C1764 C1767 1.511 . S
C1765 C1761 1.376 . S
C1765 C1764 1.392 . S
C1765 H1777 0.929 . S
C1766 C1762 1.531 . S
C1766 H1778 0.960 . S
C1766 H1779 0.962 . S
C1766 H1780 0.960 . S
C1767 C1764 1.511 . S
C1767 H1781 0.961 . S
C1767 H1782 0.961 . S
C1767 H1783 0.961 . S
C1768 C1769 1.370 . S
C1768 C1770 1.363 . S
C1768 H1784 0.931 . S
C1769 C1768 1.370 . S
C1769 C1773 1.408 . S
C1770 C1768 1.363 . S
C1770 C1771 1.370 . S
C1770 C1774 1.524 . S
C1771 C1763 1.503 . S
C1771 C1770 1.370 . S
C1771 C1772 1.403 . S
C1772 C1771 1.403 . S
C1772 C1773 1.404 . S
C1772 C1775 1.539 . S
C1773 C1769 1.408 . S
C1773 C1772 1.404 . S
C1773 H1785 0.930 . S
C1774 C1770 1.524 . S
C1774 H1786 0.956 . S
C1774 H1787 0.961 . S
C1774 H1788 0.961 . S
C1775 C1772 1.539 . S
C1775 H1789 0.958 . S
C1775 H1790 0.961 . S
C1775 H1791 0.960 . S
H1776 C1760 0.931 . S
H1777 C1765 0.929 . S
H1778 C1766 0.960 . S
H1779 C1766 0.962 . S
H1780 C1766 0.960 . S
H1781 C1767 0.961 . S
H1782 C1767 0.961 . S
H1783 C1767 0.961 . S
H1784 C1768 0.931 . S
H1785 C1773 0.930 . S
H1786 C1774 0.956 . S
H1787 C1774 0.961 . S
H1788 C1774 0.961 . S
H1789 C1775 0.958 . S
H1790 C1775 0.961 . S
H1791 C1775 0.960 . S
C1792 C1793 1.391 . S
C1792 C1794 1.394 . S
C1792 H1808 0.931 . S
C1793 C1792 1.391 . S
C1793 C1797 1.376 . S
C1794 C1792 1.394 . S
C1794 C1795 1.369 . S
C1794 C1798 1.531 . S
C1795 C1794 1.369 . S
C1795 C1796 1.410 . S
C1795 C1803 1.503 . S
C1796 C1795 1.410 . S
C1796 C1797 1.392 . S
C1796 C1799 1.511 . S
C1797 C1793 1.376 . S
C1797 C1796 1.392 . S
C1797 H1809 0.929 . S
C1798 C1794 1.531 . S
C1798 H1810 0.960 . S
C1798 H1811 0.962 . S
C1798 H1812 0.960 . S
C1799 C1796 1.511 . S
C1799 H1813 0.961 . S
C1799 H1814 0.961 . S
C1799 H1815 0.961 . S
C1800 C1801 1.370 . S
C1800 C1802 1.363 . S
C1800 H1816 0.931 . S
C1801 C1800 1.370 . S
C1801 C1805 1.408 . S
C1802 C1800 1.363 . S
C1802 C1803 1.370 . S
C1802 C1806 1.524 . S
C1803 C1795 1.503 . S
C1803 C1802 1.370 . S
C1803 C1804 1.403 . S
C1804 C1803 1.403 . S
C1804 C1805 1.404 . S
C1804 C1807 1.539 . S
C1805 C1801 1.408 . S
C1805 C1804 1.404 . S
C1805 H1817 0.930 . S
C1806 C1802 1.524 . S
C1806 H1818 0.956 . S
C1806 H1819 0.961 . S
C1806 H1820 0.961 . S
C1807 C1804 1.539 . S
C1807 H1821 0.958 . S
C1807 H1822 0.961 . S
C1807 H1823 0.960 . S
H1808 C1792 0.931 . S
H1809 C1797 0.929 . S
H1810 C1798 0.960 . S
H1811 C1798 0.962 . S
H1812 C1798 0.960 . S
H1813 C1799 0.961 . S
H1814 C1799 0.961 . S
H1815 C1799 0.961 . S
H1816 C1800 0.931 . S
H1817 C1805 0.930 . S
H1818 C1806 0.956 . S
H1819 C1806 0.961 . S
H1820 C1806 0.961 . S
H1821 C1807 0.958 . S
H1822 C1807 0.961 . S
H1823 C1807 0.960 . S
C1824 C1825 1.391 . S
C1824 C1826 1.394 . S
C1824 H1840 0.931 . S
C1825 C1824 1.391 . S
C1825 C1829 1.376 . S
C1826 C1824 1.394 . S
C1826 C1827 1.369 . S
C1826 C1830 1.531 . S
C1827 C1826 1.369 . S
C1827 C1828 1.410 . S
C1827 C1835 1.503 . S
C1828 C1827 1.410 . S
C1828 C1829 1.392 . S
C1828 C1831 1.511 . S
C1829 C1825 1.376 . S
C1829 C1828 1.392 . S
C1829 H1841 0.929 . S
C1830 C1826 1.531 . S
C1830 H1842 0.960 . S
C1830 H1843 0.962 . S
C1830 H1844 0.960 . S
C1831 C1828 1.511 . S
C1831 H1845 0.961 . S
C1831 H1846 0.961 . S
C1831 H1847 0.961 . S
C1832 C1833 1.370 . S
C1832 C1834 1.363 . S
C1832 H1848 0.931 1_655 S
C1833 C1832 1.370 . S
C1833 C1837 1.408 . S
C1834 C1832 1.363 . S
C1834 C1835 1.370 . S
C1834 C1838 1.524 . S
C1835 C1827 1.503 . S
C1835 C1834 1.370 . S
C1835 C1836 1.403 . S
C1836 C1835 1.403 . S
C1836 C1837 1.404 . S
C1836 C1839 1.539 . S
C1837 C1833 1.408 . S
C1837 C1836 1.404 . S
C1837 H1849 0.930 . S
C1838 C1834 1.524 . S
C1838 H1850 0.956 . S
C1838 H1851 0.961 . S
C1838 H1852 0.961 . S
C1839 C1836 1.539 . S
C1839 H1853 0.958 . S
C1839 H1854 0.961 . S
C1839 H1855 0.960 . S
H1840 C1824 0.931 . S
H1841 C1829 0.929 . S
H1842 C1830 0.960 . S
H1843 C1830 0.962 . S
H1844 C1830 0.960 . S
H1845 C1831 0.961 . S
H1846 C1831 0.961 . S
H1847 C1831 0.961 . S
H1848 C1832 0.931 1_455 S
H1849 C1837 0.930 . S
H1850 C1838 0.956 . S
H1851 C1838 0.961 . S
H1852 C1838 0.961 . S
H1853 C1839 0.958 . S
H1854 C1839 0.961 . S
H1855 C1839 0.960 . S
C1856 C1857 1.391 . S
C1856 C1858 1.394 . S
C1856 H1872 0.931 . S
C1857 C1856 1.391 . S
C1857 C1861 1.376 . S
C1858 C1856 1.394 . S
C1858 C1859 1.369 . S
C1858 C1862 1.531 . S
C1859 C1858 1.369 . S
C1859 C1860 1.410 . S
C1859 C1867 1.503 . S
C1860 C1859 1.410 . S
C1860 C1861 1.392 . S
C1860 C1863 1.511 . S
C1861 C1857 1.376 . S
C1861 C1860 1.392 . S
C1861 H1873 0.929 . S
C1862 C1858 1.531 . S
C1862 H1874 0.960 . S
C1862 H1875 0.962 . S
C1862 H1876 0.960 . S
C1863 C1860 1.511 . S
C1863 H1877 0.961 . S
C1863 H1878 0.961 . S
C1863 H1879 0.961 . S
C1864 C1865 1.370 . S
C1864 C1866 1.363 . S
C1864 H1880 0.931 . S
C1865 C1864 1.370 . S
C1865 C1869 1.408 . S
C1866 C1864 1.363 . S
C1866 C1867 1.370 . S
C1866 C1870 1.524 . S
C1867 C1859 1.503 . S
C1867 C1866 1.370 . S
C1867 C1868 1.403 . S
C1868 C1867 1.403 . S
C1868 C1869 1.404 . S
C1868 C1871 1.539 . S
C1869 C1865 1.408 . S
C1869 C1868 1.404 . S
C1869 H1881 0.930 . S
C1870 C1866 1.524 . S
C1870 H1882 0.956 . S
C1870 H1883 0.961 . S
C1870 H1884 0.961 . S
C1871 C1868 1.539 . S
C1871 H1885 0.958 . S
C1871 H1886 0.961 . S
C1871 H1887 0.960 . S
H1872 C1856 0.931 . S
H1873 C1861 0.929 . S
H1874 C1862 0.960 . S
H1875 C1862 0.962 . S
H1876 C1862 0.960 . S
H1877 C1863 0.961 . S
H1878 C1863 0.961 . S
H1879 C1863 0.961 . S
H1880 C1864 0.931 . S
H1881 C1869 0.930 . S
H1882 C1870 0.956 . S
H1883 C1870 0.961 . S
H1884 C1870 0.961 . S
H1885 C1871 0.958 . S
H1886 C1871 0.961 . S
H1887 C1871 0.960 . S
C1888 C1889 1.391 . S
C1888 C1890 1.394 . S
C1888 H1904 0.946 . S
C1889 C1888 1.391 . S
C1889 C1893 1.376 . S
C1890 C1888 1.394 . S
C1890 C1891 1.369 . S
C1890 C1894 1.531 . S
C1891 C1890 1.369 . S
C1891 C1892 1.410 . S
C1891 C1899 1.503 . S
C1892 C1891 1.410 . S
C1892 C1893 1.392 . S
C1892 C1895 1.511 . S
C1893 C1889 1.376 . S
C1893 C1892 1.392 . S
C1893 H1905 0.929 . S
C1894 C1890 1.531 . S
C1894 H1906 0.960 . S
C1894 H1907 0.962 . S
C1894 H1908 0.960 . S
C1895 C1892 1.511 . S
C1895 H1909 0.961 . S
C1895 H1910 0.961 . S
C1895 H1911 0.961 . S
C1896 C1897 1.370 . S
C1896 C1898 1.363 . S
C1896 H1912 0.931 . S
C1897 C1896 1.370 . S
C1897 C1901 1.408 . S
C1898 C1896 1.363 . S
C1898 C1899 1.370 . S
C1898 C1902 1.524 . S
C1899 C1891 1.503 . S
C1899 C1898 1.370 . S
C1899 C1900 1.403 . S
C1900 C1899 1.403 . S
C1900 C1901 1.404 . S
C1900 C1903 1.539 . S
C1901 C1897 1.408 . S
C1901 C1900 1.404 . S
C1901 H1913 0.930 . S
C1902 C1898 1.524 . S
C1902 H1914 0.956 . S
C1902 H1915 0.961 . S
C1902 H1916 0.961 . S
C1903 C1900 1.539 . S
C1903 H1917 0.958 . S
C1903 H1918 0.961 . S
C1903 H1919 0.960 . S
H1904 C1888 0.946 . S
H1905 C1893 0.929 . S
H1906 C1894 0.960 . S
H1907 C1894 0.962 . S
H1908 C1894 0.960 . S
H1909 C1895 0.961 . S
H1910 C1895 0.961 . S
H1911 C1895 0.961 . S
H1912 C1896 0.931 . S
H1913 C1901 0.930 . S
H1914 C1902 0.956 . S
H1915 C1902 0.961 . S
H1916 C1902 0.961 . S
H1917 C1903 0.958 . S
H1918 C1903 0.961 . S
H1919 C1903 0.960 . S
C1920 C1921 1.391 . S
C1920 C1922 1.394 . S
C1920 H1936 0.931 . S
C1921 C1920 1.391 . S
C1921 C1925 1.376 . S
C1922 C1920 1.394 . S
C1922 C1923 1.369 . S
C1922 C1926 1.531 . S
C1923 C1922 1.369 . S
C1923 C1924 1.410 . S
C1923 C1931 1.503 . S
C1924 C1923 1.410 . S
C1924 C1925 1.392 . S
C1924 C1927 1.511 . S
C1925 C1921 1.376 . S
C1925 C1924 1.392 . S
C1925 H1937 0.929 . S
C1926 C1922 1.531 . S
C1926 H1938 0.960 . S
C1926 H1939 0.962 . S
C1926 H1940 0.960 . S
C1927 C1924 1.511 . S
C1927 H1941 0.961 . S
C1927 H1942 0.961 . S
C1927 H1943 0.961 . S
C1928 C1929 1.370 . S
C1928 C1930 1.363 . S
C1928 H1944 0.931 . S
C1929 C1928 1.370 . S
C1929 C1933 1.408 . S
C1930 C1928 1.363 . S
C1930 C1931 1.370 . S
C1930 C1934 1.524 . S
C1931 C1923 1.503 . S
C1931 C1930 1.370 . S
C1931 C1932 1.403 . S
C1932 C1931 1.403 . S
C1932 C1933 1.404 . S
C1932 C1935 1.539 . S
C1933 C1929 1.408 . S
C1933 C1932 1.404 . S
C1933 H1945 0.930 . S
C1934 C1930 1.524 . S
C1934 H1946 0.956 . S
C1934 H1947 0.961 . S
C1934 H1948 0.961 . S
C1935 C1932 1.539 . S
C1935 H1949 0.958 . S
C1935 H1950 0.961 . S
C1935 H1951 0.960 . S
H1936 C1920 0.931 . S
H1937 C1925 0.929 . S
H1938 C1926 0.960 . S
H1939 C1926 0.962 . S
H1940 C1926 0.960 . S
H1941 C1927 0.961 . S
H1942 C1927 0.961 . S
H1943 C1927 0.961 . S
H1944 C1928 0.931 . S
H1945 C1933 0.930 . S
H1946 C1934 0.956 . S
H1947 C1934 0.961 . S
H1948 C1934 0.961 . S
H1949 C1935 0.958 . S
H1950 C1935 0.961 . S
H1951 C1935 0.960 . S
C1952 C1953 1.391 . S
C1952 C1954 1.394 . S
C1952 H1968 0.931 . S
C1953 C1952 1.391 . S
C1953 C1957 1.376 . S
C1954 C1952 1.394 . S
C1954 C1955 1.369 . S
C1954 C1958 1.531 . S
C1955 C1954 1.369 . S
C1955 C1956 1.410 . S
C1955 C1963 1.503 . S
C1956 C1955 1.410 . S
C1956 C1957 1.392 . S
C1956 C1959 1.511 . S
C1957 C1953 1.376 . S
C1957 C1956 1.392 . S
C1957 H1969 0.929 . S
C1958 C1954 1.531 . S
C1958 H1970 0.960 . S
C1958 H1971 0.962 . S
C1958 H1972 0.960 . S
C1959 C1956 1.511 . S
C1959 H1973 0.961 . S
C1959 H1974 0.961 . S
C1959 H1975 0.961 . S
C1960 C1961 1.370 . S
C1960 C1962 1.363 . S
C1960 H1976 0.931 . S
C1961 C1960 1.370 . S
C1961 C1965 1.408 . S
C1962 C1960 1.363 . S
C1962 C1963 1.370 . S
C1962 C1966 1.524 . S
C1963 C1955 1.503 . S
C1963 C1962 1.370 . S
C1963 C1964 1.403 . S
C1964 C1963 1.403 . S
C1964 C1965 1.404 . S
C1964 C1967 1.539 . S
C1965 C1961 1.408 . S
C1965 C1964 1.404 . S
C1965 H1977 0.930 . S
C1966 C1962 1.524 . S
C1966 H1978 0.956 . S
C1966 H1979 0.961 . S
C1966 H1980 0.961 . S
C1967 C1964 1.539 . S
C1967 H1981 0.958 . S
C1967 H1982 0.961 . S
C1967 H1983 0.960 . S
H1968 C1952 0.931 . S
H1969 C1957 0.929 . S
H1970 C1958 0.960 . S
H1971 C1958 0.962 . S
H1972 C1958 0.960 . S
H1973 C1959 0.961 . S
H1974 C1959 0.961 . S
H1975 C1959 0.961 . S
H1976 C1960 0.931 . S
H1977 C1965 0.930 . S
H1978 C1966 0.956 . S
H1979 C1966 0.961 . S
H1980 C1966 0.961 . S
H1981 C1967 0.958 . S
H1982 C1967 0.961 . S
H1983 C1967 0.960 . S
C1984 C1985 1.391 . S
C1984 C1986 1.394 . S
C1984 H2000 0.931 . S
C1985 C1984 1.391 . S
C1985 C1989 1.376 . S
C1986 C1984 1.394 . S
C1986 C1987 1.369 . S
C1986 C1990 1.531 . S
C1987 C1986 1.369 . S
C1987 C1988 1.410 . S
C1987 C1995 1.503 . S
C1988 C1987 1.410 . S
C1988 C1989 1.392 . S
C1988 C1991 1.509 . S
C1989 C1985 1.376 . S
C1989 C1988 1.392 . S
C1989 H2001 0.929 . S
C1990 C1986 1.531 . S
C1990 H2002 0.960 . S
C1990 H2003 0.962 . S
C1990 H2004 0.960 . S
C1991 C1988 1.509 . S
C1991 H2005 0.961 1_455 S
C1991 H2006 0.960 . S
C1991 H2007 0.964 1_455 S
C1992 C1993 1.370 . S
C1992 C1994 1.363 . S
C1992 H2008 0.931 . S
C1993 C1992 1.370 . S
C1993 C1997 1.408 . S
C1994 C1992 1.363 . S
C1994 C1995 1.370 . S
C1994 C1998 1.524 . S
C1995 C1987 1.503 . S
C1995 C1994 1.370 . S
C1995 C1996 1.403 . S
C1996 C1995 1.403 . S
C1996 C1997 1.404 . S
C1996 C1999 1.539 . S
C1997 C1993 1.408 . S
C1997 C1996 1.404 . S
C1997 H2009 0.930 . S
C1998 C1994 1.524 . S
C1998 H2010 0.956 . S
C1998 H2011 0.961 . S
C1998 H2012 0.961 . S
C1999 C1996 1.539 . S
C1999 H2013 0.958 . S
C1999 H2014 0.961 1_455 S
C1999 H2015 0.960 1_455 S
H2000 C1984 0.931 . S
H2001 C1989 0.929 . S
H2002 C1990 0.960 . S
H2003 C1990 0.962 . S
H2004 C1990 0.960 . S
H2005 C1991 0.961 1_655 S
H2006 C1991 0.960 . S
H2007 C1991 0.964 1_655 S
H2008 C1992 0.931 . S
H2009 C1997 0.930 . S
H2010 C1998 0.956 . S
H2011 C1998 0.961 . S
H2012 C1998 0.961 . S
H2013 C1999 0.958 . S
H2014 C1999 0.961 1_655 S
H2015 C1999 0.960 1_655 S
C2016 C2017 1.391 . S
C2016 C2018 1.394 . S
C2016 H2032 0.931 . S
C2017 C2016 1.391 . S
C2017 C2021 1.376 . S
C2018 C2016 1.394 . S
C2018 C2019 1.369 . S
C2018 C2022 1.531 . S
C2019 C2018 1.369 . S
C2019 C2020 1.410 . S
C2019 C2027 1.503 . S
C2020 C2019 1.410 . S
C2020 C2021 1.392 . S
C2020 C2023 1.511 . S
C2021 C2017 1.376 . S
C2021 C2020 1.392 . S
C2021 H2033 0.929 . S
C2022 C2018 1.531 . S
C2022 H2034 0.960 . S
C2022 H2035 0.962 . S
C2022 H2036 0.960 . S
C2023 C2020 1.511 . S
C2023 H2037 0.961 . S
C2023 H2038 0.961 . S
C2023 H2039 0.961 . S
C2024 C2025 1.370 . S
C2024 C2026 1.363 . S
C2024 H2040 0.931 . S
C2025 C2024 1.370 . S
C2025 C2029 1.408 . S
C2026 C2024 1.363 . S
C2026 C2027 1.370 . S
C2026 C2030 1.524 . S
C2027 C2019 1.503 . S
C2027 C2026 1.370 . S
C2027 C2028 1.403 . S
C2028 C2027 1.403 . S
C2028 C2029 1.404 . S
C2028 C2031 1.539 . S
C2029 C2025 1.408 . S
C2029 C2028 1.404 . S
C2029 H2041 0.930 . S
C2030 C2026 1.524 . S
C2030 H2042 0.956 . S
C2030 H2043 0.961 . S
C2030 H2044 0.961 . S
C2031 C2028 1.539 . S
C2031 H2045 0.958 . S
C2031 H2046 0.961 . S
C2031 H2047 0.960 . S
H2032 C2016 0.931 . S
H2033 C2021 0.929 . S
H2034 C2022 0.960 . S
H2035 C2022 0.962 . S
H2036 C2022 0.960 . S
H2037 C2023 0.961 . S
H2038 C2023 0.961 . S
H2039 C2023 0.961 . S
H2040 C2024 0.931 . S
H2041 C2029 0.930 . S
H2042 C2030 0.956 . S
H2043 C2030 0.961 . S
H2044 C2030 0.961 . S
H2045 C2031 0.958 . S
H2046 C2031 0.961 . S
H2047 C2031 0.960 . S
C2048 C2049 1.391 . S
C2048 C2050 1.394 . S
C2048 H2064 0.931 . S
C2049 C2048 1.391 . S
C2049 C2053 1.376 . S
C2050 C2048 1.394 . S
C2050 C2051 1.369 . S
C2050 C2054 1.531 . S
C2051 C2050 1.369 . S
C2051 C2052 1.410 . S
C2051 C2059 1.503 . S
C2052 C2051 1.410 . S
C2052 C2053 1.392 . S
C2052 C2055 1.511 . S
C2053 C2049 1.376 . S
C2053 C2052 1.392 . S
C2053 H2065 0.929 . S
C2054 C2050 1.531 . S
C2054 H2066 0.960 . S
C2054 H2067 0.962 . S
C2054 H2068 0.960 . S
C2055 C2052 1.511 . S
C2055 H2069 0.961 . S
C2055 H2070 0.961 . S
C2055 H2071 0.961 . S
C2056 C2057 1.370 . S
C2056 C2058 1.363 . S
C2056 H2072 0.931 . S
C2057 C2056 1.370 . S
C2057 C2061 1.408 . S
C2058 C2056 1.363 . S
C2058 C2059 1.370 . S
C2058 C2062 1.524 . S
C2059 C2051 1.503 . S
C2059 C2058 1.370 . S
C2059 C2060 1.403 . S
C2060 C2059 1.403 . S
C2060 C2061 1.404 . S
C2060 C2063 1.539 . S
C2061 C2057 1.408 . S
C2061 C2060 1.404 . S
C2061 H2073 0.930 . S
C2062 C2058 1.524 . S
C2062 H2074 0.956 . S
C2062 H2075 0.961 . S
C2062 H2076 0.961 . S
C2063 C2060 1.539 . S
C2063 H2077 0.958 . S
C2063 H2078 0.961 . S
C2063 H2079 0.960 . S
H2064 C2048 0.931 . S
H2065 C2053 0.929 . S
H2066 C2054 0.960 . S
H2067 C2054 0.962 . S
H2068 C2054 0.960 . S
H2069 C2055 0.961 . S
H2070 C2055 0.961 . S
H2071 C2055 0.961 . S
H2072 C2056 0.931 . S
H2073 C2061 0.930 . S
H2074 C2062 0.956 . S
H2075 C2062 0.961 . S
H2076 C2062 0.961 . S
H2077 C2063 0.958 . S
H2078 C2063 0.961 . S
H2079 C2063 0.960 . S
C2080 C2081 1.391 1_554 S
C2080 C2082 1.394 . S
C2080 H2096 0.931 . S
C2081 C2080 1.391 1_556 S
C2081 C2085 1.376 . S
C2082 C2080 1.394 . S
C2082 C2083 1.369 1_554 S
C2082 C2086 1.531 . S
C2083 C2082 1.369 1_556 S
C2083 C2084 1.410 . S
C2083 C2091 1.503 1_556 S
C2084 C2083 1.410 . S
C2084 C2085 1.392 . S
C2084 C2087 1.511 . S
C2085 C2081 1.376 . S
C2085 C2084 1.392 . S
C2085 H2097 0.929 . S
C2086 C2082 1.531 . S
C2086 H2098 0.960 . S
C2086 H2099 0.962 . S
C2086 H2100 0.960 . S
C2087 C2084 1.511 . S
C2087 H2101 0.961 . S
C2087 H2102 0.961 . S
C2087 H2103 0.961 . S
C2088 C2089 1.370 . S
C2088 C2090 1.363 . S
C2088 H2104 0.931 . S
C2089 C2088 1.370 . S
C2089 C2093 1.408 . S
C2090 C2088 1.363 . S
C2090 C2091 1.370 . S
C2090 C2094 1.524 . S
C2091 C2083 1.503 1_554 S
C2091 C2090 1.370 . S
C2091 C2092 1.403 . S
C2092 C2091 1.403 . S
C2092 C2093 1.404 . S
C2092 C2095 1.539 1_554 S
C2093 C2089 1.408 . S
C2093 C2092 1.404 . S
C2093 H2105 0.930 . S
C2094 C2090 1.524 . S
C2094 H2106 0.956 . S
C2094 H2107 0.937 1_554 S
C2094 H2108 0.961 . S
C2095 C2092 1.539 1_556 S
C2095 H2109 0.958 1_556 S
C2095 H2110 0.961 . S
C2095 H2111 0.960 . S
H2096 C2080 0.931 . S
H2097 C2085 0.929 . S
H2098 C2086 0.960 . S
H2099 C2086 0.962 . S
H2100 C2086 0.960 . S
H2101 C2087 0.961 . S
H2102 C2087 0.961 . S
H2103 C2087 0.961 . S
H2104 C2088 0.931 . S
H2105 C2093 0.930 . S
H2106 C2094 0.956 . S
H2107 C2094 0.937 1_556 S
H2108 C2094 0.961 . S
H2109 C2095 0.958 1_554 S
H2110 C2095 0.961 . S
H2111 C2095 0.960 . S
C2112 C2113 1.391 . S
C2112 C2114 1.394 . S
C2112 H2128 0.931 . S
C2113 C2112 1.391 . S
C2113 C2117 1.376 . S
C2114 C2112 1.394 . S
C2114 C2115 1.369 . S
C2114 C2118 1.531 . S
C2115 C2114 1.369 . S
C2115 C2116 1.410 . S
C2115 C2123 1.503 . S
C2116 C2115 1.410 . S
C2116 C2117 1.392 . S
C2116 C2119 1.511 . S
C2117 C2113 1.376 . S
C2117 C2116 1.392 . S
C2117 H2129 0.929 . S
C2118 C2114 1.531 . S
C2118 H2130 0.960 . S
C2118 H2131 0.962 1_655 S
C2118 H2132 0.960 1_655 S
C2119 C2116 1.511 . S
C2119 H2133 0.961 . S
C2119 H2134 0.961 . S
C2119 H2135 0.961 . S
C2120 C2121 1.370 . S
C2120 C2122 1.363 . S
C2120 H2136 0.931 . S
C2121 C2120 1.370 . S
C2121 C2125 1.408 . S
C2122 C2120 1.363 . S
C2122 C2123 1.370 . S
C2122 C2126 1.524 . S
C2123 C2115 1.503 . S
C2123 C2122 1.370 . S
C2123 C2124 1.403 . S
C2124 C2123 1.403 . S
C2124 C2125 1.404 . S
C2124 C2127 1.539 . S
C2125 C2121 1.408 . S
C2125 C2124 1.404 . S
C2125 H2137 0.930 . S
C2126 C2122 1.524 . S
C2126 H2138 0.956 . S
C2126 H2139 0.961 . S
C2126 H2140 0.961 . S
C2127 C2124 1.539 . S
C2127 H2141 0.958 . S
C2127 H2142 0.961 . S
C2127 H2143 0.960 . S
H2128 C2112 0.931 . S
H2129 C2117 0.929 . S
H2130 C2118 0.960 . S
H2131 C2118 0.962 1_455 S
H2132 C2118 0.960 1_455 S
H2133 C2119 0.961 . S
H2134 C2119 0.961 . S
H2135 C2119 0.961 . S
H2136 C2120 0.931 . S
H2137 C2125 0.930 . S
H2138 C2126 0.956 . S
H2139 C2126 0.961 . S
H2140 C2126 0.961 . S
H2141 C2127 0.958 . S
H2142 C2127 0.961 . S
H2143 C2127 0.960 . S
C2144 C2145 1.391 . S
C2144 C2146 1.394 . S
C2144 H2160 0.931 . S
C2145 C2144 1.391 . S
C2145 C2149 1.376 . S
C2146 C2144 1.394 . S
C2146 C2147 1.369 . S
C2146 C2150 1.531 . S
C2147 C2146 1.369 . S
C2147 C2148 1.410 . S
C2147 C2155 1.503 . S
C2148 C2147 1.410 . S
C2148 C2149 1.392 . S
C2148 C2151 1.511 . S
C2149 C2145 1.376 . S
C2149 C2148 1.392 . S
C2149 H2161 0.929 . S
C2150 C2146 1.531 . S
C2150 H2162 0.960 . S
C2150 H2163 0.962 . S
C2150 H2164 0.960 . S
C2151 C2148 1.511 . S
C2151 H2165 0.961 . S
C2151 H2166 0.961 . S
C2151 H2167 0.961 . S
C2152 C2153 1.370 . S
C2152 C2154 1.363 . S
C2152 H2168 0.931 . S
C2153 C2152 1.370 . S
C2153 C2157 1.408 . S
C2154 C2152 1.363 . S
C2154 C2155 1.370 . S
C2154 C2158 1.524 . S
C2155 C2147 1.503 . S
C2155 C2154 1.370 . S
C2155 C2156 1.403 . S
C2156 C2155 1.403 . S
C2156 C2157 1.404 . S
C2156 C2159 1.539 . S
C2157 C2153 1.408 . S
C2157 C2156 1.404 . S
C2157 H2169 0.930 . S
C2158 C2154 1.524 . S
C2158 H2170 0.956 . S
C2158 H2171 0.961 . S
C2158 H2172 0.961 . S
C2159 C2156 1.539 . S
C2159 H2173 0.958 . S
C2159 H2174 0.961 . S
C2159 H2175 0.960 . S
H2160 C2144 0.931 . S
H2161 C2149 0.929 . S
H2162 C2150 0.960 . S
H2163 C2150 0.962 . S
H2164 C2150 0.960 . S
H2165 C2151 0.961 . S
H2166 C2151 0.961 . S
H2167 C2151 0.961 . S
H2168 C2152 0.931 . S
H2169 C2157 0.930 . S
H2170 C2158 0.956 . S
H2171 C2158 0.961 . S
H2172 C2158 0.961 . S
H2173 C2159 0.958 . S
H2174 C2159 0.961 . S
H2175 C2159 0.960 . S
C2176 C2177 1.391 . S
C2176 C2178 1.394 . S
C2176 H2192 0.931 . S
C2177 C2176 1.391 . S
C2177 C2181 1.376 . S
C2178 C2176 1.394 . S
C2178 C2179 1.369 . S
C2178 C2182 1.531 . S
C2179 C2178 1.369 . S
C2179 C2180 1.410 . S
C2179 C2187 1.503 . S
C2180 C2179 1.410 . S
C2180 C2181 1.392 . S
C2180 C2183 1.511 . S
C2181 C2177 1.376 . S
C2181 C2180 1.392 . S
C2181 H2193 0.929 . S
C2182 C2178 1.531 . S
C2182 H2194 0.960 . S
C2182 H2195 0.962 . S
C2182 H2196 0.960 . S
C2183 C2180 1.511 . S
C2183 H2197 0.961 . S
C2183 H2198 0.961 . S
C2183 H2199 0.961 . S
C2184 C2185 1.370 . S
C2184 C2186 1.363 . S
C2184 H2200 0.931 . S
C2185 C2184 1.370 . S
C2185 C2189 1.408 . S
C2186 C2184 1.363 . S
C2186 C2187 1.370 . S
C2186 C2190 1.524 . S
C2187 C2179 1.503 . S
C2187 C2186 1.370 . S
C2187 C2188 1.403 . S
C2188 C2187 1.403 . S
C2188 C2189 1.404 . S
C2188 C2191 1.539 . S
C2189 C2185 1.408 . S
C2189 C2188 1.404 . S
C2189 H2201 0.930 . S
C2190 C2186 1.524 . S
C2190 H2202 0.956 . S
C2190 H2203 0.961 . S
C2190 H2204 0.961 . S
C2191 C2188 1.539 . S
C2191 H2205 0.958 . S
C2191 H2206 0.961 . S
C2191 H2207 0.960 . S
H2192 C2176 0.931 . S
H2193 C2181 0.929 . S
H2194 C2182 0.960 . S
H2195 C2182 0.962 . S
H2196 C2182 0.960 . S
H2197 C2183 0.961 . S
H2198 C2183 0.961 . S
H2199 C2183 0.961 . S
H2200 C2184 0.931 . S
H2201 C2189 0.930 . S
H2202 C2190 0.956 . S
H2203 C2190 0.961 . S
H2204 C2190 0.961 . S
H2205 C2191 0.958 . S
H2206 C2191 0.961 . S
H2207 C2191 0.960 . S
C2208 C2209 1.391 . S
C2208 C2210 1.394 . S
C2208 H2224 0.931 . S
C2209 C2208 1.391 . S
C2209 C2213 1.376 . S
C2210 C2208 1.394 . S
C2210 C2211 1.369 . S
C2210 C2214 1.531 . S
C2211 C2210 1.369 . S
C2211 C2212 1.410 1_554 S
C2211 C2219 1.503 1_554 S
C2212 C2211 1.410 1_556 S
C2212 C2213 1.392 1_556 S
C2212 C2215 1.511 . S
C2213 C2209 1.376 . S
C2213 C2212 1.392 1_554 S
C2213 H2225 0.929 1_554 S
C2214 C2210 1.531 . S
C2214 H2226 0.960 . S
C2214 H2227 0.962 . S
C2214 H2228 0.960 . S
C2215 C2212 1.511 . S
C2215 H2229 0.961 . S
C2215 H2230 0.961 . S
C2215 H2231 0.961 . S
C2216 C2217 1.370 . S
C2216 C2218 1.363 . S
C2216 H2232 0.931 . S
C2217 C2216 1.370 . S
C2217 C2221 1.408 . S
C2218 C2216 1.363 . S
C2218 C2219 1.370 . S
C2218 C2222 1.524 . S
C2219 C2211 1.503 1_556 S
C2219 C2218 1.370 . S
C2219 C2220 1.403 1_556 S
C2220 C2219 1.403 1_554 S
C2220 C2221 1.404 1_554 S
C2220 C2223 1.539 . S
C2221 C2217 1.408 . S
C2221 C2220 1.404 1_556 S
C2221 H2233 0.922 1_556 S
C2222 C2218 1.524 . S
C2222 H2234 0.956 . S
C2222 H2235 0.961 . S
C2222 H2236 0.961 . S
C2223 C2220 1.539 . S
C2223 H2237 0.958 . S
C2223 H2238 0.961 . S
C2223 H2239 0.960 . S
H2224 C2208 0.931 . S
H2225 C2213 0.929 1_556 S
H2226 C2214 0.960 . S
H2227 C2214 0.962 . S
H2228 C2214 0.960 . S
H2229 C2215 0.961 . S
H2230 C2215 0.961 . S
H2231 C2215 0.961 . S
H2232 C2216 0.931 . S
H2233 C2221 0.922 1_554 S
H2234 C2222 0.956 . S
H2235 C2222 0.961 . S
H2236 C2222 0.961 . S
H2237 C2223 0.958 . S
H2238 C2223 0.961 . S
H2239 C2223 0.960 . S
C2240 C2241 1.391 . S
C2240 C2242 1.394 . S
C2240 H2256 0.931 . S
C2241 C2240 1.391 . S
C2241 C2245 1.376 . S
C2242 C2240 1.394 . S
C2242 C2243 1.369 . S
C2242 C2246 1.531 . S
C2243 C2242 1.369 . S
C2243 C2244 1.410 . S
C2243 C2251 1.503 1_565 S
C2244 C2243 1.410 . S
C2244 C2245 1.392 . S
C2244 C2247 1.511 1_565 S
C2245 C2241 1.376 . S
C2245 C2244 1.392 . S
C2245 H2257 0.929 . S
C2246 C2242 1.531 . S
C2246 H2258 0.960 . S
C2246 H2259 0.962 . S
C2246 H2260 0.960 . S
C2247 C2244 1.511 1_545 S
C2247 H2261 0.961 1_545 S
C2247 H2262 0.961 . S
C2247 H2263 0.961 . S
C2248 C2249 1.370 . S
C2248 C2250 1.363 . S
C2248 H2264 0.931 . S
C2249 C2248 1.370 . S
C2249 C2253 1.408 . S
C2250 C2248 1.363 . S
C2250 C2251 1.370 . S
C2250 C2254 1.524 . S
C2251 C2243 1.503 1_545 S
C2251 C2250 1.370 . S
C2251 C2252 1.403 . S
C2252 C2251 1.403 . S
C2252 C2253 1.404 . S
C2252 C2255 1.539 . S
C2253 C2249 1.408 . S
C2253 C2252 1.404 . S
C2253 H2265 0.930 . S
C2254 C2250 1.524 . S
C2254 H2266 0.956 1_545 S
C2254 H2267 0.961 1_545 S
C2254 H2268 0.961 . S
C2255 C2252 1.539 . S
C2255 H2269 0.958 . S
C2255 H2270 0.961 . S
C2255 H2271 0.960 . S
H2256 C2240 0.931 . S
H2257 C2245 0.929 . S
H2258 C2246 0.960 . S
H2259 C2246 0.962 . S
H2260 C2246 0.960 . S
H2261 C2247 0.961 1_565 S
H2262 C2247 0.961 . S
H2263 C2247 0.961 . S
H2264 C2248 0.931 . S
H2265 C2253 0.930 . S
H2266 C2254 0.956 1_565 S
H2267 C2254 0.961 1_565 S
H2268 C2254 0.961 . S
H2269 C2255 0.958 . S
H2270 C2255 0.961 . S
H2271 C2255 0.960 . S
C2272 C2273 1.391 . S
C2272 C2274 1.394 . S
C2272 H2288 0.931 . S
C2273 C2272 1.391 . S
C2273 C2277 1.376 . S
C2274 C2272 1.394 . S
C2274 C2275 1.369 1_554 S
C2274 C2278 1.531 . S
C2275 C2274 1.369 1_556 S
C2275 C2276 1.410 . S
C2275 C2283 1.503 . S
C2276 C2275 1.410 . S
C2276 C2277 1.392 1_556 S
C2276 C2279 1.511 . S
C2277 C2273 1.376 . S
C2277 C2276 1.392 1_554 S
C2277 H2289 0.929 . S
C2278 C2274 1.531 . S
C2278 H2290 0.960 1_554 S
C2278 H2291 0.962 . S
C2278 H2292 0.960 . S
C2279 C2276 1.511 . S
C2279 H2293 0.961 . S
C2279 H2294 0.961 . S
C2279 H2295 0.961 . S
C2280 C2281 1.370 1_554 S
C2280 C2282 1.363 . S
C2280 H2296 0.931 . S
C2281 C2280 1.370 1_556 S
C2281 C2285 1.408 . S
C2282 C2280 1.363 . S
C2282 C2283 1.370 1_554 S
C2282 C2286 1.524 . S
C2283 C2275 1.503 . S
C2283 C2282 1.370 1_556 S
C2283 C2284 1.403 . S
C2284 C2283 1.403 . S
C2284 C2285 1.404 . S
C2284 C2287 1.539 . S
C2285 C2281 1.408 . S
C2285 C2284 1.404 . S
C2285 H2297 0.930 . S
C2286 C2282 1.524 . S
C2286 H2298 0.956 . S
C2286 H2299 0.961 . S
C2286 H2300 0.961 . S
C2287 C2284 1.539 . S
C2287 H2301 0.958 . S
C2287 H2302 0.961 . S
C2287 H2303 0.960 . S
H2288 C2272 0.931 . S
H2289 C2277 0.929 . S
H2290 C2278 0.960 1_556 S
H2291 C2278 0.962 . S
H2292 C2278 0.960 . S
H2293 C2279 0.961 . S
H2294 C2279 0.961 . S
H2295 C2279 0.961 . S
H2296 C2280 0.931 . S
H2297 C2285 0.930 . S
H2298 C2286 0.956 . S
H2299 C2286 0.961 . S
H2300 C2286 0.961 . S
H2301 C2287 0.958 . S
H2302 C2287 0.961 . S
H2303 C2287 0.960 . S
C2304 C2305 1.391 . S
C2304 C2306 1.394 . S
C2304 H2320 0.931 . S
C2305 C2304 1.391 . S
C2305 C2309 1.376 . S
C2306 C2304 1.394 . S
C2306 C2307 1.369 . S
C2306 C2310 1.531 . S
C2307 C2306 1.369 . S
C2307 C2308 1.410 . S
C2307 C2315 1.503 1_545 S
C2308 C2307 1.410 . S
C2308 C2309 1.392 . S
C2308 C2311 1.511 1_655 S
C2309 C2305 1.376 . S
C2309 C2308 1.392 . S
C2309 H2321 0.929 . S
C2310 C2306 1.531 . S
C2310 H2322 0.960 . S
C2310 H2323 0.962 . S
C2310 H2324 0.960 . S
C2311 C2308 1.511 1_455 S
C2311 H2325 0.961 . S
C2311 H2326 0.961 1_445 S
C2311 H2327 0.961 . S
C2312 C2313 1.370 . S
C2312 C2314 1.363 . S
C2312 H2328 0.931 . S
C2313 C2312 1.370 . S
C2313 C2317 1.408 . S
C2314 C2312 1.363 . S
C2314 C2315 1.370 . S
C2314 C2318 1.524 . S
C2315 C2307 1.503 1_565 S
C2315 C2314 1.370 . S
C2315 C2316 1.403 . S
C2316 C2315 1.403 . S
C2316 C2317 1.404 . S
C2316 C2319 1.539 . S
C2317 C2313 1.408 . S
C2317 C2316 1.404 . S
C2317 H2329 0.930 . S
C2318 C2314 1.524 . S
C2318 H2330 0.956 . S
C2318 H2331 0.961 . S
C2318 H2332 0.961 . S
C2319 C2316 1.539 . S
C2319 H2333 0.958 1_565 S
C2319 H2334 0.961 1_655 S
C2319 H2335 0.960 1_565 S
H2320 C2304 0.931 . S
H2321 C2309 0.929 . S
H2322 C2310 0.960 . S
H2323 C2310 0.962 . S
H2324 C2310 0.960 . S
H2325 C2311 0.961 . S
H2326 C2311 0.961 1_665 S
H2327 C2311 0.961 . S
H2328 C2312 0.931 . S
H2329 C2317 0.930 . S
H2330 C2318 0.956 . S
H2331 C2318 0.961 . S
H2332 C2318 0.961 . S
H2333 C2319 0.958 1_545 S
H2334 C2319 0.961 1_455 S
H2335 C2319 0.960 1_545 S
C2336 C2337 1.391 . S
C2336 C2338 1.394 . S
C2336 H2352 0.931 . S
C2337 C2336 1.391 . S
C2337 C2341 1.376 . S
C2338 C2336 1.394 . S
C2338 C2339 1.369 . S
C2338 C2342 1.531 . S
C2339 C2338 1.369 . S
C2339 C2340 1.410 . S
C2339 C2347 1.503 . S
C2340 C2339 1.410 . S
C2340 C2341 1.392 . S
C2340 C2343 1.511 . S
C2341 C2337 1.376 . S
C2341 C2340 1.392 . S
C2341 H2353 0.929 . S
C2342 C2338 1.531 . S
C2342 H2354 0.960 . S
C2342 H2355 0.962 . S
C2342 H2356 0.960 . S
C2343 C2340 1.511 . S
C2343 H2357 0.961 . S
C2343 H2358 0.961 . S
C2343 H2359 0.961 . S
C2344 C2345 1.370 . S
C2344 C2346 1.363 . S
C2344 H2360 0.931 . S
C2345 C2344 1.370 . S
C2345 C2349 1.408 . S
C2346 C2344 1.363 . S
C2346 C2347 1.370 . S
C2346 C2350 1.524 . S
C2347 C2339 1.503 . S
C2347 C2346 1.370 . S
C2347 C2348 1.403 . S
C2348 C2347 1.403 . S
C2348 C2349 1.404 . S
C2348 C2351 1.539 . S
C2349 C2345 1.408 . S
C2349 C2348 1.404 . S
C2349 H2361 0.930 . S
C2350 C2346 1.524 . S
C2350 H2362 0.956 . S
C2350 H2363 0.961 . S
C2350 H2364 0.961 . S
C2351 C2348 1.539 . S
C2351 H2365 0.958 . S
C2351 H2366 0.961 . S
C2351 H2367 0.960 . S
H2352 C2336 0.931 . S
H2353 C2341 0.929 . S
H2354 C2342 0.960 . S
H2355 C2342 0.962 . S
H2356 C2342 0.960 . S
H2357 C2343 0.961 . S
H2358 C2343 0.961 . S
H2359 C2343 0.961 . S
H2360 C2344 0.931 . S
H2361 C2349 0.930 . S
H2362 C2350 0.956 . S
H2363 C2350 0.961 . S
H2364 C2350 0.961 . S
H2365 C2351 0.958 . S
H2366 C2351 0.961 . S
H2367 C2351 0.960 . S
C2368 C2369 1.391 . S
C2368 C2370 1.394 . S
C2368 H2384 0.931 . S
C2369 C2368 1.391 . S
C2369 C2373 1.376 . S
C2370 C2368 1.394 . S
C2370 C2371 1.369 . S
C2370 C2374 1.531 . S
C2371 C2370 1.369 . S
C2371 C2372 1.410 . S
C2371 C2379 1.503 1_545 S
C2372 C2371 1.410 . S
C2372 C2373 1.392 . S
C2372 C2375 1.511 . S
C2373 C2369 1.376 . S
C2373 C2372 1.392 . S
C2373 H2385 0.929 . S
C2374 C2370 1.531 . S
C2374 H2386 0.960 1_545 S
C2374 H2387 0.962 . S
C2374 H2388 0.960 . S
C2375 C2372 1.511 . S
C2375 H2389 0.961 . S
C2375 H2390 1.000 . S
C2375 H2391 0.961 . S
C2376 C2377 1.370 . S
C2376 C2378 1.363 . S
C2376 H2392 0.931 . S
C2377 C2376 1.370 . S
C2377 C2381 1.408 . S
C2378 C2376 1.363 . S
C2378 C2379 1.370 . S
C2378 C2382 1.524 1_565 S
C2379 C2371 1.503 1_565 S
C2379 C2378 1.370 . S
C2379 C2380 1.403 . S
C2380 C2379 1.403 . S
C2380 C2381 1.404 . S
C2380 C2383 1.539 . S
C2381 C2377 1.408 . S
C2381 C2380 1.404 . S
C2381 H2393 0.930 . S
C2382 C2378 1.524 1_545 S
C2382 H2394 0.956 . S
C2382 H2395 0.961 . S
C2382 H2396 0.961 1_545 S
C2383 C2380 1.539 . S
C2383 H2397 0.958 . S
C2383 H2398 0.961 . S
C2383 H2399 0.960 . S
H2384 C2368 0.931 . S
H2385 C2373 0.929 . S
H2386 C2374 0.960 1_565 S
H2387 C2374 0.962 . S
H2388 C2374 0.960 . S
H2389 C2375 0.961 . S
H2390 C2375 1.000 . S
H2391 C2375 0.961 . S
H2392 C2376 0.931 . S
H2393 C2381 0.930 . S
H2394 C2382 0.956 . S
H2395 C2382 0.961 . S
H2396 C2382 0.961 1_565 S
H2397 C2383 0.958 . S
H2398 C2383 0.961 . S
H2399 C2383 0.960 . S
C2400 C2401 1.391 . S
C2400 C2402 1.394 . S
C2400 H2416 0.931 . S
C2401 C2400 1.391 . S
C2401 C2405 1.376 . S
C2402 C2400 1.394 . S
C2402 C2403 1.369 . S
C2402 C2406 1.531 . S
C2403 C2402 1.369 . S
C2403 C2404 1.410 . S
C2403 C2411 1.498 1_554 S
C2404 C2403 1.410 . S
C2404 C2405 1.392 . S
C2404 C2407 1.511 . S
C2405 C2401 1.376 . S
C2405 C2404 1.392 . S
C2405 H2417 0.929 . S
C2406 C2402 1.531 . S
C2406 H2418 0.960 . S
C2406 H2419 0.962 1_554 S
C2406 H2420 0.960 . S
C2407 C2404 1.511 . S
C2407 H2421 0.961 . S
C2407 H2422 0.961 1_554 S
C2407 H2423 0.961 . S
C2408 C2409 1.370 . S
C2408 C2410 1.363 . S
C2408 H2424 0.931 . S
C2409 C2408 1.370 . S
C2409 C2413 1.408 1_556 S
C2410 C2408 1.363 . S
C2410 C2411 1.385 . S
C2410 C2414 1.524 . S
C2411 C2403 1.498 1_556 S
C2411 C2410 1.385 . S
C2411 C2412 1.394 1_556 S
C2412 C2411 1.394 1_554 S
C2412 C2413 1.404 . S
C2412 C2415 1.539 . S
C2413 C2409 1.408 1_554 S
C2413 C2412 1.404 . S
C2413 H2425 0.930 . S
C2414 C2410 1.524 . S
C2414 H2426 0.956 . S
C2414 H2427 0.961 . S
C2414 H2428 0.961 . S
C2415 C2412 1.539 . S
C2415 H2429 0.958 . S
C2415 H2430 0.961 . S
C2415 H2431 0.960 . S
H2416 C2400 0.931 . S
H2417 C2405 0.929 . S
H2418 C2406 0.960 . S
H2419 C2406 0.962 1_556 S
H2420 C2406 0.960 . S
H2421 C2407 0.961 . S
H2422 C2407 0.961 1_556 S
H2423 C2407 0.961 . S
H2424 C2408 0.931 . S
H2425 C2413 0.930 . S
H2426 C2414 0.956 . S
H2427 C2414 0.961 . S
H2428 C2414 0.961 . S
H2429 C2415 0.958 . S
H2430 C2415 0.961 . S
H2431 C2415 0.960 . S
C2432 C2433 1.391 . S
C2432 C2434 1.394 . S
C2432 H2448 0.931 . S
C2433 C2432 1.391 . S
C2433 C2437 1.376 . S
C2434 C2432 1.394 . S
C2434 C2435 1.369 . S
C2434 C2438 1.531 . S
C2435 C2434 1.369 . S
C2435 C2436 1.410 . S
C2435 C2443 1.503 1_545 S
C2436 C2435 1.410 . S
C2436 C2437 1.392 . S
C2436 C2439 1.511 . S
C2437 C2433 1.376 . S
C2437 C2436 1.392 . S
C2437 H2449 0.929 . S
C2438 C2434 1.531 . S
C2438 H2450 0.960 . S
C2438 H2451 0.962 1_455 S
C2438 H2452 0.960 . S
C2439 C2436 1.511 . S
C2439 H2453 0.961 . S
C2439 H2454 0.961 1_545 S
C2439 H2455 0.961 . S
C2440 C2441 1.370 . S
C2440 C2442 1.363 . S
C2440 H2456 0.931 . S
C2441 C2440 1.370 . S
C2441 C2445 1.408 . S
C2442 C2440 1.363 . S
C2442 C2443 1.370 . S
C2442 C2446 1.524 . S
C2443 C2435 1.503 1_565 S
C2443 C2442 1.370 . S
C2443 C2444 1.403 . S
C2444 C2443 1.403 . S
C2444 C2445 1.404 . S
C2444 C2447 1.539 . S
C2445 C2441 1.408 . S
C2445 C2444 1.404 . S
C2445 H2457 0.930 . S
C2446 C2442 1.524 . S
C2446 H2458 0.970 . S
C2446 H2459 0.961 . S
C2446 H2460 0.961 . S
C2447 C2444 1.539 . S
C2447 H2461 0.958 1_565 S
C2447 H2462 0.961 . S
C2447 H2463 0.960 1_565 S
H2448 C2432 0.931 . S
H2449 C2437 0.929 . S
H2450 C2438 0.960 . S
H2451 C2438 0.962 1_655 S
H2452 C2438 0.960 . S
H2453 C2439 0.961 . S
H2454 C2439 0.961 1_565 S
H2455 C2439 0.961 . S
H2456 C2440 0.931 . S
H2457 C2445 0.930 . S
H2458 C2446 0.970 . S
H2459 C2446 0.961 . S
H2460 C2446 0.961 . S
H2461 C2447 0.958 1_545 S
H2462 C2447 0.961 . S
H2463 C2447 0.960 1_545 S
C2464 C2465 1.391 . S
C2464 C2466 1.394 . S
C2464 H2480 0.931 . S
C2465 C2464 1.391 . S
C2465 C2469 1.376 . S
C2466 C2464 1.394 . S
C2466 C2467 1.369 . S
C2466 C2470 1.531 . S
C2467 C2466 1.369 . S
C2467 C2468 1.410 . S
C2467 C2475 1.503 . S
C2468 C2467 1.410 . S
C2468 C2469 1.392 . S
C2468 C2471 1.511 . S
C2469 C2465 1.376 . S
C2469 C2468 1.392 . S
C2469 H2481 0.929 . S
C2470 C2466 1.531 . S
C2470 H2482 0.960 . S
C2470 H2483 0.962 . S
C2470 H2484 0.960 . S
C2471 C2468 1.511 . S
C2471 H2485 0.961 . S
C2471 H2486 0.961 . S
C2471 H2487 0.961 . S
C2472 C2473 1.370 . S
C2472 C2474 1.363 . S
C2472 H2488 0.931 . S
C2473 C2472 1.370 . S
C2473 C2477 1.408 . S
C2474 C2472 1.363 . S
C2474 C2475 1.370 . S
C2474 C2478 1.524 . S
C2475 C2467 1.503 . S
C2475 C2474 1.370 . S
C2475 C2476 1.403 . S
C2476 C2475 1.403 . S
C2476 C2477 1.404 . S
C2476 C2479 1.539 . S
C2477 C2473 1.408 . S
C2477 C2476 1.404 . S
C2477 H2489 0.930 . S
C2478 C2474 1.524 . S
C2478 H2490 0.956 . S
C2478 H2491 0.961 . S
C2478 H2492 0.961 . S
C2479 C2476 1.539 . S
C2479 H2493 0.958 . S
C2479 H2494 0.961 . S
C2479 H2495 0.960 . S
H2480 C2464 0.931 . S
H2481 C2469 0.929 . S
H2482 C2470 0.960 . S
H2483 C2470 0.962 . S
H2484 C2470 0.960 . S
H2485 C2471 0.961 . S
H2486 C2471 0.961 . S
H2487 C2471 0.961 . S
H2488 C2472 0.931 . S
H2489 C2477 0.930 . S
H2490 C2478 0.956 . S
H2491 C2478 0.961 . S
H2492 C2478 0.961 . S
H2493 C2479 0.958 . S
H2494 C2479 0.961 . S
H2495 C2479 0.960 . S
C449 C7 1.073 . S
C457 C301 1.090 . S
C481 C315 1.128 . S
C489 C21 1.113 . S
C513 C35 1.077 . S
C521 C329 1.093 . S
C545 C287 1.120 . S
C553 C49 1.110 . S
C577 C63 1.115 . S
C585 C273 1.108 . S
C609 C77 1.070 . S
C617 C231 1.089 . S
C641 C245 1.101 . S
C649 C91 1.102 . S
C673 C105 1.068 . S
C681 C259 1.088 . S
C705 C119 1.086 . S
C713 C413 1.099 . S
C737 C133 1.119 . S
C745 C427 1.112 . S
C769 C441 1.093 . S
C777 C147 1.095 . S
C801 C399 1.102 . S
C809 C161 1.098 . S
C833 C175 1.068 . S
C841 C385 1.089 . S
C865 C343 1.094 . S
C873 C189 1.103 . S
C897 C203 1.073 . S
C905 C357 1.093 . S
C929 C371 1.089 . S
C937 C217 1.101 . S
C961 C9 1.504 . S
C969 C134 1.528 . S
C993 C23 1.524 . S
C1001 C372 1.534 1_655 S
C1025 C162 1.518 . S
C1033 C37 1.507 . S
C1057 C51 1.508 . S
C1065 C344 1.529 . S
C1089 C65 1.532 . S
C1097 C218 1.538 . S
C1121 C400 1.540 . S
C1129 C79 1.523 . S
C1153 C190 1.542 . S
C1161 C93 1.524 . S
C1185 C428 1.529 1_655 S
C1193 C107 1.513 . S
C1217 C121 1.528 . S
C1225 C22 1.533 . S
C1249 C260 1.535 1_455 S
C1257 C135 1.523 . S
C1281 C50 1.512 . S
C1289 C149 1.509 . S
C1313 C163 1.533 . S
C1321 C232 1.537 . S
C1345 C106 1.513 . S
C1353 C177 1.509 . S
C1377 C288 1.511 . S
C1385 C191 1.505 . S
C1409 C78 1.532 . S
C1417 C205 1.512 . S
C1441 C219 1.531 . S
C1449 C316 1.534 1_455 S
C1473 C358 1.515 . S
C1481 C233 1.506 . S
C1505 C148 1.513 . S
C1513 C247 1.507 . S
C1537 C386 1.540 . S
C1545 C261 1.523 . S
C1569 C275 1.504 . S
C1577 C120 1.528 1_455 S
C1601 C442 1.537 . S
C1609 C289 1.522 . S
C1633 C176 1.516 1_455 S
C1641 C303 1.509 . S
C1665 C414 1.541 . S
C1673 C317 1.523 . S
C1697 C331 1.511 . S
C1705 C204 1.533 . S
C1729 C345 1.524 . S
C1737 C246 1.537 . S
C1761 C36 1.513 . S
C1769 C359 1.509 . S
C1793 C373 1.532 . S
C1801 C274 1.535 . S
C1825 C387 1.533 . S
C1833 C8 1.536 1_655 S
C1857 C401 1.498 . S
C1865 C330 1.531 . S
C1889 C64 1.535 1_655 S
C1897 C415 1.523 . S
C1921 C302 1.523 . S
C1929 C429 1.517 . S
C1953 C443 1.493 . S
C1961 C92 1.529 . S
C1985 C6 1.433 . S
C1993 C62 1.428 . S
C2017 C20 1.431 . S
C2025 C76 1.430 . S
C2049 C90 1.434 . S
C2057 C34 1.430 . S
C2081 C104 1.432 . S
C2089 C48 1.430 . S
C2113 C174 1.419 . S
C2121 C118 1.420 . S
C2145 C188 1.408 . S
C2153 C132 1.421 . S
C2177 C202 1.426 . S
C2185 C146 1.422 . S
C2209 C216 1.429 . S
C2217 C160 1.430 . S
C2241 C230 1.430 . S
C2249 C286 1.430 . S
C2273 C244 1.422 . S
C2281 C300 1.422 . S
C2305 C258 1.432 . S
C2313 C314 1.427 . S
C2337 C328 1.408 . S
C2345 C272 1.419 . S
C2369 C342 1.420 . S
C2377 C398 1.428 . S
C2401 C412 1.417 . S
C2409 C356 1.427 . S
C2433 C426 1.416 . S
C2441 C370 1.419 . S
C2465 C440 1.428 . S
C2473 C384 1.430 . S
