# Generated by pormake.
# Topology sml, (6)-cn, num edge types: 1
# Building blocks:
#     Node 0, Type 0, BuildingBlock: NUHQIS_clean_sbu_0, # of connection points: 6
#     Node 1, Type 0, BuildingBlock: NUHQIS_clean_sbu_0, # of connection points: 6
#     Node 2, Type 0, BuildingBlock: NUHQIS_clean_sbu_0, # of connection points: 6
#     Node 3, Type 0, BuildingBlock: NUHQIS_clean_sbu_0, # of connection points: 6
#     Node 4, Type 0, BuildingBlock: NUHQIS_clean_sbu_0, # of connection points: 6
#     Node 5, Type 0, BuildingBlock: NUHQIS_clean_sbu_0, # of connection points: 6
#     Edge 6, Type (0, 0), BuildingBlock: ZUJKAS_clean_linker_0, # of connection points: 2
#     Edge 7, Type (0, 0), BuildingBlock: ZUJKAS_clean_linker_0, # of connection points: 2
#     Edge 8, Type (0, 0), BuildingBlock: ZUJKAS_clean_linker_0, # of connection points: 2
#     Edge 9, Type (0, 0), BuildingBlock: ZUJKAS_clean_linker_0, # of connection points: 2
#     Edge 10, Type (0, 0), BuildingBlock: ZUJKAS_clean_linker_0, # of connection points: 2
#     Edge 11, Type (0, 0), BuildingBlock: ZUJKAS_clean_linker_0, # of connection points: 2
#     Edge 12, Type (0, 0), BuildingBlock: ZUJKAS_clean_linker_0, # of connection points: 2
#     Edge 13, Type (0, 0), BuildingBlock: ZUJKAS_clean_linker_0, # of connection points: 2
#     Edge 14, Type (0, 0), BuildingBlock: ZUJKAS_clean_linker_0, # of connection points: 2
#     Edge 15, Type (0, 0), BuildingBlock: ZUJKAS_clean_linker_0, # of connection points: 2
#     Edge 16, Type (0, 0), BuildingBlock: ZUJKAS_clean_linker_0, # of connection points: 2
#     Edge 17, Type (0, 0), BuildingBlock: ZUJKAS_clean_linker_0, # of connection points: 2
#     Edge 18, Type (0, 0), BuildingBlock: ZUJKAS_clean_linker_0, # of connection points: 2
#     Edge 19, Type (0, 0), BuildingBlock: ZUJKAS_clean_linker_0, # of connection points: 2
#     Edge 20, Type (0, 0), BuildingBlock: ZUJKAS_clean_linker_0, # of connection points: 2
#     Edge 21, Type (0, 0), BuildingBlock: ZUJKAS_clean_linker_0, # of connection points: 2
#     Edge 22, Type (0, 0), BuildingBlock: ZUJKAS_clean_linker_0, # of connection points: 2
#     Edge 23, Type (0, 0), BuildingBlock: ZUJKAS_clean_linker_0, # of connection points: 2
# Relax obj value: 0.142
# Max RMSD: 0.196
# Mean RMSD: 0.196
data_MOF--net-sml--node1-NUHQIS_clean_sbu_0--edge1-ZUJKAS_clean_linker_0
_symmetry_space_group_name_H-M    P1
_symmetry_Int_Tables_number       1
_symmetry_cell_setting            triclinic
loop_
_symmetry_equiv_pos_as_xyz
'x, y, z'
_cell_length_a     43.679047
_cell_length_b     43.752422
_cell_length_c     29.666988
_cell_angle_alpha  90.000006
_cell_angle_beta   89.955363
_cell_angle_gamma 119.97715
loop_
_atom_site_label
_atom_site_type_symbol
_atom_site_fract_x
_atom_site_fract_y
_atom_site_fract_z
_atom_type_partial_charge
Tb0 Tb 0.19766 0.41354 0.09068 0.0
Eu1 Eu 0.15012 0.40779 0.9999 0.0
C2 C 0.18496 0.35869 0.01587 0.0
C3 C 0.23412 0.45185 0.99948 0.0
C4 C 0.22123 0.41645 0.21185 0.0
C5 C 0.23473 0.41072 0.28986 0.0
C6 C 0.24231 0.41202 0.24379 0.0
C7 C 0.19218 0.41927 0.22656 0.0
C8 C 0.18461 0.41809 0.27268 0.0
C9 C 0.20587 0.41392 0.30505 0.0
C10 C 0.22989 0.41812 0.16347 0.0
O11 O 0.16723 0.43849 0.10735 0.0
O12 O 0.16399 0.4583 0.03732 0.0
O13 O 0.11197 0.38544 0.05769 0.0
O14 O 0.14507 0.36779 0.09835 0.0
C15 C 0.16374 0.46073 0.08145 0.0
O16 O 0.13998 0.43448 0.94476 0.0
O17 O 0.10869 0.37764 0.95041 0.0
O18 O 0.15699 0.35982 1.0016 0.0
O19 O 0.20835 0.38286 0.04286 0.0
O20 O 0.23404 0.4543 0.04378 0.0
O21 O 0.20583 0.42961 0.97711 0.0
C22 C 0.11499 0.36673 0.09015 0.0
O23 O 0.21199 0.38894 0.14074 0.0
O24 O 0.23281 0.4452 0.14132 0.0
C25 C 0.12175 0.4024 0.87696 0.0
C26 C 0.13376 0.40124 0.78329 0.0
C27 C 0.1057 0.40545 0.79927 0.0
C28 C 0.09981 0.40604 0.8456 0.0
C29 C 0.14957 0.39785 0.86141 0.0
C30 C 0.15549 0.39721 0.81505 0.0
C31 C 0.11653 0.40525 0.92558 0.0
H32 H 0.2513 0.40678 0.31353 0.0
H33 H 0.26469 0.40954 0.23309 0.0
H34 H 0.17548 0.42261 0.2024 0.0
H35 H 0.1624 0.42099 0.28293 0.0
H36 H 0.08875 0.40916 0.776 0.0
H37 H 0.07841 0.40991 0.85696 0.0
H38 H 0.16692 0.39513 0.88514 0.0
H39 H 0.17704 0.39345 0.80413 0.0
Tb40 Tb 0.80011 0.21669 0.46693 0.0
Eu41 Eu 0.84825 0.25759 0.55771 0.0
C42 C 0.81003 0.17341 0.54275 0.0
C43 C 0.76417 0.22043 0.55777 0.0
C44 C 0.77748 0.19651 0.34559 0.0
C45 C 0.76169 0.18061 0.26703 0.0
C46 C 0.75347 0.17436 0.31296 0.0
C47 C 0.81006 0.22495 0.33173 0.0
C48 C 0.81831 0.23128 0.28574 0.0
C49 C 0.79415 0.20925 0.25272 0.0
C50 C 0.7681 0.18981 0.3938 0.0
O51 O 0.83218 0.2719 0.45046 0.0
O52 O 0.83558 0.29513 0.52038 0.0
O53 O 0.88615 0.27184 0.49971 0.0
O54 O 0.85166 0.2209 0.46048 0.0
C55 C 0.83596 0.29778 0.47625 0.0
O56 O 0.85996 0.29476 0.61287 0.0
O57 O 0.88946 0.2673 0.60694 0.0
O58 O 0.83879 0.20182 0.55665 0.0
O59 O 0.78739 0.17517 0.5153 0.0
O60 O 0.76432 0.22246 0.5134 0.0
O61 O 0.7922 0.22597 0.5805 0.0
C62 C 0.88221 0.24954 0.46754 0.0
O63 O 0.78482 0.17749 0.41717 0.0
O64 O 0.76617 0.21474 0.41545 0.0
C65 C 0.8773 0.27961 0.6805 0.0
C66 C 0.86573 0.26642 0.77421 0.0
C67 C 0.89641 0.29635 0.75806 0.0
C68 C 0.90208 0.30286 0.7117 0.0
C69 C 0.84686 0.24949 0.69623 0.0
C70 C 0.84113 0.24295 0.7426 0.0
C71 C 0.88268 0.28778 0.63191 0.0
H72 H 0.74267 0.16274 0.24274 0.0
H73 H 0.72827 0.15218 0.323 0.0
H74 H 0.829 0.24239 0.35645 0.0
H75 H 0.84334 0.25381 0.27607 0.0
H76 H 0.9157 0.31525 0.78127 0.0
H77 H 0.92562 0.32638 0.70022 0.0
H78 H 0.82738 0.23122 0.67264 0.0
H79 H 0.81746 0.21942 0.75368 0.0
Tb80 Tb 0.57915 0.78083 0.75827 0.0
Eu81 Eu 0.58846 0.74061 0.66778 0.0
C82 C 0.63395 0.82469 0.68393 0.0
C83 C 0.54121 0.77746 0.66632 0.0
C84 C 0.57568 0.8007 0.87949 0.0
C85 C 0.57826 0.81816 0.95787 0.0
C86 C 0.57575 0.82399 0.91194 0.0
C87 C 0.57845 0.77152 0.89357 0.0
C88 C 0.58087 0.76558 0.93957 0.0
C89 C 0.58067 0.78876 0.97245 0.0
C90 C 0.57282 0.80719 0.83123 0.0
O91 O 0.55638 0.72562 0.77458 0.0
O92 O 0.53816 0.70224 0.70436 0.0
O93 O 0.61238 0.72703 0.72603 0.0
O94 O 0.62656 0.7771 0.76627 0.0
C95 C 0.53513 0.69953 0.74845 0.0
O96 O 0.56368 0.70333 0.61252 0.0
O97 O 0.62066 0.73197 0.6184 0.0
O98 O 0.63458 0.79642 0.67009 0.0
O99 O 0.60897 0.8227 0.71058 0.0
O100 O 0.53835 0.7751 0.71061 0.0
O101 O 0.56426 0.77223 0.64446 0.0
C102 C 0.62951 0.74909 0.75899 0.0
O103 O 0.602 0.82026 0.80795 0.0
O104 O 0.54637 0.78186 0.80945 0.0
C105 C 0.59617 0.71913 0.54477 0.0
C106 C 0.59711 0.73206 0.451 0.0
C107 C 0.59678 0.70158 0.46708 0.0
C108 C 0.59628 0.69521 0.51344 0.0
C109 C 0.59687 0.74976 0.52912 0.0
C110 C 0.59736 0.75618 0.48273 0.0
C111 C 0.59359 0.71105 0.59342 0.0
H112 H 0.5787 0.83698 0.98194 0.0
H113 H 0.57391 0.8468 0.90175 0.0
H114 H 0.57856 0.75325 0.869 0.0
H115 H 0.58232 0.7425 0.94934 0.0
H116 H 0.59605 0.68215 0.44383 0.0
H117 H 0.59544 0.67128 0.52483 0.0
H118 H 0.59669 0.76853 0.5528 0.0
H119 H 0.59808 0.78013 0.47177 0.0
Tb120 Tb 0.77376 0.57318 0.12839 0.0
Eu121 Eu 0.7358 0.58498 0.21963 0.0
C122 C 0.82038 0.62686 0.20204 0.0
C123 C 0.76919 0.53452 0.2203 0.0
C124 C 0.79163 0.56881 1.00677 0.0
C125 C 0.80733 0.5696 0.92797 0.0
C126 C 0.81283 0.5658 0.97362 0.0
C127 C 0.76482 0.57579 0.99371 0.0
C128 C 0.75919 0.57947 0.94798 0.0
C129 C 0.78042 0.57644 0.91448 0.0
C130 C 0.79795 0.56491 0.05471 0.0
O131 O 0.71892 0.55422 0.11287 0.0
O132 O 0.69564 0.53561 0.183 0.0
O133 O 0.72451 0.61091 0.16138 0.0
O134 O 0.77434 0.62282 0.12209 0.0
C135 C 0.69249 0.53348 0.13894 0.0
O136 O 0.69806 0.56166 0.27478 0.0
O137 O 0.72891 0.6185 0.26863 0.0
O138 O 0.79314 0.62829 0.21863 0.0
O139 O 0.81691 0.60182 0.17452 0.0
O140 O 0.76676 0.53199 0.176 0.0
O141 O 0.76484 0.55793 0.24264 0.0
C142 C 0.74725 0.62745 0.12875 0.0
O143 O 0.81301 0.59393 0.07823 0.0
O144 O 0.77164 0.53942 0.07655 0.0
C145 C 0.7145 0.59429 0.34231 0.0
C146 C 0.72603 0.59497 0.43633 0.0
C147 C 0.69785 0.59852 0.41934 0.0
C148 C 0.69217 0.59816 0.37283 0.0
C149 C 0.74292 0.59118 0.35887 0.0
C150 C 0.74866 0.59155 0.4054 0.0
C151 C 0.70693 0.59191 0.29357 0.0
H152 H 0.82387 0.56665 0.90316 0.0
H153 H 0.83364 0.56043 0.98305 0.0
H154 H 0.7483 0.57846 0.01887 0.0
H155 H 0.73852 0.58513 0.93889 0.0
H156 H 0.6802 0.60171 0.442 0.0
H157 H 0.67007 0.60056 0.3607 0.0
H158 H 0.76034 0.58793 0.33581 0.0
H159 H 0.77034 0.58833 0.41715 0.0
Tb160 Tb 0.2175 0.80131 0.42034 0.0
Eu161 Eu 0.25854 0.84821 0.32868 0.0
C162 C 0.17404 0.8108 0.34409 0.0
C163 C 0.22011 0.76416 0.32995 0.0
C164 C 0.19758 0.78012 0.54184 0.0
C165 C 0.18125 0.76606 0.6206 0.0
C166 C 0.17505 0.75697 0.57494 0.0
C167 C 0.22647 0.81261 0.55492 0.0
C168 C 0.2328 0.82168 0.60063 0.0
C169 C 0.2102 0.79854 0.6341 0.0
C170 C 0.19069 0.77011 0.49393 0.0
O171 O 0.27292 0.8329 0.43625 0.0
O172 O 0.29577 0.8353 0.36636 0.0
O173 O 0.27309 0.88651 0.38608 0.0
O174 O 0.22211 0.85297 0.42585 0.0
C175 C 0.29856 0.83592 0.41048 0.0
O176 O 0.29553 0.85893 0.27351 0.0
O177 O 0.26941 0.88974 0.27953 0.0
O178 O 0.20255 0.83844 0.32798 0.0
O179 O 0.17556 0.78886 0.37296 0.0
O180 O 0.22207 0.76464 0.37433 0.0
O181 O 0.22642 0.79215 0.30662 0.0
C182 C 0.25086 0.88324 0.41805 0.0
O183 O 0.17834 0.7866 0.47016 0.0
O184 O 0.21557 0.76788 0.47246 0.0
C185 C 0.28145 0.87737 0.206 0.0
C186 C 0.26868 0.86679 0.11223 0.0
C187 C 0.29815 0.89762 0.12882 0.0
C188 C 0.30445 0.90282 0.17523 0.0
C189 C 0.25175 0.84678 0.18984 0.0
C190 C 0.2454 0.84154 0.14342 0.0
C191 C 0.28946 0.88229 0.25459 0.0
H192 H 0.16362 0.74734 0.64537 0.0
H193 H 0.15267 0.73175 0.56548 0.0
H194 H 0.24411 0.83093 0.52977 0.0
H195 H 0.25516 0.84695 0.60971 0.0
H196 H 0.31634 0.91787 0.10593 0.0
H197 H 0.32751 0.9266 0.18708 0.0
H198 H 0.23376 0.82673 0.21313 0.0
H199 H 0.2227 0.81732 0.13195 0.0
Tb200 Tb 0.40989 0.19668 0.79433 0.0
Eu201 Eu 0.40506 0.14996 0.88559 0.0
C202 C 0.35649 0.18552 0.87051 0.0
C203 C 0.44959 0.23414 0.88456 0.0
C204 C 0.4098 0.21735 0.67288 0.0
C205 C 0.40575 0.23051 0.59424 0.0
C206 C 0.40835 0.2395 0.63992 0.0
C207 C 0.40851 0.1859 0.65961 0.0
C208 C 0.40606 0.17695 0.61386 0.0
C209 C 0.40459 0.19912 0.58053 0.0
C210 C 0.41269 0.22731 0.72084 0.0
O211 O 0.4361 0.16732 0.77811 0.0
O212 O 0.45576 0.16414 0.84829 0.0
O213 O 0.38323 0.1119 0.82774 0.0
O214 O 0.36397 0.14417 0.78877 0.0
C215 C 0.45871 0.16451 0.80418 0.0
O216 O 0.43154 0.13958 0.94076 0.0
O217 O 0.37463 0.10834 0.93481 0.0
O218 O 0.35735 0.15744 0.88468 0.0
O219 O 0.38046 0.20847 0.8429 0.0
O220 O 0.4508 0.23395 0.84013 0.0
O221 O 0.42832 0.20591 0.90786 0.0
C222 C 0.36388 0.11452 0.79585 0.0
O223 O 0.38404 0.20991 0.74483 0.0
O224 O 0.44038 0.23081 0.7421 0.0
C225 C 0.39906 0.12055 1.00837 0.0
C226 C 0.39678 0.13054 0.10233 0.0
C227 C 0.39677 0.10046 0.08538 0.0
C228 C 0.39791 0.09556 0.03888 0.0
C229 C 0.39867 0.15042 0.02489 0.0
C230 C 0.3975 0.15535 0.07141 0.0
C231 C 0.40219 0.11596 0.95965 0.0
H232 H 0.40523 0.2485 0.56958 0.0
H233 H 0.40938 0.2639 0.6495 0.0
H234 H 0.40941 0.16832 0.68462 0.0
H235 H 0.40498 0.15249 0.60463 0.0
H236 H 0.39572 0.08056 0.10805 0.0
H237 H 0.39821 0.07235 0.02676 0.0
H238 H 0.39978 0.17016 1.00182 0.0
H239 H 0.39797 0.17902 0.08316 0.0
H240 H 0.29651 0.14123 0.91857 0.0
H241 H 0.24888 0.15245 0.94107 0.0
H242 H 0.30485 0.25535 0.87918 0.0
H243 H 0.35168 0.24431 0.85605 0.0
H244 H 0.25183 0.20269 0.99572 0.0
H245 H 0.20737 0.21979 0.82914 0.0
H246 H 0.23427 0.19941 0.8361 0.0
H247 H 0.25446 0.24676 0.83227 0.0
C248 C 0.29846 0.16613 0.90954 0.0
C249 C 0.32778 0.19178 0.88529 0.0
C250 C 0.27118 0.1724 0.92221 0.0
C251 C 0.27282 0.20429 0.91057 0.0
C252 C 0.30234 0.23002 0.88703 0.0
H253 H 0.24226 0.35173 0.03339 0.0
H254 H 0.25277 0.30467 0.01009 0.0
C255 C 0.32936 0.22377 0.87426 0.0
C256 C 0.24573 0.21276 0.92612 0.0
H257 H 0.20305 0.25562 0.89034 0.0
C258 C 0.24022 0.21327 0.97262 0.0
C259 C 0.22956 0.22553 0.89603 0.0
C260 C 0.23142 0.22242 0.84559 0.0
C261 C 0.2225 0.22999 0.98995 0.0
C262 C 0.21093 0.24731 0.96001 0.0
C263 C 0.21271 0.24311 0.91339 0.0
C264 C 0.20253 0.2743 0.97606 0.0
C265 C 0.21795 0.23044 0.04031 0.0
C266 C 0.17129 0.27365 0.96317 0.0
C267 C 0.16534 0.30108 0.97595 0.0
C268 C 0.19071 0.32959 1.00154 0.0
C269 C 0.22198 0.3301 0.01404 0.0
C270 C 0.22789 0.30291 1.00119 0.0
H271 H 0.21442 0.20579 0.0559 0.0
H272 H 0.24212 0.25279 0.05508 0.0
H273 H 0.1949 0.23348 0.04918 0.0
H274 H 0.15165 0.25207 0.94311 0.0
H275 H 0.141 0.29995 0.96576 0.0
H276 H 0.06254 0.38088 0.111 0.0
H277 H 0.02247 0.35809 0.17567 0.0
H278 H 0.06219 0.28802 0.20749 0.0
H279 H 0.1031 0.31149 0.14386 0.0
H280 H 0.97029 0.29421 0.20307 0.0
H281 H 0.08269 0.34432 0.32242 0.0
H282 H 0.08861 0.35634 0.26358 0.0
H283 H 0.08334 0.31462 0.2813 0.0
C284 C 0.06221 0.36012 0.13127 0.0
C285 C 0.0861 0.34815 0.12278 0.0
C286 C 0.03947 0.34727 0.1683 0.0
C287 C 0.04018 0.32215 0.19705 0.0
C288 C 0.06209 0.30824 0.18653 0.0
H289 H 0.88584 0.20657 0.40399 0.0
H290 H 0.92582 0.22427 0.33956 0.0
C291 C 0.08517 0.32141 0.14997 0.0
C292 C 0.01906 0.31157 0.23898 0.0
H293 H 0.02573 0.30841 0.35337 0.0
C294 C 0.98239 0.29733 0.23593 0.0
C295 C 0.03508 0.31647 0.28187 0.0
C296 C 0.07464 0.33412 0.28763 0.0
C297 C 0.96116 0.28721 0.27465 0.0
C298 C 0.97701 0.29054 0.3173 0.0
C299 C 0.01371 0.30539 0.32047 0.0
C300 C 0.9558 0.27918 0.35904 0.0
C301 C 0.92208 0.27375 0.26964 0.0
C302 C 0.96087 0.30388 0.39258 0.0
C303 C 0.93828 0.2938 0.42982 0.0
C304 C 0.91035 0.25887 0.43387 0.0
C305 C 0.90689 0.23377 0.40162 0.0
C306 C 0.92953 0.24384 0.36461 0.0
H307 H 0.91597 0.282 0.23702 0.0
H308 H 0.90757 0.24449 0.27077 0.0
H309 H 0.9121 0.28344 0.29742 0.0
H310 H 0.9813 0.33125 0.38894 0.0
H311 H 0.94156 0.31374 0.45405 0.0
H312 H 0.74869 0.11135 0.53259 0.0
H313 H 0.73557 0.05303 0.55681 0.0
H314 H 0.84093 0.0966 0.61071 0.0
H315 H 0.85427 0.15582 0.5872 0.0
H316 H 0.76844 0.01473 0.53317 0.0
H317 H 0.77735 0.04244 0.71768 0.0
H318 H 0.77565 0.07209 0.67682 0.0
H319 H 0.81533 0.06985 0.68337 0.0
C320 C 0.76919 0.10872 0.54959 0.0
C321 C 0.8025 0.13826 0.55816 0.0
C322 C 0.76167 0.07529 0.56325 0.0
C323 C 0.78725 0.07055 0.58561 0.0
C324 C 0.82073 0.09983 0.59393 0.0
H325 H 0.69629 0.84231 0.64077 0.0
H326 H 0.7427 0.90153 0.61813 0.0
C327 C 0.82826 0.13357 0.58049 0.0
C328 C 0.77751 0.03473 0.60103 0.0
H329 H 0.75182 0.98349 0.69545 0.0
C330 C 0.76552 0.00779 0.56864 0.0
C331 C 0.77397 0.02605 0.64734 0.0
C332 C 0.78604 0.05397 0.6835 0.0
C333 C 0.74713 0.97216 0.58128 0.0
C334 C 0.74142 0.96349 0.62757 0.0
C335 C 0.75626 0.99042 0.65999 0.0
C336 C 0.71505 0.92769 0.6428 0.0
C337 C 0.73139 0.94428 0.54505 0.0
C338 C 0.68457 0.92301 0.66474 0.0
C339 C 0.65833 0.88954 0.67793 0.0
C340 C 0.66195 0.85993 0.6693 0.0
C341 C 0.69263 0.86461 0.64751 0.0
C342 C 0.71914 0.89835 0.63455 0.0
H343 H 0.7345 0.95587 0.51086 0.0
H344 H 0.74469 0.92832 0.54536 0.0
H345 H 0.7028 0.92624 0.55147 0.0
H346 H 0.68083 0.94532 0.67114 0.0
H347 H 0.63506 0.88693 0.69457 0.0
H348 H 0.65985 0.78464 0.83639 0.0
H349 H 0.68493 0.76682 0.89677 0.0
H350 H 0.66931 0.67695 0.81869 0.0
H351 H 0.64288 0.69408 0.75793 0.0
H352 H 0.64329 0.65871 0.9028 0.0
H353 H 0.77907 0.77271 0.91175 0.0
H354 H 0.74667 0.78638 0.91462 0.0
H355 H 0.75036 0.76538 0.86431 0.0
C356 C 0.66231 0.76143 0.83141 0.0
C357 C 0.64941 0.74078 0.7922 0.0
C358 C 0.6769 0.75141 0.86603 0.0
C359 C 0.67952 0.72092 0.86191 0.0
C360 C 0.6677 0.70074 0.82229 0.0
H361 H 0.78538 0.65763 0.05277 0.0
H362 H 0.76861 0.68096 0.98923 0.0
C363 C 0.65273 0.7106 0.78761 0.0
C364 C 0.69173 0.70872 0.9007 0.0
H365 H 0.75836 0.73569 0.97742 0.0
C366 C 0.66861 0.67535 0.91887 0.0
C367 C 0.72486 0.73042 0.92134 0.0
C368 C 0.75179 0.76555 0.90169 0.0
C369 C 0.67745 0.66332 0.95778 0.0
C370 C 0.7098 0.6858 0.97975 0.0
C371 C 0.73323 0.71886 0.96102 0.0
C372 C 0.72094 0.67449 0.02043 0.0
C373 C 0.65239 0.62643 0.97439 0.0
C374 C 0.70026 0.66423 0.05978 0.0
C375 C 0.70958 0.65041 0.09635 0.0
C376 C 0.73998 0.6472 0.09416 0.0
C377 C 0.76171 0.65962 0.0557 0.0
C378 C 0.75219 0.67299 0.01918 0.0
H379 H 0.6337 0.60978 0.94762 0.0
H380 H 0.66704 0.61335 0.98652 0.0
H381 H 0.6366 0.62776 1.00286 0.0
H382 H 0.67648 0.66608 0.06175 0.0
H383 H 0.69242 0.64123 0.12558 0.0
H384 H 0.11173 0.77082 0.38707 0.0
H385 H 0.05254 0.75105 0.35816 0.0
H386 H 0.09689 0.81245 0.23746 0.0
H387 H 0.15681 0.83279 0.26634 0.0
H388 H 0.02591 0.80556 0.29167 0.0
H389 H 0.02895 0.6859 0.23399 0.0
H390 H 0.04653 0.70286 0.28908 0.0
H391 H 0.06862 0.72829 0.23997 0.0
C392 C 0.10901 0.78058 0.35462 0.0
C393 C 0.13883 0.8029 0.32857 0.0
C394 C 0.0752 0.76949 0.33842 0.0
C395 C 0.07063 0.78036 0.29587 0.0
C396 C 0.10018 0.80412 0.27061 0.0
H397 H 0.87815 0.65048 0.14911 0.0
H398 H 0.93901 0.69369 0.16785 0.0
C399 C 0.13425 0.81554 0.28702 0.0
C400 C 0.0351 0.7628 0.27594 0.0
H401 H 0.97396 0.68356 0.2325 0.0
C402 C 0.0145 0.7791 0.27804 0.0
C403 C 0.02071 0.72842 0.25825 0.0
C404 C 0.04227 0.71022 0.25481 0.0
C405 C 0.97913 0.76125 0.26364 0.0
C406 C 0.96423 0.72617 0.24777 0.0
C407 C 0.98538 0.71044 0.24471 0.0
C408 C 0.92672 0.70458 0.23456 0.0
C409 C 0.95815 0.78007 0.26549 0.0
C410 C 0.89946 0.69684 0.2656 0.0
C411 C 0.86441 0.67235 0.25469 0.0
C412 C 0.85647 0.65474 0.2131 0.0
C413 C 0.88366 0.66329 0.18174 0.0
C414 C 0.91839 0.68812 0.19226 0.0
H415 H 0.97572 0.80918 0.26497 0.0
H416 H 0.93938 0.77229 0.23684 0.0
H417 H 0.94275 0.77301 0.29733 0.0
H418 H 0.90539 0.70859 0.29886 0.0
H419 H 0.84383 0.66609 0.27941 0.0
H420 H 0.37543 0.05973 0.77874 0.0
H421 H 0.35399 0.02008 0.71365 0.0
H422 H 0.29057 0.06554 0.67277 0.0
H423 H 0.31232 0.10565 0.73705 0.0
H424 H 0.28842 0.97055 0.68202 0.0
H425 H 0.35452 0.08357 0.56395 0.0
H426 H 0.3627 0.08785 0.62386 0.0
H427 H 0.32403 0.08694 0.60135 0.0
C428 C 0.35637 0.06077 0.75639 0.0
C429 C 0.34584 0.08602 0.76263 0.0
C430 C 0.34431 0.03826 0.71914 0.0
C431 C 0.32152 0.04067 0.68787 0.0
C432 C 0.30896 0.06403 0.6959 0.0
H433 H 0.20723 0.89064 0.47694 0.0
H434 H 0.2247 0.93089 0.54101 0.0
C435 C 0.32119 0.0867 0.73282 0.0
C436 C 0.31196 0.01981 0.64591 0.0
H437 H 0.31572 0.02752 0.53127 0.0
C438 C 0.2944 0.98294 0.64904 0.0
C439 C 0.32062 0.03621 0.60302 0.0
C440 C 0.34183 0.07581 0.59768 0.0
C441 C 0.28446 0.96187 0.61027 0.0
C442 C 0.2915 0.97824 0.56739 0.0
C443 C 0.30983 0.01513 0.56425 0.0
C444 C 0.28056 0.95734 0.52544 0.0
C445 C 0.26719 0.92235 0.61558 0.0
C446 C 0.306 0.96059 0.49395 0.0
C447 C 0.29604 0.938 0.45682 0.0
C448 C 0.26052 0.91183 0.45092 0.0
C449 C 0.23486 0.91031 0.4809 0.0
C450 C 0.2448 0.93307 0.5177 0.0
H451 H 0.27262 0.91492 0.64922 0.0
H452 H 0.23813 0.91035 0.61215 0.0
H453 H 0.27653 0.91088 0.58924 0.0
H454 H 0.33372 0.97948 0.49921 0.0
H455 H 0.3164 0.9397 0.43434 0.0
H456 H 0.19784 0.43157 0.73956 0.0
H457 H 0.20897 0.43315 0.65854 0.0
H458 H 0.09683 0.37411 0.63357 0.0
H459 H 0.08539 0.37195 0.71454 0.0
H460 H 0.18889 0.3772 0.5975 0.0
H461 H 0.13027 0.45975 0.55009 0.0
H462 H 0.14104 0.4554 0.6076 0.0
H463 H 0.10151 0.42095 0.58205 0.0
C464 C 0.17548 0.41861 0.71697 0.0
C465 C 0.14066 0.40173 0.73382 0.0
C466 C 0.18192 0.41974 0.67056 0.0
C467 C 0.15376 0.40426 0.63984 0.0
C468 C 0.119 0.38696 0.65648 0.0
H469 H 0.1411 0.38341 0.347 0.0
H470 H 0.12845 0.38086 0.4277 0.0
C471 C 0.11251 0.38577 0.70289 0.0
C472 C 0.16082 0.40571 0.59052 0.0
H473 H 0.14739 0.43566 0.49014 0.0
C474 C 0.17994 0.3901 0.57405 0.0
C475 C 0.14903 0.42244 0.55987 0.0
C476 C 0.12958 0.44088 0.57569 0.0
C477 C 0.18716 0.39033 0.52778 0.0
C478 C 0.17555 0.40723 0.49715 0.0
C479 C 0.15628 0.4227 0.51359 0.0
C480 C 0.18334 0.40931 0.44798 0.0
C481 C 0.20651 0.37179 0.51199 0.0
C482 C 0.21837 0.42672 0.43232 0.0
C483 C 0.22566 0.4284 0.38611 0.0
C484 C 0.19807 0.4128 0.35436 0.0
C485 C 0.16299 0.39593 0.37025 0.0
C486 C 0.15571 0.39431 0.41647 0.0
H487 H 0.20523 0.35247 0.53731 0.0
H488 H 0.19544 0.35775 0.47969 0.0
H489 H 0.23475 0.3916 0.50643 0.0
H490 H 0.24014 0.43927 0.45586 0.0
H491 H 0.25299 0.44233 0.37528 0.0
H492 H 0.8576 0.23062 0.21006 0.0
H493 H 0.87119 0.24231 0.12969 0.0
H494 H 0.76291 0.21315 0.10327 0.0
H495 H 0.74955 0.20307 0.18365 0.0
H496 H 0.84416 0.19772 0.0578 0.0
H497 H 0.81516 0.30666 0.03845 0.0
H498 H 0.81964 0.29094 0.09291 0.0
H499 H 0.77891 0.26749 0.06196 0.0
C500 C 0.83684 0.22736 0.18731 0.0
C501 C 0.80255 0.21618 0.2036 0.0
C502 C 0.84457 0.23374 0.14123 0.0
C503 C 0.81825 0.22921 0.11036 0.0
C504 C 0.78391 0.21764 0.12642 0.0
H505 H 0.80305 0.24207 0.81985 0.0
H506 H 0.79248 0.23244 0.90097 0.0
C507 C 0.77619 0.21139 0.17245 0.0
C508 C 0.82637 0.23552 0.06126 0.0
H509 H 0.82252 0.28185 0.97066 0.0
C510 C 0.83968 0.21632 0.03883 0.0
C511 C 0.82055 0.2598 0.03637 0.0
C512 C 0.80811 0.28267 0.0587 0.0
C513 C 0.84644 0.22002 0.99216 0.0
C514 C 0.84019 0.24396 0.96723 0.0
C515 C 0.82715 0.26337 0.9897 0.0
C516 C 0.84678 0.24915 0.91778 0.0
C517 C 0.85932 0.19756 0.96974 0.0
C518 C 0.8809 0.26198 0.90011 0.0
C519 C 0.88701 0.26732 0.85363 0.0
C520 C 0.85916 0.2601 0.82372 0.0
C521 C 0.82504 0.24738 0.84165 0.0
C522 C 0.81898 0.2421 0.88812 0.0
H523 H 0.85427 0.17455 0.99091 0.0
H524 H 0.84637 0.18779 0.93652 0.0
H525 H 0.88824 0.21369 0.96411 0.0
H526 H 0.90291 0.26821 0.92232 0.0
H527 H 0.91357 0.27691 0.84112 0.0
H528 H 0.5609 0.75921 0.40614 0.0
H529 H 0.55929 0.76837 0.32504 0.0
H530 H 0.63009 0.72808 0.30211 0.0
H531 H 0.63214 0.71911 0.38318 0.0
H532 H 0.61367 0.80965 0.26557 0.0
H533 H 0.54907 0.66866 0.21581 0.0
H534 H 0.55062 0.68243 0.27351 0.0
H535 H 0.58867 0.68364 0.24837 0.0
C536 C 0.5764 0.75253 0.38398 0.0
C537 C 0.59655 0.73825 0.40144 0.0
C538 C 0.57527 0.75762 0.3375 0.0
C539 C 0.59407 0.74837 0.30727 0.0
C540 C 0.61464 0.73462 0.32456 0.0
H541 H 0.61994 0.76343 0.01414 0.0
H542 H 0.62363 0.75381 0.09481 0.0
C543 C 0.61579 0.72952 0.37104 0.0
C544 C 0.59262 0.75375 0.25783 0.0
H545 H 0.56953 0.71064 0.15651 0.0
C546 C 0.6039 0.78797 0.24176 0.0
C547 C 0.57998 0.7255 0.22664 0.0
C548 C 0.56608 0.68793 0.24185 0.0
C549 C 0.60328 0.79476 0.1955 0.0
C550 C 0.59046 0.76649 0.16436 0.0
C551 C 0.57941 0.73231 0.18034 0.0
C552 C 0.58774 0.77182 0.1152 0.0
C553 C 0.61698 0.83229 0.18026 0.0
C554 C 0.56581 0.7845 0.09961 0.0
C555 C 0.5634 0.78977 0.05349 0.0
C556 C 0.58281 0.7824 0.02167 0.0
C557 C 0.60434 0.76912 0.03742 0.0
C558 C 0.60665 0.76377 0.08363 0.0
H559 H 0.63424 0.85161 0.20611 0.0
H560 H 0.63213 0.83773 0.14833 0.0
H561 H 0.59431 0.83652 0.17421 0.0
H562 H 0.5503 0.79011 0.12317 0.0
H563 H 0.54592 0.79924 0.04276 0.0
H564 H 0.71729 0.55013 0.86935 0.0
H565 H 0.70802 0.5543 0.78865 0.0
H566 H 0.82073 0.61548 0.76847 0.0
H567 H 0.83021 0.61137 0.84893 0.0
H568 H 0.72739 0.61175 0.73289 0.0
H569 H 0.79221 0.53694 0.67681 0.0
H570 H 0.78039 0.53792 0.73487 0.0
H571 H 0.81985 0.57427 0.71158 0.0
C572 C 0.74011 0.56469 0.84781 0.0
C573 C 0.77453 0.58011 0.86566 0.0
C574 C 0.73477 0.56693 0.80161 0.0
C575 C 0.76368 0.58457 0.77223 0.0
C576 C 0.79801 0.60087 0.79016 0.0
H577 H 0.78862 0.62556 0.48339 0.0
H578 H 0.79714 0.6236 0.56467 0.0
C579 C 0.80338 0.59852 0.83625 0.0
C580 C 0.75797 0.58607 0.72292 0.0
H581 H 0.77732 0.56522 0.61966 0.0
C582 C 0.73816 0.60142 0.70814 0.0
C583 C 0.77201 0.57259 0.69054 0.0
C584 C 0.79201 0.5542 0.70416 0.0
C585 C 0.73264 0.60431 0.66196 0.0
C586 C 0.74684 0.59099 0.62961 0.0
C587 C 0.76657 0.57557 0.6444 0.0
C588 C 0.7414 0.59254 0.58025 0.0
C589 C 0.71233 0.62235 0.64821 0.0
C590 C 0.70725 0.57538 0.56174 0.0
C591 C 0.70229 0.57632 0.51523 0.0
C592 C 0.73139 0.59427 0.48602 0.0
C593 C 0.7656 0.61121 0.50469 0.0
C594 C 0.77053 0.61026 0.55123 0.0
H595 H 0.71152 0.6392 0.67568 0.0
H596 H 0.72414 0.63894 0.61778 0.0
H597 H 0.6847 0.60206 0.64016 0.0
H598 H 0.68439 0.56076 0.58322 0.0
H599 H 0.67561 0.56236 0.50208 0.0
H600 H 0.16158 0.78682 0.70027 0.0
H601 H 0.17221 0.80027 0.78066 0.0
H602 H 0.28418 0.845 0.7592 0.0
H603 H 0.2738 0.83145 0.67876 0.0
H604 H 0.20305 0.77595 0.84168 0.0
H605 H 0.27998 0.9221 0.83149 0.0
H606 H 0.2547 0.89488 0.78462 0.0
H607 H 0.29732 0.90026 0.79755 0.0
C608 C 0.18849 0.79944 0.71259 0.0
C609 C 0.21682 0.808 0.68289 0.0
C610 C 0.19453 0.80728 0.75858 0.0
C611 C 0.22902 0.82405 0.77597 0.0
C612 C 0.2574 0.83277 0.74647 0.0
H613 H 0.3179 0.88165 0.04568 0.0
H614 H 0.30789 0.87124 0.96463 0.0
C615 C 0.2514 0.82498 0.70042 0.0
C616 C 0.23504 0.83104 0.82521 0.0
H617 H 0.27736 0.89659 0.90311 0.0
C618 C 0.21914 0.80236 0.85512 0.0
C619 C 0.25616 0.86549 0.84276 0.0
C620 C 0.27278 0.89752 0.81253 0.0
C621 C 0.22422 0.80706 0.90196 0.0
C622 C 0.24526 0.8415 0.91953 0.0
C623 C 0.26123 0.87021 0.88963 0.0
C624 C 0.25115 0.84825 0.96883 0.0
C625 C 0.20767 0.775 0.93212 0.0
C626 C 0.22264 0.83929 0.99819 0.0
C627 C 0.22828 0.84534 0.0446 0.0
C628 C 0.26262 0.86075 0.06268 0.0
C629 C 0.29116 0.87014 0.033 0.0
C630 C 0.28548 0.86405 0.98662 0.0
H631 H 0.20037 0.75042 0.91308 0.0
H632 H 0.22588 0.77758 0.95985 0.0
H633 H 0.18322 0.77228 0.94735 0.0
H634 H 0.196 0.8278 0.98516 0.0
H635 H 0.20575 0.83835 0.06625 0.0
H636 H 0.43871 0.16991 0.53515 0.0
H637 H 0.43633 0.15704 0.45447 0.0
H638 H 0.36274 0.1943 0.43452 0.0
H639 H 0.36478 0.20707 0.51502 0.0
H640 H 0.37968 0.11314 0.39861 0.0
H641 H 0.44038 0.25261 0.34334 0.0
H642 H 0.44135 0.24042 0.40121 0.0
H643 H 0.40214 0.23824 0.37853 0.0
C644 C 0.42177 0.17511 0.51371 0.0
C645 C 0.40221 0.1899 0.53166 0.0
C646 C 0.42057 0.16787 0.46751 0.0
C647 C 0.39992 0.17536 0.43822 0.0
C648 C 0.37961 0.18917 0.4562 0.0
H649 H 0.36032 0.15649 0.14915 0.0
H650 H 0.36066 0.16624 0.23046 0.0
C651 C 0.38082 0.19646 0.50231 0.0
C652 C 0.39953 0.16867 0.38893 0.0
H653 H 0.4169 0.20911 0.28596 0.0
C654 C 0.38797 0.13414 0.37397 0.0
C655 C 0.41034 0.19608 0.35674 0.0
C656 C 0.42457 0.23398 0.37065 0.0
C657 C 0.38623 0.12615 0.32776 0.0
C658 C 0.39694 0.15355 0.29557 0.0
C659 C 0.40857 0.18809 0.31056 0.0
C660 C 0.39648 0.14707 0.2462 0.0
C661 C 0.37215 0.08828 0.3138 0.0
C662 C 0.41685 0.13348 0.22779 0.0
C663 C 0.41681 0.12799 0.18128 0.0
C664 C 0.39658 0.13621 0.15198 0.0
C665 C 0.37646 0.15015 0.17054 0.0
C666 C 0.37649 0.15558 0.21709 0.0
H667 H 0.35633 0.06961 0.34108 0.0
H668 H 0.35544 0.08183 0.28318 0.0
H669 H 0.39465 0.08413 0.30601 0.0
H670 H 0.43323 0.12757 0.24934 0.0
H671 H 0.4332 0.11791 0.16818 0.0
H672 H 0.1765 0.52396 0.04546 0.0
H673 H 0.18046 0.5744 0.08721 0.0
H674 H 0.14866 0.51238 0.20907 0.0
H675 H 0.14483 0.46232 0.16816 0.0
H676 H 0.1293 0.58154 0.14724 0.0
H677 H 0.24911 0.5982 0.23512 0.0
H678 H 0.23234 0.57257 0.18417 0.0
H679 H 0.21124 0.55457 0.2373 0.0
C680 C 0.16975 0.52096 0.08095 0.0
C681 C 0.1609 0.48942 0.10367 0.0
C682 C 0.17208 0.54973 0.10471 0.0
C683 C 0.1655 0.54716 0.1513 0.0
C684 C 0.15445 0.51501 0.17329 0.0
H685 H 0.20082 0.69848 0.36393 0.0
H686 H 0.18457 0.64458 0.32103 0.0
C687 C 0.15227 0.48645 0.14978 0.0
C688 C 0.17232 0.57851 0.17788 0.0
H689 H 0.22603 0.63392 0.26002 0.0
C690 C 0.15049 0.59316 0.17179 0.0
C691 C 0.19987 0.5933 0.21003 0.0
C692 C 0.22472 0.57911 0.21696 0.0
C693 C 0.15523 0.62211 0.19762 0.0
C694 C 0.18297 0.63707 0.22959 0.0
C695 C 0.20468 0.62227 0.23568 0.0
C696 C 0.19108 0.6691 0.25567 0.0
C697 C 0.13011 0.63599 0.19104 0.0
C698 C 0.20054 0.70073 0.23311 0.0
C699 C 0.20978 0.73142 0.25738 0.0
C700 C 0.2101 0.73124 0.30485 0.0
C701 C 0.20082 0.69953 0.32745 0.0
C702 C 0.19147 0.66872 0.30301 0.0
H703 H 0.10471 0.6157 0.17599 0.0
H704 H 0.12448 0.6449 0.22346 0.0
H705 H 0.14225 0.65886 0.1677 0.0
H706 H 0.20135 0.70186 0.19663 0.0
H707 H 0.21699 0.75537 0.23874 0.0
H708 H 0.75572 0.21499 0.64903 0.0
H709 H 0.70274 0.20007 0.69236 0.0
H710 H 0.64584 0.19024 0.56951 0.0
H711 H 0.69894 0.20491 0.52534 0.0
H712 H 0.66573 0.23709 0.69281 0.0
H713 H 0.58059 0.09799 0.63842 0.0
H714 H 0.62789 0.12178 0.63011 0.0
H715 H 0.59976 0.12949 0.59339 0.0
C716 C 0.73197 0.2095 0.63095 0.0
C717 C 0.7316 0.21112 0.58355 0.0
C718 C 0.70169 0.20096 0.65592 0.0
C719 C 0.67032 0.19364 0.63414 0.0
C720 C 0.66969 0.19519 0.58688 0.0
H721 H 0.46713 0.1572 0.71468 0.0
H722 H 0.51869 0.16178 0.6769 0.0
C723 C 0.70009 0.2038 0.56173 0.0
C724 C 0.63885 0.18596 0.66132 0.0
H725 H 0.55333 0.12307 0.68258 0.0
C726 C 0.6412 0.21209 0.69087 0.0
C727 C 0.60703 0.15328 0.65869 0.0
C728 C 0.60357 0.12384 0.62876 0.0
C729 C 0.61218 0.20682 0.71698 0.0
C730 C 0.5802 0.17424 0.71408 0.0
C731 C 0.57798 0.14792 0.68493 0.0
C732 C 0.54796 0.16813 0.73828 0.0
C733 C 0.61561 0.23665 0.74613 0.0
C734 C 0.54689 0.16914 0.78558 0.0
C735 C 0.51733 0.16666 0.80753 0.0
C736 C 0.48843 0.16304 0.7824 0.0
C737 C 0.48904 0.16033 0.73516 0.0
C738 C 0.51847 0.16281 0.71339 0.0
H739 H 0.63929 0.26222 0.73721 0.0
H740 H 0.59183 0.23953 0.74301 0.0
H741 H 0.61809 0.23086 0.78192 0.0
H742 H 0.5692 0.17257 0.80541 0.0
H743 H 0.51758 0.16866 0.84393 0.0
H744 H 0.29957 0.50199 0.03078 0.0
H745 H 0.35223 0.54006 0.98548 0.0
H746 H 0.29461 0.49042 0.86404 0.0
H747 H 0.24222 0.45267 0.90835 0.0
H748 H 0.38862 0.51922 0.91832 0.0
H749 H 0.33244 0.59781 0.84575 0.0
H750 H 0.3148 0.57129 0.89593 0.0
H751 H 0.30482 0.55075 0.84139 0.0
C752 C 0.29816 0.49918 0.99445 0.0
C753 C 0.26658 0.47447 0.97326 0.0
C754 C 0.32823 0.52085 0.96868 0.0
C755 C 0.32702 0.51824 0.92148 0.0
C756 C 0.29586 0.49314 0.90039 0.0
H757 H 0.47522 0.64563 0.70988 0.0
H758 H 0.4251 0.59705 0.74946 0.0
C759 C 0.26594 0.47153 0.92594 0.0
C760 C 0.35807 0.54199 0.89381 0.0
H761 H 0.38696 0.60813 0.81603 0.0
C762 C 0.38839 0.53873 0.896 0.0
C763 C 0.35739 0.5671 0.86447 0.0
C764 C 0.32576 0.57228 0.86182 0.0
C765 C 0.41815 0.55997 0.86932 0.0
C766 C 0.41765 0.58544 0.84041 0.0
C767 C 0.38713 0.58835 0.8379 0.0
C768 C 0.44939 0.61148 0.81541 0.0
C769 C 0.44973 0.55475 0.87204 0.0
C770 C 0.47963 0.63532 0.83934 0.0
C771 C 0.50806 0.6629 0.81698 0.0
C772 C 0.50678 0.66741 0.77019 0.0
C773 C 0.47702 0.64273 0.74588 0.0
C774 C 0.4484 0.61508 0.76844 0.0
H775 H 0.44208 0.52776 0.88385 0.0
H776 H 0.46307 0.5593 0.83882 0.0
H777 H 0.46898 0.57384 0.89653 0.0
H778 H 0.48069 0.63353 0.87566 0.0
H779 H 0.53063 0.68138 0.83677 0.0
H780 H 0.82017 0.34645 0.51104 0.0
H781 H 0.81405 0.39121 0.46817 0.0
H782 H 0.85099 0.36391 0.3483 0.0
H783 H 0.85691 0.3193 0.39039 0.0
H784 H 0.86317 0.45058 0.40861 0.0
H785 H 0.74846 0.34216 0.3191 0.0
H786 H 0.76595 0.33512 0.37071 0.0
H787 H 0.7883 0.33969 0.31815 0.0
C788 C 0.8277 0.35059 0.47582 0.0
C789 C 0.83848 0.32907 0.45389 0.0
C790 C 0.82411 0.37603 0.45139 0.0
C791 C 0.83139 0.3802 0.40497 0.0
C792 C 0.84463 0.36055 0.38392 0.0
H793 H 0.79065 0.48925 0.18835 0.0
H794 H 0.80793 0.45312 0.23295 0.0
C795 C 0.84802 0.33513 0.40809 0.0
C796 C 0.82275 0.40304 0.37752 0.0
H797 H 0.76795 0.40018 0.29365 0.0
C798 C 0.84231 0.43967 0.38357 0.0
C799 C 0.79561 0.38855 0.34478 0.0
C800 C 0.77312 0.34921 0.33788 0.0
C801 C 0.83573 0.46238 0.35711 0.0
C802 C 0.8084 0.44786 0.32454 0.0
C803 C 0.78896 0.41121 0.3185 0.0
C804 C 0.79858 0.47009 0.2975 0.0
C805 C 0.85853 0.5017 0.36367 0.0
C806 C 0.78692 0.49092 0.31903 0.0
C807 C 0.77711 0.51151 0.2938 0.0
C808 C 0.77838 0.51142 0.24638 0.0
C809 C 0.78937 0.48992 0.22477 0.0
C810 C 0.79934 0.46937 0.25018 0.0
H811 H 0.88422 0.50864 0.37959 0.0
H812 H 0.86376 0.51597 0.3311 0.0
H813 H 0.84465 0.51108 0.38623 0.0
H814 H 0.78514 0.49106 0.35544 0.0
H815 H 0.76844 0.52746 0.31162 0.0
H816 H 0.35293 0.83037 0.37208 0.0
H817 H 0.40024 0.8267 0.41198 0.0
H818 H 0.36148 0.84216 0.53875 0.0
H819 H 0.315 0.84659 0.49957 0.0
H820 H 0.43472 0.87852 0.53352 0.0
H821 H 0.37719 0.73772 0.48395 0.0
H822 H 0.38875 0.76834 0.43804 0.0
H823 H 0.35394 0.76172 0.47612 0.0
C824 C 0.35489 0.83354 0.40836 0.0
C825 C 0.32994 0.83826 0.43267 0.0
C826 C 0.38173 0.83121 0.4311 0.0
C827 C 0.38383 0.83344 0.47837 0.0
C828 C 0.36018 0.84015 0.50231 0.0
H829 H 0.49212 0.79461 0.69672 0.0
H830 H 0.45526 0.81027 0.6508 0.0
C831 C 0.33351 0.84252 0.47976 0.0
C832 C 0.40907 0.82674 0.50362 0.0
H833 H 0.42836 0.76214 0.52895 0.0
C834 C 0.43351 0.85316 0.53239 0.0
C835 C 0.40707 0.79347 0.50238 0.0
C836 C 0.38017 0.76352 0.4738 0.0
C837 C 0.45617 0.84722 0.55986 0.0
C838 C 0.45394 0.81388 0.5588 0.0
C839 C 0.42986 0.78765 0.52965 0.0
C840 C 0.47676 0.80567 0.58704 0.0
C841 C 0.48252 0.87667 0.58945 0.0
C842 C 0.50048 0.79738 0.56629 0.0
C843 C 0.5213 0.78829 0.59222 0.0
C844 C 0.5187 0.7871 0.63958 0.0
C845 C 0.4948 0.79534 0.66039 0.0
C846 C 0.47393 0.80452 0.63425 0.0
H847 H 0.48622 0.90271 0.57908 0.0
H848 H 0.47288 0.87164 0.62478 0.0
H849 H 0.50855 0.87793 0.58859 0.0
H850 H 0.50287 0.79793 0.52989 0.0
H851 H 0.53935 0.78207 0.57491 0.0
H852 H 0.67102 0.53528 0.05383 0.0
H853 H 0.62387 0.48682 0.01179 0.0
H854 H 0.59374 0.42149 0.13082 0.0
H855 H 0.64098 0.47033 0.17359 0.0
H856 H 0.62478 0.42391 1.00121 0.0
H857 H 0.49809 0.40019 0.07602 0.0
H858 H 0.53913 0.4412 0.08333 0.0
H859 H 0.53047 0.40302 0.11575 0.0
C860 C 0.6539 0.51086 0.07143 0.0
C861 C 0.65985 0.50642 0.11693 0.0
C862 C 0.62695 0.48323 0.04731 0.0
C863 C 0.60535 0.45064 0.06817 0.0
C864 C 0.60983 0.44666 0.1143 0.0
H865 H 0.45951 0.24152 0.97544 0.0
H866 H 0.49681 0.29518 0.01775 0.0
C867 C 0.63682 0.47451 0.13867 0.0
C868 C 0.58132 0.41995 0.04019 0.0
H869 H 0.49502 0.35708 0.02459 0.0
C870 C 0.59636 0.40942 1.00604 0.0
C871 C 0.54437 0.40114 0.04683 0.0
C872 C 0.5269 0.41203 0.08221 0.0
C873 C 0.5755 0.38003 0.9789 0.0
C874 C 0.5385 0.36111 0.98551 0.0
C875 C 0.5234 0.37178 0.01948 0.0
C876 C 0.51525 0.32905 0.9591 0.0
C877 C 0.59343 0.36883 0.94445 0.0
C878 C 0.51302 0.33035 0.91196 0.0
C879 C 0.49187 0.29953 0.88741 0.0
C880 C 0.4723 0.26703 0.90974 0.0
C881 C 0.47421 0.26607 0.95705 0.0
C882 C 0.49545 0.29675 0.98141 0.0
H883 H 0.62218 0.38077 0.9512 0.0
H884 H 0.58138 0.33968 0.94387 0.0
H885 H 0.59031 0.37756 0.91051 0.0
H886 H 0.52762 0.35519 0.89418 0.0
H887 H 0.4907 0.30121 0.85109 0.0
loop_
_geom_bond_atom_site_label_1
_geom_bond_atom_site_label_2
_geom_bond_distance
_geom_bond_site_symmetry_2
_ccdc_geom_bond_type
Tb0 C10 2.825 . S
Tb0 O11 2.347 . S
Tb0 O14 2.366 . S
Tb0 O19 2.418 . S
Tb0 O20 2.391 . S
Tb0 O23 2.479 . S
Tb0 O24 2.471 . S
Eu1 O12 2.418 . S
Eu1 O13 2.384 1_556 S
Eu1 O16 2.479 . S
Eu1 O17 2.471 . S
Eu1 O18 2.347 . S
Eu1 O21 2.366 . S
Eu1 C31 2.825 . S
C2 O18 1.259 1_554 S
C2 O19 1.265 . S
C3 O20 1.248 1_556 S
C3 O21 1.265 . S
C4 C6 1.380 . S
C4 C7 1.374 . S
C4 C10 1.507 . S
C5 C6 1.384 . S
C5 C9 1.387 . S
C5 H32 0.930 . S
C6 C4 1.380 . S
C6 C5 1.384 . S
C6 H33 0.931 . S
C7 C4 1.374 . S
C7 C8 1.390 . S
C7 H34 0.930 . S
C8 C7 1.390 . S
C8 C9 1.391 . S
C8 H35 0.930 . S
C9 C5 1.387 . S
C9 C8 1.391 . S
C10 Tb0 2.825 . S
C10 C4 1.507 . S
C10 O23 1.238 . S
C10 O24 1.247 . S
O11 Tb0 2.347 . S
O11 C15 1.259 . S
O12 Eu1 2.418 . S
O12 C15 1.265 1_556 S
O13 Eu1 2.384 1_554 S
O13 C22 1.255 . S
O14 Tb0 2.366 . S
O14 C22 1.265 . S
C15 O11 1.259 . S
C15 O12 1.265 1_554 S
O16 Eu1 2.479 . S
O16 C31 1.238 . S
O17 Eu1 2.471 . S
O17 C31 1.247 . S
O18 Eu1 2.347 . S
O18 C2 1.259 1_556 S
O19 Tb0 2.418 . S
O19 C2 1.265 . S
O20 Tb0 2.391 . S
O20 C3 1.248 1_554 S
O21 Eu1 2.366 . S
O21 C3 1.265 . S
C22 O13 1.255 . S
C22 O14 1.265 . S
O23 Tb0 2.479 . S
O23 C10 1.238 . S
O24 Tb0 2.471 . S
O24 C10 1.247 . S
C25 C28 1.380 . S
C25 C29 1.374 . S
C25 C31 1.507 . S
C26 C27 1.387 . S
C26 C30 1.391 . S
C27 C26 1.387 . S
C27 C28 1.384 . S
C27 H36 0.930 . S
C28 C25 1.380 . S
C28 C27 1.384 . S
C28 H37 0.931 . S
C29 C25 1.374 . S
C29 C30 1.390 . S
C29 H38 0.930 . S
C30 C26 1.391 . S
C30 C29 1.390 . S
C30 H39 0.930 . S
C31 Eu1 2.825 . S
C31 O16 1.238 . S
C31 O17 1.247 . S
C31 C25 1.507 . S
H32 C5 0.930 . S
H33 C6 0.931 . S
H34 C7 0.930 . S
H35 C8 0.930 . S
H36 C27 0.930 . S
H37 C28 0.931 . S
H38 C29 0.930 . S
H39 C30 0.930 . S
Tb40 C50 2.825 . S
Tb40 O51 2.347 . S
Tb40 O54 2.366 . S
Tb40 O59 2.418 . S
Tb40 O60 2.384 . S
Tb40 O63 2.479 . S
Tb40 O64 2.471 . S
Eu41 O52 2.418 . S
Eu41 O53 2.384 . S
Eu41 O56 2.479 . S
Eu41 O57 2.471 . S
Eu41 O58 2.347 . S
Eu41 O61 2.366 . S
Eu41 C71 2.825 . S
C42 O58 1.259 . S
C42 O59 1.265 . S
C43 O60 1.255 . S
C43 O61 1.265 . S
C44 C46 1.380 . S
C44 C47 1.374 . S
C44 C50 1.507 . S
C45 C46 1.384 . S
C45 C49 1.387 . S
C45 H72 0.930 . S
C46 C44 1.380 . S
C46 C45 1.384 . S
C46 H73 0.931 . S
C47 C44 1.374 . S
C47 C48 1.390 . S
C47 H74 0.930 . S
C48 C47 1.390 . S
C48 C49 1.391 . S
C48 H75 0.930 . S
C49 C45 1.387 . S
C49 C48 1.391 . S
C50 Tb40 2.825 . S
C50 C44 1.507 . S
C50 O63 1.238 . S
C50 O64 1.247 . S
O51 Tb40 2.347 . S
O51 C55 1.259 . S
O52 Eu41 2.418 . S
O52 C55 1.265 . S
O53 Eu41 2.384 . S
O53 C62 1.255 . S
O54 Tb40 2.366 . S
O54 C62 1.265 . S
C55 O51 1.259 . S
C55 O52 1.265 . S
O56 Eu41 2.479 . S
O56 C71 1.238 . S
O57 Eu41 2.471 . S
O57 C71 1.247 . S
O58 Eu41 2.347 . S
O58 C42 1.259 . S
O59 Tb40 2.418 . S
O59 C42 1.265 . S
O60 Tb40 2.384 . S
O60 C43 1.255 . S
O61 Eu41 2.366 . S
O61 C43 1.265 . S
C62 O53 1.255 . S
C62 O54 1.265 . S
O63 Tb40 2.479 . S
O63 C50 1.238 . S
O64 Tb40 2.471 . S
O64 C50 1.247 . S
C65 C68 1.380 . S
C65 C69 1.374 . S
C65 C71 1.507 . S
C66 C67 1.387 . S
C66 C70 1.391 . S
C67 C66 1.387 . S
C67 C68 1.384 . S
C67 H76 0.930 . S
C68 C65 1.380 . S
C68 C67 1.384 . S
C68 H77 0.931 . S
C69 C65 1.374 . S
C69 C70 1.390 . S
C69 H78 0.930 . S
C70 C66 1.391 . S
C70 C69 1.390 . S
C70 H79 0.930 . S
C71 Eu41 2.825 . S
C71 O56 1.238 . S
C71 O57 1.247 . S
C71 C65 1.507 . S
H72 C45 0.930 . S
H73 C46 0.931 . S
H74 C47 0.930 . S
H75 C48 0.930 . S
H76 C67 0.930 . S
H77 C68 0.931 . S
H78 C69 0.930 . S
H79 C70 0.930 . S
Tb80 C90 2.825 . S
Tb80 O91 2.347 . S
Tb80 O94 2.366 . S
Tb80 O99 2.418 . S
Tb80 O100 2.384 . S
Tb80 O103 2.479 . S
Tb80 O104 2.471 . S
Eu81 O92 2.418 . S
Eu81 O93 2.384 . S
Eu81 O96 2.479 . S
Eu81 O97 2.471 . S
Eu81 O98 2.347 . S
Eu81 O101 2.366 . S
Eu81 C111 2.825 . S
C82 O98 1.259 . S
C82 O99 1.265 . S
C83 O100 1.255 . S
C83 O101 1.265 . S
C84 C86 1.380 . S
C84 C87 1.374 . S
C84 C90 1.507 . S
C85 C86 1.384 . S
C85 C89 1.387 . S
C85 H112 0.930 . S
C86 C84 1.380 . S
C86 C85 1.384 . S
C86 H113 0.931 . S
C87 C84 1.374 . S
C87 C88 1.390 . S
C87 H114 0.930 . S
C88 C87 1.390 . S
C88 C89 1.391 . S
C88 H115 0.930 . S
C89 C85 1.387 . S
C89 C88 1.391 . S
C90 Tb80 2.825 . S
C90 C84 1.507 . S
C90 O103 1.238 . S
C90 O104 1.247 . S
O91 Tb80 2.347 . S
O91 C95 1.259 . S
O92 Eu81 2.418 . S
O92 C95 1.265 . S
O93 Eu81 2.384 . S
O93 C102 1.255 . S
O94 Tb80 2.366 . S
O94 C102 1.265 . S
C95 O91 1.259 . S
C95 O92 1.265 . S
O96 Eu81 2.479 . S
O96 C111 1.238 . S
O97 Eu81 2.471 . S
O97 C111 1.247 . S
O98 Eu81 2.347 . S
O98 C82 1.259 . S
O99 Tb80 2.418 . S
O99 C82 1.265 . S
O100 Tb80 2.384 . S
O100 C83 1.255 . S
O101 Eu81 2.366 . S
O101 C83 1.265 . S
C102 O93 1.255 . S
C102 O94 1.265 . S
O103 Tb80 2.479 . S
O103 C90 1.238 . S
O104 Tb80 2.471 . S
O104 C90 1.247 . S
C105 C108 1.380 . S
C105 C109 1.374 . S
C105 C111 1.507 . S
C106 C107 1.387 . S
C106 C110 1.391 . S
C107 C106 1.387 . S
C107 C108 1.384 . S
C107 H116 0.930 . S
C108 C105 1.380 . S
C108 C107 1.384 . S
C108 H117 0.931 . S
C109 C105 1.374 . S
C109 C110 1.390 . S
C109 H118 0.930 . S
C110 C106 1.391 . S
C110 C109 1.390 . S
C110 H119 0.930 . S
C111 Eu81 2.825 . S
C111 O96 1.238 . S
C111 O97 1.247 . S
C111 C105 1.507 . S
H112 C85 0.930 . S
H113 C86 0.931 . S
H114 C87 0.930 . S
H115 C88 0.930 . S
H116 C107 0.930 . S
H117 C108 0.931 . S
H118 C109 0.930 . S
H119 C110 0.930 . S
Tb120 C130 2.825 . S
Tb120 O131 2.347 . S
Tb120 O134 2.366 . S
Tb120 O139 2.418 . S
Tb120 O140 2.384 . S
Tb120 O143 2.479 . S
Tb120 O144 2.471 . S
Eu121 O132 2.418 . S
Eu121 O133 2.384 . S
Eu121 O136 2.479 . S
Eu121 O137 2.471 . S
Eu121 O138 2.347 . S
Eu121 O141 2.366 . S
Eu121 C151 2.825 . S
C122 O138 1.259 . S
C122 O139 1.265 . S
C123 O140 1.255 . S
C123 O141 1.265 . S
C124 C126 1.380 . S
C124 C127 1.374 . S
C124 C130 1.507 1_556 S
C125 C126 1.384 . S
C125 C129 1.387 . S
C125 H152 0.930 . S
C126 C124 1.380 . S
C126 C125 1.384 . S
C126 H153 0.931 . S
C127 C124 1.374 . S
C127 C128 1.390 . S
C127 H154 0.930 . S
C128 C127 1.390 . S
C128 C129 1.391 . S
C128 H155 0.930 . S
C129 C125 1.387 . S
C129 C128 1.391 . S
C130 Tb120 2.825 . S
C130 C124 1.507 1_554 S
C130 O143 1.238 . S
C130 O144 1.247 . S
O131 Tb120 2.347 . S
O131 C135 1.259 . S
O132 Eu121 2.418 . S
O132 C135 1.265 . S
O133 Eu121 2.384 . S
O133 C142 1.255 . S
O134 Tb120 2.366 . S
O134 C142 1.265 . S
C135 O131 1.259 . S
C135 O132 1.265 . S
O136 Eu121 2.479 . S
O136 C151 1.238 . S
O137 Eu121 2.471 . S
O137 C151 1.247 . S
O138 Eu121 2.347 . S
O138 C122 1.259 . S
O139 Tb120 2.418 . S
O139 C122 1.265 . S
O140 Tb120 2.384 . S
O140 C123 1.255 . S
O141 Eu121 2.366 . S
O141 C123 1.265 . S
C142 O133 1.255 . S
C142 O134 1.265 . S
O143 Tb120 2.479 . S
O143 C130 1.238 . S
O144 Tb120 2.471 . S
O144 C130 1.247 . S
C145 C148 1.380 . S
C145 C149 1.374 . S
C145 C151 1.507 . S
C146 C147 1.387 . S
C146 C150 1.391 . S
C147 C146 1.387 . S
C147 C148 1.384 . S
C147 H156 0.930 . S
C148 C145 1.380 . S
C148 C147 1.384 . S
C148 H157 0.931 . S
C149 C145 1.374 . S
C149 C150 1.390 . S
C149 H158 0.930 . S
C150 C146 1.391 . S
C150 C149 1.390 . S
C150 H159 0.930 . S
C151 Eu121 2.825 . S
C151 O136 1.238 . S
C151 O137 1.247 . S
C151 C145 1.507 . S
H152 C125 0.930 . S
H153 C126 0.931 . S
H154 C127 0.930 . S
H155 C128 0.930 . S
H156 C147 0.930 . S
H157 C148 0.931 . S
H158 C149 0.930 . S
H159 C150 0.930 . S
Tb160 C170 2.825 . S
Tb160 O171 2.347 . S
Tb160 O174 2.366 . S
Tb160 O179 2.418 . S
Tb160 O180 2.384 . S
Tb160 O183 2.479 . S
Tb160 O184 2.471 . S
Eu161 O172 2.418 . S
Eu161 O173 2.384 . S
Eu161 O176 2.479 . S
Eu161 O177 2.471 . S
Eu161 O178 2.347 . S
Eu161 O181 2.366 . S
Eu161 C191 2.825 . S
C162 O178 1.259 . S
C162 O179 1.265 . S
C163 O180 1.255 . S
C163 O181 1.265 . S
C164 C166 1.380 . S
C164 C167 1.374 . S
C164 C170 1.507 . S
C165 C166 1.384 . S
C165 C169 1.387 . S
C165 H192 0.930 . S
C166 C164 1.380 . S
C166 C165 1.384 . S
C166 H193 0.931 . S
C167 C164 1.374 . S
C167 C168 1.390 . S
C167 H194 0.930 . S
C168 C167 1.390 . S
C168 C169 1.391 . S
C168 H195 0.930 . S
C169 C165 1.387 . S
C169 C168 1.391 . S
C170 Tb160 2.825 . S
C170 C164 1.507 . S
C170 O183 1.238 . S
C170 O184 1.247 . S
O171 Tb160 2.347 . S
O171 C175 1.259 . S
O172 Eu161 2.418 . S
O172 C175 1.265 . S
O173 Eu161 2.384 . S
O173 C182 1.255 . S
O174 Tb160 2.366 . S
O174 C182 1.265 . S
C175 O171 1.259 . S
C175 O172 1.265 . S
O176 Eu161 2.479 . S
O176 C191 1.238 . S
O177 Eu161 2.471 . S
O177 C191 1.247 . S
O178 Eu161 2.347 . S
O178 C162 1.259 . S
O179 Tb160 2.418 . S
O179 C162 1.265 . S
O180 Tb160 2.384 . S
O180 C163 1.255 . S
O181 Eu161 2.366 . S
O181 C163 1.265 . S
C182 O173 1.255 . S
C182 O174 1.265 . S
O183 Tb160 2.479 . S
O183 C170 1.238 . S
O184 Tb160 2.471 . S
O184 C170 1.247 . S
C185 C188 1.380 . S
C185 C189 1.374 . S
C185 C191 1.507 . S
C186 C187 1.387 . S
C186 C190 1.391 . S
C187 C186 1.387 . S
C187 C188 1.384 . S
C187 H196 0.930 . S
C188 C185 1.380 . S
C188 C187 1.384 . S
C188 H197 0.931 . S
C189 C185 1.374 . S
C189 C190 1.390 . S
C189 H198 0.930 . S
C190 C186 1.391 . S
C190 C189 1.390 . S
C190 H199 0.930 . S
C191 Eu161 2.825 . S
C191 O176 1.238 . S
C191 O177 1.247 . S
C191 C185 1.507 . S
H192 C165 0.930 . S
H193 C166 0.931 . S
H194 C167 0.930 . S
H195 C168 0.930 . S
H196 C187 0.930 . S
H197 C188 0.931 . S
H198 C189 0.930 . S
H199 C190 0.930 . S
Tb200 C210 2.825 . S
Tb200 O211 2.347 . S
Tb200 O214 2.366 . S
Tb200 O219 2.418 . S
Tb200 O220 2.384 . S
Tb200 O223 2.479 . S
Tb200 O224 2.471 . S
Eu201 O212 2.418 . S
Eu201 O213 2.384 . S
Eu201 O216 2.479 . S
Eu201 O217 2.471 . S
Eu201 O218 2.347 . S
Eu201 O221 2.366 . S
Eu201 C231 2.825 . S
C202 O218 1.259 . S
C202 O219 1.265 . S
C203 O220 1.255 . S
C203 O221 1.265 . S
C204 C206 1.380 . S
C204 C207 1.374 . S
C204 C210 1.507 . S
C205 C206 1.384 . S
C205 C209 1.387 . S
C205 H232 0.930 . S
C206 C204 1.380 . S
C206 C205 1.384 . S
C206 H233 0.931 . S
C207 C204 1.374 . S
C207 C208 1.390 . S
C207 H234 0.930 . S
C208 C207 1.390 . S
C208 C209 1.391 . S
C208 H235 0.930 . S
C209 C205 1.387 . S
C209 C208 1.391 . S
C210 Tb200 2.825 . S
C210 C204 1.507 . S
C210 O223 1.238 . S
C210 O224 1.247 . S
O211 Tb200 2.347 . S
O211 C215 1.259 . S
O212 Eu201 2.418 . S
O212 C215 1.265 . S
O213 Eu201 2.384 . S
O213 C222 1.255 . S
O214 Tb200 2.366 . S
O214 C222 1.265 . S
C215 O211 1.259 . S
C215 O212 1.265 . S
O216 Eu201 2.479 . S
O216 C231 1.238 . S
O217 Eu201 2.471 . S
O217 C231 1.247 . S
O218 Eu201 2.347 . S
O218 C202 1.259 . S
O219 Tb200 2.418 . S
O219 C202 1.265 . S
O220 Tb200 2.384 . S
O220 C203 1.255 . S
O221 Eu201 2.366 . S
O221 C203 1.265 . S
C222 O213 1.255 . S
C222 O214 1.265 . S
O223 Tb200 2.479 . S
O223 C210 1.238 . S
O224 Tb200 2.471 . S
O224 C210 1.247 . S
C225 C228 1.380 . S
C225 C229 1.374 . S
C225 C231 1.507 1_554 S
C226 C227 1.387 . S
C226 C230 1.391 . S
C227 C226 1.387 . S
C227 C228 1.384 . S
C227 H236 0.930 . S
C228 C225 1.380 . S
C228 C227 1.384 . S
C228 H237 0.931 . S
C229 C225 1.374 . S
C229 C230 1.390 . S
C229 H238 0.930 . S
C230 C226 1.391 . S
C230 C229 1.390 . S
C230 H239 0.930 . S
C231 Eu201 2.825 . S
C231 O216 1.238 . S
C231 O217 1.247 . S
C231 C225 1.507 1_556 S
H232 C205 0.930 . S
H233 C206 0.931 . S
H234 C207 0.930 . S
H235 C208 0.930 . S
H236 C227 0.930 . S
H237 C228 0.931 . S
H238 C229 0.930 . S
H239 C230 0.930 . S
H240 C248 0.929 . S
H241 C250 0.930 . S
H242 C252 0.930 . S
H243 C255 0.929 . S
H244 C258 0.930 . S
H245 C260 0.960 . S
H246 C260 0.960 . S
H247 C260 0.960 . S
C248 H240 0.929 . S
C248 C249 1.377 . S
C248 C250 1.384 . S
C249 C248 1.377 . S
C249 C255 1.390 . S
C250 H241 0.930 . S
C250 C248 1.384 . S
C250 C251 1.372 . S
C251 C250 1.372 . S
C251 C252 1.400 . S
C251 C256 1.490 . S
C252 H242 0.930 . S
C252 C251 1.400 . S
C252 C255 1.386 . S
H253 C269 0.930 . S
H254 C270 0.931 . S
C255 H243 0.929 . S
C255 C249 1.390 . S
C255 C252 1.386 . S
C256 C251 1.490 . S
C256 C258 1.395 . S
C256 C259 1.403 . S
H257 C263 0.930 . S
C258 H244 0.930 . S
C258 C256 1.395 . S
C258 C261 1.403 . S
C259 C256 1.403 . S
C259 C260 1.524 . S
C259 C263 1.400 . S
C260 H245 0.960 . S
C260 H246 0.960 . S
C260 H247 0.960 . S
C260 C259 1.524 . S
C261 C258 1.403 . S
C261 C262 1.392 . S
C261 C265 1.495 1_556 S
C262 C261 1.392 . S
C262 C263 1.385 . S
C262 C264 1.478 . S
C263 H257 0.930 . S
C263 C259 1.400 . S
C263 C262 1.385 . S
C264 C262 1.478 . S
C264 C266 1.381 . S
C264 C270 1.383 . S
C265 C261 1.495 1_554 S
C265 H271 0.959 . S
C265 H272 0.961 . S
C265 H273 0.960 . S
C266 C264 1.381 . S
C266 C267 1.394 . S
C266 H274 0.930 . S
C267 C266 1.394 . S
C267 C268 1.383 . S
C267 H275 0.929 . S
C268 C267 1.383 . S
C268 C269 1.377 . S
C269 H253 0.930 . S
C269 C268 1.377 . S
C269 C270 1.379 . S
C270 H254 0.931 . S
C270 C264 1.383 . S
C270 C269 1.379 . S
H271 C265 0.959 . S
H272 C265 0.961 . S
H273 C265 0.960 . S
H274 C266 0.930 . S
H275 C267 0.929 . S
H276 C284 0.929 . S
H277 C286 0.930 . S
H278 C288 0.930 . S
H279 C291 0.929 . S
H280 C294 0.930 . S
H281 C296 0.960 . S
H282 C296 0.960 . S
H283 C296 0.960 . S
C284 H276 0.929 . S
C284 C285 1.377 . S
C284 C286 1.384 . S
C285 C284 1.377 . S
C285 C291 1.390 . S
C286 H277 0.930 . S
C286 C284 1.384 . S
C286 C287 1.372 . S
C287 C286 1.372 . S
C287 C288 1.400 . S
C287 C292 1.490 . S
C288 H278 0.930 . S
C288 C287 1.400 . S
C288 C291 1.386 . S
H289 C305 0.930 . S
H290 C306 0.931 . S
C291 H279 0.929 . S
C291 C285 1.390 . S
C291 C288 1.386 . S
C292 C287 1.490 . S
C292 C294 1.395 . S
C292 C295 1.403 . S
H293 C299 0.930 . S
C294 H280 0.930 . S
C294 C292 1.395 . S
C294 C297 1.403 1_455 S
C295 C292 1.403 . S
C295 C296 1.524 . S
C295 C299 1.400 1_455 S
C296 H281 0.960 . S
C296 H282 0.960 . S
C296 H283 0.960 . S
C296 C295 1.524 . S
C297 C294 1.403 1_655 S
C297 C298 1.392 . S
C297 C301 1.495 . S
C298 C297 1.392 . S
C298 C299 1.385 . S
C298 C300 1.478 . S
C299 H293 0.930 . S
C299 C295 1.400 1_655 S
C299 C298 1.385 . S
C300 C298 1.478 . S
C300 C302 1.381 . S
C300 C306 1.383 . S
C301 C297 1.495 . S
C301 H307 0.959 . S
C301 H308 0.961 . S
C301 H309 0.960 . S
C302 C300 1.381 . S
C302 C303 1.394 . S
C302 H310 0.930 . S
C303 C302 1.394 . S
C303 C304 1.383 . S
C303 H311 0.929 . S
C304 C303 1.383 . S
C304 C305 1.377 . S
C305 H289 0.930 . S
C305 C304 1.377 . S
C305 C306 1.379 . S
C306 H290 0.931 . S
C306 C300 1.383 . S
C306 C305 1.379 . S
H307 C301 0.959 . S
H308 C301 0.961 . S
H309 C301 0.960 . S
H310 C302 0.930 . S
H311 C303 0.929 . S
H312 C320 0.929 . S
H313 C322 0.930 . S
H314 C324 0.930 . S
H315 C327 0.929 . S
H316 C330 0.930 . S
H317 C332 0.960 . S
H318 C332 0.960 . S
H319 C332 0.960 . S
C320 H312 0.929 . S
C320 C321 1.377 . S
C320 C322 1.384 . S
C321 C320 1.377 . S
C321 C327 1.390 . S
C322 H313 0.930 . S
C322 C320 1.384 . S
C322 C323 1.372 . S
C323 C322 1.372 . S
C323 C324 1.400 . S
C323 C328 1.490 . S
C324 H314 0.930 . S
C324 C323 1.400 . S
C324 C327 1.386 . S
H325 C341 0.930 . S
H326 C342 0.931 . S
C327 H315 0.929 . S
C327 C321 1.390 . S
C327 C324 1.386 . S
C328 C323 1.490 . S
C328 C330 1.395 . S
C328 C331 1.403 . S
H329 C335 0.930 . S
C330 H316 0.930 . S
C330 C328 1.395 . S
C330 C333 1.403 1_545 S
C331 C328 1.403 . S
C331 C332 1.524 . S
C331 C335 1.400 1_545 S
C332 H317 0.960 . S
C332 H318 0.960 . S
C332 H319 0.960 . S
C332 C331 1.524 . S
C333 C330 1.403 1_565 S
C333 C334 1.392 . S
C333 C337 1.495 . S
C334 C333 1.392 . S
C334 C335 1.385 . S
C334 C336 1.478 . S
C335 H329 0.930 . S
C335 C331 1.400 1_565 S
C335 C334 1.385 . S
C336 C334 1.478 . S
C336 C338 1.381 . S
C336 C342 1.383 . S
C337 C333 1.495 . S
C337 H343 0.959 . S
C337 H344 0.961 . S
C337 H345 0.960 . S
C338 C336 1.381 . S
C338 C339 1.394 . S
C338 H346 0.930 . S
C339 C338 1.394 . S
C339 C340 1.383 . S
C339 H347 0.929 . S
C340 C339 1.383 . S
C340 C341 1.377 . S
C341 H325 0.930 . S
C341 C340 1.377 . S
C341 C342 1.379 . S
C342 H326 0.931 . S
C342 C336 1.383 . S
C342 C341 1.379 . S
H343 C337 0.959 . S
H344 C337 0.961 . S
H345 C337 0.960 . S
H346 C338 0.930 . S
H347 C339 0.929 . S
H348 C356 0.929 . S
H349 C358 0.930 . S
H350 C360 0.930 . S
H351 C363 0.929 . S
H352 C366 0.930 . S
H353 C368 0.960 . S
H354 C368 0.960 . S
H355 C368 0.960 . S
C356 H348 0.929 . S
C356 C357 1.377 . S
C356 C358 1.384 . S
C357 C356 1.377 . S
C357 C363 1.390 . S
C358 H349 0.930 . S
C358 C356 1.384 . S
C358 C359 1.372 . S
C359 C358 1.372 . S
C359 C360 1.400 . S
C359 C364 1.490 . S
C360 H350 0.930 . S
C360 C359 1.400 . S
C360 C363 1.386 . S
H361 C377 0.930 . S
H362 C378 0.931 1_556 S
C363 H351 0.929 . S
C363 C357 1.390 . S
C363 C360 1.386 . S
C364 C359 1.490 . S
C364 C366 1.395 . S
C364 C367 1.403 . S
H365 C371 0.930 . S
C366 H352 0.930 . S
C366 C364 1.395 . S
C366 C369 1.403 . S
C367 C364 1.403 . S
C367 C368 1.524 . S
C367 C371 1.400 . S
C368 H353 0.960 . S
C368 H354 0.960 . S
C368 H355 0.960 . S
C368 C367 1.524 . S
C369 C366 1.403 . S
C369 C370 1.392 . S
C369 C373 1.495 . S
C370 C369 1.392 . S
C370 C371 1.385 . S
C370 C372 1.478 1_556 S
C371 H365 0.930 . S
C371 C367 1.400 . S
C371 C370 1.385 . S
C372 C370 1.478 1_554 S
C372 C374 1.381 . S
C372 C378 1.383 . S
C373 C369 1.495 . S
C373 H379 0.959 . S
C373 H380 0.959 1_556 S
C373 H381 0.960 1_556 S
C374 C372 1.381 . S
C374 C375 1.394 . S
C374 H382 0.930 . S
C375 C374 1.394 . S
C375 C376 1.383 . S
C375 H383 0.929 . S
C376 C375 1.383 . S
C376 C377 1.377 . S
C377 H361 0.930 . S
C377 C376 1.377 . S
C377 C378 1.379 . S
C378 H362 0.931 1_554 S
C378 C372 1.383 . S
C378 C377 1.379 . S
H379 C373 0.959 . S
H380 C373 0.959 1_554 S
H381 C373 0.960 1_554 S
H382 C374 0.930 . S
H383 C375 0.929 . S
H384 C392 0.929 . S
H385 C394 0.930 . S
H386 C396 0.930 . S
H387 C399 0.929 . S
H388 C402 0.930 . S
H389 C404 0.960 . S
H390 C404 0.960 . S
H391 C404 0.960 . S
C392 H384 0.929 . S
C392 C393 1.377 . S
C392 C394 1.384 . S
C393 C392 1.377 . S
C393 C399 1.390 . S
C394 H385 0.930 . S
C394 C392 1.384 . S
C394 C395 1.372 . S
C395 C394 1.372 . S
C395 C396 1.400 . S
C395 C400 1.490 . S
C396 H386 0.930 . S
C396 C395 1.400 . S
C396 C399 1.386 . S
H397 C413 0.930 . S
H398 C414 0.931 . S
C399 H387 0.929 . S
C399 C393 1.390 . S
C399 C396 1.386 . S
C400 C395 1.490 . S
C400 C402 1.395 . S
C400 C403 1.403 . S
H401 C407 0.930 . S
C402 H388 0.930 . S
C402 C400 1.395 . S
C402 C405 1.403 1_455 S
C403 C400 1.403 . S
C403 C404 1.524 . S
C403 C407 1.400 1_455 S
C404 H389 0.960 . S
C404 H390 0.960 . S
C404 H391 0.960 . S
C404 C403 1.524 . S
C405 C402 1.403 1_655 S
C405 C406 1.392 . S
C405 C409 1.495 . S
C406 C405 1.392 . S
C406 C407 1.385 . S
C406 C408 1.478 . S
C407 H401 0.930 . S
C407 C403 1.400 1_655 S
C407 C406 1.385 . S
C408 C406 1.478 . S
C408 C410 1.381 . S
C408 C414 1.383 . S
C409 C405 1.495 . S
C409 H415 0.959 . S
C409 H416 0.961 . S
C409 H417 0.960 . S
C410 C408 1.381 . S
C410 C411 1.394 . S
C410 H418 0.930 . S
C411 C410 1.394 . S
C411 C412 1.383 . S
C411 H419 0.929 . S
C412 C411 1.383 . S
C412 C413 1.377 . S
C413 H397 0.930 . S
C413 C412 1.377 . S
C413 C414 1.379 . S
C414 H398 0.931 . S
C414 C408 1.383 . S
C414 C413 1.379 . S
H415 C409 0.959 . S
H416 C409 0.961 . S
H417 C409 0.960 . S
H418 C410 0.930 . S
H419 C411 0.929 . S
H420 C428 0.929 . S
H421 C430 0.930 . S
H422 C432 0.930 . S
H423 C435 0.929 . S
H424 C438 0.930 . S
H425 C440 0.960 . S
H426 C440 0.960 . S
H427 C440 0.960 . S
C428 H420 0.929 . S
C428 C429 1.377 . S
C428 C430 1.384 . S
C429 C428 1.377 . S
C429 C435 1.390 . S
C430 H421 0.930 . S
C430 C428 1.384 . S
C430 C431 1.372 . S
C431 C430 1.372 . S
C431 C432 1.400 . S
C431 C436 1.490 . S
C432 H422 0.930 . S
C432 C431 1.400 . S
C432 C435 1.386 . S
H433 C449 0.930 . S
H434 C450 0.931 . S
C435 H423 0.929 . S
C435 C429 1.390 . S
C435 C432 1.386 . S
C436 C431 1.490 . S
C436 C438 1.395 . S
C436 C439 1.403 . S
H437 C443 0.930 . S
C438 H424 0.930 . S
C438 C436 1.395 . S
C438 C441 1.403 1_545 S
C439 C436 1.403 . S
C439 C440 1.524 . S
C439 C443 1.400 1_545 S
C440 H425 0.960 . S
C440 H426 0.960 . S
C440 H427 0.960 . S
C440 C439 1.524 . S
C441 C438 1.403 1_565 S
C441 C442 1.392 . S
C441 C445 1.495 . S
C442 C441 1.392 . S
C442 C443 1.385 . S
C442 C444 1.478 . S
C443 H437 0.930 . S
C443 C439 1.400 1_565 S
C443 C442 1.385 . S
C444 C442 1.478 . S
C444 C446 1.381 . S
C444 C450 1.383 . S
C445 C441 1.495 . S
C445 H451 0.959 . S
C445 H452 0.961 . S
C445 H453 0.960 . S
C446 C444 1.381 . S
C446 C447 1.394 . S
C446 H454 0.930 . S
C447 C446 1.394 . S
C447 C448 1.383 . S
C447 H455 0.929 . S
C448 C447 1.383 . S
C448 C449 1.377 . S
C449 H433 0.930 . S
C449 C448 1.377 . S
C449 C450 1.379 . S
C450 H434 0.931 . S
C450 C444 1.383 . S
C450 C449 1.379 . S
H451 C445 0.959 . S
H452 C445 0.961 . S
H453 C445 0.960 . S
H454 C446 0.930 . S
H455 C447 0.929 . S
H456 C464 0.929 . S
H457 C466 0.930 . S
H458 C468 0.930 . S
H459 C471 0.929 . S
H460 C474 0.930 . S
H461 C476 0.960 . S
H462 C476 0.960 . S
H463 C476 0.960 . S
C464 H456 0.929 . S
C464 C465 1.377 . S
C464 C466 1.384 . S
C465 C464 1.377 . S
C465 C471 1.390 . S
C466 H457 0.930 . S
C466 C464 1.384 . S
C466 C467 1.372 . S
C467 C466 1.372 . S
C467 C468 1.400 . S
C467 C472 1.490 . S
C468 H458 0.930 . S
C468 C467 1.400 . S
C468 C471 1.386 . S
H469 C485 0.930 . S
H470 C486 0.931 . S
C471 H459 0.929 . S
C471 C465 1.390 . S
C471 C468 1.386 . S
C472 C467 1.490 . S
C472 C474 1.395 . S
C472 C475 1.403 . S
H473 C479 0.930 . S
C474 H460 0.930 . S
C474 C472 1.395 . S
C474 C477 1.403 . S
C475 C472 1.403 . S
C475 C476 1.524 . S
C475 C479 1.400 . S
C476 H461 0.960 . S
C476 H462 0.960 . S
C476 H463 0.960 . S
C476 C475 1.524 . S
C477 C474 1.403 . S
C477 C478 1.392 . S
C477 C481 1.495 . S
C478 C477 1.392 . S
C478 C479 1.385 . S
C478 C480 1.478 . S
C479 H473 0.930 . S
C479 C475 1.400 . S
C479 C478 1.385 . S
C480 C478 1.478 . S
C480 C482 1.381 . S
C480 C486 1.383 . S
C481 C477 1.495 . S
C481 H487 0.959 . S
C481 H488 0.961 . S
C481 H489 0.960 . S
C482 C480 1.381 . S
C482 C483 1.394 . S
C482 H490 0.930 . S
C483 C482 1.394 . S
C483 C484 1.383 . S
C483 H491 0.929 . S
C484 C483 1.383 . S
C484 C485 1.377 . S
C485 H469 0.930 . S
C485 C484 1.377 . S
C485 C486 1.379 . S
C486 H470 0.931 . S
C486 C480 1.383 . S
C486 C485 1.379 . S
H487 C481 0.959 . S
H488 C481 0.961 . S
H489 C481 0.960 . S
H490 C482 0.930 . S
H491 C483 0.929 . S
H492 C500 0.929 . S
H493 C502 0.930 . S
H494 C504 0.930 . S
H495 C507 0.929 . S
H496 C510 0.930 . S
H497 C512 0.960 . S
H498 C512 0.960 . S
H499 C512 0.960 . S
C500 H492 0.929 . S
C500 C501 1.377 . S
C500 C502 1.384 . S
C501 C500 1.377 . S
C501 C507 1.390 . S
C502 H493 0.930 . S
C502 C500 1.384 . S
C502 C503 1.372 . S
C503 C502 1.372 . S
C503 C504 1.400 . S
C503 C508 1.490 . S
C504 H494 0.930 . S
C504 C503 1.400 . S
C504 C507 1.386 . S
H505 C521 0.930 . S
H506 C522 0.931 . S
C507 H495 0.929 . S
C507 C501 1.390 . S
C507 C504 1.386 . S
C508 C503 1.490 . S
C508 C510 1.395 . S
C508 C511 1.403 . S
H509 C515 0.930 . S
C510 H496 0.930 . S
C510 C508 1.395 . S
C510 C513 1.403 1_554 S
C511 C508 1.403 . S
C511 C512 1.524 . S
C511 C515 1.400 1_554 S
C512 H497 0.960 . S
C512 H498 0.960 . S
C512 H499 0.960 . S
C512 C511 1.524 . S
C513 C510 1.403 1_556 S
C513 C514 1.392 . S
C513 C517 1.495 . S
C514 C513 1.392 . S
C514 C515 1.385 . S
C514 C516 1.478 . S
C515 H509 0.930 . S
C515 C511 1.400 1_556 S
C515 C514 1.385 . S
C516 C514 1.478 . S
C516 C518 1.381 . S
C516 C522 1.383 . S
C517 C513 1.495 . S
C517 H523 0.959 . S
C517 H524 0.961 . S
C517 H525 0.960 . S
C518 C516 1.381 . S
C518 C519 1.394 . S
C518 H526 0.930 . S
C519 C518 1.394 . S
C519 C520 1.383 . S
C519 H527 0.929 . S
C520 C519 1.383 . S
C520 C521 1.377 . S
C521 H505 0.930 . S
C521 C520 1.377 . S
C521 C522 1.379 . S
C522 H506 0.931 . S
C522 C516 1.383 . S
C522 C521 1.379 . S
H523 C517 0.959 . S
H524 C517 0.961 . S
H525 C517 0.960 . S
H526 C518 0.930 . S
H527 C519 0.929 . S
H528 C536 0.929 . S
H529 C538 0.930 . S
H530 C540 0.930 . S
H531 C543 0.929 . S
H532 C546 0.930 . S
H533 C548 0.960 . S
H534 C548 0.960 . S
H535 C548 0.960 . S
C536 H528 0.929 . S
C536 C537 1.377 . S
C536 C538 1.384 . S
C537 C536 1.377 . S
C537 C543 1.390 . S
C538 H529 0.930 . S
C538 C536 1.384 . S
C538 C539 1.372 . S
C539 C538 1.372 . S
C539 C540 1.400 . S
C539 C544 1.490 . S
C540 H530 0.930 . S
C540 C539 1.400 . S
C540 C543 1.386 . S
H541 C557 0.930 . S
H542 C558 0.931 . S
C543 H531 0.929 . S
C543 C537 1.390 . S
C543 C540 1.386 . S
C544 C539 1.490 . S
C544 C546 1.395 . S
C544 C547 1.403 . S
H545 C551 0.930 . S
C546 H532 0.930 . S
C546 C544 1.395 . S
C546 C549 1.403 . S
C547 C544 1.403 . S
C547 C548 1.524 . S
C547 C551 1.400 . S
C548 H533 0.960 . S
C548 H534 0.960 . S
C548 H535 0.960 . S
C548 C547 1.524 . S
C549 C546 1.403 . S
C549 C550 1.392 . S
C549 C553 1.495 . S
C550 C549 1.392 . S
C550 C551 1.385 . S
C550 C552 1.478 . S
C551 H545 0.930 . S
C551 C547 1.400 . S
C551 C550 1.385 . S
C552 C550 1.478 . S
C552 C554 1.381 . S
C552 C558 1.383 . S
C553 C549 1.495 . S
C553 H559 0.959 . S
C553 H560 0.961 . S
C553 H561 0.960 . S
C554 C552 1.381 . S
C554 C555 1.394 . S
C554 H562 0.930 . S
C555 C554 1.394 . S
C555 C556 1.393 . S
C555 H563 0.929 . S
C556 C555 1.393 . S
C556 C557 1.384 . S
C557 H541 0.930 . S
C557 C556 1.384 . S
C557 C558 1.379 . S
C558 H542 0.931 . S
C558 C552 1.383 . S
C558 C557 1.379 . S
H559 C553 0.959 . S
H560 C553 0.961 . S
H561 C553 0.960 . S
H562 C554 0.930 . S
H563 C555 0.929 . S
H564 C572 0.929 . S
H565 C574 0.930 . S
H566 C576 0.930 . S
H567 C579 0.929 . S
H568 C582 0.930 . S
H569 C584 0.960 . S
H570 C584 0.960 . S
H571 C584 0.960 . S
C572 H564 0.929 . S
C572 C573 1.377 . S
C572 C574 1.384 . S
C573 C572 1.377 . S
C573 C579 1.390 . S
C574 H565 0.930 . S
C574 C572 1.384 . S
C574 C575 1.372 . S
C575 C574 1.372 . S
C575 C576 1.400 . S
C575 C580 1.490 . S
C576 H566 0.930 . S
C576 C575 1.400 . S
C576 C579 1.386 . S
H577 C593 0.930 . S
H578 C594 0.931 . S
C579 H567 0.929 . S
C579 C573 1.390 . S
C579 C576 1.386 . S
C580 C575 1.490 . S
C580 C582 1.395 . S
C580 C583 1.403 . S
H581 C587 0.930 . S
C582 H568 0.930 . S
C582 C580 1.395 . S
C582 C585 1.403 . S
C583 C580 1.403 . S
C583 C584 1.524 . S
C583 C587 1.400 . S
C584 H569 0.960 . S
C584 H570 0.960 . S
C584 H571 0.960 . S
C584 C583 1.524 . S
C585 C582 1.403 . S
C585 C586 1.392 . S
C585 C589 1.495 . S
C586 C585 1.392 . S
C586 C587 1.385 . S
C586 C588 1.478 . S
C587 H581 0.930 . S
C587 C583 1.400 . S
C587 C586 1.385 . S
C588 C586 1.478 . S
C588 C590 1.381 . S
C588 C594 1.383 . S
C589 C585 1.495 . S
C589 H595 0.959 . S
C589 H596 0.961 . S
C589 H597 0.960 . S
C590 C588 1.381 . S
C590 C591 1.394 . S
C590 H598 0.930 . S
C591 C590 1.394 . S
C591 C592 1.383 . S
C591 H599 0.929 . S
C592 C591 1.383 . S
C592 C593 1.377 . S
C593 H577 0.930 . S
C593 C592 1.377 . S
C593 C594 1.379 . S
C594 H578 0.931 . S
C594 C588 1.383 . S
C594 C593 1.379 . S
H595 C589 0.959 . S
H596 C589 0.961 . S
H597 C589 0.960 . S
H598 C590 0.930 . S
H599 C591 0.929 . S
H600 C608 0.929 . S
H601 C610 0.930 . S
H602 C612 0.930 . S
H603 C615 0.929 . S
H604 C618 0.930 . S
H605 C620 0.960 . S
H606 C620 0.960 . S
H607 C620 0.960 . S
C608 H600 0.929 . S
C608 C609 1.377 . S
C608 C610 1.384 . S
C609 C608 1.377 . S
C609 C615 1.390 . S
C610 H601 0.930 . S
C610 C608 1.384 . S
C610 C611 1.372 . S
C611 C610 1.372 . S
C611 C612 1.400 . S
C611 C616 1.490 . S
C612 H602 0.930 . S
C612 C611 1.400 . S
C612 C615 1.386 . S
H613 C629 0.930 . S
H614 C630 0.931 . S
C615 H603 0.929 . S
C615 C609 1.390 . S
C615 C612 1.386 . S
C616 C611 1.490 . S
C616 C618 1.395 . S
C616 C619 1.403 . S
H617 C623 0.930 . S
C618 H604 0.930 . S
C618 C616 1.395 . S
C618 C621 1.403 . S
C619 C616 1.403 . S
C619 C620 1.524 . S
C619 C623 1.400 . S
C620 H605 0.960 . S
C620 H606 0.960 . S
C620 H607 0.960 . S
C620 C619 1.524 . S
C621 C618 1.403 . S
C621 C622 1.392 . S
C621 C625 1.495 . S
C622 C621 1.392 . S
C622 C623 1.385 . S
C622 C624 1.478 . S
C623 H617 0.930 . S
C623 C619 1.400 . S
C623 C622 1.385 . S
C624 C622 1.478 . S
C624 C626 1.381 . S
C624 C630 1.383 . S
C625 C621 1.495 . S
C625 H631 0.959 . S
C625 H632 0.961 . S
C625 H633 0.960 . S
C626 C624 1.381 . S
C626 C627 1.394 1_556 S
C626 H634 0.930 . S
C627 C626 1.394 1_554 S
C627 C628 1.383 . S
C627 H635 0.929 . S
C628 C627 1.383 . S
C628 C629 1.377 . S
C629 H613 0.930 . S
C629 C628 1.377 . S
C629 C630 1.379 1_554 S
C630 H614 0.931 . S
C630 C624 1.383 . S
C630 C629 1.379 1_556 S
H631 C625 0.959 . S
H632 C625 0.961 . S
H633 C625 0.960 . S
H634 C626 0.930 . S
H635 C627 0.929 . S
H636 C644 0.929 . S
H637 C646 0.930 . S
H638 C648 0.930 . S
H639 C651 0.929 . S
H640 C654 0.930 . S
H641 C656 0.960 . S
H642 C656 0.960 . S
H643 C656 0.960 . S
C644 H636 0.929 . S
C644 C645 1.377 . S
C644 C646 1.384 . S
C645 C644 1.377 . S
C645 C651 1.390 . S
C646 H637 0.930 . S
C646 C644 1.384 . S
C646 C647 1.372 . S
C647 C646 1.372 . S
C647 C648 1.400 . S
C647 C652 1.490 . S
C648 H638 0.930 . S
C648 C647 1.400 . S
C648 C651 1.386 . S
H649 C665 0.930 . S
H650 C666 0.931 . S
C651 H639 0.929 . S
C651 C645 1.390 . S
C651 C648 1.386 . S
C652 C647 1.490 . S
C652 C654 1.395 . S
C652 C655 1.403 . S
H653 C659 0.930 . S
C654 H640 0.930 . S
C654 C652 1.395 . S
C654 C657 1.403 . S
C655 C652 1.403 . S
C655 C656 1.524 . S
C655 C659 1.400 . S
C656 H641 0.960 . S
C656 H642 0.960 . S
C656 H643 0.960 . S
C656 C655 1.524 . S
C657 C654 1.403 . S
C657 C658 1.392 . S
C657 C661 1.495 . S
C658 C657 1.392 . S
C658 C659 1.385 . S
C658 C660 1.478 . S
C659 H653 0.930 . S
C659 C655 1.400 . S
C659 C658 1.385 . S
C660 C658 1.478 . S
C660 C662 1.381 . S
C660 C666 1.383 . S
C661 C657 1.495 . S
C661 H667 0.959 . S
C661 H668 0.961 . S
C661 H669 0.960 . S
C662 C660 1.381 . S
C662 C663 1.394 . S
C662 H670 0.930 . S
C663 C662 1.394 . S
C663 C664 1.383 . S
C663 H671 0.929 . S
C664 C663 1.383 . S
C664 C665 1.377 . S
C665 H649 0.930 . S
C665 C664 1.377 . S
C665 C666 1.379 . S
C666 H650 0.931 . S
C666 C660 1.383 . S
C666 C665 1.379 . S
H667 C661 0.959 . S
H668 C661 0.961 . S
H669 C661 0.960 . S
H670 C662 0.930 . S
H671 C663 0.929 . S
H672 C680 0.929 . S
H673 C682 0.930 . S
H674 C684 0.930 . S
H675 C687 0.929 . S
H676 C690 0.930 . S
H677 C692 0.960 . S
H678 C692 0.960 . S
H679 C692 0.960 . S
C680 H672 0.929 . S
C680 C681 1.377 . S
C680 C682 1.384 . S
C681 C680 1.377 . S
C681 C687 1.390 . S
C682 H673 0.930 . S
C682 C680 1.384 . S
C682 C683 1.372 . S
C683 C682 1.372 . S
C683 C684 1.400 . S
C683 C688 1.490 . S
C684 H674 0.930 . S
C684 C683 1.400 . S
C684 C687 1.386 . S
H685 C701 0.930 . S
H686 C702 0.931 . S
C687 H675 0.929 . S
C687 C681 1.390 . S
C687 C684 1.386 . S
C688 C683 1.490 . S
C688 C690 1.395 . S
C688 C691 1.403 . S
H689 C695 0.930 . S
C690 H676 0.930 . S
C690 C688 1.395 . S
C690 C693 1.403 . S
C691 C688 1.403 . S
C691 C692 1.524 . S
C691 C695 1.400 . S
C692 H677 0.960 . S
C692 H678 0.960 . S
C692 H679 0.960 . S
C692 C691 1.524 . S
C693 C690 1.403 . S
C693 C694 1.392 . S
C693 C697 1.495 . S
C694 C693 1.392 . S
C694 C695 1.385 . S
C694 C696 1.478 . S
C695 H689 0.930 . S
C695 C691 1.400 . S
C695 C694 1.385 . S
C696 C694 1.478 . S
C696 C698 1.381 . S
C696 C702 1.383 . S
C697 C693 1.495 . S
C697 H703 0.959 . S
C697 H704 0.961 . S
C697 H705 0.960 . S
C698 C696 1.381 . S
C698 C699 1.394 . S
C698 H706 0.930 . S
C699 C698 1.394 . S
C699 C700 1.383 . S
C699 H707 0.929 . S
C700 C699 1.383 . S
C700 C701 1.377 . S
C701 H685 0.930 . S
C701 C700 1.377 . S
C701 C702 1.379 . S
C702 H686 0.931 . S
C702 C696 1.383 . S
C702 C701 1.379 . S
H703 C697 0.959 . S
H704 C697 0.961 . S
H705 C697 0.960 . S
H706 C698 0.930 . S
H707 C699 0.929 . S
H708 C716 0.929 . S
H709 C718 0.930 . S
H710 C720 0.930 . S
H711 C723 0.929 . S
H712 C726 0.930 . S
H713 C728 0.960 . S
H714 C728 0.960 . S
H715 C728 0.960 . S
C716 H708 0.929 . S
C716 C717 1.377 . S
C716 C718 1.384 . S
C717 C716 1.377 . S
C717 C723 1.390 . S
C718 H709 0.930 . S
C718 C716 1.384 . S
C718 C719 1.372 . S
C719 C718 1.372 . S
C719 C720 1.400 . S
C719 C724 1.490 . S
C720 H710 0.930 . S
C720 C719 1.400 . S
C720 C723 1.386 . S
H721 C737 0.930 . S
H722 C738 0.931 . S
C723 H711 0.929 . S
C723 C717 1.390 . S
C723 C720 1.386 . S
C724 C719 1.490 . S
C724 C726 1.395 . S
C724 C727 1.403 . S
H725 C731 0.930 . S
C726 H712 0.930 . S
C726 C724 1.395 . S
C726 C729 1.403 . S
C727 C724 1.403 . S
C727 C728 1.524 . S
C727 C731 1.400 . S
C728 H713 0.960 . S
C728 H714 0.960 . S
C728 H715 0.960 . S
C728 C727 1.524 . S
C729 C726 1.403 . S
C729 C730 1.392 . S
C729 C733 1.495 . S
C730 C729 1.392 . S
C730 C731 1.385 . S
C730 C732 1.478 . S
C731 H725 0.930 . S
C731 C727 1.400 . S
C731 C730 1.385 . S
C732 C730 1.478 . S
C732 C734 1.381 . S
C732 C738 1.383 . S
C733 C729 1.495 . S
C733 H739 0.959 . S
C733 H740 0.961 . S
C733 H741 0.960 . S
C734 C732 1.381 . S
C734 C735 1.394 . S
C734 H742 0.930 . S
C735 C734 1.394 . S
C735 C736 1.383 . S
C735 H743 0.929 . S
C736 C735 1.383 . S
C736 C737 1.377 . S
C737 H721 0.930 . S
C737 C736 1.377 . S
C737 C738 1.379 . S
C738 H722 0.931 . S
C738 C732 1.383 . S
C738 C737 1.379 . S
H739 C733 0.959 . S
H740 C733 0.961 . S
H741 C733 0.960 . S
H742 C734 0.930 . S
H743 C735 0.929 . S
H744 C752 0.929 . S
H745 C754 0.930 . S
H746 C756 0.930 . S
H747 C759 0.929 . S
H748 C762 0.930 . S
H749 C764 0.960 . S
H750 C764 0.960 . S
H751 C764 0.960 . S
C752 H744 0.929 . S
C752 C753 1.377 . S
C752 C754 1.384 . S
C753 C752 1.377 . S
C753 C759 1.390 . S
C754 H745 0.930 . S
C754 C752 1.384 . S
C754 C755 1.372 . S
C755 C754 1.372 . S
C755 C756 1.400 . S
C755 C760 1.490 . S
C756 H746 0.930 . S
C756 C755 1.400 . S
C756 C759 1.386 . S
H757 C773 0.930 . S
H758 C774 0.931 . S
C759 H747 0.929 . S
C759 C753 1.390 . S
C759 C756 1.386 . S
C760 C755 1.490 . S
C760 C762 1.395 . S
C760 C763 1.403 . S
H761 C767 0.930 . S
C762 H748 0.930 . S
C762 C760 1.395 . S
C762 C765 1.403 . S
C763 C760 1.403 . S
C763 C764 1.524 . S
C763 C767 1.400 . S
C764 H749 0.960 . S
C764 H750 0.960 . S
C764 H751 0.960 . S
C764 C763 1.524 . S
C765 C762 1.403 . S
C765 C766 1.392 . S
C765 C769 1.495 . S
C766 C765 1.392 . S
C766 C767 1.385 . S
C766 C768 1.478 . S
C767 H761 0.930 . S
C767 C763 1.400 . S
C767 C766 1.385 . S
C768 C766 1.478 . S
C768 C770 1.381 . S
C768 C774 1.383 . S
C769 C765 1.495 . S
C769 H775 0.959 . S
C769 H776 0.961 . S
C769 H777 0.960 . S
C770 C768 1.381 . S
C770 C771 1.394 . S
C770 H778 0.930 . S
C771 C770 1.394 . S
C771 C772 1.383 . S
C771 H779 0.929 . S
C772 C771 1.383 . S
C772 C773 1.377 . S
C773 H757 0.930 . S
C773 C772 1.377 . S
C773 C774 1.379 . S
C774 H758 0.931 . S
C774 C768 1.383 . S
C774 C773 1.379 . S
H775 C769 0.959 . S
H776 C769 0.961 . S
H777 C769 0.960 . S
H778 C770 0.930 . S
H779 C771 0.929 . S
H780 C788 0.929 . S
H781 C790 0.930 . S
H782 C792 0.930 . S
H783 C795 0.929 . S
H784 C798 0.930 . S
H785 C800 0.960 . S
H786 C800 0.960 . S
H787 C800 0.960 . S
C788 H780 0.929 . S
C788 C789 1.377 . S
C788 C790 1.384 . S
C789 C788 1.377 . S
C789 C795 1.390 . S
C790 H781 0.930 . S
C790 C788 1.384 . S
C790 C791 1.372 . S
C791 C790 1.372 . S
C791 C792 1.400 . S
C791 C796 1.490 . S
C792 H782 0.930 . S
C792 C791 1.400 . S
C792 C795 1.386 . S
H793 C809 0.930 . S
H794 C810 0.931 . S
C795 H783 0.929 . S
C795 C789 1.390 . S
C795 C792 1.386 . S
C796 C791 1.490 . S
C796 C798 1.395 . S
C796 C799 1.403 . S
H797 C803 0.930 . S
C798 H784 0.930 . S
C798 C796 1.395 . S
C798 C801 1.403 . S
C799 C796 1.403 . S
C799 C800 1.524 . S
C799 C803 1.400 . S
C800 H785 0.960 . S
C800 H786 0.960 . S
C800 H787 0.960 . S
C800 C799 1.524 . S
C801 C798 1.403 . S
C801 C802 1.392 . S
C801 C805 1.495 . S
C802 C801 1.392 . S
C802 C803 1.385 . S
C802 C804 1.478 . S
C803 H797 0.930 . S
C803 C799 1.400 . S
C803 C802 1.385 . S
C804 C802 1.478 . S
C804 C806 1.381 . S
C804 C810 1.383 . S
C805 C801 1.495 . S
C805 H811 0.959 . S
C805 H812 0.961 . S
C805 H813 0.960 . S
C806 C804 1.381 . S
C806 C807 1.394 . S
C806 H814 0.930 . S
C807 C806 1.394 . S
C807 C808 1.383 . S
C807 H815 0.929 . S
C808 C807 1.383 . S
C808 C809 1.377 . S
C809 H793 0.930 . S
C809 C808 1.377 . S
C809 C810 1.379 . S
C810 H794 0.931 . S
C810 C804 1.383 . S
C810 C809 1.379 . S
H811 C805 0.959 . S
H812 C805 0.961 . S
H813 C805 0.960 . S
H814 C806 0.930 . S
H815 C807 0.929 . S
H816 C824 0.929 . S
H817 C826 0.930 . S
H818 C828 0.930 . S
H819 C831 0.929 . S
H820 C834 0.930 . S
H821 C836 0.960 . S
H822 C836 0.960 . S
H823 C836 0.960 . S
C824 H816 0.929 . S
C824 C825 1.377 . S
C824 C826 1.384 . S
C825 C824 1.377 . S
C825 C831 1.390 . S
C826 H817 0.930 . S
C826 C824 1.384 . S
C826 C827 1.372 . S
C827 C826 1.372 . S
C827 C828 1.400 . S
C827 C832 1.490 . S
C828 H818 0.930 . S
C828 C827 1.400 . S
C828 C831 1.386 . S
H829 C845 0.930 . S
H830 C846 0.931 . S
C831 H819 0.929 . S
C831 C825 1.390 . S
C831 C828 1.386 . S
C832 C827 1.490 . S
C832 C834 1.395 . S
C832 C835 1.403 . S
H833 C839 0.930 . S
C834 H820 0.930 . S
C834 C832 1.395 . S
C834 C837 1.403 . S
C835 C832 1.403 . S
C835 C836 1.524 . S
C835 C839 1.400 . S
C836 H821 0.960 . S
C836 H822 0.960 . S
C836 H823 0.960 . S
C836 C835 1.524 . S
C837 C834 1.403 . S
C837 C838 1.392 . S
C837 C841 1.495 . S
C838 C837 1.392 . S
C838 C839 1.385 . S
C838 C840 1.478 . S
C839 H833 0.930 . S
C839 C835 1.400 . S
C839 C838 1.385 . S
C840 C838 1.478 . S
C840 C842 1.381 . S
C840 C846 1.383 . S
C841 C837 1.495 . S
C841 H847 0.959 . S
C841 H848 0.961 . S
C841 H849 0.960 . S
C842 C840 1.381 . S
C842 C843 1.394 . S
C842 H850 0.930 . S
C843 C842 1.394 . S
C843 C844 1.383 . S
C843 H851 0.929 . S
C844 C843 1.383 . S
C844 C845 1.377 . S
C845 H829 0.930 . S
C845 C844 1.377 . S
C845 C846 1.379 . S
C846 H830 0.931 . S
C846 C840 1.383 . S
C846 C845 1.379 . S
H847 C841 0.959 . S
H848 C841 0.961 . S
H849 C841 0.960 . S
H850 C842 0.930 . S
H851 C843 0.929 . S
H852 C860 0.929 . S
H853 C862 0.930 . S
H854 C864 0.930 . S
H855 C867 0.929 . S
H856 C870 0.930 1_556 S
H857 C872 0.960 . S
H858 C872 0.960 . S
H859 C872 0.960 . S
C860 H852 0.929 . S
C860 C861 1.377 . S
C860 C862 1.384 . S
C861 C860 1.377 . S
C861 C867 1.390 . S
C862 H853 0.930 . S
C862 C860 1.384 . S
C862 C863 1.372 . S
C863 C862 1.372 . S
C863 C864 1.400 . S
C863 C868 1.490 . S
C864 H854 0.930 . S
C864 C863 1.400 . S
C864 C867 1.386 . S
H865 C881 0.930 . S
H866 C882 0.931 . S
C867 H855 0.929 . S
C867 C861 1.390 . S
C867 C864 1.386 . S
C868 C863 1.490 . S
C868 C870 1.395 . S
C868 C871 1.403 . S
H869 C875 0.930 . S
C870 H856 0.930 1_554 S
C870 C868 1.395 . S
C870 C873 1.403 1_554 S
C871 C868 1.403 . S
C871 C872 1.524 . S
C871 C875 1.400 . S
C872 H857 0.960 . S
C872 H858 0.960 . S
C872 H859 0.960 . S
C872 C871 1.524 . S
C873 C870 1.403 1_556 S
C873 C874 1.392 1_556 S
C873 C877 1.495 . S
C874 C873 1.392 1_554 S
C874 C875 1.385 . S
C874 C876 1.478 1_554 S
C875 H869 0.930 . S
C875 C871 1.400 . S
C875 C874 1.385 . S
C876 C874 1.478 1_556 S
C876 C878 1.381 . S
C876 C882 1.383 . S
C877 C873 1.495 . S
C877 H883 0.959 . S
C877 H884 0.961 . S
C877 H885 0.960 . S
C878 C876 1.381 . S
C878 C879 1.394 . S
C878 H886 0.930 . S
C879 C878 1.394 . S
C879 C880 1.383 . S
C879 H887 0.929 . S
C880 C879 1.383 . S
C880 C881 1.377 . S
C881 H865 0.930 . S
C881 C880 1.377 . S
C881 C882 1.379 . S
C882 H866 0.931 . S
C882 C876 1.383 . S
C882 C881 1.379 . S
H883 C877 0.959 . S
H884 C877 0.961 . S
H885 C877 0.960 . S
H886 C878 0.930 . S
H887 C879 0.929 . S
C249 C202 1.329 . S
C268 C2 1.322 1_556 S
C285 C22 1.569 . S
C304 C62 1.551 . S
C321 C42 1.327 . S
C340 C82 1.342 . S
C357 C102 1.572 . S
C376 C142 1.564 . S
C393 C162 1.322 . S
C412 C122 1.362 . S
C429 C222 1.569 . S
C448 C182 1.553 . S
C465 C26 0.994 . S
C484 C9 1.006 . S
C501 C49 0.987 . S
C520 C66 0.973 . S
C537 C106 0.993 . S
C556 C89 0.991 1_554 S
C573 C129 0.987 . S
C592 C146 0.990 . S
C609 C169 0.994 . S
C628 C186 0.992 . S
C645 C209 0.987 . S
C664 C226 0.988 . S
C681 C15 1.826 . S
C700 C163 1.825 . S
C717 C43 1.824 . S
C736 C215 1.822 . S
C753 C3 1.824 . S
C772 C95 1.825 . S
C789 C55 1.827 . S
C808 C123 1.826 . S
C825 C175 1.827 . S
C844 C83 1.816 . S
C861 C135 1.827 . S
C880 C203 1.816 . S
