# Generated by pormake.
# Topology snw, (6)-cn, num edge types: 1
# Building blocks:
#     Node 0, Type 0, BuildingBlock: OJICUG_clean_sbu_0, # of connection points: 6
#     Node 1, Type 0, BuildingBlock: OJICUG_clean_sbu_0, # of connection points: 6
#     Node 2, Type 0, BuildingBlock: OJICUG_clean_sbu_0, # of connection points: 6
#     Node 3, Type 0, BuildingBlock: OJICUG_clean_sbu_0, # of connection points: 6
#     Node 4, Type 0, BuildingBlock: OJICUG_clean_sbu_0, # of connection points: 6
#     Node 5, Type 0, BuildingBlock: OJICUG_clean_sbu_0, # of connection points: 6
#     Node 6, Type 0, BuildingBlock: OJICUG_clean_sbu_0, # of connection points: 6
#     Node 7, Type 0, BuildingBlock: OJICUG_clean_sbu_0, # of connection points: 6
#     Edge 8, Type (0, 0), BuildingBlock: OJICUG_clean_linker_0, # of connection points: 2
#     Edge 9, Type (0, 0), BuildingBlock: OJICUG_clean_linker_0, # of connection points: 2
#     Edge 10, Type (0, 0), BuildingBlock: OJICUG_clean_linker_0, # of connection points: 2
#     Edge 11, Type (0, 0), BuildingBlock: OJICUG_clean_linker_0, # of connection points: 2
#     Edge 12, Type (0, 0), BuildingBlock: OJICUG_clean_linker_0, # of connection points: 2
#     Edge 13, Type (0, 0), BuildingBlock: OJICUG_clean_linker_0, # of connection points: 2
#     Edge 14, Type (0, 0), BuildingBlock: OJICUG_clean_linker_0, # of connection points: 2
#     Edge 15, Type (0, 0), BuildingBlock: OJICUG_clean_linker_0, # of connection points: 2
#     Edge 16, Type (0, 0), BuildingBlock: OJICUG_clean_linker_0, # of connection points: 2
#     Edge 17, Type (0, 0), BuildingBlock: OJICUG_clean_linker_0, # of connection points: 2
#     Edge 18, Type (0, 0), BuildingBlock: OJICUG_clean_linker_0, # of connection points: 2
#     Edge 19, Type (0, 0), BuildingBlock: OJICUG_clean_linker_0, # of connection points: 2
#     Edge 20, Type (0, 0), BuildingBlock: OJICUG_clean_linker_0, # of connection points: 2
#     Edge 21, Type (0, 0), BuildingBlock: OJICUG_clean_linker_0, # of connection points: 2
#     Edge 22, Type (0, 0), BuildingBlock: OJICUG_clean_linker_0, # of connection points: 2
#     Edge 23, Type (0, 0), BuildingBlock: OJICUG_clean_linker_0, # of connection points: 2
#     Edge 24, Type (0, 0), BuildingBlock: OJICUG_clean_linker_0, # of connection points: 2
#     Edge 25, Type (0, 0), BuildingBlock: OJICUG_clean_linker_0, # of connection points: 2
#     Edge 26, Type (0, 0), BuildingBlock: OJICUG_clean_linker_0, # of connection points: 2
#     Edge 27, Type (0, 0), BuildingBlock: OJICUG_clean_linker_0, # of connection points: 2
#     Edge 28, Type (0, 0), BuildingBlock: OJICUG_clean_linker_0, # of connection points: 2
#     Edge 29, Type (0, 0), BuildingBlock: OJICUG_clean_linker_0, # of connection points: 2
#     Edge 30, Type (0, 0), BuildingBlock: OJICUG_clean_linker_0, # of connection points: 2
#     Edge 31, Type (0, 0), BuildingBlock: OJICUG_clean_linker_0, # of connection points: 2
# Relax obj value: 0.000
# Max RMSD: 0.008
# Mean RMSD: 0.008
data_MOF--net-snw--node1-OJICUG_clean_sbu_0--edge1-OJICUG_clean_linker_0
_symmetry_space_group_name_H-M    P1
_symmetry_Int_Tables_number       1
_symmetry_cell_setting            triclinic
loop_
_symmetry_equiv_pos_as_xyz
'x, y, z'
_cell_length_a     16.523347
_cell_length_b     16.494713
_cell_length_c     56.866434
_cell_angle_alpha  90.02722
_cell_angle_beta   89.996862
_cell_angle_gamma 89.986174
loop_
_atom_site_label
_atom_site_type_symbol
_atom_site_fract_x
_atom_site_fract_y
_atom_site_fract_z
_atom_type_partial_charge
Sc0 Sc 0.09706 0.24081 0.05263 0.0
Sc1 Sc 0.88418 0.24085 0.05265 0.0
Sc2 Sc -0.00933 0.24086 0.10652 0.0
O3 O -0.00936 0.24084 0.07063 0.0
C4 C 0.13634 0.11961 0.09496 0.0
C5 C -0.00942 0.11975 0.02164 0.0
C6 C 0.84488 0.11972 0.09499 0.0
C7 C -0.00943 0.3619 0.02167 0.0
C8 C 0.13645 0.36197 0.09499 0.0
C9 C 0.84498 0.36209 0.09501 0.0
O10 O 0.14821 0.14699 0.07435 0.0
O11 O 0.92307 0.14734 0.02878 0.0
O12 O 0.89925 0.14752 0.10864 0.0
O13 O 0.05811 0.33432 0.02878 0.0
O14 O 0.08209 0.3342 0.10864 0.0
O15 O 0.83307 0.33466 0.0744 0.0
O16 O 0.14823 0.33463 0.07436 0.0
O17 O 0.92306 0.33437 0.02881 0.0
O18 O 0.89939 0.33434 0.10865 0.0
O19 O 0.05811 0.14727 0.02877 0.0
O20 O 0.08195 0.14739 0.10861 0.0
O21 O 0.83306 0.14704 0.07437 0.0
Sc22 Sc -0.00946 0.84801 0.3025 0.0
Sc23 Sc -0.00936 0.63474 0.30252 0.0
Sc24 Sc -0.00941 0.74152 0.35638 0.0
O25 O -0.00941 0.74142 0.3205 0.0
C26 C 0.11149 0.88753 0.34484 0.0
C27 C 0.11152 0.74132 0.27154 0.0
C28 C 0.11174 0.59568 0.34486 0.0
C29 C 0.86967 0.74125 0.27154 0.0
C30 C 0.86944 0.8873 0.34483 0.0
C31 C 0.86969 0.59544 0.34487 0.0
O32 O 0.0842 0.89932 0.32422 0.0
O33 O 0.08401 0.6737 0.27867 0.0
O34 O 0.08398 0.65019 0.35849 0.0
O35 O 0.89718 0.80892 0.27866 0.0
O36 O 0.8972 0.83286 0.35848 0.0
O37 O 0.89699 0.58354 0.32425 0.0
O38 O 0.89683 0.89923 0.32423 0.0
O39 O 0.89724 0.67364 0.27867 0.0
O40 O 0.89745 0.64992 0.35851 0.0
O41 O 0.08395 0.80898 0.27865 0.0
O42 O 0.08372 0.83313 0.35849 0.0
O43 O 0.08435 0.58365 0.32426 0.0
Sc44 Sc 0.59678 0.74181 0.55266 0.0
Sc45 Sc 0.3839 0.74176 0.55262 0.0
Sc46 Sc 0.49023 0.7422 0.60652 0.0
O47 O 0.4903 0.74192 0.57063 0.0
C48 C 0.63596 0.62093 0.59508 0.0
C49 C 0.49049 0.6205 0.52171 0.0
C50 C 0.34447 0.62096 0.59503 0.0
C51 C 0.49034 0.86265 0.5216 0.0
C52 C 0.63599 0.86329 0.59494 0.0
C53 C 0.34457 0.86332 0.5949 0.0
O54 O 0.64792 0.64825 0.57447 0.0
O55 O 0.42295 0.64816 0.52879 0.0
O56 O 0.39873 0.64894 0.60868 0.0
O57 O 0.55785 0.83508 0.52873 0.0
O58 O 0.58168 0.83551 0.60861 0.0
O59 O 0.33263 0.83565 0.57432 0.0
O60 O 0.6478 0.83588 0.57433 0.0
O61 O 0.42281 0.8352 0.52875 0.0
O62 O 0.39902 0.83576 0.60855 0.0
O63 O 0.55799 0.64803 0.52886 0.0
O64 O 0.58147 0.6487 0.6087 0.0
O65 O 0.33279 0.64803 0.57438 0.0
Sc66 Sc 0.49033 0.34723 0.80256 0.0
Sc67 Sc 0.49035 0.13397 0.80245 0.0
Sc68 Sc 0.49028 0.24038 0.85638 0.0
O69 O 0.49032 0.24052 0.82049 0.0
C70 C 0.61128 0.38639 0.84493 0.0
C71 C 0.61131 0.24078 0.77156 0.0
C72 C 0.61135 0.09451 0.84479 0.0
C73 C 0.36947 0.24082 0.77152 0.0
C74 C 0.3692 0.38627 0.8449 0.0
C75 C 0.36932 0.09443 0.84477 0.0
O76 O 0.58398 0.39833 0.82432 0.0
O77 O 0.58381 0.17308 0.77863 0.0
O78 O 0.58361 0.14898 0.85844 0.0
O79 O 0.39699 0.30839 0.77869 0.0
O80 O 0.39692 0.33176 0.85852 0.0
O81 O 0.39661 0.08265 0.82414 0.0
O82 O 0.39663 0.39831 0.82431 0.0
O83 O 0.39699 0.17311 0.77859 0.0
O84 O 0.39711 0.14882 0.85844 0.0
O85 O 0.58372 0.30836 0.77871 0.0
O86 O 0.58348 0.33192 0.85856 0.0
O87 O 0.584 0.08263 0.82418 0.0
Sc88 Sc 0.99028 0.74042 0.86764 0.0
Sc89 Sc 0.09679 0.74061 0.92151 0.0
Sc90 Sc 0.88391 0.74068 0.92154 0.0
O91 O 0.99033 0.74058 0.90353 0.0
C92 C 0.84458 0.86168 0.87916 0.0
C93 C 0.1361 0.86156 0.87912 0.0
C94 C -0.00958 0.86186 0.95247 0.0
C95 C 0.13593 0.61919 0.8792 0.0
C96 C 0.84454 0.61933 0.87923 0.0
C97 C 0.99039 0.61971 0.95254 0.0
O98 O 0.89897 0.83386 0.86552 0.0
O99 O 0.14793 0.8343 0.89974 0.0
O100 O 0.92288 0.83431 0.94536 0.0
O101 O 0.08156 0.64694 0.86555 0.0
O102 O 0.83273 0.64677 0.89984 0.0
O103 O 0.0579 0.64722 0.94539 0.0
O104 O 0.89889 0.64705 0.86557 0.0
O105 O 0.14785 0.64667 0.8998 0.0
O106 O 0.92286 0.64725 0.94542 0.0
O107 O 0.0817 0.83376 0.86548 0.0
O108 O 0.83275 0.8344 0.89978 0.0
O109 O 0.05793 0.83425 0.94535 0.0
Sc110 Sc 0.49066 0.74088 0.11778 0.0
Sc111 Sc 0.4906 0.84764 0.17165 0.0
Sc112 Sc 0.49064 0.63437 0.17167 0.0
O113 O 0.49063 0.74096 0.15367 0.0
C114 C 0.36968 0.59492 0.12932 0.0
C115 C 0.36958 0.88679 0.1293 0.0
C116 C 0.36967 0.74109 0.20262 0.0
C117 C 0.61163 0.88688 0.12931 0.0
C118 C 0.61173 0.59503 0.12934 0.0
C119 C 0.61152 0.74108 0.20263 0.0
O120 O 0.39746 0.64934 0.11567 0.0
O121 O 0.39693 0.89878 0.14991 0.0
O122 O 0.39722 0.67343 0.19551 0.0
O123 O 0.58387 0.8324 0.11567 0.0
O124 O 0.58435 0.58312 0.14994 0.0
O125 O 0.58398 0.8087 0.19551 0.0
O126 O 0.58398 0.64946 0.11569 0.0
O127 O 0.5843 0.8988 0.14992 0.0
O128 O 0.584 0.67342 0.19552 0.0
O129 O 0.39734 0.83229 0.11566 0.0
O130 O 0.39698 0.5831 0.14993 0.0
O131 O 0.3972 0.80871 0.1955 0.0
Sc132 Sc 0.49059 0.24153 0.36764 0.0
Sc133 Sc 0.597 0.24149 0.42153 0.0
Sc134 Sc 0.38412 0.24166 0.42152 0.0
O135 O 0.49057 0.24156 0.40354 0.0
C136 C 0.34499 0.36289 0.37919 0.0
C137 C 0.63643 0.3626 0.37919 0.0
C138 C 0.49061 0.36262 0.45253 0.0
C139 C 0.6362 0.12023 0.37917 0.0
C140 C 0.34471 0.12052 0.37916 0.0
C141 C 0.49047 0.12047 0.45248 0.0
O142 O 0.39936 0.33506 0.36554 0.0
O143 O 0.6482 0.33528 0.39981 0.0
O144 O 0.42309 0.33513 0.44539 0.0
O145 O 0.58181 0.14801 0.36553 0.0
O146 O 0.33291 0.1479 0.39978 0.0
O147 O 0.55801 0.14797 0.44536 0.0
O148 O 0.39912 0.14824 0.36551 0.0
O149 O 0.64809 0.14765 0.39978 0.0
O150 O 0.42296 0.14809 0.44536 0.0
O151 O 0.58206 0.33482 0.36554 0.0
O152 O 0.33309 0.33552 0.3998 0.0
O153 O 0.55813 0.33502 0.44541 0.0
Sc154 Sc 0.99022 0.24222 0.61778 0.0
Sc155 Sc 0.99029 0.34852 0.67174 0.0
Sc156 Sc 0.99039 0.13525 0.67158 0.0
O157 O 0.9903 0.242 0.65367 0.0
C158 C 0.86927 0.09621 0.62923 0.0
C159 C 0.86918 0.38808 0.62944 0.0
C160 C 0.86948 0.24157 0.70264 0.0
C161 C 0.11121 0.38814 0.62939 0.0
C162 C 0.11135 0.0963 0.6292 0.0
C163 C 0.11132 0.24166 0.7026 0.0
O164 O 0.89693 0.15078 0.61562 0.0
O165 O 0.8965 0.39986 0.65006 0.0
O166 O 0.89701 0.174 0.69545 0.0
O167 O 0.08348 0.3337 0.61572 0.0
O168 O 0.0841 0.0843 0.64981 0.0
O169 O 0.0838 0.30937 0.69553 0.0
O170 O 0.08347 0.15075 0.61557 0.0
O171 O 0.08387 0.39995 0.65001 0.0
O172 O 0.08375 0.17409 0.69544 0.0
O173 O 0.89697 0.33371 0.61576 0.0
O174 O 0.89674 0.08415 0.64982 0.0
O175 O 0.89699 0.30928 0.69558 0.0
C176 C 0.06377 0.45983 -0.00454 0.0
C177 C -0.00947 0.42821 0.00409 0.0
H178 H 0.12132 0.54451 0.97247 0.0
C179 C 0.91724 0.46 -0.00447 0.0
H180 H 0.1214 0.43684 0.00161 0.0
C181 C 0.91719 0.52182 0.97876 0.0
C182 C -0.00956 0.55344 0.97013 0.0
H183 H 0.85964 0.43714 0.00175 0.0
H184 H 0.85956 0.54482 0.97261 0.0
C185 C 0.06372 0.52166 0.97869 0.0
C186 C 0.70964 0.66775 0.22874 0.0
C187 C 0.67786 0.74112 0.22017 0.0
H188 H 0.79456 0.61009 0.25162 0.0
C189 C 0.70961 0.81453 0.22873 0.0
H190 H 0.68669 0.61002 0.22258 0.0
C191 C 0.77154 0.81457 0.24544 0.0
C192 C 0.80333 0.7412 0.254 0.0
H193 H 0.68663 0.87223 0.22256 0.0
H194 H 0.79449 0.8723 0.2516 0.0
C195 C 0.77158 0.66779 0.24545 0.0
C196 C 0.41729 0.52264 0.49546 0.0
C197 C 0.49054 0.55414 0.50413 0.0
H198 H 0.35972 0.43807 0.47242 0.0
C199 C 0.56382 0.5222 0.49561 0.0
H200 H 0.35967 0.54575 0.50159 0.0
C201 C 0.56386 0.46037 0.47882 0.0
C202 C 0.49061 0.42889 0.47015 0.0
H203 H 0.62142 0.54496 0.50186 0.0
H204 H 0.62148 0.43726 0.47269 0.0
C205 C 0.41733 0.46081 0.47867 0.0
C206 C 0.70938 0.31445 0.74552 0.0
C207 C 0.67768 0.24095 0.75402 0.0
H208 H 0.79422 0.37244 0.7227 0.0
C209 C 0.70952 0.16766 0.7454 0.0
H210 H 0.68635 0.37209 0.75174 0.0
C211 C 0.77147 0.16787 0.72869 0.0
C212 C 0.80315 0.24136 0.72019 0.0
H213 H 0.68662 0.10988 0.75151 0.0
H214 H 0.79449 0.11022 0.72247 0.0
C215 C 0.77132 0.31465 0.72881 0.0
C216 C 0.27132 0.31452 0.74551 0.0
C217 C 0.30315 0.24101 0.75397 0.0
H218 H 0.18637 0.37252 0.72271 0.0
C219 C 0.27146 0.16773 0.74531 0.0
H220 H 0.29423 0.37215 0.75176 0.0
C221 C 0.20952 0.16795 0.7286 0.0
C222 C 0.17769 0.24145 0.72014 0.0
H223 H 0.29447 0.10994 0.75139 0.0
H224 H 0.18661 0.11031 0.72235 0.0
C225 C 0.20939 0.31473 0.7288 0.0
C226 C 0.27154 0.81457 0.22871 0.0
C227 C 0.30333 0.74115 0.22016 0.0
H228 H 0.18663 0.87236 0.25158 0.0
C229 C 0.27158 0.66779 0.22873 0.0
H230 H 0.29449 0.87227 0.22254 0.0
C231 C 0.20965 0.66784 0.24545 0.0
C232 C 0.17786 0.74127 0.25399 0.0
H233 H 0.29456 0.61005 0.22258 0.0
H234 H 0.1867 0.61015 0.25162 0.0
C235 C 0.2096 0.81463 0.24542 0.0
C236 C 0.56367 0.02222 0.47859 0.0
C237 C 0.49043 0.05414 0.47006 0.0
H238 H 0.62125 0.9373 0.50151 0.0
C239 C 0.41714 0.02262 0.47869 0.0
H240 H 0.6213 0.04498 0.47237 0.0
C241 C 0.41711 0.96079 0.49546 0.0
C242 C 0.49036 0.92889 0.504 0.0
H243 H 0.35954 0.04572 0.47254 0.0
H244 H 0.35949 0.93803 0.50168 0.0
C245 C 0.56364 0.96039 0.49536 0.0
C246 C 0.91726 0.02184 -0.00457 0.0
C247 C -0.00946 0.05345 0.00404 0.0
H248 H 0.85959 0.93715 0.97245 0.0
C249 C 0.06379 0.02165 -0.00455 0.0
H250 H 0.85966 0.04485 0.00162 0.0
C251 C 0.06375 0.95982 0.97867 0.0
C252 C -0.00954 0.9282 0.97006 0.0
H253 H 0.12142 0.04451 0.00165 0.0
H254 H 0.12135 0.9368 0.97249 0.0
C255 C 0.91722 0.96001 0.97865 0.0
C256 C 0.29254 0.95128 0.09624 0.0
C257 C 0.30504 0.94128 0.12052 0.0
H258 H 0.2298 0.01569 0.06913 0.0
C259 C 0.25794 0.98692 0.13631 0.0
H260 H 0.32785 0.91714 0.08361 0.0
C261 C 0.20105 0.04275 0.12802 0.0
C262 C 0.19092 0.05512 0.10375 0.0
H263 H 0.26568 0.98023 0.15513 0.0
H264 H 0.16692 0.07807 0.14066 0.0
C265 C 0.23657 0.00803 0.08795 0.0
C266 C 0.18846 0.95226 0.37789 0.0
C267 C 0.17596 0.94214 0.35361 0.0
H268 H 0.25121 0.01677 0.40499 0.0
C269 C 0.22303 0.98773 0.33781 0.0
H270 H 0.15318 0.91818 0.39053 0.0
C271 C 0.27991 0.04359 0.3461 0.0
C272 C 0.29008 0.05606 0.37037 0.0
H273 H 0.21528 0.98097 0.319 0.0
H274 H 0.31402 0.07885 0.33346 0.0
C275 C 0.24442 0.00904 0.38617 0.0
C276 C 0.22364 -0.00301 0.63619 0.0
C277 C 0.17589 0.04186 0.62039 0.0
H278 H 0.31517 0.9064 0.64056 0.0
C279 C 0.18772 0.03109 0.59612 0.0
H280 H 0.21642 0.00432 0.65501 0.0
C281 C 0.24368 0.97428 0.58783 0.0
C282 C 0.28998 0.92791 0.60364 0.0
H283 H 0.15186 0.06462 0.58348 0.0
H284 H 0.24992 0.96598 0.56902 0.0
C285 C 0.28052 0.94111 0.62791 0.0
C286 C 0.20096 0.93828 0.84604 0.0
C287 C 0.19073 0.92599 0.87032 0.0
H288 H 0.26565 0.00074 0.81893 0.0
C289 C 0.23632 0.97314 0.88611 0.0
H290 H 0.16689 0.90291 0.8334 0.0
C291 C 0.29228 0.02988 0.87781 0.0
C292 C 0.30485 0.03984 0.85354 0.0
H293 H 0.22949 0.96555 0.90493 0.0
H294 H 0.32751 0.06406 0.89046 0.0
C295 C 0.25785 -0.00589 0.83774 0.0
C296 C 0.77973 0.93835 0.84608 0.0
C297 C 0.78998 0.92613 0.87036 0.0
H298 H 0.71501 0.00076 0.81896 0.0
C299 C 0.74442 0.97334 0.88614 0.0
H300 H 0.81378 0.90294 0.83344 0.0
C301 C 0.68845 0.03008 0.87784 0.0
C302 C 0.67585 0.03995 0.85357 0.0
H303 H 0.75127 0.96579 0.90496 0.0
H304 H 0.65323 0.06431 0.89048 0.0
C305 C 0.72284 -0.00582 0.83778 0.0
C306 C 0.79203 0.03176 0.59619 0.0
C307 C 0.80471 0.04172 0.62046 0.0
H308 H 0.72913 0.96734 0.56909 0.0
C309 C 0.75777 -0.00398 0.63627 0.0
H310 H 0.8272 0.06594 0.58354 0.0
C311 C 0.70087 0.94017 0.62799 0.0
C312 C 0.69057 0.92782 0.60372 0.0
H313 H 0.76565 0.00267 0.65508 0.0
H314 H 0.66688 0.90481 0.64063 0.0
C315 C 0.73605 0.97498 0.58791 0.0
C316 C 0.79225 0.95178 0.37788 0.0
C317 C 0.80487 0.94181 0.35361 0.0
H318 H 0.72941 0.01619 0.40499 0.0
C319 C 0.75788 0.98749 0.33781 0.0
H320 H 0.82748 0.9176 0.39052 0.0
C321 C 0.70098 0.04335 0.3461 0.0
C322 C 0.69074 0.0557 0.37038 0.0
H323 H 0.76572 0.98083 0.31899 0.0
H324 H 0.66694 0.07871 0.33347 0.0
C325 C 0.73628 0.00855 0.38617 0.0
C326 C 0.68873 0.95137 0.09626 0.0
C327 C 0.67615 0.9414 0.12054 0.0
H328 H 0.75154 0.01574 0.06916 0.0
C329 C 0.72317 0.98709 0.13634 0.0
H330 H 0.65349 0.91721 0.08362 0.0
C331 C 0.78006 0.04292 0.12805 0.0
C332 C 0.79028 0.05525 0.10378 0.0
H333 H 0.71536 0.98044 0.15515 0.0
H334 H 0.81412 0.07827 0.14069 0.0
C335 C 0.7447 0.00812 0.08798 0.0
C336 C 0.75772 0.48846 0.63647 0.0
C337 C 0.80467 0.44265 0.62068 0.0
H338 H 0.6668 0.57975 0.6408 0.0
C339 C 0.79202 0.4525 0.5964 0.0
H340 H 0.76559 0.48191 0.65529 0.0
C341 C 0.73606 0.50924 0.5881 0.0
C342 C 0.69054 0.55648 0.60389 0.0
H343 H 0.8272 0.41825 0.58376 0.0
H344 H 0.72917 0.51676 0.56929 0.0
C345 C 0.70082 0.54429 0.62817 0.0
C346 C 0.77983 0.54226 0.84619 0.0
C347 C 0.78993 0.55481 0.87046 0.0
H348 H 0.71525 0.47957 0.81909 0.0
C349 C 0.74423 0.50787 0.88627 0.0
H350 H 0.814 0.57745 0.83354 0.0
C351 C 0.68826 0.45108 0.87798 0.0
C352 C 0.67581 0.4409 0.85371 0.0
H353 H 0.75097 0.51566 0.90508 0.0
H354 H 0.65291 0.41707 0.89063 0.0
C355 C 0.72295 0.48639 0.83791 0.0
C356 C 0.72331 0.49486 0.13637 0.0
C357 C 0.67628 0.5405 0.12057 0.0
H358 H 0.81429 0.40368 0.14071 0.0
C359 C 0.68886 0.53048 0.09629 0.0
H360 H 0.71551 0.50157 0.15518 0.0
C361 C 0.74484 0.47371 0.088 0.0
C362 C 0.79042 0.42661 0.1038 0.0
H363 H 0.65361 0.56462 0.08365 0.0
H364 H 0.75167 0.46603 0.06919 0.0
C365 C 0.78021 0.43901 0.12807 0.0
C366 C 0.7927 0.53085 0.37792 0.0
C367 C 0.8052 0.54088 0.35365 0.0
H368 H 0.72994 0.46643 0.40503 0.0
C369 C 0.75813 0.49524 0.33785 0.0
H370 H 0.82799 0.56496 0.39056 0.0
C371 C 0.70125 0.43942 0.34614 0.0
C372 C 0.69107 0.42704 0.37041 0.0
H373 H 0.76589 0.50194 0.31903 0.0
H374 H 0.66713 0.40412 0.3335 0.0
C375 C 0.73672 0.4741 0.38621 0.0
C376 C 0.28025 0.4397 0.34613 0.0
C377 C 0.29046 0.42741 0.3704 0.0
H378 H 0.21554 0.50214 0.31902 0.0
C379 C 0.2449 0.47458 0.3862 0.0
H380 H 0.31432 0.40432 0.33349 0.0
C381 C 0.18892 0.53133 0.37791 0.0
C382 C 0.17632 0.54123 0.35363 0.0
H383 H 0.25174 0.46699 0.40502 0.0
H384 H 0.15367 0.56552 0.39055 0.0
C385 C 0.22335 0.49553 0.33784 0.0
C386 C 0.23666 0.47353 0.08798 0.0
C387 C 0.19107 0.42645 0.10377 0.0
H388 H 0.32786 0.56443 0.08362 0.0
C389 C 0.2013 0.43883 0.12805 0.0
H390 H 0.22983 0.46586 0.06916 0.0
C391 C 0.25818 0.49469 0.13634 0.0
C392 C 0.30519 0.54034 0.12054 0.0
H393 H 0.16723 0.40352 0.14069 0.0
H394 H 0.26598 0.50139 0.15515 0.0
C395 C 0.29262 0.5303 0.09627 0.0
C396 C 0.236 0.50752 0.88623 0.0
C397 C 0.19046 0.55463 0.87042 0.0
H398 H 0.32722 0.4166 0.89059 0.0
C399 C 0.20069 0.54222 0.84615 0.0
H400 H 0.22914 0.5152 0.90504 0.0
C401 C 0.25758 0.48636 0.83787 0.0
C402 C 0.3046 0.44073 0.85367 0.0
H403 H 0.16664 0.57755 0.83351 0.0
H404 H 0.26542 0.47966 0.81905 0.0
C405 C 0.29198 0.45073 0.87794 0.0
C406 C 0.18857 0.45239 0.59635 0.0
C407 C 0.17569 0.44275 0.62062 0.0
H408 H 0.25164 0.51644 0.56923 0.0
C409 C 0.22239 0.48879 0.63641 0.0
H410 H 0.15359 0.41795 0.58371 0.0
C411 C 0.27929 0.54461 0.62812 0.0
C412 C 0.28984 0.55656 0.60384 0.0
H413 H 0.21435 0.48243 0.65523 0.0
H414 H 0.31311 0.58022 0.64075 0.0
C415 C 0.24455 0.50911 0.58805 0.0
loop_
_geom_bond_atom_site_label_1
_geom_bond_atom_site_label_2
_geom_bond_distance
_geom_bond_site_symmetry_2
_ccdc_geom_bond_type
Sc0 O3 2.025 . S
Sc0 O10 2.105 . S
Sc0 O13 2.105 . S
Sc0 O16 2.105 . S
Sc0 O19 2.105 . S
Sc1 O3 2.025 1_655 S
Sc1 O11 2.105 . S
Sc1 O15 2.105 . S
Sc1 O17 2.105 . S
Sc1 O21 2.105 . S
Sc2 O3 2.025 . S
Sc2 O12 2.105 1_455 S
Sc2 O14 2.105 . S
Sc2 O18 2.105 1_455 S
Sc2 O20 2.105 . S
O3 Sc0 2.025 . S
O3 Sc1 2.025 1_455 S
O3 Sc2 2.025 . S
C4 O10 1.268 . S
C4 O20 1.268 . S
C5 O11 1.268 1_455 S
C5 O19 1.268 . S
C6 O12 1.268 . S
C6 O21 1.268 . S
C7 O13 1.268 . S
C7 O17 1.268 1_455 S
C8 O14 1.268 . S
C8 O16 1.268 . S
C9 O15 1.268 . S
C9 O18 1.268 . S
O10 Sc0 2.105 . S
O10 C4 1.268 . S
O11 Sc1 2.105 . S
O11 C5 1.268 1_655 S
O12 Sc2 2.105 1_655 S
O12 C6 1.268 . S
O13 Sc0 2.105 . S
O13 C7 1.268 . S
O14 Sc2 2.105 . S
O14 C8 1.268 . S
O15 Sc1 2.105 . S
O15 C9 1.268 . S
O16 Sc0 2.105 . S
O16 C8 1.268 . S
O17 Sc1 2.105 . S
O17 C7 1.268 1_655 S
O18 Sc2 2.105 1_655 S
O18 C9 1.268 . S
O19 Sc0 2.105 . S
O19 C5 1.268 . S
O20 Sc2 2.105 . S
O20 C4 1.268 . S
O21 Sc1 2.105 . S
O21 C6 1.268 . S
Sc22 O25 2.025 . S
Sc22 O32 2.105 . S
Sc22 O35 2.105 1_455 S
Sc22 O38 2.105 1_455 S
Sc22 O41 2.105 . S
Sc23 O25 2.025 . S
Sc23 O33 2.105 . S
Sc23 O37 2.105 1_455 S
Sc23 O39 2.105 1_455 S
Sc23 O43 2.105 . S
Sc24 O25 2.025 . S
Sc24 O34 2.105 . S
Sc24 O36 2.105 1_455 S
Sc24 O40 2.105 1_455 S
Sc24 O42 2.105 . S
O25 Sc22 2.025 . S
O25 Sc23 2.025 . S
O25 Sc24 2.025 . S
C26 O32 1.268 . S
C26 O42 1.268 . S
C27 O33 1.268 . S
C27 O41 1.268 . S
C28 O34 1.268 . S
C28 O43 1.268 . S
C29 O35 1.268 . S
C29 O39 1.268 . S
C30 O36 1.268 . S
C30 O38 1.268 . S
C31 O37 1.268 . S
C31 O40 1.268 . S
O32 Sc22 2.105 . S
O32 C26 1.268 . S
O33 Sc23 2.105 . S
O33 C27 1.268 . S
O34 Sc24 2.105 . S
O34 C28 1.268 . S
O35 Sc22 2.105 1_655 S
O35 C29 1.268 . S
O36 Sc24 2.105 1_655 S
O36 C30 1.268 . S
O37 Sc23 2.105 1_655 S
O37 C31 1.268 . S
O38 Sc22 2.105 1_655 S
O38 C30 1.268 . S
O39 Sc23 2.105 1_655 S
O39 C29 1.268 . S
O40 Sc24 2.105 1_655 S
O40 C31 1.268 . S
O41 Sc22 2.105 . S
O41 C27 1.268 . S
O42 Sc24 2.105 . S
O42 C26 1.268 . S
O43 Sc23 2.105 . S
O43 C28 1.268 . S
Sc44 O47 2.025 . S
Sc44 O54 2.105 . S
Sc44 O57 2.105 . S
Sc44 O60 2.105 . S
Sc44 O63 2.105 . S
Sc45 O47 2.025 . S
Sc45 O55 2.105 . S
Sc45 O59 2.105 . S
Sc45 O61 2.105 . S
Sc45 O65 2.105 . S
Sc46 O47 2.025 . S
Sc46 O56 2.105 . S
Sc46 O58 2.105 . S
Sc46 O62 2.105 . S
Sc46 O64 2.105 . S
O47 Sc44 2.025 . S
O47 Sc45 2.025 . S
O47 Sc46 2.025 . S
C48 O54 1.268 . S
C48 O64 1.268 . S
C49 O55 1.268 . S
C49 O63 1.268 . S
C50 O56 1.268 . S
C50 O65 1.268 . S
C51 O57 1.268 . S
C51 O61 1.268 . S
C52 O58 1.268 . S
C52 O60 1.268 . S
C53 O59 1.268 . S
C53 O62 1.268 . S
O54 Sc44 2.105 . S
O54 C48 1.268 . S
O55 Sc45 2.105 . S
O55 C49 1.268 . S
O56 Sc46 2.105 . S
O56 C50 1.268 . S
O57 Sc44 2.105 . S
O57 C51 1.268 . S
O58 Sc46 2.105 . S
O58 C52 1.268 . S
O59 Sc45 2.105 . S
O59 C53 1.268 . S
O60 Sc44 2.105 . S
O60 C52 1.268 . S
O61 Sc45 2.105 . S
O61 C51 1.268 . S
O62 Sc46 2.105 . S
O62 C53 1.268 . S
O63 Sc44 2.105 . S
O63 C49 1.268 . S
O64 Sc46 2.105 . S
O64 C48 1.268 . S
O65 Sc45 2.105 . S
O65 C50 1.268 . S
Sc66 O69 2.025 . S
Sc66 O76 2.105 . S
Sc66 O79 2.105 . S
Sc66 O82 2.105 . S
Sc66 O85 2.105 . S
Sc67 O69 2.025 . S
Sc67 O77 2.105 . S
Sc67 O81 2.105 . S
Sc67 O83 2.105 . S
Sc67 O87 2.105 . S
Sc68 O69 2.025 . S
Sc68 O78 2.105 . S
Sc68 O80 2.105 . S
Sc68 O84 2.105 . S
Sc68 O86 2.105 . S
O69 Sc66 2.025 . S
O69 Sc67 2.025 . S
O69 Sc68 2.025 . S
C70 O76 1.268 . S
C70 O86 1.268 . S
C71 O77 1.268 . S
C71 O85 1.268 . S
C72 O78 1.268 . S
C72 O87 1.268 . S
C73 O79 1.268 . S
C73 O83 1.268 . S
C74 O80 1.268 . S
C74 O82 1.268 . S
C75 O81 1.268 . S
C75 O84 1.268 . S
O76 Sc66 2.105 . S
O76 C70 1.268 . S
O77 Sc67 2.105 . S
O77 C71 1.268 . S
O78 Sc68 2.105 . S
O78 C72 1.268 . S
O79 Sc66 2.105 . S
O79 C73 1.268 . S
O80 Sc68 2.105 . S
O80 C74 1.268 . S
O81 Sc67 2.105 . S
O81 C75 1.268 . S
O82 Sc66 2.105 . S
O82 C74 1.268 . S
O83 Sc67 2.105 . S
O83 C73 1.268 . S
O84 Sc68 2.105 . S
O84 C75 1.268 . S
O85 Sc66 2.105 . S
O85 C71 1.268 . S
O86 Sc68 2.105 . S
O86 C70 1.268 . S
O87 Sc67 2.105 . S
O87 C72 1.268 . S
Sc88 O91 2.025 . S
Sc88 O98 2.105 1_455 S
Sc88 O101 2.105 . S
Sc88 O104 2.105 1_455 S
Sc88 O107 2.105 . S
Sc89 O91 2.025 . S
Sc89 O99 2.105 . S
Sc89 O103 2.105 . S
Sc89 O105 2.105 . S
Sc89 O109 2.105 . S
Sc90 O91 2.025 1_655 S
Sc90 O100 2.105 . S
Sc90 O102 2.105 . S
Sc90 O106 2.105 . S
Sc90 O108 2.105 . S
O91 Sc88 2.025 . S
O91 Sc89 2.025 . S
O91 Sc90 2.025 1_455 S
C92 O98 1.268 . S
C92 O108 1.268 . S
C93 O99 1.268 . S
C93 O107 1.268 . S
C94 O100 1.268 1_455 S
C94 O109 1.268 . S
C95 O101 1.268 . S
C95 O105 1.268 . S
C96 O102 1.268 . S
C96 O104 1.268 . S
C97 O103 1.268 . S
C97 O106 1.268 1_455 S
O98 Sc88 2.105 1_655 S
O98 C92 1.268 . S
O99 Sc89 2.105 . S
O99 C93 1.268 . S
O100 Sc90 2.105 . S
O100 C94 1.268 1_655 S
O101 Sc88 2.105 . S
O101 C95 1.268 . S
O102 Sc90 2.105 . S
O102 C96 1.268 . S
O103 Sc89 2.105 . S
O103 C97 1.268 . S
O104 Sc88 2.105 1_655 S
O104 C96 1.268 . S
O105 Sc89 2.105 . S
O105 C95 1.268 . S
O106 Sc90 2.105 . S
O106 C97 1.268 1_655 S
O107 Sc88 2.105 . S
O107 C93 1.268 . S
O108 Sc90 2.105 . S
O108 C92 1.268 . S
O109 Sc89 2.105 . S
O109 C94 1.268 . S
Sc110 O113 2.025 . S
Sc110 O120 2.105 . S
Sc110 O123 2.105 . S
Sc110 O126 2.105 . S
Sc110 O129 2.105 . S
Sc111 O113 2.025 . S
Sc111 O121 2.105 . S
Sc111 O125 2.105 . S
Sc111 O127 2.105 . S
Sc111 O131 2.105 . S
Sc112 O113 2.025 . S
Sc112 O122 2.105 . S
Sc112 O124 2.105 . S
Sc112 O128 2.105 . S
Sc112 O130 2.105 . S
O113 Sc110 2.025 . S
O113 Sc111 2.025 . S
O113 Sc112 2.025 . S
C114 O120 1.268 . S
C114 O130 1.268 . S
C115 O121 1.268 . S
C115 O129 1.268 . S
C116 O122 1.268 . S
C116 O131 1.268 . S
C117 O123 1.268 . S
C117 O127 1.268 . S
C118 O124 1.268 . S
C118 O126 1.268 . S
C119 O125 1.268 . S
C119 O128 1.268 . S
O120 Sc110 2.105 . S
O120 C114 1.268 . S
O121 Sc111 2.105 . S
O121 C115 1.268 . S
O122 Sc112 2.105 . S
O122 C116 1.268 . S
O123 Sc110 2.105 . S
O123 C117 1.268 . S
O124 Sc112 2.105 . S
O124 C118 1.268 . S
O125 Sc111 2.105 . S
O125 C119 1.268 . S
O126 Sc110 2.105 . S
O126 C118 1.268 . S
O127 Sc111 2.105 . S
O127 C117 1.268 . S
O128 Sc112 2.105 . S
O128 C119 1.268 . S
O129 Sc110 2.105 . S
O129 C115 1.268 . S
O130 Sc112 2.105 . S
O130 C114 1.268 . S
O131 Sc111 2.105 . S
O131 C116 1.268 . S
Sc132 O135 2.025 . S
Sc132 O142 2.105 . S
Sc132 O145 2.105 . S
Sc132 O148 2.105 . S
Sc132 O151 2.105 . S
Sc133 O135 2.025 . S
Sc133 O143 2.105 . S
Sc133 O147 2.105 . S
Sc133 O149 2.105 . S
Sc133 O153 2.105 . S
Sc134 O135 2.025 . S
Sc134 O144 2.105 . S
Sc134 O146 2.105 . S
Sc134 O150 2.105 . S
Sc134 O152 2.105 . S
O135 Sc132 2.025 . S
O135 Sc133 2.025 . S
O135 Sc134 2.025 . S
C136 O142 1.268 . S
C136 O152 1.268 . S
C137 O143 1.268 . S
C137 O151 1.268 . S
C138 O144 1.268 . S
C138 O153 1.268 . S
C139 O145 1.268 . S
C139 O149 1.268 . S
C140 O146 1.268 . S
C140 O148 1.268 . S
C141 O147 1.268 . S
C141 O150 1.268 . S
O142 Sc132 2.105 . S
O142 C136 1.268 . S
O143 Sc133 2.105 . S
O143 C137 1.268 . S
O144 Sc134 2.105 . S
O144 C138 1.268 . S
O145 Sc132 2.105 . S
O145 C139 1.268 . S
O146 Sc134 2.105 . S
O146 C140 1.268 . S
O147 Sc133 2.105 . S
O147 C141 1.268 . S
O148 Sc132 2.105 . S
O148 C140 1.268 . S
O149 Sc133 2.105 . S
O149 C139 1.268 . S
O150 Sc134 2.105 . S
O150 C141 1.268 . S
O151 Sc132 2.105 . S
O151 C137 1.268 . S
O152 Sc134 2.105 . S
O152 C136 1.268 . S
O153 Sc133 2.105 . S
O153 C138 1.268 . S
Sc154 O157 2.025 . S
Sc154 O164 2.105 1_455 S
Sc154 O167 2.105 . S
Sc154 O170 2.105 . S
Sc154 O173 2.105 1_455 S
Sc155 O157 2.025 . S
Sc155 O165 2.105 1_455 S
Sc155 O169 2.105 . S
Sc155 O171 2.105 . S
Sc155 O175 2.105 1_455 S
Sc156 O157 2.025 . S
Sc156 O166 2.105 1_455 S
Sc156 O168 2.105 . S
Sc156 O172 2.105 . S
Sc156 O174 2.105 1_455 S
O157 Sc154 2.025 . S
O157 Sc155 2.025 . S
O157 Sc156 2.025 . S
C158 O164 1.268 . S
C158 O174 1.268 . S
C159 O165 1.268 . S
C159 O173 1.268 . S
C160 O166 1.268 . S
C160 O175 1.268 . S
C161 O167 1.268 . S
C161 O171 1.268 . S
C162 O168 1.268 . S
C162 O170 1.268 . S
C163 O169 1.268 . S
C163 O172 1.268 . S
O164 Sc154 2.105 1_655 S
O164 C158 1.268 . S
O165 Sc155 2.105 1_655 S
O165 C159 1.268 . S
O166 Sc156 2.105 1_655 S
O166 C160 1.268 . S
O167 Sc154 2.105 . S
O167 C161 1.268 . S
O168 Sc156 2.105 . S
O168 C162 1.268 . S
O169 Sc155 2.105 . S
O169 C163 1.268 . S
O170 Sc154 2.105 . S
O170 C162 1.268 . S
O171 Sc155 2.105 . S
O171 C161 1.268 . S
O172 Sc156 2.105 . S
O172 C163 1.268 . S
O173 Sc154 2.105 1_655 S
O173 C159 1.268 . S
O174 Sc156 2.105 1_655 S
O174 C158 1.268 . S
O175 Sc155 2.105 1_655 S
O175 C160 1.268 . S
C176 C177 1.387 . S
C176 H180 0.950 . S
C176 C185 1.390 1_554 S
C177 C176 1.387 . S
C177 C179 1.387 1_455 S
H178 C185 0.950 . S
C179 C177 1.387 1_655 S
C179 C181 1.390 1_554 S
C179 H183 0.950 . S
H180 C176 0.950 . S
C181 C179 1.390 1_556 S
C181 C182 1.387 1_655 S
C181 H184 0.950 . S
C182 C181 1.387 1_455 S
C182 C185 1.387 . S
H183 C179 0.950 . S
H184 C181 0.950 . S
C185 C176 1.390 1_556 S
C185 H178 0.950 . S
C185 C182 1.387 . S
C186 C187 1.387 . S
C186 H190 0.950 . S
C186 C195 1.390 . S
C187 C186 1.387 . S
C187 C189 1.387 . S
H188 C195 0.950 . S
C189 C187 1.387 . S
C189 C191 1.390 . S
C189 H193 0.950 . S
H190 C186 0.950 . S
C191 C189 1.390 . S
C191 C192 1.387 . S
C191 H194 0.950 . S
C192 C191 1.387 . S
C192 C195 1.387 . S
H193 C189 0.950 . S
H194 C191 0.950 . S
C195 C186 1.390 . S
C195 H188 0.950 . S
C195 C192 1.387 . S
C196 C197 1.387 . S
C196 H200 0.950 . S
C196 C205 1.390 . S
C197 C196 1.387 . S
C197 C199 1.387 . S
H198 C205 0.950 . S
C199 C197 1.387 . S
C199 C201 1.390 . S
C199 H203 0.950 . S
H200 C196 0.950 . S
C201 C199 1.390 . S
C201 C202 1.387 . S
C201 H204 0.950 . S
C202 C201 1.387 . S
C202 C205 1.387 . S
H203 C199 0.950 . S
H204 C201 0.950 . S
C205 C196 1.390 . S
C205 H198 0.950 . S
C205 C202 1.387 . S
C206 C207 1.387 . S
C206 H210 0.950 . S
C206 C215 1.390 . S
C207 C206 1.387 . S
C207 C209 1.387 . S
H208 C215 0.950 . S
C209 C207 1.387 . S
C209 C211 1.390 . S
C209 H213 0.950 . S
H210 C206 0.950 . S
C211 C209 1.390 . S
C211 C212 1.387 . S
C211 H214 0.950 . S
C212 C211 1.387 . S
C212 C215 1.387 . S
H213 C209 0.950 . S
H214 C211 0.950 . S
C215 C206 1.390 . S
C215 H208 0.950 . S
C215 C212 1.387 . S
C216 C217 1.387 . S
C216 H220 0.950 . S
C216 C225 1.390 . S
C217 C216 1.387 . S
C217 C219 1.387 . S
H218 C225 0.950 . S
C219 C217 1.387 . S
C219 C221 1.390 . S
C219 H223 0.950 . S
H220 C216 0.950 . S
C221 C219 1.390 . S
C221 C222 1.387 . S
C221 H224 0.950 . S
C222 C221 1.387 . S
C222 C225 1.387 . S
H223 C219 0.950 . S
H224 C221 0.950 . S
C225 C216 1.390 . S
C225 H218 0.950 . S
C225 C222 1.387 . S
C226 C227 1.387 . S
C226 H230 0.950 . S
C226 C235 1.390 . S
C227 C226 1.387 . S
C227 C229 1.387 . S
H228 C235 0.950 . S
C229 C227 1.387 . S
C229 C231 1.390 . S
C229 H233 0.950 . S
H230 C226 0.950 . S
C231 C229 1.390 . S
C231 C232 1.387 . S
C231 H234 0.950 . S
C232 C231 1.387 . S
C232 C235 1.387 . S
H233 C229 0.950 . S
H234 C231 0.950 . S
C235 C226 1.390 . S
C235 H228 0.950 . S
C235 C232 1.387 . S
C236 C237 1.387 . S
C236 H240 0.950 . S
C236 C245 1.390 1_545 S
C237 C236 1.387 . S
C237 C239 1.387 . S
H238 C245 0.950 . S
C239 C237 1.387 . S
C239 C241 1.390 1_545 S
C239 H243 0.950 . S
H240 C236 0.950 . S
C241 C239 1.390 1_565 S
C241 C242 1.387 . S
C241 H244 0.950 . S
C242 C241 1.387 . S
C242 C245 1.387 . S
H243 C239 0.950 . S
H244 C241 0.950 . S
C245 C236 1.390 1_565 S
C245 H238 0.950 . S
C245 C242 1.387 . S
C246 C247 1.387 1_655 S
C246 H250 0.950 . S
C246 C255 1.390 1_544 S
C247 C246 1.387 1_455 S
C247 C249 1.387 . S
H248 C255 0.950 . S
C249 C247 1.387 . S
C249 C251 1.390 1_544 S
C249 H253 0.950 . S
H250 C246 0.950 . S
C251 C249 1.390 1_566 S
C251 C252 1.387 . S
C251 H254 0.950 . S
C252 C251 1.387 . S
C252 C255 1.387 1_455 S
H253 C249 0.950 . S
H254 C251 0.950 . S
C255 C246 1.390 1_566 S
C255 H248 0.950 . S
C255 C252 1.387 1_655 S
C256 C257 1.387 . S
C256 H260 0.950 . S
C256 C265 1.390 . S
C257 C256 1.387 . S
C257 C259 1.396 . S
H258 C265 0.950 . S
C259 C257 1.396 . S
C259 C261 1.382 1_565 S
C259 H263 0.950 . S
H260 C256 0.950 . S
C261 C259 1.382 1_545 S
C261 C262 1.387 . S
C261 H264 0.950 . S
C262 C261 1.387 . S
C262 C265 1.387 1_545 S
H263 C259 0.950 . S
H264 C261 0.950 . S
C265 C256 1.390 . S
C265 H258 0.950 . S
C265 C262 1.387 1_565 S
C266 C267 1.387 . S
C266 H270 0.950 . S
C266 C275 1.390 . S
C267 C266 1.387 . S
C267 C269 1.387 1_565 S
H268 C275 0.950 . S
C269 C267 1.387 1_545 S
C269 C271 1.390 . S
C269 H273 0.950 . S
H270 C266 0.950 . S
C271 C269 1.390 . S
C271 C272 1.387 . S
C271 H274 0.950 . S
C272 C271 1.387 . S
C272 C275 1.387 1_545 S
H273 C269 0.950 . S
H274 C271 0.950 . S
C275 C266 1.390 . S
C275 H268 0.950 . S
C275 C272 1.387 1_565 S
C276 C277 1.387 . S
C276 H280 0.950 . S
C276 C285 1.390 . S
C277 C276 1.387 . S
C277 C279 1.387 1_545 S
H278 C285 0.950 . S
C279 C277 1.387 1_565 S
C279 C281 1.390 . S
C279 H283 0.950 . S
H280 C276 0.950 . S
C281 C279 1.390 . S
C281 C282 1.387 . S
C281 H284 0.950 . S
C282 C281 1.387 . S
C282 C285 1.387 1_565 S
H283 C279 0.950 . S
H284 C281 0.950 . S
C285 C276 1.390 . S
C285 H278 0.950 . S
C285 C282 1.387 1_545 S
C286 C287 1.387 . S
C286 H290 0.950 . S
C286 C295 1.390 1_565 S
C287 C286 1.387 . S
C287 C289 1.387 . S
H288 C295 0.950 . S
C289 C287 1.387 . S
C289 C291 1.390 1_565 S
C289 H293 0.950 . S
H290 C286 0.950 . S
C291 C289 1.390 1_545 S
C291 C292 1.387 . S
C291 H294 0.950 . S
C292 C291 1.387 . S
C292 C295 1.387 . S
H293 C289 0.950 . S
H294 C291 0.950 . S
C295 C286 1.390 1_545 S
C295 H288 0.950 . S
C295 C292 1.387 . S
C296 C297 1.387 . S
C296 H300 0.950 . S
C296 C305 1.390 . S
C297 C296 1.387 . S
C297 C299 1.387 1_565 S
H298 C305 0.950 . S
C299 C297 1.387 1_545 S
C299 C301 1.390 . S
C299 H303 0.950 . S
H300 C296 0.950 . S
C301 C299 1.390 . S
C301 C302 1.387 . S
C301 H304 0.950 . S
C302 C301 1.387 . S
C302 C305 1.387 1_545 S
H303 C299 0.950 . S
H304 C301 0.950 . S
C305 C296 1.390 . S
C305 H298 0.950 . S
C305 C302 1.387 1_565 S
C306 C307 1.387 . S
C306 H310 0.950 . S
C306 C315 1.393 . S
C307 C306 1.387 . S
C307 C309 1.387 . S
H308 C315 0.950 1_565 S
C309 C307 1.387 . S
C309 C311 1.390 1_545 S
C309 H313 0.950 . S
H310 C306 0.950 . S
C311 C309 1.390 1_565 S
C311 C312 1.387 . S
C311 H314 0.950 . S
C312 C311 1.387 . S
C312 C315 1.385 1_565 S
H313 C309 0.950 . S
H314 C311 0.950 . S
C315 C306 1.393 . S
C315 H308 0.950 1_545 S
C315 C312 1.385 1_545 S
C316 C317 1.387 . S
C316 H320 0.950 . S
C316 C325 1.390 . S
C317 C316 1.387 . S
C317 C319 1.387 1_565 S
H318 C325 0.950 . S
C319 C317 1.387 1_545 S
C319 C321 1.390 . S
C319 H323 0.950 . S
H320 C316 0.950 . S
C321 C319 1.390 . S
C321 C322 1.387 . S
C321 H324 0.950 . S
C322 C321 1.387 . S
C322 C325 1.387 1_545 S
H323 C319 0.950 . S
H324 C321 0.950 . S
C325 C316 1.390 . S
C325 H318 0.950 . S
C325 C322 1.387 1_565 S
C326 C327 1.387 . S
C326 H330 0.950 . S
C326 C335 1.390 . S
C327 C326 1.387 . S
C327 C329 1.387 1_565 S
H328 C335 0.950 . S
C329 C327 1.387 1_545 S
C329 C331 1.390 . S
C329 H333 0.950 . S
H330 C326 0.950 . S
C331 C329 1.390 . S
C331 C332 1.387 . S
C331 H334 0.950 . S
C332 C331 1.387 . S
C332 C335 1.387 1_545 S
H333 C329 0.950 . S
H334 C331 0.950 . S
C335 C326 1.390 . S
C335 H328 0.950 . S
C335 C332 1.387 1_565 S
C336 C337 1.387 . S
C336 H340 0.950 . S
C336 C345 1.390 . S
C337 C336 1.387 . S
C337 C339 1.387 . S
H338 C345 0.950 . S
C339 C337 1.387 . S
C339 C341 1.390 . S
C339 H343 0.950 . S
H340 C336 0.950 . S
C341 C339 1.390 . S
C341 C342 1.387 . S
C341 H344 0.950 . S
C342 C341 1.387 . S
C342 C345 1.387 . S
H343 C339 0.950 . S
H344 C341 0.950 . S
C345 C336 1.390 . S
C345 H338 0.950 . S
C345 C342 1.387 . S
C346 C347 1.387 . S
C346 H350 0.950 . S
C346 C355 1.390 . S
C347 C346 1.387 . S
C347 C349 1.387 . S
H348 C355 0.950 . S
C349 C347 1.387 . S
C349 C351 1.390 . S
C349 H353 0.950 . S
H350 C346 0.950 . S
C351 C349 1.390 . S
C351 C352 1.387 . S
C351 H354 0.950 . S
C352 C351 1.387 . S
C352 C355 1.387 . S
H353 C349 0.950 . S
H354 C351 0.950 . S
C355 C346 1.390 . S
C355 H348 0.950 . S
C355 C352 1.387 . S
C356 C357 1.387 . S
C356 H360 0.950 . S
C356 C365 1.390 . S
C357 C356 1.387 . S
C357 C359 1.387 . S
H358 C365 0.950 . S
C359 C357 1.387 . S
C359 C361 1.390 . S
C359 H363 0.950 . S
H360 C356 0.950 . S
C361 C359 1.390 . S
C361 C362 1.387 . S
C361 H364 0.950 . S
C362 C361 1.387 . S
C362 C365 1.387 . S
H363 C359 0.950 . S
H364 C361 0.950 . S
C365 C356 1.390 . S
C365 H358 0.950 . S
C365 C362 1.387 . S
C366 C367 1.387 . S
C366 H370 0.950 . S
C366 C375 1.390 . S
C367 C366 1.387 . S
C367 C369 1.387 . S
H368 C375 0.950 . S
C369 C367 1.387 . S
C369 C371 1.390 . S
C369 H373 0.950 . S
H370 C366 0.950 . S
C371 C369 1.390 . S
C371 C372 1.387 . S
C371 H374 0.950 . S
C372 C371 1.387 . S
C372 C375 1.387 . S
H373 C369 0.950 . S
H374 C371 0.950 . S
C375 C366 1.390 . S
C375 H368 0.950 . S
C375 C372 1.387 . S
C376 C377 1.387 . S
C376 H380 0.950 . S
C376 C385 1.390 . S
C377 C376 1.387 . S
C377 C379 1.387 . S
H378 C385 0.950 . S
C379 C377 1.387 . S
C379 C381 1.390 . S
C379 H383 0.950 . S
H380 C376 0.950 . S
C381 C379 1.390 . S
C381 C382 1.387 . S
C381 H384 0.950 . S
C382 C381 1.387 . S
C382 C385 1.387 . S
H383 C379 0.950 . S
H384 C381 0.950 . S
C385 C376 1.390 . S
C385 H378 0.950 . S
C385 C382 1.387 . S
C386 C387 1.387 . S
C386 H390 0.950 . S
C386 C395 1.390 . S
C387 C386 1.387 . S
C387 C389 1.387 . S
H388 C395 0.950 . S
C389 C387 1.387 . S
C389 C391 1.390 . S
C389 H393 0.950 . S
H390 C386 0.950 . S
C391 C389 1.390 . S
C391 C392 1.387 . S
C391 H394 0.950 . S
C392 C391 1.387 . S
C392 C395 1.387 . S
H393 C389 0.950 . S
H394 C391 0.950 . S
C395 C386 1.390 . S
C395 H388 0.950 . S
C395 C392 1.387 . S
C396 C397 1.387 . S
C396 H400 0.950 . S
C396 C405 1.390 . S
C397 C396 1.387 . S
C397 C399 1.387 . S
H398 C405 0.950 . S
C399 C397 1.387 . S
C399 C401 1.390 . S
C399 H403 0.950 . S
H400 C396 0.950 . S
C401 C399 1.390 . S
C401 C402 1.387 . S
C401 H404 0.950 . S
C402 C401 1.387 . S
C402 C405 1.387 . S
H403 C399 0.950 . S
H404 C401 0.950 . S
C405 C396 1.390 . S
C405 H398 0.950 . S
C405 C402 1.387 . S
C406 C407 1.387 . S
C406 H410 0.950 . S
C406 C415 1.390 . S
C407 C406 1.387 . S
C407 C409 1.387 . S
H408 C415 0.950 . S
C409 C407 1.387 . S
C409 C411 1.390 . S
C409 H413 0.950 . S
H410 C406 0.950 . S
C411 C409 1.390 . S
C411 C412 1.387 . S
C411 H414 0.950 . S
C412 C411 1.387 . S
C412 C415 1.387 . S
H413 C409 0.950 . S
H414 C411 0.950 . S
C415 C406 1.390 . S
C415 H408 0.950 . S
C415 C412 1.387 . S
C177 C7 1.468 . S
C182 C97 1.468 . S
C187 C119 1.466 . S
C192 C29 1.467 . S
C197 C49 1.468 . S
C202 C138 1.468 . S
C207 C71 1.466 . S
C212 C160 1.467 . S
C217 C73 1.468 . S
C222 C163 1.467 . S
C227 C116 1.466 . S
C232 C27 1.465 . S
C237 C141 1.468 . S
C242 C51 1.468 . S
C247 C5 1.468 . S
C252 C94 1.468 . S
C257 C115 1.493 . S
C262 C4 1.494 . S
C267 C26 1.493 . S
C272 C140 1.493 . S
C277 C162 1.493 . S
C282 C53 1.492 . S
C287 C93 1.493 . S
C292 C75 1.493 . S
C297 C92 1.494 . S
C302 C72 1.494 . S
C307 C158 1.495 . S
C312 C52 1.494 . S
C317 C30 1.495 . S
C322 C139 1.494 . S
C327 C117 1.495 . S
C332 C6 1.494 . S
C337 C159 1.495 . S
C342 C48 1.494 . S
C347 C96 1.493 . S
C352 C70 1.496 . S
C357 C118 1.495 . S
C362 C9 1.494 . S
C367 C31 1.493 . S
C372 C137 1.495 . S
C377 C136 1.494 . S
C382 C28 1.491 . S
C387 C8 1.493 . S
C392 C114 1.493 . S
C397 C95 1.494 . S
C402 C74 1.493 . S
C407 C161 1.495 . S
C412 C50 1.492 . S
