# Generated by pormake.
# Topology uop, (4)-cn, num edge types: 1
# Building blocks:
#     Node 0, Type 0, BuildingBlock: ICAMEG_clean_sbu_1, # of connection points: 4
#     Node 1, Type 0, BuildingBlock: ICAMEG_clean_sbu_1, # of connection points: 4
#     Node 2, Type 0, BuildingBlock: ICAMEG_clean_sbu_1, # of connection points: 4
#     Node 3, Type 0, BuildingBlock: ICAMEG_clean_sbu_1, # of connection points: 4
#     Node 4, Type 0, BuildingBlock: ICAMEG_clean_sbu_1, # of connection points: 4
#     Node 5, Type 0, BuildingBlock: ICAMEG_clean_sbu_1, # of connection points: 4
#     Node 6, Type 0, BuildingBlock: ICAMEG_clean_sbu_1, # of connection points: 4
#     Node 7, Type 0, BuildingBlock: ICAMEG_clean_sbu_1, # of connection points: 4
#     Node 8, Type 0, BuildingBlock: ICAMEG_clean_sbu_1, # of connection points: 4
#     Node 9, Type 0, BuildingBlock: ICAMEG_clean_sbu_1, # of connection points: 4
#     Node 10, Type 0, BuildingBlock: ICAMEG_clean_sbu_1, # of connection points: 4
#     Node 11, Type 0, BuildingBlock: ICAMEG_clean_sbu_1, # of connection points: 4
#     Edge 12, Type (0, 0), BuildingBlock: XUDNAN_clean_linker_2, # of connection points: 2
#     Edge 13, Type (0, 0), BuildingBlock: XUDNAN_clean_linker_2, # of connection points: 2
#     Edge 14, Type (0, 0), BuildingBlock: XUDNAN_clean_linker_2, # of connection points: 2
#     Edge 15, Type (0, 0), BuildingBlock: XUDNAN_clean_linker_2, # of connection points: 2
#     Edge 16, Type (0, 0), BuildingBlock: XUDNAN_clean_linker_2, # of connection points: 2
#     Edge 17, Type (0, 0), BuildingBlock: XUDNAN_clean_linker_2, # of connection points: 2
#     Edge 18, Type (0, 0), BuildingBlock: XUDNAN_clean_linker_2, # of connection points: 2
#     Edge 19, Type (0, 0), BuildingBlock: XUDNAN_clean_linker_2, # of connection points: 2
#     Edge 20, Type (0, 0), BuildingBlock: XUDNAN_clean_linker_2, # of connection points: 2
#     Edge 21, Type (0, 0), BuildingBlock: XUDNAN_clean_linker_2, # of connection points: 2
#     Edge 22, Type (0, 0), BuildingBlock: XUDNAN_clean_linker_2, # of connection points: 2
#     Edge 23, Type (0, 0), BuildingBlock: XUDNAN_clean_linker_2, # of connection points: 2
#     Edge 24, Type (0, 0), BuildingBlock: XUDNAN_clean_linker_2, # of connection points: 2
#     Edge 25, Type (0, 0), BuildingBlock: XUDNAN_clean_linker_2, # of connection points: 2
#     Edge 26, Type (0, 0), BuildingBlock: XUDNAN_clean_linker_2, # of connection points: 2
#     Edge 27, Type (0, 0), BuildingBlock: XUDNAN_clean_linker_2, # of connection points: 2
#     Edge 28, Type (0, 0), BuildingBlock: XUDNAN_clean_linker_2, # of connection points: 2
#     Edge 29, Type (0, 0), BuildingBlock: XUDNAN_clean_linker_2, # of connection points: 2
#     Edge 30, Type (0, 0), BuildingBlock: XUDNAN_clean_linker_2, # of connection points: 2
#     Edge 31, Type (0, 0), BuildingBlock: XUDNAN_clean_linker_2, # of connection points: 2
#     Edge 32, Type (0, 0), BuildingBlock: XUDNAN_clean_linker_2, # of connection points: 2
#     Edge 33, Type (0, 0), BuildingBlock: XUDNAN_clean_linker_2, # of connection points: 2
#     Edge 34, Type (0, 0), BuildingBlock: XUDNAN_clean_linker_2, # of connection points: 2
#     Edge 35, Type (0, 0), BuildingBlock: XUDNAN_clean_linker_2, # of connection points: 2
# Relax obj value: 0.105
# Max RMSD: 0.102
# Mean RMSD: 0.102
data_MOF--net-uop--node1-ICAMEG_clean_sbu_1--edge1-XUDNAN_clean_linker_2
_symmetry_space_group_name_H-M    P1
_symmetry_Int_Tables_number       1
_symmetry_cell_setting            triclinic
loop_
_symmetry_equiv_pos_as_xyz
'x, y, z'
_cell_length_a     35.348475
_cell_length_b     35.282935
_cell_length_c     43.781652
_cell_angle_alpha  90.067305
_cell_angle_beta   89.913943
_cell_angle_gamma 119.81016
loop_
_atom_site_label
_atom_site_type_symbol
_atom_site_fract_x
_atom_site_fract_y
_atom_site_fract_z
_atom_type_partial_charge
Co0 Co 0.28215 0.44789 0.22208 0.0
Co1 Co 0.25237 0.37022 0.16508 0.0
O2 O 0.24699 0.41535 0.1871 0.0
C3 C 0.30041 0.51306 0.17444 0.0
O4 O 0.30487 0.48612 0.15611 0.0
C5 C 0.16352 0.32573 0.19038 0.0
O6 O 0.18191 0.34528 0.21608 0.0
O7 O 0.258 0.34363 0.20385 0.0
O8 O 0.27328 0.393 0.24128 0.0
H9 H 0.31788 0.27597 0.14008 0.0
H10 H 0.20859 0.45982 0.20201 0.0
O11 O 0.29184 0.50355 0.20262 0.0
H12 H 0.17427 0.40677 0.30816 0.0
H13 H 0.33486 0.56553 0.30245 0.0
H14 H 0.34845 0.44297 0.26075 0.0
H15 H 0.24221 0.41869 0.28366 0.0
H16 H 0.29079 0.52365 0.25808 0.0
O17 O 0.18694 0.3318 0.16669 0.0
H18 H 0.31194 0.33369 0.16782 0.0
H19 H 0.20144 0.30909 0.11486 0.0
H20 H 0.39268 0.48356 0.30526 0.0
H21 H 0.14045 0.44869 0.2257 0.0
H22 H 0.38592 0.5452 0.3265 0.0
H23 H 0.12287 0.42186 0.27913 0.0
O24 O 0.33642 0.45547 0.20274 0.0
H25 H 0.18704 0.43511 0.09511 0.0
H26 H 0.30273 0.39679 0.10685 0.0
H27 H 0.29875 0.43222 0.05937 0.0
H28 H 0.24058 0.45163 0.05329 0.0
H29 H 0.19242 0.39995 0.14229 0.0
H30 H 0.20599 0.25088 0.08667 0.0
H31 H 0.26464 0.23412 0.09917 0.0
O32 O 0.31758 0.40784 0.16363 0.0
C33 C 0.2661 0.35584 0.23171 0.0
C34 C 0.29226 0.28307 0.13435 0.0
C35 C 0.22942 0.26894 0.10441 0.0
N36 N 0.25658 0.32493 0.1428 0.0
C37 C 0.28882 0.31579 0.14992 0.0
C38 C 0.22695 0.30186 0.12049 0.0
C39 C 0.26235 0.25956 0.11142 0.0
C40 C 0.20136 0.44853 0.22536 0.0
N41 N 0.22946 0.44018 0.24151 0.0
C42 C 0.16265 0.44212 0.23861 0.0
C43 C 0.15278 0.42702 0.26858 0.0
C44 C 0.18159 0.41853 0.28488 0.0
C45 C 0.21998 0.42527 0.27088 0.0
C46 C 0.33801 0.53865 0.29343 0.0
C47 C 0.34522 0.46969 0.26986 0.0
C48 C 0.31327 0.51494 0.26826 0.0
N49 N 0.31691 0.48079 0.25691 0.0
C50 C 0.37044 0.49263 0.29505 0.0
C51 C 0.36669 0.52727 0.30691 0.0
C52 C 0.34594 0.4383 0.1805 0.0
C53 C 0.21245 0.42669 0.09745 0.0
C54 C 0.27733 0.40514 0.10436 0.0
C55 C 0.2752 0.42514 0.07741 0.0
C56 C 0.24254 0.436 0.07401 0.0
N57 N 0.24769 0.3961 0.12724 0.0
C58 C 0.21555 0.40661 0.12406 0.0
Co59 Co 0.83099 0.28339 0.59352 0.0
Co60 Co 0.86449 0.25044 0.52919 0.0
O61 O 0.81958 0.24915 0.55603 0.0
C62 C 0.78116 0.31049 0.55457 0.0
O63 O 0.80712 0.31343 0.53212 0.0
C64 C 0.81202 0.1573 0.54707 0.0
O65 O 0.8145 0.17152 0.57512 0.0
O66 O 0.89692 0.2449 0.56477 0.0
O67 O 0.87474 0.26698 0.60614 0.0
H68 H 0.01797 0.29985 0.49545 0.0
H69 H 0.74057 0.21624 0.57736 0.0
O70 O 0.78665 0.2997 0.58121 0.0
H71 H 0.76899 0.17122 0.67737 0.0
H72 H 0.7885 0.34265 0.68391 0.0
H73 H 0.91045 0.3439 0.62817 0.0
H74 H 0.82511 0.23854 0.65243 0.0
H75 H 0.77467 0.29641 0.6383 0.0
O76 O 0.82996 0.18464 0.52536 0.0
H77 H 0.96111 0.29843 0.52898 0.0
H78 H 0.86223 0.20323 0.47207 0.0
H79 H 0.92571 0.39034 0.67385 0.0
H80 H 0.68338 0.14886 0.6016 0.0
H81 H 0.86446 0.39011 0.7019 0.0
H82 H 0.69749 0.1259 0.65193 0.0
O83 O 0.8774 0.33732 0.57352 0.0
H84 H 0.73022 0.21272 0.46796 0.0
H85 H 0.88964 0.30832 0.47438 0.0
H86 H 0.84928 0.31787 0.43195 0.0
H87 H 0.76894 0.26992 0.42863 0.0
H88 H 0.77186 0.2045 0.51009 0.0
H89 H 0.918 0.20335 0.43806 0.0
H90 H 0.99651 0.25207 0.44961 0.0
O91 O 0.8997 0.31597 0.53216 0.0
C92 C 0.89725 0.2523 0.59337 0.0
C93 C 0.98387 0.2786 0.49012 0.0
C94 C 0.92776 0.22439 0.45793 0.0
N95 N 0.90845 0.25105 0.50234 0.0
C96 C 0.95155 0.27775 0.50897 0.0
C97 C 0.89634 0.22439 0.47731 0.0
C98 C 0.97181 0.25174 0.46442 0.0
C99 C 0.7468 0.20665 0.59938 0.0
N100 N 0.78604 0.23137 0.61353 0.0
C101 C 0.71436 0.16839 0.61295 0.0
C102 C 0.72232 0.1555 0.64117 0.0
C103 C 0.76243 0.1809 0.65545 0.0
C104 C 0.7941 0.21894 0.6412 0.0
C105 C 0.81544 0.34297 0.6719 0.0
C106 C 0.88359 0.34319 0.64051 0.0
C107 C 0.80782 0.31689 0.64604 0.0
N108 N 0.84171 0.31728 0.63069 0.0
C109 C 0.89245 0.3697 0.66628 0.0
C110 C 0.85808 0.36959 0.68199 0.0
C111 C 0.90184 0.34555 0.55017 0.0
C112 C 0.76523 0.23375 0.46913 0.0
C113 C 0.85471 0.28737 0.47308 0.0
C114 C 0.83203 0.29285 0.44897 0.0
C115 C 0.78697 0.2659 0.44709 0.0
N116 N 0.83314 0.25591 0.49468 0.0
C117 C 0.789 0.22915 0.49286 0.0
Co118 Co 0.5534 0.82544 0.90554 0.0
Co119 Co 0.64076 0.88188 0.85659 0.0
O120 O 0.58971 0.82881 0.87099 0.0
C121 C 0.49353 0.79167 0.85344 0.0
O122 O 0.52207 0.82671 0.8387 0.0
C123 C 0.67294 0.82092 0.87049 0.0
O124 O 0.65289 0.81551 0.89674 0.0
O125 O 0.66432 0.89828 0.89881 0.0
O126 O 0.60603 0.86484 0.93014 0.0
H127 H 0.75249 0.0417 0.85736 0.0
H128 H 0.5417 0.74405 0.87688 0.0
O129 O 0.50033 0.78593 0.88117 0.0
H130 H 0.58046 0.73767 0.98417 0.0
H131 H 0.42493 0.74783 0.97634 0.0
H132 H 0.55372 0.88904 0.95001 0.0
H133 H 0.57336 0.79985 0.96566 0.0
H134 H 0.47321 0.75308 0.93381 0.0
O135 O 0.67231 0.84746 0.85094 0.0
H136 H 0.68731 0.97497 0.87544 0.0
H137 H 0.70449 0.90031 0.80635 0.0
H138 H 0.50647 0.88523 0.99282 0.0
H139 H 0.54809 0.68108 0.89449 0.0
H140 H 0.4415 0.81424 0.00618 0.0
H141 H 0.56777 0.67772 0.94846 0.0
O142 O 0.5498 0.87694 0.89081 0.0
H143 H 0.57262 0.78012 0.76765 0.0
H144 H 0.62669 0.92985 0.80595 0.0
H145 H 0.59492 0.91019 0.75429 0.0
H146 H 0.5676 0.83483 0.73484 0.0
H147 H 0.60436 0.80109 0.81923 0.0
H148 H 0.77006 0.96617 0.7876 0.0
H149 H 0.79435 0.03753 0.81311 0.0
O150 O 0.61001 0.91671 0.86238 0.0
C151 C 0.64656 0.89034 0.92518 0.0
C152 C 0.74215 0.01083 0.84598 0.0
C153 C 0.75205 0.96842 0.80686 0.0
N154 N 0.69192 0.93391 0.8418 0.0
C155 C 0.7052 0.97297 0.85607 0.0
C156 C 0.71495 0.93124 0.8176 0.0
C157 C 0.76565 0.00846 0.82117 0.0
C158 C 0.54982 0.74259 0.90048 0.0
N159 N 0.55693 0.77547 0.92026 0.0
C160 C 0.55357 0.70695 0.91029 0.0
C161 C 0.56468 0.70511 0.94056 0.0
C162 C 0.57183 0.73875 0.9606 0.0
C163 C 0.56783 0.7739 0.94998 0.0
C164 C 0.45319 0.77893 0.97078 0.0
C165 C 0.5257 0.85797 0.95587 0.0
C166 C 0.48061 0.78211 0.94671 0.0
N167 N 0.51642 0.82126 0.93962 0.0
C168 C 0.49899 0.85604 0.98006 0.0
C169 C 0.46251 0.8162 0.98752 0.0
C170 C 0.57505 0.91099 0.87543 0.0
C171 C 0.58455 0.81309 0.77582 0.0
C172 C 0.61488 0.897 0.79763 0.0
C173 C 0.59698 0.88607 0.76835 0.0
C174 C 0.58169 0.84379 0.75745 0.0
N175 N 0.61762 0.86672 0.81549 0.0
C176 C 0.60275 0.82522 0.80495 0.0
Co177 Co 0.72143 0.5551 0.24145 0.0
Co178 Co 0.75671 0.62306 0.17822 0.0
O179 O 0.76018 0.58215 0.20662 0.0
C180 C 0.71276 0.48043 0.2052 0.0
O181 O 0.71002 0.50035 0.18072 0.0
C182 C 0.84575 0.67173 0.20311 0.0
O183 O 0.82744 0.65939 0.23009 0.0
O184 O 0.75218 0.65823 0.21254 0.0
O185 O 0.72416 0.61116 0.25194 0.0
H186 H 0.69551 0.71371 0.13595 0.0
H187 H 0.80047 0.54682 0.23466 0.0
O188 O 0.71758 0.49794 0.23142 0.0
H189 H 0.81782 0.62147 0.33325 0.0
H190 H 0.66247 0.45327 0.33157 0.0
H191 H 0.64759 0.56104 0.26879 0.0
H192 H 0.75203 0.59869 0.3019 0.0
H193 H 0.71279 0.49025 0.28863 0.0
O194 O 0.82209 0.66019 0.17919 0.0
H195 H 0.69945 0.66172 0.17166 0.0
H196 H 0.80915 0.67249 0.12405 0.0
H197 H 0.59692 0.52523 0.31166 0.0
H198 H 0.86666 0.56877 0.26537 0.0
H199 H 0.60401 0.47066 0.3433 0.0
H200 H 0.87569 0.6065 0.315 0.0
O201 O 0.66913 0.53899 0.21605 0.0
H202 H 0.81931 0.54146 0.12336 0.0
H203 H 0.70754 0.58619 0.12031 0.0
H204 H 0.71081 0.54062 0.07876 0.0
H205 H 0.767 0.51793 0.08015 0.0
H206 H 0.81463 0.58671 0.16456 0.0
H207 H 0.80664 0.72488 0.08799 0.0
H208 H 0.74939 0.74566 0.09376 0.0
O209 O 0.69136 0.58644 0.17671 0.0
C210 C 0.73711 0.64828 0.23966 0.0
C211 C 0.72052 0.7048 0.13315 0.0
C212 C 0.78294 0.71112 0.10625 0.0
N213 N 0.75427 0.66386 0.14979 0.0
C214 C 0.72283 0.6753 0.15324 0.0
C215 C 0.78425 0.68153 0.12678 0.0
C216 C 0.75079 0.72275 0.10949 0.0
C217 C 0.80398 0.56282 0.25638 0.0
N218 N 0.77233 0.5712 0.26658 0.0
C219 C 0.84161 0.57534 0.27361 0.0
C220 C 0.84668 0.59657 0.30144 0.0
C221 C 0.81423 0.60499 0.31168 0.0
C222 C 0.77707 0.59205 0.29382 0.0
C223 C 0.65901 0.47692 0.31791 0.0
C224 C 0.65109 0.53757 0.28253 0.0
C225 C 0.68731 0.49786 0.2935 0.0
N226 N 0.68305 0.52768 0.27611 0.0
C227 C 0.62223 0.51732 0.30677 0.0
C228 C 0.62623 0.48672 0.32451 0.0
C229 C 0.6617 0.55494 0.19218 0.0
C230 C 0.79473 0.55121 0.12247 0.0
C231 C 0.732 0.57635 0.12111 0.0
C232 C 0.73377 0.55065 0.09748 0.0
C233 C 0.76533 0.53796 0.09825 0.0
N234 N 0.76088 0.58912 0.14482 0.0
C235 C 0.79204 0.57698 0.14567 0.0
Co236 Co 0.16763 0.73884 0.57723 0.0
Co237 Co 0.12529 0.75353 0.50975 0.0
O238 O 0.17392 0.76463 0.53666 0.0
C239 C 0.22158 0.71115 0.54304 0.0
O240 O 0.19482 0.70247 0.51998 0.0
C241 C 0.17255 0.8512 0.51605 0.0
O242 O 0.17368 0.8471 0.54579 0.0
O243 O 0.09315 0.76298 0.54391 0.0
O244 O 0.12051 0.75153 0.58716 0.0
H245 H 0.96751 0.68501 0.4802 0.0
H246 H 0.25441 0.8079 0.55583 0.0
O247 O 0.21542 0.7259 0.56796 0.0
H248 H 0.22382 0.86759 0.64857 0.0
H249 H 0.22297 0.70971 0.67534 0.0
H250 H 0.09248 0.68048 0.6163 0.0
H251 H 0.17134 0.79352 0.63043 0.0
H252 H 0.23028 0.74277 0.62448 0.0
O253 O 0.15451 0.81735 0.49906 0.0
H254 H 0.02917 0.69902 0.51374 0.0
H255 H 0.11884 0.78598 0.44812 0.0
H256 H 0.08368 0.64697 0.66711 0.0
H257 H 0.30797 0.88203 0.5733 0.0
H258 H 0.14925 0.66149 0.69699 0.0
H259 H 0.29273 0.91238 0.61993 0.0
O260 O 0.12381 0.6793 0.56228 0.0
H261 H 0.25763 0.7888 0.44664 0.0
H262 H 0.10065 0.68617 0.46094 0.0
H263 H 0.14063 0.67235 0.42022 0.0
H264 H 0.21975 0.72387 0.41293 0.0
H265 H 0.21643 0.80114 0.48721 0.0
H266 H 0.05816 0.77322 0.41399 0.0
H267 H 0.98185 0.72227 0.42992 0.0
O268 O 0.09552 0.68946 0.51914 0.0
C269 C 0.09499 0.76101 0.57294 0.0
C270 C 1.00062 0.70719 0.47296 0.0
C271 C 0.05149 0.75676 0.43582 0.0
N272 N 0.07754 0.74306 0.48281 0.0
C273 C 0.03566 0.71516 0.49182 0.0
C274 C 0.08571 0.76395 0.45528 0.0
C275 C 0.00869 0.72814 0.44477 0.0
C276 C 0.24776 0.82073 0.57631 0.0
N277 N 0.20994 0.79632 0.59219 0.0
C278 C 0.27812 0.86278 0.58602 0.0
C279 C 0.26952 0.87981 0.61217 0.0
C280 C 0.23086 0.85471 0.62824 0.0
C281 C 0.20125 0.8128 0.61784 0.0
C282 C 0.19416 0.70318 0.66256 0.0
C283 C 0.12118 0.68717 0.62924 0.0
C284 C 0.1981 0.72174 0.63374 0.0
N285 N 0.16185 0.71374 0.61753 0.0
C286 C 0.11598 0.66801 0.65797 0.0
C287 C 0.15278 0.67614 0.6747 0.0
C288 C 0.09772 0.6649 0.53964 0.0
C289 C 0.22317 0.76613 0.44958 0.0
C290 C 0.13509 0.70859 0.45797 0.0
C291 C 0.15753 0.70071 0.43481 0.0
C292 C 0.2019 0.72966 0.43071 0.0
N293 N 0.15621 0.74428 0.47652 0.0
C294 C 0.19963 0.77302 0.47245 0.0
Co295 Co 0.45749 0.1932 0.91119 0.0
Co296 Co 0.37616 0.1157 0.86543 0.0
O297 O 0.42008 0.17565 0.87527 0.0
C298 C 0.51822 0.22436 0.85946 0.0
O299 O 0.49303 0.186 0.84704 0.0
C300 C 0.32847 0.16557 0.86665 0.0
O301 O 0.34565 0.18027 0.89366 0.0
O302 O 0.35244 0.10528 0.9078 0.0
O303 O 0.40746 0.15294 0.93764 0.0
H304 H 0.28895 0.95355 0.88201 0.0
H305 H 0.45397 0.25973 0.87199 0.0
O306 O 0.50842 0.23369 0.88533 0.0
H307 H 0.40791 0.28001 0.97421 0.0
H308 H 0.57813 0.30166 0.97866 0.0
H309 H 0.46808 0.1466 0.96383 0.0
H310 H 0.42977 0.22444 0.96561 0.0
H311 H 0.52883 0.27853 0.93417 0.0
O312 O 0.33554 0.13771 0.85289 0.0
H313 H 0.34553 0.02912 0.89399 0.0
H314 H 0.31132 0.07544 0.81515 0.0
H315 H 0.51645 0.16832 0.00881 0.0
H316 H 0.43259 0.31586 0.87957 0.0
H317 H 0.57199 0.24635 0.0164 0.0
H318 H 0.40912 0.3261 0.93094 0.0
O319 O 0.47258 0.14662 0.90362 0.0
H320 H 0.4317 0.2001 0.76757 0.0
H321 H 0.40193 0.06636 0.82287 0.0
H322 H 0.43338 0.07935 0.77105 0.0
H323 H 0.44844 0.14662 0.74303 0.0
H324 H 0.40066 0.18605 0.81952 0.0
H325 H 0.2542 1.00035 0.80236 0.0
H326 H 0.24281 0.93878 0.83588 0.0
O327 O 0.41687 0.09343 0.87716 0.0
C328 C 0.36877 0.12123 0.93387 0.0
C329 C 0.29366 0.98008 0.86718 0.0
C330 C 0.27411 0.00637 0.82251 0.0
N331 N 0.33179 0.05658 0.85523 0.0
C332 C 0.32569 0.02292 0.87382 0.0
C333 C 0.30641 0.04881 0.8299 0.0
C334 C 0.26776 0.97183 0.84131 0.0
C335 C 0.44419 0.2643 0.89448 0.0
N336 N 0.44308 0.23884 0.91833 0.0
C337 C 0.43198 0.29602 0.8986 0.0
C338 C 0.41876 0.30171 0.92743 0.0
C339 C 0.41803 0.27583 0.9517 0.0
C340 C 0.43033 0.24434 0.94669 0.0
C341 C 0.55399 0.26758 0.97564 0.0
C342 C 0.49194 0.18066 0.96714 0.0
C343 C 0.52605 0.25428 0.95047 0.0
N344 N 0.49539 0.21132 0.94659 0.0
C345 C 0.51933 0.19274 0.99258 0.0
C346 C 0.55052 0.23653 0.99681 0.0
C347 C 0.45375 0.10928 0.89063 0.0
C348 C 0.42516 0.17061 0.77951 0.0
C349 C 0.40843 0.09574 0.81085 0.0
C350 C 0.42618 0.10288 0.78149 0.0
C351 C 0.4346 0.14062 0.76577 0.0
N352 N 0.39924 0.1253 0.82417 0.0
C353 C 0.40738 0.16236 0.80888 0.0
Co354 Co 0.54524 0.72628 0.43027 0.0
Co355 Co 0.63536 0.75561 0.47464 0.0
O356 O 0.58398 0.75957 0.46379 0.0
C357 C 0.48628 0.70682 0.48254 0.0
O358 O 0.51302 0.69826 0.49789 0.0
C359 C 0.67166 0.8529 0.47166 0.0
O360 O 0.6573 0.84919 0.44355 0.0
O361 O 0.65758 0.76998 0.43185 0.0
O362 O 0.59546 0.73292 0.4052 0.0
H363 H 0.74757 0.70931 0.4601 0.0
H364 H 0.54142 0.80191 0.45625 0.0
O365 O 0.49417 0.71874 0.45473 0.0
H366 H 0.57821 0.83741 0.34746 0.0
H367 H 0.41787 0.6827 0.35964 0.0
H368 H 0.53754 0.65628 0.38867 0.0
H369 H 0.5664 0.76754 0.36854 0.0
H370 H 0.4679 0.72442 0.40162 0.0
O371 O 0.66644 0.81927 0.48615 0.0
H372 H 0.68181 0.7134 0.44713 0.0
H373 H 0.70033 0.79232 0.52522 0.0
H374 H 0.48856 0.61415 0.34633 0.0
H375 H 0.55267 0.87205 0.43607 0.0
H376 H 0.42836 0.62751 0.33146 0.0
H377 H 0.57129 0.89019 0.38132 0.0
O378 O 0.53767 0.67061 0.44723 0.0
H379 H 0.56942 0.77416 0.57133 0.0
H380 H 0.62384 0.68664 0.51922 0.0
H381 H 0.59411 0.66669 0.57139 0.0
H382 H 0.5667 0.71064 0.59782 0.0
H383 H 0.59898 0.7927 0.51903 0.0
H384 H 0.76646 0.78934 0.53892 0.0
H385 H 0.79038 0.74746 0.5063 0.0
O386 O 0.60497 0.69146 0.46444 0.0
C387 C 0.637 0.75308 0.40707 0.0
C388 C 0.73741 0.72756 0.47454 0.0
C389 C 0.74805 0.77253 0.51875 0.0
N390 N 0.68708 0.7528 0.48551 0.0
C391 C 0.70015 0.72991 0.46735 0.0
C392 C 0.71063 0.77418 0.51084 0.0
C393 C 0.76144 0.74901 0.50045 0.0
C394 C 0.54915 0.80944 0.43234 0.0
N395 N 0.55299 0.78058 0.41356 0.0
C396 C 0.55564 0.84926 0.42107 0.0
C397 C 0.56615 0.85944 0.39036 0.0
C398 C 0.57006 0.82985 0.37135 0.0
C399 C 0.56341 0.79038 0.38343 0.0
C400 C 0.44412 0.67678 0.36581 0.0
C401 C 0.51156 0.66241 0.38222 0.0
C402 C 0.4725 0.70024 0.38958 0.0
N403 N 0.50596 0.6932 0.3973 0.0
C404 C 0.48383 0.63833 0.35831 0.0
C405 C 0.45 0.64575 0.35003 0.0
C406 C 0.56634 0.66189 0.45722 0.0
C407 C 0.5814 0.75485 0.56009 0.0
C408 C 0.61184 0.70585 0.53051 0.0
C409 C 0.59515 0.69446 0.56009 0.0
C410 C 0.57981 0.71915 0.57492 0.0
N411 N 0.61331 0.74092 0.51611 0.0
C412 C 0.59837 0.76531 0.53053 0.0
Co413 Co 0.83723 0.54733 0.74474 0.0
Co414 Co 0.88063 0.62276 0.80345 0.0
O415 O 0.83149 0.57474 0.7821 0.0
C416 C 0.7898 0.47365 0.78729 0.0
O417 O 0.81691 0.49754 0.8089 0.0
C418 C 0.8285 0.66987 0.79638 0.0
O419 O 0.83615 0.67487 0.76688 0.0
O420 O 0.90221 0.65678 0.76459 0.0
O421 O 0.88034 0.60516 0.72818 0.0
H422 H 0.03756 0.7374 0.81784 0.0
H423 H 0.75054 0.52985 0.76633 0.0
O424 O 0.79357 0.48861 0.76039 0.0
H425 H 0.76584 0.5897 0.66245 0.0
H426 H 0.78209 0.43746 0.65893 0.0
H427 H 0.91166 0.56059 0.70595 0.0
H428 H 0.82399 0.57924 0.68476 0.0
H429 H 0.7747 0.47453 0.7045 0.0
O430 O 0.8433 0.65003 0.81257 0.0
H431 H 0.97552 0.67587 0.79184 0.0
H432 H 0.88901 0.67321 0.86035 0.0
H433 H 0.92042 0.52491 0.66017 0.0
H434 H 0.69134 0.53939 0.74483 0.0
H435 H 0.85536 0.46262 0.63647 0.0
H436 H 0.69885 0.56963 0.69255 0.0
O437 O 0.88494 0.54019 0.76285 0.0
H438 H 0.76611 0.52917 0.88013 0.0
H439 H 0.92261 0.60175 0.85482 0.0
H440 H 0.89607 0.5577 0.90182 0.0
H441 H 0.81724 0.52105 0.91474 0.0
H442 H 0.79406 0.57313 0.8332 0.0
H443 H 0.95005 0.73493 0.88694 0.0
H444 H 0.02499 0.76733 0.86574 0.0
O445 O 0.91842 0.59555 0.79622 0.0
C446 C 0.90127 0.64482 0.73691 0.0
C447 C 0.00508 0.72346 0.82736 0.0
C448 C 0.95594 0.72212 0.86611 0.0
N449 N 0.92876 0.67076 0.82468 0.0
C450 C 0.96985 0.68854 0.81279 0.0
C451 C 0.92149 0.68725 0.8509 0.0
C452 C 0.99799 0.74028 0.85421 0.0
C453 C 0.75395 0.54284 0.74351 0.0
N454 N 0.79073 0.55404 0.72683 0.0
C455 C 0.72036 0.54824 0.73148 0.0
C456 C 0.72461 0.56525 0.70216 0.0
C457 C 0.7622 0.57654 0.68527 0.0
C458 C 0.79512 0.57072 0.69806 0.0
C459 C 0.81067 0.46458 0.66904 0.0
C460 C 0.8831 0.53389 0.69555 0.0
C461 C 0.80671 0.48564 0.69488 0.0
N462 N 0.84269 0.51984 0.70781 0.0
C463 C 0.8883 0.51368 0.6697 0.0
C464 C 0.85179 0.47873 0.65643 0.0
C465 C 0.91569 0.56291 0.78149 0.0
C466 C 0.80052 0.54497 0.87475 0.0
C467 C 0.88827 0.58552 0.86012 0.0
C468 C 0.87343 0.56084 0.88687 0.0
C469 C 0.82922 0.54036 0.89413 0.0
N470 N 0.85993 0.5897 0.84113 0.0
C471 C 0.81658 0.57 0.84825 0.0
Co472 Co 0.27046 0.83959 0.09246 0.0
Co473 Co 0.25416 0.88073 0.1601 0.0
O474 O 0.24208 0.83272 0.13209 0.0
C475 C 0.29054 0.77949 0.12634 0.0
O476 O 0.29841 0.80458 0.15038 0.0
C477 C 0.15793 0.837 0.14995 0.0
O478 O 0.1643 0.83492 0.12059 0.0
O479 O 0.25116 0.91733 0.12621 0.0
O480 O 0.26294 0.89026 0.08295 0.0
H481 H 0.33012 0.03721 0.19469 0.0
H482 H 0.19591 0.75411 0.11077 0.0
O483 O 0.27862 0.7886 0.1013 0.0
H484 H 0.14926 0.79412 0.01589 0.0
H485 H 0.3021 0.78573 0.99436 0.0
H486 H 0.33458 0.91539 0.05612 0.0
H487 H 0.22264 0.84193 0.03703 0.0
H488 H 0.26635 0.77766 0.04428 0.0
O489 O 0.19025 0.85511 0.16813 0.0
H490 H 0.31487 0.97629 0.15981 0.0
H491 H 0.21803 0.88646 0.22053 0.0
H492 H 0.37049 0.92497 0.00614 0.0
H493 H 0.12233 0.70511 0.09033 0.0
H494 H 0.35443 0.85983 0.97493 0.0
H495 H 0.09853 0.72513 0.04263 0.0
O496 O 0.3294 0.87949 0.10993 0.0
H497 H 0.20398 0.74219 0.21979 0.0
H498 H 0.31571 0.8978 0.21167 0.0
H499 H 0.32179 0.85271 0.25228 0.0
H500 H 0.26565 0.77427 0.25649 0.0
H501 H 0.19942 0.78839 0.17937 0.0
H502 H 0.23196 0.94643 0.25595 0.0
H503 H 0.28848 0.02244 0.24315 0.0
O504 O 0.31813 0.90657 0.1534 0.0
C505 C 0.25582 0.91753 0.09725 0.0
C506 C 0.30546 0.00423 0.20054 0.0
C507 C 0.25032 0.95329 0.2349 0.0
N508 N 0.26568 0.92787 0.18815 0.0
C509 C 0.29674 0.9696 0.18091 0.0
C510 C 0.24245 0.91948 0.2147 0.0
C511 C 0.28206 0.99592 0.22772 0.0
C512 C 0.18589 0.76287 0.08988 0.0
N513 N 0.2135 0.80087 0.07513 0.0
C514 C 0.14415 0.73506 0.07847 0.0
C515 C 0.13079 0.74634 0.05172 0.0
C516 C 0.15922 0.78507 0.03673 0.0
C517 C 0.20068 0.81211 0.04885 0.0
C518 C 0.30934 0.81436 0.00774 0.0
C519 C 0.32714 0.88688 0.04258 0.0
C520 C 0.28932 0.80999 0.03607 0.0
N521 N 0.2982 0.84602 0.05303 0.0
C522 C 0.3477 0.89252 0.01433 0.0
C523 C 0.33869 0.85595 0.99684 0.0
C524 C 0.34309 0.90363 0.13364 0.0
C525 C 0.22864 0.77633 0.21819 0.0
C526 C 0.29131 0.86366 0.21327 0.0
C527 C 0.29481 0.83832 0.23638 0.0
C528 C 0.26328 0.79433 0.23875 0.0
N529 N 0.25738 0.84573 0.19309 0.0
C530 C 0.22616 0.80269 0.19541 0.0
Co531 Co 0.45746 0.2717 0.42458 0.0
Co532 Co 0.37002 0.25324 0.4704 0.0
O533 O 0.41662 0.24212 0.45779 0.0
C534 C 0.51191 0.29112 0.47918 0.0
O535 O 0.48327 0.29864 0.49289 0.0
C536 C 0.32649 0.16051 0.45234 0.0
O537 O 0.34943 0.17481 0.42715 0.0
O538 O 0.35222 0.25364 0.4273 0.0
O539 O 0.40922 0.26528 0.39762 0.0
H540 H 0.28026 0.32761 0.46753 0.0
H541 H 0.45573 0.19597 0.45514 0.0
O542 O 0.50653 0.27903 0.45132 0.0
H543 H 0.42331 0.1538 0.34683 0.0
H544 H 0.589 0.30796 0.35982 0.0
H545 H 0.46969 0.33916 0.37918 0.0
H546 H 0.43813 0.22641 0.36433 0.0
H547 H 0.5347 0.26859 0.40025 0.0
O548 O 0.32947 0.18774 0.47278 0.0
H549 H 0.34007 0.31486 0.45187 0.0
H550 H 0.29871 0.21191 0.51636 0.0
H551 H 0.52316 0.37917 0.33842 0.0
H552 H 0.44141 0.12313 0.43861 0.0
H553 H 0.5834 0.36373 0.32859 0.0
H554 H 0.4249 0.1016 0.38411 0.0
O555 O 0.46747 0.3294 0.43875 0.0
H556 H 0.4138 0.19566 0.56056 0.0
H557 H 0.38814 0.31287 0.52341 0.0
H558 H 0.41234 0.31502 0.57652 0.0
H559 H 0.42531 0.25609 0.59541 0.0
H560 H 0.38999 0.19501 0.50757 0.0
H561 H 0.23825 0.22336 0.53264 0.0
H562 H 0.22883 0.28166 0.50822 0.0
O563 O 0.41035 0.31852 0.46798 0.0
C564 C 0.37076 0.25903 0.40138 0.0
C565 C 0.28409 0.30218 0.47841 0.0
C566 C 0.26048 0.24363 0.51492 0.0
N567 N 0.323 0.26287 0.48332 0.0
C568 C 0.31796 0.29489 0.46968 0.0
C569 C 0.29469 0.23723 0.50557 0.0
C570 C 0.25522 0.27636 0.50122 0.0
C571 C 0.44897 0.18696 0.43134 0.0
N572 N 0.44793 0.21543 0.4107 0.0
C573 C 0.44073 0.14562 0.42214 0.0
C574 C 0.43141 0.13355 0.39156 0.0
C575 C 0.43049 0.16281 0.37063 0.0
C576 C 0.43883 0.20384 0.38067 0.0
C577 C 0.56283 0.31491 0.36384 0.0
C578 C 0.49557 0.33196 0.37482 0.0
C579 C 0.53202 0.29274 0.3867 0.0
N580 N 0.49886 0.30131 0.39186 0.0
C581 C 0.52583 0.35482 0.35179 0.0
C582 C 0.55966 0.34618 0.34631 0.0
C583 C 0.44698 0.34336 0.455 0.0
C584 C 0.40814 0.22146 0.55263 0.0
C585 C 0.39376 0.28714 0.53146 0.0
C586 C 0.4074 0.28849 0.56156 0.0
C587 C 0.41464 0.2554 0.57215 0.0
N588 N 0.38741 0.25371 0.51246 0.0
C589 C 0.39445 0.22115 0.52268 0.0
Co590 Co 0.18693 0.44658 0.74292 0.0
Co591 Co 0.14634 0.38147 0.80736 0.0
O592 O 0.19418 0.42277 0.78137 0.0
C593 C 0.23849 0.52373 0.78163 0.0
O594 O 0.21219 0.50181 0.80419 0.0
C595 C 0.19234 0.33335 0.79066 0.0
O596 O 0.19148 0.34549 0.76247 0.0
O597 O 0.11296 0.34497 0.7714 0.0
O598 O 0.14103 0.38784 0.73008 0.0
H599 H 0.98958 0.28801 0.83827 0.0
H600 H 0.27463 0.46447 0.76227 0.0
O601 O 0.23312 0.50646 0.75531 0.0
H602 H 0.2478 0.38824 0.6634 0.0
H603 H 0.24005 0.54325 0.64994 0.0
H604 H 0.11099 0.43195 0.70544 0.0
H605 H 0.19316 0.40443 0.68548 0.0
H606 H 0.24843 0.51251 0.69839 0.0
O607 O 0.17604 0.34533 0.81209 0.0
H608 H 0.05009 0.34047 0.80575 0.0
H609 H 0.14202 0.33414 0.86478 0.0
H610 H 0.10115 0.46144 0.65695 0.0
H611 H 0.33035 0.44927 0.74091 0.0
H612 H 0.16599 0.51756 0.62886 0.0
H613 H 0.31703 0.41077 0.69117 0.0
O614 O 0.14159 0.458 0.7608 0.0
H615 H 0.27991 0.46744 0.87185 0.0
H616 H 0.12354 0.41898 0.86069 0.0
H617 H 0.1646 0.46647 0.90395 0.0
H618 H 0.24339 0.49108 0.90969 0.0
H619 H 0.23766 0.42016 0.82881 0.0
H620 H 0.08251 0.28139 0.89784 0.0
H621 H 0.00565 0.25811 0.88469 0.0
O622 O 0.11615 0.41686 0.80326 0.0
C623 C 0.11443 0.35172 0.74264 0.0
C624 C 0.02294 0.29801 0.84429 0.0
C625 C 0.07509 0.29424 0.8777 0.0
N626 N 0.0995 0.34056 0.8335 0.0
C627 C 0.05732 0.32779 0.82602 0.0
C628 C 0.10864 0.32405 0.85887 0.0
C629 C 0.03198 0.28121 0.87032 0.0
C630 C 0.26876 0.44803 0.74049 0.0
N631 N 0.23076 0.43549 0.72508 0.0
C632 C 0.30036 0.43937 0.72856 0.0
C633 C 0.29284 0.41772 0.70067 0.0
C634 C 0.254 0.40505 0.68509 0.0
C635 C 0.22312 0.41421 0.69773 0.0
C636 C 0.21155 0.51878 0.66195 0.0
C637 C 0.13939 0.45617 0.69327 0.0
C638 C 0.21609 0.50135 0.68943 0.0
N639 N 0.18026 0.4703 0.70464 0.0
C640 C 0.1336 0.47284 0.66586 0.0
C641 C 0.16999 0.50434 0.65013 0.0
C642 C 0.11659 0.44437 0.78407 0.0
C643 C 0.24557 0.45683 0.86963 0.0
C644 C 0.1578 0.42952 0.86305 0.0
C645 C 0.18087 0.45636 0.88762 0.0
C646 C 0.22507 0.47014 0.89084 0.0
N647 N 0.17816 0.41668 0.84232 0.0
C648 C 0.22144 0.42991 0.84539 0.0
Co649 Co 0.73325 0.16356 0.10555 0.0
Co650 Co 0.75279 0.10802 0.16283 0.0
O651 O 0.76254 0.16127 0.14264 0.0
C652 C 0.71074 0.20852 0.15229 0.0
O653 O 0.7011 0.17441 0.16943 0.0
C654 C 0.84808 0.15651 0.15037 0.0
O655 O 0.83937 0.16202 0.12212 0.0
O656 O 0.75711 0.08234 0.1233 0.0
O657 O 0.74204 0.11724 0.08635 0.0
H658 H 0.68395 0.94566 0.17662 0.0
H659 H 0.80628 0.24486 0.13135 0.0
O660 O 0.72379 0.20991 0.12493 0.0
H661 H 0.8541 0.23165 0.02796 0.0
H662 H 0.69782 0.24076 0.02343 0.0
H663 H 0.67016 0.09799 0.06215 0.0
H664 H 0.78142 0.177 0.04701 0.0
H665 H 0.73456 0.2362 0.07004 0.0
O666 O 0.81719 0.13486 0.16919 0.0
H667 H 0.69569 0.01324 0.15152 0.0
H668 H 0.79146 0.0899 0.21755 0.0
H669 H 0.6332 0.10107 0.01528 0.0
H670 H 0.87911 0.3004 0.11315 0.0
H671 H 0.64686 0.17286 0.99567 0.0
H672 H 0.90351 0.29388 0.06116 0.0
O673 O 0.67508 0.11751 0.12073 0.0
H674 H 0.79826 0.22751 0.2408 0.0
H675 H 0.69102 0.07488 0.21546 0.0
H676 H 0.68313 0.10693 0.26349 0.0
H677 H 0.73703 0.18383 0.27641 0.0
H678 H 0.80462 0.19426 0.1929 0.0
H679 H 0.781 0.02316 0.24323 0.0
H680 H 0.72679 0.95039 0.22283 0.0
O681 O 0.68832 0.08066 0.15717 0.0
C682 C 0.75086 0.08808 0.09536 0.0
C683 C 0.70757 0.97718 0.18579 0.0
C684 C 0.7621 0.02068 0.22314 0.0
N685 N 0.74401 0.05544 0.18317 0.0
C686 C 0.71427 0.01555 0.17172 0.0
C687 C 0.76796 0.05835 0.20845 0.0
C688 C 0.73166 0.97985 0.21169 0.0
C689 C 0.81648 0.24205 0.10857 0.0
N690 N 0.78955 0.20786 0.0902 0.0
C691 C 0.85783 0.2735 0.09845 0.0
C692 C 0.87152 0.26979 0.06928 0.0
C693 C 0.84382 0.23487 0.05065 0.0
C694 C 0.80273 0.20399 0.06157 0.0
C695 C 0.69163 0.2093 0.03174 0.0
C696 C 0.67653 0.12938 0.05364 0.0
C697 C 0.71223 0.20651 0.05816 0.0
N698 N 0.70468 0.1669 0.0687 0.0
C699 C 0.65539 0.1309 0.02714 0.0
C700 C 0.66305 0.17118 0.01616 0.0
C701 C 0.66239 0.0869 0.1404 0.0
C702 C 0.77459 0.19397 0.23544 0.0
C703 C 0.71442 0.10839 0.22086 0.0
C704 C 0.70991 0.12633 0.24814 0.0
C705 C 0.74019 0.16946 0.25539 0.0
N706 N 0.74814 0.13268 0.20135 0.0
C707 C 0.7781 0.17491 0.2084 0.0
H708 H 0.29304 0.73592 0.17764 0.0
H709 H 0.29836 0.73438 0.07855 0.0
H710 H 0.30456 0.66791 0.0805 0.0
H711 H 0.36883 0.69617 0.19187 0.0
H712 H 0.33834 0.66292 0.22392 0.0
H713 H 0.33665 0.7119 0.215 0.0
H714 H 0.25236 0.66705 0.2119 0.0
H715 H 0.25378 0.61795 0.2208 0.0
H716 H 0.22689 0.62065 0.1866 0.0
H717 H 0.30855 0.60131 0.09271 0.0
H718 H 0.30761 0.53653 0.11446 0.0
H719 H 0.29793 0.57952 0.20575 0.0
C720 C 0.29599 0.72182 0.1564 0.0
C721 C 0.2954 0.74037 0.12794 0.0
C722 C 0.29865 0.72065 0.1006 0.0
C723 C 0.30235 0.68299 0.10146 0.0
C724 C 0.30253 0.66532 0.12982 0.0
C725 C 0.29928 0.68387 0.15681 0.0
C726 C 0.29834 0.65706 0.18412 0.0
C727 C 0.3379 0.6836 0.20495 0.0
C728 C 0.25528 0.63964 0.20189 0.0
C729 C 0.30131 0.62048 0.16819 0.0
C730 C 0.30405 0.62616 0.13689 0.0
C731 C 0.30659 0.59651 0.1172 0.0
C732 C 0.30609 0.55984 0.12981 0.0
C733 C 0.30281 0.55299 0.16182 0.0
C734 C 0.30057 0.5839 0.1812 0.0
H735 H 0.74209 0.30433 0.4995 0.0
H736 H 0.73248 0.32513 0.5963 0.0
H737 H 0.66379 0.32549 0.58709 0.0
H738 H 0.69557 0.37034 0.47124 0.0
H739 H 0.66667 0.33277 0.44064 0.0
H740 H 0.71717 0.33833 0.45447 0.0
H741 H 0.67854 0.25505 0.46455 0.0
H742 H 0.62782 0.24919 0.45106 0.0
H743 H 0.63087 0.23011 0.48866 0.0
H744 H 0.59452 0.31957 0.56797 0.0
H745 H 0.52904 0.30808 0.54006 0.0
H746 H 0.58291 0.28906 0.45596 0.0
C747 C 0.72601 0.3099 0.51864 0.0
C748 C 0.74266 0.31504 0.54856 0.0
C749 C 0.72024 0.32125 0.57317 0.0
C750 C 0.68128 0.32156 0.56818 0.0
C751 C 0.66522 0.31545 0.53849 0.0
C752 C 0.68687 0.30984 0.51412 0.0
C753 C 0.6613 0.30136 0.48478 0.0
C754 C 0.68669 0.33789 0.46141 0.0
C755 C 0.6489 0.25625 0.4715 0.0
C756 C 0.62166 0.30259 0.49657 0.0
C757 C 0.62474 0.3111 0.52755 0.0
C758 C 0.59181 0.31316 0.54366 0.0
C759 C 0.55475 0.30653 0.52762 0.0
C760 C 0.55091 0.29769 0.49586 0.0
C761 C 0.58487 0.2957 0.48024 0.0
H762 H 0.42488 0.71824 0.87807 0.0
H763 H 0.47551 0.78716 0.79236 0.0
H764 H 0.41344 0.72749 0.76499 0.0
H765 H 0.38943 0.61228 0.84965 0.0
H766 H 0.34094 0.58603 0.87289 0.0
H767 H 0.38781 0.63537 0.88606 0.0
H768 H 0.34043 0.67212 0.89225 0.0
H769 H 0.29334 0.62279 0.87918 0.0
H770 H 0.30941 0.67388 0.86017 0.0
H771 H 0.34925 0.65826 0.74657 0.0
H772 H 0.28543 0.5851 0.73845 0.0
H773 H 0.27552 0.56208 0.83629 0.0
C774 C 0.42269 0.72105 0.85358 0.0
C775 C 0.45498 0.7574 0.83734 0.0
C776 C 0.45102 0.75974 0.8053 0.0
C777 C 0.41592 0.72601 0.78955 0.0
C778 C 0.38495 0.69041 0.80621 0.0
C779 C 0.38779 0.68783 0.83753 0.0
C780 C 0.35084 0.64543 0.8499 0.0
C781 C 0.36832 0.61818 0.86554 0.0
C782 C 0.32178 0.65409 0.87166 0.0
C783 C 0.32719 0.62424 0.82054 0.0
C784 C 0.3474 0.65075 0.79562 0.0
C785 C 0.33283 0.6374 0.76592 0.0
C786 C 0.29667 0.59577 0.76154 0.0
C787 C 0.27541 0.56811 0.78676 0.0
C788 C 0.29073 0.58279 0.81663 0.0
H789 H 0.72004 0.44002 0.15345 0.0
H790 H 0.69984 0.42364 0.25154 0.0
H791 H 0.69593 0.35211 0.24819 0.0
H792 H 0.64836 0.32698 0.13281 0.0
H793 H 0.68338 0.32707 0.1028 0.0
H794 H 0.68363 0.37681 0.11258 0.0
H795 H 0.76701 0.41546 0.12164 0.0
H796 H 0.76703 0.36585 0.11188 0.0
H797 H 0.78879 0.39204 0.14807 0.0
H798 H 0.69409 0.28279 0.23467 0.0
H799 H 0.69669 0.22028 0.21192 0.0
H800 H 0.71975 0.28143 0.12257 0.0
C801 C 0.71454 0.42124 0.17418 0.0
C802 C 0.7101 0.43737 0.20275 0.0
C803 C 0.70342 0.41204 0.22941 0.0
C804 C 0.70103 0.37129 0.22775 0.0
C805 C 0.70563 0.35638 0.19931 0.0
C806 C 0.71242 0.38054 0.173 0.0
C807 C 0.71737 0.35722 0.14546 0.0
C808 C 0.68101 0.34638 0.12203 0.0
C809 C 0.76275 0.38426 0.13091 0.0
C810 C 0.71224 0.31621 0.16048 0.0
C811 C 0.70529 0.31641 0.19153 0.0
C812 C 0.69949 0.28219 0.21038 0.0
C813 C 0.70093 0.24677 0.1972 0.0
C814 C 0.70833 0.24588 0.16545 0.0
C815 C 0.71405 0.28116 0.14691 0.0
H816 H 0.41723 0.70785 0.45519 0.0
H817 H 0.46741 0.69858 0.54368 0.0
H818 H 0.40325 0.69555 0.5687 0.0
H819 H 0.37544 0.77634 0.47807 0.0
H820 H 0.32777 0.75009 0.4541 0.0
H821 H 0.3768 0.74994 0.44313 0.0
H822 H 0.33374 0.66543 0.43978 0.0
H823 H 0.28454 0.66533 0.45073 0.0
H824 H 0.30286 0.63405 0.47236 0.0
H825 H 0.33619 0.69812 0.58416 0.0
H826 H 0.26931 0.70332 0.58897 0.0
H827 H 0.26162 0.70814 0.49022 0.0
C828 C 0.41467 0.70498 0.47983 0.0
C829 C 0.44731 0.70349 0.49753 0.0
C830 C 0.44269 0.6996 0.52968 0.0
C831 C 0.40641 0.69789 0.54409 0.0
C832 C 0.37495 0.69968 0.52597 0.0
C833 C 0.37855 0.70283 0.49453 0.0
C834 C 0.3405 0.70474 0.48033 0.0
C835 C 0.35607 0.74784 0.46289 0.0
C836 C 0.31383 0.66501 0.45958 0.0
C837 C 0.31522 0.70284 0.50875 0.0
C838 C 0.33568 0.69999 0.53483 0.0
C839 C 0.31961 0.69987 0.5639 0.0
C840 C 0.28171 0.70295 0.56639 0.0
C841 C 0.26019 0.70578 0.53995 0.0
C842 C 0.27702 0.70531 0.51079 0.0
H843 H 0.5847 0.3007 0.88268 0.0
H844 H 0.54315 0.21991 0.80108 0.0
H845 H 0.61099 0.27292 0.77502 0.0
H846 H 0.6327 0.40335 0.84492 0.0
H847 H 0.67735 0.43014 0.87142 0.0
H848 H 0.62624 0.38503 0.884 0.0
H849 H 0.6663 0.34462 0.90262 0.0
H850 H 0.71755 0.38955 0.88991 0.0
H851 H 0.69991 0.33506 0.87626 0.0
H852 H 0.68058 0.33611 0.75692 0.0
H853 H 0.74815 0.40596 0.74777 0.0
H854 H 0.74619 0.44465 0.84163 0.0
C855 C 0.58989 0.29409 0.85934 0.0
C856 C 0.55866 0.2562 0.84387 0.0
C857 C 0.5667 0.24867 0.81339 0.0
C858 C 0.60514 0.27852 0.79842 0.0
C859 C 0.63528 0.31546 0.81435 0.0
C860 C 0.62822 0.32334 0.84414 0.0
C861 C 0.66548 0.36609 0.85581 0.0
C862 C 0.64948 0.39803 0.86454 0.0
C863 C 0.68868 0.35835 0.88274 0.0
C864 C 0.69425 0.38136 0.82772 0.0
C865 C 0.6762 0.35157 0.80411 0.0
C866 C 0.69533 0.35946 0.77531 0.0
C867 C 0.73361 0.39918 0.77033 0.0
C868 C 0.75244 0.43032 0.7941 0.0
C869 C 0.73291 0.42095 0.82329 0.0
H870 H 0.59196 0.52792 0.22993 0.0
H871 H 0.62779 0.54292 0.13417 0.0
H872 H 0.55005 0.51266 0.11998 0.0
H873 H 0.48973 0.42871 0.22463 0.0
H874 H 0.46337 0.44552 0.25247 0.0
H875 H 0.52128 0.46634 0.25456 0.0
H876 H 0.53493 0.54558 0.2532 0.0
H877 H 0.47707 0.52504 0.25115 0.0
H878 H 0.51266 0.5622 0.22236 0.0
H879 H 0.46665 0.47729 0.11698 0.0
H880 H 0.38741 0.44827 0.12539 0.0
H881 H 0.40963 0.46357 0.2231 0.0
C882 C 0.58349 0.52454 0.20596 0.0
C883 C 0.61571 0.53716 0.18311 0.0
C884 C 0.60346 0.53323 0.15199 0.0
C885 C 0.55944 0.51597 0.14377 0.0
C886 C 0.52839 0.50372 0.16698 0.0
C887 C 0.54013 0.50852 0.19745 0.0
C888 C 0.50132 0.49533 0.21818 0.0
C889 C 0.49347 0.45667 0.23866 0.0
C890 C 0.50684 0.53437 0.23734 0.0
C891 C 0.46564 0.48192 0.19467 0.0
C892 C 0.48156 0.4863 0.16525 0.0
C893 C 0.45397 0.4742 0.13992 0.0
C894 C 0.4091 0.45764 0.14486 0.0
C895 C 0.39265 0.45428 0.17483 0.0
C896 C 0.42142 0.46652 0.1999 0.0
H897 H 0.0524 0.60272 0.58384 0.0
H898 H 0.08053 0.61885 0.48676 0.0
H899 H 0.03531 0.53927 0.47936 0.0
H900 H 0.05056 0.49986 0.5933 0.0
H901 H 0.00514 0.4774 0.61947 0.0
H902 H 0.04109 0.53562 0.61759 0.0
H903 H 0.97516 0.54666 0.60692 0.0
H904 H 0.93907 0.48848 0.60885 0.0
H905 H 0.93941 0.51834 0.57538 0.0
H906 H 0.98927 0.45796 0.48245 0.0
H907 H 0.93943 0.38057 0.49495 0.0
H908 H 0.93591 0.4162 0.58945 0.0
C909 C 0.0491 0.58933 0.56109 0.0
C910 C 0.07007 0.61697 0.53582 0.0
C911 C 0.06453 0.5984 0.50635 0.0
C912 C 0.0391 0.55317 0.50196 0.0
C913 C 0.01876 0.52679 0.52721 0.0
C914 C 0.0229 0.54411 0.55617 0.0
C915 C 0.99578 0.50841 0.5791 0.0
C916 C 0.02489 0.50514 0.60382 0.0
C917 C 0.96025 0.51593 0.59339 0.0
C918 C 0.9761 0.46844 0.55846 0.0
C919 C 0.99029 0.47983 0.52872 0.0
C920 C 0.97764 0.44865 0.50561 0.0
C921 C 0.94936 0.40466 0.51296 0.0
C922 C 0.93334 0.39211 0.5431 0.0
C923 C 0.94715 0.42466 0.56611 0.0
H924 H 0.42283 0.01999 0.89109 0.0
H925 H 0.5413 0.14568 0.88419 0.0
H926 H 0.58425 0.10862 0.87726 0.0
H927 H 0.47255 0.9688 0.93535 0.0
H928 H 0.4408 0.9161 0.91756 0.0
H929 H 0.41885 0.95234 0.92085 0.0
H930 H 0.40616 0.9477 0.86238 0.0
H931 H 0.42835 0.91166 0.85889 0.0
H932 H 0.45125 0.96137 0.83689 0.0
H933 H 0.61433 0.05835 0.86876 0.0
H934 H 0.63089 0.99822 0.86599 0.0
H935 H 0.49449 0.90458 0.88263 0.0
C936 C 0.4578 0.03957 0.88815 0.0
C937 C 0.47871 0.08576 0.88813 0.0
C938 C 0.5246 0.1103 0.88451 0.0
C939 C 0.54929 0.08954 0.88035 0.0
C940 C 0.52784 0.04408 0.88038 0.0
C941 C 0.48327 0.0193 0.88477 0.0
C942 C 0.46887 0.97092 0.88541 0.0
C943 C 0.44911 0.95087 0.91665 0.0
C944 C 0.43676 0.94648 0.85934 0.0
C945 C 0.51221 0.97251 0.88037 0.0
C946 C 0.54565 0.01504 0.87709 0.0
C947 C 0.58846 0.02489 0.87152 0.0
C948 C 0.59753 0.99045 0.86981 0.0
C949 C 0.56414 0.94662 0.87417 0.0
C950 C 0.52084 0.93773 0.87933 0.0
H951 H 0.48613 0.58742 0.4483 0.0
H952 H 0.62061 0.63061 0.47302 0.0
H953 H 0.60294 0.5541 0.47754 0.0
H954 H 0.43682 0.49352 0.4995 0.0
H955 H 0.39459 0.45932 0.47292 0.0
H956 H 0.41707 0.5177 0.47211 0.0
H957 H 0.43648 0.51911 0.41489 0.0
H958 H 0.4139 0.46075 0.4155 0.0
H959 H 0.46933 0.49567 0.40314 0.0
H960 H 0.57282 0.47396 0.47663 0.0
H961 H 0.531 0.39377 0.47146 0.0
H962 H 0.4146 0.40014 0.44983 0.0
C963 C 0.51184 0.58082 0.45481 0.0
C964 C 0.55487 0.61536 0.4603 0.0
C965 C 0.58744 0.60506 0.46871 0.0
C966 C 0.57773 0.56157 0.47138 0.0
C967 C 0.53519 0.52849 0.46581 0.0
C968 C 0.50264 0.5374 0.45781 0.0
C969 C 0.45974 0.49537 0.45267 0.0
C970 C 0.425 0.49125 0.47568 0.0
C971 C 0.44394 0.49257 0.41958 0.0
C972 C 0.47348 0.46154 0.45877 0.0
C973 C 0.51726 0.48161 0.46621 0.0
C974 C 0.53842 0.45782 0.47121 0.0
C975 C 0.51443 0.41234 0.46822 0.0
C976 C 0.46958 0.3909 0.46067 0.0
C977 C 0.44864 0.41576 0.45629 0.0
H978 H 0.94009 0.51634 0.74335 0.0
H979 H 0.96786 0.58007 0.83187 0.0
H980 H 0.02007 0.55472 0.84255 0.0
H981 H 0.94821 0.42266 0.76498 0.0
H982 H 0.97544 0.42154 0.73044 0.0
H983 H 0.93918 0.44362 0.72988 0.0
H984 H 1.00067 0.51616 0.70771 0.0
H985 H 0.03715 0.49433 0.70805 0.0
H986 H 0.05208 0.54492 0.72749 0.0
H987 H 0.06586 0.5182 0.84517 0.0
H988 H 0.10997 0.48231 0.83639 0.0
H989 H 0.05907 0.44896 0.7443 0.0
C990 C 0.95714 0.52498 0.765 0.0
C991 C 0.94919 0.54975 0.78699 0.0
C992 C 0.97287 0.5609 0.81476 0.0
C993 C 1.00263 0.54652 0.82108 0.0
C994 C 0.00923 0.52173 0.79915 0.0
C995 C 0.98786 0.51181 0.77138 0.0
C996 C 1.0025 0.4864 0.75119 0.0
C997 C 0.96404 0.44085 0.7437 0.0
C998 C 0.02441 0.512 0.72188 0.0
C999 C 0.0352 0.48338 0.77207 0.0
C1000 C 0.03795 0.50329 0.79984 0.0
C1001 C 0.06437 0.50297 0.8234 0.0
C1002 C 0.0891 0.48235 0.81831 0.0
C1003 C 0.08802 0.46321 0.7897 0.0
C1004 C 0.06072 0.46378 0.76631 0.0
H1005 H 0.40997 0.94985 0.0929 0.0
H1006 H 0.38273 0.91249 0.18819 0.0
H1007 H 0.46127 0.95418 0.19978 0.0
H1008 H 0.51161 0.94774 0.0875 0.0
H1009 H 0.53803 0.99541 0.06345 0.0
H1010 H 0.47965 0.96083 0.0621 0.0
H1011 H 0.4701 0.02754 0.07393 0.0
H1012 H 0.52843 0.06227 0.07538 0.0
H1013 H 0.49538 0.05999 0.10749 0.0
H1014 H 0.542 0.99824 0.20118 0.0
H1015 H 0.62073 0.0468 0.1931 0.0
H1016 H 0.59702 0.06075 0.09763 0.0
C1017 C 0.42076 0.95029 0.1161 0.0
C1018 C 0.39039 0.928 0.13972 0.0
C1019 C 0.40545 0.92969 0.16989 0.0
C1020 C 0.45 0.95307 0.17665 0.0
C1021 C 0.47912 0.97508 0.15302 0.0
C1022 C 0.46528 0.97433 0.1234 0.0
C1023 C 0.50358 0.0026 0.10268 0.0
C1024 C 0.5085 0.97499 0.07744 0.0
C1025 C 0.49909 0.04034 0.08908 0.0
C1026 C 0.54093 0.01921 0.12535 0.0
C1027 C 0.52599 0.00238 0.15414 0.0
C1028 C 0.55414 0.01184 0.17879 0.0
C1029 C 0.59885 0.03938 0.17395 0.0
C1030 C 0.61501 0.05774 0.14482 0.0
C1031 C 0.58553 0.04757 0.12024 0.0
H1032 H 0.26669 0.36151 0.29403 0.0
H1033 H 0.27722 0.2857 0.21967 0.0
H1034 H 0.29724 0.24581 0.25654 0.0
H1035 H 0.35665 0.37736 0.3334 0.0
H1036 H 0.33429 0.37284 0.37112 0.0
H1037 H 0.31409 0.39051 0.33976 0.0
H1038 H 0.23543 0.32812 0.35076 0.0
H1039 H 0.25533 0.31039 0.38243 0.0
H1040 H 0.22434 0.27246 0.35251 0.0
H1041 H 0.32906 0.22434 0.29978 0.0
H1042 H 0.36314 0.21755 0.34732 0.0
H1043 H 0.32748 0.30377 0.39377 0.0
C1044 C 0.272 0.33569 0.28553 0.0
C1045 C 0.27038 0.32674 0.25395 0.0
C1046 C 0.27793 0.29294 0.24378 0.0
C1047 C 0.2894 0.27013 0.26455 0.0
C1048 C 0.2923 0.28095 0.29541 0.0
C1049 C 0.28298 0.31235 0.30594 0.0
C1050 C 0.29158 0.3202 0.33985 0.0
C1051 C 0.3262 0.36804 0.3464 0.0
C1052 C 0.24913 0.30698 0.35743 0.0
C1053 C 0.3087 0.28943 0.34656 0.0
C1054 C 0.30888 0.26705 0.32064 0.0
C1055 C 0.32789 0.24062 0.32043 0.0
C1056 C 0.34732 0.23712 0.34737 0.0
C1057 C 0.34695 0.25945 0.3741 0.0
C1058 C 0.32681 0.28529 0.37381 0.0
H1059 H 0.98508 0.29104 0.59023 0.0
H1060 H 0.87303 0.20032 0.64322 0.0
H1061 H 0.92144 0.20306 0.6848 0.0
H1062 H 0.06727 0.25908 0.62216 0.0
H1063 H 0.10945 0.31567 0.62243 0.0
H1064 H 0.06792 0.29581 0.5933 0.0
H1065 H 0.04907 0.35574 0.60808 0.0
H1066 H 0.09013 0.37542 0.63716 0.0
H1067 H 0.03465 0.35932 0.64708 0.0
H1068 H 0.97872 0.22897 0.72456 0.0
H1069 H 0.03947 0.27635 0.75888 0.0
H1070 H 0.11465 0.35118 0.68046 0.0
C1071 C 0.97123 0.26991 0.60989 0.0
C1072 C 0.92579 0.24467 0.61349 0.0
C1073 C 0.90804 0.21914 0.64006 0.0
C1074 C 0.93528 0.22044 0.66369 0.0
C1075 C 0.98013 0.24757 0.66035 0.0
C1076 C 0.99808 0.2716 0.63393 0.0
C1077 C 0.04591 0.30437 0.63819 0.0
C1078 C 0.07432 0.29303 0.61781 0.0
C1079 C 0.05543 0.35144 0.63231 0.0
C1080 C 0.05128 0.29699 0.67155 0.0
C1081 C 0.01342 0.26334 0.68378 0.0
C1082 C 0.00899 0.25454 0.71509 0.0
C1083 C 0.04365 0.28168 0.73446 0.0
C1084 C 0.08186 0.31749 0.72241 0.0
C1085 C 0.08611 0.32386 0.69044 0.0
H1086 H 0.68964 0.97785 0.93258 0.0
H1087 H 0.66002 0.85687 0.97734 0.0
H1088 H 0.69659 0.89789 0.02438 0.0
H1089 H 0.79495 0.05243 0.97238 0.0
H1090 H 0.78134 0.09524 0.97516 0.0
H1091 H 0.76189 0.05787 0.94331 0.0
H1092 H 0.68251 0.03824 0.956 0.0
H1093 H 0.70166 0.07533 0.98781 0.0
H1094 H 0.66119 0.01889 0.99374 0.0
H1095 H 0.72841 0.95074 0.06784 0.0
H1096 H 0.74574 0.00894 0.10565 0.0
H1097 H 0.74998 0.09476 0.03306 0.0
C1098 C 0.6926 0.96042 0.95193 0.0
C1099 C 0.6735 0.91463 0.95135 0.0
C1100 C 0.67552 0.89218 0.97743 0.0
C1101 C 0.69629 0.91522 0.00409 0.0
C1102 C 0.71418 0.9605 0.00425 0.0
C1103 C 0.71221 0.98282 0.97888 0.0
C1104 C 0.72748 0.03018 0.9863 0.0
C1105 C 0.76889 0.06073 0.96821 0.0
C1106 C 0.69104 0.04127 0.98064 0.0
C1107 C 0.73715 0.03075 0.02 0.0
C1108 C 0.73036 0.9906 0.02976 0.0
C1109 C 0.7344 0.98249 0.06039 0.0
C1110 C 0.74432 0.01584 0.08172 0.0
C1111 C 0.74921 0.0565 0.07237 0.0
C1112 C 0.74678 0.06422 0.04096 0.0
H1113 H 0.60337 0.70373 0.35581 0.0
H1114 H 0.72597 0.79924 0.39676 0.0
H1115 H 0.76564 0.79101 0.35284 0.0
H1116 H 0.63867 0.63263 0.33399 0.0
H1117 H 0.60682 0.61495 0.29946 0.0
H1118 H 0.58862 0.63426 0.3311 0.0
H1119 H 0.58572 0.69189 0.296 0.0
H1120 H 0.60415 0.67278 0.2642 0.0
H1121 H 0.63366 0.72963 0.27492 0.0
H1122 H 0.79185 0.76615 0.30656 0.0
H1123 H 0.80169 0.72307 0.2655 0.0
H1124 H 0.66168 0.64216 0.25768 0.0
C1125 C 0.63851 0.7239 0.35536 0.0
C1126 C 0.66148 0.75258 0.37965 0.0
C1127 C 0.70759 0.77737 0.37829 0.0
C1128 C 0.73037 0.77299 0.35338 0.0
C1129 C 0.70656 0.7436 0.33013 0.0
C1130 C 0.66156 0.71935 0.33112 0.0
C1131 C 0.64345 0.68614 0.30559 0.0
C1132 C 0.61792 0.63926 0.31831 0.0
C1133 C 0.61508 0.69571 0.28389 0.0
C1134 C 0.6853 0.69472 0.29031 0.0
C1135 C 0.72144 0.72853 0.30429 0.0
C1136 C 0.76376 0.74019 0.29515 0.0
C1137 C 0.76912 0.71587 0.27176 0.0
C1138 C 0.73235 0.68021 0.25826 0.0
C1139 C 0.69014 0.67012 0.26726 0.0
H1140 H 0.00936 0.70391 0.57544 0.0
H1141 H 0.11141 0.82258 0.61588 0.0
H1142 H 0.06378 0.81307 0.66 0.0
H1143 H 0.91014 0.7062 0.61028 0.0
H1144 H 0.88346 0.64802 0.61637 0.0
H1145 H 0.91876 0.67203 0.58381 0.0
H1146 H 0.96354 0.63566 0.60062 0.0
H1147 H 0.92929 0.61242 0.63342 0.0
H1148 H 0.98732 0.64663 0.63825 0.0
H1149 H 0.01318 0.78146 0.70456 0.0
H1150 H 0.96425 0.73145 0.74454 0.0
H1151 H 0.89744 0.63172 0.67547 0.0
C1152 C 0.02023 0.72934 0.59261 0.0
C1153 C 0.06303 0.76481 0.59196 0.0
C1154 C 0.07793 0.7961 0.61569 0.0
C1155 C 0.05116 0.79077 0.64086 0.0
C1156 C 0.00983 0.75375 0.64195 0.0
C1157 C 0.99425 0.72374 0.6182 0.0
C1158 C 0.95305 0.68258 0.62729 0.0
C1159 C 0.91403 0.6769 0.60831 0.0
C1160 C 0.95869 0.642 0.62476 0.0
C1161 C 0.94913 0.69318 0.66019 0.0
C1162 C 0.98143 0.73464 0.66817 0.0
C1163 C 0.98697 0.74937 0.69837 0.0
C1164 C 0.95915 0.72072 0.72096 0.0
C1165 C 0.92678 0.67766 0.71321 0.0
C1166 C 0.92131 0.66451 0.68227 0.0
H1167 H 0.23693 0.91548 0.037 0.0
H1168 H 0.28303 1.00176 0.11545 0.0
H1169 H 0.30624 0.06528 0.08123 0.0
H1170 H 0.32283 0.97462 0.99264 0.0
H1171 H 0.29434 0.96423 0.95678 0.0
H1172 H 0.27113 0.92548 0.98737 0.0
H1173 H 0.2005 0.93054 0.98529 0.0
H1174 H 0.22321 0.96893 0.9542 0.0
H1175 H 0.20388 0.98312 0.98806 0.0
H1176 H 0.33999 0.11881 0.03815 0.0
H1177 H 0.37553 0.15745 0.99046 0.0
H1178 H 0.30552 0.03597 0.94014 0.0
C1179 C 0.25028 0.94757 0.04714 0.0
C1180 C 0.25814 0.95371 0.07886 0.0
C1181 C 0.27618 0.99625 0.09125 0.0
C1182 C 0.2896 0.03253 0.07194 0.0
C1183 C 0.28388 0.02545 0.04046 0.0
C1184 C 0.26371 0.98383 0.02823 0.0
C1185 C 0.26634 0.9848 0.9937 0.0
C1186 C 0.29008 0.9609 0.98196 0.0
C1187 C 0.22076 0.96573 0.97948 0.0
C1188 C 0.29309 0.03348 0.98837 0.0
C1189 C 0.30257 0.05648 0.01555 0.0
C1190 C 0.33162 0.1013 0.01667 0.0
C1191 C 0.35185 0.12296 0.98947 0.0
C1192 C 0.34282 0.09983 0.9615 0.0
C1193 C 0.31216 0.05477 0.96098 0.0
H1194 H 0.92411 0.20199 0.11689 0.0
H1195 H 0.8755 0.15894 0.20891 0.0
H1196 H 0.95069 0.19584 0.22829 0.0
H1197 H 0.02029 0.18958 0.12408 0.0
H1198 H 0.05452 0.23751 0.1017 0.0
H1199 H 0.99672 0.20687 0.09453 0.0
H1200 H 0.99148 0.2769 0.10242 0.0
H1201 H 0.04924 0.30773 0.10963 0.0
H1202 H 0.01143 0.30747 0.13741 0.0
H1203 H 0.02991 0.24009 0.23853 0.0
H1204 H 0.10979 0.28684 0.23874 0.0
H1205 H 0.1091 0.29976 0.14014 0.0
C1206 C 0.92932 0.20007 0.14107 0.0
C1207 C 0.89376 0.17744 0.16134 0.0
C1208 C 0.90205 0.17586 0.19285 0.0
C1209 C 0.94471 0.19678 0.20415 0.0
C1210 C 0.97892 0.21896 0.18367 0.0
C1211 C 0.9719 0.22056 0.15279 0.0
C1212 C 0.01478 0.24707 0.1359 0.0
C1213 C 0.02199 0.21854 0.11268 0.0
C1214 C 0.01684 0.28717 0.12043 0.0
C1215 C 0.04682 0.26037 0.16222 0.0
C1216 C 0.02523 0.24385 0.18955 0.0
C1217 C 0.04728 0.2529 0.21727 0.0
C1218 C 0.09266 0.2796 0.21714 0.0
C1219 C 0.11569 0.29669 0.18946 0.0
C1220 C 0.0924 0.28666 0.1616 0.0
H1221 H 0.78744 0.11416 0.49145 0.0
H1222 H 0.78591 0.092 0.58911 0.0
H1223 H 0.7505 0.01273 0.58003 0.0
H1224 H 0.68152 0.01922 0.47612 0.0
H1225 H 0.69763 0.00744 0.43986 0.0
H1226 H 0.72336 0.06282 0.45375 0.0
H1227 H 0.79906 0.06865 0.44856 0.0
H1228 H 0.77356 0.01327 0.4347 0.0
H1229 H 0.80905 0.02909 0.46745 0.0
H1230 H 0.7177 0.93639 0.56083 0.0
H1231 H 0.68527 0.86672 0.5329 0.0
H1232 H 0.70417 0.93608 0.44729 0.0
C1233 C 0.77963 0.0926 0.51091 0.0
C1234 C 0.78969 0.10949 0.54105 0.0
C1235 C 0.77859 0.08006 0.56585 0.0
C1236 C 0.75851 0.03488 0.56093 0.0
C1237 C 0.74922 0.01933 0.53105 0.0
C1238 C 0.75899 0.04713 0.50642 0.0
C1239 C 0.74464 0.02147 0.47669 0.0
C1240 C 0.70971 0.02814 0.46066 0.0
C1241 C 0.78393 0.03386 0.45561 0.0
C1242 C 0.72563 0.975 0.4885 0.0
C1243 C 0.72894 0.97475 0.51993 0.0
C1244 C 0.7147 0.93614 0.53622 0.0
C1245 C 0.69641 0.89665 0.52006 0.0
C1246 C 0.69201 0.8957 0.48783 0.0
C1247 C 0.70682 0.93559 0.4719 0.0
H1248 H 0.80046 0.72492 0.77268 0.0
H1249 H 0.79951 0.65637 0.85532 0.0
H1250 H 0.75991 0.68723 0.88223 0.0
H1251 H 0.81746 0.8232 0.81003 0.0
H1252 H 0.78236 0.83209 0.7848 0.0
H1253 H 0.80972 0.80378 0.77117 0.0
H1254 H 0.73556 0.73797 0.75517 0.0
H1255 H 0.70799 0.76615 0.76867 0.0
H1256 H 0.69249 0.7125 0.78303 0.0
H1257 H 0.721 0.72514 0.90076 0.0
H1258 H 0.68522 0.76856 0.9101 0.0
H1259 H 0.71121 0.81495 0.81635 0.0
C1260 C 0.79168 0.7162 0.79637 0.0
C1261 C 0.80322 0.68801 0.81177 0.0
C1262 C 0.79126 0.67779 0.84288 0.0
C1263 C 0.76865 0.69517 0.85845 0.0
C1264 C 0.7581 0.72297 0.84277 0.0
C1265 C 0.76913 0.73354 0.81245 0.0
C1266 C 0.75418 0.76487 0.80134 0.0
C1267 C 0.79327 0.80858 0.79124 0.0
C1268 C 0.72056 0.74413 0.77552 0.0
C1269 C 0.73329 0.7703 0.83021 0.0
C1270 C 0.73587 0.74558 0.85371 0.0
C1271 C 0.71881 0.74467 0.88255 0.0
C1272 C 0.6985 0.76958 0.88762 0.0
C1273 C 0.6954 0.79547 0.86406 0.0
C1274 C 0.71319 0.79576 0.83492 0.0
H1275 H 0.89645 0.69474 0.151 0.0
H1276 H 0.90389 0.71001 0.24966 0.0
H1277 H 0.98382 0.75521 0.24619 0.0
H1278 H 0.99296 0.68561 0.14287 0.0
H1279 H 0.00975 0.71554 0.10746 0.0
H1280 H 0.95277 0.68523 0.11736 0.0
H1281 H 0.94714 0.75528 0.1113 0.0
H1282 H 0.00413 0.78583 0.10139 0.0
H1283 H 0.98345 0.80357 0.13266 0.0
H1284 H 0.06229 0.79829 0.23255 0.0
H1285 H 0.13553 0.83494 0.20983 0.0
H1286 H 0.07892 0.7914 0.1197 0.0
C1287 C 0.91489 0.70776 0.17186 0.0
C1288 C 0.8938 0.69896 0.20063 0.0
C1289 C 0.91919 0.71629 0.22738 0.0
C1290 C 0.96465 0.7421 0.22565 0.0
C1291 C 0.98438 0.75017 0.19702 0.0
C1292 C 0.96048 0.73342 0.17059 0.0
C1293 C 0.99015 0.74633 0.14282 0.0
C1294 C 0.98616 0.70576 0.12668 0.0
C1295 C 0.98065 0.77443 0.12074 0.0
C1296 C 0.03443 0.77293 0.15784 0.0
C1297 C 0.03014 0.77478 0.18911 0.0
C1298 C 0.0661 0.79711 0.2081 0.0
C1299 C 0.10766 0.81791 0.19489 0.0
C1300 C 0.1132 0.81623 0.1629 0.0
C1301 C 0.07588 0.7935 0.14417 0.0
H1302 H 0.21012 0.93271 0.54391 0.0
H1303 H 0.18092 0.86937 0.45507 0.0
H1304 H 0.21428 0.9411 0.43002 0.0
H1305 H 0.18913 0.02041 0.52253 0.0
H1306 H 0.23319 0.06124 0.54511 0.0
H1307 H 0.20635 0.00477 0.55669 0.0
H1308 H 0.28059 0.00678 0.5572 0.0
H1309 H 0.30764 0.06327 0.54573 0.0
H1310 H 0.31423 0.02397 0.52341 0.0
H1311 H 0.25283 0.01865 0.41408 0.0
H1312 H 0.29411 0.09854 0.40807 0.0
H1313 H 0.29767 0.11414 0.50659 0.0
C1314 C 0.21062 0.93395 0.5192 0.0
C1315 C 0.19269 0.89512 0.50154 0.0
C1316 C 0.19417 0.89836 0.46922 0.0
C1317 C 0.2131 0.93907 0.45469 0.0
C1318 C 0.23036 0.97654 0.47267 0.0
C1319 C 0.22931 0.97456 0.50419 0.0
C1320 C 0.25082 0.02025 0.51787 0.0
C1321 C 0.2179 0.02705 0.53666 0.0
C1322 C 0.29069 0.02908 0.53719 0.0
C1323 C 0.26435 0.04802 0.48908 0.0
C1324 C 0.25216 0.0219 0.46333 0.0
C1325 C 0.26225 0.03948 0.43404 0.0
C1326 C 0.28579 0.08497 0.43088 0.0
C1327 C 0.29884 0.11267 0.45681 0.0
C1328 C 0.28752 0.09384 0.48633 0.0
H1329 H 0.2217 0.31905 0.84572 0.0
H1330 H 0.20527 0.28242 0.74993 0.0
H1331 H 0.23533 0.23373 0.75956 0.0
H1332 H 0.32476 0.32205 0.85446 0.0
H1333 H 0.31374 0.30076 0.89283 0.0
H1334 H 0.28917 0.33153 0.87889 0.0
H1335 H 0.21261 0.26714 0.89216 0.0
H1336 H 0.23694 0.23614 0.9061 0.0
H1337 H 0.19579 0.21366 0.87678 0.0
H1338 H 0.2664 0.18834 0.7793 0.0
H1339 H 0.30158 0.1534 0.80707 0.0
H1340 H 0.3017 0.22139 0.88987 0.0
C1341 C 0.22423 0.30058 0.82684 0.0
C1342 C 0.21083 0.30441 0.79706 0.0
C1343 C 0.21528 0.28013 0.77291 0.0
C1344 C 0.2322 0.25221 0.77817 0.0
C1345 C 0.24508 0.24913 0.80768 0.0
C1346 C 0.24179 0.27295 0.8316 0.0
C1347 C 0.25984 0.26488 0.86084 0.0
C1348 C 0.29922 0.30733 0.87243 0.0
C1349 C 0.22416 0.24422 0.88542 0.0
C1350 C 0.27358 0.23273 0.8496 0.0
C1351 C 0.26436 0.22384 0.81892 0.0
C1352 C 0.27384 0.19509 0.80333 0.0
C1353 C 0.29373 0.17526 0.81938 0.0
C1354 C 0.30442 0.18445 0.85073 0.0
C1355 C 0.29391 0.21351 0.86597 0.0
loop_
_geom_bond_atom_site_label_1
_geom_bond_atom_site_label_2
_geom_bond_distance
_geom_bond_site_symmetry_2
_ccdc_geom_bond_type
Co0 O2 2.143 . S
Co0 O8 2.074 . S
Co0 O11 2.093 . S
Co0 O24 2.097 . S
Co0 N41 2.151 . S
Co0 N49 2.214 . S
Co1 O2 2.160 . S
Co1 O7 2.058 . S
Co1 O17 2.057 . S
Co1 O32 2.037 . S
Co1 N36 2.145 . S
Co1 N57 2.257 . S
O2 Co0 2.143 . S
O2 Co1 2.160 . S
C3 O4 1.278 . S
C3 O11 1.224 . S
O4 C3 1.278 . S
C5 O6 1.245 . S
C5 O17 1.232 . S
O6 C5 1.245 . S
O7 Co1 2.058 . S
O7 C33 1.269 . S
O8 Co0 2.074 . S
O8 C33 1.257 . S
H9 C34 0.930 . S
H10 C40 0.930 . S
O11 Co0 2.093 . S
O11 C3 1.224 . S
H12 C44 0.929 . S
H13 C46 0.930 . S
H14 C47 0.930 . S
H15 C45 0.929 . S
H16 C48 0.928 . S
O17 Co1 2.057 . S
O17 C5 1.232 . S
H18 C37 0.929 . S
H19 C38 0.929 . S
H20 C50 0.931 . S
H21 C42 0.929 . S
H22 C51 0.930 . S
H23 C43 0.931 . S
O24 Co0 2.097 . S
O24 C52 1.214 . S
H25 C53 0.929 . S
H26 C54 0.929 . S
H27 C55 0.930 . S
H28 C56 0.929 . S
H29 C58 0.930 . S
H30 C35 0.930 . S
H31 C39 0.930 . S
O32 Co1 2.037 . S
O32 C52 1.234 . S
C33 O7 1.269 . S
C33 O8 1.257 . S
C34 H9 0.930 . S
C34 C37 1.388 . S
C34 C39 1.418 . S
C35 H30 0.930 . S
C35 C38 1.404 . S
C35 C39 1.353 . S
N36 Co1 2.145 . S
N36 C37 1.397 . S
N36 C38 1.334 . S
C37 H18 0.929 . S
C37 C34 1.388 . S
C37 N36 1.397 . S
C38 H19 0.929 . S
C38 C35 1.404 . S
C38 N36 1.334 . S
C39 H31 0.930 . S
C39 C34 1.418 . S
C39 C35 1.353 . S
C40 H10 0.930 . S
C40 N41 1.330 . S
C40 C42 1.446 . S
N41 Co0 2.151 . S
N41 C40 1.330 . S
N41 C45 1.418 . S
C42 H21 0.929 . S
C42 C40 1.446 . S
C42 C43 1.332 . S
C43 H23 0.931 . S
C43 C42 1.332 . S
C43 C44 1.267 . S
C44 H12 0.929 . S
C44 C43 1.267 . S
C44 C45 1.251 . S
C45 H15 0.929 . S
C45 N41 1.418 . S
C45 C44 1.251 . S
C46 H13 0.930 . S
C46 C48 1.406 . S
C46 C51 1.261 . S
C47 H14 0.930 . S
C47 N49 1.325 . S
C47 C50 1.357 . S
C48 H16 0.928 . S
C48 C46 1.406 . S
C48 N49 1.261 . S
N49 Co0 2.214 . S
N49 C47 1.325 . S
N49 C48 1.261 . S
C50 H20 0.931 . S
C50 C47 1.357 . S
C50 C51 1.312 . S
C51 H22 0.930 . S
C51 C46 1.261 . S
C51 C50 1.312 . S
C52 O24 1.214 . S
C52 O32 1.234 . S
C53 H25 0.929 . S
C53 C56 1.391 . S
C53 C58 1.391 . S
C54 H26 0.929 . S
C54 C55 1.390 . S
C54 N57 1.391 . S
C55 H27 0.930 . S
C55 C54 1.390 . S
C55 C56 1.392 . S
C56 H28 0.929 . S
C56 C53 1.391 . S
C56 C55 1.392 . S
N57 Co1 2.257 . S
N57 C54 1.391 . S
N57 C58 1.388 . S
C58 H29 0.930 . S
C58 C53 1.391 . S
C58 N57 1.388 . S
Co59 O61 2.143 . S
Co59 O67 2.074 . S
Co59 O70 2.093 . S
Co59 O83 2.097 . S
Co59 N100 2.151 . S
Co59 N108 2.214 . S
Co60 O61 2.160 . S
Co60 O66 2.058 . S
Co60 O76 2.057 . S
Co60 O91 2.037 . S
Co60 N95 2.145 . S
Co60 N116 2.257 . S
O61 Co59 2.143 . S
O61 Co60 2.160 . S
C62 O63 1.278 . S
C62 O70 1.224 . S
O63 C62 1.278 . S
C64 O65 1.245 . S
C64 O76 1.232 . S
O65 C64 1.245 . S
O66 Co60 2.058 . S
O66 C92 1.269 . S
O67 Co59 2.074 . S
O67 C92 1.257 . S
H68 C93 0.930 . S
H69 C99 0.930 . S
O70 Co59 2.093 . S
O70 C62 1.224 . S
H71 C103 0.929 . S
H72 C105 0.930 . S
H73 C106 0.930 . S
H74 C104 0.929 . S
H75 C107 0.928 . S
O76 Co60 2.057 . S
O76 C64 1.232 . S
H77 C96 0.929 . S
H78 C97 0.929 . S
H79 C109 0.931 . S
H80 C101 0.929 . S
H81 C110 0.930 . S
H82 C102 0.931 . S
O83 Co59 2.097 . S
O83 C111 1.214 . S
H84 C112 0.929 . S
H85 C113 0.929 . S
H86 C114 0.930 . S
H87 C115 0.929 . S
H88 C117 0.930 . S
H89 C94 0.930 . S
H90 C98 0.930 . S
O91 Co60 2.037 . S
O91 C111 1.234 . S
C92 O66 1.269 . S
C92 O67 1.257 . S
C93 H68 0.930 . S
C93 C96 1.388 . S
C93 C98 1.418 . S
C94 H89 0.930 . S
C94 C97 1.404 1_455 S
C94 C98 1.353 . S
N95 Co60 2.145 . S
N95 C96 1.397 1_655 S
N95 C97 1.334 . S
C96 H77 0.929 . S
C96 C93 1.388 . S
C96 N95 1.397 1_455 S
C97 H78 0.929 . S
C97 C94 1.404 1_655 S
C97 N95 1.334 . S
C98 H90 0.930 . S
C98 C93 1.418 . S
C98 C94 1.353 . S
C99 H69 0.930 . S
C99 N100 1.330 . S
C99 C101 1.446 . S
N100 Co59 2.151 . S
N100 C99 1.330 . S
N100 C104 1.418 . S
C101 H80 0.929 . S
C101 C99 1.446 . S
C101 C102 1.332 . S
C102 H82 0.931 . S
C102 C101 1.332 . S
C102 C103 1.267 . S
C103 H71 0.929 . S
C103 C102 1.267 . S
C103 C104 1.251 . S
C104 H74 0.929 . S
C104 N100 1.418 . S
C104 C103 1.251 . S
C105 H72 0.930 . S
C105 C107 1.406 . S
C105 C110 1.261 . S
C106 H73 0.930 . S
C106 N108 1.325 . S
C106 C109 1.357 . S
C107 H75 0.928 . S
C107 C105 1.406 . S
C107 N108 1.261 . S
N108 Co59 2.214 . S
N108 C106 1.325 . S
N108 C107 1.261 . S
C109 H79 0.931 . S
C109 C106 1.357 . S
C109 C110 1.312 . S
C110 H81 0.930 . S
C110 C105 1.261 . S
C110 C109 1.312 . S
C111 O83 1.214 . S
C111 O91 1.234 . S
C112 H84 0.929 . S
C112 C115 1.391 . S
C112 C117 1.391 . S
C113 H85 0.929 . S
C113 C114 1.390 . S
C113 N116 1.391 . S
C114 H86 0.930 . S
C114 C113 1.390 . S
C114 C115 1.392 . S
C115 H87 0.929 . S
C115 C112 1.391 . S
C115 C114 1.392 . S
N116 Co60 2.257 . S
N116 C113 1.391 . S
N116 C117 1.388 . S
C117 H88 0.930 . S
C117 C112 1.391 . S
C117 N116 1.388 . S
Co118 O120 2.143 . S
Co118 O126 2.074 . S
Co118 O129 2.093 . S
Co118 O142 2.097 . S
Co118 N159 2.151 . S
Co118 N167 2.214 . S
Co119 O120 2.160 . S
Co119 O125 2.058 . S
Co119 O135 2.057 . S
Co119 O150 2.037 . S
Co119 N154 2.145 . S
Co119 N175 2.257 . S
O120 Co118 2.143 . S
O120 Co119 2.160 . S
C121 O122 1.278 . S
C121 O129 1.224 . S
O122 C121 1.278 . S
C123 O124 1.245 . S
C123 O135 1.232 . S
O124 C123 1.245 . S
O125 Co119 2.058 . S
O125 C151 1.269 . S
O126 Co118 2.074 . S
O126 C151 1.257 . S
H127 C152 0.930 . S
H128 C158 0.930 . S
O129 Co118 2.093 . S
O129 C121 1.224 . S
H130 C162 0.929 . S
H131 C164 0.930 . S
H132 C165 0.930 . S
H133 C163 0.929 . S
H134 C166 0.928 . S
O135 Co119 2.057 . S
O135 C123 1.232 . S
H136 C155 0.929 . S
H137 C156 0.929 . S
H138 C168 0.931 . S
H139 C160 0.929 . S
H140 C169 0.930 . S
H141 C161 0.931 . S
O142 Co118 2.097 . S
O142 C170 1.214 . S
H143 C171 0.929 . S
H144 C172 0.929 . S
H145 C173 0.930 . S
H146 C174 0.929 . S
H147 C176 0.930 . S
H148 C153 0.930 . S
H149 C157 0.930 . S
O150 Co119 2.037 . S
O150 C170 1.234 . S
C151 O125 1.269 . S
C151 O126 1.257 . S
C152 H127 0.930 . S
C152 C155 1.388 . S
C152 C157 1.418 . S
C153 H148 0.930 . S
C153 C156 1.404 1_545 S
C153 C157 1.353 . S
N154 Co119 2.145 . S
N154 C155 1.397 1_565 S
N154 C156 1.334 . S
C155 H136 0.929 . S
C155 C152 1.388 . S
C155 N154 1.397 1_545 S
C156 H137 0.929 . S
C156 C153 1.404 1_565 S
C156 N154 1.334 . S
C157 H149 0.930 . S
C157 C152 1.418 . S
C157 C153 1.353 . S
C158 H128 0.930 . S
C158 N159 1.330 . S
C158 C160 1.446 . S
N159 Co118 2.151 . S
N159 C158 1.330 . S
N159 C163 1.418 . S
C160 H139 0.929 . S
C160 C158 1.446 . S
C160 C161 1.332 . S
C161 H141 0.931 . S
C161 C160 1.332 . S
C161 C162 1.267 . S
C162 H130 0.929 . S
C162 C161 1.267 . S
C162 C163 1.251 . S
C163 H133 0.929 . S
C163 N159 1.418 . S
C163 C162 1.251 . S
C164 H131 0.930 . S
C164 C166 1.406 . S
C164 C169 1.261 . S
C165 H132 0.930 . S
C165 N167 1.325 . S
C165 C168 1.357 . S
C166 H134 0.928 . S
C166 C164 1.406 . S
C166 N167 1.261 . S
N167 Co118 2.214 . S
N167 C165 1.325 . S
N167 C166 1.261 . S
C168 H138 0.931 . S
C168 C165 1.357 . S
C168 C169 1.312 . S
C169 H140 0.930 . S
C169 C164 1.261 . S
C169 C168 1.312 . S
C170 O142 1.214 . S
C170 O150 1.234 . S
C171 H143 0.929 . S
C171 C174 1.391 . S
C171 C176 1.391 . S
C172 H144 0.929 . S
C172 C173 1.390 . S
C172 N175 1.391 . S
C173 H145 0.930 . S
C173 C172 1.390 . S
C173 C174 1.392 . S
C174 H146 0.929 . S
C174 C171 1.391 . S
C174 C173 1.392 . S
N175 Co119 2.257 . S
N175 C172 1.391 . S
N175 C176 1.388 . S
C176 H147 0.930 . S
C176 C171 1.391 . S
C176 N175 1.388 . S
Co177 O179 2.143 . S
Co177 O185 2.074 . S
Co177 O188 2.093 . S
Co177 O201 2.097 . S
Co177 N218 2.151 . S
Co177 N226 2.214 . S
Co178 O179 2.160 . S
Co178 O184 2.058 . S
Co178 O194 2.057 . S
Co178 O209 2.037 . S
Co178 N213 2.145 . S
Co178 N234 2.257 . S
O179 Co177 2.143 . S
O179 Co178 2.160 . S
C180 O181 1.278 . S
C180 O188 1.224 . S
O181 C180 1.278 . S
C182 O183 1.245 . S
C182 O194 1.232 . S
O183 C182 1.245 . S
O184 Co178 2.058 . S
O184 C210 1.269 . S
O185 Co177 2.074 . S
O185 C210 1.257 . S
H186 C211 0.930 . S
H187 C217 0.930 . S
O188 Co177 2.093 . S
O188 C180 1.224 . S
H189 C221 0.929 . S
H190 C223 0.930 . S
H191 C224 0.930 . S
H192 C222 0.929 . S
H193 C225 0.928 . S
O194 Co178 2.057 . S
O194 C182 1.232 . S
H195 C214 0.929 . S
H196 C215 0.929 . S
H197 C227 0.931 . S
H198 C219 0.929 . S
H199 C228 0.930 . S
H200 C220 0.931 . S
O201 Co177 2.097 . S
O201 C229 1.214 . S
H202 C230 0.929 . S
H203 C231 0.929 . S
H204 C232 0.930 . S
H205 C233 0.929 . S
H206 C235 0.930 . S
H207 C212 0.930 . S
H208 C216 0.930 . S
O209 Co178 2.037 . S
O209 C229 1.234 . S
C210 O184 1.269 . S
C210 O185 1.257 . S
C211 H186 0.930 . S
C211 C214 1.388 . S
C211 C216 1.418 . S
C212 H207 0.930 . S
C212 C215 1.404 . S
C212 C216 1.353 . S
N213 Co178 2.145 . S
N213 C214 1.397 . S
N213 C215 1.334 . S
C214 H195 0.929 . S
C214 C211 1.388 . S
C214 N213 1.397 . S
C215 H196 0.929 . S
C215 C212 1.404 . S
C215 N213 1.334 . S
C216 H208 0.930 . S
C216 C211 1.418 . S
C216 C212 1.353 . S
C217 H187 0.930 . S
C217 N218 1.330 . S
C217 C219 1.446 . S
N218 Co177 2.151 . S
N218 C217 1.330 . S
N218 C222 1.418 . S
C219 H198 0.929 . S
C219 C217 1.446 . S
C219 C220 1.332 . S
C220 H200 0.931 . S
C220 C219 1.332 . S
C220 C221 1.267 . S
C221 H189 0.929 . S
C221 C220 1.267 . S
C221 C222 1.251 . S
C222 H192 0.929 . S
C222 N218 1.418 . S
C222 C221 1.251 . S
C223 H190 0.930 . S
C223 C225 1.406 . S
C223 C228 1.261 . S
C224 H191 0.930 . S
C224 N226 1.325 . S
C224 C227 1.357 . S
C225 H193 0.928 . S
C225 C223 1.406 . S
C225 N226 1.261 . S
N226 Co177 2.214 . S
N226 C224 1.325 . S
N226 C225 1.261 . S
C227 H197 0.931 . S
C227 C224 1.357 . S
C227 C228 1.312 . S
C228 H199 0.930 . S
C228 C223 1.261 . S
C228 C227 1.312 . S
C229 O201 1.214 . S
C229 O209 1.234 . S
C230 H202 0.929 . S
C230 C233 1.391 . S
C230 C235 1.391 . S
C231 H203 0.929 . S
C231 C232 1.390 . S
C231 N234 1.391 . S
C232 H204 0.930 . S
C232 C231 1.390 . S
C232 C233 1.392 . S
C233 H205 0.929 . S
C233 C230 1.391 . S
C233 C232 1.392 . S
N234 Co178 2.257 . S
N234 C231 1.391 . S
N234 C235 1.388 . S
C235 H206 0.930 . S
C235 C230 1.391 . S
C235 N234 1.388 . S
Co236 O238 2.143 . S
Co236 O244 2.074 . S
Co236 O247 2.093 . S
Co236 O260 2.097 . S
Co236 N277 2.151 . S
Co236 N285 2.214 . S
Co237 O238 2.160 . S
Co237 O243 2.058 . S
Co237 O253 2.057 . S
Co237 O268 2.037 . S
Co237 N272 2.145 . S
Co237 N293 2.257 . S
O238 Co236 2.143 . S
O238 Co237 2.160 . S
C239 O240 1.278 . S
C239 O247 1.224 . S
O240 C239 1.278 . S
C241 O242 1.245 . S
C241 O253 1.232 . S
O242 C241 1.245 . S
O243 Co237 2.058 . S
O243 C269 1.269 . S
O244 Co236 2.074 . S
O244 C269 1.257 . S
H245 C270 0.930 . S
H246 C276 0.930 . S
O247 Co236 2.093 . S
O247 C239 1.224 . S
H248 C280 0.929 . S
H249 C282 0.930 . S
H250 C283 0.930 . S
H251 C281 0.929 . S
H252 C284 0.928 . S
O253 Co237 2.057 . S
O253 C241 1.232 . S
H254 C273 0.929 . S
H255 C274 0.929 . S
H256 C286 0.931 . S
H257 C278 0.929 . S
H258 C287 0.930 . S
H259 C279 0.931 . S
O260 Co236 2.097 . S
O260 C288 1.214 . S
H261 C289 0.929 . S
H262 C290 0.929 . S
H263 C291 0.930 . S
H264 C292 0.929 . S
H265 C294 0.930 . S
H266 C271 0.930 . S
H267 C275 0.930 . S
O268 Co237 2.037 . S
O268 C288 1.234 . S
C269 O243 1.269 . S
C269 O244 1.257 . S
C270 H245 0.930 . S
C270 C273 1.388 . S
C270 C275 1.418 . S
C271 H266 0.930 . S
C271 C274 1.404 1_655 S
C271 C275 1.353 . S
N272 Co237 2.145 . S
N272 C273 1.397 1_455 S
N272 C274 1.334 . S
C273 H254 0.929 . S
C273 C270 1.388 . S
C273 N272 1.397 1_655 S
C274 H255 0.929 . S
C274 C271 1.404 1_455 S
C274 N272 1.334 . S
C275 H267 0.930 . S
C275 C270 1.418 . S
C275 C271 1.353 . S
C276 H246 0.930 . S
C276 N277 1.330 . S
C276 C278 1.446 . S
N277 Co236 2.151 . S
N277 C276 1.330 . S
N277 C281 1.418 . S
C278 H257 0.929 . S
C278 C276 1.446 . S
C278 C279 1.332 . S
C279 H259 0.931 . S
C279 C278 1.332 . S
C279 C280 1.267 . S
C280 H248 0.929 . S
C280 C279 1.267 . S
C280 C281 1.251 . S
C281 H251 0.929 . S
C281 N277 1.418 . S
C281 C280 1.251 . S
C282 H249 0.930 . S
C282 C284 1.406 . S
C282 C287 1.261 . S
C283 H250 0.930 . S
C283 N285 1.325 . S
C283 C286 1.357 . S
C284 H252 0.928 . S
C284 C282 1.406 . S
C284 N285 1.261 . S
N285 Co236 2.214 . S
N285 C283 1.325 . S
N285 C284 1.261 . S
C286 H256 0.931 . S
C286 C283 1.357 . S
C286 C287 1.312 . S
C287 H258 0.930 . S
C287 C282 1.261 . S
C287 C286 1.312 . S
C288 O260 1.214 . S
C288 O268 1.234 . S
C289 H261 0.929 . S
C289 C292 1.391 . S
C289 C294 1.391 . S
C290 H262 0.929 . S
C290 C291 1.390 . S
C290 N293 1.391 . S
C291 H263 0.930 . S
C291 C290 1.390 . S
C291 C292 1.392 . S
C292 H264 0.929 . S
C292 C289 1.391 . S
C292 C291 1.392 . S
N293 Co237 2.257 . S
N293 C290 1.391 . S
N293 C294 1.388 . S
C294 H265 0.930 . S
C294 C289 1.391 . S
C294 N293 1.388 . S
Co295 O297 2.143 . S
Co295 O303 2.074 . S
Co295 O306 2.093 . S
Co295 O319 2.097 . S
Co295 N336 2.151 . S
Co295 N344 2.214 . S
Co296 O297 2.160 . S
Co296 O302 2.058 . S
Co296 O312 2.057 . S
Co296 O327 2.037 . S
Co296 N331 2.145 . S
Co296 N352 2.257 . S
O297 Co295 2.143 . S
O297 Co296 2.160 . S
C298 O299 1.278 . S
C298 O306 1.224 . S
O299 C298 1.278 . S
C300 O301 1.245 . S
C300 O312 1.232 . S
O301 C300 1.245 . S
O302 Co296 2.058 . S
O302 C328 1.269 . S
O303 Co295 2.074 . S
O303 C328 1.257 . S
H304 C329 0.930 . S
H305 C335 0.930 . S
O306 Co295 2.093 . S
O306 C298 1.224 . S
H307 C339 0.929 . S
H308 C341 0.930 . S
H309 C342 0.930 . S
H310 C340 0.929 . S
H311 C343 0.928 . S
O312 Co296 2.057 . S
O312 C300 1.232 . S
H313 C332 0.929 . S
H314 C333 0.929 . S
H315 C345 0.931 . S
H316 C337 0.929 . S
H317 C346 0.930 . S
H318 C338 0.931 . S
O319 Co295 2.097 . S
O319 C347 1.214 . S
H320 C348 0.929 . S
H321 C349 0.929 . S
H322 C350 0.930 . S
H323 C351 0.929 . S
H324 C353 0.930 . S
H325 C330 0.930 . S
H326 C334 0.930 . S
O327 Co296 2.037 . S
O327 C347 1.234 . S
C328 O302 1.269 . S
C328 O303 1.257 . S
C329 H304 0.930 . S
C329 C332 1.388 . S
C329 C334 1.418 . S
C330 H325 0.930 . S
C330 C333 1.404 1_565 S
C330 C334 1.353 . S
N331 Co296 2.145 . S
N331 C332 1.397 1_545 S
N331 C333 1.334 . S
C332 H313 0.929 . S
C332 C329 1.388 . S
C332 N331 1.397 1_565 S
C333 H314 0.929 . S
C333 C330 1.404 1_545 S
C333 N331 1.334 . S
C334 H326 0.930 . S
C334 C329 1.418 . S
C334 C330 1.353 . S
C335 H305 0.930 . S
C335 N336 1.330 . S
C335 C337 1.446 . S
N336 Co295 2.151 . S
N336 C335 1.330 . S
N336 C340 1.418 . S
C337 H316 0.929 . S
C337 C335 1.446 . S
C337 C338 1.332 . S
C338 H318 0.931 . S
C338 C337 1.332 . S
C338 C339 1.267 . S
C339 H307 0.929 . S
C339 C338 1.267 . S
C339 C340 1.251 . S
C340 H310 0.929 . S
C340 N336 1.418 . S
C340 C339 1.251 . S
C341 H308 0.930 . S
C341 C343 1.406 . S
C341 C346 1.261 . S
C342 H309 0.930 . S
C342 N344 1.325 . S
C342 C345 1.357 . S
C343 H311 0.928 . S
C343 C341 1.406 . S
C343 N344 1.261 . S
N344 Co295 2.214 . S
N344 C342 1.325 . S
N344 C343 1.261 . S
C345 H315 0.931 . S
C345 C342 1.357 . S
C345 C346 1.312 . S
C346 H317 0.930 . S
C346 C341 1.261 . S
C346 C345 1.312 . S
C347 O319 1.214 . S
C347 O327 1.234 . S
C348 H320 0.929 . S
C348 C351 1.391 . S
C348 C353 1.391 . S
C349 H321 0.929 . S
C349 C350 1.390 . S
C349 N352 1.391 . S
C350 H322 0.930 . S
C350 C349 1.390 . S
C350 C351 1.392 . S
C351 H323 0.929 . S
C351 C348 1.391 . S
C351 C350 1.392 . S
N352 Co296 2.257 . S
N352 C349 1.391 . S
N352 C353 1.388 . S
C353 H324 0.930 . S
C353 C348 1.391 . S
C353 N352 1.388 . S
Co354 O356 2.143 . S
Co354 O362 2.074 . S
Co354 O365 2.093 . S
Co354 O378 2.097 . S
Co354 N395 2.151 . S
Co354 N403 2.214 . S
Co355 O356 2.160 . S
Co355 O361 2.058 . S
Co355 O371 2.057 . S
Co355 O386 2.037 . S
Co355 N390 2.145 . S
Co355 N411 2.257 . S
O356 Co354 2.143 . S
O356 Co355 2.160 . S
C357 O358 1.278 . S
C357 O365 1.224 . S
O358 C357 1.278 . S
C359 O360 1.245 . S
C359 O371 1.232 . S
O360 C359 1.245 . S
O361 Co355 2.058 . S
O361 C387 1.269 . S
O362 Co354 2.074 . S
O362 C387 1.257 . S
H363 C388 0.930 . S
H364 C394 0.930 . S
O365 Co354 2.093 . S
O365 C357 1.224 . S
H366 C398 0.929 . S
H367 C400 0.930 . S
H368 C401 0.930 . S
H369 C399 0.929 . S
H370 C402 0.928 . S
O371 Co355 2.057 . S
O371 C359 1.232 . S
H372 C391 0.929 . S
H373 C392 0.929 . S
H374 C404 0.931 . S
H375 C396 0.929 . S
H376 C405 0.930 . S
H377 C397 0.931 . S
O378 Co354 2.097 . S
O378 C406 1.214 . S
H379 C407 0.929 . S
H380 C408 0.929 . S
H381 C409 0.930 . S
H382 C410 0.929 . S
H383 C412 0.930 . S
H384 C389 0.930 . S
H385 C393 0.930 . S
O386 Co355 2.037 . S
O386 C406 1.234 . S
C387 O361 1.269 . S
C387 O362 1.257 . S
C388 H363 0.930 . S
C388 C391 1.388 . S
C388 C393 1.418 . S
C389 H384 0.930 . S
C389 C392 1.404 . S
C389 C393 1.353 . S
N390 Co355 2.145 . S
N390 C391 1.397 . S
N390 C392 1.334 . S
C391 H372 0.929 . S
C391 C388 1.388 . S
C391 N390 1.397 . S
C392 H373 0.929 . S
C392 C389 1.404 . S
C392 N390 1.334 . S
C393 H385 0.930 . S
C393 C388 1.418 . S
C393 C389 1.353 . S
C394 H364 0.930 . S
C394 N395 1.330 . S
C394 C396 1.446 . S
N395 Co354 2.151 . S
N395 C394 1.330 . S
N395 C399 1.418 . S
C396 H375 0.929 . S
C396 C394 1.446 . S
C396 C397 1.332 . S
C397 H377 0.931 . S
C397 C396 1.332 . S
C397 C398 1.267 . S
C398 H366 0.929 . S
C398 C397 1.267 . S
C398 C399 1.251 . S
C399 H369 0.929 . S
C399 N395 1.418 . S
C399 C398 1.251 . S
C400 H367 0.930 . S
C400 C402 1.406 . S
C400 C405 1.261 . S
C401 H368 0.930 . S
C401 N403 1.325 . S
C401 C404 1.357 . S
C402 H370 0.928 . S
C402 C400 1.406 . S
C402 N403 1.261 . S
N403 Co354 2.214 . S
N403 C401 1.325 . S
N403 C402 1.261 . S
C404 H374 0.931 . S
C404 C401 1.357 . S
C404 C405 1.312 . S
C405 H376 0.930 . S
C405 C400 1.261 . S
C405 C404 1.312 . S
C406 O378 1.214 . S
C406 O386 1.234 . S
C407 H379 0.929 . S
C407 C410 1.391 . S
C407 C412 1.391 . S
C408 H380 0.929 . S
C408 C409 1.390 . S
C408 N411 1.391 . S
C409 H381 0.930 . S
C409 C408 1.390 . S
C409 C410 1.392 . S
C410 H382 0.929 . S
C410 C407 1.391 . S
C410 C409 1.392 . S
N411 Co355 2.257 . S
N411 C408 1.391 . S
N411 C412 1.388 . S
C412 H383 0.930 . S
C412 C407 1.391 . S
C412 N411 1.388 . S
Co413 O415 2.143 . S
Co413 O421 2.074 . S
Co413 O424 2.093 . S
Co413 O437 2.097 . S
Co413 N454 2.151 . S
Co413 N462 2.214 . S
Co414 O415 2.160 . S
Co414 O420 2.058 . S
Co414 O430 2.057 . S
Co414 O445 2.037 . S
Co414 N449 2.145 . S
Co414 N470 2.257 . S
O415 Co413 2.143 . S
O415 Co414 2.160 . S
C416 O417 1.278 . S
C416 O424 1.224 . S
O417 C416 1.278 . S
C418 O419 1.245 . S
C418 O430 1.232 . S
O419 C418 1.245 . S
O420 Co414 2.058 . S
O420 C446 1.269 . S
O421 Co413 2.074 . S
O421 C446 1.257 . S
H422 C447 0.930 . S
H423 C453 0.930 . S
O424 Co413 2.093 . S
O424 C416 1.224 . S
H425 C457 0.929 . S
H426 C459 0.930 . S
H427 C460 0.930 . S
H428 C458 0.929 . S
H429 C461 0.928 . S
O430 Co414 2.057 . S
O430 C418 1.232 . S
H431 C450 0.929 . S
H432 C451 0.929 . S
H433 C463 0.931 . S
H434 C455 0.929 . S
H435 C464 0.930 . S
H436 C456 0.931 . S
O437 Co413 2.097 . S
O437 C465 1.214 . S
H438 C466 0.929 . S
H439 C467 0.929 . S
H440 C468 0.930 . S
H441 C469 0.929 . S
H442 C471 0.930 . S
H443 C448 0.930 . S
H444 C452 0.930 . S
O445 Co414 2.037 . S
O445 C465 1.234 . S
C446 O420 1.269 . S
C446 O421 1.257 . S
C447 H422 0.930 . S
C447 C450 1.388 . S
C447 C452 1.418 . S
C448 H443 0.930 . S
C448 C451 1.404 1_455 S
C448 C452 1.353 . S
N449 Co414 2.145 . S
N449 C450 1.397 1_655 S
N449 C451 1.334 . S
C450 H431 0.929 . S
C450 C447 1.388 . S
C450 N449 1.397 1_455 S
C451 H432 0.929 . S
C451 C448 1.404 1_655 S
C451 N449 1.334 . S
C452 H444 0.930 . S
C452 C447 1.418 . S
C452 C448 1.353 . S
C453 H423 0.930 . S
C453 N454 1.330 . S
C453 C455 1.446 . S
N454 Co413 2.151 . S
N454 C453 1.330 . S
N454 C458 1.418 . S
C455 H434 0.929 . S
C455 C453 1.446 . S
C455 C456 1.332 . S
C456 H436 0.931 . S
C456 C455 1.332 . S
C456 C457 1.267 . S
C457 H425 0.929 . S
C457 C456 1.267 . S
C457 C458 1.251 . S
C458 H428 0.929 . S
C458 N454 1.418 . S
C458 C457 1.251 . S
C459 H426 0.930 . S
C459 C461 1.406 . S
C459 C464 1.261 . S
C460 H427 0.930 . S
C460 N462 1.325 . S
C460 C463 1.357 . S
C461 H429 0.928 . S
C461 C459 1.406 . S
C461 N462 1.261 . S
N462 Co413 2.214 . S
N462 C460 1.325 . S
N462 C461 1.261 . S
C463 H433 0.931 . S
C463 C460 1.357 . S
C463 C464 1.312 . S
C464 H435 0.930 . S
C464 C459 1.261 . S
C464 C463 1.312 . S
C465 O437 1.214 . S
C465 O445 1.234 . S
C466 H438 0.929 . S
C466 C469 1.391 . S
C466 C471 1.391 . S
C467 H439 0.929 . S
C467 C468 1.390 . S
C467 N470 1.391 . S
C468 H440 0.930 . S
C468 C467 1.390 . S
C468 C469 1.392 . S
C469 H441 0.929 . S
C469 C466 1.391 . S
C469 C468 1.392 . S
N470 Co414 2.257 . S
N470 C467 1.391 . S
N470 C471 1.388 . S
C471 H442 0.930 . S
C471 C466 1.391 . S
C471 N470 1.388 . S
Co472 O474 2.143 . S
Co472 O480 2.074 . S
Co472 O483 2.093 . S
Co472 O496 2.097 . S
Co472 N513 2.151 . S
Co472 N521 2.214 . S
Co473 O474 2.160 . S
Co473 O479 2.058 . S
Co473 O489 2.057 . S
Co473 O504 2.037 . S
Co473 N508 2.145 . S
Co473 N529 2.257 . S
O474 Co472 2.143 . S
O474 Co473 2.160 . S
C475 O476 1.278 . S
C475 O483 1.224 . S
O476 C475 1.278 . S
C477 O478 1.245 . S
C477 O489 1.232 . S
O478 C477 1.245 . S
O479 Co473 2.058 . S
O479 C505 1.269 . S
O480 Co472 2.074 . S
O480 C505 1.257 . S
H481 C506 0.930 . S
H482 C512 0.930 . S
O483 Co472 2.093 . S
O483 C475 1.224 . S
H484 C516 0.929 . S
H485 C518 0.930 . S
H486 C519 0.930 . S
H487 C517 0.929 . S
H488 C520 0.928 . S
O489 Co473 2.057 . S
O489 C477 1.232 . S
H490 C509 0.929 . S
H491 C510 0.929 . S
H492 C522 0.931 . S
H493 C514 0.929 . S
H494 C523 0.930 . S
H495 C515 0.931 . S
O496 Co472 2.097 . S
O496 C524 1.214 . S
H497 C525 0.929 . S
H498 C526 0.929 . S
H499 C527 0.930 . S
H500 C528 0.929 . S
H501 C530 0.930 . S
H502 C507 0.930 . S
H503 C511 0.930 . S
O504 Co473 2.037 . S
O504 C524 1.234 . S
C505 O479 1.269 . S
C505 O480 1.257 . S
C506 H481 0.930 . S
C506 C509 1.388 . S
C506 C511 1.418 . S
C507 H502 0.930 . S
C507 C510 1.404 1_545 S
C507 C511 1.353 . S
N508 Co473 2.145 . S
N508 C509 1.397 1_565 S
N508 C510 1.334 . S
C509 H490 0.929 . S
C509 C506 1.388 . S
C509 N508 1.397 1_545 S
C510 H491 0.929 . S
C510 C507 1.404 1_565 S
C510 N508 1.334 . S
C511 H503 0.930 . S
C511 C506 1.418 . S
C511 C507 1.353 . S
C512 H482 0.930 . S
C512 N513 1.330 . S
C512 C514 1.446 . S
N513 Co472 2.151 . S
N513 C512 1.330 . S
N513 C517 1.418 . S
C514 H493 0.929 . S
C514 C512 1.446 . S
C514 C515 1.332 . S
C515 H495 0.931 . S
C515 C514 1.332 . S
C515 C516 1.267 . S
C516 H484 0.929 . S
C516 C515 1.267 . S
C516 C517 1.251 . S
C517 H487 0.929 . S
C517 N513 1.418 . S
C517 C516 1.251 . S
C518 H485 0.930 . S
C518 C520 1.406 . S
C518 C523 1.261 . S
C519 H486 0.930 . S
C519 N521 1.325 . S
C519 C522 1.357 . S
C520 H488 0.928 . S
C520 C518 1.406 . S
C520 N521 1.261 . S
N521 Co472 2.214 . S
N521 C519 1.325 . S
N521 C520 1.261 . S
C522 H492 0.931 . S
C522 C519 1.357 . S
C522 C523 1.312 . S
C523 H494 0.930 . S
C523 C518 1.261 . S
C523 C522 1.312 . S
C524 O496 1.214 . S
C524 O504 1.234 . S
C525 H497 0.929 . S
C525 C528 1.391 . S
C525 C530 1.391 . S
C526 H498 0.929 . S
C526 C527 1.390 . S
C526 N529 1.391 . S
C527 H499 0.930 . S
C527 C526 1.390 . S
C527 C528 1.392 . S
C528 H500 0.929 . S
C528 C525 1.391 . S
C528 C527 1.392 . S
N529 Co473 2.257 . S
N529 C526 1.391 . S
N529 C530 1.388 . S
C530 H501 0.930 . S
C530 C525 1.391 . S
C530 N529 1.388 . S
Co531 O533 2.143 . S
Co531 O539 2.074 . S
Co531 O542 2.093 . S
Co531 O555 2.097 . S
Co531 N572 2.151 . S
Co531 N580 2.214 . S
Co532 O533 2.160 . S
Co532 O538 2.058 . S
Co532 O548 2.057 . S
Co532 O563 2.037 . S
Co532 N567 2.145 . S
Co532 N588 2.257 . S
O533 Co531 2.143 . S
O533 Co532 2.160 . S
C534 O535 1.278 . S
C534 O542 1.224 . S
O535 C534 1.278 . S
C536 O537 1.245 . S
C536 O548 1.232 . S
O537 C536 1.245 . S
O538 Co532 2.058 . S
O538 C564 1.269 . S
O539 Co531 2.074 . S
O539 C564 1.257 . S
H540 C565 0.930 . S
H541 C571 0.930 . S
O542 Co531 2.093 . S
O542 C534 1.224 . S
H543 C575 0.929 . S
H544 C577 0.930 . S
H545 C578 0.930 . S
H546 C576 0.929 . S
H547 C579 0.928 . S
O548 Co532 2.057 . S
O548 C536 1.232 . S
H549 C568 0.929 . S
H550 C569 0.929 . S
H551 C581 0.931 . S
H552 C573 0.929 . S
H553 C582 0.930 . S
H554 C574 0.931 . S
O555 Co531 2.097 . S
O555 C583 1.214 . S
H556 C584 0.929 . S
H557 C585 0.929 . S
H558 C586 0.930 . S
H559 C587 0.929 . S
H560 C589 0.930 . S
H561 C566 0.930 . S
H562 C570 0.930 . S
O563 Co532 2.037 . S
O563 C583 1.234 . S
C564 O538 1.269 . S
C564 O539 1.257 . S
C565 H540 0.930 . S
C565 C568 1.388 . S
C565 C570 1.418 . S
C566 H561 0.930 . S
C566 C569 1.404 . S
C566 C570 1.353 . S
N567 Co532 2.145 . S
N567 C568 1.397 . S
N567 C569 1.334 . S
C568 H549 0.929 . S
C568 C565 1.388 . S
C568 N567 1.397 . S
C569 H550 0.929 . S
C569 C566 1.404 . S
C569 N567 1.334 . S
C570 H562 0.930 . S
C570 C565 1.418 . S
C570 C566 1.353 . S
C571 H541 0.930 . S
C571 N572 1.330 . S
C571 C573 1.446 . S
N572 Co531 2.151 . S
N572 C571 1.330 . S
N572 C576 1.418 . S
C573 H552 0.929 . S
C573 C571 1.446 . S
C573 C574 1.332 . S
C574 H554 0.931 . S
C574 C573 1.332 . S
C574 C575 1.267 . S
C575 H543 0.929 . S
C575 C574 1.267 . S
C575 C576 1.251 . S
C576 H546 0.929 . S
C576 N572 1.418 . S
C576 C575 1.251 . S
C577 H544 0.930 . S
C577 C579 1.406 . S
C577 C582 1.261 . S
C578 H545 0.930 . S
C578 N580 1.325 . S
C578 C581 1.357 . S
C579 H547 0.928 . S
C579 C577 1.406 . S
C579 N580 1.261 . S
N580 Co531 2.214 . S
N580 C578 1.325 . S
N580 C579 1.261 . S
C581 H551 0.931 . S
C581 C578 1.357 . S
C581 C582 1.312 . S
C582 H553 0.930 . S
C582 C577 1.261 . S
C582 C581 1.312 . S
C583 O555 1.214 . S
C583 O563 1.234 . S
C584 H556 0.929 . S
C584 C587 1.391 . S
C584 C589 1.391 . S
C585 H557 0.929 . S
C585 C586 1.390 . S
C585 N588 1.391 . S
C586 H558 0.930 . S
C586 C585 1.390 . S
C586 C587 1.392 . S
C587 H559 0.929 . S
C587 C584 1.391 . S
C587 C586 1.392 . S
N588 Co532 2.257 . S
N588 C585 1.391 . S
N588 C589 1.388 . S
C589 H560 0.930 . S
C589 C584 1.391 . S
C589 N588 1.388 . S
Co590 O592 2.143 . S
Co590 O598 2.074 . S
Co590 O601 2.093 . S
Co590 O614 2.097 . S
Co590 N631 2.151 . S
Co590 N639 2.214 . S
Co591 O592 2.160 . S
Co591 O597 2.058 . S
Co591 O607 2.057 . S
Co591 O622 2.037 . S
Co591 N626 2.145 . S
Co591 N647 2.257 . S
O592 Co590 2.143 . S
O592 Co591 2.160 . S
C593 O594 1.278 . S
C593 O601 1.224 . S
O594 C593 1.278 . S
C595 O596 1.245 . S
C595 O607 1.232 . S
O596 C595 1.245 . S
O597 Co591 2.058 . S
O597 C623 1.269 . S
O598 Co590 2.074 . S
O598 C623 1.257 . S
H599 C624 0.930 . S
H600 C630 0.930 . S
O601 Co590 2.093 . S
O601 C593 1.224 . S
H602 C634 0.929 . S
H603 C636 0.930 . S
H604 C637 0.930 . S
H605 C635 0.929 . S
H606 C638 0.928 . S
O607 Co591 2.057 . S
O607 C595 1.232 . S
H608 C627 0.929 . S
H609 C628 0.929 . S
H610 C640 0.931 . S
H611 C632 0.929 . S
H612 C641 0.930 . S
H613 C633 0.931 . S
O614 Co590 2.097 . S
O614 C642 1.214 . S
H615 C643 0.929 . S
H616 C644 0.929 . S
H617 C645 0.930 . S
H618 C646 0.929 . S
H619 C648 0.930 . S
H620 C625 0.930 . S
H621 C629 0.930 . S
O622 Co591 2.037 . S
O622 C642 1.234 . S
C623 O597 1.269 . S
C623 O598 1.257 . S
C624 H599 0.930 . S
C624 C627 1.388 . S
C624 C629 1.418 . S
C625 H620 0.930 . S
C625 C628 1.404 1_655 S
C625 C629 1.353 . S
N626 Co591 2.145 . S
N626 C627 1.397 1_455 S
N626 C628 1.334 . S
C627 H608 0.929 . S
C627 C624 1.388 . S
C627 N626 1.397 1_655 S
C628 H609 0.929 . S
C628 C625 1.404 1_455 S
C628 N626 1.334 . S
C629 H621 0.930 . S
C629 C624 1.418 . S
C629 C625 1.353 . S
C630 H600 0.930 . S
C630 N631 1.330 . S
C630 C632 1.446 . S
N631 Co590 2.151 . S
N631 C630 1.330 . S
N631 C635 1.418 . S
C632 H611 0.929 . S
C632 C630 1.446 . S
C632 C633 1.332 . S
C633 H613 0.931 . S
C633 C632 1.332 . S
C633 C634 1.267 . S
C634 H602 0.929 . S
C634 C633 1.267 . S
C634 C635 1.251 . S
C635 H605 0.929 . S
C635 N631 1.418 . S
C635 C634 1.251 . S
C636 H603 0.930 . S
C636 C638 1.406 . S
C636 C641 1.261 . S
C637 H604 0.930 . S
C637 N639 1.325 . S
C637 C640 1.357 . S
C638 H606 0.928 . S
C638 C636 1.406 . S
C638 N639 1.261 . S
N639 Co590 2.214 . S
N639 C637 1.325 . S
N639 C638 1.261 . S
C640 H610 0.931 . S
C640 C637 1.357 . S
C640 C641 1.312 . S
C641 H612 0.930 . S
C641 C636 1.261 . S
C641 C640 1.312 . S
C642 O614 1.214 . S
C642 O622 1.234 . S
C643 H615 0.929 . S
C643 C646 1.391 . S
C643 C648 1.391 . S
C644 H616 0.929 . S
C644 C645 1.390 . S
C644 N647 1.391 . S
C645 H617 0.930 . S
C645 C644 1.390 . S
C645 C646 1.392 . S
C646 H618 0.929 . S
C646 C643 1.391 . S
C646 C645 1.392 . S
N647 Co591 2.257 . S
N647 C644 1.391 . S
N647 C648 1.388 . S
C648 H619 0.930 . S
C648 C643 1.391 . S
C648 N647 1.388 . S
Co649 O651 2.143 . S
Co649 O657 2.074 . S
Co649 O660 2.093 . S
Co649 O673 2.097 . S
Co649 N690 2.151 . S
Co649 N698 2.214 . S
Co650 O651 2.160 . S
Co650 O656 2.058 . S
Co650 O666 2.057 . S
Co650 O681 2.037 . S
Co650 N685 2.145 . S
Co650 N706 2.257 . S
O651 Co649 2.143 . S
O651 Co650 2.160 . S
C652 O653 1.278 . S
C652 O660 1.224 . S
O653 C652 1.278 . S
C654 O655 1.245 . S
C654 O666 1.232 . S
O655 C654 1.245 . S
O656 Co650 2.058 . S
O656 C682 1.269 . S
O657 Co649 2.074 . S
O657 C682 1.257 . S
H658 C683 0.930 . S
H659 C689 0.930 . S
O660 Co649 2.093 . S
O660 C652 1.224 . S
H661 C693 0.929 . S
H662 C695 0.930 . S
H663 C696 0.930 . S
H664 C694 0.929 . S
H665 C697 0.928 . S
O666 Co650 2.057 . S
O666 C654 1.232 . S
H667 C686 0.929 . S
H668 C687 0.929 . S
H669 C699 0.931 . S
H670 C691 0.929 . S
H671 C700 0.930 . S
H672 C692 0.931 . S
O673 Co649 2.097 . S
O673 C701 1.214 . S
H674 C702 0.929 . S
H675 C703 0.929 . S
H676 C704 0.930 . S
H677 C705 0.929 . S
H678 C707 0.930 . S
H679 C684 0.930 . S
H680 C688 0.930 . S
O681 Co650 2.037 . S
O681 C701 1.234 . S
C682 O656 1.269 . S
C682 O657 1.257 . S
C683 H658 0.930 . S
C683 C686 1.388 . S
C683 C688 1.418 . S
C684 H679 0.930 . S
C684 C687 1.404 1_565 S
C684 C688 1.353 . S
N685 Co650 2.145 . S
N685 C686 1.397 1_545 S
N685 C687 1.334 . S
C686 H667 0.929 . S
C686 C683 1.388 . S
C686 N685 1.397 1_565 S
C687 H668 0.929 . S
C687 C684 1.404 1_545 S
C687 N685 1.334 . S
C688 H680 0.930 . S
C688 C683 1.418 . S
C688 C684 1.353 . S
C689 H659 0.930 . S
C689 N690 1.330 . S
C689 C691 1.446 . S
N690 Co649 2.151 . S
N690 C689 1.330 . S
N690 C694 1.418 . S
C691 H670 0.929 . S
C691 C689 1.446 . S
C691 C692 1.332 . S
C692 H672 0.931 . S
C692 C691 1.332 . S
C692 C693 1.267 . S
C693 H661 0.929 . S
C693 C692 1.267 . S
C693 C694 1.251 . S
C694 H664 0.929 . S
C694 N690 1.418 . S
C694 C693 1.251 . S
C695 H662 0.930 . S
C695 C697 1.406 . S
C695 C700 1.261 . S
C696 H663 0.930 . S
C696 N698 1.325 . S
C696 C699 1.357 . S
C697 H665 0.928 . S
C697 C695 1.406 . S
C697 N698 1.261 . S
N698 Co649 2.214 . S
N698 C696 1.325 . S
N698 C697 1.261 . S
C699 H669 0.931 . S
C699 C696 1.357 . S
C699 C700 1.312 . S
C700 H671 0.930 . S
C700 C695 1.261 . S
C700 C699 1.312 . S
C701 O673 1.214 . S
C701 O681 1.234 . S
C702 H674 0.929 . S
C702 C705 1.391 . S
C702 C707 1.391 . S
C703 H675 0.929 . S
C703 C704 1.390 . S
C703 N706 1.391 . S
C704 H676 0.930 . S
C704 C703 1.390 . S
C704 C705 1.392 . S
C705 H677 0.929 . S
C705 C702 1.391 . S
C705 C704 1.392 . S
N706 Co650 2.257 . S
N706 C703 1.391 . S
N706 C707 1.388 . S
C707 H678 0.930 . S
C707 C702 1.391 . S
C707 N706 1.388 . S
H708 C720 0.930 . S
H709 C722 0.930 . S
H710 C723 0.930 . S
H711 C727 0.959 . S
H712 C727 0.959 . S
H713 C727 0.961 . S
H714 C728 0.960 . S
H715 C728 0.961 . S
H716 C728 0.959 . S
H717 C731 0.929 . S
H718 C732 0.931 . S
H719 C734 0.930 . S
C720 H708 0.930 . S
C720 C721 1.399 . S
C720 C725 1.399 . S
C721 C720 1.399 . S
C721 C722 1.376 . S
C722 H709 0.930 . S
C722 C721 1.376 . S
C722 C723 1.388 . S
C723 H710 0.930 . S
C723 C722 1.388 . S
C723 C724 1.390 . S
C724 C723 1.390 . S
C724 C725 1.394 . S
C724 C730 1.465 . S
C725 C720 1.399 . S
C725 C724 1.394 . S
C725 C726 1.516 . S
C726 C725 1.516 . S
C726 C727 1.502 . S
C726 C728 1.561 . S
C726 C729 1.526 . S
C727 H711 0.959 . S
C727 H712 0.959 . S
C727 H713 0.961 . S
C727 C726 1.502 . S
C728 H714 0.960 . S
C728 H715 0.961 . S
C728 H716 0.959 . S
C728 C726 1.561 . S
C729 C726 1.526 . S
C729 C730 1.396 . S
C729 C734 1.390 . S
C730 C724 1.465 . S
C730 C729 1.396 . S
C730 C731 1.399 . S
C731 H717 0.929 . S
C731 C730 1.399 . S
C731 C732 1.385 . S
C732 H718 0.931 . S
C732 C731 1.385 . S
C732 C733 1.389 . S
C733 C732 1.389 . S
C733 C734 1.387 . S
C734 H719 0.930 . S
C734 C729 1.390 . S
C734 C733 1.387 . S
H735 C747 0.930 . S
H736 C749 0.930 . S
H737 C750 0.930 . S
H738 C754 0.959 . S
H739 C754 0.959 . S
H740 C754 0.961 . S
H741 C755 0.960 . S
H742 C755 0.961 . S
H743 C755 0.959 . S
H744 C758 0.929 . S
H745 C759 0.931 . S
H746 C761 0.930 . S
C747 H735 0.930 . S
C747 C748 1.399 . S
C747 C752 1.399 . S
C748 C747 1.399 . S
C748 C749 1.376 . S
C749 H736 0.930 . S
C749 C748 1.376 . S
C749 C750 1.388 . S
C750 H737 0.930 . S
C750 C749 1.388 . S
C750 C751 1.390 . S
C751 C750 1.390 . S
C751 C752 1.394 . S
C751 C757 1.465 . S
C752 C747 1.399 . S
C752 C751 1.394 . S
C752 C753 1.516 . S
C753 C752 1.516 . S
C753 C754 1.502 . S
C753 C755 1.561 . S
C753 C756 1.526 . S
C754 H738 0.959 . S
C754 H739 0.959 . S
C754 H740 0.961 . S
C754 C753 1.502 . S
C755 H741 0.960 . S
C755 H742 0.961 . S
C755 H743 0.959 . S
C755 C753 1.561 . S
C756 C753 1.526 . S
C756 C757 1.396 . S
C756 C761 1.390 . S
C757 C751 1.465 . S
C757 C756 1.396 . S
C757 C758 1.399 . S
C758 H744 0.929 . S
C758 C757 1.399 . S
C758 C759 1.385 . S
C759 H745 0.931 . S
C759 C758 1.385 . S
C759 C760 1.389 . S
C760 C759 1.389 . S
C760 C761 1.387 . S
C761 H746 0.930 . S
C761 C756 1.390 . S
C761 C760 1.387 . S
H762 C774 0.930 . S
H763 C776 0.930 . S
H764 C777 0.930 . S
H765 C781 0.959 . S
H766 C781 0.959 . S
H767 C781 0.961 . S
H768 C782 0.960 . S
H769 C782 0.961 . S
H770 C782 0.959 . S
H771 C785 0.929 . S
H772 C786 0.931 . S
H773 C788 0.930 . S
C774 H762 0.930 . S
C774 C775 1.399 . S
C774 C779 1.399 . S
C775 C774 1.399 . S
C775 C776 1.376 . S
C776 H763 0.930 . S
C776 C775 1.376 . S
C776 C777 1.388 . S
C777 H764 0.930 . S
C777 C776 1.388 . S
C777 C778 1.390 . S
C778 C777 1.390 . S
C778 C779 1.394 . S
C778 C784 1.465 . S
C779 C774 1.399 . S
C779 C778 1.394 . S
C779 C780 1.516 . S
C780 C779 1.516 . S
C780 C781 1.502 . S
C780 C782 1.561 . S
C780 C783 1.526 . S
C781 H765 0.959 . S
C781 H766 0.959 . S
C781 H767 0.961 . S
C781 C780 1.502 . S
C782 H768 0.960 . S
C782 H769 0.961 . S
C782 H770 0.959 . S
C782 C780 1.561 . S
C783 C780 1.526 . S
C783 C784 1.396 . S
C783 C788 1.390 . S
C784 C778 1.465 . S
C784 C783 1.396 . S
C784 C785 1.399 . S
C785 H771 0.929 . S
C785 C784 1.399 . S
C785 C786 1.385 . S
C786 H772 0.931 . S
C786 C785 1.385 . S
C786 C787 1.389 . S
C787 C786 1.389 . S
C787 C788 1.387 . S
C788 H773 0.930 . S
C788 C783 1.390 . S
C788 C787 1.387 . S
H789 C801 0.930 . S
H790 C803 0.930 . S
H791 C804 0.930 . S
H792 C808 0.959 . S
H793 C808 0.959 . S
H794 C808 0.961 . S
H795 C809 0.960 . S
H796 C809 0.961 . S
H797 C809 0.959 . S
H798 C812 0.929 . S
H799 C813 0.931 . S
H800 C815 0.930 . S
C801 H789 0.930 . S
C801 C802 1.399 . S
C801 C806 1.399 . S
C802 C801 1.399 . S
C802 C803 1.376 . S
C803 H790 0.930 . S
C803 C802 1.376 . S
C803 C804 1.388 . S
C804 H791 0.930 . S
C804 C803 1.388 . S
C804 C805 1.390 . S
C805 C804 1.390 . S
C805 C806 1.394 . S
C805 C811 1.465 . S
C806 C801 1.399 . S
C806 C805 1.394 . S
C806 C807 1.516 . S
C807 C806 1.516 . S
C807 C808 1.502 . S
C807 C809 1.561 . S
C807 C810 1.526 . S
C808 H792 0.959 . S
C808 H793 0.959 . S
C808 H794 0.961 . S
C808 C807 1.502 . S
C809 H795 0.960 . S
C809 H796 0.961 . S
C809 H797 0.959 . S
C809 C807 1.561 . S
C810 C807 1.526 . S
C810 C811 1.396 . S
C810 C815 1.390 . S
C811 C805 1.465 . S
C811 C810 1.396 . S
C811 C812 1.399 . S
C812 H798 0.929 . S
C812 C811 1.399 . S
C812 C813 1.385 . S
C813 H799 0.931 . S
C813 C812 1.385 . S
C813 C814 1.389 . S
C814 C813 1.389 . S
C814 C815 1.387 . S
C815 H800 0.930 . S
C815 C810 1.390 . S
C815 C814 1.387 . S
H816 C828 0.930 . S
H817 C830 0.930 . S
H818 C831 0.930 . S
H819 C835 0.959 . S
H820 C835 0.959 . S
H821 C835 0.961 . S
H822 C836 0.960 . S
H823 C836 0.961 . S
H824 C836 0.959 . S
H825 C839 0.929 . S
H826 C840 0.931 . S
H827 C842 0.930 . S
C828 H816 0.930 . S
C828 C829 1.399 . S
C828 C833 1.399 . S
C829 C828 1.399 . S
C829 C830 1.376 . S
C830 H817 0.930 . S
C830 C829 1.376 . S
C830 C831 1.388 . S
C831 H818 0.930 . S
C831 C830 1.388 . S
C831 C832 1.390 . S
C832 C831 1.390 . S
C832 C833 1.394 . S
C832 C838 1.465 . S
C833 C828 1.399 . S
C833 C832 1.394 . S
C833 C834 1.516 . S
C834 C833 1.516 . S
C834 C835 1.502 . S
C834 C836 1.561 . S
C834 C837 1.526 . S
C835 H819 0.959 . S
C835 H820 0.959 . S
C835 H821 0.961 . S
C835 C834 1.502 . S
C836 H822 0.960 . S
C836 H823 0.961 . S
C836 H824 0.959 . S
C836 C834 1.561 . S
C837 C834 1.526 . S
C837 C838 1.396 . S
C837 C842 1.390 . S
C838 C832 1.465 . S
C838 C837 1.396 . S
C838 C839 1.399 . S
C839 H825 0.929 . S
C839 C838 1.399 . S
C839 C840 1.385 . S
C840 H826 0.931 . S
C840 C839 1.385 . S
C840 C841 1.389 . S
C841 C840 1.389 . S
C841 C842 1.387 . S
C842 H827 0.930 . S
C842 C837 1.390 . S
C842 C841 1.387 . S
H843 C855 0.930 . S
H844 C857 0.930 . S
H845 C858 0.930 . S
H846 C862 0.959 . S
H847 C862 0.959 . S
H848 C862 0.961 . S
H849 C863 0.960 . S
H850 C863 0.961 . S
H851 C863 0.959 . S
H852 C866 0.929 . S
H853 C867 0.931 . S
H854 C869 0.930 . S
C855 H843 0.930 . S
C855 C856 1.399 . S
C855 C860 1.399 . S
C856 C855 1.399 . S
C856 C857 1.376 . S
C857 H844 0.930 . S
C857 C856 1.376 . S
C857 C858 1.388 . S
C858 H845 0.930 . S
C858 C857 1.388 . S
C858 C859 1.390 . S
C859 C858 1.390 . S
C859 C860 1.394 . S
C859 C865 1.465 . S
C860 C855 1.399 . S
C860 C859 1.394 . S
C860 C861 1.516 . S
C861 C860 1.516 . S
C861 C862 1.502 . S
C861 C863 1.561 . S
C861 C864 1.526 . S
C862 H846 0.959 . S
C862 H847 0.959 . S
C862 H848 0.961 . S
C862 C861 1.502 . S
C863 H849 0.960 . S
C863 H850 0.961 . S
C863 H851 0.959 . S
C863 C861 1.561 . S
C864 C861 1.526 . S
C864 C865 1.396 . S
C864 C869 1.390 . S
C865 C859 1.465 . S
C865 C864 1.396 . S
C865 C866 1.399 . S
C866 H852 0.929 . S
C866 C865 1.399 . S
C866 C867 1.385 . S
C867 H853 0.931 . S
C867 C866 1.385 . S
C867 C868 1.389 . S
C868 C867 1.389 . S
C868 C869 1.387 . S
C869 H854 0.930 . S
C869 C864 1.390 . S
C869 C868 1.387 . S
H870 C882 0.930 . S
H871 C884 0.930 . S
H872 C885 0.930 . S
H873 C889 0.959 . S
H874 C889 0.959 . S
H875 C889 0.961 . S
H876 C890 0.960 . S
H877 C890 0.961 . S
H878 C890 0.959 . S
H879 C893 0.929 . S
H880 C894 0.931 . S
H881 C896 0.930 . S
C882 H870 0.930 . S
C882 C883 1.399 . S
C882 C887 1.399 . S
C883 C882 1.399 . S
C883 C884 1.376 . S
C884 H871 0.930 . S
C884 C883 1.376 . S
C884 C885 1.388 . S
C885 H872 0.930 . S
C885 C884 1.388 . S
C885 C886 1.390 . S
C886 C885 1.390 . S
C886 C887 1.394 . S
C886 C892 1.465 . S
C887 C882 1.399 . S
C887 C886 1.394 . S
C887 C888 1.516 . S
C888 C887 1.516 . S
C888 C889 1.502 . S
C888 C890 1.561 . S
C888 C891 1.526 . S
C889 H873 0.959 . S
C889 H874 0.959 . S
C889 H875 0.961 . S
C889 C888 1.502 . S
C890 H876 0.960 . S
C890 H877 0.961 . S
C890 H878 0.959 . S
C890 C888 1.561 . S
C891 C888 1.526 . S
C891 C892 1.396 . S
C891 C896 1.390 . S
C892 C886 1.465 . S
C892 C891 1.396 . S
C892 C893 1.399 . S
C893 H879 0.929 . S
C893 C892 1.399 . S
C893 C894 1.385 . S
C894 H880 0.931 . S
C894 C893 1.385 . S
C894 C895 1.389 . S
C895 C894 1.389 . S
C895 C896 1.387 . S
C896 H881 0.930 . S
C896 C891 1.390 . S
C896 C895 1.387 . S
H897 C909 0.930 . S
H898 C911 0.930 . S
H899 C912 0.930 . S
H900 C916 0.959 . S
H901 C916 0.959 . S
H902 C916 0.961 . S
H903 C917 0.960 . S
H904 C917 0.961 1_655 S
H905 C917 0.959 . S
H906 C920 0.929 . S
H907 C921 0.931 . S
H908 C923 0.930 . S
C909 H897 0.930 . S
C909 C910 1.399 . S
C909 C914 1.399 . S
C910 C909 1.399 . S
C910 C911 1.376 . S
C911 H898 0.930 . S
C911 C910 1.376 . S
C911 C912 1.388 . S
C912 H899 0.930 . S
C912 C911 1.388 . S
C912 C913 1.390 . S
C913 C912 1.390 . S
C913 C914 1.394 . S
C913 C919 1.465 . S
C914 C909 1.399 . S
C914 C913 1.394 . S
C914 C915 1.516 1_455 S
C915 C914 1.516 1_655 S
C915 C916 1.502 . S
C915 C917 1.561 1_655 S
C915 C918 1.526 . S
C916 H900 0.959 . S
C916 H901 0.959 . S
C916 H902 0.961 . S
C916 C915 1.502 . S
C917 H903 0.960 . S
C917 H904 0.961 1_455 S
C917 H905 0.959 . S
C917 C915 1.561 1_455 S
C918 C915 1.526 . S
C918 C919 1.396 1_655 S
C918 C923 1.390 . S
C919 C913 1.465 . S
C919 C918 1.396 1_455 S
C919 C920 1.399 . S
C920 H906 0.929 . S
C920 C919 1.399 . S
C920 C921 1.385 1_455 S
C921 H907 0.931 . S
C921 C920 1.385 1_655 S
C921 C922 1.389 . S
C922 C921 1.389 . S
C922 C923 1.387 . S
C923 H908 0.930 . S
C923 C918 1.390 . S
C923 C922 1.387 . S
H924 C936 0.930 . S
H925 C938 0.930 . S
H926 C939 0.930 . S
H927 C943 0.959 . S
H928 C943 0.959 . S
H929 C943 0.961 . S
H930 C944 0.960 . S
H931 C944 0.961 . S
H932 C944 0.959 . S
H933 C947 0.929 . S
H934 C948 0.931 . S
H935 C950 0.930 . S
C936 H924 0.930 . S
C936 C937 1.399 . S
C936 C941 1.399 . S
C937 C936 1.399 . S
C937 C938 1.376 . S
C938 H925 0.930 . S
C938 C937 1.376 . S
C938 C939 1.388 . S
C939 H926 0.930 . S
C939 C938 1.388 . S
C939 C940 1.390 . S
C940 C939 1.390 . S
C940 C941 1.394 . S
C940 C946 1.465 1_545 S
C941 C936 1.399 . S
C941 C940 1.394 . S
C941 C942 1.509 1_545 S
C942 C941 1.509 1_565 S
C942 C943 1.507 . S
C942 C944 1.556 1_565 S
C942 C945 1.533 . S
C943 H927 0.959 . S
C943 H928 0.959 . S
C943 H929 0.961 . S
C943 C942 1.507 . S
C944 H930 0.960 . S
C944 H931 0.961 . S
C944 H932 0.959 . S
C944 C942 1.556 1_545 S
C945 C942 1.533 . S
C945 C946 1.396 . S
C945 C950 1.390 . S
C946 C940 1.465 1_565 S
C946 C945 1.396 . S
C946 C947 1.399 . S
C947 H933 0.929 . S
C947 C946 1.399 . S
C947 C948 1.385 . S
C948 H934 0.931 . S
C948 C947 1.385 . S
C948 C949 1.389 . S
C949 C948 1.389 . S
C949 C950 1.387 . S
C950 H935 0.930 . S
C950 C945 1.390 . S
C950 C949 1.387 . S
H951 C963 0.930 . S
H952 C965 0.930 . S
H953 C966 0.930 . S
H954 C970 0.959 . S
H955 C970 0.959 . S
H956 C970 0.961 . S
H957 C971 0.960 . S
H958 C971 0.961 . S
H959 C971 0.959 . S
H960 C974 0.929 . S
H961 C975 0.931 . S
H962 C977 0.930 . S
C963 H951 0.930 . S
C963 C964 1.399 . S
C963 C968 1.399 . S
C964 C963 1.399 . S
C964 C965 1.376 . S
C965 H952 0.930 . S
C965 C964 1.376 . S
C965 C966 1.388 . S
C966 H953 0.930 . S
C966 C965 1.388 . S
C966 C967 1.390 . S
C967 C966 1.390 . S
C967 C968 1.394 . S
C967 C973 1.465 . S
C968 C963 1.399 . S
C968 C967 1.394 . S
C968 C969 1.516 . S
C969 C968 1.516 . S
C969 C970 1.502 . S
C969 C971 1.561 . S
C969 C972 1.526 . S
C970 H954 0.959 . S
C970 H955 0.959 . S
C970 H956 0.961 . S
C970 C969 1.502 . S
C971 H957 0.960 . S
C971 H958 0.961 . S
C971 H959 0.959 . S
C971 C969 1.561 . S
C972 C969 1.526 . S
C972 C973 1.396 . S
C972 C977 1.390 . S
C973 C967 1.465 . S
C973 C972 1.396 . S
C973 C974 1.399 . S
C974 H960 0.929 . S
C974 C973 1.399 . S
C974 C975 1.385 . S
C975 H961 0.931 . S
C975 C974 1.385 . S
C975 C976 1.389 . S
C976 C975 1.389 . S
C976 C977 1.387 . S
C977 H962 0.930 . S
C977 C972 1.390 . S
C977 C976 1.387 . S
H978 C990 0.930 . S
H979 C992 0.930 . S
H980 C993 0.930 . S
H981 C997 0.959 . S
H982 C997 0.959 . S
H983 C997 0.961 . S
H984 C998 0.960 1_655 S
H985 C998 0.961 . S
H986 C998 0.959 . S
H987 C1001 0.929 . S
H988 C1002 0.931 . S
H989 C1004 0.930 . S
C990 H978 0.930 . S
C990 C991 1.399 . S
C990 C995 1.399 . S
C991 C990 1.399 . S
C991 C992 1.376 . S
C992 H979 0.930 . S
C992 C991 1.376 . S
C992 C993 1.388 1_655 S
C993 H980 0.930 . S
C993 C992 1.388 1_455 S
C993 C994 1.390 . S
C994 C993 1.390 . S
C994 C995 1.394 1_455 S
C994 C1000 1.465 . S
C995 C990 1.399 . S
C995 C994 1.394 1_655 S
C995 C996 1.516 . S
C996 C995 1.516 . S
C996 C997 1.502 . S
C996 C998 1.561 1_655 S
C996 C999 1.526 1_655 S
C997 H981 0.959 . S
C997 H982 0.959 . S
C997 H983 0.961 . S
C997 C996 1.502 . S
C998 H984 0.960 1_455 S
C998 H985 0.961 . S
C998 H986 0.959 . S
C998 C996 1.561 1_455 S
C999 C996 1.526 1_455 S
C999 C1000 1.396 . S
C999 C1004 1.390 . S
C1000 C994 1.465 . S
C1000 C999 1.396 . S
C1000 C1001 1.399 . S
C1001 H987 0.929 . S
C1001 C1000 1.399 . S
C1001 C1002 1.385 . S
C1002 H988 0.931 . S
C1002 C1001 1.385 . S
C1002 C1003 1.389 . S
C1003 C1002 1.389 . S
C1003 C1004 1.387 . S
C1004 H989 0.930 . S
C1004 C999 1.390 . S
C1004 C1003 1.387 . S
H1005 C1017 0.930 . S
H1006 C1019 0.930 . S
H1007 C1020 0.930 . S
H1008 C1024 0.959 . S
H1009 C1024 0.959 . S
H1010 C1024 0.961 . S
H1011 C1025 0.960 1_565 S
H1012 C1025 0.961 . S
H1013 C1025 0.959 . S
H1014 C1028 0.929 . S
H1015 C1029 0.931 . S
H1016 C1031 0.930 . S
C1017 H1005 0.930 . S
C1017 C1018 1.399 . S
C1017 C1022 1.399 . S
C1018 C1017 1.399 . S
C1018 C1019 1.376 . S
C1019 H1006 0.930 . S
C1019 C1018 1.376 . S
C1019 C1020 1.388 1_565 S
C1020 H1007 0.930 . S
C1020 C1019 1.388 1_545 S
C1020 C1021 1.390 . S
C1021 C1020 1.390 . S
C1021 C1022 1.394 1_545 S
C1021 C1027 1.465 . S
C1022 C1017 1.399 . S
C1022 C1021 1.394 1_565 S
C1022 C1023 1.516 . S
C1023 C1022 1.516 . S
C1023 C1024 1.502 . S
C1023 C1025 1.561 1_565 S
C1023 C1026 1.526 1_565 S
C1024 H1008 0.959 . S
C1024 H1009 0.959 . S
C1024 H1010 0.961 . S
C1024 C1023 1.502 . S
C1025 H1011 0.960 1_545 S
C1025 H1012 0.961 . S
C1025 H1013 0.959 . S
C1025 C1023 1.561 1_545 S
C1026 C1023 1.526 1_545 S
C1026 C1027 1.396 . S
C1026 C1031 1.390 . S
C1027 C1021 1.465 . S
C1027 C1026 1.396 . S
C1027 C1028 1.399 . S
C1028 H1014 0.929 . S
C1028 C1027 1.399 . S
C1028 C1029 1.385 . S
C1029 H1015 0.931 . S
C1029 C1028 1.385 . S
C1029 C1030 1.389 . S
C1030 C1029 1.389 . S
C1030 C1031 1.387 . S
C1031 H1016 0.930 . S
C1031 C1026 1.390 . S
C1031 C1030 1.387 . S
H1032 C1044 0.930 . S
H1033 C1046 0.930 . S
H1034 C1047 0.930 . S
H1035 C1051 0.959 . S
H1036 C1051 0.959 . S
H1037 C1051 0.961 . S
H1038 C1052 0.960 . S
H1039 C1052 0.961 . S
H1040 C1052 0.959 . S
H1041 C1055 0.929 . S
H1042 C1056 0.931 . S
H1043 C1058 0.930 . S
C1044 H1032 0.930 . S
C1044 C1045 1.399 . S
C1044 C1049 1.399 . S
C1045 C1044 1.399 . S
C1045 C1046 1.376 . S
C1046 H1033 0.930 . S
C1046 C1045 1.376 . S
C1046 C1047 1.388 . S
C1047 H1034 0.930 . S
C1047 C1046 1.388 . S
C1047 C1048 1.390 . S
C1048 C1047 1.390 . S
C1048 C1049 1.394 . S
C1048 C1054 1.465 . S
C1049 C1044 1.399 . S
C1049 C1048 1.394 . S
C1049 C1050 1.516 . S
C1050 C1049 1.516 . S
C1050 C1051 1.502 . S
C1050 C1052 1.561 . S
C1050 C1053 1.526 . S
C1051 H1035 0.959 . S
C1051 H1036 0.959 . S
C1051 H1037 0.961 . S
C1051 C1050 1.502 . S
C1052 H1038 0.960 . S
C1052 H1039 0.961 . S
C1052 H1040 0.959 . S
C1052 C1050 1.561 . S
C1053 C1050 1.526 . S
C1053 C1054 1.396 . S
C1053 C1058 1.390 . S
C1054 C1048 1.465 . S
C1054 C1053 1.396 . S
C1054 C1055 1.399 . S
C1055 H1041 0.929 . S
C1055 C1054 1.399 . S
C1055 C1056 1.385 . S
C1056 H1042 0.931 . S
C1056 C1055 1.385 . S
C1056 C1057 1.389 . S
C1057 C1056 1.389 . S
C1057 C1058 1.387 . S
C1058 H1043 0.930 . S
C1058 C1053 1.390 . S
C1058 C1057 1.387 . S
H1059 C1071 0.930 1_455 S
H1060 C1073 0.930 . S
H1061 C1074 0.930 . S
H1062 C1078 0.959 . S
H1063 C1078 0.959 . S
H1064 C1078 0.961 . S
H1065 C1079 0.960 . S
H1066 C1079 0.961 . S
H1067 C1079 0.959 . S
H1068 C1082 0.929 . S
H1069 C1083 0.931 1_655 S
H1070 C1085 0.930 . S
C1071 H1059 0.930 1_655 S
C1071 C1072 1.399 . S
C1071 C1076 1.399 1_655 S
C1072 C1071 1.399 . S
C1072 C1073 1.376 . S
C1073 H1060 0.930 . S
C1073 C1072 1.376 . S
C1073 C1074 1.388 . S
C1074 H1061 0.930 . S
C1074 C1073 1.388 . S
C1074 C1075 1.390 . S
C1075 C1074 1.390 . S
C1075 C1076 1.394 1_655 S
C1075 C1081 1.465 . S
C1076 C1071 1.399 1_455 S
C1076 C1075 1.394 1_455 S
C1076 C1077 1.516 . S
C1077 C1076 1.516 . S
C1077 C1078 1.502 . S
C1077 C1079 1.561 . S
C1077 C1080 1.526 . S
C1078 H1062 0.959 . S
C1078 H1063 0.959 . S
C1078 H1064 0.961 . S
C1078 C1077 1.502 . S
C1079 H1065 0.960 . S
C1079 H1066 0.961 . S
C1079 H1067 0.959 . S
C1079 C1077 1.561 . S
C1080 C1077 1.526 . S
C1080 C1081 1.396 1_455 S
C1080 C1085 1.390 . S
C1081 C1075 1.465 . S
C1081 C1080 1.396 1_655 S
C1081 C1082 1.399 . S
C1082 H1068 0.929 . S
C1082 C1081 1.399 . S
C1082 C1083 1.385 1_655 S
C1083 H1069 0.931 1_455 S
C1083 C1082 1.385 1_455 S
C1083 C1084 1.389 . S
C1084 C1083 1.389 . S
C1084 C1085 1.387 . S
C1085 H1070 0.930 . S
C1085 C1080 1.390 . S
C1085 C1084 1.387 . S
H1086 C1098 0.930 . S
H1087 C1100 0.930 . S
H1088 C1101 0.930 . S
H1089 C1105 0.959 1_564 S
H1090 C1105 0.959 1_554 S
H1091 C1105 0.961 . S
H1092 C1106 0.960 . S
H1093 C1106 0.961 . S
H1094 C1106 0.959 . S
H1095 C1109 0.929 . S
H1096 C1110 0.931 . S
H1097 C1112 0.930 . S
C1098 H1086 0.930 . S
C1098 C1099 1.399 . S
C1098 C1103 1.399 . S
C1099 C1098 1.399 . S
C1099 C1100 1.376 . S
C1100 H1087 0.930 . S
C1100 C1099 1.376 . S
C1100 C1101 1.388 . S
C1101 H1088 0.930 . S
C1101 C1100 1.388 . S
C1101 C1102 1.390 . S
C1102 C1101 1.390 . S
C1102 C1103 1.394 . S
C1102 C1108 1.465 1_566 S
C1103 C1098 1.399 . S
C1103 C1102 1.394 . S
C1103 C1104 1.516 1_565 S
C1104 C1103 1.516 1_545 S
C1104 C1105 1.502 . S
C1104 C1106 1.561 . S
C1104 C1107 1.526 1_556 S
C1105 H1089 0.959 1_546 S
C1105 H1090 0.959 1_556 S
C1105 H1091 0.961 . S
C1105 C1104 1.502 . S
C1106 H1092 0.960 . S
C1106 H1093 0.961 . S
C1106 H1094 0.959 . S
C1106 C1104 1.561 . S
C1107 C1104 1.526 1_554 S
C1107 C1108 1.396 . S
C1107 C1112 1.390 . S
C1108 C1102 1.465 1_544 S
C1108 C1107 1.396 . S
C1108 C1109 1.399 1_545 S
C1109 H1095 0.929 . S
C1109 C1108 1.399 1_565 S
C1109 C1110 1.385 1_565 S
C1110 H1096 0.931 . S
C1110 C1109 1.385 1_545 S
C1110 C1111 1.389 . S
C1111 C1110 1.389 . S
C1111 C1112 1.387 . S
C1112 H1097 0.930 . S
C1112 C1107 1.390 . S
C1112 C1111 1.387 . S
H1113 C1125 0.930 . S
H1114 C1127 0.930 . S
H1115 C1128 0.930 . S
H1116 C1132 0.959 . S
H1117 C1132 0.959 . S
H1118 C1132 0.961 . S
H1119 C1133 0.960 . S
H1120 C1133 0.961 . S
H1121 C1133 0.959 . S
H1122 C1136 0.929 . S
H1123 C1137 0.931 . S
H1124 C1139 0.930 . S
C1125 H1113 0.930 . S
C1125 C1126 1.399 . S
C1125 C1130 1.399 . S
C1126 C1125 1.399 . S
C1126 C1127 1.376 . S
C1127 H1114 0.930 . S
C1127 C1126 1.376 . S
C1127 C1128 1.388 . S
C1128 H1115 0.930 . S
C1128 C1127 1.388 . S
C1128 C1129 1.390 . S
C1129 C1128 1.390 . S
C1129 C1130 1.394 . S
C1129 C1135 1.465 . S
C1130 C1125 1.399 . S
C1130 C1129 1.394 . S
C1130 C1131 1.516 . S
C1131 C1130 1.516 . S
C1131 C1132 1.502 . S
C1131 C1133 1.561 . S
C1131 C1134 1.526 . S
C1132 H1116 0.959 . S
C1132 H1117 0.959 . S
C1132 H1118 0.961 . S
C1132 C1131 1.502 . S
C1133 H1119 0.960 . S
C1133 H1120 0.961 . S
C1133 H1121 0.959 . S
C1133 C1131 1.561 . S
C1134 C1131 1.526 . S
C1134 C1135 1.396 . S
C1134 C1139 1.390 . S
C1135 C1129 1.465 . S
C1135 C1134 1.396 . S
C1135 C1136 1.399 . S
C1136 H1122 0.929 . S
C1136 C1135 1.399 . S
C1136 C1137 1.385 . S
C1137 H1123 0.931 . S
C1137 C1136 1.385 . S
C1137 C1138 1.389 . S
C1138 C1137 1.389 . S
C1138 C1139 1.387 . S
C1139 H1124 0.930 . S
C1139 C1134 1.390 . S
C1139 C1138 1.387 . S
H1140 C1152 0.930 1_655 S
H1141 C1154 0.930 . S
H1142 C1155 0.930 . S
H1143 C1159 0.959 . S
H1144 C1159 0.959 . S
H1145 C1159 0.961 . S
H1146 C1160 0.960 . S
H1147 C1160 0.961 . S
H1148 C1160 0.959 . S
H1149 C1163 0.929 . S
H1150 C1164 0.931 1_455 S
H1151 C1166 0.930 . S
C1152 H1140 0.930 1_455 S
C1152 C1153 1.399 . S
C1152 C1157 1.399 1_455 S
C1153 C1152 1.399 . S
C1153 C1154 1.376 . S
C1154 H1141 0.930 . S
C1154 C1153 1.376 . S
C1154 C1155 1.388 . S
C1155 H1142 0.930 . S
C1155 C1154 1.388 . S
C1155 C1156 1.390 . S
C1156 C1155 1.390 . S
C1156 C1157 1.394 1_455 S
C1156 C1162 1.465 . S
C1157 C1152 1.399 1_655 S
C1157 C1156 1.394 1_655 S
C1157 C1158 1.516 . S
C1158 C1157 1.516 . S
C1158 C1159 1.502 . S
C1158 C1160 1.561 . S
C1158 C1161 1.526 . S
C1159 H1143 0.959 . S
C1159 H1144 0.959 . S
C1159 H1145 0.961 . S
C1159 C1158 1.502 . S
C1160 H1146 0.960 . S
C1160 H1147 0.961 . S
C1160 H1148 0.959 . S
C1160 C1158 1.561 . S
C1161 C1158 1.526 . S
C1161 C1162 1.396 1_655 S
C1161 C1166 1.390 . S
C1162 C1156 1.465 . S
C1162 C1161 1.396 1_455 S
C1162 C1163 1.399 . S
C1163 H1149 0.929 . S
C1163 C1162 1.399 . S
C1163 C1164 1.385 1_455 S
C1164 H1150 0.931 1_655 S
C1164 C1163 1.385 1_655 S
C1164 C1165 1.389 . S
C1165 C1164 1.389 . S
C1165 C1166 1.387 . S
C1166 H1151 0.930 . S
C1166 C1161 1.390 . S
C1166 C1165 1.387 . S
H1167 C1179 0.930 . S
H1168 C1181 0.936 . S
H1169 C1182 0.930 . S
H1170 C1186 0.959 . S
H1171 C1186 0.959 . S
H1172 C1186 0.961 . S
H1173 C1187 0.960 . S
H1174 C1187 0.961 . S
H1175 C1187 0.959 . S
H1176 C1190 0.929 . S
H1177 C1191 0.931 . S
H1178 C1193 0.930 1_565 S
C1179 H1167 0.930 . S
C1179 C1180 1.399 . S
C1179 C1184 1.399 . S
C1180 C1179 1.399 . S
C1180 C1181 1.376 . S
C1181 H1168 0.936 . S
C1181 C1180 1.376 . S
C1181 C1182 1.388 1_565 S
C1182 H1169 0.930 . S
C1182 C1181 1.388 1_545 S
C1182 C1183 1.390 . S
C1183 C1182 1.390 . S
C1183 C1184 1.394 1_545 S
C1183 C1189 1.465 1_554 S
C1184 C1179 1.399 . S
C1184 C1183 1.394 1_565 S
C1184 C1185 1.516 1_554 S
C1185 C1184 1.516 1_556 S
C1185 C1186 1.502 . S
C1185 C1187 1.561 . S
C1185 C1188 1.544 . S
C1186 H1170 0.959 . S
C1186 H1171 0.959 . S
C1186 H1172 0.961 . S
C1186 C1185 1.502 . S
C1187 H1173 0.960 . S
C1187 H1174 0.961 . S
C1187 H1175 0.959 . S
C1187 C1185 1.561 . S
C1188 C1185 1.544 . S
C1188 C1189 1.380 1_565 S
C1188 C1193 1.386 1_565 S
C1189 C1183 1.465 1_556 S
C1189 C1188 1.380 1_545 S
C1189 C1190 1.399 . S
C1190 H1176 0.929 . S
C1190 C1189 1.399 . S
C1190 C1191 1.385 . S
C1191 H1177 0.931 . S
C1191 C1190 1.385 . S
C1191 C1192 1.389 . S
C1192 C1191 1.389 . S
C1192 C1193 1.387 . S
C1193 H1178 0.930 1_545 S
C1193 C1188 1.386 1_545 S
C1193 C1192 1.387 . S
H1194 C1206 0.930 . S
H1195 C1208 0.930 . S
H1196 C1209 0.930 . S
H1197 C1213 0.959 1_455 S
H1198 C1213 0.959 1_455 S
H1199 C1213 0.961 . S
H1200 C1214 0.960 . S
H1201 C1214 0.961 1_455 S
H1202 C1214 0.954 . S
H1203 C1217 0.929 . S
H1204 C1218 0.931 . S
H1205 C1220 0.930 . S
C1206 H1194 0.930 . S
C1206 C1207 1.399 . S
C1206 C1211 1.399 . S
C1207 C1206 1.399 . S
C1207 C1208 1.376 . S
C1208 H1195 0.930 . S
C1208 C1207 1.376 . S
C1208 C1209 1.388 . S
C1209 H1196 0.930 . S
C1209 C1208 1.388 . S
C1209 C1210 1.390 . S
C1210 C1209 1.390 . S
C1210 C1211 1.394 . S
C1210 C1216 1.465 1_655 S
C1211 C1206 1.399 . S
C1211 C1210 1.394 . S
C1211 C1212 1.516 . S
C1212 C1211 1.516 . S
C1212 C1213 1.502 . S
C1212 C1214 1.561 . S
C1212 C1215 1.526 1_655 S
C1213 H1197 0.959 1_655 S
C1213 H1198 0.959 1_655 S
C1213 H1199 0.961 . S
C1213 C1212 1.502 . S
C1214 H1200 0.960 . S
C1214 H1201 0.961 1_655 S
C1214 H1202 0.954 . S
C1214 C1212 1.561 . S
C1215 C1212 1.526 1_455 S
C1215 C1216 1.396 . S
C1215 C1220 1.390 . S
C1216 C1210 1.465 1_455 S
C1216 C1215 1.396 . S
C1216 C1217 1.399 . S
C1217 H1203 0.929 . S
C1217 C1216 1.399 . S
C1217 C1218 1.385 . S
C1218 H1204 0.931 . S
C1218 C1217 1.385 . S
C1218 C1219 1.389 . S
C1219 C1218 1.389 . S
C1219 C1220 1.387 . S
C1220 H1205 0.930 . S
C1220 C1215 1.390 . S
C1220 C1219 1.387 . S
H1221 C1233 0.930 . S
H1222 C1235 0.930 . S
H1223 C1236 0.930 . S
H1224 C1240 0.959 . S
H1225 C1240 0.959 . S
H1226 C1240 0.961 1_545 S
H1227 C1241 0.960 1_545 S
H1228 C1241 0.961 . S
H1229 C1241 0.959 . S
H1230 C1244 0.929 . S
H1231 C1245 0.931 . S
H1232 C1247 0.930 . S
C1233 H1221 0.930 . S
C1233 C1234 1.399 . S
C1233 C1238 1.399 . S
C1234 C1233 1.399 . S
C1234 C1235 1.376 . S
C1235 H1222 0.930 . S
C1235 C1234 1.376 . S
C1235 C1236 1.388 . S
C1236 H1223 0.930 . S
C1236 C1235 1.388 . S
C1236 C1237 1.390 . S
C1237 C1236 1.390 . S
C1237 C1238 1.394 . S
C1237 C1243 1.465 1_545 S
C1238 C1233 1.399 . S
C1238 C1237 1.394 . S
C1238 C1239 1.516 1_545 S
C1239 C1238 1.516 1_565 S
C1239 C1240 1.502 . S
C1239 C1241 1.561 . S
C1239 C1242 1.526 . S
C1240 H1224 0.959 . S
C1240 H1225 0.959 . S
C1240 H1226 0.961 1_565 S
C1240 C1239 1.502 . S
C1241 H1227 0.960 1_565 S
C1241 H1228 0.961 . S
C1241 H1229 0.959 . S
C1241 C1239 1.561 . S
C1242 C1239 1.526 . S
C1242 C1243 1.396 . S
C1242 C1247 1.390 . S
C1243 C1237 1.465 1_565 S
C1243 C1242 1.396 . S
C1243 C1244 1.399 . S
C1244 H1230 0.929 . S
C1244 C1243 1.399 . S
C1244 C1245 1.385 . S
C1245 H1231 0.931 . S
C1245 C1244 1.385 . S
C1245 C1246 1.389 . S
C1246 C1245 1.389 . S
C1246 C1247 1.387 . S
C1247 H1232 0.930 . S
C1247 C1242 1.390 . S
C1247 C1246 1.387 . S
H1248 C1260 0.930 . S
H1249 C1262 0.930 . S
H1250 C1263 0.930 . S
H1251 C1267 0.959 . S
H1252 C1267 0.959 . S
H1253 C1267 0.961 . S
H1254 C1268 0.960 . S
H1255 C1268 0.961 . S
H1256 C1268 0.959 . S
H1257 C1271 0.929 . S
H1258 C1272 0.931 . S
H1259 C1274 0.930 . S
C1260 H1248 0.930 . S
C1260 C1261 1.399 . S
C1260 C1265 1.399 . S
C1261 C1260 1.399 . S
C1261 C1262 1.376 . S
C1262 H1249 0.930 . S
C1262 C1261 1.376 . S
C1262 C1263 1.388 . S
C1263 H1250 0.930 . S
C1263 C1262 1.388 . S
C1263 C1264 1.390 . S
C1264 C1263 1.390 . S
C1264 C1265 1.394 . S
C1264 C1270 1.465 . S
C1265 C1260 1.399 . S
C1265 C1264 1.394 . S
C1265 C1266 1.516 . S
C1266 C1265 1.516 . S
C1266 C1267 1.502 . S
C1266 C1268 1.561 . S
C1266 C1269 1.526 . S
C1267 H1251 0.959 . S
C1267 H1252 0.959 . S
C1267 H1253 0.961 . S
C1267 C1266 1.502 . S
C1268 H1254 0.960 . S
C1268 H1255 0.961 . S
C1268 H1256 0.959 . S
C1268 C1266 1.561 . S
C1269 C1266 1.526 . S
C1269 C1270 1.396 . S
C1269 C1274 1.390 . S
C1270 C1264 1.465 . S
C1270 C1269 1.396 . S
C1270 C1271 1.399 . S
C1271 H1257 0.929 . S
C1271 C1270 1.399 . S
C1271 C1272 1.385 . S
C1272 H1258 0.931 . S
C1272 C1271 1.385 . S
C1272 C1273 1.389 . S
C1273 C1272 1.389 . S
C1273 C1274 1.387 . S
C1274 H1259 0.930 . S
C1274 C1269 1.390 . S
C1274 C1273 1.387 . S
H1275 C1287 0.930 . S
H1276 C1289 0.930 . S
H1277 C1290 0.930 . S
H1278 C1294 0.959 . S
H1279 C1294 0.959 . S
H1280 C1294 0.961 1_655 S
H1281 C1295 0.960 1_655 S
H1282 C1295 0.961 . S
H1283 C1295 0.959 . S
H1284 C1298 0.929 . S
H1285 C1299 0.931 . S
H1286 C1301 0.930 . S
C1287 H1275 0.930 . S
C1287 C1288 1.399 . S
C1287 C1292 1.399 . S
C1288 C1287 1.399 . S
C1288 C1289 1.376 . S
C1289 H1276 0.930 . S
C1289 C1288 1.376 . S
C1289 C1290 1.388 . S
C1290 H1277 0.930 . S
C1290 C1289 1.388 . S
C1290 C1291 1.390 . S
C1291 C1290 1.390 . S
C1291 C1292 1.394 . S
C1291 C1297 1.465 1_655 S
C1292 C1287 1.399 . S
C1292 C1291 1.394 . S
C1292 C1293 1.516 1_655 S
C1293 C1292 1.516 1_455 S
C1293 C1294 1.502 . S
C1293 C1295 1.561 . S
C1293 C1296 1.526 . S
C1294 H1278 0.959 . S
C1294 H1279 0.959 . S
C1294 H1280 0.961 1_455 S
C1294 C1293 1.502 . S
C1295 H1281 0.960 1_455 S
C1295 H1282 0.961 . S
C1295 H1283 0.959 . S
C1295 C1293 1.561 . S
C1296 C1293 1.526 . S
C1296 C1297 1.396 . S
C1296 C1301 1.390 . S
C1297 C1291 1.465 1_455 S
C1297 C1296 1.396 . S
C1297 C1298 1.399 . S
C1298 H1284 0.929 . S
C1298 C1297 1.399 . S
C1298 C1299 1.385 . S
C1299 H1285 0.931 . S
C1299 C1298 1.385 . S
C1299 C1300 1.389 . S
C1300 C1299 1.389 . S
C1300 C1301 1.387 . S
C1301 H1286 0.930 . S
C1301 C1296 1.390 . S
C1301 C1300 1.387 . S
H1302 C1314 0.930 . S
H1303 C1316 0.930 . S
H1304 C1317 0.930 . S
H1305 C1321 0.959 1_545 S
H1306 C1321 0.959 1_545 S
H1307 C1321 0.961 . S
H1308 C1322 0.960 . S
H1309 C1322 0.961 1_545 S
H1310 C1322 0.960 . S
H1311 C1325 0.929 . S
H1312 C1326 0.931 . S
H1313 C1328 0.930 . S
C1314 H1302 0.930 . S
C1314 C1315 1.399 . S
C1314 C1319 1.399 . S
C1315 C1314 1.399 . S
C1315 C1316 1.376 . S
C1316 H1303 0.930 . S
C1316 C1315 1.376 . S
C1316 C1317 1.388 . S
C1317 H1304 0.930 . S
C1317 C1316 1.388 . S
C1317 C1318 1.390 . S
C1318 C1317 1.390 . S
C1318 C1319 1.394 . S
C1318 C1324 1.465 1_565 S
C1319 C1314 1.399 . S
C1319 C1318 1.394 . S
C1319 C1320 1.516 . S
C1320 C1319 1.516 . S
C1320 C1321 1.502 . S
C1320 C1322 1.561 . S
C1320 C1323 1.526 1_565 S
C1321 H1305 0.959 1_565 S
C1321 H1306 0.959 1_565 S
C1321 H1307 0.961 . S
C1321 C1320 1.502 . S
C1322 H1308 0.960 . S
C1322 H1309 0.961 1_565 S
C1322 H1310 0.960 . S
C1322 C1320 1.561 . S
C1323 C1320 1.526 1_545 S
C1323 C1324 1.396 . S
C1323 C1328 1.390 . S
C1324 C1318 1.465 1_545 S
C1324 C1323 1.396 . S
C1324 C1325 1.399 . S
C1325 H1311 0.929 . S
C1325 C1324 1.399 . S
C1325 C1326 1.385 . S
C1326 H1312 0.931 . S
C1326 C1325 1.385 . S
C1326 C1327 1.389 . S
C1327 C1326 1.389 . S
C1327 C1328 1.387 . S
C1328 H1313 0.930 . S
C1328 C1323 1.390 . S
C1328 C1327 1.387 . S
H1329 C1341 0.930 . S
H1330 C1343 0.930 . S
H1331 C1344 0.930 . S
H1332 C1348 0.959 . S
H1333 C1348 0.959 . S
H1334 C1348 0.961 . S
H1335 C1349 0.960 . S
H1336 C1349 0.961 . S
H1337 C1349 0.959 . S
H1338 C1352 0.929 . S
H1339 C1353 0.931 . S
H1340 C1355 0.930 . S
C1341 H1329 0.930 . S
C1341 C1342 1.399 . S
C1341 C1346 1.399 . S
C1342 C1341 1.399 . S
C1342 C1343 1.376 . S
C1343 H1330 0.930 . S
C1343 C1342 1.376 . S
C1343 C1344 1.388 . S
C1344 H1331 0.930 . S
C1344 C1343 1.388 . S
C1344 C1345 1.390 . S
C1345 C1344 1.390 . S
C1345 C1346 1.394 . S
C1345 C1351 1.465 . S
C1346 C1341 1.399 . S
C1346 C1345 1.394 . S
C1346 C1347 1.516 . S
C1347 C1346 1.516 . S
C1347 C1348 1.502 . S
C1347 C1349 1.561 . S
C1347 C1350 1.526 . S
C1348 H1332 0.959 . S
C1348 H1333 0.959 . S
C1348 H1334 0.961 . S
C1348 C1347 1.502 . S
C1349 H1335 0.960 . S
C1349 H1336 0.961 . S
C1349 H1337 0.959 . S
C1349 C1347 1.561 . S
C1350 C1347 1.526 . S
C1350 C1351 1.396 . S
C1350 C1355 1.390 . S
C1351 C1345 1.465 . S
C1351 C1350 1.396 . S
C1351 C1352 1.399 . S
C1352 H1338 0.929 . S
C1352 C1351 1.399 . S
C1352 C1353 1.385 . S
C1353 H1339 0.931 . S
C1353 C1352 1.385 . S
C1353 C1354 1.389 . S
C1354 C1353 1.389 . S
C1354 C1355 1.387 . S
C1355 H1340 0.930 . S
C1355 C1350 1.390 . S
C1355 C1354 1.387 . S
C721 C475 1.652 . S
C733 C3 1.669 . S
C748 C62 1.630 . S
C760 C534 1.644 . S
C775 C121 1.656 . S
C787 C593 1.635 . S
C802 C180 1.647 . S
C814 C652 1.667 . S
C829 C357 1.655 . S
C841 C239 1.634 . S
C856 C298 1.654 . S
C868 C416 1.634 . S
C883 C229 1.357 . S
C895 C52 1.321 . S
C910 C288 1.288 . S
C922 C111 1.326 . S
C937 C347 1.290 . S
C949 C170 1.311 . S
C964 C406 1.357 . S
C976 C583 1.324 . S
C991 C465 1.357 . S
C1003 C642 1.323 . S
C1018 C524 1.357 . S
C1030 C701 1.323 . S
C1045 C33 1.589 . S
C1057 C564 1.582 . S
C1072 C92 1.580 . S
C1084 C623 1.602 . S
C1099 C151 1.581 . S
C1111 C682 1.590 . S
C1126 C387 1.592 . S
C1138 C210 1.612 . S
C1153 C269 1.580 . S
C1165 C446 1.600 . S
C1180 C505 1.612 . S
C1192 C328 1.597 . S
C1207 C654 1.393 . S
C1219 C5 1.357 . S
C1234 C64 1.386 . S
C1246 C359 1.419 . S
C1261 C418 1.410 . S
C1273 C123 1.364 . S
C1288 C182 1.363 . S
C1300 C477 1.410 . S
C1315 C241 1.399 . S
C1327 C536 1.358 . S
C1342 C595 1.383 . S
C1354 C300 1.418 . S
