# Generated by pormake.
# Topology uon, (4)-cn, num edge types: 1
# Building blocks:
#     Node 0, Type 0, BuildingBlock: MUDLON_clean_sbu_0, # of connection points: 4
#     Node 1, Type 0, BuildingBlock: MUDLON_clean_sbu_0, # of connection points: 4
#     Node 2, Type 0, BuildingBlock: MUDLON_clean_sbu_0, # of connection points: 4
#     Node 3, Type 0, BuildingBlock: MUDLON_clean_sbu_0, # of connection points: 4
#     Node 4, Type 0, BuildingBlock: MUDLON_clean_sbu_0, # of connection points: 4
#     Node 5, Type 0, BuildingBlock: MUDLON_clean_sbu_0, # of connection points: 4
#     Edge 6, Type (0, 0), BuildingBlock: ZUJKAS_clean_linker_0, # of connection points: 2
#     Edge 7, Type (0, 0), BuildingBlock: ZUJKAS_clean_linker_0, # of connection points: 2
#     Edge 8, Type (0, 0), BuildingBlock: ZUJKAS_clean_linker_0, # of connection points: 2
#     Edge 9, Type (0, 0), BuildingBlock: ZUJKAS_clean_linker_0, # of connection points: 2
#     Edge 10, Type (0, 0), BuildingBlock: ZUJKAS_clean_linker_0, # of connection points: 2
#     Edge 11, Type (0, 0), BuildingBlock: ZUJKAS_clean_linker_0, # of connection points: 2
#     Edge 12, Type (0, 0), BuildingBlock: ZUJKAS_clean_linker_0, # of connection points: 2
#     Edge 13, Type (0, 0), BuildingBlock: ZUJKAS_clean_linker_0, # of connection points: 2
#     Edge 14, Type (0, 0), BuildingBlock: ZUJKAS_clean_linker_0, # of connection points: 2
#     Edge 15, Type (0, 0), BuildingBlock: ZUJKAS_clean_linker_0, # of connection points: 2
#     Edge 16, Type (0, 0), BuildingBlock: ZUJKAS_clean_linker_0, # of connection points: 2
#     Edge 17, Type (0, 0), BuildingBlock: ZUJKAS_clean_linker_0, # of connection points: 2
# Relax obj value: 0.184
# Max RMSD: 0.128
# Mean RMSD: 0.127
data_MOF--net-uon--node1-MUDLON_clean_sbu_0--edge1-ZUJKAS_clean_linker_0
_symmetry_space_group_name_H-M    P1
_symmetry_Int_Tables_number       1
_symmetry_cell_setting            triclinic
loop_
_symmetry_equiv_pos_as_xyz
'x, y, z'
_cell_length_a     49.272364
_cell_length_b     49.223302
_cell_length_c     21.891479
_cell_angle_alpha  89.968838
_cell_angle_beta   89.638544
_cell_angle_gamma 119.93223
loop_
_atom_site_label
_atom_site_type_symbol
_atom_site_fract_x
_atom_site_fract_y
_atom_site_fract_z
_atom_type_partial_charge
Mg0 Mg 0.23413 0.44392 0.01949 0.0
C1 C 0.26119 0.48402 0.90776 0.0
O2 O 0.27457 0.46676 0.90316 0.0
C3 C 0.17855 0.40803 0.10274 0.0
O4 O 0.20144 0.42047 0.14246 0.0
C5 C 0.24692 0.38956 0.99739 0.0
O6 O 0.21874 0.37268 0.02107 0.0
O7 O 0.25884 0.41913 0.99347 0.0
O8 O 0.23937 0.47631 0.94692 0.0
O9 O 0.25744 0.47869 0.09021 0.0
C10 C 0.28381 0.50238 0.07653 0.0
O11 O 0.29877 0.50092 0.02789 0.0
O12 O 0.18521 0.41324 0.0461 0.0
Mg13 Mg 0.79116 0.21894 0.34013 0.0
C14 C 0.77971 0.24839 0.23059 0.0
O15 O 0.80982 0.25895 0.22302 0.0
C16 C 0.77937 0.16133 0.4112 0.0
O17 O 0.8054 0.18242 0.43714 0.0
C18 C 0.86336 0.25249 0.34349 0.0
O19 O 0.8592 0.25602 0.40165 0.0
O20 O 0.83957 0.23791 0.30943 0.0
O21 O 0.76492 0.22727 0.27062 0.0
O22 O 0.78443 0.24469 0.41348 0.0
C23 C 0.7879 0.27147 0.40059 0.0
O24 O 0.8033 0.28568 0.35053 0.0
O25 O 0.76834 0.16973 0.36732 0.0
Mg26 Mg 0.57206 0.7838 0.70057 0.0
C27 C 0.53451 0.77387 0.58642 0.0
O28 O 0.554 0.80411 0.58066 0.0
C29 C 0.62744 0.77678 0.74054 0.0
O30 O 0.6422 0.80741 0.73415 0.0
C31 C 0.59664 0.85464 0.684 0.0
O32 O 0.57083 0.84811 0.71368 0.0
O33 O 0.60297 0.83289 0.67455 0.0
O34 O 0.53993 0.75873 0.62696 0.0
O35 O 0.53745 0.77466 0.77176 0.0
C36 C 0.51304 0.77576 0.7571 0.0
O37 O 0.51326 0.7896 0.70564 0.0
O38 O 0.5984 0.76108 0.72819 0.0
Mg39 Mg 0.79956 0.57415 0.03349 0.0
C40 C 0.76845 0.53605 0.92321 0.0
O41 O 0.75565 0.55391 0.92523 0.0
C42 C 0.85637 0.61864 0.10512 0.0
O43 O 0.83392 0.61702 0.14038 0.0
C44 C 0.79092 0.62812 0.99133 0.0
O45 O 0.82116 0.64076 0.98121 0.0
O46 O 0.77611 0.60096 0.01538 0.0
O47 O 0.7914 0.5425 0.95806 0.0
O48 O 0.77639 0.53861 0.10381 0.0
C49 C 0.79288 0.52869 0.1295 0.0
O50 O 0.82334 0.54415 0.12065 0.0
O51 O 0.84902 0.60356 0.05511 0.0
Mg52 Mg 0.24073 0.79354 0.34411 0.0
C53 C 0.24611 0.75473 0.24775 0.0
O54 O 0.21589 0.74006 0.25939 0.0
C55 C 0.25041 0.85712 0.38105 0.0
O56 O 0.21966 0.84124 0.38003 0.0
C57 C 0.169 0.7541 0.34386 0.0
O58 O 0.17385 0.73979 0.38959 0.0
O59 O 0.19233 0.77722 0.31824 0.0
O60 O 0.26338 0.78115 0.27274 0.0
O61 O 0.24629 0.76763 0.41862 0.0
C62 C 0.26777 0.78278 0.45725 0.0
O63 O 0.28065 0.81343 0.45892 0.0
O64 O 0.26551 0.84341 0.36585 0.0
Mg65 Mg 0.45771 0.22908 0.68313 0.0
C66 C 0.50076 0.23506 0.58262 0.0
O67 O 0.48574 0.20473 0.59333 0.0
C68 C 0.40645 0.23698 0.74123 0.0
O69 O 0.40052 0.21012 0.76549 0.0
C70 C 0.40431 0.16802 0.63534 0.0
O71 O 0.39369 0.1869 0.62081 0.0
O72 O 0.43004 0.17903 0.66398 0.0
O73 O 0.49144 0.25187 0.60945 0.0
O74 O 0.49091 0.23995 0.75658 0.0
C75 C 0.49763 0.26391 0.78888 0.0
O76 O 0.47983 0.27671 0.7849 0.0
O77 O 0.42875 0.25021 0.70262 0.0
H78 H 0.30159 0.41654 0.93108 0.0
H79 H 0.32796 0.39065 0.88467 0.0
H80 H 0.25762 0.30216 0.96054 0.0
H81 H 0.23067 0.32772 0.00587 0.0
H82 H 0.35384 0.35865 0.93466 0.0
H83 H 0.2566 0.27959 0.78303 0.0
H84 H 0.25699 0.31189 0.82278 0.0
H85 H 0.24531 0.27551 0.86204 0.0
C86 C 0.29169 0.39156 0.93794 0.0
C87 C 0.26386 0.37417 0.97189 0.0
C88 C 0.30681 0.37678 0.9113 0.0
C89 C 0.29445 0.34433 0.91797 0.0
C90 C 0.26715 0.32706 0.95326 0.0
H91 H 0.35499 0.21289 0.81616 0.0
H92 H 0.32823 0.23963 0.85685 0.0
C93 C 0.25189 0.34177 0.9796 0.0
C94 C 0.31043 0.32871 0.88881 0.0
H95 H 0.29912 0.26976 0.79127 0.0
C96 C 0.34193 0.33937 0.90298 0.0
C97 C 0.29493 0.30358 0.84726 0.0
C98 C 0.2617 0.29214 0.82734 0.0
C99 C 0.35809 0.32514 0.87792 0.0
C100 C 0.34244 0.29977 0.83714 0.0
C101 C 0.31103 0.28919 0.82265 0.0
C102 C 0.35811 0.28345 0.81014 0.0
C103 C 0.39157 0.33686 0.89637 0.0
C104 C 0.3834 0.29903 0.76931 0.0
C105 C 0.3987 0.28376 0.74565 0.0
C106 C 0.38899 0.25261 0.76252 0.0
C107 C 0.36317 0.2369 0.80236 0.0
C108 C 0.34781 0.25212 0.82567 0.0
H109 H 0.39817 0.35221 0.93718 0.0
H110 H 0.39543 0.31691 0.9063 0.0
H111 H 0.40741 0.35059 0.85813 0.0
H112 H 0.39143 0.32308 0.75604 0.0
H113 H 0.41846 0.29654 0.71504 0.0
H114 H 0.88015 0.25473 0.22324 0.0
H115 H 0.93304 0.27844 0.17981 0.0
H116 H 0.9721 0.30535 0.36003 0.0
H117 H 0.91931 0.28161 0.40401 0.0
H118 H 0.98161 0.34208 0.18991 0.0
H119 H 0.01671 0.26022 0.28789 0.0
H120 H 0.97636 0.25095 0.28423 0.0
H121 H 1.00162 0.27668 0.3425 0.0
C122 C 0.89996 0.26549 0.25378 0.0
C123 C 0.89544 0.26615 0.31722 0.0
C124 C 0.93019 0.27908 0.22881 0.0
C125 C 0.95651 0.29331 0.26671 0.0
C126 C 0.95212 0.29401 0.33001 0.0
H127 H 0.15731 0.39558 0.22066 0.0
H128 H 0.10316 0.36718 0.25703 0.0
C129 C 0.9219 0.28056 0.35504 0.0
C130 C 0.98856 0.30842 0.23986 0.0
H131 H 0.05677 0.30619 0.23981 0.0
C132 C 0.998 0.33412 0.20039 0.0
C133 C 1.00989 0.298 0.2537 0.0
C134 C 1.00066 0.26978 0.29397 0.0
C135 C 0.0285 0.35029 0.17579 0.0
C136 C 0.04995 0.34002 0.18998 0.0
C137 C 0.04034 0.31405 0.2289 0.0
C138 C 0.08281 0.3566 0.16684 0.0
C139 C 0.03778 0.37888 0.13658 0.0
C140 C 0.08952 0.35971 0.10389 0.0
C141 C 0.12059 0.37612 0.0828 0.0
C142 C 0.14556 0.38952 0.12433 0.0
C143 C 0.13872 0.38568 0.18732 0.0
C144 C 0.10772 0.36939 0.20828 0.0
H145 H 0.02151 0.38816 0.14277 0.0
H146 H 0.0619 0.3978 0.14725 0.0
H147 H 0.03722 0.37252 0.08781 0.0
H148 H 0.07073 0.34945 0.07101 0.0
H149 H 0.12501 0.37843 0.03402 0.0
H150 H 0.72126 0.11378 0.37847 0.0
H151 H 0.69135 0.06164 0.42489 0.0
H152 H 0.76829 0.08303 0.54545 0.0
H153 H 0.79809 0.13535 0.50025 0.0
H154 H 0.70285 0.01278 0.43486 0.0
H155 H 0.69591 0.05615 0.6649 0.0
H156 H 0.70885 0.08119 0.59828 0.0
H157 H 0.73525 0.0718 0.63693 0.0
C158 C 0.73188 0.10738 0.41474 0.0
C159 C 0.76199 0.12889 0.43598 0.0
C160 C 0.71473 0.07754 0.44124 0.0
C161 C 0.7273 0.06862 0.48953 0.0
C162 C 0.75777 0.08965 0.50935 0.0
H163 H 0.65292 0.87697 0.62415 0.0
H164 H 0.68504 0.92868 0.57739 0.0
C165 C 0.77487 0.11951 0.48312 0.0
C166 C 0.70849 0.03741 0.51926 0.0
H167 H 0.67805 1.00172 0.65659 0.0
C168 C 0.69739 0.01035 0.48332 0.0
C169 C 0.70096 0.03424 0.58236 0.0
C170 C 0.71057 0.06237 0.62283 0.0
C171 C 0.6793 0.98024 0.50883 0.0
C172 C 0.67265 0.97705 0.57232 0.0
C173 C 0.68344 1.00413 0.60809 0.0
C174 C 0.65375 0.9459 0.60228 0.0
C175 C 0.66688 0.95217 0.46722 0.0
C176 C 0.62604 0.93871 0.63384 0.0
C177 C 0.60782 0.9093 0.66129 0.0
C178 C 0.61694 0.88642 0.65783 0.0
C179 C 0.64507 0.89393 0.62732 0.0
C180 C 0.66336 0.92343 0.60013 0.0
H181 H 0.66673 0.9588 0.41874 0.0
H182 H 0.68212 0.94159 0.47041 0.0
H183 H 0.64272 0.93411 0.48063 0.0
H184 H 0.61824 0.95572 0.63645 0.0
H185 H 0.58633 0.90436 0.68441 0.0
H186 H 0.72746 0.60434 0.98569 0.0
H187 H 0.69973 0.62952 0.94284 0.0
H188 H 0.78796 0.71331 0.90665 0.0
H189 H 0.81589 0.68808 0.94801 0.0
H190 H 0.6981 0.68211 0.97437 0.0
H191 H 0.74749 0.69619 0.74065 0.0
H192 H 0.75167 0.67222 0.798 0.0
H193 H 0.77694 0.7141 0.79821 0.0
C194 C 0.74099 0.62817 0.96881 0.0
C195 C 0.77393 0.6441 0.96985 0.0
C196 C 0.72508 0.64253 0.94424 0.0
C197 C 0.74176 0.67307 0.92024 0.0
C198 C 0.7746 0.68942 0.92327 0.0
H199 H 0.69004 0.80275 0.76371 0.0
H200 H 0.71712 0.77707 0.80744 0.0
C201 C 0.79053 0.67502 0.9474 0.0
C202 C 0.72479 0.68783 0.89229 0.0
H203 H 0.71858 0.72209 0.76119 0.0
C204 C 0.70245 0.69068 0.92766 0.0
C205 C 0.73038 0.69893 0.83118 0.0
C206 C 0.75269 0.69496 0.78957 0.0
C207 C 0.68607 0.70489 0.90403 0.0
C208 C 0.69199 0.71631 0.8433 0.0
C209 C 0.71421 0.7134 0.80783 0.0
C210 C 0.67545 0.73153 0.81583 0.0
C211 C 0.663 0.70816 0.94455 0.0
C212 C 0.64312 0.71428 0.80507 0.0
C213 C 0.62757 0.72882 0.77975 0.0
C214 C 0.64408 0.76095 0.76481 0.0
C215 C 0.67658 0.77802 0.77485 0.0
C216 C 0.69212 0.7634 0.79982 0.0
H217 H 0.66577 0.70403 0.99343 0.0
H218 H 0.66577 0.73188 0.93966 0.0
H219 H 0.63883 0.69074 0.93069 0.0
H220 H 0.62991 0.68954 0.81628 0.0
H221 H 0.60255 0.71495 0.77254 0.0
H222 H 0.90862 0.62557 0.04536 0.0
H223 H 0.96235 0.65073 0.08352 0.0
H224 H 0.93239 0.67447 0.25068 0.0
H225 H 0.87882 0.64991 0.21261 0.0
H226 H 0.98797 0.72321 0.20626 0.0
H227 H 0.99237 0.61274 0.21396 0.0
H228 H 0.98296 0.62176 0.14033 0.0
H229 H 0.95634 0.61325 0.20345 0.0
C230 C 0.91348 0.63628 0.09012 0.0
C231 C 0.88934 0.63551 0.12609 0.0
C232 C 0.94418 0.65048 0.11202 0.0
C233 C 0.95128 0.66396 0.17044 0.0
C234 C 0.92743 0.66406 0.20561 0.0
H235 H 0.11384 0.70623 0.38925 0.0
H236 H 0.06125 0.68574 0.34767 0.0
C237 C 0.89678 0.64996 0.18374 0.0
C238 C 0.98342 0.67765 0.19547 0.0
H239 H 0.03949 0.65961 0.23562 0.0
C240 C 0.99927 0.70933 0.21267 0.0
C241 C 0.99793 0.65938 0.2047 0.0
C242 C 0.98147 0.62483 0.19022 0.0
C243 C 0.02933 0.72331 0.23833 0.0
C244 C 0.04416 0.70524 0.24604 0.0
C245 C 0.0282 0.6735 0.22929 0.0
C246 C 0.07605 0.7186 0.27219 0.0
C247 C 0.04459 0.75709 0.25821 0.0
C248 C 0.10192 0.74383 0.24351 0.0
C249 C 0.13202 0.75571 0.26736 0.0
C250 C 0.13691 0.74238 0.32009 0.0
C251 C 0.11094 0.7171 0.34869 0.0
C252 C 0.08085 0.70531 0.32491 0.0
H253 H 0.02713 0.76486 0.26469 0.0
H254 H 0.05756 0.76076 0.30154 0.0
H255 H 0.0615 0.77219 0.2225 0.0
H256 H 0.09893 0.75403 0.20205 0.0
H257 H 0.1515 0.77505 0.24387 0.0
H258 H 0.34576 0.1353 0.58634 0.0
H259 H 0.3198 0.082 0.54571 0.0
H260 H 0.40008 0.07339 0.59259 0.0
H261 H 0.42582 0.12633 0.63491 0.0
H262 H 0.3375 0.05935 0.45199 0.0
H263 H 0.33054 0.99268 0.66129 0.0
H264 H 0.34042 0.03324 0.66337 0.0
H265 H 0.36969 0.023 0.64352 0.0
C266 C 0.35775 0.12193 0.58872 0.0
C267 C 0.38781 0.13503 0.61419 0.0
C268 C 0.34289 0.09146 0.56535 0.0
C269 C 0.35775 0.07344 0.56678 0.0
C270 C 0.38775 0.08645 0.59234 0.0
H271 H 0.3125 0.89299 0.41015 0.0
H272 H 0.33902 0.94594 0.45329 0.0
C273 C 0.40252 0.11682 0.61627 0.0
C274 C 0.34245 0.0417 0.53883 0.0
H275 H 0.31864 0.96467 0.56745 0.0
C276 C 0.33323 0.03865 0.47742 0.0
C277 C 0.33688 0.01462 0.57191 0.0
C278 C 0.34461 0.01592 0.63882 0.0
C279 C 0.31895 1.00942 0.4481 0.0
C280 C 0.31366 0.9825 0.48105 0.0
C281 C 0.32294 0.98545 0.54227 0.0
C282 C 0.29783 0.95091 0.45309 0.0
C283 C 0.30994 1.0075 0.38186 0.0
C284 C 0.2659 0.93623 0.4388 0.0
C285 C 0.25063 0.90596 0.41448 0.0
C286 C 0.26706 0.88984 0.40376 0.0
C287 C 0.29919 0.90481 0.41748 0.0
C288 C 0.31437 0.935 0.44232 0.0
H289 H 0.32092 0.03099 0.3598 0.0
H290 H 0.31687 0.99246 0.35606 0.0
H291 H 0.28413 0.99674 0.37866 0.0
H292 H 0.25266 0.94802 0.44737 0.0
H293 H 0.22588 0.89512 0.40457 0.0
H294 H 0.21571 0.70123 0.18131 0.0
H295 H 0.23563 0.66697 0.14929 0.0
H296 H 0.32744 0.73407 0.21465 0.0
H297 H 0.30751 0.76853 0.24775 0.0
H298 H 0.28454 0.67417 0.07203 0.0
H299 H 0.30416 0.65416 0.31433 0.0
H300 H 0.28219 0.67312 0.29397 0.0
H301 H 0.32411 0.69402 0.28732 0.0
C302 C 0.24028 0.70902 0.18799 0.0
C303 C 0.25994 0.73747 0.21763 0.0
C304 C 0.25165 0.68939 0.16962 0.0
C305 C 0.28285 0.69769 0.18067 0.0
C306 C 0.30313 0.72698 0.20669 0.0
H307 H 0.33256 0.55979 0.04274 0.0
H308 H 0.33994 0.61109 0.07087 0.0
C309 C 0.29177 0.74677 0.22502 0.0
C310 C 0.29299 0.67445 0.16833 0.0
H311 H 0.31008 0.62317 0.24003 0.0
C312 C 0.2907 0.66335 0.1085 0.0
C313 C 0.30076 0.66027 0.21625 0.0
C314 C 0.30281 0.67074 0.28171 0.0
C315 C 0.29454 0.63753 0.09556 0.0
C316 C 0.30135 0.6227 0.14378 0.0
C317 C 0.30502 0.63468 0.20321 0.0
C318 C 0.30094 0.59263 0.13451 0.0
C319 C 0.28945 0.62526 0.03097 0.0
C320 C 0.27782 0.5654 0.16381 0.0
C321 C 0.27373 0.53604 0.14839 0.0
C322 C 0.2927 0.53337 0.10328 0.0
C323 C 0.31741 0.56094 0.07748 0.0
C324 C 0.32154 0.59032 0.09309 0.0
H325 H 0.2783 0.63547 0.00205 0.0
H326 H 0.31238 0.63147 0.01 0.0
H327 H 0.27451 0.59933 0.03044 0.0
H328 H 0.26178 0.56666 0.19622 0.0
H329 H 0.25457 0.51536 0.16935 0.0
H330 H 0.52402 0.20599 0.51169 0.0
H331 H 0.5782 0.22664 0.47882 0.0
H332 H 0.60241 0.31727 0.55179 0.0
H333 H 0.54803 0.29658 0.58576 0.0
H334 H 0.61994 0.27677 0.4044 0.0
H335 H 0.65904 0.29294 0.64655 0.0
H336 H 0.61821 0.27118 0.6262 0.0
H337 H 0.63916 0.3132 0.62174 0.0
C338 C 0.54069 0.23048 0.51984 0.0
C339 C 0.53175 0.24954 0.55185 0.0
C340 C 0.57169 0.24226 0.50098 0.0
C341 C 0.59446 0.27331 0.51391 0.0
C342 C 0.5853 0.29308 0.54232 0.0
H343 H 0.78109 0.32184 0.37074 0.0
H344 H 0.73837 0.33064 0.40207 0.0
C345 C 0.55414 0.28129 0.56114 0.0
C346 C 0.62787 0.28372 0.50102 0.0
H347 H 0.69589 0.29941 0.57131 0.0
C348 C 0.6368 0.28232 0.44066 0.0
C349 C 0.64968 0.29075 0.54863 0.0
C350 C 0.64117 0.29197 0.61455 0.0
C351 C 0.6664 0.28619 0.42683 0.0
C352 C 0.68785 0.29209 0.47472 0.0
C353 C 0.67946 0.29501 0.53474 0.0
C354 C 0.7172 0.29114 0.46434 0.0
C355 C 0.67365 0.28198 0.36156 0.0
C356 C 0.72076 0.26741 0.49217 0.0
C357 C 0.7454 0.26258 0.47514 0.0
C358 C 0.76695 0.28137 0.4297 0.0
C359 C 0.76482 0.30678 0.40561 0.0
C360 C 0.74022 0.3117 0.423 0.0
H361 H 0.65245 0.27169 0.33244 0.0
H362 H 0.69077 0.30515 0.34197 0.0
H363 H 0.68414 0.2666 0.35934 0.0
H364 H 0.70339 0.2514 0.52454 0.0
H365 H 0.74639 0.24292 0.49489 0.0
H366 H 0.4557 0.76886 0.73128 0.0
H367 H 0.40466 0.72571 0.76281 0.0
H368 H 0.45012 0.68944 0.87796 0.0
H369 H 0.5011 0.73291 0.84808 0.0
H370 H 0.38545 0.66743 0.73551 0.0
H371 H 0.37811 0.67336 0.98598 0.0
H372 H 0.40688 0.70604 0.94123 0.0
H373 H 0.4141 0.6751 0.9647 0.0
C374 C 0.45484 0.75231 0.76496 0.0
C375 C 0.48257 0.75432 0.78698 0.0
C376 C 0.42557 0.72754 0.78278 0.0
C377 C 0.4234 0.70433 0.82313 0.0
C378 C 0.45101 0.70737 0.84797 0.0
H379 H 0.30824 0.50836 0.82292 0.0
H380 H 0.34272 0.56356 0.79831 0.0
C381 C 0.48028 0.73224 0.83051 0.0
C382 C 0.39304 0.67488 0.8325 0.0
H383 H 0.3479 0.62136 0.94142 0.0
C384 C 0.37687 0.65772 0.78067 0.0
C385 C 0.38135 0.66224 0.89124 0.0
C386 C 0.39588 0.68038 0.94885 0.0
C387 C 0.35067 0.62755 0.78591 0.0
C388 C 0.3408 0.61382 0.84445 0.0
C389 C 0.35565 0.63172 0.89642 0.0
C390 C 0.31715 0.58017 0.85279 0.0
C391 C 0.33422 0.61049 0.72851 0.0
C392 C 0.29111 0.571 0.89133 0.0
C393 C 0.27132 0.53933 0.9057 0.0
C394 C 0.27747 0.51627 0.88227 0.0
C395 C 0.30271 0.52544 0.84143 0.0
C396 C 0.3224 0.55706 0.82707 0.0
H397 H 0.3369 0.62723 0.69171 0.0
H398 H 0.34487 0.5966 0.71183 0.0
H399 H 0.30887 0.5943 0.73693 0.0
H400 H 0.2867 0.58845 0.91193 0.0
H401 H 0.2523 0.53317 0.93783 0.0
H402 H 0.7332 0.48012 0.11115 0.0
H403 H 0.71362 0.42462 0.13403 0.0
H404 H 0.80016 0.44903 0.2252 0.0
H405 H 0.81972 0.50427 0.20286 0.0
H406 H 0.74173 0.39344 0.08789 0.0
H407 H 0.7366 0.38235 0.33897 0.0
H408 H 0.73787 0.41543 0.30033 0.0
H409 H 0.77346 0.41467 0.31472 0.0
C410 C 0.74759 0.47375 0.138 0.0
C411 C 0.77805 0.49658 0.15523 0.0
C412 C 0.73642 0.442 0.15075 0.0
C413 C 0.75528 0.43265 0.18186 0.0
C414 C 0.78488 0.45565 0.20231 0.0
H415 H 0.80462 0.29557 0.14615 0.0
H416 H 0.78952 0.33513 0.12888 0.0
C417 C 0.79614 0.48727 0.18919 0.0
C418 C 0.7464 0.3991 0.18563 0.0
H419 H 0.7466 0.34529 0.28356 0.0
C420 C 0.742 0.38259 0.13085 0.0
C421 C 0.74615 0.38462 0.2416 0.0
C422 C 0.74843 0.40011 0.30224 0.0
C423 C 0.74007 0.35315 0.13021 0.0
C424 C 0.74308 0.34016 0.18564 0.0
C425 C 0.74474 0.35542 0.24087 0.0
C426 C 0.74836 0.313 0.18715 0.0
C427 C 0.73586 0.33674 0.06993 0.0
C428 C 0.72998 0.28704 0.22486 0.0
C429 C 0.73867 0.26435 0.23507 0.0
C430 C 0.76613 0.26745 0.20819 0.0
C431 C 0.78332 0.29241 0.1674 0.0
C432 C 0.77459 0.31501 0.15721 0.0
H433 H 0.72283 0.3432 0.03722 0.0
H434 H 0.75921 0.3441 0.04955 0.0
H435 H 0.72313 0.31087 0.07572 0.0
H436 H 0.70971 0.28507 0.24848 0.0
H437 H 0.72496 0.24556 0.26709 0.0
H438 H 0.2594 0.72412 0.4361 0.0
H439 H 0.29523 0.7054 0.46429 0.0
H440 H 0.35014 0.78958 0.56861 0.0
H441 H 0.31432 0.80815 0.5416 0.0
H442 H 0.35497 0.7353 0.42756 0.0
H443 H 0.3529 0.72557 0.67852 0.0
H444 H 0.32217 0.72716 0.63689 0.0
H445 H 0.35754 0.76272 0.65645 0.0
C446 C 0.27845 0.73814 0.46686 0.0
C447 C 0.28413 0.76778 0.48626 0.0
C448 C 0.299 0.72743 0.48272 0.0
C449 C 0.32532 0.74596 0.51886 0.0
C450 C 0.3297 0.77451 0.54175 0.0
H451 H 0.51389 0.79939 0.5005 0.0
H452 H 0.45965 0.78405 0.47891 0.0
C453 C 0.30925 0.78524 0.52589 0.0
C454 C 0.35069 0.7382 0.52515 0.0
H455 H 0.40228 0.73831 0.6285 0.0
C456 C 0.36486 0.73519 0.47163 0.0
C457 C 0.36337 0.73744 0.58251 0.0
C458 C 0.34793 0.73804 0.6418 0.0
C459 C 0.39273 0.73403 0.47376 0.0
C460 C 0.40711 0.73654 0.53079 0.0
C461 C 0.39158 0.73691 0.58458 0.0
C462 C 0.43962 0.74233 0.53561 0.0
C463 C 0.40693 0.73103 0.41471 0.0
C464 C 0.44653 0.7238 0.57405 0.0
C465 C 0.47765 0.73258 0.58657 0.0
C466 C 0.50244 0.76035 0.56154 0.0
C467 C 0.49542 0.77782 0.52029 0.0
C468 C 0.46434 0.76897 0.50766 0.0
H469 H 0.38855 0.71803 0.38008 0.0
H470 H 0.42294 0.75477 0.39599 0.0
H471 H 0.42048 0.7188 0.42167 0.0
H472 H 0.42784 0.70328 0.59644 0.0
H473 H 0.48215 0.71867 0.61895 0.0
H474 H 0.51836 0.3142 0.86443 0.0
H475 H 0.57268 0.35184 0.88861 0.0
H476 H 0.60285 0.29331 0.79907 0.0
H477 H 0.54839 0.25555 0.77379 0.0
H478 H 0.62284 0.35029 0.94779 0.0
H479 H 0.64483 0.37506 0.69826 0.0
H480 H 0.60576 0.3523 0.72934 0.0
H481 H 0.63065 0.33546 0.72361 0.0
C482 C 0.53643 0.30891 0.85104 0.0
C483 C 0.52907 0.28211 0.81641 0.0
C484 C 0.5675 0.33046 0.86496 0.0
C485 C 0.59183 0.32569 0.84445 0.0
C486 C 0.58443 0.29769 0.81433 0.0
H487 H 0.77671 0.48537 0.9407 0.0
H488 H 0.73924 0.43073 0.91581 0.0
C489 C 0.55325 0.27601 0.80041 0.0
C490 C 0.62461 0.35166 0.84962 0.0
H491 H 0.68341 0.40983 0.76501 0.0
C492 C 0.6365 0.36298 0.90794 0.0
C493 C 0.64221 0.36817 0.79734 0.0
C494 C 0.63031 0.35739 0.73348 0.0
C495 C 0.66467 0.39135 0.91551 0.0
C496 C 0.68147 0.40866 0.86318 0.0
C497 C 0.67051 0.3964 0.8049 0.0
C498 C 0.70743 0.4415 0.86807 0.0
C499 C 0.67503 0.40362 0.97937 0.0
C500 C 0.70296 0.46575 0.846 0.0
C501 C 0.72438 0.49694 0.85964 0.0
C502 C 0.75072 0.5045 0.89561 0.0
C503 C 0.75659 0.48037 0.91308 0.0
C504 C 0.73507 0.44908 0.89939 0.0
H505 H 0.65692 0.38957 0.01431 0.0
H506 H 0.69657 0.40281 0.99043 0.0
H507 H 0.68059 0.42838 0.98273 0.0
H508 H 0.68188 0.46043 0.82136 0.0
H509 H 0.71927 0.51494 0.84508 0.0
loop_
_geom_bond_atom_site_label_1
_geom_bond_atom_site_label_2
_geom_bond_distance
_geom_bond_site_symmetry_2
_ccdc_geom_bond_type
Mg0 O7 2.139 1_554 S
Mg0 O8 2.046 1_554 S
Mg0 O9 2.050 . S
Mg0 O12 2.143 . S
C1 O2 1.313 1_556 S
C1 O8 1.195 . S
O2 C1 1.313 1_554 S
C3 O4 1.245 . S
C3 O12 1.289 . S
O4 C3 1.245 . S
C5 O6 1.245 1_556 S
C5 O7 1.289 . S
O6 C5 1.245 1_554 S
O7 Mg0 2.139 1_556 S
O7 C5 1.289 . S
O8 Mg0 2.046 1_556 S
O8 C1 1.195 . S
O9 Mg0 2.050 . S
O9 C10 1.195 . S
C10 O9 1.195 . S
C10 O11 1.313 . S
O11 C10 1.313 . S
O12 Mg0 2.143 . S
O12 C3 1.289 . S
Mg13 O20 2.141 . S
Mg13 O21 2.048 . S
Mg13 O22 2.048 . S
Mg13 O25 2.141 . S
C14 O15 1.313 . S
C14 O21 1.195 . S
O15 C14 1.313 . S
C16 O17 1.245 . S
C16 O25 1.289 . S
O17 C16 1.245 . S
C18 O19 1.245 . S
C18 O20 1.289 . S
O19 C18 1.245 . S
O20 Mg13 2.141 . S
O20 C18 1.289 . S
O21 Mg13 2.048 . S
O21 C14 1.195 . S
O22 Mg13 2.048 . S
O22 C23 1.195 . S
C23 O22 1.195 . S
C23 O24 1.313 . S
O24 C23 1.313 . S
O25 Mg13 2.141 . S
O25 C16 1.289 . S
Mg26 O33 2.141 . S
Mg26 O34 2.048 . S
Mg26 O35 2.048 . S
Mg26 O38 2.141 . S
C27 O28 1.313 . S
C27 O34 1.195 . S
O28 C27 1.313 . S
C29 O30 1.245 . S
C29 O38 1.289 . S
O30 C29 1.245 . S
C31 O32 1.245 . S
C31 O33 1.289 . S
O32 C31 1.245 . S
O33 Mg26 2.141 . S
O33 C31 1.289 . S
O34 Mg26 2.048 . S
O34 C27 1.195 . S
O35 Mg26 2.048 . S
O35 C36 1.195 . S
C36 O35 1.195 . S
C36 O37 1.313 . S
O37 C36 1.313 . S
O38 Mg26 2.141 . S
O38 C29 1.289 . S
Mg39 O46 2.141 . S
Mg39 O47 2.048 . S
Mg39 O48 2.048 1_556 S
Mg39 O51 2.141 1_556 S
C40 O41 1.313 1_556 S
C40 O47 1.195 . S
O41 C40 1.313 1_554 S
C42 O43 1.245 . S
C42 O51 1.289 . S
O43 C42 1.245 . S
C44 O45 1.245 1_556 S
C44 O46 1.289 . S
O45 C44 1.245 1_554 S
O46 Mg39 2.141 . S
O46 C44 1.289 . S
O47 Mg39 2.048 . S
O47 C40 1.195 . S
O48 Mg39 2.048 1_554 S
O48 C49 1.195 . S
C49 O48 1.195 . S
C49 O50 1.313 . S
O50 C49 1.313 . S
O51 Mg39 2.141 1_554 S
O51 C42 1.289 . S
Mg52 O59 2.141 . S
Mg52 O60 2.048 . S
Mg52 O61 2.048 . S
Mg52 O64 2.141 . S
C53 O54 1.313 . S
C53 O60 1.195 . S
O54 C53 1.313 . S
C55 O56 1.245 . S
C55 O64 1.289 . S
O56 C55 1.245 . S
C57 O58 1.245 . S
C57 O59 1.289 . S
O58 C57 1.245 . S
O59 Mg52 2.141 . S
O59 C57 1.289 . S
O60 Mg52 2.048 . S
O60 C53 1.195 . S
O61 Mg52 2.048 . S
O61 C62 1.195 . S
C62 O61 1.195 . S
C62 O63 1.313 . S
O63 C62 1.313 . S
O64 Mg52 2.141 . S
O64 C55 1.289 . S
Mg65 O72 2.141 . S
Mg65 O73 2.048 . S
Mg65 O74 2.048 . S
Mg65 O77 2.141 . S
C66 O67 1.313 . S
C66 O73 1.195 . S
O67 C66 1.313 . S
C68 O69 1.245 . S
C68 O77 1.289 . S
O69 C68 1.245 . S
C70 O71 1.245 . S
C70 O72 1.289 . S
O71 C70 1.245 . S
O72 Mg65 2.141 . S
O72 C70 1.289 . S
O73 Mg65 2.048 . S
O73 C66 1.195 . S
O74 Mg65 2.048 . S
O74 C75 1.195 . S
C75 O74 1.195 . S
C75 O76 1.313 . S
O76 C75 1.313 . S
O77 Mg65 2.141 . S
O77 C68 1.289 . S
H78 C86 0.929 . S
H79 C88 0.930 . S
H80 C90 0.930 . S
H81 C93 0.929 1_554 S
H82 C96 0.930 . S
H83 C98 0.960 . S
H84 C98 0.960 . S
H85 C98 0.960 . S
C86 H78 0.929 . S
C86 C87 1.377 . S
C86 C88 1.384 . S
C87 C86 1.377 . S
C87 C93 1.390 . S
C88 H79 0.930 . S
C88 C86 1.384 . S
C88 C89 1.372 . S
C89 C88 1.372 . S
C89 C90 1.400 . S
C89 C94 1.490 . S
C90 H80 0.930 . S
C90 C89 1.400 . S
C90 C93 1.386 . S
H91 C107 0.930 . S
H92 C108 0.931 . S
C93 H81 0.929 1_556 S
C93 C87 1.390 . S
C93 C90 1.386 . S
C94 C89 1.490 . S
C94 C96 1.395 . S
C94 C97 1.403 . S
H95 C101 0.930 . S
C96 H82 0.930 . S
C96 C94 1.395 . S
C96 C99 1.403 . S
C97 C94 1.403 . S
C97 C98 1.524 . S
C97 C101 1.400 . S
C98 H83 0.960 . S
C98 H84 0.960 . S
C98 H85 0.960 . S
C98 C97 1.524 . S
C99 C96 1.403 . S
C99 C100 1.392 . S
C99 C103 1.495 . S
C100 C99 1.392 . S
C100 C101 1.385 . S
C100 C102 1.478 . S
C101 H95 0.930 . S
C101 C97 1.400 . S
C101 C100 1.385 . S
C102 C100 1.478 . S
C102 C104 1.381 . S
C102 C108 1.383 . S
C103 C99 1.495 . S
C103 H109 0.959 . S
C103 H110 0.961 . S
C103 H111 0.960 . S
C104 C102 1.381 . S
C104 C105 1.394 . S
C104 H112 0.930 . S
C105 C104 1.394 . S
C105 C106 1.383 . S
C105 H113 0.929 . S
C106 C105 1.383 . S
C106 C107 1.377 . S
C107 H91 0.930 . S
C107 C106 1.377 . S
C107 C108 1.379 . S
C108 H92 0.931 . S
C108 C102 1.383 . S
C108 C107 1.379 . S
H109 C103 0.959 . S
H110 C103 0.961 . S
H111 C103 0.960 . S
H112 C104 0.930 . S
H113 C105 0.929 . S
H114 C122 0.929 . S
H115 C124 0.930 . S
H116 C126 0.930 . S
H117 C129 0.929 . S
H118 C132 0.930 . S
H119 C134 0.960 . S
H120 C134 0.960 . S
H121 C134 0.960 . S
C122 H114 0.929 . S
C122 C123 1.377 . S
C122 C124 1.384 . S
C123 C122 1.377 . S
C123 C129 1.390 . S
C124 H115 0.930 . S
C124 C122 1.384 . S
C124 C125 1.372 . S
C125 C124 1.372 . S
C125 C126 1.400 . S
C125 C130 1.490 . S
C126 H116 0.930 . S
C126 C125 1.400 . S
C126 C129 1.386 . S
H127 C143 0.930 . S
H128 C144 0.931 . S
C129 H117 0.929 . S
C129 C123 1.390 . S
C129 C126 1.386 . S
C130 C125 1.490 . S
C130 C132 1.395 . S
C130 C133 1.403 . S
H131 C137 0.930 . S
C132 H118 0.930 . S
C132 C130 1.395 . S
C132 C135 1.403 1_655 S
C133 C130 1.403 . S
C133 C134 1.524 . S
C133 C137 1.400 1_655 S
C134 H119 0.960 . S
C134 H120 0.960 . S
C134 H121 0.960 . S
C134 C133 1.524 . S
C135 C132 1.403 1_455 S
C135 C136 1.392 . S
C135 C139 1.495 . S
C136 C135 1.392 . S
C136 C137 1.385 . S
C136 C138 1.478 . S
C137 H131 0.930 . S
C137 C133 1.400 1_455 S
C137 C136 1.385 . S
C138 C136 1.478 . S
C138 C140 1.381 . S
C138 C144 1.383 . S
C139 C135 1.495 . S
C139 H145 0.959 . S
C139 H146 0.961 . S
C139 H147 0.960 . S
C140 C138 1.381 . S
C140 C141 1.394 . S
C140 H148 0.930 . S
C141 C140 1.394 . S
C141 C142 1.383 . S
C141 H149 0.929 . S
C142 C141 1.383 . S
C142 C143 1.377 . S
C143 H127 0.930 . S
C143 C142 1.377 . S
C143 C144 1.379 . S
C144 H128 0.931 . S
C144 C138 1.383 . S
C144 C143 1.379 . S
H145 C139 0.959 . S
H146 C139 0.961 . S
H147 C139 0.960 . S
H148 C140 0.930 . S
H149 C141 0.929 . S
H150 C158 0.929 . S
H151 C160 0.930 . S
H152 C162 0.930 . S
H153 C165 0.929 . S
H154 C168 0.930 . S
H155 C170 0.960 . S
H156 C170 0.960 . S
H157 C170 0.960 . S
C158 H150 0.929 . S
C158 C159 1.377 . S
C158 C160 1.384 . S
C159 C158 1.377 . S
C159 C165 1.390 . S
C160 H151 0.930 . S
C160 C158 1.384 . S
C160 C161 1.372 . S
C161 C160 1.372 . S
C161 C162 1.400 . S
C161 C166 1.490 . S
C162 H152 0.930 . S
C162 C161 1.400 . S
C162 C165 1.386 . S
H163 C179 0.930 . S
H164 C180 0.931 . S
C165 H153 0.929 . S
C165 C159 1.390 . S
C165 C162 1.386 . S
C166 C161 1.490 . S
C166 C168 1.395 . S
C166 C169 1.403 . S
H167 C173 0.930 . S
C168 H154 0.930 . S
C168 C166 1.395 . S
C168 C171 1.403 1_545 S
C169 C166 1.403 . S
C169 C170 1.524 . S
C169 C173 1.400 1_545 S
C170 H155 0.960 . S
C170 H156 0.960 . S
C170 H157 0.960 . S
C170 C169 1.524 . S
C171 C168 1.403 1_565 S
C171 C172 1.392 . S
C171 C175 1.495 . S
C172 C171 1.392 . S
C172 C173 1.385 . S
C172 C174 1.478 . S
C173 H167 0.930 . S
C173 C169 1.400 1_565 S
C173 C172 1.385 . S
C174 C172 1.478 . S
C174 C176 1.381 . S
C174 C180 1.383 . S
C175 C171 1.495 . S
C175 H181 0.959 . S
C175 H182 0.961 . S
C175 H183 0.960 . S
C176 C174 1.381 . S
C176 C177 1.394 . S
C176 H184 0.930 . S
C177 C176 1.394 . S
C177 C178 1.383 . S
C177 H185 0.929 . S
C178 C177 1.383 . S
C178 C179 1.377 . S
C179 H163 0.930 . S
C179 C178 1.377 . S
C179 C180 1.379 . S
C180 H164 0.931 . S
C180 C174 1.383 . S
C180 C179 1.379 . S
H181 C175 0.959 . S
H182 C175 0.961 . S
H183 C175 0.960 . S
H184 C176 0.930 . S
H185 C177 0.929 . S
H186 C194 0.929 . S
H187 C196 0.930 . S
H188 C198 0.930 . S
H189 C201 0.929 . S
H190 C204 0.930 . S
H191 C206 0.960 . S
H192 C206 0.960 . S
H193 C206 0.960 . S
C194 H186 0.929 . S
C194 C195 1.377 . S
C194 C196 1.384 . S
C195 C194 1.377 . S
C195 C201 1.390 . S
C196 H187 0.930 . S
C196 C194 1.384 . S
C196 C197 1.372 . S
C197 C196 1.372 . S
C197 C198 1.400 . S
C197 C202 1.490 . S
C198 H188 0.930 . S
C198 C197 1.400 . S
C198 C201 1.386 . S
H199 C215 0.930 . S
H200 C216 0.931 . S
C201 H189 0.929 . S
C201 C195 1.390 . S
C201 C198 1.386 . S
C202 C197 1.490 . S
C202 C204 1.395 . S
C202 C205 1.403 . S
H203 C209 0.930 . S
C204 H190 0.930 . S
C204 C202 1.395 . S
C204 C207 1.403 . S
C205 C202 1.403 . S
C205 C206 1.524 . S
C205 C209 1.400 . S
C206 H191 0.960 . S
C206 H192 0.960 . S
C206 H193 0.960 . S
C206 C205 1.524 . S
C207 C204 1.403 . S
C207 C208 1.392 . S
C207 C211 1.495 . S
C208 C207 1.392 . S
C208 C209 1.385 . S
C208 C210 1.478 . S
C209 H203 0.930 . S
C209 C205 1.400 . S
C209 C208 1.385 . S
C210 C208 1.478 . S
C210 C212 1.381 . S
C210 C216 1.383 . S
C211 C207 1.495 . S
C211 H217 0.959 . S
C211 H218 0.961 . S
C211 H219 0.960 . S
C212 C210 1.381 . S
C212 C213 1.394 . S
C212 H220 0.930 . S
C213 C212 1.394 . S
C213 C214 1.383 . S
C213 H221 0.929 . S
C214 C213 1.383 . S
C214 C215 1.377 . S
C215 H199 0.930 . S
C215 C214 1.377 . S
C215 C216 1.379 . S
C216 H200 0.931 . S
C216 C210 1.383 . S
C216 C215 1.379 . S
H217 C211 0.959 . S
H218 C211 0.961 . S
H219 C211 0.960 . S
H220 C212 0.930 . S
H221 C213 0.929 . S
H222 C230 0.929 . S
H223 C232 0.930 . S
H224 C234 0.930 . S
H225 C237 0.929 . S
H226 C240 0.930 . S
H227 C242 0.960 . S
H228 C242 0.960 . S
H229 C242 0.960 . S
C230 H222 0.929 . S
C230 C231 1.377 . S
C230 C232 1.384 . S
C231 C230 1.377 . S
C231 C237 1.390 . S
C232 H223 0.930 . S
C232 C230 1.384 . S
C232 C233 1.372 . S
C233 C232 1.372 . S
C233 C234 1.400 . S
C233 C238 1.490 . S
C234 H224 0.930 . S
C234 C233 1.400 . S
C234 C237 1.386 . S
H235 C251 0.930 . S
H236 C252 0.931 . S
C237 H225 0.929 . S
C237 C231 1.390 . S
C237 C234 1.386 . S
C238 C233 1.490 . S
C238 C240 1.395 . S
C238 C241 1.403 . S
H239 C245 0.930 . S
C240 H226 0.930 . S
C240 C238 1.395 . S
C240 C243 1.403 1_655 S
C241 C238 1.403 . S
C241 C242 1.524 . S
C241 C245 1.400 1_655 S
C242 H227 0.960 . S
C242 H228 0.960 . S
C242 H229 0.960 . S
C242 C241 1.524 . S
C243 C240 1.403 1_455 S
C243 C244 1.392 . S
C243 C247 1.495 . S
C244 C243 1.392 . S
C244 C245 1.385 . S
C244 C246 1.478 . S
C245 H239 0.930 . S
C245 C241 1.400 1_455 S
C245 C244 1.385 . S
C246 C244 1.478 . S
C246 C248 1.381 . S
C246 C252 1.383 . S
C247 C243 1.495 . S
C247 H253 0.959 . S
C247 H254 0.961 . S
C247 H255 0.960 . S
C248 C246 1.381 . S
C248 C249 1.394 . S
C248 H256 0.930 . S
C249 C248 1.394 . S
C249 C250 1.383 . S
C249 H257 0.929 . S
C250 C249 1.383 . S
C250 C251 1.377 . S
C251 H235 0.930 . S
C251 C250 1.377 . S
C251 C252 1.379 . S
C252 H236 0.931 . S
C252 C246 1.383 . S
C252 C251 1.379 . S
H253 C247 0.959 . S
H254 C247 0.961 . S
H255 C247 0.960 . S
H256 C248 0.930 . S
H257 C249 0.929 . S
H258 C266 0.929 . S
H259 C268 0.930 . S
H260 C270 0.930 . S
H261 C273 0.929 . S
H262 C276 0.930 . S
H263 C278 0.960 1_565 S
H264 C278 0.960 . S
H265 C278 0.960 . S
C266 H258 0.929 . S
C266 C267 1.377 . S
C266 C268 1.384 . S
C267 C266 1.377 . S
C267 C273 1.390 . S
C268 H259 0.930 . S
C268 C266 1.384 . S
C268 C269 1.372 . S
C269 C268 1.372 . S
C269 C270 1.400 . S
C269 C274 1.490 . S
C270 H260 0.930 . S
C270 C269 1.400 . S
C270 C273 1.386 . S
H271 C287 0.930 . S
H272 C288 0.931 . S
C273 H261 0.929 . S
C273 C267 1.390 . S
C273 C270 1.386 . S
C274 C269 1.490 . S
C274 C276 1.395 . S
C274 C277 1.403 . S
H275 C281 0.930 . S
C276 H262 0.930 . S
C276 C274 1.395 . S
C276 C279 1.403 1_545 S
C277 C274 1.403 . S
C277 C278 1.524 . S
C277 C281 1.400 1_545 S
C278 H263 0.960 1_545 S
C278 H264 0.960 . S
C278 H265 0.960 . S
C278 C277 1.524 . S
C279 C276 1.403 1_565 S
C279 C280 1.392 . S
C279 C283 1.495 . S
C280 C279 1.392 . S
C280 C281 1.385 . S
C280 C282 1.478 . S
C281 H275 0.930 . S
C281 C277 1.400 1_565 S
C281 C280 1.385 . S
C282 C280 1.478 . S
C282 C284 1.381 . S
C282 C288 1.383 . S
C283 C279 1.495 . S
C283 H289 0.959 1_565 S
C283 H290 0.961 . S
C283 H291 0.960 . S
C284 C282 1.381 . S
C284 C285 1.394 . S
C284 H292 0.930 . S
C285 C284 1.394 . S
C285 C286 1.383 . S
C285 H293 0.929 . S
C286 C285 1.383 . S
C286 C287 1.377 . S
C287 H271 0.930 . S
C287 C286 1.377 . S
C287 C288 1.379 . S
C288 H272 0.931 . S
C288 C282 1.383 . S
C288 C287 1.379 . S
H289 C283 0.959 1_545 S
H290 C283 0.961 . S
H291 C283 0.960 . S
H292 C284 0.930 . S
H293 C285 0.929 . S
H294 C302 0.929 . S
H295 C304 0.930 . S
H296 C306 0.930 . S
H297 C309 0.929 . S
H298 C312 0.930 . S
H299 C314 0.960 . S
H300 C314 0.960 . S
H301 C314 0.960 . S
C302 H294 0.929 . S
C302 C303 1.377 . S
C302 C304 1.384 . S
C303 C302 1.377 . S
C303 C309 1.390 . S
C304 H295 0.930 . S
C304 C302 1.384 . S
C304 C305 1.372 . S
C305 C304 1.372 . S
C305 C306 1.400 . S
C305 C310 1.490 . S
C306 H296 0.930 . S
C306 C305 1.400 . S
C306 C309 1.386 . S
H307 C323 0.930 . S
H308 C324 0.931 . S
C309 H297 0.929 . S
C309 C303 1.390 . S
C309 C306 1.386 . S
C310 C305 1.490 . S
C310 C312 1.395 . S
C310 C313 1.403 . S
H311 C317 0.930 . S
C312 H298 0.930 . S
C312 C310 1.395 . S
C312 C315 1.403 . S
C313 C310 1.403 . S
C313 C314 1.524 . S
C313 C317 1.400 . S
C314 H299 0.960 . S
C314 H300 0.960 . S
C314 H301 0.960 . S
C314 C313 1.524 . S
C315 C312 1.403 . S
C315 C316 1.392 . S
C315 C319 1.495 . S
C316 C315 1.392 . S
C316 C317 1.385 . S
C316 C318 1.478 . S
C317 H311 0.930 . S
C317 C313 1.400 . S
C317 C316 1.385 . S
C318 C316 1.478 . S
C318 C320 1.381 . S
C318 C324 1.383 . S
C319 C315 1.495 . S
C319 H325 0.959 . S
C319 H326 0.961 . S
C319 H327 0.960 . S
C320 C318 1.381 . S
C320 C321 1.394 . S
C320 H328 0.930 . S
C321 C320 1.394 . S
C321 C322 1.383 . S
C321 H329 0.929 . S
C322 C321 1.383 . S
C322 C323 1.377 . S
C323 H307 0.930 . S
C323 C322 1.377 . S
C323 C324 1.379 . S
C324 H308 0.931 . S
C324 C318 1.383 . S
C324 C323 1.379 . S
H325 C319 0.959 . S
H326 C319 0.961 . S
H327 C319 0.960 . S
H328 C320 0.930 . S
H329 C321 0.929 . S
H330 C338 0.929 . S
H331 C340 0.930 . S
H332 C342 0.930 . S
H333 C345 0.929 . S
H334 C348 0.930 . S
H335 C350 0.960 . S
H336 C350 0.960 . S
H337 C350 0.960 . S
C338 H330 0.929 . S
C338 C339 1.377 . S
C338 C340 1.384 . S
C339 C338 1.377 . S
C339 C345 1.390 . S
C340 H331 0.930 . S
C340 C338 1.384 . S
C340 C341 1.372 . S
C341 C340 1.372 . S
C341 C342 1.400 . S
C341 C346 1.490 . S
C342 H332 0.930 . S
C342 C341 1.400 . S
C342 C345 1.386 . S
H343 C359 0.930 . S
H344 C360 0.931 . S
C345 H333 0.929 . S
C345 C339 1.390 . S
C345 C342 1.386 . S
C346 C341 1.490 . S
C346 C348 1.395 . S
C346 C349 1.403 . S
H347 C353 0.930 . S
C348 H334 0.930 . S
C348 C346 1.395 . S
C348 C351 1.403 . S
C349 C346 1.403 . S
C349 C350 1.524 . S
C349 C353 1.400 . S
C350 H335 0.960 . S
C350 H336 0.960 . S
C350 H337 0.960 . S
C350 C349 1.524 . S
C351 C348 1.403 . S
C351 C352 1.392 . S
C351 C355 1.495 . S
C352 C351 1.392 . S
C352 C353 1.385 . S
C352 C354 1.478 . S
C353 H347 0.930 . S
C353 C349 1.400 . S
C353 C352 1.385 . S
C354 C352 1.478 . S
C354 C356 1.381 . S
C354 C360 1.383 . S
C355 C351 1.495 . S
C355 H361 0.959 . S
C355 H362 0.961 . S
C355 H363 0.960 . S
C356 C354 1.381 . S
C356 C357 1.394 . S
C356 H364 0.930 . S
C357 C356 1.394 . S
C357 C358 1.383 . S
C357 H365 0.929 . S
C358 C357 1.383 . S
C358 C359 1.377 . S
C359 H343 0.930 . S
C359 C358 1.377 . S
C359 C360 1.379 . S
C360 H344 0.931 . S
C360 C354 1.383 . S
C360 C359 1.379 . S
H361 C355 0.959 . S
H362 C355 0.961 . S
H363 C355 0.960 . S
H364 C356 0.930 . S
H365 C357 0.929 . S
H366 C374 0.929 . S
H367 C376 0.930 . S
H368 C378 0.930 . S
H369 C381 0.929 . S
H370 C384 0.930 . S
H371 C386 0.960 . S
H372 C386 0.960 . S
H373 C386 0.960 . S
C374 H366 0.929 . S
C374 C375 1.377 . S
C374 C376 1.384 . S
C375 C374 1.377 . S
C375 C381 1.390 . S
C376 H367 0.930 . S
C376 C374 1.384 . S
C376 C377 1.372 . S
C377 C376 1.372 . S
C377 C378 1.400 . S
C377 C382 1.490 . S
C378 H368 0.930 . S
C378 C377 1.400 . S
C378 C381 1.386 . S
H379 C395 0.930 . S
H380 C396 0.931 . S
C381 H369 0.929 . S
C381 C375 1.390 . S
C381 C378 1.386 . S
C382 C377 1.490 . S
C382 C384 1.395 . S
C382 C385 1.403 . S
H383 C389 0.930 . S
C384 H370 0.930 . S
C384 C382 1.395 . S
C384 C387 1.403 . S
C385 C382 1.403 . S
C385 C386 1.524 . S
C385 C389 1.400 . S
C386 H371 0.960 . S
C386 H372 0.960 . S
C386 H373 0.960 . S
C386 C385 1.524 . S
C387 C384 1.403 . S
C387 C388 1.392 . S
C387 C391 1.495 . S
C388 C387 1.392 . S
C388 C389 1.385 . S
C388 C390 1.478 . S
C389 H383 0.930 . S
C389 C385 1.400 . S
C389 C388 1.385 . S
C390 C388 1.478 . S
C390 C392 1.381 . S
C390 C396 1.383 . S
C391 C387 1.495 . S
C391 H397 0.959 . S
C391 H398 0.961 . S
C391 H399 0.960 . S
C392 C390 1.381 . S
C392 C393 1.394 . S
C392 H400 0.930 . S
C393 C392 1.394 . S
C393 C394 1.383 . S
C393 H401 0.929 . S
C394 C393 1.383 . S
C394 C395 1.377 . S
C395 H379 0.930 . S
C395 C394 1.377 . S
C395 C396 1.379 . S
C396 H380 0.931 . S
C396 C390 1.383 . S
C396 C395 1.379 . S
H397 C391 0.959 . S
H398 C391 0.961 . S
H399 C391 0.960 . S
H400 C392 0.930 . S
H401 C393 0.929 . S
H402 C410 0.929 . S
H403 C412 0.930 . S
H404 C414 0.930 . S
H405 C417 0.929 . S
H406 C420 0.930 . S
H407 C422 0.960 . S
H408 C422 0.960 . S
H409 C422 0.960 . S
C410 H402 0.929 . S
C410 C411 1.377 . S
C410 C412 1.384 . S
C411 C410 1.377 . S
C411 C417 1.390 . S
C412 H403 0.930 . S
C412 C410 1.384 . S
C412 C413 1.372 . S
C413 C412 1.372 . S
C413 C414 1.400 . S
C413 C418 1.490 . S
C414 H404 0.930 . S
C414 C413 1.400 . S
C414 C417 1.386 . S
H415 C431 0.930 . S
H416 C432 0.931 . S
C417 H405 0.929 . S
C417 C411 1.390 . S
C417 C414 1.386 . S
C418 C413 1.490 . S
C418 C420 1.395 . S
C418 C421 1.403 . S
H419 C425 0.930 . S
C420 H406 0.930 . S
C420 C418 1.395 . S
C420 C423 1.403 . S
C421 C418 1.403 . S
C421 C422 1.524 . S
C421 C425 1.400 . S
C422 H407 0.960 . S
C422 H408 0.960 . S
C422 H409 0.960 . S
C422 C421 1.524 . S
C423 C420 1.403 . S
C423 C424 1.392 . S
C423 C427 1.495 . S
C424 C423 1.392 . S
C424 C425 1.385 . S
C424 C426 1.478 . S
C425 H419 0.930 . S
C425 C421 1.400 . S
C425 C424 1.385 . S
C426 C424 1.478 . S
C426 C428 1.381 . S
C426 C432 1.383 . S
C427 C423 1.495 . S
C427 H433 0.959 . S
C427 H434 0.961 . S
C427 H435 0.960 . S
C428 C426 1.381 . S
C428 C429 1.394 . S
C428 H436 0.930 . S
C429 C428 1.394 . S
C429 C430 1.383 . S
C429 H437 0.929 . S
C430 C429 1.383 . S
C430 C431 1.377 . S
C431 H415 0.930 . S
C431 C430 1.377 . S
C431 C432 1.379 . S
C432 H416 0.931 . S
C432 C426 1.383 . S
C432 C431 1.379 . S
H433 C427 0.959 . S
H434 C427 0.961 . S
H435 C427 0.960 . S
H436 C428 0.930 . S
H437 C429 0.929 . S
H438 C446 0.929 . S
H439 C448 0.930 . S
H440 C450 0.930 . S
H441 C453 0.929 . S
H442 C456 0.930 . S
H443 C458 0.960 . S
H444 C458 0.960 . S
H445 C458 0.960 . S
C446 H438 0.929 . S
C446 C447 1.377 . S
C446 C448 1.384 . S
C447 C446 1.377 . S
C447 C453 1.390 . S
C448 H439 0.930 . S
C448 C446 1.384 . S
C448 C449 1.372 . S
C449 C448 1.372 . S
C449 C450 1.400 . S
C449 C454 1.490 . S
C450 H440 0.930 . S
C450 C449 1.400 . S
C450 C453 1.386 . S
H451 C467 0.930 . S
H452 C468 0.931 . S
C453 H441 0.929 . S
C453 C447 1.390 . S
C453 C450 1.386 . S
C454 C449 1.490 . S
C454 C456 1.395 . S
C454 C457 1.403 . S
H455 C461 0.930 . S
C456 H442 0.930 . S
C456 C454 1.395 . S
C456 C459 1.403 . S
C457 C454 1.403 . S
C457 C458 1.524 . S
C457 C461 1.400 . S
C458 H443 0.960 . S
C458 H444 0.960 . S
C458 H445 0.960 . S
C458 C457 1.524 . S
C459 C456 1.403 . S
C459 C460 1.392 . S
C459 C463 1.495 . S
C460 C459 1.392 . S
C460 C461 1.385 . S
C460 C462 1.478 . S
C461 H455 0.930 . S
C461 C457 1.400 . S
C461 C460 1.385 . S
C462 C460 1.478 . S
C462 C464 1.381 . S
C462 C468 1.383 . S
C463 C459 1.495 . S
C463 H469 0.959 . S
C463 H470 0.961 . S
C463 H471 0.960 . S
C464 C462 1.381 . S
C464 C465 1.394 . S
C464 H472 0.930 . S
C465 C464 1.394 . S
C465 C466 1.383 . S
C465 H473 0.929 . S
C466 C465 1.383 . S
C466 C467 1.377 . S
C467 H451 0.930 . S
C467 C466 1.377 . S
C467 C468 1.379 . S
C468 H452 0.931 . S
C468 C462 1.383 . S
C468 C467 1.379 . S
H469 C463 0.959 . S
H470 C463 0.961 . S
H471 C463 0.960 . S
H472 C464 0.930 . S
H473 C465 0.929 . S
H474 C482 0.929 . S
H475 C484 0.930 . S
H476 C486 0.930 . S
H477 C489 0.929 . S
H478 C492 0.930 . S
H479 C494 0.960 . S
H480 C494 0.960 . S
H481 C494 0.960 . S
C482 H474 0.929 . S
C482 C483 1.377 . S
C482 C484 1.384 . S
C483 C482 1.377 . S
C483 C489 1.390 . S
C484 H475 0.930 . S
C484 C482 1.384 . S
C484 C485 1.372 . S
C485 C484 1.372 . S
C485 C486 1.400 . S
C485 C490 1.490 . S
C486 H476 0.930 . S
C486 C485 1.400 . S
C486 C489 1.386 . S
H487 C503 0.930 . S
H488 C504 0.931 . S
C489 H477 0.929 . S
C489 C483 1.390 . S
C489 C486 1.386 . S
C490 C485 1.490 . S
C490 C492 1.395 . S
C490 C493 1.403 . S
H491 C497 0.930 . S
C492 H478 0.930 . S
C492 C490 1.395 . S
C492 C495 1.403 . S
C493 C490 1.403 . S
C493 C494 1.524 . S
C493 C497 1.400 . S
C494 H479 0.960 . S
C494 H480 0.960 . S
C494 H481 0.960 . S
C494 C493 1.524 . S
C495 C492 1.403 . S
C495 C496 1.392 . S
C495 C499 1.495 . S
C496 C495 1.392 . S
C496 C497 1.385 . S
C496 C498 1.478 . S
C497 H491 0.930 . S
C497 C493 1.400 . S
C497 C496 1.385 . S
C498 C496 1.478 . S
C498 C500 1.381 . S
C498 C504 1.383 . S
C499 C495 1.495 . S
C499 H505 0.959 . S
C499 H506 0.961 . S
C499 H507 0.960 1_556 S
C500 C498 1.381 . S
C500 C501 1.394 . S
C500 H508 0.930 . S
C501 C500 1.394 . S
C501 C502 1.383 . S
C501 H509 0.929 1_556 S
C502 C501 1.383 . S
C502 C503 1.377 . S
C503 H487 0.930 . S
C503 C502 1.377 . S
C503 C504 1.379 . S
C504 H488 0.931 . S
C504 C498 1.383 . S
C504 C503 1.379 . S
H505 C499 0.959 . S
H506 C499 0.961 . S
H507 C499 0.960 1_554 S
H508 C500 0.930 . S
H509 C501 0.929 1_554 S
C87 C5 1.334 . S
C106 C68 1.335 . S
C123 C18 1.344 . S
C142 C3 1.344 . S
C159 C16 1.335 . S
C178 C31 1.324 . S
C195 C44 1.335 . S
C214 C29 1.333 . S
C231 C42 1.354 . S
C250 C57 1.356 . S
C267 C70 1.321 . S
C286 C55 1.351 . S
C303 C53 1.496 . S
C322 C10 1.480 . S
C339 C66 1.513 . S
C358 C23 1.503 . S
C375 C36 1.487 . S
C394 C1 1.496 . S
C411 C49 1.479 . S
C430 C14 1.500 . S
C447 C62 1.500 . S
C466 C27 1.521 . S
C483 C75 1.492 . S
C502 C40 1.484 . S
