# Generated by pormake.
# Topology umy, (4)-cn, num edge types: 1
# Building blocks:
#     Node 0, Type 0, BuildingBlock: KUFVIS_clean_sbu_0, # of connection points: 4
#     Node 1, Type 0, BuildingBlock: KUFVIS_clean_sbu_0, # of connection points: 4
#     Node 2, Type 0, BuildingBlock: KUFVIS_clean_sbu_0, # of connection points: 4
#     Node 3, Type 0, BuildingBlock: KUFVIS_clean_sbu_0, # of connection points: 4
#     Node 4, Type 0, BuildingBlock: KUFVIS_clean_sbu_0, # of connection points: 4
#     Node 5, Type 0, BuildingBlock: KUFVIS_clean_sbu_0, # of connection points: 4
#     Node 6, Type 0, BuildingBlock: KUFVIS_clean_sbu_0, # of connection points: 4
#     Node 7, Type 0, BuildingBlock: KUFVIS_clean_sbu_0, # of connection points: 4
#     Node 8, Type 0, BuildingBlock: KUFVIS_clean_sbu_0, # of connection points: 4
#     Node 9, Type 0, BuildingBlock: KUFVIS_clean_sbu_0, # of connection points: 4
#     Node 10, Type 0, BuildingBlock: KUFVIS_clean_sbu_0, # of connection points: 4
#     Node 11, Type 0, BuildingBlock: KUFVIS_clean_sbu_0, # of connection points: 4
#     Edge 12, Type (0, 0), BuildingBlock: AJUNOK_clean_linker_0, # of connection points: 2
#     Edge 13, Type (0, 0), BuildingBlock: AJUNOK_clean_linker_0, # of connection points: 2
#     Edge 14, Type (0, 0), BuildingBlock: AJUNOK_clean_linker_0, # of connection points: 2
#     Edge 15, Type (0, 0), BuildingBlock: AJUNOK_clean_linker_0, # of connection points: 2
#     Edge 16, Type (0, 0), BuildingBlock: AJUNOK_clean_linker_0, # of connection points: 2
#     Edge 17, Type (0, 0), BuildingBlock: AJUNOK_clean_linker_0, # of connection points: 2
#     Edge 18, Type (0, 0), BuildingBlock: AJUNOK_clean_linker_0, # of connection points: 2
#     Edge 19, Type (0, 0), BuildingBlock: AJUNOK_clean_linker_0, # of connection points: 2
#     Edge 20, Type (0, 0), BuildingBlock: AJUNOK_clean_linker_0, # of connection points: 2
#     Edge 21, Type (0, 0), BuildingBlock: AJUNOK_clean_linker_0, # of connection points: 2
#     Edge 22, Type (0, 0), BuildingBlock: AJUNOK_clean_linker_0, # of connection points: 2
#     Edge 23, Type (0, 0), BuildingBlock: AJUNOK_clean_linker_0, # of connection points: 2
#     Edge 24, Type (0, 0), BuildingBlock: AJUNOK_clean_linker_0, # of connection points: 2
#     Edge 25, Type (0, 0), BuildingBlock: AJUNOK_clean_linker_0, # of connection points: 2
#     Edge 26, Type (0, 0), BuildingBlock: AJUNOK_clean_linker_0, # of connection points: 2
#     Edge 27, Type (0, 0), BuildingBlock: AJUNOK_clean_linker_0, # of connection points: 2
#     Edge 28, Type (0, 0), BuildingBlock: AJUNOK_clean_linker_0, # of connection points: 2
#     Edge 29, Type (0, 0), BuildingBlock: AJUNOK_clean_linker_0, # of connection points: 2
#     Edge 30, Type (0, 0), BuildingBlock: AJUNOK_clean_linker_0, # of connection points: 2
#     Edge 31, Type (0, 0), BuildingBlock: AJUNOK_clean_linker_0, # of connection points: 2
#     Edge 32, Type (0, 0), BuildingBlock: AJUNOK_clean_linker_0, # of connection points: 2
#     Edge 33, Type (0, 0), BuildingBlock: AJUNOK_clean_linker_0, # of connection points: 2
#     Edge 34, Type (0, 0), BuildingBlock: AJUNOK_clean_linker_0, # of connection points: 2
#     Edge 35, Type (0, 0), BuildingBlock: AJUNOK_clean_linker_0, # of connection points: 2
# Relax obj value: 0.090
# Max RMSD: 0.078
# Mean RMSD: 0.078
data_MOF--net-umy--node1-KUFVIS_clean_sbu_0--edge1-AJUNOK_clean_linker_0
_symmetry_space_group_name_H-M    P1
_symmetry_Int_Tables_number       1
_symmetry_cell_setting            triclinic
loop_
_symmetry_equiv_pos_as_xyz
'x, y, z'
_cell_length_a     27.528111
_cell_length_b     27.472142
_cell_length_c     38.52589
_cell_angle_alpha  90.051538
_cell_angle_beta   89.878714
_cell_angle_gamma 120.01495
loop_
_atom_site_label
_atom_site_type_symbol
_atom_site_fract_x
_atom_site_fract_y
_atom_site_fract_z
_atom_type_partial_charge
Mn0 Mn 0.11721 0.36777 0.12989 0.0
Mn1 Mn 0.24241 0.48483 0.11931 0.0
C2 C 0.19103 0.38753 0.16733 0.0
C3 C 1.02788 0.32 0.1552 0.0
C4 C 0.19688 0.38542 0.07029 0.0
O5 O 0.09858 0.41939 0.10105 0.0
O6 O 0.18263 0.50033 0.10409 0.0
C7 C 0.24624 0.57452 0.163 0.0
N8 N 0.26459 0.53768 0.15644 0.0
C9 C 0.34565 0.59015 0.19263 0.0
C10 C 0.32821 0.62928 0.19888 0.0
C11 C 0.27765 0.62078 0.18472 0.0
C12 C 0.31268 0.54489 0.17069 0.0
H13 H 0.20955 0.57037 0.15032 0.0
C14 C 0.12997 0.47271 0.09711 0.0
O15 O 0.03918 0.30148 0.12709 0.0
O16 O 0.0675 0.36689 0.16778 0.0
N17 N 0.30124 0.47194 0.13475 0.0
C18 C 0.31646 0.43492 0.12238 0.0
C19 C 0.36427 0.43574 0.13576 0.0
C20 C 0.39666 0.47535 0.16116 0.0
C21 C 0.3806 0.51344 0.17313 0.0
C22 C 0.33124 0.50913 0.15987 0.0
H23 H 0.29252 0.40496 0.10245 0.0
O24 O 0.15063 0.33621 0.16284 0.0
O25 O 0.18758 0.42508 0.149 0.0
O26 O 0.15462 0.35158 0.08846 0.0
O27 O 0.22823 0.43658 0.07862 0.0
C28 C 0.41294 0.55703 0.19659 0.0
C29 C 0.3963 0.59628 0.20552 0.0
H30 H 0.35413 0.66692 0.2137 0.0
H31 H 0.26412 0.65104 0.18939 0.0
H32 H 0.37661 0.40647 0.12618 0.0
H33 H 0.43424 0.47671 0.17085 0.0
H34 H 0.45187 0.56215 0.20679 0.0
H35 H 0.42357 0.63177 0.22162 0.0
Mn36 Mn 0.7709 0.11419 0.30066 0.0
Mn37 Mn 0.7703 0.23608 0.29746 0.0
C38 C 0.81935 0.18223 0.34358 0.0
C39 C 0.73458 1.02201 0.32064 0.0
C40 C 0.83442 0.20449 0.24646 0.0
O41 O 0.70145 0.09448 0.27086 0.0
O42 O 0.69867 0.17462 0.27893 0.0
C43 C 0.67656 0.22436 0.34049 0.0
N44 N 0.73272 0.25057 0.33421 0.0
C45 C 0.74815 0.33188 0.36683 0.0
C46 C 0.69025 0.30617 0.3728 0.0
C47 C 0.65445 0.25175 0.36016 0.0
C48 C 0.76774 0.30239 0.34713 0.0
H49 H 0.64861 0.18395 0.32932 0.0
C50 C 0.67684 0.1235 0.26882 0.0
O51 O 0.7657 0.03945 0.29303 0.0
O52 O 0.72206 0.05668 0.33538 0.0
N53 N 0.83736 0.29835 0.31527 0.0
C54 C 0.89158 0.31871 0.30504 0.0
C55 C 0.93353 0.37102 0.31756 0.0
C56 C 0.91907 0.40245 0.33971 0.0
C57 C 0.86294 0.38066 0.34972 0.0
C58 C 0.82335 0.32728 0.33755 0.0
H59 H 0.90278 0.29534 0.28746 0.0
O60 O 0.83367 0.14562 0.33459 0.0
O61 O 0.77845 0.18029 0.32549 0.0
O62 O 0.82598 0.1596 0.26133 0.0
O63 O 0.81111 0.23158 0.25694 0.0
C64 C 0.84442 0.41043 0.37046 0.0
C65 C 0.78688 0.38665 0.37822 0.0
H66 H 0.67264 0.32784 0.38691 0.0
H67 H 0.60972 0.23163 0.36474 0.0
H68 H 0.97673 0.38754 0.30964 0.0
H69 H 0.95131 0.44338 0.34867 0.0
H70 H 0.87382 0.45222 0.3798 0.0
H71 H 0.7729 0.41104 0.39288 0.0
Mn72 Mn 0.69032 0.76631 0.46568 0.0
Mn73 Mn 0.57132 0.77137 0.46067 0.0
C74 C 0.67289 0.81734 0.508 0.0
C75 C 0.74215 0.72666 0.48729 0.0
C76 C 0.66806 0.82984 0.40968 0.0
O77 O 0.63892 0.69692 0.4361 0.0
O78 O 0.55762 0.69738 0.44374 0.0
C79 C 0.48344 0.68137 0.50285 0.0
N80 N 0.51757 0.73734 0.49703 0.0
C81 C 0.45387 0.75898 0.52709 0.0
C82 C 0.41738 0.70136 0.5323 0.0
C83 C 0.43271 0.66249 0.52068 0.0
C84 C 0.50356 0.77522 0.50871 0.0
H85 H 0.49337 0.65114 0.49237 0.0
C86 C 0.5854 0.67361 0.43424 0.0
O87 O 0.75796 0.75744 0.45949 0.0
O88 O 0.69498 0.71623 0.50107 0.0
N89 N 0.5803 0.84105 0.47707 0.0
C90 C 0.61744 0.89451 0.4667 0.0
C91 C 0.61081 0.93921 0.47855 0.0
C92 C 0.5651 0.92826 0.5 0.0
C93 C 0.52721 0.87279 0.51004 0.0
C94 C 0.53754 0.83034 0.49875 0.0
H95 H 0.65169 0.90301 0.44944 0.0
O96 O 0.72333 0.82979 0.49923 0.0
O97 O 0.63323 0.77714 0.48973 0.0
O98 O 0.70357 0.82161 0.42578 0.0
O99 O 0.61786 0.80867 0.42001 0.0
C100 C 0.47884 0.85772 0.53003 0.0
C101 C 0.4414 0.80069 0.5377 0.0
H102 H 0.37718 0.68628 0.54489 0.0
H103 H 0.40472 0.61793 0.52463 0.0
H104 H 0.64016 0.98185 0.47058 0.0
H105 H 0.55928 0.96266 0.50837 0.0
H106 H 0.46915 0.88943 0.53871 0.0
H107 H 0.40296 0.78937 0.55161 0.0
Mn108 Mn 0.95104 0.67824 0.63297 0.0
Mn109 Mn 0.82837 0.55751 0.62661 0.0
C110 C 0.88203 0.65711 0.6755 0.0
C111 C 0.04269 0.73032 0.65414 0.0
C112 C 0.86411 0.65654 0.57784 0.0
O113 O 0.97025 0.62919 0.60198 0.0
O114 O 0.88941 0.54633 0.60834 0.0
C115 C 0.83387 0.46986 0.66721 0.0
N116 N 0.81043 0.50273 0.66212 0.0
C117 C 0.72664 0.43698 0.69276 0.0
C118 C 0.74967 0.40211 0.69769 0.0
C119 C 0.80393 0.41914 0.68546 0.0
C120 C 0.75864 0.48725 0.67455 0.0
H121 H 0.87386 0.48082 0.65593 0.0
C122 C 0.94085 0.57566 0.59896 0.0
O123 O 1.02691 0.74715 0.62722 0.0
O124 O 1.00646 0.68251 0.66754 0.0
N125 N 0.76692 0.56405 0.6442 0.0
C126 C 0.74903 0.60029 0.63471 0.0
C127 C 0.69724 0.59162 0.64704 0.0
C128 C 0.66371 0.5449 0.66812 0.0
C129 C 0.68297 0.50808 0.67735 0.0
C130 C 0.73611 0.5204 0.66561 0.0
H131 H 0.77396 0.63551 0.61791 0.0
O132 O 0.91965 0.70843 0.66794 0.0
O133 O 0.88375 0.61896 0.65625 0.0
O134 O 0.9079 0.69192 0.59403 0.0
O135 O 0.83625 0.60546 0.58698 0.0
C136 C 0.65086 0.45873 0.69678 0.0
C137 C 0.67203 0.42241 0.70359 0.0
H138 H 0.72599 0.36193 0.71065 0.0
H139 H 0.82189 0.39233 0.68911 0.0
H140 H 0.68271 0.62023 0.63974 0.0
H141 H 0.62312 0.53746 0.67684 0.0
H142 H 0.60916 0.44742 0.70568 0.0
H143 H 0.64569 0.38316 0.71698 0.0
Mn144 Mn 0.29918 0.93805 0.79864 0.0
Mn145 Mn 0.29841 0.81593 0.79323 0.0
C146 C 0.25013 0.86906 0.84098 0.0
C147 C 0.3381 0.03001 0.81958 0.0
C148 C 0.2369 0.85122 0.74296 0.0
O149 O 0.36829 0.95741 0.76847 0.0
O150 O 0.37174 0.87762 0.77666 0.0
C151 C 0.38872 0.81975 0.83568 0.0
N152 N 0.33279 0.7969 0.82963 0.0
C153 C 0.31253 0.71185 0.85965 0.0
C154 C 0.37005 0.73427 0.86547 0.0
C155 C 0.4082 0.78884 0.854 0.0
C156 C 0.29561 0.74465 0.84116 0.0
H157 H 0.41852 0.85996 0.82497 0.0
C158 C 0.39352 0.92894 0.76691 0.0
O159 O 0.30623 1.01391 0.79233 0.0
O160 O 0.34926 0.99387 0.83352 0.0
N161 N 0.22928 0.75403 0.80928 0.0
C162 C 0.17576 0.73668 0.7988 0.0
C163 C 0.13179 0.68462 0.81024 0.0
C164 C 0.14349 0.6503 0.83154 0.0
C165 C 0.19891 0.66905 0.84187 0.0
C166 C 0.2406 0.72246 0.83094 0.0
H167 H 0.16658 0.76219 0.78185 0.0
O168 O 0.2366 0.90656 0.83283 0.0
O169 O 0.29068 0.87092 0.82242 0.0
O170 O 0.24343 0.89431 0.7593 0.0
O171 O 0.26116 0.82467 0.75246 0.0
C172 C 0.21469 0.63628 0.86176 0.0
C173 C 0.27165 0.65705 0.86977 0.0
H174 H 0.38556 0.70987 0.87851 0.0
H175 H 0.45271 0.80634 0.85832 0.0
H176 H 0.08915 0.67051 0.80212 0.0
H177 H 0.10969 0.60953 0.8396 0.0
H178 H 0.18362 0.5944 0.87009 0.0
H179 H 0.28355 0.63024 0.88351 0.0
Mn180 Mn 0.38218 0.28631 0.96314 0.0
Mn181 Mn 0.50442 0.287 0.95937 0.0
C182 C 0.40159 0.2373 0.00583 0.0
C183 C 0.32513 0.32119 0.98308 0.0
C184 C 0.40959 0.22481 0.90797 0.0
O185 O 0.4326 0.35698 0.9341 0.0
O186 O 0.51533 0.35958 0.942 0.0
C187 C 0.58865 0.37918 0.00198 0.0
N188 N 0.55691 0.32295 -0.00399 0.0
C189 C 0.62336 0.30544 0.026 0.0
C190 C 0.65737 0.36338 0.03147 0.0
C191 C 0.63942 0.40027 0.02001 0.0
C192 C 0.57329 0.28692 0.0077 0.0
H193 H 0.57678 0.40802 0.99152 0.0
C194 C 0.48626 0.38178 0.93233 0.0
O195 O 0.31292 0.29134 0.95502 0.0
O196 O 0.37179 0.33359 -0.00166 0.0
N197 N 0.49832 0.21874 0.9761 0.0
C198 C 0.46327 0.16479 0.96566 0.0
C199 C 0.4726 0.12176 0.97737 0.0
C200 C 0.51886 0.13494 -0.00125 0.0
C201 C 0.55453 0.19087 0.00887 0.0
C202 C 0.54149 0.23149 -0.00224 0.0
H203 H 0.42862 0.15464 0.94847 0.0
O204 O 0.35072 0.22262 -0.00332 0.0
O205 O 0.4406 0.27857 0.98782 0.0
O206 O 0.37285 0.23209 0.92333 0.0
O207 O 0.45973 0.24818 0.91852 0.0
C208 C 0.60343 0.20822 0.02864 0.0
C209 C 0.63866 0.26567 0.0363 0.0
H210 H 0.69757 0.38018 0.04427 0.0
H211 H 0.66549 0.44506 0.02417 0.0
H212 H 0.44494 0.07875 0.96933 0.0
H213 H 0.52686 0.1019 0.00697 0.0
H214 H 0.61528 0.17801 0.03712 0.0
H215 H 0.67761 0.2788 0.04996 0.0
Mn216 Mn 0.69319 0.94551 0.69227 0.0
Mn217 Mn 0.57315 0.82122 0.69568 0.0
C218 C 0.67562 0.8748 0.65237 0.0
C219 C 0.74867 0.03637 0.67036 0.0
C220 C 0.66671 0.85733 0.74837 0.0
O221 O 0.64013 0.96447 0.71932 0.0
O222 O 0.55926 0.88093 0.71364 0.0
C223 C 0.48987 0.82786 0.65136 0.0
N224 N 0.52341 0.80556 0.65754 0.0
C225 C 0.46655 0.72605 0.62094 0.0
C226 C 0.43055 0.7475 0.61523 0.0
C227 C 0.44307 0.79934 0.6297 0.0
C228 C 0.51283 0.75659 0.64259 0.0
H229 H 0.49705 0.86559 0.66426 0.0
C230 C 0.5867 0.93311 0.72214 0.0
O231 O 0.76073 1.02152 0.69958 0.0
O232 O 0.70295 0.99991 0.655 0.0
N233 N 0.58392 0.76227 0.67768 0.0
C234 C 0.61953 0.74452 0.6887 0.0
C235 C 0.61602 0.69603 0.67408 0.0
C236 C 0.5749 0.66542 0.64904 0.0
C237 C 0.5385 0.68433 0.63837 0.0
C238 C 0.54604 0.73463 0.6525 0.0
H239 H 0.6505 0.76717 0.70841 0.0
O240 O 0.72667 0.91268 0.66016 0.0
O241 O 0.6367 0.87813 0.66922 0.0
O242 O 0.70216 0.90306 0.73375 0.0
O243 O 0.61716 0.82754 0.737 0.0
C244 C 0.4934 0.65395 0.61553 0.0
C245 C 0.45635 0.67384 0.60784 0.0
H246 H 0.39245 0.72407 0.6004 0.0
H247 H 0.41539 0.81607 0.62535 0.0
H248 H 0.64425 0.68172 0.68255 0.0
H249 H 0.57116 0.62708 0.63855 0.0
H250 H 0.48543 0.61409 0.60491 0.0
H251 H 0.41946 0.64794 0.59245 0.0
Mn252 Mn 0.77322 0.67851 0.85867 0.0
Mn253 Mn 0.7745 0.55711 0.86347 0.0
C254 C 0.82495 0.65872 0.81893 0.0
C255 C 0.73658 0.73282 0.83662 0.0
C256 C 0.83211 0.65156 0.9158 0.0
O257 O 0.70184 0.62681 0.88672 0.0
O258 O 0.70025 0.54393 0.8794 0.0
C259 C 0.6871 0.4731 0.81802 0.0
N260 N 0.74257 0.50742 0.82493 0.0
C261 C 0.76768 0.45251 0.78814 0.0
C262 C 0.71069 0.41606 0.78141 0.0
C263 C 0.67032 0.42713 0.7957 0.0
C264 C 0.78194 0.49789 0.81047 0.0
H265 H 0.65568 0.47885 0.83095 0.0
C266 C 0.67738 0.57294 0.88834 0.0
O267 O 0.7659 0.74707 0.86496 0.0
O268 O 0.72649 0.68612 0.82209 0.0
N269 N 0.84513 0.56771 0.84738 0.0
C270 C 0.89767 0.60222 0.86009 0.0
C271 C 0.94337 0.59902 0.84655 0.0
C272 C 0.93447 0.55941 0.8207 0.0
C273 C 0.88 0.52392 0.80836 0.0
C274 C 0.83645 0.53089 0.82167 0.0
H275 H 0.90493 0.63207 0.88037 0.0
O276 O 0.83838 0.71026 0.82571 0.0
O277 O 0.78281 0.62071 0.83632 0.0
O278 O 0.82567 0.68836 0.89963 0.0
O279 O 0.80956 0.60107 0.90543 0.0
C280 C 0.86684 0.48013 0.78464 0.0
C281 C 0.81053 0.44338 0.77545 0.0
H282 H 0.69728 0.37854 0.76603 0.0
H283 H 0.6262 0.3989 0.79071 0.0
H284 H 0.98523 0.62643 0.85638 0.0
H285 H 0.96959 0.55601 0.81095 0.0
H286 H 0.89936 0.47279 0.77451 0.0
H287 H 0.80066 0.40738 0.75935 0.0
Mn288 Mn 0.11785 0.75957 0.0245 0.0
Mn289 Mn 0.24166 0.76326 0.02857 0.0
C290 C 0.18834 0.81123 0.98416 0.0
C291 C 1.02646 0.72176 0.00332 0.0
C292 C 0.20542 0.82226 0.08033 0.0
O293 O 0.09947 0.68893 0.05309 0.0
O294 O 0.18187 0.68975 0.04634 0.0
C295 C 0.23553 0.67311 0.98421 0.0
N296 N 0.25801 0.72904 0.99064 0.0
C297 C 0.33819 0.75148 0.95472 0.0
C298 C 0.31653 0.69398 0.94866 0.0
C299 C 0.26429 0.65474 0.96268 0.0
C300 C 0.30733 0.76735 0.97608 0.0
H301 H 0.19736 0.64256 -0.00325 0.0
C302 C 0.13013 0.66601 0.05553 0.0
O303 O 0.04205 0.75167 0.03145 0.0
O304 O 0.06279 0.71168 0.98843 0.0
N305 N 0.30088 0.833 0.01081 0.0
C306 C 0.31859 0.88645 0.02188 0.0
C307 C 0.36766 0.93133 0.00779 0.0
C308 C 0.39881 0.92065 0.98317 0.0
C309 C 0.37992 0.86526 0.97241 0.0
C310 C 0.32916 0.8226 0.98605 0.0
H311 H 0.29545 0.89496 0.04118 0.0
O312 O 0.14999 0.82415 0.99108 0.0
O313 O 0.1851 0.76957 0.00167 0.0
O314 O 0.16077 0.81323 0.06497 0.0
O315 O 0.23441 0.80095 0.06981 0.0
C316 C 0.41078 0.85038 0.95 0.0
C317 C 0.39085 0.79338 0.94219 0.0
H318 H 0.34008 0.67932 0.93382 0.0
H319 H 0.24737 0.61028 0.95805 0.0
H320 H 0.38192 0.97393 0.01631 0.0
H321 H 0.43752 0.95516 0.97308 0.0
H322 H 0.45099 0.88217 0.93981 0.0
H323 H 0.41708 0.78226 0.92719 0.0
Mn324 Mn 0.38027 0.10875 0.19015 0.0
Mn325 Mn 0.49995 0.2328 0.19416 0.0
C326 C 0.3985 0.17906 0.14985 0.0
C327 C 0.32762 1.01723 0.1686 0.0
C328 C 0.40567 0.19533 0.24667 0.0
O329 O 0.4328 0.09091 0.21856 0.0
O330 O 0.51463 0.173 0.21088 0.0
C331 C 0.58533 0.23042 0.14953 0.0
N332 N 0.55017 0.25082 0.1559 0.0
C333 C 0.60589 0.33196 0.12013 0.0
C334 C 0.64326 0.31225 0.11405 0.0
C335 C 0.63218 0.26059 0.12804 0.0
C336 C 0.55959 0.29981 0.14157 0.0
H337 H 0.57954 0.19314 0.16235 0.0
C338 C 0.48647 0.1212 0.22021 0.0
O339 O 0.31281 0.03227 0.19681 0.0
O340 O 0.37396 0.05422 0.15397 0.0
N341 N 0.48786 0.29153 0.17735 0.0
C342 C 0.45152 0.30802 0.18907 0.0
C343 C 0.45383 0.35633 0.17513 0.0
C344 C 0.49456 0.38815 0.15008 0.0
C345 C 0.53181 0.37063 0.13874 0.0
C346 C 0.5254 0.32036 0.15214 0.0
H347 H 0.42095 0.28463 0.20888 0.0
O348 O 0.34737 0.14045 0.15692 0.0
O349 O 0.43709 0.17616 0.16728 0.0
O350 O 0.36934 0.15144 0.23082 0.0
O351 O 0.45573 0.2241 0.23589 0.0
C352 C 0.57674 0.40245 0.11598 0.0
C353 C 0.61486 0.38409 0.10773 0.0
H354 H 0.68139 0.33705 0.09938 0.0
H355 H 0.66106 0.24531 0.12353 0.0
H356 H 0.42505 0.36964 0.18416 0.0
H357 H 0.4974 0.42639 0.14016 0.0
H358 H 0.58384 0.44231 0.10594 0.0
H359 H 0.65169 0.41118 0.09254 0.0
Mn360 Mn 0.30365 0.37971 0.35315 0.0
Mn361 Mn 0.30395 0.5022 0.35649 0.0
C362 C 0.25593 0.39937 0.30998 0.0
C363 C 0.33988 0.32361 0.33376 0.0
C364 C 0.23906 0.40588 0.4069 0.0
O365 O 0.37269 0.42932 0.38313 0.0
O366 O 0.37505 0.51223 0.37595 0.0
C367 C 0.39912 0.58599 0.3151 0.0
N368 N 0.34271 0.55519 0.32033 0.0
C369 C 0.32804 0.62155 0.28777 0.0
C370 C 0.38609 0.65416 0.28247 0.0
C371 C 0.42168 0.63579 0.29568 0.0
C372 C 0.30797 0.57196 0.30702 0.0
H373 H 0.42689 0.57409 0.32704 0.0
C374 C 0.39692 0.48289 0.38577 0.0
O375 O 0.30834 0.31008 0.36115 0.0
O376 O 0.35276 0.37078 0.31882 0.0
N377 N 0.23745 0.49739 0.33784 0.0
C378 C 0.1829 0.46288 0.34723 0.0
C379 C 0.14122 0.4731 0.3342 0.0
C380 C 0.15628 0.51954 0.31244 0.0
C381 C 0.21273 0.5545 0.30328 0.0
C382 C 0.25206 0.54076 0.31586 0.0
H383 H 0.17124 0.42777 0.36441 0.0
O384 O 0.2413 0.34837 0.31906 0.0
O385 O 0.29664 0.43853 0.32822 0.0
O386 O 0.2483 0.36987 0.39221 0.0
O387 O 0.26172 0.4563 0.39646 0.0
C388 C 0.23179 0.60335 0.28304 0.0
C389 C 0.28956 0.63766 0.27614 0.0
H390 H 0.40393 0.69356 0.26845 0.0
H391 H 0.46656 0.66088 0.29182 0.0
H392 H 0.09776 0.44588 0.3414 0.0
H393 H 0.12423 0.52814 0.30311 0.0
H394 H 0.2026 0.61575 0.27345 0.0
H395 H 0.30391 0.67648 0.26191 0.0
Mn396 Mn 0.95766 0.29295 0.52369 0.0
Mn397 Mn 0.83139 0.28203 0.53464 0.0
C398 C 0.88413 0.23791 0.48622 0.0
C399 C 0.04698 0.33421 0.49856 0.0
C400 C 0.87796 0.22856 0.5828 0.0
O401 O 0.97539 0.36302 0.55272 0.0
O402 O 0.89038 0.35761 0.55014 0.0
C403 C 0.82702 0.36775 0.49114 0.0
N404 N 0.80868 0.31256 0.49778 0.0
C405 C 0.72697 0.28359 0.4622 0.0
C406 C 0.74432 0.3402 0.45597 0.0
C407 C 0.7952 0.38241 0.46977 0.0
C408 C 0.76043 0.27149 0.48373 0.0
H409 H 0.86416 0.40043 0.50339 0.0
C410 C 0.9431 0.38383 0.55694 0.0
O411 O 1.03551 0.30508 0.52694 0.0
O412 O 1.00772 0.34194 0.4859 0.0
N413 N 0.77306 0.21007 0.5189 0.0
C414 C 0.75843 0.15778 0.5309 0.0
C415 C 0.71054 0.11058 0.51766 0.0
C416 C 0.67739 0.11766 0.49281 0.0
C417 C 0.69287 0.17186 0.48118 0.0
C418 C 0.74239 0.21712 0.49425 0.0
H419 H 0.78292 0.15187 0.55043 0.0
O420 O 0.92505 0.22791 0.49073 0.0
O421 O 0.88684 0.27867 0.50455 0.0
O422 O 0.92074 0.23892 0.56468 0.0
O423 O 0.84589 0.24777 0.57522 0.0
C424 C 0.65984 0.18295 0.45829 0.0
C425 C 0.67607 0.23887 0.44963 0.0
H426 H 0.71828 0.35188 0.44135 0.0
H427 H 0.80875 0.42621 0.46504 0.0
H428 H 0.69879 0.06892 0.52692 0.0
H429 H 0.63973 0.08129 0.48324 0.0
H430 H 0.62075 0.14898 0.4483 0.0
H431 H 0.64836 0.24695 0.43394 0.0
C432 C 0.10265 0.56776 0.04163 0.0
C433 C 0.10537 0.60685 0.06639 0.0
C434 C 0.10326 0.51897 0.05172 0.0
C435 C 0.10516 0.50723 0.08693 0.0
H436 H 0.10557 0.57765 0.01423 0.0
H437 H 0.10768 0.49337 0.03195 0.0
S438 S 0.10082 0.58985 0.16176 0.0
N439 N 0.10225 0.62659 0.12742 0.0
N440 N 0.10014 0.53324 0.14654 0.0
C441 C 0.10049 0.54218 0.11184 0.0
C442 C 0.10124 0.59249 0.10155 0.0
C443 C 0.57753 0.09485 0.2798 0.0
C444 C 0.61847 0.09781 0.25649 0.0
C445 C 0.52943 0.09495 0.26787 0.0
C446 C 0.52025 0.09651 0.23222 0.0
H447 H 0.58526 0.09776 0.30746 0.0
H448 H 0.50239 0.09936 0.28654 0.0
S449 S 0.60721 0.08995 0.16079 0.0
N450 N 0.64198 0.09296 0.19641 0.0
N451 N 0.5497 0.08939 0.17386 0.0
C452 C 0.55671 0.09127 0.20882 0.0
C453 C 0.60636 0.09263 0.22097 0.0
C454 C 0.51093 0.57587 0.44648 0.0
C455 C 0.55114 0.61451 0.42309 0.0
C456 C 0.46291 0.52743 0.43463 0.0
C457 C 0.45467 0.51535 0.39907 0.0
H458 H 0.51414 0.5856 0.47388 0.0
H459 H 0.42979 0.50246 0.45298 0.0
S460 S 0.55456 0.59498 0.32832 0.0
N461 N 0.58423 0.6325 0.36356 0.0
N462 N 0.49585 0.53924 0.34139 0.0
C463 C 0.49855 0.54919 0.37607 0.0
C464 C 0.54662 0.5994 0.38805 0.0
C465 C 0.96346 0.52853 0.55196 0.0
C466 C 0.96691 0.54301 0.58712 0.0
C467 C 0.96424 0.47985 0.54177 0.0
C468 C 0.96688 0.44346 0.56649 0.0
H469 H 0.95466 0.55172 0.53265 0.0
H470 H 0.95735 0.46783 0.51467 0.0
S471 S 0.98685 0.46855 0.66104 0.0
N472 N 0.98296 0.52282 0.646 0.0
N473 N 0.98097 0.42945 0.62692 0.0
C474 C 0.97642 0.46072 0.6012 0.0
C475 C 0.97714 0.51105 0.61149 0.0
C476 C 0.51373 0.95778 0.70901 0.0
C477 C 0.55186 0.95726 0.73316 0.0
C478 C 0.46425 0.95614 0.71995 0.0
C479 C 0.45241 0.95562 0.75539 0.0
H480 H 0.51957 0.9541 0.68154 0.0
H481 H 0.43285 0.94972 0.70077 0.0
S482 S 0.54537 0.96843 0.82852 0.0
N483 N 0.57886 0.9654 0.79365 0.0
N484 N 0.48771 0.96625 0.81427 0.0
C485 C 0.49405 0.96338 0.77949 0.0
C486 C 0.5436 0.96342 0.76837 0.0
C487 C 0.55638 0.48051 0.94543 0.0
C488 C 0.51933 0.44094 0.92119 0.0
C489 C 0.60557 0.52892 0.93466 0.0
C490 C 0.61822 0.53985 0.89928 0.0
H491 H 0.55019 0.47119 0.97292 0.0
H492 H 0.63627 0.55466 0.95402 0.0
S493 S 0.52798 0.45707 0.82573 0.0
N494 N 0.49404 0.42068 0.86053 0.0
N495 N 0.5846 0.51363 0.84017 0.0
C496 C 0.57749 0.50494 0.87496 0.0
C497 C 0.52822 0.45491 0.88593 0.0
C498 C 0.21299 0.31073 0.04459 0.0
C499 C 0.2182 0.36426 0.04191 0.0
C500 C 0.24588 0.29601 0.02394 0.0
C501 C 0.28465 0.33405 -0.0002 0.0
H502 H 0.18652 0.28158 0.06446 0.0
H503 H 0.24304 0.25566 0.02814 0.0
S504 S 0.30929 0.47613 0.97934 0.0
N505 N 0.26136 0.45306 0.01037 0.0
N506 N 0.32309 0.425 0.97205 0.0
C507 C 0.28771 0.38598 -0.00482 0.0
C508 C 0.25431 0.40108 0.01605 0.0
C509 C 0.90502 0.20339 0.20458 0.0
C510 C 0.87823 0.2313 0.21869 0.0
C511 C 0.95149 0.23124 0.1821 0.0
C512 C 0.97359 0.2883 0.17358 0.0
H513 H 0.89115 0.16027 0.21174 0.0
H514 H 0.97207 0.20885 0.17285 0.0
S515 S 0.91702 0.37975 0.20022 0.0
N516 N 0.87527 0.31886 0.21907 0.0
N517 N 0.96371 0.37071 0.17862 0.0
C518 C 0.94623 0.31604 0.18619 0.0
C519 C 0.89823 0.28766 0.20819 0.0
C520 C 0.74272 0.91242 0.37598 0.0
C521 C 0.68575 0.87191 0.38093 0.0
C522 C 0.75871 0.95934 0.35429 0.0
C523 C 0.71833 0.96745 0.33702 0.0
H524 H 0.77499 0.90974 0.39044 0.0
H525 H 0.80268 0.99115 0.35269 0.0
S526 S 0.56488 0.87107 0.33696 0.0
N527 N 0.58951 0.84053 0.36277 0.0
N528 N 0.62018 0.92973 0.32358 0.0
C529 C 0.66191 0.92611 0.34001 0.0
C530 C 0.64549 0.87797 0.36145 0.0
C531 C 0.75246 0.65358 0.5186 0.0
C532 C 0.7777 0.708 0.50487 0.0
C533 C 0.78221 0.63693 0.54027 0.0
C534 C 0.83824 0.67459 0.55027 0.0
H535 H 0.70872 0.62392 0.51327 0.0
H536 H 0.75965 0.59461 0.55058 0.0
S537 S 0.9239 0.8221 0.52006 0.0
N538 N 0.86248 0.79925 0.50106 0.0
N539 N 0.9183 0.76872 0.54301 0.0
C540 C 0.86458 0.72892 0.53575 0.0
C541 C 0.83436 0.74543 0.51281 0.0
C542 C 0.11548 0.82026 0.68166 0.0
C543 C 0.09784 0.76494 0.67083 0.0
C544 C 0.16228 0.84946 0.70364 0.0
C545 C 0.19363 0.82466 0.71498 0.0
H546 H 0.09102 0.8398 0.67483 0.0
H547 H 0.17253 0.89077 0.71285 0.0
S548 S 0.16716 0.68223 0.68966 0.0
N549 N 0.1166 0.68786 0.67062 0.0
N550 N 0.20556 0.74235 0.71012 0.0
C551 C 0.17806 0.77043 0.702 0.0
C552 C 0.12986 0.74063 0.68049 0.0
C553 C 0.32012 0.10241 0.84686 0.0
C554 C 0.3582 0.0854 0.83601 0.0
C555 C 0.33732 0.14946 0.86868 0.0
C556 C 0.39343 0.1816 0.87991 0.0
H557 H 0.27613 0.07727 0.84019 0.0
H558 H 0.30594 0.15914 0.87794 0.0
S559 S 0.51039 0.1573 0.85424 0.0
N560 N 0.45442 0.1058 0.83547 0.0
N561 N 0.48809 0.19522 0.87474 0.0
C562 C 0.43249 0.16675 0.86686 0.0
C563 C 0.41451 0.11831 0.84546 0.0
C564 C 0.66314 0.74462 0.8071 0.0
C565 C 0.71791 0.76909 0.81994 0.0
C566 C 0.64627 0.77526 0.78635 0.0
C567 C 0.68406 0.83141 0.77637 0.0
H568 H 0.63338 0.70078 0.81235 0.0
H569 H 0.60373 0.75321 0.77654 0.0
S570 S 0.83214 0.91562 0.80525 0.0
N571 N 0.80931 0.85355 0.82361 0.0
N572 N 0.7785 0.91102 0.78328 0.0
C573 C 0.73858 0.85717 0.79041 0.0
C574 C 0.75531 0.82604 0.81243 0.0
C575 C 0.91035 0.72541 0.95264 0.0
C576 C 0.87445 0.6683 0.94433 0.0
C577 C 0.95775 0.74237 0.97391 0.0
C578 C 0.9713 0.70295 0.98717 0.0
H579 H 0.90356 0.75754 0.94126 0.0
H580 H 0.98578 0.78685 0.97826 0.0
S581 S 0.88827 0.54843 0.9778 0.0
N582 N 0.85308 0.57188 0.95545 0.0
N583 N 0.94339 0.60484 0.99357 0.0
C584 C 0.93452 0.64593 0.98091 0.0
C585 C 0.88568 0.62832 0.9601 0.0
C586 C 0.31788 0.93335 0.13807 0.0
C587 C 0.29221 0.96198 0.15199 0.0
C588 C 0.2879 0.88582 0.1172 0.0
C589 C 0.23121 0.86582 0.10817 0.0
H590 H 0.36209 0.9488 0.14253 0.0
H591 H 0.3108 0.8667 0.10651 0.0
S592 S 0.14382 0.92447 0.14031 0.0
N593 N 0.20605 0.96529 0.15786 0.0
N594 N 0.14978 0.87695 0.11727 0.0
C595 C 0.20432 0.89282 0.1233 0.0
C596 C 0.2348 0.94066 0.14548 0.0
C597 C 0.33192 0.20276 0.28172 0.0
C598 C 0.38891 0.22077 0.27532 0.0
C599 C 0.31608 0.23439 0.30287 0.0
C600 C 0.3566 0.28527 0.318 0.0
H601 H 0.29933 0.16585 0.26878 0.0
H602 H 0.27192 0.22078 0.30562 0.0
S603 S 0.51058 0.3475 0.31396 0.0
N604 N 0.48575 0.28996 0.29018 0.0
N605 N 0.45513 0.34978 0.32811 0.0
C606 C 0.41322 0.30207 0.31365 0.0
C607 C 0.42956 0.26958 0.29291 0.0
C608 C 0.17122 0.42318 0.44055 0.0
C609 C 0.19478 0.38858 0.43418 0.0
C610 C 0.12458 0.40591 0.46225 0.0
C611 C 0.10048 0.35419 0.4796 0.0
H612 H 0.18725 0.46323 0.4275 0.0
H613 H 0.10662 0.43296 0.46498 0.0
S614 S 0.14816 0.24969 0.4749 0.0
N615 N 0.1915 0.30088 0.4488 0.0
N616 N 0.10496 0.2695 0.49084 0.0
C617 C 0.1251 0.32034 0.47523 0.0
C618 C 0.17192 0.33725 0.45225 0.0
C619 C 0.82595 0.18701 0.63826 0.0
C620 C 0.85693 0.18414 0.60985 0.0
C621 C 0.79306 0.13978 0.65923 0.0
C622 C 0.78948 0.08801 0.65212 0.0
H623 H 0.82499 0.22533 0.64326 0.0
H624 H 0.76821 0.14307 0.67997 0.0
S625 S 0.86274 0.05791 0.58186 0.0
N626 N 0.88304 0.12515 0.5769 0.0
N627 N 0.82055 0.03652 0.61591 0.0
C628 C 0.82173 0.08498 0.62484 0.0
C629 C 0.85584 0.1331 0.60386 0.0
C630 C 0.21782 0.43121 0.26087 0.0
C631 C 0.24971 0.40751 0.27245 0.0
C632 C 0.20436 0.43002 0.22565 0.0
C633 C 0.21983 0.40238 0.20102 0.0
H634 H 0.19921 0.44672 0.27902 0.0
H635 H 0.17739 0.44647 0.21819 0.0
S636 S 0.30361 0.33355 0.21728 0.0
N637 N 0.2989 0.35805 0.25553 0.0
N638 N 0.26884 0.35135 0.19009 0.0
C639 C 0.25235 0.37931 0.21188 0.0
C640 C 0.26824 0.38275 0.2474 0.0
C641 C 0.87157 0.26615 0.42746 0.0
C642 C 0.85554 0.22344 0.45243 0.0
C643 C 0.85834 0.25321 0.39225 0.0
C644 C 0.82605 0.19736 0.38101 0.0
H645 H 0.89876 0.30973 0.43469 0.0
H646 H 0.87733 0.28697 0.37385 0.0
S647 S 0.77129 0.07035 0.43701 0.0
N648 N 0.80616 0.12345 0.46393 0.0
N649 N 0.77632 0.09893 0.39853 0.0
C650 C 0.80719 0.15449 0.40634 0.0
C651 C 0.82292 0.16758 0.44186 0.0
C652 C 0.63886 0.86647 0.59258 0.0
C653 C 0.66462 0.84943 0.61754 0.0
C654 C 0.64012 0.85504 0.55714 0.0
C655 C 0.66462 0.82379 0.54556 0.0
H656 H 0.62157 0.89273 0.60015 0.0
H657 H 0.62559 0.87438 0.5389 0.0
S658 S 0.73553 0.76747 0.60129 0.0
N659 N 0.7154 0.80028 0.62863 0.0
N660 N 0.71384 0.77452 0.56269 0.0
C661 C 0.68826 0.80441 0.57077 0.0
C662 C 0.68898 0.81804 0.60658 0.0
C663 C 0.81003 0.62472 0.7236 0.0
C664 C 0.86574 0.6462 0.7127 0.0
C665 C 0.7966 0.62331 0.75893 0.0
C666 C 0.83881 0.64611 0.7844 0.0
H667 H 0.77704 0.61287 0.70494 0.0
H668 H 0.75333 0.6087 0.76602 0.0
S669 S 0.99122 0.70785 0.76995 0.0
N670 N 0.96321 0.68846 0.73098 0.0
N671 N 0.93811 0.6906 0.7967 0.0
C672 C 0.89443 0.66707 0.77412 0.0
C673 C 0.90786 0.66615 0.73844 0.0
C674 C 0.21092 0.79706 0.88915 0.0
C675 C 0.24362 0.85308 0.87826 0.0
C676 C 0.19823 0.78354 0.92441 0.0
C677 C 0.21533 0.82587 0.94978 0.0
H678 H 0.1914 0.76372 0.87047 0.0
H679 H 0.17084 0.73991 0.93147 0.0
S680 S 0.3011 0.97913 0.93528 0.0
N681 N 0.29484 0.95113 0.89645 0.0
N682 N 0.26612 0.92565 0.96195 0.0
C683 C 0.24829 0.88186 0.93949 0.0
C684 C 0.26343 0.89548 0.90392 0.0
C685 C 0.43704 0.18948 0.09031 0.0
C686 C 0.41038 0.20552 0.11532 0.0
C687 C 0.43557 0.20082 0.05488 0.0
C688 C 0.40988 0.23094 0.04337 0.0
H689 H 0.45506 0.16386 0.0978 0.0
H690 H 0.45092 0.18218 0.0366 0.0
S691 S 0.33646 0.28453 0.0993 0.0
N692 N 0.35775 0.25279 0.12657 0.0
N693 N 0.35875 0.27825 0.06064 0.0
C694 C 0.38546 0.24948 0.06864 0.0
C695 C 0.38506 0.23602 0.10444 0.0
loop_
_geom_bond_atom_site_label_1
_geom_bond_atom_site_label_2
_geom_bond_distance
_geom_bond_site_symmetry_2
_ccdc_geom_bond_type
Mn0 O5 2.095 . S
Mn0 O15 2.162 1_455 S
Mn0 O16 2.297 . S
Mn0 O24 2.385 . S
Mn0 O25 2.209 . S
Mn0 O26 2.094 . S
Mn1 O6 2.121 . S
Mn1 N8 2.257 . S
Mn1 N17 2.282 . S
Mn1 O25 2.215 . S
Mn1 O27 2.117 . S
C2 O24 1.234 . S
C2 O25 1.283 . S
C3 O15 1.281 . S
C3 O16 1.236 1_655 S
C4 O26 1.240 . S
C4 O27 1.264 . S
O5 Mn0 2.095 . S
O5 C14 1.250 . S
O6 Mn1 2.121 . S
O6 C14 1.258 . S
C7 N8 1.326 . S
C7 C11 1.460 . S
C7 H13 0.929 . S
N8 Mn1 2.257 . S
N8 C7 1.326 . S
N8 C12 1.362 . S
C9 C10 1.258 . S
C9 C12 1.431 . S
C9 C29 1.449 . S
C10 C9 1.258 . S
C10 C11 1.477 . S
C10 H30 0.931 . S
C11 C7 1.460 . S
C11 C10 1.477 . S
C11 H31 0.930 . S
C12 N8 1.362 . S
C12 C9 1.431 . S
C12 C22 1.476 . S
H13 C7 0.929 . S
C14 O5 1.250 . S
C14 O6 1.258 . S
O15 Mn0 2.162 1_655 S
O15 C3 1.281 . S
O16 Mn0 2.297 . S
O16 C3 1.236 1_455 S
N17 Mn1 2.282 . S
N17 C18 1.328 . S
N17 C22 1.318 . S
C18 N17 1.328 . S
C18 C19 1.457 . S
C18 H23 0.929 . S
C19 C18 1.457 . S
C19 C20 1.291 . S
C19 H32 0.931 . S
C20 C19 1.291 . S
C20 C21 1.373 . S
C20 H33 0.929 . S
C21 C20 1.373 . S
C21 C22 1.396 . S
C21 C28 1.403 . S
C22 C12 1.476 . S
C22 N17 1.318 . S
C22 C21 1.396 . S
H23 C18 0.929 . S
O24 Mn0 2.385 . S
O24 C2 1.234 . S
O25 Mn0 2.209 . S
O25 Mn1 2.215 . S
O25 C2 1.283 . S
O26 Mn0 2.094 . S
O26 C4 1.240 . S
O27 Mn1 2.117 . S
O27 C4 1.264 . S
C28 C21 1.403 . S
C28 C29 1.399 . S
C28 H34 0.929 . S
C29 C9 1.449 . S
C29 C28 1.399 . S
C29 H35 0.930 . S
H30 C10 0.931 . S
H31 C11 0.930 . S
H32 C19 0.931 . S
H33 C20 0.929 . S
H34 C28 0.929 . S
H35 C29 0.930 . S
Mn36 O41 2.095 . S
Mn36 O51 2.162 1_545 S
Mn36 O52 2.297 . S
Mn36 O60 2.385 . S
Mn36 O61 2.209 . S
Mn36 O62 2.094 . S
Mn37 O42 2.121 . S
Mn37 N44 2.257 . S
Mn37 N53 2.282 . S
Mn37 O61 2.215 . S
Mn37 O63 2.117 . S
C38 O60 1.234 . S
C38 O61 1.283 . S
C39 O51 1.281 . S
C39 O52 1.236 1_565 S
C40 O62 1.240 . S
C40 O63 1.264 . S
O41 Mn36 2.095 . S
O41 C50 1.250 . S
O42 Mn37 2.121 . S
O42 C50 1.258 . S
C43 N44 1.326 . S
C43 C47 1.460 . S
C43 H49 0.929 . S
N44 Mn37 2.257 . S
N44 C43 1.326 . S
N44 C48 1.362 . S
C45 C46 1.258 . S
C45 C48 1.431 . S
C45 C65 1.449 . S
C46 C45 1.258 . S
C46 C47 1.477 . S
C46 H66 0.931 . S
C47 C43 1.460 . S
C47 C46 1.477 . S
C47 H67 0.930 . S
C48 N44 1.362 . S
C48 C45 1.431 . S
C48 C58 1.476 . S
H49 C43 0.929 . S
C50 O41 1.250 . S
C50 O42 1.258 . S
O51 Mn36 2.162 1_565 S
O51 C39 1.281 . S
O52 Mn36 2.297 . S
O52 C39 1.236 1_545 S
N53 Mn37 2.282 . S
N53 C54 1.328 . S
N53 C58 1.318 . S
C54 N53 1.328 . S
C54 C55 1.457 . S
C54 H59 0.929 . S
C55 C54 1.457 . S
C55 C56 1.291 . S
C55 H68 0.931 . S
C56 C55 1.291 . S
C56 C57 1.373 . S
C56 H69 0.929 . S
C57 C56 1.373 . S
C57 C58 1.396 . S
C57 C64 1.403 . S
C58 C48 1.476 . S
C58 N53 1.318 . S
C58 C57 1.396 . S
H59 C54 0.929 . S
O60 Mn36 2.385 . S
O60 C38 1.234 . S
O61 Mn36 2.209 . S
O61 Mn37 2.215 . S
O61 C38 1.283 . S
O62 Mn36 2.094 . S
O62 C40 1.240 . S
O63 Mn37 2.117 . S
O63 C40 1.264 . S
C64 C57 1.403 . S
C64 C65 1.399 . S
C64 H70 0.929 . S
C65 C45 1.449 . S
C65 C64 1.399 . S
C65 H71 0.930 . S
H66 C46 0.931 . S
H67 C47 0.930 . S
H68 C55 0.931 . S
H69 C56 0.929 . S
H70 C64 0.929 . S
H71 C65 0.930 . S
Mn72 O77 2.095 . S
Mn72 O87 2.162 . S
Mn72 O88 2.297 . S
Mn72 O96 2.385 . S
Mn72 O97 2.209 . S
Mn72 O98 2.094 . S
Mn73 O78 2.121 . S
Mn73 N80 2.257 . S
Mn73 N89 2.282 . S
Mn73 O97 2.215 . S
Mn73 O99 2.117 . S
C74 O96 1.234 . S
C74 O97 1.283 . S
C75 O87 1.281 . S
C75 O88 1.236 . S
C76 O98 1.240 . S
C76 O99 1.264 . S
O77 Mn72 2.095 . S
O77 C86 1.250 . S
O78 Mn73 2.121 . S
O78 C86 1.258 . S
C79 N80 1.326 . S
C79 C83 1.460 . S
C79 H85 0.929 . S
N80 Mn73 2.257 . S
N80 C79 1.326 . S
N80 C84 1.362 . S
C81 C82 1.258 . S
C81 C84 1.431 . S
C81 C101 1.449 . S
C82 C81 1.258 . S
C82 C83 1.477 . S
C82 H102 0.931 . S
C83 C79 1.460 . S
C83 C82 1.477 . S
C83 H103 0.930 . S
C84 N80 1.362 . S
C84 C81 1.431 . S
C84 C94 1.476 . S
H85 C79 0.929 . S
C86 O77 1.250 . S
C86 O78 1.258 . S
O87 Mn72 2.162 . S
O87 C75 1.281 . S
O88 Mn72 2.297 . S
O88 C75 1.236 . S
N89 Mn73 2.282 . S
N89 C90 1.328 . S
N89 C94 1.318 . S
C90 N89 1.328 . S
C90 C91 1.457 . S
C90 H95 0.929 . S
C91 C90 1.457 . S
C91 C92 1.291 . S
C91 H104 0.931 . S
C92 C91 1.291 . S
C92 C93 1.373 . S
C92 H105 0.929 . S
C93 C92 1.373 . S
C93 C94 1.396 . S
C93 C100 1.403 . S
C94 C84 1.476 . S
C94 N89 1.318 . S
C94 C93 1.396 . S
H95 C90 0.929 . S
O96 Mn72 2.385 . S
O96 C74 1.234 . S
O97 Mn72 2.209 . S
O97 Mn73 2.215 . S
O97 C74 1.283 . S
O98 Mn72 2.094 . S
O98 C76 1.240 . S
O99 Mn73 2.117 . S
O99 C76 1.264 . S
C100 C93 1.403 . S
C100 C101 1.399 . S
C100 H106 0.929 . S
C101 C81 1.449 . S
C101 C100 1.399 . S
C101 H107 0.930 . S
H102 C82 0.931 . S
H103 C83 0.930 . S
H104 C91 0.931 . S
H105 C92 0.929 . S
H106 C100 0.929 . S
H107 C101 0.930 . S
Mn108 O113 2.095 . S
Mn108 O123 2.162 1_655 S
Mn108 O124 2.297 . S
Mn108 O132 2.385 . S
Mn108 O133 2.209 . S
Mn108 O134 2.094 . S
Mn109 O114 2.121 . S
Mn109 N116 2.257 . S
Mn109 N125 2.282 . S
Mn109 O133 2.215 . S
Mn109 O135 2.117 . S
C110 O132 1.234 . S
C110 O133 1.283 . S
C111 O123 1.281 . S
C111 O124 1.236 1_455 S
C112 O134 1.240 . S
C112 O135 1.264 . S
O113 Mn108 2.095 . S
O113 C122 1.250 . S
O114 Mn109 2.121 . S
O114 C122 1.258 . S
C115 N116 1.326 . S
C115 C119 1.460 . S
C115 H121 0.929 . S
N116 Mn109 2.257 . S
N116 C115 1.326 . S
N116 C120 1.362 . S
C117 C118 1.258 . S
C117 C120 1.431 . S
C117 C137 1.449 . S
C118 C117 1.258 . S
C118 C119 1.477 . S
C118 H138 0.931 . S
C119 C115 1.460 . S
C119 C118 1.477 . S
C119 H139 0.930 . S
C120 N116 1.362 . S
C120 C117 1.431 . S
C120 C130 1.476 . S
H121 C115 0.929 . S
C122 O113 1.250 . S
C122 O114 1.258 . S
O123 Mn108 2.162 1_455 S
O123 C111 1.281 . S
O124 Mn108 2.297 . S
O124 C111 1.236 1_655 S
N125 Mn109 2.282 . S
N125 C126 1.328 . S
N125 C130 1.318 . S
C126 N125 1.328 . S
C126 C127 1.457 . S
C126 H131 0.929 . S
C127 C126 1.457 . S
C127 C128 1.291 . S
C127 H140 0.931 . S
C128 C127 1.291 . S
C128 C129 1.373 . S
C128 H141 0.929 . S
C129 C128 1.373 . S
C129 C130 1.396 . S
C129 C136 1.403 . S
C130 C120 1.476 . S
C130 N125 1.318 . S
C130 C129 1.396 . S
H131 C126 0.929 . S
O132 Mn108 2.385 . S
O132 C110 1.234 . S
O133 Mn108 2.209 . S
O133 Mn109 2.215 . S
O133 C110 1.283 . S
O134 Mn108 2.094 . S
O134 C112 1.240 . S
O135 Mn109 2.117 . S
O135 C112 1.264 . S
C136 C129 1.403 . S
C136 C137 1.399 . S
C136 H142 0.929 . S
C137 C117 1.449 . S
C137 C136 1.399 . S
C137 H143 0.930 . S
H138 C118 0.931 . S
H139 C119 0.930 . S
H140 C127 0.931 . S
H141 C128 0.929 . S
H142 C136 0.929 . S
H143 C137 0.930 . S
Mn144 O149 2.095 . S
Mn144 O159 2.162 1_565 S
Mn144 O160 2.297 . S
Mn144 O168 2.385 . S
Mn144 O169 2.209 . S
Mn144 O170 2.094 . S
Mn145 O150 2.121 . S
Mn145 N152 2.257 . S
Mn145 N161 2.282 . S
Mn145 O169 2.215 . S
Mn145 O171 2.117 . S
C146 O168 1.234 . S
C146 O169 1.283 . S
C147 O159 1.281 . S
C147 O160 1.236 1_545 S
C148 O170 1.240 . S
C148 O171 1.264 . S
O149 Mn144 2.095 . S
O149 C158 1.250 . S
O150 Mn145 2.121 . S
O150 C158 1.258 . S
C151 N152 1.326 . S
C151 C155 1.460 . S
C151 H157 0.929 . S
N152 Mn145 2.257 . S
N152 C151 1.326 . S
N152 C156 1.362 . S
C153 C154 1.258 . S
C153 C156 1.431 . S
C153 C173 1.449 . S
C154 C153 1.258 . S
C154 C155 1.477 . S
C154 H174 0.931 . S
C155 C151 1.460 . S
C155 C154 1.477 . S
C155 H175 0.930 . S
C156 N152 1.362 . S
C156 C153 1.431 . S
C156 C166 1.476 . S
H157 C151 0.929 . S
C158 O149 1.250 . S
C158 O150 1.258 . S
O159 Mn144 2.162 1_545 S
O159 C147 1.281 . S
O160 Mn144 2.297 . S
O160 C147 1.236 1_565 S
N161 Mn145 2.282 . S
N161 C162 1.328 . S
N161 C166 1.318 . S
C162 N161 1.328 . S
C162 C163 1.457 . S
C162 H167 0.929 . S
C163 C162 1.457 . S
C163 C164 1.291 . S
C163 H176 0.931 . S
C164 C163 1.291 . S
C164 C165 1.373 . S
C164 H177 0.929 . S
C165 C164 1.373 . S
C165 C166 1.396 . S
C165 C172 1.403 . S
C166 C156 1.476 . S
C166 N161 1.318 . S
C166 C165 1.396 . S
H167 C162 0.929 . S
O168 Mn144 2.385 . S
O168 C146 1.234 . S
O169 Mn144 2.209 . S
O169 Mn145 2.215 . S
O169 C146 1.283 . S
O170 Mn144 2.094 . S
O170 C148 1.240 . S
O171 Mn145 2.117 . S
O171 C148 1.264 . S
C172 C165 1.403 . S
C172 C173 1.399 . S
C172 H178 0.929 . S
C173 C153 1.449 . S
C173 C172 1.399 . S
C173 H179 0.930 . S
H174 C154 0.931 . S
H175 C155 0.930 . S
H176 C163 0.931 . S
H177 C164 0.929 . S
H178 C172 0.929 . S
H179 C173 0.930 . S
Mn180 O185 2.095 . S
Mn180 O195 2.162 . S
Mn180 O196 2.297 1_556 S
Mn180 O204 2.385 1_556 S
Mn180 O205 2.209 1_556 S
Mn180 O206 2.094 . S
Mn181 O186 2.121 . S
Mn181 N188 2.257 1_556 S
Mn181 N197 2.282 . S
Mn181 O205 2.215 1_556 S
Mn181 O207 2.117 . S
C182 O204 1.234 . S
C182 O205 1.283 . S
C183 O195 1.281 . S
C183 O196 1.236 1_556 S
C184 O206 1.240 . S
C184 O207 1.264 . S
O185 Mn180 2.095 . S
O185 C194 1.250 . S
O186 Mn181 2.121 . S
O186 C194 1.258 . S
C187 N188 1.326 . S
C187 C191 1.460 . S
C187 H193 0.929 1_554 S
N188 Mn181 2.257 1_554 S
N188 C187 1.326 . S
N188 C192 1.362 . S
C189 C190 1.258 . S
C189 C192 1.431 . S
C189 C209 1.449 . S
C190 C189 1.258 . S
C190 C191 1.477 . S
C190 H210 0.931 . S
C191 C187 1.460 . S
C191 C190 1.477 . S
C191 H211 0.930 . S
C192 N188 1.362 . S
C192 C189 1.431 . S
C192 C202 1.476 . S
H193 C187 0.929 1_556 S
C194 O185 1.250 . S
C194 O186 1.258 . S
O195 Mn180 2.162 . S
O195 C183 1.281 . S
O196 Mn180 2.297 1_554 S
O196 C183 1.236 1_554 S
N197 Mn181 2.282 . S
N197 C198 1.328 . S
N197 C202 1.318 1_556 S
C198 N197 1.328 . S
C198 C199 1.457 1_556 S
C198 H203 0.929 . S
C199 C198 1.457 1_554 S
C199 C200 1.291 . S
C199 H212 0.931 . S
C200 C199 1.291 . S
C200 C201 1.373 . S
C200 H213 0.929 . S
C201 C200 1.373 . S
C201 C202 1.396 . S
C201 C208 1.403 . S
C202 C192 1.476 . S
C202 N197 1.318 1_554 S
C202 C201 1.396 . S
H203 C198 0.929 . S
O204 Mn180 2.385 1_554 S
O204 C182 1.234 . S
O205 Mn180 2.209 1_554 S
O205 Mn181 2.215 1_554 S
O205 C182 1.283 . S
O206 Mn180 2.094 . S
O206 C184 1.240 . S
O207 Mn181 2.117 . S
O207 C184 1.264 . S
C208 C201 1.403 . S
C208 C209 1.399 . S
C208 H214 0.929 . S
C209 C189 1.449 . S
C209 C208 1.399 . S
C209 H215 0.930 . S
H210 C190 0.931 . S
H211 C191 0.930 . S
H212 C199 0.931 . S
H213 C200 0.929 . S
H214 C208 0.929 . S
H215 C209 0.930 . S
Mn216 O221 2.095 . S
Mn216 O231 2.162 1_565 S
Mn216 O232 2.297 . S
Mn216 O240 2.385 . S
Mn216 O241 2.209 . S
Mn216 O242 2.094 . S
Mn217 O222 2.121 . S
Mn217 N224 2.257 . S
Mn217 N233 2.282 . S
Mn217 O241 2.215 . S
Mn217 O243 2.117 . S
C218 O240 1.234 . S
C218 O241 1.283 . S
C219 O231 1.281 . S
C219 O232 1.236 1_545 S
C220 O242 1.240 . S
C220 O243 1.264 . S
O221 Mn216 2.095 . S
O221 C230 1.250 . S
O222 Mn217 2.121 . S
O222 C230 1.258 . S
C223 N224 1.326 . S
C223 C227 1.460 . S
C223 H229 0.929 . S
N224 Mn217 2.257 . S
N224 C223 1.326 . S
N224 C228 1.362 . S
C225 C226 1.258 . S
C225 C228 1.431 . S
C225 C245 1.449 . S
C226 C225 1.258 . S
C226 C227 1.477 . S
C226 H246 0.931 . S
C227 C223 1.460 . S
C227 C226 1.477 . S
C227 H247 0.930 . S
C228 N224 1.362 . S
C228 C225 1.431 . S
C228 C238 1.476 . S
H229 C223 0.929 . S
C230 O221 1.250 . S
C230 O222 1.258 . S
O231 Mn216 2.162 1_545 S
O231 C219 1.281 . S
O232 Mn216 2.297 . S
O232 C219 1.236 1_565 S
N233 Mn217 2.282 . S
N233 C234 1.328 . S
N233 C238 1.318 . S
C234 N233 1.328 . S
C234 C235 1.457 . S
C234 H239 0.929 . S
C235 C234 1.457 . S
C235 C236 1.291 . S
C235 H248 0.931 . S
C236 C235 1.291 . S
C236 C237 1.373 . S
C236 H249 0.929 . S
C237 C236 1.373 . S
C237 C238 1.396 . S
C237 C244 1.403 . S
C238 C228 1.476 . S
C238 N233 1.318 . S
C238 C237 1.396 . S
H239 C234 0.929 . S
O240 Mn216 2.385 . S
O240 C218 1.234 . S
O241 Mn216 2.209 . S
O241 Mn217 2.215 . S
O241 C218 1.283 . S
O242 Mn216 2.094 . S
O242 C220 1.240 . S
O243 Mn217 2.117 . S
O243 C220 1.264 . S
C244 C237 1.403 . S
C244 C245 1.399 . S
C244 H250 0.929 . S
C245 C225 1.449 . S
C245 C244 1.399 . S
C245 H251 0.930 . S
H246 C226 0.931 . S
H247 C227 0.930 . S
H248 C235 0.931 . S
H249 C236 0.929 . S
H250 C244 0.929 . S
H251 C245 0.930 . S
Mn252 O257 2.095 . S
Mn252 O267 2.162 . S
Mn252 O268 2.297 . S
Mn252 O276 2.385 . S
Mn252 O277 2.209 . S
Mn252 O278 2.094 . S
Mn253 O258 2.121 . S
Mn253 N260 2.257 . S
Mn253 N269 2.282 . S
Mn253 O277 2.215 . S
Mn253 O279 2.117 . S
C254 O276 1.234 . S
C254 O277 1.283 . S
C255 O267 1.281 . S
C255 O268 1.236 . S
C256 O278 1.240 . S
C256 O279 1.264 . S
O257 Mn252 2.095 . S
O257 C266 1.250 . S
O258 Mn253 2.121 . S
O258 C266 1.258 . S
C259 N260 1.326 . S
C259 C263 1.460 . S
C259 H265 0.929 . S
N260 Mn253 2.257 . S
N260 C259 1.326 . S
N260 C264 1.362 . S
C261 C262 1.258 . S
C261 C264 1.431 . S
C261 C281 1.449 . S
C262 C261 1.258 . S
C262 C263 1.477 . S
C262 H282 0.931 . S
C263 C259 1.460 . S
C263 C262 1.477 . S
C263 H283 0.930 . S
C264 N260 1.362 . S
C264 C261 1.431 . S
C264 C274 1.476 . S
H265 C259 0.929 . S
C266 O257 1.250 . S
C266 O258 1.258 . S
O267 Mn252 2.162 . S
O267 C255 1.281 . S
O268 Mn252 2.297 . S
O268 C255 1.236 . S
N269 Mn253 2.282 . S
N269 C270 1.328 . S
N269 C274 1.318 . S
C270 N269 1.328 . S
C270 C271 1.457 . S
C270 H275 0.929 . S
C271 C270 1.457 . S
C271 C272 1.291 . S
C271 H284 0.931 . S
C272 C271 1.291 . S
C272 C273 1.373 . S
C272 H285 0.929 . S
C273 C272 1.373 . S
C273 C274 1.396 . S
C273 C280 1.403 . S
C274 C264 1.476 . S
C274 N269 1.318 . S
C274 C273 1.396 . S
H275 C270 0.929 . S
O276 Mn252 2.385 . S
O276 C254 1.234 . S
O277 Mn252 2.209 . S
O277 Mn253 2.215 . S
O277 C254 1.283 . S
O278 Mn252 2.094 . S
O278 C256 1.240 . S
O279 Mn253 2.117 . S
O279 C256 1.264 . S
C280 C273 1.403 . S
C280 C281 1.399 . S
C280 H286 0.929 . S
C281 C261 1.449 . S
C281 C280 1.399 . S
C281 H287 0.930 . S
H282 C262 0.931 . S
H283 C263 0.930 . S
H284 C271 0.931 . S
H285 C272 0.929 . S
H286 C280 0.929 . S
H287 C281 0.930 . S
Mn288 O293 2.095 . S
Mn288 O303 2.162 1_455 S
Mn288 O304 2.297 1_554 S
Mn288 O312 2.385 1_554 S
Mn288 O313 2.209 1_554 S
Mn288 O314 2.094 . S
Mn289 O294 2.121 . S
Mn289 N296 2.257 1_554 S
Mn289 N305 2.282 . S
Mn289 O313 2.215 1_554 S
Mn289 O315 2.117 . S
C290 O312 1.234 . S
C290 O313 1.283 . S
C291 O303 1.281 . S
C291 O304 1.236 1_654 S
C292 O314 1.240 . S
C292 O315 1.264 . S
O293 Mn288 2.095 . S
O293 C302 1.250 . S
O294 Mn289 2.121 . S
O294 C302 1.258 . S
C295 N296 1.326 . S
C295 C299 1.460 . S
C295 H301 0.929 1_556 S
N296 Mn289 2.257 1_556 S
N296 C295 1.326 . S
N296 C300 1.362 . S
C297 C298 1.258 . S
C297 C300 1.431 . S
C297 C317 1.449 . S
C298 C297 1.258 . S
C298 C299 1.477 . S
C298 H318 0.931 . S
C299 C295 1.460 . S
C299 C298 1.477 . S
C299 H319 0.930 . S
C300 N296 1.362 . S
C300 C297 1.431 . S
C300 C310 1.476 . S
H301 C295 0.929 1_554 S
C302 O293 1.250 . S
C302 O294 1.258 . S
O303 Mn288 2.162 1_655 S
O303 C291 1.281 . S
O304 Mn288 2.297 1_556 S
O304 C291 1.236 1_456 S
N305 Mn289 2.282 . S
N305 C306 1.328 . S
N305 C310 1.318 1_554 S
C306 N305 1.328 . S
C306 C307 1.457 1_554 S
C306 H311 0.929 . S
C307 C306 1.457 1_556 S
C307 C308 1.291 . S
C307 H320 0.931 . S
C308 C307 1.291 . S
C308 C309 1.373 . S
C308 H321 0.929 . S
C309 C308 1.373 . S
C309 C310 1.396 . S
C309 C316 1.403 . S
C310 C300 1.476 . S
C310 N305 1.318 1_556 S
C310 C309 1.396 . S
H311 C306 0.929 . S
O312 Mn288 2.385 1_556 S
O312 C290 1.234 . S
O313 Mn288 2.209 1_556 S
O313 Mn289 2.215 1_556 S
O313 C290 1.283 . S
O314 Mn288 2.094 . S
O314 C292 1.240 . S
O315 Mn289 2.117 . S
O315 C292 1.264 . S
C316 C309 1.403 . S
C316 C317 1.399 . S
C316 H322 0.929 . S
C317 C297 1.449 . S
C317 C316 1.399 . S
C317 H323 0.930 . S
H318 C298 0.931 . S
H319 C299 0.930 . S
H320 C307 0.931 . S
H321 C308 0.929 . S
H322 C316 0.929 . S
H323 C317 0.930 . S
Mn324 O329 2.095 . S
Mn324 O339 2.162 1_545 S
Mn324 O340 2.297 . S
Mn324 O348 2.385 . S
Mn324 O349 2.209 . S
Mn324 O350 2.094 . S
Mn325 O330 2.121 . S
Mn325 N332 2.257 . S
Mn325 N341 2.282 . S
Mn325 O349 2.215 . S
Mn325 O351 2.117 . S
C326 O348 1.234 . S
C326 O349 1.283 . S
C327 O339 1.281 . S
C327 O340 1.236 1_565 S
C328 O350 1.240 . S
C328 O351 1.264 . S
O329 Mn324 2.095 . S
O329 C338 1.250 . S
O330 Mn325 2.121 . S
O330 C338 1.258 . S
C331 N332 1.326 . S
C331 C335 1.460 . S
C331 H337 0.929 . S
N332 Mn325 2.257 . S
N332 C331 1.326 . S
N332 C336 1.362 . S
C333 C334 1.258 . S
C333 C336 1.431 . S
C333 C353 1.449 . S
C334 C333 1.258 . S
C334 C335 1.477 . S
C334 H354 0.931 . S
C335 C331 1.460 . S
C335 C334 1.477 . S
C335 H355 0.930 . S
C336 N332 1.362 . S
C336 C333 1.431 . S
C336 C346 1.476 . S
H337 C331 0.929 . S
C338 O329 1.250 . S
C338 O330 1.258 . S
O339 Mn324 2.162 1_565 S
O339 C327 1.281 . S
O340 Mn324 2.297 . S
O340 C327 1.236 1_545 S
N341 Mn325 2.282 . S
N341 C342 1.328 . S
N341 C346 1.318 . S
C342 N341 1.328 . S
C342 C343 1.457 . S
C342 H347 0.929 . S
C343 C342 1.457 . S
C343 C344 1.291 . S
C343 H356 0.931 . S
C344 C343 1.291 . S
C344 C345 1.373 . S
C344 H357 0.929 . S
C345 C344 1.373 . S
C345 C346 1.396 . S
C345 C352 1.403 . S
C346 C336 1.476 . S
C346 N341 1.318 . S
C346 C345 1.396 . S
H347 C342 0.929 . S
O348 Mn324 2.385 . S
O348 C326 1.234 . S
O349 Mn324 2.209 . S
O349 Mn325 2.215 . S
O349 C326 1.283 . S
O350 Mn324 2.094 . S
O350 C328 1.240 . S
O351 Mn325 2.117 . S
O351 C328 1.264 . S
C352 C345 1.403 . S
C352 C353 1.399 . S
C352 H358 0.929 . S
C353 C333 1.449 . S
C353 C352 1.399 . S
C353 H359 0.930 . S
H354 C334 0.931 . S
H355 C335 0.930 . S
H356 C343 0.931 . S
H357 C344 0.929 . S
H358 C352 0.929 . S
H359 C353 0.930 . S
Mn360 O365 2.095 . S
Mn360 O375 2.162 . S
Mn360 O376 2.297 . S
Mn360 O384 2.385 . S
Mn360 O385 2.209 . S
Mn360 O386 2.094 . S
Mn361 O366 2.121 . S
Mn361 N368 2.257 . S
Mn361 N377 2.282 . S
Mn361 O385 2.215 . S
Mn361 O387 2.117 . S
C362 O384 1.234 . S
C362 O385 1.283 . S
C363 O375 1.281 . S
C363 O376 1.236 . S
C364 O386 1.240 . S
C364 O387 1.264 . S
O365 Mn360 2.095 . S
O365 C374 1.250 . S
O366 Mn361 2.121 . S
O366 C374 1.258 . S
C367 N368 1.326 . S
C367 C371 1.460 . S
C367 H373 0.929 . S
N368 Mn361 2.257 . S
N368 C367 1.326 . S
N368 C372 1.362 . S
C369 C370 1.258 . S
C369 C372 1.431 . S
C369 C389 1.449 . S
C370 C369 1.258 . S
C370 C371 1.477 . S
C370 H390 0.931 . S
C371 C367 1.460 . S
C371 C370 1.477 . S
C371 H391 0.930 . S
C372 N368 1.362 . S
C372 C369 1.431 . S
C372 C382 1.476 . S
H373 C367 0.929 . S
C374 O365 1.250 . S
C374 O366 1.258 . S
O375 Mn360 2.162 . S
O375 C363 1.281 . S
O376 Mn360 2.297 . S
O376 C363 1.236 . S
N377 Mn361 2.282 . S
N377 C378 1.328 . S
N377 C382 1.318 . S
C378 N377 1.328 . S
C378 C379 1.457 . S
C378 H383 0.929 . S
C379 C378 1.457 . S
C379 C380 1.291 . S
C379 H392 0.931 . S
C380 C379 1.291 . S
C380 C381 1.373 . S
C380 H393 0.929 . S
C381 C380 1.373 . S
C381 C382 1.396 . S
C381 C388 1.403 . S
C382 C372 1.476 . S
C382 N377 1.318 . S
C382 C381 1.396 . S
H383 C378 0.929 . S
O384 Mn360 2.385 . S
O384 C362 1.234 . S
O385 Mn360 2.209 . S
O385 Mn361 2.215 . S
O385 C362 1.283 . S
O386 Mn360 2.094 . S
O386 C364 1.240 . S
O387 Mn361 2.117 . S
O387 C364 1.264 . S
C388 C381 1.403 . S
C388 C389 1.399 . S
C388 H394 0.929 . S
C389 C369 1.449 . S
C389 C388 1.399 . S
C389 H395 0.930 . S
H390 C370 0.931 . S
H391 C371 0.930 . S
H392 C379 0.931 . S
H393 C380 0.929 . S
H394 C388 0.929 . S
H395 C389 0.930 . S
Mn396 O401 2.095 . S
Mn396 O411 2.162 1_655 S
Mn396 O412 2.297 . S
Mn396 O420 2.385 . S
Mn396 O421 2.209 . S
Mn396 O422 2.094 . S
Mn397 O402 2.121 . S
Mn397 N404 2.257 . S
Mn397 N413 2.282 . S
Mn397 O421 2.215 . S
Mn397 O423 2.117 . S
C398 O420 1.234 . S
C398 O421 1.283 . S
C399 O411 1.281 . S
C399 O412 1.236 1_455 S
C400 O422 1.240 . S
C400 O423 1.264 . S
O401 Mn396 2.095 . S
O401 C410 1.250 . S
O402 Mn397 2.121 . S
O402 C410 1.258 . S
C403 N404 1.326 . S
C403 C407 1.460 . S
C403 H409 0.929 . S
N404 Mn397 2.257 . S
N404 C403 1.326 . S
N404 C408 1.362 . S
C405 C406 1.258 . S
C405 C408 1.431 . S
C405 C425 1.449 . S
C406 C405 1.258 . S
C406 C407 1.477 . S
C406 H426 0.931 . S
C407 C403 1.460 . S
C407 C406 1.477 . S
C407 H427 0.930 . S
C408 N404 1.362 . S
C408 C405 1.431 . S
C408 C418 1.476 . S
H409 C403 0.929 . S
C410 O401 1.250 . S
C410 O402 1.258 . S
O411 Mn396 2.162 1_455 S
O411 C399 1.281 . S
O412 Mn396 2.297 . S
O412 C399 1.236 1_655 S
N413 Mn397 2.282 . S
N413 C414 1.328 . S
N413 C418 1.318 . S
C414 N413 1.328 . S
C414 C415 1.457 . S
C414 H419 0.929 . S
C415 C414 1.457 . S
C415 C416 1.291 . S
C415 H428 0.931 . S
C416 C415 1.291 . S
C416 C417 1.373 . S
C416 H429 0.929 . S
C417 C416 1.373 . S
C417 C418 1.396 . S
C417 C424 1.403 . S
C418 C408 1.476 . S
C418 N413 1.318 . S
C418 C417 1.396 . S
H419 C414 0.929 . S
O420 Mn396 2.385 . S
O420 C398 1.234 . S
O421 Mn396 2.209 . S
O421 Mn397 2.215 . S
O421 C398 1.283 . S
O422 Mn396 2.094 . S
O422 C400 1.240 . S
O423 Mn397 2.117 . S
O423 C400 1.264 . S
C424 C417 1.403 . S
C424 C425 1.399 . S
C424 H430 0.929 . S
C425 C405 1.449 . S
C425 C424 1.399 . S
C425 H431 0.930 . S
H426 C406 0.931 . S
H427 C407 0.930 . S
H428 C415 0.931 . S
H429 C416 0.929 . S
H430 C424 0.929 . S
H431 C425 0.930 . S
C432 C433 1.369 . S
C432 C434 1.419 . S
C432 H436 0.930 . S
C433 C432 1.369 . S
C433 C442 1.429 . S
C434 C432 1.419 . S
C434 C435 1.363 . S
C434 H437 0.929 . S
C435 C434 1.363 . S
C435 C441 1.428 . S
H436 C432 0.930 . S
H437 C434 0.929 . S
S438 N439 1.613 . S
S438 N440 1.610 . S
N439 S438 1.613 . S
N439 C442 1.350 . S
N440 S438 1.610 . S
N440 C441 1.351 . S
C441 C435 1.428 . S
C441 N440 1.351 . S
C441 C442 1.434 . S
C442 C433 1.429 . S
C442 N439 1.350 . S
C442 C441 1.434 . S
C443 C444 1.369 . S
C443 C445 1.419 . S
C443 H447 0.930 . S
C444 C443 1.369 . S
C444 C453 1.429 . S
C445 C443 1.419 . S
C445 C446 1.363 . S
C445 H448 0.929 . S
C446 C445 1.363 . S
C446 C452 1.428 . S
H447 C443 0.930 . S
H448 C445 0.929 . S
S449 N450 1.613 . S
S449 N451 1.610 . S
N450 S449 1.613 . S
N450 C453 1.350 . S
N451 S449 1.610 . S
N451 C452 1.351 . S
C452 C446 1.428 . S
C452 N451 1.351 . S
C452 C453 1.434 . S
C453 C444 1.429 . S
C453 N450 1.350 . S
C453 C452 1.434 . S
C454 C455 1.369 . S
C454 C456 1.419 . S
C454 H458 0.930 . S
C455 C454 1.369 . S
C455 C464 1.429 . S
C456 C454 1.419 . S
C456 C457 1.363 . S
C456 H459 0.929 . S
C457 C456 1.363 . S
C457 C463 1.428 . S
H458 C454 0.930 . S
H459 C456 0.929 . S
S460 N461 1.613 . S
S460 N462 1.610 . S
N461 S460 1.613 . S
N461 C464 1.350 . S
N462 S460 1.610 . S
N462 C463 1.351 . S
C463 C457 1.428 . S
C463 N462 1.351 . S
C463 C464 1.434 . S
C464 C455 1.429 . S
C464 N461 1.350 . S
C464 C463 1.434 . S
C465 C466 1.369 . S
C465 C467 1.419 . S
C465 H469 0.930 . S
C466 C465 1.369 . S
C466 C475 1.429 . S
C467 C465 1.419 . S
C467 C468 1.363 . S
C467 H470 0.929 . S
C468 C467 1.363 . S
C468 C474 1.428 . S
H469 C465 0.930 . S
H470 C467 0.929 . S
S471 N472 1.613 1_455 S
S471 N473 1.610 1_455 S
N472 S471 1.613 1_655 S
N472 C475 1.350 . S
N473 S471 1.610 1_655 S
N473 C474 1.351 . S
C474 C468 1.428 . S
C474 N473 1.351 . S
C474 C475 1.434 . S
C475 C466 1.429 . S
C475 N472 1.350 . S
C475 C474 1.434 . S
C476 C477 1.369 . S
C476 C478 1.419 . S
C476 H480 0.930 . S
C477 C476 1.369 . S
C477 C486 1.429 . S
C478 C476 1.419 . S
C478 C479 1.363 . S
C478 H481 0.929 . S
C479 C478 1.363 . S
C479 C485 1.428 . S
H480 C476 0.930 . S
H481 C478 0.929 . S
S482 N483 1.613 . S
S482 N484 1.610 . S
N483 S482 1.613 . S
N483 C486 1.350 . S
N484 S482 1.610 . S
N484 C485 1.351 . S
C485 C479 1.428 . S
C485 N484 1.351 . S
C485 C486 1.434 . S
C486 C477 1.429 . S
C486 N483 1.350 . S
C486 C485 1.434 . S
C487 C488 1.369 . S
C487 C489 1.419 . S
C487 H491 0.930 . S
C488 C487 1.369 . S
C488 C497 1.429 . S
C489 C487 1.419 . S
C489 C490 1.363 . S
C489 H492 0.929 . S
C490 C489 1.363 . S
C490 C496 1.428 . S
H491 C487 0.930 . S
H492 C489 0.929 . S
S493 N494 1.613 . S
S493 N495 1.610 . S
N494 S493 1.613 . S
N494 C497 1.350 . S
N495 S493 1.610 . S
N495 C496 1.351 . S
C496 C490 1.428 . S
C496 N495 1.351 . S
C496 C497 1.434 . S
C497 C488 1.429 . S
C497 N494 1.350 . S
C497 C496 1.434 . S
C498 C499 1.369 . S
C498 C500 1.419 . S
C498 H502 0.930 . S
C499 C498 1.369 . S
C499 C508 1.429 . S
C500 C498 1.419 . S
C500 C501 1.363 . S
C500 H503 0.929 . S
C501 C500 1.363 . S
C501 C507 1.436 . S
H502 C498 0.930 . S
H503 C500 0.929 . S
S504 N505 1.613 1_556 S
S504 N506 1.610 . S
N505 S504 1.613 1_554 S
N505 C508 1.350 . S
N506 S504 1.610 . S
N506 C507 1.331 1_556 S
C507 C501 1.436 . S
C507 N506 1.331 1_554 S
C507 C508 1.447 . S
C508 C499 1.429 . S
C508 N505 1.350 . S
C508 C507 1.447 . S
C509 C510 1.369 . S
C509 C511 1.419 . S
C509 H513 0.930 . S
C510 C509 1.369 . S
C510 C519 1.429 . S
C511 C509 1.419 . S
C511 C512 1.363 . S
C511 H514 0.929 . S
C512 C511 1.363 . S
C512 C518 1.428 . S
H513 C509 0.930 . S
H514 C511 0.929 . S
S515 N516 1.613 . S
S515 N517 1.610 . S
N516 S515 1.613 . S
N516 C519 1.350 . S
N517 S515 1.610 . S
N517 C518 1.351 . S
C518 C512 1.428 . S
C518 N517 1.351 . S
C518 C519 1.434 . S
C519 C510 1.429 . S
C519 N516 1.350 . S
C519 C518 1.434 . S
C520 C521 1.369 . S
C520 C522 1.419 . S
C520 H524 0.930 . S
C521 C520 1.369 . S
C521 C530 1.429 . S
C522 C520 1.419 . S
C522 C523 1.363 . S
C522 H525 0.929 . S
C523 C522 1.363 . S
C523 C529 1.428 . S
H524 C520 0.930 . S
H525 C522 0.929 . S
S526 N527 1.613 . S
S526 N528 1.610 . S
N527 S526 1.613 . S
N527 C530 1.350 . S
N528 S526 1.610 . S
N528 C529 1.351 . S
C529 C523 1.428 . S
C529 N528 1.351 . S
C529 C530 1.434 . S
C530 C521 1.429 . S
C530 N527 1.350 . S
C530 C529 1.434 . S
C531 C532 1.369 . S
C531 C533 1.419 . S
C531 H535 0.930 . S
C532 C531 1.369 . S
C532 C541 1.429 . S
C533 C531 1.419 . S
C533 C534 1.363 . S
C533 H536 0.929 . S
C534 C533 1.363 . S
C534 C540 1.428 . S
H535 C531 0.930 . S
H536 C533 0.929 . S
S537 N538 1.613 . S
S537 N539 1.610 . S
N538 S537 1.613 . S
N538 C541 1.350 . S
N539 S537 1.610 . S
N539 C540 1.351 . S
C540 C534 1.428 . S
C540 N539 1.351 . S
C540 C541 1.434 . S
C541 C532 1.429 . S
C541 N538 1.350 . S
C541 C540 1.434 . S
C542 C543 1.369 . S
C542 C544 1.419 . S
C542 H546 0.930 . S
C543 C542 1.369 . S
C543 C552 1.429 . S
C544 C542 1.419 . S
C544 C545 1.363 . S
C544 H547 0.929 . S
C545 C544 1.363 . S
C545 C551 1.428 . S
H546 C542 0.930 . S
H547 C544 0.929 . S
S548 N549 1.613 . S
S548 N550 1.610 . S
N549 S548 1.613 . S
N549 C552 1.350 . S
N550 S548 1.610 . S
N550 C551 1.351 . S
C551 C545 1.428 . S
C551 N550 1.351 . S
C551 C552 1.434 . S
C552 C543 1.429 . S
C552 N549 1.350 . S
C552 C551 1.434 . S
C553 C554 1.369 . S
C553 C555 1.419 . S
C553 H557 0.930 . S
C554 C553 1.369 . S
C554 C563 1.429 . S
C555 C553 1.419 . S
C555 C556 1.363 . S
C555 H558 0.929 . S
C556 C555 1.363 . S
C556 C562 1.428 . S
H557 C553 0.930 . S
H558 C555 0.929 . S
S559 N560 1.613 . S
S559 N561 1.610 . S
N560 S559 1.613 . S
N560 C563 1.350 . S
N561 S559 1.610 . S
N561 C562 1.351 . S
C562 C556 1.428 . S
C562 N561 1.351 . S
C562 C563 1.434 . S
C563 C554 1.429 . S
C563 N560 1.350 . S
C563 C562 1.434 . S
C564 C565 1.369 . S
C564 C566 1.419 . S
C564 H568 0.930 . S
C565 C564 1.369 . S
C565 C574 1.429 . S
C566 C564 1.419 . S
C566 C567 1.363 . S
C566 H569 0.929 . S
C567 C566 1.363 . S
C567 C573 1.428 . S
H568 C564 0.930 . S
H569 C566 0.929 . S
S570 N571 1.613 . S
S570 N572 1.610 . S
N571 S570 1.613 . S
N571 C574 1.350 . S
N572 S570 1.610 . S
N572 C573 1.351 . S
C573 C567 1.428 . S
C573 N572 1.351 . S
C573 C574 1.434 . S
C574 C565 1.429 . S
C574 N571 1.350 . S
C574 C573 1.434 . S
C575 C576 1.369 . S
C575 C577 1.419 . S
C575 H579 0.930 . S
C576 C575 1.369 . S
C576 C585 1.429 . S
C577 C575 1.419 . S
C577 C578 1.363 . S
C577 H580 0.929 . S
C578 C577 1.363 . S
C578 C584 1.428 . S
H579 C575 0.930 . S
H580 C577 0.929 . S
S581 N582 1.613 . S
S581 N583 1.610 . S
N582 S581 1.613 . S
N582 C585 1.350 . S
N583 S581 1.610 . S
N583 C584 1.351 . S
C584 C578 1.428 . S
C584 N583 1.351 . S
C584 C585 1.434 . S
C585 C576 1.429 . S
C585 N582 1.350 . S
C585 C584 1.434 . S
C586 C587 1.369 . S
C586 C588 1.419 . S
C586 H590 0.930 . S
C587 C586 1.369 . S
C587 C596 1.429 . S
C588 C586 1.419 . S
C588 C589 1.363 . S
C588 H591 0.929 . S
C589 C588 1.363 . S
C589 C595 1.428 . S
H590 C586 0.930 . S
H591 C588 0.929 . S
S592 N593 1.613 . S
S592 N594 1.610 . S
N593 S592 1.613 . S
N593 C596 1.350 . S
N594 S592 1.610 . S
N594 C595 1.351 . S
C595 C589 1.428 . S
C595 N594 1.351 . S
C595 C596 1.434 . S
C596 C587 1.429 . S
C596 N593 1.350 . S
C596 C595 1.434 . S
C597 C598 1.369 . S
C597 C599 1.419 . S
C597 H601 0.930 . S
C598 C597 1.369 . S
C598 C607 1.429 . S
C599 C597 1.419 . S
C599 C600 1.363 . S
C599 H602 0.929 . S
C600 C599 1.363 . S
C600 C606 1.428 . S
H601 C597 0.930 . S
H602 C599 0.929 . S
S603 N604 1.613 . S
S603 N605 1.610 . S
N604 S603 1.613 . S
N604 C607 1.350 . S
N605 S603 1.610 . S
N605 C606 1.351 . S
C606 C600 1.428 . S
C606 N605 1.351 . S
C606 C607 1.434 . S
C607 C598 1.429 . S
C607 N604 1.350 . S
C607 C606 1.434 . S
C608 C609 1.369 . S
C608 C610 1.419 . S
C608 H612 0.930 . S
C609 C608 1.369 . S
C609 C618 1.429 . S
C610 C608 1.419 . S
C610 C611 1.363 . S
C610 H613 0.929 . S
C611 C610 1.363 . S
C611 C617 1.428 . S
H612 C608 0.930 . S
H613 C610 0.929 . S
S614 N615 1.613 . S
S614 N616 1.610 . S
N615 S614 1.613 . S
N615 C618 1.350 . S
N616 S614 1.610 . S
N616 C617 1.351 . S
C617 C611 1.428 . S
C617 N616 1.351 . S
C617 C618 1.434 . S
C618 C609 1.429 . S
C618 N615 1.350 . S
C618 C617 1.434 . S
C619 C620 1.369 . S
C619 C621 1.419 . S
C619 H623 0.930 . S
C620 C619 1.369 . S
C620 C629 1.429 . S
C621 C619 1.419 . S
C621 C622 1.363 . S
C621 H624 0.929 . S
C622 C621 1.363 . S
C622 C628 1.428 . S
H623 C619 0.930 . S
H624 C621 0.929 . S
S625 N626 1.613 . S
S625 N627 1.610 . S
N626 S625 1.613 . S
N626 C629 1.350 . S
N627 S625 1.610 . S
N627 C628 1.351 . S
C628 C622 1.428 . S
C628 N627 1.351 . S
C628 C629 1.434 . S
C629 C620 1.429 . S
C629 N626 1.350 . S
C629 C628 1.434 . S
C630 C631 1.369 . S
C630 C632 1.419 . S
C630 H634 0.930 . S
C631 C630 1.369 . S
C631 C640 1.429 . S
C632 C630 1.419 . S
C632 C633 1.363 . S
C632 H635 0.929 . S
C633 C632 1.363 . S
C633 C639 1.428 . S
H634 C630 0.930 . S
H635 C632 0.929 . S
S636 N637 1.613 . S
S636 N638 1.610 . S
N637 S636 1.613 . S
N637 C640 1.350 . S
N638 S636 1.610 . S
N638 C639 1.351 . S
C639 C633 1.428 . S
C639 N638 1.351 . S
C639 C640 1.434 . S
C640 C631 1.429 . S
C640 N637 1.350 . S
C640 C639 1.434 . S
C641 C642 1.369 . S
C641 C643 1.419 . S
C641 H645 0.930 . S
C642 C641 1.369 . S
C642 C651 1.429 . S
C643 C641 1.419 . S
C643 C644 1.363 . S
C643 H646 0.929 . S
C644 C643 1.363 . S
C644 C650 1.428 . S
H645 C641 0.930 . S
H646 C643 0.929 . S
S647 N648 1.613 . S
S647 N649 1.610 . S
N648 S647 1.613 . S
N648 C651 1.350 . S
N649 S647 1.610 . S
N649 C650 1.351 . S
C650 C644 1.428 . S
C650 N649 1.351 . S
C650 C651 1.434 . S
C651 C642 1.429 . S
C651 N648 1.350 . S
C651 C650 1.434 . S
C652 C653 1.369 . S
C652 C654 1.419 . S
C652 H656 0.930 . S
C653 C652 1.369 . S
C653 C662 1.429 . S
C654 C652 1.419 . S
C654 C655 1.363 . S
C654 H657 0.929 . S
C655 C654 1.363 . S
C655 C661 1.428 . S
H656 C652 0.930 . S
H657 C654 0.929 . S
S658 N659 1.613 . S
S658 N660 1.610 . S
N659 S658 1.613 . S
N659 C662 1.350 . S
N660 S658 1.610 . S
N660 C661 1.351 . S
C661 C655 1.428 . S
C661 N660 1.351 . S
C661 C662 1.434 . S
C662 C653 1.429 . S
C662 N659 1.350 . S
C662 C661 1.434 . S
C663 C664 1.369 . S
C663 C665 1.419 . S
C663 H667 0.930 . S
C664 C663 1.369 . S
C664 C673 1.429 . S
C665 C663 1.419 . S
C665 C666 1.363 . S
C665 H668 0.929 . S
C666 C665 1.363 . S
C666 C672 1.428 . S
H667 C663 0.930 . S
H668 C665 0.929 . S
S669 N670 1.613 . S
S669 N671 1.610 . S
N670 S669 1.613 . S
N670 C673 1.350 . S
N671 S669 1.610 . S
N671 C672 1.351 . S
C672 C666 1.428 . S
C672 N671 1.351 . S
C672 C673 1.434 . S
C673 C664 1.429 . S
C673 N670 1.350 . S
C673 C672 1.434 . S
C674 C675 1.369 . S
C674 C676 1.419 . S
C674 H678 0.930 . S
C675 C674 1.369 . S
C675 C684 1.429 . S
C676 C674 1.419 . S
C676 C677 1.363 . S
C676 H679 0.929 . S
C677 C676 1.363 . S
C677 C683 1.428 . S
H678 C674 0.930 . S
H679 C676 0.929 . S
S680 N681 1.613 . S
S680 N682 1.610 . S
N681 S680 1.613 . S
N681 C684 1.350 . S
N682 S680 1.610 . S
N682 C683 1.351 . S
C683 C677 1.428 . S
C683 N682 1.351 . S
C683 C684 1.434 . S
C684 C675 1.429 . S
C684 N681 1.350 . S
C684 C683 1.434 . S
C685 C686 1.369 . S
C685 C687 1.419 . S
C685 H689 0.930 . S
C686 C685 1.369 . S
C686 C695 1.429 . S
C687 C685 1.419 . S
C687 C688 1.363 . S
C687 H690 0.929 . S
C688 C687 1.363 . S
C688 C694 1.428 . S
H689 C685 0.930 . S
H690 C687 0.929 . S
S691 N692 1.613 . S
S691 N693 1.610 . S
N692 S691 1.613 . S
N692 C695 1.350 . S
N693 S691 1.610 . S
N693 C694 1.351 . S
C694 C688 1.428 . S
C694 N693 1.351 . S
C694 C695 1.434 . S
C695 C686 1.429 . S
C695 N692 1.350 . S
C695 C694 1.434 . S
C433 C302 1.282 . S
C435 C14 1.282 . S
C444 C50 1.280 . S
C446 C338 1.281 . S
C455 C86 1.281 . S
C457 C374 1.282 . S
C466 C122 1.290 . S
C468 C410 1.289 . S
C477 C230 1.284 . S
C479 C158 1.284 . S
C488 C194 1.281 . S
C490 C266 1.282 . S
C499 C4 1.531 . S
C501 C183 1.545 1_554 S
C510 C40 1.525 . S
C512 C3 1.544 . S
C521 C76 1.530 . S
C523 C39 1.545 . S
C532 C75 1.543 . S
C534 C112 1.531 . S
C543 C111 1.546 . S
C545 C148 1.527 . S
C554 C147 1.544 . S
C556 C184 1.526 . S
C565 C255 1.542 . S
C567 C220 1.527 . S
C576 C256 1.527 . S
C578 C291 1.545 1_556 S
C587 C327 1.544 . S
C589 C292 1.531 . S
C598 C328 1.528 . S
C600 C363 1.545 . S
C609 C364 1.530 . S
C611 C399 1.542 . S
C620 C400 1.526 . S
C622 C219 1.543 . S
C631 C362 1.312 . S
C633 C2 1.312 . S
C642 C398 1.309 . S
C644 C38 1.310 . S
C653 C218 1.307 . S
C655 C74 1.308 . S
C664 C110 1.313 . S
C666 C254 1.312 . S
C675 C146 1.309 . S
C677 C290 1.309 . S
C686 C326 1.306 . S
C688 C182 1.307 . S
