# Generated by pormake.
# Topology whp, (6)-cn, num edge types: 1
# Building blocks:
#     Node 0, Type 0, BuildingBlock: VOLQOD_clean_sbu_1, # of connection points: 6
#     Node 1, Type 0, BuildingBlock: VOLQOD_clean_sbu_1, # of connection points: 6
#     Node 2, Type 0, BuildingBlock: VOLQOD_clean_sbu_1, # of connection points: 6
#     Node 3, Type 0, BuildingBlock: VOLQOD_clean_sbu_1, # of connection points: 6
#     Node 4, Type 0, BuildingBlock: VOLQOD_clean_sbu_1, # of connection points: 6
#     Node 5, Type 0, BuildingBlock: VOLQOD_clean_sbu_1, # of connection points: 6
#     Node 6, Type 0, BuildingBlock: VOLQOD_clean_sbu_1, # of connection points: 6
#     Node 7, Type 0, BuildingBlock: VOLQOD_clean_sbu_1, # of connection points: 6
#     Node 8, Type 0, BuildingBlock: VOLQOD_clean_sbu_1, # of connection points: 6
#     Node 9, Type 0, BuildingBlock: VOLQOD_clean_sbu_1, # of connection points: 6
#     Node 10, Type 0, BuildingBlock: VOLQOD_clean_sbu_1, # of connection points: 6
#     Node 11, Type 0, BuildingBlock: VOLQOD_clean_sbu_1, # of connection points: 6
#     Node 12, Type 0, BuildingBlock: VOLQOD_clean_sbu_1, # of connection points: 6
#     Node 13, Type 0, BuildingBlock: VOLQOD_clean_sbu_1, # of connection points: 6
#     Node 14, Type 0, BuildingBlock: VOLQOD_clean_sbu_1, # of connection points: 6
#     Node 15, Type 0, BuildingBlock: VOLQOD_clean_sbu_1, # of connection points: 6
#     Edge 16, Type (0, 0), BuildingBlock: UVAHIK_clean_linker_0, # of connection points: 2
#     Edge 17, Type (0, 0), BuildingBlock: UVAHIK_clean_linker_0, # of connection points: 2
#     Edge 18, Type (0, 0), BuildingBlock: UVAHIK_clean_linker_0, # of connection points: 2
#     Edge 19, Type (0, 0), BuildingBlock: UVAHIK_clean_linker_0, # of connection points: 2
#     Edge 20, Type (0, 0), BuildingBlock: UVAHIK_clean_linker_0, # of connection points: 2
#     Edge 21, Type (0, 0), BuildingBlock: UVAHIK_clean_linker_0, # of connection points: 2
#     Edge 22, Type (0, 0), BuildingBlock: UVAHIK_clean_linker_0, # of connection points: 2
#     Edge 23, Type (0, 0), BuildingBlock: UVAHIK_clean_linker_0, # of connection points: 2
#     Edge 24, Type (0, 0), BuildingBlock: UVAHIK_clean_linker_0, # of connection points: 2
#     Edge 25, Type (0, 0), BuildingBlock: UVAHIK_clean_linker_0, # of connection points: 2
#     Edge 26, Type (0, 0), BuildingBlock: UVAHIK_clean_linker_0, # of connection points: 2
#     Edge 27, Type (0, 0), BuildingBlock: UVAHIK_clean_linker_0, # of connection points: 2
#     Edge 28, Type (0, 0), BuildingBlock: UVAHIK_clean_linker_0, # of connection points: 2
#     Edge 29, Type (0, 0), BuildingBlock: UVAHIK_clean_linker_0, # of connection points: 2
#     Edge 30, Type (0, 0), BuildingBlock: UVAHIK_clean_linker_0, # of connection points: 2
#     Edge 31, Type (0, 0), BuildingBlock: UVAHIK_clean_linker_0, # of connection points: 2
#     Edge 32, Type (0, 0), BuildingBlock: UVAHIK_clean_linker_0, # of connection points: 2
#     Edge 33, Type (0, 0), BuildingBlock: UVAHIK_clean_linker_0, # of connection points: 2
#     Edge 34, Type (0, 0), BuildingBlock: UVAHIK_clean_linker_0, # of connection points: 2
#     Edge 35, Type (0, 0), BuildingBlock: UVAHIK_clean_linker_0, # of connection points: 2
#     Edge 36, Type (0, 0), BuildingBlock: UVAHIK_clean_linker_0, # of connection points: 2
#     Edge 37, Type (0, 0), BuildingBlock: UVAHIK_clean_linker_0, # of connection points: 2
#     Edge 38, Type (0, 0), BuildingBlock: UVAHIK_clean_linker_0, # of connection points: 2
#     Edge 39, Type (0, 0), BuildingBlock: UVAHIK_clean_linker_0, # of connection points: 2
#     Edge 40, Type (0, 0), BuildingBlock: UVAHIK_clean_linker_0, # of connection points: 2
#     Edge 41, Type (0, 0), BuildingBlock: UVAHIK_clean_linker_0, # of connection points: 2
#     Edge 42, Type (0, 0), BuildingBlock: UVAHIK_clean_linker_0, # of connection points: 2
#     Edge 43, Type (0, 0), BuildingBlock: UVAHIK_clean_linker_0, # of connection points: 2
#     Edge 44, Type (0, 0), BuildingBlock: UVAHIK_clean_linker_0, # of connection points: 2
#     Edge 45, Type (0, 0), BuildingBlock: UVAHIK_clean_linker_0, # of connection points: 2
#     Edge 46, Type (0, 0), BuildingBlock: UVAHIK_clean_linker_0, # of connection points: 2
#     Edge 47, Type (0, 0), BuildingBlock: UVAHIK_clean_linker_0, # of connection points: 2
#     Edge 48, Type (0, 0), BuildingBlock: UVAHIK_clean_linker_0, # of connection points: 2
#     Edge 49, Type (0, 0), BuildingBlock: UVAHIK_clean_linker_0, # of connection points: 2
#     Edge 50, Type (0, 0), BuildingBlock: UVAHIK_clean_linker_0, # of connection points: 2
#     Edge 51, Type (0, 0), BuildingBlock: UVAHIK_clean_linker_0, # of connection points: 2
#     Edge 52, Type (0, 0), BuildingBlock: UVAHIK_clean_linker_0, # of connection points: 2
#     Edge 53, Type (0, 0), BuildingBlock: UVAHIK_clean_linker_0, # of connection points: 2
#     Edge 54, Type (0, 0), BuildingBlock: UVAHIK_clean_linker_0, # of connection points: 2
#     Edge 55, Type (0, 0), BuildingBlock: UVAHIK_clean_linker_0, # of connection points: 2
#     Edge 56, Type (0, 0), BuildingBlock: UVAHIK_clean_linker_0, # of connection points: 2
#     Edge 57, Type (0, 0), BuildingBlock: UVAHIK_clean_linker_0, # of connection points: 2
#     Edge 58, Type (0, 0), BuildingBlock: UVAHIK_clean_linker_0, # of connection points: 2
#     Edge 59, Type (0, 0), BuildingBlock: UVAHIK_clean_linker_0, # of connection points: 2
#     Edge 60, Type (0, 0), BuildingBlock: UVAHIK_clean_linker_0, # of connection points: 2
#     Edge 61, Type (0, 0), BuildingBlock: UVAHIK_clean_linker_0, # of connection points: 2
#     Edge 62, Type (0, 0), BuildingBlock: UVAHIK_clean_linker_0, # of connection points: 2
#     Edge 63, Type (0, 0), BuildingBlock: UVAHIK_clean_linker_0, # of connection points: 2
# Relax obj value: 0.402
# Max RMSD: 0.252
# Mean RMSD: 0.249
data_MOF--net-whp--node1-VOLQOD_clean_sbu_1--edge1-UVAHIK_clean_linker_0
_symmetry_space_group_name_H-M    P1
_symmetry_Int_Tables_number       1
_symmetry_cell_setting            triclinic
loop_
_symmetry_equiv_pos_as_xyz
'x, y, z'
_cell_length_a     64.727084
_cell_length_b     64.754235
_cell_length_c     36.866135
_cell_angle_alpha  90.013686
_cell_angle_beta   90.012336
_cell_angle_gamma 90.049475
loop_
_atom_site_label
_atom_site_type_symbol
_atom_site_fract_x
_atom_site_fract_y
_atom_site_fract_z
_atom_type_partial_charge
O0 O 0.30644 0.57024 0.34771 0.0
Zn1 Zn 0.2915 0.55986 0.30356 0.0
O2 O 0.29445 0.53018 0.29763 0.0
Zn3 Zn 0.26719 0.51662 0.29583 0.0
Zn4 Zn 0.31049 0.51971 0.33787 0.0
Zn5 Zn 0.30995 0.52484 0.25365 0.0
O6 O 0.26363 0.50095 0.24784 0.0
O7 O 0.29207 0.51032 0.21821 0.0
O8 O 0.26184 0.56755 0.3084 0.0
O9 O 0.24452 0.53829 0.29941 0.0
O10 O 0.26328 0.49783 0.34007 0.0
O11 O 0.29275 0.50274 0.36978 0.0
O12 O 0.33356 0.5017 0.3217 0.0
O13 O 0.3045 0.57537 0.26213 0.0
O14 O 0.33384 0.50584 0.26211 0.0
O15 O 0.32108 0.55093 0.23161 0.0
C16 C 0.31903 0.56165 0.36946 0.0
C17 C 0.27485 0.50085 0.21929 0.0
C18 C 0.27488 0.49469 0.36758 0.0
C19 C 0.24491 0.55766 0.3057 0.0
C20 C 0.34121 0.49779 0.29075 0.0
C21 C 0.31686 0.56987 0.23705 0.0
O22 O 0.32271 0.54239 0.36778 0.0
O23 O 0.9229 0.30608 0.8432 0.0
Zn24 Zn 0.93207 0.29263 0.79684 0.0
O25 O 0.96162 0.29477 0.78915 0.0
Zn26 Zn 0.97423 0.26705 0.7867 0.0
Zn27 Zn 0.97313 0.31026 0.82912 0.0
Zn28 Zn 0.96661 0.31035 0.74483 0.0
O29 O 0.98977 0.2636 0.73851 0.0
O30 O 0.98097 0.29238 0.70932 0.0
O31 O 0.92307 0.26334 0.79674 0.0
O32 O 0.95173 0.24501 0.78876 0.0
O33 O 0.99292 0.2621 0.83082 0.0
O34 O 0.99035 0.29206 0.85981 0.0
O35 O 0.99075 0.33344 0.81233 0.0
O36 O 0.91648 0.30748 0.7581 0.0
O37 O 0.98549 0.33447 0.75301 0.0
O38 O 0.94039 0.32156 0.72286 0.0
C39 C 0.93211 0.3185 0.86448 0.0
C40 C 0.99007 0.27497 0.71012 0.0
C41 C -0.00275 0.27373 0.8578 0.0
C42 C 0.93219 0.24608 0.79314 0.0
C43 C 0.99397 0.34157 0.78149 0.0
C44 C 0.92153 0.31872 0.73123 0.0
O45 O 0.95126 0.32234 0.86096 0.0
O46 O 0.18739 0.92472 0.35952 0.0
Zn47 Zn 0.20167 0.93338 0.31365 0.0
O48 O 0.19774 0.96249 0.30271 0.0
Zn49 Zn 0.22455 0.97695 0.29956 0.0
Zn50 Zn 0.18113 0.97421 0.34105 0.0
Zn51 Zn 0.18241 0.96507 0.25753 0.0
O52 O 0.22758 0.99106 0.24999 0.0
O53 O 0.19967 0.97961 0.22099 0.0
O54 O 0.23156 0.927 0.31901 0.0
O55 O 0.24797 0.95624 0.30558 0.0
O56 O 0.22772 -0.00244 0.3416 0.0
O57 O 0.19781 0.99365 0.37027 0.0
O58 O 0.15697 0.9894 0.32193 0.0
O59 O 0.18898 0.91538 0.27526 0.0
O60 O 0.15684 0.98234 0.26315 0.0
O61 O 0.17338 0.93744 0.23829 0.0
C62 C 0.1745 0.93394 0.37984 0.0
C63 C 0.21647 0.98984 0.22138 0.0
C64 C 0.2156 0.00185 0.36791 0.0
C65 C 0.24817 0.93722 0.31463 0.0
C66 C 0.14887 0.99104 0.2907 0.0
C67 C 0.17748 0.91902 0.24798 0.0
O68 O 0.17003 0.95283 0.37486 0.0
O69 O 0.56174 0.18904 0.85895 0.0
Zn70 Zn 0.55467 0.20297 0.81215 0.0
O71 O 0.52547 0.20064 0.80051 0.0
Zn72 Zn 0.51304 0.22832 0.79538 0.0
Zn73 Zn 0.51203 0.18516 0.83906 0.0
Zn74 Zn 0.5226 0.18517 0.75568 0.0
O75 O 0.49904 0.23151 0.74578 0.0
O76 O 0.50855 0.20237 0.71867 0.0
O77 O 0.56306 0.2324 0.81611 0.0
O78 O 0.53524 0.25049 0.80058 0.0
O79 O 0.49248 0.23335 0.83643 0.0
O80 O 0.49256 0.20338 0.86583 0.0
O81 O 0.49639 0.16089 0.8201 0.0
O82 O 0.57234 0.18881 0.77493 0.0
O83 O 0.50489 0.16011 0.76192 0.0
O84 O 0.54983 0.17518 0.73645 0.0
C85 C 0.55158 0.17739 0.8802 0.0
C86 C 0.49936 0.21972 0.71798 0.0
C87 C 0.48619 0.22186 0.86234 0.0
C88 C 0.55415 0.24958 0.8103 0.0
C89 C 0.49539 0.15252 0.78896 0.0
C90 C 0.56833 0.17793 0.74704 0.0
O91 O 0.53244 0.17396 0.87517 0.0
O92 O 0.80111 0.43133 0.13363 0.0
Zn93 Zn 0.7876 0.43809 0.18082 0.0
O94 O 0.79196 0.46657 0.19509 0.0
Zn95 Zn 0.76528 0.48116 0.19848 0.0
Zn96 Zn 0.80968 0.47938 0.15914 0.0
Zn97 Zn 0.80625 0.46698 0.24141 0.0
O98 O 0.76191 0.49435 0.24897 0.0
O99 O 0.78793 0.47942 0.2786 0.0
O100 O 0.75777 0.43173 0.17641 0.0
O101 O 0.74156 0.46074 0.19131 0.0
O102 O 0.76276 0.50204 0.15699 0.0
O103 O 0.79367 0.50006 0.13089 0.0
O104 O 0.83394 0.4933 0.18174 0.0
O105 O 0.80029 0.41849 0.21635 0.0
O106 O 0.83196 0.4844 0.23969 0.0
O107 O 0.81492 0.43859 0.25767 0.0
C108 C 0.81487 0.44057 0.11517 0.0
C109 C 0.77175 0.49058 0.27833 0.0
C110 C 0.77551 0.50751 0.13231 0.0
C111 C 0.7412 0.44181 0.18162 0.0
C112 C 0.84102 0.49379 0.2139 0.0
C113 C 0.81111 0.42074 0.24488 0.0
O114 O 0.82069 0.45878 0.12321 0.0
O115 O 0.06122 0.80598 0.65497 0.0
Zn116 Zn 0.05207 0.79168 0.70032 0.0
O117 O 0.02287 0.79569 0.70987 0.0
Zn118 Zn 0.00874 0.76872 0.71234 0.0
Zn119 Zn 0.01146 0.81254 0.67122 0.0
Zn120 Zn 0.01981 0.81077 0.75513 0.0
O121 O 0.99383 0.76556 0.76108 0.0
O122 O 0.0049 0.7933 0.79102 0.0
O123 O 0.05875 0.76198 0.69492 0.0
O124 O 0.02962 0.74527 0.70766 0.0
O125 O 0.98917 0.76549 0.66902 0.0
O126 O 0.99252 0.79566 0.6409 0.0
O127 O -0.00401 0.83689 0.69014 0.0
O128 O 0.06959 0.80385 0.73973 0.0
O129 O 0.00267 0.83624 0.74906 0.0
O130 O 0.04719 0.82006 0.77531 0.0
C131 C 0.05239 0.81881 0.63402 0.0
C132 C 0.99469 0.7765 0.78993 0.0
C133 C 0.9849 0.77758 0.64267 0.0
C134 C 0.04873 0.74527 0.69915 0.0
C135 C 0.9942 0.84462 0.72168 0.0
C136 C 0.06567 0.8155 0.76666 0.0
O137 O 0.03346 0.82349 0.63808 0.0
O138 O 0.68739 0.06 0.13749 0.0
Zn139 Zn 0.70358 0.05058 0.18088 0.0
O140 O 0.69696 0.02246 0.19497 0.0
Zn141 Zn 0.72225 0.00549 0.19766 0.0
Zn142 Zn 0.67804 0.01136 0.15945 0.0
Zn143 Zn 0.68288 0.02307 0.24127 0.0
O144 O 0.72506 0.9921 0.24816 0.0
O145 O 0.70014 0.00876 0.27778 0.0
O146 O 0.73348 0.05329 0.17026 0.0
O147 O 0.74752 0.02381 0.1891 0.0
O148 O 0.72251 0.98436 0.15612 0.0
O149 O 0.69247 0.99062 0.12908 0.0
O150 O 0.65357 -0.00177 0.1825 0.0
O151 O 0.69617 0.07081 0.22006 0.0
O152 O 0.65565 0.00812 0.23994 0.0
O153 O 0.67771 0.05199 0.2585 0.0
C154 C 0.67267 0.05169 0.11988 0.0
C155 C 0.71547 -0.00351 0.27751 0.0
C156 C 0.7096 0.98105 0.1305 0.0
C157 C 0.7492 0.04202 0.17614 0.0
C158 C 0.64626 -0.00124 0.21447 0.0
C159 C 0.68483 0.06933 0.24814 0.0
O160 O 0.66699 0.03326 0.12636 0.0
O161 O 0.43152 0.68698 0.64842 0.0
Zn162 Zn 0.44023 0.69846 0.69648 0.0
O163 O 0.46927 0.69403 0.70667 0.0
Zn164 Zn 0.48378 0.72081 0.70983 0.0
Zn165 Zn 0.48058 0.6773 0.66776 0.0
Zn166 Zn 0.47171 0.67867 0.75187 0.0
O167 O 0.49903 0.72319 0.75844 0.0
O168 O 0.48826 0.69494 0.78729 0.0
O169 O 0.43349 0.72821 0.69754 0.0
O170 O 0.46314 0.74454 0.70742 0.0
O171 O 0.50318 0.72425 0.66637 0.0
O172 O 0.50071 0.69376 0.63905 0.0
O173 O 0.49416 0.65164 0.68606 0.0
O174 O 0.4224 0.68448 0.73315 0.0
O175 O 0.48679 0.65206 0.74475 0.0
O176 O 0.44402 0.67102 0.77328 0.0
C177 C 0.44026 0.67427 0.62712 0.0
C178 C 0.49863 0.71165 0.78657 0.0
C179 C 0.50804 0.71197 0.64061 0.0
C180 C 0.44366 0.7448 0.70218 0.0
C181 C 0.4949 0.64339 0.71732 0.0
C182 C 0.42572 0.67424 0.76198 0.0
O183 O 0.45873 0.66835 0.63252 0.0
O184 O 0.68782 0.42692 0.64868 0.0
Zn185 Zn 0.70284 0.4379 0.69204 0.0
O186 O 0.69687 0.46686 0.70108 0.0
Zn187 Zn 0.72266 0.48324 0.70185 0.0
Zn188 Zn 0.67865 0.47656 0.66292 0.0
Zn189 Zn 0.68238 0.46914 0.74706 0.0
O190 O 0.72579 0.49839 0.7505 0.0
O191 O 0.69884 0.48623 0.78133 0.0
O192 O 0.73285 0.43384 0.68349 0.0
O193 O 0.74747 0.46426 0.69519 0.0
O194 O 0.72348 0.50308 0.6584 0.0
O195 O 0.6933 0.49682 0.63188 0.0
O196 O 0.65314 0.48962 0.68263 0.0
O197 O 0.69322 0.41985 0.73286 0.0
O198 O 0.65504 0.48324 0.74157 0.0
O199 O 0.67658 0.44138 0.76929 0.0
C200 C 0.67459 0.43481 0.62736 0.0
C201 C 0.71505 0.49733 0.77957 0.0
C202 C 0.71062 0.5061 0.63262 0.0
C203 C 0.74876 0.44526 0.68632 0.0
C204 C 0.64553 0.49065 0.71436 0.0
C205 C 0.68217 0.42318 0.7608 0.0
O206 O 0.66932 0.45365 0.63022 0.0
O207 O 0.05698 0.68666 0.14717 0.0
Zn208 Zn 0.04909 0.70071 0.19331 0.0
O209 O 0.02039 0.6963 0.20604 0.0
Zn210 Zn 0.00627 0.72325 0.20974 0.0
Zn211 Zn 0.008 0.67916 0.1686 0.0
Zn212 Zn 0.01894 0.6812 0.25164 0.0
O213 O 0.99177 0.72589 0.25906 0.0
O214 O 0.00309 0.69772 0.28749 0.0
O215 O 0.05552 0.73049 0.18813 0.0
O216 O 0.02698 0.74693 0.20498 0.0
O217 O 0.9862 0.72645 0.16713 0.0
O218 O 0.98779 0.6957 0.14033 0.0
O219 O 0.99379 0.65441 0.18901 0.0
O220 O 0.06783 0.68874 0.23084 0.0
O221 O 0.00329 0.65459 0.24675 0.0
O222 O 0.04717 0.67412 0.27135 0.0
C223 C 0.04776 0.67358 0.12723 0.0
C224 C 0.99265 0.71437 0.28719 0.0
C225 C 0.98071 0.714 0.14199 0.0
C226 C 0.04576 0.74712 0.19446 0.0
C227 C 0.99382 0.64622 0.22034 0.0
C228 C 0.06521 0.67833 0.25972 0.0
O229 O 0.02909 0.66849 0.13321 0.0
O230 O 0.79781 0.05809 0.63732 0.0
Zn231 Zn 0.78362 0.04993 0.68341 0.0
O232 O 0.78853 0.02127 0.6961 0.0
Zn233 Zn 0.76222 0.00593 0.69925 0.0
Zn234 Zn 0.80636 0.00946 0.65949 0.0
Zn235 Zn 0.8031 0.02039 0.74196 0.0
O236 O 0.75937 0.99216 0.74934 0.0
O237 O 0.78506 0.00757 0.77915 0.0
O238 O 0.75368 0.0553 0.67789 0.0
O239 O 0.73803 0.02596 0.69323 0.0
O240 O 0.76006 0.98529 0.65703 0.0
O241 O 0.79041 0.98949 0.62983 0.0
O242 O 0.83059 0.995 0.68101 0.0
O243 O 0.79528 0.06926 0.7208 0.0
O244 O 0.82869 0.00306 0.73931 0.0
O245 O 0.81204 0.04854 0.75855 0.0
C246 C 0.81182 0.04933 0.61871 0.0
C247 C 0.76916 -0.004 0.77873 0.0
C248 C 0.77265 0.98111 0.63133 0.0
C249 C 0.73734 0.04484 0.68327 0.0
C250 C 0.8377 0.99404 0.7131 0.0
C251 C 0.80711 0.06656 0.74796 0.0
O252 O 0.81749 0.03094 0.6255 0.0
O253 O 0.42936 0.80649 0.15347 0.0
Zn254 Zn 0.43856 0.79233 0.19908 0.0
O255 O 0.4678 0.79625 0.20872 0.0
Zn256 Zn 0.48193 0.76925 0.21041 0.0
Zn257 Zn 0.47925 0.81342 0.17044 0.0
Zn258 Zn 0.47085 0.81096 0.25442 0.0
O259 O 0.49728 0.76575 0.25885 0.0
O260 O 0.48739 0.79402 0.28857 0.0
O261 O 0.43154 0.76255 0.19564 0.0
O262 O 0.46099 0.74588 0.20543 0.0
O263 O 0.50121 0.76636 0.16678 0.0
O264 O 0.49822 0.79681 0.13949 0.0
O265 O 0.4943 0.83804 0.18989 0.0
O266 O 0.42127 0.80475 0.23824 0.0
O267 O 0.48656 0.83732 0.24842 0.0
O268 O 0.44351 0.81859 0.27695 0.0
C269 C 0.43822 0.81964 0.13312 0.0
C270 C 0.49738 0.77712 0.28723 0.0
C271 C 0.5056 0.77862 0.14073 0.0
C272 C 0.44162 0.74582 0.19899 0.0
C273 C 0.49522 0.84593 0.22145 0.0
C274 C 0.42504 0.81494 0.26697 0.0
O275 O 0.45711 0.82439 0.13766 0.0
O276 O 0.1859 0.56505 0.86231 0.0
Zn277 Zn 0.20052 0.55675 0.8166 0.0
O278 O 0.19655 0.52774 0.80505 0.0
Zn279 Zn 0.22349 0.51365 0.80107 0.0
Zn280 Zn 0.18007 0.51551 0.84321 0.0
Zn281 Zn 0.18091 0.52542 0.76017 0.0
O282 O 0.22616 0.49939 0.75153 0.0
O283 O 0.19752 0.51015 0.72392 0.0
O284 O 0.23044 0.56337 0.82191 0.0
O285 O 0.24681 0.53452 0.80628 0.0
O286 O 0.22711 0.49323 0.84312 0.0
O287 O 0.19693 0.49582 0.87156 0.0
O288 O 0.15598 0.50012 0.82395 0.0
O289 O 0.18811 0.57487 0.77822 0.0
O290 O 0.1551 0.50859 0.76582 0.0
O291 O 0.17263 0.55314 0.74045 0.0
C292 C 0.17308 0.55563 0.88253 0.0
C293 C 0.21438 0.50007 0.72372 0.0
C294 C 0.21494 0.48818 0.86894 0.0
C295 C 0.24705 0.55339 0.8162 0.0
C296 C 0.14752 0.49914 0.79292 0.0
C297 C 0.1769 0.57146 0.75047 0.0
O298 O 0.16886 0.53667 0.87747 0.0
O299 O 0.92247 0.1818 0.34694 0.0
Zn300 Zn 0.9318 0.19537 0.30083 0.0
O301 O 0.96133 0.1922 0.29266 0.0
Zn302 Zn 0.97488 0.21951 0.28911 0.0
Zn303 Zn 0.97268 0.17644 0.33264 0.0
Zn304 Zn 0.9656 0.17627 0.24857 0.0
O305 O 0.99002 0.2224 0.24036 0.0
O306 O 0.98127 0.193 0.21306 0.0
O307 O 0.92421 0.2251 0.30358 0.0
O308 O 0.9533 0.24227 0.2924 0.0
O309 O 0.99447 0.22385 0.33226 0.0
O310 O 0.992 0.19377 0.36104 0.0
O311 O 0.98818 0.15176 0.31601 0.0
O312 O 0.9153 0.18156 0.26155 0.0
O313 O 0.9827 0.15096 0.25678 0.0
O314 O 0.93888 0.16679 0.2265 0.0
C315 C 0.93163 0.1701 0.36947 0.0
C316 C 0.99055 0.21032 0.21294 0.0
C317 C -0.00061 0.2119 0.35846 0.0
C318 C 0.93399 0.24198 0.29936 0.0
C319 C 0.99064 0.1433 0.28524 0.0
C320 C 0.92009 0.17028 0.23456 0.0
O321 O 0.95081 0.16626 0.36656 0.0
O322 O 0.30473 0.92987 0.86296 0.0
Zn323 Zn 0.29198 0.93751 0.81524 0.0
O324 O 0.29537 0.96658 0.80413 0.0
Zn325 Zn 0.2682 0.98021 0.80005 0.0
Zn326 Zn 0.31179 0.97907 0.84211 0.0
Zn327 Zn 0.31069 0.96893 0.75916 0.0
O328 O 0.26527 0.99401 0.74995 0.0
O329 O 0.29233 0.98035 0.72123 0.0
O330 O 0.26238 0.92976 0.81574 0.0
O331 O 0.24519 0.95871 0.80434 0.0
O332 O 0.26412 0.00033 0.84235 0.0
O333 O 0.2945 -0.00145 0.87042 0.0
O334 O 0.3359 0.99463 0.82253 0.0
O335 O 0.30642 0.91963 0.77895 0.0
O336 O 0.33483 0.98811 0.76357 0.0
O337 O 0.32218 0.94177 0.74238 0.0
C338 C 0.31768 0.93924 0.88304 0.0
C339 C 0.27569 0.9908 0.72101 0.0
C340 C 0.27623 0.00564 0.86811 0.0
C341 C 0.24549 0.93936 0.81091 0.0
C342 C 0.34317 -0.00314 0.79075 0.0
C343 C 0.31849 0.92338 0.75254 0.0
O344 O 0.32272 0.95791 0.87693 0.0
O345 O 0.49057 0.27443 0.24438 0.0
Zn346 Zn 0.49741 0.28856 0.29218 0.0
O347 O 0.52746 0.29211 0.29783 0.0
Zn348 Zn 0.53736 0.278 0.34119 0.0
Zn349 Zn 0.54213 0.28142 0.25574 0.0
Zn350 Zn 0.53349 0.32126 0.30243 0.0
O351 O 0.55264 0.29735 0.37494 0.0
O352 O 0.54677 0.32782 0.34961 0.0
O353 O 0.48524 0.2741 0.33616 0.0
O354 O 0.51328 0.26664 0.36871 0.0
O355 O 0.55665 0.25478 0.32893 0.0
O356 O 0.55954 0.25686 0.26904 0.0
O357 O 0.56102 0.30282 0.23284 0.0
O358 O 0.48312 0.31612 0.28941 0.0
O359 O 0.55316 0.33072 0.26472 0.0
O360 O 0.50855 0.33859 0.29733 0.0
C361 C 0.50204 0.27013 0.21725 0.0
C362 C 0.55428 0.31695 0.37506 0.0
C363 C 0.56404 0.24825 0.29907 0.0
C364 C 0.49378 0.26635 0.3642 0.0
C365 C 0.56315 0.32203 0.23933 0.0
C366 C 0.4896 0.33462 0.29192 0.0
O367 O 0.52155 0.27262 0.21847 0.0
C368 C 0.34848 0.56676 0.41226 0.0
C369 C 0.33048 0.57446 0.3958 0.0
C370 C 0.36013 0.57924 0.43533 0.0
C371 C 0.35742 0.62319 0.49599 0.0
H372 H 0.41651 0.62696 0.47969 0.0
C373 C 0.40933 0.67399 0.58634 0.0
C374 C 0.42838 0.66542 0.59665 0.0
C375 C 0.39749 0.66475 0.55914 0.0
C376 C 0.40007 0.62592 0.48486 0.0
H377 H 0.31027 0.60106 0.39136 0.0
H378 H 0.33053 0.62276 0.4325 0.0
H379 H 0.39517 0.60665 0.43844 0.0
H380 H 0.45013 0.64066 0.5861 0.0
H381 H 0.42928 0.62423 0.53956 0.0
H382 H 0.36229 0.64173 0.54317 0.0
C383 C 0.33562 0.60712 0.42714 0.0
C384 C 0.38788 0.61436 0.46116 0.0
C385 C 0.3241 0.59473 0.40359 0.0
C386 C 0.43557 0.64771 0.57866 0.0
C387 C 0.42364 0.63835 0.55177 0.0
C388 C 0.36964 0.63455 0.52001 0.0
C389 C 0.35387 0.59954 0.44279 0.0
C390 C 0.3665 0.61272 0.46677 0.0
C391 C 0.40436 0.64663 0.54193 0.0
C392 C 0.39116 0.63585 0.51495 0.0
H393 H 0.35385 0.55124 0.40675 0.0
H394 H 0.37404 0.573 0.44746 0.0
H395 H 0.34096 0.62202 0.50096 0.0
H396 H 0.40345 0.68774 0.59949 0.0
H397 H 0.38289 0.67175 0.55176 0.0
C398 C 0.84429 0.43618 0.07189 0.0
C399 C 0.82524 0.42929 0.08555 0.0
C400 C 0.85512 0.42431 0.04665 0.0
C401 C 0.85927 0.37053 0.01395 0.0
H402 H 0.89226 0.39547 0.93786 0.0
C403 C 0.8995 0.32429 0.8996 0.0
C404 C 0.92008 0.3298 0.8921 0.0
C405 C 0.88767 0.33605 0.92359 0.0
C406 C 0.88321 0.38834 0.95918 0.0
H407 H 0.80208 0.40511 0.08208 0.0
H408 H 0.82066 0.38476 0.03725 0.0
H409 H 0.87121 0.41737 0.97696 0.0
H410 H 0.9445 0.35171 0.90454 0.0
H411 H 0.92374 0.37227 0.94619 0.0
H412 H 0.87112 0.34146 0.99562 0.0
C413 C 0.82756 0.39899 0.04684 0.0
C414 C 0.87119 0.40085 0.9816 0.0
C415 C 0.81684 0.41074 0.07234 0.0
C416 C 0.9287 0.34704 0.90971 0.0
C417 C 0.91681 0.35891 0.93335 0.0
C418 C 0.87113 0.35801 0.99127 0.0
C419 C 0.84702 0.40542 0.03425 0.0
C420 C 0.85917 0.39211 0.00941 0.0
C421 C 0.89613 0.35366 0.94017 0.0
C422 C 0.88332 0.36683 0.96388 0.0
H423 H 0.85123 0.45036 0.08167 0.0
H424 H 0.87018 0.42962 0.03784 0.0
H425 H 0.85052 0.3633 0.03552 0.0
H426 H 0.89243 0.31108 0.88652 0.0
H427 H 0.87173 0.33174 0.92836 0.0
C428 C 0.05725 0.84718 0.58886 0.0
C429 C 0.06465 0.82916 0.60556 0.0
C430 C 0.06943 0.85776 0.56377 0.0
C431 C 0.12385 0.86383 0.53487 0.0
H432 H 0.09888 0.89164 0.45268 0.0
C433 C 0.16995 0.90223 0.41794 0.0
C434 C 0.16343 0.92216 0.4081 0.0
C435 C 0.15849 0.89056 0.44265 0.0
C436 C 0.10601 0.88403 0.47567 0.0
H437 H 0.0903 0.80766 0.60813 0.0
H438 H 0.11129 0.82576 0.56349 0.0
H439 H 0.07735 0.87097 0.49298 0.0
H440 H 0.14002 0.94563 0.41701 0.0
H441 H 0.11997 0.92512 0.45982 0.0
H442 H 0.1526 0.87668 0.51686 0.0
C443 C 0.09633 0.83207 0.57052 0.0
C444 C 0.0937 0.87225 0.49881 0.0
C445 C 0.08424 0.82162 0.59593 0.0
C446 C 0.14548 0.93034 0.42403 0.0
C447 C 0.13392 0.91857 0.44833 0.0
C448 C 0.1362 0.87542 0.51142 0.0
C449 C 0.08918 0.85042 0.55449 0.0
C450 C 0.10243 0.86217 0.52891 0.0
C451 C 0.1402 0.89852 0.45753 0.0
C452 C 0.12733 0.88578 0.48187 0.0
H453 H 0.04227 0.85347 0.59589 0.0
H454 H 0.06354 0.87201 0.5524 0.0
H455 H 0.13104 0.85656 0.5581 0.0
H456 H 0.18374 0.89553 0.40619 0.0
H457 H 0.1636 0.87509 0.44931 0.0
C458 C 0.55382 0.14894 0.92596 0.0
C459 C 0.56269 0.16635 0.90934 0.0
C460 C 0.56531 0.13703 0.95026 0.0
C461 C 0.61062 0.13729 0.00996 0.0
H462 H 0.61218 0.07848 0.99024 0.0
C463 C 0.66829 0.08365 0.0824 0.0
C464 C 0.661 0.06418 0.09331 0.0
C465 C 0.65643 0.09611 0.05955 0.0
C466 C 0.61172 0.09481 0.99648 0.0
H467 H 0.59016 0.18554 0.90659 0.0
H468 H 0.61007 0.16486 0.94941 0.0
H469 H 0.59019 0.1008 0.95369 0.0
H470 H 0.63566 0.04238 0.08836 0.0
H471 H 0.61482 0.06425 0.04931 0.0
H472 H 0.63188 0.13135 0.05309 0.0
C473 C 0.5943 0.16039 0.94343 0.0
C474 C 0.59912 0.10758 0.97552 0.0
C475 C 0.58292 0.17216 0.91882 0.0
C476 C 0.6418 0.05725 0.08028 0.0
C477 C 0.62986 0.06978 0.05774 0.0
C478 C 0.62307 0.12449 0.0312 0.0
C479 C 0.58575 0.14247 0.95874 0.0
C480 C 0.59851 0.12894 0.982 0.0
C481 C 0.63694 0.08945 0.04739 0.0
C482 C 0.62382 0.1031 0.02463 0.0
H483 H 0.53828 0.14404 0.91923 0.0
H484 H 0.5583 0.12339 0.96204 0.0
H485 H 0.6103 0.15371 0.01565 0.0
H486 H 0.68308 0.08939 0.09178 0.0
H487 H 0.66254 0.111 0.05151 0.0
C488 C 0.56593 0.34913 0.406 0.0
C489 C 0.56616 0.32747 0.40388 0.0
C490 C 0.57855 0.35945 0.43064 0.0
C491 C 0.60887 0.35348 0.51419 0.0
H492 H 0.63676 0.40237 0.47797 0.0
C493 C 0.66747 0.40012 0.59994 0.0
C494 C 0.66444 0.42163 0.5999 0.0
C495 C 0.65687 0.38756 0.57539 0.0
C496 C 0.629 0.38881 0.4885 0.0
H497 H 0.57929 0.29959 0.42696 0.0
H498 H 0.60155 0.31776 0.47012 0.0
H499 H 0.61509 0.38213 0.43729 0.0
H500 H 0.64824 0.44684 0.57352 0.0
H501 H 0.62981 0.42492 0.53075 0.0
H502 H 0.62274 0.36035 0.56557 0.0
C503 C 0.59148 0.32668 0.45267 0.0
C504 C 0.61657 0.37724 0.46527 0.0
C505 C 0.57876 0.31629 0.42795 0.0
C506 C 0.65094 0.43034 0.57429 0.0
C507 C 0.64045 0.41779 0.54965 0.0
C508 C 0.62138 0.36506 0.53748 0.0
C509 C 0.59177 0.34838 0.4537 0.0
C510 C 0.60606 0.35968 0.47802 0.0
C511 C 0.64317 0.39627 0.55016 0.0
C512 C 0.63128 0.38303 0.52496 0.0
H513 H 0.55623 0.35823 0.38818 0.0
H514 H 0.57805 0.37617 0.43143 0.0
H515 H 0.60087 0.34008 0.5248 0.0
H516 H 0.67776 0.39292 0.61934 0.0
H517 H 0.65939 0.37102 0.57613 0.0
C518 C 0.14382 0.55884 0.92639 0.0
C519 C 0.16162 0.56733 0.9104 0.0
C520 C 0.13169 0.57065 0.94978 0.0
C521 C 0.1321 0.61561 0.00957 0.0
H522 H 0.07323 0.61738 0.98997 0.0
C523 C 0.07874 0.67093 0.0871 0.0
C524 C 0.05954 0.66307 0.09834 0.0
C525 C 0.09088 0.66 0.06245 0.0
C526 C 0.08959 0.61688 0.99609 0.0
H527 H 0.18112 0.59458 0.9076 0.0
H528 H 0.16001 0.61509 0.949 0.0
H529 H 0.09563 0.59602 0.9523 0.0
H530 H 0.03775 0.63787 0.09184 0.0
H531 H 0.05915 0.61853 0.04953 0.0
H532 H 0.12612 0.63602 0.05384 0.0
C533 C 0.15545 0.59933 0.94316 0.0
C534 C 0.10239 0.60467 0.97449 0.0
C535 C 0.16747 0.58761 0.91941 0.0
C536 C 0.05244 0.64438 0.08356 0.0
C537 C 0.06469 0.63333 0.05919 0.0
C538 C 0.11928 0.62765 0.03142 0.0
C539 C 0.13725 0.59107 0.95798 0.0
C540 C 0.12375 0.60392 0.98107 0.0
C541 C 0.0842 0.64085 0.0488 0.0
C542 C 0.09786 0.62843 0.02494 0.0
H543 H 0.13887 0.54327 0.92 0.0
H544 H 0.11786 0.56386 0.96126 0.0
H545 H 0.1485 0.61513 0.01535 0.0
H546 H 0.08455 0.68541 0.09774 0.0
H547 H 0.10561 0.66648 0.05438 0.0
C548 C 0.92787 0.14277 0.41681 0.0
C549 C 0.9195 0.15968 0.39804 0.0
C550 C 0.91587 0.1317 0.4415 0.0
C551 C 0.86133 0.12116 0.46487 0.0
H552 H 0.88573 0.09671 0.55081 0.0
C553 C 0.81478 0.08034 0.57852 0.0
C554 C 0.82271 0.06132 0.59051 0.0
C555 C 0.82599 0.09251 0.55424 0.0
C556 C 0.87878 0.10335 0.52675 0.0
H557 H 0.89224 0.1788 0.39155 0.0
H558 H 0.87148 0.15987 0.43554 0.0
H559 H 0.90667 0.11889 0.51205 0.0
H560 H 0.84839 0.03993 0.58578 0.0
H561 H 0.86802 0.06136 0.54365 0.0
H562 H 0.83331 0.10583 0.48025 0.0
C563 C 0.88714 0.15478 0.4304 0.0
C564 C 0.89075 0.11601 0.50451 0.0
C565 C 0.89908 0.16573 0.40539 0.0
C566 C 0.84184 0.05449 0.57704 0.0
C567 C 0.85315 0.06679 0.55315 0.0
C568 C 0.84929 0.10868 0.4874 0.0
C569 C 0.89529 0.13744 0.44832 0.0
C570 C 0.88224 0.12491 0.47308 0.0
C571 C 0.84544 0.08601 0.54191 0.0
C572 C 0.85799 0.09951 0.51831 0.0
H573 H 0.94351 0.13762 0.41161 0.0
H574 H 0.92258 0.11825 0.45435 0.0
H575 H 0.85436 0.12746 0.44058 0.0
H576 H 0.80006 0.08599 0.58833 0.0
H577 H 0.81977 0.10732 0.54602 0.0
C578 C 0.32119 0.90806 0.92273 0.0
C579 C 0.32829 0.92768 0.91214 0.0
C580 C 0.3324 0.89629 0.94765 0.0
C581 C 0.38499 0.88847 0.97909 0.0
H582 H 0.35996 0.86067 0.06122 0.0
C583 C 0.43377 0.84858 0.08897 0.0
C584 C 0.42601 0.83055 0.10522 0.0
C585 C 0.42166 0.85987 0.06479 0.0
C586 C 0.36714 0.86805 0.03807 0.0
H587 H 0.35235 0.95061 0.92022 0.0
H588 H 0.37197 0.92993 0.96345 0.0
H589 H 0.33861 0.88193 0.02143 0.0
H590 H 0.39971 0.80981 0.10783 0.0
H591 H 0.37879 0.82917 0.0647 0.0
H592 H 0.41339 0.87435 0.99495 0.0
C593 C 0.35778 0.92368 0.95235 0.0
C594 C 0.35492 0.8803 0.01547 0.0
C595 C 0.34646 0.93555 0.9278 0.0
C596 C 0.40609 0.82372 0.09595 0.0
C597 C 0.39403 0.83491 0.07144 0.0
C598 C 0.39715 0.87604 0.00139 0.0
C599 C 0.351 0.90385 0.96206 0.0
C600 C 0.36379 0.89075 0.98598 0.0
C601 C 0.40157 0.85327 0.05594 0.0
C602 C 0.38843 0.8658 0.03133 0.0
H603 H 0.30721 0.90159 0.91124 0.0
H604 H 0.3269 0.881 0.95466 0.0
H605 H 0.39211 0.8961 0.95612 0.0
H606 H 0.44901 0.85435 0.09572 0.0
H607 H 0.42786 0.87409 0.05383 0.0
C608 C 0.36561 0.47632 0.25404 0.0
C609 C 0.3584 0.48296 0.28806 0.0
C610 C 0.381 0.4613 0.25176 0.0
C611 C 0.42222 0.43637 0.30457 0.0
H612 H 0.41366 0.39031 0.23891 0.0
C613 C 0.45369 0.34846 0.28482 0.0
C614 C 0.47503 0.35197 0.28818 0.0
C615 C 0.44007 0.36507 0.28192 0.0
C616 C 0.41619 0.40306 0.25743 0.0
H617 H 0.36202 0.47947 0.34632 0.0
H618 H 0.38872 0.45325 0.34224 0.0
H619 H 0.38901 0.41886 0.23954 0.0
H620 H 0.49885 0.37563 0.29016 0.0
H621 H 0.47511 0.40446 0.2848 0.0
H622 H 0.44898 0.42035 0.32334 0.0
C623 C 0.38261 0.45975 0.31738 0.0
C624 C 0.40225 0.41948 0.25748 0.0
C625 C 0.36722 0.47468 0.31969 0.0
C626 C 0.48248 0.37237 0.28797 0.0
C627 C 0.46889 0.38892 0.285 0.0
C628 C 0.43614 0.42 0.3045 0.0
C629 C 0.3895 0.45278 0.28343 0.0
C630 C 0.40503 0.43616 0.28136 0.0
C631 C 0.44756 0.38545 0.28229 0.0
C632 C 0.43316 0.40311 0.28117 0.0
H633 H 0.35914 0.48243 0.22917 0.0
H634 H 0.38622 0.45631 0.22525 0.0
H635 H 0.42481 0.44914 0.32302 0.0
H636 H 0.44749 0.33292 0.28487 0.0
H637 H 0.42364 0.36199 0.28025 0.0
C638 C 0.01345 0.3679 0.74514 0.0
C639 C 0.00819 0.35929 0.77894 0.0
C640 C 0.02776 0.38401 0.74307 0.0
C641 C 0.07112 0.40549 0.79406 0.0
H642 H 0.06263 0.45537 0.73772 0.0
C643 C 0.12014 0.47652 0.81865 0.0
C644 C 0.12929 0.48577 0.78819 0.0
C645 C 0.10444 0.46207 0.8144 0.0
C646 C 0.06523 0.4414 0.75321 0.0
H647 H 0.01323 0.36135 0.83711 0.0
H648 H 0.03798 0.38939 0.83341 0.0
H649 H 0.03679 0.42763 0.73559 0.0
H650 H 0.12839 0.48801 0.72943 0.0
H651 H 0.10079 0.46249 0.72209 0.0
H652 H 0.09931 0.41916 0.81208 0.0
C653 C 0.03133 0.38347 0.80851 0.0
C654 C 0.05053 0.42559 0.75197 0.0
C655 C 0.01708 0.36745 0.8106 0.0
C656 C 0.12168 0.48106 0.75341 0.0
C657 C 0.10589 0.46653 0.74917 0.0
C658 C 0.08571 0.42121 0.79534 0.0
C659 C 0.03706 0.39166 0.77475 0.0
C660 C 0.05319 0.40772 0.77307 0.0
C661 C 0.09758 0.45654 0.77963 0.0
C662 C 0.08268 0.43948 0.7756 0.0
H663 H 0.0068 0.36197 0.72026 0.0
H664 H 0.03199 0.39009 0.71672 0.0
H665 H 0.07378 0.39164 0.80987 0.0
H666 H 0.12543 0.48002 0.84585 0.0
H667 H 0.09795 0.45487 0.83836 0.0
C668 C 0.11979 0.01078 0.31775 0.0
C669 C 0.13016 0.00376 0.28666 0.0
C670 C 0.10314 0.02417 0.31463 0.0
C671 C 0.06387 0.04509 0.25344 0.0
H672 H 0.067 0.09188 0.31899 0.0
C673 C 0.01029 0.11729 0.24868 0.0
C674 C 0.00375 0.12479 0.28259 0.0
C675 C 0.02441 0.10102 0.24671 0.0
C676 C 0.0658 0.07879 0.30078 0.0
H677 H 0.1306 0.00445 0.22779 0.0
H678 H 0.10138 0.02826 0.22242 0.0
H679 H 0.09422 0.06612 0.31963 0.0
H680 H 0.00575 0.12026 0.34087 0.0
H681 H 0.03016 0.09188 0.33732 0.0
H682 H 0.03529 0.05802 0.23466 0.0
C683 C 0.10621 0.02322 0.24912 0.0
C684 C 0.08137 0.06407 0.30112 0.0
C685 C 0.12294 0.0097 0.25223 0.0
C686 C 0.01073 0.11506 0.31434 0.0
C687 C 0.02474 0.09885 0.31234 0.0
C688 C 0.04819 0.05992 0.25309 0.0
C689 C 0.09653 0.03092 0.28039 0.0
C690 C 0.08039 0.04691 0.27796 0.0
C691 C 0.03213 0.09207 0.2786 0.0
C692 C 0.04889 0.07669 0.27725 0.0
H693 H 0.12474 0.00623 0.34466 0.0
H694 H 0.09562 0.02955 0.33913 0.0
H695 H 0.06282 0.03196 0.23532 0.0
H696 H 0.0051 0.12443 0.22374 0.0
H697 H 0.02993 0.09606 0.22038 0.0
C698 C 0.36939 0.01381 0.75056 0.0
C699 C 0.3618 0.00964 0.78554 0.0
C700 C 0.38686 0.0262 0.74593 0.0
C701 C 0.43185 0.04738 0.79507 0.0
H702 H 0.42696 0.09341 0.72834 0.0
C703 C 0.47495 0.12333 0.81468 0.0
C704 C 0.48308 0.13354 0.78426 0.0
C705 C 0.46308 0.10556 0.81043 0.0
C706 C 0.42876 0.0804 0.74653 0.0
H707 H 0.3668 0.01487 0.84308 0.0
H708 H 0.39703 0.03656 0.83493 0.0
H709 H 0.40057 0.0665 0.72857 0.0
H710 H 0.48541 0.13295 0.7255 0.0
H711 H 0.4644 0.10186 0.71814 0.0
H712 H 0.45959 0.06173 0.81407 0.0
C713 C 0.38967 0.03007 0.81112 0.0
C714 C 0.41367 0.06501 0.74665 0.0
C715 C 0.3722 0.01781 0.81575 0.0
C716 C 0.47931 0.12545 0.74948 0.0
C717 C 0.46729 0.1077 0.74521 0.0
C718 C 0.4469 0.06276 0.79498 0.0
C719 C 0.3971 0.03448 0.7762 0.0
C720 C 0.41474 0.04874 0.77177 0.0
C721 C 0.45902 0.09766 0.77567 0.0
C722 C 0.44512 0.07974 0.77154 0.0
H723 H 0.36174 0.00769 0.72673 0.0
H724 H 0.39235 0.02933 0.71872 0.0
H725 H 0.43323 0.03476 0.81421 0.0
H726 H 0.47762 0.12912 0.84186 0.0
H727 H 0.4566 0.09831 0.83435 0.0
C728 C 0.97851 0.61935 0.26127 0.0
C729 C 0.98251 0.62671 0.22606 0.0
C730 C 0.96689 0.60139 0.26639 0.0
C731 C 0.94754 0.55499 0.21896 0.0
H732 H 0.89954 0.56069 0.28111 0.0
C733 C 0.87204 0.5129 0.192 0.0
C734 C 0.86024 0.50536 0.2211 0.0
C735 C 0.88996 0.52422 0.19836 0.0
C736 C 0.91311 0.55862 0.26432 0.0
H737 H 0.97811 0.62061 0.16867 0.0
H738 H 0.95787 0.58944 0.17762 0.0
H739 H 0.92638 0.58715 0.28215 0.0
H740 H 0.85819 0.50349 0.27978 0.0
H741 H 0.88958 0.52362 0.29087 0.0
H742 H 0.93383 0.52696 0.19992 0.0
C743 C 0.9638 0.59744 0.20125 0.0
C744 C 0.92847 0.57377 0.26491 0.0
C745 C 0.97522 0.61543 0.19614 0.0
C746 C 0.86694 0.50914 0.25679 0.0
C747 C 0.88486 0.52065 0.26317 0.0
C748 C 0.93222 0.53987 0.2184 0.0
C749 C 0.95931 0.59037 0.23639 0.0
C750 C 0.9454 0.57247 0.24118 0.0
C751 C 0.89646 0.52836 0.23396 0.0
C752 C 0.91448 0.54197 0.24001 0.0
H753 H 0.98395 0.6277 0.28488 0.0
H754 H 0.96366 0.59622 0.29375 0.0
H755 H 0.96065 0.55346 0.2009 0.0
H756 H 0.86738 0.51021 0.16417 0.0
H757 H 0.89838 0.53029 0.17531 0.0
C758 C 0.97463 0.87441 0.69608 0.0
C759 C 0.982 0.86365 0.7265 0.0
C760 C 0.96257 0.89202 0.70042 0.0
C761 C 0.92624 0.9152 0.76311 0.0
H762 H 0.93048 0.96161 0.697 0.0
C763 C 0.86396 0.97885 0.75532 0.0
C764 C 0.85694 0.98247 0.71978 0.0
C765 C 0.882 0.96753 0.76131 0.0
C766 C 0.92918 0.94879 0.71576 0.0
H767 H 0.98292 0.8632 0.78539 0.0
H768 H 0.9616 0.89402 0.79287 0.0
H769 H 0.95787 0.93574 0.69843 0.0
H770 H 0.86358 0.97749 0.6627 0.0
H771 H 0.89483 0.95769 0.6732 0.0
H772 H 0.89712 0.92778 0.7793 0.0
C773 C 0.9652 0.88872 0.76573 0.0
C774 C 0.94482 0.93403 0.71657 0.0
C775 C 0.9774 0.87112 0.7614 0.0
C776 C 0.86851 0.97492 0.69041 0.0
C777 C 0.88654 0.96376 0.6964 0.0
C778 C 0.91059 0.92999 0.7623 0.0
C779 C 0.95756 0.89923 0.73526 0.0
C780 C 0.94311 0.91672 0.7393 0.0
C781 C 0.89339 0.95983 0.73187 0.0
C782 C 0.91158 0.94649 0.73765 0.0
H783 H 0.97796 0.86912 0.66883 0.0
H784 H 0.9566 0.89962 0.67643 0.0
H785 H 0.92448 0.90193 0.78072 0.0
H786 H 0.8554 0.98453 0.77851 0.0
H787 H 0.88699 0.96472 0.78892 0.0
C788 C 0.51025 0.87309 0.26202 0.0
C789 C 0.50645 0.86552 0.22687 0.0
C790 C 0.52136 0.89135 0.26703 0.0
C791 C 0.53949 0.93814 0.21952 0.0
H792 H 0.58728 0.93392 0.28254 0.0
C793 C 0.61446 0.98093 0.19282 0.0
C794 C 0.6265 0.9882 0.22184 0.0
C795 C 0.59633 0.97 0.19931 0.0
C796 C 0.57374 0.9356 0.26555 0.0
H797 H 0.51082 0.87148 0.16943 0.0
H798 H 0.53028 0.90321 0.17822 0.0
H799 H 0.56124 0.90673 0.28324 0.0
H800 H 0.62861 0.99032 0.28048 0.0
H801 H 0.59682 0.97089 0.29182 0.0
H802 H 0.55248 0.96654 0.20062 0.0
C803 C 0.52451 0.89513 0.20188 0.0
C804 C 0.55884 0.92002 0.26591 0.0
C805 C 0.51355 0.87683 0.19686 0.0
C806 C 0.61969 0.98483 0.25756 0.0
C807 C 0.60154 0.97372 0.26408 0.0
C808 C 0.55434 0.95373 0.21922 0.0
C809 C 0.52869 0.90246 0.23699 0.0
C810 C 0.54204 0.92076 0.24183 0.0
C811 C 0.58984 0.96601 0.23496 0.0
C812 C 0.57203 0.95216 0.24113 0.0
H813 H 0.50492 0.86475 0.28571 0.0
H814 H 0.52435 0.89672 0.29437 0.0
H815 H 0.52645 0.93924 0.2012 0.0
H816 H 0.61919 0.98338 0.16496 0.0
H817 H 0.58784 0.96395 0.17632 0.0
C818 C 0.51289 0.61264 0.69145 0.0
C819 C 0.50536 0.62332 0.72184 0.0
C820 C 0.52341 0.59404 0.69572 0.0
C821 C 0.55594 0.56759 0.76062 0.0
H822 H 0.55209 0.52292 0.69082 0.0
C823 C 0.61726 0.5037 0.75466 0.0
C824 C 0.6254 0.50086 0.71965 0.0
C825 C 0.59879 0.51447 0.75957 0.0
C826 C 0.55325 0.53522 0.71063 0.0
H827 H 0.50234 0.62253 0.78051 0.0
H828 H 0.52092 0.59002 0.78789 0.0
H829 H 0.52589 0.55004 0.69107 0.0
H830 H 0.62008 0.50626 0.66227 0.0
H831 H 0.58816 0.52525 0.67089 0.0
H832 H 0.58384 0.55344 0.77897 0.0
C833 C 0.5187 0.59614 0.76082 0.0
C834 C 0.5383 0.5507 0.71077 0.0
C835 C 0.50808 0.61473 0.75655 0.0
C836 C 0.61431 0.50828 0.68962 0.0
C837 C 0.59587 0.51898 0.69453 0.0
C838 C 0.57092 0.55213 0.76044 0.0
C839 C 0.52666 0.58577 0.73047 0.0
C840 C 0.53995 0.56742 0.73487 0.0
C841 C 0.58811 0.52248 0.72956 0.0
C842 C 0.57013 0.53624 0.73454 0.0
H843 H 0.51096 0.61877 0.66433 0.0
H844 H 0.52966 0.58654 0.67187 0.0
H845 H 0.5577 0.58038 0.77931 0.0
H846 H 0.62536 0.49802 0.77835 0.0
H847 H 0.59306 0.51684 0.78685 0.0
C848 C 0.20774 0.46552 0.92189 0.0
C849 C 0.22229 0.47555 0.8997 0.0
C850 C 0.21317 0.45885 0.95656 0.0
C851 C 0.25634 0.45306 0.02232 0.0
H852 H 0.21799 0.47968 0.08828 0.0
C853 C 0.28183 0.48824 0.15657 0.0
C854 C 0.26813 0.4898 0.18608 0.0
C855 C 0.27553 0.47944 0.12396 0.0
C856 C 0.22865 0.47163 0.07061 0.0
H857 H 0.25443 0.48442 0.89477 0.0
H858 H 0.26395 0.47291 0.95561 0.0
H859 H 0.20876 0.47558 0.02497 0.0
H860 H 0.23731 0.48226 0.20491 0.0
H861 H 0.22624 0.46664 0.14755 0.0
H862 H 0.27653 0.44977 0.06793 0.0
C863 C 0.24835 0.47012 0.94616 0.0
C864 C 0.22336 0.46929 0.03414 0.0
C865 C 0.24292 0.47672 0.91126 0.0
C866 C 0.24818 0.48145 0.18262 0.0
C867 C 0.24184 0.47256 0.14975 0.0
C868 C 0.26157 0.45523 0.05894 0.0
C869 C 0.23323 0.46216 0.96982 0.0
C870 C 0.23743 0.46066 0.00933 0.0
C871 C 0.25536 0.47182 0.1198 0.0
C872 C 0.24812 0.46532 0.08321 0.0
H873 H 0.19177 0.46413 0.91344 0.0
H874 H 0.20131 0.45235 0.97388 0.0
H875 H 0.26737 0.4461 0.00393 0.0
H876 H 0.29739 0.49434 0.15821 0.0
H877 H 0.28628 0.47952 0.10145 0.0
C878 C 0.00847 0.24792 0.67285 0.0
C879 C 0.00066 0.26805 0.67659 0.0
C880 C 0.01667 0.24132 0.63959 0.0
C881 C 0.03281 0.26038 0.54761 0.0
H882 H 0.0113 0.20759 0.51571 0.0
C883 C 0.0104 0.24029 0.40046 0.0
C884 C 0.01164 0.21956 0.38952 0.0
C885 C 0.01687 0.24608 0.43528 0.0
C886 C 0.01787 0.22218 0.52429 0.0
H887 H -0.00355 0.29735 0.64878 0.0
H888 H 0.01003 0.2858 0.59138 0.0
H889 H 0.00811 0.21737 0.57893 0.0
H890 H 0.02296 0.1892 0.40444 0.0
H891 H 0.03448 0.19936 0.46473 0.0
H892 H 0.04135 0.26561 0.49213 0.0
C893 C 0.01023 0.27509 0.61393 0.0
C894 C 0.01607 0.22779 0.5607 0.0
C895 C 0.00213 0.28166 0.64695 0.0
C896 C 0.02151 0.20525 0.41237 0.0
C897 C 0.02803 0.21103 0.44696 0.0
C898 C 0.03443 0.25484 0.51104 0.0
C899 C 0.01722 0.25473 0.6095 0.0
C900 C 0.02289 0.24724 0.57263 0.0
C901 C 0.02476 0.23123 0.4595 0.0
C902 C 0.02645 0.23591 0.49883 0.0
H903 H 0.00772 0.2371 0.69521 0.0
H904 H 0.02216 0.22558 0.63724 0.0
H905 H 0.03865 0.27531 0.55602 0.0
H906 H 0.00281 0.25163 0.38347 0.0
H907 H 0.01412 0.26178 0.44419 0.0
C908 C 0.24783 0.01555 0.91074 0.0
C909 C 0.26845 0.01755 0.89947 0.0
C910 C 0.24209 0.02129 0.94595 0.0
C911 C 0.23308 0.03658 0.02276 0.0
H912 H 0.27253 0.01164 0.08875 0.0
C913 C 0.20921 0.0005 0.15758 0.0
C914 C 0.2228 0.00033 0.18737 0.0
C915 C 0.21514 0.00908 0.12455 0.0
C916 C 0.26152 0.01918 0.07103 0.0
H917 H 0.29858 0.02956 0.9143 0.0
H918 H 0.28848 0.03994 0.97527 0.0
H919 H 0.28173 0.01646 0.02554 0.0
H920 H 0.25309 0.00992 0.20606 0.0
H921 H 0.26353 0.02505 0.14796 0.0
H922 H 0.21259 0.03856 0.0682 0.0
C923 C 0.27688 0.03339 0.95746 0.0
C924 C 0.2668 0.02195 0.03464 0.0
C925 C 0.28262 0.02755 0.92246 0.0
C926 C 0.2423 0.00967 0.18361 0.0
C927 C 0.24828 0.01829 0.15031 0.0
C928 C 0.22784 0.03391 0.05927 0.0
C929 C 0.25688 0.02924 0.97029 0.0
C930 C 0.25241 0.03005 0.00982 0.0
C931 C 0.23484 0.01781 0.12024 0.0
C932 C 0.24173 0.02447 0.08354 0.0
H933 H 0.23659 0.00784 0.89366 0.0
H934 H 0.22655 0.01785 0.95498 0.0
H935 H 0.22177 0.04313 0.00442 0.0
H936 H 0.194 0.99359 0.1594 0.0
H937 H 0.2045 0.00806 0.10194 0.0
C938 C 0.48657 0.24154 0.41387 0.0
C939 C 0.48109 0.25951 0.39499 0.0
C940 C 0.47846 0.23769 0.44826 0.0
C941 C 0.4538 0.23176 0.51877 0.0
H942 H 0.47722 0.27374 0.58166 0.0
C943 C 0.4801 0.2454 0.67887 0.0
C944 C 0.48892 0.22576 0.68377 0.0
C945 C 0.47134 0.25087 0.64537 0.0
C946 C 0.46996 0.26212 0.56479 0.0
H947 H 0.46224 0.28712 0.39617 0.0
H948 H 0.4486 0.28075 0.45734 0.0
H949 H 0.47419 0.28028 0.51677 0.0
H950 H 0.49469 0.19623 0.65757 0.0
H951 H 0.48017 0.2058 0.59994 0.0
H952 H 0.45011 0.21331 0.56636 0.0
C953 C 0.45872 0.26943 0.44501 0.0
C954 C 0.46827 0.26588 0.52755 0.0
C955 C 0.4664 0.27298 0.41006 0.0
C956 C 0.48817 0.21156 0.65493 0.0
C957 C 0.47951 0.21697 0.62177 0.0
C958 C 0.45513 0.22814 0.55603 0.0
C959 C 0.46519 0.25205 0.46475 0.0
C960 C 0.46116 0.25033 0.50409 0.0
C961 C 0.47116 0.23674 0.61628 0.0
C962 C 0.46438 0.24279 0.57918 0.0
H963 H 0.49805 0.23109 0.40288 0.0
H964 H 0.48386 0.22431 0.46313 0.0
H965 H 0.44814 0.21961 0.50116 0.0
H966 H 0.48032 0.25666 0.7006 0.0
H967 H 0.46496 0.26621 0.6421 0.0
C968 C 0.76988 0.48821 0.34539 0.0
C969 C 0.76468 0.49892 0.31358 0.0
C970 C 0.765 0.49622 0.3793 0.0
C971 C 0.73149 0.53336 0.42718 0.0
H972 H 0.76869 0.51871 0.50542 0.0
C973 C 0.70284 0.51937 0.57058 0.0
C974 C 0.71675 0.51789 0.59979 0.0
C975 C 0.70961 0.52537 0.53629 0.0
C976 C 0.75824 0.52355 0.48417 0.0
H977 H 0.74982 0.52632 0.29233 0.0
H978 H 0.74151 0.54074 0.35227 0.0
H979 H 0.77917 0.51313 0.44343 0.0
H980 H 0.74814 0.52431 0.61686 0.0
H981 H 0.75982 0.53586 0.5573 0.0
H982 H 0.71075 0.54432 0.46799 0.0
C983 C 0.74926 0.52596 0.35075 0.0
C984 C 0.76414 0.51991 0.44835 0.0
C985 C 0.75396 0.51772 0.31645 0.0
C986 C 0.73709 0.52492 0.59483 0.0
C987 C 0.74382 0.53132 0.56046 0.0
C988 C 0.72574 0.53746 0.4631 0.0
C989 C 0.75504 0.5154 0.38263 0.0
C990 C 0.75038 0.52362 0.41953 0.0
C991 C 0.73045 0.53047 0.53023 0.0
C992 C 0.73856 0.53152 0.49225 0.0
H993 H 0.77782 0.4735 0.34413 0.0
H994 H 0.76898 0.48719 0.40301 0.0
H995 H 0.72057 0.5367 0.40571 0.0
H996 H 0.68693 0.5144 0.5734 0.0
H997 H 0.6987 0.52434 0.51413 0.0
C998 C 0.9753 0.74997 0.82683 0.0
C999 C 0.984 0.76978 0.82352 0.0
C1000 C 0.96682 0.74349 0.85994 0.0
C1001 C 0.95061 0.76261 0.95157 0.0
H1002 H 0.97026 0.7092 0.98378 0.0
C1003 C 0.96993 0.74221 0.09956 0.0
C1004 C 0.96871 0.72146 0.11045 0.0
C1005 C 0.96401 0.74795 0.06445 0.0
C1006 C 0.96417 0.72397 0.97511 0.0
H1007 H 0.98961 0.79865 0.85197 0.0
H1008 H 0.97536 0.78731 0.90916 0.0
H1009 H 0.97454 0.71909 0.92079 0.0
H1010 H 0.95789 0.691 0.09489 0.0
H1011 H 0.94724 0.7011 0.03408 0.0
H1012 H 0.9413 0.76785 0.00664 0.0
C1013 C 0.97476 0.77678 0.88635 0.0
C1014 C 0.96662 0.72964 0.93884 0.0
C1015 C 0.98321 0.78321 0.85349 0.0
C1016 C 0.95932 0.70707 0.08708 0.0
C1017 C 0.95332 0.71282 0.05215 0.0
C1018 C 0.94825 0.75697 0.98797 0.0
C1019 C 0.9668 0.75673 0.89028 0.0
C1020 C 0.96051 0.7493 0.92686 0.0
C1021 C 0.95666 0.73305 0.03978 0.0
C1022 C 0.95557 0.73782 1.00037 0.0
H1023 H 0.97555 0.73929 0.80423 0.0
H1024 H 0.96063 0.728 0.86197 0.0
H1025 H 0.94534 0.77773 0.94307 0.0
H1026 H 0.97714 0.75365 0.11691 0.0
H1027 H 0.96682 0.76368 0.05578 0.0
C1028 C 0.71771 -0.00093 0.34441 0.0
C1029 C 0.7219 0.98774 0.3128 0.0
C1030 C 0.72166 0.99079 0.37847 0.0
C1031 C 0.75115 0.95114 0.4277 0.0
H1032 H 0.71453 0.96952 0.50435 0.0
C1033 C 0.77981 0.96564 0.57066 0.0
C1034 C 0.76588 0.96888 0.59938 0.0
C1035 C 0.77282 0.95925 0.53672 0.0
C1036 C 0.72475 0.96362 0.48359 0.0
H1037 H 0.73407 0.95892 0.29205 0.0
H1038 H 0.7408 0.94406 0.35236 0.0
H1039 H 0.70507 0.9752 0.4419 0.0
H1040 H 0.73403 0.9651 0.61625 0.0
H1041 H 0.72188 0.95288 0.55738 0.0
H1042 H 0.77064 0.93911 0.46948 0.0
C1043 C 0.73453 0.95952 0.3505 0.0
C1044 C 0.71946 0.96729 0.4475 0.0
C1045 C 0.73075 0.96801 0.31602 0.0
C1046 C 0.74513 0.96314 0.59454 0.0
C1047 C 0.73814 0.95634 0.56055 0.0
C1048 C 0.75626 0.94702 0.46393 0.0
C1049 C 0.72963 0.97072 0.38215 0.0
C1050 C 0.73316 0.96227 0.41924 0.0
C1051 C 0.75169 0.95552 0.53057 0.0
C1052 C 0.74373 0.95433 0.4925 0.0
H1053 H 0.71124 0.01448 0.34288 0.0
H1054 H 0.71846 0.00026 0.40202 0.0
H1055 H 0.76194 0.94676 0.40664 0.0
H1056 H 0.79601 0.96953 0.57346 0.0
H1057 H 0.78389 0.95895 0.51476 0.0
C1058 C 0.52081 0.78437 0.07921 0.0
C1059 C 0.51676 0.77089 0.1083 0.0
C1060 C 0.5266 0.77669 0.04533 0.0
C1061 C 0.51828 0.72963 0.99232 0.0
H1062 H 0.54792 0.75997 0.91798 0.0
C1063 C 0.51494 0.70253 0.84557 0.0
C1064 C 0.50951 0.71778 0.82019 0.0
C1065 C 0.52201 0.70798 0.87998 0.0
C1066 C 0.53961 0.75133 0.93848 0.0
H1067 H 0.5179 0.73889 0.12555 0.0
H1068 H 0.52856 0.72551 0.06658 0.0
H1069 H 0.55053 0.77082 0.98141 0.0
H1070 H 0.50861 0.75072 0.81006 0.0
H1071 H 0.5206 0.76035 0.87079 0.0
H1072 H 0.50684 0.71056 0.94963 0.0
C1073 C 0.52659 0.74201 0.06972 0.0
C1074 C 0.5411 0.75752 0.97482 0.0
C1075 C 0.52066 0.7497 0.10366 0.0
C1076 C 0.51267 0.73864 0.82909 0.0
C1077 C 0.51959 0.74413 0.86384 0.0
C1078 C 0.51688 0.72343 0.95619 0.0
C1079 C 0.52866 0.75533 0.03972 0.0
C1080 C 0.53006 0.747 0.0021 0.0
C1081 C 0.52362 0.72883 0.89006 0.0
C1082 C 0.52718 0.73441 0.92871 0.0
H1083 H 0.5182 0.80083 0.08184 0.0
H1084 H 0.52796 0.78746 0.02299 0.0
H1085 H 0.50917 0.72141 0.01227 0.0
H1086 H 0.51304 0.68629 0.83928 0.0
H1087 H 0.52546 0.69581 0.89921 0.0
C1088 C 0.7078 0.50965 0.84243 0.0
C1089 C 0.7215 0.50848 0.81287 0.0
C1090 C 0.71415 0.51791 0.8755 0.0
C1091 C 0.76122 0.52421 0.92909 0.0
H1092 H 0.72326 0.5495 0.99734 0.0
C1093 C 0.74778 0.51931 0.08966 0.0
C1094 C 0.76851 0.51993 0.10092 0.0
C1095 C 0.74235 0.5257 0.05464 0.0
C1096 C 0.73408 0.54255 0.97856 0.0
H1097 H 0.75232 0.51626 0.79439 0.0
H1098 H 0.76347 0.5309 0.85248 0.0
H1099 H 0.71364 0.5466 0.93344 0.0
H1100 H 0.79931 0.53009 0.08612 0.0
H1101 H 0.78978 0.54156 0.02549 0.0
H1102 H 0.78133 0.51944 0.9742 0.0
C1103 C 0.74784 0.52511 0.85 0.0
C1104 C 0.72858 0.54084 0.94196 0.0
C1105 C 0.74144 0.51682 0.81667 0.0
C1106 C 0.78325 0.52913 0.07802 0.0
C1107 C 0.77782 0.5356 0.04319 0.0
C1108 C 0.76676 0.52601 0.96556 0.0
C1109 C 0.73439 0.5253 0.88007 0.0
C1110 C 0.74178 0.53097 0.91703 0.0
C1111 C 0.75755 0.53292 0.03041 0.0
C1112 C 0.75299 0.5346 0.99096 0.0
H1113 H 0.69225 0.50357 0.84047 0.0
H1114 H 0.70342 0.51749 0.89803 0.0
H1115 H 0.77168 0.51627 0.9109 0.0
H1116 H 0.73607 0.51226 0.10663 0.0
H1117 H 0.72659 0.52339 0.04565 0.0
C1118 C 0.97642 0.70453 0.34581 0.0
C1119 C 0.98183 0.72012 0.32105 0.0
C1120 C 0.96923 0.7095 0.38033 0.0
C1121 C 0.95087 0.7517 0.44025 0.0
H1122 H 0.98183 0.72156 0.51307 0.0
C1123 C 0.9688 0.7835 0.58199 0.0
C1124 C 0.97351 0.76983 0.61049 0.0
C1125 C 0.96298 0.77602 0.548 0.0
C1126 C 0.97255 0.72981 0.4934 0.0
H1127 H 0.98257 0.75317 0.31209 0.0
H1128 H 0.97033 0.76198 0.37313 0.0
H1129 H 0.98453 0.71161 0.45004 0.0
H1130 H 0.97342 0.73766 0.62675 0.0
H1131 H 0.96265 0.72457 0.56757 0.0
H1132 H 0.93932 0.77027 0.48386 0.0
C1133 C 0.97148 0.74586 0.36556 0.0
C1134 C 0.9742 0.72414 0.45705 0.0
C1135 C 0.97855 0.74085 0.33067 0.0
C1136 C 0.97014 0.7486 0.60529 0.0
C1137 C 0.96416 0.7411 0.57123 0.0
C1138 C 0.9491 0.75732 0.47683 0.0
C1139 C 0.96746 0.73021 0.39115 0.0
C1140 C 0.96372 0.73524 0.42994 0.0
C1141 C 0.96154 0.75467 0.54169 0.0
C1142 C 0.96032 0.74674 0.50379 0.0
H1143 H 0.97839 0.68838 0.33893 0.0
H1144 H 0.96579 0.69708 0.39907 0.0
H1145 H 0.94242 0.76039 0.42001 0.0
H1146 H 0.97095 0.79999 0.58512 0.0
H1147 H 0.96117 0.78699 0.52608 0.0
C1148 C 0.7016 0.96656 0.06939 0.0
C1149 C 0.71554 0.96847 0.09848 0.0
C1150 C 0.70832 0.95992 0.03544 0.0
C1151 C 0.75702 0.961 0.98359 0.0
H1152 H 0.71911 0.94813 0.90531 0.0
C1153 C 0.76773 -0.00244 0.84588 0.0
C1154 C 0.76242 0.98716 0.81379 0.0
C1155 C 0.76316 0.98909 0.87958 0.0
C1156 C 0.73009 0.95137 0.92673 0.0
H1157 H 0.74685 0.96202 0.11595 0.0
H1158 H 0.75841 0.94933 0.05706 0.0
H1159 H 0.70939 0.9404 0.9676 0.0
H1160 H 0.74772 0.95982 0.79183 0.0
H1161 H 0.73992 0.94462 0.85139 0.0
H1162 H 0.77789 0.97146 0.94278 0.0
C1163 C 0.74246 0.95406 0.05996 0.0
C1164 C 0.72441 0.94721 0.96266 0.0
C1165 C 0.73579 0.96112 0.09396 0.0
C1166 C 0.75194 0.96819 0.81617 0.0
C1167 C 0.74753 0.9595 0.85025 0.0
C1168 C 0.76285 0.96468 0.94777 0.0
C1169 C 0.72912 0.95459 0.02966 0.0
C1170 C 0.73728 0.95316 0.99176 0.0
C1171 C 0.75341 0.96975 0.88238 0.0
C1172 C 0.74898 0.96114 0.91906 0.0
H1173 H 0.68575 0.97173 0.07193 0.0
H1174 H 0.69742 0.96069 0.01324 0.0
H1175 H 0.76753 0.96582 0.00478 0.0
H1176 H 0.7755 0.01238 0.84503 0.0
H1177 H 0.76721 -0.00211 0.90353 0.0
C1178 C 0.51511 0.78617 0.3449 0.0
C1179 C 0.50875 0.77087 0.32025 0.0
C1180 C 0.52269 0.78083 0.37898 0.0
C1181 C 0.54064 0.73801 0.43771 0.0
H1182 H 0.51111 0.76848 0.51192 0.0
C1183 C 0.52402 0.70604 0.57981 0.0
C1184 C 0.51951 0.71967 0.60848 0.0
C1185 C 0.52963 0.71355 0.54576 0.0
C1186 C 0.52001 0.76012 0.49186 0.0
H1187 H 0.50678 0.7379 0.31096 0.0
H1188 H 0.51976 0.72845 0.37125 0.0
H1189 H 0.50791 0.77872 0.44912 0.0
H1190 H 0.51992 0.75181 0.62495 0.0
H1191 H 0.53044 0.76494 0.56573 0.0
H1192 H 0.55238 0.71909 0.48069 0.0
C1193 C 0.51902 0.74462 0.36391 0.0
C1194 C 0.51807 0.76596 0.45564 0.0
C1195 C 0.51153 0.75 0.32945 0.0
C1196 C 0.523 0.74089 0.60337 0.0
C1197 C 0.52883 0.74842 0.56926 0.0
C1198 C 0.54275 0.73224 0.47416 0.0
C1199 C 0.52394 0.76004 0.38947 0.0
C1200 C 0.52801 0.75476 0.42805 0.0
C1201 C 0.53113 0.73491 0.53954 0.0
C1202 C 0.53204 0.74293 0.50165 0.0
H1203 H 0.51354 0.80241 0.33832 0.0
H1204 H 0.52681 0.79305 0.39772 0.0
H1205 H 0.54867 0.72922 0.41707 0.0
H1206 H 0.52177 0.68955 0.58284 0.0
H1207 H 0.53121 0.70261 0.52373 0.0
C1208 C 0.20404 0.48342 0.6658 0.0
C1209 C 0.21989 0.48927 0.68976 0.0
C1210 C 0.20863 0.47628 0.63111 0.0
C1211 C 0.22217 0.48204 0.55392 0.0
H1212 H 0.26826 0.44772 0.5247 0.0
C1213 C 0.28084 0.47855 0.42806 0.0
C1214 C 0.26708 0.48346 0.3998 0.0
C1215 C 0.27349 0.47231 0.46184 0.0
C1216 C 0.25531 0.45734 0.53241 0.0
H1217 H 0.25305 0.49079 0.69719 0.0
H1218 H 0.26119 0.4786 0.63579 0.0
H1219 H 0.25907 0.45025 0.58893 0.0
H1220 H 0.23487 0.48347 0.38371 0.0
H1221 H 0.22196 0.47201 0.44268 0.0
H1222 H 0.21897 0.49017 0.49821 0.0
C1223 C 0.24517 0.47939 0.64415 0.0
C1224 C 0.25009 0.45877 0.56919 0.0
C1225 C 0.24054 0.48643 0.67922 0.0
C1226 C 0.24586 0.48002 0.40502 0.0
C1227 C 0.23847 0.47363 0.43893 0.0
C1228 C 0.22747 0.48076 0.51735 0.0
C1229 C 0.2292 0.47499 0.61935 0.0
C1230 C 0.23369 0.47146 0.58035 0.0
C1231 C 0.25216 0.47065 0.46823 0.0
C1232 C 0.24441 0.4688 0.50613 0.0
H1233 H 0.18795 0.48503 0.67343 0.0
H1234 H 0.19601 0.47256 0.61293 0.0
H1235 H 0.20965 0.49221 0.56164 0.0
H1236 H 0.29734 0.48073 0.42485 0.0
H1237 H 0.28455 0.47029 0.48358 0.0
C1238 C 0.00408 0.23694 0.1691 0.0
C1239 C 0.00151 0.21619 0.17927 0.0
C1240 C 0.01115 0.24188 0.13418 0.0
C1241 C 0.00854 0.21968 0.0436 0.0
H1242 H 0.04356 0.26546 0.01527 0.0
C1243 C 0.01093 0.24415 0.89502 0.0
C1244 C 0.00826 0.26547 0.88993 0.0
C1245 C 0.01704 0.23646 0.92889 0.0
C1246 C 0.0337 0.25262 0.02271 0.0
H1247 H 0.00626 0.18443 0.16235 0.0
H1248 H 0.01865 0.19305 0.10205 0.0
H1249 H 0.04082 0.25598 0.07932 0.0
H1250 H 0.01209 0.29554 0.91525 0.0
H1251 H 0.02196 0.28227 0.97389 0.0
H1252 H 0.00032 0.21693 0.98787 0.0
C1253 C 0.01477 0.20549 0.12048 0.0
C1254 C 0.03218 0.24722 0.0594 0.0
C1255 C 0.00767 0.20058 0.15506 0.0
C1256 C 0.01366 0.27897 0.91831 0.0
C1257 C 0.01957 0.27133 0.95208 0.0
C1258 C 0.00986 0.2252 0.00713 0.0
C1259 C 0.01581 0.22613 0.10912 0.0
C1260 C 0.0193 0.2309 0.07023 0.0
C1261 C 0.02047 0.24995 0.95833 0.0
C1262 C 0.02209 0.24203 0.9962 0.0
H1263 H -0.00051 0.24927 0.18723 0.0
H1264 H 0.01176 0.25795 0.1261 0.0
H1265 H -0.00177 0.20721 0.05113 0.0
H1266 H 0.00711 0.23334 0.87362 0.0
H1267 H 0.01811 0.2199 0.93245 0.0
C1268 C 0.24373 0.01974 0.40339 0.0
C1269 C 0.22286 0.01425 0.39929 0.0
C1270 C 0.25107 0.02689 0.43692 0.0
C1271 C 0.23372 0.03773 0.53348 0.0
H1272 H 0.28472 0.00925 0.55562 0.0
C1273 C 0.25957 0.0183 0.68166 0.0
C1274 C 0.2687 -0.00125 0.68557 0.0
C1275 C 0.2556 0.02628 0.6469 0.0
C1276 C 0.27036 0.01721 0.55 0.0
H1277 H 0.19292 0.01438 0.42591 0.0
H1278 H 0.20562 0.02554 0.48384 0.0
H1279 H 0.27495 0.01427 0.49317 0.0
H1280 H 0.27965 0.97175 0.65668 0.0
H1281 H 0.27191 0.98499 0.59695 0.0
H1282 H 0.22831 0.03868 0.59079 0.0
C1283 C 0.21653 0.0248 0.46166 0.0
C1284 C 0.26491 0.02053 0.51389 0.0
C1285 C 0.2092 0.01806 0.42819 0.0
C1286 C 0.27291 0.98701 0.65447 0.0
C1287 C 0.2687 0.99476 0.62011 0.0
C1288 C 0.23895 0.03393 0.56974 0.0
C1289 C 0.23775 0.02832 0.46716 0.0
C1290 C 0.24599 0.02993 0.50497 0.0
C1291 C 0.26052 0.0147 0.61567 0.0
C1292 C 0.25685 0.02268 0.5783 0.0
H1293 H 0.25462 0.01734 0.3815 0.0
H1294 H 0.26739 0.03017 0.43958 0.0
H1295 H 0.21941 0.04577 0.5279 0.0
H1296 H 0.25628 0.02768 0.70529 0.0
H1297 H 0.24919 0.04166 0.64449 0.0
C1298 C 0.46592 0.21756 0.91938 0.0
C1299 C 0.47388 0.23071 0.89241 0.0
C1300 C 0.45982 0.22545 0.9529 0.0
C1301 C 0.44892 0.24485 0.02499 0.0
H1302 H 0.4943 0.28019 0.05433 0.0
C1303 C 0.47147 0.26714 0.17515 0.0
C1304 C 0.49269 0.26432 0.18201 0.0
C1305 C 0.46365 0.26498 0.13984 0.0
C1306 C 0.48139 0.27048 0.04652 0.0
H1307 H 0.47882 0.26274 0.87758 0.0
H1308 H 0.46778 0.2766 0.93602 0.0
H1309 H 0.48772 0.27467 0.99037 0.0
H1310 H 0.52195 0.2555 0.15771 0.0
H1311 H 0.50835 0.2518 0.09676 0.0
H1312 H 0.4437 0.23973 0.08187 0.0
C1313 C 0.46686 0.26009 0.93158 0.0
C1314 C 0.4774 0.26752 0.00978 0.0
C1315 C 0.47307 0.25216 0.89798 0.0
C1316 C 0.5056 0.25809 0.1534 0.0
C1317 C 0.49785 0.25608 0.11838 0.0
C1318 C 0.45293 0.24787 0.06197 0.0
C1319 C 0.46145 0.2467 0.96016 0.0
C1320 C 0.46169 0.25395 0.99847 0.0
C1321 C 0.47698 0.26014 0.11102 0.0
C1322 C 0.46982 0.25998 0.0729 0.0
H1323 H 0.46597 0.20096 0.91573 0.0
H1324 H 0.45573 0.21462 0.97409 0.0
H1325 H 0.43652 0.23452 0.01718 0.0
H1326 H 0.46111 0.27192 0.19662 0.0
H1327 H 0.44744 0.26801 0.1348 0.0
C1328 C 0.22537 0.58741 0.33124 0.0
C1329 C 0.22543 0.56915 0.31069 0.0
C1330 C 0.2074 0.59907 0.33474 0.0
C1331 C 0.15055 0.59853 0.3175 0.0
H1332 H 0.1586 0.65775 0.31086 0.0
C1333 C 0.10336 0.67334 0.26384 0.0
C1334 C 0.08352 0.66901 0.27732 0.0
C1335 C 0.12043 0.66219 0.27587 0.0
C1336 C 0.15605 0.64125 0.31272 0.0
H1337 H 0.20662 0.54841 0.27851 0.0
H1338 H 0.17532 0.56927 0.28314 0.0
H1339 H 0.18838 0.63524 0.31511 0.0
H1340 H 0.06629 0.65044 0.31588 0.0
H1341 H 0.09631 0.63119 0.3375 0.0
H1342 H 0.1182 0.60459 0.31251 0.0
C1343 C 0.18903 0.57434 0.29744 0.0
C1344 C 0.17316 0.6283 0.31567 0.0
C1345 C 0.20699 0.56244 0.29451 0.0
C1346 C 0.08135 0.6541 0.30481 0.0
C1347 C 0.09852 0.64295 0.31697 0.0
C1348 C 0.13341 0.61151 0.31412 0.0
C1349 C 0.1891 0.59299 0.31715 0.0
C1350 C 0.17068 0.60673 0.31742 0.0
C1351 C 0.11817 0.64651 0.30192 0.0
C1352 C 0.136 0.633 0.31085 0.0
H1353 H 0.23929 0.59277 0.34462 0.0
H1354 H 0.20794 0.61301 0.35094 0.0
H1355 H 0.14803 0.58204 0.31946 0.0
H1356 H 0.10565 0.68475 0.24272 0.0
H1357 H 0.13525 0.66522 0.2633 0.0
C1358 C 0.80932 0.10455 0.75888 0.0
C1359 C 0.81748 0.0847 0.76403 0.0
C1360 C 0.82091 0.12198 0.76799 0.0
C1361 C 0.86927 0.13991 0.81366 0.0
H1362 H 0.8656 0.18325 0.74134 0.0
C1363 C 0.92844 0.2074 0.79654 0.0
C1364 C 0.91946 0.22709 0.79339 0.0
C1365 C 0.91601 0.18968 0.79638 0.0
C1366 C 0.86669 0.17132 0.76186 0.0
H1367 H 0.84367 0.06746 0.78474 0.0
H1368 H 0.86417 0.09783 0.79952 0.0
H1369 H 0.84313 0.15332 0.73675 0.0
H1370 H 0.89039 0.24358 0.78788 0.0
H1371 H 0.86897 0.21279 0.78708 0.0
H1372 H 0.89348 0.15795 0.83791 0.0
C1373 C 0.84868 0.10003 0.78912 0.0
C1374 C 0.85369 0.15423 0.75947 0.0
C1375 C 0.83693 0.08259 0.78056 0.0
C1376 C 0.89786 0.22868 0.79033 0.0
C1377 C 0.88555 0.21105 0.78974 0.0
C1378 C 0.8825 0.15698 0.81578 0.0
C1379 C 0.84108 0.11994 0.78177 0.0
C1380 C 0.85467 0.13836 0.78546 0.0
C1381 C 0.89448 0.1914 0.79253 0.0
C1382 C 0.88119 0.17288 0.79001 0.0
H1383 H 0.79425 0.10665 0.74661 0.0
H1384 H 0.81429 0.13707 0.76304 0.0
H1385 H 0.87036 0.12806 0.83428 0.0
H1386 H 0.94502 0.20569 0.79911 0.0
H1387 H 0.92323 0.17464 0.79841 0.0
C1388 C 0.26868 0.9096 0.34462 0.0
C1389 C 0.26795 0.92649 0.32077 0.0
C1390 C 0.28679 0.89823 0.34879 0.0
C1391 C 0.34298 0.89723 0.32604 0.0
H1392 H 0.3342 0.83799 0.32852 0.0
C1393 C 0.3872 0.82019 0.27575 0.0
C1394 C 0.40756 0.82474 0.28625 0.0
C1395 C 0.37074 0.83184 0.2889 0.0
C1396 C 0.33694 0.85449 0.32789 0.0
H1397 H 0.28578 0.94528 0.28361 0.0
H1398 H 0.31731 0.92484 0.28953 0.0
H1399 H 0.30484 0.86103 0.33304 0.0
H1400 H 0.42648 0.84421 0.32083 0.0
H1401 H 0.39756 0.86443 0.34432 0.0
H1402 H 0.37503 0.89049 0.31828 0.0
C1403 C 0.30403 0.92066 0.30579 0.0
C1404 C 0.3201 0.86777 0.33096 0.0
C1405 C 0.28594 0.9323 0.30215 0.0
C1406 C 0.41097 0.84036 0.31209 0.0
C1407 C 0.39443 0.85206 0.32531 0.0
C1408 C 0.35985 0.88389 0.3226 0.0
C1409 C 0.30453 0.90321 0.32863 0.0
C1410 C 0.32283 0.88932 0.32929 0.0
C1411 C 0.3742 0.84828 0.31305 0.0
C1412 C 0.35694 0.86236 0.32255 0.0
H1413 H 0.25513 0.90501 0.35989 0.0
H1414 H 0.28673 0.88529 0.36737 0.0
H1415 H 0.3457 0.91372 0.3253 0.0
H1416 H 0.38398 0.80821 0.25601 0.0
H1417 H 0.35543 0.82861 0.27852 0.0
C1418 C 0.58398 0.26839 0.83739 0.0
C1419 C 0.56632 0.26867 0.81521 0.0
C1420 C 0.59653 0.2858 0.84046 0.0
C1421 C 0.62808 0.31792 0.8207 0.0
H1422 H 0.60736 0.37389 0.81369 0.0
C1423 C 0.67711 0.38514 0.76811 0.0
C1424 C 0.67306 0.40533 0.78016 0.0
C1425 C 0.66537 0.36857 0.78076 0.0
C1426 C 0.61345 0.3584 0.81639 0.0
H1427 H 0.54755 0.28763 0.77979 0.0
H1428 H 0.56991 0.31795 0.78401 0.0
H1429 H 0.58313 0.34537 0.82043 0.0
H1430 H 0.65467 0.42366 0.81741 0.0
H1431 H 0.63446 0.39459 0.84008 0.0
H1432 H 0.65837 0.33091 0.81695 0.0
C1433 C 0.57384 0.30438 0.79972 0.0
C1434 C 0.59951 0.342 0.81966 0.0
C1435 C 0.56107 0.28699 0.79708 0.0
C1436 C 0.65809 0.40833 0.80731 0.0
C1437 C 0.64637 0.3917 0.82008 0.0
C1438 C 0.64199 0.33429 0.81774 0.0
C1439 C 0.59193 0.30386 0.82097 0.0
C1440 C 0.60664 0.32152 0.82104 0.0
C1441 C 0.64939 0.37175 0.80598 0.0
C1442 C 0.63484 0.35469 0.81463 0.0
H1443 H 0.58824 0.2546 0.85225 0.0
H1444 H 0.61001 0.28498 0.8578 0.0
H1445 H 0.63419 0.30236 0.82132 0.0
H1446 H 0.68856 0.38222 0.74731 0.0
H1447 H 0.66806 0.35348 0.76905 0.0
C1448 C 0.70264 0.43927 0.1891 0.0
C1449 C 0.72133 0.43087 0.17658 0.0
C1450 C 0.6843 0.42787 0.18657 0.0
C1451 C 0.66711 0.37395 0.18262 0.0
H1452 H 0.61332 0.39779 0.16328 0.0
C1453 C 0.59372 0.32509 0.19767 0.0
C1454 C 0.57848 0.33449 0.21917 0.0
C1455 C 0.60989 0.33687 0.18326 0.0
C1456 C 0.62825 0.39091 0.16869 0.0
H1457 H 0.73519 0.40445 0.14959 0.0
H1458 H 0.70334 0.38485 0.14496 0.0
H1459 H 0.64434 0.419 0.15636 0.0
H1460 H 0.56737 0.36382 0.24007 0.0
H1461 H 0.59553 0.38412 0.21558 0.0
H1462 H 0.65117 0.34615 0.19626 0.0
C1463 C 0.70288 0.39999 0.15744 0.0
C1464 C 0.64598 0.40307 0.16483 0.0
C1465 C 0.72113 0.41128 0.16008 0.0
C1466 C 0.57898 0.35603 0.22394 0.0
C1467 C 0.59506 0.36775 0.20956 0.0
C1468 C 0.64944 0.36184 0.18656 0.0
C1469 C 0.68435 0.40793 0.17138 0.0
C1470 C 0.66557 0.3948 0.17237 0.0
C1471 C 0.61104 0.35825 0.18999 0.0
C1472 C 0.62977 0.37028 0.18036 0.0
H1473 H 0.70227 0.45433 0.20185 0.0
H1474 H 0.67027 0.43434 0.19781 0.0
H1475 H 0.68195 0.36718 0.18917 0.0
H1476 H 0.59369 0.30855 0.1933 0.0
H1477 H 0.62184 0.32915 0.16782 0.0
C1478 C 0.07737 0.72522 0.67132 0.0
C1479 C 0.05993 0.72566 0.69399 0.0
C1480 C 0.08946 0.7075 0.66874 0.0
C1481 C 0.12068 0.67574 0.69077 0.0
H1482 H 0.09979 0.61992 0.70049 0.0
C1483 C 0.17006 0.60932 0.74513 0.0
C1484 C 0.16654 0.58912 0.73262 0.0
C1485 C 0.15784 0.62562 0.73297 0.0
C1486 C 0.1059 0.63538 0.69711 0.0
H1487 H 0.04091 0.70765 0.73051 0.0
H1488 H 0.06252 0.67675 0.72715 0.0
H1489 H 0.07562 0.6484 0.69225 0.0
H1490 H 0.14827 0.57047 0.6956 0.0
H1491 H 0.12714 0.5991 0.6739 0.0
H1492 H 0.15091 0.66279 0.69539 0.0
C1493 C 0.06662 0.68999 0.71073 0.0
C1494 C 0.09201 0.65174 0.69292 0.0
C1495 C 0.05428 0.7077 0.71285 0.0
C1496 C 0.15134 0.58582 0.70596 0.0
C1497 C 0.1391 0.60219 0.69373 0.0
C1498 C 0.13452 0.65942 0.69469 0.0
C1499 C 0.08465 0.68988 0.68929 0.0
C1500 C 0.09923 0.67216 0.69039 0.0
C1501 C 0.14186 0.62217 0.70785 0.0
C1502 C 0.1273 0.6391 0.69875 0.0
H1503 H 0.08188 0.73873 0.65589 0.0
H1504 H 0.10287 0.70779 0.65118 0.0
H1505 H 0.12685 0.69127 0.68937 0.0
H1506 H 0.18165 0.61245 0.76561 0.0
H1507 H 0.16028 0.64076 0.74471 0.0
C1508 C 0.77172 0.0666 0.14276 0.0
C1509 C 0.76969 0.05115 0.16925 0.0
C1510 C 0.78992 0.07798 0.13991 0.0
C1511 C 0.84417 0.08234 0.17272 0.0
H1512 H 0.83276 0.14102 0.16591 0.0
C1513 C 0.88274 0.16235 0.22419 0.0
C1514 C 0.90356 0.159 0.21512 0.0
C1515 C 0.86732 0.1495 0.21041 0.0
C1516 C 0.83622 0.12469 0.16773 0.0
H1517 H 0.78549 0.03452 0.21198 0.0
H1518 H 0.81723 0.05489 0.20785 0.0
H1519 H 0.8049 0.11638 0.15739 0.0
H1520 H 0.92434 0.14026 0.18266 0.0
H1521 H 0.89728 0.11793 0.15836 0.0
H1522 H 0.87533 0.09087 0.18518 0.0
C1523 C 0.80488 0.05799 0.1888 0.0
C1524 C 0.8203 0.11051 0.16241 0.0
C1525 C 0.7867 0.04634 0.19129 0.0
C1526 C 0.90846 0.14323 0.19032 0.0
C1527 C 0.893 0.13032 0.1766 0.0
C1528 C 0.86013 0.09658 0.17815 0.0
C1529 C 0.80639 0.07443 0.16391 0.0
C1530 C 0.82397 0.08916 0.16552 0.0
C1531 C 0.87234 0.13302 0.18721 0.0
C1532 C 0.85619 0.11792 0.17653 0.0
H1533 H 0.75894 0.07038 0.12498 0.0
H1534 H 0.79077 0.09013 0.11977 0.0
H1535 H 0.84756 0.06601 0.17491 0.0
H1536 H 0.8784 0.17437 0.24315 0.0
H1537 H 0.85158 0.1519 0.21941 0.0
C1538 C 0.32286 0.88584 0.74013 0.0
C1539 C 0.33023 0.90612 0.73663 0.0
C1540 C 0.33546 0.86916 0.73125 0.0
C1541 C 0.38501 0.85365 0.68793 0.0
H1542 H 0.38121 0.80929 0.75832 0.0
C1543 C 0.44224 0.78371 0.70191 0.0
C1544 C 0.4321 0.76448 0.70256 0.0
C1545 C 0.43079 0.80207 0.70325 0.0
C1546 C 0.38241 0.82156 0.73845 0.0
H1547 H 0.35607 0.92494 0.719 0.0
H1548 H 0.37836 0.89574 0.70442 0.0
H1549 H 0.3587 0.83908 0.76404 0.0
H1550 H 0.40203 0.74951 0.70454 0.0
H1551 H 0.3824 0.78131 0.70742 0.0
H1552 H 0.40918 0.83591 0.66292 0.0
C1553 C 0.36274 0.89271 0.7135 0.0
C1554 C 0.36939 0.83855 0.74147 0.0
C1555 C 0.34998 0.90945 0.72189 0.0
C1556 C 0.4104 0.764 0.70406 0.0
C1557 C 0.39909 0.78221 0.70582 0.0
C1558 C 0.39825 0.83664 0.68514 0.0
C1559 C 0.35586 0.87238 0.71932 0.0
C1560 C 0.37022 0.85463 0.71589 0.0
C1561 C 0.40915 0.80137 0.7058 0.0
C1562 C 0.39677 0.82033 0.71007 0.0
H1563 H 0.30759 0.88284 0.75095 0.0
H1564 H 0.32944 0.85369 0.73493 0.0
H1565 H 0.38603 0.86578 0.66779 0.0
H1566 H 0.45893 0.78457 0.70057 0.0
H1567 H 0.43883 0.81675 0.70328 0.0
C1568 C 0.91001 0.34695 0.68915 0.0
C1569 C 0.90513 0.33035 0.71222 0.0
C1570 C 0.8944 0.35988 0.67598 0.0
C1571 C 0.86055 0.39267 0.67902 0.0
H1572 H 0.80571 0.37171 0.65841 0.0
C1573 C 0.78649 0.44088 0.69924 0.0
C1574 C 0.76899 0.43588 0.67861 0.0
C1575 C 0.80478 0.42962 0.69486 0.0
C1576 C 0.82097 0.37798 0.6633 0.0
H1577 H 0.87997 0.31357 0.73769 0.0
H1578 H 0.85301 0.33606 0.71522 0.0
H1579 H 0.83433 0.34785 0.66332 0.0
H1580 H 0.75723 0.41672 0.63505 0.0
H1581 H 0.78927 0.39784 0.62614 0.0
H1582 H 0.84711 0.42288 0.67888 0.0
C1583 C 0.86878 0.33911 0.70697 0.0
C1584 C 0.83736 0.36419 0.66661 0.0
C1585 C 0.8843 0.32626 0.72011 0.0
C1586 C 0.77045 0.42057 0.6518 0.0
C1587 C 0.78878 0.40969 0.64685 0.0
C1588 C 0.84413 0.40655 0.67535 0.0
C1589 C 0.87366 0.35636 0.68546 0.0
C1590 C 0.8572 0.37129 0.67567 0.0
C1591 C 0.80593 0.41348 0.66928 0.0
C1592 C 0.82401 0.39931 0.66844 0.0
H1593 H 0.92592 0.3505 0.68251 0.0
H1594 H 0.89861 0.37291 0.65909 0.0
H1595 H 0.87564 0.39864 0.68621 0.0
H1596 H 0.78569 0.45264 0.72009 0.0
H1597 H 0.8176 0.43289 0.71284 0.0
C1598 C 0.15092 0.90523 0.20465 0.0
C1599 C 0.1665 0.90159 0.23048 0.0
C1600 C 0.13815 0.88913 0.1929 0.0
C1601 C 0.10442 0.85642 0.19721 0.0
H1602 H 0.12435 0.80037 0.18609 0.0
C1603 C 0.05186 0.78435 0.21041 0.0
C1604 C 0.05701 0.7668 0.18997 0.0
C1605 C 0.06444 0.80196 0.20913 0.0
C1606 C 0.11847 0.81596 0.1885 0.0
H1607 H 0.18165 0.87788 0.26251 0.0
H1608 H 0.15939 0.85 0.24234 0.0
H1609 H 0.14896 0.82843 0.19271 0.0
H1610 H 0.07827 0.75444 0.15002 0.0
H1611 H 0.09968 0.7852 0.14691 0.0
H1612 H 0.07388 0.84388 0.19282 0.0
C1613 C 0.15705 0.86523 0.23093 0.0
C1614 C 0.13262 0.83203 0.19275 0.0
C1615 C 0.1698 0.88128 0.24264 0.0
C1616 C 0.07414 0.76762 0.16662 0.0
C1617 C 0.08648 0.78522 0.16496 0.0
C1618 C 0.09022 0.84032 0.19278 0.0
C1619 C 0.14075 0.86906 0.20665 0.0
C1620 C 0.12578 0.85239 0.19786 0.0
C1621 C 0.0822 0.80237 0.18704 0.0
C1622 C 0.09708 0.81985 0.18893 0.0
H1623 H 0.148 0.92067 0.19459 0.0
H1624 H 0.12595 0.8925 0.17371 0.0
H1625 H 0.09861 0.87191 0.20144 0.0
H1626 H 0.03875 0.78412 0.22865 0.0
H1627 H 0.06075 0.81485 0.22669 0.0
C1628 C 0.70016 0.05027 0.70005 0.0
C1629 C 0.71738 0.05552 0.67883 0.0
C1630 C 0.68252 0.06279 0.69965 0.0
C1631 C 0.64411 0.08912 0.68605 0.0
H1632 H 0.6572 0.1476 0.68795 0.0
C1633 C 0.58092 0.15127 0.70291 0.0
C1634 C 0.58526 0.16634 0.72936 0.0
C1635 C 0.59649 0.13816 0.69032 0.0
C1636 C 0.65328 0.13134 0.68743 0.0
H1637 H 0.72905 0.07673 0.63816 0.0
H1638 H 0.6982 0.09806 0.63661 0.0
H1639 H 0.6846 0.12262 0.67834 0.0
H1640 H 0.60962 0.18012 0.76184 0.0
H1641 H 0.63664 0.15728 0.74005 0.0
H1642 H 0.61286 0.09797 0.69699 0.0
C1643 C 0.69848 0.08482 0.65456 0.0
C1644 C 0.66895 0.11699 0.68147 0.0
C1645 C 0.71612 0.07254 0.65532 0.0
C1646 C 0.60571 0.16869 0.7415 0.0
C1647 C 0.62125 0.15563 0.72887 0.0
C1648 C 0.6284 0.10353 0.6921 0.0
C1649 C 0.68178 0.08058 0.6777 0.0
C1650 C 0.66463 0.09569 0.68117 0.0
C1651 C 0.61673 0.13992 0.70376 0.0
C1652 C 0.63289 0.12478 0.69346 0.0
H1653 H 0.70076 0.03724 0.71843 0.0
H1654 H 0.66995 0.05913 0.71795 0.0
H1655 H 0.64025 0.07285 0.68565 0.0
H1656 H 0.56534 0.14906 0.69289 0.0
H1657 H 0.59262 0.12639 0.67056 0.0
C1658 C 0.40856 0.72617 0.19487 0.0
C1659 C 0.43027 0.7261 0.195 0.0
C1660 C 0.3975 0.70789 0.19062 0.0
C1661 C 0.40207 0.65158 0.2011 0.0
H1662 H 0.34886 0.65265 0.15256 0.0
C1663 C 0.34786 0.5812 0.20181 0.0
C1664 C 0.32863 0.58594 0.21748 0.0
C1665 C 0.36092 0.59697 0.18978 0.0
C1666 C 0.36376 0.6521 0.16594 0.0
H1667 H 0.45742 0.70668 0.19043 0.0
H1668 H 0.438 0.67456 0.18241 0.0
H1669 H 0.37151 0.68274 0.14925 0.0
H1670 H 0.3073 0.61073 0.23011 0.0
H1671 H 0.32994 0.6382 0.20844 0.0
H1672 H 0.39409 0.62099 0.21813 0.0
C1673 C 0.42957 0.68884 0.18611 0.0
C1674 C 0.37668 0.66934 0.16429 0.0
C1675 C 0.4407 0.70723 0.19067 0.0
C1676 C 0.32206 0.60661 0.21832 0.0
C1677 C 0.33499 0.62233 0.20577 0.0
C1678 C 0.38923 0.63424 0.20235 0.0
C1679 C 0.40781 0.68899 0.18602 0.0
C1680 C 0.39567 0.66956 0.18293 0.0
C1681 C 0.35481 0.6177 0.19258 0.0
C1682 C 0.3697 0.63459 0.18573 0.0
H1683 H 0.39999 0.74039 0.19845 0.0
H1684 H 0.3808 0.70857 0.1917 0.0
H1685 H 0.41647 0.65124 0.21602 0.0
H1686 H 0.35339 0.56542 0.20082 0.0
H1687 H 0.37609 0.59302 0.17947 0.0
C1688 C 0.411 0.64909 0.80702 0.0
C1689 C 0.40798 0.66428 0.78028 0.0
C1690 C 0.39426 0.63761 0.82014 0.0
C1691 C 0.3593 0.60601 0.81894 0.0
H1692 H 0.30457 0.62975 0.82713 0.0
C1693 C 0.28477 0.55791 0.80266 0.0
C1694 C 0.26691 0.56427 0.82113 0.0
C1695 C 0.30296 0.56951 0.8051 0.0
C1696 C 0.31975 0.6228 0.82567 0.0
H1697 H 0.38485 0.68012 0.74797 0.0
H1698 H 0.35596 0.66009 0.77033 0.0
H1699 H 0.33425 0.65231 0.82077 0.0
H1700 H 0.25446 0.58686 0.85867 0.0
H1701 H 0.28625 0.60661 0.86394 0.0
H1702 H 0.34474 0.57646 0.8241 0.0
C1703 C 0.37113 0.65707 0.78152 0.0
C1704 C 0.33678 0.63578 0.82154 0.0
C1705 C 0.38778 0.66849 0.76845 0.0
C1706 C 0.26789 0.58179 0.84356 0.0
C1707 C 0.28611 0.59316 0.84647 0.0
C1708 C 0.34224 0.59298 0.8234 0.0
C1709 C 0.3742 0.64118 0.8069 0.0
C1710 C 0.35668 0.62754 0.81707 0.0
C1711 C 0.30372 0.58752 0.82651 0.0
C1712 C 0.32219 0.60121 0.82592 0.0
H1713 H 0.42637 0.64549 0.81677 0.0
H1714 H 0.39709 0.62565 0.84006 0.0
H1715 H 0.37441 0.59913 0.81534 0.0
H1716 H 0.28445 0.54447 0.78517 0.0
H1717 H 0.31614 0.56481 0.78901 0.0
C1718 C 0.83544 0.40438 0.28951 0.0
C1719 C 0.82112 0.40236 0.26102 0.0
C1720 C 0.84689 0.38733 0.30123 0.0
C1721 C 0.87911 0.3531 0.29933 0.0
H1722 H 0.85606 0.29785 0.29862 0.0
C1723 C 0.92932 0.27971 0.28607 0.0
C1724 C 0.92238 0.2615 0.30278 0.0
C1725 C 0.91723 0.29761 0.28715 0.0
C1726 C 0.86277 0.31316 0.29959 0.0
H1727 H 0.80693 0.3806 0.22373 0.0
H1728 H 0.82698 0.35115 0.24368 0.0
H1729 H 0.83332 0.32734 0.29172 0.0
H1730 H 0.89806 0.24811 0.33578 0.0
H1731 H 0.87741 0.27934 0.33867 0.0
H1732 H 0.90857 0.33885 0.30759 0.0
C1733 C 0.82927 0.36578 0.25734 0.0
C1734 C 0.84972 0.33009 0.29514 0.0
C1735 C 0.81782 0.38276 0.24571 0.0
C1736 C 0.90365 0.2618 0.32204 0.0
C1737 C 0.89176 0.27971 0.32358 0.0
C1738 C 0.89219 0.33613 0.30406 0.0
C1739 C 0.84423 0.36793 0.28473 0.0
C1740 C 0.85777 0.35022 0.29412 0.0
C1741 C 0.89812 0.29769 0.3054 0.0
C1742 C 0.88421 0.31593 0.30356 0.0
H1743 H 0.8383 0.41926 0.302 0.0
H1744 H 0.85808 0.38942 0.32276 0.0
H1745 H 0.88586 0.3684 0.29838 0.0
H1746 H 0.9437 0.27991 0.27103 0.0
H1747 H 0.92253 0.31111 0.27252 0.0
C1748 C 0.10298 0.81783 0.78285 0.0
C1749 C 0.08305 0.82627 0.78436 0.0
C1750 C 0.1201 0.82973 0.79238 0.0
C1751 C 0.137 0.88011 0.83205 0.0
H1752 H 0.18227 0.87259 0.76442 0.0
C1753 C 0.20659 0.93696 0.8122 0.0
C1754 C 0.22606 0.9273 0.81213 0.0
C1755 C 0.18848 0.92506 0.81252 0.0
C1756 C 0.16979 0.87479 0.78362 0.0
H1757 H 0.06522 0.8533 0.79932 0.0
H1758 H 0.09517 0.87434 0.81483 0.0
H1759 H 0.15221 0.85032 0.76045 0.0
H1760 H 0.24168 0.89759 0.81295 0.0
H1761 H 0.2103 0.87714 0.813 0.0
H1762 H 0.15473 0.90517 0.85432 0.0
C1763 C 0.09762 0.85843 0.80695 0.0
C1764 C 0.15261 0.8619 0.78162 0.0
C1765 C 0.08043 0.84636 0.79802 0.0
C1766 C 0.227 0.9056 0.81288 0.0
C1767 C 0.20902 0.89382 0.81281 0.0
C1768 C 0.1542 0.89322 0.83377 0.0
C1769 C 0.11771 0.85049 0.80285 0.0
C1770 C 0.13607 0.8642 0.80603 0.0
C1771 C 0.18961 0.90339 0.81227 0.0
C1772 C 0.17081 0.89049 0.80977 0.0
H1773 H 0.10541 0.80228 0.77284 0.0
H1774 H 0.13531 0.82289 0.79007 0.0
H1775 H 0.12458 0.88228 0.85134 0.0
H1776 H 0.20535 0.95363 0.8118 0.0
H1777 H 0.17363 0.93276 0.81196 0.0
C1778 C 0.6594 0.08839 0.28648 0.0
C1779 C 0.67774 0.08843 0.26614 0.0
C1780 C 0.65042 0.10695 0.29746 0.0
C1781 C 0.64902 0.1611 0.26764 0.0
H1782 H 0.6116 0.16664 0.34913 0.0
C1783 C 0.58759 0.22391 0.33194 0.0
C1784 C 0.57858 0.23067 0.29933 0.0
C1785 C 0.60186 0.20773 0.33191 0.0
C1786 C 0.62221 0.16552 0.32651 0.0
H1787 H 0.70218 0.10776 0.24451 0.0
H1788 H 0.68695 0.14013 0.26492 0.0
H1789 H 0.63442 0.13682 0.34563 0.0
H1790 H 0.57714 0.22547 0.24126 0.0
H1791 H 0.60144 0.19692 0.24132 0.0
H1792 H 0.63713 0.1899 0.24879 0.0
C1793 C 0.67903 0.12583 0.27116 0.0
C1794 C 0.63514 0.14829 0.3243 0.0
C1795 C 0.68785 0.10727 0.25967 0.0
C1796 C 0.58393 0.22075 0.2668 0.0
C1797 C 0.59802 0.20447 0.26682 0.0
C1798 C 0.6363 0.1784 0.27007 0.0
C1799 C 0.65976 0.12595 0.2888 0.0
C1800 C 0.64832 0.1456 0.29433 0.0
C1801 C 0.60729 0.19786 0.29931 0.0
C1802 C 0.62232 0.18054 0.29896 0.0
H1803 H 0.65123 0.07411 0.2919 0.0
H1804 H 0.6355 0.10637 0.31071 0.0
H1805 H 0.65875 0.15952 0.24391 0.0
H1806 H 0.58389 0.23132 0.35746 0.0
H1807 H 0.60886 0.20316 0.35736 0.0
loop_
_geom_bond_atom_site_label_1
_geom_bond_atom_site_label_2
_geom_bond_distance
_geom_bond_site_symmetry_2
_ccdc_geom_bond_type
O0 Zn1 1.953 . S
O0 C16 1.225 . S
Zn1 O0 1.953 . S
Zn1 O2 1.949 . S
Zn1 O8 1.919 . S
Zn1 O13 1.924 . S
O2 Zn1 1.949 . S
O2 Zn3 1.923 . S
O2 Zn4 1.950 . S
O2 Zn5 1.945 . S
Zn3 O2 1.923 . S
Zn3 O6 1.933 . S
Zn3 O9 1.941 . S
Zn3 O10 1.965 . S
Zn4 O2 1.950 . S
Zn4 O11 1.938 . S
Zn4 O12 1.906 . S
Zn4 O22 1.953 . S
Zn5 O2 1.945 . S
Zn5 O7 1.932 . S
Zn5 O14 1.977 . S
Zn5 O15 1.910 . S
O6 Zn3 1.933 . S
O6 C17 1.226 . S
O7 Zn5 1.932 . S
O7 C17 1.307 . S
O8 Zn1 1.919 . S
O8 C19 1.253 . S
O9 Zn3 1.941 . S
O9 C19 1.283 . S
O10 Zn3 1.965 . S
O10 C18 1.303 . S
O11 Zn4 1.938 . S
O11 C18 1.247 . S
O12 Zn4 1.906 . S
O12 C20 1.304 . S
O13 Zn1 1.924 . S
O13 C21 1.311 . S
O14 Zn5 1.977 . S
O14 C20 1.272 . S
O15 Zn5 1.910 . S
O15 C21 1.231 . S
C16 O0 1.225 . S
C16 O22 1.298 . S
C17 O6 1.226 . S
C17 O7 1.307 . S
C18 O10 1.303 . S
C18 O11 1.247 . S
C19 O8 1.253 . S
C19 O9 1.283 . S
C20 O12 1.304 . S
C20 O14 1.272 . S
C21 O13 1.311 . S
C21 O15 1.231 . S
O22 Zn4 1.953 . S
O22 C16 1.298 . S
O23 Zn24 1.953 . S
O23 C39 1.225 . S
Zn24 O23 1.953 . S
Zn24 O25 1.949 . S
Zn24 O31 1.919 . S
Zn24 O36 1.924 . S
O25 Zn24 1.949 . S
O25 Zn26 1.923 . S
O25 Zn27 1.950 . S
O25 Zn28 1.945 . S
Zn26 O25 1.923 . S
Zn26 O29 1.933 . S
Zn26 O32 1.941 . S
Zn26 O33 1.965 . S
Zn27 O25 1.950 . S
Zn27 O34 1.938 . S
Zn27 O35 1.906 1_655 S
Zn27 O45 1.953 . S
Zn28 O25 1.945 . S
Zn28 O30 1.932 . S
Zn28 O37 1.977 . S
Zn28 O38 1.910 . S
O29 Zn26 1.933 . S
O29 C40 1.226 . S
O30 Zn28 1.932 . S
O30 C40 1.307 . S
O31 Zn24 1.919 . S
O31 C42 1.253 . S
O32 Zn26 1.941 . S
O32 C42 1.283 . S
O33 Zn26 1.965 . S
O33 C41 1.303 . S
O34 Zn27 1.938 . S
O34 C41 1.247 . S
O35 Zn27 1.906 1_455 S
O35 C43 1.304 . S
O36 Zn24 1.924 . S
O36 C44 1.311 . S
O37 Zn28 1.977 . S
O37 C43 1.272 1_655 S
O38 Zn28 1.910 . S
O38 C44 1.231 . S
C39 O23 1.225 . S
C39 O45 1.298 . S
C40 O29 1.226 . S
C40 O30 1.307 . S
C41 O33 1.303 . S
C41 O34 1.247 . S
C42 O31 1.253 . S
C42 O32 1.283 . S
C43 O35 1.304 . S
C43 O37 1.272 1_455 S
C44 O36 1.311 . S
C44 O38 1.231 . S
O45 Zn27 1.953 . S
O45 C39 1.298 . S
O46 Zn47 1.953 . S
O46 C62 1.225 . S
Zn47 O46 1.953 . S
Zn47 O48 1.949 . S
Zn47 O54 1.919 . S
Zn47 O59 1.924 . S
O48 Zn47 1.949 . S
O48 Zn49 1.923 . S
O48 Zn50 1.950 . S
O48 Zn51 1.945 . S
Zn49 O48 1.923 . S
Zn49 O52 1.933 . S
Zn49 O55 1.941 . S
Zn49 O56 1.965 . S
Zn50 O48 1.950 . S
Zn50 O57 1.938 . S
Zn50 O58 1.906 1_565 S
Zn50 O68 1.953 . S
Zn51 O48 1.945 . S
Zn51 O53 1.932 . S
Zn51 O60 1.977 . S
Zn51 O61 1.910 . S
O52 Zn49 1.933 . S
O52 C63 1.226 . S
O53 Zn51 1.932 . S
O53 C63 1.307 . S
O54 Zn47 1.919 . S
O54 C65 1.253 . S
O55 Zn49 1.941 . S
O55 C65 1.283 . S
O56 Zn49 1.965 . S
O56 C64 1.303 . S
O57 Zn50 1.938 . S
O57 C64 1.247 . S
O58 Zn50 1.906 1_545 S
O58 C66 1.304 . S
O59 Zn47 1.924 . S
O59 C67 1.311 . S
O60 Zn51 1.977 . S
O60 C66 1.272 1_565 S
O61 Zn51 1.910 . S
O61 C67 1.231 . S
C62 O46 1.225 . S
C62 O68 1.298 . S
C63 O52 1.226 . S
C63 O53 1.307 . S
C64 O56 1.303 . S
C64 O57 1.247 . S
C65 O54 1.253 . S
C65 O55 1.283 . S
C66 O58 1.304 . S
C66 O60 1.272 1_545 S
C67 O59 1.311 . S
C67 O61 1.231 . S
O68 Zn50 1.953 . S
O68 C62 1.298 . S
O69 Zn70 1.953 . S
O69 C85 1.225 . S
Zn70 O69 1.953 . S
Zn70 O71 1.949 . S
Zn70 O77 1.919 . S
Zn70 O82 1.924 . S
O71 Zn70 1.949 . S
O71 Zn72 1.923 . S
O71 Zn73 1.950 . S
O71 Zn74 1.945 . S
Zn72 O71 1.923 . S
Zn72 O75 1.933 . S
Zn72 O78 1.941 . S
Zn72 O79 1.965 . S
Zn73 O71 1.950 . S
Zn73 O80 1.938 . S
Zn73 O81 1.906 . S
Zn73 O91 1.953 . S
Zn74 O71 1.945 . S
Zn74 O76 1.932 . S
Zn74 O83 1.977 . S
Zn74 O84 1.910 . S
O75 Zn72 1.933 . S
O75 C86 1.226 . S
O76 Zn74 1.932 . S
O76 C86 1.307 . S
O77 Zn70 1.919 . S
O77 C88 1.253 . S
O78 Zn72 1.941 . S
O78 C88 1.283 . S
O79 Zn72 1.965 . S
O79 C87 1.303 . S
O80 Zn73 1.938 . S
O80 C87 1.247 . S
O81 Zn73 1.906 . S
O81 C89 1.304 . S
O82 Zn70 1.924 . S
O82 C90 1.311 . S
O83 Zn74 1.977 . S
O83 C89 1.272 . S
O84 Zn74 1.910 . S
O84 C90 1.231 . S
C85 O69 1.225 . S
C85 O91 1.298 . S
C86 O75 1.226 . S
C86 O76 1.307 . S
C87 O79 1.303 . S
C87 O80 1.247 . S
C88 O77 1.253 . S
C88 O78 1.283 . S
C89 O81 1.304 . S
C89 O83 1.272 . S
C90 O82 1.311 . S
C90 O84 1.231 . S
O91 Zn73 1.953 . S
O91 C85 1.298 . S
O92 Zn93 1.953 . S
O92 C108 1.225 . S
Zn93 O92 1.953 . S
Zn93 O94 1.949 . S
Zn93 O100 1.919 . S
Zn93 O105 1.924 . S
O94 Zn93 1.949 . S
O94 Zn95 1.923 . S
O94 Zn96 1.950 . S
O94 Zn97 1.945 . S
Zn95 O94 1.923 . S
Zn95 O98 1.933 . S
Zn95 O101 1.941 . S
Zn95 O102 1.965 . S
Zn96 O94 1.950 . S
Zn96 O103 1.938 . S
Zn96 O104 1.906 . S
Zn96 O114 1.953 . S
Zn97 O94 1.945 . S
Zn97 O99 1.932 . S
Zn97 O106 1.977 . S
Zn97 O107 1.910 . S
O98 Zn95 1.933 . S
O98 C109 1.226 . S
O99 Zn97 1.932 . S
O99 C109 1.307 . S
O100 Zn93 1.919 . S
O100 C111 1.253 . S
O101 Zn95 1.941 . S
O101 C111 1.283 . S
O102 Zn95 1.965 . S
O102 C110 1.303 . S
O103 Zn96 1.938 . S
O103 C110 1.247 . S
O104 Zn96 1.906 . S
O104 C112 1.304 . S
O105 Zn93 1.924 . S
O105 C113 1.311 . S
O106 Zn97 1.977 . S
O106 C112 1.272 . S
O107 Zn97 1.910 . S
O107 C113 1.231 . S
C108 O92 1.225 . S
C108 O114 1.298 . S
C109 O98 1.226 . S
C109 O99 1.307 . S
C110 O102 1.303 . S
C110 O103 1.247 . S
C111 O100 1.253 . S
C111 O101 1.283 . S
C112 O104 1.304 . S
C112 O106 1.272 . S
C113 O105 1.311 . S
C113 O107 1.231 . S
O114 Zn96 1.953 . S
O114 C108 1.298 . S
O115 Zn116 1.953 . S
O115 C131 1.225 . S
Zn116 O115 1.953 . S
Zn116 O117 1.949 . S
Zn116 O123 1.919 . S
Zn116 O128 1.924 . S
O117 Zn116 1.949 . S
O117 Zn118 1.923 . S
O117 Zn119 1.950 . S
O117 Zn120 1.945 . S
Zn118 O117 1.923 . S
Zn118 O121 1.933 . S
Zn118 O124 1.941 . S
Zn118 O125 1.965 . S
Zn119 O117 1.950 . S
Zn119 O126 1.938 . S
Zn119 O127 1.906 1_455 S
Zn119 O137 1.953 . S
Zn120 O117 1.945 . S
Zn120 O122 1.932 . S
Zn120 O129 1.977 . S
Zn120 O130 1.910 . S
O121 Zn118 1.933 . S
O121 C132 1.226 . S
O122 Zn120 1.932 . S
O122 C132 1.307 . S
O123 Zn116 1.919 . S
O123 C134 1.253 . S
O124 Zn118 1.941 . S
O124 C134 1.283 . S
O125 Zn118 1.965 . S
O125 C133 1.303 . S
O126 Zn119 1.938 . S
O126 C133 1.247 . S
O127 Zn119 1.906 1_655 S
O127 C135 1.304 . S
O128 Zn116 1.924 . S
O128 C136 1.311 . S
O129 Zn120 1.977 . S
O129 C135 1.272 1_455 S
O130 Zn120 1.910 . S
O130 C136 1.231 . S
C131 O115 1.225 . S
C131 O137 1.298 . S
C132 O121 1.226 . S
C132 O122 1.307 . S
C133 O125 1.303 . S
C133 O126 1.247 . S
C134 O123 1.253 . S
C134 O124 1.283 . S
C135 O127 1.304 . S
C135 O129 1.272 1_655 S
C136 O128 1.311 . S
C136 O130 1.231 . S
O137 Zn119 1.953 . S
O137 C131 1.298 . S
O138 Zn139 1.953 . S
O138 C154 1.225 . S
Zn139 O138 1.953 . S
Zn139 O140 1.949 . S
Zn139 O146 1.919 . S
Zn139 O151 1.924 . S
O140 Zn139 1.949 . S
O140 Zn141 1.923 . S
O140 Zn142 1.950 . S
O140 Zn143 1.945 . S
Zn141 O140 1.923 . S
Zn141 O144 1.933 . S
Zn141 O147 1.941 . S
Zn141 O148 1.965 . S
Zn142 O140 1.950 . S
Zn142 O149 1.938 . S
Zn142 O150 1.906 1_545 S
Zn142 O160 1.953 . S
Zn143 O140 1.945 . S
Zn143 O145 1.932 . S
Zn143 O152 1.977 . S
Zn143 O153 1.910 . S
O144 Zn141 1.933 . S
O144 C155 1.226 . S
O145 Zn143 1.932 . S
O145 C155 1.307 . S
O146 Zn139 1.919 . S
O146 C157 1.253 . S
O147 Zn141 1.941 . S
O147 C157 1.283 . S
O148 Zn141 1.965 . S
O148 C156 1.303 . S
O149 Zn142 1.938 . S
O149 C156 1.247 . S
O150 Zn142 1.906 1_565 S
O150 C158 1.304 . S
O151 Zn139 1.924 . S
O151 C159 1.311 . S
O152 Zn143 1.977 . S
O152 C158 1.272 1_545 S
O153 Zn143 1.910 . S
O153 C159 1.231 . S
C154 O138 1.225 . S
C154 O160 1.298 . S
C155 O144 1.226 . S
C155 O145 1.307 . S
C156 O148 1.303 . S
C156 O149 1.247 . S
C157 O146 1.253 . S
C157 O147 1.283 . S
C158 O150 1.304 . S
C158 O152 1.272 1_565 S
C159 O151 1.311 . S
C159 O153 1.231 . S
O160 Zn142 1.953 . S
O160 C154 1.298 . S
O161 Zn162 1.953 . S
O161 C177 1.225 . S
Zn162 O161 1.953 . S
Zn162 O163 1.949 . S
Zn162 O169 1.919 . S
Zn162 O174 1.924 . S
O163 Zn162 1.949 . S
O163 Zn164 1.923 . S
O163 Zn165 1.950 . S
O163 Zn166 1.945 . S
Zn164 O163 1.923 . S
Zn164 O167 1.933 . S
Zn164 O170 1.941 . S
Zn164 O171 1.965 . S
Zn165 O163 1.950 . S
Zn165 O172 1.938 . S
Zn165 O173 1.906 . S
Zn165 O183 1.953 . S
Zn166 O163 1.945 . S
Zn166 O168 1.932 . S
Zn166 O175 1.977 . S
Zn166 O176 1.910 . S
O167 Zn164 1.933 . S
O167 C178 1.226 . S
O168 Zn166 1.932 . S
O168 C178 1.307 . S
O169 Zn162 1.919 . S
O169 C180 1.253 . S
O170 Zn164 1.941 . S
O170 C180 1.283 . S
O171 Zn164 1.965 . S
O171 C179 1.303 . S
O172 Zn165 1.938 . S
O172 C179 1.247 . S
O173 Zn165 1.906 . S
O173 C181 1.304 . S
O174 Zn162 1.924 . S
O174 C182 1.311 . S
O175 Zn166 1.977 . S
O175 C181 1.272 . S
O176 Zn166 1.910 . S
O176 C182 1.231 . S
C177 O161 1.225 . S
C177 O183 1.298 . S
C178 O167 1.226 . S
C178 O168 1.307 . S
C179 O171 1.303 . S
C179 O172 1.247 . S
C180 O169 1.253 . S
C180 O170 1.283 . S
C181 O173 1.304 . S
C181 O175 1.272 . S
C182 O174 1.311 . S
C182 O176 1.231 . S
O183 Zn165 1.953 . S
O183 C177 1.298 . S
O184 Zn185 1.953 . S
O184 C200 1.225 . S
Zn185 O184 1.953 . S
Zn185 O186 1.949 . S
Zn185 O192 1.919 . S
Zn185 O197 1.924 . S
O186 Zn185 1.949 . S
O186 Zn187 1.923 . S
O186 Zn188 1.950 . S
O186 Zn189 1.945 . S
Zn187 O186 1.923 . S
Zn187 O190 1.933 . S
Zn187 O193 1.941 . S
Zn187 O194 1.965 . S
Zn188 O186 1.950 . S
Zn188 O195 1.938 . S
Zn188 O196 1.906 . S
Zn188 O206 1.953 . S
Zn189 O186 1.945 . S
Zn189 O191 1.932 . S
Zn189 O198 1.977 . S
Zn189 O199 1.910 . S
O190 Zn187 1.933 . S
O190 C201 1.226 . S
O191 Zn189 1.932 . S
O191 C201 1.307 . S
O192 Zn185 1.919 . S
O192 C203 1.253 . S
O193 Zn187 1.941 . S
O193 C203 1.283 . S
O194 Zn187 1.965 . S
O194 C202 1.303 . S
O195 Zn188 1.938 . S
O195 C202 1.247 . S
O196 Zn188 1.906 . S
O196 C204 1.304 . S
O197 Zn185 1.924 . S
O197 C205 1.311 . S
O198 Zn189 1.977 . S
O198 C204 1.272 . S
O199 Zn189 1.910 . S
O199 C205 1.231 . S
C200 O184 1.225 . S
C200 O206 1.298 . S
C201 O190 1.226 . S
C201 O191 1.307 . S
C202 O194 1.303 . S
C202 O195 1.247 . S
C203 O192 1.253 . S
C203 O193 1.283 . S
C204 O196 1.304 . S
C204 O198 1.272 . S
C205 O197 1.311 . S
C205 O199 1.231 . S
O206 Zn188 1.953 . S
O206 C200 1.298 . S
O207 Zn208 1.953 . S
O207 C223 1.225 . S
Zn208 O207 1.953 . S
Zn208 O209 1.949 . S
Zn208 O215 1.919 . S
Zn208 O220 1.924 . S
O209 Zn208 1.949 . S
O209 Zn210 1.923 . S
O209 Zn211 1.950 . S
O209 Zn212 1.945 . S
Zn210 O209 1.923 . S
Zn210 O213 1.933 . S
Zn210 O216 1.941 . S
Zn210 O217 1.965 . S
Zn211 O209 1.950 . S
Zn211 O218 1.938 . S
Zn211 O219 1.906 1_455 S
Zn211 O229 1.953 . S
Zn212 O209 1.945 . S
Zn212 O214 1.932 . S
Zn212 O221 1.977 . S
Zn212 O222 1.910 . S
O213 Zn210 1.933 . S
O213 C224 1.226 . S
O214 Zn212 1.932 . S
O214 C224 1.307 . S
O215 Zn208 1.919 . S
O215 C226 1.253 . S
O216 Zn210 1.941 . S
O216 C226 1.283 . S
O217 Zn210 1.965 . S
O217 C225 1.303 . S
O218 Zn211 1.938 . S
O218 C225 1.247 . S
O219 Zn211 1.906 1_655 S
O219 C227 1.304 . S
O220 Zn208 1.924 . S
O220 C228 1.311 . S
O221 Zn212 1.977 . S
O221 C227 1.272 1_455 S
O222 Zn212 1.910 . S
O222 C228 1.231 . S
C223 O207 1.225 . S
C223 O229 1.298 . S
C224 O213 1.226 . S
C224 O214 1.307 . S
C225 O217 1.303 . S
C225 O218 1.247 . S
C226 O215 1.253 . S
C226 O216 1.283 . S
C227 O219 1.304 . S
C227 O221 1.272 1_655 S
C228 O220 1.311 . S
C228 O222 1.231 . S
O229 Zn211 1.953 . S
O229 C223 1.298 . S
O230 Zn231 1.953 . S
O230 C246 1.225 . S
Zn231 O230 1.953 . S
Zn231 O232 1.949 . S
Zn231 O238 1.919 . S
Zn231 O243 1.924 . S
O232 Zn231 1.949 . S
O232 Zn233 1.923 . S
O232 Zn234 1.950 . S
O232 Zn235 1.945 . S
Zn233 O232 1.923 . S
Zn233 O236 1.933 . S
Zn233 O239 1.941 . S
Zn233 O240 1.965 . S
Zn234 O232 1.950 . S
Zn234 O241 1.938 . S
Zn234 O242 1.906 1_545 S
Zn234 O252 1.953 . S
Zn235 O232 1.945 . S
Zn235 O237 1.932 . S
Zn235 O244 1.977 . S
Zn235 O245 1.910 . S
O236 Zn233 1.933 . S
O236 C247 1.226 . S
O237 Zn235 1.932 . S
O237 C247 1.307 . S
O238 Zn231 1.919 . S
O238 C249 1.253 . S
O239 Zn233 1.941 . S
O239 C249 1.283 . S
O240 Zn233 1.965 . S
O240 C248 1.303 . S
O241 Zn234 1.938 . S
O241 C248 1.247 . S
O242 Zn234 1.906 1_565 S
O242 C250 1.304 . S
O243 Zn231 1.924 . S
O243 C251 1.311 . S
O244 Zn235 1.977 . S
O244 C250 1.272 1_545 S
O245 Zn235 1.910 . S
O245 C251 1.231 . S
C246 O230 1.225 . S
C246 O252 1.298 . S
C247 O236 1.226 . S
C247 O237 1.307 . S
C248 O240 1.303 . S
C248 O241 1.247 . S
C249 O238 1.253 . S
C249 O239 1.283 . S
C250 O242 1.304 . S
C250 O244 1.272 1_565 S
C251 O243 1.311 . S
C251 O245 1.231 . S
O252 Zn234 1.953 . S
O252 C246 1.298 . S
O253 Zn254 1.953 . S
O253 C269 1.225 . S
Zn254 O253 1.953 . S
Zn254 O255 1.949 . S
Zn254 O261 1.919 . S
Zn254 O266 1.924 . S
O255 Zn254 1.949 . S
O255 Zn256 1.923 . S
O255 Zn257 1.950 . S
O255 Zn258 1.945 . S
Zn256 O255 1.923 . S
Zn256 O259 1.933 . S
Zn256 O262 1.941 . S
Zn256 O263 1.965 . S
Zn257 O255 1.950 . S
Zn257 O264 1.938 . S
Zn257 O265 1.906 . S
Zn257 O275 1.953 . S
Zn258 O255 1.945 . S
Zn258 O260 1.932 . S
Zn258 O267 1.977 . S
Zn258 O268 1.910 . S
O259 Zn256 1.933 . S
O259 C270 1.226 . S
O260 Zn258 1.932 . S
O260 C270 1.307 . S
O261 Zn254 1.919 . S
O261 C272 1.253 . S
O262 Zn256 1.941 . S
O262 C272 1.283 . S
O263 Zn256 1.965 . S
O263 C271 1.303 . S
O264 Zn257 1.938 . S
O264 C271 1.247 . S
O265 Zn257 1.906 . S
O265 C273 1.304 . S
O266 Zn254 1.924 . S
O266 C274 1.311 . S
O267 Zn258 1.977 . S
O267 C273 1.272 . S
O268 Zn258 1.910 . S
O268 C274 1.231 . S
C269 O253 1.225 . S
C269 O275 1.298 . S
C270 O259 1.226 . S
C270 O260 1.307 . S
C271 O263 1.303 . S
C271 O264 1.247 . S
C272 O261 1.253 . S
C272 O262 1.283 . S
C273 O265 1.304 . S
C273 O267 1.272 . S
C274 O266 1.311 . S
C274 O268 1.231 . S
O275 Zn257 1.953 . S
O275 C269 1.298 . S
O276 Zn277 1.953 . S
O276 C292 1.225 . S
Zn277 O276 1.953 . S
Zn277 O278 1.949 . S
Zn277 O284 1.919 . S
Zn277 O289 1.924 . S
O278 Zn277 1.949 . S
O278 Zn279 1.923 . S
O278 Zn280 1.950 . S
O278 Zn281 1.945 . S
Zn279 O278 1.923 . S
Zn279 O282 1.933 . S
Zn279 O285 1.941 . S
Zn279 O286 1.965 . S
Zn280 O278 1.950 . S
Zn280 O287 1.938 . S
Zn280 O288 1.906 . S
Zn280 O298 1.953 . S
Zn281 O278 1.945 . S
Zn281 O283 1.932 . S
Zn281 O290 1.977 . S
Zn281 O291 1.910 . S
O282 Zn279 1.933 . S
O282 C293 1.226 . S
O283 Zn281 1.932 . S
O283 C293 1.307 . S
O284 Zn277 1.919 . S
O284 C295 1.253 . S
O285 Zn279 1.941 . S
O285 C295 1.283 . S
O286 Zn279 1.965 . S
O286 C294 1.303 . S
O287 Zn280 1.938 . S
O287 C294 1.247 . S
O288 Zn280 1.906 . S
O288 C296 1.304 . S
O289 Zn277 1.924 . S
O289 C297 1.311 . S
O290 Zn281 1.977 . S
O290 C296 1.272 . S
O291 Zn281 1.910 . S
O291 C297 1.231 . S
C292 O276 1.225 . S
C292 O298 1.298 . S
C293 O282 1.226 . S
C293 O283 1.307 . S
C294 O286 1.303 . S
C294 O287 1.247 . S
C295 O284 1.253 . S
C295 O285 1.283 . S
C296 O288 1.304 . S
C296 O290 1.272 . S
C297 O289 1.311 . S
C297 O291 1.231 . S
O298 Zn280 1.953 . S
O298 C292 1.298 . S
O299 Zn300 1.953 . S
O299 C315 1.225 . S
Zn300 O299 1.953 . S
Zn300 O301 1.949 . S
Zn300 O307 1.919 . S
Zn300 O312 1.924 . S
O301 Zn300 1.949 . S
O301 Zn302 1.923 . S
O301 Zn303 1.950 . S
O301 Zn304 1.945 . S
Zn302 O301 1.923 . S
Zn302 O305 1.933 . S
Zn302 O308 1.941 . S
Zn302 O309 1.965 . S
Zn303 O301 1.950 . S
Zn303 O310 1.938 . S
Zn303 O311 1.906 1_655 S
Zn303 O321 1.953 . S
Zn304 O301 1.945 . S
Zn304 O306 1.932 . S
Zn304 O313 1.977 . S
Zn304 O314 1.910 . S
O305 Zn302 1.933 . S
O305 C316 1.226 . S
O306 Zn304 1.932 . S
O306 C316 1.307 . S
O307 Zn300 1.919 . S
O307 C318 1.253 . S
O308 Zn302 1.941 . S
O308 C318 1.283 . S
O309 Zn302 1.965 . S
O309 C317 1.303 . S
O310 Zn303 1.938 . S
O310 C317 1.247 . S
O311 Zn303 1.906 1_455 S
O311 C319 1.304 . S
O312 Zn300 1.924 . S
O312 C320 1.311 . S
O313 Zn304 1.977 . S
O313 C319 1.272 1_655 S
O314 Zn304 1.910 . S
O314 C320 1.231 . S
C315 O299 1.225 . S
C315 O321 1.298 . S
C316 O305 1.226 . S
C316 O306 1.307 . S
C317 O309 1.303 . S
C317 O310 1.247 . S
C318 O307 1.253 . S
C318 O308 1.283 . S
C319 O311 1.304 . S
C319 O313 1.272 1_455 S
C320 O312 1.311 . S
C320 O314 1.231 . S
O321 Zn303 1.953 . S
O321 C315 1.298 . S
O322 Zn323 1.953 . S
O322 C338 1.225 . S
Zn323 O322 1.953 . S
Zn323 O324 1.949 . S
Zn323 O330 1.919 . S
Zn323 O335 1.924 . S
O324 Zn323 1.949 . S
O324 Zn325 1.923 . S
O324 Zn326 1.950 . S
O324 Zn327 1.945 . S
Zn325 O324 1.923 . S
Zn325 O328 1.933 . S
Zn325 O331 1.941 . S
Zn325 O332 1.965 . S
Zn326 O324 1.950 . S
Zn326 O333 1.938 . S
Zn326 O334 1.906 1_565 S
Zn326 O344 1.953 . S
Zn327 O324 1.945 . S
Zn327 O329 1.932 . S
Zn327 O336 1.977 . S
Zn327 O337 1.910 . S
O328 Zn325 1.933 . S
O328 C339 1.226 . S
O329 Zn327 1.932 . S
O329 C339 1.307 . S
O330 Zn323 1.919 . S
O330 C341 1.253 . S
O331 Zn325 1.941 . S
O331 C341 1.283 . S
O332 Zn325 1.965 . S
O332 C340 1.303 . S
O333 Zn326 1.938 . S
O333 C340 1.247 . S
O334 Zn326 1.906 1_545 S
O334 C342 1.304 . S
O335 Zn323 1.924 . S
O335 C343 1.311 . S
O336 Zn327 1.977 . S
O336 C342 1.272 1_565 S
O337 Zn327 1.910 . S
O337 C343 1.231 . S
C338 O322 1.225 . S
C338 O344 1.298 . S
C339 O328 1.226 . S
C339 O329 1.307 . S
C340 O332 1.303 . S
C340 O333 1.247 . S
C341 O330 1.253 . S
C341 O331 1.283 . S
C342 O334 1.304 . S
C342 O336 1.272 1_545 S
C343 O335 1.311 . S
C343 O337 1.231 . S
O344 Zn326 1.953 . S
O344 C338 1.298 . S
O345 Zn346 1.953 . S
O345 C361 1.225 . S
Zn346 O345 1.953 . S
Zn346 O347 1.949 . S
Zn346 O353 1.919 . S
Zn346 O358 1.924 . S
O347 Zn346 1.949 . S
O347 Zn348 1.923 . S
O347 Zn349 1.950 . S
O347 Zn350 1.945 . S
Zn348 O347 1.923 . S
Zn348 O351 1.933 . S
Zn348 O354 1.941 . S
Zn348 O355 1.965 . S
Zn349 O347 1.950 . S
Zn349 O356 1.938 . S
Zn349 O357 1.906 . S
Zn349 O367 1.953 . S
Zn350 O347 1.945 . S
Zn350 O352 1.932 . S
Zn350 O359 1.977 . S
Zn350 O360 1.910 . S
O351 Zn348 1.933 . S
O351 C362 1.226 . S
O352 Zn350 1.932 . S
O352 C362 1.307 . S
O353 Zn346 1.919 . S
O353 C364 1.253 . S
O354 Zn348 1.941 . S
O354 C364 1.283 . S
O355 Zn348 1.965 . S
O355 C363 1.303 . S
O356 Zn349 1.938 . S
O356 C363 1.247 . S
O357 Zn349 1.906 . S
O357 C365 1.304 . S
O358 Zn346 1.924 . S
O358 C366 1.311 . S
O359 Zn350 1.977 . S
O359 C365 1.272 . S
O360 Zn350 1.910 . S
O360 C366 1.231 . S
C361 O345 1.225 . S
C361 O367 1.298 . S
C362 O351 1.226 . S
C362 O352 1.307 . S
C363 O355 1.303 . S
C363 O356 1.247 . S
C364 O353 1.253 . S
C364 O354 1.283 . S
C365 O357 1.304 . S
C365 O359 1.272 . S
C366 O358 1.311 . S
C366 O360 1.231 . S
O367 Zn349 1.953 . S
O367 C361 1.298 . S
C368 C369 1.349 . S
C368 C370 1.327 . S
C368 H393 0.950 . S
C369 C368 1.349 . S
C369 C385 1.349 . S
C370 C368 1.327 . S
C370 C389 1.429 . S
C370 H394 0.950 . S
C371 C388 1.574 . S
C371 C390 1.368 . S
C371 H395 0.949 . S
H372 C376 0.949 . S
C373 C374 1.349 . S
C373 C375 1.327 . S
C373 H396 0.950 . S
C374 C373 1.349 . S
C374 C386 1.349 . S
C375 C373 1.327 . S
C375 C391 1.429 . S
C375 H397 0.950 . S
C376 H372 0.949 . S
C376 C384 1.574 . S
C376 C392 1.368 . S
H377 C385 0.950 . S
H378 C383 0.950 . S
H379 C384 0.949 . S
H380 C386 0.950 . S
H381 C387 0.950 . S
H382 C388 0.949 . S
C383 H378 0.950 . S
C383 C385 1.327 . S
C383 C389 1.429 . S
C384 C376 1.574 . S
C384 H379 0.949 . S
C384 C390 1.368 . S
C385 C369 1.349 . S
C385 H377 0.950 . S
C385 C383 1.327 . S
C386 C374 1.349 . S
C386 H380 0.950 . S
C386 C387 1.327 . S
C387 H381 0.950 . S
C387 C386 1.327 . S
C387 C391 1.429 . S
C388 C371 1.574 . S
C388 H382 0.949 . S
C388 C392 1.368 . S
C389 C370 1.429 . S
C389 C383 1.429 . S
C389 C390 1.523 . S
C390 C371 1.368 . S
C390 C384 1.368 . S
C390 C389 1.523 . S
C391 C375 1.429 . S
C391 C387 1.429 . S
C391 C392 1.523 . S
C392 C376 1.368 . S
C392 C388 1.368 . S
C392 C391 1.523 . S
H393 C368 0.950 . S
H394 C370 0.950 . S
H395 C371 0.949 . S
H396 C373 0.950 . S
H397 C375 0.950 . S
C398 C399 1.349 . S
C398 C400 1.327 . S
C398 H423 0.950 . S
C399 C398 1.349 . S
C399 C415 1.349 . S
C400 C398 1.327 . S
C400 C419 1.429 . S
C400 H424 0.950 . S
C401 C418 1.574 1_554 S
C401 C420 1.368 . S
C401 H425 0.949 . S
H402 C406 0.949 . S
C403 C404 1.349 . S
C403 C405 1.327 . S
C403 H426 0.950 . S
C404 C403 1.349 . S
C404 C416 1.349 . S
C405 C403 1.327 . S
C405 C421 1.429 . S
C405 H427 0.950 . S
C406 H402 0.949 . S
C406 C414 1.574 1_556 S
C406 C422 1.368 . S
H407 C415 0.950 . S
H408 C413 0.950 . S
H409 C414 0.949 . S
H410 C416 0.950 . S
H411 C417 0.950 . S
H412 C418 0.949 . S
C413 H408 0.950 . S
C413 C415 1.327 . S
C413 C419 1.429 . S
C414 C406 1.574 1_554 S
C414 H409 0.949 . S
C414 C420 1.368 . S
C415 C399 1.349 . S
C415 H407 0.950 . S
C415 C413 1.327 . S
C416 C404 1.349 . S
C416 H410 0.950 . S
C416 C417 1.327 . S
C417 H411 0.950 . S
C417 C416 1.327 . S
C417 C421 1.429 . S
C418 C401 1.574 1_556 S
C418 H412 0.949 . S
C418 C422 1.368 . S
C419 C400 1.429 . S
C419 C413 1.429 . S
C419 C420 1.523 . S
C420 C401 1.368 . S
C420 C414 1.368 . S
C420 C419 1.523 . S
C421 C405 1.429 . S
C421 C417 1.429 . S
C421 C422 1.523 . S
C422 C406 1.368 . S
C422 C418 1.368 . S
C422 C421 1.523 . S
H423 C398 0.950 . S
H424 C400 0.950 . S
H425 C401 0.949 . S
H426 C403 0.950 . S
H427 C405 0.950 . S
C428 C429 1.349 . S
C428 C430 1.327 . S
C428 H453 0.950 . S
C429 C428 1.349 . S
C429 C445 1.349 . S
C430 C428 1.327 . S
C430 C449 1.429 . S
C430 H454 0.950 . S
C431 C448 1.574 . S
C431 C450 1.368 . S
C431 H455 0.949 . S
H432 C436 0.949 . S
C433 C434 1.349 . S
C433 C435 1.327 . S
C433 H456 0.950 . S
C434 C433 1.349 . S
C434 C446 1.349 . S
C435 C433 1.327 . S
C435 C451 1.429 . S
C435 H457 0.950 . S
C436 H432 0.949 . S
C436 C444 1.574 . S
C436 C452 1.368 . S
H437 C445 0.950 . S
H438 C443 0.950 . S
H439 C444 0.949 . S
H440 C446 0.950 . S
H441 C447 0.950 . S
H442 C448 0.949 . S
C443 H438 0.950 . S
C443 C445 1.327 . S
C443 C449 1.429 . S
C444 C436 1.574 . S
C444 H439 0.949 . S
C444 C450 1.368 . S
C445 C429 1.349 . S
C445 H437 0.950 . S
C445 C443 1.327 . S
C446 C434 1.349 . S
C446 H440 0.950 . S
C446 C447 1.327 . S
C447 H441 0.950 . S
C447 C446 1.327 . S
C447 C451 1.429 . S
C448 C431 1.574 . S
C448 H442 0.949 . S
C448 C452 1.368 . S
C449 C430 1.429 . S
C449 C443 1.429 . S
C449 C450 1.523 . S
C450 C431 1.368 . S
C450 C444 1.368 . S
C450 C449 1.523 . S
C451 C435 1.429 . S
C451 C447 1.429 . S
C451 C452 1.523 . S
C452 C436 1.368 . S
C452 C448 1.368 . S
C452 C451 1.523 . S
H453 C428 0.950 . S
H454 C430 0.950 . S
H455 C431 0.949 . S
H456 C433 0.950 . S
H457 C435 0.950 . S
C458 C459 1.349 . S
C458 C460 1.327 . S
C458 H483 0.950 . S
C459 C458 1.349 . S
C459 C475 1.349 . S
C460 C458 1.327 . S
C460 C479 1.429 . S
C460 H484 0.950 . S
C461 C478 1.574 . S
C461 C480 1.368 1_554 S
C461 H485 0.949 . S
H462 C466 0.949 . S
C463 C464 1.349 . S
C463 C465 1.327 . S
C463 H486 0.950 . S
C464 C463 1.349 . S
C464 C476 1.349 . S
C465 C463 1.327 . S
C465 C481 1.429 . S
C465 H487 0.950 . S
C466 H462 0.949 . S
C466 C474 1.574 . S
C466 C482 1.368 1_556 S
H467 C475 0.950 . S
H468 C473 0.950 . S
H469 C474 0.949 . S
H470 C476 0.950 . S
H471 C477 0.950 . S
H472 C478 0.949 . S
C473 H468 0.950 . S
C473 C475 1.327 . S
C473 C479 1.429 . S
C474 C466 1.574 . S
C474 H469 0.949 . S
C474 C480 1.368 . S
C475 C459 1.349 . S
C475 H467 0.950 . S
C475 C473 1.327 . S
C476 C464 1.349 . S
C476 H470 0.950 . S
C476 C477 1.327 . S
C477 H471 0.950 . S
C477 C476 1.327 . S
C477 C481 1.429 . S
C478 C461 1.574 . S
C478 H472 0.949 . S
C478 C482 1.368 . S
C479 C460 1.429 . S
C479 C473 1.429 . S
C479 C480 1.523 . S
C480 C461 1.368 1_556 S
C480 C474 1.368 . S
C480 C479 1.523 . S
C481 C465 1.429 . S
C481 C477 1.429 . S
C481 C482 1.523 . S
C482 C466 1.368 1_554 S
C482 C478 1.368 . S
C482 C481 1.523 . S
H483 C458 0.950 . S
H484 C460 0.950 . S
H485 C461 0.949 . S
H486 C463 0.950 . S
H487 C465 0.950 . S
C488 C489 1.349 . S
C488 C490 1.327 . S
C488 H513 0.950 . S
C489 C488 1.349 . S
C489 C505 1.349 . S
C490 C488 1.327 . S
C490 C509 1.429 . S
C490 H514 0.950 . S
C491 C508 1.574 . S
C491 C510 1.368 . S
C491 H515 0.949 . S
H492 C496 0.949 . S
C493 C494 1.349 . S
C493 C495 1.327 . S
C493 H516 0.950 . S
C494 C493 1.349 . S
C494 C506 1.349 . S
C495 C493 1.327 . S
C495 C511 1.429 . S
C495 H517 0.950 . S
C496 H492 0.949 . S
C496 C504 1.574 . S
C496 C512 1.368 . S
H497 C505 0.950 . S
H498 C503 0.950 . S
H499 C504 0.949 . S
H500 C506 0.950 . S
H501 C507 0.950 . S
H502 C508 0.949 . S
C503 H498 0.950 . S
C503 C505 1.327 . S
C503 C509 1.429 . S
C504 C496 1.574 . S
C504 H499 0.949 . S
C504 C510 1.368 . S
C505 C489 1.349 . S
C505 H497 0.950 . S
C505 C503 1.327 . S
C506 C494 1.349 . S
C506 H500 0.950 . S
C506 C507 1.327 . S
C507 H501 0.950 . S
C507 C506 1.327 . S
C507 C511 1.429 . S
C508 C491 1.574 . S
C508 H502 0.949 . S
C508 C512 1.368 . S
C509 C490 1.429 . S
C509 C503 1.429 . S
C509 C510 1.523 . S
C510 C491 1.368 . S
C510 C504 1.368 . S
C510 C509 1.523 . S
C511 C495 1.429 . S
C511 C507 1.429 . S
C511 C512 1.523 . S
C512 C496 1.368 . S
C512 C508 1.368 . S
C512 C511 1.523 . S
H513 C488 0.950 . S
H514 C490 0.950 . S
H515 C491 0.949 . S
H516 C493 0.950 . S
H517 C495 0.950 . S
C518 C519 1.349 . S
C518 C520 1.327 . S
C518 H543 0.950 . S
C519 C518 1.349 . S
C519 C535 1.349 . S
C520 C518 1.327 . S
C520 C539 1.429 . S
C520 H544 0.950 . S
C521 C538 1.574 . S
C521 C540 1.368 1_554 S
C521 H545 0.949 . S
H522 C526 0.949 . S
C523 C524 1.349 . S
C523 C525 1.327 . S
C523 H546 0.950 . S
C524 C523 1.349 . S
C524 C536 1.349 . S
C525 C523 1.327 . S
C525 C541 1.429 . S
C525 H547 0.950 . S
C526 H522 0.949 . S
C526 C534 1.574 . S
C526 C542 1.368 1_556 S
H527 C535 0.950 . S
H528 C533 0.950 . S
H529 C534 0.949 . S
H530 C536 0.950 . S
H531 C537 0.950 . S
H532 C538 0.949 . S
C533 H528 0.950 . S
C533 C535 1.327 . S
C533 C539 1.429 . S
C534 C526 1.574 . S
C534 H529 0.949 . S
C534 C540 1.368 . S
C535 C519 1.349 . S
C535 H527 0.950 . S
C535 C533 1.327 . S
C536 C524 1.349 . S
C536 H530 0.950 . S
C536 C537 1.327 . S
C537 H531 0.950 . S
C537 C536 1.327 . S
C537 C541 1.429 . S
C538 C521 1.574 . S
C538 H532 0.949 . S
C538 C542 1.368 . S
C539 C520 1.429 . S
C539 C533 1.429 . S
C539 C540 1.523 . S
C540 C521 1.368 1_556 S
C540 C534 1.368 . S
C540 C539 1.523 . S
C541 C525 1.429 . S
C541 C537 1.429 . S
C541 C542 1.523 . S
C542 C526 1.368 1_554 S
C542 C538 1.368 . S
C542 C541 1.523 . S
H543 C518 0.950 . S
H544 C520 0.950 . S
H545 C521 0.949 . S
H546 C523 0.950 . S
H547 C525 0.950 . S
C548 C549 1.349 . S
C548 C550 1.327 . S
C548 H573 0.950 . S
C549 C548 1.349 . S
C549 C565 1.349 . S
C550 C548 1.327 . S
C550 C569 1.429 . S
C550 H574 0.950 . S
C551 C568 1.574 . S
C551 C570 1.368 . S
C551 H575 0.949 . S
H552 C556 0.949 . S
C553 C554 1.349 . S
C553 C555 1.327 . S
C553 H576 0.950 . S
C554 C553 1.349 . S
C554 C566 1.349 . S
C555 C553 1.327 . S
C555 C571 1.429 . S
C555 H577 0.950 . S
C556 H552 0.949 . S
C556 C564 1.574 . S
C556 C572 1.368 . S
H557 C565 0.950 . S
H558 C563 0.950 . S
H559 C564 0.949 . S
H560 C566 0.950 . S
H561 C567 0.950 . S
H562 C568 0.949 . S
C563 H558 0.950 . S
C563 C565 1.327 . S
C563 C569 1.429 . S
C564 C556 1.574 . S
C564 H559 0.949 . S
C564 C570 1.368 . S
C565 C549 1.349 . S
C565 H557 0.950 . S
C565 C563 1.327 . S
C566 C554 1.349 . S
C566 H560 0.950 . S
C566 C567 1.327 . S
C567 H561 0.950 . S
C567 C566 1.327 . S
C567 C571 1.429 . S
C568 C551 1.574 . S
C568 H562 0.949 . S
C568 C572 1.368 . S
C569 C550 1.429 . S
C569 C563 1.429 . S
C569 C570 1.523 . S
C570 C551 1.368 . S
C570 C564 1.368 . S
C570 C569 1.523 . S
C571 C555 1.429 . S
C571 C567 1.429 . S
C571 C572 1.523 . S
C572 C556 1.368 . S
C572 C568 1.368 . S
C572 C571 1.523 . S
H573 C548 0.950 . S
H574 C550 0.950 . S
H575 C551 0.949 . S
H576 C553 0.950 . S
H577 C555 0.950 . S
C578 C579 1.349 . S
C578 C580 1.327 . S
C578 H603 0.950 . S
C579 C578 1.349 . S
C579 C595 1.349 . S
C580 C578 1.327 . S
C580 C599 1.429 . S
C580 H604 0.950 . S
C581 C598 1.574 . S
C581 C600 1.368 . S
C581 H605 0.949 . S
H582 C586 0.949 . S
C583 C584 1.349 . S
C583 C585 1.327 . S
C583 H606 0.950 . S
C584 C583 1.349 . S
C584 C596 1.349 . S
C585 C583 1.327 . S
C585 C601 1.429 . S
C585 H607 0.950 . S
C586 H582 0.949 . S
C586 C594 1.574 . S
C586 C602 1.368 . S
H587 C595 0.950 . S
H588 C593 0.950 . S
H589 C594 0.949 . S
H590 C596 0.950 . S
H591 C597 0.950 . S
H592 C598 0.949 . S
C593 H588 0.950 . S
C593 C595 1.327 . S
C593 C599 1.429 . S
C594 C586 1.574 . S
C594 H589 0.949 . S
C594 C600 1.368 1_554 S
C595 C579 1.349 . S
C595 H587 0.950 . S
C595 C593 1.327 . S
C596 C584 1.349 . S
C596 H590 0.950 . S
C596 C597 1.327 . S
C597 H591 0.950 . S
C597 C596 1.327 . S
C597 C601 1.429 . S
C598 C581 1.574 . S
C598 H592 0.949 . S
C598 C602 1.368 1_556 S
C599 C580 1.429 . S
C599 C593 1.429 . S
C599 C600 1.523 . S
C600 C581 1.368 . S
C600 C594 1.368 1_556 S
C600 C599 1.523 . S
C601 C585 1.429 . S
C601 C597 1.429 . S
C601 C602 1.523 . S
C602 C586 1.368 . S
C602 C598 1.368 1_554 S
C602 C601 1.523 . S
H603 C578 0.950 . S
H604 C580 0.950 . S
H605 C581 0.949 . S
H606 C583 0.950 . S
H607 C585 0.950 . S
C608 C609 1.349 . S
C608 C610 1.327 . S
C608 H633 0.950 . S
C609 C608 1.349 . S
C609 C625 1.349 . S
C610 C608 1.327 . S
C610 C629 1.429 . S
C610 H634 0.950 . S
C611 C628 1.574 . S
C611 C630 1.368 . S
C611 H635 0.949 . S
H612 C616 0.949 . S
C613 C614 1.349 . S
C613 C615 1.327 . S
C613 H636 0.950 . S
C614 C613 1.349 . S
C614 C626 1.349 . S
C615 C613 1.327 . S
C615 C631 1.429 . S
C615 H637 0.950 . S
C616 H612 0.949 . S
C616 C624 1.574 . S
C616 C632 1.368 . S
H617 C625 0.950 . S
H618 C623 0.950 . S
H619 C624 0.949 . S
H620 C626 0.950 . S
H621 C627 0.950 . S
H622 C628 0.949 . S
C623 H618 0.950 . S
C623 C625 1.327 . S
C623 C629 1.429 . S
C624 C616 1.574 . S
C624 H619 0.949 . S
C624 C630 1.368 . S
C625 C609 1.349 . S
C625 H617 0.950 . S
C625 C623 1.327 . S
C626 C614 1.349 . S
C626 H620 0.950 . S
C626 C627 1.327 . S
C627 H621 0.950 . S
C627 C626 1.327 . S
C627 C631 1.429 . S
C628 C611 1.574 . S
C628 H622 0.949 . S
C628 C632 1.368 . S
C629 C610 1.429 . S
C629 C623 1.429 . S
C629 C630 1.523 . S
C630 C611 1.368 . S
C630 C624 1.368 . S
C630 C629 1.523 . S
C631 C615 1.429 . S
C631 C627 1.429 . S
C631 C632 1.523 . S
C632 C616 1.368 . S
C632 C628 1.368 . S
C632 C631 1.523 . S
H633 C608 0.950 . S
H634 C610 0.950 . S
H635 C611 0.949 . S
H636 C613 0.950 . S
H637 C615 0.950 . S
C638 C639 1.349 . S
C638 C640 1.327 . S
C638 H663 0.950 . S
C639 C638 1.349 . S
C639 C655 1.349 . S
C640 C638 1.327 . S
C640 C659 1.429 . S
C640 H664 0.950 . S
C641 C658 1.574 . S
C641 C660 1.368 . S
C641 H665 0.949 . S
H642 C646 0.949 . S
C643 C644 1.349 . S
C643 C645 1.327 . S
C643 H666 0.950 . S
C644 C643 1.349 . S
C644 C656 1.349 . S
C645 C643 1.327 . S
C645 C661 1.429 . S
C645 H667 0.950 . S
C646 H642 0.949 . S
C646 C654 1.574 . S
C646 C662 1.368 . S
H647 C655 0.950 . S
H648 C653 0.950 . S
H649 C654 0.949 . S
H650 C656 0.950 . S
H651 C657 0.950 . S
H652 C658 0.949 . S
C653 H648 0.950 . S
C653 C655 1.327 . S
C653 C659 1.429 . S
C654 C646 1.574 . S
C654 H649 0.949 . S
C654 C660 1.368 . S
C655 C639 1.349 . S
C655 H647 0.950 . S
C655 C653 1.327 . S
C656 C644 1.349 . S
C656 H650 0.950 . S
C656 C657 1.327 . S
C657 H651 0.950 . S
C657 C656 1.327 . S
C657 C661 1.429 . S
C658 C641 1.574 . S
C658 H652 0.949 . S
C658 C662 1.368 . S
C659 C640 1.429 . S
C659 C653 1.429 . S
C659 C660 1.523 . S
C660 C641 1.368 . S
C660 C654 1.368 . S
C660 C659 1.523 . S
C661 C645 1.429 . S
C661 C657 1.429 . S
C661 C662 1.523 . S
C662 C646 1.368 . S
C662 C658 1.368 . S
C662 C661 1.523 . S
H663 C638 0.950 . S
H664 C640 0.950 . S
H665 C641 0.949 . S
H666 C643 0.950 . S
H667 C645 0.950 . S
C668 C669 1.349 . S
C668 C670 1.327 . S
C668 H693 0.950 . S
C669 C668 1.349 . S
C669 C685 1.349 . S
C670 C668 1.327 . S
C670 C689 1.429 . S
C670 H694 0.950 . S
C671 C688 1.574 . S
C671 C690 1.368 . S
C671 H695 0.949 . S
H672 C676 0.949 . S
C673 C674 1.349 . S
C673 C675 1.327 . S
C673 H696 0.950 . S
C674 C673 1.349 . S
C674 C686 1.349 . S
C675 C673 1.327 . S
C675 C691 1.429 . S
C675 H697 0.950 . S
C676 H672 0.949 . S
C676 C684 1.574 . S
C676 C692 1.368 . S
H677 C685 0.950 . S
H678 C683 0.950 . S
H679 C684 0.949 . S
H680 C686 0.950 . S
H681 C687 0.950 . S
H682 C688 0.949 . S
C683 H678 0.950 . S
C683 C685 1.327 . S
C683 C689 1.429 . S
C684 C676 1.574 . S
C684 H679 0.949 . S
C684 C690 1.368 . S
C685 C669 1.349 . S
C685 H677 0.950 . S
C685 C683 1.327 . S
C686 C674 1.349 . S
C686 H680 0.950 . S
C686 C687 1.327 . S
C687 H681 0.950 . S
C687 C686 1.327 . S
C687 C691 1.429 . S
C688 C671 1.574 . S
C688 H682 0.949 . S
C688 C692 1.368 . S
C689 C670 1.429 . S
C689 C683 1.429 . S
C689 C690 1.523 . S
C690 C671 1.368 . S
C690 C684 1.368 . S
C690 C689 1.523 . S
C691 C675 1.429 . S
C691 C687 1.429 . S
C691 C692 1.523 . S
C692 C676 1.368 . S
C692 C688 1.368 . S
C692 C691 1.523 . S
H693 C668 0.950 . S
H694 C670 0.950 . S
H695 C671 0.949 . S
H696 C673 0.950 . S
H697 C675 0.950 . S
C698 C699 1.349 . S
C698 C700 1.327 . S
C698 H723 0.950 . S
C699 C698 1.349 . S
C699 C715 1.349 . S
C700 C698 1.327 . S
C700 C719 1.429 . S
C700 H724 0.950 . S
C701 C718 1.574 . S
C701 C720 1.368 . S
C701 H725 0.949 . S
H702 C706 0.949 . S
C703 C704 1.349 . S
C703 C705 1.327 . S
C703 H726 0.950 . S
C704 C703 1.349 . S
C704 C716 1.349 . S
C705 C703 1.327 . S
C705 C721 1.429 . S
C705 H727 0.950 . S
C706 H702 0.949 . S
C706 C714 1.574 . S
C706 C722 1.368 . S
H707 C715 0.950 . S
H708 C713 0.950 . S
H709 C714 0.949 . S
H710 C716 0.950 . S
H711 C717 0.950 . S
H712 C718 0.949 . S
C713 H708 0.950 . S
C713 C715 1.327 . S
C713 C719 1.429 . S
C714 C706 1.574 . S
C714 H709 0.949 . S
C714 C720 1.368 . S
C715 C699 1.349 . S
C715 H707 0.950 . S
C715 C713 1.327 . S
C716 C704 1.349 . S
C716 H710 0.950 . S
C716 C717 1.327 . S
C717 H711 0.950 . S
C717 C716 1.327 . S
C717 C721 1.429 . S
C718 C701 1.574 . S
C718 H712 0.949 . S
C718 C722 1.368 . S
C719 C700 1.429 . S
C719 C713 1.429 . S
C719 C720 1.523 . S
C720 C701 1.368 . S
C720 C714 1.368 . S
C720 C719 1.523 . S
C721 C705 1.429 . S
C721 C717 1.429 . S
C721 C722 1.523 . S
C722 C706 1.368 . S
C722 C718 1.368 . S
C722 C721 1.523 . S
H723 C698 0.950 . S
H724 C700 0.950 . S
H725 C701 0.949 . S
H726 C703 0.950 . S
H727 C705 0.950 . S
C728 C729 1.349 . S
C728 C730 1.327 . S
C728 H753 0.950 . S
C729 C728 1.349 . S
C729 C745 1.349 . S
C730 C728 1.327 . S
C730 C749 1.429 . S
C730 H754 0.950 . S
C731 C748 1.574 . S
C731 C750 1.368 . S
C731 H755 0.949 . S
H732 C736 0.949 . S
C733 C734 1.349 . S
C733 C735 1.327 . S
C733 H756 0.950 . S
C734 C733 1.349 . S
C734 C746 1.349 . S
C735 C733 1.327 . S
C735 C751 1.429 . S
C735 H757 0.950 . S
C736 H732 0.949 . S
C736 C744 1.574 . S
C736 C752 1.368 . S
H737 C745 0.950 . S
H738 C743 0.950 . S
H739 C744 0.949 . S
H740 C746 0.950 . S
H741 C747 0.950 . S
H742 C748 0.949 . S
C743 H738 0.950 . S
C743 C745 1.327 . S
C743 C749 1.429 . S
C744 C736 1.574 . S
C744 H739 0.949 . S
C744 C750 1.368 . S
C745 C729 1.349 . S
C745 H737 0.950 . S
C745 C743 1.327 . S
C746 C734 1.349 . S
C746 H740 0.950 . S
C746 C747 1.327 . S
C747 H741 0.950 . S
C747 C746 1.327 . S
C747 C751 1.429 . S
C748 C731 1.574 . S
C748 H742 0.949 . S
C748 C752 1.368 . S
C749 C730 1.429 . S
C749 C743 1.429 . S
C749 C750 1.523 . S
C750 C731 1.368 . S
C750 C744 1.368 . S
C750 C749 1.523 . S
C751 C735 1.429 . S
C751 C747 1.429 . S
C751 C752 1.523 . S
C752 C736 1.368 . S
C752 C748 1.368 . S
C752 C751 1.523 . S
H753 C728 0.950 . S
H754 C730 0.950 . S
H755 C731 0.949 . S
H756 C733 0.950 . S
H757 C735 0.950 . S
C758 C759 1.349 . S
C758 C760 1.327 . S
C758 H783 0.950 . S
C759 C758 1.349 . S
C759 C775 1.349 . S
C760 C758 1.327 . S
C760 C779 1.429 . S
C760 H784 0.950 . S
C761 C778 1.574 . S
C761 C780 1.368 . S
C761 H785 0.949 . S
H762 C766 0.949 . S
C763 C764 1.349 . S
C763 C765 1.327 . S
C763 H786 0.950 . S
C764 C763 1.349 . S
C764 C776 1.349 . S
C765 C763 1.327 . S
C765 C781 1.429 . S
C765 H787 0.950 . S
C766 H762 0.949 . S
C766 C774 1.574 . S
C766 C782 1.368 . S
H767 C775 0.950 . S
H768 C773 0.950 . S
H769 C774 0.949 . S
H770 C776 0.950 . S
H771 C777 0.950 . S
H772 C778 0.949 . S
C773 H768 0.950 . S
C773 C775 1.327 . S
C773 C779 1.429 . S
C774 C766 1.574 . S
C774 H769 0.949 . S
C774 C780 1.368 . S
C775 C759 1.349 . S
C775 H767 0.950 . S
C775 C773 1.327 . S
C776 C764 1.349 . S
C776 H770 0.950 . S
C776 C777 1.327 . S
C777 H771 0.950 . S
C777 C776 1.327 . S
C777 C781 1.429 . S
C778 C761 1.574 . S
C778 H772 0.949 . S
C778 C782 1.368 . S
C779 C760 1.429 . S
C779 C773 1.429 . S
C779 C780 1.523 . S
C780 C761 1.368 . S
C780 C774 1.368 . S
C780 C779 1.523 . S
C781 C765 1.429 . S
C781 C777 1.429 . S
C781 C782 1.523 . S
C782 C766 1.368 . S
C782 C778 1.368 . S
C782 C781 1.523 . S
H783 C758 0.950 . S
H784 C760 0.950 . S
H785 C761 0.949 . S
H786 C763 0.950 . S
H787 C765 0.950 . S
C788 C789 1.349 . S
C788 C790 1.327 . S
C788 H813 0.950 . S
C789 C788 1.349 . S
C789 C805 1.349 . S
C790 C788 1.327 . S
C790 C809 1.429 . S
C790 H814 0.950 . S
C791 C808 1.574 . S
C791 C810 1.368 . S
C791 H815 0.949 . S
H792 C796 0.949 . S
C793 C794 1.349 . S
C793 C795 1.327 . S
C793 H816 0.950 . S
C794 C793 1.349 . S
C794 C806 1.349 . S
C795 C793 1.327 . S
C795 C811 1.429 . S
C795 H817 0.950 . S
C796 H792 0.949 . S
C796 C804 1.574 . S
C796 C812 1.368 . S
H797 C805 0.950 . S
H798 C803 0.950 . S
H799 C804 0.949 . S
H800 C806 0.950 . S
H801 C807 0.950 . S
H802 C808 0.949 . S
C803 H798 0.950 . S
C803 C805 1.327 . S
C803 C809 1.429 . S
C804 C796 1.574 . S
C804 H799 0.949 . S
C804 C810 1.368 . S
C805 C789 1.349 . S
C805 H797 0.950 . S
C805 C803 1.327 . S
C806 C794 1.349 . S
C806 H800 0.950 . S
C806 C807 1.327 . S
C807 H801 0.950 . S
C807 C806 1.327 . S
C807 C811 1.429 . S
C808 C791 1.574 . S
C808 H802 0.949 . S
C808 C812 1.368 . S
C809 C790 1.429 . S
C809 C803 1.429 . S
C809 C810 1.523 . S
C810 C791 1.368 . S
C810 C804 1.368 . S
C810 C809 1.523 . S
C811 C795 1.429 . S
C811 C807 1.429 . S
C811 C812 1.523 . S
C812 C796 1.368 . S
C812 C808 1.368 . S
C812 C811 1.523 . S
H813 C788 0.950 . S
H814 C790 0.950 . S
H815 C791 0.949 . S
H816 C793 0.950 . S
H817 C795 0.950 . S
C818 C819 1.349 . S
C818 C820 1.327 . S
C818 H843 0.950 . S
C819 C818 1.349 . S
C819 C835 1.349 . S
C820 C818 1.327 . S
C820 C839 1.429 . S
C820 H844 0.950 . S
C821 C838 1.574 . S
C821 C840 1.368 . S
C821 H845 0.949 . S
H822 C826 0.949 . S
C823 C824 1.349 . S
C823 C825 1.327 . S
C823 H846 0.950 . S
C824 C823 1.349 . S
C824 C836 1.349 . S
C825 C823 1.327 . S
C825 C841 1.429 . S
C825 H847 0.950 . S
C826 H822 0.949 . S
C826 C834 1.574 . S
C826 C842 1.368 . S
H827 C835 0.950 . S
H828 C833 0.950 . S
H829 C834 0.949 . S
H830 C836 0.950 . S
H831 C837 0.950 . S
H832 C838 0.949 . S
C833 H828 0.950 . S
C833 C835 1.327 . S
C833 C839 1.429 . S
C834 C826 1.574 . S
C834 H829 0.949 . S
C834 C840 1.368 . S
C835 C819 1.349 . S
C835 H827 0.950 . S
C835 C833 1.327 . S
C836 C824 1.349 . S
C836 H830 0.950 . S
C836 C837 1.327 . S
C837 H831 0.950 . S
C837 C836 1.327 . S
C837 C841 1.429 . S
C838 C821 1.574 . S
C838 H832 0.949 . S
C838 C842 1.368 . S
C839 C820 1.429 . S
C839 C833 1.429 . S
C839 C840 1.523 . S
C840 C821 1.368 . S
C840 C834 1.368 . S
C840 C839 1.523 . S
C841 C825 1.429 . S
C841 C837 1.429 . S
C841 C842 1.523 . S
C842 C826 1.368 . S
C842 C838 1.368 . S
C842 C841 1.523 . S
H843 C818 0.950 . S
H844 C820 0.950 . S
H845 C821 0.949 . S
H846 C823 0.950 . S
H847 C825 0.950 . S
C848 C849 1.349 . S
C848 C850 1.327 . S
C848 H873 0.950 . S
C849 C848 1.349 . S
C849 C865 1.349 . S
C850 C848 1.327 . S
C850 C869 1.429 . S
C850 H874 0.950 . S
C851 C868 1.574 . S
C851 C870 1.368 . S
C851 H875 0.949 . S
H852 C856 0.949 . S
C853 C854 1.349 . S
C853 C855 1.327 . S
C853 H876 0.950 . S
C854 C853 1.349 . S
C854 C866 1.349 . S
C855 C853 1.327 . S
C855 C871 1.429 . S
C855 H877 0.950 . S
C856 H852 0.949 . S
C856 C864 1.574 . S
C856 C872 1.368 . S
H857 C865 0.950 . S
H858 C863 0.950 . S
H859 C864 0.949 . S
H860 C866 0.950 . S
H861 C867 0.950 . S
H862 C868 0.949 . S
C863 H858 0.950 . S
C863 C865 1.327 . S
C863 C869 1.429 . S
C864 C856 1.574 . S
C864 H859 0.949 . S
C864 C870 1.368 . S
C865 C849 1.349 . S
C865 H857 0.950 . S
C865 C863 1.327 . S
C866 C854 1.349 . S
C866 H860 0.950 . S
C866 C867 1.327 . S
C867 H861 0.950 . S
C867 C866 1.327 . S
C867 C871 1.429 . S
C868 C851 1.574 . S
C868 H862 0.949 . S
C868 C872 1.368 . S
C869 C850 1.429 . S
C869 C863 1.429 . S
C869 C870 1.523 1_556 S
C870 C851 1.368 . S
C870 C864 1.368 . S
C870 C869 1.523 1_554 S
C871 C855 1.429 . S
C871 C867 1.429 . S
C871 C872 1.523 . S
C872 C856 1.368 . S
C872 C868 1.368 . S
C872 C871 1.523 . S
H873 C848 0.950 . S
H874 C850 0.950 . S
H875 C851 0.949 . S
H876 C853 0.950 . S
H877 C855 0.950 . S
C878 C879 1.349 . S
C878 C880 1.327 . S
C878 H903 0.950 . S
C879 C878 1.349 . S
C879 C895 1.349 1_655 S
C880 C878 1.327 . S
C880 C899 1.429 . S
C880 H904 0.950 . S
C881 C898 1.574 . S
C881 C900 1.368 1_455 S
C881 H905 0.949 . S
H882 C886 0.949 . S
C883 C884 1.349 1_455 S
C883 C885 1.327 . S
C883 H906 0.950 . S
C884 C883 1.349 1_655 S
C884 C896 1.349 . S
C885 C883 1.327 . S
C885 C901 1.429 1_455 S
C885 H907 0.950 . S
C886 H882 0.949 . S
C886 C894 1.574 . S
C886 C902 1.368 . S
H887 C895 0.950 . S
H888 C893 0.950 . S
H889 C894 0.949 . S
H890 C896 0.950 . S
H891 C897 0.950 . S
H892 C898 0.949 . S
C893 H888 0.950 . S
C893 C895 1.327 . S
C893 C899 1.429 1_455 S
C894 C886 1.574 . S
C894 H889 0.949 . S
C894 C900 1.368 . S
C895 C879 1.349 1_455 S
C895 H887 0.950 . S
C895 C893 1.327 . S
C896 C884 1.349 . S
C896 H890 0.950 . S
C896 C897 1.327 . S
C897 H891 0.950 . S
C897 C896 1.327 . S
C897 C901 1.429 . S
C898 C881 1.574 . S
C898 H892 0.949 . S
C898 C902 1.368 1_455 S
C899 C880 1.429 . S
C899 C893 1.429 1_655 S
C899 C900 1.523 . S
C900 C881 1.368 1_655 S
C900 C894 1.368 . S
C900 C899 1.523 . S
C901 C885 1.429 1_655 S
C901 C897 1.429 . S
C901 C902 1.523 . S
C902 C886 1.368 . S
C902 C898 1.368 1_655 S
C902 C901 1.523 . S
H903 C878 0.950 . S
H904 C880 0.950 . S
H905 C881 0.949 . S
H906 C883 0.950 . S
H907 C885 0.950 . S
C908 C909 1.349 . S
C908 C910 1.327 . S
C908 H933 0.950 . S
C909 C908 1.349 . S
C909 C925 1.349 1_565 S
C910 C908 1.327 . S
C910 C929 1.429 . S
C910 H934 0.950 . S
C911 C928 1.574 . S
C911 C930 1.368 1_545 S
C911 H935 0.949 . S
H912 C916 0.949 . S
C913 C914 1.349 1_545 S
C913 C915 1.327 . S
C913 H936 0.950 . S
C914 C913 1.349 1_565 S
C914 C926 1.349 . S
C915 C913 1.327 . S
C915 C931 1.429 1_545 S
C915 H937 0.950 . S
C916 H912 0.949 . S
C916 C924 1.574 . S
C916 C932 1.368 . S
H917 C925 0.950 . S
H918 C923 0.950 . S
H919 C924 0.949 . S
H920 C926 0.950 . S
H921 C927 0.950 . S
H922 C928 0.949 . S
C923 H918 0.950 . S
C923 C925 1.327 . S
C923 C929 1.429 1_545 S
C924 C916 1.574 . S
C924 H919 0.949 . S
C924 C930 1.368 . S
C925 C909 1.349 1_545 S
C925 H917 0.950 . S
C925 C923 1.327 . S
C926 C914 1.349 . S
C926 H920 0.950 . S
C926 C927 1.327 . S
C927 H921 0.950 . S
C927 C926 1.327 . S
C927 C931 1.429 . S
C928 C911 1.574 . S
C928 H922 0.949 . S
C928 C932 1.368 1_545 S
C929 C910 1.429 . S
C929 C923 1.429 1_565 S
C929 C930 1.523 1_556 S
C930 C911 1.368 1_565 S
C930 C924 1.368 . S
C930 C929 1.523 1_554 S
C931 C915 1.429 1_565 S
C931 C927 1.429 . S
C931 C932 1.523 . S
C932 C916 1.368 . S
C932 C928 1.368 1_565 S
C932 C931 1.523 . S
H933 C908 0.950 . S
H934 C910 0.950 . S
H935 C911 0.949 . S
H936 C913 0.950 . S
H937 C915 0.950 . S
C938 C939 1.349 . S
C938 C940 1.327 . S
C938 H963 0.950 . S
C939 C938 1.349 . S
C939 C955 1.349 . S
C940 C938 1.327 . S
C940 C959 1.429 . S
C940 H964 0.950 . S
C941 C958 1.574 . S
C941 C960 1.368 . S
C941 H965 0.949 . S
H942 C946 0.949 . S
C943 C944 1.349 . S
C943 C945 1.327 . S
C943 H966 0.950 . S
C944 C943 1.349 . S
C944 C956 1.349 . S
C945 C943 1.327 . S
C945 C961 1.429 . S
C945 H967 0.950 . S
C946 H942 0.949 . S
C946 C954 1.574 . S
C946 C962 1.368 . S
H947 C955 0.950 . S
H948 C953 0.950 . S
H949 C954 0.949 . S
H950 C956 0.950 . S
H951 C957 0.950 . S
H952 C958 0.949 . S
C953 H948 0.950 . S
C953 C955 1.327 . S
C953 C959 1.429 . S
C954 C946 1.574 . S
C954 H949 0.949 . S
C954 C960 1.368 . S
C955 C939 1.349 . S
C955 H947 0.950 . S
C955 C953 1.327 . S
C956 C944 1.349 . S
C956 H950 0.950 . S
C956 C957 1.327 . S
C957 H951 0.950 . S
C957 C956 1.327 . S
C957 C961 1.429 . S
C958 C941 1.574 . S
C958 H952 0.949 . S
C958 C962 1.368 . S
C959 C940 1.429 . S
C959 C953 1.429 . S
C959 C960 1.523 . S
C960 C941 1.368 . S
C960 C954 1.368 . S
C960 C959 1.523 . S
C961 C945 1.429 . S
C961 C957 1.429 . S
C961 C962 1.523 . S
C962 C946 1.368 . S
C962 C958 1.368 . S
C962 C961 1.523 . S
H963 C938 0.950 . S
H964 C940 0.950 . S
H965 C941 0.949 . S
H966 C943 0.950 . S
H967 C945 0.950 . S
C968 C969 1.349 . S
C968 C970 1.327 . S
C968 H993 0.950 . S
C969 C968 1.349 . S
C969 C985 1.349 . S
C970 C968 1.327 . S
C970 C989 1.429 . S
C970 H994 0.950 . S
C971 C988 1.574 . S
C971 C990 1.368 . S
C971 H995 0.949 . S
H972 C976 0.949 . S
C973 C974 1.349 . S
C973 C975 1.327 . S
C973 H996 0.950 . S
C974 C973 1.349 . S
C974 C986 1.349 . S
C975 C973 1.327 . S
C975 C991 1.429 . S
C975 H997 0.950 . S
C976 H972 0.949 . S
C976 C984 1.574 . S
C976 C992 1.368 . S
H977 C985 0.950 . S
H978 C983 0.950 . S
H979 C984 0.949 . S
H980 C986 0.950 . S
H981 C987 0.950 . S
H982 C988 0.949 . S
C983 H978 0.950 . S
C983 C985 1.327 . S
C983 C989 1.429 . S
C984 C976 1.574 . S
C984 H979 0.949 . S
C984 C990 1.368 . S
C985 C969 1.349 . S
C985 H977 0.950 . S
C985 C983 1.327 . S
C986 C974 1.349 . S
C986 H980 0.950 . S
C986 C987 1.327 . S
C987 H981 0.950 . S
C987 C986 1.327 . S
C987 C991 1.429 . S
C988 C971 1.574 . S
C988 H982 0.949 . S
C988 C992 1.368 . S
C989 C970 1.429 . S
C989 C983 1.429 . S
C989 C990 1.523 . S
C990 C971 1.368 . S
C990 C984 1.368 . S
C990 C989 1.523 . S
C991 C975 1.429 . S
C991 C987 1.429 . S
C991 C992 1.523 . S
C992 C976 1.368 . S
C992 C988 1.368 . S
C992 C991 1.523 . S
H993 C968 0.950 . S
H994 C970 0.950 . S
H995 C971 0.949 . S
H996 C973 0.950 . S
H997 C975 0.950 . S
C998 C999 1.349 . S
C998 C1000 1.327 . S
C998 H1023 0.950 . S
C999 C998 1.349 . S
C999 C1015 1.349 1_455 S
C1000 C998 1.327 . S
C1000 C1019 1.429 . S
C1000 H1024 0.950 . S
C1001 C1018 1.574 . S
C1001 C1020 1.368 1_655 S
C1001 H1025 0.949 . S
H1002 C1006 0.949 . S
C1003 C1004 1.349 1_655 S
C1003 C1005 1.327 . S
C1003 H1026 0.950 . S
C1004 C1003 1.349 1_455 S
C1004 C1016 1.349 . S
C1005 C1003 1.327 . S
C1005 C1021 1.429 1_655 S
C1005 H1027 0.950 . S
C1006 H1002 0.949 . S
C1006 C1014 1.574 . S
C1006 C1022 1.368 . S
H1007 C1015 0.950 . S
H1008 C1013 0.950 . S
H1009 C1014 0.949 . S
H1010 C1016 0.950 . S
H1011 C1017 0.950 . S
H1012 C1018 0.949 . S
C1013 H1008 0.950 . S
C1013 C1015 1.327 . S
C1013 C1019 1.429 1_655 S
C1014 C1006 1.574 . S
C1014 H1009 0.949 . S
C1014 C1020 1.368 . S
C1015 C999 1.349 1_655 S
C1015 H1007 0.950 . S
C1015 C1013 1.327 . S
C1016 C1004 1.349 . S
C1016 H1010 0.950 . S
C1016 C1017 1.327 . S
C1017 H1011 0.950 . S
C1017 C1016 1.327 . S
C1017 C1021 1.429 . S
C1018 C1001 1.574 . S
C1018 H1012 0.949 . S
C1018 C1022 1.368 1_655 S
C1019 C1000 1.429 . S
C1019 C1013 1.429 1_455 S
C1019 C1020 1.523 . S
C1020 C1001 1.368 1_455 S
C1020 C1014 1.368 . S
C1020 C1019 1.523 . S
C1021 C1005 1.429 1_455 S
C1021 C1017 1.429 . S
C1021 C1022 1.523 1_554 S
C1022 C1006 1.368 . S
C1022 C1018 1.368 1_455 S
C1022 C1021 1.523 1_556 S
H1023 C998 0.950 . S
H1024 C1000 0.950 . S
H1025 C1001 0.949 . S
H1026 C1003 0.950 . S
H1027 C1005 0.950 . S
C1028 C1029 1.349 . S
C1028 C1030 1.327 . S
C1028 H1053 0.950 . S
C1029 C1028 1.349 . S
C1029 C1045 1.349 1_545 S
C1030 C1028 1.327 . S
C1030 C1049 1.429 . S
C1030 H1054 0.950 . S
C1031 C1048 1.574 . S
C1031 C1050 1.368 1_565 S
C1031 H1055 0.949 . S
H1032 C1036 0.949 . S
C1033 C1034 1.349 1_565 S
C1033 C1035 1.327 . S
C1033 H1056 0.950 . S
C1034 C1033 1.349 1_545 S
C1034 C1046 1.349 . S
C1035 C1033 1.327 . S
C1035 C1051 1.429 1_565 S
C1035 H1057 0.950 . S
C1036 H1032 0.949 . S
C1036 C1044 1.574 . S
C1036 C1052 1.368 . S
H1037 C1045 0.950 . S
H1038 C1043 0.950 . S
H1039 C1044 0.949 . S
H1040 C1046 0.950 . S
H1041 C1047 0.950 . S
H1042 C1048 0.949 . S
C1043 H1038 0.950 . S
C1043 C1045 1.327 . S
C1043 C1049 1.429 1_565 S
C1044 C1036 1.574 . S
C1044 H1039 0.949 . S
C1044 C1050 1.368 . S
C1045 C1029 1.349 1_565 S
C1045 H1037 0.950 . S
C1045 C1043 1.327 . S
C1046 C1034 1.349 . S
C1046 H1040 0.950 . S
C1046 C1047 1.327 . S
C1047 H1041 0.950 . S
C1047 C1046 1.327 . S
C1047 C1051 1.429 . S
C1048 C1031 1.574 . S
C1048 H1042 0.949 . S
C1048 C1052 1.368 1_565 S
C1049 C1030 1.429 . S
C1049 C1043 1.429 1_545 S
C1049 C1050 1.523 . S
C1050 C1031 1.368 1_545 S
C1050 C1044 1.368 . S
C1050 C1049 1.523 . S
C1051 C1035 1.429 1_545 S
C1051 C1047 1.429 . S
C1051 C1052 1.523 . S
C1052 C1036 1.368 . S
C1052 C1048 1.368 1_545 S
C1052 C1051 1.523 . S
H1053 C1028 0.950 . S
H1054 C1030 0.950 . S
H1055 C1031 0.949 . S
H1056 C1033 0.950 . S
H1057 C1035 0.950 . S
C1058 C1059 1.349 . S
C1058 C1060 1.327 . S
C1058 H1083 0.950 . S
C1059 C1058 1.349 . S
C1059 C1075 1.349 . S
C1060 C1058 1.327 . S
C1060 C1079 1.429 . S
C1060 H1084 0.950 . S
C1061 C1078 1.574 . S
C1061 C1080 1.368 . S
C1061 H1085 0.949 . S
H1062 C1066 0.949 . S
C1063 C1064 1.349 . S
C1063 C1065 1.327 . S
C1063 H1086 0.950 . S
C1064 C1063 1.349 . S
C1064 C1076 1.349 . S
C1065 C1063 1.327 . S
C1065 C1081 1.429 . S
C1065 H1087 0.950 . S
C1066 H1062 0.949 . S
C1066 C1074 1.574 . S
C1066 C1082 1.368 . S
H1067 C1075 0.950 . S
H1068 C1073 0.950 . S
H1069 C1074 0.949 . S
H1070 C1076 0.950 . S
H1071 C1077 0.950 . S
H1072 C1078 0.949 . S
C1073 H1068 0.950 . S
C1073 C1075 1.327 . S
C1073 C1079 1.429 . S
C1074 C1066 1.574 . S
C1074 H1069 0.949 . S
C1074 C1080 1.368 . S
C1075 C1059 1.349 . S
C1075 H1067 0.950 . S
C1075 C1073 1.327 . S
C1076 C1064 1.349 . S
C1076 H1070 0.950 . S
C1076 C1077 1.327 . S
C1077 H1071 0.950 . S
C1077 C1076 1.327 . S
C1077 C1081 1.429 . S
C1078 C1061 1.574 . S
C1078 H1072 0.949 . S
C1078 C1082 1.368 . S
C1079 C1060 1.429 . S
C1079 C1073 1.429 . S
C1079 C1080 1.523 1_554 S
C1080 C1061 1.368 . S
C1080 C1074 1.368 . S
C1080 C1079 1.523 1_556 S
C1081 C1065 1.429 . S
C1081 C1077 1.429 . S
C1081 C1082 1.523 . S
C1082 C1066 1.368 . S
C1082 C1078 1.368 . S
C1082 C1081 1.523 . S
H1083 C1058 0.950 . S
H1084 C1060 0.950 . S
H1085 C1061 0.949 . S
H1086 C1063 0.950 . S
H1087 C1065 0.950 . S
C1088 C1089 1.349 . S
C1088 C1090 1.327 . S
C1088 H1113 0.950 . S
C1089 C1088 1.349 . S
C1089 C1105 1.349 . S
C1090 C1088 1.327 . S
C1090 C1109 1.429 . S
C1090 H1114 0.950 . S
C1091 C1108 1.574 . S
C1091 C1110 1.368 . S
C1091 H1115 0.949 . S
H1092 C1096 0.949 . S
C1093 C1094 1.349 . S
C1093 C1095 1.327 . S
C1093 H1116 0.950 . S
C1094 C1093 1.349 . S
C1094 C1106 1.349 . S
C1095 C1093 1.327 . S
C1095 C1111 1.429 . S
C1095 H1117 0.950 . S
C1096 H1092 0.949 . S
C1096 C1104 1.574 . S
C1096 C1112 1.368 . S
H1097 C1105 0.950 . S
H1098 C1103 0.950 . S
H1099 C1104 0.949 . S
H1100 C1106 0.950 . S
H1101 C1107 0.950 . S
H1102 C1108 0.949 . S
C1103 H1098 0.950 . S
C1103 C1105 1.327 . S
C1103 C1109 1.429 . S
C1104 C1096 1.574 . S
C1104 H1099 0.949 . S
C1104 C1110 1.368 . S
C1105 C1089 1.349 . S
C1105 H1097 0.950 . S
C1105 C1103 1.327 . S
C1106 C1094 1.349 . S
C1106 H1100 0.950 . S
C1106 C1107 1.327 . S
C1107 H1101 0.950 . S
C1107 C1106 1.327 . S
C1107 C1111 1.429 . S
C1108 C1091 1.574 . S
C1108 H1102 0.949 . S
C1108 C1112 1.368 . S
C1109 C1090 1.429 . S
C1109 C1103 1.429 . S
C1109 C1110 1.523 . S
C1110 C1091 1.368 . S
C1110 C1104 1.368 . S
C1110 C1109 1.523 . S
C1111 C1095 1.429 . S
C1111 C1107 1.429 . S
C1111 C1112 1.523 1_554 S
C1112 C1096 1.368 . S
C1112 C1108 1.368 . S
C1112 C1111 1.523 1_556 S
H1113 C1088 0.950 . S
H1114 C1090 0.950 . S
H1115 C1091 0.949 . S
H1116 C1093 0.950 . S
H1117 C1095 0.950 . S
C1118 C1119 1.349 . S
C1118 C1120 1.327 . S
C1118 H1143 0.950 . S
C1119 C1118 1.349 . S
C1119 C1135 1.349 1_455 S
C1120 C1118 1.327 . S
C1120 C1139 1.429 . S
C1120 H1144 0.950 . S
C1121 C1138 1.574 . S
C1121 C1140 1.368 1_655 S
C1121 H1145 0.949 . S
H1122 C1126 0.949 . S
C1123 C1124 1.349 1_655 S
C1123 C1125 1.327 . S
C1123 H1146 0.950 . S
C1124 C1123 1.349 1_455 S
C1124 C1136 1.349 . S
C1125 C1123 1.327 . S
C1125 C1141 1.429 1_655 S
C1125 H1147 0.950 . S
C1126 H1122 0.949 . S
C1126 C1134 1.574 . S
C1126 C1142 1.368 . S
H1127 C1135 0.950 . S
H1128 C1133 0.950 . S
H1129 C1134 0.949 . S
H1130 C1136 0.950 . S
H1131 C1137 0.950 . S
H1132 C1138 0.949 . S
C1133 H1128 0.950 . S
C1133 C1135 1.327 . S
C1133 C1139 1.429 1_655 S
C1134 C1126 1.574 . S
C1134 H1129 0.949 . S
C1134 C1140 1.368 . S
C1135 C1119 1.349 1_655 S
C1135 H1127 0.950 . S
C1135 C1133 1.327 . S
C1136 C1124 1.349 . S
C1136 H1130 0.950 . S
C1136 C1137 1.327 . S
C1137 H1131 0.950 . S
C1137 C1136 1.327 . S
C1137 C1141 1.429 . S
C1138 C1121 1.574 . S
C1138 H1132 0.949 . S
C1138 C1142 1.368 1_655 S
C1139 C1120 1.429 . S
C1139 C1133 1.429 1_455 S
C1139 C1140 1.523 . S
C1140 C1121 1.368 1_455 S
C1140 C1134 1.368 . S
C1140 C1139 1.523 . S
C1141 C1125 1.429 1_455 S
C1141 C1137 1.429 . S
C1141 C1142 1.523 . S
C1142 C1126 1.368 . S
C1142 C1138 1.368 1_455 S
C1142 C1141 1.523 . S
H1143 C1118 0.950 . S
H1144 C1120 0.950 . S
H1145 C1121 0.949 . S
H1146 C1123 0.950 . S
H1147 C1125 0.950 . S
C1148 C1149 1.349 1_565 S
C1148 C1150 1.327 . S
C1148 H1173 0.950 . S
C1149 C1148 1.349 1_545 S
C1149 C1165 1.349 . S
C1150 C1148 1.327 . S
C1150 C1169 1.429 1_565 S
C1150 H1174 0.950 . S
C1151 C1168 1.574 . S
C1151 C1170 1.368 . S
C1151 H1175 0.949 . S
H1152 C1156 0.949 . S
C1153 C1154 1.349 . S
C1153 C1155 1.327 . S
C1153 H1176 0.950 . S
C1154 C1153 1.349 . S
C1154 C1166 1.349 1_545 S
C1155 C1153 1.327 . S
C1155 C1171 1.429 . S
C1155 H1177 0.950 . S
C1156 H1152 0.949 . S
C1156 C1164 1.574 . S
C1156 C1172 1.368 1_565 S
H1157 C1165 0.950 . S
H1158 C1163 0.950 . S
H1159 C1164 0.949 . S
H1160 C1166 0.950 . S
H1161 C1167 0.950 . S
H1162 C1168 0.949 . S
C1163 H1158 0.950 . S
C1163 C1165 1.327 . S
C1163 C1169 1.429 . S
C1164 C1156 1.574 . S
C1164 H1159 0.949 . S
C1164 C1170 1.368 1_565 S
C1165 C1149 1.349 . S
C1165 H1157 0.950 . S
C1165 C1163 1.327 . S
C1166 C1154 1.349 1_565 S
C1166 H1160 0.950 . S
C1166 C1167 1.327 . S
C1167 H1161 0.950 . S
C1167 C1166 1.327 . S
C1167 C1171 1.429 1_565 S
C1168 C1151 1.574 . S
C1168 H1162 0.949 . S
C1168 C1172 1.368 . S
C1169 C1150 1.429 1_545 S
C1169 C1163 1.429 . S
C1169 C1170 1.523 1_554 S
C1170 C1151 1.368 . S
C1170 C1164 1.368 1_545 S
C1170 C1169 1.523 1_556 S
C1171 C1155 1.429 . S
C1171 C1167 1.429 1_545 S
C1171 C1172 1.523 . S
C1172 C1156 1.368 1_545 S
C1172 C1168 1.368 . S
C1172 C1171 1.523 . S
H1173 C1148 0.950 . S
H1174 C1150 0.950 . S
H1175 C1151 0.949 . S
H1176 C1153 0.950 . S
H1177 C1155 0.950 . S
C1178 C1179 1.349 . S
C1178 C1180 1.327 . S
C1178 H1203 0.950 . S
C1179 C1178 1.349 . S
C1179 C1195 1.349 . S
C1180 C1178 1.327 . S
C1180 C1199 1.429 . S
C1180 H1204 0.950 . S
C1181 C1198 1.574 . S
C1181 C1200 1.368 . S
C1181 H1205 0.949 . S
H1182 C1186 0.949 . S
C1183 C1184 1.349 . S
C1183 C1185 1.327 . S
C1183 H1206 0.950 . S
C1184 C1183 1.349 . S
C1184 C1196 1.349 . S
C1185 C1183 1.327 . S
C1185 C1201 1.429 . S
C1185 H1207 0.950 . S
C1186 H1182 0.949 . S
C1186 C1194 1.574 . S
C1186 C1202 1.368 . S
H1187 C1195 0.950 . S
H1188 C1193 0.950 . S
H1189 C1194 0.949 . S
H1190 C1196 0.950 . S
H1191 C1197 0.950 . S
H1192 C1198 0.949 . S
C1193 H1188 0.950 . S
C1193 C1195 1.327 . S
C1193 C1199 1.429 . S
C1194 C1186 1.574 . S
C1194 H1189 0.949 . S
C1194 C1200 1.368 . S
C1195 C1179 1.349 . S
C1195 H1187 0.950 . S
C1195 C1193 1.327 . S
C1196 C1184 1.349 . S
C1196 H1190 0.950 . S
C1196 C1197 1.327 . S
C1197 H1191 0.950 . S
C1197 C1196 1.327 . S
C1197 C1201 1.429 . S
C1198 C1181 1.574 . S
C1198 H1192 0.949 . S
C1198 C1202 1.368 . S
C1199 C1180 1.429 . S
C1199 C1193 1.429 . S
C1199 C1200 1.523 . S
C1200 C1181 1.368 . S
C1200 C1194 1.368 . S
C1200 C1199 1.523 . S
C1201 C1185 1.429 . S
C1201 C1197 1.429 . S
C1201 C1202 1.523 . S
C1202 C1186 1.368 . S
C1202 C1198 1.368 . S
C1202 C1201 1.523 . S
H1203 C1178 0.950 . S
H1204 C1180 0.950 . S
H1205 C1181 0.949 . S
H1206 C1183 0.950 . S
H1207 C1185 0.950 . S
C1208 C1209 1.349 . S
C1208 C1210 1.327 . S
C1208 H1233 0.950 . S
C1209 C1208 1.349 . S
C1209 C1225 1.349 . S
C1210 C1208 1.327 . S
C1210 C1229 1.429 . S
C1210 H1234 0.950 . S
C1211 C1228 1.574 . S
C1211 C1230 1.368 . S
C1211 H1235 0.949 . S
H1212 C1216 0.949 . S
C1213 C1214 1.349 . S
C1213 C1215 1.327 . S
C1213 H1236 0.950 . S
C1214 C1213 1.349 . S
C1214 C1226 1.349 . S
C1215 C1213 1.327 . S
C1215 C1231 1.429 . S
C1215 H1237 0.950 . S
C1216 H1212 0.949 . S
C1216 C1224 1.574 . S
C1216 C1232 1.368 . S
H1217 C1225 0.950 . S
H1218 C1223 0.950 . S
H1219 C1224 0.949 . S
H1220 C1226 0.950 . S
H1221 C1227 0.950 . S
H1222 C1228 0.949 . S
C1223 H1218 0.950 . S
C1223 C1225 1.327 . S
C1223 C1229 1.429 . S
C1224 C1216 1.574 . S
C1224 H1219 0.949 . S
C1224 C1230 1.368 . S
C1225 C1209 1.349 . S
C1225 H1217 0.950 . S
C1225 C1223 1.327 . S
C1226 C1214 1.349 . S
C1226 H1220 0.950 . S
C1226 C1227 1.327 . S
C1227 H1221 0.950 . S
C1227 C1226 1.327 . S
C1227 C1231 1.429 . S
C1228 C1211 1.574 . S
C1228 H1222 0.949 . S
C1228 C1232 1.368 . S
C1229 C1210 1.429 . S
C1229 C1223 1.429 . S
C1229 C1230 1.523 . S
C1230 C1211 1.368 . S
C1230 C1224 1.368 . S
C1230 C1229 1.523 . S
C1231 C1215 1.429 . S
C1231 C1227 1.429 . S
C1231 C1232 1.523 . S
C1232 C1216 1.368 . S
C1232 C1228 1.368 . S
C1232 C1231 1.523 . S
H1233 C1208 0.950 . S
H1234 C1210 0.950 . S
H1235 C1211 0.949 . S
H1236 C1213 0.950 . S
H1237 C1215 0.950 . S
C1238 C1239 1.349 1_455 S
C1238 C1240 1.327 . S
C1238 H1263 0.950 . S
C1239 C1238 1.349 1_655 S
C1239 C1255 1.349 . S
C1240 C1238 1.327 . S
C1240 C1259 1.429 1_455 S
C1240 H1264 0.950 . S
C1241 C1258 1.574 . S
C1241 C1260 1.368 . S
C1241 H1265 0.949 . S
H1242 C1246 0.949 . S
C1243 C1244 1.349 . S
C1243 C1245 1.327 . S
C1243 H1266 0.950 . S
C1244 C1243 1.349 . S
C1244 C1256 1.349 1_655 S
C1245 C1243 1.327 . S
C1245 C1261 1.429 . S
C1245 H1267 0.950 . S
C1246 H1242 0.949 . S
C1246 C1254 1.574 . S
C1246 C1262 1.368 1_455 S
H1247 C1255 0.950 . S
H1248 C1253 0.950 . S
H1249 C1254 0.949 . S
H1250 C1256 0.950 . S
H1251 C1257 0.950 . S
H1252 C1258 0.949 . S
C1253 H1248 0.950 . S
C1253 C1255 1.327 . S
C1253 C1259 1.429 . S
C1254 C1246 1.574 . S
C1254 H1249 0.949 . S
C1254 C1260 1.368 1_455 S
C1255 C1239 1.349 . S
C1255 H1247 0.950 . S
C1255 C1253 1.327 . S
C1256 C1244 1.349 1_455 S
C1256 H1250 0.950 . S
C1256 C1257 1.327 . S
C1257 H1251 0.950 . S
C1257 C1256 1.327 . S
C1257 C1261 1.429 1_455 S
C1258 C1241 1.574 . S
C1258 H1252 0.949 . S
C1258 C1262 1.368 . S
C1259 C1240 1.429 1_655 S
C1259 C1253 1.429 . S
C1259 C1260 1.523 . S
C1260 C1241 1.368 . S
C1260 C1254 1.368 1_655 S
C1260 C1259 1.523 . S
C1261 C1245 1.429 . S
C1261 C1257 1.429 1_655 S
C1261 C1262 1.523 1_556 S
C1262 C1246 1.368 1_655 S
C1262 C1258 1.368 . S
C1262 C1261 1.523 1_554 S
H1263 C1238 0.950 . S
H1264 C1240 0.950 . S
H1265 C1241 0.949 . S
H1266 C1243 0.950 . S
H1267 C1245 0.950 . S
C1268 C1269 1.349 . S
C1268 C1270 1.327 . S
C1268 H1293 0.950 . S
C1269 C1268 1.349 . S
C1269 C1285 1.349 1_565 S
C1270 C1268 1.327 . S
C1270 C1289 1.429 . S
C1270 H1294 0.950 . S
C1271 C1288 1.574 . S
C1271 C1290 1.368 1_545 S
C1271 H1295 0.949 . S
H1272 C1276 0.949 . S
C1273 C1274 1.349 1_545 S
C1273 C1275 1.327 . S
C1273 H1296 0.950 . S
C1274 C1273 1.349 1_565 S
C1274 C1286 1.349 . S
C1275 C1273 1.327 . S
C1275 C1291 1.429 1_545 S
C1275 H1297 0.950 . S
C1276 H1272 0.949 . S
C1276 C1284 1.574 . S
C1276 C1292 1.368 . S
H1277 C1285 0.950 . S
H1278 C1283 0.950 . S
H1279 C1284 0.949 . S
H1280 C1286 0.950 . S
H1281 C1287 0.950 . S
H1282 C1288 0.949 . S
C1283 H1278 0.950 . S
C1283 C1285 1.327 . S
C1283 C1289 1.429 1_545 S
C1284 C1276 1.574 . S
C1284 H1279 0.949 . S
C1284 C1290 1.368 . S
C1285 C1269 1.349 1_545 S
C1285 H1277 0.950 . S
C1285 C1283 1.327 . S
C1286 C1274 1.349 . S
C1286 H1280 0.950 . S
C1286 C1287 1.327 . S
C1287 H1281 0.950 . S
C1287 C1286 1.327 . S
C1287 C1291 1.429 . S
C1288 C1271 1.574 . S
C1288 H1282 0.949 . S
C1288 C1292 1.368 1_545 S
C1289 C1270 1.429 . S
C1289 C1283 1.429 1_565 S
C1289 C1290 1.523 . S
C1290 C1271 1.368 1_565 S
C1290 C1284 1.368 . S
C1290 C1289 1.523 . S
C1291 C1275 1.429 1_565 S
C1291 C1287 1.429 . S
C1291 C1292 1.523 . S
C1292 C1276 1.368 . S
C1292 C1288 1.368 1_565 S
C1292 C1291 1.523 . S
H1293 C1268 0.950 . S
H1294 C1270 0.950 . S
H1295 C1271 0.949 . S
H1296 C1273 0.950 . S
H1297 C1275 0.950 . S
C1298 C1299 1.349 . S
C1298 C1300 1.327 . S
C1298 H1323 0.950 . S
C1299 C1298 1.349 . S
C1299 C1315 1.349 . S
C1300 C1298 1.327 . S
C1300 C1319 1.429 . S
C1300 H1324 0.950 . S
C1301 C1318 1.574 . S
C1301 C1320 1.368 . S
C1301 H1325 0.949 . S
H1302 C1306 0.949 . S
C1303 C1304 1.349 . S
C1303 C1305 1.327 . S
C1303 H1326 0.950 . S
C1304 C1303 1.349 . S
C1304 C1316 1.349 . S
C1305 C1303 1.327 . S
C1305 C1321 1.429 . S
C1305 H1327 0.950 . S
C1306 H1302 0.949 . S
C1306 C1314 1.574 . S
C1306 C1322 1.368 . S
H1307 C1315 0.950 . S
H1308 C1313 0.950 . S
H1309 C1314 0.949 . S
H1310 C1316 0.950 . S
H1311 C1317 0.950 . S
H1312 C1318 0.949 . S
C1313 H1308 0.950 . S
C1313 C1315 1.327 . S
C1313 C1319 1.429 . S
C1314 C1306 1.574 . S
C1314 H1309 0.949 . S
C1314 C1320 1.368 . S
C1315 C1299 1.349 . S
C1315 H1307 0.950 . S
C1315 C1313 1.327 . S
C1316 C1304 1.349 . S
C1316 H1310 0.950 . S
C1316 C1317 1.327 . S
C1317 H1311 0.950 . S
C1317 C1316 1.327 . S
C1317 C1321 1.429 . S
C1318 C1301 1.574 . S
C1318 H1312 0.949 . S
C1318 C1322 1.368 . S
C1319 C1300 1.429 . S
C1319 C1313 1.429 . S
C1319 C1320 1.523 1_556 S
C1320 C1301 1.368 . S
C1320 C1314 1.368 . S
C1320 C1319 1.523 1_554 S
C1321 C1305 1.429 . S
C1321 C1317 1.429 . S
C1321 C1322 1.523 . S
C1322 C1306 1.368 . S
C1322 C1318 1.368 . S
C1322 C1321 1.523 . S
H1323 C1298 0.950 . S
H1324 C1300 0.950 . S
H1325 C1301 0.949 . S
H1326 C1303 0.950 . S
H1327 C1305 0.950 . S
C1328 C1329 1.349 . S
C1328 C1330 1.327 . S
C1328 H1353 0.950 . S
C1329 C1328 1.349 . S
C1329 C1345 1.349 . S
C1330 C1328 1.327 . S
C1330 C1349 1.429 . S
C1330 H1354 0.950 . S
C1331 C1348 1.574 . S
C1331 C1350 1.368 . S
C1331 H1355 0.949 . S
H1332 C1336 0.949 . S
C1333 C1334 1.349 . S
C1333 C1335 1.327 . S
C1333 H1356 0.950 . S
C1334 C1333 1.349 . S
C1334 C1346 1.349 . S
C1335 C1333 1.327 . S
C1335 C1351 1.429 . S
C1335 H1357 0.950 . S
C1336 H1332 0.949 . S
C1336 C1344 1.574 . S
C1336 C1352 1.368 . S
H1337 C1345 0.950 . S
H1338 C1343 0.950 . S
H1339 C1344 0.949 . S
H1340 C1346 0.950 . S
H1341 C1347 0.950 . S
H1342 C1348 0.949 . S
C1343 H1338 0.950 . S
C1343 C1345 1.327 . S
C1343 C1349 1.429 . S
C1344 C1336 1.574 . S
C1344 H1339 0.949 . S
C1344 C1350 1.368 . S
C1345 C1329 1.349 . S
C1345 H1337 0.950 . S
C1345 C1343 1.327 . S
C1346 C1334 1.349 . S
C1346 H1340 0.950 . S
C1346 C1347 1.327 . S
C1347 H1341 0.950 . S
C1347 C1346 1.327 . S
C1347 C1351 1.429 . S
C1348 C1331 1.574 . S
C1348 H1342 0.949 . S
C1348 C1352 1.368 . S
C1349 C1330 1.429 . S
C1349 C1343 1.429 . S
C1349 C1350 1.523 . S
C1350 C1331 1.368 . S
C1350 C1344 1.368 . S
C1350 C1349 1.523 . S
C1351 C1335 1.429 . S
C1351 C1347 1.429 . S
C1351 C1352 1.523 . S
C1352 C1336 1.368 . S
C1352 C1348 1.368 . S
C1352 C1351 1.523 . S
H1353 C1328 0.950 . S
H1354 C1330 0.950 . S
H1355 C1331 0.949 . S
H1356 C1333 0.950 . S
H1357 C1335 0.950 . S
C1358 C1359 1.349 . S
C1358 C1360 1.327 . S
C1358 H1383 0.950 . S
C1359 C1358 1.349 . S
C1359 C1375 1.349 . S
C1360 C1358 1.327 . S
C1360 C1379 1.429 . S
C1360 H1384 0.950 . S
C1361 C1378 1.574 . S
C1361 C1380 1.368 . S
C1361 H1385 0.949 . S
H1362 C1366 0.949 . S
C1363 C1364 1.349 . S
C1363 C1365 1.327 . S
C1363 H1386 0.950 . S
C1364 C1363 1.349 . S
C1364 C1376 1.349 . S
C1365 C1363 1.327 . S
C1365 C1381 1.429 . S
C1365 H1387 0.950 . S
C1366 H1362 0.949 . S
C1366 C1374 1.574 . S
C1366 C1382 1.368 . S
H1367 C1375 0.950 . S
H1368 C1373 0.950 . S
H1369 C1374 0.949 . S
H1370 C1376 0.950 . S
H1371 C1377 0.950 . S
H1372 C1378 0.949 . S
C1373 H1368 0.950 . S
C1373 C1375 1.327 . S
C1373 C1379 1.429 . S
C1374 C1366 1.574 . S
C1374 H1369 0.949 . S
C1374 C1380 1.368 . S
C1375 C1359 1.349 . S
C1375 H1367 0.950 . S
C1375 C1373 1.327 . S
C1376 C1364 1.349 . S
C1376 H1370 0.950 . S
C1376 C1377 1.327 . S
C1377 H1371 0.950 . S
C1377 C1376 1.327 . S
C1377 C1381 1.429 . S
C1378 C1361 1.574 . S
C1378 H1372 0.949 . S
C1378 C1382 1.368 . S
C1379 C1360 1.429 . S
C1379 C1373 1.429 . S
C1379 C1380 1.523 . S
C1380 C1361 1.368 . S
C1380 C1374 1.368 . S
C1380 C1379 1.523 . S
C1381 C1365 1.429 . S
C1381 C1377 1.429 . S
C1381 C1382 1.523 . S
C1382 C1366 1.368 . S
C1382 C1378 1.368 . S
C1382 C1381 1.523 . S
H1383 C1358 0.950 . S
H1384 C1360 0.950 . S
H1385 C1361 0.949 . S
H1386 C1363 0.950 . S
H1387 C1365 0.950 . S
C1388 C1389 1.349 . S
C1388 C1390 1.327 . S
C1388 H1413 0.950 . S
C1389 C1388 1.349 . S
C1389 C1405 1.349 . S
C1390 C1388 1.327 . S
C1390 C1409 1.429 . S
C1390 H1414 0.950 . S
C1391 C1408 1.574 . S
C1391 C1410 1.368 . S
C1391 H1415 0.949 . S
H1392 C1396 0.949 . S
C1393 C1394 1.349 . S
C1393 C1395 1.327 . S
C1393 H1416 0.950 . S
C1394 C1393 1.349 . S
C1394 C1406 1.349 . S
C1395 C1393 1.327 . S
C1395 C1411 1.429 . S
C1395 H1417 0.950 . S
C1396 H1392 0.949 . S
C1396 C1404 1.574 . S
C1396 C1412 1.368 . S
H1397 C1405 0.950 . S
H1398 C1403 0.950 . S
H1399 C1404 0.949 . S
H1400 C1406 0.950 . S
H1401 C1407 0.950 . S
H1402 C1408 0.949 . S
C1403 H1398 0.950 . S
C1403 C1405 1.327 . S
C1403 C1409 1.429 . S
C1404 C1396 1.574 . S
C1404 H1399 0.949 . S
C1404 C1410 1.368 . S
C1405 C1389 1.349 . S
C1405 H1397 0.950 . S
C1405 C1403 1.327 . S
C1406 C1394 1.349 . S
C1406 H1400 0.950 . S
C1406 C1407 1.327 . S
C1407 H1401 0.950 . S
C1407 C1406 1.327 . S
C1407 C1411 1.429 . S
C1408 C1391 1.574 . S
C1408 H1402 0.949 . S
C1408 C1412 1.368 . S
C1409 C1390 1.429 . S
C1409 C1403 1.429 . S
C1409 C1410 1.523 . S
C1410 C1391 1.368 . S
C1410 C1404 1.368 . S
C1410 C1409 1.523 . S
C1411 C1395 1.429 . S
C1411 C1407 1.429 . S
C1411 C1412 1.523 . S
C1412 C1396 1.368 . S
C1412 C1408 1.368 . S
C1412 C1411 1.523 . S
H1413 C1388 0.950 . S
H1414 C1390 0.950 . S
H1415 C1391 0.949 . S
H1416 C1393 0.950 . S
H1417 C1395 0.950 . S
C1418 C1419 1.349 . S
C1418 C1420 1.327 . S
C1418 H1443 0.950 . S
C1419 C1418 1.349 . S
C1419 C1435 1.349 . S
C1420 C1418 1.327 . S
C1420 C1439 1.429 . S
C1420 H1444 0.950 . S
C1421 C1438 1.574 . S
C1421 C1440 1.368 . S
C1421 H1445 0.949 . S
H1422 C1426 0.949 . S
C1423 C1424 1.349 . S
C1423 C1425 1.327 . S
C1423 H1446 0.950 . S
C1424 C1423 1.349 . S
C1424 C1436 1.349 . S
C1425 C1423 1.327 . S
C1425 C1441 1.429 . S
C1425 H1447 0.950 . S
C1426 H1422 0.949 . S
C1426 C1434 1.574 . S
C1426 C1442 1.368 . S
H1427 C1435 0.950 . S
H1428 C1433 0.950 . S
H1429 C1434 0.949 . S
H1430 C1436 0.950 . S
H1431 C1437 0.950 . S
H1432 C1438 0.949 . S
C1433 H1428 0.950 . S
C1433 C1435 1.327 . S
C1433 C1439 1.429 . S
C1434 C1426 1.574 . S
C1434 H1429 0.949 . S
C1434 C1440 1.368 . S
C1435 C1419 1.349 . S
C1435 H1427 0.950 . S
C1435 C1433 1.327 . S
C1436 C1424 1.349 . S
C1436 H1430 0.950 . S
C1436 C1437 1.327 . S
C1437 H1431 0.950 . S
C1437 C1436 1.327 . S
C1437 C1441 1.429 . S
C1438 C1421 1.574 . S
C1438 H1432 0.949 . S
C1438 C1442 1.368 . S
C1439 C1420 1.429 . S
C1439 C1433 1.429 . S
C1439 C1440 1.523 . S
C1440 C1421 1.368 . S
C1440 C1434 1.368 . S
C1440 C1439 1.523 . S
C1441 C1425 1.429 . S
C1441 C1437 1.429 . S
C1441 C1442 1.523 . S
C1442 C1426 1.368 . S
C1442 C1438 1.368 . S
C1442 C1441 1.523 . S
H1443 C1418 0.950 . S
H1444 C1420 0.950 . S
H1445 C1421 0.949 . S
H1446 C1423 0.950 . S
H1447 C1425 0.950 . S
C1448 C1449 1.349 . S
C1448 C1450 1.327 . S
C1448 H1473 0.950 . S
C1449 C1448 1.349 . S
C1449 C1465 1.349 . S
C1450 C1448 1.327 . S
C1450 C1469 1.429 . S
C1450 H1474 0.950 . S
C1451 C1468 1.574 . S
C1451 C1470 1.368 . S
C1451 H1475 0.949 . S
H1452 C1456 0.949 . S
C1453 C1454 1.349 . S
C1453 C1455 1.327 . S
C1453 H1476 0.950 . S
C1454 C1453 1.349 . S
C1454 C1466 1.349 . S
C1455 C1453 1.327 . S
C1455 C1471 1.429 . S
C1455 H1477 0.950 . S
C1456 H1452 0.949 . S
C1456 C1464 1.574 . S
C1456 C1472 1.368 . S
H1457 C1465 0.950 . S
H1458 C1463 0.950 . S
H1459 C1464 0.949 . S
H1460 C1466 0.950 . S
H1461 C1467 0.950 . S
H1462 C1468 0.949 . S
C1463 H1458 0.950 . S
C1463 C1465 1.327 . S
C1463 C1469 1.429 . S
C1464 C1456 1.574 . S
C1464 H1459 0.949 . S
C1464 C1470 1.368 . S
C1465 C1449 1.349 . S
C1465 H1457 0.950 . S
C1465 C1463 1.327 . S
C1466 C1454 1.349 . S
C1466 H1460 0.950 . S
C1466 C1467 1.327 . S
C1467 H1461 0.950 . S
C1467 C1466 1.327 . S
C1467 C1471 1.429 . S
C1468 C1451 1.574 . S
C1468 H1462 0.949 . S
C1468 C1472 1.368 . S
C1469 C1450 1.429 . S
C1469 C1463 1.429 . S
C1469 C1470 1.523 . S
C1470 C1451 1.368 . S
C1470 C1464 1.368 . S
C1470 C1469 1.523 . S
C1471 C1455 1.429 . S
C1471 C1467 1.429 . S
C1471 C1472 1.523 . S
C1472 C1456 1.368 . S
C1472 C1468 1.368 . S
C1472 C1471 1.523 . S
H1473 C1448 0.950 . S
H1474 C1450 0.950 . S
H1475 C1451 0.949 . S
H1476 C1453 0.950 . S
H1477 C1455 0.950 . S
C1478 C1479 1.349 . S
C1478 C1480 1.327 . S
C1478 H1503 0.950 . S
C1479 C1478 1.349 . S
C1479 C1495 1.349 . S
C1480 C1478 1.327 . S
C1480 C1499 1.429 . S
C1480 H1504 0.950 . S
C1481 C1498 1.574 . S
C1481 C1500 1.368 . S
C1481 H1505 0.949 . S
H1482 C1486 0.949 . S
C1483 C1484 1.349 . S
C1483 C1485 1.327 . S
C1483 H1506 0.950 . S
C1484 C1483 1.349 . S
C1484 C1496 1.349 . S
C1485 C1483 1.327 . S
C1485 C1501 1.429 . S
C1485 H1507 0.950 . S
C1486 H1482 0.949 . S
C1486 C1494 1.574 . S
C1486 C1502 1.368 . S
H1487 C1495 0.950 . S
H1488 C1493 0.950 . S
H1489 C1494 0.949 . S
H1490 C1496 0.950 . S
H1491 C1497 0.950 . S
H1492 C1498 0.949 . S
C1493 H1488 0.950 . S
C1493 C1495 1.327 . S
C1493 C1499 1.429 . S
C1494 C1486 1.574 . S
C1494 H1489 0.949 . S
C1494 C1500 1.368 . S
C1495 C1479 1.349 . S
C1495 H1487 0.950 . S
C1495 C1493 1.327 . S
C1496 C1484 1.349 . S
C1496 H1490 0.950 . S
C1496 C1497 1.327 . S
C1497 H1491 0.950 . S
C1497 C1496 1.327 . S
C1497 C1501 1.429 . S
C1498 C1481 1.574 . S
C1498 H1492 0.949 . S
C1498 C1502 1.368 . S
C1499 C1480 1.429 . S
C1499 C1493 1.429 . S
C1499 C1500 1.523 . S
C1500 C1481 1.368 . S
C1500 C1494 1.368 . S
C1500 C1499 1.523 . S
C1501 C1485 1.429 . S
C1501 C1497 1.429 . S
C1501 C1502 1.523 . S
C1502 C1486 1.368 . S
C1502 C1498 1.368 . S
C1502 C1501 1.523 . S
H1503 C1478 0.950 . S
H1504 C1480 0.950 . S
H1505 C1481 0.949 . S
H1506 C1483 0.950 . S
H1507 C1485 0.950 . S
C1508 C1509 1.349 . S
C1508 C1510 1.327 . S
C1508 H1533 0.950 . S
C1509 C1508 1.349 . S
C1509 C1525 1.349 . S
C1510 C1508 1.327 . S
C1510 C1529 1.429 . S
C1510 H1534 0.950 . S
C1511 C1528 1.574 . S
C1511 C1530 1.368 . S
C1511 H1535 0.949 . S
H1512 C1516 0.949 . S
C1513 C1514 1.349 . S
C1513 C1515 1.327 . S
C1513 H1536 0.950 . S
C1514 C1513 1.349 . S
C1514 C1526 1.349 . S
C1515 C1513 1.327 . S
C1515 C1531 1.429 . S
C1515 H1537 0.950 . S
C1516 H1512 0.949 . S
C1516 C1524 1.574 . S
C1516 C1532 1.368 . S
H1517 C1525 0.950 . S
H1518 C1523 0.950 . S
H1519 C1524 0.949 . S
H1520 C1526 0.950 . S
H1521 C1527 0.950 . S
H1522 C1528 0.949 . S
C1523 H1518 0.950 . S
C1523 C1525 1.327 . S
C1523 C1529 1.429 . S
C1524 C1516 1.574 . S
C1524 H1519 0.949 . S
C1524 C1530 1.368 . S
C1525 C1509 1.349 . S
C1525 H1517 0.950 . S
C1525 C1523 1.327 . S
C1526 C1514 1.349 . S
C1526 H1520 0.950 . S
C1526 C1527 1.327 . S
C1527 H1521 0.950 . S
C1527 C1526 1.327 . S
C1527 C1531 1.429 . S
C1528 C1511 1.574 . S
C1528 H1522 0.949 . S
C1528 C1532 1.368 . S
C1529 C1510 1.429 . S
C1529 C1523 1.429 . S
C1529 C1530 1.523 . S
C1530 C1511 1.368 . S
C1530 C1524 1.368 . S
C1530 C1529 1.523 . S
C1531 C1515 1.429 . S
C1531 C1527 1.429 . S
C1531 C1532 1.523 . S
C1532 C1516 1.368 . S
C1532 C1528 1.368 . S
C1532 C1531 1.523 . S
H1533 C1508 0.950 . S
H1534 C1510 0.950 . S
H1535 C1511 0.949 . S
H1536 C1513 0.950 . S
H1537 C1515 0.950 . S
C1538 C1539 1.349 . S
C1538 C1540 1.327 . S
C1538 H1563 0.950 . S
C1539 C1538 1.349 . S
C1539 C1555 1.349 . S
C1540 C1538 1.327 . S
C1540 C1559 1.429 . S
C1540 H1564 0.950 . S
C1541 C1558 1.574 . S
C1541 C1560 1.368 . S
C1541 H1565 0.949 . S
H1542 C1546 0.949 . S
C1543 C1544 1.349 . S
C1543 C1545 1.327 . S
C1543 H1566 0.950 . S
C1544 C1543 1.349 . S
C1544 C1556 1.349 . S
C1545 C1543 1.327 . S
C1545 C1561 1.429 . S
C1545 H1567 0.950 . S
C1546 H1542 0.949 . S
C1546 C1554 1.574 . S
C1546 C1562 1.368 . S
H1547 C1555 0.950 . S
H1548 C1553 0.950 . S
H1549 C1554 0.949 . S
H1550 C1556 0.950 . S
H1551 C1557 0.950 . S
H1552 C1558 0.949 . S
C1553 H1548 0.950 . S
C1553 C1555 1.327 . S
C1553 C1559 1.429 . S
C1554 C1546 1.574 . S
C1554 H1549 0.949 . S
C1554 C1560 1.368 . S
C1555 C1539 1.349 . S
C1555 H1547 0.950 . S
C1555 C1553 1.327 . S
C1556 C1544 1.349 . S
C1556 H1550 0.950 . S
C1556 C1557 1.327 . S
C1557 H1551 0.950 . S
C1557 C1556 1.327 . S
C1557 C1561 1.429 . S
C1558 C1541 1.574 . S
C1558 H1552 0.949 . S
C1558 C1562 1.368 . S
C1559 C1540 1.429 . S
C1559 C1553 1.429 . S
C1559 C1560 1.523 . S
C1560 C1541 1.368 . S
C1560 C1554 1.368 . S
C1560 C1559 1.523 . S
C1561 C1545 1.429 . S
C1561 C1557 1.429 . S
C1561 C1562 1.523 . S
C1562 C1546 1.368 . S
C1562 C1558 1.368 . S
C1562 C1561 1.523 . S
H1563 C1538 0.950 . S
H1564 C1540 0.950 . S
H1565 C1541 0.949 . S
H1566 C1543 0.950 . S
H1567 C1545 0.950 . S
C1568 C1569 1.349 . S
C1568 C1570 1.327 . S
C1568 H1593 0.950 . S
C1569 C1568 1.349 . S
C1569 C1585 1.349 . S
C1570 C1568 1.327 . S
C1570 C1589 1.429 . S
C1570 H1594 0.950 . S
C1571 C1588 1.574 . S
C1571 C1590 1.368 . S
C1571 H1595 0.949 . S
H1572 C1576 0.949 . S
C1573 C1574 1.349 . S
C1573 C1575 1.327 . S
C1573 H1596 0.950 . S
C1574 C1573 1.349 . S
C1574 C1586 1.349 . S
C1575 C1573 1.327 . S
C1575 C1591 1.429 . S
C1575 H1597 0.950 . S
C1576 H1572 0.949 . S
C1576 C1584 1.574 . S
C1576 C1592 1.368 . S
H1577 C1585 0.950 . S
H1578 C1583 0.950 . S
H1579 C1584 0.949 . S
H1580 C1586 0.950 . S
H1581 C1587 0.950 . S
H1582 C1588 0.949 . S
C1583 H1578 0.950 . S
C1583 C1585 1.327 . S
C1583 C1589 1.429 . S
C1584 C1576 1.574 . S
C1584 H1579 0.949 . S
C1584 C1590 1.368 . S
C1585 C1569 1.349 . S
C1585 H1577 0.950 . S
C1585 C1583 1.327 . S
C1586 C1574 1.349 . S
C1586 H1580 0.950 . S
C1586 C1587 1.327 . S
C1587 H1581 0.950 . S
C1587 C1586 1.327 . S
C1587 C1591 1.429 . S
C1588 C1571 1.574 . S
C1588 H1582 0.949 . S
C1588 C1592 1.368 . S
C1589 C1570 1.429 . S
C1589 C1583 1.429 . S
C1589 C1590 1.523 . S
C1590 C1571 1.368 . S
C1590 C1584 1.368 . S
C1590 C1589 1.523 . S
C1591 C1575 1.429 . S
C1591 C1587 1.429 . S
C1591 C1592 1.523 . S
C1592 C1576 1.368 . S
C1592 C1588 1.368 . S
C1592 C1591 1.523 . S
H1593 C1568 0.950 . S
H1594 C1570 0.950 . S
H1595 C1571 0.949 . S
H1596 C1573 0.950 . S
H1597 C1575 0.950 . S
C1598 C1599 1.349 . S
C1598 C1600 1.327 . S
C1598 H1623 0.950 . S
C1599 C1598 1.349 . S
C1599 C1615 1.349 . S
C1600 C1598 1.327 . S
C1600 C1619 1.429 . S
C1600 H1624 0.950 . S
C1601 C1618 1.574 . S
C1601 C1620 1.368 . S
C1601 H1625 0.949 . S
H1602 C1606 0.949 . S
C1603 C1604 1.349 . S
C1603 C1605 1.327 . S
C1603 H1626 0.950 . S
C1604 C1603 1.349 . S
C1604 C1616 1.349 . S
C1605 C1603 1.327 . S
C1605 C1621 1.429 . S
C1605 H1627 0.950 . S
C1606 H1602 0.949 . S
C1606 C1614 1.574 . S
C1606 C1622 1.368 . S
H1607 C1615 0.950 . S
H1608 C1613 0.950 . S
H1609 C1614 0.949 . S
H1610 C1616 0.950 . S
H1611 C1617 0.950 . S
H1612 C1618 0.949 . S
C1613 H1608 0.950 . S
C1613 C1615 1.327 . S
C1613 C1619 1.429 . S
C1614 C1606 1.574 . S
C1614 H1609 0.949 . S
C1614 C1620 1.368 . S
C1615 C1599 1.349 . S
C1615 H1607 0.950 . S
C1615 C1613 1.327 . S
C1616 C1604 1.349 . S
C1616 H1610 0.950 . S
C1616 C1617 1.327 . S
C1617 H1611 0.950 . S
C1617 C1616 1.327 . S
C1617 C1621 1.429 . S
C1618 C1601 1.574 . S
C1618 H1612 0.949 . S
C1618 C1622 1.368 . S
C1619 C1600 1.429 . S
C1619 C1613 1.429 . S
C1619 C1620 1.523 . S
C1620 C1601 1.368 . S
C1620 C1614 1.368 . S
C1620 C1619 1.523 . S
C1621 C1605 1.429 . S
C1621 C1617 1.429 . S
C1621 C1622 1.523 . S
C1622 C1606 1.368 . S
C1622 C1618 1.368 . S
C1622 C1621 1.523 . S
H1623 C1598 0.950 . S
H1624 C1600 0.950 . S
H1625 C1601 0.949 . S
H1626 C1603 0.950 . S
H1627 C1605 0.950 . S
C1628 C1629 1.349 . S
C1628 C1630 1.327 . S
C1628 H1653 0.950 . S
C1629 C1628 1.349 . S
C1629 C1645 1.349 . S
C1630 C1628 1.327 . S
C1630 C1649 1.429 . S
C1630 H1654 0.950 . S
C1631 C1648 1.574 . S
C1631 C1650 1.368 . S
C1631 H1655 0.949 . S
H1632 C1636 0.949 . S
C1633 C1634 1.349 . S
C1633 C1635 1.327 . S
C1633 H1656 0.950 . S
C1634 C1633 1.349 . S
C1634 C1646 1.349 . S
C1635 C1633 1.327 . S
C1635 C1651 1.429 . S
C1635 H1657 0.950 . S
C1636 H1632 0.949 . S
C1636 C1644 1.574 . S
C1636 C1652 1.368 . S
H1637 C1645 0.950 . S
H1638 C1643 0.950 . S
H1639 C1644 0.949 . S
H1640 C1646 0.950 . S
H1641 C1647 0.950 . S
H1642 C1648 0.949 . S
C1643 H1638 0.950 . S
C1643 C1645 1.327 . S
C1643 C1649 1.429 . S
C1644 C1636 1.574 . S
C1644 H1639 0.949 . S
C1644 C1650 1.368 . S
C1645 C1629 1.349 . S
C1645 H1637 0.950 . S
C1645 C1643 1.327 . S
C1646 C1634 1.349 . S
C1646 H1640 0.950 . S
C1646 C1647 1.327 . S
C1647 H1641 0.950 . S
C1647 C1646 1.327 . S
C1647 C1651 1.429 . S
C1648 C1631 1.574 . S
C1648 H1642 0.949 . S
C1648 C1652 1.368 . S
C1649 C1630 1.429 . S
C1649 C1643 1.429 . S
C1649 C1650 1.523 . S
C1650 C1631 1.368 . S
C1650 C1644 1.368 . S
C1650 C1649 1.523 . S
C1651 C1635 1.429 . S
C1651 C1647 1.429 . S
C1651 C1652 1.523 . S
C1652 C1636 1.368 . S
C1652 C1648 1.368 . S
C1652 C1651 1.523 . S
H1653 C1628 0.950 . S
H1654 C1630 0.950 . S
H1655 C1631 0.949 . S
H1656 C1633 0.950 . S
H1657 C1635 0.950 . S
C1658 C1659 1.349 . S
C1658 C1660 1.327 . S
C1658 H1683 0.950 . S
C1659 C1658 1.349 . S
C1659 C1675 1.349 . S
C1660 C1658 1.327 . S
C1660 C1679 1.429 . S
C1660 H1684 0.950 . S
C1661 C1678 1.574 . S
C1661 C1680 1.368 . S
C1661 H1685 0.949 . S
H1662 C1666 0.949 . S
C1663 C1664 1.349 . S
C1663 C1665 1.327 . S
C1663 H1686 0.950 . S
C1664 C1663 1.349 . S
C1664 C1676 1.349 . S
C1665 C1663 1.327 . S
C1665 C1681 1.429 . S
C1665 H1687 0.950 . S
C1666 H1662 0.949 . S
C1666 C1674 1.574 . S
C1666 C1682 1.368 . S
H1667 C1675 0.950 . S
H1668 C1673 0.950 . S
H1669 C1674 0.949 . S
H1670 C1676 0.950 . S
H1671 C1677 0.950 . S
H1672 C1678 0.949 . S
C1673 H1668 0.950 . S
C1673 C1675 1.327 . S
C1673 C1679 1.429 . S
C1674 C1666 1.574 . S
C1674 H1669 0.949 . S
C1674 C1680 1.368 . S
C1675 C1659 1.349 . S
C1675 H1667 0.950 . S
C1675 C1673 1.327 . S
C1676 C1664 1.349 . S
C1676 H1670 0.950 . S
C1676 C1677 1.327 . S
C1677 H1671 0.950 . S
C1677 C1676 1.327 . S
C1677 C1681 1.429 . S
C1678 C1661 1.574 . S
C1678 H1672 0.949 . S
C1678 C1682 1.368 . S
C1679 C1660 1.429 . S
C1679 C1673 1.429 . S
C1679 C1680 1.523 . S
C1680 C1661 1.368 . S
C1680 C1674 1.368 . S
C1680 C1679 1.523 . S
C1681 C1665 1.429 . S
C1681 C1677 1.429 . S
C1681 C1682 1.523 . S
C1682 C1666 1.368 . S
C1682 C1678 1.368 . S
C1682 C1681 1.523 . S
H1683 C1658 0.950 . S
H1684 C1660 0.950 . S
H1685 C1661 0.949 . S
H1686 C1663 0.950 . S
H1687 C1665 0.950 . S
C1688 C1689 1.349 . S
C1688 C1690 1.327 . S
C1688 H1713 0.950 . S
C1689 C1688 1.349 . S
C1689 C1705 1.349 . S
C1690 C1688 1.327 . S
C1690 C1709 1.429 . S
C1690 H1714 0.950 . S
C1691 C1708 1.574 . S
C1691 C1710 1.368 . S
C1691 H1715 0.949 . S
H1692 C1696 0.949 . S
C1693 C1694 1.349 . S
C1693 C1695 1.327 . S
C1693 H1716 0.950 . S
C1694 C1693 1.349 . S
C1694 C1706 1.349 . S
C1695 C1693 1.327 . S
C1695 C1711 1.429 . S
C1695 H1717 0.950 . S
C1696 H1692 0.949 . S
C1696 C1704 1.574 . S
C1696 C1712 1.368 . S
H1697 C1705 0.950 . S
H1698 C1703 0.950 . S
H1699 C1704 0.949 . S
H1700 C1706 0.950 . S
H1701 C1707 0.950 . S
H1702 C1708 0.949 . S
C1703 H1698 0.950 . S
C1703 C1705 1.327 . S
C1703 C1709 1.429 . S
C1704 C1696 1.574 . S
C1704 H1699 0.949 . S
C1704 C1710 1.368 . S
C1705 C1689 1.349 . S
C1705 H1697 0.950 . S
C1705 C1703 1.327 . S
C1706 C1694 1.349 . S
C1706 H1700 0.950 . S
C1706 C1707 1.327 . S
C1707 H1701 0.950 . S
C1707 C1706 1.327 . S
C1707 C1711 1.429 . S
C1708 C1691 1.574 . S
C1708 H1702 0.949 . S
C1708 C1712 1.368 . S
C1709 C1690 1.429 . S
C1709 C1703 1.429 . S
C1709 C1710 1.523 . S
C1710 C1691 1.368 . S
C1710 C1704 1.368 . S
C1710 C1709 1.523 . S
C1711 C1695 1.429 . S
C1711 C1707 1.429 . S
C1711 C1712 1.523 . S
C1712 C1696 1.368 . S
C1712 C1708 1.368 . S
C1712 C1711 1.523 . S
H1713 C1688 0.950 . S
H1714 C1690 0.950 . S
H1715 C1691 0.949 . S
H1716 C1693 0.950 . S
H1717 C1695 0.950 . S
C1718 C1719 1.349 . S
C1718 C1720 1.327 . S
C1718 H1743 0.950 . S
C1719 C1718 1.349 . S
C1719 C1735 1.349 . S
C1720 C1718 1.327 . S
C1720 C1739 1.429 . S
C1720 H1744 0.950 . S
C1721 C1738 1.574 . S
C1721 C1740 1.368 . S
C1721 H1745 0.949 . S
H1722 C1726 0.949 . S
C1723 C1724 1.349 . S
C1723 C1725 1.327 . S
C1723 H1746 0.950 . S
C1724 C1723 1.349 . S
C1724 C1736 1.349 . S
C1725 C1723 1.327 . S
C1725 C1741 1.429 . S
C1725 H1747 0.950 . S
C1726 H1722 0.949 . S
C1726 C1734 1.574 . S
C1726 C1742 1.368 . S
H1727 C1735 0.950 . S
H1728 C1733 0.950 . S
H1729 C1734 0.949 . S
H1730 C1736 0.950 . S
H1731 C1737 0.950 . S
H1732 C1738 0.949 . S
C1733 H1728 0.950 . S
C1733 C1735 1.327 . S
C1733 C1739 1.429 . S
C1734 C1726 1.574 . S
C1734 H1729 0.949 . S
C1734 C1740 1.368 . S
C1735 C1719 1.349 . S
C1735 H1727 0.950 . S
C1735 C1733 1.327 . S
C1736 C1724 1.349 . S
C1736 H1730 0.950 . S
C1736 C1737 1.327 . S
C1737 H1731 0.950 . S
C1737 C1736 1.327 . S
C1737 C1741 1.429 . S
C1738 C1721 1.574 . S
C1738 H1732 0.949 . S
C1738 C1742 1.368 . S
C1739 C1720 1.429 . S
C1739 C1733 1.429 . S
C1739 C1740 1.523 . S
C1740 C1721 1.368 . S
C1740 C1734 1.368 . S
C1740 C1739 1.523 . S
C1741 C1725 1.429 . S
C1741 C1737 1.429 . S
C1741 C1742 1.523 . S
C1742 C1726 1.368 . S
C1742 C1738 1.368 . S
C1742 C1741 1.523 . S
H1743 C1718 0.950 . S
H1744 C1720 0.950 . S
H1745 C1721 0.949 . S
H1746 C1723 0.950 . S
H1747 C1725 0.950 . S
C1748 C1749 1.349 . S
C1748 C1750 1.327 . S
C1748 H1773 0.950 . S
C1749 C1748 1.349 . S
C1749 C1765 1.349 . S
C1750 C1748 1.327 . S
C1750 C1769 1.429 . S
C1750 H1774 0.950 . S
C1751 C1768 1.574 . S
C1751 C1770 1.368 . S
C1751 H1775 0.949 . S
H1752 C1756 0.949 . S
C1753 C1754 1.349 . S
C1753 C1755 1.327 . S
C1753 H1776 0.950 . S
C1754 C1753 1.349 . S
C1754 C1766 1.349 . S
C1755 C1753 1.327 . S
C1755 C1771 1.429 . S
C1755 H1777 0.950 . S
C1756 H1752 0.949 . S
C1756 C1764 1.574 . S
C1756 C1772 1.368 . S
H1757 C1765 0.950 . S
H1758 C1763 0.950 . S
H1759 C1764 0.949 . S
H1760 C1766 0.950 . S
H1761 C1767 0.950 . S
H1762 C1768 0.949 . S
C1763 H1758 0.950 . S
C1763 C1765 1.327 . S
C1763 C1769 1.429 . S
C1764 C1756 1.574 . S
C1764 H1759 0.949 . S
C1764 C1770 1.368 . S
C1765 C1749 1.349 . S
C1765 H1757 0.950 . S
C1765 C1763 1.327 . S
C1766 C1754 1.349 . S
C1766 H1760 0.950 . S
C1766 C1767 1.327 . S
C1767 H1761 0.950 . S
C1767 C1766 1.327 . S
C1767 C1771 1.429 . S
C1768 C1751 1.574 . S
C1768 H1762 0.949 . S
C1768 C1772 1.368 . S
C1769 C1750 1.429 . S
C1769 C1763 1.429 . S
C1769 C1770 1.523 . S
C1770 C1751 1.368 . S
C1770 C1764 1.368 . S
C1770 C1769 1.523 . S
C1771 C1755 1.429 . S
C1771 C1767 1.429 . S
C1771 C1772 1.523 . S
C1772 C1756 1.368 . S
C1772 C1768 1.368 . S
C1772 C1771 1.523 . S
H1773 C1748 0.950 . S
H1774 C1750 0.950 . S
H1775 C1751 0.949 . S
H1776 C1753 0.950 . S
H1777 C1755 0.950 . S
C1778 C1779 1.349 . S
C1778 C1780 1.327 . S
C1778 H1803 0.950 . S
C1779 C1778 1.349 . S
C1779 C1795 1.349 . S
C1780 C1778 1.327 . S
C1780 C1799 1.429 . S
C1780 H1804 0.950 . S
C1781 C1798 1.574 . S
C1781 C1800 1.368 . S
C1781 H1805 0.949 . S
H1782 C1786 0.949 . S
C1783 C1784 1.349 . S
C1783 C1785 1.327 . S
C1783 H1806 0.950 . S
C1784 C1783 1.349 . S
C1784 C1796 1.349 . S
C1785 C1783 1.327 . S
C1785 C1801 1.429 . S
C1785 H1807 0.950 . S
C1786 H1782 0.949 . S
C1786 C1794 1.574 . S
C1786 C1802 1.368 . S
H1787 C1795 0.950 . S
H1788 C1793 0.950 . S
H1789 C1794 0.949 . S
H1790 C1796 0.950 . S
H1791 C1797 0.950 . S
H1792 C1798 0.949 . S
C1793 H1788 0.950 . S
C1793 C1795 1.327 . S
C1793 C1799 1.429 . S
C1794 C1786 1.574 . S
C1794 H1789 0.949 . S
C1794 C1800 1.368 . S
C1795 C1779 1.349 . S
C1795 H1787 0.950 . S
C1795 C1793 1.327 . S
C1796 C1784 1.349 . S
C1796 H1790 0.950 . S
C1796 C1797 1.327 . S
C1797 H1791 0.950 . S
C1797 C1796 1.327 . S
C1797 C1801 1.429 . S
C1798 C1781 1.574 . S
C1798 H1792 0.949 . S
C1798 C1802 1.368 . S
C1799 C1780 1.429 . S
C1799 C1793 1.429 . S
C1799 C1800 1.523 . S
C1800 C1781 1.368 . S
C1800 C1794 1.368 . S
C1800 C1799 1.523 . S
C1801 C1785 1.429 . S
C1801 C1797 1.429 . S
C1801 C1802 1.523 . S
C1802 C1786 1.368 . S
C1802 C1798 1.368 . S
C1802 C1801 1.523 . S
H1803 C1778 0.950 . S
H1804 C1780 0.950 . S
H1805 C1781 0.949 . S
H1806 C1783 0.950 . S
H1807 C1785 0.950 . S
C369 C16 0.920 . S
C374 C177 0.920 . S
C399 C108 0.917 . S
C404 C39 0.917 . S
C429 C131 0.920 . S
C434 C62 0.920 . S
C459 C85 0.913 . S
C464 C154 0.913 . S
C489 C362 0.902 . S
C494 C200 0.903 . S
C519 C292 0.919 . S
C524 C223 0.919 . S
C549 C315 0.920 . S
C554 C246 0.920 . S
C579 C338 0.921 . S
C584 C269 0.921 . S
C609 C20 1.117 . S
C614 C366 1.111 . S
C639 C43 1.108 . S
C644 C296 1.108 . S
C669 C66 1.100 . S
C674 C319 1.100 . S
C699 C342 1.093 . S
C704 C89 1.093 . S
C729 C227 1.102 . S
C734 C112 1.102 . S
C759 C135 1.102 . S
C764 C250 1.103 . S
C789 C273 1.099 . S
C794 C158 1.099 . S
C819 C181 1.080 . S
C824 C204 1.080 . S
C849 C294 1.320 . S
C854 C17 1.311 . S
C879 C40 1.313 . S
C884 C317 1.323 . S
C909 C340 1.317 . S
C914 C63 1.307 . S
C939 C364 1.324 . S
C944 C86 1.326 . S
C969 C109 1.322 . S
C974 C202 1.332 . S
C999 C132 1.311 . S
C1004 C225 1.321 . S
C1029 C155 1.316 . S
C1034 C248 1.326 . S
C1059 C271 1.318 . S
C1064 C178 1.308 . S
C1089 C201 1.311 . S
C1094 C110 1.321 . S
C1119 C224 1.310 . S
C1124 C133 1.319 . S
C1149 C156 1.312 . S
C1154 C247 1.302 . S
C1179 C270 1.311 . S
C1184 C179 1.321 . S
C1209 C293 1.316 . S
C1214 C18 1.325 . S
C1239 C316 1.310 . S
C1244 C41 1.320 . S
C1269 C64 1.320 . S
C1274 C339 1.310 . S
C1299 C87 1.373 . S
C1304 C361 1.358 . S
C1329 C19 1.496 . S
C1334 C228 1.476 . S
C1359 C251 1.480 . S
C1364 C42 1.499 . S
C1389 C65 1.491 . S
C1394 C274 1.471 . S
C1419 C88 1.515 . S
C1424 C205 1.495 . S
C1449 C111 1.468 . S
C1454 C365 1.482 . S
C1479 C134 1.493 . S
C1484 C297 1.473 . S
C1509 C157 1.497 . S
C1514 C320 1.477 . S
C1539 C343 1.471 . S
C1544 C180 1.491 . S
C1569 C44 1.483 . S
C1574 C203 1.502 . S
C1599 C67 1.473 . S
C1604 C226 1.492 . S
C1629 C249 1.496 . S
C1634 C90 1.476 . S
C1659 C272 1.490 . S
C1664 C21 1.470 . S
C1689 C182 1.472 . S
C1694 C295 1.491 . S
C1719 C113 1.471 . S
C1724 C318 1.490 . S
C1749 C136 1.472 . S
C1754 C341 1.492 . S
C1779 C159 1.473 . S
C1784 C363 1.506 . S
