# Generated by pormake.
# Topology qtz-e, (6)-cn, num edge types: 1
# Building blocks:
#     Node 0, Type 0, BuildingBlock: KUMBUR_clean_sbu_1, # of connection points: 6
#     Node 1, Type 0, BuildingBlock: KUMBUR_clean_sbu_1, # of connection points: 6
#     Node 2, Type 0, BuildingBlock: KUMBUR_clean_sbu_1, # of connection points: 6
#     Node 3, Type 0, BuildingBlock: KUMBUR_clean_sbu_1, # of connection points: 6
#     Node 4, Type 0, BuildingBlock: KUMBUR_clean_sbu_1, # of connection points: 6
#     Node 5, Type 0, BuildingBlock: KUMBUR_clean_sbu_1, # of connection points: 6
#     Edge 6, Type (0, 0), BuildingBlock: OJICUG_clean_linker_0, # of connection points: 2
#     Edge 7, Type (0, 0), BuildingBlock: OJICUG_clean_linker_0, # of connection points: 2
#     Edge 8, Type (0, 0), BuildingBlock: OJICUG_clean_linker_0, # of connection points: 2
#     Edge 9, Type (0, 0), BuildingBlock: OJICUG_clean_linker_0, # of connection points: 2
#     Edge 10, Type (0, 0), BuildingBlock: OJICUG_clean_linker_0, # of connection points: 2
#     Edge 11, Type (0, 0), BuildingBlock: OJICUG_clean_linker_0, # of connection points: 2
#     Edge 12, Type (0, 0), BuildingBlock: OJICUG_clean_linker_0, # of connection points: 2
#     Edge 13, Type (0, 0), BuildingBlock: OJICUG_clean_linker_0, # of connection points: 2
#     Edge 14, Type (0, 0), BuildingBlock: OJICUG_clean_linker_0, # of connection points: 2
#     Edge 15, Type (0, 0), BuildingBlock: OJICUG_clean_linker_0, # of connection points: 2
#     Edge 16, Type (0, 0), BuildingBlock: OJICUG_clean_linker_0, # of connection points: 2
#     Edge 17, Type (0, 0), BuildingBlock: OJICUG_clean_linker_0, # of connection points: 2
#     Edge 18, Type (0, 0), BuildingBlock: OJICUG_clean_linker_0, # of connection points: 2
#     Edge 19, Type (0, 0), BuildingBlock: OJICUG_clean_linker_0, # of connection points: 2
#     Edge 20, Type (0, 0), BuildingBlock: OJICUG_clean_linker_0, # of connection points: 2
#     Edge 21, Type (0, 0), BuildingBlock: OJICUG_clean_linker_0, # of connection points: 2
#     Edge 22, Type (0, 0), BuildingBlock: OJICUG_clean_linker_0, # of connection points: 2
#     Edge 23, Type (0, 0), BuildingBlock: OJICUG_clean_linker_0, # of connection points: 2
# Relax obj value: 0.152
# Max RMSD: 0.218
# Mean RMSD: 0.218
data_MOF--net-qtz-e--node1-KUMBUR_clean_sbu_1--edge1-OJICUG_clean_linker_0
_symmetry_space_group_name_H-M    P1
_symmetry_Int_Tables_number       1
_symmetry_cell_setting            triclinic
loop_
_symmetry_equiv_pos_as_xyz
'x, y, z'
_cell_length_a     20.868264
_cell_length_b     20.935452
_cell_length_c     38.991704
_cell_angle_alpha  89.960434
_cell_angle_beta   89.750384
_cell_angle_gamma 120.0743
loop_
_atom_site_label
_atom_site_type_symbol
_atom_site_fract_x
_atom_site_fract_y
_atom_site_fract_z
_atom_type_partial_charge
Tb0 Tb 0.18838 0.3602 0.99314 0.0
C1 C 0.42932 0.68411 0.03526 0.0
N2 N 0.41297 0.62181 0.05293 0.0
C3 C 0.54246 0.66797 0.06227 0.0
C4 C 0.50321 0.73985 0.0293 0.0
C5 C 0.46812 0.61477 0.06781 0.0
C6 C 0.56017 0.73024 0.04239 0.0
C7 C 0.38546 0.75925 0.00825 0.0
C8 C 0.37136 0.69361 0.02486 0.0
C9 C 0.45888 0.81385 1.00101 0.0
C10 C 0.51766 0.80411 0.01146 0.0
Tb11 Tb 0.28993 0.53575 0.05829 0.0
N12 N 0.3011 0.63897 0.03197 0.0
C13 C 0.32538 0.76831 0.99989 0.0
C14 C 0.24289 0.64978 0.02585 0.0
C15 C 0.25393 0.71383 0.00928 0.0
H16 H 0.4545 0.56914 0.08483 0.0
H17 H 0.20736 0.72152 1.00421 0.0
H18 H 0.02309 0.32745 0.96839 0.0
H19 H 0.27707 0.20006 0.06739 0.0
H20 H 0.18806 0.61031 0.03425 0.0
H21 H 0.33371 0.81788 0.98709 0.0
H22 H 0.29549 0.30328 0.03049 0.0
H23 H 0.58599 0.66148 0.07376 0.0
H24 H 0.47083 0.86433 0.98791 0.0
H25 H 0.57406 0.84734 0.00637 0.0
H26 H 0.8927 0.23129 0.97816 0.0
H27 H 0.61774 0.77169 0.03838 0.0
H28 H 0.15021 0.10063 0.082 0.0
N29 N 0.06673 0.27159 0.99715 0.0
C30 C 0.05164 0.21109 0.01605 0.0
C31 C 0.9369 0.22496 0.98897 0.0
C32 C 0.97809 0.1559 0.02304 0.0
C33 C 0.0108 0.27933 0.98353 0.0
C34 C 0.92041 0.1631 0.00895 0.0
N35 N 0.18043 0.26428 0.02467 0.0
C36 C 0.23998 0.26107 0.03678 0.0
C37 C 0.09719 0.14768 0.05175 0.0
C38 C 0.11046 0.2071 0.0302 0.0
C39 C 0.15799 0.14563 0.06548 0.0
C40 C 0.22967 0.20194 0.05747 0.0
H41 H 0.86308 0.12183 0.0137 0.0
H42 H 0.90835 0.05494 0.05119 0.0
H43 H 0.0125 0.04903 0.07718 0.0
O44 O 0.24183 0.32493 0.95783 0.0
O45 O 0.14529 0.34587 0.04662 0.0
O46 O 0.251 0.42254 0.07516 0.0
O47 O 0.14145 0.32337 0.94443 0.0
O48 O 0.31044 0.41784 0.99901 0.0
O49 O 0.32876 0.45684 0.05494 0.0
O50 O 0.23372 0.56095 0.09596 0.0
O51 O 0.32072 0.55087 1.00365 0.0
O52 O 0.21804 0.46866 0.97269 0.0
O53 O 0.34007 0.57156 0.10624 0.0
O54 O 0.17097 0.48859 0.04908 0.0
O55 O 0.13785 0.43065 0.99555 0.0
C56 C 0.18094 0.37139 0.07568 0.0
C57 C 0.16969 0.24374 0.91241 0.0
C58 C 0.18709 0.18994 0.85915 0.0
C59 C 0.11815 0.12604 0.86579 0.0
C60 C 0.10241 0.17873 0.91841 0.0
C61 C 0.07707 0.12038 0.89523 0.0
C62 C 0.21237 0.24856 0.8832 0.0
C63 C 0.35334 0.44426 0.02615 0.0
C64 C 0.19271 0.30989 0.93405 0.0
C65 C 0.96454 0.09707 0.04489 0.0
C66 C 0.02391 0.09344 0.05951 0.0
C67 C 0.27684 0.53403 0.97708 0.0
C68 C 0.31293 0.65443 0.13378 0.0
C69 C 0.31573 0.72207 0.18477 0.0
C70 C 0.36631 0.78852 0.16825 0.0
C71 C 0.36312 0.72089 0.11758 0.0
C72 C 0.28838 0.65533 0.16696 0.0
C73 C 0.38922 0.78774 0.13468 0.0
C74 C 0.12718 0.4638 0.02212 0.0
C75 C 0.28816 0.58306 0.11755 0.0
H76 H 0.09446 0.08042 0.84799 0.0
H77 H 0.06856 0.17377 0.9405 0.0
H78 H 0.02425 0.07097 0.89969 0.0
H79 H 0.26488 0.29867 0.87931 0.0
H80 H 0.38971 0.84089 0.18145 0.0
H81 H 0.38316 0.72128 0.09213 0.0
H82 H 0.24868 0.60363 0.17902 0.0
H83 H 0.4285 0.83888 0.12218 0.0
Tb84 Tb 0.82051 0.18905 0.32724 0.0
C85 C 0.69209 0.39131 0.35148 0.0
N86 N 0.75736 0.39947 0.36235 0.0
C87 C 0.8211 0.52374 0.34077 0.0
C88 C 0.689 0.44736 0.33285 0.0
C89 C 0.82092 0.46619 0.35915 0.0
C90 C 0.75502 0.51374 0.32691 0.0
C91 C 0.55851 0.31818 0.35182 0.0
C92 C 0.62821 0.32801 0.36086 0.0
C93 C 0.55485 0.37125 0.33111 0.0
C94 C 0.62009 0.43593 0.32169 0.0
Tb95 Tb 0.75241 0.30037 0.38996 0.0
N96 N 0.6345 0.27924 0.38141 0.0
C97 C 0.49494 0.25723 0.36522 0.0
C98 C 0.57299 0.22402 0.39721 0.0
C99 C 0.5023 0.21079 0.38863 0.0
H100 H 0.87142 0.47452 0.37042 0.0
H101 H 0.45367 0.16547 0.40043 0.0
H102 H 0.67104 0.03465 0.29961 0.0
H103 H 0.07358 0.23101 0.38389 0.0
H104 H 0.57846 0.19019 0.41656 0.0
H105 H 0.44029 0.24772 0.35901 0.0
H106 H 0.99316 0.26894 0.35413 0.0
H107 H 0.87206 0.57578 0.33746 0.0
H108 H 0.50187 0.36418 0.32339 0.0
H109 H 0.6165 0.47764 0.30673 0.0
H110 H 0.6131 0.90117 0.31083 0.0
H111 H 0.75517 0.55831 0.3127 0.0
H112 H 0.02396 0.1003 0.40004 0.0
N113 N 0.7643 0.06333 0.33152 0.0
C114 C 0.80225 0.0377 0.3496 0.0
C115 C 0.66599 0.93904 0.32222 0.0
C116 C 0.77238 0.9616 0.35571 0.0
C117 C 0.69851 0.01501 0.31641 0.0
C118 C 0.70255 0.91224 0.3424 0.0
N119 N 0.89949 0.16067 0.35418 0.0
C120 C 0.97148 0.21174 0.36105 0.0
C121 C 0.91609 0.06373 0.37783 0.0
C122 C 0.8729 0.08786 0.36066 0.0
C123 C 0.98882 0.11626 0.3867 0.0
C124 C 0.017 0.19036 0.37775 0.0
H125 H 0.67745 0.85333 0.34668 0.0
H126 H 0.7915 0.87911 0.37957 0.0
H127 H 0.91654 0.96835 0.39915 0.0
O128 O 0.89338 0.25483 0.28769 0.0
O129 O 0.83719 0.18912 0.38408 0.0
O130 O 0.74191 0.19787 0.4104 0.0
O131 O 0.83149 0.13755 0.28276 0.0
O132 O 0.89726 0.30796 0.33442 0.0
O133 O 0.8659 0.32134 0.38875 0.0
O134 O 0.71163 0.31894 0.43625 0.0
O135 O 0.78394 0.32927 0.33612 0.0
O136 O 0.7428 0.22061 0.30733 0.0
O137 O 0.82789 0.37629 0.42501 0.0
O138 O 0.6749 0.1813 0.38348 0.0
O139 O 0.69873 0.14458 0.33056 0.0
C140 C 0.79028 0.17474 0.41001 0.0
C141 C 0.94739 0.20073 0.25328 0.0
C142 C 0.04058 0.23911 0.207 0.0
C143 C 0.0751 0.20703 0.22551 0.0
C144 C 0.98303 0.16878 0.27075 0.0
C145 C 0.04634 0.17199 0.25692 0.0
C146 C 0.97596 0.23528 0.22107 0.0
C147 C 0.91036 0.34779 0.36231 0.0
C148 C 0.88122 0.19899 0.26865 0.0
C149 C 0.81377 0.93728 0.37422 0.0
C150 C 0.88541 0.98823 0.38524 0.0
C151 C 0.7478 0.28526 0.31076 0.0
C152 C 0.79232 0.3368 0.48202 0.0
C153 C 0.75706 0.30464 0.54203 0.0
C154 C 0.81572 0.29027 0.54589 0.0
C155 C 0.85001 0.32116 0.48628 0.0
C156 C 0.74605 0.32805 0.50987 0.0
C157 C 0.86155 0.29819 0.5181 0.0
C158 C 0.65399 0.13708 0.35651 0.0
C159 C 0.77776 0.35952 0.44851 0.0
H160 H 0.12424 0.20838 0.21544 0.0
H161 H 0.96191 0.14116 0.29508 0.0
H162 H 0.0734 0.14719 0.27068 0.0
H163 H 0.94889 0.26021 0.20737 0.0
H164 H 0.82646 0.27314 0.57038 0.0
H165 H 0.88598 0.32618 0.46508 0.0
H166 H 0.70016 0.33769 0.50606 0.0
H167 H 0.90606 0.28632 0.52122 0.0
Tb168 Tb 0.64567 0.82773 0.66251 0.0
C169 C 0.30936 0.65408 0.70178 0.0
N170 N 0.36391 0.72369 0.70883 0.0
C171 C 0.28419 0.77038 0.6926 0.0
C172 C 0.24111 0.63992 0.6881 0.0
C173 C 0.35082 0.78117 0.70624 0.0
C174 C 0.22957 0.69955 0.68279 0.0
C175 C 0.26332 0.52314 0.70702 0.0
C176 C 0.32035 0.59692 0.71101 0.0
C177 C 0.19693 0.50826 0.6911 0.0
C178 C 0.18582 0.56668 0.68164 0.0
Tb179 Tb 0.47242 0.73663 0.72941 0.0
N180 N 0.38417 0.61399 0.72725 0.0
C181 C 0.27326 0.46705 0.72088 0.0
C182 C 0.3915 0.55987 0.74316 0.0
C183 C 0.33723 0.48559 0.73951 0.0
H184 H 0.3921 0.83522 0.71435 0.0
H185 H 0.34404 0.44288 0.75167 0.0
H186 H 0.68321 0.69404 0.64046 0.0
H187 H 0.8185 0.09396 0.72003 0.0
H188 H 0.43869 0.57431 0.75928 0.0
H189 H 0.23033 0.40975 0.719 0.0
H190 H 0.7113 1.00036 0.68689 0.0
H191 H 0.27494 0.81657 0.68979 0.0
H192 H 0.15279 0.45191 0.68732 0.0
H193 H 0.13333 0.55455 0.67064 0.0
H194 H 0.77257 0.6563 0.65788 0.0
H195 H 0.17786 0.69115 0.67239 0.0
H196 H 0.91171 0.06434 0.74227 0.0
N197 N 0.73097 0.7909 0.6715 0.0
C198 C 0.79014 0.83732 0.6909 0.0
C199 C 0.77762 0.70696 0.66772 0.0
C200 C 0.84328 0.81848 0.70106 0.0
C201 C 0.72623 0.7281 0.65835 0.0
C202 C 0.83566 0.75165 0.68968 0.0
N203 N 0.7445 0.91979 0.69047 0.0
C204 C 0.75247 0.98776 0.69614 0.0
C205 C 0.85878 0.9552 0.71978 0.0
C206 C 0.79815 0.9048 0.70004 0.0
C207 C 0.86563 0.02378 0.72729 0.0
C208 C 0.81295 0.04062 0.71487 0.0
H209 H 0.87523 0.73502 0.69696 0.0
H210 H 0.94283 0.85284 0.73076 0.0
H211 H 0.95549 0.97187 0.74776 0.0
O212 O 0.65035 0.89952 0.62318 0.0
O213 O 0.65708 0.84626 0.71911 0.0
O214 O 0.57329 0.73696 0.74404 0.0
O215 O 0.71042 0.84218 0.61825 0.0
O216 O 0.58232 0.88536 0.66846 0.0
O217 O 0.54227 0.85654 0.72408 0.0
O218 O 0.42233 0.69443 0.77714 0.0
O219 O 0.45563 0.75746 0.67605 0.0
O220 O 0.53857 0.7415 0.64322 0.0
O221 O 0.48711 0.81173 0.76862 0.0
O222 O 0.52603 0.67148 0.71737 0.0
O223 O 0.58332 0.70452 0.66348 0.0
C224 C 0.6403 0.7943 0.74236 0.0
C225 C 0.7583 0.9565 0.58816 0.0
C226 C 0.80993 0.04392 0.53954 0.0
C227 C 0.87744 0.08143 0.55734 0.0
C228 C 0.82647 0.99531 0.60497 0.0
C229 C 0.88544 0.05731 0.58964 0.0
C230 C 0.75013 0.98124 0.55547 0.0
C231 C 0.55244 0.89565 0.69622 0.0
C232 C 0.69581 0.88967 0.60411 0.0
C233 C 0.90232 0.86706 0.72203 0.0
C234 C 0.90984 0.93512 0.7315 0.0
C235 C 0.47158 0.73056 0.64911 0.0
C236 C 0.39604 0.76852 0.8128 0.0
C237 C 0.33401 0.73876 0.86819 0.0
C238 C 0.29713 0.7768 0.85892 0.0
C239 C 0.36029 0.80761 0.80365 0.0
C240 C 0.38317 0.73514 0.84492 0.0
C241 C 0.31091 0.81169 0.82682 0.0
C242 C 0.55072 0.6564 0.68892 0.0
C243 C 0.44695 0.75943 0.79025 0.0
H244 H 0.9241 0.13046 0.54655 0.0
H245 H 0.83428 0.97755 0.62991 0.0
H246 H 0.93778 0.08703 0.60291 0.0
H247 H 0.69764 0.95099 0.54231 0.0
H248 H 0.25807 0.77951 0.8764 0.0
H249 H 0.37007 0.83431 0.77887 0.0
H250 H 0.41021 0.70395 0.85145 0.0
H251 H 0.28281 0.84137 0.81978 0.0
Tb252 Tb 0.82975 0.63489 0.99051 0.0
C253 C 0.65411 0.30228 0.02502 0.0
N254 N 0.6375 0.3555 0.03277 0.0
C255 C 0.51245 0.27657 0.01416 0.0
C256 C 0.60197 0.23587 0.00927 0.0
C257 C 0.56649 0.34172 0.02959 0.0
C258 C 0.53076 0.22408 1.00321 0.0
C259 C 0.73982 0.25685 0.02998 0.0
C260 C 0.72156 0.31241 0.03548 0.0
C261 C 0.69084 0.19314 0.01165 0.0
C262 C 0.62177 0.18249 1.00144 0.0
Tb263 Tb 0.72995 0.46055 0.05728 0.0
N264 N 0.76573 0.37336 0.05417 0.0
C265 C 0.80464 0.26524 0.0447 0.0
C266 C 0.82456 0.37772 0.07157 0.0
C267 C 0.84632 0.32517 0.06625 0.0
H268 H 0.55218 0.38162 0.03838 0.0
H269 H 0.89457 0.33041 0.07912 0.0
H270 H 0.98751 0.64584 0.96335 0.0
H271 H 0.77314 0.83867 0.04358 0.0
H272 H 0.85526 0.42227 0.08938 0.0
H273 H 0.82077 0.2239 0.04109 0.0
H274 H 0.74102 0.71729 0.01871 0.0
H275 H 0.45684 0.2669 0.01075 0.0
H276 H 0.70435 0.15031 0.00668 0.0
H277 H 0.58309 0.13168 0.98869 0.0
H278 H 0.12074 0.73394 0.96775 0.0
H279 H 0.48891 0.17368 0.99126 0.0
H280 H 0.90448 0.93268 0.05289 0.0
N281 N 0.95532 0.71153 0.99252 0.0
C282 C 0.97842 0.77811 0.00741 0.0
C283 C 0.08144 0.74654 0.97964 0.0
C284 C 0.05432 0.83101 0.00978 0.0
C285 C 1.00556 0.6961 0.97766 0.0
C286 C 0.10608 0.81391 0.9962 0.0
N287 N 0.85297 0.74246 0.01544 0.0
C288 C 0.79838 0.75814 0.02301 0.0
C289 C 0.94651 0.86452 0.0325 0.0
C290 C 0.92547 0.7947 0.01868 0.0
C291 C 0.89079 0.87987 0.04201 0.0
C292 C 0.81645 0.82674 0.03691 0.0
H293 H 0.16491 0.85315 0.99741 0.0
H294 H 0.13395 0.94123 0.02686 0.0
H295 H 0.0399 0.97036 0.04667 0.0
O296 O 0.76643 0.65403 0.95374 0.0
O297 O 0.83551 0.65774 0.04738 0.0
O298 O 0.82985 0.55753 0.07629 0.0
O299 O 0.87749 0.68082 0.94261 0.0
O300 O 0.70889 0.58194 0.99612 0.0
O301 O 0.7006 0.54664 0.05152 0.0
O302 O 0.70766 0.4011 0.10431 0.0
O303 O 0.69593 0.44976 1.00352 0.0
O304 O 0.80087 0.52473 0.97225 0.0
O305 O 0.65843 0.46855 0.0924 0.0
O306 O 0.85013 0.51122 0.0496 0.0
O307 O 0.87855 0.56239 0.99467 0.0
C308 C 0.85099 0.62846 0.07425 0.0
C309 C 0.83433 0.75127 0.9132 0.0
C310 C 0.81306 0.81154 0.8633 0.0
C311 C 0.87249 0.87934 0.87472 0.0
C312 C 0.89167 0.82016 0.92393 0.0
C313 C 0.91041 0.88348 0.90483 0.0
C314 C 0.79447 0.74736 0.88317 0.0
C315 C 0.66957 0.55541 0.02425 0.0
C316 C 0.82004 0.6828 0.93137 0.0
C317 C 0.0759 0.89991 0.02463 0.0
C318 C 0.02213 0.91663 0.03589 0.0
C319 C 0.73967 0.46132 0.97723 0.0
C320 C 0.62156 0.40355 0.14633 0.0
C321 C 0.61136 0.36683 0.20608 0.0
C322 C 0.54182 0.36177 0.20825 0.0
C323 C 0.55249 0.39964 0.14879 0.0
C324 C 0.65073 0.38734 0.17502 0.0
C325 C 0.51276 0.37857 0.17966 0.0
C326 C 0.89135 0.53181 0.02154 0.0
C327 C 0.66336 0.42441 0.114 0.0
H328 H 0.89125 0.9297 0.86019 0.0
H329 H 0.92334 0.82488 0.94664 0.0
H330 H 0.95575 0.93609 0.91309 0.0
H331 H 0.7494 0.69407 0.87545 0.0
H332 H 0.51057 0.34555 0.23205 0.0
H333 H 0.52889 0.41189 0.1268 0.0
H334 H 0.704 0.3902 0.17315 0.0
H335 H 0.45932 0.37509 0.18139 0.0
Tb336 Tb 0.17594 0.8264 0.33234 0.0
C337 C 0.35757 0.65552 0.38806 0.0
N338 N 0.28664 0.64167 0.38718 0.0
C339 C 0.24411 0.51559 0.37215 0.0
C340 C 0.37511 0.60084 0.37918 0.0
C341 C 0.22967 0.57192 0.38102 0.0
C342 C 0.31726 0.53037 0.37073 0.0
C343 C 0.48653 0.74132 0.40036 0.0
C344 C 0.41219 0.72444 0.39871 0.0
C345 C 0.50504 0.68814 0.39018 0.0
C346 C 0.44938 0.61791 0.37976 0.0
Tb347 Tb 0.26948 0.73751 0.40248 0.0
N348 N 0.39178 0.77359 0.40905 0.0
C349 C 0.53956 0.81036 0.41303 0.0
C350 C 0.44238 0.83888 0.42359 0.0
C351 C 0.51716 0.85897 0.42514 0.0
H352 H 0.17347 0.56039 0.38241 0.0
H353 H 0.55726 0.91145 0.43609 0.0
H354 H 0.31559 0.99682 0.313 0.0
H355 H 0.90354 0.73595 0.38341 0.0
H356 H 0.42482 0.87495 0.43454 0.0
H357 H 0.59737 0.82571 0.41455 0.0
H358 H 0.99904 0.72181 0.35171 0.0
H359 H 0.19885 0.46082 0.36652 0.0
H360 H 0.56193 0.7002 0.39104 0.0
H361 H 0.46419 0.57687 0.37275 0.0
H362 H 0.35452 0.12363 0.33075 0.0
H363 H 0.32833 0.48666 0.36387 0.0
H364 H 0.93443 0.85786 0.40706 0.0
N365 N 0.21457 0.94846 0.34169 0.0
C366 C 0.16682 0.96185 0.35977 0.0
C367 C 0.30203 0.07849 0.3396 0.0
C368 C 0.18678 0.03362 0.37056 0.0
C369 C 0.28003 0.00602 0.32998 0.0
C370 C 0.25592 0.09225 0.36062 0.0
N371 N 0.08105 0.83489 0.35662 0.0
C372 C 0.01179 0.77547 0.36109 0.0
C373 C 0.0459 0.91356 0.38623 0.0
C374 C 0.09708 0.90322 0.36701 0.0
C375 C 0.9756 0.85237 0.39239 0.0
C376 C 0.95801 0.78332 0.37916 0.0
H377 H 0.2734 0.14835 0.3683 0.0
H378 H 0.15217 0.09863 0.40032 0.0
H379 H 0.0306 0.99269 0.41561 0.0
O380 O 0.10804 0.76104 0.2917 0.0
O381 O 0.15101 0.81953 0.38809 0.0
O382 O 0.26061 0.8366 0.41113 0.0
O383 O 0.18619 0.87484 0.28346 0.0
O384 O 0.1133 0.7045 0.33753 0.0
O385 O 0.15043 0.69368 0.39161 0.0
O386 O 0.29938 0.74034 0.45407 0.0
O387 O 0.28 0.70384 0.3502 0.0
O388 O 0.23928 0.7769 0.34315 0.0
O389 O 0.18767 0.66711 0.43747 0.0
O390 O 0.33514 0.85779 0.38852 0.0
O391 O 0.30096 0.88439 0.33457 0.0
C392 C 0.19954 0.84042 0.41339 0.0
C393 C 0.07593 0.8227 0.25013 0.0
C394 C 0.99588 0.79432 0.19911 0.0
C395 C 0.96737 0.83661 0.21368 0.0
C396 C 0.04596 0.86421 0.26356 0.0
C397 C 0.99231 0.87114 0.2454 0.0
C398 C 0.05071 0.78771 0.21786 0.0
C399 C 0.11298 0.66306 0.3634 0.0
C400 C 0.13266 0.81522 0.26992 0.0
C401 C 0.13713 0.04424 0.39087 0.0
C402 C 0.06729 0.98409 0.39911 0.0
C403 C 0.26075 0.73606 0.32794 0.0
C404 C 0.23239 0.62855 0.48434 0.0
C405 C 0.27012 0.59631 0.53757 0.0
C406 C 0.23438 0.52204 0.52736 0.0
C407 C 0.19589 0.55401 0.47451 0.0
C408 C 0.26859 0.64894 0.51589 0.0
C409 C 0.19701 0.50108 0.49604 0.0
C410 C 0.34991 0.89835 0.35982 0.0
C411 C 0.23414 0.68699 0.46278 0.0
H412 H 0.92418 0.84184 0.20101 0.0
H413 H 0.06393 0.89116 0.28819 0.0
H414 H 0.96929 0.90303 0.25616 0.0
H415 H 0.07417 0.75592 0.20743 0.0
H416 H 0.23516 0.48046 0.54361 0.0
H417 H 0.16678 0.53666 0.45036 0.0
H418 H 0.29745 0.7067 0.52319 0.0
H419 H 0.16914 0.44373 0.48835 0.0
Tb420 Tb 0.37325 0.18903 0.65808 0.0
C421 C 0.69634 0.31466 0.70422 0.0
N422 N 0.63703 0.24905 0.71329 0.0
C423 C 0.70566 0.18801 0.70039 0.0
C424 C 0.76127 0.3193 0.69075 0.0
C425 C 0.6426 0.18677 0.71367 0.0
C426 C 0.76466 0.25436 0.68808 0.0
C427 C 0.75508 0.44754 0.70481 0.0
C428 C 0.69314 0.37726 0.71106 0.0
C429 C 0.81829 0.45299 0.68894 0.0
C430 C 0.82141 0.38881 0.68194 0.0
Tb431 Tb 0.53278 0.25085 0.73102 0.0
N432 N 0.63197 0.36897 0.72734 0.0
C433 C 0.75291 0.50969 0.71643 0.0
C434 C 0.63317 0.42872 0.74208 0.0
C435 C 0.69238 0.50007 0.73597 0.0
H436 H 0.59782 0.13618 0.72359 0.0
H437 H 0.69171 0.5474 0.74671 0.0
H438 H 0.37447 0.34479 0.63569 0.0
H439 H 0.15351 0.92797 0.70453 0.0
H440 H 0.58837 0.42118 0.75865 0.0
H441 H 0.79918 0.56482 0.7121 0.0
H442 H 0.27806 0.01416 0.68088 0.0
H443 H 0.70873 0.13791 0.69973 0.0
H444 H 0.86613 0.50645 0.68341 0.0
H445 H 0.87153 0.3937 0.67103 0.0
H446 H 0.29332 0.39727 0.64309 0.0
H447 H 0.81356 0.25537 0.67791 0.0
H448 H 0.06575 0.97218 0.71634 0.0
N449 N 0.30325 0.24514 0.66284 0.0
C450 C 0.23466 0.20277 0.67673 0.0
C451 C 0.27658 0.34287 0.65314 0.0
C452 C 0.18506 0.22963 0.68023 0.0
C453 C 0.32344 0.31344 0.64981 0.0
C454 C 0.20725 0.30097 0.66862 0.0
N455 N 0.26124 0.10626 0.68103 0.0
C456 C 0.2401 0.03379 0.68636 0.0
C457 C 0.14089 0.0835 0.69878 0.0
C458 C 0.21247 0.13057 0.68568 0.0
C459 C 0.12017 0.01015 0.70618 0.0
C460 C 0.16969 0.98499 0.69959 0.0
H461 H 0.17045 0.32332 0.67051 0.0
H462 H 0.07541 0.20343 0.69717 0.0
H463 H 0.03696 0.07583 0.7134 0.0
O464 O 0.35084 0.10862 0.61992 0.0
O465 O 0.34412 0.16553 0.71356 0.0
O466 O 0.43708 0.26402 0.74212 0.0
O467 O 0.33249 0.19879 0.61034 0.0
O468 O 0.41722 0.11427 0.66623 0.0
O469 O 0.44594 0.13563 0.72303 0.0
O470 O 0.5742 0.28892 0.78018 0.0
O471 O 0.55398 0.22448 0.67947 0.0
O472 O 0.48985 0.25958 0.64327 0.0
O473 O 0.5111 0.1726 0.77001 0.0
O474 O 0.49457 0.32849 0.71758 0.0
O475 O 0.45483 0.30913 0.66096 0.0
C476 C 0.36714 0.21283 0.7392 0.0
C477 C 0.25522 0.0877 0.5806 0.0
C478 C 0.1911 0.00529 0.53195 0.0
C479 C 0.1255 1.00356 0.54248 0.0
C480 C 0.18859 0.08352 0.59061 0.0
C481 C 0.12428 0.04153 0.5717 0.0
C482 C 0.25587 0.04755 0.55169 0.0
C483 C 0.43711 0.09693 0.69518 0.0
C484 C 0.32545 0.13779 0.59837 0.0
C485 C 0.11418 0.18366 0.69413 0.0
C486 C 0.09218 0.1108 0.70337 0.0
C487 C 0.54612 0.24992 0.65006 0.0
C488 C 0.59746 0.21309 0.81597 0.0
C489 C 0.6624 0.24756 0.87044 0.0
C490 C 0.6917 0.2014 0.86345 0.0
C491 C 0.6256 0.1659 0.80929 0.0
C492 C 0.61576 0.25306 0.84645 0.0
C493 C 0.67285 0.16039 0.83302 0.0
C494 C 0.48472 0.35264 0.68784 0.0
C495 C 0.54834 0.2231 0.79264 0.0
H496 H 0.07498 0.9741 0.52789 0.0
H497 H 0.18651 0.11397 0.61258 0.0
H498 H 0.07337 0.03956 0.57935 0.0
H499 H 0.3073 0.04995 0.5447 0.0
H500 H 0.72839 0.19667 0.88152 0.0
H501 H 0.61136 0.13367 0.786 0.0
H502 H 0.59442 0.29009 0.85119 0.0
H503 H 0.69495 0.12434 0.82783 0.0
C504 C 0.27299 0.78327 0.26845 0.0
C505 C 0.26458 0.72739 0.29088 0.0
H506 H 0.29212 0.82412 0.21715 0.0
C507 C 0.27 0.66776 0.27811 0.0
H508 H 0.27363 0.83177 0.27773 0.0
C509 C 0.28512 0.66511 0.24347 0.0
C510 C 0.2942 0.72176 0.22096 0.0
H511 H 0.26526 0.62459 0.29511 0.0
H512 H 0.29249 0.62013 0.23471 0.0
C513 C 0.28618 0.77994 0.23374 0.0
C514 C 0.62252 0.3247 0.60059 0.0
C515 C 0.60117 0.2652 0.62311 0.0
H516 H 0.69128 0.38615 0.55833 0.0
C517 C 0.63299 0.22029 0.61983 0.0
H518 H 0.59934 0.36064 0.60306 0.0
C519 C 0.68435 0.23364 0.59385 0.0
C520 C 0.70565 0.29292 0.57093 0.0
H521 H 0.61667 0.17359 0.63679 0.0
H522 H 0.70569 0.19621 0.59122 0.0
C523 C 0.67494 0.33898 0.57497 0.0
C524 C 0.36388 0.64759 0.94459 0.0
C525 C 0.2913 0.59164 0.95169 0.0
H526 H 0.43407 0.74117 0.9134 0.0
C527 C 0.23207 0.59083 0.93426 0.0
H528 H 0.41038 0.64948 0.95778 0.0
C529 C 0.24549 0.64321 0.9089 0.0
C530 C 0.31839 0.69672 0.90049 0.0
H531 H 0.17543 0.54877 0.93973 0.0
H532 H 0.19929 0.63901 0.89448 0.0
C533 C 0.37729 0.70009 0.91938 0.0
C534 C 0.63827 0.25833 0.27581 0.0
C535 C 0.71126 0.30782 0.28568 0.0
H536 H 0.54818 0.23962 0.24312 0.0
C537 C 0.74931 0.37858 0.27121 0.0
H538 H 0.60799 0.20373 0.28713 0.0
C539 C 0.71553 0.39886 0.24612 0.0
C540 C 0.64304 0.34884 0.23559 0.0
H541 H 0.80567 0.41738 0.27871 0.0
H542 H 0.74638 0.45308 0.23446 0.0
C543 C 0.60397 0.27904 0.2511 0.0
C544 C 0.35879 0.70743 0.61719 0.0
C545 C 0.41434 0.68994 0.62328 0.0
H546 H 0.26767 0.6895 0.58566 0.0
C547 C 0.41691 0.63533 0.6034 0.0
H548 H 0.35629 0.74996 0.63187 0.0
C549 C 0.3666 0.601 0.57681 0.0
C550 C 0.31342 0.62131 0.56956 0.0
H551 H 0.45897 0.62045 0.60787 0.0
H552 H 0.37188 0.56158 0.56081 0.0
C553 C 0.30855 0.67323 0.59062 0.0
C554 C 0.64542 0.35442 0.94403 0.0
C555 C 0.71978 0.40216 0.95213 0.0
H556 H 0.56864 0.26502 0.91289 0.0
C557 C 0.77507 0.3938 0.93563 0.0
H558 H 0.60201 0.36069 0.95599 0.0
C559 C 0.75627 0.33968 0.91057 0.0
C560 C 0.68189 0.29369 0.90155 0.0
H561 H 0.83282 0.42996 0.94163 0.0
H562 H 0.8 0.33644 0.89704 0.0
C563 C 0.62653 0.30009 0.91926 0.0
C564 C 0.47271 0.48865 0.99329 0.0
C565 C 0.43233 0.46469 0.02417 0.0
H566 H 0.57957 0.53591 0.96896 0.0
C567 C 0.47011 0.46836 0.0544 0.0
H568 H 0.44508 0.48647 0.96951 0.0
C569 C 0.54708 0.50227 0.05459 0.0
C570 C 0.58816 0.52609 0.02394 0.0
H571 H 0.4405 0.44949 0.07855 0.0
H572 H 0.57396 0.51028 0.07902 0.0
C573 C 0.5499 0.51831 0.99312 0.0
C574 C 0.03801 0.54404 0.33158 0.0
C575 C 0.06127 0.58224 0.36282 0.0
H576 H 0.97306 0.43937 0.3068 0.0
C577 C 0.03776 0.54188 0.39364 0.0
H578 H 0.05584 0.57355 0.30741 0.0
C579 C 0.99231 0.46525 0.39329 0.0
C580 C 0.96758 0.42708 0.36213 0.0
H581 H 0.05429 0.56939 0.41817 0.0
H582 H 0.97513 0.43605 0.41754 0.0
C583 C 0.99175 0.46711 0.33122 0.0
C584 C 0.48534 0.02389 0.66435 0.0
C585 C 0.46277 0.04231 0.69505 0.0
H586 H 0.53242 0.96426 0.6406 0.0
C587 C 0.47107 0.01298 0.72604 0.0
H588 H 0.48029 0.04603 0.64004 0.0
C589 C 0.50352 0.96853 0.72649 0.0
C590 C 0.5257 0.94955 0.6958 0.0
H591 H 0.45434 0.02602 0.75014 0.0
H592 H 0.50975 0.94779 0.75094 0.0
C593 C 0.51644 0.97803 0.66472 0.0
C594 C 0.53121 0.54226 0.71753 0.0
C595 C 0.5411 0.58128 0.68688 0.0
H596 H 0.49585 0.43901 0.74158 0.0
C597 C 0.53473 0.54506 0.65559 0.0
H598 H 0.53902 0.56891 0.74215 0.0
C599 C 0.51652 0.47044 0.65536 0.0
C600 C 0.50277 0.43089 0.68637 0.0
H601 H 0.54245 0.57376 0.63148 0.0
H602 H 0.51275 0.44374 0.63107 0.0
C603 C 0.50876 0.46773 0.71724 0.0
C604 C 0.03168 0.48018 0.99026 0.0
C605 C 0.06518 0.47894 0.02127 0.0
H606 H 0.9517 0.50056 0.96577 0.0
C607 C 0.04277 0.49797 0.05178 0.0
H608 H 0.04846 0.4668 0.96627 0.0
C609 C 0.9884 0.51782 0.05138 0.0
C610 C 0.95399 0.51796 0.0206 0.0
H611 H 0.06765 0.4981 0.07613 0.0
H612 H 0.97293 0.5327 0.07536 0.0
C613 C 0.97685 0.50016 0.9899 0.0
C614 C 0.46334 0.98819 0.32593 0.0
C615 C 0.4254 0.96332 0.35736 0.0
H616 H 0.56627 0.06314 0.3008 0.0
C617 C 0.46281 0.99699 0.38775 0.0
H618 H 0.43587 0.96308 0.30208 0.0
C619 C 0.53725 0.05097 0.38719 0.0
C620 C 0.5759 0.0761 0.35605 0.0
H621 H 0.43468 0.98092 0.4123 0.0
H622 H 0.56459 0.07285 0.41144 0.0
C623 C 0.53816 0.04444 0.32527 0.0
C624 C 0.26411 0.1368 0.78098 0.0
C625 C 0.31626 0.20591 0.76762 0.0
H626 H 0.18648 0.07708 0.82084 0.0
C627 C 0.32413 0.2696 0.78358 0.0
H628 H 0.25744 0.08675 0.76946 0.0
C629 C 0.28147 0.26452 0.81247 0.0
C630 C 0.23101 0.19544 0.82711 0.0
H631 H 0.36357 0.32377 0.77364 0.0
H632 H 0.28844 0.31528 0.82311 0.0
C633 C 0.22301 0.1316 0.81057 0.0
C634 C 0.03218 0.2589 0.14322 0.0
C635 C 0.07408 0.27684 0.17353 0.0
H636 H 0.03278 0.27331 0.08853 0.0
C637 C 0.1506 0.32736 0.1713 0.0
H638 H 0.9733 0.2197 0.14396 0.0
C639 C 0.18459 0.35825 0.13975 0.0
C640 C 0.14339 0.33893 0.10923 0.0
H641 H 0.18455 0.3427 0.19411 0.0
H642 H 0.24367 0.39665 0.1393 0.0
C643 C 0.06649 0.28918 0.11141 0.0
C644 C 0.7383 0.07356 0.49613 0.0
C645 C 0.80273 0.07194 0.50498 0.0
H646 H 0.68388 0.10653 0.45963 0.0
C647 C 0.86209 0.10139 0.48121 0.0
H648 H 0.69175 0.05244 0.51372 0.0
C649 C 0.85783 0.13315 0.45011 0.0
C650 C 0.79407 0.13625 0.4417 0.0
H651 H 0.9125 0.10066 0.48677 0.0
H652 H 0.90545 0.1574 0.43322 0.0
C653 C 0.73413 0.10533 0.46508 0.0
C654 C 0.69566 0.74058 0.78159 0.0
C655 C 0.6917 0.80243 0.77051 0.0
H656 H 0.73836 0.69507 0.81789 0.0
C657 C 0.72989 0.86814 0.78913 0.0
H658 H 0.66679 0.68909 0.76762 0.0
C659 C 0.76862 0.87098 0.81905 0.0
C660 C 0.77211 0.80865 0.83078 0.0
H661 H 0.72683 0.91632 0.78153 0.0
H662 H 0.79372 0.92186 0.83345 0.0
C663 C 0.73599 0.74384 0.81092 0.0
C664 C 0.95565 0.68481 0.15931 0.0
C665 C 0.9653 0.7553 0.16538 0.0
H666 H 0.91354 0.59089 0.12638 0.0
C667 C 0.94055 0.78583 0.13977 0.0
H668 H 0.97279 0.65852 0.17818 0.0
C669 C 0.90477 0.74601 0.10998 0.0
C670 C 0.89334 0.67474 0.10451 0.0
H671 H 0.94786 0.84046 0.14287 0.0
H672 H 0.8842 0.7703 0.09181 0.0
C673 C 0.92054 0.64544 0.12947 0.0
C674 C 0.12749 0.89983 0.48921 0.0
C675 C 0.1919 0.96429 0.50033 0.0
H676 H 0.07883 0.81149 0.45248 0.0
C677 C 0.25715 0.98915 0.48075 0.0
H678 H 0.07613 0.87747 0.50349 0.0
C679 C 0.25882 0.94944 0.45224 0.0
C680 C 0.1949 0.88487 0.44176 0.0
H681 H 0.30741 0.0395 0.48724 0.0
H682 H 0.31041 0.96947 0.43826 0.0
C683 C 0.12878 0.86134 0.45999 0.0
loop_
_geom_bond_atom_site_label_1
_geom_bond_atom_site_label_2
_geom_bond_distance
_geom_bond_site_symmetry_2
_ccdc_geom_bond_type
Tb0 N29 2.617 1_556 S
Tb0 N35 2.572 1_556 S
Tb0 O44 2.465 . S
Tb0 O45 2.387 1_556 S
Tb0 O47 2.428 . S
Tb0 O48 2.308 1_556 S
Tb0 O52 2.349 . S
Tb0 O55 2.393 . S
Tb0 C64 2.802 . S
C1 N2 1.379 . S
C1 C4 1.416 . S
C1 C8 1.424 . S
N2 C1 1.379 . S
N2 C5 1.334 . S
N2 Tb11 2.617 . S
C3 C5 1.390 . S
C3 C6 1.339 . S
C3 H23 0.930 . S
C4 C1 1.416 . S
C4 C6 1.416 . S
C4 C10 1.448 . S
C5 N2 1.334 . S
C5 C3 1.390 . S
C5 H16 0.930 . S
C6 C3 1.339 . S
C6 C4 1.416 . S
C6 H27 0.930 . S
C7 C8 1.413 . S
C7 C9 1.427 . S
C7 C13 1.413 1_554 S
C8 C1 1.424 . S
C8 C7 1.413 . S
C8 N12 1.361 . S
C9 C7 1.427 . S
C9 C10 1.328 . S
C9 H24 0.929 1_554 S
C10 C4 1.448 . S
C10 C9 1.328 . S
C10 H25 0.930 . S
Tb11 N2 2.617 . S
Tb11 N12 2.572 . S
Tb11 O46 2.349 . S
Tb11 O49 2.393 . S
Tb11 O50 2.465 . S
Tb11 O51 2.387 1_554 S
Tb11 O53 2.428 . S
Tb11 O54 2.308 . S
Tb11 C75 2.802 . S
N12 C8 1.361 . S
N12 Tb11 2.572 . S
N12 C14 1.340 . S
C13 C7 1.413 1_556 S
C13 C15 1.330 1_556 S
C13 H21 0.937 . S
C14 N12 1.340 . S
C14 C15 1.407 . S
C14 H20 0.930 . S
C15 C13 1.330 1_554 S
C15 C14 1.407 . S
C15 H17 0.930 1_554 S
H16 C5 0.930 . S
H17 C15 0.930 1_556 S
H18 C33 0.930 . S
H19 C40 0.929 . S
H20 C14 0.930 . S
H21 C13 0.937 . S
H22 C36 0.930 . S
H23 C3 0.930 . S
H24 C9 0.929 1_556 S
H25 C10 0.930 . S
H26 C31 0.930 . S
H27 C6 0.930 . S
H28 C39 0.931 . S
N29 Tb0 2.617 1_554 S
N29 C30 1.386 . S
N29 C33 1.330 1_454 S
C30 N29 1.386 . S
C30 C32 1.416 1_455 S
C30 C38 1.424 . S
C31 H26 0.930 . S
C31 C33 1.390 . S
C31 C34 1.339 1_556 S
C32 C30 1.416 1_655 S
C32 C34 1.416 . S
C32 C65 1.448 . S
C33 H18 0.930 . S
C33 N29 1.330 1_656 S
C33 C31 1.390 . S
C34 C31 1.339 1_554 S
C34 C32 1.416 . S
C34 H41 0.930 . S
N35 Tb0 2.572 1_554 S
N35 C36 1.340 . S
N35 C38 1.361 . S
C36 H22 0.930 . S
C36 N35 1.340 . S
C36 C40 1.407 . S
C37 C38 1.413 . S
C37 C39 1.416 . S
C37 C66 1.427 1_455 S
C38 C30 1.424 . S
C38 N35 1.361 . S
C38 C37 1.413 . S
C39 H28 0.931 . S
C39 C37 1.416 . S
C39 C40 1.332 . S
C40 H19 0.929 . S
C40 C36 1.407 . S
C40 C39 1.332 . S
H41 C34 0.930 . S
H42 C65 0.930 1_565 S
H43 C66 0.929 1_565 S
O44 Tb0 2.465 . S
O44 C64 1.264 . S
O45 Tb0 2.387 1_554 S
O45 C56 1.264 . S
O46 Tb11 2.349 . S
O46 C56 1.243 . S
O47 Tb0 2.428 . S
O47 C64 1.256 . S
O48 Tb0 2.308 1_554 S
O48 C63 1.266 . S
O49 Tb11 2.393 . S
O49 C63 1.248 . S
O50 Tb11 2.465 . S
O50 C75 1.264 . S
O51 Tb11 2.387 1_556 S
O51 C67 1.264 . S
O52 Tb0 2.349 . S
O52 C67 1.243 . S
O53 Tb11 2.428 . S
O53 C75 1.256 . S
O54 Tb11 2.308 . S
O54 C74 1.266 . S
O55 Tb0 2.393 . S
O55 C74 1.248 1_556 S
C56 O45 1.264 . S
C56 O46 1.243 . S
C57 C60 1.399 . S
C57 C62 1.383 . S
C57 C64 1.496 . S
C58 C59 1.399 . S
C58 C62 1.389 . S
C59 C58 1.399 . S
C59 C61 1.380 . S
C59 H76 0.929 . S
C60 C57 1.399 . S
C60 C61 1.392 . S
C60 H77 0.929 . S
C61 C59 1.380 . S
C61 C60 1.392 . S
C61 H78 0.929 . S
C62 C57 1.383 . S
C62 C58 1.389 . S
C62 H79 0.931 . S
C63 O48 1.266 . S
C63 O49 1.248 . S
C64 Tb0 2.802 . S
C64 O44 1.264 . S
C64 O47 1.256 . S
C64 C57 1.496 . S
C65 C32 1.448 . S
C65 H42 0.930 1_545 S
C65 C66 1.328 . S
C66 C37 1.427 1_655 S
C66 H43 0.929 1_545 S
C66 C65 1.328 . S
C67 O51 1.264 . S
C67 O52 1.243 . S
C68 C71 1.399 . S
C68 C72 1.383 . S
C68 C75 1.496 . S
C69 C70 1.399 . S
C69 C72 1.389 . S
C70 C69 1.399 . S
C70 C73 1.380 . S
C70 H80 0.929 . S
C71 C68 1.399 . S
C71 C73 1.392 . S
C71 H81 0.929 . S
C72 C68 1.383 . S
C72 C69 1.389 . S
C72 H82 0.931 . S
C73 C70 1.380 . S
C73 C71 1.392 . S
C73 H83 0.929 . S
C74 O54 1.266 . S
C74 O55 1.248 1_554 S
C75 Tb11 2.802 . S
C75 O50 1.264 . S
C75 O53 1.256 . S
C75 C68 1.496 . S
H76 C59 0.929 . S
H77 C60 0.929 . S
H78 C61 0.929 . S
H79 C62 0.931 . S
H80 C70 0.929 . S
H81 C71 0.929 . S
H82 C72 0.931 . S
H83 C73 0.929 . S
Tb84 N113 2.617 . S
Tb84 N119 2.572 . S
Tb84 O128 2.465 . S
Tb84 O129 2.387 . S
Tb84 O131 2.428 . S
Tb84 O132 2.308 . S
Tb84 O136 2.349 . S
Tb84 O139 2.393 . S
Tb84 C148 2.802 . S
C85 N86 1.379 . S
C85 C88 1.416 . S
C85 C92 1.424 . S
N86 C85 1.379 . S
N86 C89 1.334 . S
N86 Tb95 2.617 . S
C87 C89 1.390 . S
C87 C90 1.339 . S
C87 H107 0.930 . S
C88 C85 1.416 . S
C88 C90 1.416 . S
C88 C94 1.448 . S
C89 N86 1.334 . S
C89 C87 1.390 . S
C89 H100 0.930 . S
C90 C87 1.339 . S
C90 C88 1.416 . S
C90 H111 0.930 . S
C91 C92 1.413 . S
C91 C93 1.427 . S
C91 C97 1.416 . S
C92 C85 1.424 . S
C92 C91 1.413 . S
C92 N96 1.361 . S
C93 C91 1.427 . S
C93 C94 1.328 . S
C93 H108 0.929 . S
C94 C88 1.448 . S
C94 C93 1.328 . S
C94 H109 0.930 . S
Tb95 N86 2.617 . S
Tb95 N96 2.572 . S
Tb95 O130 2.349 . S
Tb95 O133 2.393 . S
Tb95 O134 2.465 . S
Tb95 O135 2.387 . S
Tb95 O137 2.428 . S
Tb95 O138 2.308 . S
Tb95 C159 2.802 . S
N96 C92 1.361 . S
N96 Tb95 2.572 . S
N96 C98 1.340 . S
C97 C91 1.416 . S
C97 C99 1.332 . S
C97 H105 0.931 . S
C98 N96 1.340 . S
C98 C99 1.407 . S
C98 H104 0.930 . S
C99 C97 1.332 . S
C99 C98 1.407 . S
C99 H101 0.929 . S
H100 C89 0.930 . S
H101 C99 0.929 . S
H102 C117 0.930 . S
H103 C124 0.929 . S
H104 C98 0.930 . S
H105 C97 0.931 . S
H106 C120 0.930 . S
H107 C87 0.930 . S
H108 C93 0.929 . S
H109 C94 0.930 . S
H110 C115 0.930 . S
H111 C90 0.930 . S
H112 C123 0.931 . S
N113 Tb84 2.617 . S
N113 C114 1.379 . S
N113 C117 1.334 1_545 S
C114 N113 1.379 . S
C114 C116 1.416 1_545 S
C114 C122 1.424 . S
C115 H110 0.930 . S
C115 C117 1.390 . S
C115 C118 1.339 . S
C116 C114 1.416 1_565 S
C116 C118 1.416 . S
C116 C149 1.448 . S
C117 H102 0.930 . S
C117 N113 1.334 1_565 S
C117 C115 1.390 . S
C118 C115 1.339 . S
C118 C116 1.416 . S
C118 H125 0.930 . S
N119 Tb84 2.572 . S
N119 C120 1.340 1_655 S
N119 C122 1.361 . S
C120 H106 0.930 . S
C120 N119 1.340 1_455 S
C120 C124 1.407 . S
C121 C122 1.413 . S
C121 C123 1.416 1_655 S
C121 C150 1.427 1_545 S
C122 C114 1.424 . S
C122 N119 1.361 . S
C122 C121 1.413 . S
C123 H112 0.931 . S
C123 C121 1.416 1_455 S
C123 C124 1.332 . S
C124 H103 0.929 . S
C124 C120 1.407 . S
C124 C123 1.332 . S
H125 C118 0.930 . S
H126 C149 0.930 . S
H127 C150 0.929 . S
O128 Tb84 2.465 . S
O128 C148 1.264 . S
O129 Tb84 2.387 . S
O129 C140 1.264 . S
O130 Tb95 2.349 . S
O130 C140 1.243 . S
O131 Tb84 2.428 . S
O131 C148 1.256 . S
O132 Tb84 2.308 . S
O132 C147 1.266 . S
O133 Tb95 2.393 . S
O133 C147 1.248 . S
O134 Tb95 2.465 . S
O134 C159 1.264 . S
O135 Tb95 2.387 . S
O135 C151 1.264 . S
O136 Tb84 2.349 . S
O136 C151 1.243 . S
O137 Tb95 2.428 . S
O137 C159 1.256 . S
O138 Tb95 2.308 . S
O138 C158 1.266 . S
O139 Tb84 2.393 . S
O139 C158 1.248 . S
C140 O129 1.264 . S
C140 O130 1.243 . S
C141 C144 1.399 . S
C141 C146 1.383 1_655 S
C141 C148 1.496 . S
C142 C143 1.399 . S
C142 C146 1.389 . S
C143 C142 1.399 . S
C143 C145 1.380 1_455 S
C143 H160 0.929 . S
C144 C141 1.399 . S
C144 C145 1.392 . S
C144 H161 0.929 . S
C145 C143 1.380 1_655 S
C145 C144 1.392 . S
C145 H162 0.929 . S
C146 C141 1.383 1_455 S
C146 C142 1.389 . S
C146 H163 0.931 . S
C147 O132 1.266 . S
C147 O133 1.248 . S
C148 Tb84 2.802 . S
C148 O128 1.264 . S
C148 O131 1.256 . S
C148 C141 1.496 . S
C149 C116 1.448 . S
C149 H126 0.930 . S
C149 C150 1.328 . S
C150 C121 1.427 1_565 S
C150 H127 0.929 . S
C150 C149 1.328 . S
C151 O135 1.264 . S
C151 O136 1.243 . S
C152 C155 1.399 . S
C152 C156 1.383 . S
C152 C159 1.496 . S
C153 C154 1.399 . S
C153 C156 1.389 . S
C154 C153 1.399 . S
C154 C157 1.380 . S
C154 H164 0.929 . S
C155 C152 1.399 . S
C155 C157 1.392 . S
C155 H165 0.929 . S
C156 C152 1.383 . S
C156 C153 1.389 . S
C156 H166 0.931 . S
C157 C154 1.380 . S
C157 C155 1.392 . S
C157 H167 0.929 . S
C158 O138 1.266 . S
C158 O139 1.248 . S
C159 Tb95 2.802 . S
C159 O134 1.264 . S
C159 O137 1.256 . S
C159 C152 1.496 . S
H160 C143 0.929 . S
H161 C144 0.929 . S
H162 C145 0.929 . S
H163 C146 0.931 . S
H164 C154 0.929 . S
H165 C155 0.929 . S
H166 C156 0.931 . S
H167 C157 0.929 . S
Tb168 N197 2.617 . S
Tb168 N203 2.572 . S
Tb168 O212 2.465 . S
Tb168 O213 2.387 . S
Tb168 O215 2.428 . S
Tb168 O216 2.308 . S
Tb168 O220 2.349 . S
Tb168 O223 2.393 . S
Tb168 C232 2.802 . S
C169 N170 1.379 . S
C169 C172 1.416 . S
C169 C176 1.424 . S
N170 C169 1.379 . S
N170 C173 1.334 . S
N170 Tb179 2.617 . S
C171 C173 1.390 . S
C171 C174 1.339 . S
C171 H191 0.930 . S
C172 C169 1.416 . S
C172 C174 1.416 . S
C172 C178 1.448 . S
C173 N170 1.334 . S
C173 C171 1.390 . S
C173 H184 0.930 . S
C174 C171 1.339 . S
C174 C172 1.416 . S
C174 H195 0.930 . S
C175 C176 1.413 . S
C175 C177 1.427 . S
C175 C181 1.416 . S
C176 C169 1.424 . S
C176 C175 1.413 . S
C176 N180 1.361 . S
C177 C175 1.427 . S
C177 C178 1.328 . S
C177 H192 0.929 . S
C178 C172 1.448 . S
C178 C177 1.328 . S
C178 H193 0.930 . S
Tb179 N170 2.617 . S
Tb179 N180 2.572 . S
Tb179 O214 2.349 . S
Tb179 O217 2.393 . S
Tb179 O218 2.465 . S
Tb179 O219 2.387 . S
Tb179 O221 2.428 . S
Tb179 O222 2.308 . S
Tb179 C243 2.802 . S
N180 C176 1.361 . S
N180 Tb179 2.572 . S
N180 C182 1.340 . S
C181 C175 1.416 . S
C181 C183 1.332 . S
C181 H189 0.931 . S
C182 N180 1.340 . S
C182 C183 1.407 . S
C182 H188 0.930 . S
C183 C181 1.332 . S
C183 C182 1.407 . S
C183 H185 0.929 . S
H184 C173 0.930 . S
H185 C183 0.929 . S
H186 C201 0.930 . S
H187 C208 0.929 . S
H188 C182 0.930 . S
H189 C181 0.931 . S
H190 C204 0.930 . S
H191 C171 0.930 . S
H192 C177 0.929 . S
H193 C178 0.930 . S
H194 C199 0.930 . S
H195 C174 0.930 . S
H196 C207 0.931 . S
N197 Tb168 2.617 . S
N197 C198 1.379 . S
N197 C201 1.334 . S
C198 N197 1.379 . S
C198 C200 1.416 . S
C198 C206 1.424 . S
C199 H194 0.930 . S
C199 C201 1.390 . S
C199 C202 1.339 . S
C200 C198 1.416 . S
C200 C202 1.416 . S
C200 C233 1.448 . S
C201 H186 0.930 . S
C201 N197 1.334 . S
C201 C199 1.390 . S
C202 C199 1.339 . S
C202 C200 1.416 . S
C202 H209 0.930 . S
N203 Tb168 2.572 . S
N203 C204 1.340 1_565 S
N203 C206 1.361 . S
C204 H190 0.930 . S
C204 N203 1.340 1_545 S
C204 C208 1.407 . S
C205 C206 1.413 . S
C205 C207 1.416 1_565 S
C205 C234 1.427 . S
C206 C198 1.424 . S
C206 N203 1.361 . S
C206 C205 1.413 . S
C207 H196 0.931 . S
C207 C205 1.416 1_545 S
C207 C208 1.332 . S
C208 H187 0.929 . S
C208 C204 1.407 . S
C208 C207 1.332 . S
H209 C202 0.930 . S
H210 C233 0.930 1_455 S
H211 C234 0.929 1_455 S
O212 Tb168 2.465 . S
O212 C232 1.264 . S
O213 Tb168 2.387 . S
O213 C224 1.264 . S
O214 Tb179 2.349 . S
O214 C224 1.243 . S
O215 Tb168 2.428 . S
O215 C232 1.256 . S
O216 Tb168 2.308 . S
O216 C231 1.266 . S
O217 Tb179 2.393 . S
O217 C231 1.248 . S
O218 Tb179 2.465 . S
O218 C243 1.264 . S
O219 Tb179 2.387 . S
O219 C235 1.264 . S
O220 Tb168 2.349 . S
O220 C235 1.243 . S
O221 Tb179 2.428 . S
O221 C243 1.256 . S
O222 Tb179 2.308 . S
O222 C242 1.266 . S
O223 Tb168 2.393 . S
O223 C242 1.248 . S
C224 O213 1.264 . S
C224 O214 1.243 . S
C225 C228 1.399 . S
C225 C230 1.383 1_565 S
C225 C232 1.496 . S
C226 C227 1.399 . S
C226 C230 1.389 . S
C227 C226 1.399 . S
C227 C229 1.380 1_545 S
C227 H244 0.929 . S
C228 C225 1.399 . S
C228 C229 1.392 . S
C228 H245 0.929 . S
C229 C227 1.380 1_565 S
C229 C228 1.392 . S
C229 H246 0.929 . S
C230 C225 1.383 1_545 S
C230 C226 1.389 . S
C230 H247 0.931 . S
C231 O216 1.266 . S
C231 O217 1.248 . S
C232 Tb168 2.802 . S
C232 O212 1.264 . S
C232 O215 1.256 . S
C232 C225 1.496 . S
C233 C200 1.448 . S
C233 H210 0.930 1_655 S
C233 C234 1.328 . S
C234 C205 1.427 . S
C234 H211 0.929 1_655 S
C234 C233 1.328 . S
C235 O219 1.264 . S
C235 O220 1.243 . S
C236 C239 1.399 . S
C236 C240 1.383 . S
C236 C243 1.496 . S
C237 C238 1.399 . S
C237 C240 1.389 . S
C238 C237 1.399 . S
C238 C241 1.380 . S
C238 H248 0.929 . S
C239 C236 1.399 . S
C239 C241 1.392 . S
C239 H249 0.929 . S
C240 C236 1.383 . S
C240 C237 1.389 . S
C240 H250 0.931 . S
C241 C238 1.380 . S
C241 C239 1.392 . S
C241 H251 0.929 . S
C242 O222 1.266 . S
C242 O223 1.248 . S
C243 Tb179 2.802 . S
C243 O218 1.264 . S
C243 O221 1.256 . S
C243 C236 1.496 . S
H244 C227 0.929 . S
H245 C228 0.929 . S
H246 C229 0.929 . S
H247 C230 0.931 . S
H248 C238 0.929 . S
H249 C239 0.929 . S
H250 C240 0.931 . S
H251 C241 0.929 . S
Tb252 N281 2.617 1_556 S
Tb252 N287 2.572 1_556 S
Tb252 O296 2.465 . S
Tb252 O297 2.387 1_556 S
Tb252 O299 2.428 . S
Tb252 O300 2.308 1_556 S
Tb252 O304 2.349 . S
Tb252 O307 2.393 . S
Tb252 C316 2.802 . S
C253 N254 1.379 . S
C253 C256 1.416 . S
C253 C260 1.424 . S
N254 C253 1.379 . S
N254 C257 1.334 . S
N254 Tb263 2.617 . S
C255 C257 1.390 . S
C255 C258 1.339 . S
C255 H275 0.930 . S
C256 C253 1.416 . S
C256 C258 1.416 . S
C256 C262 1.448 . S
C257 N254 1.334 . S
C257 C255 1.390 . S
C257 H268 0.930 . S
C258 C255 1.339 . S
C258 C256 1.416 . S
C258 H279 0.930 . S
C259 C260 1.413 . S
C259 C261 1.427 . S
C259 C265 1.413 1_554 S
C260 C253 1.424 . S
C260 C259 1.413 . S
C260 N264 1.361 . S
C261 C259 1.427 . S
C261 C262 1.328 . S
C261 H276 0.929 1_554 S
C262 C256 1.448 . S
C262 C261 1.328 . S
C262 H277 0.930 . S
Tb263 N254 2.617 . S
Tb263 N264 2.572 . S
Tb263 O298 2.349 . S
Tb263 O301 2.393 . S
Tb263 O302 2.465 . S
Tb263 O303 2.387 1_554 S
Tb263 O305 2.428 . S
Tb263 O306 2.308 . S
Tb263 C327 2.802 . S
N264 C260 1.361 . S
N264 Tb263 2.572 . S
N264 C266 1.340 . S
C265 C259 1.413 1_556 S
C265 C267 1.330 1_556 S
C265 H273 0.937 . S
C266 N264 1.340 . S
C266 C267 1.407 . S
C266 H272 0.930 . S
C267 C265 1.330 1_554 S
C267 C266 1.407 . S
C267 H269 0.930 1_554 S
H268 C257 0.930 . S
H269 C267 0.930 1_556 S
H270 C285 0.930 . S
H271 C292 0.929 . S
H272 C266 0.930 . S
H273 C265 0.937 . S
H274 C288 0.930 . S
H275 C255 0.930 . S
H276 C261 0.929 1_556 S
H277 C262 0.930 . S
H278 C283 0.930 . S
H279 C258 0.930 . S
H280 C291 0.931 . S
N281 Tb252 2.617 1_554 S
N281 C282 1.386 . S
N281 C285 1.330 1_654 S
C282 N281 1.386 . S
C282 C284 1.416 1_655 S
C282 C290 1.424 . S
C283 H278 0.930 . S
C283 C285 1.390 . S
C283 C286 1.339 1_556 S
C284 C282 1.416 1_455 S
C284 C286 1.416 . S
C284 C317 1.448 . S
C285 H270 0.930 . S
C285 N281 1.330 1_456 S
C285 C283 1.390 . S
C286 C283 1.339 1_554 S
C286 C284 1.416 . S
C286 H293 0.930 . S
N287 Tb252 2.572 1_554 S
N287 C288 1.340 . S
N287 C290 1.361 . S
C288 H274 0.930 . S
C288 N287 1.340 . S
C288 C292 1.407 . S
C289 C290 1.413 . S
C289 C291 1.416 . S
C289 C318 1.427 1_655 S
C290 C282 1.424 . S
C290 N287 1.361 . S
C290 C289 1.413 . S
C291 H280 0.931 . S
C291 C289 1.416 . S
C291 C292 1.332 . S
C292 H271 0.929 . S
C292 C288 1.407 . S
C292 C291 1.332 . S
H293 C286 0.930 . S
H294 C317 0.930 1_545 S
H295 C318 0.929 1_545 S
O296 Tb252 2.465 . S
O296 C316 1.264 . S
O297 Tb252 2.387 1_554 S
O297 C308 1.264 . S
O298 Tb263 2.349 . S
O298 C308 1.243 . S
O299 Tb252 2.428 . S
O299 C316 1.256 . S
O300 Tb252 2.308 1_554 S
O300 C315 1.266 . S
O301 Tb263 2.393 . S
O301 C315 1.248 . S
O302 Tb263 2.465 . S
O302 C327 1.264 . S
O303 Tb263 2.387 1_556 S
O303 C319 1.264 . S
O304 Tb252 2.349 . S
O304 C319 1.243 . S
O305 Tb263 2.428 . S
O305 C327 1.256 . S
O306 Tb263 2.308 . S
O306 C326 1.266 . S
O307 Tb252 2.393 . S
O307 C326 1.248 1_556 S
C308 O297 1.264 . S
C308 O298 1.243 . S
C309 C312 1.399 . S
C309 C314 1.383 . S
C309 C316 1.496 . S
C310 C311 1.399 . S
C310 C314 1.389 . S
C311 C310 1.399 . S
C311 C313 1.380 . S
C311 H328 0.929 . S
C312 C309 1.399 . S
C312 C313 1.392 . S
C312 H329 0.929 . S
C313 C311 1.380 . S
C313 C312 1.392 . S
C313 H330 0.929 . S
C314 C309 1.383 . S
C314 C310 1.389 . S
C314 H331 0.931 . S
C315 O300 1.266 . S
C315 O301 1.248 . S
C316 Tb252 2.802 . S
C316 O296 1.264 . S
C316 O299 1.256 . S
C316 C309 1.496 . S
C317 C284 1.448 . S
C317 H294 0.930 1_565 S
C317 C318 1.328 . S
C318 C289 1.427 1_455 S
C318 H295 0.929 1_565 S
C318 C317 1.328 . S
C319 O303 1.264 . S
C319 O304 1.243 . S
C320 C323 1.399 . S
C320 C324 1.383 . S
C320 C327 1.496 . S
C321 C322 1.399 . S
C321 C324 1.389 . S
C322 C321 1.399 . S
C322 C325 1.380 . S
C322 H332 0.929 . S
C323 C320 1.399 . S
C323 C325 1.392 . S
C323 H333 0.929 . S
C324 C320 1.383 . S
C324 C321 1.389 . S
C324 H334 0.931 . S
C325 C322 1.380 . S
C325 C323 1.392 . S
C325 H335 0.929 . S
C326 O306 1.266 . S
C326 O307 1.248 1_554 S
C327 Tb263 2.802 . S
C327 O302 1.264 . S
C327 O305 1.256 . S
C327 C320 1.496 . S
H328 C311 0.929 . S
H329 C312 0.929 . S
H330 C313 0.929 . S
H331 C314 0.931 . S
H332 C322 0.929 . S
H333 C323 0.929 . S
H334 C324 0.931 . S
H335 C325 0.929 . S
Tb336 N365 2.617 . S
Tb336 N371 2.572 . S
Tb336 O380 2.465 . S
Tb336 O381 2.387 . S
Tb336 O383 2.428 . S
Tb336 O384 2.308 . S
Tb336 O388 2.349 . S
Tb336 O391 2.393 . S
Tb336 C400 2.802 . S
C337 N338 1.379 . S
C337 C340 1.416 . S
C337 C344 1.424 . S
N338 C337 1.379 . S
N338 C341 1.334 . S
N338 Tb347 2.617 . S
C339 C341 1.390 . S
C339 C342 1.339 . S
C339 H359 0.930 . S
C340 C337 1.416 . S
C340 C342 1.416 . S
C340 C346 1.448 . S
C341 N338 1.334 . S
C341 C339 1.390 . S
C341 H352 0.930 . S
C342 C339 1.339 . S
C342 C340 1.416 . S
C342 H363 0.930 . S
C343 C344 1.413 . S
C343 C345 1.427 . S
C343 C349 1.416 . S
C344 C337 1.424 . S
C344 C343 1.413 . S
C344 N348 1.361 . S
C345 C343 1.427 . S
C345 C346 1.328 . S
C345 H360 0.929 . S
C346 C340 1.448 . S
C346 C345 1.328 . S
C346 H361 0.930 . S
Tb347 N338 2.617 . S
Tb347 N348 2.572 . S
Tb347 O382 2.349 . S
Tb347 O385 2.393 . S
Tb347 O386 2.465 . S
Tb347 O387 2.387 . S
Tb347 O389 2.428 . S
Tb347 O390 2.308 . S
Tb347 C411 2.802 . S
N348 C344 1.361 . S
N348 Tb347 2.572 . S
N348 C350 1.340 . S
C349 C343 1.416 . S
C349 C351 1.332 . S
C349 H357 0.931 . S
C350 N348 1.340 . S
C350 C351 1.407 . S
C350 H356 0.930 . S
C351 C349 1.332 . S
C351 C350 1.407 . S
C351 H353 0.929 . S
H352 C341 0.930 . S
H353 C351 0.929 . S
H354 C369 0.930 . S
H355 C376 0.929 . S
H356 C350 0.930 . S
H357 C349 0.931 . S
H358 C372 0.930 . S
H359 C339 0.930 . S
H360 C345 0.929 . S
H361 C346 0.930 . S
H362 C367 0.930 . S
H363 C342 0.930 . S
H364 C375 0.931 . S
N365 Tb336 2.617 . S
N365 C366 1.379 . S
N365 C369 1.334 1_565 S
C366 N365 1.379 . S
C366 C368 1.416 1_565 S
C366 C374 1.424 . S
C367 H362 0.930 . S
C367 C369 1.390 . S
C367 C370 1.339 . S
C368 C366 1.416 1_545 S
C368 C370 1.416 . S
C368 C401 1.448 . S
C369 H354 0.930 . S
C369 N365 1.334 1_545 S
C369 C367 1.390 . S
C370 C367 1.339 . S
C370 C368 1.416 . S
C370 H377 0.930 . S
N371 Tb336 2.572 . S
N371 C372 1.340 1_455 S
N371 C374 1.361 . S
C372 H358 0.930 . S
C372 N371 1.340 1_655 S
C372 C376 1.407 . S
C373 C374 1.413 . S
C373 C375 1.416 1_455 S
C373 C402 1.427 1_565 S
C374 C366 1.424 . S
C374 N371 1.361 . S
C374 C373 1.413 . S
C375 H364 0.931 . S
C375 C373 1.416 1_655 S
C375 C376 1.332 . S
C376 H355 0.929 . S
C376 C372 1.407 . S
C376 C375 1.332 . S
H377 C370 0.930 . S
H378 C401 0.930 . S
H379 C402 0.929 . S
O380 Tb336 2.465 . S
O380 C400 1.264 . S
O381 Tb336 2.387 . S
O381 C392 1.264 . S
O382 Tb347 2.349 . S
O382 C392 1.243 . S
O383 Tb336 2.428 . S
O383 C400 1.256 . S
O384 Tb336 2.308 . S
O384 C399 1.266 . S
O385 Tb347 2.393 . S
O385 C399 1.248 . S
O386 Tb347 2.465 . S
O386 C411 1.264 . S
O387 Tb347 2.387 . S
O387 C403 1.264 . S
O388 Tb336 2.349 . S
O388 C403 1.243 . S
O389 Tb347 2.428 . S
O389 C411 1.256 . S
O390 Tb347 2.308 . S
O390 C410 1.266 . S
O391 Tb336 2.393 . S
O391 C410 1.248 . S
C392 O381 1.264 . S
C392 O382 1.243 . S
C393 C396 1.399 . S
C393 C398 1.383 1_455 S
C393 C400 1.496 . S
C394 C395 1.399 . S
C394 C398 1.389 . S
C395 C394 1.399 . S
C395 C397 1.380 1_655 S
C395 H412 0.929 . S
C396 C393 1.399 . S
C396 C397 1.392 . S
C396 H413 0.929 . S
C397 C395 1.380 1_455 S
C397 C396 1.392 . S
C397 H414 0.929 . S
C398 C393 1.383 1_655 S
C398 C394 1.389 . S
C398 H415 0.931 . S
C399 O384 1.266 . S
C399 O385 1.248 . S
C400 Tb336 2.802 . S
C400 O380 1.264 . S
C400 O383 1.256 . S
C400 C393 1.496 . S
C401 C368 1.448 . S
C401 H378 0.930 . S
C401 C402 1.328 . S
C402 C373 1.427 1_545 S
C402 H379 0.929 . S
C402 C401 1.328 . S
C403 O387 1.264 . S
C403 O388 1.243 . S
C404 C407 1.399 . S
C404 C408 1.383 . S
C404 C411 1.496 . S
C405 C406 1.399 . S
C405 C408 1.389 . S
C406 C405 1.399 . S
C406 C409 1.380 . S
C406 H416 0.929 . S
C407 C404 1.399 . S
C407 C409 1.392 . S
C407 H417 0.929 . S
C408 C404 1.383 . S
C408 C405 1.389 . S
C408 H418 0.931 . S
C409 C406 1.380 . S
C409 C407 1.392 . S
C409 H419 0.929 . S
C410 O390 1.266 . S
C410 O391 1.248 . S
C411 Tb347 2.802 . S
C411 O386 1.264 . S
C411 O389 1.256 . S
C411 C404 1.496 . S
H412 C395 0.929 . S
H413 C396 0.929 . S
H414 C397 0.929 . S
H415 C398 0.931 . S
H416 C406 0.929 . S
H417 C407 0.929 . S
H418 C408 0.931 . S
H419 C409 0.929 . S
Tb420 N449 2.617 . S
Tb420 N455 2.572 . S
Tb420 O464 2.465 . S
Tb420 O465 2.387 . S
Tb420 O467 2.428 . S
Tb420 O468 2.308 . S
Tb420 O472 2.349 . S
Tb420 O475 2.393 . S
Tb420 C484 2.802 . S
C421 N422 1.379 . S
C421 C424 1.416 . S
C421 C428 1.424 . S
N422 C421 1.379 . S
N422 C425 1.334 . S
N422 Tb431 2.617 . S
C423 C425 1.390 . S
C423 C426 1.339 . S
C423 H443 0.930 . S
C424 C421 1.416 . S
C424 C426 1.416 . S
C424 C430 1.448 . S
C425 N422 1.334 . S
C425 C423 1.390 . S
C425 H436 0.930 . S
C426 C423 1.339 . S
C426 C424 1.416 . S
C426 H447 0.930 . S
C427 C428 1.413 . S
C427 C429 1.427 . S
C427 C433 1.416 . S
C428 C421 1.424 . S
C428 C427 1.413 . S
C428 N432 1.361 . S
C429 C427 1.427 . S
C429 C430 1.328 . S
C429 H444 0.929 . S
C430 C424 1.448 . S
C430 C429 1.328 . S
C430 H445 0.930 . S
Tb431 N422 2.617 . S
Tb431 N432 2.572 . S
Tb431 O466 2.349 . S
Tb431 O469 2.393 . S
Tb431 O470 2.465 . S
Tb431 O471 2.387 . S
Tb431 O473 2.428 . S
Tb431 O474 2.308 . S
Tb431 C495 2.802 . S
N432 C428 1.361 . S
N432 Tb431 2.572 . S
N432 C434 1.340 . S
C433 C427 1.416 . S
C433 C435 1.332 . S
C433 H441 0.931 . S
C434 N432 1.340 . S
C434 C435 1.407 . S
C434 H440 0.930 . S
C435 C433 1.332 . S
C435 C434 1.407 . S
C435 H437 0.929 . S
H436 C425 0.930 . S
H437 C435 0.929 . S
H438 C453 0.930 . S
H439 C460 0.929 . S
H440 C434 0.930 . S
H441 C433 0.931 . S
H442 C456 0.930 . S
H443 C423 0.930 . S
H444 C429 0.929 . S
H445 C430 0.930 . S
H446 C451 0.930 . S
H447 C426 0.930 . S
H448 C459 0.931 . S
N449 Tb420 2.617 . S
N449 C450 1.379 . S
N449 C453 1.334 . S
C450 N449 1.379 . S
C450 C452 1.416 . S
C450 C458 1.424 . S
C451 H446 0.930 . S
C451 C453 1.390 . S
C451 C454 1.339 . S
C452 C450 1.416 . S
C452 C454 1.416 . S
C452 C485 1.448 . S
C453 H438 0.930 . S
C453 N449 1.334 . S
C453 C451 1.390 . S
C454 C451 1.339 . S
C454 C452 1.416 . S
C454 H461 0.930 . S
N455 Tb420 2.572 . S
N455 C456 1.340 1_545 S
N455 C458 1.361 . S
C456 H442 0.930 . S
C456 N455 1.340 1_565 S
C456 C460 1.407 . S
C457 C458 1.413 . S
C457 C459 1.416 1_545 S
C457 C486 1.427 . S
C458 C450 1.424 . S
C458 N455 1.361 . S
C458 C457 1.413 . S
C459 H448 0.931 . S
C459 C457 1.416 1_565 S
C459 C460 1.332 . S
C460 H439 0.929 . S
C460 C456 1.407 . S
C460 C459 1.332 . S
H461 C454 0.930 . S
H462 C485 0.930 1_655 S
H463 C486 0.929 1_655 S
O464 Tb420 2.465 . S
O464 C484 1.264 . S
O465 Tb420 2.387 . S
O465 C476 1.264 . S
O466 Tb431 2.349 . S
O466 C476 1.243 . S
O467 Tb420 2.428 . S
O467 C484 1.256 . S
O468 Tb420 2.308 . S
O468 C483 1.266 . S
O469 Tb431 2.393 . S
O469 C483 1.248 . S
O470 Tb431 2.465 . S
O470 C495 1.264 . S
O471 Tb431 2.387 . S
O471 C487 1.264 . S
O472 Tb420 2.349 . S
O472 C487 1.243 . S
O473 Tb431 2.428 . S
O473 C495 1.256 . S
O474 Tb431 2.308 . S
O474 C494 1.266 . S
O475 Tb420 2.393 . S
O475 C494 1.248 . S
C476 O465 1.264 . S
C476 O466 1.243 . S
C477 C480 1.399 . S
C477 C482 1.383 1_545 S
C477 C484 1.496 . S
C478 C479 1.399 . S
C478 C482 1.389 . S
C479 C478 1.399 . S
C479 C481 1.380 1_565 S
C479 H496 0.929 . S
C480 C477 1.399 . S
C480 C481 1.392 . S
C480 H497 0.929 . S
C481 C479 1.380 1_545 S
C481 C480 1.392 . S
C481 H498 0.929 . S
C482 C477 1.383 1_565 S
C482 C478 1.389 . S
C482 H499 0.931 . S
C483 O468 1.266 . S
C483 O469 1.248 . S
C484 Tb420 2.802 . S
C484 O464 1.264 . S
C484 O467 1.256 . S
C484 C477 1.496 . S
C485 C452 1.448 . S
C485 H462 0.930 1_455 S
C485 C486 1.328 . S
C486 C457 1.427 . S
C486 H463 0.929 1_455 S
C486 C485 1.328 . S
C487 O471 1.264 . S
C487 O472 1.243 . S
C488 C491 1.399 . S
C488 C492 1.383 . S
C488 C495 1.496 . S
C489 C490 1.399 . S
C489 C492 1.389 . S
C490 C489 1.399 . S
C490 C493 1.380 . S
C490 H500 0.929 . S
C491 C488 1.399 . S
C491 C493 1.392 . S
C491 H501 0.929 . S
C492 C488 1.383 . S
C492 C489 1.389 . S
C492 H502 0.931 . S
C493 C490 1.380 . S
C493 C491 1.392 . S
C493 H503 0.929 . S
C494 O474 1.266 . S
C494 O475 1.248 . S
C495 Tb431 2.802 . S
C495 O470 1.264 . S
C495 O473 1.256 . S
C495 C488 1.496 . S
H496 C479 0.929 . S
H497 C480 0.929 . S
H498 C481 0.929 . S
H499 C482 0.931 . S
H500 C490 0.929 . S
H501 C491 0.929 . S
H502 C492 0.931 . S
H503 C493 0.929 . S
C504 C505 1.387 . S
C504 H508 0.950 . S
C504 C513 1.390 . S
C505 C504 1.387 . S
C505 C507 1.387 . S
H506 C513 0.950 . S
C507 C505 1.387 . S
C507 C509 1.390 . S
C507 H511 0.950 . S
H508 C504 0.950 . S
C509 C507 1.390 . S
C509 C510 1.387 . S
C509 H512 0.950 . S
C510 C509 1.387 . S
C510 C513 1.387 . S
H511 C507 0.950 . S
H512 C509 0.950 . S
C513 C504 1.390 . S
C513 H506 0.950 . S
C513 C510 1.387 . S
C514 C515 1.387 . S
C514 H518 0.950 . S
C514 C523 1.390 . S
C515 C514 1.387 . S
C515 C517 1.387 . S
H516 C523 0.950 . S
C517 C515 1.387 . S
C517 C519 1.390 . S
C517 H521 0.950 . S
H518 C514 0.950 . S
C519 C517 1.390 . S
C519 C520 1.387 . S
C519 H522 0.950 . S
C520 C519 1.387 . S
C520 C523 1.387 . S
H521 C517 0.950 . S
H522 C519 0.950 . S
C523 C514 1.390 . S
C523 H516 0.950 . S
C523 C520 1.387 . S
C524 C525 1.387 . S
C524 H528 0.950 . S
C524 C533 1.390 . S
C525 C524 1.387 . S
C525 C527 1.387 . S
H526 C533 0.950 . S
C527 C525 1.387 . S
C527 C529 1.390 . S
C527 H531 0.950 . S
H528 C524 0.950 . S
C529 C527 1.390 . S
C529 C530 1.387 . S
C529 H532 0.950 . S
C530 C529 1.387 . S
C530 C533 1.387 . S
H531 C527 0.950 . S
H532 C529 0.950 . S
C533 C524 1.390 . S
C533 H526 0.950 . S
C533 C530 1.387 . S
C534 C535 1.387 . S
C534 H538 0.950 . S
C534 C543 1.390 . S
C535 C534 1.387 . S
C535 C537 1.387 . S
H536 C543 0.950 . S
C537 C535 1.387 . S
C537 C539 1.390 . S
C537 H541 0.950 . S
H538 C534 0.950 . S
C539 C537 1.390 . S
C539 C540 1.387 . S
C539 H542 0.950 . S
C540 C539 1.387 . S
C540 C543 1.387 . S
H541 C537 0.950 . S
H542 C539 0.950 . S
C543 C534 1.390 . S
C543 H536 0.950 . S
C543 C540 1.387 . S
C544 C545 1.387 . S
C544 H548 0.950 . S
C544 C553 1.390 . S
C545 C544 1.387 . S
C545 C547 1.387 . S
H546 C553 0.950 . S
C547 C545 1.387 . S
C547 C549 1.390 . S
C547 H551 0.950 . S
H548 C544 0.950 . S
C549 C547 1.390 . S
C549 C550 1.387 . S
C549 H552 0.950 . S
C550 C549 1.387 . S
C550 C553 1.387 . S
H551 C547 0.950 . S
H552 C549 0.950 . S
C553 C544 1.390 . S
C553 H546 0.950 . S
C553 C550 1.387 . S
C554 C555 1.387 . S
C554 H558 0.950 . S
C554 C563 1.390 . S
C555 C554 1.387 . S
C555 C557 1.387 . S
H556 C563 0.950 . S
C557 C555 1.387 . S
C557 C559 1.390 . S
C557 H561 0.950 . S
H558 C554 0.950 . S
C559 C557 1.390 . S
C559 C560 1.387 . S
C559 H562 0.950 . S
C560 C559 1.387 . S
C560 C563 1.387 . S
H561 C557 0.950 . S
H562 C559 0.950 . S
C563 C554 1.390 . S
C563 H556 0.950 . S
C563 C560 1.387 . S
C564 C565 1.387 . S
C564 H568 0.950 1_554 S
C564 C573 1.390 . S
C565 C564 1.387 . S
C565 C567 1.387 . S
H566 C573 0.950 1_556 S
C567 C565 1.387 . S
C567 C569 1.390 . S
C567 H571 0.950 . S
H568 C564 0.950 1_556 S
C569 C567 1.390 . S
C569 C570 1.387 . S
C569 H572 0.950 . S
C570 C569 1.387 . S
C570 C573 1.387 . S
H571 C567 0.950 . S
H572 C569 0.950 . S
C573 C564 1.390 . S
C573 H566 0.950 1_554 S
C573 C570 1.387 . S
C574 C575 1.387 . S
C574 H578 0.950 . S
C574 C583 1.390 1_455 S
C575 C574 1.387 . S
C575 C577 1.387 . S
H576 C583 0.950 . S
C577 C575 1.387 . S
C577 C579 1.390 1_455 S
C577 H581 0.950 . S
H578 C574 0.950 . S
C579 C577 1.390 1_655 S
C579 C580 1.387 . S
C579 H582 0.950 . S
C580 C579 1.387 . S
C580 C583 1.387 . S
H581 C577 0.950 . S
H582 C579 0.950 . S
C583 C574 1.390 1_655 S
C583 H576 0.950 . S
C583 C580 1.387 . S
C584 C585 1.387 . S
C584 H588 0.950 . S
C584 C593 1.390 1_545 S
C585 C584 1.387 . S
C585 C587 1.387 . S
H586 C593 0.950 . S
C587 C585 1.387 . S
C587 C589 1.390 1_545 S
C587 H591 0.950 . S
H588 C584 0.950 . S
C589 C587 1.390 1_565 S
C589 C590 1.387 . S
C589 H592 0.950 . S
C590 C589 1.387 . S
C590 C593 1.387 . S
H591 C587 0.950 . S
H592 C589 0.950 . S
C593 C584 1.390 1_565 S
C593 H586 0.950 . S
C593 C590 1.387 . S
C594 C595 1.387 . S
C594 H598 0.950 . S
C594 C603 1.390 . S
C595 C594 1.387 . S
C595 C597 1.387 . S
H596 C603 0.950 . S
C597 C595 1.387 . S
C597 C599 1.390 . S
C597 H601 0.950 . S
H598 C594 0.950 . S
C599 C597 1.390 . S
C599 C600 1.387 . S
C599 H602 0.950 . S
C600 C599 1.387 . S
C600 C603 1.387 . S
H601 C597 0.950 . S
H602 C599 0.950 . S
C603 C594 1.390 . S
C603 H596 0.950 . S
C603 C600 1.387 . S
C604 C605 1.387 1_556 S
C604 H608 0.950 . S
C604 C613 1.390 1_455 S
C605 C604 1.387 1_554 S
C605 C607 1.387 . S
H606 C613 0.950 . S
C607 C605 1.387 . S
C607 C609 1.390 1_455 S
C607 H611 0.950 . S
H608 C604 0.950 . S
C609 C607 1.390 1_655 S
C609 C610 1.387 . S
C609 H612 0.950 . S
C610 C609 1.387 . S
C610 C613 1.387 1_554 S
H611 C607 0.950 . S
H612 C609 0.950 . S
C613 C604 1.390 1_655 S
C613 H606 0.950 . S
C613 C610 1.387 1_556 S
C614 C615 1.387 . S
C614 H618 0.950 . S
C614 C623 1.390 1_565 S
C615 C614 1.387 . S
C615 C617 1.387 . S
H616 C623 0.950 . S
C617 C615 1.387 . S
C617 C619 1.390 1_565 S
C617 H621 0.950 . S
H618 C614 0.950 . S
C619 C617 1.390 1_545 S
C619 C620 1.387 . S
C619 H622 0.950 . S
C620 C619 1.387 . S
C620 C623 1.387 . S
H621 C617 0.950 . S
H622 C619 0.950 . S
C623 C614 1.390 1_545 S
C623 H616 0.950 . S
C623 C620 1.387 . S
C624 C625 1.387 . S
C624 H628 0.950 . S
C624 C633 1.390 . S
C625 C624 1.387 . S
C625 C627 1.387 . S
H626 C633 0.950 . S
C627 C625 1.387 . S
C627 C629 1.390 . S
C627 H631 0.950 . S
H628 C624 0.950 . S
C629 C627 1.390 . S
C629 C630 1.387 . S
C629 H632 0.950 . S
C630 C629 1.387 . S
C630 C633 1.387 . S
H631 C627 0.950 . S
H632 C629 0.950 . S
C633 C624 1.390 . S
C633 H626 0.950 . S
C633 C630 1.387 . S
C634 C635 1.387 . S
C634 H638 0.950 . S
C634 C643 1.390 . S
C635 C634 1.387 . S
C635 C637 1.387 . S
H636 C643 0.950 . S
C637 C635 1.387 . S
C637 C639 1.390 . S
C637 H641 0.950 . S
H638 C634 0.950 . S
C639 C637 1.390 . S
C639 C640 1.387 . S
C639 H642 0.950 . S
C640 C639 1.387 . S
C640 C643 1.387 . S
H641 C637 0.950 . S
H642 C639 0.950 . S
C643 C634 1.390 . S
C643 H636 0.950 . S
C643 C640 1.387 . S
C644 C645 1.387 . S
C644 H648 0.950 . S
C644 C653 1.390 . S
C645 C644 1.387 . S
C645 C647 1.387 . S
H646 C653 0.950 . S
C647 C645 1.387 . S
C647 C649 1.390 . S
C647 H651 0.950 . S
H648 C644 0.950 . S
C649 C647 1.390 . S
C649 C650 1.387 . S
C649 H652 0.950 . S
C650 C649 1.387 . S
C650 C653 1.387 . S
H651 C647 0.950 . S
H652 C649 0.950 . S
C653 C644 1.390 . S
C653 H646 0.950 . S
C653 C650 1.387 . S
C654 C655 1.387 . S
C654 H658 0.950 . S
C654 C663 1.390 . S
C655 C654 1.387 . S
C655 C657 1.387 . S
H656 C663 0.950 . S
C657 C655 1.387 . S
C657 C659 1.390 . S
C657 H661 0.950 . S
H658 C654 0.950 . S
C659 C657 1.390 . S
C659 C660 1.387 . S
C659 H662 0.950 . S
C660 C659 1.387 . S
C660 C663 1.387 . S
H661 C657 0.950 . S
H662 C659 0.950 . S
C663 C654 1.390 . S
C663 H656 0.950 . S
C663 C660 1.387 . S
C664 C665 1.387 . S
C664 H668 0.950 . S
C664 C673 1.390 . S
C665 C664 1.387 . S
C665 C667 1.387 . S
H666 C673 0.950 . S
C667 C665 1.387 . S
C667 C669 1.390 . S
C667 H671 0.950 1_655 S
H668 C664 0.950 . S
C669 C667 1.390 . S
C669 C670 1.387 . S
C669 H672 0.950 . S
C670 C669 1.387 . S
C670 C673 1.387 . S
H671 C667 0.950 1_455 S
H672 C669 0.950 . S
C673 C664 1.390 . S
C673 H666 0.950 . S
C673 C670 1.387 . S
C674 C675 1.387 . S
C674 H678 0.950 . S
C674 C683 1.390 . S
C675 C674 1.387 . S
C675 C677 1.387 . S
H676 C683 0.950 . S
C677 C675 1.387 . S
C677 C679 1.390 . S
C677 H681 0.950 . S
H678 C674 0.950 . S
C679 C677 1.390 . S
C679 C680 1.387 . S
C679 H682 0.950 . S
C680 C679 1.387 . S
C680 C683 1.387 . S
H681 C677 0.950 . S
H682 C679 0.950 . S
C683 C674 1.390 . S
C683 H676 0.950 . S
C683 C680 1.387 . S
C505 C403 1.283 . S
C510 C69 1.013 . S
C515 C487 1.283 . S
C520 C153 1.011 . S
C525 C67 1.286 . S
C530 C237 1.018 . S
C535 C151 1.283 . S
C540 C321 1.011 . S
C545 C235 1.285 . S
C550 C405 1.015 . S
C555 C319 1.286 . S
C560 C489 1.017 . S
C565 C63 1.809 . S
C570 C315 1.809 . S
C575 C399 1.809 . S
C580 C147 1.809 . S
C585 C483 1.808 . S
C590 C231 1.808 . S
C595 C242 1.872 . S
C600 C494 1.872 . S
C605 C74 1.871 . S
C610 C326 1.871 . S
C615 C410 1.871 . S
C620 C158 1.871 . S
C625 C476 1.236 . S
C630 C58 1.089 . S
C635 C142 1.082 . S
C640 C56 1.234 . S
C645 C226 1.088 . S
C650 C140 1.236 . S
C655 C224 1.234 . S
C660 C310 1.082 . S
C665 C394 1.087 . S
C670 C308 1.236 . S
C675 C478 1.089 . S
C680 C392 1.236 . S
