# Generated by pormake.
# Topology uol, (4)-cn, num edge types: 1
# Building blocks:
#     Node 0, Type 0, BuildingBlock: QUQFOY_clean_sbu_1, # of connection points: 4
#     Node 1, Type 0, BuildingBlock: QUQFOY_clean_sbu_1, # of connection points: 4
#     Node 2, Type 0, BuildingBlock: QUQFOY_clean_sbu_1, # of connection points: 4
#     Node 3, Type 0, BuildingBlock: QUQFOY_clean_sbu_1, # of connection points: 4
#     Node 4, Type 0, BuildingBlock: QUQFOY_clean_sbu_1, # of connection points: 4
#     Node 5, Type 0, BuildingBlock: QUQFOY_clean_sbu_1, # of connection points: 4
#     Node 6, Type 0, BuildingBlock: QUQFOY_clean_sbu_1, # of connection points: 4
#     Node 7, Type 0, BuildingBlock: QUQFOY_clean_sbu_1, # of connection points: 4
#     Node 8, Type 0, BuildingBlock: QUQFOY_clean_sbu_1, # of connection points: 4
#     Node 9, Type 0, BuildingBlock: QUQFOY_clean_sbu_1, # of connection points: 4
#     Node 10, Type 0, BuildingBlock: QUQFOY_clean_sbu_1, # of connection points: 4
#     Node 11, Type 0, BuildingBlock: QUQFOY_clean_sbu_1, # of connection points: 4
#     Edge 12, Type (0, 0), BuildingBlock: OJICUG_clean_linker_0, # of connection points: 2
#     Edge 13, Type (0, 0), BuildingBlock: OJICUG_clean_linker_0, # of connection points: 2
#     Edge 14, Type (0, 0), BuildingBlock: OJICUG_clean_linker_0, # of connection points: 2
#     Edge 15, Type (0, 0), BuildingBlock: OJICUG_clean_linker_0, # of connection points: 2
#     Edge 16, Type (0, 0), BuildingBlock: OJICUG_clean_linker_0, # of connection points: 2
#     Edge 17, Type (0, 0), BuildingBlock: OJICUG_clean_linker_0, # of connection points: 2
#     Edge 18, Type (0, 0), BuildingBlock: OJICUG_clean_linker_0, # of connection points: 2
#     Edge 19, Type (0, 0), BuildingBlock: OJICUG_clean_linker_0, # of connection points: 2
#     Edge 20, Type (0, 0), BuildingBlock: OJICUG_clean_linker_0, # of connection points: 2
#     Edge 21, Type (0, 0), BuildingBlock: OJICUG_clean_linker_0, # of connection points: 2
#     Edge 22, Type (0, 0), BuildingBlock: OJICUG_clean_linker_0, # of connection points: 2
#     Edge 23, Type (0, 0), BuildingBlock: OJICUG_clean_linker_0, # of connection points: 2
#     Edge 24, Type (0, 0), BuildingBlock: OJICUG_clean_linker_0, # of connection points: 2
#     Edge 25, Type (0, 0), BuildingBlock: OJICUG_clean_linker_0, # of connection points: 2
#     Edge 26, Type (0, 0), BuildingBlock: OJICUG_clean_linker_0, # of connection points: 2
#     Edge 27, Type (0, 0), BuildingBlock: OJICUG_clean_linker_0, # of connection points: 2
#     Edge 28, Type (0, 0), BuildingBlock: OJICUG_clean_linker_0, # of connection points: 2
#     Edge 29, Type (0, 0), BuildingBlock: OJICUG_clean_linker_0, # of connection points: 2
#     Edge 30, Type (0, 0), BuildingBlock: OJICUG_clean_linker_0, # of connection points: 2
#     Edge 31, Type (0, 0), BuildingBlock: OJICUG_clean_linker_0, # of connection points: 2
#     Edge 32, Type (0, 0), BuildingBlock: OJICUG_clean_linker_0, # of connection points: 2
#     Edge 33, Type (0, 0), BuildingBlock: OJICUG_clean_linker_0, # of connection points: 2
#     Edge 34, Type (0, 0), BuildingBlock: OJICUG_clean_linker_0, # of connection points: 2
#     Edge 35, Type (0, 0), BuildingBlock: OJICUG_clean_linker_0, # of connection points: 2
# Relax obj value: 0.038
# Max RMSD: 0.149
# Mean RMSD: 0.149
data_MOF--net-uol--node1-QUQFOY_clean_sbu_1--edge1-OJICUG_clean_linker_0
_symmetry_space_group_name_H-M    P1
_symmetry_Int_Tables_number       1
_symmetry_cell_setting            triclinic
loop_
_symmetry_equiv_pos_as_xyz
'x, y, z'
_cell_length_a     24.262146
_cell_length_b     24.27918
_cell_length_c     51.783727
_cell_angle_alpha  89.968192
_cell_angle_beta   89.942868
_cell_angle_gamma 120.00352
loop_
_atom_site_label
_atom_site_type_symbol
_atom_site_fract_x
_atom_site_fract_y
_atom_site_fract_z
_atom_type_partial_charge
O0 O 0.23417 0.36734 0.07579 0.0
Cd1 Cd 0.22759 0.4011 0.11179 0.0
Cd2 Cd 0.12505 0.2844 0.11435 0.0
O3 O 0.138 0.28281 0.07463 0.0
O4 O 0.2776 0.49583 0.11011 0.0
O5 O 0.17303 0.44166 0.1152 0.0
C6 C 0.2247 0.49588 0.11265 0.0
C7 C 0.03132 0.25437 0.13736 0.0
C8 C 0.19076 0.32012 0.06352 0.0
C9 C 0.23385 0.31366 0.1499 0.0
O10 O 0.18572 0.2715 0.13779 0.0
O11 O 0.25734 0.37201 0.14405 0.0
O12 O 0.04055 0.21265 0.12572 0.0
O13 O 0.07189 0.31377 0.13323 0.0
O14 O 0.87853 0.23212 0.24323 0.0
Cd15 Cd 0.83765 0.22548 0.27913 0.0
Cd16 Cd 0.8515 0.12235 0.28177 0.0
O17 O 0.86717 0.13609 0.24211 0.0
O18 O 0.79276 0.2753 0.27729 0.0
O19 O 0.74246 0.17081 0.28236 0.0
C20 C 0.73981 0.22239 0.27974 0.0
C21 C 0.78843 0.02767 0.30428 0.0
C22 C 0.88265 0.18881 0.23101 0.0
C23 C 0.93008 0.23102 0.31769 0.0
O24 O 0.92398 0.18269 0.30571 0.0
O25 O 0.89596 0.25514 0.31153 0.0
O26 O 0.84001 0.03816 0.29278 0.0
O27 O 0.76865 0.06752 0.30027 0.0
O28 O 0.65908 0.87325 0.40988 0.0
Cd29 Cd 0.62529 0.83243 0.44583 0.0
Cd30 Cd 0.74242 0.84679 0.44814 0.0
O31 O 0.74402 0.86229 0.40848 0.0
O32 O 0.53053 0.78809 0.44419 0.0
O33 O 0.58427 0.73724 0.449 0.0
C34 C 0.53016 0.73498 0.44654 0.0
C35 C 0.77307 0.78305 0.47065 0.0
C36 C 0.70648 0.87757 0.39752 0.0
C37 C 0.71264 0.92534 0.48415 0.0
O38 O 0.75492 0.9195 0.47201 0.0
O39 O 0.65431 0.89081 0.4782 0.0
O40 O 0.81458 0.83439 0.45914 0.0
O41 O 0.71355 0.7639 0.46665 0.0
O42 O 0.79606 0.65232 0.57617 0.0
Cd43 Cd 0.80261 0.61834 0.61213 0.0
Cd44 Cd 0.9054 0.73519 0.61462 0.0
O45 O 0.89213 0.73702 0.57494 0.0
O46 O 0.75247 0.52364 0.61044 0.0
O47 O 0.85703 0.5776 0.61543 0.0
C48 C 0.80531 0.52345 0.6129 0.0
C49 C 0.99947 0.76565 0.63734 0.0
C50 C 0.83941 0.6997 0.56389 0.0
C51 C 0.79659 0.70549 0.65044 0.0
O52 O 0.84485 0.74773 0.63835 0.0
O53 O 0.77285 0.64721 0.64446 0.0
O54 O 0.98983 0.8072 0.62578 0.0
O55 O 0.95912 0.7062 0.63328 0.0
O56 O 0.15212 0.78841 0.7431 0.0
Cd57 Cd 0.19265 0.79506 0.77904 0.0
Cd58 Cd 0.17851 0.89789 0.78151 0.0
O59 O 0.16348 0.88443 0.74184 0.0
O60 O 0.23728 0.74498 0.77732 0.0
O61 O 0.28784 0.84948 0.78228 0.0
C62 C 0.29031 0.79779 0.77974 0.0
C63 C 0.24174 0.99222 0.8041 0.0
C64 C 0.14813 0.83171 0.7308 0.0
C65 C 0.0995 0.78921 0.81741 0.0
O66 O 0.10551 0.83742 0.80531 0.0
O67 O 0.13401 0.76541 0.81141 0.0
O68 O 0.19042 0.98219 0.79254 0.0
O69 O 0.26118 0.9521 0.80011 0.0
O70 O 0.3711 0.14616 0.90962 0.0
Cd71 Cd 0.40473 0.18681 0.94556 0.0
Cd72 Cd 0.2877 0.17274 0.94792 0.0
O73 O 0.28621 0.15722 0.90827 0.0
O74 O 0.4995 0.23122 0.94392 0.0
O75 O 0.44565 0.28196 0.94876 0.0
C76 C 0.49981 0.28428 0.94631 0.0
C77 C 0.25713 0.23665 0.97034 0.0
C78 C 0.32374 0.14191 0.89729 0.0
C79 C 0.31714 0.09396 0.98397 0.0
O80 O 0.27498 0.10001 0.97188 0.0
O81 O 0.37549 0.1283 0.97794 0.0
O82 O 0.2156 0.18531 0.95889 0.0
O83 O 0.31664 0.25569 0.96632 0.0
O84 O 0.65767 0.78786 0.81305 0.0
Cd85 Cd 0.62399 0.7948 0.7771 0.0
Cd86 Cd 0.74085 0.8977 0.77468 0.0
O87 O 0.74229 0.88393 0.81435 0.0
O88 O 0.5292 0.74477 0.77877 0.0
O89 O 0.58336 0.84931 0.77387 0.0
C90 C 0.52911 0.79763 0.77637 0.0
C91 C 0.77156 0.99211 0.75215 0.0
C92 C 0.70491 0.83111 0.82536 0.0
C93 C 0.71156 0.7894 0.73875 0.0
O94 O 0.75367 0.83758 0.75085 0.0
O95 O 0.65319 0.76546 0.74474 0.0
O96 O 0.81302 0.98227 0.76367 0.0
O97 O 0.71203 0.95171 0.75614 0.0
O98 O 0.87734 0.6511 0.98003 0.0
Cd99 Cd 0.83699 0.61726 0.94406 0.0
Cd100 Cd 0.85086 0.73394 0.9415 0.0
O101 O 0.86568 0.73558 0.98119 0.0
O102 O 0.79206 0.52254 0.94576 0.0
O103 O 0.74186 0.57686 0.94072 0.0
C104 C 0.73916 0.52259 0.94326 0.0
C105 C 0.78732 0.76447 0.91877 0.0
C106 C 0.88115 0.69834 0.99228 0.0
C107 C 0.93031 0.70462 0.90576 0.0
O108 O 0.92415 0.74673 0.91782 0.0
O109 O 0.8958 0.6463 0.91174 0.0
O110 O 0.83848 0.80597 0.93034 0.0
O111 O 0.76821 0.70501 0.92282 0.0
O112 O 0.23363 0.8724 0.14662 0.0
Cd113 Cd 0.22689 0.83194 0.11065 0.0
Cd114 Cd 0.12405 0.84589 0.10827 0.0
O115 O 0.13754 0.86103 0.14794 0.0
O116 O 0.27712 0.78743 0.11224 0.0
O117 O 0.17253 0.73683 0.10737 0.0
C118 C 0.2243 0.73441 0.10981 0.0
C119 C 0.02999 0.78183 0.08566 0.0
C120 C 0.19034 0.87643 0.15894 0.0
C121 C 0.23254 0.92511 0.07237 0.0
O122 O 0.18429 0.91901 0.08449 0.0
O123 O 0.2564 0.89062 0.07831 0.0
O124 O 0.03935 0.83294 0.09717 0.0
O125 O 0.07064 0.76307 0.08971 0.0
O126 O 0.37142 0.23104 0.31265 0.0
Cd127 Cd 0.40553 0.22417 0.27677 0.0
Cd128 Cd 0.28847 0.12109 0.27435 0.0
O129 O 0.28659 0.13509 0.31398 0.0
O130 O 0.50028 0.27442 0.2785 0.0
O131 O 0.44644 0.16988 0.27366 0.0
C132 C 0.50058 0.22165 0.27617 0.0
C133 C 0.25742 0.02645 0.25201 0.0
C134 C 0.32395 0.18788 0.32496 0.0
C135 C 0.31842 0.22945 0.23822 0.0
O136 O 0.27617 0.18119 0.2503 0.0
O137 O 0.3767 0.25356 0.24433 0.0
O138 O 0.21607 0.03665 0.26345 0.0
O139 O 0.31699 0.0666 0.256 0.0
O140 O 0.15238 0.36825 0.47997 0.0
Cd141 Cd 0.19284 0.4022 0.44396 0.0
Cd142 Cd 0.17841 0.28541 0.44142 0.0
O143 O 0.16406 0.28379 0.48115 0.0
O144 O 0.23783 0.49691 0.44569 0.0
O145 O 0.28798 0.44257 0.44058 0.0
C146 C 0.29072 0.49684 0.44317 0.0
C147 C 0.24153 0.25472 0.41841 0.0
C148 C 0.14861 0.32103 0.49225 0.0
C149 C 0.09899 0.31507 0.40591 0.0
O150 O 0.10483 0.27284 0.41805 0.0
O151 O 0.13404 0.37341 0.4117 0.0
O152 O 0.19045 0.21327 0.43011 0.0
O153 O 0.2608 0.3142 0.42245 0.0
O154 O 0.79536 0.14633 0.64668 0.0
Cd155 Cd 0.80228 0.18698 0.61071 0.0
Cd156 Cd 0.90517 0.17314 0.6083 0.0
O157 O 0.89148 0.15781 0.64796 0.0
O158 O 0.75221 0.23166 0.61234 0.0
O159 O 0.85683 0.2821 0.60742 0.0
C160 C 0.80511 0.28463 0.6099 0.0
C161 C 0.99942 0.23727 0.58568 0.0
C162 C 0.83862 0.1423 0.65899 0.0
C163 C 0.79683 0.09403 0.57243 0.0
O164 O 0.84506 0.10014 0.58452 0.0
O165 O 0.77289 0.12844 0.57839 0.0
O166 O 0.98991 0.18607 0.5972 0.0
O167 O 0.95877 0.25605 0.58973 0.0
C168 C 0.16597 0.61469 0.11078 0.0
C169 C 0.22359 0.67297 0.11029 0.0
H170 H 0.12096 0.51289 0.11215 0.0
C171 C 0.28116 0.67228 0.11075 0.0
H172 H 0.12079 0.61358 0.11053 0.0
C173 C 0.28125 0.61483 0.1116 0.0
C174 C 0.22378 0.55651 0.11218 0.0
H175 H 0.32642 0.71625 0.1104 0.0
H176 H 0.32659 0.61624 0.11186 0.0
C177 C 0.16607 0.55702 0.11181 0.0
C178 C 0.61999 0.16365 0.27863 0.0
C179 C 0.67818 0.22137 0.27909 0.0
H180 H 0.51811 0.11829 0.27711 0.0
C181 C 0.67722 0.27876 0.27841 0.0
H182 H 0.61909 0.11861 0.27905 0.0
C183 C 0.6196 0.27857 0.27737 0.0
C184 C 0.56138 0.221 0.27682 0.0
H185 H 0.7211 0.32409 0.27872 0.0
H186 H 0.62082 0.32378 0.27695 0.0
C187 C 0.56216 0.16347 0.27742 0.0
C188 C 0.41113 0.67311 0.44542 0.0
C189 C 0.4693 0.67363 0.44593 0.0
H190 H 0.30961 0.6173 0.44414 0.0
C191 C 0.46843 0.61527 0.44535 0.0
H192 H 0.40999 0.71713 0.44583 0.0
C193 C 0.41054 0.5577 0.44418 0.0
C194 C 0.3524 0.55736 0.44376 0.0
H195 H 0.51244 0.61403 0.44563 0.0
H196 H 0.41137 0.51351 0.44377 0.0
C197 C 0.35346 0.61575 0.44442 0.0
C198 C 0.74853 0.4045 0.61181 0.0
C199 C 0.80608 0.46275 0.61238 0.0
H200 H 0.70317 0.30308 0.61058 0.0
C201 C 0.86372 0.46209 0.61195 0.0
H202 H 0.70325 0.4032 0.61211 0.0
C203 C 0.86368 0.40435 0.61088 0.0
C204 C 0.80598 0.34614 0.6104 0.0
H205 H 0.90888 0.50616 0.61229 0.0
H206 H 0.9088 0.40535 0.61059 0.0
C207 C 0.74849 0.34698 0.61092 0.0
C208 C 0.46786 0.85614 0.77748 0.0
C209 C 0.46842 0.7985 0.77696 0.0
H210 H 0.41119 0.90131 0.77901 0.0
C211 C 0.41009 0.74104 0.77753 0.0
H212 H 0.51199 0.90124 0.77715 0.0
C213 C 0.35257 0.74108 0.77853 0.0
C214 C 0.35183 0.79857 0.77914 0.0
H215 H 0.40871 0.69576 0.77717 0.0
H216 H 0.3086 0.69582 0.77886 0.0
C217 C 0.41013 0.85618 0.77865 0.0
C218 C 0.56146 0.40401 0.94526 0.0
C219 C 0.56064 0.34567 0.94578 0.0
H220 H 0.61847 0.50579 0.94382 0.0
C221 C 0.61885 0.34625 0.94529 0.0
H222 H 0.51743 0.4052 0.94553 0.0
C223 C 0.6765 0.40365 0.94438 0.0
C224 C 0.67751 0.46202 0.94378 0.0
H225 H 0.62003 0.30225 0.94565 0.0
H226 H 0.72037 0.40215 0.94411 0.0
C227 C 0.61933 0.46162 0.94418 0.0
C228 C 0.33799 0.31389 0.20506 0.0
C229 C 0.29865 0.2532 0.21575 0.0
H230 H 0.34821 0.38143 0.17582 0.0
C231 C 0.23929 0.21314 0.20431 0.0
H232 H 0.38408 0.34572 0.21343 0.0
C233 C 0.21954 0.23285 0.18277 0.0
C234 C 0.25809 0.29364 0.17215 0.0
H235 H 0.20797 0.16583 0.21182 0.0
H236 H 0.17327 0.20037 0.17467 0.0
C237 C 0.31753 0.33425 0.18355 0.0
C238 C 0.99241 0.21448 0.35174 0.0
C239 C 0.97357 0.25475 0.34015 0.0
H240 H 0.04532 0.20149 0.38147 0.0
C241 C 0.99539 0.31562 0.35068 0.0
H242 H 0.97604 0.16702 0.34437 0.0
C243 C 0.03625 0.33595 0.37216 0.0
C244 C 0.05465 0.29513 0.38371 0.0
H245 H 0.98148 0.34761 0.34218 0.0
H246 H 0.05313 0.38327 0.37976 0.0
C247 C 0.0319 0.23415 0.37326 0.0
C248 C 0.71288 0.03015 0.53901 0.0
C249 C 0.77288 0.05009 0.5501 0.0
H250 H 0.64595 0.97413 0.50942 0.0
C251 C 0.81215 0.02912 0.53915 0.0
H252 H 0.68165 0.04567 0.54701 0.0
C253 C 0.79247 0.98967 0.51762 0.0
C254 C 0.73247 0.9691 0.50653 0.0
H255 H 0.85888 0.04386 0.547 0.0
H256 H 0.82433 0.97464 0.50987 0.0
C257 C 0.69252 0.98935 0.51752 0.0
C258 C 0.71231 0.68521 0.68384 0.0
C259 C 0.77245 0.7253 0.67279 0.0
H260 H 0.64507 0.67415 0.7134 0.0
C261 C 0.81166 0.78538 0.68381 0.0
H262 H 0.68113 0.63857 0.67579 0.0
C263 C 0.79178 0.80499 0.70535 0.0
C264 C 0.73163 0.76557 0.71639 0.0
H265 H 0.8585 0.81737 0.67601 0.0
H266 H 0.82361 0.85179 0.71315 0.0
C267 C 0.69175 0.7055 0.70534 0.0
C268 C 0.99542 0.78482 0.87244 0.0
C269 C 0.97439 0.72461 0.88342 0.0
H270 H 0.05005 0.85149 0.84313 0.0
C271 C 0.99436 0.68458 0.87231 0.0
H272 H 0.98066 0.81679 0.88029 0.0
C273 C 0.03527 0.70503 0.8508 0.0
C274 C 0.05558 0.76521 0.8398 0.0
H275 H 0.97879 0.63784 0.88033 0.0
H276 H 0.05053 0.67372 0.8427 0.0
C277 C 0.03497 0.8046 0.85089 0.0
C278 C 0.31659 0.98896 0.03886 0.0
C279 C 0.25659 0.96911 0.05001 0.0
H280 H 0.38361 0.04494 1.0092 0.0
C281 C 0.21742 0.99019 0.03908 0.0
H282 H 0.34774 0.97334 0.04684 0.0
C283 C 0.2372 0.02967 1.01752 0.0
C284 C 0.29719 0.05015 1.00638 0.0
H285 H 0.17069 0.97552 0.04697 0.0
H286 H 0.20541 0.0448 1.00978 0.0
C287 C 0.33704 0.02978 1.01735 0.0
C288 C 0.26654 0.34008 0.02683 0.0
C289 C 0.20461 0.30546 0.03717 0.0
H290 H 0.33165 0.34612 0.99745 0.0
C291 C 0.1581 0.25355 1.02305 0.0
H292 H 0.30362 0.38063 0.03703 0.0
C293 C 0.17414 0.23427 1.00008 0.0
C294 C 0.2372 0.26607 0.99081 0.0
H295 H 0.10985 0.22607 0.03027 0.0
H296 H 0.1378 0.19209 0.99046 0.0
C297 C 0.28269 0.32046 1.00401 0.0
C298 C 0.93865 0.2645 0.19431 0.0
C299 C 0.91123 0.20261 0.20465 0.0
H300 H 0.99742 0.32933 0.1648 0.0
C301 C 0.91629 0.15597 0.19046 0.0
H302 H 0.93545 0.30167 0.20457 0.0
C303 C 0.95127 0.1718 0.1674 0.0
C304 C 0.98253 0.23477 0.15808 0.0
H305 H 0.89543 0.10775 0.19769 0.0
H306 H 0.95679 0.13534 0.15769 0.0
C307 C 0.9741 0.28044 0.17139 0.0
C308 C 0.792 0.94773 0.334 0.0
C309 C 0.75954 0.97834 0.32481 0.0
H310 H 0.80105 0.8921 0.36412 0.0
C311 C 0.70495 0.96879 0.33812 0.0
H312 H 0.83436 0.95409 0.32429 0.0
C313 C 0.68572 0.93299 0.36095 0.0
C314 C 0.72094 0.90629 0.37119 0.0
H315 H 0.67879 0.99157 0.33162 0.0
H316 H 0.64496 0.92898 0.37122 0.0
C317 C 0.7731 0.91237 0.35697 0.0
C318 C 0.87205 0.76641 0.52338 0.0
C319 C 0.82555 0.71443 0.53755 0.0
H320 H 0.89235 0.82786 0.49074 0.0
C321 C 0.76366 0.67973 0.52725 0.0
H322 H 0.92027 0.79394 0.53056 0.0
C323 C 0.74752 0.69932 0.50443 0.0
C324 C 0.793 0.75374 0.49117 0.0
H325 H 0.7266 0.63914 0.53749 0.0
H326 H 0.6986 0.67358 0.4979 0.0
C327 C 0.85603 0.78564 0.50041 0.0
C328 C 0.11449 0.86439 0.69022 0.0
C329 C 0.11973 0.81787 0.70444 0.0
H330 H 0.07381 0.8848 0.65748 0.0
C331 C 0.09256 0.75601 0.69415 0.0
H332 H 0.13517 0.91259 0.6974 0.0
C333 C 0.0571 0.73994 0.67127 0.0
C334 C 0.04842 0.78546 0.65795 0.0
H335 H 0.09591 0.71893 0.70443 0.0
H336 H 0.03393 0.69105 0.66473 0.0
C337 C 0.07951 0.84844 0.6672 0.0
C338 C 0.34428 0.08623 0.86077 0.0
C339 C 0.30931 0.11325 0.87098 0.0
H340 H 0.35098 0.0275 0.83148 0.0
C341 C 0.25739 0.10756 0.85675 0.0
H342 H 0.38484 0.08993 0.87106 0.0
C343 C 0.23848 0.0723 0.83379 0.0
C344 C 0.27068 0.04139 0.82463 0.0
H345 H 0.22964 0.12809 0.86388 0.0
H346 H 0.19631 0.06627 0.82407 0.0
C347 C 0.32503 0.05052 0.83796 0.0
C348 C 0.7711 0.86354 0.86594 0.0
C349 C 0.71939 0.81708 0.85171 0.0
H350 H 0.83212 0.88376 0.89868 0.0
C351 C 0.6847 0.75512 0.86197 0.0
H352 H 0.79862 0.91181 0.85878 0.0
C353 C 0.70405 0.73892 0.88484 0.0
C354 C 0.75821 0.78438 0.89817 0.0
H355 H 0.6443 0.71809 0.85168 0.0
H356 H 0.67833 0.68997 0.89136 0.0
C357 C 0.7901 0.84744 0.88895 0.0
C358 C 0.93703 0.67863 0.02896 0.0
C359 C 0.90953 0.71303 1.01864 0.0
H360 H 0.99597 0.67277 0.05839 0.0
C361 C 0.91449 0.7647 0.03281 0.0
H362 H 0.9339 0.63828 1.01873 0.0
C363 C 0.94954 0.78396 0.05582 0.0
C364 C 0.98097 0.75239 0.06509 0.0
H365 H 0.89356 0.79199 0.02561 0.0
H366 H 0.95502 0.82595 0.06549 0.0
C367 C 0.97254 0.69825 0.05182 0.0
C368 C 0.158 0.91075 0.19944 0.0
C369 C 0.20435 0.90504 0.18526 0.0
H370 H 0.138 0.95218 0.23204 0.0
C371 C 0.26628 0.93209 0.19552 0.0
H372 H 0.10976 0.89019 0.19228 0.0
C373 C 0.28259 0.96789 0.21831 0.0
C374 C 0.23727 0.97709 0.23156 0.0
H375 H 0.30323 0.92837 0.18528 0.0
H376 H 0.33154 0.99096 0.22481 0.0
C377 C 0.1742 0.9461 0.22237 0.0
C378 C 0.2574 0.15559 0.36553 0.0
C379 C 0.30929 0.20196 0.35128 0.0
H380 H 0.19628 0.13548 0.3983 0.0
C381 C 0.34408 0.26389 0.3615 0.0
H382 H 0.22978 0.10735 0.3584 0.0
C383 C 0.32472 0.28014 0.38436 0.0
C384 C 0.27046 0.23475 0.39774 0.0
H385 H 0.3846 0.30086 0.35119 0.0
H386 H 0.35057 0.32906 0.39086 0.0
C387 C 0.2384 0.17173 0.38854 0.0
C388 C 0.09277 0.34073 0.52898 0.0
C389 C 0.12023 0.30631 0.51864 0.0
H390 H 0.03374 0.34654 0.55843 0.0
C391 C 0.11515 0.25455 0.53281 0.0
H392 H 0.096 0.38115 0.51874 0.0
C393 C 0.08 0.23521 0.55583 0.0
C394 C 0.04858 0.26679 0.56511 0.0
H395 H 0.13605 0.22724 0.52559 0.0
H396 H 0.07441 0.19315 0.56551 0.0
C397 C 0.05716 0.32104 0.55186 0.0
C398 C 0.74619 0.05035 0.71837 0.0
C399 C 0.79161 0.04144 0.73165 0.0
H400 H 0.7255 0.08971 0.6853 0.0
C401 C 0.85474 0.07272 0.72246 0.0
H402 H 0.69719 0.02705 0.72487 0.0
C403 C 0.87095 0.10812 0.69951 0.0
C404 C 0.82453 0.11357 0.68531 0.0
H405 H 0.89102 0.06686 0.73216 0.0
H406 H 0.91926 0.12893 0.69236 0.0
C407 C 0.76251 0.08621 0.69556 0.0
loop_
_geom_bond_atom_site_label_1
_geom_bond_atom_site_label_2
_geom_bond_distance
_geom_bond_site_symmetry_2
_ccdc_geom_bond_type
O0 Cd1 2.223 . S
O0 C8 1.315 . S
Cd1 O0 2.223 . S
Cd1 O4 2.297 . S
Cd1 O5 2.439 . S
Cd1 O11 2.240 . S
Cd2 O3 2.240 . S
Cd2 O10 2.223 . S
Cd2 O12 2.294 1_455 S
Cd2 O13 2.439 . S
O3 Cd2 2.240 . S
O3 C8 1.279 . S
O4 Cd1 2.297 . S
O4 C6 1.247 . S
O5 Cd1 2.439 . S
O5 C6 1.208 . S
C6 O4 1.247 . S
C6 O5 1.208 . S
C7 O12 1.253 . S
C7 O13 1.208 1_655 S
C8 O0 1.315 . S
C8 O3 1.279 . S
C9 O10 1.315 . S
C9 O11 1.279 . S
O10 Cd2 2.223 . S
O10 C9 1.315 . S
O11 Cd1 2.240 . S
O11 C9 1.279 . S
O12 Cd2 2.294 1_655 S
O12 C7 1.253 . S
O13 Cd2 2.439 . S
O13 C7 1.208 1_455 S
O14 Cd15 2.223 . S
O14 C22 1.315 . S
Cd15 O14 2.223 . S
Cd15 O18 2.297 . S
Cd15 O19 2.439 . S
Cd15 O25 2.240 . S
Cd16 O17 2.240 . S
Cd16 O24 2.223 . S
Cd16 O26 2.293 1_545 S
Cd16 O27 2.439 . S
O17 Cd16 2.240 . S
O17 C22 1.279 . S
O18 Cd15 2.297 . S
O18 C20 1.247 . S
O19 Cd15 2.439 . S
O19 C20 1.208 . S
C20 O18 1.247 . S
C20 O19 1.208 . S
C21 O26 1.244 . S
C21 O27 1.208 1_565 S
C22 O14 1.315 . S
C22 O17 1.279 . S
C23 O24 1.315 . S
C23 O25 1.279 . S
O24 Cd16 2.223 . S
O24 C23 1.315 . S
O25 Cd15 2.240 . S
O25 C23 1.279 . S
O26 Cd16 2.293 1_565 S
O26 C21 1.244 . S
O27 Cd16 2.439 . S
O27 C21 1.208 1_545 S
O28 Cd29 2.223 . S
O28 C36 1.315 . S
Cd29 O28 2.223 . S
Cd29 O32 2.297 . S
Cd29 O33 2.439 . S
Cd29 O39 2.240 . S
Cd30 O31 2.240 . S
Cd30 O38 2.223 . S
Cd30 O40 2.297 . S
Cd30 O41 2.439 . S
O31 Cd30 2.240 . S
O31 C36 1.279 . S
O32 Cd29 2.297 . S
O32 C34 1.247 . S
O33 Cd29 2.439 . S
O33 C34 1.208 . S
C34 O32 1.247 . S
C34 O33 1.208 . S
C35 O40 1.247 . S
C35 O41 1.208 . S
C36 O28 1.315 . S
C36 O31 1.279 . S
C37 O38 1.315 . S
C37 O39 1.279 . S
O38 Cd30 2.223 . S
O38 C37 1.315 . S
O39 Cd29 2.240 . S
O39 C37 1.279 . S
O40 Cd30 2.297 . S
O40 C35 1.247 . S
O41 Cd30 2.439 . S
O41 C35 1.208 . S
O42 Cd43 2.223 . S
O42 C50 1.315 . S
Cd43 O42 2.223 . S
Cd43 O46 2.297 . S
Cd43 O47 2.439 . S
Cd43 O53 2.240 . S
Cd44 O45 2.240 . S
Cd44 O52 2.223 . S
Cd44 O54 2.294 1_655 S
Cd44 O55 2.439 . S
O45 Cd44 2.240 . S
O45 C50 1.279 . S
O46 Cd43 2.297 . S
O46 C48 1.247 . S
O47 Cd43 2.439 . S
O47 C48 1.208 . S
C48 O46 1.247 . S
C48 O47 1.208 . S
C49 O54 1.253 . S
C49 O55 1.208 1_455 S
C50 O42 1.315 . S
C50 O45 1.279 . S
C51 O52 1.315 . S
C51 O53 1.279 . S
O52 Cd44 2.223 . S
O52 C51 1.315 . S
O53 Cd43 2.240 . S
O53 C51 1.279 . S
O54 Cd44 2.294 1_455 S
O54 C49 1.253 . S
O55 Cd44 2.439 . S
O55 C49 1.208 1_655 S
O56 Cd57 2.223 . S
O56 C64 1.315 . S
Cd57 O56 2.223 . S
Cd57 O60 2.297 . S
Cd57 O61 2.439 . S
Cd57 O67 2.240 . S
Cd58 O59 2.240 . S
Cd58 O66 2.223 . S
Cd58 O68 2.293 1_565 S
Cd58 O69 2.439 . S
O59 Cd58 2.240 . S
O59 C64 1.279 . S
O60 Cd57 2.297 . S
O60 C62 1.247 . S
O61 Cd57 2.439 . S
O61 C62 1.208 . S
C62 O60 1.247 . S
C62 O61 1.208 . S
C63 O68 1.243 . S
C63 O69 1.208 1_545 S
C64 O56 1.315 . S
C64 O59 1.279 . S
C65 O66 1.315 . S
C65 O67 1.279 . S
O66 Cd58 2.223 . S
O66 C65 1.315 . S
O67 Cd57 2.240 . S
O67 C65 1.279 . S
O68 Cd58 2.293 1_545 S
O68 C63 1.243 . S
O69 Cd58 2.439 . S
O69 C63 1.208 1_565 S
O70 Cd71 2.223 . S
O70 C78 1.315 . S
Cd71 O70 2.223 . S
Cd71 O74 2.297 . S
Cd71 O75 2.439 . S
Cd71 O81 2.240 . S
Cd72 O73 2.240 . S
Cd72 O80 2.223 . S
Cd72 O82 2.297 1_556 S
Cd72 O83 2.439 . S
O73 Cd72 2.240 . S
O73 C78 1.279 . S
O74 Cd71 2.297 . S
O74 C76 1.247 . S
O75 Cd71 2.439 . S
O75 C76 1.208 . S
C76 O74 1.247 . S
C76 O75 1.208 . S
C77 O82 1.247 . S
C77 O83 1.208 1_554 S
C78 O70 1.315 . S
C78 O73 1.279 . S
C79 O80 1.315 . S
C79 O81 1.279 . S
O80 Cd72 2.223 . S
O80 C79 1.315 . S
O81 Cd71 2.240 . S
O81 C79 1.279 . S
O82 Cd72 2.297 1_554 S
O82 C77 1.247 . S
O83 Cd72 2.439 . S
O83 C77 1.208 1_556 S
O84 Cd85 2.223 . S
O84 C92 1.315 . S
Cd85 O84 2.223 . S
Cd85 O88 2.297 . S
Cd85 O89 2.439 . S
Cd85 O95 2.240 . S
Cd86 O87 2.240 . S
Cd86 O94 2.223 . S
Cd86 O96 2.294 1_565 S
Cd86 O97 2.439 . S
O87 Cd86 2.240 . S
O87 C92 1.279 . S
O88 Cd85 2.297 . S
O88 C90 1.247 . S
O89 Cd85 2.439 . S
O89 C90 1.208 . S
C90 O88 1.247 . S
C90 O89 1.208 . S
C91 O96 1.253 . S
C91 O97 1.208 1_545 S
C92 O84 1.315 . S
C92 O87 1.279 . S
C93 O94 1.315 . S
C93 O95 1.279 . S
O94 Cd86 2.223 . S
O94 C93 1.315 . S
O95 Cd85 2.240 . S
O95 C93 1.279 . S
O96 Cd86 2.294 1_545 S
O96 C91 1.253 . S
O97 Cd86 2.439 . S
O97 C91 1.208 1_565 S
O98 Cd99 2.223 . S
O98 C106 1.315 . S
Cd99 O98 2.223 . S
Cd99 O102 2.297 . S
Cd99 O103 2.439 . S
Cd99 O109 2.240 . S
Cd100 O101 2.240 . S
Cd100 O108 2.223 . S
Cd100 O110 2.297 . S
Cd100 O111 2.439 . S
O101 Cd100 2.240 . S
O101 C106 1.279 . S
O102 Cd99 2.297 . S
O102 C104 1.247 . S
O103 Cd99 2.439 . S
O103 C104 1.208 . S
C104 O102 1.247 . S
C104 O103 1.208 . S
C105 O110 1.247 . S
C105 O111 1.208 . S
C106 O98 1.315 . S
C106 O101 1.279 . S
C107 O108 1.315 . S
C107 O109 1.279 . S
O108 Cd100 2.223 . S
O108 C107 1.315 . S
O109 Cd99 2.240 . S
O109 C107 1.279 . S
O110 Cd100 2.297 . S
O110 C105 1.247 . S
O111 Cd100 2.439 . S
O111 C105 1.208 . S
O112 Cd113 2.223 . S
O112 C120 1.315 . S
Cd113 O112 2.223 . S
Cd113 O116 2.297 . S
Cd113 O117 2.439 . S
Cd113 O123 2.240 . S
Cd114 O115 2.240 . S
Cd114 O122 2.223 . S
Cd114 O124 2.292 1_455 S
Cd114 O125 2.439 . S
O115 Cd114 2.240 . S
O115 C120 1.279 . S
O116 Cd113 2.297 . S
O116 C118 1.247 . S
O117 Cd113 2.439 . S
O117 C118 1.208 . S
C118 O116 1.247 . S
C118 O117 1.208 . S
C119 O124 1.243 1_556 S
C119 O125 1.208 1_656 S
C120 O112 1.315 . S
C120 O115 1.279 . S
C121 O122 1.315 . S
C121 O123 1.279 . S
O122 Cd114 2.223 . S
O122 C121 1.315 . S
O123 Cd113 2.240 . S
O123 C121 1.279 . S
O124 Cd114 2.292 1_655 S
O124 C119 1.243 1_554 S
O125 Cd114 2.439 . S
O125 C119 1.208 1_454 S
O126 Cd127 2.223 . S
O126 C134 1.315 . S
Cd127 O126 2.223 . S
Cd127 O130 2.297 . S
Cd127 O131 2.439 . S
Cd127 O137 2.240 . S
Cd128 O129 2.240 . S
Cd128 O136 2.223 . S
Cd128 O138 2.294 1_545 S
Cd128 O139 2.439 . S
O129 Cd128 2.240 . S
O129 C134 1.279 . S
O130 Cd127 2.297 . S
O130 C132 1.247 . S
O131 Cd127 2.439 . S
O131 C132 1.208 . S
C132 O130 1.247 . S
C132 O131 1.208 . S
C133 O138 1.253 . S
C133 O139 1.208 1_565 S
C134 O126 1.315 . S
C134 O129 1.279 . S
C135 O136 1.315 . S
C135 O137 1.279 . S
O136 Cd128 2.223 . S
O136 C135 1.315 . S
O137 Cd127 2.240 . S
O137 C135 1.279 . S
O138 Cd128 2.294 1_565 S
O138 C133 1.253 . S
O139 Cd128 2.439 . S
O139 C133 1.208 1_545 S
O140 Cd141 2.223 . S
O140 C148 1.315 . S
Cd141 O140 2.223 . S
Cd141 O144 2.297 . S
Cd141 O145 2.439 . S
Cd141 O151 2.240 . S
Cd142 O143 2.240 . S
Cd142 O150 2.223 . S
Cd142 O152 2.297 . S
Cd142 O153 2.439 . S
O143 Cd142 2.240 . S
O143 C148 1.279 . S
O144 Cd141 2.297 . S
O144 C146 1.247 . S
O145 Cd141 2.439 . S
O145 C146 1.208 . S
C146 O144 1.247 . S
C146 O145 1.208 . S
C147 O152 1.247 . S
C147 O153 1.208 . S
C148 O140 1.315 . S
C148 O143 1.279 . S
C149 O150 1.315 . S
C149 O151 1.279 . S
O150 Cd142 2.223 . S
O150 C149 1.315 . S
O151 Cd141 2.240 . S
O151 C149 1.279 . S
O152 Cd142 2.297 . S
O152 C147 1.247 . S
O153 Cd142 2.439 . S
O153 C147 1.208 . S
O154 Cd155 2.223 . S
O154 C162 1.315 . S
Cd155 O154 2.223 . S
Cd155 O158 2.297 . S
Cd155 O159 2.439 . S
Cd155 O165 2.240 . S
Cd156 O157 2.240 . S
Cd156 O164 2.223 . S
Cd156 O166 2.292 1_655 S
Cd156 O167 2.439 . S
O157 Cd156 2.240 . S
O157 C162 1.279 . S
O158 Cd155 2.297 . S
O158 C160 1.247 . S
O159 Cd155 2.439 . S
O159 C160 1.208 . S
C160 O158 1.247 . S
C160 O159 1.208 . S
C161 O166 1.243 . S
C161 O167 1.208 1_455 S
C162 O154 1.315 . S
C162 O157 1.279 . S
C163 O164 1.315 . S
C163 O165 1.279 . S
O164 Cd156 2.223 . S
O164 C163 1.315 . S
O165 Cd155 2.240 . S
O165 C163 1.279 . S
O166 Cd156 2.292 1_455 S
O166 C161 1.243 . S
O167 Cd156 2.439 . S
O167 C161 1.208 1_655 S
C168 C169 1.387 . S
C168 H172 0.950 . S
C168 C177 1.390 . S
C169 C168 1.387 . S
C169 C171 1.387 . S
H170 C177 0.950 . S
C171 C169 1.387 . S
C171 C173 1.390 . S
C171 H175 0.950 . S
H172 C168 0.950 . S
C173 C171 1.390 . S
C173 C174 1.387 . S
C173 H176 0.950 . S
C174 C173 1.387 . S
C174 C177 1.387 . S
H175 C171 0.950 . S
H176 C173 0.950 . S
C177 C168 1.390 . S
C177 H170 0.950 . S
C177 C174 1.387 . S
C178 C179 1.387 . S
C178 H182 0.950 . S
C178 C187 1.390 . S
C179 C178 1.387 . S
C179 C181 1.387 . S
H180 C187 0.950 . S
C181 C179 1.387 . S
C181 C183 1.390 . S
C181 H185 0.950 . S
H182 C178 0.950 . S
C183 C181 1.390 . S
C183 C184 1.387 . S
C183 H186 0.950 . S
C184 C183 1.387 . S
C184 C187 1.387 . S
H185 C181 0.950 . S
H186 C183 0.950 . S
C187 C178 1.390 . S
C187 H180 0.950 . S
C187 C184 1.387 . S
C188 C189 1.387 . S
C188 H192 0.950 . S
C188 C197 1.390 . S
C189 C188 1.387 . S
C189 C191 1.387 . S
H190 C197 0.950 . S
C191 C189 1.387 . S
C191 C193 1.390 . S
C191 H195 0.950 . S
H192 C188 0.950 . S
C193 C191 1.390 . S
C193 C194 1.387 . S
C193 H196 0.950 . S
C194 C193 1.387 . S
C194 C197 1.387 . S
H195 C191 0.950 . S
H196 C193 0.950 . S
C197 C188 1.390 . S
C197 H190 0.950 . S
C197 C194 1.387 . S
C198 C199 1.387 . S
C198 H202 0.950 . S
C198 C207 1.390 . S
C199 C198 1.387 . S
C199 C201 1.387 . S
H200 C207 0.950 . S
C201 C199 1.387 . S
C201 C203 1.390 . S
C201 H205 0.950 . S
H202 C198 0.950 . S
C203 C201 1.390 . S
C203 C204 1.387 . S
C203 H206 0.950 . S
C204 C203 1.387 . S
C204 C207 1.387 . S
H205 C201 0.950 . S
H206 C203 0.950 . S
C207 C198 1.390 . S
C207 H200 0.950 . S
C207 C204 1.387 . S
C208 C209 1.387 . S
C208 H212 0.950 . S
C208 C217 1.390 . S
C209 C208 1.387 . S
C209 C211 1.387 . S
H210 C217 0.950 . S
C211 C209 1.387 . S
C211 C213 1.390 . S
C211 H215 0.950 . S
H212 C208 0.950 . S
C213 C211 1.390 . S
C213 C214 1.387 . S
C213 H216 0.950 . S
C214 C213 1.387 . S
C214 C217 1.387 . S
H215 C211 0.950 . S
H216 C213 0.950 . S
C217 C208 1.390 . S
C217 H210 0.950 . S
C217 C214 1.387 . S
C218 C219 1.387 . S
C218 H222 0.950 . S
C218 C227 1.390 . S
C219 C218 1.387 . S
C219 C221 1.387 . S
H220 C227 0.950 . S
C221 C219 1.387 . S
C221 C223 1.390 . S
C221 H225 0.950 . S
H222 C218 0.950 . S
C223 C221 1.390 . S
C223 C224 1.387 . S
C223 H226 0.950 . S
C224 C223 1.387 . S
C224 C227 1.387 . S
H225 C221 0.950 . S
H226 C223 0.950 . S
C227 C218 1.390 . S
C227 H220 0.950 . S
C227 C224 1.387 . S
C228 C229 1.387 . S
C228 H232 0.950 . S
C228 C237 1.390 . S
C229 C228 1.387 . S
C229 C231 1.387 . S
H230 C237 0.950 . S
C231 C229 1.387 . S
C231 C233 1.390 . S
C231 H235 0.950 . S
H232 C228 0.950 . S
C233 C231 1.390 . S
C233 C234 1.387 . S
C233 H236 0.950 . S
C234 C233 1.387 . S
C234 C237 1.387 . S
H235 C231 0.950 . S
H236 C233 0.950 . S
C237 C228 1.390 . S
C237 H230 0.950 . S
C237 C234 1.387 . S
C238 C239 1.387 . S
C238 H242 0.950 . S
C238 C247 1.390 1_655 S
C239 C238 1.387 . S
C239 C241 1.387 . S
H240 C247 0.950 . S
C241 C239 1.387 . S
C241 C243 1.390 1_655 S
C241 H245 0.950 . S
H242 C238 0.950 . S
C243 C241 1.390 1_455 S
C243 C244 1.387 . S
C243 H246 0.950 . S
C244 C243 1.387 . S
C244 C247 1.387 . S
H245 C241 0.950 . S
H246 C243 0.950 . S
C247 C238 1.390 1_455 S
C247 H240 0.950 . S
C247 C244 1.387 . S
C248 C249 1.387 . S
C248 H252 0.950 . S
C248 C257 1.390 1_545 S
C249 C248 1.387 . S
C249 C251 1.387 . S
H250 C257 0.950 . S
C251 C249 1.387 . S
C251 C253 1.390 1_545 S
C251 H255 0.950 . S
H252 C248 0.950 . S
C253 C251 1.390 1_565 S
C253 C254 1.387 . S
C253 H256 0.950 . S
C254 C253 1.387 . S
C254 C257 1.387 . S
H255 C251 0.950 . S
H256 C253 0.950 . S
C257 C248 1.390 1_565 S
C257 H250 0.950 . S
C257 C254 1.387 . S
C258 C259 1.387 . S
C258 H262 0.950 . S
C258 C267 1.390 . S
C259 C258 1.387 . S
C259 C261 1.387 . S
H260 C267 0.950 . S
C261 C259 1.387 . S
C261 C263 1.390 . S
C261 H265 0.950 . S
H262 C258 0.950 . S
C263 C261 1.390 . S
C263 C264 1.387 . S
C263 H266 0.950 . S
C264 C263 1.387 . S
C264 C267 1.387 . S
H265 C261 0.950 . S
H266 C263 0.950 . S
C267 C258 1.390 . S
C267 H260 0.950 . S
C267 C264 1.387 . S
C268 C269 1.387 . S
C268 H272 0.950 . S
C268 C277 1.390 1_655 S
C269 C268 1.387 . S
C269 C271 1.387 . S
H270 C277 0.950 . S
C271 C269 1.387 . S
C271 C273 1.390 1_655 S
C271 H275 0.950 . S
H272 C268 0.950 . S
C273 C271 1.390 1_455 S
C273 C274 1.387 . S
C273 H276 0.950 . S
C274 C273 1.387 . S
C274 C277 1.387 . S
H275 C271 0.950 . S
H276 C273 0.950 . S
C277 C268 1.390 1_455 S
C277 H270 0.950 . S
C277 C274 1.387 . S
C278 C279 1.387 . S
C278 H282 0.950 . S
C278 C287 1.375 1_564 S
C279 C278 1.387 . S
C279 C281 1.387 . S
H280 C287 0.959 . S
C281 C279 1.387 . S
C281 C283 1.377 1_564 S
C281 H285 0.950 . S
H282 C278 0.950 . S
C283 C281 1.377 1_546 S
C283 C284 1.395 . S
C283 H286 0.958 . S
C284 C283 1.395 . S
C284 C287 1.396 . S
H285 C281 0.950 . S
H286 C283 0.958 . S
C287 C278 1.375 1_546 S
C287 H280 0.959 . S
C287 C284 1.396 . S
C288 C289 1.387 . S
C288 H292 0.950 . S
C288 C297 1.390 . S
C289 C288 1.387 . S
C289 C291 1.387 . S
H290 C297 0.950 . S
C291 C289 1.387 . S
C291 C293 1.390 . S
C291 H295 0.950 . S
H292 C288 0.950 . S
C293 C291 1.390 . S
C293 C294 1.387 . S
C293 H296 0.950 . S
C294 C293 1.387 . S
C294 C297 1.387 . S
H295 C291 0.950 . S
H296 C293 0.950 . S
C297 C288 1.390 . S
C297 H290 0.950 . S
C297 C294 1.387 . S
C298 C299 1.387 . S
C298 H302 0.950 . S
C298 C307 1.390 . S
C299 C298 1.387 . S
C299 C301 1.387 . S
H300 C307 0.950 . S
C301 C299 1.387 . S
C301 C303 1.390 . S
C301 H305 0.950 . S
H302 C298 0.950 . S
C303 C301 1.390 . S
C303 C304 1.387 . S
C303 H306 0.950 . S
C304 C303 1.387 . S
C304 C307 1.387 . S
H305 C301 0.950 . S
H306 C303 0.950 . S
C307 C298 1.390 . S
C307 H300 0.950 . S
C307 C304 1.387 . S
C308 C309 1.387 . S
C308 H312 0.950 . S
C308 C317 1.390 . S
C309 C308 1.387 . S
C309 C311 1.387 . S
H310 C317 0.950 . S
C311 C309 1.387 . S
C311 C313 1.390 . S
C311 H315 0.950 . S
H312 C308 0.950 . S
C313 C311 1.390 . S
C313 C314 1.387 . S
C313 H316 0.950 . S
C314 C313 1.387 . S
C314 C317 1.387 . S
H315 C311 0.950 . S
H316 C313 0.950 . S
C317 C308 1.390 . S
C317 H310 0.950 . S
C317 C314 1.387 . S
C318 C319 1.387 . S
C318 H322 0.950 . S
C318 C327 1.390 . S
C319 C318 1.387 . S
C319 C321 1.387 . S
H320 C327 0.950 . S
C321 C319 1.387 . S
C321 C323 1.390 . S
C321 H325 0.950 . S
H322 C318 0.950 . S
C323 C321 1.390 . S
C323 C324 1.387 . S
C323 H326 0.950 . S
C324 C323 1.387 . S
C324 C327 1.387 . S
H325 C321 0.950 . S
H326 C323 0.950 . S
C327 C318 1.390 . S
C327 H320 0.950 . S
C327 C324 1.387 . S
C328 C329 1.387 . S
C328 H332 0.950 . S
C328 C337 1.390 . S
C329 C328 1.387 . S
C329 C331 1.387 . S
H330 C337 0.950 1_655 S
C331 C329 1.387 . S
C331 C333 1.390 . S
C331 H335 0.950 . S
H332 C328 0.950 . S
C333 C331 1.390 . S
C333 C334 1.387 . S
C333 H336 0.950 . S
C334 C333 1.387 . S
C334 C337 1.387 . S
H335 C331 0.950 . S
H336 C333 0.950 . S
C337 C328 1.390 . S
C337 H330 0.950 1_455 S
C337 C334 1.387 . S
C338 C339 1.387 . S
C338 H342 0.950 . S
C338 C347 1.390 . S
C339 C338 1.387 . S
C339 C341 1.387 . S
H340 C347 0.950 . S
C341 C339 1.387 . S
C341 C343 1.390 . S
C341 H345 0.950 . S
H342 C338 0.950 . S
C343 C341 1.390 . S
C343 C344 1.387 . S
C343 H346 0.950 1_545 S
C344 C343 1.387 . S
C344 C347 1.387 . S
H345 C341 0.950 . S
H346 C343 0.950 1_565 S
C347 C338 1.390 . S
C347 H340 0.950 . S
C347 C344 1.387 . S
C348 C349 1.387 . S
C348 H352 0.950 . S
C348 C357 1.390 . S
C349 C348 1.387 . S
C349 C351 1.387 . S
H350 C357 0.950 . S
C351 C349 1.387 . S
C351 C353 1.390 . S
C351 H355 0.950 . S
H352 C348 0.950 . S
C353 C351 1.390 . S
C353 C354 1.387 . S
C353 H356 0.950 . S
C354 C353 1.387 . S
C354 C357 1.387 . S
H355 C351 0.950 . S
H356 C353 0.950 . S
C357 C348 1.390 . S
C357 H350 0.950 . S
C357 C354 1.387 . S
C358 C359 1.387 . S
C358 H362 0.950 . S
C358 C367 1.390 . S
C359 C358 1.387 . S
C359 C361 1.387 . S
H360 C367 0.950 . S
C361 C359 1.387 . S
C361 C363 1.390 . S
C361 H365 0.950 . S
H362 C358 0.950 . S
C363 C361 1.390 . S
C363 C364 1.387 . S
C363 H366 0.951 . S
C364 C363 1.387 . S
C364 C367 1.387 . S
H365 C361 0.950 . S
H366 C363 0.951 . S
C367 C358 1.390 . S
C367 H360 0.950 . S
C367 C364 1.387 . S
C368 C369 1.387 . S
C368 H372 0.950 . S
C368 C377 1.390 . S
C369 C368 1.387 . S
C369 C371 1.387 . S
H370 C377 0.950 . S
C371 C369 1.387 . S
C371 C373 1.390 . S
C371 H375 0.950 . S
H372 C368 0.950 . S
C373 C371 1.390 . S
C373 C374 1.387 . S
C373 H376 0.950 . S
C374 C373 1.387 . S
C374 C377 1.387 . S
H375 C371 0.950 . S
H376 C373 0.950 . S
C377 C368 1.390 . S
C377 H370 0.950 . S
C377 C374 1.387 . S
C378 C379 1.387 . S
C378 H382 0.950 . S
C378 C387 1.390 . S
C379 C378 1.387 . S
C379 C381 1.387 . S
H380 C387 0.950 . S
C381 C379 1.387 . S
C381 C383 1.390 . S
C381 H385 0.950 . S
H382 C378 0.950 . S
C383 C381 1.390 . S
C383 C384 1.387 . S
C383 H386 0.950 . S
C384 C383 1.387 . S
C384 C387 1.387 . S
H385 C381 0.950 . S
H386 C383 0.950 . S
C387 C378 1.390 . S
C387 H380 0.950 . S
C387 C384 1.387 . S
C388 C389 1.387 . S
C388 H392 0.950 . S
C388 C397 1.390 . S
C389 C388 1.387 . S
C389 C391 1.387 . S
H390 C397 0.950 . S
C391 C389 1.387 . S
C391 C393 1.390 . S
C391 H395 0.950 . S
H392 C388 0.950 . S
C393 C391 1.390 . S
C393 C394 1.387 . S
C393 H396 0.950 . S
C394 C393 1.387 . S
C394 C397 1.387 . S
H395 C391 0.950 . S
H396 C393 0.950 . S
C397 C388 1.390 . S
C397 H390 0.950 . S
C397 C394 1.387 . S
C398 C399 1.387 . S
C398 H402 0.950 . S
C398 C407 1.390 . S
C399 C398 1.387 . S
C399 C401 1.387 . S
H400 C407 0.950 . S
C401 C399 1.387 . S
C401 C403 1.390 . S
C401 H405 0.950 1_545 S
H402 C398 0.950 . S
C403 C401 1.390 . S
C403 C404 1.387 . S
C403 H406 0.950 . S
C404 C403 1.387 . S
C404 C407 1.387 . S
H405 C401 0.950 1_565 S
H406 C403 0.950 . S
C407 C398 1.390 . S
C407 H400 0.950 . S
C407 C404 1.387 . S
C169 C118 1.405 . S
C174 C6 1.405 . S
C179 C20 1.405 . S
C184 C132 1.405 . S
C189 C34 1.405 . S
C194 C146 1.406 . S
C199 C48 1.406 . S
C204 C160 1.405 . S
C209 C90 1.405 . S
C214 C62 1.405 . S
C219 C76 1.406 . S
C224 C104 1.404 . S
C229 C135 1.137 . S
C234 C9 1.139 . S
C239 C23 1.140 . S
C244 C149 1.136 . S
C249 C163 1.138 . S
C254 C37 1.138 . S
C259 C51 1.136 . S
C264 C93 1.139 . S
C269 C107 1.137 . S
C274 C65 1.139 . S
C279 C121 1.138 . S
C284 C79 1.138 . S
C289 C8 1.443 . S
C294 C77 1.459 . S
C299 C22 1.441 . S
C304 C7 1.458 . S
C309 C21 1.458 . S
C314 C36 1.441 . S
C319 C50 1.441 . S
C324 C35 1.458 . S
C329 C64 1.441 . S
C334 C49 1.458 . S
C339 C78 1.443 . S
C344 C63 1.459 . S
C349 C92 1.442 . S
C354 C105 1.459 . S
C359 C106 1.443 . S
C364 C119 1.459 . S
C369 C120 1.443 . S
C374 C133 1.460 . S
C379 C134 1.441 . S
C384 C147 1.458 . S
C389 C148 1.442 . S
C394 C161 1.459 . S
C399 C91 1.460 . S
C404 C162 1.443 . S
