# Generated by pormake.
# Topology snk, (6)-cn, num edge types: 1
# Building blocks:
#     Node 0, Type 0, BuildingBlock: BETFEN_clean_sbu_0, # of connection points: 6
#     Node 1, Type 0, BuildingBlock: BETFEN_clean_sbu_0, # of connection points: 6
#     Node 2, Type 0, BuildingBlock: BETFEN_clean_sbu_0, # of connection points: 6
#     Node 3, Type 0, BuildingBlock: BETFEN_clean_sbu_0, # of connection points: 6
#     Node 4, Type 0, BuildingBlock: BETFEN_clean_sbu_0, # of connection points: 6
#     Node 5, Type 0, BuildingBlock: BETFEN_clean_sbu_0, # of connection points: 6
#     Node 6, Type 0, BuildingBlock: BETFEN_clean_sbu_0, # of connection points: 6
#     Node 7, Type 0, BuildingBlock: BETFEN_clean_sbu_0, # of connection points: 6
#     Edge 8, Type (0, 0), BuildingBlock: XIVTED_clean_linker_0, # of connection points: 2
#     Edge 9, Type (0, 0), BuildingBlock: XIVTED_clean_linker_0, # of connection points: 2
#     Edge 10, Type (0, 0), BuildingBlock: XIVTED_clean_linker_0, # of connection points: 2
#     Edge 11, Type (0, 0), BuildingBlock: XIVTED_clean_linker_0, # of connection points: 2
#     Edge 12, Type (0, 0), BuildingBlock: XIVTED_clean_linker_0, # of connection points: 2
#     Edge 13, Type (0, 0), BuildingBlock: XIVTED_clean_linker_0, # of connection points: 2
#     Edge 14, Type (0, 0), BuildingBlock: XIVTED_clean_linker_0, # of connection points: 2
#     Edge 15, Type (0, 0), BuildingBlock: XIVTED_clean_linker_0, # of connection points: 2
#     Edge 16, Type (0, 0), BuildingBlock: XIVTED_clean_linker_0, # of connection points: 2
#     Edge 17, Type (0, 0), BuildingBlock: XIVTED_clean_linker_0, # of connection points: 2
#     Edge 18, Type (0, 0), BuildingBlock: XIVTED_clean_linker_0, # of connection points: 2
#     Edge 19, Type (0, 0), BuildingBlock: XIVTED_clean_linker_0, # of connection points: 2
#     Edge 20, Type (0, 0), BuildingBlock: XIVTED_clean_linker_0, # of connection points: 2
#     Edge 21, Type (0, 0), BuildingBlock: XIVTED_clean_linker_0, # of connection points: 2
#     Edge 22, Type (0, 0), BuildingBlock: XIVTED_clean_linker_0, # of connection points: 2
#     Edge 23, Type (0, 0), BuildingBlock: XIVTED_clean_linker_0, # of connection points: 2
#     Edge 24, Type (0, 0), BuildingBlock: XIVTED_clean_linker_0, # of connection points: 2
#     Edge 25, Type (0, 0), BuildingBlock: XIVTED_clean_linker_0, # of connection points: 2
#     Edge 26, Type (0, 0), BuildingBlock: XIVTED_clean_linker_0, # of connection points: 2
#     Edge 27, Type (0, 0), BuildingBlock: XIVTED_clean_linker_0, # of connection points: 2
#     Edge 28, Type (0, 0), BuildingBlock: XIVTED_clean_linker_0, # of connection points: 2
#     Edge 29, Type (0, 0), BuildingBlock: XIVTED_clean_linker_0, # of connection points: 2
#     Edge 30, Type (0, 0), BuildingBlock: XIVTED_clean_linker_0, # of connection points: 2
#     Edge 31, Type (0, 0), BuildingBlock: XIVTED_clean_linker_0, # of connection points: 2
# Relax obj value: 0.093
# Max RMSD: 0.156
# Mean RMSD: 0.126
data_MOF--net-snk--node1-BETFEN_clean_sbu_0--edge1-XIVTED_clean_linker_0
_symmetry_space_group_name_H-M    P1
_symmetry_Int_Tables_number       1
_symmetry_cell_setting            triclinic
loop_
_symmetry_equiv_pos_as_xyz
'x, y, z'
_cell_length_a     38.383094
_cell_length_b     38.395627
_cell_length_c     25.68079
_cell_angle_alpha  96.561612
_cell_angle_beta   96.420306
_cell_angle_gamma 90.789373
loop_
_atom_site_label
_atom_site_type_symbol
_atom_site_fract_x
_atom_site_fract_y
_atom_site_fract_z
_atom_type_partial_charge
Pr0 Pr 0.99073 0.98203 0.4523 0.0
Pr1 Pr 0.01945 0.01941 0.56174 0.0
C2 C 0.96691 0.96245 0.34985 0.0
C3 C 0.97339 0.9691 0.29627 0.0
C4 C 0.96227 0.94397 0.25347 0.0
C5 C 0.9678 0.94967 0.20215 0.0
C6 C 0.98465 0.98072 0.19248 0.0
C7 C 0.99603 0.00581 0.23573 0.0
C8 C 0.99041 1.00006 0.28714 0.0
C9 C 0.03821 0.94422 0.51203 0.0
C10 C 0.05764 0.0406 0.46299 0.0
C11 C 0.04478 0.03664 0.66412 0.0
C12 C 0.03783 0.03031 0.71767 0.0
C13 C 0.04908 0.05546 0.7604 0.0
C14 C 0.04331 0.04999 0.81172 0.0
C15 C 0.02611 0.01917 0.82148 0.0
C16 C 0.01456 0.99409 0.7783 0.0
C17 C 0.02039 0.9996 0.72688 0.0
C18 C 0.9716 0.05786 0.50343 0.0
C19 C 0.95144 0.96195 0.5507 0.0
O20 O 0.95362 0.98791 0.37908 0.0
O21 O 0.99095 0.94559 0.37628 0.0
O22 O 0.04168 0.97631 0.50688 0.0
O23 O 0.00972 0.93022 0.48529 0.0
O24 O 0.06254 0.03903 0.51434 0.0
O25 O 0.03051 0.02464 0.43299 0.0
O26 O 0.05595 0.01023 0.6341 0.0
O27 O 0.02231 0.05562 0.63849 0.0
O28 O 0.96848 0.02543 0.50685 0.0
O29 O 0.99914 0.07186 0.53285 0.0
O30 O 0.94704 0.96311 0.49922 0.0
O31 O 0.97849 0.97787 0.58096 0.0
H32 H 0.94925 0.91983 0.25974 0.0
H33 H 0.95922 0.92951 0.17008 0.0
H34 H 0.00877 0.03015 0.22981 0.0
H35 H 0.99915 0.01984 0.31969 0.0
H36 H 0.06243 0.07941 0.75407 0.0
H37 H 0.05204 0.07015 0.84372 0.0
H38 H 1.00154 0.9699 0.78429 0.0
H39 H 0.01151 0.97981 0.69442 0.0
Pr40 Pr 0.25241 0.73345 0.73416 0.0
Pr41 Pr 0.22841 0.76916 0.8393 0.0
C42 C 0.25805 0.70208 0.6362 0.0
C43 C 0.25577 0.7106 0.58145 0.0
C44 C 0.27814 0.6942 0.54724 0.0
C45 C 0.27653 0.70175 0.49506 0.0
C46 C 0.2524 0.72585 0.47595 0.0
C47 C 0.23012 0.74244 0.5106 0.0
C48 C 0.23184 0.73495 0.5629 0.0
C49 C 0.29649 0.78676 0.78797 0.0
C50 C 0.19788 0.80134 0.7316 0.0
C51 C 0.22278 0.80048 0.9374 0.0
C52 C 0.22811 0.79337 0.9928 0.0
C53 C 0.20661 0.80953 0.02854 0.0
C54 C 0.21054 0.80281 0.08118 0.0
C55 C 0.23616 0.77976 0.09922 0.0
C56 C 0.25772 0.76355 0.06313 0.0
C57 C 0.2537 0.77026 1.01033 0.0
C58 C 0.18433 0.71561 0.78557 0.0
C59 C 0.28335 0.70195 0.8411 0.0
O60 O 0.22885 0.70216 0.6582 0.0
O61 O 0.285 0.71554 0.66825 0.0
O62 O 0.26356 0.78765 0.78136 0.0
O63 O 0.3081 0.75825 0.76431 0.0
O64 O 0.20417 0.80833 0.78339 0.0
O65 O 0.21083 0.77377 0.70525 0.0
O66 O 0.25077 0.80358 0.91325 0.0
O67 O 0.19681 0.78331 0.90766 0.0
O68 O 0.21727 0.71501 0.79208 0.0
O69 O 0.17274 0.74384 0.80995 0.0
O70 O 0.27327 0.69311 0.79041 0.0
O71 O 0.27316 0.73131 0.86661 0.0
H72 H 0.29697 0.67555 0.56095 0.0
H73 H 0.29452 0.68895 0.46988 0.0
H74 H 0.21097 0.76085 0.49714 0.0
H75 H 0.2144 0.74807 0.58873 0.0
H76 H 0.18653 0.82721 0.01559 0.0
H77 H 0.19307 0.81526 0.10753 0.0
H78 H 0.27793 0.74593 0.07575 0.0
H79 H 0.2705 0.75738 0.98326 0.0
Pr80 Pr 0.51861 0.99298 0.06442 0.0
Pr81 Pr 0.48803 0.01589 0.95322 0.0
C82 C 0.55301 0.9815 0.15819 0.0
C83 C 0.54544 0.98565 0.21354 0.0
C84 C 0.51296 0.99794 0.22685 0.0
C85 C 0.50582 1.00161 0.27948 0.0
C86 C 0.53109 0.99309 0.3199 0.0
C87 C 0.56367 0.98088 0.30617 0.0
C88 C 0.57074 0.9772 0.2535 0.0
C89 C 0.45729 0.95836 0.01703 0.0
C90 C 0.45521 0.04934 0.06245 0.0
C91 C 0.45421 0.02809 0.85937 0.0
C92 C 0.46203 0.02426 0.80415 0.0
C93 C 0.49456 0.01197 0.791 0.0
C94 C 0.50181 0.00836 0.73842 0.0
C95 C 0.47664 0.01692 0.69792 0.0
C96 C 0.44404 0.02918 0.71152 0.0
C97 C 0.43685 0.03282 0.76412 0.0
C98 C 0.54921 0.05047 1.00184 0.0
C99 C 0.55076 0.95894 0.95477 0.0
O100 O 0.55675 0.01049 0.13683 0.0
O101 O 0.53464 0.95713 0.12655 0.0
O102 O 0.48266 0.96645 0.99338 0.0
O103 O 0.4644 0.9648 0.0679 0.0
O104 O 0.44864 0.04021 1.01088 0.0
O105 O 0.48296 0.03851 0.09074 0.0
O106 O 0.45028 0.99893 0.88018 0.0
O107 O 0.4725 0.05224 0.89155 0.0
O108 O 0.52343 0.04243 0.0245 0.0
O109 O 0.54275 0.04388 0.9509 0.0
O110 O 0.55761 0.96811 1.00631 0.0
O111 O 0.52307 0.97002 0.92673 0.0
H112 H 0.49312 0.00473 0.19649 0.0
H113 H 0.48066 0.01153 0.28856 0.0
H114 H 0.58358 0.97365 0.33603 0.0
H115 H 0.59594 0.96759 0.24394 0.0
H116 H 0.51429 0.00507 0.82141 0.0
H117 H 0.52698 0.9984 0.72944 0.0
H118 H 0.42421 0.03646 0.68158 0.0
H119 H 0.41162 0.0424 0.77356 0.0
Pr120 Pr 0.26714 0.26975 0.30982 0.0
Pr121 Pr 0.23244 0.23869 0.19956 0.0
C122 C 0.28104 0.29731 0.41174 0.0
C123 C 0.27545 0.28946 0.46513 0.0
C124 C 0.29982 0.30224 0.50803 0.0
C125 C 0.29495 0.29555 0.55918 0.0
C126 C 0.26552 0.27588 0.56852 0.0
C127 C 0.24123 0.26286 0.52518 0.0
C128 C 0.24614 0.26961 0.47398 0.0
C129 C 0.30725 0.22108 0.2562 0.0
C130 C 0.21116 0.20044 0.29839 0.0
C131 C 0.21541 0.21297 0.09729 0.0
C132 C 0.22153 0.22035 0.04392 0.0
C133 C 0.19713 0.2079 1.00088 0.0
C134 C 0.20244 0.21431 0.94977 0.0
C135 C 0.23231 0.23339 0.94064 0.0
C136 C 0.25665 0.24604 0.98413 0.0
C137 C 0.25132 0.23954 0.03529 0.0
C138 C 0.19357 0.28768 0.25503 0.0
C139 C 0.29018 0.30646 0.2109 0.0
O140 O 0.25336 0.30494 0.38093 0.0
O141 O 0.30292 0.27758 0.38701 0.0
O142 O 0.27457 0.21797 0.2575 0.0
O143 O 0.32058 0.24893 0.28561 0.0
O144 O 0.21323 0.19549 0.24712 0.0
O145 O 0.22616 0.22804 0.3285 0.0
O146 O 0.2422 0.20247 0.12709 0.0
O147 O 0.19597 0.23493 0.12313 0.0
O148 O 0.22584 0.29066 0.251 0.0
O149 O 0.17982 0.25872 0.22936 0.0
O150 O 0.2872 0.31214 0.26183 0.0
O151 O 0.27514 0.27879 0.18096 0.0
H152 H 0.3227 0.31747 0.50197 0.0
H153 H 0.31449 0.3055 0.59135 0.0
H154 H 0.21809 0.24794 0.53088 0.0
H155 H 0.22695 0.25954 0.44139 0.0
H156 H 0.1739 0.19317 1.0068 0.0
H157 H 0.18286 0.20466 0.91747 0.0
H158 H 0.28011 0.2605 0.97857 0.0
H159 H 0.27052 0.2493 0.06803 0.0
Pr160 Pr 0.76999 0.23644 0.1984 0.0
Pr161 Pr 0.74594 0.27214 0.30413 0.0
C162 C 0.77441 0.20432 0.10044 0.0
C163 C 0.77127 0.21279 0.04575 0.0
C164 C 0.78348 0.18922 1.00655 0.0
C165 C 0.78115 0.19697 0.9544 0.0
C166 C 0.76653 0.22851 0.9405 0.0
C167 C 0.75422 0.25206 0.98011 0.0
C168 C 0.75665 0.24429 0.03232 0.0
C169 C 0.81396 0.2901 0.25151 0.0
C170 C 0.7146 0.30397 0.19697 0.0
C171 C 0.73995 0.3032 0.40232 0.0
C172 C 0.74517 0.29553 0.45737 0.0
C173 C 0.73312 0.31905 0.49675 0.0
C174 C 0.73652 0.31169 0.5491 0.0
C175 C 0.75203 0.28056 0.56305 0.0
C176 C 0.7645 0.2572 0.52334 0.0
C177 C 0.76104 0.26461 0.47089 0.0
C178 C 0.70268 0.21797 0.25013 0.0
C179 C 0.80168 0.20572 0.30627 0.0
O180 O 0.74551 0.2048 0.12322 0.0
O181 O 0.8016 0.21812 0.1316 0.0
O182 O 0.78095 0.29056 0.24588 0.0
O183 O 0.82552 0.26219 0.22613 0.0
O184 O 0.72154 0.31119 0.24861 0.0
O185 O 0.72755 0.27647 0.17031 0.0
O186 O 0.76813 0.3062 0.37863 0.0
O187 O 0.71413 0.28605 0.37218 0.0
O188 O 0.7356 0.21791 0.25709 0.0
O189 O 0.69058 0.24616 0.27391 0.0
O190 O 0.79218 0.19673 0.25538 0.0
O191 O 0.79086 0.23484 0.33151 0.0
H192 H 0.79482 0.16476 0.01627 0.0
H193 H 0.79043 0.17804 0.92485 0.0
H194 H 0.7432 0.27675 0.97093 0.0
H195 H 0.74727 0.2629 0.06223 0.0
H196 H 0.72084 0.34307 0.48695 0.0
H197 H 0.72715 0.33051 0.57871 0.0
H198 H 0.77626 0.23285 0.53258 0.0
H199 H 0.77035 0.24606 0.44083 0.0
Pr200 Pr 0.77348 0.77 0.82143 0.0
Pr201 Pr 0.74021 0.73856 0.70999 0.0
C202 C 0.7871 0.79795 0.92319 0.0
C203 C 0.78252 0.7899 0.97676 0.0
C204 C 0.80645 0.80416 0.01931 0.0
C205 C 0.8022 0.7976 0.0707 0.0
C206 C 0.77387 0.7766 0.08058 0.0
C207 C 0.7501 0.76201 0.03759 0.0
C208 C 0.75439 0.76863 0.98615 0.0
C209 C 0.8128 0.71915 0.77059 0.0
C210 C 0.71575 0.7021 0.80878 0.0
C211 C 0.72644 0.71049 0.60832 0.0
C212 C 0.73149 0.71819 0.55475 0.0
C213 C 0.70759 0.70408 0.51206 0.0
C214 C 0.71216 0.71044 0.4607 0.0
C215 C 0.74079 0.73111 0.45099 0.0
C216 C 0.76455 0.7455 0.49411 0.0
C217 C 0.75995 0.73907 0.54552 0.0
C218 C 0.70067 0.78893 0.76152 0.0
C219 C 0.79756 0.80659 0.72233 0.0
O220 O 0.7587 0.8041 0.89283 0.0
O221 O 0.80966 0.77937 0.89816 0.0
O222 O 0.77997 0.71744 0.77083 0.0
O223 O 0.82671 0.74695 0.79942 0.0
O224 O 0.71901 0.69659 0.75789 0.0
O225 O 0.7309 0.72952 0.8392 0.0
O226 O 0.75453 0.70376 0.63893 0.0
O227 O 0.70423 0.72976 0.63305 0.0
O228 O 0.73345 0.79097 0.76081 0.0
O229 O 0.68691 0.76111 0.73254 0.0
O230 O 0.7944 0.8121 0.77327 0.0
O231 O 0.78264 0.779 0.69211 0.0
H232 H 0.82841 0.82053 1.01279 0.0
H233 H 0.82131 0.80879 0.10268 0.0
H234 H 0.72779 0.74603 0.04375 0.0
H235 H 0.73556 0.75743 0.95381 0.0
H236 H 0.68538 0.68801 0.51846 0.0
H237 H 0.69305 0.6994 0.42861 0.0
H238 H 0.78708 0.76122 0.48807 0.0
H239 H 0.77876 0.75012 0.57798 0.0
Pr240 Pr 0.48818 0.48654 0.95413 0.0
Pr241 Pr 0.51997 0.51885 0.06436 0.0
C242 C 0.46048 0.4724 0.85231 0.0
C243 C 0.4682 0.4774 0.79867 0.0
C244 C 0.45419 0.45339 0.75601 0.0
C245 C 0.46058 0.45787 0.70459 0.0
C246 C 0.48119 0.4865 0.69477 0.0
C247 C 0.4955 0.51038 0.73787 0.0
C248 C 0.48902 0.50588 0.78934 0.0
C249 C 0.53881 0.44664 1.00398 0.0
C250 C 0.55589 0.54423 0.96606 0.0
C251 C 0.54856 0.53096 0.16595 0.0
C252 C 0.54047 0.52648 0.21962 0.0
C253 C 0.55461 0.55057 0.2621 0.0
C254 C 0.54803 0.54648 0.31357 0.0
C255 C 0.52711 0.51815 0.32365 0.0
C256 C 0.51265 0.49421 0.28073 0.0
C257 C 0.51929 0.49833 0.22922 0.0
C258 C 0.46846 0.55881 0.01606 0.0
C259 C 0.45149 0.46196 0.05226 0.0
O260 O 0.45339 0.50044 0.88289 0.0
O261 O 0.47993 0.45044 0.87715 0.0
O262 O 0.54123 0.47933 1.00283 0.0
O263 O 0.50976 0.43321 0.97827 0.0
O264 O 0.56185 0.54034 0.01661 0.0
O265 O 0.52807 0.52961 0.93612 0.0
O266 O 0.55367 0.50247 0.13488 0.0
O267 O 0.53086 0.55437 0.14164 0.0
O268 O 0.46682 0.52594 0.01564 0.0
O269 O 0.49659 0.57244 0.04432 0.0
O270 O 0.44578 0.4657 1.00161 0.0
O271 O 0.47934 0.47645 0.08232 0.0
H272 H 0.43817 0.43117 0.76245 0.0
H273 H 0.44962 0.43866 0.67256 0.0
H274 H 0.51118 0.53291 0.73178 0.0
H275 H 0.50001 0.52477 0.82176 0.0
H276 H 0.57091 0.57254 0.25548 0.0
H277 H 0.55912 0.56573 0.34544 0.0
H278 H 0.49673 0.47189 0.28701 0.0
H279 H 0.50817 0.47936 0.19698 0.0
Pr280 Pr 0.02198 0.48796 0.57472 0.0
Pr281 Pr 0.98354 0.50721 0.46696 0.0
C282 C 0.05458 0.48756 0.67342 0.0
C283 C 0.04603 0.49184 0.72816 0.0
C284 C 0.01129 0.49603 0.73939 0.0
C285 C 0.00342 0.49859 0.79163 0.0
C286 C 0.03018 0.49709 0.83354 0.0
C287 C 0.06501 0.49336 0.82187 0.0
C288 C 0.07281 0.49074 0.76967 0.0
C289 C 0.96767 0.44226 0.52757 0.0
C290 C 0.95405 0.54202 0.57419 0.0
C291 C 0.95021 0.50723 0.36875 0.0
C292 C 0.95873 0.50445 0.31402 0.0
C293 C 0.99351 0.5011 0.30258 0.0
C294 C 1.00128 0.4994 0.25035 0.0
C295 C 0.97438 0.50097 0.20866 0.0
C296 C 0.93954 0.50406 0.22056 0.0
C297 C 0.93184 0.5058 0.27275 0.0
C298 C 0.03716 0.55341 0.51453 0.0
C299 C 0.05273 0.45407 0.46754 0.0
O300 O 0.05294 0.51555 0.64865 0.0
O301 O 0.04171 0.45931 0.64389 0.0
O302 O 0.96731 0.47515 0.53016 0.0
O303 O 0.99592 0.43179 0.55325 0.0
O304 O 0.9443 0.53038 0.52416 0.0
O305 O 0.98385 0.53278 0.59935 0.0
O306 O 0.95387 0.4789 0.39261 0.0
O307 O 0.96134 0.53585 0.39903 0.0
O308 O 0.03801 0.5205 0.51178 0.0
O309 O 0.00884 0.56357 0.48852 0.0
O310 O 0.06076 0.46286 0.51877 0.0
O311 O 0.0243 0.46517 0.44092 0.0
H312 H 0.99028 0.49704 0.70774 0.0
H313 H 0.9764 0.50191 0.79921 0.0
H314 H 0.0862 0.49165 0.85298 0.0
H315 H 0.09976 0.4874 0.76165 0.0
H316 H 0.01461 0.49993 0.33405 0.0
H317 H 0.02831 0.49657 0.24261 0.0
H318 H 0.91823 0.50582 0.18964 0.0
H319 H 0.90486 0.5085 0.28093 0.0
H320 H 0.06072 0.04398 0.35761 0.0
H321 H 0.20788 0.19708 0.40369 0.0
H322 H 0.1109 0.08545 0.51154 0.0
H323 H 0.16821 0.14567 0.24968 0.0
H324 H 0.17247 0.15659 0.44381 0.0
H325 H 0.0997 0.08102 0.3174 0.0
C326 C 0.07999 0.06079 0.38303 0.0
C327 C 0.08238 0.06167 0.43815 0.0
C328 C 0.17161 0.15404 0.40125 0.0
C329 C 0.12715 0.10433 0.39215 0.0
C330 C 0.19178 0.17725 0.37823 0.0
C331 C 0.19094 0.17493 0.32312 0.0
C332 C 0.15017 0.12839 0.36901 0.0
C333 C 0.16971 0.14848 0.29229 0.0
C334 C 0.10232 0.08192 0.35995 0.0
C335 C 0.10806 0.08388 0.46892 0.0
N336 N 0.15003 0.12638 0.31565 0.0
N337 N 0.12929 0.10446 0.44551 0.0
H338 H 0.10911 0.95423 0.53354 0.0
H339 H 0.13928 0.83394 0.76076 0.0
H340 H 0.02255 0.89137 0.56823 0.0
H341 H 0.20524 0.82161 0.63484 0.0
H342 H 0.10018 0.87034 0.70822 0.0
H343 H 0.14951 0.92044 0.58874 0.0
C344 C 0.09868 0.93349 0.55309 0.0
C345 C 0.06266 0.9252 0.54619 0.0
C346 C 0.12341 0.85981 0.69253 0.0
C347 C 0.10814 0.88766 0.60996 0.0
C348 C 0.14572 0.8393 0.72239 0.0
C349 C 0.17539 0.82484 0.70191 0.0
C350 C 0.13157 0.86675 0.6428 0.0
C351 C 0.18249 0.83223 0.65181 0.0
C352 C 0.12163 0.9143 0.58424 0.0
C353 C 0.05027 0.8982 0.57226 0.0
N354 N 0.16087 0.85303 0.62404 0.0
N355 N 0.07297 0.88055 0.60356 0.0
H356 H 0.3604 0.77616 0.83995 0.0
H357 H 0.40588 0.9732 0.94251 0.0
H358 H 0.282 0.85448 0.82017 0.0
H359 H 0.44519 0.89072 0.0316 0.0
H360 H 0.3634 0.9311 0.88966 0.0
H361 H 0.39639 0.81871 0.90267 0.0
C362 C 0.35094 0.8024 0.84867 0.0
C363 C 0.3185 0.81214 0.82481 0.0
C364 C 0.38099 0.92241 0.92131 0.0
C365 C 0.35928 0.86057 0.89574 0.0
C366 C 0.40512 0.94626 0.95115 0.0
C367 C 0.42865 0.93507 0.99105 0.0
C368 C 0.38138 0.88713 0.93073 0.0
C369 C 0.42705 0.90011 1.00123 0.0
C370 C 0.37124 0.82645 0.8847 0.0
C371 C 0.30704 0.8462 0.83778 0.0
N372 N 0.4041 0.87707 0.97055 0.0
N373 N 0.32768 0.86948 0.87201 0.0
H374 H 0.38675 0.06447 0.03048 0.0
H375 H 0.37826 0.22022 0.26046 0.0
H376 H 0.47056 0.08981 0.15656 0.0
H377 H 0.28447 0.16347 0.18669 0.0
H378 H 0.4135 0.17788 0.21247 0.0
H379 H 0.34939 0.10592 0.07748 0.0
C380 C 0.39728 0.07873 0.06789 0.0
C381 C 0.43179 0.07368 0.08967 0.0
C382 C 0.38519 0.17469 0.20677 0.0
C383 C 0.38958 0.12113 0.14288 0.0
C384 C 0.36508 0.19886 0.23403 0.0
C385 C 0.32842 0.19533 0.22738 0.0
C386 C 0.36854 0.14708 0.17193 0.0
C387 C 0.31268 0.16718 0.19262 0.0
C388 C 0.37594 0.10219 0.0947 0.0
C389 C 0.44408 0.09272 0.13837 0.0
N390 N 0.33286 0.14416 0.16581 0.0
N391 N 0.42311 0.11577 0.16308 0.0
H392 H 0.89747 0.91813 0.50182 0.0
H393 H 0.8407 0.86105 0.77163 0.0
H394 H 0.9481 0.95844 0.65603 0.0
H395 H 0.80198 0.80959 0.61725 0.0
H396 H 0.87638 0.90081 0.73006 0.0
H397 H 0.85829 0.88207 0.54364 0.0
C398 C 0.90026 0.91958 0.54446 0.0
C399 C 0.92627 0.94127 0.57538 0.0
C400 C 0.86001 0.88083 0.70531 0.0
C401 C 0.88148 0.89997 0.62355 0.0
C402 C 0.83956 0.85816 0.72902 0.0
C403 C 0.81843 0.83175 0.69795 0.0
C404 C 0.85918 0.87723 0.6501 0.0
C405 C 0.81806 0.82932 0.64288 0.0
C406 C 0.87792 0.89889 0.56832 0.0
C407 C 0.9286 0.94199 0.63051 0.0
N408 N 0.83813 0.85171 0.62077 0.0
N409 N 0.90656 0.92162 0.65278 0.0
H410 H 0.91451 0.03357 0.43406 0.0
H411 H 0.841 0.22364 0.40102 0.0
H412 H 0.96921 0.12884 0.50644 0.0
H413 H 0.81676 0.13656 0.27966 0.0
H414 H 0.88163 0.18699 0.44908 0.0
H415 H 0.87223 0.06886 0.3851 0.0
C416 C 0.91765 0.06186 0.43952 0.0
C417 C 0.9455 0.07834 0.47401 0.0
C418 C 0.8674 0.17591 0.41195 0.0
C419 C 0.89703 0.11867 0.41932 0.0
C420 C 0.84406 0.19674 0.38457 0.0
C421 C 0.82551 0.18317 0.33612 0.0
C422 C 0.87188 0.14103 0.39127 0.0
C423 C 0.83069 0.14813 0.31672 0.0
C424 C 0.89357 0.08192 0.41165 0.0
C425 C 0.94818 0.11508 0.48012 0.0
N426 N 0.8533 0.12816 0.34451 0.0
N427 N 0.92414 0.13401 0.45331 0.0
H428 H 0.63807 0.22801 0.19972 0.0
H429 H 0.60411 0.03353 0.06888 0.0
H430 H 0.71975 0.15227 0.21119 0.0
H431 H 0.55625 0.12028 0.99836 0.0
H432 H 0.64469 0.07494 0.12684 0.0
H433 H 0.60409 0.18712 0.13206 0.0
C434 C 0.64868 0.20265 0.18817 0.0
C435 C 0.6815 0.19321 0.21107 0.0
C436 C 0.62575 0.08482 0.09797 0.0
C437 C 0.64302 0.14662 0.13421 0.0
C438 C 0.6028 0.06131 0.06503 0.0
C439 C 0.57743 0.07384 0.02889 0.0
C440 C 0.62232 0.12096 0.09548 0.0
C441 C 0.576 0.10988 0.02549 0.0
C442 C 0.62951 0.17955 0.1493 0.0
C443 C 0.69439 0.1603 0.19443 0.0
N444 N 0.59788 0.13238 0.05906 0.0
N445 N 0.67491 0.13792 0.15725 0.0
H446 H 0.7246 0.84683 0.82972 0.0
H447 H 0.53417 0.91833 0.86122 0.0
H448 H 0.62982 0.7904 0.75937 0.0
H449 H 0.61959 0.94365 0.98477 0.0
H450 H 0.57149 0.87764 0.8149 0.0
H451 H 0.68895 0.88862 0.87932 0.0
C452 C 0.69635 0.84319 0.82488 0.0
C453 C 0.68008 0.81501 0.79079 0.0
C454 C 0.58208 0.89205 0.85217 0.0
C455 C 0.63943 0.86287 0.84611 0.0
C456 C 0.56087 0.91544 0.87859 0.0
C457 C 0.57378 0.9344 0.92705 0.0
C458 C 0.61675 0.88787 0.87376 0.0
C459 C 0.60857 0.92937 0.94765 0.0
C460 C 0.67611 0.86698 0.85313 0.0
C461 C 0.64341 0.81172 0.78532 0.0
N462 N 0.62902 0.90669 0.92067 0.0
N463 N 0.62432 0.83548 0.81243 0.0
H464 H 0.55834 0.55052 0.86128 0.0
H465 H 0.71066 0.69853 0.91364 0.0
H466 H 0.61023 0.58697 0.01624 0.0
H467 H 0.67146 0.64905 0.75825 0.0
H468 H 0.6731 0.65895 0.95195 0.0
H469 H 0.59846 0.58747 0.82285 0.0
C470 C 0.57816 0.56627 0.88728 0.0
C471 C 0.58078 0.5657 0.94216 0.0
C472 C 0.67281 0.65664 0.90948 0.0
C473 C 0.62687 0.60818 0.89828 0.0
C474 C 0.6942 0.67933 0.88751 0.0
C475 C 0.69416 0.67726 0.83256 0.0
C476 C 0.65094 0.6318 0.87631 0.0
C477 C 0.67241 0.65162 0.8008 0.0
C478 C 0.60116 0.5873 0.86524 0.0
C479 C 0.60721 0.58653 0.97375 0.0
N480 N 0.65155 0.63005 0.82312 0.0
N481 N 0.62909 0.60704 0.95139 0.0
H482 H 0.718 0.32484 0.09912 0.0
H483 H 0.52714 0.3896 0.05378 0.0
H484 H 0.65587 0.33376 0.22973 0.0
H485 H 0.6099 0.45749 0.01937 0.0
H486 H 0.57124 0.35583 0.10223 0.0
H487 H 0.67575 0.36151 0.05204 0.0
C488 C 0.69551 0.33455 0.11778 0.0
C489 C 0.69039 0.3266 0.1684 0.0
C490 C 0.57959 0.37809 0.08388 0.0
C491 C 0.642 0.36718 0.11459 0.0
C492 C 0.55462 0.39719 0.0562 0.0
C493 C 0.5651 0.42623 0.03277 0.0
C494 C 0.61522 0.38746 0.08645 0.0
C495 C 0.60094 0.43526 0.03719 0.0
C496 C 0.67165 0.35544 0.09111 0.0
C497 C 0.66087 0.33967 0.19096 0.0
N498 N 0.62492 0.41559 0.06299 0.0
N499 N 0.63743 0.35892 0.16356 0.0
H500 H 0.97515 0.37297 0.49576 0.0
H501 H 0.79617 0.35237 0.30275 0.0
H502 H 0.90556 0.45885 0.47503 0.0
H503 H 0.88162 0.28114 0.29057 0.0
H504 H 0.83256 0.38946 0.3728 0.0
H505 H 0.93708 0.33586 0.42833 0.0
C506 C 0.95164 0.38387 0.47733 0.0
C507 C 0.94341 0.41893 0.49066 0.0
C508 C 0.84335 0.3658 0.35455 0.0
C509 C 0.89999 0.37688 0.4136 0.0
C510 C 0.82267 0.34473 0.31467 0.0
C511 C 0.83608 0.31385 0.29096 0.0
C512 C 0.87742 0.35558 0.37103 0.0
C513 C 0.87044 0.30491 0.30773 0.0
C514 C 0.93009 0.3628 0.43865 0.0
C515 C 0.91277 0.43189 0.46559 0.0
N516 N 0.88991 0.32561 0.34702 0.0
N517 N 0.89209 0.41083 0.42812 0.0
H518 H 0.88377 0.71639 0.77373 0.0
H519 H 0.88457 0.556 0.54838 0.0
H520 H 0.78832 0.66096 0.7039 0.0
H521 H 0.97294 0.5845 0.66575 0.0
H522 H 0.84918 0.59851 0.59687 0.0
H523 H 0.91758 0.67236 0.72617 0.0
C524 C 0.86994 0.69494 0.74831 0.0
C525 C 0.83323 0.69234 0.7425 0.0
C526 C 0.87628 0.59523 0.61196 0.0
C527 C 0.87168 0.64213 0.68763 0.0
C528 C 0.8965 0.57112 0.58429 0.0
C529 C 0.93173 0.56667 0.60309 0.0
C530 C 0.89166 0.6154 0.65809 0.0
C531 C 0.94585 0.5869 0.6499 0.0
C532 C 0.88923 0.66981 0.72129 0.0
C533 C 0.81661 0.66402 0.7091 0.0
N534 N 0.92586 0.61055 0.67554 0.0
N535 N 0.83597 0.64007 0.68255 0.0
H536 H 0.29546 0.30922 0.10586 0.0
H537 H 0.44852 0.45641 0.15709 0.0
H538 H 0.33426 0.35983 0.26074 0.0
H539 H 0.39696 0.41942 1.00212 0.0
H540 H 0.4079 0.42015 0.19569 0.0
H541 H 0.33329 0.34831 0.06706 0.0
C542 C 0.31186 0.32858 0.13176 0.0
C543 C 0.31174 0.33111 0.18672 0.0
C544 C 0.40537 0.42005 0.15325 0.0
C545 C 0.35527 0.37596 0.14243 0.0
C546 C 0.42866 0.44069 0.13112 0.0
C547 C 0.42628 0.4409 0.0762 0.0
C548 C 0.37961 0.39919 0.12028 0.0
C549 C 0.39979 0.42013 0.04464 0.0
C550 C 0.33341 0.35098 0.10951 0.0
C551 C 0.33344 0.35691 0.21819 0.0
N552 N 0.37762 0.39998 0.06711 0.0
N553 N 0.35446 0.37818 0.19562 0.0
H554 H 0.46267 0.62991 0.02819 0.0
H555 H 0.29781 0.63323 0.81205 0.0
H556 H 0.40982 0.53507 0.95023 0.0
H557 H 0.32536 0.71921 0.93407 0.0
H558 H 0.34169 0.5976 0.85646 0.0
H559 H 0.41575 0.66419 0.98808 0.0
C560 C 0.44118 0.61632 1.00258 0.0
C561 C 0.44014 0.57964 0.99231 0.0
C562 C 0.33791 0.62418 0.87366 0.0
C563 C 0.38661 0.61864 0.94602 0.0
C564 C 0.31294 0.64456 0.84831 0.0
C565 C 0.30792 0.67926 0.86938 0.0
C566 C 0.35845 0.63881 0.91986 0.0
C567 C 0.32823 0.69254 0.91654 0.0
C568 C 0.41438 0.63587 0.97989 0.0
C569 C 0.41168 0.56333 0.95893 0.0
N570 N 0.35285 0.67242 0.9399 0.0
N571 N 0.38614 0.58296 0.93661 0.0
H572 H 0.11596 0.72236 0.74814 0.0
H573 H 0.09952 0.53812 0.56801 0.0
H574 H 0.203 0.65309 0.73612 0.0
H575 H 0.02788 0.62226 0.54645 0.0
H576 H 0.136 0.57725 0.63532 0.0
H577 H 0.08068 0.68273 0.68063 0.0
C578 C 0.12751 0.69864 0.7315 0.0
C579 C 0.16233 0.69086 0.7475 0.0
C580 C 0.11242 0.58716 0.61554 0.0
C581 C 0.12234 0.6456 0.67039 0.0
C582 C 0.09168 0.56492 0.57722 0.0
C583 C 0.06079 0.57712 0.55184 0.0
C584 C 0.10184 0.6216 0.62874 0.0
C585 C 0.05162 0.61193 0.56508 0.0
C586 C 0.10749 0.67618 0.69278 0.0
C587 C 0.17619 0.65993 0.72465 0.0
N588 N 0.07196 0.63293 0.60295 0.0
N589 N 0.15609 0.63831 0.68717 0.0
H590 H 0.20455 0.35843 0.27353 0.0
H591 H 0.08548 0.39664 0.50016 0.0
H592 H 0.13944 0.27424 0.31036 0.0
H593 H 0.07209 0.45835 0.36949 0.0
H594 H 0.12108 0.35567 0.44885 0.0
H595 H 0.17116 0.40051 0.32689 0.0
C596 C 0.18335 0.34889 0.29309 0.0
C597 C 0.17433 0.31306 0.2874 0.0
C598 C 0.11049 0.37839 0.43186 0.0
C599 C 0.13732 0.3604 0.34913 0.0
C600 C 0.09048 0.40175 0.461 0.0
C601 C 0.07598 0.43074 0.43878 0.0
C602 C 0.11686 0.38486 0.38111 0.0
C603 C 0.08281 0.43616 0.38775 0.0
C604 C 0.16442 0.37278 0.32321 0.0
C605 C 0.1468 0.30179 0.31347 0.0
N606 N 0.10315 0.41356 0.36066 0.0
N607 N 0.1294 0.32541 0.34384 0.0
H608 H 0.07108 0.03503 0.91256 0.0
H609 H 0.9397 0.96475 0.10141 0.0
H610 H 0.96827 0.98989 0.85624 0.0
H611 H 0.04227 0.01046 0.1578 0.0
H612 H 0.94978 0.97353 1.01153 0.0
H613 H 0.06092 0.02639 1.00245 0.0
C614 C 0.04626 0.02346 0.91902 0.0
C615 C 0.02045 0.01331 0.87648 0.0
C616 C 0.97009 0.98167 0.04353 0.0
C617 C 0.00879 0.00295 0.97981 0.0
C618 C 0.96444 0.97648 0.09496 0.0
C619 C 0.99021 0.98674 0.13752 0.0
C620 C 1.00179 0.99724 0.03421 0.0
C621 C 0.02146 1.00245 0.12652 0.0
C622 C 0.04056 0.01836 0.97047 0.0
C623 C 0.98911 0.99781 0.88751 0.0
N624 N 0.02638 0.00713 0.07605 0.0
N625 N 0.98416 0.99318 0.93798 0.0
H626 H 0.25807 0.67991 0.38724 0.0
H627 H 0.23195 0.82598 0.18806 0.0
H628 H 0.24238 0.78926 0.43701 0.0
H629 H 0.24887 0.71687 0.13848 0.0
H630 H 0.23599 0.81308 0.27942 0.0
H631 H 0.25555 0.69308 0.29616 0.0
C632 C 0.2543 0.70675 0.37915 0.0
C633 C 0.25051 0.73351 0.42011 0.0
C634 C 0.2389 0.79195 0.2486 0.0
C635 C 0.24713 0.74872 0.3154 0.0
C636 C 0.23641 0.79926 0.1963 0.0
C637 C 0.23993 0.77245 0.15529 0.0
C638 C 0.24496 0.75755 0.26025 0.0
C639 C 0.24634 0.73847 0.1687 0.0
C640 C 0.25266 0.71421 0.32698 0.0
C641 C 0.24501 0.76767 0.40682 0.0
N642 N 0.24854 0.73199 0.21993 0.0
N643 N 0.24352 0.77427 0.3557 0.0
H644 H 0.43253 0.99293 0.60872 0.0
H645 H 0.57526 0.01702 0.40909 0.0
H646 H 0.53831 0.03215 0.65884 0.0
H647 H 0.4695 0.97772 0.35907 0.0
H648 H 0.56234 0.02243 0.50068 0.0
H649 H 0.44551 0.98743 0.51717 0.0
C650 C 0.45844 1.00059 0.60055 0.0
C651 C 0.48432 0.0131 0.64183 0.0
C652 C 0.54194 0.01263 0.46969 0.0
C653 C 0.49951 0.00649 0.53664 0.0
C654 C 0.54937 0.00933 0.41729 0.0
C655 C 0.52347 0.99684 0.37603 0.0
C656 C 0.50835 0.00334 0.48125 0.0
C657 C 0.4902 0.98789 0.38932 0.0
C658 C 0.4659 0.99724 0.54817 0.0
C659 C 0.51762 0.02198 0.62858 0.0
N660 N 0.48364 0.99127 0.44063 0.0
N661 N 0.52421 0.01857 0.57727 0.0
H662 H 0.25776 0.29345 0.90744 0.0
H663 H 0.24104 0.21545 0.60192 0.0
H664 H 0.21964 0.18839 0.84893 0.0
H665 H 0.27797 0.32093 0.66024 0.0
H666 H 0.23296 0.20507 0.69202 0.0
H667 H 0.26611 0.30372 0.81739 0.0
C668 C 0.25134 0.27244 0.87577 0.0
C669 C 0.23791 0.23999 0.886 0.0
C670 C 0.24284 0.23049 0.68512 0.0
C671 C 0.24709 0.25175 0.78237 0.0
C672 C 0.24727 0.23653 0.63356 0.0
C673 C 0.26026 0.26914 0.62324 0.0
C674 C 0.2514 0.25725 0.72693 0.0
C675 C 0.26837 0.29521 0.66619 0.0
C676 C 0.25591 0.27841 0.82423 0.0
C677 C 0.22958 0.21398 0.84302 0.0
N678 N 0.2638 0.28871 0.71599 0.0
N679 N 0.23431 0.22042 0.79324 0.0
H680 H 0.7123 0.25848 0.88385 0.0
H681 H 0.80684 0.2513 0.61981 0.0
H682 H 0.81533 0.21717 0.87029 0.0
H683 H 0.70323 0.29116 0.63326 0.0
H684 H 0.81049 0.23849 0.71136 0.0
H685 H 0.70886 0.27129 0.79241 0.0
C686 C 0.73431 0.25229 0.86179 0.0
C687 C 0.76415 0.2367 0.88493 0.0
C688 C 0.78696 0.25005 0.69428 0.0
C689 C 0.76024 0.25099 0.77977 0.0
C690 C 0.78477 0.2572 0.64187 0.0
C691 C 0.75471 0.27242 0.61868 0.0
C692 C 0.75885 0.25811 0.72386 0.0
C693 C 0.72715 0.27992 0.64959 0.0
C694 C 0.73224 0.25943 0.80941 0.0
C695 C 0.79161 0.22877 0.85398 0.0
N696 N 0.72989 0.27269 0.70046 0.0
N697 N 0.789 0.23602 0.8031 0.0
H698 H 0.73098 0.68445 0.36092 0.0
H699 H 0.78363 0.82326 0.17067 0.0
H700 H 0.76222 0.79201 0.41569 0.0
H701 H 0.753 0.71553 0.11602 0.0
H702 H 0.77618 0.81224 0.2606 0.0
H703 H 0.73863 0.6954 0.27103 0.0
C704 C 0.73927 0.71045 0.35407 0.0
C705 C 0.74585 0.73737 0.3961 0.0
C706 C 0.77109 0.79099 0.22896 0.0
C707 C 0.75506 0.75001 0.29298 0.0
C708 C 0.77554 0.7972 0.17756 0.0
C709 C 0.76905 0.77026 0.13553 0.0
C710 C 0.76005 0.75755 0.2387 0.0
C711 C 0.75795 0.73722 0.14695 0.0
C712 C 0.74383 0.71663 0.30268 0.0
C713 C 0.75719 0.77034 0.38474 0.0
N714 N 0.75386 0.7318 0.19737 0.0
N715 N 0.76136 0.77573 0.33434 0.0
H716 H 0.43472 0.47609 0.6046 0.0
H717 H 0.57356 0.52864 0.41386 0.0
H718 H 0.54203 0.50823 0.65928 0.0
H719 H 0.4661 0.49701 0.3593 0.0
H720 H 0.56243 0.52159 0.5039 0.0
H721 H 0.44578 0.48339 0.51461 0.0
C722 C 0.46069 0.4845 0.59772 0.0
C723 C 0.48751 0.49143 0.63978 0.0
C724 C 0.54126 0.51619 0.47226 0.0
C725 C 0.50027 0.50023 0.53648 0.0
C726 C 0.54754 0.52041 0.42077 0.0
C727 C 0.52071 0.51353 0.37871 0.0
C728 C 0.50787 0.50499 0.48209 0.0
C729 C 0.48771 0.50226 0.39022 0.0
C730 C 0.46693 0.48886 0.54626 0.0
C731 C 0.52043 0.50292 0.62834 0.0
N732 N 0.48224 0.49841 0.44072 0.0
N733 N 0.52588 0.50689 0.57786 0.0
H734 H 0.06685 0.53174 0.92303 0.0
H735 H 0.93771 0.46651 0.11905 0.0
H736 H 0.9746 0.46595 0.87098 0.0
H737 H 0.02959 0.53282 0.17121 0.0
H738 H 0.9507 0.46618 0.02803 0.0
H739 H 0.0537 0.53242 0.01407 0.0
C740 C 0.04388 0.51733 0.9307 0.0
C741 C 0.02185 0.4987 0.88909 0.0
C742 C 0.96805 0.4808 0.05936 0.0
C743 C 0.00646 0.49958 0.99356 0.0
C744 C 0.96055 0.48115 0.11141 0.0
C745 C 0.98252 0.49979 0.15306 0.0
C746 C 0.99777 0.49926 0.04857 0.0
C747 C 0.0121 0.51773 0.14059 0.0
C748 C 0.03629 0.51786 0.98275 0.0
C749 C 0.99213 0.48102 0.90157 0.0
N750 N 0.0188 0.51707 0.08957 0.0
N751 N 0.98538 0.48183 0.95258 0.0
loop_
_geom_bond_atom_site_label_1
_geom_bond_atom_site_label_2
_geom_bond_distance
_geom_bond_site_symmetry_2
_ccdc_geom_bond_type
Pr0 C2 2.880 1_655 S
Pr0 O20 2.562 . S
Pr0 O21 2.490 1_655 S
Pr0 O22 2.695 1_655 S
Pr0 O23 2.512 1_655 S
Pr0 O25 2.437 1_665 S
Pr0 O28 2.436 1_565 S
Pr0 O30 2.438 . S
Pr1 C11 2.880 1_455 S
Pr1 O22 2.436 1_545 S
Pr1 O24 2.438 . S
Pr1 O26 2.562 . S
Pr1 O27 2.490 1_455 S
Pr1 O28 2.695 1_455 S
Pr1 O29 2.512 1_455 S
Pr1 O31 2.437 1_445 S
C2 Pr0 2.880 1_455 S
C2 C3 1.491 . S
C2 O20 1.254 1_455 S
C2 O21 1.225 . S
C3 C2 1.491 . S
C3 C4 1.392 . S
C3 C8 1.353 . S
C4 C3 1.392 . S
C4 C5 1.368 . S
C4 H32 0.929 . S
C5 C4 1.368 . S
C5 C6 1.386 . S
C5 H33 0.929 . S
C6 C5 1.386 . S
C6 C7 1.368 1_565 S
C7 C6 1.368 1_545 S
C7 C8 1.408 1_545 S
C7 H34 0.937 . S
C8 C3 1.353 . S
C8 C7 1.408 1_565 S
C8 H35 0.932 1_465 S
C9 O22 1.270 . S
C9 O23 1.248 . S
C10 O24 1.267 . S
C10 O25 1.278 . S
C11 Pr1 2.880 1_655 S
C11 C12 1.491 . S
C11 O26 1.254 1_655 S
C11 O27 1.225 . S
C12 C11 1.491 . S
C12 C13 1.392 . S
C12 C17 1.360 . S
C13 C12 1.392 . S
C13 C14 1.368 . S
C13 H36 0.929 . S
C14 C13 1.368 . S
C14 C15 1.386 . S
C14 H37 0.929 . S
C15 C14 1.386 . S
C15 C16 1.373 1_545 S
C16 C15 1.373 1_565 S
C16 C17 1.408 1_565 S
C16 H38 0.930 . S
C17 C12 1.360 . S
C17 C16 1.408 1_545 S
C17 H39 0.927 1_645 S
C18 O28 1.270 . S
C18 O29 1.248 . S
C19 O30 1.267 . S
C19 O31 1.278 . S
O20 Pr0 2.562 . S
O20 C2 1.254 1_655 S
O21 Pr0 2.490 1_455 S
O21 C2 1.225 . S
O22 Pr0 2.695 1_455 S
O22 Pr1 2.436 1_565 S
O22 C9 1.270 . S
O23 Pr0 2.512 1_455 S
O23 C9 1.248 . S
O24 Pr1 2.438 . S
O24 C10 1.267 . S
O25 Pr0 2.437 1_445 S
O25 C10 1.278 . S
O26 Pr1 2.562 . S
O26 C11 1.254 1_455 S
O27 Pr1 2.490 1_655 S
O27 C11 1.225 . S
O28 Pr0 2.436 1_545 S
O28 Pr1 2.695 1_655 S
O28 C18 1.270 . S
O29 Pr1 2.512 1_655 S
O29 C18 1.248 . S
O30 Pr0 2.438 . S
O30 C19 1.267 . S
O31 Pr1 2.437 1_665 S
O31 C19 1.278 . S
H32 C4 0.929 . S
H33 C5 0.929 . S
H34 C7 0.937 . S
H35 C8 0.932 1_645 S
H36 C13 0.929 . S
H37 C14 0.929 . S
H38 C16 0.930 . S
H39 C17 0.927 1_465 S
Pr40 C42 2.880 . S
Pr40 O60 2.562 . S
Pr40 O61 2.490 . S
Pr40 O62 2.695 . S
Pr40 O63 2.512 . S
Pr40 O65 2.437 . S
Pr40 O68 2.436 . S
Pr40 O70 2.438 . S
Pr41 C51 2.880 . S
Pr41 O62 2.436 . S
Pr41 O64 2.438 . S
Pr41 O66 2.562 . S
Pr41 O67 2.490 . S
Pr41 O68 2.695 . S
Pr41 O69 2.512 . S
Pr41 O71 2.437 . S
C42 Pr40 2.880 . S
C42 C43 1.491 . S
C42 O60 1.254 . S
C42 O61 1.225 . S
C43 C42 1.491 . S
C43 C44 1.392 . S
C43 C48 1.356 . S
C44 C43 1.392 . S
C44 C45 1.368 . S
C44 H72 0.929 . S
C45 C44 1.368 . S
C45 C46 1.386 . S
C45 H73 0.929 . S
C46 C45 1.386 . S
C46 C47 1.373 . S
C47 C46 1.373 . S
C47 C48 1.409 . S
C47 H74 0.931 . S
C48 C43 1.356 . S
C48 C47 1.409 . S
C48 H75 0.930 . S
C49 O62 1.270 . S
C49 O63 1.248 . S
C50 O64 1.267 . S
C50 O65 1.278 . S
C51 Pr41 2.880 . S
C51 C52 1.491 . S
C51 O66 1.254 . S
C51 O67 1.225 . S
C52 C51 1.491 . S
C52 C53 1.392 . S
C52 C57 1.354 1_556 S
C53 C52 1.392 . S
C53 C54 1.368 1_556 S
C53 H76 0.929 . S
C54 C53 1.368 1_554 S
C54 C55 1.386 . S
C54 H77 0.929 . S
C55 C54 1.386 . S
C55 C56 1.373 . S
C56 C55 1.373 . S
C56 C57 1.413 . S
C56 H78 0.931 . S
C57 C52 1.354 1_554 S
C57 C56 1.413 . S
C57 H79 0.928 1_554 S
C58 O68 1.270 . S
C58 O69 1.248 . S
C59 O70 1.267 . S
C59 O71 1.278 . S
O60 Pr40 2.562 . S
O60 C42 1.254 . S
O61 Pr40 2.490 . S
O61 C42 1.225 . S
O62 Pr40 2.695 . S
O62 Pr41 2.436 . S
O62 C49 1.270 . S
O63 Pr40 2.512 . S
O63 C49 1.248 . S
O64 Pr41 2.438 . S
O64 C50 1.267 . S
O65 Pr40 2.437 . S
O65 C50 1.278 . S
O66 Pr41 2.562 . S
O66 C51 1.254 . S
O67 Pr41 2.490 . S
O67 C51 1.225 . S
O68 Pr40 2.436 . S
O68 Pr41 2.695 . S
O68 C58 1.270 . S
O69 Pr41 2.512 . S
O69 C58 1.248 . S
O70 Pr40 2.438 . S
O70 C59 1.267 . S
O71 Pr41 2.437 . S
O71 C59 1.278 . S
H72 C44 0.929 . S
H73 C45 0.929 . S
H74 C47 0.931 . S
H75 C48 0.930 . S
H76 C53 0.929 . S
H77 C54 0.929 . S
H78 C56 0.931 . S
H79 C57 0.928 1_556 S
Pr80 C82 2.880 . S
Pr80 O100 2.562 1_565 S
Pr80 O101 2.490 . S
Pr80 O102 2.695 1_554 S
Pr80 O103 2.512 . S
Pr80 O105 2.437 1_565 S
Pr80 O108 2.436 1_565 S
Pr80 O110 2.438 1_554 S
Pr81 C91 2.880 . S
Pr81 O102 2.436 1_545 S
Pr81 O104 2.438 1_556 S
Pr81 O106 2.562 1_545 S
Pr81 O107 2.490 . S
Pr81 O108 2.695 1_556 S
Pr81 O109 2.512 . S
Pr81 O111 2.437 1_545 S
C82 Pr80 2.880 . S
C82 C83 1.491 . S
C82 O100 1.254 1_565 S
C82 O101 1.225 . S
C83 C82 1.491 . S
C83 C84 1.392 . S
C83 C88 1.356 1_565 S
C84 C83 1.392 . S
C84 C85 1.368 . S
C84 H112 0.929 . S
C85 C84 1.368 . S
C85 C86 1.388 . S
C85 H113 0.929 . S
C86 C85 1.388 . S
C86 C87 1.371 1_565 S
C87 C86 1.371 1_545 S
C87 C88 1.409 . S
C87 H114 0.931 . S
C88 C83 1.356 1_545 S
C88 C87 1.409 . S
C88 H115 0.930 . S
C89 O102 1.270 . S
C89 O103 1.248 1_556 S
C90 O104 1.267 . S
C90 O105 1.278 . S
C91 Pr81 2.880 . S
C91 C92 1.491 . S
C91 O106 1.254 1_545 S
C91 O107 1.225 . S
C92 C91 1.491 . S
C92 C93 1.392 . S
C92 C97 1.356 1_545 S
C93 C92 1.392 . S
C93 C94 1.368 . S
C93 H116 0.929 . S
C94 C93 1.368 . S
C94 C95 1.394 . S
C94 H117 0.929 . S
C95 C94 1.394 . S
C95 C96 1.365 1_545 S
C96 C95 1.365 1_565 S
C96 C97 1.409 . S
C96 H118 0.931 . S
C97 C92 1.356 1_565 S
C97 C96 1.409 . S
C97 H119 0.930 . S
C98 O108 1.270 . S
C98 O109 1.248 1_554 S
C99 O110 1.267 . S
C99 O111 1.278 . S
O100 Pr80 2.562 1_545 S
O100 C82 1.254 1_545 S
O101 Pr80 2.490 . S
O101 C82 1.225 . S
O102 Pr80 2.695 1_556 S
O102 Pr81 2.436 1_565 S
O102 C89 1.270 . S
O103 Pr80 2.512 . S
O103 C89 1.248 1_554 S
O104 Pr81 2.438 1_554 S
O104 C90 1.267 . S
O105 Pr80 2.437 1_545 S
O105 C90 1.278 . S
O106 Pr81 2.562 1_565 S
O106 C91 1.254 1_565 S
O107 Pr81 2.490 . S
O107 C91 1.225 . S
O108 Pr80 2.436 1_545 S
O108 Pr81 2.695 1_554 S
O108 C98 1.270 . S
O109 Pr81 2.512 . S
O109 C98 1.248 1_556 S
O110 Pr80 2.438 1_556 S
O110 C99 1.267 . S
O111 Pr81 2.437 1_565 S
O111 C99 1.278 . S
H112 C84 0.929 . S
H113 C85 0.929 . S
H114 C87 0.931 . S
H115 C88 0.930 . S
H116 C93 0.929 . S
H117 C94 0.929 . S
H118 C96 0.931 . S
H119 C97 0.930 . S
Pr120 C122 2.880 . S
Pr120 O140 2.562 . S
Pr120 O141 2.490 . S
Pr120 O142 2.695 . S
Pr120 O143 2.512 . S
Pr120 O145 2.437 . S
Pr120 O148 2.436 . S
Pr120 O150 2.438 . S
Pr121 C131 2.880 . S
Pr121 O142 2.436 . S
Pr121 O144 2.438 . S
Pr121 O146 2.562 . S
Pr121 O147 2.490 . S
Pr121 O148 2.695 . S
Pr121 O149 2.512 . S
Pr121 O151 2.437 . S
C122 Pr120 2.880 . S
C122 C123 1.491 . S
C122 O140 1.254 . S
C122 O141 1.225 . S
C123 C122 1.491 . S
C123 C124 1.392 . S
C123 C128 1.356 . S
C124 C123 1.392 . S
C124 C125 1.368 . S
C124 H152 0.929 . S
C125 C124 1.368 . S
C125 C126 1.386 . S
C125 H153 0.929 . S
C126 C125 1.386 . S
C126 C127 1.373 . S
C127 C126 1.373 . S
C127 C128 1.409 . S
C127 H154 0.931 . S
C128 C123 1.356 . S
C128 C127 1.409 . S
C128 H155 0.930 . S
C129 O142 1.270 . S
C129 O143 1.248 . S
C130 O144 1.267 . S
C130 O145 1.278 . S
C131 Pr121 2.880 . S
C131 C132 1.491 . S
C131 O146 1.254 . S
C131 O147 1.225 . S
C132 C131 1.491 . S
C132 C133 1.392 . S
C132 C137 1.356 . S
C133 C132 1.392 . S
C133 C134 1.368 1_554 S
C133 H156 0.929 . S
C134 C133 1.368 1_556 S
C134 C135 1.386 . S
C134 H157 0.929 . S
C135 C134 1.386 . S
C135 C136 1.373 . S
C136 C135 1.373 . S
C136 C137 1.409 1_556 S
C136 H158 0.931 . S
C137 C132 1.356 . S
C137 C136 1.409 1_554 S
C137 H159 0.930 . S
C138 O148 1.270 . S
C138 O149 1.248 . S
C139 O150 1.267 . S
C139 O151 1.278 . S
O140 Pr120 2.562 . S
O140 C122 1.254 . S
O141 Pr120 2.490 . S
O141 C122 1.225 . S
O142 Pr120 2.695 . S
O142 Pr121 2.436 . S
O142 C129 1.270 . S
O143 Pr120 2.512 . S
O143 C129 1.248 . S
O144 Pr121 2.438 . S
O144 C130 1.267 . S
O145 Pr120 2.437 . S
O145 C130 1.278 . S
O146 Pr121 2.562 . S
O146 C131 1.254 . S
O147 Pr121 2.490 . S
O147 C131 1.225 . S
O148 Pr120 2.436 . S
O148 Pr121 2.695 . S
O148 C138 1.270 . S
O149 Pr121 2.512 . S
O149 C138 1.248 . S
O150 Pr120 2.438 . S
O150 C139 1.267 . S
O151 Pr121 2.437 . S
O151 C139 1.278 . S
H152 C124 0.929 . S
H153 C125 0.929 . S
H154 C127 0.931 . S
H155 C128 0.930 . S
H156 C133 0.929 . S
H157 C134 0.929 . S
H158 C136 0.931 . S
H159 C137 0.930 . S
Pr160 C162 2.880 . S
Pr160 O180 2.562 . S
Pr160 O181 2.490 . S
Pr160 O182 2.695 . S
Pr160 O183 2.512 . S
Pr160 O185 2.437 . S
Pr160 O188 2.436 . S
Pr160 O190 2.438 . S
Pr161 C171 2.880 . S
Pr161 O182 2.436 . S
Pr161 O184 2.438 . S
Pr161 O186 2.562 . S
Pr161 O187 2.490 . S
Pr161 O188 2.695 . S
Pr161 O189 2.512 . S
Pr161 O191 2.437 . S
C162 Pr160 2.880 . S
C162 C163 1.491 . S
C162 O180 1.254 . S
C162 O181 1.225 . S
C163 C162 1.491 . S
C163 C164 1.392 . S
C163 C168 1.355 1_554 S
C164 C163 1.392 . S
C164 C165 1.368 1_554 S
C164 H192 0.929 . S
C165 C164 1.368 1_556 S
C165 C166 1.386 . S
C165 H193 0.929 . S
C166 C165 1.386 . S
C166 C167 1.373 . S
C167 C166 1.373 . S
C167 C168 1.411 . S
C167 H194 0.931 . S
C168 C163 1.355 1_556 S
C168 C167 1.411 . S
C168 H195 0.929 1_556 S
C169 O182 1.270 . S
C169 O183 1.248 . S
C170 O184 1.267 . S
C170 O185 1.278 . S
C171 Pr161 2.880 . S
C171 C172 1.491 . S
C171 O186 1.254 . S
C171 O187 1.225 . S
C172 C171 1.491 . S
C172 C173 1.392 . S
C172 C177 1.356 . S
C173 C172 1.392 . S
C173 C174 1.368 . S
C173 H196 0.929 . S
C174 C173 1.368 . S
C174 C175 1.386 . S
C174 H197 0.929 . S
C175 C174 1.386 . S
C175 C176 1.373 . S
C176 C175 1.373 . S
C176 C177 1.409 . S
C176 H198 0.931 . S
C177 C172 1.356 . S
C177 C176 1.409 . S
C177 H199 0.930 . S
C178 O188 1.270 . S
C178 O189 1.248 . S
C179 O190 1.267 . S
C179 O191 1.278 . S
O180 Pr160 2.562 . S
O180 C162 1.254 . S
O181 Pr160 2.490 . S
O181 C162 1.225 . S
O182 Pr160 2.695 . S
O182 Pr161 2.436 . S
O182 C169 1.270 . S
O183 Pr160 2.512 . S
O183 C169 1.248 . S
O184 Pr161 2.438 . S
O184 C170 1.267 . S
O185 Pr160 2.437 . S
O185 C170 1.278 . S
O186 Pr161 2.562 . S
O186 C171 1.254 . S
O187 Pr161 2.490 . S
O187 C171 1.225 . S
O188 Pr160 2.436 . S
O188 Pr161 2.695 . S
O188 C178 1.270 . S
O189 Pr161 2.512 . S
O189 C178 1.248 . S
O190 Pr160 2.438 . S
O190 C179 1.267 . S
O191 Pr161 2.437 . S
O191 C179 1.278 . S
H192 C164 0.929 . S
H193 C165 0.929 . S
H194 C167 0.931 . S
H195 C168 0.929 1_554 S
H196 C173 0.929 . S
H197 C174 0.929 . S
H198 C176 0.931 . S
H199 C177 0.930 . S
Pr200 C202 2.880 . S
Pr200 O220 2.562 . S
Pr200 O221 2.490 . S
Pr200 O222 2.695 . S
Pr200 O223 2.512 . S
Pr200 O225 2.437 . S
Pr200 O228 2.436 . S
Pr200 O230 2.438 . S
Pr201 C211 2.880 . S
Pr201 O222 2.436 . S
Pr201 O224 2.438 . S
Pr201 O226 2.562 . S
Pr201 O227 2.490 . S
Pr201 O228 2.695 . S
Pr201 O229 2.512 . S
Pr201 O231 2.437 . S
C202 Pr200 2.880 . S
C202 C203 1.491 . S
C202 O220 1.254 . S
C202 O221 1.225 . S
C203 C202 1.491 . S
C203 C204 1.392 . S
C203 C208 1.356 . S
C204 C203 1.392 . S
C204 C205 1.368 1_556 S
C204 H232 0.929 . S
C205 C204 1.368 1_554 S
C205 C206 1.386 . S
C205 H233 0.929 . S
C206 C205 1.386 . S
C206 C207 1.373 . S
C207 C206 1.373 . S
C207 C208 1.409 1_554 S
C207 H234 0.931 . S
C208 C203 1.356 . S
C208 C207 1.409 1_556 S
C208 H235 0.930 . S
C209 O222 1.270 . S
C209 O223 1.248 . S
C210 O224 1.267 . S
C210 O225 1.278 . S
C211 Pr201 2.880 . S
C211 C212 1.491 . S
C211 O226 1.254 . S
C211 O227 1.225 . S
C212 C211 1.491 . S
C212 C213 1.392 . S
C212 C217 1.356 . S
C213 C212 1.392 . S
C213 C214 1.368 . S
C213 H236 0.929 . S
C214 C213 1.368 . S
C214 C215 1.386 . S
C214 H237 0.929 . S
C215 C214 1.386 . S
C215 C216 1.373 . S
C216 C215 1.373 . S
C216 C217 1.409 . S
C216 H238 0.931 . S
C217 C212 1.356 . S
C217 C216 1.409 . S
C217 H239 0.930 . S
C218 O228 1.270 . S
C218 O229 1.248 . S
C219 O230 1.267 . S
C219 O231 1.278 . S
O220 Pr200 2.562 . S
O220 C202 1.254 . S
O221 Pr200 2.490 . S
O221 C202 1.225 . S
O222 Pr200 2.695 . S
O222 Pr201 2.436 . S
O222 C209 1.270 . S
O223 Pr200 2.512 . S
O223 C209 1.248 . S
O224 Pr201 2.438 . S
O224 C210 1.267 . S
O225 Pr200 2.437 . S
O225 C210 1.278 . S
O226 Pr201 2.562 . S
O226 C211 1.254 . S
O227 Pr201 2.490 . S
O227 C211 1.225 . S
O228 Pr200 2.436 . S
O228 Pr201 2.695 . S
O228 C218 1.270 . S
O229 Pr201 2.512 . S
O229 C218 1.248 . S
O230 Pr200 2.438 . S
O230 C219 1.267 . S
O231 Pr201 2.437 . S
O231 C219 1.278 . S
H232 C204 0.929 . S
H233 C205 0.929 . S
H234 C207 0.931 . S
H235 C208 0.930 . S
H236 C213 0.929 . S
H237 C214 0.929 . S
H238 C216 0.931 . S
H239 C217 0.930 . S
Pr240 C242 2.880 . S
Pr240 O260 2.562 . S
Pr240 O261 2.490 . S
Pr240 O262 2.695 1_556 S
Pr240 O263 2.512 . S
Pr240 O265 2.437 . S
Pr240 O268 2.436 . S
Pr240 O270 2.438 . S
Pr241 C251 2.880 . S
Pr241 O262 2.436 . S
Pr241 O264 2.438 . S
Pr241 O266 2.562 . S
Pr241 O267 2.490 . S
Pr241 O268 2.695 1_554 S
Pr241 O269 2.512 . S
Pr241 O271 2.437 . S
C242 Pr240 2.880 . S
C242 C243 1.491 . S
C242 O260 1.254 . S
C242 O261 1.225 . S
C243 C242 1.491 . S
C243 C244 1.392 . S
C243 C248 1.356 . S
C244 C243 1.392 . S
C244 C245 1.368 . S
C244 H272 0.929 . S
C245 C244 1.368 . S
C245 C246 1.386 . S
C245 H273 0.929 . S
C246 C245 1.386 . S
C246 C247 1.373 . S
C247 C246 1.373 . S
C247 C248 1.409 . S
C247 H274 0.931 . S
C248 C243 1.356 . S
C248 C247 1.409 . S
C248 H275 0.930 . S
C249 O262 1.270 . S
C249 O263 1.248 1_554 S
C250 O264 1.267 1_556 S
C250 O265 1.278 . S
C251 Pr241 2.880 . S
C251 C252 1.491 . S
C251 O266 1.254 . S
C251 O267 1.225 . S
C252 C251 1.491 . S
C252 C253 1.392 . S
C252 C257 1.356 . S
C253 C252 1.392 . S
C253 C254 1.368 . S
C253 H276 0.929 . S
C254 C253 1.368 . S
C254 C255 1.386 . S
C254 H277 0.929 . S
C255 C254 1.386 . S
C255 C256 1.373 . S
C256 C255 1.373 . S
C256 C257 1.409 . S
C256 H278 0.931 . S
C257 C252 1.356 . S
C257 C256 1.409 . S
C257 H279 0.930 . S
C258 O268 1.270 . S
C258 O269 1.248 1_556 S
C259 O270 1.267 1_554 S
C259 O271 1.278 . S
O260 Pr240 2.562 . S
O260 C242 1.254 . S
O261 Pr240 2.490 . S
O261 C242 1.225 . S
O262 Pr240 2.695 1_554 S
O262 Pr241 2.436 . S
O262 C249 1.270 . S
O263 Pr240 2.512 . S
O263 C249 1.248 1_556 S
O264 Pr241 2.438 . S
O264 C250 1.267 1_554 S
O265 Pr240 2.437 . S
O265 C250 1.278 . S
O266 Pr241 2.562 . S
O266 C251 1.254 . S
O267 Pr241 2.490 . S
O267 C251 1.225 . S
O268 Pr240 2.436 . S
O268 Pr241 2.695 1_556 S
O268 C258 1.270 . S
O269 Pr241 2.512 . S
O269 C258 1.248 1_554 S
O270 Pr240 2.438 . S
O270 C259 1.267 1_556 S
O271 Pr241 2.437 . S
O271 C259 1.278 . S
H272 C244 0.929 . S
H273 C245 0.929 . S
H274 C247 0.931 . S
H275 C248 0.930 . S
H276 C253 0.929 . S
H277 C254 0.929 . S
H278 C256 0.931 . S
H279 C257 0.930 . S
Pr280 C282 2.880 1_455 S
Pr280 O300 2.562 . S
Pr280 O301 2.490 1_455 S
Pr280 O302 2.695 1_455 S
Pr280 O303 2.512 1_455 S
Pr280 O305 2.437 1_455 S
Pr280 O308 2.436 . S
Pr280 O310 2.438 . S
Pr281 C291 2.880 1_655 S
Pr281 O302 2.436 . S
Pr281 O304 2.438 . S
Pr281 O306 2.562 . S
Pr281 O307 2.490 1_655 S
Pr281 O308 2.695 1_655 S
Pr281 O309 2.512 1_655 S
Pr281 O311 2.437 1_655 S
C282 Pr280 2.880 1_655 S
C282 C283 1.491 . S
C282 O300 1.254 1_655 S
C282 O301 1.225 . S
C283 C282 1.491 . S
C283 C284 1.392 . S
C283 C288 1.356 . S
C284 C283 1.392 . S
C284 C285 1.368 . S
C284 H312 0.929 . S
C285 C284 1.368 . S
C285 C286 1.386 . S
C285 H313 0.929 . S
C286 C285 1.386 . S
C286 C287 1.373 . S
C287 C286 1.373 . S
C287 C288 1.409 . S
C287 H314 0.931 . S
C288 C283 1.356 . S
C288 C287 1.409 . S
C288 H315 0.930 1_655 S
C289 O302 1.270 . S
C289 O303 1.248 . S
C290 O304 1.267 . S
C290 O305 1.278 . S
C291 Pr281 2.880 1_455 S
C291 C292 1.491 . S
C291 O306 1.254 1_455 S
C291 O307 1.225 . S
C292 C291 1.491 . S
C292 C293 1.392 . S
C292 C297 1.356 . S
C293 C292 1.392 . S
C293 C294 1.368 . S
C293 H316 0.929 . S
C294 C293 1.368 . S
C294 C295 1.386 . S
C294 H317 0.929 . S
C295 C294 1.386 . S
C295 C296 1.373 . S
C296 C295 1.373 . S
C296 C297 1.409 . S
C296 H318 0.931 . S
C297 C292 1.356 . S
C297 C296 1.409 . S
C297 H319 0.930 1_455 S
C298 O308 1.270 . S
C298 O309 1.248 . S
C299 O310 1.267 . S
C299 O311 1.278 . S
O300 Pr280 2.562 . S
O300 C282 1.254 1_455 S
O301 Pr280 2.490 1_655 S
O301 C282 1.225 . S
O302 Pr280 2.695 1_655 S
O302 Pr281 2.436 . S
O302 C289 1.270 . S
O303 Pr280 2.512 1_655 S
O303 C289 1.248 . S
O304 Pr281 2.438 . S
O304 C290 1.267 . S
O305 Pr280 2.437 1_655 S
O305 C290 1.278 . S
O306 Pr281 2.562 . S
O306 C291 1.254 1_655 S
O307 Pr281 2.490 1_455 S
O307 C291 1.225 . S
O308 Pr280 2.436 . S
O308 Pr281 2.695 1_455 S
O308 C298 1.270 . S
O309 Pr281 2.512 1_455 S
O309 C298 1.248 . S
O310 Pr280 2.438 . S
O310 C299 1.267 . S
O311 Pr281 2.437 1_455 S
O311 C299 1.278 . S
H312 C284 0.929 . S
H313 C285 0.929 . S
H314 C287 0.931 . S
H315 C288 0.930 1_455 S
H316 C293 0.929 . S
H317 C294 0.929 . S
H318 C296 0.931 . S
H319 C297 0.930 1_655 S
H320 C326 0.930 . S
H321 C330 0.930 . S
H322 C335 0.929 . S
H323 C333 0.929 . S
H324 C328 0.929 . S
H325 C334 0.929 . S
C326 H320 0.930 . S
C326 C327 1.367 . S
C326 C334 1.378 . S
C327 C326 1.367 . S
C327 C335 1.433 . S
C328 H324 0.929 . S
C328 C330 1.378 . S
C328 C332 1.350 . S
C329 C332 1.463 . S
C329 C334 1.350 . S
C329 N337 1.427 . S
C330 H321 0.930 . S
C330 C328 1.378 . S
C330 C331 1.367 . S
C331 C330 1.367 . S
C331 C333 1.433 . S
C332 C328 1.350 . S
C332 C329 1.463 . S
C332 N336 1.427 . S
C333 H323 0.929 . S
C333 C331 1.433 . S
C333 N336 1.384 . S
C334 H325 0.929 . S
C334 C326 1.378 . S
C334 C329 1.350 . S
C335 H322 0.929 . S
C335 C327 1.433 . S
C335 N337 1.384 . S
N336 C332 1.427 . S
N336 C333 1.384 . S
N337 C329 1.427 . S
N337 C335 1.384 . S
H338 C344 0.930 . S
H339 C348 0.930 . S
H340 C353 0.929 . S
H341 C351 0.929 . S
H342 C346 0.929 . S
H343 C352 0.929 . S
C344 H338 0.930 . S
C344 C345 1.367 . S
C344 C352 1.378 . S
C345 C344 1.367 . S
C345 C353 1.433 . S
C346 H342 0.929 . S
C346 C348 1.378 . S
C346 C350 1.350 . S
C347 C350 1.463 . S
C347 C352 1.350 . S
C347 N355 1.427 . S
C348 H339 0.930 . S
C348 C346 1.378 . S
C348 C349 1.367 . S
C349 C348 1.367 . S
C349 C351 1.433 . S
C350 C346 1.350 . S
C350 C347 1.463 . S
C350 N354 1.427 . S
C351 H341 0.929 . S
C351 C349 1.433 . S
C351 N354 1.384 . S
C352 H343 0.929 . S
C352 C344 1.378 . S
C352 C347 1.350 . S
C353 H340 0.929 . S
C353 C345 1.433 . S
C353 N355 1.384 . S
N354 C350 1.427 . S
N354 C351 1.384 . S
N355 C347 1.427 . S
N355 C353 1.384 . S
H356 C362 0.930 . S
H357 C366 0.930 . S
H358 C371 0.929 . S
H359 C369 0.929 . S
H360 C364 0.929 . S
H361 C370 0.929 . S
C362 H356 0.930 . S
C362 C363 1.367 . S
C362 C370 1.378 . S
C363 C362 1.367 . S
C363 C371 1.433 . S
C364 H360 0.929 . S
C364 C366 1.378 . S
C364 C368 1.350 . S
C365 C368 1.463 . S
C365 C370 1.350 . S
C365 N373 1.427 . S
C366 H357 0.930 . S
C366 C364 1.378 . S
C366 C367 1.367 . S
C367 C366 1.367 . S
C367 C369 1.433 . S
C368 C364 1.350 . S
C368 C365 1.463 . S
C368 N372 1.427 . S
C369 H359 0.929 . S
C369 C367 1.433 . S
C369 N372 1.384 . S
C370 H361 0.929 . S
C370 C362 1.378 . S
C370 C365 1.350 . S
C371 H358 0.929 . S
C371 C363 1.433 . S
C371 N373 1.384 . S
N372 C368 1.427 . S
N372 C369 1.384 . S
N373 C365 1.427 . S
N373 C371 1.384 . S
H374 C380 0.930 . S
H375 C384 0.930 . S
H376 C389 0.929 . S
H377 C387 0.929 . S
H378 C382 0.929 . S
H379 C388 0.929 . S
C380 H374 0.930 . S
C380 C381 1.367 . S
C380 C388 1.378 . S
C381 C380 1.367 . S
C381 C389 1.433 . S
C382 H378 0.929 . S
C382 C384 1.378 . S
C382 C386 1.350 . S
C383 C386 1.463 . S
C383 C388 1.350 . S
C383 N391 1.427 . S
C384 H375 0.930 . S
C384 C382 1.378 . S
C384 C385 1.367 . S
C385 C384 1.367 . S
C385 C387 1.433 . S
C386 C382 1.350 . S
C386 C383 1.463 . S
C386 N390 1.427 . S
C387 H377 0.929 . S
C387 C385 1.433 . S
C387 N390 1.384 . S
C388 H379 0.929 . S
C388 C380 1.378 . S
C388 C383 1.350 . S
C389 H376 0.929 . S
C389 C381 1.433 . S
C389 N391 1.384 . S
N390 C386 1.427 . S
N390 C387 1.384 . S
N391 C383 1.427 . S
N391 C389 1.384 . S
H392 C398 0.930 . S
H393 C402 0.930 . S
H394 C407 0.929 . S
H395 C405 0.929 . S
H396 C400 0.929 . S
H397 C406 0.929 . S
C398 H392 0.930 . S
C398 C399 1.367 . S
C398 C406 1.378 . S
C399 C398 1.367 . S
C399 C407 1.433 . S
C400 H396 0.929 . S
C400 C402 1.378 . S
C400 C404 1.350 . S
C401 C404 1.463 . S
C401 C406 1.350 . S
C401 N409 1.427 . S
C402 H393 0.930 . S
C402 C400 1.378 . S
C402 C403 1.367 . S
C403 C402 1.367 . S
C403 C405 1.433 . S
C404 C400 1.350 . S
C404 C401 1.463 . S
C404 N408 1.427 . S
C405 H395 0.929 . S
C405 C403 1.433 . S
C405 N408 1.384 . S
C406 H397 0.929 . S
C406 C398 1.378 . S
C406 C401 1.350 . S
C407 H394 0.929 . S
C407 C399 1.433 . S
C407 N409 1.384 . S
N408 C404 1.427 . S
N408 C405 1.384 . S
N409 C401 1.427 . S
N409 C407 1.384 . S
H410 C416 0.930 . S
H411 C420 0.930 . S
H412 C425 0.929 . S
H413 C423 0.929 . S
H414 C418 0.929 . S
H415 C424 0.929 . S
C416 H410 0.930 . S
C416 C417 1.367 . S
C416 C424 1.378 . S
C417 C416 1.367 . S
C417 C425 1.433 . S
C418 H414 0.929 . S
C418 C420 1.378 . S
C418 C422 1.350 . S
C419 C422 1.463 . S
C419 C424 1.350 . S
C419 N427 1.427 . S
C420 H411 0.930 . S
C420 C418 1.378 . S
C420 C421 1.367 . S
C421 C420 1.367 . S
C421 C423 1.433 . S
C422 C418 1.350 . S
C422 C419 1.463 . S
C422 N426 1.427 . S
C423 H413 0.929 . S
C423 C421 1.433 . S
C423 N426 1.384 . S
C424 H415 0.929 . S
C424 C416 1.378 . S
C424 C419 1.350 . S
C425 H412 0.929 . S
C425 C417 1.433 . S
C425 N427 1.384 . S
N426 C422 1.427 . S
N426 C423 1.384 . S
N427 C419 1.427 . S
N427 C425 1.384 . S
H428 C434 0.930 . S
H429 C438 0.930 . S
H430 C443 0.929 . S
H431 C441 0.929 . S
H432 C436 0.929 . S
H433 C442 0.929 . S
C434 H428 0.930 . S
C434 C435 1.367 . S
C434 C442 1.378 . S
C435 C434 1.367 . S
C435 C443 1.433 . S
C436 H432 0.929 . S
C436 C438 1.378 . S
C436 C440 1.350 . S
C437 C440 1.463 . S
C437 C442 1.350 . S
C437 N445 1.427 . S
C438 H429 0.930 . S
C438 C436 1.378 . S
C438 C439 1.367 . S
C439 C438 1.367 . S
C439 C441 1.433 . S
C440 C436 1.350 . S
C440 C437 1.463 . S
C440 N444 1.427 . S
C441 H431 0.929 . S
C441 C439 1.433 . S
C441 N444 1.384 . S
C442 H433 0.929 . S
C442 C434 1.378 . S
C442 C437 1.350 . S
C443 H430 0.929 . S
C443 C435 1.433 . S
C443 N445 1.384 . S
N444 C440 1.427 . S
N444 C441 1.384 . S
N445 C437 1.427 . S
N445 C443 1.384 . S
H446 C452 0.930 . S
H447 C456 0.930 . S
H448 C461 0.929 . S
H449 C459 0.929 . S
H450 C454 0.929 . S
H451 C460 0.929 . S
C452 H446 0.930 . S
C452 C453 1.367 . S
C452 C460 1.378 . S
C453 C452 1.367 . S
C453 C461 1.433 . S
C454 H450 0.929 . S
C454 C456 1.378 . S
C454 C458 1.350 . S
C455 C458 1.463 . S
C455 C460 1.350 . S
C455 N463 1.427 . S
C456 H447 0.930 . S
C456 C454 1.378 . S
C456 C457 1.367 . S
C457 C456 1.367 . S
C457 C459 1.433 . S
C458 C454 1.350 . S
C458 C455 1.463 . S
C458 N462 1.427 . S
C459 H449 0.929 . S
C459 C457 1.433 . S
C459 N462 1.384 . S
C460 H451 0.929 . S
C460 C452 1.378 . S
C460 C455 1.350 . S
C461 H448 0.929 . S
C461 C453 1.433 . S
C461 N463 1.384 . S
N462 C458 1.427 . S
N462 C459 1.384 . S
N463 C455 1.427 . S
N463 C461 1.384 . S
H464 C470 0.930 . S
H465 C474 0.930 . S
H466 C479 0.929 . S
H467 C477 0.929 . S
H468 C472 0.929 . S
H469 C478 0.929 . S
C470 H464 0.930 . S
C470 C471 1.367 . S
C470 C478 1.378 . S
C471 C470 1.367 . S
C471 C479 1.433 . S
C472 H468 0.929 . S
C472 C474 1.378 . S
C472 C476 1.350 . S
C473 C476 1.463 . S
C473 C478 1.350 . S
C473 N481 1.427 . S
C474 H465 0.930 . S
C474 C472 1.378 . S
C474 C475 1.367 . S
C475 C474 1.367 . S
C475 C477 1.433 . S
C476 C472 1.350 . S
C476 C473 1.463 . S
C476 N480 1.427 . S
C477 H467 0.929 . S
C477 C475 1.433 . S
C477 N480 1.384 . S
C478 H469 0.929 . S
C478 C470 1.378 . S
C478 C473 1.350 . S
C479 H466 0.929 . S
C479 C471 1.433 . S
C479 N481 1.384 . S
N480 C476 1.427 . S
N480 C477 1.384 . S
N481 C473 1.427 . S
N481 C479 1.384 . S
H482 C488 0.930 . S
H483 C492 0.930 . S
H484 C497 0.929 . S
H485 C495 0.929 . S
H486 C490 0.929 . S
H487 C496 0.929 . S
C488 H482 0.930 . S
C488 C489 1.367 . S
C488 C496 1.378 . S
C489 C488 1.367 . S
C489 C497 1.433 . S
C490 H486 0.929 . S
C490 C492 1.378 . S
C490 C494 1.350 . S
C491 C494 1.463 . S
C491 C496 1.350 . S
C491 N499 1.427 . S
C492 H483 0.930 . S
C492 C490 1.378 . S
C492 C493 1.367 . S
C493 C492 1.367 . S
C493 C495 1.433 . S
C494 C490 1.350 . S
C494 C491 1.463 . S
C494 N498 1.427 . S
C495 H485 0.929 . S
C495 C493 1.433 . S
C495 N498 1.384 . S
C496 H487 0.929 . S
C496 C488 1.378 . S
C496 C491 1.350 . S
C497 H484 0.929 . S
C497 C489 1.433 . S
C497 N499 1.384 . S
N498 C494 1.427 . S
N498 C495 1.384 . S
N499 C491 1.427 . S
N499 C497 1.384 . S
H500 C506 0.930 . S
H501 C510 0.930 . S
H502 C515 0.929 . S
H503 C513 0.929 . S
H504 C508 0.929 . S
H505 C514 0.929 . S
C506 H500 0.930 . S
C506 C507 1.367 . S
C506 C514 1.378 . S
C507 C506 1.367 . S
C507 C515 1.433 . S
C508 H504 0.929 . S
C508 C510 1.378 . S
C508 C512 1.350 . S
C509 C512 1.463 . S
C509 C514 1.350 . S
C509 N517 1.427 . S
C510 H501 0.930 . S
C510 C508 1.378 . S
C510 C511 1.367 . S
C511 C510 1.367 . S
C511 C513 1.433 . S
C512 C508 1.350 . S
C512 C509 1.463 . S
C512 N516 1.427 . S
C513 H503 0.929 . S
C513 C511 1.433 . S
C513 N516 1.384 . S
C514 H505 0.929 . S
C514 C506 1.378 . S
C514 C509 1.350 . S
C515 H502 0.929 . S
C515 C507 1.433 . S
C515 N517 1.384 . S
N516 C512 1.427 . S
N516 C513 1.384 . S
N517 C509 1.427 . S
N517 C515 1.384 . S
H518 C524 0.930 . S
H519 C528 0.930 . S
H520 C533 0.929 . S
H521 C531 0.929 . S
H522 C526 0.929 . S
H523 C532 0.929 . S
C524 H518 0.930 . S
C524 C525 1.367 . S
C524 C532 1.378 . S
C525 C524 1.367 . S
C525 C533 1.433 . S
C526 H522 0.929 . S
C526 C528 1.378 . S
C526 C530 1.350 . S
C527 C530 1.463 . S
C527 C532 1.350 . S
C527 N535 1.427 . S
C528 H519 0.930 . S
C528 C526 1.378 . S
C528 C529 1.367 . S
C529 C528 1.367 . S
C529 C531 1.433 . S
C530 C526 1.350 . S
C530 C527 1.463 . S
C530 N534 1.427 . S
C531 H521 0.929 . S
C531 C529 1.433 . S
C531 N534 1.384 . S
C532 H523 0.929 . S
C532 C524 1.378 . S
C532 C527 1.350 . S
C533 H520 0.929 . S
C533 C525 1.433 . S
C533 N535 1.384 . S
N534 C530 1.427 . S
N534 C531 1.384 . S
N535 C527 1.427 . S
N535 C533 1.384 . S
H536 C542 0.930 . S
H537 C546 0.930 . S
H538 C551 0.929 . S
H539 C549 0.929 . S
H540 C544 0.929 . S
H541 C550 0.929 . S
C542 H536 0.930 . S
C542 C543 1.367 . S
C542 C550 1.378 . S
C543 C542 1.367 . S
C543 C551 1.433 . S
C544 H540 0.929 . S
C544 C546 1.378 . S
C544 C548 1.350 . S
C545 C548 1.463 . S
C545 C550 1.350 . S
C545 N553 1.427 . S
C546 H537 0.930 . S
C546 C544 1.378 . S
C546 C547 1.367 . S
C547 C546 1.367 . S
C547 C549 1.433 . S
C548 C544 1.350 . S
C548 C545 1.463 . S
C548 N552 1.427 . S
C549 H539 0.929 . S
C549 C547 1.433 . S
C549 N552 1.384 . S
C550 H541 0.929 . S
C550 C542 1.378 . S
C550 C545 1.350 . S
C551 H538 0.929 . S
C551 C543 1.433 . S
C551 N553 1.384 . S
N552 C548 1.427 . S
N552 C549 1.384 . S
N553 C545 1.427 . S
N553 C551 1.384 . S
H554 C560 0.930 1_554 S
H555 C564 0.930 . S
H556 C569 0.929 . S
H557 C567 0.929 . S
H558 C562 0.929 . S
H559 C568 0.929 . S
C560 H554 0.930 1_556 S
C560 C561 1.367 . S
C560 C568 1.378 . S
C561 C560 1.367 . S
C561 C569 1.433 . S
C562 H558 0.929 . S
C562 C564 1.378 . S
C562 C566 1.350 . S
C563 C566 1.463 . S
C563 C568 1.350 . S
C563 N571 1.427 . S
C564 H555 0.930 . S
C564 C562 1.378 . S
C564 C565 1.367 . S
C565 C564 1.367 . S
C565 C567 1.433 . S
C566 C562 1.350 . S
C566 C563 1.463 . S
C566 N570 1.427 . S
C567 H557 0.929 . S
C567 C565 1.433 . S
C567 N570 1.384 . S
C568 H559 0.929 . S
C568 C560 1.378 . S
C568 C563 1.350 . S
C569 H556 0.929 . S
C569 C561 1.433 . S
C569 N571 1.384 . S
N570 C566 1.427 . S
N570 C567 1.384 . S
N571 C563 1.427 . S
N571 C569 1.384 . S
H572 C578 0.930 . S
H573 C582 0.930 . S
H574 C587 0.929 . S
H575 C585 0.929 . S
H576 C580 0.929 . S
H577 C586 0.929 . S
C578 H572 0.930 . S
C578 C579 1.367 . S
C578 C586 1.378 . S
C579 C578 1.367 . S
C579 C587 1.433 . S
C580 H576 0.929 . S
C580 C582 1.378 . S
C580 C584 1.350 . S
C581 C584 1.463 . S
C581 C586 1.350 . S
C581 N589 1.427 . S
C582 H573 0.930 . S
C582 C580 1.378 . S
C582 C583 1.367 . S
C583 C582 1.367 . S
C583 C585 1.433 . S
C584 C580 1.350 . S
C584 C581 1.463 . S
C584 N588 1.427 . S
C585 H575 0.929 . S
C585 C583 1.433 . S
C585 N588 1.384 . S
C586 H577 0.929 . S
C586 C578 1.378 . S
C586 C581 1.350 . S
C587 H574 0.929 . S
C587 C579 1.433 . S
C587 N589 1.384 . S
N588 C584 1.427 . S
N588 C585 1.384 . S
N589 C581 1.427 . S
N589 C587 1.384 . S
H590 C596 0.930 . S
H591 C600 0.930 . S
H592 C605 0.929 . S
H593 C603 0.929 . S
H594 C598 0.929 . S
H595 C604 0.929 . S
C596 H590 0.930 . S
C596 C597 1.367 . S
C596 C604 1.378 . S
C597 C596 1.367 . S
C597 C605 1.433 . S
C598 H594 0.929 . S
C598 C600 1.378 . S
C598 C602 1.350 . S
C599 C602 1.463 . S
C599 C604 1.350 . S
C599 N607 1.427 . S
C600 H591 0.930 . S
C600 C598 1.378 . S
C600 C601 1.367 . S
C601 C600 1.367 . S
C601 C603 1.433 . S
C602 C598 1.350 . S
C602 C599 1.463 . S
C602 N606 1.427 . S
C603 H593 0.929 . S
C603 C601 1.433 . S
C603 N606 1.384 . S
C604 H595 0.929 . S
C604 C596 1.378 . S
C604 C599 1.350 . S
C605 H592 0.929 . S
C605 C597 1.433 . S
C605 N607 1.384 . S
N606 C602 1.427 . S
N606 C603 1.384 . S
N607 C599 1.427 . S
N607 C605 1.384 . S
H608 C614 0.930 . S
H609 C618 0.930 . S
H610 C623 0.929 . S
H611 C621 0.929 . S
H612 C616 0.923 1_556 S
H613 C622 0.922 1_554 S
C614 H608 0.930 . S
C614 C615 1.367 . S
C614 C622 1.378 . S
C615 C614 1.367 . S
C615 C623 1.433 1_545 S
C616 H612 0.923 1_554 S
C616 C618 1.378 . S
C616 C620 1.350 . S
C617 C620 1.463 1_646 S
C617 C622 1.350 . S
C617 N625 1.427 1_545 S
C618 H609 0.930 . S
C618 C616 1.378 . S
C618 C619 1.367 . S
C619 C618 1.367 . S
C619 C621 1.433 1_565 S
C620 C616 1.350 . S
C620 C617 1.463 1_464 S
C620 N624 1.427 1_565 S
C621 H611 0.929 . S
C621 C619 1.433 1_545 S
C621 N624 1.384 . S
C622 H613 0.922 1_556 S
C622 C614 1.378 . S
C622 C617 1.350 . S
C623 H610 0.929 . S
C623 C615 1.433 1_565 S
C623 N625 1.384 . S
N624 C620 1.427 1_545 S
N624 C621 1.384 . S
N625 C617 1.427 1_565 S
N625 C623 1.384 . S
H626 C632 0.930 . S
H627 C636 0.930 . S
H628 C641 0.929 . S
H629 C639 0.929 . S
H630 C634 0.929 . S
H631 C640 0.929 . S
C632 H626 0.930 . S
C632 C633 1.367 . S
C632 C640 1.378 . S
C633 C632 1.367 . S
C633 C641 1.433 . S
C634 H630 0.929 . S
C634 C636 1.378 . S
C634 C638 1.350 . S
C635 C638 1.463 . S
C635 C640 1.350 . S
C635 N643 1.427 . S
C636 H627 0.930 . S
C636 C634 1.378 . S
C636 C637 1.367 . S
C637 C636 1.367 . S
C637 C639 1.433 . S
C638 C634 1.350 . S
C638 C635 1.463 . S
C638 N642 1.427 . S
C639 H629 0.929 . S
C639 C637 1.433 . S
C639 N642 1.384 . S
C640 H631 0.929 . S
C640 C632 1.378 . S
C640 C635 1.350 . S
C641 H628 0.929 . S
C641 C633 1.433 . S
C641 N643 1.384 . S
N642 C638 1.427 . S
N642 C639 1.384 . S
N643 C635 1.427 . S
N643 C641 1.384 . S
H644 C650 0.930 . S
H645 C654 0.930 . S
H646 C659 0.929 . S
H647 C657 0.929 . S
H648 C652 0.929 . S
H649 C658 0.929 . S
C650 H644 0.930 . S
C650 C651 1.367 . S
C650 C658 1.378 . S
C651 C650 1.367 . S
C651 C659 1.433 1_565 S
C652 H648 0.929 . S
C652 C654 1.378 . S
C652 C656 1.350 . S
C653 C656 1.463 1_565 S
C653 C658 1.350 . S
C653 N661 1.427 1_565 S
C654 H645 0.930 . S
C654 C652 1.378 . S
C654 C655 1.367 . S
C655 C654 1.367 . S
C655 C657 1.433 1_545 S
C656 C652 1.350 . S
C656 C653 1.463 1_545 S
C656 N660 1.427 1_545 S
C657 H647 0.929 . S
C657 C655 1.433 1_565 S
C657 N660 1.384 . S
C658 H649 0.929 . S
C658 C650 1.378 . S
C658 C653 1.350 . S
C659 H646 0.929 . S
C659 C651 1.433 1_545 S
C659 N661 1.384 . S
N660 C656 1.427 1_565 S
N660 C657 1.384 . S
N661 C653 1.427 1_545 S
N661 C659 1.384 . S
H662 C668 0.930 . S
H663 C672 0.930 . S
H664 C677 0.929 . S
H665 C675 0.929 . S
H666 C670 0.929 . S
H667 C676 0.929 . S
C668 H662 0.930 . S
C668 C669 1.367 . S
C668 C676 1.378 . S
C669 C668 1.367 . S
C669 C677 1.433 . S
C670 H666 0.929 . S
C670 C672 1.378 . S
C670 C674 1.350 . S
C671 C674 1.463 . S
C671 C676 1.350 . S
C671 N679 1.427 . S
C672 H663 0.930 . S
C672 C670 1.378 . S
C672 C673 1.367 . S
C673 C672 1.367 . S
C673 C675 1.433 . S
C674 C670 1.350 . S
C674 C671 1.463 . S
C674 N678 1.427 . S
C675 H665 0.929 . S
C675 C673 1.433 . S
C675 N678 1.384 . S
C676 H667 0.929 . S
C676 C668 1.378 . S
C676 C671 1.350 . S
C677 H664 0.929 . S
C677 C669 1.433 . S
C677 N679 1.384 . S
N678 C674 1.427 . S
N678 C675 1.384 . S
N679 C671 1.427 . S
N679 C677 1.384 . S
H680 C686 0.930 . S
H681 C690 0.930 . S
H682 C695 0.929 . S
H683 C693 0.929 . S
H684 C688 0.929 . S
H685 C694 0.929 . S
C686 H680 0.930 . S
C686 C687 1.367 . S
C686 C694 1.378 . S
C687 C686 1.367 . S
C687 C695 1.433 . S
C688 H684 0.929 . S
C688 C690 1.378 . S
C688 C692 1.350 . S
C689 C692 1.463 . S
C689 C694 1.350 . S
C689 N697 1.427 . S
C690 H681 0.930 . S
C690 C688 1.378 . S
C690 C691 1.367 . S
C691 C690 1.367 . S
C691 C693 1.433 . S
C692 C688 1.350 . S
C692 C689 1.463 . S
C692 N696 1.427 . S
C693 H683 0.929 . S
C693 C691 1.433 . S
C693 N696 1.384 . S
C694 H685 0.929 . S
C694 C686 1.378 . S
C694 C689 1.350 . S
C695 H682 0.929 . S
C695 C687 1.433 . S
C695 N697 1.384 . S
N696 C692 1.427 . S
N696 C693 1.384 . S
N697 C689 1.427 . S
N697 C695 1.384 . S
H698 C704 0.930 . S
H699 C708 0.930 . S
H700 C713 0.929 . S
H701 C711 0.929 . S
H702 C706 0.929 . S
H703 C712 0.929 . S
C704 H698 0.930 . S
C704 C705 1.367 . S
C704 C712 1.378 . S
C705 C704 1.367 . S
C705 C713 1.433 . S
C706 H702 0.929 . S
C706 C708 1.378 . S
C706 C710 1.350 . S
C707 C710 1.463 . S
C707 C712 1.350 . S
C707 N715 1.427 . S
C708 H699 0.930 . S
C708 C706 1.378 . S
C708 C709 1.367 . S
C709 C708 1.367 . S
C709 C711 1.433 . S
C710 C706 1.350 . S
C710 C707 1.463 . S
C710 N714 1.427 . S
C711 H701 0.929 . S
C711 C709 1.433 . S
C711 N714 1.384 . S
C712 H703 0.929 . S
C712 C704 1.378 . S
C712 C707 1.350 . S
C713 H700 0.929 . S
C713 C705 1.433 . S
C713 N715 1.384 . S
N714 C710 1.427 . S
N714 C711 1.384 . S
N715 C707 1.427 . S
N715 C713 1.384 . S
H716 C722 0.930 . S
H717 C726 0.930 . S
H718 C731 0.929 . S
H719 C729 0.929 . S
H720 C724 0.929 . S
H721 C730 0.929 . S
C722 H716 0.930 . S
C722 C723 1.367 . S
C722 C730 1.378 . S
C723 C722 1.367 . S
C723 C731 1.433 . S
C724 H720 0.929 . S
C724 C726 1.378 . S
C724 C728 1.350 . S
C725 C728 1.463 . S
C725 C730 1.350 . S
C725 N733 1.427 . S
C726 H717 0.930 . S
C726 C724 1.378 . S
C726 C727 1.367 . S
C727 C726 1.367 . S
C727 C729 1.433 . S
C728 C724 1.350 . S
C728 C725 1.463 . S
C728 N732 1.427 . S
C729 H719 0.929 . S
C729 C727 1.433 . S
C729 N732 1.384 . S
C730 H721 0.929 . S
C730 C722 1.378 . S
C730 C725 1.350 . S
C731 H718 0.929 . S
C731 C723 1.433 . S
C731 N733 1.384 . S
N732 C728 1.427 . S
N732 C729 1.384 . S
N733 C725 1.427 . S
N733 C731 1.384 . S
H734 C740 0.930 . S
H735 C744 0.930 . S
H736 C749 0.929 . S
H737 C747 0.929 . S
H738 C742 0.929 . S
H739 C748 0.929 . S
C740 H734 0.930 . S
C740 C741 1.367 . S
C740 C748 1.378 . S
C741 C740 1.367 . S
C741 C749 1.433 . S
C742 H738 0.929 . S
C742 C744 1.378 . S
C742 C746 1.350 . S
C743 C746 1.463 1_656 S
C743 C748 1.350 . S
C743 N751 1.424 1_655 S
C744 H735 0.930 . S
C744 C742 1.378 . S
C744 C745 1.367 . S
C745 C744 1.367 . S
C745 C747 1.433 . S
C746 C742 1.350 . S
C746 C743 1.463 1_454 S
C746 N750 1.426 1_455 S
C747 H737 0.929 . S
C747 C745 1.433 . S
C747 N750 1.383 1_455 S
C748 H739 0.929 . S
C748 C740 1.378 . S
C748 C743 1.350 . S
C749 H736 0.929 . S
C749 C741 1.433 . S
C749 N751 1.382 1_655 S
N750 C746 1.426 1_655 S
N750 C747 1.383 1_655 S
N751 C743 1.424 1_455 S
N751 C749 1.382 1_455 S
C327 C10 2.048 . S
C331 C130 2.046 . S
C345 C9 1.515 . S
C349 C50 1.532 . S
C363 C49 0.896 . S
C367 C89 0.909 . S
C381 C90 1.530 . S
C385 C129 1.509 . S
C399 C19 2.049 . S
C403 C219 2.051 . S
C417 C18 1.515 . S
C421 C179 1.533 . S
C435 C178 0.897 . S
C439 C98 0.905 . S
C453 C218 1.518 . S
C457 C99 1.537 . S
C471 C250 2.050 . S
C475 C210 2.051 . S
C489 C170 1.531 . S
C493 C249 1.511 . S
C507 C289 0.890 . S
C511 C169 0.895 . S
C525 C209 1.511 . S
C529 C290 1.533 . S
C543 C139 2.048 . S
C547 C259 2.049 . S
C561 C258 1.510 . S
C565 C59 1.530 . S
C579 C58 0.891 . S
C583 C298 0.891 . S
C597 C138 1.515 . S
C601 C299 1.529 . S
C615 C15 1.614 . S
C619 C6 1.614 . S
C633 C46 1.416 . S
C637 C55 1.416 . S
C651 C95 1.422 1_565 S
C655 C86 1.421 1_545 S
C669 C135 1.610 . S
C673 C126 1.610 . S
C687 C166 1.419 . S
C691 C175 1.419 . S
C705 C215 1.608 . S
C709 C206 1.608 . S
C723 C246 1.609 . S
C727 C255 1.609 . S
C741 C286 1.424 . S
C745 C295 1.424 . S
