# Generated by pormake.
# Topology pcl, (4)-cn, num edge types: 1
# Building blocks:
#     Node 0, Type 0, BuildingBlock: UXUYUI_clean_sbu_0, # of connection points: 4
#     Node 1, Type 0, BuildingBlock: UXUYUI_clean_sbu_0, # of connection points: 4
#     Node 2, Type 0, BuildingBlock: UXUYUI_clean_sbu_0, # of connection points: 4
#     Node 3, Type 0, BuildingBlock: UXUYUI_clean_sbu_0, # of connection points: 4
#     Node 4, Type 0, BuildingBlock: UXUYUI_clean_sbu_0, # of connection points: 4
#     Node 5, Type 0, BuildingBlock: UXUYUI_clean_sbu_0, # of connection points: 4
#     Node 6, Type 0, BuildingBlock: UXUYUI_clean_sbu_0, # of connection points: 4
#     Node 7, Type 0, BuildingBlock: UXUYUI_clean_sbu_0, # of connection points: 4
#     Node 8, Type 0, BuildingBlock: UXUYUI_clean_sbu_0, # of connection points: 4
#     Node 9, Type 0, BuildingBlock: UXUYUI_clean_sbu_0, # of connection points: 4
#     Node 10, Type 0, BuildingBlock: UXUYUI_clean_sbu_0, # of connection points: 4
#     Node 11, Type 0, BuildingBlock: UXUYUI_clean_sbu_0, # of connection points: 4
#     Node 12, Type 0, BuildingBlock: UXUYUI_clean_sbu_0, # of connection points: 4
#     Node 13, Type 0, BuildingBlock: UXUYUI_clean_sbu_0, # of connection points: 4
#     Node 14, Type 0, BuildingBlock: UXUYUI_clean_sbu_0, # of connection points: 4
#     Node 15, Type 0, BuildingBlock: UXUYUI_clean_sbu_0, # of connection points: 4
#     Edge 16, Type (0, 0), BuildingBlock: AJUNOK_clean_linker_0, # of connection points: 2
#     Edge 17, Type (0, 0), BuildingBlock: AJUNOK_clean_linker_0, # of connection points: 2
#     Edge 18, Type (0, 0), BuildingBlock: AJUNOK_clean_linker_0, # of connection points: 2
#     Edge 19, Type (0, 0), BuildingBlock: AJUNOK_clean_linker_0, # of connection points: 2
#     Edge 20, Type (0, 0), BuildingBlock: AJUNOK_clean_linker_0, # of connection points: 2
#     Edge 21, Type (0, 0), BuildingBlock: AJUNOK_clean_linker_0, # of connection points: 2
#     Edge 22, Type (0, 0), BuildingBlock: AJUNOK_clean_linker_0, # of connection points: 2
#     Edge 23, Type (0, 0), BuildingBlock: AJUNOK_clean_linker_0, # of connection points: 2
#     Edge 24, Type (0, 0), BuildingBlock: AJUNOK_clean_linker_0, # of connection points: 2
#     Edge 25, Type (0, 0), BuildingBlock: AJUNOK_clean_linker_0, # of connection points: 2
#     Edge 26, Type (0, 0), BuildingBlock: AJUNOK_clean_linker_0, # of connection points: 2
#     Edge 27, Type (0, 0), BuildingBlock: AJUNOK_clean_linker_0, # of connection points: 2
#     Edge 28, Type (0, 0), BuildingBlock: AJUNOK_clean_linker_0, # of connection points: 2
#     Edge 29, Type (0, 0), BuildingBlock: AJUNOK_clean_linker_0, # of connection points: 2
#     Edge 30, Type (0, 0), BuildingBlock: AJUNOK_clean_linker_0, # of connection points: 2
#     Edge 31, Type (0, 0), BuildingBlock: AJUNOK_clean_linker_0, # of connection points: 2
#     Edge 32, Type (0, 0), BuildingBlock: AJUNOK_clean_linker_0, # of connection points: 2
#     Edge 33, Type (0, 0), BuildingBlock: AJUNOK_clean_linker_0, # of connection points: 2
#     Edge 34, Type (0, 0), BuildingBlock: AJUNOK_clean_linker_0, # of connection points: 2
#     Edge 35, Type (0, 0), BuildingBlock: AJUNOK_clean_linker_0, # of connection points: 2
#     Edge 36, Type (0, 0), BuildingBlock: AJUNOK_clean_linker_0, # of connection points: 2
#     Edge 37, Type (0, 0), BuildingBlock: AJUNOK_clean_linker_0, # of connection points: 2
#     Edge 38, Type (0, 0), BuildingBlock: AJUNOK_clean_linker_0, # of connection points: 2
#     Edge 39, Type (0, 0), BuildingBlock: AJUNOK_clean_linker_0, # of connection points: 2
#     Edge 40, Type (0, 0), BuildingBlock: AJUNOK_clean_linker_0, # of connection points: 2
#     Edge 41, Type (0, 0), BuildingBlock: AJUNOK_clean_linker_0, # of connection points: 2
#     Edge 42, Type (0, 0), BuildingBlock: AJUNOK_clean_linker_0, # of connection points: 2
#     Edge 43, Type (0, 0), BuildingBlock: AJUNOK_clean_linker_0, # of connection points: 2
#     Edge 44, Type (0, 0), BuildingBlock: AJUNOK_clean_linker_0, # of connection points: 2
#     Edge 45, Type (0, 0), BuildingBlock: AJUNOK_clean_linker_0, # of connection points: 2
#     Edge 46, Type (0, 0), BuildingBlock: AJUNOK_clean_linker_0, # of connection points: 2
#     Edge 47, Type (0, 0), BuildingBlock: AJUNOK_clean_linker_0, # of connection points: 2
# Relax obj value: 0.133
# Max RMSD: 0.100
# Mean RMSD: 0.099
data_MOF--net-pcl--node1-UXUYUI_clean_sbu_0--edge1-AJUNOK_clean_linker_0
_symmetry_space_group_name_H-M    P1
_symmetry_Int_Tables_number       1
_symmetry_cell_setting            triclinic
loop_
_symmetry_equiv_pos_as_xyz
'x, y, z'
_cell_length_a     52.083137
_cell_length_b     59.911623
_cell_length_c     52.938374
_cell_angle_alpha  89.983076
_cell_angle_beta   89.959282
_cell_angle_gamma 90.034996
loop_
_atom_site_label
_atom_site_type_symbol
_atom_site_fract_x
_atom_site_fract_y
_atom_site_fract_z
_atom_type_partial_charge
Li0 Li 0.18519 0.37558 0.11442 0.0
Li1 Li 0.19137 0.35609 0.07547 0.0
Li2 Li 0.18662 0.39855 0.07635 0.0
Li3 Li 0.14981 0.37218 0.08492 0.0
C4 C 0.23579 0.38224 0.10475 0.0
N5 N 0.27915 0.38815 0.13399 0.0
C6 C 0.24562 0.36446 0.11882 0.0
C7 C 0.24806 0.40299 0.1054 0.0
C8 C 0.26754 0.3678 0.13355 0.0
C9 C 0.26996 0.40564 0.12033 0.0
C10 C 0.16966 0.32559 0.10488 0.0
C11 C 0.16016 0.28883 0.08879 0.0
N12 N 0.17493 0.27973 0.1073 0.0
C13 C 0.18468 0.31586 0.1238 0.0
C14 C 0.15719 0.31197 0.08731 0.0
C15 C 0.1871 0.29265 0.1247 0.0
C16 C 0.17446 0.3634 0.16397 0.0
N17 N 0.19112 0.3761 0.15037 0.0
C18 C 0.20961 0.39052 0.18845 0.0
C19 C 0.20844 0.38965 0.16207 0.0
C20 C 0.19234 0.37778 0.20281 0.0
C21 C 0.17477 0.36393 0.19029 0.0
H22 H 0.16032 0.35331 0.15433 0.0
H23 H 0.22071 0.40043 0.15106 0.0
C24 C 0.20481 0.33027 0.03262 0.0
N25 N 0.20813 0.33207 0.05804 0.0
C26 C 0.21531 0.31223 0.01942 0.0
C27 C 0.23274 0.29837 0.05869 0.0
C28 C 0.22238 0.31689 0.07103 0.0
C29 C 0.22902 0.29586 0.03264 0.0
H30 H 0.19378 0.34271 0.02261 0.0
H31 H 0.22533 0.31888 0.09106 0.0
C32 C 0.1543 0.40895 0.1257 0.0
N33 N 0.14284 0.42689 0.17243 0.0
C34 C 0.13325 0.40101 0.13942 0.0
C35 C 0.1694 0.42613 0.13563 0.0
C36 C 0.12781 0.41027 0.16305 0.0
C37 C 0.16331 0.43496 0.15931 0.0
C38 C 0.15221 0.37666 0.03484 0.0
C39 C 0.14562 0.39707 0.0238 0.0
C40 C 0.13978 0.35715 0.02712 0.0
C41 C 0.12644 0.39762 1.00538 0.0
C42 C 0.12068 0.35841 0.00867 0.0
N43 N 0.11444 0.37845 0.99828 0.0
C44 C 0.21224 0.42679 0.04141 0.0
C45 C 0.18155 0.44456 0.06768 0.0
C46 C 0.21611 0.44658 0.0279 0.0
N47 N 0.19498 0.42613 0.06068 0.0
C48 C 0.18494 0.4647 0.05484 0.0
C49 C 0.20203 0.46575 0.03436 0.0
H50 H 0.22243 0.41177 0.0361 0.0
H51 H 0.16753 0.44344 0.08269 0.0
C52 C 0.10133 0.35137 0.09152 0.0
N53 N 0.11352 0.36955 0.08191 0.0
C54 C 0.07459 0.34981 0.09051 0.0
C55 C 0.07346 0.38577 0.06983 0.0
C56 C 0.10019 0.38673 0.07147 0.0
C57 C 0.06031 0.36713 0.07943 0.0
H58 H 0.11231 0.3383 0.1005 0.0
H59 H 0.11031 0.4013 0.06468 0.0
O60 O 0.21451 0.37932 0.09005 0.0
O61 O 0.16722 0.34831 0.10355 0.0
O62 O 0.16049 0.39953 0.10299 0.0
O63 O 0.17071 0.37581 0.05315 0.0
H64 H 0.23622 0.34838 0.11867 0.0
H65 H 0.24069 0.41689 0.09454 0.0
H66 H 0.27527 0.35424 0.14468 0.0
H67 H 0.27964 0.42161 0.12108 0.0
H68 H 0.15074 0.27811 0.07522 0.0
H69 H 0.19472 0.32611 0.13741 0.0
H70 H 0.14546 0.31919 0.0726 0.0
H71 H 0.19878 0.28492 0.13914 0.0
H72 H 0.2232 0.4016 0.19753 0.0
H73 H 0.16121 0.3538 0.20077 0.0
H74 H 0.21223 0.31079 0.99925 0.0
H75 H 0.24349 0.2861 0.06936 0.0
H76 H 0.12148 0.38762 0.13206 0.0
H77 H 0.18595 0.43226 0.12536 0.0
H78 H 0.11172 0.40417 0.17399 0.0
H79 H 0.17495 0.44812 0.16733 0.0
H80 H 0.15504 0.41234 0.02952 0.0
H81 H 0.14477 0.34122 0.03534 0.0
H82 H 0.12104 0.41331 0.99676 0.0
H83 H 0.1108 0.34345 1.00261 0.0
H84 H 0.22961 0.44682 0.01233 0.0
H85 H 0.17355 0.47906 0.06019 0.0
H86 H 0.06519 0.33549 0.09889 0.0
H87 H 0.06319 0.39953 0.06125 0.0
Li88 Li 0.81833 0.63773 0.61293 0.0
Li89 Li 0.8105 0.65775 0.57422 0.0
Li90 Li 0.81679 0.61507 0.57496 0.0
Li91 Li 0.85345 0.64227 0.58327 0.0
C92 C 0.7672 0.63428 0.60413 0.0
N93 N 0.72406 0.63546 0.63444 0.0
C94 C 0.76087 0.65377 0.61721 0.0
C95 C 0.75156 0.61542 0.60631 0.0
C96 C 0.739 0.65402 0.6325 0.0
C97 C 0.72982 0.61635 0.62176 0.0
C98 C 0.83947 0.68798 0.60194 0.0
C99 C 0.85917 0.72054 0.58343 0.0
N100 N 0.84884 0.73337 0.60204 0.0
C101 C 0.82919 0.70145 0.62098 0.0
C102 C 0.8547 0.69755 0.5831 0.0
C103 C 0.83409 0.72438 0.62065 0.0
C104 C 0.82881 0.65038 0.66239 0.0
N105 N 0.81246 0.63736 0.64885 0.0
C106 C 0.79385 0.62307 0.68696 0.0
C107 C 0.79513 0.62381 0.66057 0.0
C108 C 0.81093 0.63601 0.70129 0.0
C109 C 0.82837 0.64998 0.68872 0.0
H110 H 0.84284 0.66057 0.6527 0.0
H111 H 0.78294 0.61299 0.64954 0.0
C112 C 0.79032 0.68052 0.53177 0.0
N113 N 0.79311 0.68167 0.55728 0.0
C114 C 0.77918 0.69821 0.51847 0.0
C115 C 0.7734 0.71773 0.55798 0.0
C116 C 0.78449 0.69963 0.57051 0.0
C117 C 0.77074 0.7172 0.53161 0.0
H118 H 0.79703 0.66597 0.52167 0.0
H119 H 0.78637 0.70004 0.5908 0.0
C120 C 0.84877 0.60438 0.6238 0.0
N121 N 0.85792 0.58521 0.67039 0.0
C122 C 0.86934 0.61171 0.63858 0.0
C123 C 0.83296 0.5872 0.63261 0.0
C124 C 0.87361 0.60184 0.66212 0.0
C125 C 0.8379 0.57772 0.65624 0.0
C126 C 0.84552 0.63925 0.53013 0.0
C127 C 0.85158 0.6195 0.51739 0.0
C128 C 0.85313 0.65976 0.51999 0.0
C129 C 0.86553 0.6206 0.49487 0.0
C130 C 0.86706 0.66015 0.49743 0.0
N131 N 0.87294 0.64073 0.48546 0.0
C132 C 0.79105 0.58612 0.54057 0.0
C133 C 0.82383 0.56945 0.56522 0.0
C134 C 0.78749 0.5662 0.52719 0.0
N135 N 0.80916 0.58738 0.559 0.0
C136 C 0.82077 0.54922 0.55251 0.0
C137 C 0.80273 0.54753 0.53294 0.0
H138 H 0.77985 0.60074 0.53584 0.0
H139 H 0.83846 0.57104 0.57958 0.0
C140 C 0.90164 0.65931 0.59756 0.0
N141 N 0.88963 0.64646 0.57998 0.0
C142 C 0.92829 0.6619 0.59699 0.0
C143 C 0.92974 0.63817 0.5601 0.0
C144 C 0.90312 0.63579 0.56159 0.0
C145 C 0.9426 0.65127 0.57804 0.0
H146 H 0.89056 0.66717 0.61236 0.0
H147 H 0.89337 0.62496 0.54846 0.0
O148 O 0.78853 0.63367 0.58914 0.0
O149 O 0.83471 0.66552 0.60192 0.0
O150 O 0.84371 0.6144 0.60113 0.0
O151 O 0.83182 0.63847 0.55217 0.0
H152 H 0.77294 0.66842 0.61586 0.0
H153 H 0.75624 0.60023 0.59625 0.0
H154 H 0.73395 0.66893 0.64287 0.0
H155 H 0.71755 0.60188 0.62371 0.0
H156 H 0.87089 0.72818 0.56893 0.0
H157 H 0.81728 0.69431 0.63567 0.0
H158 H 0.86309 0.68733 0.56846 0.0
H159 H 0.82612 0.73502 0.63518 0.0
H160 H 0.78031 0.61194 0.69608 0.0
H161 H 0.84175 0.66029 0.69917 0.0
H162 H 0.77769 0.69724 0.4981 0.0
H163 H 0.76688 0.73199 0.5688 0.0
H164 H 0.88166 0.62507 0.63209 0.0
H165 H 0.81676 0.58153 0.62153 0.0
H166 H 0.88932 0.60746 0.67386 0.0
H167 H 0.82571 0.56454 0.66339 0.0
H168 H 0.84578 0.60348 0.5249 0.0
H169 H 0.84817 0.67522 0.5293 0.0
H170 H 0.87048 0.60545 0.48489 0.0
H171 H 0.87312 0.6759 0.48941 0.0
H172 H 0.77324 0.56548 0.51232 0.0
H173 H 0.83305 0.53526 0.55731 0.0
H174 H 0.93765 0.67195 0.61129 0.0
H175 H 0.94027 0.62926 0.54561 0.0
Li176 Li 0.1826 0.61708 0.9377 0.0
Li177 Li 0.14927 0.64276 0.92782 0.0
Li178 Li 0.18325 0.63896 0.89837 0.0
Li179 Li 0.1895 0.65883 0.93961 0.0
C180 C 0.16407 0.59652 0.89543 0.0
N181 N 0.17538 0.55829 0.86835 0.0
C182 C 0.14431 0.58307 0.88606 0.0
C183 C 0.18963 0.59044 0.89103 0.0
C184 C 0.15041 0.56383 0.87242 0.0
C185 C 0.19493 0.57108 0.87729 0.0
C186 C 0.14897 0.63879 0.97867 0.0
C187 C 0.12701 0.65533 0.01412 0.0
N188 N 0.11089 0.63747 0.01497 0.0
C189 C 0.13233 0.62052 0.97999 0.0
C190 C 0.14642 0.6563 0.99591 0.0
C191 C 0.11314 0.6202 0.99843 0.0
C192 C 0.21237 0.58605 0.96653 0.0
N193 N 0.19014 0.58924 0.95355 0.0
C194 C 0.17582 0.55246 0.96399 0.0
C195 C 0.17195 0.57299 0.9522 0.0
C196 C 0.19854 0.54864 0.97752 0.0
C197 C 0.21694 0.56576 0.97886 0.0
H198 H 0.22638 0.59936 0.96753 0.0
H199 H 0.1542 0.57607 0.94224 0.0
C200 C 0.09836 0.63417 0.91386 0.0
N201 N 0.11272 0.64676 0.92986 0.0
C202 C 0.07162 0.63547 0.91438 0.0
C203 C 0.07482 0.66318 0.94736 0.0
C204 C 0.10152 0.6613 0.94625 0.0
C205 C 0.05952 0.64993 0.93149 0.0
H206 H 0.10769 0.62307 0.9007 0.0
H207 H 0.11326 0.6715 0.95845 0.0
C208 C 0.23509 0.64378 0.91677 0.0
N209 N 0.28197 0.66208 0.90377 0.0
C210 C 0.23621 0.66451 0.90473 0.0
C211 C 0.25779 0.63235 0.92224 0.0
C212 C 0.26009 0.67349 0.89831 0.0
C213 C 0.28131 0.64188 0.91548 0.0
C214 C 0.14894 0.68274 0.90794 0.0
C215 C 0.13331 0.6827 0.88649 0.0
C216 C 0.14456 0.6984 0.92704 0.0
C217 C 0.1134 0.69822 0.8846 0.0
C218 C 0.1245 0.7137 0.9244 0.0
N219 N 0.10944 0.71327 0.90343 0.0
C220 C 0.16839 0.63536 0.84874 0.0
C221 C 0.21366 0.63837 0.85165 0.0
C222 C 0.16979 0.63375 0.82252 0.0
N223 N 0.19007 0.63778 0.86276 0.0
C224 C 0.21592 0.63714 0.82533 0.0
C225 C 0.19377 0.63466 0.81053 0.0
H226 H 0.14994 0.63443 0.85805 0.0
H227 H 0.23077 0.63949 0.86303 0.0
C228 C 0.21437 0.67915 0.98119 0.0
N229 N 0.2067 0.68241 0.95693 0.0
C230 C 0.22589 0.69652 0.99472 0.0
C231 C 0.22193 0.72005 0.95783 0.0
C232 C 0.21037 0.70231 0.94508 0.0
C233 C 0.22957 0.71734 0.98306 0.0
H234 H 0.21125 0.66313 0.9901 0.0
H235 H 0.20392 0.70453 0.92584 0.0
O236 O 0.15821 0.6155 0.90873 0.0
O237 O 0.16772 0.63954 0.96061 0.0
O238 O 0.21198 0.63487 0.92379 0.0
O239 O 0.16828 0.66745 0.91034 0.0
H240 H 0.12442 0.58738 0.88933 0.0
H241 H 0.20528 0.60048 0.89804 0.0
H242 H 0.13528 0.55329 0.86508 0.0
H243 H 0.21461 0.56624 0.87374 0.0
H244 H 0.12471 0.66881 0.02752 0.0
H245 H 0.13395 0.60693 0.96666 0.0
H246 H 0.15913 0.67058 0.99509 0.0
H247 H 0.09998 0.60626 0.99955 0.0
H248 H 0.1609 0.53989 0.96305 0.0
H249 H 0.23462 0.56343 0.98931 0.0
H250 H 0.06051 0.62501 0.90177 0.0
H251 H 0.06625 0.67498 0.96037 0.0
H252 H 0.2188 0.67343 0.90006 0.0
H253 H 0.25723 0.61631 0.93164 0.0
H254 H 0.26123 0.6895 0.88892 0.0
H255 H 0.29905 0.63322 0.91958 0.0
H256 H 0.1364 0.67075 0.87152 0.0
H257 H 0.15615 0.69846 0.94397 0.0
H258 H 0.10107 0.6983 0.86816 0.0
H259 H 0.12079 0.7258 0.93912 0.0
H260 H 0.15227 0.63194 0.81168 0.0
H261 H 0.23475 0.63769 0.81665 0.0
H262 H 0.2319 0.69369 0.01404 0.0
H263 H 0.22436 0.73589 0.94824 0.0
Li264 Li 0.82059 0.39568 0.43593 0.0
Li265 Li 0.8547 0.3698 0.42657 0.0
Li266 Li 0.81962 0.37451 0.39692 0.0
Li267 Li 0.8124 0.35571 0.43658 0.0
C268 C 0.8419 0.41587 0.3933 0.0
N269 N 0.83499 0.45404 0.36478 0.0
C270 C 0.86295 0.42638 0.38204 0.0
C271 C 0.81731 0.42481 0.39008 0.0
C272 C 0.85907 0.44566 0.36769 0.0
C273 C 0.81422 0.4441 0.37559 0.0
C274 C 0.85039 0.38311 0.47702 0.0
C275 C 0.86273 0.38776 0.5206 0.0
N276 N 0.88017 0.40348 0.51354 0.0
C277 C 0.86848 0.39927 0.47019 0.0
C278 C 0.84751 0.37726 0.50242 0.0
C279 C 0.88332 0.40939 0.48892 0.0
C280 C 0.79249 0.4265 0.4666 0.0
N281 N 0.8138 0.42381 0.45204 0.0
C282 C 0.82763 0.46097 0.46145 0.0
C283 C 0.83129 0.44053 0.44941 0.0
C284 C 0.80582 0.46429 0.47654 0.0
C285 C 0.78815 0.44671 0.47922 0.0
H286 H 0.77902 0.41286 0.46862 0.0
H287 H 0.8484 0.43795 0.43826 0.0
C288 C 0.90455 0.3729 0.40833 0.0
N289 N 0.89081 0.36526 0.42837 0.0
C290 C 0.9313 0.37225 0.40873 0.0
C291 C 0.92932 0.35501 0.45 0.0
C292 C 0.90253 0.35611 0.44886 0.0
C293 C 0.94397 0.36359 0.42996 0.0
H294 H 0.89466 0.37987 0.3922 0.0
H295 H 0.89115 0.3502 0.46459 0.0
C296 C 0.76843 0.3702 0.41214 0.0
N297 N 0.72359 0.35127 0.39429 0.0
C298 C 0.76938 0.35138 0.39658 0.0
C299 C 0.74468 0.37942 0.41859 0.0
C300 C 0.7465 0.34205 0.38775 0.0
C301 C 0.72222 0.3696 0.40938 0.0
C302 C 0.84627 0.32589 0.41324 0.0
C303 C 0.85078 0.31103 0.3934 0.0
C304 C 0.85284 0.31979 0.4379 0.0
C305 C 0.86185 0.29029 0.39854 0.0
C306 C 0.86387 0.2989 0.44227 0.0
N307 N 0.86811 0.28471 0.42267 0.0
C308 C 0.83155 0.36464 0.3474 0.0
C309 C 0.79307 0.38558 0.3504 0.0
C310 C 0.83004 0.36465 0.32111 0.0
N311 N 0.81328 0.37501 0.36143 0.0
C312 C 0.79085 0.38608 0.32403 0.0
C313 C 0.80958 0.37556 0.30906 0.0
H314 H 0.84753 0.35657 0.3567 0.0
H315 H 0.77893 0.39393 0.362 0.0
C316 C 0.78838 0.33401 0.4779 0.0
N317 N 0.79422 0.33198 0.45297 0.0
C318 C 0.77653 0.31641 0.49079 0.0
C319 C 0.77661 0.29511 0.45204 0.0
C320 C 0.78848 0.31306 0.43992 0.0
C321 C 0.77052 0.29663 0.47782 0.0
H322 H 0.7932 0.34922 0.48782 0.0
H323 H 0.79357 0.31171 0.42019 0.0
O324 O 0.84549 0.39695 0.40737 0.0
O325 O 0.8357 0.37279 0.45905 0.0
O326 O 0.79051 0.3797 0.42111 0.0
O327 O 0.83535 0.34621 0.40839 0.0
H328 H 0.88212 0.41974 0.3844 0.0
H329 H 0.80077 0.41701 0.3987 0.0
H330 H 0.8752 0.45396 0.35887 0.0
H331 H 0.79531 0.45118 0.37294 0.0
H332 H 0.8607 0.38339 0.54033 0.0
H333 H 0.87118 0.40386 0.45062 0.0
H334 H 0.8337 0.36469 0.50802 0.0
H335 H 0.8974 0.42192 0.48388 0.0
H336 H 0.84204 0.47389 0.45944 0.0
H337 H 0.7712 0.44863 0.49087 0.0
H338 H 0.942 0.37864 0.39273 0.0
H339 H 0.93849 0.34819 0.46665 0.0
H340 H 0.78756 0.34403 0.39131 0.0
H341 H 0.74364 0.39401 0.43061 0.0
H342 H 0.74697 0.32747 0.37571 0.0
H343 H 0.7037 0.37656 0.41423 0.0
H344 H 0.84572 0.31547 0.37421 0.0
H345 H 0.84937 0.33098 0.45354 0.0
H346 H 0.86545 0.27862 0.38336 0.0
H347 H 0.86903 0.29397 0.46126 0.0
H348 H 0.84481 0.35624 0.3103 0.0
H349 H 0.77502 0.39503 0.31548 0.0
H350 H 0.7721 0.31823 0.51068 0.0
H351 H 0.77279 0.27999 0.44148 0.0
Li352 Li 0.81501 0.65714 0.94028 0.0
Li353 Li 0.8221 0.61654 0.93737 0.0
Li354 Li 0.8585 0.64353 0.92797 0.0
Li355 Li 0.82245 0.6382 0.899 0.0
C356 C 0.84548 0.64082 0.98476 0.0
N357 N 0.85805 0.64516 0.03528 0.0
C358 C 0.83048 0.63049 1.0033 0.0
C359 C 0.86698 0.65329 0.99198 0.0
C360 C 0.83711 0.63291 0.02871 0.0
C361 C 0.87298 0.65531 0.01759 0.0
C362 C 0.7717 0.6229 0.92934 0.0
C363 C 0.7442 0.59075 0.92489 0.0
N364 N 0.7285 0.59907 0.94315 0.0
C365 C 0.75525 0.6312 0.94797 0.0
C366 C 0.7661 0.60259 0.91758 0.0
C367 C 0.73351 0.61887 0.95471 0.0
C368 C 0.7859 0.69674 0.94244 0.0
N369 N 0.79766 0.68116 0.95709 0.0
C370 C 0.78682 0.70151 0.99447 0.0
C371 C 0.79805 0.6831 0.98268 0.0
C372 C 0.77503 0.71813 0.97982 0.0
C373 C 0.77434 0.71542 0.95346 0.0
H374 H 0.7858 0.69478 0.92212 0.0
H375 H 0.80732 0.67059 0.99404 0.0
C376 C 0.8318 0.57119 0.94711 0.0
N377 N 0.81548 0.58814 0.95292 0.0
C378 C 0.82963 0.55057 0.95927 0.0
C379 C 0.79363 0.56503 0.98292 0.0
C380 C 0.79645 0.58535 0.97027 0.0
C381 C 0.81065 0.54745 0.97776 0.0
H382 H 0.84697 0.57386 0.93349 0.0
H383 H 0.78383 0.59905 0.97483 0.0
C384 C 0.84541 0.6884 0.91367 0.0
N385 N 0.86094 0.73228 0.91871 0.0
C386 C 0.84468 0.70279 0.8929 0.0
C387 C 0.85385 0.69637 0.93702 0.0
C388 C 0.85269 0.7249 0.89581 0.0
C389 C 0.86165 0.71859 0.9392 0.0
C390 C 0.85425 0.60601 0.8877 0.0
C391 C 0.87527 0.61368 0.87374 0.0
C392 C 0.83893 0.58884 0.8781 0.0
C393 C 0.88041 0.6042 0.85016 0.0
C394 C 0.84471 0.5798 0.85445 0.0
N395 N 0.86513 0.58763 0.84107 0.0
C396 C 0.90777 0.63252 0.94447 0.0
C397 C 0.90687 0.6639 0.91718 0.0
C398 C 0.93448 0.63369 0.94606 0.0
N399 N 0.89458 0.64755 0.93029 0.0
C400 C 0.93358 0.66573 0.91831 0.0
C401 C 0.94772 0.65051 0.93291 0.0
H402 H 0.89747 0.61942 0.95427 0.0
H403 H 0.89604 0.67528 0.9055 0.0
C404 C 0.79651 0.62658 0.8526 0.0
N405 N 0.81588 0.63836 0.86352 0.0
C406 C 0.79458 0.62548 0.82624 0.0
C407 C 0.83206 0.64914 0.82309 0.0
C408 C 0.83328 0.64975 0.84937 0.0
C409 C 0.81284 0.63652 0.81118 0.0
H410 H 0.78302 0.61756 0.86428 0.0
H411 H 0.84863 0.65878 0.85857 0.0
O412 O 0.83941 0.63846 0.95972 0.0
O413 O 0.79303 0.63474 0.92248 0.0
O414 O 0.8373 0.66679 0.91119 0.0
O415 O 0.84835 0.61563 0.91038 0.0
H416 H 0.81364 0.62105 0.99819 0.0
H417 H 0.87899 0.66132 0.97803 0.0
H418 H 0.82556 0.62509 0.04322 0.0
H419 H 0.88954 0.66492 0.0234 0.0
H420 H 0.73972 0.57493 0.91609 0.0
H421 H 0.75929 0.64693 0.9572 0.0
H422 H 0.77871 0.5959 0.90322 0.0
H423 H 0.72065 0.62504 0.96916 0.0
H424 H 0.78781 0.70294 0.01484 0.0
H425 H 0.76495 0.72758 0.94148 0.0
H426 H 0.8432 0.53743 0.95486 0.0
H427 H 0.77849 0.56317 0.9968 0.0
H428 H 0.83792 0.69697 0.87473 0.0
H429 H 0.85407 0.68558 0.95335 0.0
H430 H 0.85228 0.73621 0.87988 0.0
H431 H 0.86818 0.72498 0.95719 0.0
H432 H 0.88725 0.62702 0.88088 0.0
H433 H 0.82257 0.58277 0.88868 0.0
H434 H 0.89647 0.61009 0.83903 0.0
H435 H 0.83291 0.56663 0.84668 0.0
H436 H 0.94469 0.62123 0.95693 0.0
H437 H 0.9431 0.67883 0.90775 0.0
H438 H 0.77947 0.6156 0.81773 0.0
H439 H 0.84618 0.65828 0.81218 0.0
Li440 Li 0.18121 0.39624 0.43883 0.0
Li441 Li 0.1884 0.3556 0.44124 0.0
Li442 Li 0.18065 0.37473 0.40036 0.0
Li443 Li 0.14486 0.36929 0.42927 0.0
C444 C 0.23185 0.38977 0.42992 0.0
N445 N 0.27588 0.41296 0.4425 0.0
C446 C 0.24867 0.38122 0.44806 0.0
C447 C 0.23749 0.41004 0.41805 0.0
C448 C 0.27082 0.39321 0.45418 0.0
C449 C 0.25982 0.42154 0.42473 0.0
C450 C 0.15891 0.37254 0.48626 0.0
C451 C 0.13255 0.35922 0.52062 0.0
N452 N 0.14811 0.36991 0.53732 0.0
C453 C 0.17457 0.38345 0.50378 0.0
C454 C 0.13765 0.36038 0.49475 0.0
C455 C 0.16883 0.38189 0.5295 0.0
C456 C 0.16918 0.44042 0.45056 0.0
N457 N 0.18743 0.4246 0.45451 0.0
C458 C 0.21032 0.44912 0.48221 0.0
C459 C 0.20781 0.42858 0.46995 0.0
C460 C 0.19146 0.46559 0.47886 0.0
C461 C 0.17084 0.46113 0.46254 0.0
H462 H 0.15296 0.43677 0.43851 0.0
H463 H 0.22185 0.41568 0.47331 0.0
C464 C 0.21599 0.31507 0.4438 0.0
N465 N 0.20618 0.33191 0.45808 0.0
C466 C 0.22817 0.29692 0.4553 0.0
C467 C 0.22013 0.31386 0.49594 0.0
C468 C 0.20822 0.33167 0.48367 0.0
C469 C 0.23036 0.29619 0.48174 0.0
H470 H 0.21411 0.31565 0.42346 0.0
H471 H 0.20045 0.34517 0.49468 0.0
C472 C 0.14937 0.40753 0.38959 0.0
N473 N 0.13917 0.42732 0.34356 0.0
C474 C 0.12861 0.40025 0.37505 0.0
C475 C 0.16476 0.42503 0.3809 0.0
C476 C 0.12382 0.41043 0.35178 0.0
C477 C 0.15933 0.43479 0.35754 0.0
C478 C 0.1561 0.3249 0.41584 0.0
C479 C 0.15339 0.31043 0.3953 0.0
C480 C 0.14901 0.31774 0.43997 0.0
C481 C 0.1434 0.28907 0.39926 0.0
C482 C 0.13914 0.29625 0.44317 0.0
N483 N 0.13654 0.28248 0.42291 0.0
C484 C 0.20657 0.38669 0.35406 0.0
C485 C 0.16968 0.36369 0.35069 0.0
C486 C 0.20852 0.38797 0.32772 0.0
N487 N 0.18713 0.37491 0.3649 0.0
C488 C 0.1709 0.3645 0.32441 0.0
C489 C 0.1902 0.37711 0.31261 0.0
H490 H 0.22014 0.39553 0.36579 0.0
H491 H 0.1543 0.35463 0.35984 0.0
C492 C 0.09602 0.3799 0.44725 0.0
N493 N 0.10876 0.36557 0.4318 0.0
C494 C 0.06926 0.37943 0.44853 0.0
C495 C 0.06922 0.34934 0.41809 0.0
C496 C 0.09601 0.35043 0.41735 0.0
C497 C 0.05555 0.36422 0.43354 0.0
H498 H 0.10669 0.39195 0.45827 0.0
H499 H 0.10652 0.33963 0.4047 0.0
O500 O 0.21017 0.37821 0.4236 0.0
O501 O 0.16407 0.37409 0.46094 0.0
O502 O 0.15493 0.39725 0.41198 0.0
O503 O 0.16583 0.34588 0.41222 0.0
H504 H 0.24463 0.36552 0.45736 0.0
H505 H 0.2246 0.41696 0.4041 0.0
H506 H 0.28398 0.38683 0.46824 0.0
H507 H 0.26435 0.43732 0.41582 0.0
H508 H 0.11619 0.34984 0.52742 0.0
H509 H 0.19125 0.39267 0.49766 0.0
H510 H 0.12516 0.35193 0.48155 0.0
H511 H 0.18089 0.39016 0.54325 0.0
H512 H 0.22674 0.452 0.49431 0.0
H513 H 0.15577 0.4733 0.45959 0.0
H514 H 0.23585 0.28365 0.44365 0.0
H515 H 0.22086 0.31374 0.51639 0.0
H516 H 0.11657 0.38666 0.3815 0.0
H517 H 0.18089 0.43085 0.39198 0.0
H518 H 0.10796 0.40484 0.3402 0.0
H519 H 0.17119 0.44824 0.35047 0.0
H520 H 0.15893 0.31565 0.3765 0.0
H521 H 0.15133 0.32859 0.45607 0.0
H522 H 0.14113 0.27772 0.38353 0.0
H523 H 0.13361 0.2905 0.46176 0.0
H524 H 0.22371 0.39782 0.31928 0.0
H525 H 0.15673 0.35551 0.31343 0.0
H526 H 0.05937 0.39099 0.46088 0.0
H527 H 0.05925 0.33753 0.4061 0.0
Li528 Li 0.82231 0.37347 0.11133 0.0
Li529 Li 0.85874 0.36937 0.08248 0.0
Li530 Li 0.82202 0.39386 0.07287 0.0
Li531 Li 0.81528 0.35414 0.07038 0.0
C532 C 0.85328 0.40612 0.12268 0.0
N533 N 0.86404 0.42455 0.16931 0.0
C534 C 0.87413 0.39836 0.13676 0.0
C535 C 0.83805 0.4234 0.13217 0.0
C536 C 0.87921 0.40786 0.16034 0.0
C537 C 0.84377 0.43246 0.15582 0.0
C538 C 0.84716 0.32417 0.09506 0.0
C539 C 0.86723 0.2969 0.068 0.0
N540 N 0.86389 0.28114 0.0862 0.0
C541 C 0.84383 0.3077 0.11346 0.0
C542 C 0.85889 0.31875 0.07211 0.0
C543 C 0.85247 0.28604 0.10864 0.0
C544 C 0.79548 0.38466 0.15726 0.0
N545 N 0.81527 0.37311 0.14674 0.0
C546 C 0.83033 0.36211 0.18749 0.0
C547 C 0.83234 0.36172 0.16123 0.0
C548 C 0.81042 0.3742 0.19898 0.0
C549 C 0.79267 0.38542 0.18355 0.0
H550 H 0.78227 0.39369 0.14532 0.0
H551 H 0.84798 0.35281 0.15233 0.0
C552 C 0.90799 0.38308 0.06855 0.0
N553 N 0.89517 0.36657 0.08087 0.0
C554 C 0.93477 0.38294 0.06745 0.0
C555 C 0.93477 0.349 0.09214 0.0
C556 C 0.90797 0.34988 0.09291 0.0
C557 C 0.94845 0.36567 0.07922 0.0
H558 H 0.89738 0.39661 0.06002 0.0
H559 H 0.89751 0.33749 0.10357 0.0
C560 C 0.77191 0.38843 0.08109 0.0
N561 N 0.72943 0.41327 0.06751 0.0
C562 C 0.75487 0.38035 0.06287 0.0
C563 C 0.76721 0.40902 0.09261 0.0
C564 C 0.73353 0.39319 0.05622 0.0
C565 C 0.74568 0.42137 0.08541 0.0
C566 C 0.83572 0.37991 0.02607 0.0
C567 C 0.81205 0.37686 0.01413 0.0
C568 C 0.85536 0.39129 0.01349 0.0
C569 C 0.80838 0.38532 0.98982 0.0
C570 C 0.85093 0.39952 0.98918 0.0
N571 N 0.82773 0.3964 0.97795 0.0
C572 C 0.83194 0.43891 0.0628 0.0
C573 C 0.79645 0.42531 0.03945 0.0
C574 C 0.83001 0.45969 0.05102 0.0
N575 N 0.81529 0.42221 0.05693 0.0
C576 C 0.79391 0.44582 0.0271 0.0
C577 C 0.81084 0.46332 0.03287 0.0
H578 H 0.84715 0.43597 0.07626 0.0
H579 H 0.78363 0.41181 0.0347 0.0
C580 C 0.77921 0.31897 0.06614 0.0
N581 N 0.79905 0.32937 0.05427 0.0
C582 C 0.76748 0.30037 0.05512 0.0
C583 C 0.79681 0.30357 0.01989 0.0
C584 C 0.80812 0.32194 0.03168 0.0
C585 C 0.77631 0.2925 0.03169 0.0
H586 H 0.77255 0.32514 0.0842 0.0
H587 H 0.82428 0.3302 0.02289 0.0
O588 O 0.84746 0.39653 0.09996 0.0
O589 O 0.83838 0.34534 0.09934 0.0
O590 O 0.79282 0.37604 0.08791 0.0
O591 O 0.83965 0.37176 0.04992 0.0
H592 H 0.88602 0.38493 0.12974 0.0
H593 H 0.82187 0.42961 0.12147 0.0
H594 H 0.89516 0.40191 0.17154 0.0
H595 H 0.83205 0.44574 0.16348 0.0
H596 H 0.87636 0.29248 0.05033 0.0
H597 H 0.83464 0.31162 0.13126 0.0
H598 H 0.86155 0.33128 0.05762 0.0
H599 H 0.85006 0.27312 0.12272 0.0
H600 H 0.84433 0.35318 0.19874 0.0
H601 H 0.77727 0.39517 0.19173 0.0
H602 H 0.94469 0.39621 0.05754 0.0
H603 H 0.94471 0.33577 0.10206 0.0
H604 H 0.75813 0.36438 0.05389 0.0
H605 H 0.78023 0.41553 0.1067 0.0
H606 H 0.72024 0.3872 0.04207 0.0
H607 H 0.74192 0.43741 0.09402 0.0
H608 H 0.79652 0.36835 0.02368 0.0
H609 H 0.87383 0.39373 0.02232 0.0
H610 H 0.7901 0.38318 0.98043 0.0
H611 H 0.86596 0.40838 0.97923 0.0
H612 H 0.84384 0.47259 0.05555 0.0
H613 H 0.77895 0.44796 0.01311 0.0
H614 H 0.75155 0.29235 0.06466 0.0
H615 H 0.80423 0.29786 1.00189 0.0
Li616 Li 0.17729 0.63872 0.61355 0.0
Li617 Li 0.14358 0.64432 0.58329 0.0
Li618 Li 0.17787 0.6188 0.57346 0.0
Li619 Li 0.18547 0.65915 0.57319 0.0
C620 C 0.15699 0.59653 0.61382 0.0
N621 N 0.16631 0.55707 0.63938 0.0
C622 C 0.13656 0.58297 0.62153 0.0
C623 C 0.18217 0.59001 0.61931 0.0
C624 C 0.14166 0.5631 0.63439 0.0
C625 C 0.18648 0.57001 0.63218 0.0
C626 C 0.14578 0.68252 0.61086 0.0
C627 C 0.12742 0.71946 0.61132 0.0
N628 N 0.1098 0.71254 0.62862 0.0
C629 C 0.1276 0.67581 0.62874 0.0
C630 C 0.14579 0.70454 0.60213 0.0
C631 C 0.10952 0.69122 0.63744 0.0
C632 C 0.20749 0.64164 0.65891 0.0
N633 N 0.18402 0.63711 0.64889 0.0
C634 C 0.16682 0.62961 0.68986 0.0
C635 C 0.16389 0.63113 0.66377 0.0
C636 C 0.19083 0.63396 0.70085 0.0
C637 C 0.21134 0.64018 0.68505 0.0
H638 H 0.22318 0.64636 0.64661 0.0
H639 H 0.14546 0.62753 0.65534 0.0
C640 C 0.09285 0.6299 0.58455 0.0
N641 N 0.1072 0.64843 0.58007 0.0
C642 C 0.06612 0.63095 0.58392 0.0
C643 C 0.06922 0.67003 0.57303 0.0
C644 C 0.09596 0.66828 0.57419 0.0
C645 C 0.05405 0.65121 0.57815 0.0
H646 H 0.1022 0.61427 0.58872 0.0
H647 H 0.10762 0.68286 0.57074 0.0
C648 C 0.22929 0.63297 0.57607 0.0
N649 N 0.27421 0.62847 0.54876 0.0
C650 C 0.22846 0.63101 0.54977 0.0
C651 C 0.25295 0.6326 0.58848 0.0
C652 C 0.25138 0.62876 0.5363 0.0
C653 C 0.27545 0.63032 0.57434 0.0
C654 C 0.14999 0.65289 0.53224 0.0
C655 C 0.14168 0.64168 0.51059 0.0
C656 C 0.14558 0.6758 0.53455 0.0
C657 C 0.129 0.65358 0.49164 0.0
C658 C 0.13284 0.68712 0.5152 0.0
N659 N 0.12487 0.67587 0.49432 0.0
C660 C 0.16541 0.58399 0.54147 0.0
C661 C 0.20613 0.57881 0.56059 0.0
C662 C 0.16771 0.5638 0.52857 0.0
N663 N 0.1845 0.59113 0.55695 0.0
C664 C 0.20916 0.55837 0.54817 0.0
C665 C 0.18974 0.55068 0.53194 0.0
H666 H 0.14823 0.59393 0.53938 0.0
H667 H 0.22093 0.58474 0.57323 0.0
C668 C 0.21317 0.69986 0.57226 0.0
N669 N 0.20426 0.6829 0.55761 0.0
C670 C 0.22578 0.71804 0.56123 0.0
C671 C 0.2201 0.70078 0.52035 0.0
C672 C 0.20784 0.68288 0.53215 0.0
C673 C 0.22912 0.7187 0.53492 0.0
H674 H 0.21009 0.69941 0.59246 0.0
H675 H 0.20081 0.66911 0.52092 0.0
O676 O 0.15217 0.61615 0.60132 0.0
O677 O 0.16351 0.66764 0.60192 0.0
O678 O 0.20714 0.63523 0.58975 0.0
O679 O 0.16242 0.64144 0.55096 0.0
H680 H 0.11692 0.58775 0.61777 0.0
H681 H 0.1983 0.60023 0.61384 0.0
H682 H 0.12602 0.55248 0.64043 0.0
H683 H 0.20587 0.56479 0.63647 0.0
H684 H 0.12714 0.73654 0.60467 0.0
H685 H 0.12709 0.65879 0.63543 0.0
H686 H 0.15976 0.71005 0.58834 0.0
H687 H 0.09519 0.6862 0.65111 0.0
H688 H 0.1503 0.62537 0.70134 0.0
H689 H 0.23014 0.64373 0.69281 0.0
H690 H 0.05498 0.61605 0.58775 0.0
H691 H 0.06048 0.68598 0.5687 0.0
H692 H 0.21034 0.63111 0.53984 0.0
H693 H 0.2539 0.63406 0.60884 0.0
H694 H 0.25101 0.62723 0.51595 0.0
H695 H 0.29391 0.63002 0.5837 0.0
H696 H 0.14506 0.62397 0.50837 0.0
H697 H 0.15184 0.68474 0.55116 0.0
H698 H 0.12246 0.6451 0.47479 0.0
H699 H 0.12927 0.70485 0.51681 0.0
H700 H 0.15221 0.55829 0.51644 0.0
H701 H 0.2265 0.54875 0.55109 0.0
H702 H 0.23227 0.73167 0.57305 0.0
H703 H 0.2225 0.70066 0.50002 0.0
Li704 Li 0.68598 0.87355 0.11408 0.0
Li705 Li 0.69207 0.85444 0.07501 0.0
Li706 Li 0.68681 0.89695 0.07642 0.0
Li707 Li 0.65015 0.87013 0.08502 0.0
C708 C 0.73594 0.8807 0.1049 0.0
N709 N 0.7781 0.88662 0.1358 0.0
C710 C 0.74531 0.86289 0.11923 0.0
C711 C 0.74809 0.90148 0.10611 0.0
C712 C 0.76661 0.86624 0.1348 0.0
C713 C 0.76937 0.90414 0.12188 0.0
C714 C 0.6685 0.82338 0.10249 0.0
C715 C 0.65408 0.78859 0.08448 0.0
N716 N 0.66932 0.77728 0.10093 0.0
C717 C 0.68391 0.81141 0.11932 0.0
C718 C 0.65334 0.81189 0.08502 0.0
C719 C 0.6841 0.78811 0.1182 0.0
C720 C 0.68011 0.85852 0.16404 0.0
N721 N 0.69297 0.87383 0.1499 0.0
C722 C 0.71106 0.89003 0.18722 0.0
C723 C 0.70807 0.88959 0.16098 0.0
C724 C 0.69824 0.87422 0.20222 0.0
C725 C 0.68252 0.85837 0.1903 0.0
H726 H 0.66732 0.8468 0.15499 0.0
H727 H 0.71727 0.90221 0.14957 0.0
C728 C 0.70549 0.82896 0.03182 0.0
N729 N 0.70898 0.83067 0.05721 0.0
C730 C 0.71649 0.81132 0.01834 0.0
C731 C 0.73488 0.79769 0.05727 0.0
C732 C 0.72379 0.81573 0.06993 0.0
C733 C 0.73122 0.79532 0.03116 0.0
H734 H 0.69406 0.84122 0.02199 0.0
H735 H 0.72683 0.81764 0.08997 0.0
C736 C 0.65482 0.90664 0.12611 0.0
N737 N 0.64354 0.92455 0.17288 0.0
C738 C 0.6357 0.89705 0.14113 0.0
C739 C 0.6681 0.92542 0.13476 0.0
C740 C 0.63032 0.90633 0.16476 0.0
C741 C 0.66212 0.93422 0.15848 0.0
C742 C 0.65362 0.87505 0.03377 0.0
C743 C 0.6481 0.89539 0.02201 0.0
C744 C 0.64162 0.85556 0.02534 0.0
C745 C 0.63037 0.89591 1.00223 0.0
C746 C 0.62398 0.85678 1.00552 0.0
N747 N 0.61875 0.87676 0.99448 0.0
C748 C 0.71379 0.92667 0.04385 0.0
C749 C 0.67877 0.94229 0.06635 0.0
C750 C 0.71745 0.9467 0.03072 0.0
N751 N 0.69453 0.92483 0.06108 0.0
C752 C 0.68181 0.9626 0.05379 0.0
C753 C 0.70107 0.96487 0.03541 0.0
H754 H 0.72587 0.91241 0.03988 0.0
H755 H 0.66327 0.94021 0.07975 0.0
C756 C 0.60161 0.85084 0.09539 0.0
N757 N 0.6138 0.8673 0.08238 0.0
C758 C 0.57487 0.84917 0.09476 0.0
C759 C 0.5737 0.8815 0.06749 0.0
C760 C 0.60042 0.88271 0.06891 0.0
C761 C 0.56056 0.86455 0.08052 0.0
H762 H 0.61262 0.83932 0.10677 0.0
H763 H 0.61046 0.89616 0.05957 0.0
O764 O 0.71514 0.87781 0.08952 0.0
O765 O 0.6682 0.84622 0.10315 0.0
O766 O 0.6609 0.89737 0.10329 0.0
O767 O 0.67089 0.87423 0.05323 0.0
H768 H 0.73598 0.84678 0.11867 0.0
H769 H 0.74106 0.91541 0.09509 0.0
H770 H 0.77396 0.85266 0.14616 0.0
H771 H 0.77893 0.92014 0.1231 0.0
H772 H 0.6425 0.7795 0.071 0.0
H773 H 0.69594 0.82001 0.13285 0.0
H774 H 0.6411 0.82085 0.07206 0.0
H775 H 0.69607 0.77864 0.131 0.0
H776 H 0.72308 0.90273 0.19572 0.0
H777 H 0.67154 0.8464 0.2012 0.0
H778 H 0.71314 0.80998 0.99821 0.0
H779 H 0.74633 0.78577 0.06774 0.0
H780 H 0.62538 0.88242 0.13475 0.0
H781 H 0.68315 0.93289 0.12345 0.0
H782 H 0.6157 0.89899 0.17668 0.0
H783 H 0.67235 0.94865 0.16551 0.0
H784 H 0.65727 0.91063 0.02815 0.0
H785 H 0.64591 0.83965 0.03395 0.0
H786 H 0.62583 0.91155 0.99304 0.0
H787 H 0.61449 0.84183 0.99888 0.0
H788 H 0.7327 0.94789 0.01686 0.0
H789 H 0.66865 0.97616 0.05775 0.0
H790 H 0.56549 0.83633 0.10582 0.0
H791 H 0.56341 0.8938 0.05644 0.0
Li792 Li 0.31236 0.15893 0.5756 0.0
Li793 Li 0.31813 0.13887 0.61573 0.0
Li794 Li 0.35436 0.14325 0.58482 0.0
Li795 Li 0.31924 0.11696 0.57615 0.0
C796 C 0.33317 0.18867 0.60911 0.0
N797 N 0.32741 0.2337 0.61889 0.0
C798 C 0.31854 0.19576 0.62975 0.0
C799 C 0.34515 0.20448 0.59365 0.0
C800 C 0.31581 0.2186 0.63434 0.0
C801 C 0.3419 0.22717 0.59883 0.0
C802 C 0.26678 0.13109 0.60118 0.0
C803 C 0.23568 0.10601 0.61952 0.0
N804 N 0.21944 0.12348 0.62316 0.0
C805 C 0.24966 0.14875 0.60483 0.0
C806 C 0.25965 0.1095 0.60831 0.0
C807 C 0.22586 0.14458 0.61608 0.0
C808 C 0.29657 0.18392 0.53308 0.0
N809 N 0.29532 0.18306 0.55873 0.0
C810 C 0.2724 0.21763 0.55983 0.0
C811 C 0.28304 0.19922 0.57214 0.0
C812 C 0.27411 0.21926 0.53344 0.0
C813 C 0.28595 0.20193 0.51996 0.0
H814 H 0.30609 0.17073 0.52278 0.0
H815 H 0.28171 0.19799 0.59243 0.0
C816 C 0.33342 0.13407 0.66517 0.0
N817 N 0.3119 0.13801 0.65137 0.0
C818 C 0.33246 0.13412 0.69148 0.0
C819 C 0.28709 0.14222 0.68918 0.0
C820 C 0.28892 0.14197 0.66279 0.0
C821 C 0.30918 0.1386 0.70382 0.0
H822 H 0.35148 0.13113 0.65564 0.0
H823 H 0.27212 0.14545 0.6516 0.0
C824 C 0.35207 0.14278 0.53464 0.0
N825 N 0.38915 0.14837 0.49782 0.0
C826 C 0.36051 0.1245 0.52052 0.0
C827 C 0.36223 0.16395 0.52981 0.0
C828 C 0.37934 0.12765 0.50204 0.0
C829 C 0.38103 0.16642 0.51119 0.0
C830 C 0.3472 0.0961 0.61504 0.0
C831 C 0.37071 0.08502 0.61294 0.0
C832 C 0.32704 0.08612 0.62829 0.0
C833 C 0.37351 0.06392 0.62382 0.0
C834 C 0.33059 0.06501 0.63893 0.0
N835 N 0.35355 0.05442 0.63647 0.0
C836 C 0.40216 0.16423 0.59385 0.0
C837 C 0.40444 0.13075 0.57007 0.0
C838 C 0.42889 0.16618 0.59361 0.0
N839 N 0.39057 0.14668 0.58225 0.0
C840 C 0.43118 0.13217 0.56914 0.0
C841 C 0.44368 0.14989 0.58132 0.0
H842 H 0.3907 0.17646 0.60375 0.0
H843 H 0.39475 0.11669 0.56153 0.0
C844 C 0.28824 0.08363 0.55221 0.0
N845 N 0.31215 0.08897 0.56058 0.0
C846 C 0.28389 0.06322 0.54008 0.0
C847 C 0.3288 0.05426 0.54556 0.0
C848 C 0.33229 0.07483 0.55737 0.0
C849 C 0.3044 0.04831 0.53658 0.0
H850 H 0.27261 0.09531 0.55472 0.0
H851 H 0.35124 0.07976 0.56353 0.0
O852 O 0.33596 0.16638 0.60426 0.0
O853 O 0.29009 0.13486 0.59002 0.0
O854 O 0.3339 0.13999 0.55304 0.0
O855 O 0.34411 0.11672 0.60436 0.0
H856 H 0.30921 0.18379 0.64197 0.0
H857 H 0.35679 0.1993 0.57779 0.0
H858 H 0.30441 0.22432 0.65015 0.0
H859 H 0.35092 0.23958 0.58692 0.0
H860 H 0.22996 0.0894 0.62522 0.0
H861 H 0.25473 0.16552 0.59921 0.0
H862 H 0.27236 0.09553 0.60507 0.0
H863 H 0.2125 0.15813 0.61918 0.0
H864 H 0.26291 0.23046 0.57081 0.0
H865 H 0.2875 0.20258 0.49957 0.0
H866 H 0.34983 0.13078 0.70207 0.0
H867 H 0.2688 0.1458 0.69803 0.0
H868 H 0.35271 0.10803 0.52386 0.0
H869 H 0.35569 0.1783 0.54037 0.0
H870 H 0.38616 0.11363 0.49107 0.0
H871 H 0.38916 0.18269 0.50735 0.0
H872 H 0.38657 0.0926 0.60288 0.0
H873 H 0.30892 0.09465 0.63053 0.0
H874 H 0.39155 0.05509 0.62221 0.0
H875 H 0.31512 0.05707 0.64921 0.0
H876 H 0.43791 0.18016 0.60308 0.0
H877 H 0.44202 0.1192 0.55968 0.0
H878 H 0.26477 0.05912 0.53352 0.0
H879 H 0.34514 0.04334 0.54289 0.0
Li880 Li 0.6844 0.11646 0.93867 0.0
Li881 Li 0.64663 0.14281 0.92807 0.0
Li882 Li 0.68357 0.13852 0.90007 0.0
Li883 Li 0.68903 0.1574 0.93875 0.0
C884 C 0.65423 0.10426 0.88861 0.0
N885 N 0.64675 0.08381 0.84241 0.0
C886 C 0.6336 0.11053 0.87331 0.0
C887 C 0.67084 0.08737 0.88058 0.0
C888 C 0.6302 0.10005 0.84997 0.0
C889 C 0.66678 0.07729 0.85713 0.0
C890 C 0.66728 0.15037 0.98238 0.0
C891 C 0.65267 0.18011 0.00946 0.0
N892 N 0.67207 0.1755 0.02585 0.0
C893 C 0.68697 0.14581 0.99954 0.0
C894 C 0.64992 0.16758 0.98737 0.0
C895 C 0.6891 0.15875 0.02139 0.0
C896 C 0.71161 0.08656 0.9712 0.0
N897 N 0.69176 0.08876 0.95471 0.0
C898 C 0.67906 0.05092 0.96163 0.0
C899 C 0.67563 0.07148 0.94973 0.0
C900 C 0.69925 0.04814 0.9789 0.0
C901 C 0.71566 0.06627 0.98369 0.0
H902 H 0.72412 0.10062 0.97481 0.0
H903 H 0.6598 0.0738 0.93678 0.0
C904 C 0.5982 0.15716 0.91127 0.0
N905 N 0.61063 0.14635 0.93022 0.0
C906 C 0.57145 0.15866 0.91144 0.0
C907 C 0.57093 0.13857 0.95107 0.0
C908 C 0.59769 0.13729 0.95004 0.0
C909 C 0.55751 0.14902 0.93137 0.0
H910 H 0.60907 0.1642 0.89577 0.0
H911 H 0.60817 0.12876 0.9648 0.0
C912 C 0.73469 0.12728 0.91388 0.0
N913 N 0.77999 0.11211 0.89277 0.0
C914 C 0.75402 0.14239 0.90723 0.0
C915 C 0.73862 0.10442 0.91026 0.0
C916 C 0.77671 0.1344 0.89643 0.0
C917 C 0.7616 0.09709 0.89945 0.0
C918 C 0.67423 0.18555 0.89958 0.0
C919 C 0.6996 0.18749 0.89132 0.0
C920 C 0.65731 0.20341 0.8964 0.0
C921 C 0.7077 0.20737 0.88005 0.0
C922 C 0.66613 0.22303 0.88506 0.0
N923 N 0.69094 0.22459 0.87719 0.0
C924 C 0.67188 0.14914 0.85037 0.0
C925 C 0.70971 0.12731 0.85255 0.0
C926 C 0.6726 0.1488 0.82406 0.0
N927 N 0.69011 0.13836 0.86412 0.0
C928 C 0.71124 0.12663 0.82616 0.0
C929 C 0.69224 0.13715 0.81164 0.0
H930 H 0.65622 0.15748 0.85989 0.0
H931 H 0.72377 0.11848 0.86359 0.0
C932 C 0.72924 0.17884 0.9657 0.0
N933 N 0.70541 0.18169 0.95575 0.0
C934 C 0.74121 0.19631 0.97866 0.0
C935 C 0.70403 0.21936 0.97057 0.0
C936 C 0.69268 0.2014 0.95803 0.0
C937 C 0.72853 0.21687 0.98118 0.0
H938 H 0.73886 0.16294 0.96369 0.0
H939 H 0.67357 0.20311 0.95032 0.0
O940 O 0.65847 0.11494 0.91107 0.0
O941 O 0.66547 0.13848 0.96042 0.0
O942 O 0.71252 0.13481 0.92482 0.0
O943 O 0.6659 0.16632 0.91088 0.0
H944 H 0.62058 0.12358 0.8792 0.0
H945 H 0.68682 0.08225 0.89222 0.0
H946 H 0.61448 0.1049 0.83781 0.0
H947 H 0.67961 0.06432 0.85059 0.0
H948 H 0.63948 0.19359 0.01351 0.0
H949 H 0.70066 0.13264 0.99583 0.0
H950 H 0.63471 0.17143 0.97415 0.0
H951 H 0.70437 0.15555 0.03475 0.0
H952 H 0.66564 0.03751 0.95787 0.0
H953 H 0.73138 0.06475 0.99696 0.0
H954 H 0.56174 0.16711 0.89608 0.0
H955 H 0.56078 0.13091 0.96671 0.0
H956 H 0.75165 0.16008 0.91053 0.0
H957 H 0.72409 0.09245 0.91556 0.0
H958 H 0.79177 0.14591 0.89107 0.0
H959 H 0.76481 0.07947 0.89637 0.0
H960 H 0.71283 0.17377 0.89352 0.0
H961 H 0.63759 0.20215 0.90275 0.0
H962 H 0.7273 0.2091 0.87356 0.0
H963 H 0.65327 0.23702 0.88253 0.0
H964 H 0.65778 0.15739 0.81352 0.0
H965 H 0.72664 0.11741 0.8172 0.0
H966 H 0.76026 0.19388 0.98639 0.0
H967 H 0.69364 0.23495 0.97228 0.0
Li968 Li 0.35512 0.8718 0.43054 0.0
Li969 Li 0.31776 0.8976 0.43944 0.0
Li970 Li 0.31347 0.85491 0.44015 0.0
Li971 Li 0.31934 0.87491 0.40123 0.0
C972 C 0.35091 0.8739 0.48195 0.0
N973 N 0.38513 0.87201 0.52173 0.0
C974 C 0.35718 0.89328 0.49528 0.0
C975 C 0.36185 0.85353 0.48899 0.0
C976 C 0.37457 0.89198 0.51531 0.0
C977 C 0.37917 0.85293 0.50911 0.0
C978 C 0.3501 0.90804 0.3895 0.0
C979 C 0.34036 0.93217 0.3543 0.0
N980 N 0.3618 0.9248 0.34223 0.0
C981 C 0.37208 0.90076 0.37679 0.0
C982 C 0.33414 0.92393 0.37823 0.0
C983 C 0.37766 0.90943 0.3529 0.0
C984 C 0.40393 0.85314 0.42045 0.0
N985 N 0.39142 0.86919 0.43377 0.0
C986 C 0.43113 0.88301 0.45009 0.0
C987 C 0.40445 0.88421 0.4481 0.0
C988 C 0.44463 0.86652 0.43669 0.0
C989 C 0.43066 0.85155 0.42154 0.0
H990 H 0.3932 0.8419 0.40846 0.0
H991 H 0.39416 0.89734 0.45773 0.0
C992 C 0.29588 0.92461 0.4778 0.0
N993 N 0.30897 0.92487 0.45557 0.0
C994 C 0.29184 0.94446 0.49115 0.0
C995 C 0.31415 0.96444 0.45806 0.0
C996 C 0.31803 0.94423 0.44555 0.0
C997 C 0.30113 0.96467 0.48127 0.0
H998 H 0.2893 0.90889 0.48553 0.0
H999 H 0.32902 0.9439 0.42826 0.0
C1000 C 0.33748 0.82512 0.40976 0.0
N1001 N 0.33715 0.77918 0.40518 0.0
C1002 C 0.32276 0.81488 0.39097 0.0
C1003 C 0.3522 0.812 0.42607 0.0
C1004 C 0.32281 0.79163 0.38899 0.0
C1005 C 0.35172 0.7888 0.42351 0.0
C1006 C 0.26826 0.87967 0.41175 0.0
C1007 C 0.25921 0.8612 0.39833 0.0
C1008 C 0.25466 0.89976 0.41103 0.0
C1009 C 0.23672 0.8632 0.38415 0.0
C1010 C 0.23222 0.90107 0.39665 0.0
N1011 N 0.22381 0.88293 0.38361 0.0
C1012 C 0.29801 0.83028 0.48322 0.0
C1013 C 0.28469 0.81433 0.44448 0.0
C1014 C 0.28711 0.81258 0.49669 0.0
N1015 N 0.29701 0.83067 0.45755 0.0
C1016 C 0.27381 0.79619 0.45714 0.0
C1017 C 0.27517 0.79501 0.48361 0.0
H1018 H 0.30722 0.84377 0.49329 0.0
H1019 H 0.28338 0.81523 0.42419 0.0
C1020 C 0.32947 0.86284 0.35142 0.0
N1021 N 0.31273 0.87511 0.3654 0.0
C1022 C 0.32793 0.86274 0.32513 0.0
C1023 C 0.29203 0.88813 0.3278 0.0
C1024 C 0.29434 0.88781 0.35412 0.0
C1025 C 0.3091 0.87558 0.31297 0.0
H1026 H 0.34447 0.85347 0.36072 0.0
H1027 H 0.2819 0.89819 0.36538 0.0
O1028 O 0.33405 0.87486 0.46218 0.0
O1029 O 0.34388 0.89919 0.41253 0.0
O1030 O 0.33769 0.84788 0.41199 0.0
O1031 O 0.29015 0.87808 0.42582 0.0
H1032 H 0.3489 0.90918 0.49007 0.0
H1033 H 0.35698 0.83836 0.47906 0.0
H1034 H 0.37972 0.90686 0.52572 0.0
H1035 H 0.38784 0.8373 0.51471 0.0
H1036 H 0.32804 0.94429 0.34524 0.0
H1037 H 0.38456 0.88838 0.38515 0.0
H1038 H 0.31678 0.92944 0.38758 0.0
H1039 H 0.39454 0.90387 0.34279 0.0
H1040 H 0.44111 0.89498 0.46187 0.0
H1041 H 0.44029 0.83912 0.41012 0.0
H1042 H 0.28192 0.94401 0.50913 0.0
H1043 H 0.32215 0.97961 0.45017 0.0
H1044 H 0.31109 0.82474 0.37829 0.0
H1045 H 0.36393 0.81965 0.44052 0.0
H1046 H 0.31138 0.78348 0.37465 0.0
H1047 H 0.36296 0.77844 0.43606 0.0
H1048 H 0.26964 0.8456 0.39857 0.0
H1049 H 0.26143 0.91418 0.42139 0.0
H1050 H 0.22957 0.84909 0.37352 0.0
H1051 H 0.22152 0.91652 0.39584 0.0
H1052 H 0.28782 0.81279 0.51713 0.0
H1053 H 0.26467 0.78309 0.44628 0.0
H1054 H 0.34172 0.85311 0.31438 0.0
H1055 H 0.27713 0.89816 0.31918 0.0
Li1056 Li 0.31317 0.15711 0.94358 0.0
Li1057 Li 0.32118 0.11762 0.94155 0.0
Li1058 Li 0.35621 0.14301 0.93205 0.0
Li1059 Li 0.31945 0.1369 0.90119 0.0
C1060 C 0.34287 0.14842 0.98721 0.0
N1061 N 0.35323 0.16689 0.03393 0.0
C1062 C 0.33206 0.13921 0.00904 0.0
C1063 C 0.35919 0.16685 0.98918 0.0
C1064 C 0.33746 0.14884 0.03247 0.0
C1065 C 0.36413 0.17599 0.01296 0.0
C1066 C 0.26995 0.12316 0.93497 0.0
C1067 C 0.23223 0.10092 0.92704 0.0
N1068 N 0.22709 0.1007 0.95224 0.0
C1069 C 0.26425 0.12284 0.96076 0.0
C1070 C 0.25381 0.11221 0.91792 0.0
C1071 C 0.24251 0.11134 0.96913 0.0
C1072 C 0.2895 0.19962 0.94525 0.0
N1073 N 0.29528 0.18135 0.95941 0.0
C1074 C 0.27727 0.19852 0.99615 0.0
C1075 C 0.28893 0.18036 0.98429 0.0
C1076 C 0.27126 0.21773 0.98212 0.0
C1077 C 0.27744 0.21807 0.95626 0.0
H1078 H 0.29442 0.19992 0.9254 0.0
H1079 H 0.29303 0.16555 0.99509 0.0
C1080 C 0.33149 0.08489 0.97738 0.0
N1081 N 0.31542 0.08938 0.9578 0.0
C1082 C 0.33013 0.06451 0.98999 0.0
C1083 C 0.29582 0.05341 0.96198 0.0
C1084 C 0.29796 0.07403 0.94975 0.0
C1085 C 0.31208 0.04849 0.98238 0.0
H1086 H 0.3458 0.09702 0.98286 0.0
H1087 H 0.28613 0.07752 0.9335 0.0
C1088 C 0.34715 0.18459 0.90719 0.0
N1089 N 0.37273 0.22312 0.89337 0.0
C1090 C 0.35361 0.18832 0.88191 0.0
C1091 C 0.35333 0.20061 0.92538 0.0
C1092 C 0.36665 0.20786 0.87531 0.0
C1093 C 0.36636 0.21994 0.91803 0.0
C1094 C 0.34992 0.09367 0.91119 0.0
C1095 C 0.36956 0.08359 0.92507 0.0
C1096 C 0.33369 0.08058 0.89629 0.0
C1097 C 0.37246 0.06043 0.92401 0.0
C1098 C 0.33726 0.05748 0.8957 0.0
N1099 N 0.35638 0.04796 0.90949 0.0
C1100 C 0.40577 0.13975 0.95358 0.0
C1101 C 0.40461 0.15567 0.91261 0.0
C1102 C 0.43258 0.14076 0.95379 0.0
N1103 N 0.39241 0.14717 0.93318 0.0
C1104 C 0.43134 0.15714 0.91209 0.0
C1105 C 0.4457 0.14926 0.93268 0.0
H1106 H 0.39563 0.13248 0.96941 0.0
H1107 H 0.39366 0.16076 0.89631 0.0
C1108 C 0.29012 0.14156 0.85521 0.0
N1109 N 0.31304 0.13628 0.86597 0.0
C1110 C 0.28779 0.14217 0.82884 0.0
C1111 C 0.33247 0.13161 0.82547 0.0
C1112 C 0.3339 0.1311 0.85173 0.0
C1113 C 0.30933 0.13757 0.81372 0.0
H1114 H 0.27387 0.1457 0.86705 0.0
H1115 H 0.35186 0.12702 0.86087 0.0
O1116 O 0.33778 0.13915 0.96413 0.0
O1117 O 0.29122 0.13417 0.92642 0.0
O1118 O 0.33444 0.16551 0.91396 0.0
O1119 O 0.34621 0.1162 0.91265 0.0
H1120 H 0.31931 0.12498 0.00786 0.0
H1121 H 0.36815 0.1739 0.97259 0.0
H1122 H 0.32906 0.14199 0.04949 0.0
H1123 H 0.3767 0.19029 0.01476 0.0
H1124 H 0.2196 0.09229 0.9141 0.0
H1125 H 0.27667 0.13113 0.97417 0.0
H1126 H 0.25802 0.11231 0.89789 0.0
H1127 H 0.23793 0.11081 0.98906 0.0
H1128 H 0.27347 0.19762 0.01623 0.0
H1129 H 0.27298 0.23244 0.94465 0.0
H1130 H 0.34313 0.06126 1.00553 0.0
H1131 H 0.2821 0.04124 0.95517 0.0
H1132 H 0.34876 0.17619 0.86755 0.0
H1133 H 0.34791 0.19827 0.9449 0.0
H1134 H 0.37194 0.21089 0.85585 0.0
H1135 H 0.37133 0.23245 0.93192 0.0
H1136 H 0.38218 0.09353 0.93678 0.0
H1137 H 0.31831 0.08818 0.88556 0.0
H1138 H 0.38744 0.05235 0.93481 0.0
H1139 H 0.32475 0.0471 0.88439 0.0
H1140 H 0.44296 0.13432 0.96994 0.0
H1141 H 0.44068 0.16412 0.89559 0.0
H1142 H 0.26963 0.14679 0.82037 0.0
H1143 H 0.34936 0.12758 0.81444 0.0
Li1144 Li 0.68877 0.85641 0.44134 0.0
Li1145 Li 0.68098 0.89588 0.44003 0.0
Li1146 Li 0.64588 0.87155 0.43043 0.0
Li1147 Li 0.68253 0.87763 0.3994 0.0
C1148 C 0.65518 0.8612 0.48205 0.0
N1149 N 0.63634 0.8351 0.52093 0.0
C1150 C 0.65926 0.86744 0.50717 0.0
C1151 C 0.64144 0.84174 0.47672 0.0
C1152 C 0.64962 0.85401 0.52656 0.0
C1153 C 0.63207 0.82877 0.49662 0.0
C1154 C 0.73197 0.89082 0.43247 0.0
C1155 C 0.76855 0.91419 0.42351 0.0
N1156 N 0.7748 0.91401 0.44846 0.0
C1157 C 0.73883 0.8907 0.45798 0.0
C1158 C 0.74697 0.90252 0.41503 0.0
C1159 C 0.76052 0.90261 0.46571 0.0
C1160 C 0.71278 0.81398 0.44245 0.0
N1161 N 0.70622 0.83189 0.45683 0.0
C1162 C 0.72214 0.81386 0.49396 0.0
C1163 C 0.71118 0.83235 0.48204 0.0
C1164 C 0.72823 0.79477 0.47977 0.0
C1165 C 0.72386 0.79514 0.45358 0.0
H1166 H 0.70908 0.81421 0.42235 0.0
H1167 H 0.70636 0.84696 0.49299 0.0
C1168 C 0.672 0.92731 0.47759 0.0
N1169 N 0.68735 0.92367 0.45722 0.0
C1170 C 0.67285 0.94762 0.49039 0.0
C1171 C 0.70569 0.96015 0.46141 0.0
C1172 C 0.70406 0.93959 0.44898 0.0
C1173 C 0.68962 0.96443 0.48213 0.0
H1174 H 0.65844 0.91467 0.48341 0.0
H1175 H 0.71546 0.93671 0.43227 0.0
C1176 C 0.65586 0.83091 0.4004 0.0
N1177 N 0.63373 0.79438 0.37707 0.0
C1178 C 0.64839 0.83212 0.37507 0.0
C1179 C 0.65232 0.811 0.41376 0.0
C1180 C 0.63717 0.8135 0.36364 0.0
C1181 C 0.64103 0.79276 0.40166 0.0
C1182 C 0.65358 0.92125 0.41044 0.0
C1183 C 0.63466 0.93192 0.42474 0.0
C1184 C 0.67048 0.93393 0.39576 0.0
C1185 C 0.63315 0.95521 0.42434 0.0
C1186 C 0.66826 0.95717 0.39578 0.0
N1187 N 0.64984 0.96724 0.40999 0.0
C1188 C 0.59732 0.87954 0.45129 0.0
C1189 C 0.5962 0.85477 0.4164 0.0
C1190 C 0.5706 0.87878 0.45339 0.0
N1191 N 0.60952 0.86776 0.43291 0.0
C1192 C 0.5695 0.85328 0.41803 0.0
C1193 C 0.55642 0.86553 0.43659 0.0
H1194 H 0.60837 0.88981 0.4641 0.0
H1195 H 0.60611 0.8459 0.40166 0.0
C1196 C 0.71125 0.86866 0.35444 0.0
N1197 N 0.69008 0.8787 0.36426 0.0
C1198 C 0.7151 0.86825 0.32826 0.0
C1199 C 0.67553 0.88881 0.32301 0.0
C1200 C 0.67248 0.88884 0.34919 0.0
C1201 C 0.69687 0.87815 0.31219 0.0
H1202 H 0.7249 0.86067 0.3669 0.0
H1203 H 0.65565 0.89645 0.35751 0.0
O1204 O 0.66481 0.8741 0.46292 0.0
O1205 O 0.7108 0.87936 0.42454 0.0
O1206 O 0.66708 0.84896 0.41181 0.0
O1207 O 0.65596 0.89853 0.41126 0.0
H1208 H 0.67 0.8824 0.51164 0.0
H1209 H 0.6379 0.83678 0.45745 0.0
H1210 H 0.65275 0.85859 0.54608 0.0
H1211 H 0.62139 0.81366 0.49274 0.0
H1212 H 0.78029 0.92341 0.41026 0.0
H1213 H 0.72736 0.88171 0.47168 0.0
H1214 H 0.74189 0.90269 0.3952 0.0
H1215 H 0.76599 0.9028 0.48541 0.0
H1216 H 0.72532 0.81433 0.51417 0.0
H1217 H 0.72895 0.78104 0.44182 0.0
H1218 H 0.66027 0.95029 0.50641 0.0
H1219 H 0.71867 0.97285 0.45438 0.0
H1220 H 0.65093 0.84734 0.3644 0.0
H1221 H 0.65832 0.80954 0.43324 0.0
H1222 H 0.63117 0.81427 0.3441 0.0
H1223 H 0.63812 0.77729 0.41181 0.0
H1224 H 0.62152 0.92236 0.43629 0.0
H1225 H 0.68542 0.92594 0.3848 0.0
H1226 H 0.61876 0.96371 0.4355 0.0
H1227 H 0.68131 0.96722 0.38465 0.0
H1228 H 0.56109 0.88847 0.46791 0.0
H1229 H 0.55911 0.84319 0.40448 0.0
H1230 H 0.73203 0.86019 0.32068 0.0
H1231 H 0.66095 0.89649 0.31131 0.0
Li1232 Li 0.32326 0.87363 0.11554 0.0
Li1233 Li 0.35934 0.86832 0.0868 0.0
Li1234 Li 0.32254 0.89457 0.07675 0.0
Li1235 Li 0.316 0.85388 0.075 0.0
C1236 C 0.35426 0.90649 0.12622 0.0
N1237 N 0.36452 0.9261 0.17234 0.0
C1238 C 0.37522 0.89936 0.14056 0.0
C1239 C 0.33867 0.92375 0.13517 0.0
C1240 C 0.38005 0.90946 0.16386 0.0
C1241 C 0.34413 0.9334 0.15858 0.0
C1242 C 0.34942 0.82414 0.10145 0.0
C1243 C 0.36746 0.79521 0.07523 0.0
N1244 N 0.37103 0.7823 0.09607 0.0
C1245 C 0.35311 0.81054 0.12259 0.0
C1246 C 0.35654 0.81639 0.07758 0.0
C1247 C 0.36413 0.78946 0.11948 0.0
C1248 C 0.29617 0.8852 0.1612 0.0
N1249 N 0.31628 0.87393 0.15091 0.0
C1250 C 0.33111 0.86316 0.19182 0.0
C1251 C 0.33355 0.86297 0.1656 0.0
C1252 C 0.31079 0.8749 0.20305 0.0
C1253 C 0.29308 0.88596 0.18745 0.0
H1254 H 0.28274 0.89381 0.14909 0.0
H1255 H 0.3496 0.8545 0.15691 0.0
C1256 C 0.40807 0.87895 0.0682 0.0
N1257 N 0.39554 0.86499 0.08428 0.0
C1258 C 0.43481 0.87836 0.06643 0.0
C1259 C 0.43528 0.84907 0.09785 0.0
C1260 C 0.40853 0.85031 0.09912 0.0
C1261 C 0.44871 0.86327 0.08139 0.0
H1262 H 0.39724 0.89071 0.05694 0.0
H1263 H 0.39824 0.83992 0.11238 0.0
C1264 C 0.27248 0.88844 0.0854 0.0
N1265 N 0.22947 0.91261 0.07189 0.0
C1266 C 0.2555 0.88004 0.06731 0.0
C1267 C 0.26748 0.90903 0.09678 0.0
C1268 C 0.23387 0.89254 0.06071 0.0
C1269 C 0.24567 0.92104 0.08963 0.0
C1270 C 0.34468 0.86903 0.02969 0.0
C1271 C 0.32857 0.87855 0.01156 0.0
C1272 C 0.36601 0.85664 0.02187 0.0
C1273 C 0.33375 0.87519 0.98594 0.0
C1274 C 0.37057 0.85367 0.99608 0.0
N1275 N 0.35447 0.86292 0.9788 0.0
C1276 C 0.33286 0.93933 0.06626 0.0
C1277 C 0.29687 0.92587 0.04356 0.0
C1278 C 0.33111 0.95998 0.05419 0.0
N1279 N 0.31597 0.92274 0.06073 0.0
C1280 C 0.29447 0.94627 0.03093 0.0
C1281 C 0.31187 0.9636 0.03609 0.0
H1282 H 0.3481 0.93639 0.0797 0.0
H1283 H 0.28387 0.9124 0.03911 0.0
C1284 C 0.29322 0.81102 0.07243 0.0
N1285 N 0.29837 0.82968 0.05867 0.0
C1286 C 0.28166 0.79252 0.0611 0.0
C1287 C 0.27979 0.81306 0.02189 0.0
C1288 C 0.29156 0.8311 0.03394 0.0
C1289 C 0.27482 0.79338 0.03546 0.0
H1290 H 0.29843 0.81037 0.09218 0.0
H1291 H 0.2951 0.84625 0.02354 0.0
O1292 O 0.34871 0.89632 0.10376 0.0
O1293 O 0.33879 0.84489 0.10422 0.0
O1294 O 0.29373 0.87643 0.09211 0.0
O1295 O 0.34013 0.87245 0.0549 0.0
H1296 H 0.38741 0.88597 0.13392 0.0
H1297 H 0.32241 0.92948 0.12426 0.0
H1298 H 0.3961 0.904 0.17526 0.0
H1299 H 0.33213 0.94666 0.16585 0.0
H1300 H 0.37303 0.78901 0.05683 0.0
H1301 H 0.34753 0.81617 0.14121 0.0
H1302 H 0.35334 0.82649 0.06102 0.0
H1303 H 0.36716 0.77878 0.13569 0.0
H1304 H 0.34527 0.85461 0.20325 0.0
H1305 H 0.27702 0.895 0.19546 0.0
H1306 H 0.44454 0.88963 0.05359 0.0
H1307 H 0.4454 0.83759 0.11012 0.0
H1308 H 0.25898 0.86407 0.05845 0.0
H1309 H 0.28046 0.91582 0.11074 0.0
H1310 H 0.22061 0.88628 0.04668 0.0
H1311 H 0.24167 0.93707 0.09815 0.0
H1312 H 0.31195 0.88808 0.01716 0.0
H1313 H 0.37904 0.84944 0.03551 0.0
H1314 H 0.32127 0.88232 0.97175 0.0
H1315 H 0.38697 0.84407 0.98981 0.0
H1316 H 0.34486 0.97292 0.05878 0.0
H1317 H 0.27969 0.94819 0.01673 0.0
H1318 H 0.27854 0.77757 0.07219 0.0
H1319 H 0.2745 0.81454 1.00217 0.0
Li1320 Li 0.64495 0.14585 0.58555 0.0
Li1321 Li 0.68131 0.14051 0.61407 0.0
Li1322 Li 0.68842 0.1596 0.57291 0.0
Li1323 Li 0.68126 0.11898 0.57561 0.0
C1324 C 0.65618 0.19021 0.59966 0.0
N1325 N 0.63595 0.23261 0.59464 0.0
C1326 C 0.65353 0.20396 0.62083 0.0
C1327 C 0.6487 0.19808 0.57595 0.0
C1328 C 0.6432 0.22532 0.61791 0.0
C1329 C 0.6385 0.21954 0.57378 0.0
C1330 C 0.64952 0.10811 0.62548 0.0
C1331 C 0.65934 0.08173 0.6585 0.0
N1332 N 0.63869 0.08912 0.67184 0.0
C1333 C 0.62827 0.11531 0.63939 0.0
C1334 C 0.66508 0.09107 0.63497 0.0
C1335 C 0.62316 0.10554 0.66284 0.0
C1336 C 0.59565 0.13485 0.56877 0.0
N1337 N 0.60874 0.1495 0.58355 0.0
C1338 C 0.56954 0.16642 0.59709 0.0
C1339 C 0.59629 0.16509 0.59763 0.0
C1340 C 0.55546 0.15124 0.58235 0.0
C1341 C 0.56887 0.13547 0.56781 0.0
H1342 H 0.60607 0.12241 0.55808 0.0
H1343 H 0.60702 0.17622 0.6097 0.0
C1344 C 0.70823 0.12956 0.66024 0.0
N1345 N 0.68813 0.1405 0.64948 0.0
C1346 C 0.71028 0.12831 0.68658 0.0
C1347 C 0.67136 0.15005 0.69006 0.0
C1348 C 0.6701 0.15093 0.66379 0.0
C1349 C 0.69135 0.13827 0.70177 0.0
H1350 H 0.72225 0.12132 0.64842 0.0
H1351 H 0.65421 0.15932 0.65472 0.0
C1352 C 0.65826 0.14404 0.5285 0.0
N1353 N 0.64659 0.14945 0.4779 0.0
C1354 C 0.67339 0.13388 0.50996 0.0
C1355 C 0.63696 0.15672 0.52125 0.0
C1356 C 0.66726 0.13689 0.48451 0.0
C1357 C 0.63144 0.15931 0.49559 0.0
C1358 C 0.73147 0.12468 0.58338 0.0
C1359 C 0.74797 0.13243 0.56448 0.0
C1360 C 0.7366 0.10438 0.59536 0.0
C1361 C 0.76926 0.11957 0.55769 0.0
C1362 C 0.75805 0.092 0.588 0.0
N1363 N 0.7738 0.09978 0.56947 0.0
C1364 C 0.71191 0.20216 0.56894 0.0
C1365 C 0.71111 0.18188 0.53057 0.0
C1366 C 0.72264 0.22064 0.55673 0.0
N1367 N 0.70582 0.18345 0.55566 0.0
C1368 C 0.72191 0.19991 0.51762 0.0
C1369 C 0.72731 0.2198 0.53062 0.0
H1370 H 0.70796 0.20291 0.58898 0.0
H1371 H 0.70695 0.16666 0.52054 0.0
C1372 C 0.67009 0.07417 0.56618 0.0
N1373 N 0.68709 0.0905 0.55997 0.0
C1374 C 0.67097 0.05348 0.55412 0.0
C1375 C 0.70718 0.06648 0.52968 0.0
C1376 C 0.70565 0.08695 0.54231 0.0
C1377 C 0.68931 0.0496 0.53518 0.0
H1378 H 0.65537 0.07738 0.58011 0.0
H1379 H 0.71882 0.10019 0.53741 0.0
O1380 O 0.66618 0.16922 0.60226 0.0
O1381 O 0.65536 0.11801 0.60291 0.0
O1382 O 0.66375 0.14098 0.55358 0.0
O1383 O 0.71058 0.13705 0.5903 0.0
H1384 H 0.65939 0.19821 0.63932 0.0
H1385 H 0.65108 0.18784 0.55936 0.0
H1386 H 0.64098 0.23613 0.63413 0.0
H1387 H 0.63268 0.22584 0.55551 0.0
H1388 H 0.67133 0.06866 0.66617 0.0
H1389 H 0.61607 0.12852 0.63234 0.0
H1390 H 0.68157 0.08529 0.6244 0.0
H1391 H 0.60692 0.11108 0.67393 0.0
H1392 H 0.55997 0.17908 0.60825 0.0
H1393 H 0.55873 0.12338 0.55633 0.0
H1394 H 0.72601 0.11911 0.69498 0.0
H1395 H 0.65666 0.1583 0.70112 0.0
H1396 H 0.68997 0.12411 0.51513 0.0
H1397 H 0.62469 0.16441 0.53522 0.0
H1398 H 0.67897 0.12926 0.47 0.0
H1399 H 0.61505 0.16913 0.48975 0.0
H1400 H 0.74436 0.14816 0.55512 0.0
H1401 H 0.724 0.09814 0.60999 0.0
H1402 H 0.78216 0.12532 0.54304 0.0
H1403 H 0.76217 0.07618 0.59699 0.0
H1404 H 0.72668 0.23561 0.56749 0.0
H1405 H 0.72599 0.19831 0.49764 0.0
H1406 H 0.6572 0.04073 0.55935 0.0
H1407 H 0.72161 0.06415 0.51518 0.0
C1408 C 0.01744 0.38517 0.08608 0.0
C1409 C 0.03177 0.3663 0.07886 0.0
C1410 C 0.99055 0.38484 0.08601 0.0
C1411 C 0.97692 0.36559 0.07885 0.0
H1412 H 0.02709 0.40025 0.09221 0.0
H1413 H 0.98032 0.39967 0.09199 0.0
S1414 S 0.00515 0.3123 0.05659 0.0
N1415 N 0.03022 0.3282 0.06304 0.0
N1416 N 0.97961 0.32752 0.06328 0.0
C1417 C 0.99093 0.34667 0.07136 0.0
C1418 C 0.01835 0.34704 0.07128 0.0
C1419 C 0.98482 0.64619 0.59953 0.0
C1420 C 0.97097 0.65264 0.57794 0.0
C1421 C 0.01172 0.64598 0.59948 0.0
C1422 C 0.02569 0.65256 0.57798 0.0
H1423 H 0.97478 0.64074 0.61637 0.0
H1424 H 0.0217 0.64056 0.61635 0.0
S1425 S 0.99849 0.67164 0.51702 0.0
N1426 N 0.97311 0.66622 0.53474 0.0
N1427 N 0.02379 0.66608 0.53476 0.0
C1428 C 0.01209 0.65952 0.55648 0.0
C1429 C 0.98469 0.65945 0.55641 0.0
C1430 C 0.98992 0.65322 0.91047 0.0
C1431 C 0.97621 0.65144 0.9333 0.0
C1432 C 0.01681 0.65299 0.91011 0.0
C1433 C 0.03106 0.65108 0.93257 0.0
H1434 H 0.97977 0.65431 0.89265 0.0
H1435 H 0.02654 0.65426 0.89207 0.0
S1436 S 0.00443 0.64662 0.99741 0.0
N1437 N 0.97891 0.64848 0.97903 0.0
N1438 N 0.02949 0.64754 0.97831 0.0
C1439 C 0.01763 0.64963 0.95558 0.0
C1440 C 0.99022 0.64987 0.95594 0.0
C1441 C 0.01318 0.34457 0.43694 0.0
C1442 C 0.0271 0.36444 0.43319 0.0
C1443 C 0.98624 0.34444 0.43627 0.0
C1444 C 0.97236 0.3641 0.4314 0.0
H1445 H 0.0232 0.32905 0.44054 0.0
H1446 H 0.97621 0.32879 0.43916 0.0
S1447 S 0.99969 0.42044 0.42037 0.0
N1448 N 0.02499 0.40423 0.42444 0.0
N1449 N 0.97442 0.40398 0.42328 0.0
C1450 C 0.98605 0.38406 0.42771 0.0
C1451 C 0.0134 0.38423 0.4286 0.0
C1452 C 0.49085 0.88314 0.08362 0.0
C1453 C 0.47716 0.86309 0.08062 0.0
C1454 C 0.51774 0.88343 0.08349 0.0
C1455 C 0.53201 0.86369 0.08019 0.0
H1456 H 0.48067 0.8987 0.08654 0.0
H1457 H 0.52742 0.89923 0.08642 0.0
S1458 S 0.50516 0.80707 0.06951 0.0
N1459 N 0.47969 0.82316 0.07311 0.0
N1460 N 0.53029 0.82369 0.07243 0.0
C1461 C 0.51851 0.84356 0.07673 0.0
C1462 C 0.49109 0.84326 0.07704 0.0
C1463 C 0.51321 0.15008 0.55963 0.0
C1464 C 0.52692 0.15146 0.5825 0.0
C1465 C 0.48628 0.14972 0.55936 0.0
C1466 C 0.4721 0.15088 0.58193 0.0
H1467 H 0.52337 0.14937 0.54179 0.0
H1468 H 0.47646 0.14866 0.54137 0.0
S1469 S 0.49862 0.15293 0.64686 0.0
N1470 N 0.52416 0.1527 0.62836 0.0
N1471 N 0.47359 0.15241 0.62775 0.0
C1472 C 0.4855 0.15214 0.6049 0.0
C1473 C 0.51289 0.15235 0.60521 0.0
C1474 C 0.51539 0.15705 0.95238 0.0
C1475 C 0.52905 0.14924 0.93124 0.0
C1476 C 0.48845 0.15712 0.95267 0.0
C1477 C 0.47422 0.14927 0.93188 0.0
H1478 H 0.52561 0.16333 0.96872 0.0
H1479 H 0.47868 0.16352 0.96922 0.0
S1480 S 0.50106 0.12511 0.87295 0.0
N1481 N 0.52652 0.13234 0.88962 0.0
N1482 N 0.47595 0.13214 0.89025 0.0
C1483 C 0.48773 0.14107 0.9108 0.0
C1484 C 0.51512 0.14113 0.91047 0.0
C1485 C 0.48745 0.88567 0.43585 0.0
C1486 C 0.47318 0.86573 0.43756 0.0
C1487 C 0.51435 0.88546 0.436 0.0
C1488 C 0.52802 0.8653 0.4376 0.0
H1489 H 0.47778 0.90157 0.43388 0.0
H1490 H 0.52455 0.90116 0.43427 0.0
S1491 S 0.50017 0.8087 0.44449 0.0
N1492 N 0.475 0.82537 0.44264 0.0
N1493 N 0.52561 0.82504 0.44217 0.0
C1494 C 0.51414 0.84529 0.43967 0.0
C1495 C 0.48673 0.84549 0.43981 0.0
C1496 C 0.21436 0.37489 0.24479 0.0
C1497 C 0.19201 0.37926 0.23074 0.0
C1498 C 0.21383 0.3747 0.27132 0.0
C1499 C 0.19094 0.37895 0.28464 0.0
H1500 H 0.23217 0.37095 0.2352 0.0
H1501 H 0.23126 0.37059 0.28145 0.0
S1502 S 0.12818 0.39445 0.25653 0.0
N1503 N 0.14706 0.38998 0.23198 0.0
N1504 N 0.14608 0.3899 0.28175 0.0
C1505 C 0.16878 0.38433 0.27074 0.0
C1506 C 0.16931 0.38442 0.24382 0.0
C1507 C 0.78881 0.63871 0.7433 0.0
C1508 C 0.81124 0.63459 0.72925 0.0
C1509 C 0.78929 0.63885 0.76984 0.0
C1510 C 0.8122 0.6348 0.78318 0.0
H1511 H 0.77096 0.64246 0.73371 0.0
H1512 H 0.77178 0.64276 0.77997 0.0
S1513 S 0.87522 0.62 0.75506 0.0
N1514 N 0.85633 0.62433 0.73051 0.0
N1515 N 0.85721 0.62432 0.78027 0.0
C1516 C 0.83446 0.62969 0.76927 0.0
C1517 C 0.83399 0.62965 0.74234 0.0
C1518 C 0.20664 0.65038 0.76853 0.0
C1519 C 0.19535 0.63308 0.78266 0.0
C1520 C 0.20589 0.65021 0.74201 0.0
C1521 C 0.19396 0.63266 0.72874 0.0
H1522 H 0.21522 0.66453 0.77806 0.0
H1523 H 0.21385 0.66431 0.73187 0.0
S1524 S 0.16499 0.58188 0.75716 0.0
N1525 N 0.17409 0.59703 0.78162 0.0
N1526 N 0.17315 0.59638 0.73186 0.0
C1527 C 0.18384 0.61471 0.74274 0.0
C1528 C 0.18442 0.615 0.76967 0.0
C1529 C 0.83114 0.38124 0.24079 0.0
C1530 C 0.80901 0.37562 0.22696 0.0
C1531 C 0.83091 0.38162 0.26724 0.0
C1532 C 0.80857 0.37634 0.28098 0.0
H1533 H 0.84884 0.38533 0.23106 0.0
H1534 H 0.84846 0.38603 0.27702 0.0
S1535 S 0.74566 0.36009 0.25373 0.0
N1536 N 0.76416 0.36458 0.22889 0.0
N1537 N 0.76375 0.36513 0.27871 0.0
C1538 C 0.78618 0.371 0.26739 0.0
C1539 C 0.7864 0.37068 0.24037 0.0
C1540 C 0.69565 0.89627 0.2695 0.0
C1541 C 0.69939 0.87698 0.28423 0.0
C1542 C 0.69604 0.89533 0.24302 0.0
C1543 C 0.69999 0.87503 0.23024 0.0
H1544 H 0.69212 0.9122 0.27851 0.0
H1545 H 0.69246 0.91052 0.23249 0.0
S1546 S 0.71158 0.81985 0.25995 0.0
N1547 N 0.7076 0.83703 0.28403 0.0
N1548 N 0.70881 0.83535 0.2343 0.0
C1549 C 0.70433 0.85571 0.24473 0.0
C1550 C 0.70397 0.85666 0.27169 0.0
C1551 C 0.2895 0.12753 0.772 0.0
C1552 C 0.30816 0.13935 0.78579 0.0
C1553 C 0.28954 0.12773 0.74544 0.0
C1554 C 0.30821 0.13978 0.73184 0.0
H1555 H 0.27529 0.11754 0.78178 0.0
H1556 H 0.27533 0.11787 0.7355 0.0
S1557 S 0.35892 0.17593 0.75923 0.0
N1558 N 0.3442 0.16507 0.78398 0.0
N1559 N 0.34418 0.16558 0.73423 0.0
C1560 C 0.32622 0.15243 0.74549 0.0
C1561 C 0.32622 0.15219 0.77241 0.0
C1562 C 0.71447 0.14175 0.76985 0.0
C1563 C 0.69242 0.13573 0.78365 0.0
C1564 C 0.71427 0.142 0.7433 0.0
C1565 C 0.69201 0.13624 0.72971 0.0
H1566 H 0.73174 0.14693 0.77963 0.0
H1567 H 0.73138 0.14738 0.73336 0.0
S1568 S 0.63054 0.11618 0.75697 0.0
N1569 N 0.64865 0.12176 0.78177 0.0
N1570 N 0.64827 0.1222 0.732 0.0
C1571 C 0.67025 0.12924 0.74332 0.0
C1572 C 0.67045 0.129 0.77025 0.0
C1573 C 0.30944 0.85559 0.24489 0.0
C1574 C 0.30848 0.87556 0.23097 0.0
C1575 C 0.30903 0.85576 0.27135 0.0
C1576 C 0.30775 0.87592 0.28493 0.0
H1577 H 0.31067 0.83968 0.23523 0.0
H1578 H 0.30988 0.83996 0.28127 0.0
S1579 S 0.30602 0.93285 0.25733 0.0
N1580 N 0.30668 0.91605 0.2326 0.0
N1581 N 0.30618 0.91644 0.28241 0.0
C1582 C 0.30658 0.89603 0.27122 0.0
C1583 C 0.30689 0.89583 0.24423 0.0
C1584 C 0.26855 0.25917 0.98907 0.0
C1585 C 0.25939 0.23755 0.99453 0.0
C1586 C 0.25841 0.27804 1.0012 0.0
C1587 C 0.23898 0.27593 0.01944 0.0
H1588 H 0.28406 0.26153 0.97568 0.0
H1589 H 0.26615 0.29435 0.99666 0.0
S1590 S 0.20658 0.22372 0.03911 0.0
N1591 N 0.22812 0.21559 0.01813 0.0
N1592 N 0.20991 0.25104 0.04153 0.0
C1593 C 0.22931 0.25461 0.02482 0.0
C1594 C 0.23931 0.23542 0.01225 0.0
C1595 C 0.76918 0.75823 0.52259 0.0
C1596 C 0.75972 0.73662 0.51793 0.0
C1597 C 0.75906 0.77687 0.51003 0.0
C1598 C 0.73902 0.77464 0.49238 0.0
H1599 H 0.78472 0.76072 0.53589 0.0
H1600 H 0.76714 0.79315 0.51406 0.0
S1601 S 0.70619 0.72185 0.47489 0.0
N1602 N 0.72846 0.71414 0.49529 0.0
N1603 N 0.70922 0.74917 0.47188 0.0
C1604 C 0.72922 0.75313 0.48774 0.0
C1605 C 0.7396 0.73413 0.50046 0.0
C1606 C 0.27232 0.7668 0.99897 0.0
C1607 C 0.26305 0.77377 0.02268 0.0
C1608 C 0.26152 0.74846 0.9864 0.0
C1609 C 0.24111 0.73632 0.99709 0.0
H1610 H 0.28822 0.77547 0.99013 0.0
H1611 H 0.26933 0.74365 0.96822 0.0
S1612 S 0.20861 0.74857 0.05788 0.0
N1613 N 0.23139 0.76767 0.05577 0.0
N1614 N 0.21129 0.73308 0.03222 0.0
C1615 C 0.23156 0.74314 0.0207 0.0
C1616 C 0.24247 0.76187 0.03347 0.0
C1617 C 0.759 0.25122 0.52681 0.0
C1618 C 0.73773 0.23958 0.51704 0.0
C1619 C 0.76929 0.26978 0.51418 0.0
C1620 C 0.75871 0.27741 0.49129 0.0
H1621 H 0.76803 0.24573 0.54416 0.0
H1622 H 0.78597 0.27798 0.52215 0.0
S1623 S 0.70143 0.25414 0.45904 0.0
N1624 N 0.7054 0.23796 0.48398 0.0
N1625 N 0.7248 0.27275 0.46022 0.0
C1626 C 0.73714 0.2662 0.48159 0.0
C1627 C 0.72664 0.24733 0.49445 0.0
C1628 C 0.7377 0.75417 0.02622 0.0
C1629 C 0.74235 0.77598 0.01751 0.0
C1630 C 0.74807 0.7356 0.01376 0.0
C1631 C 0.76363 0.73812 0.99217 0.0
H1632 H 0.72573 0.75145 0.04269 0.0
H1633 H 0.74375 0.71911 0.02101 0.0
S1634 S 0.78314 0.79185 0.96295 0.0
N1635 N 0.76431 0.79916 0.98666 0.0
N1636 N 0.78419 0.7643 0.96342 0.0
C1637 C 0.76862 0.75989 0.98342 0.0
C1638 C 0.75791 0.77879 0.99604 0.0
C1639 C 0.24637 0.23634 0.49996 0.0
C1640 C 0.26374 0.23904 0.52006 0.0
C1641 C 0.23592 0.25488 0.48747 0.0
C1642 C 0.24258 0.2768 0.49453 0.0
H1643 H 0.24045 0.21977 0.49419 0.0
H1644 H 0.22211 0.25204 0.47252 0.0
S1645 S 0.28947 0.29266 0.54416 0.0
N1646 N 0.28848 0.26513 0.54535 0.0
N1647 N 0.26921 0.29999 0.52166 0.0
C1648 C 0.26052 0.27966 0.51414 0.0
C1649 C 0.271 0.26079 0.52694 0.0
C1650 C 0.75496 0.27478 0.99442 0.0
C1651 C 0.7641 0.27298 0.01934 0.0
C1652 C 0.74334 0.25659 0.98229 0.0
C1653 C 0.74084 0.23584 0.99449 0.0
H1654 H 0.75658 0.29045 0.98433 0.0
H1655 H 0.73649 0.25869 0.96312 0.0
S1656 S 0.76188 0.22237 0.05963 0.0
N1657 N 0.77 0.24881 0.05575 0.0
N1658 N 0.74829 0.21455 0.03287 0.0
C1659 C 0.75002 0.23377 0.01934 0.0
C1660 C 0.76157 0.25237 0.0318 0.0
C1661 C 0.22838 0.74917 0.50265 0.0
C1662 C 0.2412 0.73826 0.52249 0.0
C1663 C 0.2394 0.76758 0.49039 0.0
C1664 C 0.26377 0.7757 0.49736 0.0
H1665 H 0.20955 0.74355 0.49672 0.0
H1666 H 0.22862 0.77561 0.47545 0.0
S1667 S 0.30595 0.75189 0.54705 0.0
N1668 N 0.27983 0.73628 0.54803 0.0
N1669 N 0.30088 0.77059 0.52468 0.0
C1670 C 0.27689 0.76475 0.51705 0.0
C1671 C 0.26553 0.74611 0.52967 0.0
C1672 C 0.20722 0.5272 0.01721 0.0
C1673 C 0.20221 0.52722 0.99111 0.0
C1674 C 0.20782 0.50719 0.031 0.0
C1675 C 0.20382 0.48648 0.01909 0.0
H1676 H 0.20972 0.54283 0.02722 0.0
H1677 H 0.21103 0.50794 0.0512 0.0
S1678 S 0.19132 0.47745 0.95088 0.0
N1679 N 0.1943 0.50478 0.95369 0.0
N1680 N 0.19538 0.46719 0.97956 0.0
C1681 C 0.19966 0.48624 0.99285 0.0
C1682 C 0.19884 0.5066 0.97888 0.0
C1683 C 0.7984 0.50589 0.53021 0.0
C1684 C 0.80095 0.52663 0.51794 0.0
C1685 C 0.79891 0.4858 0.51656 0.0
C1686 C 0.80236 0.48572 0.49021 0.0
H1687 H 0.79638 0.50519 0.55056 0.0
H1688 H 0.79753 0.47019 0.52682 0.0
S1689 S 0.80913 0.5355 0.44906 0.0
N1690 N 0.80639 0.54584 0.47785 0.0
N1691 N 0.80728 0.50813 0.45223 0.0
C1692 C 0.80431 0.50635 0.47766 0.0
C1693 C 0.80358 0.52679 0.49151 0.0
C1694 C 0.809 0.48537 0.99269 0.0
C1695 C 0.80928 0.48495 0.01927 0.0
C1696 C 0.80919 0.50563 0.97939 0.0
C1697 C 0.80932 0.52622 0.99219 0.0
H1698 H 0.80928 0.4699 0.98209 0.0
H1699 H 0.8093 0.5052 0.95894 0.0
S1700 S 0.80939 0.53421 0.0617 0.0
N1701 N 0.80903 0.50685 0.0579 0.0
N1702 N 0.80957 0.54492 0.03295 0.0
C1703 C 0.80915 0.52602 0.01876 0.0
C1704 C 0.80913 0.5054 0.03228 0.0
C1705 C 0.1881 0.50732 0.4797 0.0
C1706 C 0.19276 0.48719 0.49263 0.0
C1707 C 0.18768 0.5278 0.49248 0.0
C1708 C 0.19203 0.52897 0.51866 0.0
H1709 H 0.1846 0.50723 0.45953 0.0
H1710 H 0.1838 0.54285 0.4818 0.0
S1711 S 0.20406 0.48117 0.56153 0.0
N1712 N 0.2011 0.46973 0.5333 0.0
N1713 N 0.20062 0.5083 0.55721 0.0
C1714 C 0.197 0.50906 0.53181 0.0
C1715 C 0.19729 0.48816 0.51883 0.0
C1716 C 0.70325 0.02669 0.01932 0.0
C1717 C 0.70219 0.02674 0.99277 0.0
C1718 C 0.7035 1.00661 0.03297 0.0
C1719 C 0.70305 0.98584 0.02055 0.0
H1720 H 0.703 0.04229 0.02967 0.0
H1721 H 0.70372 0.00733 0.05342 0.0
S1722 S 0.70154 0.9769 0.95123 0.0
N1723 N 0.7018 1.00431 0.95453 0.0
N1724 N 0.70212 0.96658 0.98015 0.0
C1725 C 0.70278 0.98567 0.99399 0.0
C1726 C 0.70234 1.00611 0.98011 0.0
C1727 C 0.30882 0.98664 0.52069 0.0
C1728 C 0.29914 0.9857 0.49592 0.0
C1729 C 0.30985 1.00687 0.53396 0.0
C1730 C 0.30089 0.02683 0.52307 0.0
H1731 H 0.31655 0.97178 0.52952 0.0
H1732 H 0.31808 0.00698 0.55275 0.0
S1733 S 0.27246 0.03303 0.45925 0.0
N1734 N 0.27944 1.00621 0.46141 0.0
N1735 N 0.2813 0.04426 0.48637 0.0
C1736 C 0.29035 0.02597 0.49865 0.0
C1737 C 0.28954 1.00541 0.48505 0.0
C1738 C 0.33381 0.99394 0.01178 0.0
C1739 C 0.311 0.98499 0.02186 0.0
C1740 C 0.33386 0.0143 0.99879 0.0
C1741 C 0.3111 0.02651 0.99526 0.0
H1742 H 0.35181 0.98508 0.01385 0.0
H1743 H 0.3519 0.02053 0.99138 0.0
S1744 S 0.2464 0.01092 0.01862 0.0
N1745 N 0.2651 0.99023 0.0279 0.0
N1746 N 0.26521 0.02848 1.00323 0.0
C1747 C 0.2881 0.01773 1.00502 0.0
C1748 C 0.28805 0.99699 0.01837 0.0
C1749 C 0.71224 0.0163 0.5171 0.0
C1750 C 0.68928 0.02828 0.5208 0.0
C1751 C 0.71236 0.99581 0.50419 0.0
C1752 C 0.68951 0.98658 0.49463 0.0
H1753 H 0.73016 0.02259 0.52467 0.0
H1754 H 0.73033 0.98689 0.50216 0.0
S1755 S 0.62494 0.01254 0.49647 0.0
N1756 N 0.64355 0.03028 0.51178 0.0
N1757 N 0.64379 0.99174 0.48785 0.0
C1758 C 0.66662 0.99869 0.4975 0.0
C1759 C 0.66649 0.01953 0.51051 0.0
loop_
_geom_bond_atom_site_label_1
_geom_bond_atom_site_label_2
_geom_bond_distance
_geom_bond_site_symmetry_2
_ccdc_geom_bond_type
Li0 N17 1.990 . S
Li0 O60 1.956 . S
Li0 O61 1.970 . S
Li0 O62 1.961 . S
Li1 N25 1.990 . S
Li1 O60 1.970 . S
Li1 O61 1.956 . S
Li1 O63 1.961 . S
Li2 N47 1.990 . S
Li2 O60 1.961 . S
Li2 O62 1.956 . S
Li2 O63 1.970 . S
Li3 N53 1.990 . S
Li3 O61 1.961 . S
Li3 O62 1.970 . S
Li3 O63 1.956 . S
C4 C6 1.348 . S
C4 C7 1.356 . S
C4 O60 1.325 . S
N5 C8 1.314 . S
N5 C9 1.279 . S
C6 C4 1.348 . S
C6 C8 1.353 . S
C6 H64 0.929 . S
C7 C4 1.356 . S
C7 C9 1.358 . S
C7 H65 0.930 . S
C8 N5 1.314 . S
C8 C6 1.353 . S
C8 H66 0.930 . S
C9 N5 1.279 . S
C9 C7 1.358 . S
C9 H67 0.930 . S
C10 C13 1.348 . S
C10 C14 1.356 . S
C10 O61 1.325 . S
C11 N12 1.279 . S
C11 C14 1.358 . S
C11 H68 0.930 . S
N12 C11 1.279 . S
N12 C15 1.314 . S
C13 C10 1.348 . S
C13 C15 1.353 . S
C13 H69 0.929 . S
C14 C10 1.356 . S
C14 C11 1.358 . S
C14 H70 0.930 . S
C15 N12 1.314 . S
C15 C13 1.353 . S
C15 H71 0.930 . S
C16 N17 1.314 . S
C16 C21 1.353 . S
C16 H22 0.930 . S
N17 Li0 1.990 . S
N17 C16 1.314 . S
N17 C19 1.279 . S
C18 C19 1.358 . S
C18 C20 1.356 . S
C18 H72 0.930 . S
C19 N17 1.279 . S
C19 C18 1.358 . S
C19 H23 0.930 . S
C20 C18 1.356 . S
C20 C21 1.348 . S
C21 C16 1.353 . S
C21 C20 1.348 . S
C21 H73 0.929 . S
H22 C16 0.930 . S
H23 C19 0.930 . S
C24 N25 1.314 . S
C24 C26 1.353 . S
C24 H30 0.930 . S
N25 Li1 1.990 . S
N25 C24 1.314 . S
N25 C28 1.279 . S
C26 C24 1.353 . S
C26 C29 1.348 . S
C26 H74 0.900 1_554 S
C27 C28 1.358 . S
C27 C29 1.356 . S
C27 H75 0.930 . S
C28 N25 1.279 . S
C28 C27 1.358 . S
C28 H31 0.930 . S
C29 C26 1.348 . S
C29 C27 1.356 . S
H30 C24 0.930 . S
H31 C28 0.930 . S
C32 C34 1.348 . S
C32 C35 1.356 . S
C32 O62 1.325 . S
N33 C36 1.314 . S
N33 C37 1.279 . S
C34 C32 1.348 . S
C34 C36 1.353 . S
C34 H76 0.929 . S
C35 C32 1.356 . S
C35 C37 1.358 . S
C35 H77 0.930 . S
C36 N33 1.314 . S
C36 C34 1.353 . S
C36 H78 0.930 . S
C37 N33 1.279 . S
C37 C35 1.358 . S
C37 H79 0.930 . S
C38 C39 1.348 . S
C38 C40 1.356 . S
C38 O63 1.325 . S
C39 C38 1.348 . S
C39 C41 1.353 1_554 S
C39 H80 0.929 . S
C40 C38 1.356 . S
C40 C42 1.358 1_554 S
C40 H81 0.930 . S
C41 C39 1.353 1_556 S
C41 N43 1.314 . S
C41 H82 0.930 . S
C42 C40 1.358 1_556 S
C42 N43 1.279 . S
C42 H83 0.930 . S
N43 C41 1.314 . S
N43 C42 1.279 . S
C44 C46 1.353 . S
C44 N47 1.314 . S
C44 H50 0.930 . S
C45 N47 1.279 . S
C45 C48 1.358 . S
C45 H51 0.930 . S
C46 C44 1.353 . S
C46 C49 1.348 . S
C46 H84 0.929 . S
N47 Li2 1.990 . S
N47 C44 1.314 . S
N47 C45 1.279 . S
C48 C45 1.358 . S
C48 C49 1.356 . S
C48 H85 0.930 . S
C49 C46 1.348 . S
C49 C48 1.356 . S
H50 C44 0.930 . S
H51 C45 0.930 . S
C52 N53 1.314 . S
C52 C54 1.353 . S
C52 H58 0.930 . S
N53 Li3 1.990 . S
N53 C52 1.314 . S
N53 C56 1.279 . S
C54 C52 1.353 . S
C54 C57 1.348 . S
C54 H86 0.929 . S
C55 C56 1.358 . S
C55 C57 1.356 . S
C55 H87 0.930 . S
C56 N53 1.279 . S
C56 C55 1.358 . S
C56 H59 0.930 . S
C57 C54 1.348 . S
C57 C55 1.356 . S
H58 C52 0.930 . S
H59 C56 0.930 . S
O60 Li0 1.956 . S
O60 Li1 1.970 . S
O60 Li2 1.961 . S
O60 C4 1.325 . S
O61 Li0 1.970 . S
O61 Li1 1.956 . S
O61 Li3 1.961 . S
O61 C10 1.325 . S
O62 Li0 1.961 . S
O62 Li2 1.956 . S
O62 Li3 1.970 . S
O62 C32 1.325 . S
O63 Li1 1.961 . S
O63 Li2 1.970 . S
O63 Li3 1.956 . S
O63 C38 1.325 . S
H64 C6 0.929 . S
H65 C7 0.930 . S
H66 C8 0.930 . S
H67 C9 0.930 . S
H68 C11 0.930 . S
H69 C13 0.929 . S
H70 C14 0.930 . S
H71 C15 0.930 . S
H72 C18 0.930 . S
H73 C21 0.929 . S
H74 C26 0.900 1_556 S
H75 C27 0.930 . S
H76 C34 0.929 . S
H77 C35 0.930 . S
H78 C36 0.930 . S
H79 C37 0.930 . S
H80 C39 0.929 . S
H81 C40 0.930 . S
H82 C41 0.930 . S
H83 C42 0.930 . S
H84 C46 0.929 . S
H85 C48 0.930 . S
H86 C54 0.929 . S
H87 C55 0.930 . S
Li88 N105 1.990 . S
Li88 O148 1.956 . S
Li88 O149 1.970 . S
Li88 O150 1.961 . S
Li89 N113 1.990 . S
Li89 O148 1.970 . S
Li89 O149 1.956 . S
Li89 O151 1.961 . S
Li90 N135 1.990 . S
Li90 O148 1.961 . S
Li90 O150 1.956 . S
Li90 O151 1.970 . S
Li91 N141 1.990 . S
Li91 O149 1.961 . S
Li91 O150 1.970 . S
Li91 O151 1.956 . S
C92 C94 1.348 . S
C92 C95 1.356 . S
C92 O148 1.325 . S
N93 C96 1.314 . S
N93 C97 1.279 . S
C94 C92 1.348 . S
C94 C96 1.353 . S
C94 H152 0.929 . S
C95 C92 1.356 . S
C95 C97 1.358 . S
C95 H153 0.930 . S
C96 N93 1.314 . S
C96 C94 1.353 . S
C96 H154 0.930 . S
C97 N93 1.279 . S
C97 C95 1.358 . S
C97 H155 0.930 . S
C98 C101 1.348 . S
C98 C102 1.356 . S
C98 O149 1.325 . S
C99 N100 1.279 . S
C99 C102 1.358 . S
C99 H156 0.930 . S
N100 C99 1.279 . S
N100 C103 1.314 . S
C101 C98 1.348 . S
C101 C103 1.353 . S
C101 H157 0.929 . S
C102 C98 1.356 . S
C102 C99 1.358 . S
C102 H158 0.930 . S
C103 N100 1.314 . S
C103 C101 1.353 . S
C103 H159 0.930 . S
C104 N105 1.314 . S
C104 C109 1.353 . S
C104 H110 0.930 . S
N105 Li88 1.990 . S
N105 C104 1.314 . S
N105 C107 1.279 . S
C106 C107 1.358 . S
C106 C108 1.356 . S
C106 H160 0.930 . S
C107 N105 1.279 . S
C107 C106 1.358 . S
C107 H111 0.930 . S
C108 C106 1.356 . S
C108 C109 1.348 . S
C109 C104 1.353 . S
C109 C108 1.348 . S
C109 H161 0.929 . S
H110 C104 0.930 . S
H111 C107 0.930 . S
C112 N113 1.314 . S
C112 C114 1.353 . S
C112 H118 0.930 . S
N113 Li89 1.990 . S
N113 C112 1.314 . S
N113 C116 1.279 . S
C114 C112 1.353 . S
C114 C117 1.348 . S
C114 H162 0.929 . S
C115 C116 1.358 . S
C115 C117 1.356 . S
C115 H163 0.930 . S
C116 N113 1.279 . S
C116 C115 1.358 . S
C116 H119 0.930 . S
C117 C114 1.348 . S
C117 C115 1.356 . S
H118 C112 0.930 . S
H119 C116 0.930 . S
C120 C122 1.348 . S
C120 C123 1.356 . S
C120 O150 1.325 . S
N121 C124 1.314 . S
N121 C125 1.279 . S
C122 C120 1.348 . S
C122 C124 1.353 . S
C122 H164 0.929 . S
C123 C120 1.356 . S
C123 C125 1.358 . S
C123 H165 0.930 . S
C124 N121 1.314 . S
C124 C122 1.353 . S
C124 H166 0.930 . S
C125 N121 1.279 . S
C125 C123 1.358 . S
C125 H167 0.930 . S
C126 C127 1.348 . S
C126 C128 1.356 . S
C126 O151 1.325 . S
C127 C126 1.348 . S
C127 C129 1.353 . S
C127 H168 0.929 . S
C128 C126 1.356 . S
C128 C130 1.358 . S
C128 H169 0.930 . S
C129 C127 1.353 . S
C129 N131 1.314 . S
C129 H170 0.930 . S
C130 C128 1.358 . S
C130 N131 1.279 . S
C130 H171 0.930 . S
N131 C129 1.314 . S
N131 C130 1.279 . S
C132 C134 1.353 . S
C132 N135 1.314 . S
C132 H138 0.930 . S
C133 N135 1.279 . S
C133 C136 1.358 . S
C133 H139 0.930 . S
C134 C132 1.353 . S
C134 C137 1.348 . S
C134 H172 0.929 . S
N135 Li90 1.990 . S
N135 C132 1.314 . S
N135 C133 1.279 . S
C136 C133 1.358 . S
C136 C137 1.356 . S
C136 H173 0.930 . S
C137 C134 1.348 . S
C137 C136 1.356 . S
H138 C132 0.930 . S
H139 C133 0.930 . S
C140 N141 1.314 . S
C140 C142 1.353 . S
C140 H146 0.930 . S
N141 Li91 1.990 . S
N141 C140 1.314 . S
N141 C144 1.279 . S
C142 C140 1.353 . S
C142 C145 1.348 . S
C142 H174 0.929 . S
C143 C144 1.358 . S
C143 C145 1.356 . S
C143 H175 0.930 . S
C144 N141 1.279 . S
C144 C143 1.358 . S
C144 H147 0.930 . S
C145 C142 1.348 . S
C145 C143 1.356 . S
H146 C140 0.930 . S
H147 C144 0.930 . S
O148 Li88 1.956 . S
O148 Li89 1.970 . S
O148 Li90 1.961 . S
O148 C92 1.325 . S
O149 Li88 1.970 . S
O149 Li89 1.956 . S
O149 Li91 1.961 . S
O149 C98 1.325 . S
O150 Li88 1.961 . S
O150 Li90 1.956 . S
O150 Li91 1.970 . S
O150 C120 1.325 . S
O151 Li89 1.961 . S
O151 Li90 1.970 . S
O151 Li91 1.956 . S
O151 C126 1.325 . S
H152 C94 0.929 . S
H153 C95 0.930 . S
H154 C96 0.930 . S
H155 C97 0.930 . S
H156 C99 0.930 . S
H157 C101 0.929 . S
H158 C102 0.930 . S
H159 C103 0.930 . S
H160 C106 0.930 . S
H161 C109 0.929 . S
H162 C114 0.929 . S
H163 C115 0.930 . S
H164 C122 0.929 . S
H165 C123 0.930 . S
H166 C124 0.930 . S
H167 C125 0.930 . S
H168 C127 0.929 . S
H169 C128 0.930 . S
H170 C129 0.930 . S
H171 C130 0.930 . S
H172 C134 0.929 . S
H173 C136 0.930 . S
H174 C142 0.929 . S
H175 C143 0.930 . S
Li176 N193 1.990 . S
Li176 O236 1.956 . S
Li176 O237 1.970 . S
Li176 O238 1.961 . S
Li177 N201 1.990 . S
Li177 O236 1.970 . S
Li177 O237 1.956 . S
Li177 O239 1.961 . S
Li178 N223 1.990 . S
Li178 O236 1.961 . S
Li178 O238 1.956 . S
Li178 O239 1.970 . S
Li179 N229 1.990 . S
Li179 O237 1.961 . S
Li179 O238 1.970 . S
Li179 O239 1.956 . S
C180 C182 1.348 . S
C180 C183 1.356 . S
C180 O236 1.325 . S
N181 C184 1.314 . S
N181 C185 1.279 . S
C182 C180 1.348 . S
C182 C184 1.353 . S
C182 H240 0.929 . S
C183 C180 1.356 . S
C183 C185 1.358 . S
C183 H241 0.930 . S
C184 N181 1.314 . S
C184 C182 1.353 . S
C184 H242 0.930 . S
C185 N181 1.279 . S
C185 C183 1.358 . S
C185 H243 0.930 . S
C186 C189 1.348 . S
C186 C190 1.356 . S
C186 O237 1.325 . S
C187 N188 1.279 . S
C187 C190 1.358 1_554 S
C187 H244 0.930 . S
N188 C187 1.279 . S
N188 C191 1.314 . S
C189 C186 1.348 . S
C189 C191 1.353 1_556 S
C189 H245 0.929 . S
C190 C186 1.356 . S
C190 C187 1.358 1_556 S
C190 H246 0.930 . S
C191 N188 1.314 . S
C191 C189 1.353 1_554 S
C191 H247 0.930 . S
C192 N193 1.314 . S
C192 C197 1.353 . S
C192 H198 0.930 . S
N193 Li176 1.990 . S
N193 C192 1.314 . S
N193 C195 1.279 . S
C194 C195 1.358 . S
C194 C196 1.356 . S
C194 H248 0.930 . S
C195 N193 1.279 . S
C195 C194 1.358 . S
C195 H199 0.930 . S
C196 C194 1.356 . S
C196 C197 1.348 . S
C197 C192 1.353 . S
C197 C196 1.348 . S
C197 H249 0.929 . S
H198 C192 0.930 . S
H199 C195 0.930 . S
C200 N201 1.314 . S
C200 C202 1.353 . S
C200 H206 0.930 . S
N201 Li177 1.990 . S
N201 C200 1.314 . S
N201 C204 1.279 . S
C202 C200 1.353 . S
C202 C205 1.348 . S
C202 H250 0.929 . S
C203 C204 1.358 . S
C203 C205 1.356 . S
C203 H251 0.930 . S
C204 N201 1.279 . S
C204 C203 1.358 . S
C204 H207 0.930 . S
C205 C202 1.348 . S
C205 C203 1.356 . S
H206 C200 0.930 . S
H207 C204 0.930 . S
C208 C210 1.348 . S
C208 C211 1.356 . S
C208 O238 1.325 . S
N209 C212 1.314 . S
N209 C213 1.279 . S
C210 C208 1.348 . S
C210 C212 1.353 . S
C210 H252 0.929 . S
C211 C208 1.356 . S
C211 C213 1.358 . S
C211 H253 0.930 . S
C212 N209 1.314 . S
C212 C210 1.353 . S
C212 H254 0.930 . S
C213 N209 1.279 . S
C213 C211 1.358 . S
C213 H255 0.930 . S
C214 C215 1.348 . S
C214 C216 1.356 . S
C214 O239 1.325 . S
C215 C214 1.348 . S
C215 C217 1.353 . S
C215 H256 0.929 . S
C216 C214 1.356 . S
C216 C218 1.358 . S
C216 H257 0.930 . S
C217 C215 1.353 . S
C217 N219 1.314 . S
C217 H258 0.930 . S
C218 C216 1.358 . S
C218 N219 1.279 . S
C218 H259 0.930 . S
N219 C217 1.314 . S
N219 C218 1.279 . S
C220 C222 1.353 . S
C220 N223 1.314 . S
C220 H226 0.930 . S
C221 N223 1.279 . S
C221 C224 1.358 . S
C221 H227 0.930 . S
C222 C220 1.353 . S
C222 C225 1.348 . S
C222 H260 0.929 . S
N223 Li178 1.990 . S
N223 C220 1.314 . S
N223 C221 1.279 . S
C224 C221 1.358 . S
C224 C225 1.356 . S
C224 H261 0.930 . S
C225 C222 1.348 . S
C225 C224 1.356 . S
H226 C220 0.930 . S
H227 C221 0.930 . S
C228 N229 1.314 . S
C228 C230 1.353 . S
C228 H234 0.930 . S
N229 Li179 1.990 . S
N229 C228 1.314 . S
N229 C232 1.279 . S
C230 C228 1.353 . S
C230 C233 1.348 . S
C230 H262 0.900 1_556 S
C231 C232 1.358 . S
C231 C233 1.356 . S
C231 H263 0.930 . S
C232 N229 1.279 . S
C232 C231 1.358 . S
C232 H235 0.930 . S
C233 C230 1.348 . S
C233 C231 1.356 . S
H234 C228 0.930 . S
H235 C232 0.930 . S
O236 Li176 1.956 . S
O236 Li177 1.970 . S
O236 Li178 1.961 . S
O236 C180 1.325 . S
O237 Li176 1.970 . S
O237 Li177 1.956 . S
O237 Li179 1.961 . S
O237 C186 1.325 . S
O238 Li176 1.961 . S
O238 Li178 1.956 . S
O238 Li179 1.970 . S
O238 C208 1.325 . S
O239 Li177 1.961 . S
O239 Li178 1.970 . S
O239 Li179 1.956 . S
O239 C214 1.325 . S
H240 C182 0.929 . S
H241 C183 0.930 . S
H242 C184 0.930 . S
H243 C185 0.930 . S
H244 C187 0.930 . S
H245 C189 0.929 . S
H246 C190 0.930 . S
H247 C191 0.930 . S
H248 C194 0.930 . S
H249 C197 0.929 . S
H250 C202 0.929 . S
H251 C203 0.930 . S
H252 C210 0.929 . S
H253 C211 0.930 . S
H254 C212 0.930 . S
H255 C213 0.930 . S
H256 C215 0.929 . S
H257 C216 0.930 . S
H258 C217 0.930 . S
H259 C218 0.930 . S
H260 C222 0.929 . S
H261 C224 0.930 . S
H262 C230 0.900 1_554 S
H263 C231 0.930 . S
Li264 N281 1.990 . S
Li264 O324 1.956 . S
Li264 O325 1.970 . S
Li264 O326 1.961 . S
Li265 N289 1.990 . S
Li265 O324 1.970 . S
Li265 O325 1.956 . S
Li265 O327 1.961 . S
Li266 N311 1.990 . S
Li266 O324 1.961 . S
Li266 O326 1.956 . S
Li266 O327 1.970 . S
Li267 N317 1.990 . S
Li267 O325 1.961 . S
Li267 O326 1.970 . S
Li267 O327 1.956 . S
C268 C270 1.348 . S
C268 C271 1.356 . S
C268 O324 1.325 . S
N269 C272 1.314 . S
N269 C273 1.279 . S
C270 C268 1.348 . S
C270 C272 1.353 . S
C270 H328 0.929 . S
C271 C268 1.356 . S
C271 C273 1.358 . S
C271 H329 0.930 . S
C272 N269 1.314 . S
C272 C270 1.353 . S
C272 H330 0.930 . S
C273 N269 1.279 . S
C273 C271 1.358 . S
C273 H331 0.930 . S
C274 C277 1.348 . S
C274 C278 1.356 . S
C274 O325 1.325 . S
C275 N276 1.279 . S
C275 C278 1.358 . S
C275 H332 0.930 . S
N276 C275 1.279 . S
N276 C279 1.314 . S
C277 C274 1.348 . S
C277 C279 1.353 . S
C277 H333 0.929 . S
C278 C274 1.356 . S
C278 C275 1.358 . S
C278 H334 0.930 . S
C279 N276 1.314 . S
C279 C277 1.353 . S
C279 H335 0.930 . S
C280 N281 1.314 . S
C280 C285 1.353 . S
C280 H286 0.930 . S
N281 Li264 1.990 . S
N281 C280 1.314 . S
N281 C283 1.279 . S
C282 C283 1.358 . S
C282 C284 1.356 . S
C282 H336 0.930 . S
C283 N281 1.279 . S
C283 C282 1.358 . S
C283 H287 0.930 . S
C284 C282 1.356 . S
C284 C285 1.348 . S
C285 C280 1.353 . S
C285 C284 1.348 . S
C285 H337 0.929 . S
H286 C280 0.930 . S
H287 C283 0.930 . S
C288 N289 1.314 . S
C288 C290 1.353 . S
C288 H294 0.930 . S
N289 Li265 1.990 . S
N289 C288 1.314 . S
N289 C292 1.279 . S
C290 C288 1.353 . S
C290 C293 1.348 . S
C290 H338 0.929 . S
C291 C292 1.358 . S
C291 C293 1.356 . S
C291 H339 0.930 . S
C292 N289 1.279 . S
C292 C291 1.358 . S
C292 H295 0.930 . S
C293 C290 1.348 . S
C293 C291 1.356 . S
H294 C288 0.930 . S
H295 C292 0.930 . S
C296 C298 1.348 . S
C296 C299 1.356 . S
C296 O326 1.325 . S
N297 C300 1.314 . S
N297 C301 1.279 . S
C298 C296 1.348 . S
C298 C300 1.353 . S
C298 H340 0.929 . S
C299 C296 1.356 . S
C299 C301 1.358 . S
C299 H341 0.930 . S
C300 N297 1.314 . S
C300 C298 1.353 . S
C300 H342 0.930 . S
C301 N297 1.279 . S
C301 C299 1.358 . S
C301 H343 0.930 . S
C302 C303 1.348 . S
C302 C304 1.356 . S
C302 O327 1.325 . S
C303 C302 1.348 . S
C303 C305 1.353 . S
C303 H344 0.929 . S
C304 C302 1.356 . S
C304 C306 1.358 . S
C304 H345 0.930 . S
C305 C303 1.353 . S
C305 N307 1.314 . S
C305 H346 0.930 . S
C306 C304 1.358 . S
C306 N307 1.279 . S
C306 H347 0.930 . S
N307 C305 1.314 . S
N307 C306 1.279 . S
C308 C310 1.353 . S
C308 N311 1.314 . S
C308 H314 0.930 . S
C309 N311 1.279 . S
C309 C312 1.358 . S
C309 H315 0.930 . S
C310 C308 1.353 . S
C310 C313 1.348 . S
C310 H348 0.929 . S
N311 Li266 1.990 . S
N311 C308 1.314 . S
N311 C309 1.279 . S
C312 C309 1.358 . S
C312 C313 1.356 . S
C312 H349 0.930 . S
C313 C310 1.348 . S
C313 C312 1.356 . S
H314 C308 0.930 . S
H315 C309 0.930 . S
C316 N317 1.314 . S
C316 C318 1.353 . S
C316 H322 0.930 . S
N317 Li267 1.990 . S
N317 C316 1.314 . S
N317 C320 1.279 . S
C318 C316 1.353 . S
C318 C321 1.348 . S
C318 H350 0.929 . S
C319 C320 1.358 . S
C319 C321 1.356 . S
C319 H351 0.930 . S
C320 N317 1.279 . S
C320 C319 1.358 . S
C320 H323 0.930 . S
C321 C318 1.348 . S
C321 C319 1.356 . S
H322 C316 0.930 . S
H323 C320 0.930 . S
O324 Li264 1.956 . S
O324 Li265 1.970 . S
O324 Li266 1.961 . S
O324 C268 1.325 . S
O325 Li264 1.970 . S
O325 Li265 1.956 . S
O325 Li267 1.961 . S
O325 C274 1.325 . S
O326 Li264 1.961 . S
O326 Li266 1.956 . S
O326 Li267 1.970 . S
O326 C296 1.325 . S
O327 Li265 1.961 . S
O327 Li266 1.970 . S
O327 Li267 1.956 . S
O327 C302 1.325 . S
H328 C270 0.929 . S
H329 C271 0.930 . S
H330 C272 0.930 . S
H331 C273 0.930 . S
H332 C275 0.930 . S
H333 C277 0.929 . S
H334 C278 0.930 . S
H335 C279 0.930 . S
H336 C282 0.930 . S
H337 C285 0.929 . S
H338 C290 0.929 . S
H339 C291 0.930 . S
H340 C298 0.929 . S
H341 C299 0.930 . S
H342 C300 0.930 . S
H343 C301 0.930 . S
H344 C303 0.929 . S
H345 C304 0.930 . S
H346 C305 0.930 . S
H347 C306 0.930 . S
H348 C310 0.929 . S
H349 C312 0.930 . S
H350 C318 0.929 . S
H351 C319 0.930 . S
Li352 N369 1.990 . S
Li352 O412 1.956 . S
Li352 O413 1.970 . S
Li352 O414 1.961 . S
Li353 N377 1.990 . S
Li353 O412 1.970 . S
Li353 O413 1.956 . S
Li353 O415 1.961 . S
Li354 N399 1.990 . S
Li354 O412 1.961 . S
Li354 O414 1.956 . S
Li354 O415 1.970 . S
Li355 N405 1.990 . S
Li355 O413 1.961 . S
Li355 O414 1.970 . S
Li355 O415 1.956 . S
C356 C358 1.348 . S
C356 C359 1.356 . S
C356 O412 1.325 . S
N357 C360 1.314 . S
N357 C361 1.279 . S
C358 C356 1.348 . S
C358 C360 1.353 1_556 S
C358 H416 0.929 . S
C359 C356 1.356 . S
C359 C361 1.358 1_556 S
C359 H417 0.930 . S
C360 N357 1.314 . S
C360 C358 1.353 1_554 S
C360 H418 0.930 . S
C361 N357 1.279 . S
C361 C359 1.358 1_554 S
C361 H419 0.930 . S
C362 C365 1.348 . S
C362 C366 1.356 . S
C362 O413 1.325 . S
C363 N364 1.279 . S
C363 C366 1.358 . S
C363 H420 0.930 . S
N364 C363 1.279 . S
N364 C367 1.314 . S
C365 C362 1.348 . S
C365 C367 1.353 . S
C365 H421 0.929 . S
C366 C362 1.356 . S
C366 C363 1.358 . S
C366 H422 0.930 . S
C367 N364 1.314 . S
C367 C365 1.353 . S
C367 H423 0.930 . S
C368 N369 1.314 . S
C368 C373 1.353 . S
C368 H374 0.930 . S
N369 Li352 1.990 . S
N369 C368 1.314 . S
N369 C371 1.279 . S
C370 C371 1.358 . S
C370 C372 1.356 . S
C370 H424 0.930 1_556 S
C371 N369 1.279 . S
C371 C370 1.358 . S
C371 H375 0.930 . S
C372 C370 1.356 . S
C372 C373 1.348 . S
C373 C368 1.353 . S
C373 C372 1.348 . S
C373 H425 0.929 . S
H374 C368 0.930 . S
H375 C371 0.930 . S
C376 N377 1.314 . S
C376 C378 1.353 . S
C376 H382 0.930 . S
N377 Li353 1.990 . S
N377 C376 1.314 . S
N377 C380 1.279 . S
C378 C376 1.353 . S
C378 C381 1.348 . S
C378 H426 0.929 . S
C379 C380 1.358 . S
C379 C381 1.356 . S
C379 H427 0.930 . S
C380 N377 1.279 . S
C380 C379 1.358 . S
C380 H383 0.930 . S
C381 C378 1.348 . S
C381 C379 1.356 . S
H382 C376 0.930 . S
H383 C380 0.930 . S
C384 C386 1.348 . S
C384 C387 1.356 . S
C384 O414 1.325 . S
N385 C388 1.314 . S
N385 C389 1.279 . S
C386 C384 1.348 . S
C386 C388 1.353 . S
C386 H428 0.929 . S
C387 C384 1.356 . S
C387 C389 1.358 . S
C387 H429 0.930 . S
C388 N385 1.314 . S
C388 C386 1.353 . S
C388 H430 0.930 . S
C389 N385 1.279 . S
C389 C387 1.358 . S
C389 H431 0.930 . S
C390 C391 1.348 . S
C390 C392 1.356 . S
C390 O415 1.325 . S
C391 C390 1.348 . S
C391 C393 1.353 . S
C391 H432 0.929 . S
C392 C390 1.356 . S
C392 C394 1.358 . S
C392 H433 0.930 . S
C393 C391 1.353 . S
C393 N395 1.314 . S
C393 H434 0.930 . S
C394 C392 1.358 . S
C394 N395 1.279 . S
C394 H435 0.930 . S
N395 C393 1.314 . S
N395 C394 1.279 . S
C396 C398 1.353 . S
C396 N399 1.314 . S
C396 H402 0.930 . S
C397 N399 1.279 . S
C397 C400 1.358 . S
C397 H403 0.930 . S
C398 C396 1.353 . S
C398 C401 1.348 . S
C398 H436 0.929 . S
N399 Li354 1.990 . S
N399 C396 1.314 . S
N399 C397 1.279 . S
C400 C397 1.358 . S
C400 C401 1.356 . S
C400 H437 0.930 . S
C401 C398 1.348 . S
C401 C400 1.356 . S
H402 C396 0.930 . S
H403 C397 0.930 . S
C404 N405 1.314 . S
C404 C406 1.353 . S
C404 H410 0.930 . S
N405 Li355 1.990 . S
N405 C404 1.314 . S
N405 C408 1.279 . S
C406 C404 1.353 . S
C406 C409 1.348 . S
C406 H438 0.929 . S
C407 C408 1.358 . S
C407 C409 1.356 . S
C407 H439 0.930 . S
C408 N405 1.279 . S
C408 C407 1.358 . S
C408 H411 0.930 . S
C409 C406 1.348 . S
C409 C407 1.356 . S
H410 C404 0.930 . S
H411 C408 0.930 . S
O412 Li352 1.956 . S
O412 Li353 1.970 . S
O412 Li354 1.961 . S
O412 C356 1.325 . S
O413 Li352 1.970 . S
O413 Li353 1.956 . S
O413 Li355 1.961 . S
O413 C362 1.325 . S
O414 Li352 1.961 . S
O414 Li354 1.956 . S
O414 Li355 1.970 . S
O414 C384 1.325 . S
O415 Li353 1.961 . S
O415 Li354 1.970 . S
O415 Li355 1.956 . S
O415 C390 1.325 . S
H416 C358 0.929 . S
H417 C359 0.930 . S
H418 C360 0.930 . S
H419 C361 0.930 . S
H420 C363 0.930 . S
H421 C365 0.929 . S
H422 C366 0.930 . S
H423 C367 0.930 . S
H424 C370 0.930 1_554 S
H425 C373 0.929 . S
H426 C378 0.929 . S
H427 C379 0.930 . S
H428 C386 0.929 . S
H429 C387 0.930 . S
H430 C388 0.930 . S
H431 C389 0.930 . S
H432 C391 0.929 . S
H433 C392 0.930 . S
H434 C393 0.930 . S
H435 C394 0.930 . S
H436 C398 0.929 . S
H437 C400 0.930 . S
H438 C406 0.929 . S
H439 C407 0.930 . S
Li440 N457 1.990 . S
Li440 O500 1.956 . S
Li440 O501 1.970 . S
Li440 O502 1.961 . S
Li441 N465 1.990 . S
Li441 O500 1.970 . S
Li441 O501 1.956 . S
Li441 O503 1.961 . S
Li442 N487 1.990 . S
Li442 O500 1.961 . S
Li442 O502 1.956 . S
Li442 O503 1.970 . S
Li443 N493 1.990 . S
Li443 O501 1.961 . S
Li443 O502 1.970 . S
Li443 O503 1.956 . S
C444 C446 1.348 . S
C444 C447 1.356 . S
C444 O500 1.325 . S
N445 C448 1.314 . S
N445 C449 1.279 . S
C446 C444 1.348 . S
C446 C448 1.353 . S
C446 H504 0.929 . S
C447 C444 1.356 . S
C447 C449 1.358 . S
C447 H505 0.930 . S
C448 N445 1.314 . S
C448 C446 1.353 . S
C448 H506 0.930 . S
C449 N445 1.279 . S
C449 C447 1.358 . S
C449 H507 0.930 . S
C450 C453 1.348 . S
C450 C454 1.356 . S
C450 O501 1.325 . S
C451 N452 1.279 . S
C451 C454 1.358 . S
C451 H508 0.930 . S
N452 C451 1.279 . S
N452 C455 1.314 . S
C453 C450 1.348 . S
C453 C455 1.353 . S
C453 H509 0.929 . S
C454 C450 1.356 . S
C454 C451 1.358 . S
C454 H510 0.930 . S
C455 N452 1.314 . S
C455 C453 1.353 . S
C455 H511 0.930 . S
C456 N457 1.314 . S
C456 C461 1.353 . S
C456 H462 0.930 . S
N457 Li440 1.990 . S
N457 C456 1.314 . S
N457 C459 1.279 . S
C458 C459 1.358 . S
C458 C460 1.356 . S
C458 H512 0.930 . S
C459 N457 1.279 . S
C459 C458 1.358 . S
C459 H463 0.930 . S
C460 C458 1.356 . S
C460 C461 1.348 . S
C461 C456 1.353 . S
C461 C460 1.348 . S
C461 H513 0.929 . S
H462 C456 0.930 . S
H463 C459 0.930 . S
C464 N465 1.314 . S
C464 C466 1.353 . S
C464 H470 0.930 . S
N465 Li441 1.990 . S
N465 C464 1.314 . S
N465 C468 1.279 . S
C466 C464 1.353 . S
C466 C469 1.348 . S
C466 H514 0.929 . S
C467 C468 1.358 . S
C467 C469 1.356 . S
C467 H515 0.930 . S
C468 N465 1.279 . S
C468 C467 1.358 . S
C468 H471 0.930 . S
C469 C466 1.348 . S
C469 C467 1.356 . S
H470 C464 0.930 . S
H471 C468 0.930 . S
C472 C474 1.348 . S
C472 C475 1.356 . S
C472 O502 1.325 . S
N473 C476 1.314 . S
N473 C477 1.279 . S
C474 C472 1.348 . S
C474 C476 1.353 . S
C474 H516 0.929 . S
C475 C472 1.356 . S
C475 C477 1.358 . S
C475 H517 0.930 . S
C476 N473 1.314 . S
C476 C474 1.353 . S
C476 H518 0.930 . S
C477 N473 1.279 . S
C477 C475 1.358 . S
C477 H519 0.930 . S
C478 C479 1.348 . S
C478 C480 1.356 . S
C478 O503 1.325 . S
C479 C478 1.348 . S
C479 C481 1.353 . S
C479 H520 0.929 . S
C480 C478 1.356 . S
C480 C482 1.358 . S
C480 H521 0.930 . S
C481 C479 1.353 . S
C481 N483 1.314 . S
C481 H522 0.930 . S
C482 C480 1.358 . S
C482 N483 1.279 . S
C482 H523 0.930 . S
N483 C481 1.314 . S
N483 C482 1.279 . S
C484 C486 1.353 . S
C484 N487 1.314 . S
C484 H490 0.930 . S
C485 N487 1.279 . S
C485 C488 1.358 . S
C485 H491 0.930 . S
C486 C484 1.353 . S
C486 C489 1.348 . S
C486 H524 0.929 . S
N487 Li442 1.990 . S
N487 C484 1.314 . S
N487 C485 1.279 . S
C488 C485 1.358 . S
C488 C489 1.356 . S
C488 H525 0.930 . S
C489 C486 1.348 . S
C489 C488 1.356 . S
H490 C484 0.930 . S
H491 C485 0.930 . S
C492 N493 1.314 . S
C492 C494 1.353 . S
C492 H498 0.930 . S
N493 Li443 1.990 . S
N493 C492 1.314 . S
N493 C496 1.279 . S
C494 C492 1.353 . S
C494 C497 1.348 . S
C494 H526 0.929 . S
C495 C496 1.358 . S
C495 C497 1.356 . S
C495 H527 0.930 . S
C496 N493 1.279 . S
C496 C495 1.358 . S
C496 H499 0.930 . S
C497 C494 1.348 . S
C497 C495 1.356 . S
H498 C492 0.930 . S
H499 C496 0.930 . S
O500 Li440 1.956 . S
O500 Li441 1.970 . S
O500 Li442 1.961 . S
O500 C444 1.325 . S
O501 Li440 1.970 . S
O501 Li441 1.956 . S
O501 Li443 1.961 . S
O501 C450 1.325 . S
O502 Li440 1.961 . S
O502 Li442 1.956 . S
O502 Li443 1.970 . S
O502 C472 1.325 . S
O503 Li441 1.961 . S
O503 Li442 1.970 . S
O503 Li443 1.956 . S
O503 C478 1.325 . S
H504 C446 0.929 . S
H505 C447 0.930 . S
H506 C448 0.930 . S
H507 C449 0.930 . S
H508 C451 0.930 . S
H509 C453 0.929 . S
H510 C454 0.930 . S
H511 C455 0.930 . S
H512 C458 0.930 . S
H513 C461 0.929 . S
H514 C466 0.929 . S
H515 C467 0.930 . S
H516 C474 0.929 . S
H517 C475 0.930 . S
H518 C476 0.930 . S
H519 C477 0.930 . S
H520 C479 0.929 . S
H521 C480 0.930 . S
H522 C481 0.930 . S
H523 C482 0.930 . S
H524 C486 0.929 . S
H525 C488 0.930 . S
H526 C494 0.929 . S
H527 C495 0.930 . S
Li528 N545 1.990 . S
Li528 O588 1.956 . S
Li528 O589 1.970 . S
Li528 O590 1.961 . S
Li529 N553 1.990 . S
Li529 O588 1.970 . S
Li529 O589 1.956 . S
Li529 O591 1.961 . S
Li530 N575 1.990 . S
Li530 O588 1.961 . S
Li530 O590 1.956 . S
Li530 O591 1.970 . S
Li531 N581 1.990 . S
Li531 O589 1.961 . S
Li531 O590 1.970 . S
Li531 O591 1.956 . S
C532 C534 1.348 . S
C532 C535 1.356 . S
C532 O588 1.325 . S
N533 C536 1.314 . S
N533 C537 1.279 . S
C534 C532 1.348 . S
C534 C536 1.353 . S
C534 H592 0.929 . S
C535 C532 1.356 . S
C535 C537 1.358 . S
C535 H593 0.930 . S
C536 N533 1.314 . S
C536 C534 1.353 . S
C536 H594 0.930 . S
C537 N533 1.279 . S
C537 C535 1.358 . S
C537 H595 0.930 . S
C538 C541 1.348 . S
C538 C542 1.356 . S
C538 O589 1.325 . S
C539 N540 1.279 . S
C539 C542 1.358 . S
C539 H596 0.930 . S
N540 C539 1.279 . S
N540 C543 1.314 . S
C541 C538 1.348 . S
C541 C543 1.353 . S
C541 H597 0.929 . S
C542 C538 1.356 . S
C542 C539 1.358 . S
C542 H598 0.930 . S
C543 N540 1.314 . S
C543 C541 1.353 . S
C543 H599 0.930 . S
C544 N545 1.314 . S
C544 C549 1.353 . S
C544 H550 0.930 . S
N545 Li528 1.990 . S
N545 C544 1.314 . S
N545 C547 1.279 . S
C546 C547 1.358 . S
C546 C548 1.356 . S
C546 H600 0.930 . S
C547 N545 1.279 . S
C547 C546 1.358 . S
C547 H551 0.930 . S
C548 C546 1.356 . S
C548 C549 1.348 . S
C549 C544 1.353 . S
C549 C548 1.348 . S
C549 H601 0.929 . S
H550 C544 0.930 . S
H551 C547 0.930 . S
C552 N553 1.314 . S
C552 C554 1.353 . S
C552 H558 0.930 . S
N553 Li529 1.990 . S
N553 C552 1.314 . S
N553 C556 1.279 . S
C554 C552 1.353 . S
C554 C557 1.348 . S
C554 H602 0.929 . S
C555 C556 1.358 . S
C555 C557 1.356 . S
C555 H603 0.930 . S
C556 N553 1.279 . S
C556 C555 1.358 . S
C556 H559 0.930 . S
C557 C554 1.348 . S
C557 C555 1.356 . S
H558 C552 0.930 . S
H559 C556 0.930 . S
C560 C562 1.348 . S
C560 C563 1.356 . S
C560 O590 1.325 . S
N561 C564 1.314 . S
N561 C565 1.279 . S
C562 C560 1.348 . S
C562 C564 1.353 . S
C562 H604 0.929 . S
C563 C560 1.356 . S
C563 C565 1.358 . S
C563 H605 0.930 . S
C564 N561 1.314 . S
C564 C562 1.353 . S
C564 H606 0.930 . S
C565 N561 1.279 . S
C565 C563 1.358 . S
C565 H607 0.930 . S
C566 C567 1.348 . S
C566 C568 1.356 . S
C566 O591 1.325 . S
C567 C566 1.348 . S
C567 C569 1.353 1_554 S
C567 H608 0.929 . S
C568 C566 1.356 . S
C568 C570 1.358 1_554 S
C568 H609 0.930 . S
C569 C567 1.353 1_556 S
C569 N571 1.314 . S
C569 H610 0.930 . S
C570 C568 1.358 1_556 S
C570 N571 1.279 . S
C570 H611 0.930 . S
N571 C569 1.314 . S
N571 C570 1.279 . S
C572 C574 1.353 . S
C572 N575 1.314 . S
C572 H578 0.930 . S
C573 N575 1.279 . S
C573 C576 1.358 . S
C573 H579 0.930 . S
C574 C572 1.353 . S
C574 C577 1.348 . S
C574 H612 0.929 . S
N575 Li530 1.990 . S
N575 C572 1.314 . S
N575 C573 1.279 . S
C576 C573 1.358 . S
C576 C577 1.356 . S
C576 H613 0.930 . S
C577 C574 1.348 . S
C577 C576 1.356 . S
H578 C572 0.930 . S
H579 C573 0.930 . S
C580 N581 1.314 . S
C580 C582 1.353 . S
C580 H586 0.930 . S
N581 Li531 1.990 . S
N581 C580 1.314 . S
N581 C584 1.279 . S
C582 C580 1.353 . S
C582 C585 1.348 . S
C582 H614 0.929 . S
C583 C584 1.358 . S
C583 C585 1.356 . S
C583 H615 0.930 1_554 S
C584 N581 1.279 . S
C584 C583 1.358 . S
C584 H587 0.930 . S
C585 C582 1.348 . S
C585 C583 1.356 . S
H586 C580 0.930 . S
H587 C584 0.930 . S
O588 Li528 1.956 . S
O588 Li529 1.970 . S
O588 Li530 1.961 . S
O588 C532 1.325 . S
O589 Li528 1.970 . S
O589 Li529 1.956 . S
O589 Li531 1.961 . S
O589 C538 1.325 . S
O590 Li528 1.961 . S
O590 Li530 1.956 . S
O590 Li531 1.970 . S
O590 C560 1.325 . S
O591 Li529 1.961 . S
O591 Li530 1.970 . S
O591 Li531 1.956 . S
O591 C566 1.325 . S
H592 C534 0.929 . S
H593 C535 0.930 . S
H594 C536 0.930 . S
H595 C537 0.930 . S
H596 C539 0.930 . S
H597 C541 0.929 . S
H598 C542 0.930 . S
H599 C543 0.930 . S
H600 C546 0.930 . S
H601 C549 0.929 . S
H602 C554 0.929 . S
H603 C555 0.930 . S
H604 C562 0.929 . S
H605 C563 0.930 . S
H606 C564 0.930 . S
H607 C565 0.930 . S
H608 C567 0.929 . S
H609 C568 0.930 . S
H610 C569 0.930 . S
H611 C570 0.930 . S
H612 C574 0.929 . S
H613 C576 0.930 . S
H614 C582 0.929 . S
H615 C583 0.930 1_556 S
Li616 N633 1.990 . S
Li616 O676 1.956 . S
Li616 O677 1.970 . S
Li616 O678 1.961 . S
Li617 N641 1.990 . S
Li617 O676 1.970 . S
Li617 O677 1.956 . S
Li617 O679 1.961 . S
Li618 N663 1.990 . S
Li618 O676 1.961 . S
Li618 O678 1.956 . S
Li618 O679 1.970 . S
Li619 N669 1.990 . S
Li619 O677 1.961 . S
Li619 O678 1.970 . S
Li619 O679 1.956 . S
C620 C622 1.348 . S
C620 C623 1.356 . S
C620 O676 1.325 . S
N621 C624 1.314 . S
N621 C625 1.279 . S
C622 C620 1.348 . S
C622 C624 1.353 . S
C622 H680 0.929 . S
C623 C620 1.356 . S
C623 C625 1.358 . S
C623 H681 0.930 . S
C624 N621 1.314 . S
C624 C622 1.353 . S
C624 H682 0.930 . S
C625 N621 1.279 . S
C625 C623 1.358 . S
C625 H683 0.930 . S
C626 C629 1.348 . S
C626 C630 1.356 . S
C626 O677 1.325 . S
C627 N628 1.279 . S
C627 C630 1.358 . S
C627 H684 0.930 . S
N628 C627 1.279 . S
N628 C631 1.314 . S
C629 C626 1.348 . S
C629 C631 1.353 . S
C629 H685 0.929 . S
C630 C626 1.356 . S
C630 C627 1.358 . S
C630 H686 0.930 . S
C631 N628 1.314 . S
C631 C629 1.353 . S
C631 H687 0.930 . S
C632 N633 1.314 . S
C632 C637 1.353 . S
C632 H638 0.930 . S
N633 Li616 1.990 . S
N633 C632 1.314 . S
N633 C635 1.279 . S
C634 C635 1.358 . S
C634 C636 1.356 . S
C634 H688 0.930 . S
C635 N633 1.279 . S
C635 C634 1.358 . S
C635 H639 0.930 . S
C636 C634 1.356 . S
C636 C637 1.348 . S
C637 C632 1.353 . S
C637 C636 1.348 . S
C637 H689 0.929 . S
H638 C632 0.930 . S
H639 C635 0.930 . S
C640 N641 1.314 . S
C640 C642 1.353 . S
C640 H646 0.930 . S
N641 Li617 1.990 . S
N641 C640 1.314 . S
N641 C644 1.279 . S
C642 C640 1.353 . S
C642 C645 1.348 . S
C642 H690 0.929 . S
C643 C644 1.358 . S
C643 C645 1.356 . S
C643 H691 0.930 . S
C644 N641 1.279 . S
C644 C643 1.358 . S
C644 H647 0.930 . S
C645 C642 1.348 . S
C645 C643 1.356 . S
H646 C640 0.930 . S
H647 C644 0.930 . S
C648 C650 1.348 . S
C648 C651 1.356 . S
C648 O678 1.325 . S
N649 C652 1.314 . S
N649 C653 1.279 . S
C650 C648 1.348 . S
C650 C652 1.353 . S
C650 H692 0.929 . S
C651 C648 1.356 . S
C651 C653 1.358 . S
C651 H693 0.930 . S
C652 N649 1.314 . S
C652 C650 1.353 . S
C652 H694 0.930 . S
C653 N649 1.279 . S
C653 C651 1.358 . S
C653 H695 0.930 . S
C654 C655 1.348 . S
C654 C656 1.356 . S
C654 O679 1.325 . S
C655 C654 1.348 . S
C655 C657 1.353 . S
C655 H696 0.929 . S
C656 C654 1.356 . S
C656 C658 1.358 . S
C656 H697 0.930 . S
C657 C655 1.353 . S
C657 N659 1.314 . S
C657 H698 0.930 . S
C658 C656 1.358 . S
C658 N659 1.279 . S
C658 H699 0.930 . S
N659 C657 1.314 . S
N659 C658 1.279 . S
C660 C662 1.353 . S
C660 N663 1.314 . S
C660 H666 0.930 . S
C661 N663 1.279 . S
C661 C664 1.358 . S
C661 H667 0.930 . S
C662 C660 1.353 . S
C662 C665 1.348 . S
C662 H700 0.929 . S
N663 Li618 1.990 . S
N663 C660 1.314 . S
N663 C661 1.279 . S
C664 C661 1.358 . S
C664 C665 1.356 . S
C664 H701 0.930 . S
C665 C662 1.348 . S
C665 C664 1.356 . S
H666 C660 0.930 . S
H667 C661 0.930 . S
C668 N669 1.314 . S
C668 C670 1.353 . S
C668 H674 0.930 . S
N669 Li619 1.990 . S
N669 C668 1.314 . S
N669 C672 1.279 . S
C670 C668 1.353 . S
C670 C673 1.348 . S
C670 H702 0.929 . S
C671 C672 1.358 . S
C671 C673 1.356 . S
C671 H703 0.930 . S
C672 N669 1.279 . S
C672 C671 1.358 . S
C672 H675 0.930 . S
C673 C670 1.348 . S
C673 C671 1.356 . S
H674 C668 0.930 . S
H675 C672 0.930 . S
O676 Li616 1.956 . S
O676 Li617 1.970 . S
O676 Li618 1.961 . S
O676 C620 1.325 . S
O677 Li616 1.970 . S
O677 Li617 1.956 . S
O677 Li619 1.961 . S
O677 C626 1.325 . S
O678 Li616 1.961 . S
O678 Li618 1.956 . S
O678 Li619 1.970 . S
O678 C648 1.325 . S
O679 Li617 1.961 . S
O679 Li618 1.970 . S
O679 Li619 1.956 . S
O679 C654 1.325 . S
H680 C622 0.929 . S
H681 C623 0.930 . S
H682 C624 0.930 . S
H683 C625 0.930 . S
H684 C627 0.930 . S
H685 C629 0.929 . S
H686 C630 0.930 . S
H687 C631 0.930 . S
H688 C634 0.930 . S
H689 C637 0.929 . S
H690 C642 0.929 . S
H691 C643 0.930 . S
H692 C650 0.929 . S
H693 C651 0.930 . S
H694 C652 0.930 . S
H695 C653 0.930 . S
H696 C655 0.929 . S
H697 C656 0.930 . S
H698 C657 0.930 . S
H699 C658 0.930 . S
H700 C662 0.929 . S
H701 C664 0.930 . S
H702 C670 0.929 . S
H703 C671 0.930 . S
Li704 N721 1.990 . S
Li704 O764 1.956 . S
Li704 O765 1.970 . S
Li704 O766 1.961 . S
Li705 N729 1.990 . S
Li705 O764 1.970 . S
Li705 O765 1.956 . S
Li705 O767 1.961 . S
Li706 N751 1.990 . S
Li706 O764 1.961 . S
Li706 O766 1.956 . S
Li706 O767 1.970 . S
Li707 N757 1.990 . S
Li707 O765 1.961 . S
Li707 O766 1.970 . S
Li707 O767 1.956 . S
C708 C710 1.348 . S
C708 C711 1.356 . S
C708 O764 1.325 . S
N709 C712 1.314 . S
N709 C713 1.279 . S
C710 C708 1.348 . S
C710 C712 1.353 . S
C710 H768 0.929 . S
C711 C708 1.356 . S
C711 C713 1.358 . S
C711 H769 0.930 . S
C712 N709 1.314 . S
C712 C710 1.353 . S
C712 H770 0.930 . S
C713 N709 1.279 . S
C713 C711 1.358 . S
C713 H771 0.930 . S
C714 C717 1.348 . S
C714 C718 1.356 . S
C714 O765 1.325 . S
C715 N716 1.279 . S
C715 C718 1.358 . S
C715 H772 0.930 . S
N716 C715 1.279 . S
N716 C719 1.314 . S
C717 C714 1.348 . S
C717 C719 1.353 . S
C717 H773 0.929 . S
C718 C714 1.356 . S
C718 C715 1.358 . S
C718 H774 0.930 . S
C719 N716 1.314 . S
C719 C717 1.353 . S
C719 H775 0.930 . S
C720 N721 1.314 . S
C720 C725 1.353 . S
C720 H726 0.930 . S
N721 Li704 1.990 . S
N721 C720 1.314 . S
N721 C723 1.279 . S
C722 C723 1.358 . S
C722 C724 1.356 . S
C722 H776 0.930 . S
C723 N721 1.279 . S
C723 C722 1.358 . S
C723 H727 0.930 . S
C724 C722 1.356 . S
C724 C725 1.348 . S
C725 C720 1.353 . S
C725 C724 1.348 . S
C725 H777 0.929 . S
H726 C720 0.930 . S
H727 C723 0.930 . S
C728 N729 1.314 . S
C728 C730 1.353 . S
C728 H734 0.930 . S
N729 Li705 1.990 . S
N729 C728 1.314 . S
N729 C732 1.279 . S
C730 C728 1.353 . S
C730 C733 1.348 . S
C730 H778 0.900 1_554 S
C731 C732 1.358 . S
C731 C733 1.356 . S
C731 H779 0.930 . S
C732 N729 1.279 . S
C732 C731 1.358 . S
C732 H735 0.930 . S
C733 C730 1.348 . S
C733 C731 1.356 . S
H734 C728 0.930 . S
H735 C732 0.930 . S
C736 C738 1.348 . S
C736 C739 1.356 . S
C736 O766 1.325 . S
N737 C740 1.314 . S
N737 C741 1.279 . S
C738 C736 1.348 . S
C738 C740 1.353 . S
C738 H780 0.929 . S
C739 C736 1.356 . S
C739 C741 1.358 . S
C739 H781 0.930 . S
C740 N737 1.314 . S
C740 C738 1.353 . S
C740 H782 0.930 . S
C741 N737 1.279 . S
C741 C739 1.358 . S
C741 H783 0.930 . S
C742 C743 1.348 . S
C742 C744 1.356 . S
C742 O767 1.325 . S
C743 C742 1.348 . S
C743 C745 1.353 1_554 S
C743 H784 0.929 . S
C744 C742 1.356 . S
C744 C746 1.358 1_554 S
C744 H785 0.930 . S
C745 C743 1.353 1_556 S
C745 N747 1.314 . S
C745 H786 0.930 . S
C746 C744 1.358 1_556 S
C746 N747 1.279 . S
C746 H787 0.930 . S
N747 C745 1.314 . S
N747 C746 1.279 . S
C748 C750 1.353 . S
C748 N751 1.314 . S
C748 H754 0.930 . S
C749 N751 1.279 . S
C749 C752 1.358 . S
C749 H755 0.930 . S
C750 C748 1.353 . S
C750 C753 1.348 . S
C750 H788 0.929 . S
N751 Li706 1.990 . S
N751 C748 1.314 . S
N751 C749 1.279 . S
C752 C749 1.358 . S
C752 C753 1.356 . S
C752 H789 0.930 . S
C753 C750 1.348 . S
C753 C752 1.356 . S
H754 C748 0.930 . S
H755 C749 0.930 . S
C756 N757 1.314 . S
C756 C758 1.353 . S
C756 H762 0.930 . S
N757 Li707 1.990 . S
N757 C756 1.314 . S
N757 C760 1.279 . S
C758 C756 1.353 . S
C758 C761 1.348 . S
C758 H790 0.929 . S
C759 C760 1.358 . S
C759 C761 1.356 . S
C759 H791 0.930 . S
C760 N757 1.279 . S
C760 C759 1.358 . S
C760 H763 0.930 . S
C761 C758 1.348 . S
C761 C759 1.356 . S
H762 C756 0.930 . S
H763 C760 0.930 . S
O764 Li704 1.956 . S
O764 Li705 1.970 . S
O764 Li706 1.961 . S
O764 C708 1.325 . S
O765 Li704 1.970 . S
O765 Li705 1.956 . S
O765 Li707 1.961 . S
O765 C714 1.325 . S
O766 Li704 1.961 . S
O766 Li706 1.956 . S
O766 Li707 1.970 . S
O766 C736 1.325 . S
O767 Li705 1.961 . S
O767 Li706 1.970 . S
O767 Li707 1.956 . S
O767 C742 1.325 . S
H768 C710 0.929 . S
H769 C711 0.930 . S
H770 C712 0.930 . S
H771 C713 0.930 . S
H772 C715 0.930 . S
H773 C717 0.929 . S
H774 C718 0.930 . S
H775 C719 0.930 . S
H776 C722 0.930 . S
H777 C725 0.929 . S
H778 C730 0.900 1_556 S
H779 C731 0.930 . S
H780 C738 0.929 . S
H781 C739 0.930 . S
H782 C740 0.930 . S
H783 C741 0.930 . S
H784 C743 0.929 . S
H785 C744 0.930 . S
H786 C745 0.930 . S
H787 C746 0.930 . S
H788 C750 0.929 . S
H789 C752 0.930 . S
H790 C758 0.929 . S
H791 C759 0.930 . S
Li792 N809 1.990 . S
Li792 O852 1.956 . S
Li792 O853 1.970 . S
Li792 O854 1.961 . S
Li793 N817 1.990 . S
Li793 O852 1.970 . S
Li793 O853 1.956 . S
Li793 O855 1.961 . S
Li794 N839 1.990 . S
Li794 O852 1.961 . S
Li794 O854 1.956 . S
Li794 O855 1.970 . S
Li795 N845 1.990 . S
Li795 O853 1.961 . S
Li795 O854 1.970 . S
Li795 O855 1.956 . S
C796 C798 1.348 . S
C796 C799 1.356 . S
C796 O852 1.325 . S
N797 C800 1.314 . S
N797 C801 1.279 . S
C798 C796 1.348 . S
C798 C800 1.353 . S
C798 H856 0.929 . S
C799 C796 1.356 . S
C799 C801 1.358 . S
C799 H857 0.930 . S
C800 N797 1.314 . S
C800 C798 1.353 . S
C800 H858 0.930 . S
C801 N797 1.279 . S
C801 C799 1.358 . S
C801 H859 0.930 . S
C802 C805 1.348 . S
C802 C806 1.356 . S
C802 O853 1.325 . S
C803 N804 1.279 . S
C803 C806 1.358 . S
C803 H860 0.930 . S
N804 C803 1.279 . S
N804 C807 1.314 . S
C805 C802 1.348 . S
C805 C807 1.353 . S
C805 H861 0.929 . S
C806 C802 1.356 . S
C806 C803 1.358 . S
C806 H862 0.930 . S
C807 N804 1.314 . S
C807 C805 1.353 . S
C807 H863 0.930 . S
C808 N809 1.314 . S
C808 C813 1.353 . S
C808 H814 0.930 . S
N809 Li792 1.990 . S
N809 C808 1.314 . S
N809 C811 1.279 . S
C810 C811 1.358 . S
C810 C812 1.356 . S
C810 H864 0.930 . S
C811 N809 1.279 . S
C811 C810 1.358 . S
C811 H815 0.930 . S
C812 C810 1.356 . S
C812 C813 1.348 . S
C813 C808 1.353 . S
C813 C812 1.348 . S
C813 H865 0.929 . S
H814 C808 0.930 . S
H815 C811 0.930 . S
C816 N817 1.314 . S
C816 C818 1.353 . S
C816 H822 0.930 . S
N817 Li793 1.990 . S
N817 C816 1.314 . S
N817 C820 1.279 . S
C818 C816 1.353 . S
C818 C821 1.348 . S
C818 H866 0.929 . S
C819 C820 1.358 . S
C819 C821 1.356 . S
C819 H867 0.930 . S
C820 N817 1.279 . S
C820 C819 1.358 . S
C820 H823 0.930 . S
C821 C818 1.348 . S
C821 C819 1.356 . S
H822 C816 0.930 . S
H823 C820 0.930 . S
C824 C826 1.348 . S
C824 C827 1.356 . S
C824 O854 1.325 . S
N825 C828 1.314 . S
N825 C829 1.279 . S
C826 C824 1.348 . S
C826 C828 1.353 . S
C826 H868 0.929 . S
C827 C824 1.356 . S
C827 C829 1.358 . S
C827 H869 0.930 . S
C828 N825 1.314 . S
C828 C826 1.353 . S
C828 H870 0.930 . S
C829 N825 1.279 . S
C829 C827 1.358 . S
C829 H871 0.930 . S
C830 C831 1.348 . S
C830 C832 1.356 . S
C830 O855 1.325 . S
C831 C830 1.348 . S
C831 C833 1.353 . S
C831 H872 0.929 . S
C832 C830 1.356 . S
C832 C834 1.358 . S
C832 H873 0.930 . S
C833 C831 1.353 . S
C833 N835 1.314 . S
C833 H874 0.930 . S
C834 C832 1.358 . S
C834 N835 1.279 . S
C834 H875 0.930 . S
N835 C833 1.314 . S
N835 C834 1.279 . S
C836 C838 1.353 . S
C836 N839 1.314 . S
C836 H842 0.930 . S
C837 N839 1.279 . S
C837 C840 1.358 . S
C837 H843 0.930 . S
C838 C836 1.353 . S
C838 C841 1.348 . S
C838 H876 0.929 . S
N839 Li794 1.990 . S
N839 C836 1.314 . S
N839 C837 1.279 . S
C840 C837 1.358 . S
C840 C841 1.356 . S
C840 H877 0.930 . S
C841 C838 1.348 . S
C841 C840 1.356 . S
H842 C836 0.930 . S
H843 C837 0.930 . S
C844 N845 1.314 . S
C844 C846 1.353 . S
C844 H850 0.930 . S
N845 Li795 1.990 . S
N845 C844 1.314 . S
N845 C848 1.279 . S
C846 C844 1.353 . S
C846 C849 1.348 . S
C846 H878 0.929 . S
C847 C848 1.358 . S
C847 C849 1.356 . S
C847 H879 0.930 . S
C848 N845 1.279 . S
C848 C847 1.358 . S
C848 H851 0.930 . S
C849 C846 1.348 . S
C849 C847 1.356 . S
H850 C844 0.930 . S
H851 C848 0.930 . S
O852 Li792 1.956 . S
O852 Li793 1.970 . S
O852 Li794 1.961 . S
O852 C796 1.325 . S
O853 Li792 1.970 . S
O853 Li793 1.956 . S
O853 Li795 1.961 . S
O853 C802 1.325 . S
O854 Li792 1.961 . S
O854 Li794 1.956 . S
O854 Li795 1.970 . S
O854 C824 1.325 . S
O855 Li793 1.961 . S
O855 Li794 1.970 . S
O855 Li795 1.956 . S
O855 C830 1.325 . S
H856 C798 0.929 . S
H857 C799 0.930 . S
H858 C800 0.930 . S
H859 C801 0.930 . S
H860 C803 0.930 . S
H861 C805 0.929 . S
H862 C806 0.930 . S
H863 C807 0.930 . S
H864 C810 0.930 . S
H865 C813 0.929 . S
H866 C818 0.929 . S
H867 C819 0.930 . S
H868 C826 0.929 . S
H869 C827 0.930 . S
H870 C828 0.930 . S
H871 C829 0.930 . S
H872 C831 0.929 . S
H873 C832 0.930 . S
H874 C833 0.930 . S
H875 C834 0.930 . S
H876 C838 0.929 . S
H877 C840 0.930 . S
H878 C846 0.929 . S
H879 C847 0.930 . S
Li880 N897 1.990 . S
Li880 O940 1.956 . S
Li880 O941 1.970 . S
Li880 O942 1.961 . S
Li881 N905 1.990 . S
Li881 O940 1.970 . S
Li881 O941 1.956 . S
Li881 O943 1.961 . S
Li882 N927 1.990 . S
Li882 O940 1.961 . S
Li882 O942 1.956 . S
Li882 O943 1.970 . S
Li883 N933 1.990 . S
Li883 O941 1.961 . S
Li883 O942 1.970 . S
Li883 O943 1.956 . S
C884 C886 1.348 . S
C884 C887 1.356 . S
C884 O940 1.325 . S
N885 C888 1.314 . S
N885 C889 1.279 . S
C886 C884 1.348 . S
C886 C888 1.353 . S
C886 H944 0.929 . S
C887 C884 1.356 . S
C887 C889 1.358 . S
C887 H945 0.930 . S
C888 N885 1.314 . S
C888 C886 1.353 . S
C888 H946 0.930 . S
C889 N885 1.279 . S
C889 C887 1.358 . S
C889 H947 0.930 . S
C890 C893 1.348 . S
C890 C894 1.356 . S
C890 O941 1.325 . S
C891 N892 1.279 . S
C891 C894 1.358 1_554 S
C891 H948 0.930 . S
N892 C891 1.279 . S
N892 C895 1.314 . S
C893 C890 1.348 . S
C893 C895 1.353 1_556 S
C893 H949 0.929 . S
C894 C890 1.356 . S
C894 C891 1.358 1_556 S
C894 H950 0.930 . S
C895 N892 1.314 . S
C895 C893 1.353 1_554 S
C895 H951 0.930 . S
C896 N897 1.314 . S
C896 C901 1.353 . S
C896 H902 0.930 . S
N897 Li880 1.990 . S
N897 C896 1.314 . S
N897 C899 1.279 . S
C898 C899 1.358 . S
C898 C900 1.356 . S
C898 H952 0.930 . S
C899 N897 1.279 . S
C899 C898 1.358 . S
C899 H903 0.930 . S
C900 C898 1.356 . S
C900 C901 1.348 . S
C901 C896 1.353 . S
C901 C900 1.348 . S
C901 H953 0.929 . S
H902 C896 0.930 . S
H903 C899 0.930 . S
C904 N905 1.314 . S
C904 C906 1.353 . S
C904 H910 0.930 . S
N905 Li881 1.990 . S
N905 C904 1.314 . S
N905 C908 1.279 . S
C906 C904 1.353 . S
C906 C909 1.348 . S
C906 H954 0.929 . S
C907 C908 1.358 . S
C907 C909 1.356 . S
C907 H955 0.930 . S
C908 N905 1.279 . S
C908 C907 1.358 . S
C908 H911 0.930 . S
C909 C906 1.348 . S
C909 C907 1.356 . S
H910 C904 0.930 . S
H911 C908 0.930 . S
C912 C914 1.348 . S
C912 C915 1.356 . S
C912 O942 1.325 . S
N913 C916 1.314 . S
N913 C917 1.279 . S
C914 C912 1.348 . S
C914 C916 1.353 . S
C914 H956 0.929 . S
C915 C912 1.356 . S
C915 C917 1.358 . S
C915 H957 0.930 . S
C916 N913 1.314 . S
C916 C914 1.353 . S
C916 H958 0.930 . S
C917 N913 1.279 . S
C917 C915 1.358 . S
C917 H959 0.930 . S
C918 C919 1.348 . S
C918 C920 1.356 . S
C918 O943 1.325 . S
C919 C918 1.348 . S
C919 C921 1.353 . S
C919 H960 0.929 . S
C920 C918 1.356 . S
C920 C922 1.358 . S
C920 H961 0.930 . S
C921 C919 1.353 . S
C921 N923 1.314 . S
C921 H962 0.930 . S
C922 C920 1.358 . S
C922 N923 1.279 . S
C922 H963 0.930 . S
N923 C921 1.314 . S
N923 C922 1.279 . S
C924 C926 1.353 . S
C924 N927 1.314 . S
C924 H930 0.930 . S
C925 N927 1.279 . S
C925 C928 1.358 . S
C925 H931 0.930 . S
C926 C924 1.353 . S
C926 C929 1.348 . S
C926 H964 0.929 . S
N927 Li882 1.990 . S
N927 C924 1.314 . S
N927 C925 1.279 . S
C928 C925 1.358 . S
C928 C929 1.356 . S
C928 H965 0.930 . S
C929 C926 1.348 . S
C929 C928 1.356 . S
H930 C924 0.930 . S
H931 C925 0.930 . S
C932 N933 1.314 . S
C932 C934 1.353 . S
C932 H938 0.930 . S
N933 Li883 1.990 . S
N933 C932 1.314 . S
N933 C936 1.279 . S
C934 C932 1.353 . S
C934 C937 1.348 . S
C934 H966 0.900 1_556 S
C935 C936 1.358 . S
C935 C937 1.356 . S
C935 H967 0.930 . S
C936 N933 1.279 . S
C936 C935 1.358 . S
C936 H939 0.930 . S
C937 C934 1.348 . S
C937 C935 1.356 . S
H938 C932 0.930 . S
H939 C936 0.930 . S
O940 Li880 1.956 . S
O940 Li881 1.970 . S
O940 Li882 1.961 . S
O940 C884 1.325 . S
O941 Li880 1.970 . S
O941 Li881 1.956 . S
O941 Li883 1.961 . S
O941 C890 1.325 . S
O942 Li880 1.961 . S
O942 Li882 1.956 . S
O942 Li883 1.970 . S
O942 C912 1.325 . S
O943 Li881 1.961 . S
O943 Li882 1.970 . S
O943 Li883 1.956 . S
O943 C918 1.325 . S
H944 C886 0.929 . S
H945 C887 0.930 . S
H946 C888 0.930 . S
H947 C889 0.930 . S
H948 C891 0.930 . S
H949 C893 0.929 . S
H950 C894 0.930 . S
H951 C895 0.930 . S
H952 C898 0.930 . S
H953 C901 0.929 . S
H954 C906 0.929 . S
H955 C907 0.930 . S
H956 C914 0.929 . S
H957 C915 0.930 . S
H958 C916 0.930 . S
H959 C917 0.930 . S
H960 C919 0.929 . S
H961 C920 0.930 . S
H962 C921 0.930 . S
H963 C922 0.930 . S
H964 C926 0.929 . S
H965 C928 0.930 . S
H966 C934 0.900 1_554 S
H967 C935 0.930 . S
Li968 N985 1.990 . S
Li968 O1028 1.956 . S
Li968 O1029 1.970 . S
Li968 O1030 1.961 . S
Li969 N993 1.990 . S
Li969 O1028 1.970 . S
Li969 O1029 1.956 . S
Li969 O1031 1.961 . S
Li970 N1015 1.990 . S
Li970 O1028 1.961 . S
Li970 O1030 1.956 . S
Li970 O1031 1.970 . S
Li971 N1021 1.990 . S
Li971 O1029 1.961 . S
Li971 O1030 1.970 . S
Li971 O1031 1.956 . S
C972 C974 1.348 . S
C972 C975 1.356 . S
C972 O1028 1.325 . S
N973 C976 1.314 . S
N973 C977 1.279 . S
C974 C972 1.348 . S
C974 C976 1.353 . S
C974 H1032 0.929 . S
C975 C972 1.356 . S
C975 C977 1.358 . S
C975 H1033 0.930 . S
C976 N973 1.314 . S
C976 C974 1.353 . S
C976 H1034 0.930 . S
C977 N973 1.279 . S
C977 C975 1.358 . S
C977 H1035 0.930 . S
C978 C981 1.348 . S
C978 C982 1.356 . S
C978 O1029 1.325 . S
C979 N980 1.279 . S
C979 C982 1.358 . S
C979 H1036 0.930 . S
N980 C979 1.279 . S
N980 C983 1.314 . S
C981 C978 1.348 . S
C981 C983 1.353 . S
C981 H1037 0.929 . S
C982 C978 1.356 . S
C982 C979 1.358 . S
C982 H1038 0.930 . S
C983 N980 1.314 . S
C983 C981 1.353 . S
C983 H1039 0.930 . S
C984 N985 1.314 . S
C984 C989 1.353 . S
C984 H990 0.930 . S
N985 Li968 1.990 . S
N985 C984 1.314 . S
N985 C987 1.279 . S
C986 C987 1.358 . S
C986 C988 1.356 . S
C986 H1040 0.930 . S
C987 N985 1.279 . S
C987 C986 1.358 . S
C987 H991 0.930 . S
C988 C986 1.356 . S
C988 C989 1.348 . S
C989 C984 1.353 . S
C989 C988 1.348 . S
C989 H1041 0.929 . S
H990 C984 0.930 . S
H991 C987 0.930 . S
C992 N993 1.314 . S
C992 C994 1.353 . S
C992 H998 0.930 . S
N993 Li969 1.990 . S
N993 C992 1.314 . S
N993 C996 1.279 . S
C994 C992 1.353 . S
C994 C997 1.348 . S
C994 H1042 0.929 . S
C995 C996 1.358 . S
C995 C997 1.356 . S
C995 H1043 0.930 . S
C996 N993 1.279 . S
C996 C995 1.358 . S
C996 H999 0.930 . S
C997 C994 1.348 . S
C997 C995 1.356 . S
H998 C992 0.930 . S
H999 C996 0.930 . S
C1000 C1002 1.348 . S
C1000 C1003 1.356 . S
C1000 O1030 1.325 . S
N1001 C1004 1.314 . S
N1001 C1005 1.279 . S
C1002 C1000 1.348 . S
C1002 C1004 1.353 . S
C1002 H1044 0.929 . S
C1003 C1000 1.356 . S
C1003 C1005 1.358 . S
C1003 H1045 0.930 . S
C1004 N1001 1.314 . S
C1004 C1002 1.353 . S
C1004 H1046 0.930 . S
C1005 N1001 1.279 . S
C1005 C1003 1.358 . S
C1005 H1047 0.930 . S
C1006 C1007 1.348 . S
C1006 C1008 1.356 . S
C1006 O1031 1.325 . S
C1007 C1006 1.348 . S
C1007 C1009 1.353 . S
C1007 H1048 0.929 . S
C1008 C1006 1.356 . S
C1008 C1010 1.358 . S
C1008 H1049 0.930 . S
C1009 C1007 1.353 . S
C1009 N1011 1.314 . S
C1009 H1050 0.930 . S
C1010 C1008 1.358 . S
C1010 N1011 1.279 . S
C1010 H1051 0.930 . S
N1011 C1009 1.314 . S
N1011 C1010 1.279 . S
C1012 C1014 1.353 . S
C1012 N1015 1.314 . S
C1012 H1018 0.930 . S
C1013 N1015 1.279 . S
C1013 C1016 1.358 . S
C1013 H1019 0.930 . S
C1014 C1012 1.353 . S
C1014 C1017 1.348 . S
C1014 H1052 0.929 . S
N1015 Li970 1.990 . S
N1015 C1012 1.314 . S
N1015 C1013 1.279 . S
C1016 C1013 1.358 . S
C1016 C1017 1.356 . S
C1016 H1053 0.930 . S
C1017 C1014 1.348 . S
C1017 C1016 1.356 . S
H1018 C1012 0.930 . S
H1019 C1013 0.930 . S
C1020 N1021 1.314 . S
C1020 C1022 1.353 . S
C1020 H1026 0.930 . S
N1021 Li971 1.990 . S
N1021 C1020 1.314 . S
N1021 C1024 1.279 . S
C1022 C1020 1.353 . S
C1022 C1025 1.348 . S
C1022 H1054 0.929 . S
C1023 C1024 1.358 . S
C1023 C1025 1.356 . S
C1023 H1055 0.930 . S
C1024 N1021 1.279 . S
C1024 C1023 1.358 . S
C1024 H1027 0.930 . S
C1025 C1022 1.348 . S
C1025 C1023 1.356 . S
H1026 C1020 0.930 . S
H1027 C1024 0.930 . S
O1028 Li968 1.956 . S
O1028 Li969 1.970 . S
O1028 Li970 1.961 . S
O1028 C972 1.325 . S
O1029 Li968 1.970 . S
O1029 Li969 1.956 . S
O1029 Li971 1.961 . S
O1029 C978 1.325 . S
O1030 Li968 1.961 . S
O1030 Li970 1.956 . S
O1030 Li971 1.970 . S
O1030 C1000 1.325 . S
O1031 Li969 1.961 . S
O1031 Li970 1.970 . S
O1031 Li971 1.956 . S
O1031 C1006 1.325 . S
H1032 C974 0.929 . S
H1033 C975 0.930 . S
H1034 C976 0.930 . S
H1035 C977 0.930 . S
H1036 C979 0.930 . S
H1037 C981 0.929 . S
H1038 C982 0.930 . S
H1039 C983 0.930 . S
H1040 C986 0.930 . S
H1041 C989 0.929 . S
H1042 C994 0.929 . S
H1043 C995 0.930 . S
H1044 C1002 0.929 . S
H1045 C1003 0.930 . S
H1046 C1004 0.930 . S
H1047 C1005 0.930 . S
H1048 C1007 0.929 . S
H1049 C1008 0.930 . S
H1050 C1009 0.930 . S
H1051 C1010 0.930 . S
H1052 C1014 0.929 . S
H1053 C1016 0.930 . S
H1054 C1022 0.929 . S
H1055 C1023 0.930 . S
Li1056 N1073 1.990 . S
Li1056 O1116 1.956 . S
Li1056 O1117 1.970 . S
Li1056 O1118 1.961 . S
Li1057 N1081 1.990 . S
Li1057 O1116 1.970 . S
Li1057 O1117 1.956 . S
Li1057 O1119 1.961 . S
Li1058 N1103 1.990 . S
Li1058 O1116 1.961 . S
Li1058 O1118 1.956 . S
Li1058 O1119 1.970 . S
Li1059 N1109 1.990 . S
Li1059 O1117 1.961 . S
Li1059 O1118 1.970 . S
Li1059 O1119 1.956 . S
C1060 C1062 1.348 . S
C1060 C1063 1.356 . S
C1060 O1116 1.325 . S
N1061 C1064 1.314 . S
N1061 C1065 1.279 . S
C1062 C1060 1.348 . S
C1062 C1064 1.353 1_556 S
C1062 H1120 0.929 . S
C1063 C1060 1.356 . S
C1063 C1065 1.358 1_556 S
C1063 H1121 0.930 . S
C1064 N1061 1.314 . S
C1064 C1062 1.353 1_554 S
C1064 H1122 0.930 . S
C1065 N1061 1.279 . S
C1065 C1063 1.358 1_554 S
C1065 H1123 0.930 . S
C1066 C1069 1.348 . S
C1066 C1070 1.356 . S
C1066 O1117 1.325 . S
C1067 N1068 1.279 . S
C1067 C1070 1.358 . S
C1067 H1124 0.930 . S
N1068 C1067 1.279 . S
N1068 C1071 1.314 . S
C1069 C1066 1.348 . S
C1069 C1071 1.353 . S
C1069 H1125 0.929 . S
C1070 C1066 1.356 . S
C1070 C1067 1.358 . S
C1070 H1126 0.930 . S
C1071 N1068 1.314 . S
C1071 C1069 1.353 . S
C1071 H1127 0.930 . S
C1072 N1073 1.314 . S
C1072 C1077 1.353 . S
C1072 H1078 0.930 . S
N1073 Li1056 1.990 . S
N1073 C1072 1.314 . S
N1073 C1075 1.279 . S
C1074 C1075 1.358 . S
C1074 C1076 1.356 . S
C1074 H1128 0.930 1_556 S
C1075 N1073 1.279 . S
C1075 C1074 1.358 . S
C1075 H1079 0.930 . S
C1076 C1074 1.356 . S
C1076 C1077 1.348 . S
C1077 C1072 1.353 . S
C1077 C1076 1.348 . S
C1077 H1129 0.929 . S
H1078 C1072 0.930 . S
H1079 C1075 0.930 . S
C1080 N1081 1.314 . S
C1080 C1082 1.353 . S
C1080 H1086 0.930 . S
N1081 Li1057 1.990 . S
N1081 C1080 1.314 . S
N1081 C1084 1.279 . S
C1082 C1080 1.353 . S
C1082 C1085 1.348 . S
C1082 H1130 0.929 . S
C1083 C1084 1.358 . S
C1083 C1085 1.356 . S
C1083 H1131 0.930 . S
C1084 N1081 1.279 . S
C1084 C1083 1.358 . S
C1084 H1087 0.930 . S
C1085 C1082 1.348 . S
C1085 C1083 1.356 . S
H1086 C1080 0.930 . S
H1087 C1084 0.930 . S
C1088 C1090 1.348 . S
C1088 C1091 1.356 . S
C1088 O1118 1.325 . S
N1089 C1092 1.314 . S
N1089 C1093 1.279 . S
C1090 C1088 1.348 . S
C1090 C1092 1.353 . S
C1090 H1132 0.929 . S
C1091 C1088 1.356 . S
C1091 C1093 1.358 . S
C1091 H1133 0.930 . S
C1092 N1089 1.314 . S
C1092 C1090 1.353 . S
C1092 H1134 0.930 . S
C1093 N1089 1.279 . S
C1093 C1091 1.358 . S
C1093 H1135 0.930 . S
C1094 C1095 1.348 . S
C1094 C1096 1.356 . S
C1094 O1119 1.325 . S
C1095 C1094 1.348 . S
C1095 C1097 1.353 . S
C1095 H1136 0.929 . S
C1096 C1094 1.356 . S
C1096 C1098 1.358 . S
C1096 H1137 0.930 . S
C1097 C1095 1.353 . S
C1097 N1099 1.314 . S
C1097 H1138 0.930 . S
C1098 C1096 1.358 . S
C1098 N1099 1.279 . S
C1098 H1139 0.930 . S
N1099 C1097 1.314 . S
N1099 C1098 1.279 . S
C1100 C1102 1.353 . S
C1100 N1103 1.314 . S
C1100 H1106 0.930 . S
C1101 N1103 1.279 . S
C1101 C1104 1.358 . S
C1101 H1107 0.930 . S
C1102 C1100 1.353 . S
C1102 C1105 1.348 . S
C1102 H1140 0.929 . S
N1103 Li1058 1.990 . S
N1103 C1100 1.314 . S
N1103 C1101 1.279 . S
C1104 C1101 1.358 . S
C1104 C1105 1.356 . S
C1104 H1141 0.930 . S
C1105 C1102 1.348 . S
C1105 C1104 1.356 . S
H1106 C1100 0.930 . S
H1107 C1101 0.930 . S
C1108 N1109 1.314 . S
C1108 C1110 1.353 . S
C1108 H1114 0.930 . S
N1109 Li1059 1.990 . S
N1109 C1108 1.314 . S
N1109 C1112 1.279 . S
C1110 C1108 1.353 . S
C1110 C1113 1.348 . S
C1110 H1142 0.929 . S
C1111 C1112 1.358 . S
C1111 C1113 1.356 . S
C1111 H1143 0.930 . S
C1112 N1109 1.279 . S
C1112 C1111 1.358 . S
C1112 H1115 0.930 . S
C1113 C1110 1.348 . S
C1113 C1111 1.356 . S
H1114 C1108 0.930 . S
H1115 C1112 0.930 . S
O1116 Li1056 1.956 . S
O1116 Li1057 1.970 . S
O1116 Li1058 1.961 . S
O1116 C1060 1.325 . S
O1117 Li1056 1.970 . S
O1117 Li1057 1.956 . S
O1117 Li1059 1.961 . S
O1117 C1066 1.325 . S
O1118 Li1056 1.961 . S
O1118 Li1058 1.956 . S
O1118 Li1059 1.970 . S
O1118 C1088 1.325 . S
O1119 Li1057 1.961 . S
O1119 Li1058 1.970 . S
O1119 Li1059 1.956 . S
O1119 C1094 1.325 . S
H1120 C1062 0.929 . S
H1121 C1063 0.930 . S
H1122 C1064 0.930 . S
H1123 C1065 0.930 . S
H1124 C1067 0.930 . S
H1125 C1069 0.929 . S
H1126 C1070 0.930 . S
H1127 C1071 0.930 . S
H1128 C1074 0.930 1_554 S
H1129 C1077 0.929 . S
H1130 C1082 0.929 . S
H1131 C1083 0.930 . S
H1132 C1090 0.929 . S
H1133 C1091 0.930 . S
H1134 C1092 0.930 . S
H1135 C1093 0.930 . S
H1136 C1095 0.929 . S
H1137 C1096 0.930 . S
H1138 C1097 0.930 . S
H1139 C1098 0.930 . S
H1140 C1102 0.929 . S
H1141 C1104 0.930 . S
H1142 C1110 0.929 . S
H1143 C1111 0.930 . S
Li1144 N1161 1.990 . S
Li1144 O1204 1.956 . S
Li1144 O1205 1.970 . S
Li1144 O1206 1.961 . S
Li1145 N1169 1.990 . S
Li1145 O1204 1.970 . S
Li1145 O1205 1.956 . S
Li1145 O1207 1.961 . S
Li1146 N1191 1.990 . S
Li1146 O1204 1.961 . S
Li1146 O1206 1.956 . S
Li1146 O1207 1.970 . S
Li1147 N1197 1.990 . S
Li1147 O1205 1.961 . S
Li1147 O1206 1.970 . S
Li1147 O1207 1.956 . S
C1148 C1150 1.348 . S
C1148 C1151 1.356 . S
C1148 O1204 1.325 . S
N1149 C1152 1.314 . S
N1149 C1153 1.279 . S
C1150 C1148 1.348 . S
C1150 C1152 1.353 . S
C1150 H1208 0.929 . S
C1151 C1148 1.356 . S
C1151 C1153 1.358 . S
C1151 H1209 0.930 . S
C1152 N1149 1.314 . S
C1152 C1150 1.353 . S
C1152 H1210 0.930 . S
C1153 N1149 1.279 . S
C1153 C1151 1.358 . S
C1153 H1211 0.930 . S
C1154 C1157 1.348 . S
C1154 C1158 1.356 . S
C1154 O1205 1.325 . S
C1155 N1156 1.279 . S
C1155 C1158 1.358 . S
C1155 H1212 0.930 . S
N1156 C1155 1.279 . S
N1156 C1159 1.314 . S
C1157 C1154 1.348 . S
C1157 C1159 1.353 . S
C1157 H1213 0.929 . S
C1158 C1154 1.356 . S
C1158 C1155 1.358 . S
C1158 H1214 0.930 . S
C1159 N1156 1.314 . S
C1159 C1157 1.353 . S
C1159 H1215 0.930 . S
C1160 N1161 1.314 . S
C1160 C1165 1.353 . S
C1160 H1166 0.930 . S
N1161 Li1144 1.990 . S
N1161 C1160 1.314 . S
N1161 C1163 1.279 . S
C1162 C1163 1.358 . S
C1162 C1164 1.356 . S
C1162 H1216 0.930 . S
C1163 N1161 1.279 . S
C1163 C1162 1.358 . S
C1163 H1167 0.930 . S
C1164 C1162 1.356 . S
C1164 C1165 1.348 . S
C1165 C1160 1.353 . S
C1165 C1164 1.348 . S
C1165 H1217 0.929 . S
H1166 C1160 0.930 . S
H1167 C1163 0.930 . S
C1168 N1169 1.314 . S
C1168 C1170 1.353 . S
C1168 H1174 0.930 . S
N1169 Li1145 1.990 . S
N1169 C1168 1.314 . S
N1169 C1172 1.279 . S
C1170 C1168 1.353 . S
C1170 C1173 1.348 . S
C1170 H1218 0.929 . S
C1171 C1172 1.358 . S
C1171 C1173 1.356 . S
C1171 H1219 0.930 . S
C1172 N1169 1.279 . S
C1172 C1171 1.358 . S
C1172 H1175 0.930 . S
C1173 C1170 1.348 . S
C1173 C1171 1.356 . S
H1174 C1168 0.930 . S
H1175 C1172 0.930 . S
C1176 C1178 1.348 . S
C1176 C1179 1.356 . S
C1176 O1206 1.325 . S
N1177 C1180 1.314 . S
N1177 C1181 1.279 . S
C1178 C1176 1.348 . S
C1178 C1180 1.353 . S
C1178 H1220 0.929 . S
C1179 C1176 1.356 . S
C1179 C1181 1.358 . S
C1179 H1221 0.930 . S
C1180 N1177 1.314 . S
C1180 C1178 1.353 . S
C1180 H1222 0.930 . S
C1181 N1177 1.279 . S
C1181 C1179 1.358 . S
C1181 H1223 0.930 . S
C1182 C1183 1.348 . S
C1182 C1184 1.356 . S
C1182 O1207 1.325 . S
C1183 C1182 1.348 . S
C1183 C1185 1.353 . S
C1183 H1224 0.929 . S
C1184 C1182 1.356 . S
C1184 C1186 1.358 . S
C1184 H1225 0.930 . S
C1185 C1183 1.353 . S
C1185 N1187 1.314 . S
C1185 H1226 0.930 . S
C1186 C1184 1.358 . S
C1186 N1187 1.279 . S
C1186 H1227 0.930 . S
N1187 C1185 1.314 . S
N1187 C1186 1.279 . S
C1188 C1190 1.353 . S
C1188 N1191 1.314 . S
C1188 H1194 0.930 . S
C1189 N1191 1.279 . S
C1189 C1192 1.358 . S
C1189 H1195 0.930 . S
C1190 C1188 1.353 . S
C1190 C1193 1.348 . S
C1190 H1228 0.929 . S
N1191 Li1146 1.990 . S
N1191 C1188 1.314 . S
N1191 C1189 1.279 . S
C1192 C1189 1.358 . S
C1192 C1193 1.356 . S
C1192 H1229 0.930 . S
C1193 C1190 1.348 . S
C1193 C1192 1.356 . S
H1194 C1188 0.930 . S
H1195 C1189 0.930 . S
C1196 N1197 1.314 . S
C1196 C1198 1.353 . S
C1196 H1202 0.930 . S
N1197 Li1147 1.990 . S
N1197 C1196 1.314 . S
N1197 C1200 1.279 . S
C1198 C1196 1.353 . S
C1198 C1201 1.348 . S
C1198 H1230 0.929 . S
C1199 C1200 1.358 . S
C1199 C1201 1.356 . S
C1199 H1231 0.930 . S
C1200 N1197 1.279 . S
C1200 C1199 1.358 . S
C1200 H1203 0.930 . S
C1201 C1198 1.348 . S
C1201 C1199 1.356 . S
H1202 C1196 0.930 . S
H1203 C1200 0.930 . S
O1204 Li1144 1.956 . S
O1204 Li1145 1.970 . S
O1204 Li1146 1.961 . S
O1204 C1148 1.325 . S
O1205 Li1144 1.970 . S
O1205 Li1145 1.956 . S
O1205 Li1147 1.961 . S
O1205 C1154 1.325 . S
O1206 Li1144 1.961 . S
O1206 Li1146 1.956 . S
O1206 Li1147 1.970 . S
O1206 C1176 1.325 . S
O1207 Li1145 1.961 . S
O1207 Li1146 1.970 . S
O1207 Li1147 1.956 . S
O1207 C1182 1.325 . S
H1208 C1150 0.929 . S
H1209 C1151 0.930 . S
H1210 C1152 0.930 . S
H1211 C1153 0.930 . S
H1212 C1155 0.930 . S
H1213 C1157 0.929 . S
H1214 C1158 0.930 . S
H1215 C1159 0.930 . S
H1216 C1162 0.930 . S
H1217 C1165 0.929 . S
H1218 C1170 0.929 . S
H1219 C1171 0.930 . S
H1220 C1178 0.929 . S
H1221 C1179 0.930 . S
H1222 C1180 0.930 . S
H1223 C1181 0.930 . S
H1224 C1183 0.929 . S
H1225 C1184 0.930 . S
H1226 C1185 0.930 . S
H1227 C1186 0.930 . S
H1228 C1190 0.929 . S
H1229 C1192 0.930 . S
H1230 C1198 0.929 . S
H1231 C1199 0.930 . S
Li1232 N1249 1.990 . S
Li1232 O1292 1.956 . S
Li1232 O1293 1.970 . S
Li1232 O1294 1.961 . S
Li1233 N1257 1.990 . S
Li1233 O1292 1.970 . S
Li1233 O1293 1.956 . S
Li1233 O1295 1.961 . S
Li1234 N1279 1.990 . S
Li1234 O1292 1.961 . S
Li1234 O1294 1.956 . S
Li1234 O1295 1.970 . S
Li1235 N1285 1.990 . S
Li1235 O1293 1.961 . S
Li1235 O1294 1.970 . S
Li1235 O1295 1.956 . S
C1236 C1238 1.348 . S
C1236 C1239 1.356 . S
C1236 O1292 1.325 . S
N1237 C1240 1.314 . S
N1237 C1241 1.279 . S
C1238 C1236 1.348 . S
C1238 C1240 1.353 . S
C1238 H1296 0.929 . S
C1239 C1236 1.356 . S
C1239 C1241 1.358 . S
C1239 H1297 0.930 . S
C1240 N1237 1.314 . S
C1240 C1238 1.353 . S
C1240 H1298 0.930 . S
C1241 N1237 1.279 . S
C1241 C1239 1.358 . S
C1241 H1299 0.930 . S
C1242 C1245 1.348 . S
C1242 C1246 1.356 . S
C1242 O1293 1.325 . S
C1243 N1244 1.279 . S
C1243 C1246 1.358 . S
C1243 H1300 0.930 . S
N1244 C1243 1.279 . S
N1244 C1247 1.314 . S
C1245 C1242 1.348 . S
C1245 C1247 1.353 . S
C1245 H1301 0.929 . S
C1246 C1242 1.356 . S
C1246 C1243 1.358 . S
C1246 H1302 0.930 . S
C1247 N1244 1.314 . S
C1247 C1245 1.353 . S
C1247 H1303 0.930 . S
C1248 N1249 1.314 . S
C1248 C1253 1.353 . S
C1248 H1254 0.930 . S
N1249 Li1232 1.990 . S
N1249 C1248 1.314 . S
N1249 C1251 1.279 . S
C1250 C1251 1.358 . S
C1250 C1252 1.356 . S
C1250 H1304 0.930 . S
C1251 N1249 1.279 . S
C1251 C1250 1.358 . S
C1251 H1255 0.930 . S
C1252 C1250 1.356 . S
C1252 C1253 1.348 . S
C1253 C1248 1.353 . S
C1253 C1252 1.348 . S
C1253 H1305 0.929 . S
H1254 C1248 0.930 . S
H1255 C1251 0.930 . S
C1256 N1257 1.314 . S
C1256 C1258 1.353 . S
C1256 H1262 0.930 . S
N1257 Li1233 1.990 . S
N1257 C1256 1.314 . S
N1257 C1260 1.279 . S
C1258 C1256 1.353 . S
C1258 C1261 1.348 . S
C1258 H1306 0.929 . S
C1259 C1260 1.358 . S
C1259 C1261 1.356 . S
C1259 H1307 0.930 . S
C1260 N1257 1.279 . S
C1260 C1259 1.358 . S
C1260 H1263 0.930 . S
C1261 C1258 1.348 . S
C1261 C1259 1.356 . S
H1262 C1256 0.930 . S
H1263 C1260 0.930 . S
C1264 C1266 1.348 . S
C1264 C1267 1.356 . S
C1264 O1294 1.325 . S
N1265 C1268 1.314 . S
N1265 C1269 1.279 . S
C1266 C1264 1.348 . S
C1266 C1268 1.353 . S
C1266 H1308 0.929 . S
C1267 C1264 1.356 . S
C1267 C1269 1.358 . S
C1267 H1309 0.930 . S
C1268 N1265 1.314 . S
C1268 C1266 1.353 . S
C1268 H1310 0.930 . S
C1269 N1265 1.279 . S
C1269 C1267 1.358 . S
C1269 H1311 0.930 . S
C1270 C1271 1.348 . S
C1270 C1272 1.356 . S
C1270 O1295 1.325 . S
C1271 C1270 1.348 . S
C1271 C1273 1.353 1_554 S
C1271 H1312 0.929 . S
C1272 C1270 1.356 . S
C1272 C1274 1.358 1_554 S
C1272 H1313 0.930 . S
C1273 C1271 1.353 1_556 S
C1273 N1275 1.314 . S
C1273 H1314 0.930 . S
C1274 C1272 1.358 1_556 S
C1274 N1275 1.279 . S
C1274 H1315 0.930 . S
N1275 C1273 1.314 . S
N1275 C1274 1.279 . S
C1276 C1278 1.353 . S
C1276 N1279 1.314 . S
C1276 H1282 0.930 . S
C1277 N1279 1.279 . S
C1277 C1280 1.358 . S
C1277 H1283 0.930 . S
C1278 C1276 1.353 . S
C1278 C1281 1.348 . S
C1278 H1316 0.929 . S
N1279 Li1234 1.990 . S
N1279 C1276 1.314 . S
N1279 C1277 1.279 . S
C1280 C1277 1.358 . S
C1280 C1281 1.356 . S
C1280 H1317 0.930 . S
C1281 C1278 1.348 . S
C1281 C1280 1.356 . S
H1282 C1276 0.930 . S
H1283 C1277 0.930 . S
C1284 N1285 1.314 . S
C1284 C1286 1.353 . S
C1284 H1290 0.930 . S
N1285 Li1235 1.990 . S
N1285 C1284 1.314 . S
N1285 C1288 1.279 . S
C1286 C1284 1.353 . S
C1286 C1289 1.348 . S
C1286 H1318 0.929 . S
C1287 C1288 1.358 . S
C1287 C1289 1.356 . S
C1287 H1319 0.930 1_554 S
C1288 N1285 1.279 . S
C1288 C1287 1.358 . S
C1288 H1291 0.930 . S
C1289 C1286 1.348 . S
C1289 C1287 1.356 . S
H1290 C1284 0.930 . S
H1291 C1288 0.930 . S
O1292 Li1232 1.956 . S
O1292 Li1233 1.970 . S
O1292 Li1234 1.961 . S
O1292 C1236 1.325 . S
O1293 Li1232 1.970 . S
O1293 Li1233 1.956 . S
O1293 Li1235 1.961 . S
O1293 C1242 1.325 . S
O1294 Li1232 1.961 . S
O1294 Li1234 1.956 . S
O1294 Li1235 1.970 . S
O1294 C1264 1.325 . S
O1295 Li1233 1.961 . S
O1295 Li1234 1.970 . S
O1295 Li1235 1.956 . S
O1295 C1270 1.325 . S
H1296 C1238 0.929 . S
H1297 C1239 0.930 . S
H1298 C1240 0.930 . S
H1299 C1241 0.930 . S
H1300 C1243 0.930 . S
H1301 C1245 0.929 . S
H1302 C1246 0.930 . S
H1303 C1247 0.930 . S
H1304 C1250 0.930 . S
H1305 C1253 0.929 . S
H1306 C1258 0.929 . S
H1307 C1259 0.930 . S
H1308 C1266 0.929 . S
H1309 C1267 0.930 . S
H1310 C1268 0.930 . S
H1311 C1269 0.930 . S
H1312 C1271 0.929 . S
H1313 C1272 0.930 . S
H1314 C1273 0.930 . S
H1315 C1274 0.930 . S
H1316 C1278 0.929 . S
H1317 C1280 0.930 . S
H1318 C1286 0.929 . S
H1319 C1287 0.930 1_556 S
Li1320 N1337 1.990 . S
Li1320 O1380 1.956 . S
Li1320 O1381 1.970 . S
Li1320 O1382 1.961 . S
Li1321 N1345 1.990 . S
Li1321 O1380 1.970 . S
Li1321 O1381 1.956 . S
Li1321 O1383 1.961 . S
Li1322 N1367 1.990 . S
Li1322 O1380 1.961 . S
Li1322 O1382 1.956 . S
Li1322 O1383 1.970 . S
Li1323 N1373 1.990 . S
Li1323 O1381 1.961 . S
Li1323 O1382 1.970 . S
Li1323 O1383 1.956 . S
C1324 C1326 1.348 . S
C1324 C1327 1.356 . S
C1324 O1380 1.325 . S
N1325 C1328 1.314 . S
N1325 C1329 1.279 . S
C1326 C1324 1.348 . S
C1326 C1328 1.353 . S
C1326 H1384 0.929 . S
C1327 C1324 1.356 . S
C1327 C1329 1.358 . S
C1327 H1385 0.930 . S
C1328 N1325 1.314 . S
C1328 C1326 1.353 . S
C1328 H1386 0.930 . S
C1329 N1325 1.279 . S
C1329 C1327 1.358 . S
C1329 H1387 0.930 . S
C1330 C1333 1.348 . S
C1330 C1334 1.356 . S
C1330 O1381 1.325 . S
C1331 N1332 1.279 . S
C1331 C1334 1.358 . S
C1331 H1388 0.930 . S
N1332 C1331 1.279 . S
N1332 C1335 1.314 . S
C1333 C1330 1.348 . S
C1333 C1335 1.353 . S
C1333 H1389 0.929 . S
C1334 C1330 1.356 . S
C1334 C1331 1.358 . S
C1334 H1390 0.930 . S
C1335 N1332 1.314 . S
C1335 C1333 1.353 . S
C1335 H1391 0.930 . S
C1336 N1337 1.314 . S
C1336 C1341 1.353 . S
C1336 H1342 0.930 . S
N1337 Li1320 1.990 . S
N1337 C1336 1.314 . S
N1337 C1339 1.279 . S
C1338 C1339 1.358 . S
C1338 C1340 1.356 . S
C1338 H1392 0.930 . S
C1339 N1337 1.279 . S
C1339 C1338 1.358 . S
C1339 H1343 0.930 . S
C1340 C1338 1.356 . S
C1340 C1341 1.348 . S
C1341 C1336 1.353 . S
C1341 C1340 1.348 . S
C1341 H1393 0.929 . S
H1342 C1336 0.930 . S
H1343 C1339 0.930 . S
C1344 N1345 1.314 . S
C1344 C1346 1.353 . S
C1344 H1350 0.930 . S
N1345 Li1321 1.990 . S
N1345 C1344 1.314 . S
N1345 C1348 1.279 . S
C1346 C1344 1.353 . S
C1346 C1349 1.348 . S
C1346 H1394 0.929 . S
C1347 C1348 1.358 . S
C1347 C1349 1.356 . S
C1347 H1395 0.930 . S
C1348 N1345 1.279 . S
C1348 C1347 1.358 . S
C1348 H1351 0.930 . S
C1349 C1346 1.348 . S
C1349 C1347 1.356 . S
H1350 C1344 0.930 . S
H1351 C1348 0.930 . S
C1352 C1354 1.348 . S
C1352 C1355 1.356 . S
C1352 O1382 1.325 . S
N1353 C1356 1.314 . S
N1353 C1357 1.279 . S
C1354 C1352 1.348 . S
C1354 C1356 1.353 . S
C1354 H1396 0.929 . S
C1355 C1352 1.356 . S
C1355 C1357 1.358 . S
C1355 H1397 0.930 . S
C1356 N1353 1.314 . S
C1356 C1354 1.353 . S
C1356 H1398 0.930 . S
C1357 N1353 1.279 . S
C1357 C1355 1.358 . S
C1357 H1399 0.930 . S
C1358 C1359 1.348 . S
C1358 C1360 1.356 . S
C1358 O1383 1.325 . S
C1359 C1358 1.348 . S
C1359 C1361 1.353 . S
C1359 H1400 0.929 . S
C1360 C1358 1.356 . S
C1360 C1362 1.358 . S
C1360 H1401 0.930 . S
C1361 C1359 1.353 . S
C1361 N1363 1.314 . S
C1361 H1402 0.930 . S
C1362 C1360 1.358 . S
C1362 N1363 1.279 . S
C1362 H1403 0.930 . S
N1363 C1361 1.314 . S
N1363 C1362 1.279 . S
C1364 C1366 1.353 . S
C1364 N1367 1.314 . S
C1364 H1370 0.930 . S
C1365 N1367 1.279 . S
C1365 C1368 1.358 . S
C1365 H1371 0.930 . S
C1366 C1364 1.353 . S
C1366 C1369 1.348 . S
C1366 H1404 0.929 . S
N1367 Li1322 1.990 . S
N1367 C1364 1.314 . S
N1367 C1365 1.279 . S
C1368 C1365 1.358 . S
C1368 C1369 1.356 . S
C1368 H1405 0.930 . S
C1369 C1366 1.348 . S
C1369 C1368 1.356 . S
H1370 C1364 0.930 . S
H1371 C1365 0.930 . S
C1372 N1373 1.314 . S
C1372 C1374 1.353 . S
C1372 H1378 0.930 . S
N1373 Li1323 1.990 . S
N1373 C1372 1.314 . S
N1373 C1376 1.279 . S
C1374 C1372 1.353 . S
C1374 C1377 1.348 . S
C1374 H1406 0.929 . S
C1375 C1376 1.358 . S
C1375 C1377 1.356 . S
C1375 H1407 0.930 . S
C1376 N1373 1.279 . S
C1376 C1375 1.358 . S
C1376 H1379 0.930 . S
C1377 C1374 1.348 . S
C1377 C1375 1.356 . S
H1378 C1372 0.930 . S
H1379 C1376 0.930 . S
O1380 Li1320 1.956 . S
O1380 Li1321 1.970 . S
O1380 Li1322 1.961 . S
O1380 C1324 1.325 . S
O1381 Li1320 1.970 . S
O1381 Li1321 1.956 . S
O1381 Li1323 1.961 . S
O1381 C1330 1.325 . S
O1382 Li1320 1.961 . S
O1382 Li1322 1.956 . S
O1382 Li1323 1.970 . S
O1382 C1352 1.325 . S
O1383 Li1321 1.961 . S
O1383 Li1322 1.970 . S
O1383 Li1323 1.956 . S
O1383 C1358 1.325 . S
H1384 C1326 0.929 . S
H1385 C1327 0.930 . S
H1386 C1328 0.930 . S
H1387 C1329 0.930 . S
H1388 C1331 0.930 . S
H1389 C1333 0.929 . S
H1390 C1334 0.930 . S
H1391 C1335 0.930 . S
H1392 C1338 0.930 . S
H1393 C1341 0.929 . S
H1394 C1346 0.929 . S
H1395 C1347 0.930 . S
H1396 C1354 0.929 . S
H1397 C1355 0.930 . S
H1398 C1356 0.930 . S
H1399 C1357 0.930 . S
H1400 C1359 0.929 . S
H1401 C1360 0.930 . S
H1402 C1361 0.930 . S
H1403 C1362 0.930 . S
H1404 C1366 0.929 . S
H1405 C1368 0.930 . S
H1406 C1374 0.929 . S
H1407 C1375 0.930 . S
C1408 C1409 1.369 . S
C1408 C1410 1.419 1_455 S
C1408 H1412 0.930 . S
C1409 C1408 1.369 . S
C1409 C1418 1.429 . S
C1410 C1408 1.419 1_655 S
C1410 C1411 1.363 . S
C1410 H1413 0.929 . S
C1411 C1410 1.363 . S
C1411 C1417 1.428 . S
H1412 C1408 0.930 . S
H1413 C1410 0.929 . S
S1414 N1415 1.625 . S
S1414 N1416 1.598 1_455 S
N1415 S1414 1.625 . S
N1415 C1418 1.350 . S
N1416 S1414 1.598 1_655 S
N1416 C1417 1.351 . S
C1417 C1411 1.428 . S
C1417 N1416 1.351 . S
C1417 C1418 1.434 1_655 S
C1418 C1409 1.429 . S
C1418 N1415 1.350 . S
C1418 C1417 1.434 1_455 S
C1419 C1420 1.369 . S
C1419 C1421 1.419 1_655 S
C1419 H1423 0.930 . S
C1420 C1419 1.369 . S
C1420 C1429 1.429 . S
C1421 C1419 1.419 1_455 S
C1421 C1422 1.363 . S
C1421 H1424 0.929 . S
C1422 C1421 1.363 . S
C1422 C1428 1.428 . S
H1423 C1419 0.930 . S
H1424 C1421 0.929 . S
S1425 N1426 1.628 . S
S1425 N1427 1.596 1_655 S
N1426 S1425 1.628 . S
N1426 C1429 1.350 . S
N1427 S1425 1.596 1_455 S
N1427 C1428 1.351 . S
C1428 C1422 1.428 . S
C1428 N1427 1.351 . S
C1428 C1429 1.434 1_455 S
C1429 C1420 1.429 . S
C1429 N1426 1.350 . S
C1429 C1428 1.434 1_655 S
C1430 C1431 1.369 . S
C1430 C1432 1.419 1_655 S
C1430 H1434 0.930 . S
C1431 C1430 1.369 . S
C1431 C1440 1.429 . S
C1432 C1430 1.419 1_455 S
C1432 C1433 1.363 . S
C1432 H1435 0.929 . S
C1433 C1432 1.363 . S
C1433 C1439 1.428 . S
H1434 C1430 0.930 . S
H1435 C1432 0.929 . S
S1436 N1437 1.595 1_455 S
S1436 N1438 1.629 . S
N1437 S1436 1.595 1_655 S
N1437 C1440 1.350 . S
N1438 S1436 1.629 . S
N1438 C1439 1.351 . S
C1439 C1433 1.428 . S
C1439 N1438 1.351 . S
C1439 C1440 1.434 1_455 S
C1440 C1431 1.429 . S
C1440 N1437 1.350 . S
C1440 C1439 1.434 1_655 S
C1441 C1442 1.369 . S
C1441 C1443 1.419 1_455 S
C1441 H1445 0.930 . S
C1442 C1441 1.369 . S
C1442 C1451 1.429 . S
C1443 C1441 1.419 1_655 S
C1443 C1444 1.363 . S
C1443 H1446 0.929 . S
C1444 C1443 1.363 . S
C1444 C1450 1.428 . S
H1445 C1441 0.930 . S
H1446 C1443 0.929 . S
S1447 N1448 1.597 1_655 S
S1447 N1449 1.627 . S
N1448 S1447 1.597 1_455 S
N1448 C1451 1.350 . S
N1449 S1447 1.627 . S
N1449 C1450 1.351 . S
C1450 C1444 1.428 . S
C1450 N1449 1.351 . S
C1450 C1451 1.434 1_655 S
C1451 C1442 1.429 . S
C1451 N1448 1.350 . S
C1451 C1450 1.434 1_455 S
C1452 C1453 1.369 . S
C1452 C1454 1.419 . S
C1452 H1456 0.930 . S
C1453 C1452 1.369 . S
C1453 C1462 1.429 . S
C1454 C1452 1.419 . S
C1454 C1455 1.363 . S
C1454 H1457 0.929 . S
C1455 C1454 1.363 . S
C1455 C1461 1.428 . S
H1456 C1452 0.930 . S
H1457 C1454 0.929 . S
S1458 N1459 1.613 . S
S1458 N1460 1.610 . S
N1459 S1458 1.613 . S
N1459 C1462 1.350 . S
N1460 S1458 1.610 . S
N1460 C1461 1.351 . S
C1461 C1455 1.428 . S
C1461 N1460 1.351 . S
C1461 C1462 1.434 . S
C1462 C1453 1.429 . S
C1462 N1459 1.350 . S
C1462 C1461 1.434 . S
C1463 C1464 1.369 . S
C1463 C1465 1.419 . S
C1463 H1467 0.930 . S
C1464 C1463 1.369 . S
C1464 C1473 1.429 . S
C1465 C1463 1.419 . S
C1465 C1466 1.363 . S
C1465 H1468 0.929 . S
C1466 C1465 1.363 . S
C1466 C1472 1.428 . S
H1467 C1463 0.930 . S
H1468 C1465 0.929 . S
S1469 N1470 1.613 . S
S1469 N1471 1.610 . S
N1470 S1469 1.613 . S
N1470 C1473 1.350 . S
N1471 S1469 1.610 . S
N1471 C1472 1.351 . S
C1472 C1466 1.428 . S
C1472 N1471 1.351 . S
C1472 C1473 1.434 . S
C1473 C1464 1.429 . S
C1473 N1470 1.350 . S
C1473 C1472 1.434 . S
C1474 C1475 1.369 . S
C1474 C1476 1.419 . S
C1474 H1478 0.930 . S
C1475 C1474 1.369 . S
C1475 C1484 1.429 . S
C1476 C1474 1.419 . S
C1476 C1477 1.363 . S
C1476 H1479 0.929 . S
C1477 C1476 1.363 . S
C1477 C1483 1.428 . S
H1478 C1474 0.930 . S
H1479 C1476 0.929 . S
S1480 N1481 1.613 . S
S1480 N1482 1.610 . S
N1481 S1480 1.613 . S
N1481 C1484 1.350 . S
N1482 S1480 1.610 . S
N1482 C1483 1.351 . S
C1483 C1477 1.428 . S
C1483 N1482 1.351 . S
C1483 C1484 1.434 . S
C1484 C1475 1.429 . S
C1484 N1481 1.350 . S
C1484 C1483 1.434 . S
C1485 C1486 1.369 . S
C1485 C1487 1.419 . S
C1485 H1489 0.930 . S
C1486 C1485 1.369 . S
C1486 C1495 1.429 . S
C1487 C1485 1.419 . S
C1487 C1488 1.363 . S
C1487 H1490 0.929 . S
C1488 C1487 1.363 . S
C1488 C1494 1.428 . S
H1489 C1485 0.930 . S
H1490 C1487 0.929 . S
S1491 N1492 1.613 . S
S1491 N1493 1.610 . S
N1492 S1491 1.613 . S
N1492 C1495 1.350 . S
N1493 S1491 1.610 . S
N1493 C1494 1.351 . S
C1494 C1488 1.428 . S
C1494 N1493 1.351 . S
C1494 C1495 1.434 . S
C1495 C1486 1.429 . S
C1495 N1492 1.350 . S
C1495 C1494 1.434 . S
C1496 C1497 1.369 . S
C1496 C1498 1.419 . S
C1496 H1500 0.930 . S
C1497 C1496 1.369 . S
C1497 C1506 1.429 . S
C1498 C1496 1.419 . S
C1498 C1499 1.363 . S
C1498 H1501 0.929 . S
C1499 C1498 1.363 . S
C1499 C1505 1.428 . S
H1500 C1496 0.930 . S
H1501 C1498 0.929 . S
S1502 N1503 1.613 . S
S1502 N1504 1.610 . S
N1503 S1502 1.613 . S
N1503 C1506 1.350 . S
N1504 S1502 1.610 . S
N1504 C1505 1.351 . S
C1505 C1499 1.428 . S
C1505 N1504 1.351 . S
C1505 C1506 1.434 . S
C1506 C1497 1.429 . S
C1506 N1503 1.350 . S
C1506 C1505 1.434 . S
C1507 C1508 1.369 . S
C1507 C1509 1.419 . S
C1507 H1511 0.930 . S
C1508 C1507 1.369 . S
C1508 C1517 1.429 . S
C1509 C1507 1.419 . S
C1509 C1510 1.363 . S
C1509 H1512 0.929 . S
C1510 C1509 1.363 . S
C1510 C1516 1.428 . S
H1511 C1507 0.930 . S
H1512 C1509 0.929 . S
S1513 N1514 1.613 . S
S1513 N1515 1.610 . S
N1514 S1513 1.613 . S
N1514 C1517 1.350 . S
N1515 S1513 1.610 . S
N1515 C1516 1.351 . S
C1516 C1510 1.428 . S
C1516 N1515 1.351 . S
C1516 C1517 1.434 . S
C1517 C1508 1.429 . S
C1517 N1514 1.350 . S
C1517 C1516 1.434 . S
C1518 C1519 1.369 . S
C1518 C1520 1.419 . S
C1518 H1522 0.930 . S
C1519 C1518 1.369 . S
C1519 C1528 1.429 . S
C1520 C1518 1.419 . S
C1520 C1521 1.363 . S
C1520 H1523 0.929 . S
C1521 C1520 1.363 . S
C1521 C1527 1.428 . S
H1522 C1518 0.930 . S
H1523 C1520 0.929 . S
S1524 N1525 1.613 . S
S1524 N1526 1.610 . S
N1525 S1524 1.613 . S
N1525 C1528 1.350 . S
N1526 S1524 1.610 . S
N1526 C1527 1.351 . S
C1527 C1521 1.428 . S
C1527 N1526 1.351 . S
C1527 C1528 1.434 . S
C1528 C1519 1.429 . S
C1528 N1525 1.350 . S
C1528 C1527 1.434 . S
C1529 C1530 1.369 . S
C1529 C1531 1.419 . S
C1529 H1533 0.930 . S
C1530 C1529 1.369 . S
C1530 C1539 1.429 . S
C1531 C1529 1.419 . S
C1531 C1532 1.363 . S
C1531 H1534 0.929 . S
C1532 C1531 1.363 . S
C1532 C1538 1.428 . S
H1533 C1529 0.930 . S
H1534 C1531 0.929 . S
S1535 N1536 1.613 . S
S1535 N1537 1.610 . S
N1536 S1535 1.613 . S
N1536 C1539 1.350 . S
N1537 S1535 1.610 . S
N1537 C1538 1.351 . S
C1538 C1532 1.428 . S
C1538 N1537 1.351 . S
C1538 C1539 1.434 . S
C1539 C1530 1.429 . S
C1539 N1536 1.350 . S
C1539 C1538 1.434 . S
C1540 C1541 1.369 . S
C1540 C1542 1.419 . S
C1540 H1544 0.930 . S
C1541 C1540 1.369 . S
C1541 C1550 1.429 . S
C1542 C1540 1.419 . S
C1542 C1543 1.363 . S
C1542 H1545 0.929 . S
C1543 C1542 1.363 . S
C1543 C1549 1.428 . S
H1544 C1540 0.930 . S
H1545 C1542 0.929 . S
S1546 N1547 1.613 . S
S1546 N1548 1.610 . S
N1547 S1546 1.613 . S
N1547 C1550 1.350 . S
N1548 S1546 1.610 . S
N1548 C1549 1.351 . S
C1549 C1543 1.428 . S
C1549 N1548 1.351 . S
C1549 C1550 1.434 . S
C1550 C1541 1.429 . S
C1550 N1547 1.350 . S
C1550 C1549 1.434 . S
C1551 C1552 1.369 . S
C1551 C1553 1.419 . S
C1551 H1555 0.930 . S
C1552 C1551 1.369 . S
C1552 C1561 1.429 . S
C1553 C1551 1.419 . S
C1553 C1554 1.363 . S
C1553 H1556 0.929 . S
C1554 C1553 1.363 . S
C1554 C1560 1.428 . S
H1555 C1551 0.930 . S
H1556 C1553 0.929 . S
S1557 N1558 1.613 . S
S1557 N1559 1.610 . S
N1558 S1557 1.613 . S
N1558 C1561 1.350 . S
N1559 S1557 1.610 . S
N1559 C1560 1.351 . S
C1560 C1554 1.428 . S
C1560 N1559 1.351 . S
C1560 C1561 1.434 . S
C1561 C1552 1.429 . S
C1561 N1558 1.350 . S
C1561 C1560 1.434 . S
C1562 C1563 1.369 . S
C1562 C1564 1.419 . S
C1562 H1566 0.930 . S
C1563 C1562 1.369 . S
C1563 C1572 1.429 . S
C1564 C1562 1.419 . S
C1564 C1565 1.363 . S
C1564 H1567 0.929 . S
C1565 C1564 1.363 . S
C1565 C1571 1.428 . S
H1566 C1562 0.930 . S
H1567 C1564 0.929 . S
S1568 N1569 1.613 . S
S1568 N1570 1.610 . S
N1569 S1568 1.613 . S
N1569 C1572 1.350 . S
N1570 S1568 1.610 . S
N1570 C1571 1.351 . S
C1571 C1565 1.428 . S
C1571 N1570 1.351 . S
C1571 C1572 1.434 . S
C1572 C1563 1.429 . S
C1572 N1569 1.350 . S
C1572 C1571 1.434 . S
C1573 C1574 1.369 . S
C1573 C1575 1.419 . S
C1573 H1577 0.930 . S
C1574 C1573 1.369 . S
C1574 C1583 1.429 . S
C1575 C1573 1.419 . S
C1575 C1576 1.363 . S
C1575 H1578 0.929 . S
C1576 C1575 1.363 . S
C1576 C1582 1.428 . S
H1577 C1573 0.930 . S
H1578 C1575 0.929 . S
S1579 N1580 1.613 . S
S1579 N1581 1.610 . S
N1580 S1579 1.613 . S
N1580 C1583 1.350 . S
N1581 S1579 1.610 . S
N1581 C1582 1.351 . S
C1582 C1576 1.428 . S
C1582 N1581 1.351 . S
C1582 C1583 1.434 . S
C1583 C1574 1.429 . S
C1583 N1580 1.350 . S
C1583 C1582 1.434 . S
C1584 C1585 1.369 . S
C1584 C1586 1.419 . S
C1584 H1588 0.930 . S
C1585 C1584 1.369 . S
C1585 C1594 1.429 1_556 S
C1586 C1584 1.419 . S
C1586 C1587 1.363 1_556 S
C1586 H1589 0.929 . S
C1587 C1586 1.363 1_554 S
C1587 C1593 1.428 . S
H1588 C1584 0.930 . S
H1589 C1586 0.929 . S
S1590 N1591 1.613 . S
S1590 N1592 1.610 . S
N1591 S1590 1.613 . S
N1591 C1594 1.350 . S
N1592 S1590 1.610 . S
N1592 C1593 1.351 . S
C1593 C1587 1.428 . S
C1593 N1592 1.351 . S
C1593 C1594 1.434 . S
C1594 C1585 1.429 1_554 S
C1594 N1591 1.350 . S
C1594 C1593 1.434 . S
C1595 C1596 1.369 . S
C1595 C1597 1.419 . S
C1595 H1599 0.930 . S
C1596 C1595 1.369 . S
C1596 C1605 1.429 . S
C1597 C1595 1.419 . S
C1597 C1598 1.363 . S
C1597 H1600 0.929 . S
C1598 C1597 1.363 . S
C1598 C1604 1.428 . S
H1599 C1595 0.930 . S
H1600 C1597 0.929 . S
S1601 N1602 1.613 . S
S1601 N1603 1.610 . S
N1602 S1601 1.613 . S
N1602 C1605 1.350 . S
N1603 S1601 1.610 . S
N1603 C1604 1.351 . S
C1604 C1598 1.428 . S
C1604 N1603 1.351 . S
C1604 C1605 1.434 . S
C1605 C1596 1.429 . S
C1605 N1602 1.350 . S
C1605 C1604 1.434 . S
C1606 C1607 1.369 1_556 S
C1606 C1608 1.419 . S
C1606 H1610 0.930 . S
C1607 C1606 1.369 1_554 S
C1607 C1616 1.429 . S
C1608 C1606 1.419 . S
C1608 C1609 1.363 . S
C1608 H1611 0.929 . S
C1609 C1608 1.363 . S
C1609 C1615 1.428 1_556 S
H1610 C1606 0.930 . S
H1611 C1608 0.929 . S
S1612 N1613 1.613 . S
S1612 N1614 1.610 . S
N1613 S1612 1.613 . S
N1613 C1616 1.350 . S
N1614 S1612 1.610 . S
N1614 C1615 1.351 . S
C1615 C1609 1.428 1_554 S
C1615 N1614 1.351 . S
C1615 C1616 1.434 . S
C1616 C1607 1.429 . S
C1616 N1613 1.350 . S
C1616 C1615 1.434 . S
C1617 C1618 1.369 . S
C1617 C1619 1.419 . S
C1617 H1621 0.930 . S
C1618 C1617 1.369 . S
C1618 C1627 1.429 . S
C1619 C1617 1.419 . S
C1619 C1620 1.363 . S
C1619 H1622 0.929 . S
C1620 C1619 1.363 . S
C1620 C1626 1.428 . S
H1621 C1617 0.930 . S
H1622 C1619 0.929 . S
S1623 N1624 1.613 . S
S1623 N1625 1.610 . S
N1624 S1623 1.613 . S
N1624 C1627 1.350 . S
N1625 S1623 1.610 . S
N1625 C1626 1.351 . S
C1626 C1620 1.428 . S
C1626 N1625 1.351 . S
C1626 C1627 1.434 . S
C1627 C1618 1.429 . S
C1627 N1624 1.350 . S
C1627 C1626 1.434 . S
C1628 C1629 1.369 . S
C1628 C1630 1.419 . S
C1628 H1632 0.930 . S
C1629 C1628 1.369 . S
C1629 C1638 1.429 1_554 S
C1630 C1628 1.419 . S
C1630 C1631 1.363 1_554 S
C1630 H1633 0.929 . S
C1631 C1630 1.363 1_556 S
C1631 C1637 1.428 . S
H1632 C1628 0.930 . S
H1633 C1630 0.929 . S
S1634 N1635 1.613 . S
S1634 N1636 1.610 . S
N1635 S1634 1.613 . S
N1635 C1638 1.350 . S
N1636 S1634 1.610 . S
N1636 C1637 1.351 . S
C1637 C1631 1.428 . S
C1637 N1636 1.351 . S
C1637 C1638 1.434 . S
C1638 C1629 1.429 1_556 S
C1638 N1635 1.350 . S
C1638 C1637 1.434 . S
C1639 C1640 1.369 . S
C1639 C1641 1.419 . S
C1639 H1643 0.930 . S
C1640 C1639 1.369 . S
C1640 C1649 1.429 . S
C1641 C1639 1.419 . S
C1641 C1642 1.363 . S
C1641 H1644 0.929 . S
C1642 C1641 1.363 . S
C1642 C1648 1.428 . S
H1643 C1639 0.930 . S
H1644 C1641 0.929 . S
S1645 N1646 1.613 . S
S1645 N1647 1.610 . S
N1646 S1645 1.613 . S
N1646 C1649 1.350 . S
N1647 S1645 1.610 . S
N1647 C1648 1.351 . S
C1648 C1642 1.428 . S
C1648 N1647 1.351 . S
C1648 C1649 1.434 . S
C1649 C1640 1.429 . S
C1649 N1646 1.350 . S
C1649 C1648 1.434 . S
C1650 C1651 1.369 1_556 S
C1650 C1652 1.419 . S
C1650 H1654 0.930 . S
C1651 C1650 1.369 1_554 S
C1651 C1660 1.429 . S
C1652 C1650 1.419 . S
C1652 C1653 1.363 . S
C1652 H1655 0.929 . S
C1653 C1652 1.363 . S
C1653 C1659 1.428 1_556 S
H1654 C1650 0.930 . S
H1655 C1652 0.929 . S
S1656 N1657 1.613 . S
S1656 N1658 1.610 . S
N1657 S1656 1.613 . S
N1657 C1660 1.350 . S
N1658 S1656 1.610 . S
N1658 C1659 1.351 . S
C1659 C1653 1.428 1_554 S
C1659 N1658 1.351 . S
C1659 C1660 1.434 . S
C1660 C1651 1.429 . S
C1660 N1657 1.350 . S
C1660 C1659 1.434 . S
C1661 C1662 1.369 . S
C1661 C1663 1.419 . S
C1661 H1665 0.930 . S
C1662 C1661 1.369 . S
C1662 C1671 1.429 . S
C1663 C1661 1.419 . S
C1663 C1664 1.363 . S
C1663 H1666 0.929 . S
C1664 C1663 1.363 . S
C1664 C1670 1.428 . S
H1665 C1661 0.930 . S
H1666 C1663 0.929 . S
S1667 N1668 1.613 . S
S1667 N1669 1.610 . S
N1668 S1667 1.613 . S
N1668 C1671 1.350 . S
N1669 S1667 1.610 . S
N1669 C1670 1.351 . S
C1670 C1664 1.428 . S
C1670 N1669 1.351 . S
C1670 C1671 1.434 . S
C1671 C1662 1.429 . S
C1671 N1668 1.350 . S
C1671 C1670 1.434 . S
C1672 C1673 1.369 1_554 S
C1672 C1674 1.419 . S
C1672 H1676 0.930 . S
C1673 C1672 1.369 1_556 S
C1673 C1682 1.429 . S
C1674 C1672 1.419 . S
C1674 C1675 1.363 . S
C1674 H1677 0.929 . S
C1675 C1674 1.363 . S
C1675 C1681 1.428 1_554 S
H1676 C1672 0.930 . S
H1677 C1674 0.929 . S
S1678 N1679 1.613 . S
S1678 N1680 1.610 . S
N1679 S1678 1.613 . S
N1679 C1682 1.350 . S
N1680 S1678 1.610 . S
N1680 C1681 1.351 . S
C1681 C1675 1.428 1_556 S
C1681 N1680 1.351 . S
C1681 C1682 1.434 . S
C1682 C1673 1.429 . S
C1682 N1679 1.350 . S
C1682 C1681 1.434 . S
C1683 C1684 1.369 . S
C1683 C1685 1.419 . S
C1683 H1687 0.930 . S
C1684 C1683 1.369 . S
C1684 C1693 1.429 . S
C1685 C1683 1.419 . S
C1685 C1686 1.363 . S
C1685 H1688 0.929 . S
C1686 C1685 1.363 . S
C1686 C1692 1.428 . S
H1687 C1683 0.930 . S
H1688 C1685 0.929 . S
S1689 N1690 1.613 . S
S1689 N1691 1.610 . S
N1690 S1689 1.613 . S
N1690 C1693 1.350 . S
N1691 S1689 1.610 . S
N1691 C1692 1.351 . S
C1692 C1686 1.428 . S
C1692 N1691 1.351 . S
C1692 C1693 1.434 . S
C1693 C1684 1.429 . S
C1693 N1690 1.350 . S
C1693 C1692 1.434 . S
C1694 C1695 1.369 1_556 S
C1694 C1696 1.419 . S
C1694 H1698 0.930 . S
C1695 C1694 1.369 1_554 S
C1695 C1704 1.429 . S
C1696 C1694 1.419 . S
C1696 C1697 1.363 . S
C1696 H1699 0.929 . S
C1697 C1696 1.363 . S
C1697 C1703 1.428 1_556 S
H1698 C1694 0.930 . S
H1699 C1696 0.929 . S
S1700 N1701 1.613 . S
S1700 N1702 1.610 . S
N1701 S1700 1.613 . S
N1701 C1704 1.350 . S
N1702 S1700 1.610 . S
N1702 C1703 1.351 . S
C1703 C1697 1.428 1_554 S
C1703 N1702 1.351 . S
C1703 C1704 1.434 . S
C1704 C1695 1.429 . S
C1704 N1701 1.350 . S
C1704 C1703 1.434 . S
C1705 C1706 1.369 . S
C1705 C1707 1.419 . S
C1705 H1709 0.930 . S
C1706 C1705 1.369 . S
C1706 C1715 1.429 . S
C1707 C1705 1.419 . S
C1707 C1708 1.363 . S
C1707 H1710 0.929 . S
C1708 C1707 1.363 . S
C1708 C1714 1.428 . S
H1709 C1705 0.930 . S
H1710 C1707 0.929 . S
S1711 N1712 1.613 . S
S1711 N1713 1.610 . S
N1712 S1711 1.613 . S
N1712 C1715 1.350 . S
N1713 S1711 1.610 . S
N1713 C1714 1.351 . S
C1714 C1708 1.428 . S
C1714 N1713 1.351 . S
C1714 C1715 1.434 . S
C1715 C1706 1.429 . S
C1715 N1712 1.350 . S
C1715 C1714 1.434 . S
C1716 C1717 1.369 1_554 S
C1716 C1718 1.407 1_545 S
C1716 H1720 0.930 . S
C1717 C1716 1.369 1_556 S
C1717 C1726 1.405 1_545 S
C1718 C1716 1.407 1_565 S
C1718 C1719 1.375 . S
C1718 H1721 0.928 1_565 S
C1719 C1718 1.375 . S
C1719 C1725 1.428 1_554 S
H1720 C1716 0.930 . S
H1721 C1718 0.928 1_545 S
S1722 N1723 1.613 . S
S1722 N1724 1.610 . S
N1723 S1722 1.613 . S
N1723 C1726 1.354 . S
N1724 S1722 1.610 . S
N1724 C1725 1.351 . S
C1725 C1719 1.428 1_556 S
C1725 N1724 1.351 . S
C1725 C1726 1.457 . S
C1726 C1717 1.405 1_565 S
C1726 N1723 1.354 . S
C1726 C1725 1.457 . S
C1727 C1728 1.369 . S
C1727 C1729 1.419 1_565 S
C1727 H1731 0.930 . S
C1728 C1727 1.369 . S
C1728 C1737 1.455 . S
C1729 C1727 1.419 1_545 S
C1729 C1730 1.363 . S
C1729 H1732 0.929 . S
C1730 C1729 1.363 . S
C1730 C1736 1.428 . S
H1731 C1727 0.930 . S
H1732 C1729 0.929 . S
S1733 N1734 1.613 . S
S1733 N1735 1.610 . S
N1734 S1733 1.613 . S
N1734 C1737 1.347 1_545 S
N1735 S1733 1.610 . S
N1735 C1736 1.351 . S
C1736 C1730 1.428 . S
C1736 N1735 1.351 . S
C1736 C1737 1.407 1_545 S
C1737 C1728 1.455 . S
C1737 N1734 1.347 1_565 S
C1737 C1736 1.407 1_565 S
C1738 C1739 1.369 1_556 S
C1738 C1740 1.419 1_565 S
C1738 H1742 0.930 . S
C1739 C1738 1.369 1_554 S
C1739 C1748 1.429 . S
C1740 C1738 1.419 1_545 S
C1740 C1741 1.363 . S
C1740 H1743 0.929 . S
C1741 C1740 1.363 . S
C1741 C1747 1.428 1_556 S
H1742 C1738 0.930 . S
H1743 C1740 0.929 . S
S1744 N1745 1.613 1_545 S
S1744 N1746 1.610 . S
N1745 S1744 1.613 1_565 S
N1745 C1748 1.350 . S
N1746 S1744 1.610 . S
N1746 C1747 1.351 . S
C1747 C1741 1.428 1_554 S
C1747 N1746 1.351 . S
C1747 C1748 1.434 1_545 S
C1748 C1739 1.429 . S
C1748 N1745 1.350 . S
C1748 C1747 1.434 1_565 S
C1749 C1750 1.369 . S
C1749 C1751 1.419 1_545 S
C1749 H1753 0.930 . S
C1750 C1749 1.369 . S
C1750 C1759 1.429 . S
C1751 C1749 1.419 1_565 S
C1751 C1752 1.363 . S
C1751 H1754 0.929 . S
C1752 C1751 1.363 . S
C1752 C1758 1.428 . S
H1753 C1749 0.930 . S
H1754 C1751 0.929 . S
S1755 N1756 1.613 . S
S1755 N1757 1.610 1_545 S
N1756 S1755 1.613 . S
N1756 C1759 1.350 . S
N1757 S1755 1.610 1_565 S
N1757 C1758 1.351 . S
C1758 C1752 1.428 . S
C1758 N1757 1.351 . S
C1758 C1759 1.434 1_565 S
C1759 C1750 1.429 . S
C1759 N1756 1.350 . S
C1759 C1758 1.434 1_545 S
C1409 C57 1.537 . S
C1411 C557 1.536 . S
C1420 C145 1.537 . S
C1422 C645 1.537 . S
C1431 C401 1.537 . S
C1433 C205 1.536 . S
C1442 C497 1.535 . S
C1444 C293 1.535 . S
C1453 C1261 1.536 . S
C1455 C761 1.536 . S
C1464 C1340 1.535 . S
C1466 C841 1.535 . S
C1475 C909 1.535 . S
C1477 C1105 1.535 . S
C1486 C988 1.537 . S
C1488 C1193 1.537 . S
C1497 C20 1.483 . S
C1499 C489 1.481 . S
C1508 C108 1.483 . S
C1510 C409 1.481 . S
C1519 C225 1.484 . S
C1521 C636 1.482 . S
C1530 C548 1.483 . S
C1532 C313 1.484 . S
C1541 C1201 1.481 . S
C1543 C724 1.483 . S
C1552 C1113 1.480 . S
C1554 C821 1.482 . S
C1563 C929 1.483 . S
C1565 C1349 1.481 . S
C1574 C1252 1.483 . S
C1576 C1025 1.484 . S
C1585 C1076 1.278 . S
C1587 C29 1.272 . S
C1596 C117 1.276 . S
C1598 C1164 1.273 . S
C1607 C1289 1.278 . S
C1609 C233 1.272 . S
C1618 C1369 1.272 . S
C1620 C321 1.277 . S
C1629 C733 1.274 . S
C1631 C372 1.275 . S
C1640 C812 1.272 . S
C1642 C469 1.277 . S
C1651 C585 1.273 . S
C1653 C937 1.276 . S
C1662 C673 1.277 . S
C1664 C1017 1.273 . S
C1673 C196 1.486 . S
C1675 C49 1.485 . S
C1684 C137 1.484 . S
C1686 C284 1.485 . S
C1695 C577 1.487 . S
C1697 C381 1.486 . S
C1706 C460 1.486 . S
C1708 C665 1.487 . S
C1717 C900 1.485 . S
C1719 C753 1.485 . S
C1728 C997 1.486 . S
C1730 C849 1.486 . S
C1739 C1281 1.488 . S
C1741 C1085 1.487 . S
C1750 C1377 1.484 . S
C1752 C1173 1.485 . S
