# Generated by pormake.
# Topology nov, (5)-cn, num edge types: 1
# Building blocks:
#     Node 0, Type 0, BuildingBlock: BEQFEK_clean_sbu_0, # of connection points: 5
#     Node 1, Type 0, BuildingBlock: BEQFEK_clean_sbu_0, # of connection points: 5
#     Node 2, Type 0, BuildingBlock: BEQFEK_clean_sbu_0, # of connection points: 5
#     Node 3, Type 0, BuildingBlock: BEQFEK_clean_sbu_0, # of connection points: 5
#     Node 4, Type 0, BuildingBlock: BEQFEK_clean_sbu_0, # of connection points: 5
#     Node 5, Type 0, BuildingBlock: BEQFEK_clean_sbu_0, # of connection points: 5
#     Node 6, Type 0, BuildingBlock: BEQFEK_clean_sbu_0, # of connection points: 5
#     Node 7, Type 0, BuildingBlock: BEQFEK_clean_sbu_0, # of connection points: 5
#     Edge 8, Type (0, 0), BuildingBlock: MIFKUJ_clean_linker_0, # of connection points: 2
#     Edge 9, Type (0, 0), BuildingBlock: MIFKUJ_clean_linker_0, # of connection points: 2
#     Edge 10, Type (0, 0), BuildingBlock: MIFKUJ_clean_linker_0, # of connection points: 2
#     Edge 11, Type (0, 0), BuildingBlock: MIFKUJ_clean_linker_0, # of connection points: 2
#     Edge 12, Type (0, 0), BuildingBlock: MIFKUJ_clean_linker_0, # of connection points: 2
#     Edge 13, Type (0, 0), BuildingBlock: MIFKUJ_clean_linker_0, # of connection points: 2
#     Edge 14, Type (0, 0), BuildingBlock: MIFKUJ_clean_linker_0, # of connection points: 2
#     Edge 15, Type (0, 0), BuildingBlock: MIFKUJ_clean_linker_0, # of connection points: 2
#     Edge 16, Type (0, 0), BuildingBlock: MIFKUJ_clean_linker_0, # of connection points: 2
#     Edge 17, Type (0, 0), BuildingBlock: MIFKUJ_clean_linker_0, # of connection points: 2
#     Edge 18, Type (0, 0), BuildingBlock: MIFKUJ_clean_linker_0, # of connection points: 2
#     Edge 19, Type (0, 0), BuildingBlock: MIFKUJ_clean_linker_0, # of connection points: 2
#     Edge 20, Type (0, 0), BuildingBlock: MIFKUJ_clean_linker_0, # of connection points: 2
#     Edge 21, Type (0, 0), BuildingBlock: MIFKUJ_clean_linker_0, # of connection points: 2
#     Edge 22, Type (0, 0), BuildingBlock: MIFKUJ_clean_linker_0, # of connection points: 2
#     Edge 23, Type (0, 0), BuildingBlock: MIFKUJ_clean_linker_0, # of connection points: 2
#     Edge 24, Type (0, 0), BuildingBlock: MIFKUJ_clean_linker_0, # of connection points: 2
#     Edge 25, Type (0, 0), BuildingBlock: MIFKUJ_clean_linker_0, # of connection points: 2
#     Edge 26, Type (0, 0), BuildingBlock: MIFKUJ_clean_linker_0, # of connection points: 2
#     Edge 27, Type (0, 0), BuildingBlock: MIFKUJ_clean_linker_0, # of connection points: 2
# Relax obj value: 0.072
# Max RMSD: 0.100
# Mean RMSD: 0.100
data_MOF--net-nov--node1-BEQFEK_clean_sbu_0--edge1-MIFKUJ_clean_linker_0
_symmetry_space_group_name_H-M    P1
_symmetry_Int_Tables_number       1
_symmetry_cell_setting            triclinic
loop_
_symmetry_equiv_pos_as_xyz
'x, y, z'
_cell_length_a     47.526733
_cell_length_b     52.420195
_cell_length_c     33.019841
_cell_angle_alpha  89.978317
_cell_angle_beta   89.990658
_cell_angle_gamma 90.035708
loop_
_atom_site_label
_atom_site_type_symbol
_atom_site_fract_x
_atom_site_fract_y
_atom_site_fract_z
_atom_type_partial_charge
Co0 Co 0.96036 0.13954 0.19013 0.0
Co1 Co 0.02688 0.14073 0.18645 0.0
C2 C 0.99374 0.09745 0.15123 0.0
O3 O 0.97047 0.10758 0.16155 0.0
O4 O 0.01717 0.108 0.15975 0.0
C5 C 0.90649 0.11944 0.21552 0.0
O6 O 0.92139 0.09931 0.22554 0.0
C7 C 0.08679 0.12802 0.20427 0.0
C8 C 0.10805 0.1604 0.17422 0.0
C9 C 0.11313 0.13808 0.1953 0.0
N10 N 0.06705 0.14379 0.18909 0.0
N11 N 0.08001 0.16314 0.17139 0.0
C12 C 0.08052 0.10302 0.22411 0.0
H13 H 0.05776 0.09845 0.22186 0.0
H14 H 0.08658 0.10392 0.25651 0.0
H15 H 0.09319 0.08771 0.20973 0.0
C16 C 0.97305 0.15016 0.27679 0.0
N17 N 0.98141 0.14369 0.23916 0.0
N18 N 0.00911 0.14461 0.23752 0.0
C19 C 0.01917 0.15224 0.27371 0.0
C20 C 0.99666 0.15585 0.29996 0.0
C21 C 0.94289 0.15186 0.28963 0.0
H22 H 0.93157 0.16548 0.26973 0.0
H23 H 0.93296 0.13288 0.28625 0.0
H24 H 0.94065 0.15775 0.32169 0.0
O25 O 0.9678 0.16879 0.15286 0.0
O26 O 0.01452 0.16888 0.15144 0.0
H27 H 0.05706 0.17077 0.25406 0.0
H28 H 0.05136 0.17242 0.30783 0.0
C29 C 0.0491 0.16013 0.28071 0.0
H30 H 0.06222 0.14286 0.28483 0.0
H31 H 0.06971 0.17806 0.15666 0.0
O32 O 0.9189 0.1388 0.2006 0.0
C33 C 0.99102 0.17818 0.14052 0.0
Co34 Co 0.55606 0.85658 0.69128 0.0
Co35 Co 0.48953 0.85791 0.69003 0.0
C36 C 0.52261 0.89928 0.65169 0.0
O37 O 0.5457 0.88875 0.66216 0.0
O38 O 0.49897 0.88947 0.66098 0.0
C39 C 0.60931 0.87256 0.72574 0.0
O40 O 0.5936 0.888 0.74742 0.0
C41 C 0.42857 0.87088 0.70165 0.0
C42 C 0.41042 0.8321 0.69879 0.0
C43 C 0.40327 0.85752 0.70353 0.0
N44 N 0.44963 0.85395 0.69635 0.0
N45 N 0.4385 0.83087 0.69468 0.0
C46 C 0.43255 0.89918 0.70327 0.0
H47 H 0.45247 0.90482 0.6884 0.0
H48 H 0.4335 0.90534 0.73538 0.0
H49 H 0.4146 0.90906 0.68855 0.0
C50 C 0.54355 0.84422 0.77793 0.0
N51 N 0.53576 0.85247 0.74085 0.0
N52 N 0.50828 0.85567 0.74049 0.0
C53 C 0.49795 0.85087 0.77764 0.0
C54 C 0.51982 0.84303 0.80258 0.0
C55 C 0.572 0.83349 0.78741 0.0
H56 H 0.58272 0.82724 0.7593 0.0
H57 H 0.58493 0.84837 0.80239 0.0
H58 H 0.57028 0.817 0.80837 0.0
O59 O 0.54769 0.82753 0.65496 0.0
O60 O 0.50097 0.82871 0.65557 0.0
H61 H 0.45583 0.83646 0.77715 0.0
H62 H 0.4647 0.85449 0.82203 0.0
C63 C 0.46753 0.85326 0.78873 0.0
H64 H 0.45866 0.87066 0.77467 0.0
H65 H 0.45013 0.81419 0.69062 0.0
O66 O 0.59763 0.85757 0.70053 0.0
C67 C 0.52395 0.81868 0.64383 0.0
Co68 Co 0.9639 0.85675 0.81153 0.0
Co69 Co 0.03018 0.85949 0.81247 0.0
C70 C 0.99751 0.90064 0.84966 0.0
O71 O 0.97472 0.88905 0.84055 0.0
O72 O 0.02139 0.89173 0.8395 0.0
C73 C 0.91067 0.87184 0.77566 0.0
O74 O 0.92644 0.88587 0.75172 0.0
C75 C 0.09079 0.8717 0.799 0.0
C76 C 0.10809 0.83261 0.796 0.0
C77 C 0.11549 0.85806 0.79251 0.0
N78 N 0.0698 0.85492 0.80558 0.0
N79 N 0.08045 0.83166 0.80432 0.0
C80 C 0.08663 0.89989 0.79548 0.0
H81 H 0.06435 0.9043 0.78823 0.0
H82 H 0.10065 0.90796 0.77183 0.0
H83 H 0.09195 0.90896 0.82485 0.0
C84 C 0.97638 0.84287 0.72561 0.0
N85 N 0.98396 0.85237 0.76201 0.0
N86 N 0.01131 0.85632 0.76205 0.0
C87 C 0.02167 0.85097 0.72509 0.0
C88 C 1.00007 0.84171 0.7009 0.0
C89 C 0.94838 0.83086 0.71723 0.0
H90 H 0.93764 0.82574 0.74592 0.0
H91 H 0.93508 0.84454 0.70018 0.0
H92 H 0.95085 0.81344 0.69846 0.0
O93 O 0.97226 0.8275 0.84731 0.0
O94 O 0.01879 0.83122 0.84903 0.0
H95 H 0.06433 0.83791 0.72478 0.0
H96 H 0.05424 0.85527 0.67991 0.0
C97 C 0.05187 0.85426 0.71331 0.0
H98 H 0.06026 0.87205 0.72676 0.0
H99 H 0.06861 0.81504 0.80794 0.0
O100 O 0.92229 0.85804 0.80258 0.0
C101 C 0.9962 0.82012 0.86003 0.0
Co102 Co 0.55177 0.13827 0.30835 0.0
Co103 Co 0.48541 0.13898 0.3154 0.0
C104 C 0.52016 0.09619 0.34958 0.0
O105 O 0.5431 0.10634 0.33783 0.0
O106 O 0.4965 0.10661 0.34218 0.0
C107 C 0.60593 0.11919 0.28182 0.0
O108 O 0.59159 0.09855 0.27263 0.0
C109 C 0.42596 0.12498 0.29763 0.0
C110 C 0.40357 0.15545 0.33078 0.0
C111 C 0.39925 0.13391 0.30736 0.0
N112 N 0.44512 0.14066 0.31451 0.0
N113 N 0.43151 0.15879 0.33424 0.0
C114 C 0.4332 0.10103 0.27537 0.0
H115 H 0.45578 0.09627 0.27946 0.0
H116 H 0.42897 0.1036 0.24261 0.0
H117 H 0.41981 0.08509 0.28627 0.0
C118 C 0.53687 0.14786 0.22199 0.0
N119 N 0.5295 0.14177 0.26022 0.0
N120 N 0.50188 0.14295 0.26346 0.0
C121 C 0.49094 0.15071 0.22786 0.0
C122 C 0.5127 0.15383 0.20019 0.0
C123 C 0.56664 0.14873 0.20719 0.0
H124 H 0.57656 0.12991 0.21232 0.0
H125 H 0.56795 0.15302 0.17438 0.0
H126 H 0.57859 0.16321 0.22465 0.0
O127 O 0.54447 0.16758 0.34566 0.0
O128 O 0.49775 0.16772 0.34902 0.0
H129 H 0.45337 0.16823 0.25112 0.0
H130 H 0.45924 0.17382 0.19812 0.0
C131 C 0.46115 0.15951 0.22272 0.0
H132 H 0.44769 0.14294 0.21507 0.0
H133 H 0.4413 0.1734 0.35042 0.0
O134 O 0.59306 0.13838 0.29643 0.0
C135 C 0.5215 0.17708 0.35868 0.0
Co136 Co 0.46183 0.64138 0.18959 0.0
Co137 Co 0.52809 0.63813 0.1874 0.0
C138 C 0.49351 0.59797 0.14884 0.0
O139 O 0.47096 0.60947 0.15913 0.0
O140 O 0.51762 0.60663 0.15861 0.0
C141 C 0.40835 0.62155 0.21431 0.0
O142 O 0.42317 0.60078 0.22068 0.0
C143 C 0.58915 0.62491 0.1977 0.0
C144 C 0.60718 0.66369 0.19338 0.0
C145 C 0.61446 0.63832 0.19835 0.0
N146 N 0.56801 0.64178 0.19266 0.0
N147 N 0.57907 0.66485 0.19015 0.0
C148 C 0.58517 0.59665 0.20036 0.0
H149 H 0.56499 0.59091 0.18627 0.0
H150 H 0.58464 0.59091 0.23269 0.0
H151 H 0.60289 0.58657 0.18544 0.0
C152 C 0.47487 0.65272 0.27573 0.0
N153 N 0.48253 0.64425 0.23878 0.0
N154 N 0.50996 0.64087 0.23819 0.0
C155 C 0.52048 0.64612 0.27508 0.0
C156 C 0.49875 0.65432 0.30008 0.0
C157 C 0.44614 0.66289 0.28505 0.0
H158 H 0.4369 0.67177 0.25764 0.0
H159 H 0.43237 0.64685 0.29449 0.0
H160 H 0.44672 0.67724 0.30969 0.0
O161 O 0.47045 0.67079 0.15421 0.0
O162 O 0.51703 0.66766 0.15346 0.0
H163 H 0.5624 0.66096 0.27284 0.0
H164 H 0.5542 0.64388 0.31893 0.0
C165 C 0.55104 0.64432 0.28563 0.0
H166 H 0.56004 0.62672 0.27234 0.0
H167 H 0.56737 0.68149 0.18617 0.0
O168 O 0.4207 0.64137 0.201 0.0
C169 C 0.49445 0.67877 0.14264 0.0
Co170 Co 0.05258 0.3595 0.68898 0.0
Co171 Co 0.98617 0.36241 0.68567 0.0
C172 C 0.02004 0.4046 0.65315 0.0
O173 O 0.04266 0.39267 0.66193 0.0
O174 O 0.996 0.39542 0.66189 0.0
C175 C 0.1057 0.3739 0.72616 0.0
O176 O 0.09 0.38837 0.74948 0.0
C177 C 0.92479 0.37414 0.69686 0.0
C178 C 0.90745 0.33525 0.6901 0.0
C179 C 0.89974 0.36032 0.69724 0.0
N180 N 0.94622 0.3578 0.69021 0.0
N181 N 0.93556 0.33466 0.68612 0.0
C182 C 0.92823 0.40238 0.70123 0.0
H183 H 0.94789 0.4089 0.68654 0.0
H184 H 0.92942 0.40729 0.73386 0.0
H185 H 0.90998 0.41254 0.68782 0.0
C186 C 0.03858 0.34417 0.77389 0.0
N187 N 0.0315 0.35385 0.73739 0.0
N188 N 0.00407 0.35729 0.73635 0.0
C189 C 0.99305 0.35117 0.77262 0.0
C190 C 0.01442 0.34225 0.79754 0.0
C191 C 0.06681 0.33301 0.78345 0.0
H192 H 0.07803 0.32778 0.75522 0.0
H193 H 0.07949 0.34727 0.80027 0.0
H194 H 0.06464 0.31579 0.80278 0.0
O195 O 0.0447 0.33144 0.65065 0.0
O196 O 0.99826 0.33559 0.64696 0.0
H197 H 0.95074 0.33737 0.76969 0.0
H198 H 0.95921 0.35376 0.81626 0.0
C199 C 0.96252 0.3536 0.78299 0.0
H200 H 0.95413 0.37157 0.77019 0.0
H201 H 0.94757 0.31835 0.68068 0.0
O202 O 0.09404 0.3601 0.69927 0.0
C203 C 0.02102 0.32479 0.63604 0.0
Co204 Co 0.46028 0.35688 0.81027 0.0
Co205 Co 0.52664 0.35806 0.81346 0.0
C206 C 0.49419 0.40044 0.84813 0.0
O207 O 0.47122 0.38939 0.83836 0.0
O208 O 0.51797 0.39073 0.83938 0.0
C209 C 0.40723 0.3726 0.77396 0.0
O210 O 0.42303 0.38686 0.75043 0.0
C211 C 0.58749 0.36964 0.80117 0.0
C212 C 0.60462 0.33045 0.80023 0.0
C213 C 0.61218 0.35581 0.79579 0.0
N214 N 0.56634 0.35306 0.80801 0.0
N215 N 0.57689 0.32974 0.80803 0.0
C216 C 0.58349 0.39775 0.79613 0.0
H217 H 0.5613 0.4021 0.78828 0.0
H218 H 0.59773 0.4053 0.77231 0.0
H219 H 0.58863 0.4074 0.8251 0.0
C220 C 0.47356 0.34284 0.72453 0.0
N221 N 0.48096 0.35169 0.76143 0.0
N222 N 0.50849 0.35457 0.76249 0.0
C223 C 0.51922 0.34893 0.72585 0.0
C224 C 0.49759 0.34089 0.70072 0.0
C225 C 0.44508 0.33235 0.71453 0.0
H226 H 0.43367 0.32694 0.74253 0.0
H227 H 0.43279 0.34706 0.6981 0.0
H228 H 0.44687 0.31539 0.69458 0.0
O229 O 0.4676 0.328 0.84739 0.0
O230 O 0.51418 0.33046 0.85041 0.0
H231 H 0.56109 0.33402 0.72774 0.0
H232 H 0.55288 0.3512 0.68189 0.0
C233 C 0.54977 0.35073 0.7152 0.0
H234 H 0.55881 0.36834 0.72835 0.0
H235 H 0.56493 0.31324 0.81207 0.0
O236 O 0.41879 0.35848 0.80053 0.0
C237 C 0.49108 0.32015 0.8611 0.0
Co238 Co 0.05476 0.63998 0.30697 0.0
Co239 Co 0.98852 0.64283 0.31067 0.0
C240 C 0.02012 0.59965 0.34861 0.0
O241 O 0.04364 0.60905 0.33756 0.0
O242 O 0.99691 0.61044 0.33955 0.0
C243 C 0.11037 0.61848 0.29592 0.0
O244 O 0.09793 0.59678 0.30464 0.0
C245 C 0.92835 0.63151 0.29398 0.0
C246 C 0.90967 0.66939 0.30578 0.0
C247 C 0.90311 0.64491 0.29321 0.0
N248 N 0.94882 0.64754 0.30612 0.0
N249 N 0.93739 0.67002 0.31359 0.0
C250 C 0.93346 0.6047 0.28049 0.0
H251 H 0.95596 0.60197 0.27256 0.0
H252 H 0.91991 0.59997 0.25414 0.0
H253 H 0.92809 0.5915 0.30561 0.0
C254 C 0.04268 0.64725 0.2197 0.0
N255 N 0.03402 0.64296 0.25794 0.0
N256 N 0.00642 0.64475 0.2594 0.0
C257 C 0.99667 0.65092 0.22232 0.0
C258 C 0.01935 0.65261 0.19577 0.0
C259 C 0.07289 0.64707 0.20688 0.0
H260 H 0.0832 0.62955 0.21843 0.0
H261 H 0.07505 0.64762 0.17344 0.0
H262 H 0.08382 0.66376 0.22031 0.0
O263 O 0.04821 0.67014 0.3425 0.0
O264 O 1.00155 0.67136 0.34433 0.0
H265 H 0.96453 0.66871 0.18472 0.0
H266 H 0.95305 0.64207 0.21515 0.0
C267 C 0.96696 0.65905 0.21434 0.0
H268 H 0.96007 0.67246 0.23825 0.0
H269 H 0.94866 0.68604 0.323 0.0
O270 O 0.09588 0.63887 0.29518 0.0
C271 C 0.02536 0.68028 0.35465 0.0
H272 H 0.95086 0.92498 0.87972 0.0
H273 H 0.94965 0.95875 0.93077 0.0
H274 H 0.04035 0.96121 0.9317 0.0
H275 H 0.04186 0.92749 0.88083 0.0
H276 H 0.01848 0.95706 0.00782 0.0
H277 H 0.00393 0.00907 0.89011 0.0
H278 H 0.98098 0.02223 0.8265 0.0
H279 H 0.90281 0.03261 0.88958 0.0
H280 H 0.92521 0.01916 0.95352 0.0
H281 H 0.0389 0.07093 0.12148 0.0
H282 H 0.03829 0.03671 0.07134 0.0
H283 H 0.94754 0.03777 0.07116 0.0
H284 H 0.94789 0.07217 0.12102 0.0
H285 H 0.96827 0.03961 0.99529 0.0
H286 H 0.98282 0.9884 0.11324 0.0
H287 H 0.0056 0.97518 0.17695 0.0
H288 H 0.08341 0.96308 0.11374 0.0
H289 H 0.06119 0.97657 0.04971 0.0
C290 C 0.97056 0.93296 0.89029 0.0
C291 C 0.99646 0.9234 0.87626 0.0
C292 C 0.96982 0.95228 0.91947 0.0
C293 C 0.99492 0.96242 0.93508 0.0
C294 C 0.02074 0.95353 0.92019 0.0
C295 C 0.02153 0.93433 0.89093 0.0
C296 C 0.99433 0.98138 0.96837 0.0
C297 C 0.00783 0.97527 0.00493 0.0
C298 C 0.97972 0.00478 0.96493 0.0
C299 C 0.96618 0.01283 0.92652 0.0
C300 C 0.98178 0.01392 0.89035 0.0
C301 C 0.96888 0.02149 0.85425 0.0
C302 C 0.94043 0.02818 0.85397 0.0
C303 C 0.92484 0.02738 0.88983 0.0
C304 C 0.93763 0.01981 0.92601 0.0
C305 C 0.01878 0.06366 0.11127 0.0
C306 C 0.99345 0.07441 0.1252 0.0
C307 C 0.01847 0.04404 0.08263 0.0
C308 C 0.99286 0.03468 0.06753 0.0
C309 C 0.96754 0.04478 0.08231 0.0
C310 C 0.9678 0.06437 0.11099 0.0
C311 C 0.99254 0.01535 0.03473 0.0
C312 C 0.97886 0.02137 0.99826 0.0
C313 C 0.00694 0.99185 0.03827 0.0
C314 C 0.0204 0.98374 0.07674 0.0
C315 C 0.00485 0.98313 0.11298 0.0
C316 C 0.01765 0.97555 0.14914 0.0
C317 C 0.04595 0.96836 0.14942 0.0
C318 C 0.0615 0.96869 0.1135 0.0
C319 C 0.0488 0.97628 0.07725 0.0
H320 H 0.05582 0.96248 0.17744 0.0
H321 H 0.93049 0.03405 0.82599 0.0
H322 H 0.56668 0.07318 0.38199 0.0
H323 H 0.56787 0.03945 0.43284 0.0
H324 H 0.47737 0.03368 0.42819 0.0
H325 H 0.4759 0.06785 0.37791 0.0
H326 H 0.49482 0.03712 0.50409 0.0
H327 H 0.52111 0.98684 0.38835 0.0
H328 H 0.54908 0.97598 0.32786 0.0
H329 H 0.62383 0.97166 0.40054 0.0
H330 H 0.59637 0.98282 0.46141 0.0
H331 H 0.47777 0.92347 0.61697 0.0
H332 H 0.47874 0.9572 0.56632 0.0
H333 H 0.56928 0.96035 0.57438 0.0
H334 H 0.56859 0.92599 0.62455 0.0
H335 H 0.55319 0.95883 0.49765 0.0
H336 H 0.52699 0.00828 0.61354 0.0
H337 H 0.49924 0.01926 0.67418 0.0
H338 H 0.42464 0.02543 0.60149 0.0
H339 H 0.45187 0.01416 0.54047 0.0
C340 C 0.54702 0.06449 0.39125 0.0
C341 C 0.52117 0.07333 0.37595 0.0
C342 C 0.54776 0.04513 0.42032 0.0
C343 C 0.52272 0.03395 0.43427 0.0
C344 C 0.49696 0.0421 0.41798 0.0
C345 C 0.49617 0.06157 0.3891 0.0
C346 C 0.52323 0.01488 0.46752 0.0
C347 C 0.50726 0.0198 0.50243 0.0
C348 C 0.5402 0.99273 0.46593 0.0
C349 C 0.55672 0.9859 0.42938 0.0
C350 C 0.54355 0.98376 0.39139 0.0
C351 C 0.5593 0.97751 0.35704 0.0
C352 C 0.58822 0.9732 0.36033 0.0
C353 C 0.60144 0.97504 0.39802 0.0
C354 C 0.58578 0.9813 0.43246 0.0
C355 C 0.49792 0.93152 0.60847 0.0
C356 C 0.52313 0.92195 0.62486 0.0
C357 C 0.49841 0.95091 0.57952 0.0
C358 C 0.52407 0.96147 0.56672 0.0
C359 C 0.54924 0.95246 0.58377 0.0
C360 C 0.54879 0.93291 0.61261 0.0
C361 C 0.52459 0.98096 0.53409 0.0
C362 C 0.54079 0.97616 0.49934 0.0
C363 C 0.50786 0.00326 0.53583 0.0
C364 C 0.49145 0.01017 0.57248 0.0
C365 C 0.50463 0.0118 0.61052 0.0
C366 C 0.48899 0.0181 0.64496 0.0
C367 C 0.46018 0.02298 0.6417 0.0
C368 C 0.44696 0.02162 0.60398 0.0
C369 C 0.46249 0.01531 0.56945 0.0
H370 H 0.44812 0.02785 0.6684 0.0
H371 H 0.60038 0.96837 0.3337 0.0
H372 H 0.44695 0.5789 0.11041 0.0
H373 H 0.44551 0.5457 0.05863 0.0
H374 H 0.53462 0.53312 0.07348 0.0
H375 H 0.5364 0.56668 0.12466 0.0
H376 H 0.52171 0.53832 0.99577 0.0
H377 H 0.4846 0.48987 0.10784 0.0
H378 H 0.45215 0.48109 0.16445 0.0
H379 H 0.38205 0.48188 0.08244 0.0
H380 H 0.41405 0.491 0.0254 0.0
H381 H 0.53817 0.42364 0.88655 0.0
H382 H 0.53612 0.458 0.93593 0.0
H383 H 0.44649 0.46436 0.91773 0.0
H384 H 0.4482 0.4292 0.86906 0.0
H385 H 0.4575 0.46371 0.99517 0.0
H386 H 0.49433 0.51057 0.88266 0.0
H387 H 0.52645 0.51954 0.82574 0.0
H388 H 0.59648 0.52233 0.90777 0.0
H389 H 0.56484 0.51305 0.96513 0.0
C390 C 0.46619 0.56882 0.10315 0.0
C391 C 0.49182 0.57555 0.12162 0.0
C392 C 0.4653 0.54979 0.07354 0.0
C393 C 0.48995 0.53686 0.06222 0.0
C394 C 0.51537 0.54293 0.0816 0.0
C395 C 0.51631 0.56206 0.111 0.0
C396 C 0.48962 0.51799 0.0287 0.0
C397 C 0.50792 0.52181 0.99588 0.0
C398 C 0.47094 0.49696 0.02816 0.0
C399 C 0.4517 0.49137 0.06242 0.0
C400 C 0.46224 0.48837 0.10193 0.0
C401 C 0.44393 0.48329 0.13409 0.0
C402 C 0.41505 0.481 0.12707 0.0
C403 C 0.40442 0.4837 0.08785 0.0
C404 C 0.42264 0.48879 0.05559 0.0
C405 C 0.51803 0.43255 0.8925 0.0
C406 C 0.49332 0.4236 0.87382 0.0
C407 C 0.51692 0.45232 0.92074 0.0
C408 C 0.49119 0.46399 0.93034 0.0
C409 C 0.46659 0.45563 0.91085 0.0
C410 C 0.46762 0.43561 0.88288 0.0
C411 C 0.48985 0.48385 0.96239 0.0
C412 C 0.4712 0.48027 0.99491 0.0
C413 C 0.50815 0.50517 0.96261 0.0
C414 C 0.52722 0.51093 0.92817 0.0
C415 C 0.5166 0.51293 0.88853 0.0
C416 C 0.53473 0.5181 0.85619 0.0
C417 C 0.56349 0.52145 0.86312 0.0
C418 C 0.57419 0.51972 0.90244 0.0
C419 C 0.55617 0.51454 0.93488 0.0
H420 H 0.57749 0.52543 0.83804 0.0
H421 H 0.40091 0.47707 0.152 0.0
H422 H 0.97622 0.43437 0.62774 0.0
H423 H 0.97754 0.46835 0.57737 0.0
H424 H 0.06793 0.46212 0.57102 0.0
H425 H 0.06683 0.4277 0.621 0.0
H426 H 1.00148 0.51463 0.57037 0.0
H427 H 0.08794 0.46853 0.47216 0.0
H428 H 0.10812 0.42599 0.45878 0.0
H429 H 0.02948 0.39087 0.49046 0.0
H430 H 0.00874 0.4332 0.50346 0.0
H431 H 0.06546 0.57233 0.37558 0.0
H432 H 0.06603 0.53967 0.42824 0.0
H433 H 0.97559 0.54355 0.43692 0.0
H434 H 0.97476 0.57652 0.38457 0.0
H435 H 0.04322 0.49275 0.43702 0.0
H436 H 0.95703 0.53869 0.53653 0.0
H437 H 0.93665 0.58117 0.5497 0.0
H438 H 0.0145 0.61662 0.51509 0.0
H439 H 0.03545 0.57436 0.50228 0.0
C440 C 0.99647 0.44041 0.61613 0.0
C441 C 0.02141 0.42803 0.62807 0.0
C442 C 0.99716 0.45991 0.58734 0.0
C443 C 0.02275 0.4674 0.56985 0.0
C444 C 0.04788 0.45627 0.58358 0.0
C445 C 0.04722 0.43669 0.61234 0.0
C446 C 0.02284 0.48576 0.53564 0.0
C447 C 0.01037 0.50977 0.54111 0.0
C448 C 0.03484 0.47955 0.49763 0.0
C449 C 0.04692 0.45402 0.4892 0.0
C450 C 0.07494 0.45173 0.47611 0.0
C451 C 0.08648 0.42765 0.46861 0.0
C452 C 0.07012 0.40574 0.47391 0.0
C453 C 0.04216 0.40786 0.48652 0.0
C454 C 0.03051 0.43188 0.49399 0.0
C455 C 0.04561 0.56607 0.38828 0.0
C456 C 0.02007 0.57729 0.37611 0.0
C457 C 0.04601 0.54735 0.41839 0.0
C458 C 0.02092 0.53955 0.43703 0.0
C459 C 0.99525 0.54967 0.42346 0.0
C460 C 0.99481 0.56842 0.39334 0.0
C461 C 0.02178 0.52158 0.47171 0.0
C462 C 0.03441 0.49765 0.46632 0.0
C463 C 0.00991 0.52785 0.50977 0.0
C464 C 0.99768 0.55336 0.51805 0.0
C465 C 0.96982 0.55555 0.53189 0.0
C466 C 0.95817 0.57959 0.53927 0.0
C467 C 0.97424 0.60158 0.5331 0.0
C468 C 1.00204 0.59958 0.51971 0.0
C469 C 0.0138 0.57559 0.51234 0.0
H470 H 0.96517 0.62018 0.53878 0.0
H471 H 0.07911 0.38712 0.46815 0.0
H472 H 0.38191 0.11883 0.23198 0.0
H473 H 0.33343 0.11035 0.21043 0.0
H474 H 0.30482 0.12012 0.33338 0.0
H475 H 0.3532 0.12871 0.355 0.0
H476 H 0.27608 0.07988 0.28875 0.0
H477 H 0.30264 0.16918 0.2779 0.0
H478 H 0.3329 0.20443 0.25437 0.0
H479 H 0.31744 0.18316 0.13078 0.0
H480 H 0.28742 0.1475 0.15367 0.0
H481 H 0.1337 0.12175 0.26827 0.0
H482 H 0.18288 0.1124 0.28474 0.0
H483 H 0.20552 0.1229 0.15917 0.0
H484 H 0.15665 0.13324 0.14321 0.0
H485 H 0.23874 0.14917 0.20168 0.0
H486 H 0.20786 0.06278 0.21051 0.0
H487 H 0.17818 0.02679 0.23266 0.0
H488 H 0.20165 0.0405 0.35632 0.0
H489 H 0.23117 0.07682 0.33498 0.0
C490 C 0.36546 0.11826 0.25461 0.0
C491 C 0.3713 0.12421 0.29521 0.0
C492 C 0.33775 0.1136 0.24223 0.0
C493 C 0.31556 0.11467 0.27034 0.0
C494 C 0.32164 0.11905 0.31129 0.0
C495 C 0.34923 0.12407 0.32354 0.0
C496 C 0.28587 0.11445 0.25656 0.0
C497 C 0.26776 0.095 0.26979 0.0
C498 C 0.27527 0.13395 0.23126 0.0
C499 C 0.29309 0.15551 0.21749 0.0
C500 C 0.3059 0.17189 0.24573 0.0
C501 C 0.32297 0.19196 0.23251 0.0
C502 C 0.32717 0.19598 0.19111 0.0
C503 C 0.31423 0.17998 0.16284 0.0
C504 C 0.29718 0.15985 0.17591 0.0
C505 C 0.14908 0.12131 0.2441 0.0
C506 C 0.14144 0.128 0.20444 0.0
C507 C 0.17723 0.11597 0.25348 0.0
C508 C 0.19806 0.11674 0.22316 0.0
C509 C 0.18999 0.12226 0.18318 0.0
C510 C 0.16205 0.12806 0.17401 0.0
C511 C 0.22849 0.1144 0.23351 0.0
C512 C 0.24686 0.13363 0.21997 0.0
C513 C 0.23926 0.09452 0.25817 0.0
C514 C 0.22154 0.07267 0.27116 0.0
C515 C 0.20652 0.05825 0.24246 0.0
C516 C 0.18976 0.03777 0.25487 0.0
C517 C 0.18798 0.0314 0.29588 0.0
C518 C 0.20302 0.04547 0.32457 0.0
C519 C 0.2198 0.06599 0.31233 0.0
H520 H 0.175 0.01553 0.30543 0.0
H521 H 0.34039 0.21154 0.18093 0.0
H522 H 0.38433 0.89673 0.75223 0.0
H523 H 0.3353 0.90861 0.76533 0.0
H524 H 0.30743 0.85003 0.68279 0.0
H525 H 0.35618 0.83864 0.66877 0.0
H526 H 0.27598 0.89222 0.67446 0.0
H527 H 0.31114 0.83982 0.78509 0.0
H528 H 0.34309 0.82985 0.84178 0.0
H529 H 0.31898 0.89923 0.90154 0.0
H530 H 0.28714 0.90975 0.84487 0.0
H531 H 0.14985 0.83695 0.73674 0.0
H532 H 0.19807 0.84889 0.72015 0.0
H533 H 0.19383 0.91115 0.8053 0.0
H534 H 0.14514 0.89915 0.82216 0.0
H535 H 0.24138 0.87996 0.8149 0.0
H536 H 0.19725 0.92598 0.70878 0.0
H537 H 0.16424 0.93317 0.65235 0.0
H538 H 0.20426 0.8738 0.58382 0.0
H539 H 0.23725 0.86596 0.64007 0.0
C540 C 0.36781 0.88693 0.73595 0.0
C541 C 0.37414 0.86693 0.70908 0.0
C542 C 0.33976 0.89354 0.74384 0.0
C543 C 0.31767 0.88011 0.72521 0.0
C544 C 0.32408 0.86075 0.6974 0.0
C545 C 0.35197 0.85415 0.68959 0.0
C546 C 0.2878 0.88469 0.73626 0.0
C547 C 0.2684 0.88963 0.70517 0.0
C548 C 0.27797 0.88206 0.77655 0.0
C549 C 0.29709 0.87574 0.81054 0.0
C550 C 0.31285 0.85305 0.81016 0.0
C551 C 0.3309 0.84728 0.8423 0.0
C552 C 0.33315 0.86395 0.87517 0.0
C553 C 0.31728 0.88638 0.87601 0.0
C554 C 0.29923 0.89226 0.8439 0.0
C555 C 0.15904 0.85339 0.7516 0.0
C556 C 0.1437 0.86725 0.78049 0.0
C557 C 0.18654 0.86029 0.74191 0.0
C558 C 0.19943 0.88109 0.76114 0.0
C559 C 0.18414 0.89518 0.78986 0.0
C560 C 0.15632 0.88844 0.79923 0.0
C561 C 0.22951 0.88654 0.75283 0.0
C562 C 0.24897 0.88341 0.78439 0.0
C563 C 0.23937 0.8906 0.71291 0.0
C564 C 0.21969 0.89533 0.67878 0.0
C565 C 0.19891 0.91434 0.68179 0.0
C566 C 0.18021 0.91855 0.64981 0.0
C567 C 0.18214 0.90394 0.61453 0.0
C568 C 0.2028 0.88512 0.61115 0.0
C569 C 0.22155 0.88082 0.64306 0.0
H570 H 0.16764 0.90723 0.58981 0.0
H571 H 0.34712 0.85944 0.90004 0.0
H572 H 0.87089 0.8615 0.83299 0.0
H573 H 0.81978 0.86171 0.82495 0.0
H574 H 0.82952 0.88038 0.69833 0.0
H575 H 0.88061 0.88172 0.70703 0.0
H576 H 0.78893 0.90605 0.72369 0.0
H577 H 0.81108 0.81771 0.73663 0.0
H578 H 0.83176 0.7791 0.76718 0.0
H579 H 0.7818 0.7901 0.87412 0.0
H580 H 0.76109 0.82898 0.84441 0.0
H581 H 0.64926 0.85646 0.67197 0.0
H582 H 0.70052 0.85648 0.68105 0.0
H583 H 0.69043 0.88677 0.80147 0.0
H584 H 0.63919 0.88759 0.79224 0.0
H585 H 0.72996 0.83579 0.77806 0.0
H586 H 0.71091 0.92771 0.76016 0.0
H587 H 0.68961 0.96343 0.72242 0.0
H588 H 0.734 0.94072 0.61504 0.0
H589 H 0.75521 0.90461 0.65208 0.0
C590 C 0.86208 0.86562 0.80345 0.0
C591 C 0.87972 0.87154 0.77062 0.0
C592 C 0.83282 0.86556 0.79876 0.0
C593 C 0.82057 0.87053 0.76078 0.0
C594 C 0.83828 0.87648 0.72797 0.0
C595 C 0.86752 0.87719 0.73292 0.0
C596 C 0.78935 0.87 0.75539 0.0
C597 C 0.77625 0.89048 0.73534 0.0
C598 C 0.77239 0.84981 0.7705 0.0
C599 C 0.78474 0.8264 0.78844 0.0
C600 C 0.80465 0.81199 0.76677 0.0
C601 C 0.81635 0.79004 0.78392 0.0
C602 C 0.80815 0.78219 0.82261 0.0
C603 C 0.78816 0.79623 0.84418 0.0
C604 C 0.77641 0.81821 0.82718 0.0
C605 C 0.65796 0.86313 0.70038 0.0
C606 C 0.64023 0.87213 0.73135 0.0
C607 C 0.6872 0.86314 0.70548 0.0
C608 C 0.69913 0.87167 0.74187 0.0
C609 C 0.68152 0.88019 0.77314 0.0
C610 C 0.65232 0.88072 0.76775 0.0
C611 C 0.73007 0.87185 0.74707 0.0
C612 C 0.74295 0.85126 0.76675 0.0
C613 C 0.7469 0.89154 0.73083 0.0
C614 C 0.73433 0.91331 0.70872 0.0
C615 C 0.71587 0.93018 0.7284 0.0
C616 C 0.70388 0.95053 0.70717 0.0
C617 C 0.71037 0.95429 0.66631 0.0
C618 C 0.72894 0.93775 0.64665 0.0
C619 C 0.74096 0.91736 0.66776 0.0
H620 H 0.70107 0.97006 0.64993 0.0
H621 H 0.81724 0.76519 0.83583 0.0
H622 H 0.63635 0.09252 0.22603 0.0
H623 H 0.68716 0.09373 0.21487 0.0
H624 H 0.69593 0.14823 0.31208 0.0
H625 H 0.64487 0.14823 0.32148 0.0
H626 H 0.72993 0.16132 0.25864 0.0
H627 H 0.71209 0.08098 0.32092 0.0
H628 H 0.68962 0.03898 0.33041 0.0
H629 H 0.72086 0.01444 0.2148 0.0
H630 H 0.74322 0.05643 0.20438 0.0
H631 H 0.87679 0.09136 0.27045 0.0
H632 H 0.82623 0.09262 0.28378 0.0
H633 H 0.816 0.14876 0.18919 0.0
H634 H 0.86679 0.14859 0.17751 0.0
H635 H 0.78317 0.08041 0.24567 0.0
H636 H 0.7602 0.1863 0.20406 0.0
H637 H 0.78393 0.22814 0.2069 0.0
H638 H 0.83676 0.20138 0.30345 0.0
H639 H 0.81311 0.15951 0.30155 0.0
C640 C 0.64915 0.10479 0.24494 0.0
C641 C 0.63668 0.12016 0.27479 0.0
C642 C 0.67827 0.10536 0.23873 0.0
C643 C 0.6957 0.12062 0.26323 0.0
C644 C 0.68312 0.13625 0.29273 0.0
C645 C 0.65391 0.13619 0.2982 0.0
C646 C 0.72696 0.12029 0.25817 0.0
C647 C 0.74153 0.14359 0.25588 0.0
C648 C 0.74245 0.09724 0.25555 0.0
C649 C 0.72911 0.07193 0.26172 0.0
C650 C 0.71401 0.06668 0.29741 0.0
C651 C 0.70132 0.04287 0.30297 0.0
C652 C 0.70375 0.02408 0.27318 0.0
C653 C 0.71896 0.02903 0.23782 0.0
C654 C 0.73167 0.05282 0.23208 0.0
C655 C 0.86375 0.10407 0.25266 0.0
C656 C 0.87577 0.11998 0.22309 0.0
C657 C 0.83479 0.10474 0.26021 0.0
C658 C 0.8171 0.12103 0.23793 0.0
C659 C 0.8291 0.13652 0.20769 0.0
C660 C 0.85817 0.13631 0.20081 0.0
C661 C 0.78615 0.12144 0.24592 0.0
C662 C 0.77161 0.09815 0.24858 0.0
C663 C 0.77088 0.14448 0.25072 0.0
C664 C 0.78506 0.16969 0.25234 0.0
C665 C 0.77681 0.18938 0.22599 0.0
C666 C 0.79026 0.21309 0.22742 0.0
C667 C 0.8119 0.21738 0.25525 0.0
C668 C 0.82007 0.198 0.28181 0.0
C669 C 0.80667 0.17427 0.28053 0.0
H670 H 0.8223 0.23575 0.25628 0.0
H671 H 0.69391 0.00566 0.27754 0.0
H672 H 0.87542 0.59972 0.30871 0.0
H673 H 0.82607 0.58979 0.29286 0.0
H674 H 0.81808 0.66224 0.23183 0.0
H675 H 0.86681 0.6723 0.2481 0.0
H676 H 0.77766 0.65655 0.28522 0.0
H677 H 0.82018 0.60411 0.18087 0.0
H678 H 0.85059 0.5696 0.15525 0.0
H679 H 0.80411 0.5148 0.22512 0.0
H680 H 0.77364 0.54907 0.25158 0.0
H681 H 0.66095 0.6577 0.16291 0.0
H682 H 0.70991 0.64911 0.18002 0.0
H683 H 0.68375 0.59066 0.26377 0.0
H684 H 0.63432 0.59953 0.24744 0.0
H685 H 0.73896 0.58266 0.20952 0.0
H686 H 0.69431 0.63645 0.30998 0.0
H687 H 0.66345 0.67182 0.33114 0.0
H688 H 0.7149 0.72489 0.26524 0.0
H689 H 0.74578 0.68974 0.24309 0.0
C690 C 0.86325 0.6132 0.29112 0.0
C691 C 0.87488 0.63677 0.27959 0.0
C692 C 0.83506 0.60755 0.28219 0.0
C693 C 0.81833 0.62532 0.26126 0.0
C694 C 0.83046 0.64834 0.24832 0.0
C695 C 0.85833 0.65405 0.25758 0.0
C696 C 0.78771 0.62126 0.25495 0.0
C697 C 0.76932 0.64034 0.26865 0.0
C698 C 0.77657 0.59975 0.23449 0.0
C699 C 0.79487 0.57919 0.21859 0.0
C700 C 0.81661 0.58474 0.19106 0.0
C701 C 0.83382 0.56521 0.17632 0.0
C702 C 0.82935 0.54003 0.18866 0.0
C703 C 0.80759 0.53432 0.21566 0.0
C704 C 0.79034 0.55378 0.23052 0.0
C705 C 0.66555 0.64263 0.18437 0.0
C706 C 0.64373 0.62927 0.20373 0.0
C707 C 0.69355 0.63766 0.19391 0.0
C708 C 0.70035 0.61929 0.22311 0.0
C709 C 0.67883 0.60471 0.24079 0.0
C710 C 0.6506 0.60975 0.23129 0.0
C711 C 0.7295 0.61835 0.23869 0.0
C712 C 0.74744 0.59847 0.22686 0.0
C713 C 0.74045 0.63918 0.26078 0.0
C714 C 0.72222 0.66043 0.27464 0.0
C715 C 0.69891 0.65563 0.29975 0.0
C716 C 0.68144 0.67564 0.31195 0.0
C717 C 0.68718 0.70058 0.29948 0.0
C718 C 0.71047 0.70556 0.27486 0.0
C719 C 0.72798 0.68561 0.26251 0.0
H720 H 0.67363 0.71606 0.30896 0.0
H721 H 0.84268 0.52494 0.17721 0.0
H722 H 0.88018 0.39787 0.74882 0.0
H723 H 0.83104 0.40817 0.76381 0.0
H724 H 0.80388 0.35073 0.67881 0.0
H725 H 0.85274 0.34109 0.66262 0.0
H726 H 0.77075 0.39124 0.67357 0.0
H727 H 0.8093 0.339 0.78158 0.0
H728 H 0.84242 0.32914 0.83693 0.0
H729 H 0.81723 0.39717 0.89959 0.0
H730 H 0.78421 0.40759 0.84429 0.0
H731 H 0.6465 0.33379 0.74079 0.0
H732 H 0.69455 0.34576 0.72304 0.0
H733 H 0.6905 0.40918 0.80602 0.0
H734 H 0.64195 0.39723 0.82392 0.0
H735 H 0.7389 0.37753 0.81502 0.0
H736 H 0.69203 0.42331 0.71056 0.0
H737 H 0.65785 0.4298 0.65538 0.0
H738 H 0.69778 0.37092 0.58569 0.0
H739 H 0.73195 0.36378 0.6407 0.0
C740 C 0.86379 0.38803 0.73234 0.0
C741 C 0.8704 0.36887 0.70409 0.0
C742 C 0.83566 0.3937 0.74138 0.0
C743 C 0.81373 0.38009 0.72268 0.0
C744 C 0.82037 0.36157 0.69354 0.0
C745 C 0.84835 0.35597 0.68449 0.0
C746 C 0.78386 0.38365 0.73483 0.0
C747 C 0.76379 0.3883 0.70451 0.0
C748 C 0.77478 0.3805 0.7754 0.0
C749 C 0.7946 0.37425 0.80859 0.0
C750 C 0.81101 0.35196 0.80701 0.0
C751 C 0.82973 0.34625 0.83838 0.0
C752 C 0.832 0.36257 0.87168 0.0
C753 C 0.8155 0.38459 0.87372 0.0
C754 C 0.79679 0.39041 0.84238 0.0
C755 C 0.65571 0.35046 0.75498 0.0
C756 C 0.64045 0.36471 0.78348 0.0
C757 C 0.68311 0.35735 0.74465 0.0
C758 C 0.69598 0.37851 0.7629 0.0
C759 C 0.68081 0.39291 0.79136 0.0
C760 C 0.65309 0.3862 0.80132 0.0
C761 C 0.72583 0.38425 0.75352 0.0
C762 C 0.7459 0.38126 0.7843 0.0
C763 C 0.73489 0.3886 0.71329 0.0
C764 C 0.71451 0.39294 0.6799 0.0
C765 C 0.69342 0.41162 0.68359 0.0
C766 C 0.67406 0.41544 0.65231 0.0
C767 C 0.67563 0.40077 0.61706 0.0
C768 C 0.6966 0.38228 0.613 0.0
C769 C 0.71601 0.37837 0.6442 0.0
H770 H 0.66061 0.40375 0.59288 0.0
H771 H 0.84649 0.35811 0.89596 0.0
H772 H 0.36755 0.36293 0.83162 0.0
H773 H 0.31645 0.3633 0.82382 0.0
H774 H 0.32599 0.38083 0.69675 0.0
H775 H 0.37712 0.3821 0.70523 0.0
H776 H 0.28547 0.40668 0.72155 0.0
H777 H 0.30734 0.31847 0.73676 0.0
H778 H 0.32801 0.28013 0.76816 0.0
H779 H 0.27856 0.29242 0.87523 0.0
H780 H 0.25784 0.33104 0.84466 0.0
H781 H 0.14553 0.36115 0.67007 0.0
H782 H 0.19681 0.36107 0.67866 0.0
H783 H 0.18701 0.38441 0.80298 0.0
H784 H 0.13572 0.38533 0.79434 0.0
H785 H 0.22647 0.33728 0.77853 0.0
H786 H 0.20607 0.42781 0.75759 0.0
H787 H 0.1848 0.46335 0.71942 0.0
H788 H 0.23174 0.44194 0.61363 0.0
H789 H 0.25295 0.40601 0.65107 0.0
C790 C 0.3587 0.36684 0.80203 0.0
C791 C 0.37629 0.37242 0.769 0.0
C792 C 0.32944 0.36686 0.79748 0.0
C793 C 0.31712 0.37152 0.75944 0.0
C794 C 0.33479 0.37716 0.72643 0.0
C795 C 0.36405 0.37782 0.73125 0.0
C796 C 0.28589 0.37099 0.75422 0.0
C797 C 0.27277 0.39127 0.73367 0.0
C798 C 0.26891 0.35105 0.7701 0.0
C799 C 0.28124 0.32779 0.78855 0.0
C800 C 0.30101 0.31309 0.76711 0.0
C801 C 0.31272 0.2913 0.78474 0.0
C802 C 0.30466 0.28388 0.82371 0.0
C803 C 0.28481 0.29821 0.84507 0.0
C804 C 0.27306 0.32004 0.82759 0.0
C805 C 0.1543 0.36625 0.69924 0.0
C806 C 0.13663 0.37333 0.73151 0.0
C807 C 0.18355 0.36621 0.70406 0.0
C808 C 0.19559 0.37274 0.74142 0.0
C809 C 0.17804 0.37933 0.77393 0.0
C810 C 0.1488 0.37994 0.76888 0.0
C811 C 0.22657 0.37292 0.74635 0.0
C812 C 0.23947 0.35257 0.76662 0.0
C813 C 0.2434 0.39238 0.72935 0.0
C814 C 0.23082 0.41406 0.70698 0.0
C815 C 0.21162 0.43052 0.72608 0.0
C816 C 0.19963 0.45077 0.7046 0.0
C817 C 0.20684 0.45485 0.66409 0.0
C818 C 0.22613 0.43873 0.645 0.0
C819 C 0.23816 0.41844 0.66633 0.0
H820 H 0.19754 0.47054 0.64751 0.0
H821 H 0.31375 0.26701 0.83731 0.0
H822 H 0.14201 0.65959 0.27234 0.0
H823 H 0.19249 0.66071 0.25814 0.0
H824 H 0.19835 0.58028 0.28444 0.0
H825 H 0.14795 0.57903 0.29915 0.0
H826 H 0.24032 0.60683 0.32038 0.0
H827 H 0.1993 0.6018 0.18741 0.0
H828 H 0.16787 0.61524 0.13197 0.0
H829 H 0.20875 0.68826 0.12764 0.0
H830 H 0.24018 0.67538 0.18349 0.0
H831 H 0.37525 0.58186 0.23928 0.0
H832 H 0.32473 0.58229 0.25279 0.0
H833 H 0.32142 0.66224 0.22216 0.0
H834 H 0.37195 0.66188 0.20795 0.0
H835 H 0.27815 0.63716 0.18883 0.0
H836 H 0.3193 0.64266 0.32071 0.0
H837 H 0.35048 0.63008 0.37693 0.0
H838 H 0.30921 0.55734 0.38427 0.0
H839 H 0.27802 0.56935 0.32767 0.0
C840 C 0.15402 0.64212 0.2751 0.0
C841 C 0.14092 0.6192 0.28687 0.0
C842 C 0.18286 0.64278 0.26679 0.0
C843 C 0.19917 0.62053 0.26988 0.0
C844 C 0.18618 0.59767 0.28185 0.0
C845 C 0.15734 0.59699 0.29011 0.0
C846 C 0.22983 0.62108 0.26111 0.0
C847 C 0.24858 0.61314 0.29143 0.0
C848 C 0.24064 0.63001 0.22374 0.0
C849 C 0.22191 0.63771 0.18991 0.0
C850 C 0.20145 0.6208 0.17485 0.0
C851 C 0.18366 0.6283 0.14331 0.0
C852 C 0.18626 0.65262 0.12636 0.0
C853 C 0.20673 0.66945 0.14083 0.0
C854 C 0.22456 0.66205 0.17241 0.0
C855 C 0.36382 0.59956 0.23544 0.0
C856 C 0.37769 0.62185 0.22263 0.0
C857 C 0.33492 0.5998 0.24333 0.0
C858 C 0.31931 0.62237 0.23897 0.0
C859 C 0.33303 0.6446 0.22578 0.0
C860 C 0.36194 0.64437 0.21778 0.0
C861 C 0.28865 0.62271 0.24802 0.0
C862 C 0.2699 0.63087 0.2178 0.0
C863 C 0.27782 0.61408 0.28556 0.0
C864 C 0.2965 0.60682 0.31968 0.0
C865 C 0.31701 0.6239 0.33409 0.0
C866 C 0.33467 0.61689 0.36607 0.0
C867 C 0.33188 0.5929 0.38409 0.0
C868 C 0.31137 0.5759 0.37024 0.0
C869 C 0.29368 0.58281 0.33824 0.0
H870 H 0.34556 0.58751 0.40885 0.0
H871 H 0.17245 0.65839 0.10196 0.0
H872 H 0.04708 0.34715 0.86527 0.0
H873 H 0.04265 0.32344 0.92921 0.0
H874 H 0.96996 0.28411 0.88216 0.0
H875 H 0.97508 0.30666 0.81792 0.0
H876 H 0.96438 0.30327 0.96494 0.0
H877 H 0.02672 0.25414 0.87825 0.0
H878 H 0.06878 0.24875 0.83539 0.0
H879 H 0.12185 0.2683 0.93595 0.0
H880 H 0.08002 0.27426 0.97924 0.0
H881 H 0.94956 0.19263 0.08761 0.0
H882 H 0.95289 0.22514 0.03459 0.0
H883 H 0.03615 0.24518 0.0761 0.0
H884 H 0.03332 0.21219 0.12798 0.0
H885 H 0.03772 0.23955 0.99938 0.0
H886 H 0.97742 0.28532 0.08862 0.0
H887 H 0.93636 0.29268 0.13272 0.0
H888 H 0.88094 0.28223 0.03139 0.0
H889 H 0.92166 0.27444 0.98675 0.0
C890 C 0.03021 0.33343 0.86868 0.0
C891 C 0.01123 0.32897 0.83686 0.0
C892 C 0.02759 0.32007 0.90517 0.0
C893 C 0.00582 0.30223 0.91035 0.0
C894 C 0.98662 0.29809 0.87888 0.0
C895 C 0.9895 0.31109 0.84229 0.0
C896 C 0.00394 0.28662 0.94751 0.0
C897 C 0.98028 0.28922 0.97255 0.0
C898 C 0.02509 0.26885 0.9577 0.0
C899 C 0.05024 0.26495 0.93183 0.0
C900 C 0.04734 0.25752 0.89112 0.0
C901 C 0.07114 0.25433 0.86676 0.0
C902 C 0.09797 0.25826 0.8829 0.0
C903 C 0.10105 0.26532 0.92347 0.0
C904 C 0.07731 0.26861 0.94793 0.0
C905 C 0.96837 0.20424 0.08575 0.0
C906 C 0.99124 0.19976 0.11173 0.0
C907 C 0.97024 0.2229 0.05554 0.0
C908 C 0.99474 0.23775 0.05143 0.0
C909 C 0.01711 0.2339 0.07847 0.0
C910 C 0.01543 0.21504 0.10816 0.0
C911 C 0.99796 0.25597 0.01727 0.0
C912 C 0.02189 0.2538 0.99247 0.0
C913 C 0.97719 0.27438 0.0077 0.0
C914 C 0.95261 0.27907 0.03441 0.0
C915 C 0.95647 0.28439 0.07579 0.0
C916 C 0.93326 0.28867 0.10088 0.0
C917 C 0.90606 0.28786 0.08489 0.0
C918 C 0.90202 0.28283 0.04374 0.0
C919 C 0.92517 0.2785 0.01852 0.0
H920 H 0.88811 0.29119 0.10436 0.0
H921 H 0.11637 0.25577 0.864 0.0
H922 H 0.56511 0.8028 0.59181 0.0
H923 H 0.56069 0.7711 0.53773 0.0
H924 H 0.47585 0.75457 0.57583 0.0
H925 H 0.47985 0.78653 0.62959 0.0
H926 H 0.51202 0.70984 0.55216 0.0
H927 H 0.4784 0.7922 0.50545 0.0
H928 H 0.48286 0.8386 0.4949 0.0
H929 H 0.55694 0.82671 0.42288 0.0
H930 H 0.55315 0.78023 0.43358 0.0
H931 H 0.46657 0.64947 0.36858 0.0
H932 H 0.47018 0.67456 0.43112 0.0
H933 H 0.54189 0.71455 0.38176 0.0
H934 H 0.53679 0.69123 0.31864 0.0
H935 H 0.5103 0.747 0.41396 0.0
H936 H 0.54582 0.66586 0.45856 0.0
H937 H 0.54474 0.61941 0.47034 0.0
H938 H 0.47203 0.62796 0.54633 0.0
H939 H 0.47247 0.67445 0.53457 0.0
C940 C 0.54569 0.79212 0.58914 0.0
C941 C 0.52274 0.79731 0.61469 0.0
C942 C 0.5432 0.77404 0.55826 0.0
C943 C 0.51791 0.76066 0.55285 0.0
C944 C 0.49553 0.76471 0.5797 0.0
C945 C 0.49783 0.78307 0.61018 0.0
C946 C 0.51394 0.7443 0.51688 0.0
C947 C 0.51135 0.71784 0.52187 0.0
C948 C 0.51358 0.75487 0.47756 0.0
C949 C 0.51565 0.78278 0.47066 0.0
C950 C 0.49577 0.7995 0.48765 0.0
C951 C 0.49816 0.82581 0.4816 0.0
C952 C 0.52022 0.83561 0.45833 0.0
C953 C 0.53989 0.8191 0.44095 0.0
C954 C 0.53762 0.79277 0.44698 0.0
C955 C 0.48303 0.66366 0.37128 0.0
C956 C 0.50166 0.66811 0.33902 0.0
C957 C 0.4853 0.6778 0.40713 0.0
C958 C 0.50662 0.69623 0.41153 0.0
C959 C 0.52532 0.70042 0.37931 0.0
C960 C 0.52266 0.68676 0.34336 0.0
C961 C 0.50896 0.71211 0.44869 0.0
C962 C 0.51103 0.7387 0.44405 0.0
C963 C 0.5093 0.70153 0.48822 0.0
C964 C 0.509 0.67359 0.49533 0.0
C965 C 0.52947 0.65781 0.47752 0.0
C966 C 0.529 0.63148 0.48424 0.0
C967 C 0.50828 0.62073 0.50897 0.0
C968 C 0.48803 0.63631 0.52713 0.0
C969 C 0.4884 0.66265 0.52047 0.0
H970 H 0.50795 0.60034 0.51415 0.0
H971 H 0.52203 0.85598 0.45368 0.0
H972 H 0.95665 0.78336 0.87613 0.0
H973 H 0.96005 0.74852 0.92527 0.0
H974 H 0.04301 0.77433 0.95938 0.0
H975 H 0.04024 0.80831 0.90926 0.0
H976 H 0.04353 0.7256 0.95815 0.0
H977 H 0.98127 0.78839 0.01542 0.0
H978 H 0.93971 0.81652 0.01764 0.0
H979 H 0.88525 0.75136 0.00892 0.0
H980 H 0.92653 0.72285 0.00615 0.0
H981 H 0.05152 0.69153 0.16686 0.0
H982 H 0.04757 0.7128 0.10122 0.0
H983 H 0.98099 0.66121 0.06704 0.0
H984 H 0.98582 0.63895 0.13225 0.0
H985 H 0.96912 0.71668 0.06261 0.0
H986 H 0.03578 0.65417 0.01729 0.0
H987 H 0.07955 0.6291 0.02181 0.0
H988 H 0.12841 0.6979 0.01531 0.0
H989 H 0.08492 0.72343 0.01134 0.0
C990 C 0.97563 0.7815 0.89402 0.0
C991 C 0.9981 0.79868 0.88901 0.0
C992 C 0.97754 0.76163 0.92218 0.0
C993 C 1.00163 0.75898 0.94653 0.0
C994 C 0.02423 0.77587 0.94094 0.0
C995 C 0.02256 0.7954 0.91235 0.0
C996 C 1.0032 0.73928 0.97883 0.0
C997 C 0.02726 0.72375 0.98102 0.0
C998 C 0.9818 0.73645 0.0084 0.0
C999 C 0.95697 0.75353 0.01005 0.0
C1000 C 0.96043 0.78008 0.01365 0.0
C1001 C 0.93693 0.79609 0.01507 0.0
C1002 C 0.90986 0.78574 0.01327 0.0
C1003 C 0.90623 0.75935 0.0102 0.0
C1004 C 0.92967 0.74326 0.00872 0.0
C1005 C 0.03669 0.68417 0.14487 0.0
C1006 C 0.01905 0.66353 0.15445 0.0
C1007 C 0.03432 0.69645 0.10754 0.0
C1008 C 0.01402 0.68851 0.07942 0.0
C1009 C 0.9968 0.66753 0.08844 0.0
C1010 C 0.99955 0.65491 0.12555 0.0
C1011 C 0.00957 0.70354 0.04213 0.0
C1012 C 0.98503 0.71823 0.03915 0.0
C1013 C 0.03082 0.70605 0.01251 0.0
C1014 C 0.05705 0.69073 0.01428 0.0
C1015 C 0.05585 0.66398 0.01711 0.0
C1016 C 0.08062 0.64968 0.01952 0.0
C1017 C 0.10674 0.6619 0.01893 0.0
C1018 C 0.10816 0.68845 0.01578 0.0
C1019 C 0.08345 0.70285 0.01337 0.0
H1020 H 0.12589 0.6508 0.02086 0.0
H1021 H 0.89169 0.79816 0.01438 0.0
H1022 H 0.46668 0.34819 0.63183 0.0
H1023 H 0.4714 0.32531 0.56714 0.0
H1024 H 0.53971 0.28115 0.61693 0.0
H1025 H 0.53461 0.30333 0.68143 0.0
H1026 H 0.55068 0.29909 0.53846 0.0
H1027 H 0.4764 0.2563 0.61375 0.0
H1028 H 0.43098 0.25508 0.64984 0.0
H1029 H 0.38853 0.28093 0.54263 0.0
H1030 H 0.4338 0.28271 0.5061 0.0
H1031 H 0.56107 0.18857 0.41587 0.0
H1032 H 0.55785 0.2214 0.46829 0.0
H1033 H 0.47985 0.24809 0.41627 0.0
H1034 H 0.48228 0.21441 0.36538 0.0
H1035 H 0.47254 0.24385 0.49127 0.0
H1036 H 0.54489 0.28309 0.41286 0.0
H1037 H 0.5898 0.28599 0.37573 0.0
H1038 H 0.63524 0.26947 0.48501 0.0
H1039 H 0.59058 0.26613 0.5227 0.0
C1040 C 0.48267 0.33361 0.62877 0.0
C1041 C 0.50053 0.32774 0.66132 0.0
C1042 C 0.48543 0.32066 0.59191 0.0
C1043 C 0.50602 0.30166 0.58729 0.0
C1044 C 0.52396 0.29598 0.61972 0.0
C1045 C 0.52108 0.30873 0.6565 0.0
C1046 C 0.50822 0.28662 0.54952 0.0
C1047 C 0.53369 0.28691 0.52805 0.0
C1048 C 0.48574 0.27135 0.53553 0.0
C1049 C 0.45851 0.26991 0.55735 0.0
C1050 C 0.4574 0.26191 0.59797 0.0
C1051 C 0.43169 0.26109 0.6185 0.0
C1052 C 0.40689 0.26799 0.59858 0.0
C1053 C 0.40776 0.27564 0.55805 0.0
C1054 C 0.43343 0.27655 0.53742 0.0
C1055 C 0.54352 0.20174 0.41533 0.0
C1056 C 0.52189 0.19894 0.38676 0.0
C1057 C 0.54172 0.22061 0.44517 0.0
C1058 C 0.5187 0.23748 0.44613 0.0
C1059 C 0.49774 0.23529 0.41639 0.0
C1060 C 0.49918 0.21608 0.38724 0.0
C1061 C 0.51525 0.256 0.47988 0.0
C1062 C 0.48951 0.25631 0.50089 0.0
C1063 C 0.53741 0.27206 0.49307 0.0
C1064 C 0.56435 0.27418 0.47054 0.0
C1065 C 0.56444 0.27991 0.42892 0.0
C1066 C 0.58986 0.28166 0.40778 0.0
C1067 C 0.61535 0.27787 0.42798 0.0
C1068 C 0.61548 0.27239 0.46939 0.0
C1069 C 0.59012 0.2706 0.49068 0.0
H1070 H 0.63501 0.27922 0.41156 0.0
H1071 H 0.387 0.26735 0.61452 0.0
H1072 H 0.55354 0.84984 0.86891 0.0
H1073 H 0.55049 0.82745 0.93427 0.0
H1074 H 0.47737 0.78664 0.89203 0.0
H1075 H 0.48119 0.80771 0.82645 0.0
H1076 H 0.47359 0.8081 0.97455 0.0
H1077 H 0.53404 0.75727 0.88605 0.0
H1078 H 0.57562 0.75165 0.84228 0.0
H1079 H 0.62981 0.77193 0.94123 0.0
H1080 H 0.58846 0.77812 0.98541 0.0
H1081 H 0.45435 0.69675 0.09065 0.0
H1082 H 0.45975 0.73038 0.04006 0.0
H1083 H 0.54428 0.74468 0.08227 0.0
H1084 H 0.5394 0.71026 0.1316 0.0
H1085 H 0.54563 0.74255 0.00587 0.0
H1086 H 0.48762 0.78783 0.09791 0.0
H1087 H 0.44734 0.79569 0.14326 0.0
H1088 H 0.39054 0.78939 0.04266 0.0
H1089 H 0.43045 0.78112 0.99676 0.0
C1090 C 0.53685 0.8361 0.87372 0.0
C1091 C 0.51737 0.83078 0.84284 0.0
C1092 C 0.53502 0.8235 0.91101 0.0
C1093 C 0.51352 0.80565 0.91791 0.0
C1094 C 0.49381 0.80068 0.88741 0.0
C1095 C 0.49594 0.81286 0.85004 0.0
C1096 C 0.5124 0.79067 0.95575 0.0
C1097 C 0.48925 0.79371 0.98158 0.0
C1098 C 0.53335 0.77255 0.96527 0.0
C1099 C 0.55817 0.76847 0.93886 0.0
C1100 C 0.55481 0.76076 0.89836 0.0
C1101 C 0.57833 0.75743 0.8735 0.0
C1102 C 0.60533 0.76151 0.88892 0.0
C1103 C 0.60887 0.76884 0.92929 0.0
C1104 C 0.58541 0.77226 0.95426 0.0
C1105 C 0.47393 0.7073 0.08946 0.0
C1106 C 0.49648 0.70082 0.11494 0.0
C1107 C 0.47697 0.72665 0.06068 0.0
C1108 C 0.50234 0.74036 0.05758 0.0
C1109 C 0.52454 0.73439 0.08395 0.0
C1110 C 0.52171 0.71473 0.11218 0.0
C1111 C 0.5064 0.75952 0.02491 0.0
C1112 C 0.53013 0.75724 -0.00026 0.0
C1113 C 0.48617 0.77865 0.01647 0.0
C1114 C 0.46205 0.78367 0.04392 0.0
C1115 C 0.46653 0.78794 0.08549 0.0
C1116 C 0.44376 0.79249 0.11129 0.0
C1117 C 0.4164 0.79299 0.09586 0.0
C1118 C 0.41175 0.78899 0.05457 0.0
C1119 C 0.43445 0.7844 0.02863 0.0
H1120 H 0.3988 0.79652 0.11589 0.0
H1121 H 0.62352 0.75892 0.86963 0.0
H1122 H 0.98028 0.31781 0.57948 0.0
H1123 H 0.97741 0.28458 0.52823 0.0
H1124 H 0.05492 0.25181 0.57223 0.0
H1125 H 0.05863 0.28605 0.62258 0.0
H1126 H 0.05556 0.25052 0.49465 0.0
H1127 H 0.98803 0.22433 0.59205 0.0
H1128 H 0.94805 0.22878 0.63911 0.0
H1129 H 0.89328 0.24646 0.53959 0.0
H1130 H 0.93301 0.24249 0.49196 0.0
H1131 H 0.02856 0.14284 0.36535 0.0
H1132 H 0.03349 0.1666 0.42919 0.0
H1133 H 0.97198 0.22113 0.3877 0.0
H1134 H 0.96777 0.19805 0.32363 0.0
H1135 H 0.96549 0.20492 0.47106 0.0
H1136 H 0.03679 0.23529 0.37615 0.0
H1137 H 0.07726 0.22853 0.33067 0.0
H1138 H 0.1258 0.19935 0.43008 0.0
H1139 H 0.08538 0.20549 0.47602 0.0
C1140 C 0.9967 0.30349 0.57837 0.0
C1141 C 0.01959 0.30441 0.60523 0.0
C1142 C 0.99493 0.28436 0.54919 0.0
C1143 C 0.01554 0.26522 0.54698 0.0
C1144 C 0.03865 0.26625 0.57351 0.0
C1145 C 0.04075 0.28578 0.60226 0.0
C1146 C 0.01315 0.2447 0.51611 0.0
C1147 C 0.03603 0.24017 0.49016 0.0
C1148 C 0.98766 0.23115 0.50996 0.0
C1149 C 0.96357 0.23324 0.53844 0.0
C1150 C 0.9675 0.2293 0.58021 0.0
C1151 C 0.94487 0.23172 0.60699 0.0
C1152 C 0.91816 0.23793 0.59236 0.0
C1153 C 0.91399 0.24165 0.55089 0.0
C1154 C 0.93655 0.23927 0.52397 0.0
C1155 C 0.01594 0.15976 0.37021 0.0
C1156 C 0.99757 0.16851 0.33993 0.0
C1157 C 0.01873 0.17324 0.40653 0.0
C1158 C 1.00304 0.19554 0.41304 0.0
C1159 C 0.98404 0.20381 0.38334 0.0
C1160 C 0.98155 0.19056 0.34689 0.0
C1161 C 0.00758 0.21139 0.44947 0.0
C1162 C 0.98511 0.21498 0.47632 0.0
C1163 C 0.03353 0.22372 0.45685 0.0
C1164 C 0.05798 0.22057 0.4294 0.0
C1165 C 0.05602 0.22725 0.38824 0.0
C1166 C 0.07895 0.22355 0.36239 0.0
C1167 C 0.10406 0.21345 0.37745 0.0
C1168 C 0.10632 0.20712 0.41844 0.0
C1169 C 0.08341 0.2107 0.44439 0.0
H1170 H 0.12179 0.21059 0.35739 0.0
H1171 H 0.90067 0.23983 0.61315 0.0
H1172 H 0.44964 0.28539 0.87883 0.0
H1173 H 0.45126 0.25135 0.92961 0.0
H1174 H 0.53545 0.27429 0.96262 0.0
H1175 H 0.5344 0.30742 0.91103 0.0
H1176 H 0.5335 0.22552 0.96229 0.0
H1177 H 0.47429 0.29156 0.01808 0.0
H1178 H 0.4338 0.32096 0.01944 0.0
H1179 H 0.37694 0.25735 0.01408 0.0
H1180 H 0.41715 0.22758 0.01219 0.0
H1181 H 0.54332 0.19391 0.17134 0.0
H1182 H 0.53798 0.21565 0.10627 0.0
H1183 H 0.47025 0.16469 0.0745 0.0
H1184 H 0.47651 0.1419 0.139 0.0
H1185 H 0.45991 0.22116 0.06866 0.0
H1186 H 0.52284 0.15541 0.02394 0.0
H1187 H 0.56531 0.12855 0.0278 0.0
H1188 H 0.61756 0.19511 0.01788 0.0
H1189 H 0.57538 0.22243 0.01461 0.0
C1190 C 0.46851 0.28307 0.89684 0.0
C1191 C 0.49184 0.29917 0.89104 0.0
C1192 C 0.46938 0.26367 0.92594 0.0
C1193 C 0.49334 0.26045 0.95039 0.0
C1194 C 0.51675 0.27629 0.9441 0.0
C1195 C 0.51608 0.29533 0.91465 0.0
C1196 C 0.49412 0.24111 0.98328 0.0
C1197 C 0.51742 0.22467 0.98558 0.0
C1198 C 0.47287 0.23953 0.01331 0.0
C1199 C 0.4487 0.25738 0.01447 0.0
C1200 C 0.45315 0.28386 0.01687 0.0
C1201 C 0.43026 0.30059 0.0178 0.0
C1202 C 0.40282 0.29103 0.0167 0.0
C1203 C 0.39821 0.26473 0.01482 0.0
C1204 C 0.42104 0.24792 0.01383 0.0
C1205 C 0.52791 0.18681 0.14998 0.0
C1206 C 0.51068 0.16592 0.15978 0.0
C1207 C 0.5247 0.19938 0.11304 0.0
C1208 C 0.50384 0.19162 0.08566 0.0
C1209 C 0.48653 0.17083 0.0953 0.0
C1210 C 0.49012 0.15789 0.13199 0.0
C1211 C 0.49953 0.20623 0.04793 0.0
C1212 C 0.47563 0.22175 0.04484 0.0
C1213 C 0.52048 0.20737 0.01767 0.0
C1214 C 0.54592 0.19098 0.01934 0.0
C1215 C 0.54338 0.16434 0.02293 0.0
C1216 C 0.56741 0.14903 0.02494 0.0
C1217 C 0.59412 0.16012 0.02316 0.0
C1218 C 0.59685 0.18655 0.01928 0.0
C1219 C 0.57288 0.20195 0.01729 0.0
H1220 H 0.6127 0.14823 0.02473 0.0
H1221 H 0.38512 0.30401 0.01743 0.0
H1222 H 0.98411 0.71523 0.36838 0.0
H1223 H 0.98197 0.74669 0.42288 0.0
H1224 H 0.06508 0.72475 0.46194 0.0
H1225 H 0.06757 0.69333 0.40704 0.0
H1226 H 0.02174 0.72193 0.52229 0.0
H1227 H 0.05792 0.78088 0.4229 0.0
H1228 H 0.05816 0.80295 0.35695 0.0
H1229 H 0.97637 0.83399 0.38179 0.0
H1230 H 0.97546 0.8118 0.44767 0.0
H1231 H 0.04008 0.8067 0.68151 0.0
H1232 H 0.04568 0.78345 0.61846 0.0
H1233 H 0.97097 0.8194 0.57088 0.0
H1234 H 0.96656 0.84446 0.63349 0.0
H1235 H 0.00888 0.81569 0.5131 0.0
H1236 H 0.97006 0.75776 0.6088 0.0
H1237 H 0.96576 0.73476 0.67364 0.0
H1238 H 0.04653 0.70013 0.65453 0.0
H1239 H 0.05152 0.72323 0.58983 0.0
C1240 C 1.00216 0.71741 0.38812 0.0
C1241 C 0.02596 0.70172 0.38363 0.0
C1242 C 1.00092 0.73546 0.4191 0.0
C1243 C 0.02336 0.73798 0.44633 0.0
C1244 C 0.04759 0.72305 0.44107 0.0
C1245 C 0.04903 0.70522 0.40966 0.0
C1246 C 0.02032 0.75439 0.48246 0.0
C1247 C 0.01945 0.74249 0.52043 0.0
C1248 C 0.01592 0.781 0.47958 0.0
C1249 C 0.01652 0.79448 0.44007 0.0
C1250 C 0.03988 0.79223 0.41416 0.0
C1251 C 0.04016 0.8048 0.37682 0.0
C1252 C 0.01727 0.81982 0.36514 0.0
C1253 C 0.99408 0.82234 0.39085 0.0
C1254 C 0.99369 0.80979 0.42822 0.0
C1255 C 0.02525 0.81025 0.6573 0.0
C1256 C 1.00314 0.82774 0.66217 0.0
C1257 C 0.02819 0.79656 0.62144 0.0
C1258 C 0.00847 0.7993 0.59014 0.0
C1259 C 0.98641 0.81692 0.59468 0.0
C1260 C 0.98377 0.83106 0.63048 0.0
C1261 C 0.01083 0.78329 0.55323 0.0
C1262 C 0.01131 0.79515 0.51509 0.0
C1263 C 0.01423 0.75648 0.55578 0.0
C1264 C 0.01126 0.74241 0.59461 0.0
C1265 C 0.987 0.74538 0.61855 0.0
C1266 C 0.98443 0.73231 0.65527 0.0
C1267 C 0.00588 0.71604 0.66824 0.0
C1268 C 0.02993 0.71276 0.64447 0.0
C1269 C 0.03264 0.72582 0.60774 0.0
H1270 H 0.00385 0.70593 0.69668 0.0
H1271 H 0.01752 0.82953 0.33622 0.0
loop_
_geom_bond_atom_site_label_1
_geom_bond_atom_site_label_2
_geom_bond_distance
_geom_bond_site_symmetry_2
_ccdc_geom_bond_type
Co0 O3 1.970 . S
Co0 N17 1.989 . S
Co0 O25 1.967 . S
Co0 O32 1.920 . S
Co1 O4 1.966 . S
Co1 N10 2.022 . S
Co1 N18 1.993 . S
Co1 O26 1.941 . S
C2 O3 1.272 . S
C2 O4 1.250 1_655 S
O3 Co0 1.970 . S
O3 C2 1.272 . S
O4 Co1 1.966 . S
O4 C2 1.250 1_455 S
C5 O6 1.235 . S
C5 O32 1.289 . S
O6 C5 1.235 . S
C7 C9 1.400 . S
C7 N10 1.351 . S
C7 C12 1.501 . S
C8 C9 1.387 . S
C8 N11 1.341 . S
C9 C7 1.400 . S
C9 C8 1.387 . S
N10 Co1 2.022 . S
N10 C7 1.351 . S
N10 N11 1.365 . S
N11 C8 1.341 . S
N11 N10 1.365 . S
N11 H31 0.862 . S
C12 C7 1.501 . S
C12 H13 0.961 . S
C12 H14 0.961 . S
C12 H15 0.960 . S
H13 C12 0.961 . S
H14 C12 0.961 . S
H15 C12 0.960 . S
C16 N17 1.342 . S
C16 C20 1.402 1_655 S
C16 C21 1.499 . S
N17 Co0 1.989 . S
N17 C16 1.342 . S
N17 N18 1.388 1_655 S
N18 Co1 1.993 . S
N18 N17 1.388 1_455 S
N18 C19 1.346 . S
C19 N18 1.346 . S
C19 C20 1.395 . S
C19 C29 1.510 . S
C20 C16 1.402 1_455 S
C20 C19 1.395 . S
C21 C16 1.499 . S
C21 H22 0.959 . S
C21 H23 0.960 . S
C21 H24 0.961 . S
H22 C21 0.959 . S
H23 C21 0.960 . S
H24 C21 0.961 . S
O25 Co0 1.967 . S
O25 C33 1.258 . S
O26 Co1 1.941 . S
O26 C33 1.266 1_455 S
H27 C29 0.959 . S
H28 C29 0.961 . S
C29 C19 1.510 . S
C29 H27 0.959 . S
C29 H28 0.961 . S
C29 H30 0.960 . S
H30 C29 0.960 . S
H31 N11 0.862 . S
O32 Co0 1.920 . S
O32 C5 1.289 . S
C33 O25 1.258 . S
C33 O26 1.266 1_655 S
Co34 O37 1.970 . S
Co34 N51 1.989 . S
Co34 O59 1.967 . S
Co34 O66 1.920 . S
Co35 O38 1.966 . S
Co35 N44 2.022 . S
Co35 N52 1.993 . S
Co35 O60 1.941 . S
C36 O37 1.258 . S
C36 O38 1.263 . S
O37 Co34 1.970 . S
O37 C36 1.258 . S
O38 Co35 1.966 . S
O38 C36 1.263 . S
C39 O40 1.235 . S
C39 O66 1.289 . S
O40 C39 1.235 . S
C41 C43 1.400 . S
C41 N44 1.351 . S
C41 C46 1.501 . S
C42 C43 1.387 . S
C42 N45 1.341 . S
C43 C41 1.400 . S
C43 C42 1.387 . S
N44 Co35 2.022 . S
N44 C41 1.351 . S
N44 N45 1.365 . S
N45 C42 1.341 . S
N45 N44 1.365 . S
N45 H65 0.862 . S
C46 C41 1.501 . S
C46 H47 0.961 . S
C46 H48 0.961 . S
C46 H49 0.960 . S
H47 C46 0.961 . S
H48 C46 0.961 . S
H49 C46 0.960 . S
C50 N51 1.342 . S
C50 C54 1.401 . S
C50 C55 1.499 . S
N51 Co34 1.989 . S
N51 C50 1.342 . S
N51 N52 1.388 . S
N52 Co35 1.993 . S
N52 N51 1.388 . S
N52 C53 1.346 . S
C53 N52 1.346 . S
C53 C54 1.396 . S
C53 C63 1.510 . S
C54 C50 1.401 . S
C54 C53 1.396 . S
C55 C50 1.499 . S
C55 H56 0.959 . S
C55 H57 0.960 . S
C55 H58 0.961 . S
H56 C55 0.959 . S
H57 C55 0.960 . S
H58 C55 0.961 . S
O59 Co34 1.967 . S
O59 C67 1.258 . S
O60 Co35 1.941 . S
O60 C67 1.266 . S
H61 C63 0.959 . S
H62 C63 0.961 . S
C63 C53 1.510 . S
C63 H61 0.959 . S
C63 H62 0.961 . S
C63 H64 0.960 . S
H64 C63 0.960 . S
H65 N45 0.862 . S
O66 Co34 1.920 . S
O66 C39 1.289 . S
C67 O59 1.258 . S
C67 O60 1.266 . S
Co68 O71 1.970 . S
Co68 N85 1.989 . S
Co68 O93 1.967 . S
Co68 O100 1.920 . S
Co69 O72 1.966 . S
Co69 N78 2.022 . S
Co69 N86 1.993 . S
Co69 O94 1.941 . S
C70 O71 1.272 . S
C70 O72 1.250 1_655 S
O71 Co68 1.970 . S
O71 C70 1.272 . S
O72 Co69 1.966 . S
O72 C70 1.250 1_455 S
C73 O74 1.235 . S
C73 O100 1.289 . S
O74 C73 1.235 . S
C75 C77 1.400 . S
C75 N78 1.351 . S
C75 C80 1.501 . S
C76 C77 1.387 . S
C76 N79 1.341 . S
C77 C75 1.400 . S
C77 C76 1.387 . S
N78 Co69 2.022 . S
N78 C75 1.351 . S
N78 N79 1.365 . S
N79 C76 1.341 . S
N79 N78 1.365 . S
N79 H99 0.862 . S
C80 C75 1.501 . S
C80 H81 0.961 . S
C80 H82 0.961 . S
C80 H83 0.960 . S
H81 C80 0.961 . S
H82 C80 0.961 . S
H83 C80 0.960 . S
C84 N85 1.342 . S
C84 C88 1.402 1_655 S
C84 C89 1.499 . S
N85 Co68 1.989 . S
N85 C84 1.342 . S
N85 N86 1.388 1_655 S
N86 Co69 1.993 . S
N86 N85 1.388 1_455 S
N86 C87 1.346 . S
C87 N86 1.346 . S
C87 C88 1.395 . S
C87 C97 1.510 . S
C88 C84 1.402 1_455 S
C88 C87 1.395 . S
C89 C84 1.499 . S
C89 H90 0.959 . S
C89 H91 0.960 . S
C89 H92 0.961 . S
H90 C89 0.959 . S
H91 C89 0.960 . S
H92 C89 0.961 . S
O93 Co68 1.967 . S
O93 C101 1.258 . S
O94 Co69 1.941 . S
O94 C101 1.266 1_455 S
H95 C97 0.959 . S
H96 C97 0.961 . S
C97 C87 1.510 . S
C97 H95 0.959 . S
C97 H96 0.961 . S
C97 H98 0.960 . S
H98 C97 0.960 . S
H99 N79 0.862 . S
O100 Co68 1.920 . S
O100 C73 1.289 . S
C101 O93 1.258 . S
C101 O94 1.266 1_655 S
Co102 O105 1.970 . S
Co102 N119 1.989 . S
Co102 O127 1.967 . S
Co102 O134 1.920 . S
Co103 O106 1.966 . S
Co103 N112 2.022 . S
Co103 N120 1.993 . S
Co103 O128 1.941 . S
C104 O105 1.258 . S
C104 O106 1.263 . S
O105 Co102 1.970 . S
O105 C104 1.258 . S
O106 Co103 1.966 . S
O106 C104 1.263 . S
C107 O108 1.235 . S
C107 O134 1.289 . S
O108 C107 1.235 . S
C109 C111 1.400 . S
C109 N112 1.351 . S
C109 C114 1.501 . S
C110 C111 1.387 . S
C110 N113 1.341 . S
C111 C109 1.400 . S
C111 C110 1.387 . S
N112 Co103 2.022 . S
N112 C109 1.351 . S
N112 N113 1.365 . S
N113 C110 1.341 . S
N113 N112 1.365 . S
N113 H133 0.862 . S
C114 C109 1.501 . S
C114 H115 0.961 . S
C114 H116 0.961 . S
C114 H117 0.960 . S
H115 C114 0.961 . S
H116 C114 0.961 . S
H117 C114 0.960 . S
C118 N119 1.342 . S
C118 C122 1.401 . S
C118 C123 1.499 . S
N119 Co102 1.989 . S
N119 C118 1.342 . S
N119 N120 1.388 . S
N120 Co103 1.993 . S
N120 N119 1.388 . S
N120 C121 1.346 . S
C121 N120 1.346 . S
C121 C122 1.396 . S
C121 C131 1.510 . S
C122 C118 1.401 . S
C122 C121 1.396 . S
C123 C118 1.499 . S
C123 H124 0.959 . S
C123 H125 0.960 . S
C123 H126 0.961 . S
H124 C123 0.959 . S
H125 C123 0.960 . S
H126 C123 0.961 . S
O127 Co102 1.967 . S
O127 C135 1.258 . S
O128 Co103 1.941 . S
O128 C135 1.266 . S
H129 C131 0.959 . S
H130 C131 0.961 . S
C131 C121 1.510 . S
C131 H129 0.959 . S
C131 H130 0.961 . S
C131 H132 0.960 . S
H132 C131 0.960 . S
H133 N113 0.862 . S
O134 Co102 1.920 . S
O134 C107 1.289 . S
C135 O127 1.258 . S
C135 O128 1.266 . S
Co136 O139 1.970 . S
Co136 N153 1.989 . S
Co136 O161 1.967 . S
Co136 O168 1.920 . S
Co137 O140 1.966 . S
Co137 N146 2.022 . S
Co137 N154 1.993 . S
Co137 O162 1.941 . S
C138 O139 1.258 . S
C138 O140 1.263 . S
O139 Co136 1.970 . S
O139 C138 1.258 . S
O140 Co137 1.966 . S
O140 C138 1.263 . S
C141 O142 1.235 . S
C141 O168 1.289 . S
O142 C141 1.235 . S
C143 C145 1.400 . S
C143 N146 1.351 . S
C143 C148 1.501 . S
C144 C145 1.387 . S
C144 N147 1.341 . S
C145 C143 1.400 . S
C145 C144 1.387 . S
N146 Co137 2.022 . S
N146 C143 1.351 . S
N146 N147 1.365 . S
N147 C144 1.341 . S
N147 N146 1.365 . S
N147 H167 0.862 . S
C148 C143 1.501 . S
C148 H149 0.961 . S
C148 H150 0.961 . S
C148 H151 0.960 . S
H149 C148 0.961 . S
H150 C148 0.961 . S
H151 C148 0.960 . S
C152 N153 1.342 . S
C152 C156 1.401 . S
C152 C157 1.499 . S
N153 Co136 1.989 . S
N153 C152 1.342 . S
N153 N154 1.388 . S
N154 Co137 1.993 . S
N154 N153 1.388 . S
N154 C155 1.346 . S
C155 N154 1.346 . S
C155 C156 1.396 . S
C155 C165 1.510 . S
C156 C152 1.401 . S
C156 C155 1.396 . S
C157 C152 1.499 . S
C157 H158 0.959 . S
C157 H159 0.960 . S
C157 H160 0.961 . S
H158 C157 0.959 . S
H159 C157 0.960 . S
H160 C157 0.961 . S
O161 Co136 1.967 . S
O161 C169 1.258 . S
O162 Co137 1.941 . S
O162 C169 1.266 . S
H163 C165 0.959 . S
H164 C165 0.961 . S
C165 C155 1.510 . S
C165 H163 0.959 . S
C165 H164 0.961 . S
C165 H166 0.960 . S
H166 C165 0.960 . S
H167 N147 0.862 . S
O168 Co136 1.920 . S
O168 C141 1.289 . S
C169 O161 1.258 . S
C169 O162 1.266 . S
Co170 O173 1.970 . S
Co170 N187 1.989 . S
Co170 O195 1.967 . S
Co170 O202 1.920 . S
Co171 O174 1.966 . S
Co171 N180 2.022 . S
Co171 N188 1.993 . S
Co171 O196 1.941 . S
C172 O173 1.258 . S
C172 O174 1.263 1_455 S
O173 Co170 1.970 . S
O173 C172 1.258 . S
O174 Co171 1.966 . S
O174 C172 1.263 1_655 S
C175 O176 1.235 . S
C175 O202 1.289 . S
O176 C175 1.235 . S
C177 C179 1.400 . S
C177 N180 1.351 . S
C177 C182 1.501 . S
C178 C179 1.387 . S
C178 N181 1.341 . S
C179 C177 1.400 . S
C179 C178 1.387 . S
N180 Co171 2.022 . S
N180 C177 1.351 . S
N180 N181 1.365 . S
N181 C178 1.341 . S
N181 N180 1.365 . S
N181 H201 0.862 . S
C182 C177 1.501 . S
C182 H183 0.961 . S
C182 H184 0.961 . S
C182 H185 0.960 . S
H183 C182 0.961 . S
H184 C182 0.961 . S
H185 C182 0.960 . S
C186 N187 1.342 . S
C186 C190 1.401 . S
C186 C191 1.499 . S
N187 Co170 1.989 . S
N187 C186 1.342 . S
N187 N188 1.388 1_455 S
N188 Co171 1.993 . S
N188 N187 1.388 1_655 S
N188 C189 1.346 . S
C189 N188 1.346 . S
C189 C190 1.396 1_655 S
C189 C199 1.510 . S
C190 C186 1.401 . S
C190 C189 1.396 1_455 S
C191 C186 1.499 . S
C191 H192 0.959 . S
C191 H193 0.960 . S
C191 H194 0.961 . S
H192 C191 0.959 . S
H193 C191 0.960 . S
H194 C191 0.961 . S
O195 Co170 1.967 . S
O195 C203 1.258 . S
O196 Co171 1.941 . S
O196 C203 1.266 1_655 S
H197 C199 0.959 . S
H198 C199 0.961 . S
C199 C189 1.510 . S
C199 H197 0.959 . S
C199 H198 0.961 . S
C199 H200 0.960 . S
H200 C199 0.960 . S
H201 N181 0.862 . S
O202 Co170 1.920 . S
O202 C175 1.289 . S
C203 O195 1.258 . S
C203 O196 1.266 1_455 S
Co204 O207 1.970 . S
Co204 N221 1.989 . S
Co204 O229 1.967 . S
Co204 O236 1.920 . S
Co205 O208 1.966 . S
Co205 N214 2.022 . S
Co205 N222 1.993 . S
Co205 O230 1.941 . S
C206 O207 1.258 . S
C206 O208 1.263 . S
O207 Co204 1.970 . S
O207 C206 1.258 . S
O208 Co205 1.966 . S
O208 C206 1.263 . S
C209 O210 1.235 . S
C209 O236 1.289 . S
O210 C209 1.235 . S
C211 C213 1.400 . S
C211 N214 1.351 . S
C211 C216 1.501 . S
C212 C213 1.387 . S
C212 N215 1.341 . S
C213 C211 1.400 . S
C213 C212 1.387 . S
N214 Co205 2.022 . S
N214 C211 1.351 . S
N214 N215 1.365 . S
N215 C212 1.341 . S
N215 N214 1.365 . S
N215 H235 0.862 . S
C216 C211 1.501 . S
C216 H217 0.961 . S
C216 H218 0.961 . S
C216 H219 0.960 . S
H217 C216 0.961 . S
H218 C216 0.961 . S
H219 C216 0.960 . S
C220 N221 1.342 . S
C220 C224 1.401 . S
C220 C225 1.499 . S
N221 Co204 1.989 . S
N221 C220 1.342 . S
N221 N222 1.388 . S
N222 Co205 1.993 . S
N222 N221 1.388 . S
N222 C223 1.346 . S
C223 N222 1.346 . S
C223 C224 1.396 . S
C223 C233 1.510 . S
C224 C220 1.401 . S
C224 C223 1.396 . S
C225 C220 1.499 . S
C225 H226 0.959 . S
C225 H227 0.960 . S
C225 H228 0.961 . S
H226 C225 0.959 . S
H227 C225 0.960 . S
H228 C225 0.961 . S
O229 Co204 1.967 . S
O229 C237 1.258 . S
O230 Co205 1.941 . S
O230 C237 1.266 . S
H231 C233 0.959 . S
H232 C233 0.961 . S
C233 C223 1.510 . S
C233 H231 0.959 . S
C233 H232 0.961 . S
C233 H234 0.960 . S
H234 C233 0.960 . S
H235 N215 0.862 . S
O236 Co204 1.920 . S
O236 C209 1.289 . S
C237 O229 1.258 . S
C237 O230 1.266 . S
Co238 O241 1.970 . S
Co238 N255 1.989 . S
Co238 O263 1.967 . S
Co238 O270 1.920 . S
Co239 O242 1.966 . S
Co239 N248 2.022 . S
Co239 N256 1.993 . S
Co239 O264 1.941 . S
C240 O241 1.258 . S
C240 O242 1.263 1_455 S
O241 Co238 1.970 . S
O241 C240 1.258 . S
O242 Co239 1.966 . S
O242 C240 1.263 1_655 S
C243 O244 1.235 . S
C243 O270 1.289 . S
O244 C243 1.235 . S
C245 C247 1.400 . S
C245 N248 1.351 . S
C245 C250 1.501 . S
C246 C247 1.387 . S
C246 N249 1.341 . S
C247 C245 1.400 . S
C247 C246 1.387 . S
N248 Co239 2.022 . S
N248 C245 1.351 . S
N248 N249 1.365 . S
N249 C246 1.341 . S
N249 N248 1.365 . S
N249 H269 0.862 . S
C250 C245 1.501 . S
C250 H251 0.961 . S
C250 H252 0.961 . S
C250 H253 0.960 . S
H251 C250 0.961 . S
H252 C250 0.961 . S
H253 C250 0.960 . S
C254 N255 1.342 . S
C254 C258 1.401 . S
C254 C259 1.499 . S
N255 Co238 1.989 . S
N255 C254 1.342 . S
N255 N256 1.388 1_455 S
N256 Co239 1.993 . S
N256 N255 1.388 1_655 S
N256 C257 1.346 . S
C257 N256 1.346 . S
C257 C258 1.396 1_655 S
C257 C267 1.510 . S
C258 C254 1.401 . S
C258 C257 1.396 1_455 S
C259 C254 1.499 . S
C259 H260 0.959 . S
C259 H261 0.960 . S
C259 H262 0.961 . S
H260 C259 0.959 . S
H261 C259 0.960 . S
H262 C259 0.961 . S
O263 Co238 1.967 . S
O263 C271 1.258 . S
O264 Co239 1.941 . S
O264 C271 1.266 1_655 S
H265 C267 0.959 . S
H266 C267 0.961 . S
C267 C257 1.510 . S
C267 H265 0.959 . S
C267 H266 0.961 . S
C267 H268 0.960 . S
H268 C267 0.960 . S
H269 N249 0.862 . S
O270 Co238 1.920 . S
O270 C243 1.289 . S
C271 O263 1.258 . S
C271 O264 1.266 1_455 S
H272 C290 0.951 . S
H273 C292 0.951 . S
H274 C294 0.950 . S
H275 C295 0.950 . S
H276 C297 0.950 . S
H277 C300 0.969 . S
H278 C301 0.950 . S
H279 C303 0.950 . S
H280 C304 0.950 . S
H281 C305 0.951 . S
H282 C307 0.951 . S
H283 C309 0.950 . S
H284 C310 0.950 . S
H285 C312 0.953 . S
H286 C315 0.969 . S
H287 C316 0.950 . S
H288 C318 0.950 . S
H289 C319 0.950 . S
C290 H272 0.951 . S
C290 C291 1.352 1_655 S
C290 C292 1.388 . S
C291 C290 1.352 1_455 S
C291 C295 1.399 . S
C292 H273 0.951 . S
C292 C290 1.388 . S
C292 C293 1.366 1_655 S
C293 C292 1.366 1_455 S
C293 C294 1.414 . S
C293 C296 1.499 . S
C294 H274 0.950 . S
C294 C293 1.414 . S
C294 C295 1.374 . S
C295 H275 0.950 . S
C295 C291 1.399 . S
C295 C294 1.374 . S
C296 C293 1.499 . S
C296 C297 1.373 1_556 S
C296 C298 1.389 1_565 S
C297 H276 0.950 . S
C297 C296 1.373 1_554 S
C297 C313 1.376 . S
C298 C296 1.389 1_545 S
C298 C299 1.524 . S
C298 C312 1.375 1_455 S
C299 C298 1.524 . S
C299 C300 1.397 . S
C299 C304 1.363 1_455 S
C300 H277 0.969 . S
C300 C299 1.397 . S
C300 C301 1.334 . S
C301 H278 0.950 . S
C301 C300 1.334 . S
C301 C302 1.287 . S
C302 C301 1.287 . S
C302 C303 1.524 1_455 S
C302 H321 0.913 . S
C303 H279 0.950 . S
C303 C302 1.524 1_655 S
C303 C304 1.415 . S
C304 H280 0.950 . S
C304 C299 1.363 1_655 S
C304 C303 1.415 . S
C305 H281 0.951 . S
C305 C306 1.381 . S
C305 C307 1.388 . S
C306 C305 1.381 . S
C306 C310 1.369 1_455 S
C307 H282 0.951 . S
C307 C305 1.388 . S
C307 C308 1.354 1_455 S
C308 C307 1.354 1_655 S
C308 C309 1.425 . S
C308 C311 1.499 . S
C309 H283 0.950 . S
C309 C308 1.425 . S
C309 C310 1.374 . S
C310 H284 0.950 . S
C310 C306 1.369 1_655 S
C310 C309 1.374 . S
C311 C308 1.499 . S
C311 C312 1.374 1_554 S
C311 C313 1.390 1_645 S
C312 H285 0.953 . S
C312 C298 1.375 1_655 S
C312 C311 1.374 1_556 S
C313 C297 1.376 . S
C313 C311 1.390 1_465 S
C313 C314 1.525 1_455 S
C314 C313 1.525 1_655 S
C314 C315 1.397 . S
C314 C319 1.363 1_655 S
C315 H286 0.969 . S
C315 C314 1.397 . S
C315 C316 1.334 . S
C316 H287 0.950 . S
C316 C315 1.334 . S
C316 C317 1.287 . S
C317 C316 1.287 . S
C317 C318 1.524 1_655 S
C317 H320 0.999 . S
C318 H288 0.950 . S
C318 C317 1.524 1_455 S
C318 C319 1.415 . S
C319 H289 0.950 . S
C319 C314 1.363 1_455 S
C319 C318 1.415 . S
H320 C317 0.999 . S
H321 C302 0.913 . S
H322 C340 0.951 . S
H323 C342 0.951 . S
H324 C344 0.950 . S
H325 C345 0.950 . S
H326 C347 0.950 . S
H327 C350 0.950 . S
H328 C351 0.950 . S
H329 C353 0.950 . S
H330 C354 0.950 . S
H331 C355 0.951 . S
H332 C357 0.951 . S
H333 C359 0.950 . S
H334 C360 0.950 . S
H335 C362 0.950 . S
H336 C365 0.950 . S
H337 C366 0.950 . S
H338 C368 0.950 . S
H339 C369 0.950 . S
C340 H322 0.951 . S
C340 C341 1.366 . S
C340 C342 1.388 . S
C341 C340 1.366 . S
C341 C345 1.385 . S
C342 H323 0.951 . S
C342 C340 1.388 . S
C342 C343 1.366 . S
C343 C342 1.366 . S
C343 C344 1.414 . S
C343 C346 1.499 . S
C344 H324 0.950 . S
C344 C343 1.414 . S
C344 C345 1.374 . S
C345 H325 0.950 . S
C345 C341 1.385 . S
C345 C344 1.374 . S
C346 C343 1.499 . S
C346 C347 1.373 . S
C346 C348 1.389 . S
C347 H326 0.950 . S
C347 C346 1.373 . S
C347 C363 1.377 1_545 S
C348 C346 1.389 . S
C348 C349 1.524 . S
C348 C362 1.377 1_545 S
C349 C348 1.524 . S
C349 C350 1.397 . S
C349 C354 1.363 . S
C350 H327 0.950 . S
C350 C349 1.397 . S
C350 C351 1.334 . S
C351 H328 0.950 . S
C351 C350 1.334 . S
C351 C352 1.287 . S
C352 C351 1.287 . S
C352 C353 1.524 . S
C352 H371 0.913 . S
C353 H329 0.950 . S
C353 C352 1.524 . S
C353 C354 1.415 . S
C354 H330 0.950 . S
C354 C349 1.363 . S
C354 C353 1.415 . S
C355 H331 0.951 . S
C355 C356 1.366 . S
C355 C357 1.388 . S
C356 C355 1.366 . S
C356 C360 1.385 . S
C357 H332 0.951 . S
C357 C355 1.388 . S
C357 C358 1.366 . S
C358 C357 1.366 . S
C358 C359 1.414 . S
C358 C361 1.499 . S
C359 H333 0.950 . S
C359 C358 1.414 . S
C359 C360 1.374 . S
C360 H334 0.950 . S
C360 C356 1.385 . S
C360 C359 1.374 . S
C361 C358 1.499 . S
C361 C362 1.373 . S
C361 C363 1.389 . S
C362 H335 0.950 . S
C362 C348 1.377 1_565 S
C362 C361 1.373 . S
C363 C347 1.377 1_565 S
C363 C361 1.389 . S
C363 C364 1.524 . S
C364 C363 1.524 . S
C364 C365 1.397 . S
C364 C369 1.363 . S
C365 H336 0.950 . S
C365 C364 1.397 . S
C365 C366 1.334 . S
C366 H337 0.950 . S
C366 C365 1.334 . S
C366 C367 1.287 . S
C367 C366 1.287 . S
C367 C368 1.524 . S
C367 H370 0.999 . S
C368 H338 0.950 . S
C368 C367 1.524 . S
C368 C369 1.415 . S
C369 H339 0.950 . S
C369 C364 1.363 . S
C369 C368 1.415 . S
H370 C367 0.999 . S
H371 C352 0.913 . S
H372 C390 0.951 . S
H373 C392 0.951 . S
H374 C394 0.950 . S
H375 C395 0.950 . S
H376 C397 0.950 . S
H377 C400 0.950 . S
H378 C401 0.950 . S
H379 C403 0.950 . S
H380 C404 0.950 . S
H381 C405 0.951 . S
H382 C407 0.951 . S
H383 C409 0.950 . S
H384 C410 0.950 . S
H385 C412 0.950 . S
H386 C415 0.950 . S
H387 C416 0.950 . S
H388 C418 0.950 . S
H389 C419 0.950 . S
C390 H372 0.951 . S
C390 C391 1.366 . S
C390 C392 1.388 . S
C391 C390 1.366 . S
C391 C395 1.385 . S
C392 H373 0.951 . S
C392 C390 1.388 . S
C392 C393 1.366 . S
C393 C392 1.366 . S
C393 C394 1.414 . S
C393 C396 1.499 . S
C394 H374 0.950 . S
C394 C393 1.414 . S
C394 C395 1.374 . S
C395 H375 0.950 . S
C395 C391 1.385 . S
C395 C394 1.374 . S
C396 C393 1.499 . S
C396 C397 1.373 . S
C396 C398 1.389 . S
C397 H376 0.950 . S
C397 C396 1.373 . S
C397 C413 1.377 1_554 S
C398 C396 1.389 . S
C398 C399 1.524 . S
C398 C412 1.377 1_554 S
C399 C398 1.524 . S
C399 C400 1.397 . S
C399 C404 1.363 1_554 S
C400 H377 0.950 . S
C400 C399 1.397 . S
C400 C401 1.334 . S
C401 H378 0.950 . S
C401 C400 1.334 . S
C401 C402 1.287 . S
C402 C401 1.287 . S
C402 C403 1.524 1_554 S
C402 H421 0.913 . S
C403 H379 0.950 . S
C403 C402 1.524 1_556 S
C403 C404 1.415 . S
C404 H380 0.950 . S
C404 C399 1.363 1_556 S
C404 C403 1.415 . S
C405 H381 0.951 . S
C405 C406 1.366 . S
C405 C407 1.388 . S
C406 C405 1.366 . S
C406 C410 1.385 . S
C407 H382 0.951 . S
C407 C405 1.388 . S
C407 C408 1.366 . S
C408 C407 1.366 . S
C408 C409 1.414 . S
C408 C411 1.499 . S
C409 H383 0.950 . S
C409 C408 1.414 . S
C409 C410 1.374 . S
C410 H384 0.950 . S
C410 C406 1.385 . S
C410 C409 1.374 . S
C411 C408 1.499 . S
C411 C412 1.373 . S
C411 C413 1.389 . S
C412 H385 0.950 . S
C412 C398 1.377 1_556 S
C412 C411 1.373 . S
C413 C397 1.377 1_556 S
C413 C411 1.389 . S
C413 C414 1.524 . S
C414 C413 1.524 . S
C414 C415 1.397 . S
C414 C419 1.363 1_556 S
C415 H386 0.950 . S
C415 C414 1.397 . S
C415 C416 1.334 . S
C416 H387 0.950 . S
C416 C415 1.334 . S
C416 C417 1.287 . S
C417 C416 1.287 . S
C417 C418 1.524 1_556 S
C417 H420 0.999 . S
C418 H388 0.950 . S
C418 C417 1.524 1_554 S
C418 C419 1.415 . S
C419 H389 0.950 . S
C419 C414 1.363 1_554 S
C419 C418 1.415 . S
H420 C417 0.999 . S
H421 C402 0.913 . S
H422 C440 0.957 . S
H423 C442 0.951 . S
H424 C444 0.950 . S
H425 C445 0.950 . S
H426 C447 0.950 . S
H427 C450 0.950 . S
H428 C451 0.950 . S
H429 C453 0.950 . S
H430 C454 0.950 . S
H431 C455 0.951 . S
H432 C457 0.951 . S
H433 C459 0.952 . S
H434 C460 0.953 . S
H435 C462 0.950 . S
H436 C465 0.950 . S
H437 C466 0.950 . S
H438 C468 0.950 . S
H439 C469 0.950 . S
C440 H422 0.957 . S
C440 C441 1.366 . S
C440 C442 1.388 . S
C441 C440 1.366 . S
C441 C445 1.385 . S
C442 H423 0.951 . S
C442 C440 1.388 . S
C442 C443 1.366 . S
C443 C442 1.366 . S
C443 C444 1.414 . S
C443 C446 1.499 . S
C444 H424 0.950 . S
C444 C443 1.414 . S
C444 C445 1.374 . S
C445 H425 0.950 . S
C445 C441 1.385 . S
C445 C444 1.374 . S
C446 C443 1.499 . S
C446 C447 1.373 1_455 S
C446 C448 1.389 . S
C447 H426 0.950 . S
C447 C446 1.373 1_655 S
C447 C463 1.377 . S
C448 C446 1.389 . S
C448 C449 1.524 . S
C448 C462 1.377 . S
C449 C448 1.524 . S
C449 C450 1.397 . S
C449 C454 1.363 . S
C450 H427 0.950 . S
C450 C449 1.397 . S
C450 C451 1.334 . S
C451 H428 0.950 . S
C451 C450 1.334 . S
C451 C452 1.287 . S
C452 C451 1.287 . S
C452 C453 1.524 . S
C452 H471 0.913 . S
C453 H429 0.950 . S
C453 C452 1.524 . S
C453 C454 1.415 . S
C454 H430 0.950 . S
C454 C449 1.363 . S
C454 C453 1.415 . S
C455 H431 0.951 . S
C455 C456 1.366 . S
C455 C457 1.388 . S
C456 C455 1.366 . S
C456 C460 1.385 . S
C457 H432 0.951 . S
C457 C455 1.388 . S
C457 C458 1.366 . S
C458 C457 1.366 . S
C458 C459 1.414 . S
C458 C461 1.499 . S
C459 H433 0.952 . S
C459 C458 1.414 . S
C459 C460 1.374 . S
C460 H434 0.953 . S
C460 C456 1.385 . S
C460 C459 1.374 . S
C461 C458 1.499 . S
C461 C462 1.373 . S
C461 C463 1.389 1_455 S
C462 H435 0.950 . S
C462 C448 1.377 . S
C462 C461 1.373 . S
C463 C447 1.377 . S
C463 C461 1.389 1_655 S
C463 C464 1.524 . S
C464 C463 1.524 . S
C464 C465 1.397 . S
C464 C469 1.363 . S
C465 H436 0.950 . S
C465 C464 1.397 . S
C465 C466 1.334 . S
C466 H437 0.950 . S
C466 C465 1.334 . S
C466 C467 1.287 . S
C467 C466 1.287 . S
C467 C468 1.524 . S
C467 H470 0.999 . S
C468 H438 0.950 . S
C468 C467 1.524 . S
C468 C469 1.415 . S
C469 H439 0.950 . S
C469 C464 1.363 . S
C469 C468 1.415 . S
H470 C467 0.999 . S
H471 C452 0.913 . S
H472 C490 0.951 . S
H473 C492 0.951 . S
H474 C494 0.950 . S
H475 C495 0.950 . S
H476 C497 0.950 . S
H477 C500 0.950 . S
H478 C501 0.950 . S
H479 C503 0.950 . S
H480 C504 0.950 . S
H481 C505 0.951 . S
H482 C507 0.951 . S
H483 C509 0.950 . S
H484 C510 0.950 . S
H485 C512 0.950 . S
H486 C515 0.950 . S
H487 C516 0.950 . S
H488 C518 0.950 . S
H489 C519 0.950 . S
C490 H472 0.951 . S
C490 C491 1.366 . S
C490 C492 1.388 . S
C491 C490 1.366 . S
C491 C495 1.385 . S
C492 H473 0.951 . S
C492 C490 1.388 . S
C492 C493 1.366 . S
C493 C492 1.366 . S
C493 C494 1.414 . S
C493 C496 1.499 . S
C494 H474 0.950 . S
C494 C493 1.414 . S
C494 C495 1.374 . S
C495 H475 0.950 . S
C495 C491 1.385 . S
C495 C494 1.374 . S
C496 C493 1.499 . S
C496 C497 1.373 . S
C496 C498 1.389 . S
C497 H476 0.950 . S
C497 C496 1.373 . S
C497 C513 1.377 . S
C498 C496 1.389 . S
C498 C499 1.524 . S
C498 C512 1.377 . S
C499 C498 1.524 . S
C499 C500 1.397 . S
C499 C504 1.363 . S
C500 H477 0.950 . S
C500 C499 1.397 . S
C500 C501 1.334 . S
C501 H478 0.950 . S
C501 C500 1.334 . S
C501 C502 1.287 . S
C502 C501 1.287 . S
C502 C503 1.524 . S
C502 H521 0.913 . S
C503 H479 0.950 . S
C503 C502 1.524 . S
C503 C504 1.415 . S
C504 H480 0.950 . S
C504 C499 1.363 . S
C504 C503 1.415 . S
C505 H481 0.951 . S
C505 C506 1.366 . S
C505 C507 1.388 . S
C506 C505 1.366 . S
C506 C510 1.385 . S
C507 H482 0.951 . S
C507 C505 1.388 . S
C507 C508 1.366 . S
C508 C507 1.366 . S
C508 C509 1.414 . S
C508 C511 1.499 . S
C509 H483 0.950 . S
C509 C508 1.414 . S
C509 C510 1.374 . S
C510 H484 0.950 . S
C510 C506 1.385 . S
C510 C509 1.374 . S
C511 C508 1.499 . S
C511 C512 1.373 . S
C511 C513 1.389 . S
C512 H485 0.950 . S
C512 C498 1.377 . S
C512 C511 1.373 . S
C513 C497 1.377 . S
C513 C511 1.389 . S
C513 C514 1.524 . S
C514 C513 1.524 . S
C514 C515 1.397 . S
C514 C519 1.363 . S
C515 H486 0.950 . S
C515 C514 1.397 . S
C515 C516 1.334 . S
C516 H487 0.950 . S
C516 C515 1.334 . S
C516 C517 1.287 . S
C517 C516 1.287 . S
C517 C518 1.524 . S
C517 H520 0.999 . S
C518 H488 0.950 . S
C518 C517 1.524 . S
C518 C519 1.415 . S
C519 H489 0.950 . S
C519 C514 1.363 . S
C519 C518 1.415 . S
H520 C517 0.999 . S
H521 C502 0.913 . S
H522 C540 0.951 . S
H523 C542 0.951 . S
H524 C544 0.950 . S
H525 C545 0.950 . S
H526 C547 0.950 . S
H527 C550 0.950 . S
H528 C551 0.950 . S
H529 C553 0.950 . S
H530 C554 0.950 . S
H531 C555 0.951 . S
H532 C557 0.951 . S
H533 C559 0.950 . S
H534 C560 0.950 . S
H535 C562 0.950 . S
H536 C565 0.950 . S
H537 C566 0.950 . S
H538 C568 0.950 . S
H539 C569 0.950 . S
C540 H522 0.951 . S
C540 C541 1.366 . S
C540 C542 1.388 . S
C541 C540 1.366 . S
C541 C545 1.385 . S
C542 H523 0.951 . S
C542 C540 1.388 . S
C542 C543 1.366 . S
C543 C542 1.366 . S
C543 C544 1.414 . S
C543 C546 1.499 . S
C544 H524 0.950 . S
C544 C543 1.414 . S
C544 C545 1.374 . S
C545 H525 0.950 . S
C545 C541 1.385 . S
C545 C544 1.374 . S
C546 C543 1.499 . S
C546 C547 1.373 . S
C546 C548 1.389 . S
C547 H526 0.950 . S
C547 C546 1.373 . S
C547 C563 1.377 . S
C548 C546 1.389 . S
C548 C549 1.524 . S
C548 C562 1.377 . S
C549 C548 1.524 . S
C549 C550 1.397 . S
C549 C554 1.363 . S
C550 H527 0.950 . S
C550 C549 1.397 . S
C550 C551 1.334 . S
C551 H528 0.950 . S
C551 C550 1.334 . S
C551 C552 1.287 . S
C552 C551 1.287 . S
C552 C553 1.524 . S
C552 H571 0.913 . S
C553 H529 0.950 . S
C553 C552 1.524 . S
C553 C554 1.415 . S
C554 H530 0.950 . S
C554 C549 1.363 . S
C554 C553 1.415 . S
C555 H531 0.951 . S
C555 C556 1.366 . S
C555 C557 1.388 . S
C556 C555 1.366 . S
C556 C560 1.385 . S
C557 H532 0.951 . S
C557 C555 1.388 . S
C557 C558 1.366 . S
C558 C557 1.366 . S
C558 C559 1.414 . S
C558 C561 1.499 . S
C559 H533 0.950 . S
C559 C558 1.414 . S
C559 C560 1.374 . S
C560 H534 0.950 . S
C560 C556 1.385 . S
C560 C559 1.374 . S
C561 C558 1.499 . S
C561 C562 1.373 . S
C561 C563 1.389 . S
C562 H535 0.950 . S
C562 C548 1.377 . S
C562 C561 1.373 . S
C563 C547 1.377 . S
C563 C561 1.389 . S
C563 C564 1.524 . S
C564 C563 1.524 . S
C564 C565 1.397 . S
C564 C569 1.363 . S
C565 H536 0.950 . S
C565 C564 1.397 . S
C565 C566 1.334 . S
C566 H537 0.950 . S
C566 C565 1.334 . S
C566 C567 1.287 . S
C567 C566 1.287 . S
C567 C568 1.524 . S
C567 H570 0.999 . S
C568 H538 0.950 . S
C568 C567 1.524 . S
C568 C569 1.415 . S
C569 H539 0.950 . S
C569 C564 1.363 . S
C569 C568 1.415 . S
H570 C567 0.999 . S
H571 C552 0.913 . S
H572 C590 0.951 . S
H573 C592 0.951 . S
H574 C594 0.950 . S
H575 C595 0.950 . S
H576 C597 0.950 . S
H577 C600 0.950 . S
H578 C601 0.950 . S
H579 C603 0.950 . S
H580 C604 0.950 . S
H581 C605 0.951 . S
H582 C607 0.951 . S
H583 C609 0.950 . S
H584 C610 0.950 . S
H585 C612 0.950 . S
H586 C615 0.950 . S
H587 C616 0.950 . S
H588 C618 0.950 . S
H589 C619 0.950 . S
C590 H572 0.951 . S
C590 C591 1.366 . S
C590 C592 1.388 . S
C591 C590 1.366 . S
C591 C595 1.385 . S
C592 H573 0.951 . S
C592 C590 1.388 . S
C592 C593 1.366 . S
C593 C592 1.366 . S
C593 C594 1.414 . S
C593 C596 1.499 . S
C594 H574 0.950 . S
C594 C593 1.414 . S
C594 C595 1.374 . S
C595 H575 0.950 . S
C595 C591 1.385 . S
C595 C594 1.374 . S
C596 C593 1.499 . S
C596 C597 1.373 . S
C596 C598 1.389 . S
C597 H576 0.950 . S
C597 C596 1.373 . S
C597 C613 1.377 . S
C598 C596 1.389 . S
C598 C599 1.524 . S
C598 C612 1.377 . S
C599 C598 1.524 . S
C599 C600 1.397 . S
C599 C604 1.363 . S
C600 H577 0.950 . S
C600 C599 1.397 . S
C600 C601 1.334 . S
C601 H578 0.950 . S
C601 C600 1.334 . S
C601 C602 1.287 . S
C602 C601 1.287 . S
C602 C603 1.524 . S
C602 H621 0.913 . S
C603 H579 0.950 . S
C603 C602 1.524 . S
C603 C604 1.415 . S
C604 H580 0.950 . S
C604 C599 1.363 . S
C604 C603 1.415 . S
C605 H581 0.951 . S
C605 C606 1.366 . S
C605 C607 1.388 . S
C606 C605 1.366 . S
C606 C610 1.385 . S
C607 H582 0.951 . S
C607 C605 1.388 . S
C607 C608 1.366 . S
C608 C607 1.366 . S
C608 C609 1.414 . S
C608 C611 1.499 . S
C609 H583 0.950 . S
C609 C608 1.414 . S
C609 C610 1.374 . S
C610 H584 0.950 . S
C610 C606 1.385 . S
C610 C609 1.374 . S
C611 C608 1.499 . S
C611 C612 1.373 . S
C611 C613 1.389 . S
C612 H585 0.950 . S
C612 C598 1.377 . S
C612 C611 1.373 . S
C613 C597 1.377 . S
C613 C611 1.389 . S
C613 C614 1.524 . S
C614 C613 1.524 . S
C614 C615 1.397 . S
C614 C619 1.363 . S
C615 H586 0.950 . S
C615 C614 1.397 . S
C615 C616 1.334 . S
C616 H587 0.950 . S
C616 C615 1.334 . S
C616 C617 1.287 . S
C617 C616 1.287 . S
C617 C618 1.524 . S
C617 H620 0.999 . S
C618 H588 0.950 . S
C618 C617 1.524 . S
C618 C619 1.415 . S
C619 H589 0.950 . S
C619 C614 1.363 . S
C619 C618 1.415 . S
H620 C617 0.999 . S
H621 C602 0.913 . S
H622 C640 0.951 . S
H623 C642 0.951 . S
H624 C644 0.950 . S
H625 C645 0.950 . S
H626 C647 0.950 . S
H627 C650 0.950 . S
H628 C651 0.950 . S
H629 C653 0.950 . S
H630 C654 0.950 . S
H631 C655 0.951 . S
H632 C657 0.951 . S
H633 C659 0.950 . S
H634 C660 0.950 . S
H635 C662 0.950 . S
H636 C665 0.950 . S
H637 C666 0.950 . S
H638 C668 0.950 . S
H639 C669 0.950 . S
C640 H622 0.951 . S
C640 C641 1.366 . S
C640 C642 1.388 . S
C641 C640 1.366 . S
C641 C645 1.385 . S
C642 H623 0.951 . S
C642 C640 1.388 . S
C642 C643 1.366 . S
C643 C642 1.366 . S
C643 C644 1.414 . S
C643 C646 1.499 . S
C644 H624 0.950 . S
C644 C643 1.414 . S
C644 C645 1.374 . S
C645 H625 0.950 . S
C645 C641 1.385 . S
C645 C644 1.374 . S
C646 C643 1.499 . S
C646 C647 1.373 . S
C646 C648 1.389 . S
C647 H626 0.950 . S
C647 C646 1.373 . S
C647 C663 1.377 . S
C648 C646 1.389 . S
C648 C649 1.524 . S
C648 C662 1.377 . S
C649 C648 1.524 . S
C649 C650 1.397 . S
C649 C654 1.363 . S
C650 H627 0.950 . S
C650 C649 1.397 . S
C650 C651 1.334 . S
C651 H628 0.950 . S
C651 C650 1.334 . S
C651 C652 1.287 . S
C652 C651 1.287 . S
C652 C653 1.524 . S
C652 H671 0.913 . S
C653 H629 0.950 . S
C653 C652 1.524 . S
C653 C654 1.415 . S
C654 H630 0.950 . S
C654 C649 1.363 . S
C654 C653 1.415 . S
C655 H631 0.951 . S
C655 C656 1.366 . S
C655 C657 1.388 . S
C656 C655 1.366 . S
C656 C660 1.385 . S
C657 H632 0.951 . S
C657 C655 1.388 . S
C657 C658 1.366 . S
C658 C657 1.366 . S
C658 C659 1.414 . S
C658 C661 1.499 . S
C659 H633 0.950 . S
C659 C658 1.414 . S
C659 C660 1.374 . S
C660 H634 0.950 . S
C660 C656 1.385 . S
C660 C659 1.374 . S
C661 C658 1.499 . S
C661 C662 1.373 . S
C661 C663 1.389 . S
C662 H635 0.950 . S
C662 C648 1.377 . S
C662 C661 1.373 . S
C663 C647 1.377 . S
C663 C661 1.389 . S
C663 C664 1.524 . S
C664 C663 1.524 . S
C664 C665 1.397 . S
C664 C669 1.363 . S
C665 H636 0.950 . S
C665 C664 1.397 . S
C665 C666 1.334 . S
C666 H637 0.950 . S
C666 C665 1.334 . S
C666 C667 1.287 . S
C667 C666 1.287 . S
C667 C668 1.524 . S
C667 H670 0.999 . S
C668 H638 0.950 . S
C668 C667 1.524 . S
C668 C669 1.415 . S
C669 H639 0.950 . S
C669 C664 1.363 . S
C669 C668 1.415 . S
H670 C667 0.999 . S
H671 C652 0.913 . S
H672 C690 0.951 . S
H673 C692 0.951 . S
H674 C694 0.950 . S
H675 C695 0.950 . S
H676 C697 0.950 . S
H677 C700 0.950 . S
H678 C701 0.950 . S
H679 C703 0.950 . S
H680 C704 0.950 . S
H681 C705 0.951 . S
H682 C707 0.951 . S
H683 C709 0.950 . S
H684 C710 0.950 . S
H685 C712 0.950 . S
H686 C715 0.950 . S
H687 C716 0.950 . S
H688 C718 0.950 . S
H689 C719 0.950 . S
C690 H672 0.951 . S
C690 C691 1.366 . S
C690 C692 1.388 . S
C691 C690 1.366 . S
C691 C695 1.385 . S
C692 H673 0.951 . S
C692 C690 1.388 . S
C692 C693 1.366 . S
C693 C692 1.366 . S
C693 C694 1.414 . S
C693 C696 1.499 . S
C694 H674 0.950 . S
C694 C693 1.414 . S
C694 C695 1.374 . S
C695 H675 0.950 . S
C695 C691 1.385 . S
C695 C694 1.374 . S
C696 C693 1.499 . S
C696 C697 1.373 . S
C696 C698 1.389 . S
C697 H676 0.950 . S
C697 C696 1.373 . S
C697 C713 1.377 . S
C698 C696 1.389 . S
C698 C699 1.524 . S
C698 C712 1.377 . S
C699 C698 1.524 . S
C699 C700 1.397 . S
C699 C704 1.363 . S
C700 H677 0.950 . S
C700 C699 1.397 . S
C700 C701 1.334 . S
C701 H678 0.950 . S
C701 C700 1.334 . S
C701 C702 1.287 . S
C702 C701 1.287 . S
C702 C703 1.524 . S
C702 H721 0.913 . S
C703 H679 0.950 . S
C703 C702 1.524 . S
C703 C704 1.415 . S
C704 H680 0.950 . S
C704 C699 1.363 . S
C704 C703 1.415 . S
C705 H681 0.951 . S
C705 C706 1.366 . S
C705 C707 1.388 . S
C706 C705 1.366 . S
C706 C710 1.385 . S
C707 H682 0.951 . S
C707 C705 1.388 . S
C707 C708 1.366 . S
C708 C707 1.366 . S
C708 C709 1.414 . S
C708 C711 1.499 . S
C709 H683 0.950 . S
C709 C708 1.414 . S
C709 C710 1.374 . S
C710 H684 0.950 . S
C710 C706 1.385 . S
C710 C709 1.374 . S
C711 C708 1.499 . S
C711 C712 1.373 . S
C711 C713 1.389 . S
C712 H685 0.950 . S
C712 C698 1.377 . S
C712 C711 1.373 . S
C713 C697 1.377 . S
C713 C711 1.389 . S
C713 C714 1.524 . S
C714 C713 1.524 . S
C714 C715 1.397 . S
C714 C719 1.363 . S
C715 H686 0.950 . S
C715 C714 1.397 . S
C715 C716 1.334 . S
C716 H687 0.950 . S
C716 C715 1.334 . S
C716 C717 1.287 . S
C717 C716 1.287 . S
C717 C718 1.524 . S
C717 H720 0.999 . S
C718 H688 0.950 . S
C718 C717 1.524 . S
C718 C719 1.415 . S
C719 H689 0.950 . S
C719 C714 1.363 . S
C719 C718 1.415 . S
H720 C717 0.999 . S
H721 C702 0.913 . S
H722 C740 0.951 . S
H723 C742 0.951 . S
H724 C744 0.950 . S
H725 C745 0.950 . S
H726 C747 0.950 . S
H727 C750 0.950 . S
H728 C751 0.950 . S
H729 C753 0.950 . S
H730 C754 0.950 . S
H731 C755 0.951 . S
H732 C757 0.951 . S
H733 C759 0.950 . S
H734 C760 0.950 . S
H735 C762 0.950 . S
H736 C765 0.950 . S
H737 C766 0.950 . S
H738 C768 0.950 . S
H739 C769 0.950 . S
C740 H722 0.951 . S
C740 C741 1.366 . S
C740 C742 1.388 . S
C741 C740 1.366 . S
C741 C745 1.385 . S
C742 H723 0.951 . S
C742 C740 1.388 . S
C742 C743 1.366 . S
C743 C742 1.366 . S
C743 C744 1.414 . S
C743 C746 1.499 . S
C744 H724 0.950 . S
C744 C743 1.414 . S
C744 C745 1.374 . S
C745 H725 0.950 . S
C745 C741 1.385 . S
C745 C744 1.374 . S
C746 C743 1.499 . S
C746 C747 1.373 . S
C746 C748 1.389 . S
C747 H726 0.950 . S
C747 C746 1.373 . S
C747 C763 1.377 . S
C748 C746 1.389 . S
C748 C749 1.524 . S
C748 C762 1.377 . S
C749 C748 1.524 . S
C749 C750 1.397 . S
C749 C754 1.363 . S
C750 H727 0.950 . S
C750 C749 1.397 . S
C750 C751 1.334 . S
C751 H728 0.950 . S
C751 C750 1.334 . S
C751 C752 1.287 . S
C752 C751 1.287 . S
C752 C753 1.524 . S
C752 H771 0.913 . S
C753 H729 0.950 . S
C753 C752 1.524 . S
C753 C754 1.415 . S
C754 H730 0.950 . S
C754 C749 1.363 . S
C754 C753 1.415 . S
C755 H731 0.951 . S
C755 C756 1.366 . S
C755 C757 1.388 . S
C756 C755 1.366 . S
C756 C760 1.385 . S
C757 H732 0.951 . S
C757 C755 1.388 . S
C757 C758 1.366 . S
C758 C757 1.366 . S
C758 C759 1.414 . S
C758 C761 1.499 . S
C759 H733 0.950 . S
C759 C758 1.414 . S
C759 C760 1.374 . S
C760 H734 0.950 . S
C760 C756 1.385 . S
C760 C759 1.374 . S
C761 C758 1.499 . S
C761 C762 1.373 . S
C761 C763 1.389 . S
C762 H735 0.950 . S
C762 C748 1.377 . S
C762 C761 1.373 . S
C763 C747 1.377 . S
C763 C761 1.389 . S
C763 C764 1.524 . S
C764 C763 1.524 . S
C764 C765 1.397 . S
C764 C769 1.363 . S
C765 H736 0.950 . S
C765 C764 1.397 . S
C765 C766 1.334 . S
C766 H737 0.950 . S
C766 C765 1.334 . S
C766 C767 1.287 . S
C767 C766 1.287 . S
C767 C768 1.524 . S
C767 H770 0.999 . S
C768 H738 0.950 . S
C768 C767 1.524 . S
C768 C769 1.415 . S
C769 H739 0.950 . S
C769 C764 1.363 . S
C769 C768 1.415 . S
H770 C767 0.999 . S
H771 C752 0.913 . S
H772 C790 0.951 . S
H773 C792 0.951 . S
H774 C794 0.950 . S
H775 C795 0.950 . S
H776 C797 0.950 . S
H777 C800 0.950 . S
H778 C801 0.950 . S
H779 C803 0.950 . S
H780 C804 0.950 . S
H781 C805 0.951 . S
H782 C807 0.951 . S
H783 C809 0.950 . S
H784 C810 0.950 . S
H785 C812 0.950 . S
H786 C815 0.950 . S
H787 C816 0.950 . S
H788 C818 0.950 . S
H789 C819 0.950 . S
C790 H772 0.951 . S
C790 C791 1.366 . S
C790 C792 1.388 . S
C791 C790 1.366 . S
C791 C795 1.385 . S
C792 H773 0.951 . S
C792 C790 1.388 . S
C792 C793 1.366 . S
C793 C792 1.366 . S
C793 C794 1.414 . S
C793 C796 1.499 . S
C794 H774 0.950 . S
C794 C793 1.414 . S
C794 C795 1.374 . S
C795 H775 0.950 . S
C795 C791 1.385 . S
C795 C794 1.374 . S
C796 C793 1.499 . S
C796 C797 1.373 . S
C796 C798 1.389 . S
C797 H776 0.950 . S
C797 C796 1.373 . S
C797 C813 1.377 . S
C798 C796 1.389 . S
C798 C799 1.524 . S
C798 C812 1.377 . S
C799 C798 1.524 . S
C799 C800 1.397 . S
C799 C804 1.363 . S
C800 H777 0.950 . S
C800 C799 1.397 . S
C800 C801 1.334 . S
C801 H778 0.950 . S
C801 C800 1.334 . S
C801 C802 1.287 . S
C802 C801 1.287 . S
C802 C803 1.524 . S
C802 H821 0.913 . S
C803 H779 0.950 . S
C803 C802 1.524 . S
C803 C804 1.415 . S
C804 H780 0.950 . S
C804 C799 1.363 . S
C804 C803 1.415 . S
C805 H781 0.951 . S
C805 C806 1.366 . S
C805 C807 1.388 . S
C806 C805 1.366 . S
C806 C810 1.385 . S
C807 H782 0.951 . S
C807 C805 1.388 . S
C807 C808 1.366 . S
C808 C807 1.366 . S
C808 C809 1.414 . S
C808 C811 1.499 . S
C809 H783 0.950 . S
C809 C808 1.414 . S
C809 C810 1.374 . S
C810 H784 0.950 . S
C810 C806 1.385 . S
C810 C809 1.374 . S
C811 C808 1.499 . S
C811 C812 1.373 . S
C811 C813 1.389 . S
C812 H785 0.950 . S
C812 C798 1.377 . S
C812 C811 1.373 . S
C813 C797 1.377 . S
C813 C811 1.389 . S
C813 C814 1.524 . S
C814 C813 1.524 . S
C814 C815 1.397 . S
C814 C819 1.363 . S
C815 H786 0.950 . S
C815 C814 1.397 . S
C815 C816 1.334 . S
C816 H787 0.950 . S
C816 C815 1.334 . S
C816 C817 1.287 . S
C817 C816 1.287 . S
C817 C818 1.524 . S
C817 H820 0.999 . S
C818 H788 0.950 . S
C818 C817 1.524 . S
C818 C819 1.415 . S
C819 H789 0.950 . S
C819 C814 1.363 . S
C819 C818 1.415 . S
H820 C817 0.999 . S
H821 C802 0.913 . S
H822 C840 0.951 . S
H823 C842 0.951 . S
H824 C844 0.950 . S
H825 C845 0.950 . S
H826 C847 0.950 . S
H827 C850 0.950 . S
H828 C851 0.950 . S
H829 C853 0.950 . S
H830 C854 0.950 . S
H831 C855 0.951 . S
H832 C857 0.951 . S
H833 C859 0.950 . S
H834 C860 0.950 . S
H835 C862 0.950 . S
H836 C865 0.950 . S
H837 C866 0.950 . S
H838 C868 0.950 . S
H839 C869 0.950 . S
C840 H822 0.951 . S
C840 C841 1.366 . S
C840 C842 1.388 . S
C841 C840 1.366 . S
C841 C845 1.385 . S
C842 H823 0.951 . S
C842 C840 1.388 . S
C842 C843 1.366 . S
C843 C842 1.366 . S
C843 C844 1.414 . S
C843 C846 1.499 . S
C844 H824 0.950 . S
C844 C843 1.414 . S
C844 C845 1.374 . S
C845 H825 0.950 . S
C845 C841 1.385 . S
C845 C844 1.374 . S
C846 C843 1.499 . S
C846 C847 1.373 . S
C846 C848 1.389 . S
C847 H826 0.950 . S
C847 C846 1.373 . S
C847 C863 1.377 . S
C848 C846 1.389 . S
C848 C849 1.524 . S
C848 C862 1.377 . S
C849 C848 1.524 . S
C849 C850 1.397 . S
C849 C854 1.363 . S
C850 H827 0.950 . S
C850 C849 1.397 . S
C850 C851 1.334 . S
C851 H828 0.950 . S
C851 C850 1.334 . S
C851 C852 1.287 . S
C852 C851 1.287 . S
C852 C853 1.524 . S
C852 H871 0.913 . S
C853 H829 0.950 . S
C853 C852 1.524 . S
C853 C854 1.415 . S
C854 H830 0.950 . S
C854 C849 1.363 . S
C854 C853 1.415 . S
C855 H831 0.951 . S
C855 C856 1.366 . S
C855 C857 1.388 . S
C856 C855 1.366 . S
C856 C860 1.385 . S
C857 H832 0.951 . S
C857 C855 1.388 . S
C857 C858 1.366 . S
C858 C857 1.366 . S
C858 C859 1.414 . S
C858 C861 1.499 . S
C859 H833 0.950 . S
C859 C858 1.414 . S
C859 C860 1.374 . S
C860 H834 0.950 . S
C860 C856 1.385 . S
C860 C859 1.374 . S
C861 C858 1.499 . S
C861 C862 1.373 . S
C861 C863 1.389 . S
C862 H835 0.950 . S
C862 C848 1.377 . S
C862 C861 1.373 . S
C863 C847 1.377 . S
C863 C861 1.389 . S
C863 C864 1.524 . S
C864 C863 1.524 . S
C864 C865 1.397 . S
C864 C869 1.363 . S
C865 H836 0.950 . S
C865 C864 1.397 . S
C865 C866 1.334 . S
C866 H837 0.950 . S
C866 C865 1.334 . S
C866 C867 1.287 . S
C867 C866 1.287 . S
C867 C868 1.524 . S
C867 H870 0.999 . S
C868 H838 0.950 . S
C868 C867 1.524 . S
C868 C869 1.415 . S
C869 H839 0.950 . S
C869 C864 1.363 . S
C869 C868 1.415 . S
H870 C867 0.999 . S
H871 C852 0.913 . S
H872 C890 0.951 . S
H873 C892 0.951 . S
H874 C894 0.950 . S
H875 C895 0.950 . S
H876 C897 0.950 . S
H877 C900 0.950 . S
H878 C901 0.950 . S
H879 C903 0.950 . S
H880 C904 0.950 . S
H881 C905 0.951 . S
H882 C907 0.951 . S
H883 C909 0.950 . S
H884 C910 0.950 . S
H885 C912 0.950 . S
H886 C915 0.941 1_455 S
H887 C916 0.950 . S
H888 C918 0.950 . S
H889 C919 0.950 1_556 S
C890 H872 0.951 . S
C890 C891 1.366 . S
C890 C892 1.388 . S
C891 C890 1.366 . S
C891 C895 1.385 1_455 S
C892 H873 0.951 . S
C892 C890 1.388 . S
C892 C893 1.366 . S
C893 C892 1.366 . S
C893 C894 1.414 1_455 S
C893 C896 1.499 . S
C894 H874 0.950 . S
C894 C893 1.414 1_655 S
C894 C895 1.374 . S
C895 H875 0.950 . S
C895 C891 1.385 1_655 S
C895 C894 1.374 . S
C896 C893 1.499 . S
C896 C897 1.373 1_455 S
C896 C898 1.389 . S
C897 H876 0.950 . S
C897 C896 1.373 1_655 S
C897 C913 1.377 . S
C898 C896 1.389 . S
C898 C899 1.524 . S
C898 C912 1.377 . S
C899 C898 1.524 . S
C899 C900 1.397 . S
C899 C904 1.363 . S
C900 H877 0.950 . S
C900 C899 1.397 . S
C900 C901 1.334 . S
C901 H878 0.950 . S
C901 C900 1.334 . S
C901 C902 1.287 . S
C902 C901 1.287 . S
C902 C903 1.524 . S
C902 H921 0.913 . S
C903 H879 0.950 . S
C903 C902 1.524 . S
C903 C904 1.415 . S
C904 H880 0.950 . S
C904 C899 1.363 . S
C904 C903 1.415 . S
C905 H881 0.951 . S
C905 C906 1.366 . S
C905 C907 1.388 . S
C906 C905 1.366 . S
C906 C910 1.385 1_655 S
C907 H882 0.951 . S
C907 C905 1.388 . S
C907 C908 1.392 . S
C908 C907 1.392 . S
C908 C909 1.389 1_655 S
C908 C911 1.497 1_654 S
C909 H883 0.950 . S
C909 C908 1.389 1_455 S
C909 C910 1.374 . S
C910 H884 0.950 . S
C910 C906 1.385 1_455 S
C910 C909 1.374 . S
C911 C908 1.497 1_456 S
C911 C912 1.373 . S
C911 C913 1.389 1_455 S
C912 H885 0.950 . S
C912 C898 1.377 . S
C912 C911 1.373 . S
C913 C897 1.377 . S
C913 C911 1.389 1_655 S
C913 C914 1.524 1_556 S
C914 C913 1.524 1_554 S
C914 C915 1.397 . S
C914 C919 1.363 . S
C915 H886 0.941 1_655 S
C915 C914 1.397 . S
C915 C916 1.334 . S
C916 H887 0.950 . S
C916 C915 1.334 . S
C916 C917 1.287 . S
C917 C916 1.287 . S
C917 C918 1.524 . S
C917 H920 0.999 . S
C918 H888 0.950 . S
C918 C917 1.524 . S
C918 C919 1.415 . S
C919 H889 0.950 1_554 S
C919 C914 1.363 . S
C919 C918 1.415 . S
H920 C917 0.999 . S
H921 C902 0.913 . S
H922 C940 0.951 . S
H923 C942 0.951 . S
H924 C944 0.950 . S
H925 C945 0.950 . S
H926 C947 0.950 . S
H927 C950 0.950 . S
H928 C951 0.950 . S
H929 C953 0.950 . S
H930 C954 0.950 . S
H931 C955 0.951 . S
H932 C957 0.951 . S
H933 C959 0.950 . S
H934 C960 0.950 . S
H935 C962 0.950 . S
H936 C965 0.950 . S
H937 C966 0.950 . S
H938 C968 0.950 . S
H939 C969 0.950 . S
C940 H922 0.951 . S
C940 C941 1.366 . S
C940 C942 1.388 . S
C941 C940 1.366 . S
C941 C945 1.385 . S
C942 H923 0.951 . S
C942 C940 1.388 . S
C942 C943 1.366 . S
C943 C942 1.366 . S
C943 C944 1.414 . S
C943 C946 1.499 . S
C944 H924 0.950 . S
C944 C943 1.414 . S
C944 C945 1.374 . S
C945 H925 0.950 . S
C945 C941 1.385 . S
C945 C944 1.374 . S
C946 C943 1.499 . S
C946 C947 1.373 . S
C946 C948 1.389 . S
C947 H926 0.950 . S
C947 C946 1.373 . S
C947 C963 1.377 . S
C948 C946 1.389 . S
C948 C949 1.524 . S
C948 C962 1.377 . S
C949 C948 1.524 . S
C949 C950 1.397 . S
C949 C954 1.363 . S
C950 H927 0.950 . S
C950 C949 1.397 . S
C950 C951 1.334 . S
C951 H928 0.950 . S
C951 C950 1.334 . S
C951 C952 1.287 . S
C952 C951 1.287 . S
C952 C953 1.524 . S
C952 H971 0.913 . S
C953 H929 0.950 . S
C953 C952 1.524 . S
C953 C954 1.415 . S
C954 H930 0.950 . S
C954 C949 1.363 . S
C954 C953 1.415 . S
C955 H931 0.951 . S
C955 C956 1.366 . S
C955 C957 1.388 . S
C956 C955 1.366 . S
C956 C960 1.385 . S
C957 H932 0.951 . S
C957 C955 1.388 . S
C957 C958 1.366 . S
C958 C957 1.366 . S
C958 C959 1.414 . S
C958 C961 1.499 . S
C959 H933 0.950 . S
C959 C958 1.414 . S
C959 C960 1.374 . S
C960 H934 0.950 . S
C960 C956 1.385 . S
C960 C959 1.374 . S
C961 C958 1.499 . S
C961 C962 1.373 . S
C961 C963 1.389 . S
C962 H935 0.950 . S
C962 C948 1.377 . S
C962 C961 1.373 . S
C963 C947 1.377 . S
C963 C961 1.389 . S
C963 C964 1.524 . S
C964 C963 1.524 . S
C964 C965 1.397 . S
C964 C969 1.363 . S
C965 H936 0.950 . S
C965 C964 1.397 . S
C965 C966 1.334 . S
C966 H937 0.950 . S
C966 C965 1.334 . S
C966 C967 1.287 . S
C967 C966 1.287 . S
C967 C968 1.524 . S
C967 H970 0.999 . S
C968 H938 0.950 . S
C968 C967 1.524 . S
C968 C969 1.415 . S
C969 H939 0.950 . S
C969 C964 1.363 . S
C969 C968 1.415 . S
H970 C967 0.999 . S
H971 C952 0.913 . S
H972 C990 0.951 . S
H973 C992 0.951 . S
H974 C994 0.950 . S
H975 C995 0.950 . S
H976 C997 0.950 1_556 S
H977 C1000 0.950 . S
H978 C1001 0.950 . S
H979 C1003 0.950 . S
H980 C1004 0.950 . S
H981 C1005 0.951 . S
H982 C1007 0.951 . S
H983 C1009 0.950 . S
H984 C1010 0.950 . S
H985 C1012 0.950 . S
H986 C1015 0.950 . S
H987 C1016 0.950 . S
H988 C1018 0.950 . S
H989 C1019 0.950 . S
C990 H972 0.951 . S
C990 C991 1.366 . S
C990 C992 1.388 . S
C991 C990 1.366 . S
C991 C995 1.385 1_655 S
C992 H973 0.951 . S
C992 C990 1.388 . S
C992 C993 1.366 . S
C993 C992 1.366 . S
C993 C994 1.414 1_655 S
C993 C996 1.499 1_656 S
C994 H974 0.950 . S
C994 C993 1.414 1_455 S
C994 C995 1.374 . S
C995 H975 0.950 . S
C995 C991 1.385 1_455 S
C995 C994 1.374 . S
C996 C993 1.499 1_454 S
C996 C997 1.373 . S
C996 C998 1.389 1_455 S
C997 H976 0.950 1_554 S
C997 C996 1.373 . S
C997 C1013 1.377 . S
C998 C996 1.389 1_655 S
C998 C999 1.524 . S
C998 C1012 1.377 . S
C999 C998 1.524 . S
C999 C1000 1.397 . S
C999 C1004 1.363 . S
C1000 H977 0.950 . S
C1000 C999 1.397 . S
C1000 C1001 1.334 . S
C1001 H978 0.950 . S
C1001 C1000 1.334 . S
C1001 C1002 1.287 . S
C1002 C1001 1.287 . S
C1002 C1003 1.524 . S
C1002 H1021 0.913 . S
C1003 H979 0.950 . S
C1003 C1002 1.524 . S
C1003 C1004 1.415 . S
C1004 H980 0.950 . S
C1004 C999 1.363 . S
C1004 C1003 1.415 . S
C1005 H981 0.951 . S
C1005 C1006 1.366 . S
C1005 C1007 1.388 . S
C1006 C1005 1.366 . S
C1006 C1010 1.385 1_455 S
C1007 H982 0.951 . S
C1007 C1005 1.388 . S
C1007 C1008 1.366 . S
C1008 C1007 1.366 . S
C1008 C1009 1.414 1_455 S
C1008 C1011 1.499 . S
C1009 H983 0.950 . S
C1009 C1008 1.414 1_655 S
C1009 C1010 1.374 . S
C1010 H984 0.950 . S
C1010 C1006 1.385 1_655 S
C1010 C1009 1.374 . S
C1011 C1008 1.499 . S
C1011 C1012 1.373 1_455 S
C1011 C1013 1.389 . S
C1012 H985 0.950 . S
C1012 C998 1.377 . S
C1012 C1011 1.373 1_655 S
C1013 C997 1.377 . S
C1013 C1011 1.389 . S
C1013 C1014 1.524 . S
C1014 C1013 1.524 . S
C1014 C1015 1.397 . S
C1014 C1019 1.363 . S
C1015 H986 0.950 . S
C1015 C1014 1.397 . S
C1015 C1016 1.334 . S
C1016 H987 0.950 . S
C1016 C1015 1.334 . S
C1016 C1017 1.287 . S
C1017 C1016 1.287 . S
C1017 C1018 1.524 . S
C1017 H1020 0.999 . S
C1018 H988 0.950 . S
C1018 C1017 1.524 . S
C1018 C1019 1.415 . S
C1019 H989 0.950 . S
C1019 C1014 1.363 . S
C1019 C1018 1.415 . S
H1020 C1017 0.999 . S
H1021 C1002 0.913 . S
H1022 C1040 0.951 . S
H1023 C1042 0.951 . S
H1024 C1044 0.950 . S
H1025 C1045 0.950 . S
H1026 C1047 0.950 . S
H1027 C1050 0.950 . S
H1028 C1051 0.950 . S
H1029 C1053 0.950 . S
H1030 C1054 0.950 . S
H1031 C1055 0.951 . S
H1032 C1057 0.951 . S
H1033 C1059 0.950 . S
H1034 C1060 0.950 . S
H1035 C1062 0.950 . S
H1036 C1065 0.950 . S
H1037 C1066 0.950 . S
H1038 C1068 0.950 . S
H1039 C1069 0.950 . S
C1040 H1022 0.951 . S
C1040 C1041 1.366 . S
C1040 C1042 1.388 . S
C1041 C1040 1.366 . S
C1041 C1045 1.385 . S
C1042 H1023 0.951 . S
C1042 C1040 1.388 . S
C1042 C1043 1.366 . S
C1043 C1042 1.366 . S
C1043 C1044 1.414 . S
C1043 C1046 1.499 . S
C1044 H1024 0.950 . S
C1044 C1043 1.414 . S
C1044 C1045 1.374 . S
C1045 H1025 0.950 . S
C1045 C1041 1.385 . S
C1045 C1044 1.374 . S
C1046 C1043 1.499 . S
C1046 C1047 1.373 . S
C1046 C1048 1.389 . S
C1047 H1026 0.950 . S
C1047 C1046 1.373 . S
C1047 C1063 1.377 . S
C1048 C1046 1.389 . S
C1048 C1049 1.524 . S
C1048 C1062 1.377 . S
C1049 C1048 1.524 . S
C1049 C1050 1.397 . S
C1049 C1054 1.363 . S
C1050 H1027 0.950 . S
C1050 C1049 1.397 . S
C1050 C1051 1.334 . S
C1051 H1028 0.950 . S
C1051 C1050 1.334 . S
C1051 C1052 1.287 . S
C1052 C1051 1.287 . S
C1052 C1053 1.524 . S
C1052 H1071 0.913 . S
C1053 H1029 0.950 . S
C1053 C1052 1.524 . S
C1053 C1054 1.415 . S
C1054 H1030 0.950 . S
C1054 C1049 1.363 . S
C1054 C1053 1.415 . S
C1055 H1031 0.951 . S
C1055 C1056 1.366 . S
C1055 C1057 1.388 . S
C1056 C1055 1.366 . S
C1056 C1060 1.385 . S
C1057 H1032 0.951 . S
C1057 C1055 1.388 . S
C1057 C1058 1.366 . S
C1058 C1057 1.366 . S
C1058 C1059 1.414 . S
C1058 C1061 1.499 . S
C1059 H1033 0.950 . S
C1059 C1058 1.414 . S
C1059 C1060 1.374 . S
C1060 H1034 0.950 . S
C1060 C1056 1.385 . S
C1060 C1059 1.374 . S
C1061 C1058 1.499 . S
C1061 C1062 1.373 . S
C1061 C1063 1.389 . S
C1062 H1035 0.950 . S
C1062 C1048 1.377 . S
C1062 C1061 1.373 . S
C1063 C1047 1.377 . S
C1063 C1061 1.389 . S
C1063 C1064 1.524 . S
C1064 C1063 1.524 . S
C1064 C1065 1.397 . S
C1064 C1069 1.363 . S
C1065 H1036 0.950 . S
C1065 C1064 1.397 . S
C1065 C1066 1.334 . S
C1066 H1037 0.950 . S
C1066 C1065 1.334 . S
C1066 C1067 1.287 . S
C1067 C1066 1.287 . S
C1067 C1068 1.524 . S
C1067 H1070 0.999 . S
C1068 H1038 0.950 . S
C1068 C1067 1.524 . S
C1068 C1069 1.415 . S
C1069 H1039 0.950 . S
C1069 C1064 1.363 . S
C1069 C1068 1.415 . S
H1070 C1067 0.999 . S
H1071 C1052 0.913 . S
H1072 C1090 0.951 . S
H1073 C1092 0.951 . S
H1074 C1094 0.950 . S
H1075 C1095 0.950 . S
H1076 C1097 0.950 . S
H1077 C1100 0.950 . S
H1078 C1101 0.950 . S
H1079 C1103 0.950 . S
H1080 C1104 0.950 . S
H1081 C1105 0.951 . S
H1082 C1107 0.951 . S
H1083 C1109 0.950 . S
H1084 C1110 0.950 . S
H1085 C1112 0.950 . S
H1086 C1115 0.950 . S
H1087 C1116 0.950 . S
H1088 C1118 0.950 . S
H1089 C1119 0.950 1_556 S
C1090 H1072 0.951 . S
C1090 C1091 1.366 . S
C1090 C1092 1.388 . S
C1091 C1090 1.366 . S
C1091 C1095 1.385 . S
C1092 H1073 0.951 . S
C1092 C1090 1.388 . S
C1092 C1093 1.366 . S
C1093 C1092 1.366 . S
C1093 C1094 1.414 . S
C1093 C1096 1.499 . S
C1094 H1074 0.950 . S
C1094 C1093 1.414 . S
C1094 C1095 1.374 . S
C1095 H1075 0.950 . S
C1095 C1091 1.385 . S
C1095 C1094 1.374 . S
C1096 C1093 1.499 . S
C1096 C1097 1.373 . S
C1096 C1098 1.389 . S
C1097 H1076 0.950 . S
C1097 C1096 1.373 . S
C1097 C1113 1.377 . S
C1098 C1096 1.389 . S
C1098 C1099 1.524 . S
C1098 C1112 1.377 . S
C1099 C1098 1.524 . S
C1099 C1100 1.397 . S
C1099 C1104 1.363 . S
C1100 H1077 0.950 . S
C1100 C1099 1.397 . S
C1100 C1101 1.334 . S
C1101 H1078 0.950 . S
C1101 C1100 1.334 . S
C1101 C1102 1.287 . S
C1102 C1101 1.287 . S
C1102 C1103 1.524 . S
C1102 H1121 0.913 . S
C1103 H1079 0.950 . S
C1103 C1102 1.524 . S
C1103 C1104 1.415 . S
C1104 H1080 0.950 . S
C1104 C1099 1.363 . S
C1104 C1103 1.415 . S
C1105 H1081 0.951 . S
C1105 C1106 1.366 . S
C1105 C1107 1.388 . S
C1106 C1105 1.366 . S
C1106 C1110 1.385 . S
C1107 H1082 0.951 . S
C1107 C1105 1.388 . S
C1107 C1108 1.366 . S
C1108 C1107 1.366 . S
C1108 C1109 1.414 . S
C1108 C1111 1.499 1_554 S
C1109 H1083 0.950 . S
C1109 C1108 1.414 . S
C1109 C1110 1.374 . S
C1110 H1084 0.950 . S
C1110 C1106 1.385 . S
C1110 C1109 1.374 . S
C1111 C1108 1.499 1_556 S
C1111 C1112 1.373 . S
C1111 C1113 1.389 . S
C1112 H1085 0.950 . S
C1112 C1098 1.377 . S
C1112 C1111 1.373 . S
C1113 C1097 1.377 . S
C1113 C1111 1.389 . S
C1113 C1114 1.524 1_556 S
C1114 C1113 1.524 1_554 S
C1114 C1115 1.397 . S
C1114 C1119 1.363 . S
C1115 H1086 0.950 . S
C1115 C1114 1.397 . S
C1115 C1116 1.334 . S
C1116 H1087 0.950 . S
C1116 C1115 1.334 . S
C1116 C1117 1.287 . S
C1117 C1116 1.287 . S
C1117 C1118 1.524 . S
C1117 H1120 0.999 . S
C1118 H1088 0.950 . S
C1118 C1117 1.524 . S
C1118 C1119 1.415 . S
C1119 H1089 0.950 1_554 S
C1119 C1114 1.363 . S
C1119 C1118 1.415 . S
H1120 C1117 0.999 . S
H1121 C1102 0.913 . S
H1122 C1140 0.953 . S
H1123 C1142 0.951 . S
H1124 C1144 0.950 . S
H1125 C1145 0.950 . S
H1126 C1147 0.950 . S
H1127 C1150 0.950 . S
H1128 C1151 0.950 . S
H1129 C1153 0.950 . S
H1130 C1154 0.950 . S
H1131 C1155 0.951 . S
H1132 C1157 0.951 . S
H1133 C1159 0.950 . S
H1134 C1160 0.950 . S
H1135 C1162 0.950 . S
H1136 C1165 0.950 . S
H1137 C1166 0.950 . S
H1138 C1168 0.950 . S
H1139 C1169 0.950 . S
C1140 H1122 0.953 . S
C1140 C1141 1.364 1_655 S
C1140 C1142 1.388 . S
C1141 C1140 1.364 1_455 S
C1141 C1145 1.385 . S
C1142 H1123 0.951 . S
C1142 C1140 1.388 . S
C1142 C1143 1.366 1_655 S
C1143 C1142 1.366 1_455 S
C1143 C1144 1.414 . S
C1143 C1146 1.499 . S
C1144 H1124 0.950 . S
C1144 C1143 1.414 . S
C1144 C1145 1.374 . S
C1145 H1125 0.950 . S
C1145 C1141 1.385 . S
C1145 C1144 1.374 . S
C1146 C1143 1.499 . S
C1146 C1147 1.373 . S
C1146 C1148 1.389 1_455 S
C1147 H1126 0.950 . S
C1147 C1146 1.373 . S
C1147 C1163 1.377 . S
C1148 C1146 1.389 1_655 S
C1148 C1149 1.524 . S
C1148 C1162 1.377 . S
C1149 C1148 1.524 . S
C1149 C1150 1.397 . S
C1149 C1154 1.363 . S
C1150 H1127 0.950 . S
C1150 C1149 1.397 . S
C1150 C1151 1.334 . S
C1151 H1128 0.950 . S
C1151 C1150 1.334 . S
C1151 C1152 1.287 . S
C1152 C1151 1.287 . S
C1152 C1153 1.524 . S
C1152 H1171 0.913 . S
C1153 H1129 0.950 . S
C1153 C1152 1.524 . S
C1153 C1154 1.415 . S
C1154 H1130 0.950 . S
C1154 C1149 1.363 . S
C1154 C1153 1.415 . S
C1155 H1131 0.951 . S
C1155 C1156 1.366 . S
C1155 C1157 1.388 . S
C1156 C1155 1.366 . S
C1156 C1160 1.385 1_455 S
C1157 H1132 0.951 . S
C1157 C1155 1.388 . S
C1157 C1158 1.366 . S
C1158 C1157 1.366 . S
C1158 C1159 1.414 1_455 S
C1158 C1161 1.499 . S
C1159 H1133 0.950 . S
C1159 C1158 1.414 1_655 S
C1159 C1160 1.374 . S
C1160 H1134 0.950 . S
C1160 C1156 1.385 1_655 S
C1160 C1159 1.374 . S
C1161 C1158 1.499 . S
C1161 C1162 1.373 1_455 S
C1161 C1163 1.389 . S
C1162 H1135 0.950 . S
C1162 C1148 1.377 . S
C1162 C1161 1.373 1_655 S
C1163 C1147 1.377 . S
C1163 C1161 1.389 . S
C1163 C1164 1.524 . S
C1164 C1163 1.524 . S
C1164 C1165 1.397 . S
C1164 C1169 1.363 . S
C1165 H1136 0.950 . S
C1165 C1164 1.397 . S
C1165 C1166 1.334 . S
C1166 H1137 0.950 . S
C1166 C1165 1.334 . S
C1166 C1167 1.287 . S
C1167 C1166 1.287 . S
C1167 C1168 1.524 . S
C1167 H1170 0.999 . S
C1168 H1138 0.950 . S
C1168 C1167 1.524 . S
C1168 C1169 1.415 . S
C1169 H1139 0.950 . S
C1169 C1164 1.363 . S
C1169 C1168 1.415 . S
H1170 C1167 0.999 . S
H1171 C1152 0.913 . S
H1172 C1190 0.951 . S
H1173 C1192 0.951 . S
H1174 C1194 0.950 . S
H1175 C1195 0.950 . S
H1176 C1197 0.950 1_556 S
H1177 C1200 0.950 . S
H1178 C1201 0.950 . S
H1179 C1203 0.950 . S
H1180 C1204 0.950 . S
H1181 C1205 0.951 . S
H1182 C1207 0.951 . S
H1183 C1209 0.950 . S
H1184 C1210 0.950 . S
H1185 C1212 0.950 . S
H1186 C1215 0.950 . S
H1187 C1216 0.950 . S
H1188 C1218 0.950 . S
H1189 C1219 0.950 . S
C1190 H1172 0.951 . S
C1190 C1191 1.366 . S
C1190 C1192 1.388 . S
C1191 C1190 1.366 . S
C1191 C1195 1.385 . S
C1192 H1173 0.951 . S
C1192 C1190 1.388 . S
C1192 C1193 1.366 . S
C1193 C1192 1.366 . S
C1193 C1194 1.414 . S
C1193 C1196 1.499 1_556 S
C1194 H1174 0.950 . S
C1194 C1193 1.414 . S
C1194 C1195 1.374 . S
C1195 H1175 0.950 . S
C1195 C1191 1.385 . S
C1195 C1194 1.374 . S
C1196 C1193 1.499 1_554 S
C1196 C1197 1.373 . S
C1196 C1198 1.389 . S
C1197 H1176 0.950 1_554 S
C1197 C1196 1.373 . S
C1197 C1213 1.377 . S
C1198 C1196 1.389 . S
C1198 C1199 1.524 . S
C1198 C1212 1.377 . S
C1199 C1198 1.524 . S
C1199 C1200 1.397 . S
C1199 C1204 1.363 . S
C1200 H1177 0.950 . S
C1200 C1199 1.397 . S
C1200 C1201 1.334 . S
C1201 H1178 0.950 . S
C1201 C1200 1.334 . S
C1201 C1202 1.287 . S
C1202 C1201 1.287 . S
C1202 C1203 1.524 . S
C1202 H1221 0.913 . S
C1203 H1179 0.950 . S
C1203 C1202 1.524 . S
C1203 C1204 1.415 . S
C1204 H1180 0.950 . S
C1204 C1199 1.363 . S
C1204 C1203 1.415 . S
C1205 H1181 0.951 . S
C1205 C1206 1.366 . S
C1205 C1207 1.388 . S
C1206 C1205 1.366 . S
C1206 C1210 1.385 . S
C1207 H1182 0.951 . S
C1207 C1205 1.388 . S
C1207 C1208 1.366 . S
C1208 C1207 1.366 . S
C1208 C1209 1.414 . S
C1208 C1211 1.499 . S
C1209 H1183 0.950 . S
C1209 C1208 1.414 . S
C1209 C1210 1.374 . S
C1210 H1184 0.950 . S
C1210 C1206 1.385 . S
C1210 C1209 1.374 . S
C1211 C1208 1.499 . S
C1211 C1212 1.373 . S
C1211 C1213 1.389 . S
C1212 H1185 0.950 . S
C1212 C1198 1.377 . S
C1212 C1211 1.373 . S
C1213 C1197 1.377 . S
C1213 C1211 1.389 . S
C1213 C1214 1.524 . S
C1214 C1213 1.524 . S
C1214 C1215 1.397 . S
C1214 C1219 1.363 . S
C1215 H1186 0.950 . S
C1215 C1214 1.397 . S
C1215 C1216 1.334 . S
C1216 H1187 0.950 . S
C1216 C1215 1.334 . S
C1216 C1217 1.287 . S
C1217 C1216 1.287 . S
C1217 C1218 1.524 . S
C1217 H1220 0.999 . S
C1218 H1188 0.950 . S
C1218 C1217 1.524 . S
C1218 C1219 1.415 . S
C1219 H1189 0.950 . S
C1219 C1214 1.363 . S
C1219 C1218 1.415 . S
H1220 C1217 0.999 . S
H1221 C1202 0.913 . S
H1222 C1240 0.951 . S
H1223 C1242 0.951 . S
H1224 C1244 0.950 . S
H1225 C1245 0.950 . S
H1226 C1247 0.950 . S
H1227 C1250 0.950 1_455 S
H1228 C1251 0.948 . S
H1229 C1253 0.950 . S
H1230 C1254 0.950 . S
H1231 C1255 0.951 . S
H1232 C1257 0.951 . S
H1233 C1259 0.950 . S
H1234 C1260 0.950 . S
H1235 C1262 0.950 . S
H1236 C1265 0.950 1_655 S
H1237 C1266 0.950 . S
H1238 C1268 0.950 . S
H1239 C1269 0.950 . S
C1240 H1222 0.951 . S
C1240 C1241 1.366 1_655 S
C1240 C1242 1.388 . S
C1241 C1240 1.366 1_455 S
C1241 C1245 1.385 . S
C1242 H1223 0.951 . S
C1242 C1240 1.388 . S
C1242 C1243 1.366 1_655 S
C1243 C1242 1.366 1_455 S
C1243 C1244 1.414 . S
C1243 C1246 1.499 . S
C1244 H1224 0.950 . S
C1244 C1243 1.414 . S
C1244 C1245 1.374 . S
C1245 H1225 0.950 . S
C1245 C1241 1.385 . S
C1245 C1244 1.374 . S
C1246 C1243 1.499 . S
C1246 C1247 1.373 . S
C1246 C1248 1.389 1_455 S
C1247 H1226 0.950 . S
C1247 C1246 1.373 . S
C1247 C1263 1.377 . S
C1248 C1246 1.389 1_655 S
C1248 C1249 1.524 . S
C1248 C1262 1.377 . S
C1249 C1248 1.524 . S
C1249 C1250 1.397 . S
C1249 C1254 1.363 . S
C1250 H1227 0.950 1_655 S
C1250 C1249 1.397 . S
C1250 C1251 1.334 . S
C1251 H1228 0.948 . S
C1251 C1250 1.334 . S
C1251 C1252 1.287 . S
C1252 C1251 1.287 . S
C1252 C1253 1.524 . S
C1252 H1271 0.913 . S
C1253 H1229 0.950 . S
C1253 C1252 1.524 . S
C1253 C1254 1.415 . S
C1254 H1230 0.950 . S
C1254 C1249 1.363 . S
C1254 C1253 1.415 . S
C1255 H1231 0.951 . S
C1255 C1256 1.366 . S
C1255 C1257 1.388 . S
C1256 C1255 1.366 . S
C1256 C1260 1.385 1_455 S
C1257 H1232 0.951 . S
C1257 C1255 1.388 . S
C1257 C1258 1.366 . S
C1258 C1257 1.366 . S
C1258 C1259 1.414 1_455 S
C1258 C1261 1.499 . S
C1259 H1233 0.950 . S
C1259 C1258 1.414 1_655 S
C1259 C1260 1.374 . S
C1260 H1234 0.950 . S
C1260 C1256 1.385 1_655 S
C1260 C1259 1.374 . S
C1261 C1258 1.499 . S
C1261 C1262 1.373 1_455 S
C1261 C1263 1.389 . S
C1262 H1235 0.950 . S
C1262 C1248 1.377 . S
C1262 C1261 1.373 1_655 S
C1263 C1247 1.377 . S
C1263 C1261 1.389 . S
C1263 C1264 1.524 . S
C1264 C1263 1.524 . S
C1264 C1265 1.397 . S
C1264 C1269 1.363 . S
C1265 H1236 0.950 1_455 S
C1265 C1264 1.397 . S
C1265 C1266 1.334 . S
C1266 H1237 0.950 . S
C1266 C1265 1.334 . S
C1266 C1267 1.287 . S
C1267 C1266 1.287 . S
C1267 C1268 1.524 . S
C1267 H1270 0.999 . S
C1268 H1238 0.950 . S
C1268 C1267 1.524 . S
C1268 C1269 1.415 . S
C1269 H1239 0.950 . S
C1269 C1264 1.363 . S
C1269 C1268 1.415 . S
H1270 C1267 0.999 . S
H1271 C1252 0.913 . S
C291 C70 1.679 1_455 S
C306 C2 1.679 1_455 S
C341 C104 1.680 . S
C356 C36 1.679 . S
C391 C138 1.680 . S
C406 C206 1.680 . S
C441 C172 1.680 . S
C456 C240 1.680 . S
C491 C111 1.097 . S
C506 C9 1.095 . S
C541 C43 1.097 . S
C556 C77 1.095 . S
C591 C73 1.933 . S
C606 C39 1.933 . S
C641 C107 1.933 . S
C656 C5 1.933 . S
C691 C247 1.095 . S
C706 C145 1.097 . S
C741 C179 1.097 . S
C756 C213 1.095 . S
C791 C209 1.932 . S
C806 C175 1.933 . S
C841 C243 1.933 . S
C856 C141 1.933 . S
C891 C190 1.207 . S
C906 C33 1.206 . S
C941 C67 1.206 . S
C956 C156 1.207 . S
C991 C101 1.206 . S
C1006 C258 1.207 . S
C1041 C224 1.207 . S
C1056 C135 1.206 . S
C1091 C54 1.207 . S
C1106 C169 1.206 . S
C1141 C203 1.206 . S
C1156 C20 1.207 . S
C1191 C237 1.206 . S
C1206 C122 1.207 . S
C1241 C271 1.206 . S
C1256 C88 1.207 . S
