# Generated by pormake.
# Topology zfj, (5)-cn, num edge types: 1
# Building blocks:
#     Node 0, Type 0, BuildingBlock: BEQFEK_clean_sbu_0, # of connection points: 5
#     Node 1, Type 0, BuildingBlock: BEQFEK_clean_sbu_0, # of connection points: 5
#     Node 2, Type 0, BuildingBlock: BEQFEK_clean_sbu_0, # of connection points: 5
#     Node 3, Type 0, BuildingBlock: BEQFEK_clean_sbu_0, # of connection points: 5
#     Node 4, Type 0, BuildingBlock: BEQFEK_clean_sbu_0, # of connection points: 5
#     Node 5, Type 0, BuildingBlock: BEQFEK_clean_sbu_0, # of connection points: 5
#     Node 6, Type 0, BuildingBlock: BEQFEK_clean_sbu_0, # of connection points: 5
#     Node 7, Type 0, BuildingBlock: BEQFEK_clean_sbu_0, # of connection points: 5
#     Node 8, Type 0, BuildingBlock: BEQFEK_clean_sbu_0, # of connection points: 5
#     Node 9, Type 0, BuildingBlock: BEQFEK_clean_sbu_0, # of connection points: 5
#     Node 10, Type 0, BuildingBlock: BEQFEK_clean_sbu_0, # of connection points: 5
#     Node 11, Type 0, BuildingBlock: BEQFEK_clean_sbu_0, # of connection points: 5
#     Node 12, Type 0, BuildingBlock: BEQFEK_clean_sbu_0, # of connection points: 5
#     Node 13, Type 0, BuildingBlock: BEQFEK_clean_sbu_0, # of connection points: 5
#     Node 14, Type 0, BuildingBlock: BEQFEK_clean_sbu_0, # of connection points: 5
#     Node 15, Type 0, BuildingBlock: BEQFEK_clean_sbu_0, # of connection points: 5
#     Edge 16, Type (0, 0), BuildingBlock: XUDNAN_clean_linker_2, # of connection points: 2
#     Edge 17, Type (0, 0), BuildingBlock: XUDNAN_clean_linker_2, # of connection points: 2
#     Edge 18, Type (0, 0), BuildingBlock: XUDNAN_clean_linker_2, # of connection points: 2
#     Edge 19, Type (0, 0), BuildingBlock: XUDNAN_clean_linker_2, # of connection points: 2
#     Edge 20, Type (0, 0), BuildingBlock: XUDNAN_clean_linker_2, # of connection points: 2
#     Edge 21, Type (0, 0), BuildingBlock: XUDNAN_clean_linker_2, # of connection points: 2
#     Edge 22, Type (0, 0), BuildingBlock: XUDNAN_clean_linker_2, # of connection points: 2
#     Edge 23, Type (0, 0), BuildingBlock: XUDNAN_clean_linker_2, # of connection points: 2
#     Edge 24, Type (0, 0), BuildingBlock: XUDNAN_clean_linker_2, # of connection points: 2
#     Edge 25, Type (0, 0), BuildingBlock: XUDNAN_clean_linker_2, # of connection points: 2
#     Edge 26, Type (0, 0), BuildingBlock: XUDNAN_clean_linker_2, # of connection points: 2
#     Edge 27, Type (0, 0), BuildingBlock: XUDNAN_clean_linker_2, # of connection points: 2
#     Edge 28, Type (0, 0), BuildingBlock: XUDNAN_clean_linker_2, # of connection points: 2
#     Edge 29, Type (0, 0), BuildingBlock: XUDNAN_clean_linker_2, # of connection points: 2
#     Edge 30, Type (0, 0), BuildingBlock: XUDNAN_clean_linker_2, # of connection points: 2
#     Edge 31, Type (0, 0), BuildingBlock: XUDNAN_clean_linker_2, # of connection points: 2
#     Edge 32, Type (0, 0), BuildingBlock: XUDNAN_clean_linker_2, # of connection points: 2
#     Edge 33, Type (0, 0), BuildingBlock: XUDNAN_clean_linker_2, # of connection points: 2
#     Edge 34, Type (0, 0), BuildingBlock: XUDNAN_clean_linker_2, # of connection points: 2
#     Edge 35, Type (0, 0), BuildingBlock: XUDNAN_clean_linker_2, # of connection points: 2
#     Edge 36, Type (0, 0), BuildingBlock: XUDNAN_clean_linker_2, # of connection points: 2
#     Edge 37, Type (0, 0), BuildingBlock: XUDNAN_clean_linker_2, # of connection points: 2
#     Edge 38, Type (0, 0), BuildingBlock: XUDNAN_clean_linker_2, # of connection points: 2
#     Edge 39, Type (0, 0), BuildingBlock: XUDNAN_clean_linker_2, # of connection points: 2
#     Edge 40, Type (0, 0), BuildingBlock: XUDNAN_clean_linker_2, # of connection points: 2
#     Edge 41, Type (0, 0), BuildingBlock: XUDNAN_clean_linker_2, # of connection points: 2
#     Edge 42, Type (0, 0), BuildingBlock: XUDNAN_clean_linker_2, # of connection points: 2
#     Edge 43, Type (0, 0), BuildingBlock: XUDNAN_clean_linker_2, # of connection points: 2
#     Edge 44, Type (0, 0), BuildingBlock: XUDNAN_clean_linker_2, # of connection points: 2
#     Edge 45, Type (0, 0), BuildingBlock: XUDNAN_clean_linker_2, # of connection points: 2
#     Edge 46, Type (0, 0), BuildingBlock: XUDNAN_clean_linker_2, # of connection points: 2
#     Edge 47, Type (0, 0), BuildingBlock: XUDNAN_clean_linker_2, # of connection points: 2
#     Edge 48, Type (0, 0), BuildingBlock: XUDNAN_clean_linker_2, # of connection points: 2
#     Edge 49, Type (0, 0), BuildingBlock: XUDNAN_clean_linker_2, # of connection points: 2
#     Edge 50, Type (0, 0), BuildingBlock: XUDNAN_clean_linker_2, # of connection points: 2
#     Edge 51, Type (0, 0), BuildingBlock: XUDNAN_clean_linker_2, # of connection points: 2
#     Edge 52, Type (0, 0), BuildingBlock: XUDNAN_clean_linker_2, # of connection points: 2
#     Edge 53, Type (0, 0), BuildingBlock: XUDNAN_clean_linker_2, # of connection points: 2
#     Edge 54, Type (0, 0), BuildingBlock: XUDNAN_clean_linker_2, # of connection points: 2
#     Edge 55, Type (0, 0), BuildingBlock: XUDNAN_clean_linker_2, # of connection points: 2
# Relax obj value: 0.284
# Max RMSD: 0.172
# Mean RMSD: 0.172
data_MOF--net-zfj--node1-BEQFEK_clean_sbu_0--edge1-XUDNAN_clean_linker_2
_symmetry_space_group_name_H-M    P1
_symmetry_Int_Tables_number       1
_symmetry_cell_setting            triclinic
loop_
_symmetry_equiv_pos_as_xyz
'x, y, z'
_cell_length_a     35.586465
_cell_length_b     35.607714
_cell_length_c     53.042971
_cell_angle_alpha  89.994633
_cell_angle_beta   89.994013
_cell_angle_gamma 90.062133
loop_
_atom_site_label
_atom_site_type_symbol
_atom_site_fract_x
_atom_site_fract_y
_atom_site_fract_z
_atom_type_partial_charge
Co0 Co 0.55273 0.22474 0.17043 0.0
Co1 Co 0.57162 0.14934 0.14366 0.0
C2 C 0.54418 0.21181 0.11331 0.0
O3 O 0.54379 0.23076 0.13365 0.0
O4 O 0.55321 0.17719 0.11347 0.0
C5 C 0.50181 0.28368 0.17561 0.0
O6 O 0.48088 0.26112 0.16191 0.0
C7 C 0.57029 0.07175 0.12242 0.0
C8 C 0.6216 0.0494 0.1404 0.0
C9 C 0.59148 0.03933 0.12543 0.0
N10 N 0.58694 0.09954 0.13551 0.0
N11 N 0.61801 0.08604 0.14571 0.0
C12 C 0.53562 0.07648 0.10677 0.0
H13 H 0.52288 0.10452 0.10997 0.0
H14 H 0.51486 0.05414 0.11102 0.0
H15 H 0.54324 0.07374 0.08656 0.0
C16 C 0.511 0.17258 0.20484 0.0
N17 N 0.53042 0.18025 0.18356 0.0
N18 N 0.53624 0.14884 0.17109 0.0
C19 C 0.51959 0.1204 0.18365 0.0
C20 C 0.50364 0.13415 0.2058 0.0
C21 C 0.5032 0.20094 0.22496 0.0
H22 H 0.5233 0.22468 0.22365 0.0
H23 H 0.47432 0.21202 0.22238 0.0
H24 H 0.505 0.18793 0.24394 0.0
O25 O 0.60742 0.22524 0.17592 0.0
O26 O 0.61964 0.17265 0.15519 0.0
H27 H 0.54606 0.06772 0.17568 0.0
H28 H 0.49709 0.06368 0.18462 0.0
C29 C 0.5179 0.08086 0.17417 0.0
H30 H 0.50925 0.08121 0.1542 0.0
H31 H 0.63594 0.10139 0.15735 0.0
O32 O 0.53235 0.27127 0.18474 0.0
C33 C 0.63064 0.20119 0.1676 0.0
Co34 Co 0.26236 0.51671 0.65823 0.0
Co35 Co 0.33619 0.56282 0.65309 0.0
C36 C 0.29821 0.53078 0.60778 0.0
O37 O 0.27191 0.51829 0.62164 0.0
O38 O 0.32661 0.54736 0.61732 0.0
C39 C 0.21484 0.454 0.64893 0.0
O40 O 0.24219 0.44348 0.63388 0.0
C41 C 0.41669 0.57658 0.64767 0.0
C42 C 0.42259 0.63298 0.66467 0.0
C43 C 0.44302 0.60384 0.65412 0.0
N44 N 0.38256 0.58909 0.6543 0.0
N45 N 0.38614 0.62304 0.66407 0.0
C46 C 0.4235 0.53785 0.63767 0.0
H47 H 0.39854 0.51973 0.64087 0.0
H48 H 0.44853 0.52513 0.64677 0.0
H49 H 0.42861 0.53944 0.61707 0.0
C50 C 0.30858 0.47504 0.69558 0.0
N51 N 0.30489 0.50109 0.67732 0.0
N52 N 0.3356 0.52166 0.67635 0.0
C53 C 0.35938 0.51007 0.69465 0.0
C54 C 0.34322 0.47987 0.70735 0.0
C55 C 0.279 0.44658 0.70175 0.0
H56 H 0.25491 0.4608 0.71096 0.0
H57 H 0.26873 0.43347 0.68412 0.0
H58 H 0.2899 0.42413 0.71425 0.0
O59 O 0.24562 0.56735 0.66888 0.0
O60 O 0.29807 0.59985 0.66317 0.0
H61 H 0.39034 0.56147 0.69939 0.0
H62 H 0.40065 0.52617 0.72262 0.0
C63 C 0.39406 0.53095 0.70244 0.0
H64 H 0.4182 0.52105 0.69104 0.0
H65 H 0.36388 0.63888 0.67113 0.0
O66 O 0.21892 0.48317 0.66246 0.0
C67 C 0.26355 0.59829 0.66925 0.0
Co68 Co 0.97563 0.2745 0.15498 0.0
Co69 Co 0.93472 0.34937 0.14149 0.0
C70 C 0.96933 0.30387 0.10119 0.0
O71 O 0.97903 0.27935 0.11741 0.0
O72 O 0.95268 0.33395 0.10774 0.0
C73 C 0.03944 0.22672 0.15418 0.0
O74 O 0.05433 0.25481 0.14158 0.0
C75 C 0.92079 0.42838 0.12708 0.0
C76 C 0.87048 0.44107 0.14995 0.0
C77 C 0.89616 0.45696 0.13354 0.0
N78 N 0.91044 0.39707 0.13945 0.0
N79 N 0.87993 0.40472 0.15271 0.0
C80 C 0.95327 0.43055 0.10918 0.0
H81 H 0.97243 0.40632 0.11186 0.0
H82 H 0.969 0.45719 0.11164 0.0
H83 H 0.94235 0.42998 0.08959 0.0
C84 C 0.01257 0.32539 0.19292 0.0
N85 N 0.99053 0.31896 0.17258 0.0
N86 N 0.97482 0.35075 0.1656 0.0
C87 C 0.98765 0.3786 0.18051 0.0
C88 C 0.01132 0.36355 0.19883 0.0
C89 C 0.0311 0.29497 0.20785 0.0
H90 H 0.01532 0.26826 0.20585 0.0
H91 H 0.05999 0.29065 0.20053 0.0
H92 H 0.03296 0.3027 0.22808 0.0
O93 O 0.92352 0.26145 0.16357 0.0
O94 O 0.89438 0.31401 0.15275 0.0
H95 H 0.94869 0.42445 0.18166 0.0
H96 H 0.99692 0.43797 0.18787 0.0
C97 C 0.9785 0.41924 0.17665 0.0
H98 H 0.98281 0.42646 0.15663 0.0
H99 H 0.86629 0.38543 0.16437 0.0
O100 O 0.0067 0.23037 0.16338 0.0
C101 C 0.89353 0.2805 0.16115 0.0
Co102 Co 0.2079 0.93548 0.66344 0.0
Co103 Co 0.12953 0.91603 0.64266 0.0
C104 C 0.19 0.94291 0.60824 0.0
O105 O 0.21328 0.94403 0.62636 0.0
O106 O 0.15604 0.93334 0.61191 0.0
C107 C 0.26627 0.98536 0.66773 0.0
O108 O 0.24239 0.00566 0.65465 0.0
C109 C 0.05687 0.93099 0.62069 0.0
C110 C 0.02182 0.88661 0.63775 0.0
C111 C 0.01993 0.9193 0.62354 0.0
N112 N 0.07904 0.90746 0.6336 0.0
N113 N 0.05819 0.88015 0.64298 0.0
C114 C 0.07135 0.96405 0.60617 0.0
H115 H 0.09331 0.95434 0.5929 0.0
H116 H 0.08459 0.98446 0.61925 0.0
H117 H 0.04887 0.9778 0.59502 0.0
C118 C 0.1621 0.98682 0.69656 0.0
N119 N 0.16589 0.96118 0.6779 0.0
N120 N 0.13237 0.9523 0.66926 0.0
C121 C 0.10629 0.9718 0.6823 0.0
C122 C 0.12412 0.99469 0.69975 0.0
C123 C 0.19425 0.00414 0.71052 0.0
H124 H 0.2158 0.98253 0.71465 0.0
H125 H 0.20728 0.0261 0.69854 0.0
H126 H 0.18485 0.01741 0.72835 0.0
O127 O 0.20518 0.8808 0.67034 0.0
O128 O 0.14907 0.86745 0.65449 0.0
H129 H 0.04936 0.9786 0.69588 0.0
H130 H 0.05565 0.98264 0.66238 0.0
C131 C 0.06477 0.96722 0.67937 0.0
H132 H 0.0576 0.93715 0.67723 0.0
H133 H 0.06845 0.85868 0.65448 0.0
O134 O 0.2555 0.95407 0.67662 0.0
C135 C 0.1792 0.85732 0.66539 0.0
Co136 Co 0.52445 0.26942 0.88754 0.0
Co137 Co 0.56987 0.3435 0.89446 0.0
C138 C 0.53704 0.30365 0.93878 0.0
O139 O 0.52472 0.27807 0.92426 0.0
O140 O 0.55417 0.3323 0.93003 0.0
C141 C 0.49432 0.19921 0.89639 0.0
O142 O 0.5209 0.2005 0.91356 0.0
C143 C 0.58524 0.42347 0.90257 0.0
C144 C 0.64068 0.42996 0.88423 0.0
C145 C 0.6128 0.44957 0.8967 0.0
N146 N 0.59621 0.38991 0.89377 0.0
N147 N 0.62955 0.39386 0.88308 0.0
C148 C 0.54997 0.42973 0.91736 0.0
H149 H 0.53142 0.40469 0.91633 0.0
H150 H 0.53469 0.45477 0.9104 0.0
H151 H 0.55746 0.43505 0.93735 0.0
C152 C 0.48045 0.31778 0.85302 0.0
N153 N 0.50882 0.31258 0.86945 0.0
N154 N 0.52841 0.34382 0.87142 0.0
C155 C 0.51357 0.36966 0.8556 0.0
C156 C 0.48249 0.35409 0.84364 0.0
C157 C 0.45279 0.28794 0.84592 0.0
H158 H 0.46815 0.26279 0.83914 0.0
H159 H 0.43656 0.27954 0.86288 0.0
H160 H 0.4332 0.29762 0.83101 0.0
O161 O 0.57534 0.25299 0.87726 0.0
O162 O 0.60716 0.30562 0.88381 0.0
H163 H 0.5177 0.42167 0.83458 0.0
H164 H 0.51914 0.42627 0.8682 0.0
C165 C 0.52839 0.40867 0.85216 0.0
H166 H 0.55952 0.4083 0.85165 0.0
H167 H 0.6444 0.37207 0.87452 0.0
O168 O 0.49002 0.22707 0.88173 0.0
C169 C 0.6061 0.27123 0.87737 0.0
Co170 Co 0.23344 0.54297 0.37382 0.0
Co171 Co 0.15641 0.56595 0.39764 0.0
C172 C 0.21537 0.5404 0.43099 0.0
O173 O 0.23535 0.53805 0.41116 0.0
O174 O 0.18087 0.54977 0.42966 0.0
C175 C 0.28178 0.48288 0.37212 0.0
O176 O 0.25189 0.46772 0.38255 0.0
C177 C 0.07615 0.57083 0.41502 0.0
C178 C 0.05825 0.6194 0.39207 0.0
C179 C 0.04513 0.59254 0.40865 0.0
N180 N 0.10618 0.58404 0.40231 0.0
N181 N 0.09521 0.61351 0.38906 0.0
C182 C 0.07724 0.53895 0.43338 0.0
H183 H 0.1055 0.5258 0.43371 0.0
H184 H 0.05566 0.51766 0.42852 0.0
H185 H 0.07039 0.5497 0.45247 0.0
C186 C 0.18138 0.50121 0.33902 0.0
N187 N 0.18881 0.5214 0.36004 0.0
N188 N 0.15717 0.52784 0.37209 0.0
C189 C 0.12896 0.51045 0.35982 0.0
C190 C 0.14287 0.49385 0.33792 0.0
C191 C 0.21011 0.49248 0.31932 0.0
H192 H 0.23501 0.51099 0.32146 0.0
H193 H 0.21922 0.46286 0.3215 0.0
H194 H 0.19798 0.49587 0.30018 0.0
O195 O 0.23705 0.59692 0.36597 0.0
O196 O 0.18316 0.61153 0.38464 0.0
H197 H 0.07489 0.53483 0.3665 0.0
H198 H 0.0737 0.48476 0.3607 0.0
C199 C 0.08969 0.50788 0.36974 0.0
H200 H 0.09078 0.50213 0.39017 0.0
H201 H 0.11263 0.62869 0.37698 0.0
O202 O 0.27943 0.51612 0.36353 0.0
C203 C 0.21278 0.62109 0.37275 0.0
Co204 Co 0.94506 0.22743 0.87151 0.0
Co205 Co 0.93319 0.14915 0.89508 0.0
C206 C 0.95878 0.2127 0.92689 0.0
O207 O 0.9565 0.23327 0.90748 0.0
O208 O 0.95145 0.1778 0.92547 0.0
C209 C 0.98984 0.28889 0.86763 0.0
O210 O 0.01248 0.26499 0.87883 0.0
C211 C 0.95839 0.07598 0.91115 0.0
C212 C 0.90805 0.04117 0.90433 0.0
C213 C 0.94599 0.039 0.91026 0.0
N214 N 0.92963 0.09839 0.90486 0.0
N215 N 0.89926 0.07763 0.90164 0.0
C216 C 0.99677 0.09044 0.91752 0.0
H217 H 0.9943 0.11634 0.92901 0.0
H218 H 0.01194 0.0981 0.9 0.0
H219 H 0.01319 0.06919 0.92813 0.0
C220 C 0.99197 0.18438 0.83526 0.0
N221 N 0.97159 0.18701 0.85663 0.0
N222 N 0.96503 0.15315 0.86557 0.0
C223 C 0.97983 0.12774 0.84936 0.0
C224 C 0.99815 0.14662 0.82994 0.0
C225 C 0.00351 0.21748 0.81966 0.0
H226 H 0.97819 0.23021 0.81095 0.0
H227 H 0.01674 0.23893 0.83185 0.0
H228 H 0.02385 0.2096 0.80475 0.0
O229 O 0.89016 0.22081 0.86758 0.0
O230 O 0.88168 0.16538 0.88595 0.0
H231 H 0.94252 0.08183 0.85783 0.0
H232 H 0.97027 0.07532 0.82986 0.0
C233 C 0.97047 0.08674 0.84932 0.0
H234 H 0.99212 0.07135 0.86009 0.0
H235 H 0.87328 0.08808 0.89585 0.0
O236 O 0.95934 0.2767 0.85826 0.0
C237 C 0.86869 0.19424 0.87477 0.0
Co238 Co 0.27455 0.96795 0.38086 0.0
Co239 Co 0.34774 0.93039 0.40222 0.0
C240 C 0.29386 0.96386 0.43745 0.0
O241 O 0.274 0.97169 0.4182 0.0
O242 O 0.32578 0.94802 0.435 0.0
C243 C 0.21746 0.02388 0.38255 0.0
O244 O 0.23589 0.03442 0.40278 0.0
C245 C 0.42653 0.91804 0.41933 0.0
C246 C 0.44043 0.86737 0.39723 0.0
C247 C 0.45585 0.89396 0.41316 0.0
N248 N 0.39547 0.90662 0.40703 0.0
N249 N 0.40387 0.87575 0.39439 0.0
C250 C 0.42782 0.95089 0.43693 0.0
H251 H 0.42926 0.94031 0.45658 0.0
H252 H 0.40222 0.96841 0.43485 0.0
H253 H 0.45329 0.96815 0.43364 0.0
C254 C 0.33003 0.00452 0.3467 0.0
N255 N 0.32111 0.98352 0.36705 0.0
N256 N 0.35201 0.96973 0.37707 0.0
C257 C 0.3817 0.9828 0.36382 0.0
C258 C 0.36891 0.00468 0.34378 0.0
C259 C 0.30155 0.02044 0.32893 0.0
H260 H 0.27525 0.00374 0.32961 0.0
H261 H 0.29502 0.04967 0.33468 0.0
H262 H 0.31247 0.02092 0.30933 0.0
O263 O 0.26484 0.91525 0.37204 0.0
O264 O 0.31517 0.88878 0.38903 0.0
H265 H 0.42882 0.94578 0.36721 0.0
H266 H 0.44152 0.9939 0.36015 0.0
C267 C 0.42181 0.97566 0.37073 0.0
H268 H 0.42564 0.98197 0.39092 0.0
H269 H 0.38511 0.86147 0.3827 0.0
O270 O 0.23083 0.99779 0.36884 0.0
C271 C 0.28397 0.88617 0.37737 0.0
Co272 Co 0.48675 0.76278 0.88115 0.0
Co273 Co 0.44068 0.8361 0.88819 0.0
C274 C 0.47369 0.79611 0.93252 0.0
O275 O 0.48614 0.77044 0.91816 0.0
O276 O 0.45694 0.82477 0.92353 0.0
C277 C 0.55015 0.71605 0.88872 0.0
O278 O 0.56054 0.74324 0.90395 0.0
C279 C 0.42738 0.91628 0.89557 0.0
C280 C 0.37045 0.92306 0.87951 0.0
C281 C 0.4001 0.943 0.88995 0.0
N282 N 0.41443 0.88249 0.88848 0.0
N283 N 0.38016 0.88658 0.87933 0.0
C284 C 0.46646 0.92245 0.90521 0.0
H285 H 0.48419 0.8974 0.90157 0.0
H286 H 0.4793 0.94752 0.89623 0.0
H287 H 0.46541 0.92711 0.92587 0.0
C288 C 0.52747 0.81128 0.84402 0.0
N289 N 0.50173 0.80634 0.86243 0.0
N290 N 0.48132 0.83699 0.86448 0.0
C291 C 0.49281 0.86203 0.84689 0.0
C292 C 0.5228 0.84683 0.83349 0.0
C293 C 0.55548 0.78204 0.83651 0.0
H294 H 0.5406 0.75821 0.82742 0.0
H295 H 0.56977 0.77119 0.85356 0.0
H296 H 0.57702 0.7934 0.82346 0.0
O297 O 0.43561 0.74581 0.87129 0.0
O298 O 0.4034 0.79818 0.8778 0.0
H299 H 0.47637 0.90498 0.82024 0.0
H300 H 0.48262 0.92067 0.85212 0.0
C301 C 0.47206 0.89728 0.8403 0.0
H302 H 0.44157 0.89365 0.84364 0.0
H303 H 0.36394 0.86469 0.87208 0.0
O304 O 0.52055 0.71993 0.87559 0.0
C305 C 0.40469 0.76374 0.87151 0.0
Co306 Co 0.73762 0.45703 0.37046 0.0
Co307 Co 0.65698 0.43704 0.39004 0.0
C308 C 0.71355 0.45871 0.42661 0.0
O309 O 0.73486 0.46013 0.40743 0.0
O310 O 0.67864 0.45138 0.42403 0.0
C311 C 0.78708 0.5156 0.37425 0.0
O312 O 0.75586 0.52992 0.38332 0.0
C313 C 0.57481 0.43344 0.40341 0.0
C314 C 0.55848 0.38602 0.37882 0.0
C315 C 0.54432 0.41198 0.39561 0.0
N316 N 0.60574 0.42069 0.39149 0.0
N317 N 0.59559 0.39215 0.37707 0.0
C318 C 0.57463 0.46444 0.42242 0.0
H319 H 0.56476 0.45324 0.4408 0.0
H320 H 0.60317 0.47658 0.42465 0.0
H321 H 0.55463 0.48669 0.41663 0.0
C322 C 0.69322 0.50655 0.33629 0.0
N323 N 0.69586 0.48189 0.3555 0.0
N324 N 0.66218 0.47569 0.36486 0.0
C325 C 0.63704 0.49685 0.35207 0.0
C326 C 0.65573 0.51708 0.33333 0.0
C327 C 0.72588 0.51783 0.32021 0.0
H328 H 0.74762 0.49552 0.32034 0.0
H329 H 0.73853 0.54388 0.32797 0.0
H330 H 0.71675 0.52337 0.30055 0.0
O331 O 0.73951 0.40314 0.36155 0.0
O332 O 0.68339 0.39071 0.37786 0.0
H333 H 0.58176 0.47325 0.35272 0.0
H334 H 0.5825 0.52396 0.35007 0.0
C335 C 0.59631 0.4993 0.3588 0.0
H336 H 0.59366 0.50193 0.37947 0.0
H337 H 0.61384 0.37749 0.36528 0.0
O338 O 0.78586 0.48321 0.36414 0.0
C339 C 0.71355 0.37994 0.3671 0.0
Co340 Co 0.06731 0.72761 0.86888 0.0
Co341 Co 0.07323 0.65043 0.89448 0.0
C342 C 0.05336 0.71594 0.92536 0.0
O343 O 0.05711 0.7352 0.90535 0.0
O344 O 0.05738 0.6804 0.92479 0.0
C345 C 0.02151 0.78726 0.86173 0.0
O346 O 0.9988 0.76322 0.87278 0.0
C347 C 0.05408 0.57703 0.91599 0.0
C348 C 0.09765 0.54188 0.89811 0.0
C349 C 0.06539 0.54002 0.9127 0.0
N350 N 0.07783 0.59926 0.90318 0.0
N351 N 0.10446 0.5782 0.89319 0.0
C352 C 0.02221 0.59149 0.9317 0.0
H353 H 0.00664 0.61367 0.92141 0.0
H354 H 0.00301 0.56869 0.93778 0.0
H355 H 0.03407 0.60494 0.94881 0.0
C356 C 0.01797 0.68618 0.83371 0.0
N357 N 0.03913 0.68807 0.8547 0.0
N358 N 0.03937 0.65527 0.86602 0.0
C359 C 0.01711 0.63147 0.85275 0.0
C360 C 0.00267 0.65028 0.83171 0.0
C361 C 0.01555 0.71733 0.81481 0.0
H362 H 0.04188 0.73401 0.81491 0.0
H363 H 0.99195 0.73619 0.81991 0.0
H364 H 0.01067 0.70618 0.79555 0.0
O365 O 0.12093 0.71956 0.86418 0.0
O366 O 0.12566 0.66526 0.88435 0.0
H367 H 0.03394 0.57463 0.85928 0.0
H368 H 0.98524 0.57948 0.84979 0.0
C369 C 0.00833 0.59221 0.86085 0.0
H370 H 0.99934 0.59263 0.88074 0.0
H371 H 0.12596 0.5884 0.8817 0.0
O372 O 0.05357 0.77599 0.85457 0.0
C373 C 0.14064 0.69244 0.87233 0.0
Co374 Co 0.76342 0.03048 0.37693 0.0
Co375 Co 0.84046 0.06663 0.39229 0.0
C376 C 0.7898 0.03568 0.43154 0.0
O377 O 0.76752 0.02851 0.41354 0.0
O378 O 0.82202 0.05009 0.42713 0.0
C379 C 0.71642 0.9685 0.38237 0.0
O380 O 0.74691 0.95611 0.39358 0.0
C381 C 0.92252 0.07169 0.40138 0.0
C382 C 0.93494 0.12564 0.38272 0.0
C383 C 0.9519 0.09479 0.39375 0.0
N384 N 0.88984 0.08795 0.39475 0.0
N385 N 0.89755 0.12083 0.3844 0.0
C386 C 0.92557 0.03319 0.41248 0.0
H387 H 0.89946 0.01691 0.40898 0.0
H388 H 0.95036 0.01815 0.40481 0.0
H389 H 0.92951 0.03585 0.43316 0.0
C390 C 0.81214 0.98514 0.34321 0.0
N391 N 0.80728 0.0113 0.36133 0.0
N392 N 0.83981 0.02735 0.36651 0.0
C393 C 0.86602 0.01269 0.35073 0.0
C394 C 0.8495 0.98509 0.33589 0.0
C395 C 0.78118 0.96197 0.33216 0.0
H396 H 0.75552 0.97929 0.32995 0.0
H397 H 0.77464 0.93848 0.34519 0.0
H398 H 0.78947 0.95008 0.31363 0.0
O399 O 0.75459 0.08353 0.36719 0.0
O400 O 0.80789 0.10895 0.38077 0.0
H401 H 0.91746 0.01936 0.32953 0.0
H402 H 0.92333 0.01202 0.36259 0.0
C403 C 0.90566 0.02619 0.34832 0.0
H404 H 0.90688 0.05696 0.351 0.0
H405 H 0.87743 0.13868 0.37665 0.0
O406 O 0.71771 -0.00013 0.37091 0.0
C407 C 0.77538 0.1122 0.37091 0.0
Co408 Co 0.45074 0.73659 0.16557 0.0
Co409 Co 0.43588 0.65584 0.14532 0.0
C410 C 0.45799 0.71365 0.10962 0.0
O411 O 0.45685 0.73515 0.12867 0.0
O412 O 0.45208 0.67856 0.11218 0.0
C413 C 0.50813 0.78564 0.16361 0.0
O414 O 0.52273 0.75372 0.15596 0.0
C415 C 0.44471 0.57663 0.13027 0.0
C416 C 0.40039 0.55033 0.15346 0.0
C417 C 0.43044 0.54202 0.13784 0.0
N418 N 0.42477 0.60381 0.14164 0.0
N419 N 0.39761 0.58789 0.15483 0.0
C420 C 0.47609 0.5841 0.1121 0.0
H421 H 0.46367 0.59092 0.09347 0.0
H422 H 0.49257 0.60901 0.1181 0.0
H423 H 0.49458 0.55935 0.10966 0.0
C424 C 0.49899 0.69489 0.20179 0.0
N425 N 0.47608 0.69619 0.18156 0.0
N426 N 0.47206 0.66221 0.17223 0.0
C427 C 0.49301 0.63821 0.18617 0.0
C428 C 0.51076 0.65802 0.20551 0.0
C429 C 0.50744 0.72814 0.21808 0.0
H430 H 0.48411 0.74874 0.21711 0.0
H431 H 0.53342 0.74199 0.21117 0.0
H432 H 0.51194 0.71941 0.23794 0.0
O433 O 0.39629 0.73544 0.17259 0.0
O434 O 0.38689 0.67888 0.15593 0.0
H435 H 0.4711 0.58242 0.1834 0.0
H436 H 0.52059 0.58422 0.19119 0.0
C437 C 0.4979 0.59754 0.18007 0.0
H438 H 0.50557 0.59495 0.16 0.0
H439 H 0.37871 0.60261 0.16617 0.0
O440 O 0.47506 0.78533 0.17274 0.0
C441 C 0.37437 0.70864 0.1664 0.0
Co442 Co 0.76919 0.48054 0.65523 0.0
Co443 Co 0.84325 0.43637 0.64629 0.0
C444 C 0.80162 0.46787 0.60287 0.0
O445 O 0.77661 0.47997 0.61794 0.0
O446 O 0.83095 0.45136 0.61103 0.0
C447 C 0.69931 0.51148 0.64672 0.0
O448 O 0.70022 0.48517 0.62937 0.0
C449 C 0.92181 0.41659 0.63511 0.0
C450 C 0.92992 0.36755 0.66004 0.0
C451 C 0.94819 0.39052 0.64297 0.0
N452 N 0.88935 0.40949 0.6471 0.0
N453 N 0.89423 0.37974 0.66166 0.0
C454 C 0.92722 0.44739 0.61622 0.0
H455 H 0.9035 0.46755 0.61689 0.0
H456 H 0.95406 0.46242 0.61961 0.0
H457 H 0.92869 0.43489 0.59708 0.0
C458 C 0.81776 0.52121 0.69171 0.0
N459 N 0.81275 0.4954 0.67346 0.0
N460 N 0.84481 0.47842 0.66892 0.0
C461 C 0.87177 0.494 0.68358 0.0
C462 C 0.85556 0.52172 0.69876 0.0
C463 C 0.78599 0.5423 0.70362 0.0
H464 H 0.76043 0.52448 0.70409 0.0
H465 H 0.77972 0.56759 0.69214 0.0
H466 H 0.79297 0.55105 0.72314 0.0
O467 O 0.75265 0.4303 0.66557 0.0
O468 O 0.80501 0.39892 0.65753 0.0
H469 H 0.91713 0.4559 0.69035 0.0
H470 H 0.93082 0.50498 0.69117 0.0
C471 C 0.91253 0.48399 0.68184 0.0
H472 H 0.92084 0.48271 0.66182 0.0
H473 H 0.87346 0.36842 0.67329 0.0
O474 O 0.7273 0.51533 0.66134 0.0
C475 C 0.77086 0.39965 0.6647 0.0
Co476 Co 0.02704 0.77242 0.15111 0.0
Co477 Co 0.06795 0.84965 0.14563 0.0
C478 C 0.03919 0.80846 0.10028 0.0
O479 O 0.02843 0.78183 0.11448 0.0
O480 O 0.05362 0.83824 0.10957 0.0
C481 C 0.96718 0.7223 0.14081 0.0
O482 O 0.95615 0.75028 0.12646 0.0
C483 C 0.07652 0.93191 0.14066 0.0
C484 C 0.13392 0.93998 0.15568 0.0
C485 C 0.10322 0.9592 0.14622 0.0
N486 N 0.09071 0.89819 0.14695 0.0
N487 N 0.12511 0.90324 0.15574 0.0
C488 C 0.03913 0.9373 0.12827 0.0
H489 H 0.02938 0.91065 0.11961 0.0
H490 H 0.01808 0.94609 0.14247 0.0
H491 H 0.04095 0.95968 0.11374 0.0
C492 C 0.98161 0.81643 0.18814 0.0
N493 N 0.00817 0.81418 0.17004 0.0
N494 N 0.02676 0.84614 0.16907 0.0
C495 C 0.01357 0.86916 0.18736 0.0
C496 C 0.9841 0.85137 0.19994 0.0
C497 C 0.95469 0.78532 0.19404 0.0
H498 H 0.96977 0.76266 0.20422 0.0
H499 H 0.94352 0.77344 0.17628 0.0
H500 H 0.9307 0.79527 0.20557 0.0
O501 O 0.07912 0.75958 0.16178 0.0
O502 O 0.10801 0.81408 0.1558 0.0
H503 H 0.06326 0.90301 0.19186 0.0
H504 H 0.02845 0.90972 0.216 0.0
C505 C 0.0327 0.90461 0.19556 0.0
H506 H 0.02076 0.92873 0.1851 0.0
H507 H 0.14246 0.88165 0.1621 0.0
O508 O 0.99598 0.72651 0.15473 0.0
C509 C 0.10889 0.77953 0.16192 0.0
Co510 Co 0.71213 0.06319 0.658 0.0
Co511 Co 0.63125 0.07997 0.64155 0.0
C512 C 0.68869 0.05603 0.60376 0.0
O513 O 0.71357 0.05602 0.62087 0.0
O514 O 0.65454 0.06325 0.60898 0.0
C515 C 0.77083 0.01445 0.65875 0.0
O516 O 0.7454 0.99403 0.64711 0.0
C517 C 0.55525 0.06171 0.62626 0.0
C518 C 0.52317 0.10907 0.64229 0.0
C519 C 0.51897 0.07436 0.63077 0.0
N520 N 0.57941 0.087 0.63566 0.0
N521 N 0.56019 0.11584 0.64449 0.0
C522 C 0.56727 0.02625 0.61339 0.0
H523 H 0.58885 0.03296 0.599 0.0
H524 H 0.5805 0.00703 0.62722 0.0
H525 H 0.5433 0.01207 0.60399 0.0
C526 C 0.67286 0.01056 0.69347 0.0
N527 N 0.67308 0.03604 0.67457 0.0
N528 N 0.6382 0.04421 0.66839 0.0
C529 C 0.61482 0.02469 0.68371 0.0
C530 C 0.63595 0.00243 0.69976 0.0
C531 C 0.7072 0.99495 0.70585 0.0
H532 H 0.72842 0.01744 0.70843 0.0
H533 H 0.71943 0.97288 0.6936 0.0
H534 H 0.7003 0.98224 0.7244 0.0
O535 O 0.70914 0.11735 0.66528 0.0
O536 O 0.6514 0.12972 0.65191 0.0
H537 H 0.56165 0.02006 0.70298 0.0
H538 H 0.56088 0.0091 0.67007 0.0
C539 C 0.57301 0.02828 0.68428 0.0
H540 H 0.56448 0.05749 0.68013 0.0
H541 H 0.57224 0.13894 0.65351 0.0
O542 O 0.76124 0.04563 0.6683 0.0
C543 C 0.68256 0.14044 0.66129 0.0
H544 H 0.5382 0.18218 0.06519 0.0
H545 H 0.53479 0.28733 0.10669 0.0
H546 H 0.52967 0.32219 0.06683 0.0
H547 H 0.59349 0.21398 1.01457 0.0
H548 H 0.56871 0.18806 0.99057 0.0
H549 H 0.5697 0.17081 0.02246 0.0
H550 H 0.49691 0.16928 0.02335 0.0
H551 H 0.49574 0.18634 0.99138 0.0
H552 H 0.47092 0.21124 1.01582 0.0
H553 H 0.53201 0.34641 0.02224 0.0
H554 H 0.53529 0.35721 0.9761 0.0
H555 H 0.5329 0.23679 0.96372 0.0
C556 C 0.53582 0.21248 0.06592 0.0
C557 C 0.53707 0.23187 0.08918 0.0
C558 C 0.53392 0.27163 0.08921 0.0
C559 C 0.53104 0.29183 0.06661 0.0
C560 C 0.53073 0.27198 0.04403 0.0
C561 C 0.53238 0.23316 0.04349 0.0
C562 C 0.5321 0.21878 1.0166 0.0
C563 C 0.56815 0.19661 1.01072 0.0
C564 C 0.49681 0.19501 1.01149 0.0
C565 C 0.53092 0.25556 1.0022 0.0
C566 C 0.53031 0.28596 1.01834 0.0
C567 C 0.53177 0.32282 1.00938 0.0
C568 C 0.53376 0.32873 0.9832 0.0
C569 C 0.53376 0.29793 0.96635 0.0
C570 C 0.53208 0.26096 0.9761 0.0
H571 H 0.18308 0.53473 0.47846 0.0
H572 H 0.29059 0.53324 0.43963 0.0
H573 H 0.3233 0.52822 0.48027 0.0
H574 H 0.21183 0.58954 0.53075 0.0
H575 H 0.18479 0.56381 0.55373 0.0
H576 H 0.16928 0.56574 0.52146 0.0
H577 H 0.16831 0.49303 0.51953 0.0
H578 H 0.18374 0.49089 0.55185 0.0
H579 H 0.21009 0.46711 0.52763 0.0
H580 H 0.3451 0.52916 0.5253 0.0
H581 H 0.35356 0.53056 0.57167 0.0
H582 H 0.2325 0.52713 0.5813 0.0
C583 C 0.21346 0.53297 0.4785 0.0
C584 C 0.23411 0.53453 0.45574 0.0
C585 C 0.27393 0.53209 0.45671 0.0
C586 C 0.29292 0.52927 0.47975 0.0
C587 C 0.27184 0.52835 0.50181 0.0
C588 C 0.23298 0.52958 0.50142 0.0
C589 C 0.21719 0.5283 0.52795 0.0
C590 C 0.19444 0.56397 0.53381 0.0
C591 C 0.19343 0.49271 0.53197 0.0
C592 C 0.25323 0.52691 0.54321 0.0
C593 C 0.28446 0.52716 0.52779 0.0
C594 C 0.32085 0.52833 0.53761 0.0
C595 C 0.32542 0.52922 0.56392 0.0
C596 C 0.29379 0.5284 0.58006 0.0
C597 C 0.2573 0.52697 0.56945 0.0
H598 H 0.95963 0.18169 0.97499 0.0
H599 H 0.97893 0.2858 0.93416 0.0
H600 H 0.98842 0.31905 0.97415 0.0
H601 H 0.90809 0.22067 0.02484 0.0
H602 H 0.92795 0.1916 0.04926 0.0
H603 H 0.9259 0.17461 1.01733 0.0
H604 H 0.99774 0.16302 1.01784 0.0
H605 H -1e-05 0.17988 0.04985 0.0
H606 H 0.02906 0.201 0.02589 0.0
H607 H 0.98799 0.34309 1.01818 0.0
H608 H 0.98264 0.35505 0.06395 0.0
H609 H 0.96775 0.23572 0.07713 0.0
C610 C 0.96653 0.21131 0.97446 0.0
C611 C 0.9683 0.23099 0.9513 0.0
C612 C 0.97717 0.2699 0.95154 0.0
C613 C 0.98272 0.28918 0.97422 0.0
C614 C 0.97984 0.26926 0.99668 0.0
C615 C 0.9725 0.23111 0.99707 0.0
C616 C 0.96961 0.21691 0.024 0.0
C617 C 0.93057 0.19996 0.02915 0.0
C618 C 0.00097 0.18852 0.02973 0.0
C619 C 0.97537 0.25322 0.03853 0.0
C620 C 0.98122 0.28306 0.02235 0.0
C621 C 0.98423 0.31987 0.0311 0.0
C622 C 0.98104 0.32643 0.05709 0.0
C623 C 0.9754 0.2963 0.07406 0.0
C624 C 0.97302 0.25919 0.06462 0.0
H625 H 0.31972 0.94108 0.48462 0.0
H626 H 0.22892 0.00129 0.44768 0.0
H627 H 0.19552 0.0061 0.48785 0.0
H628 H 0.26348 0.88691 0.52438 0.0
H629 H 0.2936 0.88912 0.55167 0.0
H630 H 0.31338 0.89372 0.52059 0.0
H631 H 0.34308 0.95752 0.53298 0.0
H632 H 0.32365 0.95297 0.56423 0.0
H633 H 0.31367 0.99414 0.54565 0.0
H634 H 0.16756 0.99763 0.52995 0.0
H635 H 0.14922 0.98094 0.57336 0.0
H636 H 0.25797 0.92888 0.58512 0.0
C637 C 0.29328 0.95608 0.48513 0.0
C638 C 0.27716 0.97082 0.46278 0.0
C639 C 0.24215 0.98977 0.46433 0.0
C640 C 0.22278 0.9927 0.48716 0.0
C641 C 0.23878 0.97696 0.50858 0.0
C642 C 0.27346 0.95954 0.508 0.0
C643 C 0.28315 0.9436 0.5338 0.0
C644 C 0.28872 0.9008 0.53252 0.0
C645 C 0.31796 0.96324 0.54481 0.0
C646 C 0.24792 0.9537 0.54854 0.0
C647 C 0.22281 0.97302 0.53352 0.0
C648 C 0.18721 0.9831 0.54208 0.0
C649 C 0.1769 0.97323 0.56668 0.0
C650 C 0.20216 0.95377 0.58258 0.0
C651 C 0.23834 0.94429 0.57346 0.0
H652 H 0.47455 0.72966 0.95865 0.0
H653 H 0.47672 0.85054 0.96892 0.0
H654 H 0.47725 0.84158 1.01517 0.0
H655 H 0.41062 0.71156 1.0086 0.0
H656 H 0.43197 0.66791 1.0181 0.0
H657 H 0.43565 0.68343 0.98588 0.0
H658 H 0.50817 0.67909 0.98845 0.0
H659 H 0.50474 0.66346 0.02069 0.0
H660 H 0.53277 0.70407 1.01299 0.0
H661 H 0.47625 0.81992 0.05975 0.0
H662 H 0.46883 0.78804 0.10032 0.0
H663 H 0.46293 0.68021 0.06203 0.0
C664 C 0.47584 0.75423 0.97066 0.0
C665 C 0.47618 0.79088 0.96021 0.0
C666 C 0.47673 0.8223 0.97652 0.0
C667 C 0.47714 0.81744 1.00278 0.0
C668 C 0.47644 0.78098 1.01245 0.0
C669 C 0.47547 0.74988 0.99695 0.0
C670 C 0.47197 0.71392 1.01227 0.0
C671 C 0.43537 0.69298 1.00582 0.0
C672 C 0.50647 0.68864 1.00836 0.0
C673 C 0.47087 0.72969 0.03886 0.0
C674 C 0.47405 0.76841 0.03839 0.0
C675 C 0.47365 0.78965 0.06034 0.0
C676 C 0.46936 0.77105 0.08339 0.0
C677 C 0.46501 0.73138 0.08457 0.0
C678 C 0.46615 0.71045 0.06187 0.0
H679 H 0.68117 0.45936 0.47484 0.0
H680 H 0.78774 0.47118 0.43542 0.0
H681 H 0.82054 0.47705 0.47566 0.0
H682 H 0.70431 0.52692 0.52534 0.0
H683 H 0.68084 0.50016 0.54953 0.0
H684 H 0.66446 0.49793 0.51741 0.0
H685 H 0.67135 0.42553 0.51803 0.0
H686 H 0.68779 0.4276 0.55011 0.0
H687 H 0.71598 0.40501 0.52631 0.0
H688 H 0.84364 0.47626 0.51964 0.0
H689 H 0.85438 0.47394 0.56568 0.0
H690 H 0.73399 0.46718 0.57793 0.0
C691 C 0.7113 0.46352 0.47471 0.0
C692 C 0.7316 0.46452 0.45172 0.0
C693 C 0.77117 0.47008 0.45254 0.0
C694 C 0.79033 0.47351 0.47541 0.0
C695 C 0.76978 0.47187 0.49761 0.0
C696 C 0.73113 0.46751 0.4976 0.0
C697 C 0.7163 0.46655 0.52448 0.0
C698 C 0.68992 0.49988 0.52948 0.0
C699 C 0.6967 0.42893 0.53005 0.0
C700 C 0.75271 0.47037 0.53932 0.0
C701 C 0.78319 0.47319 0.52336 0.0
C702 C 0.81998 0.47468 0.53242 0.0
C703 C 0.82586 0.47326 0.55855 0.0
C704 C 0.79509 0.47096 0.57536 0.0
C705 C 0.75804 0.46978 0.56554 0.0
H706 H 0.03468 0.74161 0.07499 0.0
H707 H 0.04097 0.86195 0.06272 0.0
H708 H 0.04074 0.85114 1.01656 0.0
H709 H 0.09775 0.71689 0.0262 0.0
H710 H 0.07327 0.67446 1.01755 0.0
H711 H 0.07039 0.69184 0.04935 0.0
H712 H 0.99776 0.69264 0.04634 0.0
H713 H 0.00039 0.67523 1.01449 0.0
H714 H 0.97541 0.71812 0.0211 0.0
H715 H 0.04117 0.82687 0.9718 0.0
H716 H 0.04724 0.79183 0.93208 0.0
H717 H 0.04418 0.68662 0.97353 0.0
C718 C 0.0354 0.76581 0.06263 0.0
C719 C 0.03737 0.80276 0.07252 0.0
C720 C 0.03922 0.83348 0.05562 0.0
C721 C 0.039 0.82757 0.02938 0.0
C722 C 0.03731 0.79074 0.02033 0.0
C723 C 0.03583 0.76038 0.03647 0.0
C724 C 0.03679 0.72355 0.02203 0.0
C725 C 0.07163 0.70033 0.02921 0.0
C726 C 0.00042 0.70106 0.02625 0.0
C727 C 0.03939 0.73785 0.99516 0.0
C728 C 0.0391 0.7767 0.99462 0.0
C729 C 0.0415 0.79648 0.97205 0.0
C730 C 0.04495 0.77616 0.94951 0.0
C731 C 0.04643 0.73627 0.94952 0.0
C732 C 0.04315 0.71699 0.97277 0.0
H733 H 0.81507 0.06382 0.47801 0.0
H734 H 0.73014 0.99212 0.44397 0.0
H735 H 0.69702 0.98821 0.48426 0.0
H736 H 0.81342 0.01413 0.5408 0.0
H737 H 0.82034 0.05708 0.55817 0.0
H738 H 0.83988 0.05212 0.52698 0.0
H739 H 0.80532 0.11261 0.51305 0.0
H740 H 0.7853 0.11748 0.54405 0.0
H741 H 0.75506 0.11567 0.51682 0.0
H742 H 0.66741 0.99904 0.52581 0.0
H743 H 0.64856 0.01606 0.56919 0.0
H744 H 0.75389 0.0757 0.57909 0.0
C745 C 0.79011 0.04651 0.47925 0.0
C746 C 0.77522 0.02865 0.45753 0.0
C747 C 0.74216 0.00651 0.46006 0.0
C748 C 0.72295 0.00401 0.48297 0.0
C749 C 0.73729 0.02312 0.50365 0.0
C750 C 0.77059 0.04315 0.50235 0.0
C751 C 0.77906 0.06134 0.5277 0.0
C752 C 0.81533 0.0452 0.53908 0.0
C753 C 0.78131 0.10433 0.52524 0.0
C754 C 0.74474 0.0494 0.54289 0.0
C755 C 0.72096 0.02755 0.52849 0.0
C756 C 0.68615 0.01544 0.53752 0.0
C757 C 0.67552 0.02545 0.56209 0.0
C758 C 0.69985 0.04681 0.57754 0.0
C759 C 0.73499 0.05879 0.56779 0.0
H760 H 0.48129 0.85782 0.16896 0.0
H761 H 0.57655 0.79372 0.14126 0.0
H762 H 0.60428 0.85142 0.1238 0.0
H763 H 0.47483 0.92178 0.11663 0.0
H764 H 0.46357 0.96206 0.13577 0.0
H765 H 0.45031 0.91568 0.14609 0.0
H766 H 0.48616 0.92534 0.18817 0.0
H767 H 0.49857 0.97206 0.17823 0.0
H768 H 0.53481 0.93947 0.1874 0.0
H769 H 0.6224 0.91552 0.10983 0.0
H770 H 0.63326 0.98374 0.10489 0.0
H771 H 0.52671 0.00634 0.14135 0.0
C772 C 0.50815 0.85599 0.15945 0.0
C773 C 0.52666 0.8212 0.15643 0.0
C774 C 0.56177 0.82001 0.14381 0.0
C775 C 0.57766 0.85259 0.13362 0.0
C776 C 0.55817 0.88619 0.13623 0.0
C777 C 0.52452 0.88832 0.14917 0.0
C778 C 0.51025 0.92835 0.15018 0.0
C779 C 0.4725 0.93217 0.13634 0.0
C780 C 0.5073 0.94212 0.17762 0.0
C781 C 0.5414 0.94834 0.13604 0.0
C782 C 0.5685 0.92339 0.12788 0.0
C783 C 0.60115 0.93534 0.11579 0.0
C784 C 0.60697 0.974 0.11287 0.0
C785 C 0.58018 2e-05 0.12187 0.0
C786 C 0.54666 0.98699 0.1331 0.0
H787 H 0.63758 0.51279 0.61631 0.0
H788 H 0.68454 0.56262 0.68407 0.0
H789 H 0.62559 0.59793 0.6906 0.0
H790 H 0.58266 0.59599 0.59609 0.0
H791 H 0.54447 0.56727 0.58479 0.0
H792 H 0.59193 0.54969 0.58384 0.0
H793 H 0.57126 0.49124 0.60951 0.0
H794 H 0.5239 0.50869 0.61069 0.0
H795 H 0.54831 0.49764 0.63951 0.0
H796 H 0.55948 0.62199 0.69222 0.0
H797 H 0.49111 0.63256 0.68905 0.0
H798 H 0.48853 0.56892 0.61931 0.0
C799 C 0.63576 0.5316 0.63231 0.0
C800 C 0.66556 0.53497 0.64971 0.0
C801 C 0.66202 0.55972 0.67047 0.0
C802 C 0.62873 0.57996 0.67429 0.0
C803 C 0.59959 0.57542 0.657 0.0
C804 C 0.60292 0.55207 0.63631 0.0
C805 C 0.56667 0.55005 0.62149 0.0
C806 C 0.57175 0.56676 0.59498 0.0
C807 C 0.55167 0.50951 0.62025 0.0
C808 C 0.54193 0.57466 0.63767 0.0
C809 C 0.56154 0.58945 0.65786 0.0
C810 C 0.54396 0.61101 0.6763 0.0
C811 C 0.50515 0.61688 0.67431 0.0
C812 C 0.4844 0.6009 0.6542 0.0
C813 C 0.50335 0.58061 0.63527 0.0
H814 H 0.95626 0.49915 0.14724 0.0
H815 H 0.84542 0.50611 0.11386 0.0
H816 H 0.85105 0.57557 0.11214 0.0
H817 H 0.94655 0.57834 0.18682 0.0
H818 H 0.99465 0.59352 0.18363 0.0
H819 H 0.983 0.54453 0.18041 0.0
H820 H 0.01403 0.54301 0.1362 0.0
H821 H 0.02631 0.59185 0.13945 0.0
H822 H 0.99942 0.57636 0.11259 0.0
H823 H 0.86921 0.64422 0.11448 0.0
H824 H 0.89785 0.70677 0.12106 0.0
H825 H 0.99544 0.6541 0.15501 0.0
C826 C 0.9337 0.51531 0.13888 0.0
C827 C 0.90092 0.4976 0.12986 0.0
C828 C 0.87105 0.51947 0.12028 0.0
C829 C 0.87399 0.55877 0.11934 0.0
C830 C 0.90672 0.57551 0.1285 0.0
C831 C 0.93601 0.55444 0.13812 0.0
C832 C 0.96738 0.57917 0.14788 0.0
C833 C 0.97322 0.57355 0.17637 0.0
C834 C 0.00394 0.57219 0.13314 0.0
C835 C 0.95127 0.61753 0.14221 0.0
C836 C 0.91637 0.61487 0.1309 0.0
C837 C 0.89645 0.64664 0.1234 0.0
C838 C 0.9129 0.68201 0.12725 0.0
C839 C 0.94869 0.68528 0.13873 0.0
C840 C 0.96781 0.65255 0.14652 0.0
H841 H 0.802 0.94875 0.64224 0.0
H842 H 0.82971 0.06207 0.66643 0.0
H843 H 0.89549 0.05197 0.654 0.0
H844 H 0.88689 0.90653 0.6651 0.0
H845 H 0.89024 0.87372 0.63932 0.0
H846 H 0.84498 0.89068 0.64922 0.0
H847 H 0.83191 0.913 0.6035 0.0
H848 H 0.87765 0.89702 0.59363 0.0
H849 H 0.86407 0.94518 0.58853 0.0
H850 H 0.95695 0.03065 0.6391 0.0
H851 H 0.01411 0.99561 0.63035 0.0
H852 H 0.94826 0.89499 0.61614 0.0
C853 C 0.822 0.97131 0.64507 0.0
C854 C 0.81081 0.00623 0.65512 0.0
C855 C 0.83773 0.03503 0.65879 0.0
C856 C 0.87503 0.02977 0.6515 0.0
C857 C 0.88485 0.99553 0.64079 0.0
C858 C 0.85947 0.96645 0.63813 0.0
C859 C 0.87815 0.93158 0.62775 0.0
C860 C 0.87489 0.8987 0.64647 0.0
C861 C 0.86197 0.92109 0.60181 0.0
C862 C 0.91818 0.94551 0.62551 0.0
C863 C 0.92104 0.98276 0.63253 0.0
C864 C 0.95517 0.00158 0.63326 0.0
C865 C 0.98765 0.98131 0.62788 0.0
C866 C 0.98578 0.94251 0.62197 0.0
C867 C 0.95043 0.92476 0.62007 0.0
H868 H 0.52414 0.64959 0.87012 0.0
H869 H 0.61807 0.69918 0.91039 0.0
H870 H 0.64571 0.636 0.91611 0.0
H871 H 0.5139 0.57158 0.90958 0.0
H872 H 0.5014 0.53932 0.88477 0.0
H873 H 0.49103 0.58854 0.88147 0.0
H874 H 0.52821 0.59088 0.83946 0.0
H875 H 0.53815 0.54148 0.84239 0.0
H876 H 0.57613 0.57456 0.83869 0.0
H877 H 0.66162 0.56665 0.91865 0.0
H878 H 0.66397 0.49693 0.91798 0.0
H879 H 0.55815 0.49422 0.87766 0.0
C880 C 0.55093 0.64736 0.87969 0.0
C881 C 0.56915 0.67929 0.88965 0.0
C882 C 0.60377 0.67504 0.9025 0.0
C883 C 0.61964 0.63931 0.90585 0.0
C884 C 0.60037 0.60828 0.89634 0.0
C885 C 0.56682 0.61204 0.88346 0.0
C886 C 0.5505 0.57432 0.87632 0.0
C887 C 0.51193 0.56809 0.88879 0.0
C888 C 0.54813 0.57007 0.84751 0.0
C889 C 0.57989 0.54866 0.88741 0.0
C890 C 0.60866 0.56865 0.89869 0.0
C891 C 0.63916 0.55073 0.90998 0.0
C892 C 0.64024 0.51132 0.90961 0.0
C893 C 0.61066 0.49062 0.89848 0.0
C894 C 0.58036 0.50953 0.88712 0.0
H895 H 0.85825 0.48582 0.37012 0.0
H896 H 0.79779 0.58618 0.39277 0.0
H897 H 0.85695 0.61423 0.40794 0.0
H898 H 0.92207 0.48384 0.42248 0.0
H899 H 0.9618 0.46834 0.40416 0.0
H900 H 0.91485 0.45579 0.3946 0.0
H901 H 0.92604 0.48537 0.35056 0.0
H902 H 0.97327 0.49716 0.3598 0.0
H903 H 0.94216 0.53328 0.34841 0.0
H904 H 0.92237 0.63196 0.42006 0.0
H905 H 0.99104 0.64004 0.42506 0.0
H906 H 0.0089 0.52792 0.39575 0.0
C907 C 0.85753 0.51388 0.37797 0.0
C908 C 0.82336 0.53383 0.38021 0.0
C909 C 0.8236 0.57035 0.39083 0.0
C910 C 0.85703 0.58646 0.39965 0.0
C911 C 0.89001 0.56566 0.39782 0.0
C912 C 0.89067 0.53035 0.38701 0.0
C913 C 0.9301 0.51432 0.38694 0.0
C914 C 0.93232 0.47844 0.403 0.0
C915 C 0.94369 0.50713 0.35982 0.0
C916 C 0.9515 0.54631 0.39916 0.0
C917 C 0.92776 0.57554 0.40546 0.0
C918 C 0.94121 0.60908 0.41557 0.0
C919 C 0.98011 0.61334 0.41854 0.0
C920 C 0.00492 0.58411 0.41167 0.0
C921 C 0.99038 0.54996 0.40231 0.0
H922 H 0.9236 0.96751 0.91994 0.0
H923 H 0.01759 0.03193 0.89046 0.0
H924 H 0.04644 0.97442 0.8748 0.0
H925 H 0.97952 0.88225 0.93715 0.0
H926 H 0.94178 0.85141 0.92789 0.0
H927 H 0.93141 0.89741 0.94019 0.0
H928 H 0.89252 0.91149 0.89993 0.0
H929 H 0.90388 0.86611 0.88711 0.0
H930 H 0.91472 0.908 0.86946 0.0
H931 H 0.0613 0.9115 0.85727 0.0
H932 H 0.06627 0.84478 0.84525 0.0
H933 H 0.96245 0.82116 0.8854 0.0
C934 C 0.95088 0.96936 0.91096 0.0
C935 C 0.96832 0.00443 0.90682 0.0
C936 C 0.00373 0.00573 0.89458 0.0
C937 C 0.02034 0.97303 0.88524 0.0
C938 C 0.00137 0.93927 0.88846 0.0
C939 C 0.96789 0.93697 0.90156 0.0
C940 C 0.95246 0.89739 0.90138 0.0
C941 C 0.95124 0.88116 0.92825 0.0
C942 C 0.9136 0.89568 0.88871 0.0
C943 C 0.98199 0.87816 0.88551 0.0
C944 C 0.00993 0.90281 0.87824 0.0
C945 C 0.03989 0.89172 0.86312 0.0
C946 C 0.04226 0.85389 0.85619 0.0
C947 C 0.01482 0.82779 0.86446 0.0
C948 C 0.98382 0.84042 0.87871 0.0
H949 H 0.49403 0.95643 0.39837 0.0
H950 H 0.50918 0.84482 0.42918 0.0
H951 H 0.57818 0.85146 0.42447 0.0
H952 H 0.56244 0.94882 0.35166 0.0
H953 H 0.57847 0.99676 0.35366 0.0
H954 H 0.53086 0.98516 0.36215 0.0
H955 H 0.54024 0.01477 0.40633 0.0
H956 H 0.58762 0.02729 0.39778 0.0
H957 H 0.57904 -0.00032 0.42568 0.0
H958 H 0.64503 0.86936 0.41429 0.0
H959 H 0.70519 0.89797 0.4012 0.0
H960 H 0.64551 0.99704 0.37538 0.0
C961 C 0.51197 0.93408 0.40515 0.0
C962 C 0.49659 0.90065 0.41506 0.0
C963 C 0.52073 0.87101 0.42223 0.0
C964 C 0.55981 0.87448 0.41946 0.0
C965 C 0.57407 0.90758 0.40913 0.0
C966 C 0.5509 0.93695 0.40223 0.0
C967 C 0.573 0.9686 0.3902 0.0
C968 C 0.56043 0.9752 0.36279 0.0
C969 C 0.56979 0.00472 0.40594 0.0
C970 C 0.61228 0.95242 0.39132 0.0
C971 C 0.61231 0.91726 0.40236 0.0
C972 C 0.64535 0.8969 0.40567 0.0
C973 C 0.67936 0.91332 0.39806 0.0
C974 C 0.68005 0.94962 0.38713 0.0
C975 C 0.6459 0.96906 0.38338 0.0
H976 H 0.49552 0.13663 0.92608 0.0
H977 H 0.44066 0.18492 0.86054 0.0
H978 H 0.40485 0.12609 0.85465 0.0
H979 H 0.50844 0.04753 0.90141 0.0
H980 H 0.49961 0.02267 0.93041 0.0
H981 H 0.51749 0.06991 0.9313 0.0
H982 H 0.46138 0.09035 0.95928 0.0
H983 H 0.44339 0.04302 0.95862 0.0
H984 H 0.41404 0.08153 0.94871 0.0
H985 H 0.38022 0.06019 0.85339 0.0
H986 H 0.36921 0.99196 0.85647 0.0
H987 H 0.4381 0.98783 0.92394 0.0
C988 C 0.47555 0.13511 0.9107 0.0
C989 C 0.47087 0.16529 0.89374 0.0
C990 C 0.44463 0.16211 0.87378 0.0
C991 C 0.42408 0.12889 0.87034 0.0
C992 C 0.42986 0.09942 0.88718 0.0
C993 C 0.45477 0.10232 0.90707 0.0
C994 C 0.45772 0.0658 0.92151 0.0
C995 C 0.49821 0.0506 0.92111 0.0
C996 C 0.44326 0.07046 0.94864 0.0
C997 C 0.43161 0.04146 0.90607 0.0
C998 C 0.41548 0.06147 0.88654 0.0
C999 C 0.39229 0.04435 0.8688 0.0
C1000 C 0.38617 0.00559 0.87074 0.0
C1001 C 0.40346 0.98438 0.89014 0.0
C1002 C 0.42539 0.00292 0.90846 0.0
H1003 H 0.35163 0.51468 0.36607 0.0
H1004 H 0.29561 0.41078 0.38686 0.0
H1005 H 0.35677 0.38308 0.39834 0.0
H1006 H 0.43529 0.47192 0.33945 0.0
H1007 H 0.46603 0.5081 0.3513 0.0
H1008 H 0.41786 0.51895 0.34399 0.0
H1009 H 0.40888 0.54431 0.3894 0.0
H1010 H 0.4568 0.53263 0.39703 0.0
H1011 H 0.41888 0.51417 0.41588 0.0
H1012 H 0.42361 0.3666 0.40756 0.0
H1013 H 0.49274 0.36093 0.4108 0.0
H1014 H 0.5051 0.47594 0.38546 0.0
C1015 C 0.35226 0.4859 0.37264 0.0
C1016 C 0.31883 0.46482 0.37548 0.0
C1017 C 0.32086 0.42742 0.38446 0.0
C1018 C 0.35544 0.41151 0.39118 0.0
C1019 C 0.38769 0.43342 0.38891 0.0
C1020 C 0.38652 0.46965 0.37961 0.0
C1021 C 0.42537 0.4871 0.37899 0.0
C1022 C 0.43681 0.49709 0.35182 0.0
C1023 C 0.42759 0.5216 0.39636 0.0
C1024 C 0.44857 0.45491 0.38925 0.0
C1025 C 0.42622 0.42427 0.39495 0.0
C1026 C 0.44137 0.39052 0.40347 0.0
C1027 C 0.48052 0.38761 0.40543 0.0
C1028 C 0.50389 0.41838 0.39921 0.0
C1029 C 0.4877 0.45262 0.39143 0.0
H1030 H 0.04929 0.32358 0.89026 0.0
H1031 H 0.94009 0.34541 0.85676 0.0
H1032 H 0.9436 0.41117 0.87128 0.0
H1033 H 0.0372 0.38204 0.94526 0.0
H1034 H 0.08523 0.39818 0.94527 0.0
H1035 H 0.07388 0.35236 0.93298 0.0
H1036 H 0.10514 0.369 0.89019 0.0
H1037 H 0.11764 0.41427 0.90266 0.0
H1038 H 0.09092 0.41106 0.87387 0.0
H1039 H 0.95936 0.47427 0.88873 0.0
H1040 H 0.9909 0.53282 0.90095 0.0
H1041 H 0.08945 0.4698 0.92362 0.0
C1042 C 0.0262 0.34221 0.88578 0.0
C1043 C 0.99438 0.32937 0.87244 0.0
C1044 C 0.96483 0.35469 0.8669 0.0
C1045 C 0.96633 0.39193 0.87535 0.0
C1046 C 0.9975 0.40324 0.88931 0.0
C1047 C 0.02719 0.37934 0.89407 0.0
C1048 C 0.05846 0.39902 0.90813 0.0
C1049 C 0.064 0.38187 0.93447 0.0
C1050 C 0.09519 0.39832 0.89279 0.0
C1051 C 0.04221 0.43815 0.90982 0.0
C1052 C 0.00662 0.43974 0.89944 0.0
C1053 C 0.98695 0.47334 0.89728 0.0
C1054 C 0.00498 0.50652 0.90465 0.0
C1055 C 0.04235 0.50574 0.91383 0.0
C1056 C 0.06052 0.47098 0.91731 0.0
H1057 H 0.0127 0.08982 0.42555 0.0
H1058 H 0.97748 0.07383 0.34809 0.0
H1059 H 0.04218 0.05589 0.33627 0.0
H1060 H 0.10303 0.13074 0.41076 0.0
H1061 H 0.12722 0.10833 0.43654 0.0
H1062 H 0.0779 0.11898 0.43921 0.0
H1063 H 0.06355 0.04918 0.44924 0.0
H1064 H 0.11286 0.03843 0.44683 0.0
H1065 H 0.07932 0.0132 0.4278 0.0
H1066 H 0.11003 0.03836 0.33302 0.0
H1067 H 0.17718 0.02248 0.33862 0.0
H1068 H 0.1695 0.05321 0.41763 0.0
C1069 C 0.01881 0.08231 0.40619 0.0
C1070 C 0.99041 0.08285 0.38769 0.0
C1071 C 0.99908 0.07328 0.36247 0.0
C1072 C 0.03568 0.06319 0.35559 0.0
C1073 C 0.06332 0.06324 0.37415 0.0
C1074 C 0.05544 0.07259 0.39892 0.0
C1075 C 0.09056 0.07074 0.41503 0.0
C1076 C 0.10024 0.10951 0.42603 0.0
C1077 C 0.08631 0.04112 0.43596 0.0
C1078 C 0.1192 0.0587 0.39547 0.0
C1079 C 0.10286 0.05441 0.37203 0.0
C1080 C 0.12328 0.04193 0.35122 0.0
C1081 C 0.16135 0.03304 0.35455 0.0
C1082 C 0.17861 0.03708 0.37843 0.0
C1083 C 0.15728 0.05059 0.39901 0.0
H1084 H 0.43934 0.32117 0.15862 0.0
H1085 H 0.55202 0.33883 0.18789 0.0
H1086 H 0.54746 0.40606 0.17761 0.0
H1087 H 0.44493 0.38476 0.1073 0.0
H1088 H 0.39766 0.40228 0.11046 0.0
H1089 H 0.40877 0.35526 0.12054 0.0
H1090 H 0.38337 0.36949 0.16533 0.0
H1091 H 0.37122 0.41618 0.15519 0.0
H1092 H 0.4011 0.40967 0.18228 0.0
H1093 H 0.53276 0.47002 0.16184 0.0
H1094 H 0.50412 0.52986 0.14929 0.0
H1095 H 0.39988 0.4723 0.13177 0.0
C1096 C 0.4628 0.3393 0.16324 0.0
C1097 C 0.49608 0.32467 0.17395 0.0
C1098 C 0.52616 0.34933 0.17977 0.0
C1099 C 0.52403 0.38753 0.17376 0.0
C1100 C 0.49147 0.40071 0.16227 0.0
C1101 C 0.46099 0.37766 0.15768 0.0
C1102 C 0.42883 0.39942 0.14599 0.0
C1103 C 0.41952 0.38453 0.1195 0.0
C1104 C 0.39408 0.39865 0.16323 0.0
C1105 C 0.44611 0.43827 0.14472 0.0
C1106 C 0.48252 0.43812 0.15377 0.0
C1107 C 0.5043 0.47055 0.15467 0.0
C1108 C 0.48791 0.50441 0.14712 0.0
C1109 C 0.45004 0.50562 0.13897 0.0
C1110 C 0.42914 0.47198 0.13739 0.0
H1111 H 0.14791 0.48247 0.6646 0.0
H1112 H 0.19806 0.38461 0.62936 0.0
H1113 H 0.13474 0.35674 0.62396 0.0
H1114 H 0.07236 0.43485 0.69745 0.0
H1115 H 0.03939 0.47224 0.69158 0.0
H1116 H 0.08878 0.48253 0.69424 0.0
H1117 H 0.0871 0.51458 0.65034 0.0
H1118 H 0.03785 0.50388 0.64738 0.0
H1119 H 0.07034 0.4885 0.62346 0.0
H1120 H 0.06516 0.34013 0.62237 0.0
H1121 H 0.99537 0.33724 0.62384 0.0
H1122 H 0.99257 0.44786 0.65771 0.0
C1123 C 0.14573 0.45486 0.65615 0.0
C1124 C 0.17785 0.43546 0.64763 0.0
C1125 C 0.17372 0.3998 0.63615 0.0
C1126 C 0.13794 0.38381 0.63299 0.0
C1127 C 0.10676 0.4041 0.64119 0.0
C1128 C 0.1104 0.43889 0.6525 0.0
C1129 C 0.07264 0.45596 0.65857 0.0
C1130 C 0.06803 0.46171 0.68715 0.0
C1131 C 0.06665 0.49291 0.64407 0.0
C1132 C 0.04706 0.42537 0.64892 0.0
C1133 C 0.06711 0.39549 0.63913 0.0
C1134 C 0.04919 0.36352 0.62976 0.0
C1135 C 0.00976 0.36212 0.63057 0.0
C1136 C 0.98909 0.39279 0.64019 0.0
C1137 C 0.00795 0.42463 0.6495 0.0
H1138 H 0.04289 0.00328 0.15889 0.0
H1139 H 0.15774 0.00822 0.13177 0.0
H1140 H 0.15504 0.07765 0.13227 0.0
H1141 H 0.00773 0.08305 0.12367 0.0
H1142 H 0.97759 0.09846 0.14894 0.0
H1143 H 0.98871 0.04939 0.14563 0.0
H1144 H 0.01324 0.04839 0.19164 0.0
H1145 H 0.00277 0.09762 0.19495 0.0
H1146 H 0.04967 0.08077 0.20096 0.0
H1147 H 0.13937 0.14652 0.13536 0.0
H1148 H 0.11161 0.20973 0.14027 0.0
H1149 H 0.0077 0.15913 0.1666 0.0
C1150 C 0.0671 0.01891 0.1524 0.0
C1151 C 0.10023 0.00048 0.14468 0.0
C1152 C 0.13197 0.02196 0.13748 0.0
C1153 C 0.13071 0.06132 0.13775 0.0
C1154 C 0.09765 0.07868 0.14559 0.0
C1155 C 0.06643 0.05817 0.15278 0.0
C1156 C 0.03461 0.0836 0.16089 0.0
C1157 C 0.00013 0.07831 0.14375 0.0
C1158 C 0.0245 0.07721 0.18876 0.0
C1159 C 0.05271 0.12164 0.15696 0.0
C1160 C 0.08907 0.11823 0.14813 0.0
C1161 C 0.11098 0.14956 0.14238 0.0
C1162 C 0.09502 0.18533 0.14528 0.0
C1163 C 0.05762 0.1894 0.15397 0.0
C1164 C 0.03654 0.15704 0.16024 0.0
H1165 H 0.29947 0.04997 0.65083 0.0
H1166 H 0.32427 0.93898 0.68053 0.0
H1167 H 0.39123 0.94817 0.67063 0.0
H1168 H 0.36361 0.04793 0.59974 0.0
H1169 H 0.37779 0.09636 0.60261 0.0
H1170 H 0.33152 0.08211 0.61256 0.0
H1171 H 0.34349 0.10917 0.65724 0.0
H1172 H 0.38936 0.12446 0.64721 0.0
H1173 H 0.38464 0.09464 0.67449 0.0
H1174 H 0.454 0.96726 0.65528 0.0
H1175 H 0.5117 -0.00027 0.64301 0.0
H1176 H 0.44735 0.09942 0.62421 0.0
C1177 C 0.31907 0.02785 0.65562 0.0
C1178 C 0.30668 0.9937 0.6663 0.0
C1179 C 0.33316 0.96543 0.67238 0.0
C1180 C 0.37118 0.9702 0.6666 0.0
C1181 C 0.38219 0.00351 0.65505 0.0
C1182 C 0.35719 0.03225 0.6502 0.0
C1183 C 0.37671 0.06567 0.63837 0.0
C1184 C 0.36149 0.07346 0.61174 0.0
C1185 C 0.37336 0.10054 0.65535 0.0
C1186 C 0.41662 0.05116 0.63742 0.0
C1187 C 0.4189 0.01499 0.6467 0.0
C1188 C 0.45268 0.9956 0.64797 0.0
C1189 C 0.4854 0.01428 0.6406 0.0
C1190 C 0.48411 0.05209 0.63228 0.0
C1191 C 0.44909 0.07038 0.63018 0.0
H1192 H 0.8238 0.31382 0.16308 0.0
H1193 H 0.88023 0.20646 0.17174 0.0
H1194 H 0.819 0.17542 0.17775 0.0
H1195 H 0.7487 0.29539 0.20967 0.0
H1196 H 0.71372 0.3196 0.19126 0.0
H1197 H 0.76222 0.33404 0.18966 0.0
H1198 H 0.76125 0.32559 0.14115 0.0
H1199 H 0.71286 0.31105 0.14259 0.0
H1200 H 0.7473 0.28101 0.12799 0.0
H1201 H 0.75202 0.15491 0.17792 0.0
H1202 H 0.68325 0.14686 0.17479 0.0
H1203 H 0.66974 0.26751 0.1683 0.0
C1204 C 0.82334 0.28387 0.16661 0.0
C1205 C 0.85691 0.26261 0.16691 0.0
C1206 C 0.855 0.22343 0.17151 0.0
C1207 C 0.82032 0.2055 0.17495 0.0
C1208 C 0.78779 0.22715 0.17411 0.0
C1209 C 0.78896 0.26553 0.17036 0.0
C1210 C 0.74971 0.28198 0.16932 0.0
C1211 C 0.74321 0.30937 0.19129 0.0
C1212 C 0.74236 0.30101 0.14374 0.0
C1213 C 0.72632 0.24668 0.17237 0.0
C1214 C 0.74891 0.21538 0.17512 0.0
C1215 C 0.73399 0.17924 0.17626 0.0
C1216 C 0.69497 0.17493 0.17435 0.0
C1217 C 0.6713 0.20658 0.17161 0.0
C1218 C 0.68719 0.24293 0.17099 0.0
H1219 H 0.29445 0.66807 0.67498 0.0
H1220 H 0.18771 0.60883 0.67578 0.0
H1221 H 0.15448 0.66937 0.67984 0.0
H1222 H 0.26705 0.74459 0.71917 0.0
H1223 H 0.29366 0.77898 0.70172 0.0
H1224 H 0.30907 0.73078 0.70261 0.0
H1225 H 0.30901 0.72885 0.65378 0.0
H1226 H 0.29338 0.77681 0.65271 0.0
H1227 H 0.26667 0.74077 0.63692 0.0
H1228 H 0.13287 0.73614 0.67755 0.0
H1229 H 0.12442 0.80423 0.67104 0.0
H1230 H 0.24538 0.81975 0.67271 0.0
C1231 C 0.26412 0.66765 0.67659 0.0
C1232 C 0.24367 0.63367 0.67506 0.0
C1233 C 0.20399 0.63447 0.67704 0.0
C1234 C 0.18487 0.66872 0.67937 0.0
C1235 C 0.20589 0.70177 0.68004 0.0
C1236 C 0.24468 0.70147 0.67902 0.0
C1237 C 0.2606 0.74087 0.67811 0.0
C1238 C 0.28397 0.7493 0.70182 0.0
C1239 C 0.28376 0.74717 0.65394 0.0
C1240 C 0.22465 0.76344 0.67781 0.0
C1241 C 0.19341 0.74039 0.67915 0.0
C1242 C 0.15709 0.75453 0.67701 0.0
C1243 C 0.1526 0.7932 0.67318 0.0
C1244 C 0.18427 0.81724 0.67157 0.0
C1245 C 0.22066 0.80215 0.67437 0.0
H1246 H 0.82806 0.25844 0.86744 0.0
H1247 H 0.81668 0.13753 0.87442 0.0
H1248 H 0.7477 0.14356 0.87098 0.0
H1249 H 0.75202 0.28041 0.90605 0.0
H1250 H 0.73734 0.32097 0.88827 0.0
H1251 H 0.78578 0.30668 0.88782 0.0
H1252 H 0.78384 0.30282 0.83903 0.0
H1253 H 0.73528 0.31713 0.83935 0.0
H1254 H 0.74871 0.27409 0.82391 0.0
H1255 H 0.67978 0.16327 0.86981 0.0
H1256 H 0.61849 0.1953 0.87381 0.0
H1257 H 0.67484 0.30329 0.86903 0.0
C1258 C 0.81112 0.23315 0.86767 0.0
C1259 C 0.8277 0.19749 0.87096 0.0
C1260 C 0.80452 0.16513 0.87184 0.0
C1261 C 0.76536 0.16826 0.86977 0.0
C1262 C 0.74985 0.20393 0.86692 0.0
C1263 C 0.77203 0.23581 0.86597 0.0
C1264 C 0.74838 0.27107 0.86521 0.0
C1265 C 0.75635 0.29624 0.88821 0.0
C1266 C 0.75441 0.29253 0.84039 0.0
C1267 C 0.70944 0.25409 0.86645 0.0
C1268 C 0.7108 0.21533 0.86697 0.0
C1269 C 0.67834 0.19361 0.86917 0.0
C1270 C 0.64365 0.21205 0.87139 0.0
C1271 C 0.64185 0.25179 0.87174 0.0
C1272 C 0.67521 0.27288 0.86876 0.0
H1273 H 0.31897 0.81745 0.38182 0.0
H1274 H 0.21399 0.8696 0.35908 0.0
H1275 H 0.1864 0.80706 0.35188 0.0
H1276 H 0.31434 0.73833 0.33661 0.0
H1277 H 0.33433 0.70559 0.35878 0.0
H1278 H 0.34707 0.75455 0.36017 0.0
H1279 H 0.3265 0.75701 0.40699 0.0
H1280 H 0.31364 0.70816 0.40574 0.0
H1281 H 0.27955 0.74267 0.41544 0.0
H1282 H 0.16773 0.73968 0.35197 0.0
H1283 H 0.16034 0.67113 0.35709 0.0
H1284 H 0.27794 0.66169 0.37741 0.0
C1285 C 0.29036 0.81576 0.37495 0.0
C1286 C 0.26868 0.84856 0.37104 0.0
C1287 C 0.23127 0.84501 0.36216 0.0
C1288 C 0.21531 0.80956 0.35798 0.0
C1289 C 0.23722 0.77787 0.36243 0.0
C1290 C 0.27406 0.78055 0.37043 0.0
C1291 C 0.2909 0.74196 0.37478 0.0
C1292 C 0.3236 0.73468 0.35649 0.0
C1293 C 0.30337 0.73719 0.40237 0.0
C1294 C 0.25739 0.71725 0.36867 0.0
C1295 C 0.22675 0.73862 0.36156 0.0
C1296 C 0.19169 0.72257 0.35702 0.0
C1297 C 0.18771 0.68369 0.36006 0.0
C1298 C 0.21868 0.66126 0.36728 0.0
C1299 C 0.2541 0.67818 0.37123 0.0
H1300 H 0.18336 0.75368 0.86092 0.0
H1301 H 0.1911 0.63434 0.87665 0.0
H1302 H 0.26038 0.63809 0.8731 0.0
H1303 H 0.2628 0.76045 0.81685 0.0
H1304 H 0.27722 0.80539 0.82916 0.0
H1305 H 0.22834 0.79214 0.82977 0.0
H1306 H 0.22638 0.80372 0.87801 0.0
H1307 H 0.27512 0.81703 0.87754 0.0
H1308 H 0.25952 0.77982 0.89808 0.0
H1309 H 0.32928 0.6562 0.87054 0.0
H1310 H 0.39122 0.68773 0.8726 0.0
H1311 H 0.33703 0.79524 0.86002 0.0
C1312 C 0.1995 0.72811 0.86309 0.0
C1313 C 0.18184 0.69363 0.8688 0.0
C1314 C 0.20408 0.66104 0.87215 0.0
C1315 C 0.2434 0.66287 0.87004 0.0
C1316 C 0.25993 0.6975 0.86466 0.0
C1317 C 0.2386 0.72954 0.86137 0.0
C1318 C 0.26301 0.76398 0.85814 0.0
C1319 C 0.25751 0.78151 0.83192 0.0
C1320 C 0.25557 0.79281 0.8792 0.0
C1321 C 0.30149 0.7465 0.86066 0.0
C1322 C 0.29929 0.70806 0.86396 0.0
C1323 C 0.33133 0.68624 0.86775 0.0
C1324 C 0.36639 0.70437 0.86882 0.0
C1325 C 0.36893 0.74393 0.86648 0.0
C1326 C 0.33605 0.76496 0.86182 0.0
H1327 H 0.81269 0.17977 0.37473 0.0
H1328 H 0.70513 0.13108 0.35384 0.0
H1329 H 0.67957 0.19461 0.347 0.0
H1330 H 0.77693 0.25566 0.40908 0.0
H1331 H 0.81203 0.28896 0.39899 0.0
H1332 H 0.82306 0.23969 0.40003 0.0
H1333 H 0.8424 0.24157 0.35296 0.0
H1334 H 0.83147 0.29096 0.35177 0.0
H1335 H 0.80964 0.25901 0.32984 0.0
H1336 H 0.66368 0.26288 0.34677 0.0
H1337 H 0.65913 0.33159 0.3517 0.0
H1338 H 0.77735 0.33682 0.37114 0.0
C1339 C 0.78392 0.18236 0.36833 0.0
C1340 C 0.76096 0.15026 0.3648 0.0
C1341 C 0.72337 0.15509 0.3566 0.0
C1342 C 0.70858 0.19111 0.35263 0.0
C1343 C 0.73179 0.22208 0.35668 0.0
C1344 C 0.76875 0.21812 0.36413 0.0
C1345 C 0.78715 0.2561 0.36829 0.0
C1346 C 0.80057 0.26034 0.39573 0.0
C1347 C 0.81959 0.26226 0.3496 0.0
C1348 C 0.75445 0.28203 0.36264 0.0
C1349 C 0.72283 0.26174 0.35591 0.0
C1350 C 0.68838 0.27909 0.35161 0.0
C1351 C 0.68603 0.31812 0.35456 0.0
C1352 C 0.71794 0.33949 0.36154 0.0
C1353 C 0.75274 0.32123 0.3652 0.0
H1354 H 0.33255 0.77327 0.16969 0.0
H1355 H 0.32339 0.65178 0.17133 0.0
H1356 H 0.2544 0.65696 0.17457 0.0
H1357 H 0.25293 0.79392 0.21228 0.0
H1358 H 0.23831 0.83405 0.19405 0.0
H1359 H 0.28721 0.82097 0.19502 0.0
H1360 H 0.28846 0.8174 0.14622 0.0
H1361 H 0.23965 0.83038 0.14512 0.0
H1362 H 0.25514 0.78769 0.13014 0.0
H1363 H 0.18624 0.67508 0.17466 0.0
H1364 H 0.12402 0.70474 0.16957 0.0
H1365 H 0.17747 0.81438 0.16647 0.0
C1366 C 0.31607 0.74781 0.17133 0.0
C1367 C 0.33336 0.71212 0.17051 0.0
C1368 C 0.31075 0.67941 0.172 0.0
C1369 C 0.27154 0.68206 0.17395 0.0
C1370 C 0.25529 0.71763 0.17426 0.0
C1371 C 0.27681 0.74994 0.17293 0.0
C1372 C 0.2522 0.78458 0.17141 0.0
C1373 C 0.25801 0.80987 0.19457 0.0
C1374 C 0.25929 0.80627 0.14676 0.0
C1375 C 0.21357 0.76664 0.17162 0.0
C1376 C 0.21594 0.72805 0.17364 0.0
C1377 C 0.18401 0.70532 0.17328 0.0
C1378 C 0.14876 0.72245 0.17039 0.0
C1379 C 0.14572 0.76192 0.16763 0.0
C1380 C 0.17868 0.78417 0.16864 0.0
H1381 H 0.74958 0.17762 0.66496 0.0
H1382 H 0.62892 0.19435 0.66877 0.0
H1383 H 0.63898 0.26244 0.67487 0.0
H1384 H 0.77701 0.25116 0.71041 0.0
H1385 H 0.81753 0.26468 0.69214 0.0
H1386 H 0.80103 0.21682 0.69135 0.0
H1387 H 0.79585 0.22027 0.64266 0.0
H1388 H 0.81231 0.26803 0.6433 0.0
H1389 H 0.76812 0.25694 0.62844 0.0
H1390 H 0.66197 0.32892 0.67754 0.0
H1391 H 0.69574 0.38919 0.67387 0.0
H1392 H 0.80133 0.32897 0.66686 0.0
C1393 C 0.72529 0.19549 0.66765 0.0
C1394 C 0.68848 0.18071 0.66665 0.0
C1395 C 0.65738 0.20512 0.66956 0.0
C1396 C 0.66282 0.24376 0.67317 0.0
C1397 C 0.6995 0.25751 0.6737 0.0
C1398 C 0.7302 0.23413 0.67092 0.0
C1399 C 0.76649 0.25629 0.66981 0.0
C1400 C 0.79201 0.24666 0.69227 0.0
C1401 C 0.78687 0.25001 0.64455 0.0
C1402 C 0.75134 0.29586 0.67187 0.0
C1403 C 0.71271 0.29594 0.67452 0.0
C1404 C 0.69226 0.32922 0.6757 0.0
C1405 C 0.71173 0.36333 0.67361 0.0
C1406 C 0.75122 0.36387 0.67008 0.0
C1407 C 0.77119 0.32959 0.66967 0.0
H1408 H 0.36366 0.07287 0.31836 0.0
H1409 H 0.42418 0.9671 0.31892 0.0
H1410 H 0.46665 0.99082 0.28604 0.0
H1411 H 0.36808 0.08233 0.24935 0.0
H1412 H 0.37217 0.13278 0.25019 0.0
H1413 H 0.34733 0.10846 0.27491 0.0
H1414 H 0.3905 0.13988 0.30809 0.0
H1415 H 0.41582 0.16387 0.28345 0.0
H1416 H 0.44073 0.13457 0.30553 0.0
H1417 H 0.5061 0.02729 0.25648 0.0
H1418 H 0.53304 0.06946 0.22458 0.0
H1419 H 0.44176 0.14826 0.23652 0.0
C1420 C 0.38568 0.05467 0.3114 0.0
C1421 C 0.39159 0.01864 0.32206 0.0
C1422 C 0.42022 0.99543 0.31201 0.0
C1423 C 0.44437 0.00854 0.29316 0.0
C1424 C 0.43875 0.04453 0.28374 0.0
C1425 C 0.40949 0.06694 0.29185 0.0
C1426 C 0.4086 0.10356 0.27705 0.0
C1427 C 0.37186 0.10698 0.26198 0.0
C1428 C 0.41425 0.13747 0.29458 0.0
C1429 C 0.44222 0.09824 0.2597 0.0
C1430 C 0.45946 0.06421 0.26437 0.0
C1431 C 0.49221 0.05349 0.25204 0.0
C1432 C 0.50714 0.07757 0.23378 0.0
C1433 C 0.4887 0.11143 0.2272 0.0
C1434 C 0.4562 0.12229 0.24081 0.0
H1435 H 0.49643 0.38112 0.79613 0.0
H1436 H 0.40871 0.36826 0.8521 0.0
H1437 H 0.36342 0.39945 0.82346 0.0
H1438 H 0.46772 0.47218 0.77286 0.0
H1439 H 0.47881 0.46171 0.74046 0.0
H1440 H 0.50439 0.43905 0.7655 0.0
H1441 H 0.48669 0.37391 0.74722 0.0
H1442 H 0.46109 0.39636 0.72212 0.0
H1443 H 0.43792 0.36251 0.74206 0.0
H1444 H 0.32839 0.43351 0.78926 0.0
H1445 H 0.30491 0.4653 0.751 0.0
H1446 H 0.41433 0.45286 0.716 0.0
C1447 C 0.46769 0.38513 0.80228 0.0
C1448 C 0.45585 0.3727 0.82628 0.0
C1449 C 0.41808 0.3778 0.83375 0.0
C1450 C 0.3923 0.39548 0.81765 0.0
C1451 C 0.40476 0.40758 0.79409 0.0
C1452 C 0.4415 0.40244 0.78632 0.0
C1453 C 0.44737 0.41735 0.75982 0.0
C1454 C 0.47629 0.44948 0.75966 0.0
C1455 C 0.45895 0.38563 0.74174 0.0
C1456 C 0.40823 0.43165 0.7539 0.0
C1457 C 0.38418 0.42598 0.774 0.0
C1458 C 0.34683 0.43765 0.77328 0.0
C1459 C 0.33366 0.45538 0.75138 0.0
C1460 C 0.35756 0.46082 0.73035 0.0
C1461 C 0.39538 0.44889 0.73176 0.0
H1462 H 0.15805 0.4336 0.30547 0.0
H1463 H 0.07661 0.52156 0.3205 0.0
H1464 H 0.03342 0.49357 0.28988 0.0
H1465 H 0.13999 0.43638 0.23692 0.0
H1466 H 0.14779 0.38677 0.23265 0.0
H1467 H 0.17187 0.41165 0.25745 0.0
H1468 H 0.1453 0.36444 0.29004 0.0
H1469 H 0.12062 0.33981 0.26539 0.0
H1470 H 0.0952 0.35759 0.29225 0.0
H1471 H 0.99614 0.45286 0.26195 0.0
H1472 H 0.97231 0.41224 0.22817 0.0
H1473 H 0.08126 0.35813 0.22256 0.0
C1474 C 0.13129 0.44712 0.30216 0.0
C1475 C 0.11993 0.47866 0.31662 0.0
C1476 C 0.08507 0.49602 0.31104 0.0
C1477 C 0.06037 0.48054 0.29344 0.0
C1478 C 0.07152 0.4486 0.28044 0.0
C1479 C 0.10665 0.43288 0.28364 0.0
C1480 C 0.11237 0.40071 0.26507 0.0
C1481 C 0.14494 0.4094 0.24694 0.0
C1482 C 0.11875 0.36343 0.27903 0.0
C1483 C 0.07472 0.40074 0.25138 0.0
C1484 C 0.05146 0.42804 0.26124 0.0
C1485 C 0.01449 0.4323 0.25335 0.0
C1486 C 0.0013 0.40922 0.234 0.0
C1487 C 0.02538 0.38332 0.22177 0.0
C1488 C 0.06237 0.37822 0.23113 0.0
H1489 H 0.04958 0.0893 0.82766 0.0
H1490 H 0.98445 0.16456 0.78061 0.0
H1491 H 0.01252 0.1361 0.74254 0.0
H1492 H 0.13382 0.08723 0.78899 0.0
H1493 H 0.14254 0.03799 0.79423 0.0
H1494 H 0.11869 0.06532 0.81792 0.0
H1495 H 0.06275 0.01874 0.81713 0.0
H1496 H 0.0865 0.99114 0.79357 0.0
H1497 H 0.0398 0.00855 0.78762 0.0
H1498 H 0.04594 0.09842 0.7096 0.0
H1499 H 0.08145 0.05282 0.68378 0.0
H1500 H 0.12449 0.00063 0.75168 0.0
C1501 C 0.04146 0.09986 0.80931 0.0
C1502 C 0.01548 0.12974 0.80706 0.0
C1503 C 0.00512 0.1425 0.78277 0.0
C1504 C 0.02073 0.12632 0.76105 0.0
C1505 C 0.04651 0.09716 0.76389 0.0
C1506 C 0.05672 0.08388 0.78738 0.0
C1507 C 0.08407 0.05131 0.78509 0.0
C1508 C 0.12203 0.06106 0.79728 0.0
C1509 C 0.06727 0.01531 0.79653 0.0
C1510 C 0.08756 0.04831 0.75662 0.0
C1511 C 0.06567 0.07514 0.74481 0.0
C1512 C 0.06335 0.07748 0.71864 0.0
C1513 C 0.08361 0.05154 0.70414 0.0
C1514 C 0.10599 0.02366 0.71576 0.0
C1515 C 0.10817 0.02219 0.74236 0.0
H1516 H 0.61766 0.00944 0.74987 0.0
H1517 H 0.62148 0.92984 0.68824 0.0
H1518 H 0.59456 0.88063 0.71597 0.0
H1519 H 0.64172 0.943 0.79989 0.0
H1520 H 0.61034 0.96398 0.82254 0.0
H1521 H 0.63104 0.99241 0.79809 0.0
H1522 H 0.5647 0.01351 0.78387 0.0
H1523 H 0.5438 0.98505 0.8082 0.0
H1524 H 0.53008 0.97852 0.77579 0.0
H1525 H 0.56483 0.84097 0.74993 0.0
H1526 H 0.5352 0.81331 0.7878 0.0
H1527 H 0.55174 0.91798 0.82804 0.0
C1528 C 0.61314 0.98147 0.74244 0.0
C1529 C 0.62183 0.97303 0.71709 0.0
C1530 C 0.6152 0.93648 0.70772 0.0
C1531 C 0.59991 0.90849 0.72331 0.0
C1532 C 0.59143 0.91757 0.74825 0.0
C1533 C 0.59789 0.95314 0.75782 0.0
C1534 C 0.58555 0.95565 0.78517 0.0
C1535 C 0.61917 0.96426 0.80244 0.0
C1536 C 0.55417 0.98492 0.78844 0.0
C1537 C 0.57091 0.91609 0.78943 0.0
C1538 C 0.57461 0.89458 0.76789 0.0
C1539 C 0.56223 0.85742 0.76699 0.0
C1540 C 0.54567 0.84184 0.78865 0.0
C1541 C 0.54177 0.86324 0.81098 0.0
C1542 C 0.55458 0.90088 0.81127 0.0
H1543 H 0.50341 0.59385 0.23436 0.0
H1544 H 0.57727 0.68883 0.22129 0.0
H1545 H 0.6213 0.66435 0.25332 0.0
H1546 H 0.51987 0.58266 0.30098 0.0
H1547 H 0.51996 0.53207 0.29985 0.0
H1548 H 0.49291 0.55839 0.27724 0.0
H1549 H 0.52747 0.52482 0.24064 0.0
H1550 H 0.55449 0.49826 0.26314 0.0
H1551 H 0.57809 0.5259 0.23946 0.0
H1552 H 0.65736 0.6293 0.28711 0.0
H1553 H 0.68381 0.58532 0.31844 0.0
H1554 H 0.59056 0.50916 0.30557 0.0
C1555 C 0.52901 0.60935 0.23807 0.0
C1556 C 0.53682 0.64338 0.22527 0.0
C1557 C 0.5703 0.66309 0.23109 0.0
C1558 C 0.59564 0.64923 0.24915 0.0
C1559 C 0.58739 0.61532 0.2611 0.0
C1560 C 0.55501 0.59546 0.25564 0.0
C1561 C 0.55361 0.55885 0.27029 0.0
C1562 C 0.51956 0.55796 0.28815 0.0
C1563 C 0.55341 0.52496 0.25231 0.0
C1564 C 0.5902 0.56127 0.2849 0.0
C1565 C 0.60906 0.59425 0.27953 0.0
C1566 C 0.64299 0.60322 0.29124 0.0
C1567 C 0.658 0.57787 0.30888 0.0
C1568 C 0.63946 0.54364 0.31446 0.0
C1569 C 0.60522 0.53529 0.30205 0.0
H1570 H 0.91148 0.5042 0.73338 0.0
H1571 H 0.84191 0.59629 0.70709 0.0
H1572 H 0.86943 0.63748 0.73952 0.0
H1573 H 0.91503 0.52649 0.79882 0.0
H1574 H 0.96422 0.51586 0.80257 0.0
H1575 H 0.9371 0.49219 0.77868 0.0
H1576 H 0.98395 0.51425 0.74435 0.0
H1577 H 0.01151 0.53754 0.76818 0.0
H1578 H 0.99454 0.56357 0.74136 0.0
H1579 H 0.90167 0.66756 0.77653 0.0
H1580 H 0.94332 0.68781 0.81103 0.0
H1581 H 0.00184 0.58105 0.80738 0.0
C1582 C 0.90245 0.53319 0.73408 0.0
C1583 C 0.87392 0.54671 0.71779 0.0
C1584 C 0.86271 0.58477 0.71979 0.0
C1585 C 0.87844 0.60855 0.73805 0.0
C1586 C 0.90635 0.59431 0.75377 0.0
C1587 C 0.91902 0.55782 0.75155 0.0
C1588 C 0.9514 0.55051 0.76957 0.0
C1589 C 0.94132 0.51941 0.78853 0.0
C1590 C 0.98749 0.54091 0.75499 0.0
C1591 C 0.9545 0.58846 0.7825 0.0
C1592 C 0.92768 0.61299 0.77341 0.0
C1593 C 0.92338 0.6489 0.78338 0.0
C1594 C 0.94744 0.66028 0.80288 0.0
C1595 C 0.97633 0.63637 0.81183 0.0
C1596 C 0.97981 0.59994 0.80133 0.0
H1597 H 0.95508 0.92195 0.20894 0.0
H1598 H 0.96789 0.81202 0.24307 0.0
H1599 H 0.93304 0.83372 0.28054 0.0
H1600 H 0.9704 0.97366 0.26695 0.0
H1601 H 0.93734 0.01019 0.25918 0.0
H1602 H 0.96162 0.98548 0.23443 0.0
H1603 H 0.89782 0.96765 0.2142 0.0
H1604 H 0.87333 0.99219 0.23894 0.0
H1605 H 0.86301 0.94346 0.23284 0.0
H1606 H 0.89563 0.86695 0.31413 0.0
H1607 H 0.86266 0.91093 0.34279 0.0
H1608 H 0.87812 0.00084 0.28878 0.0
C1609 C 0.95061 0.90248 0.22433 0.0
C1610 C 0.96345 0.86491 0.22273 0.0
C1611 C 0.95722 0.84047 0.24339 0.0
C1612 C 0.93773 0.85267 0.2649 0.0
C1613 C 0.92514 0.8897 0.26577 0.0
C1614 C 0.93171 0.91443 0.24618 0.0
C1615 C 0.91646 0.9532 0.25235 0.0
C1616 C 0.94836 0.98235 0.25328 0.0
C1617 C 0.88583 0.96479 0.23346 0.0
C1618 C 0.90003 0.94631 0.27838 0.0
C1619 C 0.90511 0.90937 0.28566 0.0
C1620 C 0.89174 0.89598 0.3087 0.0
C1621 C 0.87301 0.92104 0.32482 0.0
C1622 C 0.8682 0.9591 0.318 0.0
C1623 C 0.88175 0.97185 0.29444 0.0
loop_
_geom_bond_atom_site_label_1
_geom_bond_atom_site_label_2
_geom_bond_distance
_geom_bond_site_symmetry_2
_ccdc_geom_bond_type
Co0 O3 1.970 . S
Co0 N17 1.989 . S
Co0 O25 1.967 . S
Co0 O32 1.920 . S
Co1 O4 1.966 . S
Co1 N10 2.022 . S
Co1 N18 1.993 . S
Co1 O26 1.941 . S
C2 O3 1.258 . S
C2 O4 1.263 . S
O3 Co0 1.970 . S
O3 C2 1.258 . S
O4 Co1 1.966 . S
O4 C2 1.263 . S
C5 O6 1.235 . S
C5 O32 1.289 . S
O6 C5 1.235 . S
C7 C9 1.400 . S
C7 N10 1.351 . S
C7 C12 1.501 . S
C8 C9 1.387 . S
C8 N11 1.341 . S
C9 C7 1.400 . S
C9 C8 1.387 . S
N10 Co1 2.022 . S
N10 C7 1.351 . S
N10 N11 1.365 . S
N11 C8 1.341 . S
N11 N10 1.365 . S
N11 H31 0.862 . S
C12 C7 1.501 . S
C12 H13 0.961 . S
C12 H14 0.961 . S
C12 H15 0.960 . S
H13 C12 0.961 . S
H14 C12 0.961 . S
H15 C12 0.960 . S
C16 N17 1.342 . S
C16 C20 1.401 . S
C16 C21 1.499 . S
N17 Co0 1.989 . S
N17 C16 1.342 . S
N17 N18 1.388 . S
N18 Co1 1.993 . S
N18 N17 1.388 . S
N18 C19 1.346 . S
C19 N18 1.346 . S
C19 C20 1.396 . S
C19 C29 1.510 . S
C20 C16 1.401 . S
C20 C19 1.396 . S
C21 C16 1.499 . S
C21 H22 0.959 . S
C21 H23 0.960 . S
C21 H24 0.961 . S
H22 C21 0.959 . S
H23 C21 0.960 . S
H24 C21 0.961 . S
O25 Co0 1.967 . S
O25 C33 1.258 . S
O26 Co1 1.941 . S
O26 C33 1.266 . S
H27 C29 0.959 . S
H28 C29 0.961 . S
C29 C19 1.510 . S
C29 H27 0.959 . S
C29 H28 0.961 . S
C29 H30 0.960 . S
H30 C29 0.960 . S
H31 N11 0.862 . S
O32 Co0 1.920 . S
O32 C5 1.289 . S
C33 O25 1.258 . S
C33 O26 1.266 . S
Co34 O37 1.970 . S
Co34 N51 1.989 . S
Co34 O59 1.967 . S
Co34 O66 1.920 . S
Co35 O38 1.966 . S
Co35 N44 2.022 . S
Co35 N52 1.993 . S
Co35 O60 1.941 . S
C36 O37 1.258 . S
C36 O38 1.263 . S
O37 Co34 1.970 . S
O37 C36 1.258 . S
O38 Co35 1.966 . S
O38 C36 1.263 . S
C39 O40 1.235 . S
C39 O66 1.289 . S
O40 C39 1.235 . S
C41 C43 1.400 . S
C41 N44 1.351 . S
C41 C46 1.501 . S
C42 C43 1.387 . S
C42 N45 1.341 . S
C43 C41 1.400 . S
C43 C42 1.387 . S
N44 Co35 2.022 . S
N44 C41 1.351 . S
N44 N45 1.365 . S
N45 C42 1.341 . S
N45 N44 1.365 . S
N45 H65 0.862 . S
C46 C41 1.501 . S
C46 H47 0.961 . S
C46 H48 0.961 . S
C46 H49 0.960 . S
H47 C46 0.961 . S
H48 C46 0.961 . S
H49 C46 0.960 . S
C50 N51 1.342 . S
C50 C54 1.401 . S
C50 C55 1.499 . S
N51 Co34 1.989 . S
N51 C50 1.342 . S
N51 N52 1.388 . S
N52 Co35 1.993 . S
N52 N51 1.388 . S
N52 C53 1.346 . S
C53 N52 1.346 . S
C53 C54 1.396 . S
C53 C63 1.510 . S
C54 C50 1.401 . S
C54 C53 1.396 . S
C55 C50 1.499 . S
C55 H56 0.959 . S
C55 H57 0.960 . S
C55 H58 0.961 . S
H56 C55 0.959 . S
H57 C55 0.960 . S
H58 C55 0.961 . S
O59 Co34 1.967 . S
O59 C67 1.258 . S
O60 Co35 1.941 . S
O60 C67 1.266 . S
H61 C63 0.959 . S
H62 C63 0.961 . S
C63 C53 1.510 . S
C63 H61 0.959 . S
C63 H62 0.961 . S
C63 H64 0.960 . S
H64 C63 0.960 . S
H65 N45 0.862 . S
O66 Co34 1.920 . S
O66 C39 1.289 . S
C67 O59 1.258 . S
C67 O60 1.266 . S
Co68 O71 1.970 . S
Co68 N85 1.989 1_655 S
Co68 O93 1.967 . S
Co68 O100 1.920 . S
Co69 O72 1.966 . S
Co69 N78 2.022 . S
Co69 N86 1.993 1_655 S
Co69 O94 1.941 . S
C70 O71 1.258 . S
C70 O72 1.263 . S
O71 Co68 1.970 . S
O71 C70 1.258 . S
O72 Co69 1.966 . S
O72 C70 1.263 . S
C73 O74 1.235 . S
C73 O100 1.289 1_455 S
O74 C73 1.235 . S
C75 C77 1.400 . S
C75 N78 1.351 . S
C75 C80 1.501 1_655 S
C76 C77 1.387 . S
C76 N79 1.341 . S
C77 C75 1.400 . S
C77 C76 1.387 . S
N78 Co69 2.022 . S
N78 C75 1.351 . S
N78 N79 1.365 . S
N79 C76 1.341 . S
N79 N78 1.365 . S
N79 H99 0.862 . S
C80 C75 1.501 1_455 S
C80 H81 0.958 1_455 S
C80 H82 0.961 . S
C80 H83 0.960 1_455 S
H81 C80 0.958 1_655 S
H82 C80 0.961 . S
H83 C80 0.960 1_655 S
C84 N85 1.342 . S
C84 C88 1.401 . S
C84 C89 1.499 . S
N85 Co68 1.989 1_455 S
N85 C84 1.342 . S
N85 N86 1.388 . S
N86 Co69 1.993 1_455 S
N86 N85 1.388 . S
N86 C87 1.346 . S
C87 N86 1.346 . S
C87 C88 1.396 . S
C87 C97 1.510 . S
C88 C84 1.401 . S
C88 C87 1.396 . S
C89 C84 1.499 . S
C89 H90 0.959 . S
C89 H91 0.960 . S
C89 H92 0.961 . S
H90 C89 0.959 . S
H91 C89 0.960 . S
H92 C89 0.961 . S
O93 Co68 1.967 . S
O93 C101 1.258 . S
O94 Co69 1.941 . S
O94 C101 1.266 . S
H95 C97 0.959 . S
H96 C97 0.961 . S
C97 C87 1.510 . S
C97 H95 0.959 . S
C97 H96 0.961 . S
C97 H98 0.960 . S
H98 C97 0.960 . S
H99 N79 0.862 . S
O100 Co68 1.920 . S
O100 C73 1.289 1_655 S
C101 O93 1.258 . S
C101 O94 1.266 . S
Co102 O105 1.970 . S
Co102 N119 1.989 1_565 S
Co102 O127 1.967 . S
Co102 O134 1.920 . S
Co103 O106 1.966 . S
Co103 N112 2.022 . S
Co103 N120 1.993 1_565 S
Co103 O128 1.941 . S
C104 O105 1.258 . S
C104 O106 1.263 . S
O105 Co102 1.970 . S
O105 C104 1.258 . S
O106 Co103 1.966 . S
O106 C104 1.263 . S
C107 O108 1.235 . S
C107 O134 1.289 1_545 S
O108 C107 1.235 . S
C109 C111 1.400 . S
C109 N112 1.351 . S
C109 C114 1.501 1_565 S
C110 C111 1.387 . S
C110 N113 1.341 . S
C111 C109 1.400 . S
C111 C110 1.387 . S
N112 Co103 2.022 . S
N112 C109 1.351 . S
N112 N113 1.365 . S
N113 C110 1.341 . S
N113 N112 1.365 . S
N113 H133 0.862 . S
C114 C109 1.501 1_545 S
C114 H115 0.958 1_545 S
C114 H116 0.961 . S
C114 H117 0.960 1_545 S
H115 C114 0.958 1_565 S
H116 C114 0.961 . S
H117 C114 0.960 1_565 S
C118 N119 1.342 . S
C118 C122 1.401 . S
C118 C123 1.499 . S
N119 Co102 1.989 1_545 S
N119 C118 1.342 . S
N119 N120 1.388 . S
N120 Co103 1.993 1_545 S
N120 N119 1.388 . S
N120 C121 1.346 . S
C121 N120 1.346 . S
C121 C122 1.396 . S
C121 C131 1.510 . S
C122 C118 1.401 . S
C122 C121 1.396 . S
C123 C118 1.499 . S
C123 H124 0.959 . S
C123 H125 0.960 . S
C123 H126 0.961 . S
H124 C123 0.959 . S
H125 C123 0.960 . S
H126 C123 0.961 . S
O127 Co102 1.967 . S
O127 C135 1.258 . S
O128 Co103 1.941 . S
O128 C135 1.266 . S
H129 C131 0.959 . S
H130 C131 0.961 . S
C131 C121 1.510 . S
C131 H129 0.959 . S
C131 H130 0.961 . S
C131 H132 0.960 . S
H132 C131 0.960 . S
H133 N113 0.862 . S
O134 Co102 1.920 . S
O134 C107 1.289 1_565 S
C135 O127 1.258 . S
C135 O128 1.266 . S
Co136 O139 1.970 . S
Co136 N153 1.989 . S
Co136 O161 1.967 . S
Co136 O168 1.920 . S
Co137 O140 1.966 . S
Co137 N146 2.022 . S
Co137 N154 1.993 . S
Co137 O162 1.941 . S
C138 O139 1.258 . S
C138 O140 1.263 . S
O139 Co136 1.970 . S
O139 C138 1.258 . S
O140 Co137 1.966 . S
O140 C138 1.263 . S
C141 O142 1.235 . S
C141 O168 1.289 . S
O142 C141 1.235 . S
C143 C145 1.400 . S
C143 N146 1.351 . S
C143 C148 1.501 . S
C144 C145 1.387 . S
C144 N147 1.341 . S
C145 C143 1.400 . S
C145 C144 1.387 . S
N146 Co137 2.022 . S
N146 C143 1.351 . S
N146 N147 1.365 . S
N147 C144 1.341 . S
N147 N146 1.365 . S
N147 H167 0.862 . S
C148 C143 1.501 . S
C148 H149 0.961 . S
C148 H150 0.961 . S
C148 H151 0.960 . S
H149 C148 0.961 . S
H150 C148 0.961 . S
H151 C148 0.960 . S
C152 N153 1.342 . S
C152 C156 1.401 . S
C152 C157 1.499 . S
N153 Co136 1.989 . S
N153 C152 1.342 . S
N153 N154 1.388 . S
N154 Co137 1.993 . S
N154 N153 1.388 . S
N154 C155 1.346 . S
C155 N154 1.346 . S
C155 C156 1.396 . S
C155 C165 1.510 . S
C156 C152 1.401 . S
C156 C155 1.396 . S
C157 C152 1.499 . S
C157 H158 0.959 . S
C157 H159 0.960 . S
C157 H160 0.961 . S
H158 C157 0.959 . S
H159 C157 0.960 . S
H160 C157 0.961 . S
O161 Co136 1.967 . S
O161 C169 1.258 . S
O162 Co137 1.941 . S
O162 C169 1.266 . S
H163 C165 0.959 . S
H164 C165 0.961 . S
C165 C155 1.510 . S
C165 H163 0.959 . S
C165 H164 0.961 . S
C165 H166 0.960 . S
H166 C165 0.960 . S
H167 N147 0.862 . S
O168 Co136 1.920 . S
O168 C141 1.289 . S
C169 O161 1.258 . S
C169 O162 1.266 . S
Co170 O173 1.970 . S
Co170 N187 1.989 . S
Co170 O195 1.967 . S
Co170 O202 1.920 . S
Co171 O174 1.966 . S
Co171 N180 2.022 . S
Co171 N188 1.993 . S
Co171 O196 1.941 . S
C172 O173 1.258 . S
C172 O174 1.263 . S
O173 Co170 1.970 . S
O173 C172 1.258 . S
O174 Co171 1.966 . S
O174 C172 1.263 . S
C175 O176 1.235 . S
C175 O202 1.289 . S
O176 C175 1.235 . S
C177 C179 1.400 . S
C177 N180 1.351 . S
C177 C182 1.501 . S
C178 C179 1.387 . S
C178 N181 1.341 . S
C179 C177 1.400 . S
C179 C178 1.387 . S
N180 Co171 2.022 . S
N180 C177 1.351 . S
N180 N181 1.365 . S
N181 C178 1.341 . S
N181 N180 1.365 . S
N181 H201 0.862 . S
C182 C177 1.501 . S
C182 H183 0.961 . S
C182 H184 0.961 . S
C182 H185 0.960 . S
H183 C182 0.961 . S
H184 C182 0.961 . S
H185 C182 0.960 . S
C186 N187 1.342 . S
C186 C190 1.401 . S
C186 C191 1.499 . S
N187 Co170 1.989 . S
N187 C186 1.342 . S
N187 N188 1.388 . S
N188 Co171 1.993 . S
N188 N187 1.388 . S
N188 C189 1.346 . S
C189 N188 1.346 . S
C189 C190 1.396 . S
C189 C199 1.510 . S
C190 C186 1.401 . S
C190 C189 1.396 . S
C191 C186 1.499 . S
C191 H192 0.959 . S
C191 H193 0.960 . S
C191 H194 0.961 . S
H192 C191 0.959 . S
H193 C191 0.960 . S
H194 C191 0.961 . S
O195 Co170 1.967 . S
O195 C203 1.258 . S
O196 Co171 1.941 . S
O196 C203 1.266 . S
H197 C199 0.959 . S
H198 C199 0.961 . S
C199 C189 1.510 . S
C199 H197 0.959 . S
C199 H198 0.961 . S
C199 H200 0.960 . S
H200 C199 0.960 . S
H201 N181 0.862 . S
O202 Co170 1.920 . S
O202 C175 1.289 . S
C203 O195 1.258 . S
C203 O196 1.266 . S
Co204 O207 1.970 . S
Co204 N221 1.989 1_655 S
Co204 O229 1.967 . S
Co204 O236 1.920 . S
Co205 O208 1.966 . S
Co205 N214 2.022 . S
Co205 N222 1.993 1_655 S
Co205 O230 1.941 . S
C206 O207 1.258 . S
C206 O208 1.263 . S
O207 Co204 1.970 . S
O207 C206 1.258 . S
O208 Co205 1.966 . S
O208 C206 1.263 . S
C209 O210 1.235 . S
C209 O236 1.289 1_455 S
O210 C209 1.235 . S
C211 C213 1.400 . S
C211 N214 1.351 . S
C211 C216 1.501 1_655 S
C212 C213 1.387 . S
C212 N215 1.341 . S
C213 C211 1.400 . S
C213 C212 1.387 . S
N214 Co205 2.022 . S
N214 C211 1.351 . S
N214 N215 1.365 . S
N215 C212 1.341 . S
N215 N214 1.365 . S
N215 H235 0.862 . S
C216 C211 1.501 1_455 S
C216 H217 0.958 1_455 S
C216 H218 0.961 . S
C216 H219 0.960 1_455 S
H217 C216 0.958 1_655 S
H218 C216 0.961 . S
H219 C216 0.960 1_655 S
C220 N221 1.342 . S
C220 C224 1.401 . S
C220 C225 1.499 . S
N221 Co204 1.989 1_455 S
N221 C220 1.342 . S
N221 N222 1.388 . S
N222 Co205 1.993 1_455 S
N222 N221 1.388 . S
N222 C223 1.346 . S
C223 N222 1.346 . S
C223 C224 1.396 . S
C223 C233 1.510 . S
C224 C220 1.401 . S
C224 C223 1.396 . S
C225 C220 1.499 . S
C225 H226 0.959 . S
C225 H227 0.960 . S
C225 H228 0.961 . S
H226 C225 0.959 . S
H227 C225 0.960 . S
H228 C225 0.961 . S
O229 Co204 1.967 . S
O229 C237 1.258 . S
O230 Co205 1.941 . S
O230 C237 1.266 . S
H231 C233 0.959 . S
H232 C233 0.961 . S
C233 C223 1.510 . S
C233 H231 0.959 . S
C233 H232 0.961 . S
C233 H234 0.960 . S
H234 C233 0.960 . S
H235 N215 0.862 . S
O236 Co204 1.920 . S
O236 C209 1.289 1_655 S
C237 O229 1.258 . S
C237 O230 1.266 . S
Co238 O241 1.970 . S
Co238 N255 1.989 1_565 S
Co238 O263 1.967 . S
Co238 O270 1.920 . S
Co239 O242 1.966 . S
Co239 N248 2.022 . S
Co239 N256 1.993 1_565 S
Co239 O264 1.941 . S
C240 O241 1.258 . S
C240 O242 1.263 . S
O241 Co238 1.970 . S
O241 C240 1.258 . S
O242 Co239 1.966 . S
O242 C240 1.263 . S
C243 O244 1.235 . S
C243 O270 1.289 1_545 S
O244 C243 1.235 . S
C245 C247 1.400 . S
C245 N248 1.351 . S
C245 C250 1.501 1_565 S
C246 C247 1.387 . S
C246 N249 1.341 . S
C247 C245 1.400 . S
C247 C246 1.387 . S
N248 Co239 2.022 . S
N248 C245 1.351 . S
N248 N249 1.365 . S
N249 C246 1.341 . S
N249 N248 1.365 . S
N249 H269 0.862 . S
C250 C245 1.501 1_545 S
C250 H251 0.958 1_545 S
C250 H252 0.961 . S
C250 H253 0.960 1_545 S
H251 C250 0.958 1_565 S
H252 C250 0.961 . S
H253 C250 0.960 1_565 S
C254 N255 1.342 . S
C254 C258 1.401 . S
C254 C259 1.499 . S
N255 Co238 1.989 1_545 S
N255 C254 1.342 . S
N255 N256 1.388 . S
N256 Co239 1.993 1_545 S
N256 N255 1.388 . S
N256 C257 1.346 . S
C257 N256 1.346 . S
C257 C258 1.396 . S
C257 C267 1.510 . S
C258 C254 1.401 . S
C258 C257 1.396 . S
C259 C254 1.499 . S
C259 H260 0.959 . S
C259 H261 0.960 . S
C259 H262 0.961 . S
H260 C259 0.959 . S
H261 C259 0.960 . S
H262 C259 0.961 . S
O263 Co238 1.967 . S
O263 C271 1.258 . S
O264 Co239 1.941 . S
O264 C271 1.266 . S
H265 C267 0.959 . S
H266 C267 0.961 . S
C267 C257 1.510 . S
C267 H265 0.959 . S
C267 H266 0.961 . S
C267 H268 0.960 . S
H268 C267 0.960 . S
H269 N249 0.862 . S
O270 Co238 1.920 . S
O270 C243 1.289 1_565 S
C271 O263 1.258 . S
C271 O264 1.266 . S
Co272 O275 1.970 . S
Co272 N289 1.989 . S
Co272 O297 1.967 . S
Co272 O304 1.920 . S
Co273 O276 1.966 . S
Co273 N282 2.022 . S
Co273 N290 1.993 . S
Co273 O298 1.941 . S
C274 O275 1.258 . S
C274 O276 1.263 . S
O275 Co272 1.970 . S
O275 C274 1.258 . S
O276 Co273 1.966 . S
O276 C274 1.263 . S
C277 O278 1.235 . S
C277 O304 1.289 . S
O278 C277 1.235 . S
C279 C281 1.400 . S
C279 N282 1.351 . S
C279 C284 1.501 . S
C280 C281 1.387 . S
C280 N283 1.341 . S
C281 C279 1.400 . S
C281 C280 1.387 . S
N282 Co273 2.022 . S
N282 C279 1.351 . S
N282 N283 1.365 . S
N283 C280 1.341 . S
N283 N282 1.365 . S
N283 H303 0.862 . S
C284 C279 1.501 . S
C284 H285 0.961 . S
C284 H286 0.961 . S
C284 H287 0.960 . S
H285 C284 0.961 . S
H286 C284 0.961 . S
H287 C284 0.960 . S
C288 N289 1.342 . S
C288 C292 1.401 . S
C288 C293 1.499 . S
N289 Co272 1.989 . S
N289 C288 1.342 . S
N289 N290 1.388 . S
N290 Co273 1.993 . S
N290 N289 1.388 . S
N290 C291 1.346 . S
C291 N290 1.346 . S
C291 C292 1.396 . S
C291 C301 1.510 . S
C292 C288 1.401 . S
C292 C291 1.396 . S
C293 C288 1.499 . S
C293 H294 0.959 . S
C293 H295 0.960 . S
C293 H296 0.961 . S
H294 C293 0.959 . S
H295 C293 0.960 . S
H296 C293 0.961 . S
O297 Co272 1.967 . S
O297 C305 1.258 . S
O298 Co273 1.941 . S
O298 C305 1.266 . S
H299 C301 0.959 . S
H300 C301 0.961 . S
C301 C291 1.510 . S
C301 H299 0.959 . S
C301 H300 0.961 . S
C301 H302 0.960 . S
H302 C301 0.960 . S
H303 N283 0.862 . S
O304 Co272 1.920 . S
O304 C277 1.289 . S
C305 O297 1.258 . S
C305 O298 1.266 . S
Co306 O309 1.970 . S
Co306 N323 1.989 . S
Co306 O331 1.967 . S
Co306 O338 1.920 . S
Co307 O310 1.966 . S
Co307 N316 2.022 . S
Co307 N324 1.993 . S
Co307 O332 1.941 . S
C308 O309 1.258 . S
C308 O310 1.263 . S
O309 Co306 1.970 . S
O309 C308 1.258 . S
O310 Co307 1.966 . S
O310 C308 1.263 . S
C311 O312 1.235 . S
C311 O338 1.289 . S
O312 C311 1.235 . S
C313 C315 1.400 . S
C313 N316 1.351 . S
C313 C318 1.501 . S
C314 C315 1.387 . S
C314 N317 1.341 . S
C315 C313 1.400 . S
C315 C314 1.387 . S
N316 Co307 2.022 . S
N316 C313 1.351 . S
N316 N317 1.365 . S
N317 C314 1.341 . S
N317 N316 1.365 . S
N317 H337 0.862 . S
C318 C313 1.501 . S
C318 H319 0.961 . S
C318 H320 0.961 . S
C318 H321 0.960 . S
H319 C318 0.961 . S
H320 C318 0.961 . S
H321 C318 0.960 . S
C322 N323 1.342 . S
C322 C326 1.401 . S
C322 C327 1.499 . S
N323 Co306 1.989 . S
N323 C322 1.342 . S
N323 N324 1.388 . S
N324 Co307 1.993 . S
N324 N323 1.388 . S
N324 C325 1.346 . S
C325 N324 1.346 . S
C325 C326 1.396 . S
C325 C335 1.510 . S
C326 C322 1.401 . S
C326 C325 1.396 . S
C327 C322 1.499 . S
C327 H328 0.959 . S
C327 H329 0.960 . S
C327 H330 0.961 . S
H328 C327 0.959 . S
H329 C327 0.960 . S
H330 C327 0.961 . S
O331 Co306 1.967 . S
O331 C339 1.258 . S
O332 Co307 1.941 . S
O332 C339 1.266 . S
H333 C335 0.959 . S
H334 C335 0.961 . S
C335 C325 1.510 . S
C335 H333 0.959 . S
C335 H334 0.961 . S
C335 H336 0.960 . S
H336 C335 0.960 . S
H337 N317 0.862 . S
O338 Co306 1.920 . S
O338 C311 1.289 . S
C339 O331 1.258 . S
C339 O332 1.266 . S
Co340 O343 1.970 . S
Co340 N357 1.989 1_455 S
Co340 O365 1.967 . S
Co340 O372 1.920 . S
Co341 O344 1.966 . S
Co341 N350 2.022 . S
Co341 N358 1.993 1_455 S
Co341 O366 1.941 . S
C342 O343 1.258 . S
C342 O344 1.263 . S
O343 Co340 1.970 . S
O343 C342 1.258 . S
O344 Co341 1.966 . S
O344 C342 1.263 . S
C345 O346 1.235 . S
C345 O372 1.289 1_655 S
O346 C345 1.235 . S
C347 C349 1.400 . S
C347 N350 1.351 . S
C347 C352 1.501 1_455 S
C348 C349 1.387 . S
C348 N351 1.341 . S
C349 C347 1.400 . S
C349 C348 1.387 . S
N350 Co341 2.022 . S
N350 C347 1.351 . S
N350 N351 1.365 . S
N351 C348 1.341 . S
N351 N350 1.365 . S
N351 H371 0.862 . S
C352 C347 1.501 1_655 S
C352 H353 0.958 1_655 S
C352 H354 0.961 . S
C352 H355 0.960 1_655 S
H353 C352 0.958 1_455 S
H354 C352 0.961 . S
H355 C352 0.960 1_455 S
C356 N357 1.342 . S
C356 C360 1.401 . S
C356 C361 1.499 . S
N357 Co340 1.989 1_655 S
N357 C356 1.342 . S
N357 N358 1.388 . S
N358 Co341 1.993 1_655 S
N358 N357 1.388 . S
N358 C359 1.346 . S
C359 N358 1.346 . S
C359 C360 1.396 . S
C359 C369 1.510 . S
C360 C356 1.401 . S
C360 C359 1.396 . S
C361 C356 1.499 . S
C361 H362 0.959 . S
C361 H363 0.960 . S
C361 H364 0.961 . S
H362 C361 0.959 . S
H363 C361 0.960 . S
H364 C361 0.961 . S
O365 Co340 1.967 . S
O365 C373 1.258 . S
O366 Co341 1.941 . S
O366 C373 1.266 . S
H367 C369 0.959 . S
H368 C369 0.961 . S
C369 C359 1.510 . S
C369 H367 0.959 . S
C369 H368 0.961 . S
C369 H370 0.960 . S
H370 C369 0.960 . S
H371 N351 0.862 . S
O372 Co340 1.920 . S
O372 C345 1.289 1_455 S
C373 O365 1.258 . S
C373 O366 1.266 . S
Co374 O377 1.970 . S
Co374 N391 1.989 1_545 S
Co374 O399 1.967 . S
Co374 O406 1.920 . S
Co375 O378 1.966 . S
Co375 N384 2.022 . S
Co375 N392 1.993 1_545 S
Co375 O400 1.941 . S
C376 O377 1.258 . S
C376 O378 1.263 . S
O377 Co374 1.970 . S
O377 C376 1.258 . S
O378 Co375 1.966 . S
O378 C376 1.263 . S
C379 O380 1.235 . S
C379 O406 1.289 1_565 S
O380 C379 1.235 . S
C381 C383 1.400 . S
C381 N384 1.351 . S
C381 C386 1.501 1_545 S
C382 C383 1.387 . S
C382 N385 1.341 . S
C383 C381 1.400 . S
C383 C382 1.387 . S
N384 Co375 2.022 . S
N384 C381 1.351 . S
N384 N385 1.365 . S
N385 C382 1.341 . S
N385 N384 1.365 . S
N385 H405 0.862 . S
C386 C381 1.501 1_565 S
C386 H387 0.958 1_565 S
C386 H388 0.961 . S
C386 H389 0.960 1_565 S
H387 C386 0.958 1_545 S
H388 C386 0.961 . S
H389 C386 0.960 1_545 S
C390 N391 1.342 . S
C390 C394 1.401 . S
C390 C395 1.499 . S
N391 Co374 1.989 1_565 S
N391 C390 1.342 . S
N391 N392 1.388 . S
N392 Co375 1.993 1_565 S
N392 N391 1.388 . S
N392 C393 1.346 . S
C393 N392 1.346 . S
C393 C394 1.396 . S
C393 C403 1.510 . S
C394 C390 1.401 . S
C394 C393 1.396 . S
C395 C390 1.499 . S
C395 H396 0.959 . S
C395 H397 0.960 . S
C395 H398 0.961 . S
H396 C395 0.959 . S
H397 C395 0.960 . S
H398 C395 0.961 . S
O399 Co374 1.967 . S
O399 C407 1.258 . S
O400 Co375 1.941 . S
O400 C407 1.266 . S
H401 C403 0.959 . S
H402 C403 0.961 . S
C403 C393 1.510 . S
C403 H401 0.959 . S
C403 H402 0.961 . S
C403 H404 0.960 . S
H404 C403 0.960 . S
H405 N385 0.862 . S
O406 Co374 1.920 . S
O406 C379 1.289 1_545 S
C407 O399 1.258 . S
C407 O400 1.266 . S
Co408 O411 1.970 . S
Co408 N425 1.989 . S
Co408 O433 1.967 . S
Co408 O440 1.920 . S
Co409 O412 1.966 . S
Co409 N418 2.022 . S
Co409 N426 1.993 . S
Co409 O434 1.941 . S
C410 O411 1.258 . S
C410 O412 1.263 . S
O411 Co408 1.970 . S
O411 C410 1.258 . S
O412 Co409 1.966 . S
O412 C410 1.263 . S
C413 O414 1.235 . S
C413 O440 1.289 . S
O414 C413 1.235 . S
C415 C417 1.400 . S
C415 N418 1.351 . S
C415 C420 1.501 . S
C416 C417 1.387 . S
C416 N419 1.341 . S
C417 C415 1.400 . S
C417 C416 1.387 . S
N418 Co409 2.022 . S
N418 C415 1.351 . S
N418 N419 1.365 . S
N419 C416 1.341 . S
N419 N418 1.365 . S
N419 H439 0.862 . S
C420 C415 1.501 . S
C420 H421 0.961 . S
C420 H422 0.961 . S
C420 H423 0.960 . S
H421 C420 0.961 . S
H422 C420 0.961 . S
H423 C420 0.960 . S
C424 N425 1.342 . S
C424 C428 1.401 . S
C424 C429 1.499 . S
N425 Co408 1.989 . S
N425 C424 1.342 . S
N425 N426 1.388 . S
N426 Co409 1.993 . S
N426 N425 1.388 . S
N426 C427 1.346 . S
C427 N426 1.346 . S
C427 C428 1.396 . S
C427 C437 1.510 . S
C428 C424 1.401 . S
C428 C427 1.396 . S
C429 C424 1.499 . S
C429 H430 0.959 . S
C429 H431 0.960 . S
C429 H432 0.961 . S
H430 C429 0.959 . S
H431 C429 0.960 . S
H432 C429 0.961 . S
O433 Co408 1.967 . S
O433 C441 1.258 . S
O434 Co409 1.941 . S
O434 C441 1.266 . S
H435 C437 0.959 . S
H436 C437 0.961 . S
C437 C427 1.510 . S
C437 H435 0.959 . S
C437 H436 0.961 . S
C437 H438 0.960 . S
H438 C437 0.960 . S
H439 N419 0.862 . S
O440 Co408 1.920 . S
O440 C413 1.289 . S
C441 O433 1.258 . S
C441 O434 1.266 . S
Co442 O445 1.970 . S
Co442 N459 1.989 . S
Co442 O467 1.967 . S
Co442 O474 1.920 . S
Co443 O446 1.966 . S
Co443 N452 2.022 . S
Co443 N460 1.993 . S
Co443 O468 1.941 . S
C444 O445 1.258 . S
C444 O446 1.263 . S
O445 Co442 1.970 . S
O445 C444 1.258 . S
O446 Co443 1.966 . S
O446 C444 1.263 . S
C447 O448 1.235 . S
C447 O474 1.289 . S
O448 C447 1.235 . S
C449 C451 1.400 . S
C449 N452 1.351 . S
C449 C454 1.501 . S
C450 C451 1.387 . S
C450 N453 1.341 . S
C451 C449 1.400 . S
C451 C450 1.387 . S
N452 Co443 2.022 . S
N452 C449 1.351 . S
N452 N453 1.365 . S
N453 C450 1.341 . S
N453 N452 1.365 . S
N453 H473 0.862 . S
C454 C449 1.501 . S
C454 H455 0.961 . S
C454 H456 0.961 . S
C454 H457 0.960 . S
H455 C454 0.961 . S
H456 C454 0.961 . S
H457 C454 0.960 . S
C458 N459 1.342 . S
C458 C462 1.401 . S
C458 C463 1.499 . S
N459 Co442 1.989 . S
N459 C458 1.342 . S
N459 N460 1.388 . S
N460 Co443 1.993 . S
N460 N459 1.388 . S
N460 C461 1.346 . S
C461 N460 1.346 . S
C461 C462 1.396 . S
C461 C471 1.510 . S
C462 C458 1.401 . S
C462 C461 1.396 . S
C463 C458 1.499 . S
C463 H464 0.959 . S
C463 H465 0.960 . S
C463 H466 0.961 . S
H464 C463 0.959 . S
H465 C463 0.960 . S
H466 C463 0.961 . S
O467 Co442 1.967 . S
O467 C475 1.258 . S
O468 Co443 1.941 . S
O468 C475 1.266 . S
H469 C471 0.959 . S
H470 C471 0.961 . S
C471 C461 1.510 . S
C471 H469 0.959 . S
C471 H470 0.961 . S
C471 H472 0.960 . S
H472 C471 0.960 . S
H473 N453 0.862 . S
O474 Co442 1.920 . S
O474 C447 1.289 . S
C475 O467 1.258 . S
C475 O468 1.266 . S
Co476 O479 1.970 . S
Co476 N493 1.989 1_455 S
Co476 O501 1.967 . S
Co476 O508 1.920 . S
Co477 O480 1.966 . S
Co477 N486 2.022 . S
Co477 N494 1.993 1_455 S
Co477 O502 1.941 . S
C478 O479 1.258 . S
C478 O480 1.263 . S
O479 Co476 1.970 . S
O479 C478 1.258 . S
O480 Co477 1.966 . S
O480 C478 1.263 . S
C481 O482 1.235 . S
C481 O508 1.289 1_655 S
O482 C481 1.235 . S
C483 C485 1.400 . S
C483 N486 1.351 . S
C483 C488 1.501 1_455 S
C484 C485 1.387 . S
C484 N487 1.341 . S
C485 C483 1.400 . S
C485 C484 1.387 . S
N486 Co477 2.022 . S
N486 C483 1.351 . S
N486 N487 1.365 . S
N487 C484 1.341 . S
N487 N486 1.365 . S
N487 H507 0.862 . S
C488 C483 1.501 1_655 S
C488 H489 0.958 1_655 S
C488 H490 0.961 . S
C488 H491 0.960 1_655 S
H489 C488 0.958 1_455 S
H490 C488 0.961 . S
H491 C488 0.960 1_455 S
C492 N493 1.342 . S
C492 C496 1.401 . S
C492 C497 1.499 . S
N493 Co476 1.989 1_655 S
N493 C492 1.342 . S
N493 N494 1.388 . S
N494 Co477 1.993 1_655 S
N494 N493 1.388 . S
N494 C495 1.346 . S
C495 N494 1.346 . S
C495 C496 1.396 . S
C495 C505 1.510 . S
C496 C492 1.401 . S
C496 C495 1.396 . S
C497 C492 1.499 . S
C497 H498 0.959 . S
C497 H499 0.960 . S
C497 H500 0.961 . S
H498 C497 0.959 . S
H499 C497 0.960 . S
H500 C497 0.961 . S
O501 Co476 1.967 . S
O501 C509 1.258 . S
O502 Co477 1.941 . S
O502 C509 1.266 . S
H503 C505 0.959 . S
H504 C505 0.961 . S
C505 C495 1.510 . S
C505 H503 0.959 . S
C505 H504 0.961 . S
C505 H506 0.960 . S
H506 C505 0.960 . S
H507 N487 0.862 . S
O508 Co476 1.920 . S
O508 C481 1.289 1_455 S
C509 O501 1.258 . S
C509 O502 1.266 . S
Co510 O513 1.970 . S
Co510 N527 1.989 1_545 S
Co510 O535 1.967 . S
Co510 O542 1.920 . S
Co511 O514 1.966 . S
Co511 N520 2.022 . S
Co511 N528 1.993 1_545 S
Co511 O536 1.941 . S
C512 O513 1.258 . S
C512 O514 1.263 . S
O513 Co510 1.970 . S
O513 C512 1.258 . S
O514 Co511 1.966 . S
O514 C512 1.263 . S
C515 O516 1.235 . S
C515 O542 1.289 1_565 S
O516 C515 1.235 . S
C517 C519 1.400 . S
C517 N520 1.351 . S
C517 C522 1.501 1_545 S
C518 C519 1.387 . S
C518 N521 1.341 . S
C519 C517 1.400 . S
C519 C518 1.387 . S
N520 Co511 2.022 . S
N520 C517 1.351 . S
N520 N521 1.365 . S
N521 C518 1.341 . S
N521 N520 1.365 . S
N521 H541 0.862 . S
C522 C517 1.501 1_565 S
C522 H523 0.958 1_565 S
C522 H524 0.961 . S
C522 H525 0.960 1_565 S
H523 C522 0.958 1_545 S
H524 C522 0.961 . S
H525 C522 0.960 1_545 S
C526 N527 1.342 . S
C526 C530 1.401 . S
C526 C531 1.499 . S
N527 Co510 1.989 1_565 S
N527 C526 1.342 . S
N527 N528 1.388 . S
N528 Co511 1.993 1_565 S
N528 N527 1.388 . S
N528 C529 1.346 . S
C529 N528 1.346 . S
C529 C530 1.396 . S
C529 C539 1.510 . S
C530 C526 1.401 . S
C530 C529 1.396 . S
C531 C526 1.499 . S
C531 H532 0.959 . S
C531 H533 0.960 . S
C531 H534 0.961 . S
H532 C531 0.959 . S
H533 C531 0.960 . S
H534 C531 0.961 . S
O535 Co510 1.967 . S
O535 C543 1.258 . S
O536 Co511 1.941 . S
O536 C543 1.266 . S
H537 C539 0.959 . S
H538 C539 0.961 . S
C539 C529 1.510 . S
C539 H537 0.959 . S
C539 H538 0.961 . S
C539 H540 0.960 . S
H540 C539 0.960 . S
H541 N521 0.862 . S
O542 Co510 1.920 . S
O542 C515 1.289 1_545 S
C543 O535 1.258 . S
C543 O536 1.266 . S
H544 C556 0.930 . S
H545 C558 0.930 . S
H546 C559 0.930 . S
H547 C563 0.959 . S
H548 C563 0.959 . S
H549 C563 0.961 1_554 S
H550 C564 0.960 1_554 S
H551 C564 0.961 . S
H552 C564 0.959 . S
H553 C567 0.929 . S
H554 C568 0.931 . S
H555 C570 0.930 . S
C556 H544 0.930 . S
C556 C557 1.399 . S
C556 C561 1.399 . S
C557 C556 1.399 . S
C557 C558 1.376 . S
C558 H545 0.930 . S
C558 C557 1.376 . S
C558 C559 1.388 . S
C559 H546 0.930 . S
C559 C558 1.388 . S
C559 C560 1.390 . S
C560 C559 1.390 . S
C560 C561 1.394 . S
C560 C566 1.465 1_554 S
C561 C556 1.399 . S
C561 C560 1.394 . S
C561 C562 1.516 1_554 S
C562 C561 1.516 1_556 S
C562 C563 1.502 . S
C562 C564 1.561 . S
C562 C565 1.526 . S
C563 H547 0.959 . S
C563 H548 0.959 . S
C563 H549 0.961 1_556 S
C563 C562 1.502 . S
C564 H550 0.960 1_556 S
C564 H551 0.961 . S
C564 H552 0.959 . S
C564 C562 1.561 . S
C565 C562 1.526 . S
C565 C566 1.396 . S
C565 C570 1.390 . S
C566 C560 1.465 1_556 S
C566 C565 1.396 . S
C566 C567 1.399 . S
C567 H553 0.929 . S
C567 C566 1.399 . S
C567 C568 1.385 . S
C568 H554 0.931 . S
C568 C567 1.385 . S
C568 C569 1.389 . S
C569 C568 1.389 . S
C569 C570 1.387 . S
C570 H555 0.930 . S
C570 C565 1.390 . S
C570 C569 1.387 . S
H571 C583 0.930 . S
H572 C585 0.930 . S
H573 C586 0.930 . S
H574 C590 0.959 . S
H575 C590 0.959 . S
H576 C590 0.961 . S
H577 C591 0.960 . S
H578 C591 0.961 . S
H579 C591 0.959 . S
H580 C594 0.929 . S
H581 C595 0.931 . S
H582 C597 0.930 . S
C583 H571 0.930 . S
C583 C584 1.399 . S
C583 C588 1.399 . S
C584 C583 1.399 . S
C584 C585 1.376 . S
C585 H572 0.930 . S
C585 C584 1.376 . S
C585 C586 1.388 . S
C586 H573 0.930 . S
C586 C585 1.388 . S
C586 C587 1.390 . S
C587 C586 1.390 . S
C587 C588 1.394 . S
C587 C593 1.465 . S
C588 C583 1.399 . S
C588 C587 1.394 . S
C588 C589 1.516 . S
C589 C588 1.516 . S
C589 C590 1.502 . S
C589 C591 1.561 . S
C589 C592 1.526 . S
C590 H574 0.959 . S
C590 H575 0.959 . S
C590 H576 0.961 . S
C590 C589 1.502 . S
C591 H577 0.960 . S
C591 H578 0.961 . S
C591 H579 0.959 . S
C591 C589 1.561 . S
C592 C589 1.526 . S
C592 C593 1.396 . S
C592 C597 1.390 . S
C593 C587 1.465 . S
C593 C592 1.396 . S
C593 C594 1.399 . S
C594 H580 0.929 . S
C594 C593 1.399 . S
C594 C595 1.385 . S
C595 H581 0.931 . S
C595 C594 1.385 . S
C595 C596 1.389 . S
C596 C595 1.389 . S
C596 C597 1.387 . S
C597 H582 0.930 . S
C597 C592 1.390 . S
C597 C596 1.387 . S
H598 C610 0.930 . S
H599 C612 0.930 . S
H600 C613 0.930 . S
H601 C617 0.959 . S
H602 C617 0.959 . S
H603 C617 0.961 1_556 S
H604 C618 0.958 . S
H605 C618 0.961 1_655 S
H606 C618 0.959 . S
H607 C621 0.929 . S
H608 C622 0.931 . S
H609 C624 0.930 . S
C610 H598 0.930 . S
C610 C611 1.399 . S
C610 C615 1.399 . S
C611 C610 1.399 . S
C611 C612 1.376 1_655 S
C612 H599 0.930 . S
C612 C611 1.376 1_455 S
C612 C613 1.388 . S
C613 H600 0.930 . S
C613 C612 1.388 . S
C613 C614 1.390 . S
C614 C613 1.390 . S
C614 C615 1.394 1_455 S
C614 C620 1.465 1_556 S
C615 C610 1.399 . S
C615 C614 1.394 1_655 S
C615 C616 1.516 1_556 S
C616 C615 1.516 1_554 S
C616 C617 1.502 . S
C616 C618 1.561 1_655 S
C616 C619 1.526 . S
C617 H601 0.959 . S
C617 H602 0.959 . S
C617 H603 0.961 1_554 S
C617 C616 1.502 . S
C618 H604 0.958 . S
C618 H605 0.961 1_455 S
C618 H606 0.959 . S
C618 C616 1.561 1_455 S
C619 C616 1.526 . S
C619 C620 1.396 1_655 S
C619 C624 1.390 . S
C620 C614 1.465 1_554 S
C620 C619 1.396 1_455 S
C620 C621 1.399 . S
C621 H607 0.929 . S
C621 C620 1.399 . S
C621 C622 1.385 . S
C622 H608 0.931 . S
C622 C621 1.385 . S
C622 C623 1.389 1_455 S
C623 C622 1.389 1_655 S
C623 C624 1.387 . S
C624 H609 0.930 . S
C624 C619 1.390 . S
C624 C623 1.387 . S
H625 C637 0.930 . S
H626 C639 0.930 . S
H627 C640 0.930 . S
H628 C644 0.959 . S
H629 C644 0.959 . S
H630 C644 0.961 . S
H631 C645 0.960 . S
H632 C645 0.961 . S
H633 C645 0.959 . S
H634 C648 0.929 . S
H635 C649 0.931 . S
H636 C651 0.930 . S
C637 H625 0.930 . S
C637 C638 1.399 1_545 S
C637 C642 1.399 . S
C638 C637 1.399 1_565 S
C638 C639 1.376 . S
C639 H626 0.930 . S
C639 C638 1.376 . S
C639 C640 1.388 . S
C640 H627 0.930 . S
C640 C639 1.388 . S
C640 C641 1.390 . S
C641 C640 1.390 . S
C641 C642 1.394 1_565 S
C641 C647 1.465 . S
C642 C637 1.399 . S
C642 C641 1.394 1_545 S
C642 C643 1.516 . S
C643 C642 1.516 . S
C643 C644 1.502 . S
C643 C645 1.561 . S
C643 C646 1.526 . S
C644 H628 0.959 . S
C644 H629 0.959 . S
C644 H630 0.961 . S
C644 C643 1.502 . S
C645 H631 0.960 . S
C645 H632 0.961 . S
C645 H633 0.959 . S
C645 C643 1.561 . S
C646 C643 1.526 . S
C646 C647 1.396 1_545 S
C646 C651 1.390 . S
C647 C641 1.465 . S
C647 C646 1.396 1_565 S
C647 C648 1.399 . S
C648 H634 0.929 . S
C648 C647 1.399 . S
C648 C649 1.385 . S
C649 H635 0.931 . S
C649 C648 1.385 . S
C649 C650 1.389 . S
C650 C649 1.389 . S
C650 C651 1.387 1_565 S
C651 H636 0.930 . S
C651 C646 1.390 . S
C651 C650 1.387 1_545 S
H652 C664 0.930 . S
H653 C666 0.930 . S
H654 C667 0.930 . S
H655 C671 0.971 . S
H656 C671 0.982 . S
H657 C671 0.932 1_556 S
H658 C672 0.960 . S
H659 C672 0.961 1_554 S
H660 C672 0.959 . S
H661 C675 0.929 . S
H662 C676 0.931 . S
H663 C678 0.930 . S
C664 H652 0.930 . S
C664 C665 1.399 . S
C664 C669 1.399 . S
C665 C664 1.399 . S
C665 C666 1.376 . S
C666 H653 0.930 . S
C666 C665 1.376 . S
C666 C667 1.388 . S
C667 H654 0.930 . S
C667 C666 1.388 . S
C667 C668 1.390 . S
C668 C667 1.390 . S
C668 C669 1.394 . S
C668 C674 1.465 1_556 S
C669 C664 1.399 . S
C669 C668 1.394 . S
C669 C670 1.516 . S
C670 C669 1.516 . S
C670 C671 1.498 1_556 S
C670 C672 1.561 . S
C670 C673 1.526 1_556 S
C671 H655 0.971 . S
C671 H656 0.982 . S
C671 H657 0.932 1_554 S
C671 C670 1.498 1_554 S
C672 H658 0.960 . S
C672 H659 0.961 1_556 S
C672 H660 0.959 . S
C672 C670 1.561 . S
C673 C670 1.526 1_554 S
C673 C674 1.396 . S
C673 C678 1.390 . S
C674 C668 1.465 1_554 S
C674 C673 1.396 . S
C674 C675 1.399 . S
C675 H661 0.929 . S
C675 C674 1.399 . S
C675 C676 1.385 . S
C676 H662 0.931 . S
C676 C675 1.385 . S
C676 C677 1.389 . S
C677 C676 1.389 . S
C677 C678 1.387 . S
C678 H663 0.930 . S
C678 C673 1.390 . S
C678 C677 1.387 . S
H679 C691 0.930 . S
H680 C693 0.930 . S
H681 C694 0.930 . S
H682 C698 0.959 . S
H683 C698 0.959 . S
H684 C698 0.961 . S
H685 C699 0.960 . S
H686 C699 0.961 . S
H687 C699 0.959 . S
H688 C702 0.929 . S
H689 C703 0.931 . S
H690 C705 0.930 . S
C691 H679 0.930 . S
C691 C692 1.399 . S
C691 C696 1.399 . S
C692 C691 1.399 . S
C692 C693 1.376 . S
C693 H680 0.930 . S
C693 C692 1.376 . S
C693 C694 1.388 . S
C694 H681 0.930 . S
C694 C693 1.388 . S
C694 C695 1.390 . S
C695 C694 1.390 . S
C695 C696 1.394 . S
C695 C701 1.465 . S
C696 C691 1.399 . S
C696 C695 1.394 . S
C696 C697 1.516 . S
C697 C696 1.516 . S
C697 C698 1.502 . S
C697 C699 1.561 . S
C697 C700 1.526 . S
C698 H682 0.959 . S
C698 H683 0.959 . S
C698 H684 0.961 . S
C698 C697 1.502 . S
C699 H685 0.960 . S
C699 H686 0.961 . S
C699 H687 0.959 . S
C699 C697 1.561 . S
C700 C697 1.526 . S
C700 C701 1.396 . S
C700 C705 1.390 . S
C701 C695 1.465 . S
C701 C700 1.396 . S
C701 C702 1.399 . S
C702 H688 0.929 . S
C702 C701 1.399 . S
C702 C703 1.385 . S
C703 H689 0.931 . S
C703 C702 1.385 . S
C703 C704 1.389 . S
C704 C703 1.389 . S
C704 C705 1.387 . S
C705 H690 0.930 . S
C705 C700 1.390 . S
C705 C704 1.387 . S
H706 C718 0.930 . S
H707 C720 0.930 . S
H708 C721 0.930 . S
H709 C725 0.959 . S
H710 C725 0.959 1_556 S
H711 C725 0.961 . S
H712 C726 0.960 . S
H713 C726 0.961 . S
H714 C726 0.959 . S
H715 C729 0.929 . S
H716 C730 0.931 . S
H717 C732 0.930 . S
C718 H706 0.930 . S
C718 C719 1.399 . S
C718 C723 1.399 . S
C719 C718 1.399 . S
C719 C720 1.376 1_455 S
C720 H707 0.930 . S
C720 C719 1.376 1_655 S
C720 C721 1.388 . S
C721 H708 0.930 . S
C721 C720 1.388 . S
C721 C722 1.390 . S
C722 C721 1.390 . S
C722 C723 1.394 1_655 S
C722 C728 1.465 1_554 S
C723 C718 1.399 . S
C723 C722 1.394 1_455 S
C723 C724 1.516 . S
C724 C723 1.516 . S
C724 C725 1.502 . S
C724 C726 1.561 1_455 S
C724 C727 1.526 1_554 S
C725 H709 0.959 . S
C725 H710 0.959 1_554 S
C725 H711 0.961 . S
C725 C724 1.502 . S
C726 H712 0.960 . S
C726 H713 0.961 . S
C726 H714 0.959 . S
C726 C724 1.561 1_655 S
C727 C724 1.526 1_556 S
C727 C728 1.396 1_455 S
C727 C732 1.390 . S
C728 C722 1.465 1_556 S
C728 C727 1.396 1_655 S
C728 C729 1.399 . S
C729 H715 0.929 . S
C729 C728 1.399 . S
C729 C730 1.385 . S
C730 H716 0.931 . S
C730 C729 1.385 . S
C730 C731 1.389 1_655 S
C731 C730 1.389 1_455 S
C731 C732 1.387 . S
C732 H717 0.930 . S
C732 C727 1.390 . S
C732 C731 1.387 . S
H733 C745 0.930 . S
H734 C747 0.930 . S
H735 C748 0.930 . S
H736 C752 0.959 . S
H737 C752 0.959 . S
H738 C752 0.961 . S
H739 C753 0.960 . S
H740 C753 0.961 . S
H741 C753 0.959 1_545 S
H742 C756 0.929 . S
H743 C757 0.931 . S
H744 C759 0.930 . S
C745 H733 0.930 . S
C745 C746 1.399 1_565 S
C745 C750 1.399 . S
C746 C745 1.399 1_545 S
C746 C747 1.376 . S
C747 H734 0.930 . S
C747 C746 1.376 . S
C747 C748 1.388 . S
C748 H735 0.930 . S
C748 C747 1.388 . S
C748 C749 1.390 . S
C749 C748 1.390 . S
C749 C750 1.394 1_545 S
C749 C755 1.465 . S
C750 C745 1.399 . S
C750 C749 1.394 1_565 S
C750 C751 1.516 . S
C751 C750 1.516 . S
C751 C752 1.502 . S
C751 C753 1.561 . S
C751 C754 1.526 . S
C752 H736 0.959 . S
C752 H737 0.959 . S
C752 H738 0.961 . S
C752 C751 1.502 . S
C753 H739 0.960 . S
C753 H740 0.961 . S
C753 H741 0.959 1_565 S
C753 C751 1.561 . S
C754 C751 1.526 . S
C754 C755 1.396 1_565 S
C754 C759 1.390 . S
C755 C749 1.465 . S
C755 C754 1.396 1_545 S
C755 C756 1.399 . S
C756 H742 0.929 . S
C756 C755 1.399 . S
C756 C757 1.385 . S
C757 H743 0.931 . S
C757 C756 1.385 . S
C757 C758 1.389 . S
C758 C757 1.389 . S
C758 C759 1.387 1_545 S
C759 H744 0.930 . S
C759 C754 1.390 . S
C759 C758 1.387 1_565 S
H760 C772 0.930 . S
H761 C774 0.930 . S
H762 C775 0.930 . S
H763 C779 0.959 . S
H764 C779 0.959 . S
H765 C779 0.961 . S
H766 C780 0.960 . S
H767 C780 0.961 . S
H768 C780 0.959 . S
H769 C783 0.929 . S
H770 C784 0.931 . S
H771 C786 0.930 . S
C772 H760 0.930 . S
C772 C773 1.399 . S
C772 C777 1.399 . S
C773 C772 1.399 . S
C773 C774 1.376 . S
C774 H761 0.930 . S
C774 C773 1.376 . S
C774 C775 1.388 . S
C775 H762 0.930 . S
C775 C774 1.388 . S
C775 C776 1.390 . S
C776 C775 1.390 . S
C776 C777 1.394 . S
C776 C782 1.465 . S
C777 C772 1.399 . S
C777 C776 1.394 . S
C777 C778 1.516 . S
C778 C777 1.516 . S
C778 C779 1.502 . S
C778 C780 1.561 . S
C778 C781 1.526 . S
C779 H763 0.959 . S
C779 H764 0.959 . S
C779 H765 0.961 . S
C779 C778 1.502 . S
C780 H766 0.960 . S
C780 H767 0.961 . S
C780 H768 0.959 . S
C780 C778 1.561 . S
C781 C778 1.526 . S
C781 C782 1.396 . S
C781 C786 1.390 1_565 S
C782 C776 1.465 . S
C782 C781 1.396 . S
C782 C783 1.399 . S
C783 H769 0.929 . S
C783 C782 1.399 . S
C783 C784 1.385 1_565 S
C784 H770 0.931 . S
C784 C783 1.385 1_545 S
C784 C785 1.389 . S
C785 C784 1.389 . S
C785 C786 1.387 . S
C786 H771 0.930 . S
C786 C781 1.390 1_545 S
C786 C785 1.387 . S
H787 C799 0.930 . S
H788 C801 0.930 . S
H789 C802 0.930 . S
H790 C806 0.959 . S
H791 C806 0.959 . S
H792 C806 0.961 . S
H793 C807 0.960 . S
H794 C807 0.961 . S
H795 C807 0.959 . S
H796 C810 0.929 . S
H797 C811 0.931 . S
H798 C813 0.930 . S
C799 H787 0.930 . S
C799 C800 1.399 . S
C799 C804 1.399 . S
C800 C799 1.399 . S
C800 C801 1.376 . S
C801 H788 0.930 . S
C801 C800 1.376 . S
C801 C802 1.388 . S
C802 H789 0.930 . S
C802 C801 1.388 . S
C802 C803 1.390 . S
C803 C802 1.390 . S
C803 C804 1.394 . S
C803 C809 1.465 . S
C804 C799 1.399 . S
C804 C803 1.394 . S
C804 C805 1.516 . S
C805 C804 1.516 . S
C805 C806 1.502 . S
C805 C807 1.561 . S
C805 C808 1.526 . S
C806 H790 0.959 . S
C806 H791 0.959 . S
C806 H792 0.961 . S
C806 C805 1.502 . S
C807 H793 0.960 . S
C807 H794 0.961 . S
C807 H795 0.959 . S
C807 C805 1.561 . S
C808 C805 1.526 . S
C808 C809 1.396 . S
C808 C813 1.390 . S
C809 C803 1.465 . S
C809 C808 1.396 . S
C809 C810 1.399 . S
C810 H796 0.929 . S
C810 C809 1.399 . S
C810 C811 1.385 . S
C811 H797 0.931 . S
C811 C810 1.385 . S
C811 C812 1.389 . S
C812 C811 1.389 . S
C812 C813 1.387 . S
C813 H798 0.930 . S
C813 C808 1.390 . S
C813 C812 1.387 . S
H814 C826 0.930 . S
H815 C828 0.930 1_455 S
H816 C829 0.931 . S
H817 C833 0.959 . S
H818 C833 0.959 . S
H819 C833 0.961 . S
H820 C834 0.960 . S
H821 C834 0.961 . S
H822 C834 0.959 . S
H823 C837 0.929 . S
H824 C838 0.931 . S
H825 C840 0.930 . S
C826 H814 0.930 . S
C826 C827 1.399 . S
C826 C831 1.399 . S
C827 C826 1.399 . S
C827 C828 1.377 . S
C828 H815 0.930 1_655 S
C828 C827 1.377 . S
C828 C829 1.389 . S
C829 H816 0.931 . S
C829 C828 1.389 . S
C829 C830 1.390 . S
C830 C829 1.390 . S
C830 C831 1.394 . S
C830 C836 1.465 . S
C831 C826 1.399 . S
C831 C830 1.394 . S
C831 C832 1.516 . S
C832 C831 1.516 . S
C832 C833 1.502 . S
C832 C834 1.561 1_655 S
C832 C835 1.526 . S
C833 H817 0.959 . S
C833 H818 0.959 . S
C833 H819 0.961 . S
C833 C832 1.502 . S
C834 H820 0.960 . S
C834 H821 0.961 . S
C834 H822 0.959 . S
C834 C832 1.561 1_455 S
C835 C832 1.526 . S
C835 C836 1.396 . S
C835 C840 1.390 . S
C836 C830 1.465 . S
C836 C835 1.396 . S
C836 C837 1.399 . S
C837 H823 0.929 . S
C837 C836 1.399 . S
C837 C838 1.385 . S
C838 H824 0.931 . S
C838 C837 1.385 . S
C838 C839 1.389 . S
C839 C838 1.389 . S
C839 C840 1.387 . S
C840 H825 0.930 . S
C840 C835 1.390 . S
C840 C839 1.387 . S
H841 C853 0.930 . S
H842 C855 0.930 . S
H843 C856 0.930 . S
H844 C860 0.959 . S
H845 C860 0.959 . S
H846 C860 0.961 . S
H847 C861 0.960 . S
H848 C861 0.961 . S
H849 C861 0.959 . S
H850 C864 0.928 1_545 S
H851 C865 0.929 1_545 S
H852 C867 0.930 . S
C853 H841 0.930 . S
C853 C854 1.399 . S
C853 C858 1.399 . S
C854 C853 1.399 . S
C854 C855 1.376 . S
C855 H842 0.930 . S
C855 C854 1.376 . S
C855 C856 1.388 . S
C856 H843 0.930 . S
C856 C855 1.388 . S
C856 C857 1.390 . S
C857 C856 1.390 . S
C857 C858 1.394 . S
C857 C863 1.465 . S
C858 C853 1.399 . S
C858 C857 1.394 . S
C858 C859 1.516 . S
C859 C858 1.516 . S
C859 C860 1.502 . S
C859 C861 1.561 1_565 S
C859 C862 1.526 . S
C860 H844 0.959 . S
C860 H845 0.959 . S
C860 H846 0.961 . S
C860 C859 1.502 . S
C861 H847 0.960 . S
C861 H848 0.961 . S
C861 H849 0.959 . S
C861 C859 1.561 1_545 S
C862 C859 1.526 . S
C862 C863 1.396 . S
C862 C867 1.390 1_655 S
C863 C857 1.465 . S
C863 C862 1.396 . S
C863 C864 1.400 . S
C864 H850 0.928 1_565 S
C864 C863 1.400 . S
C864 C865 1.385 1_655 S
C865 H851 0.929 1_565 S
C865 C864 1.385 1_455 S
C865 C866 1.391 . S
C866 C865 1.391 . S
C866 C867 1.387 . S
C867 H852 0.930 . S
C867 C862 1.390 1_455 S
C867 C866 1.387 . S
H868 C880 0.930 . S
H869 C882 0.930 . S
H870 C883 0.930 . S
H871 C887 0.959 . S
H872 C887 0.959 . S
H873 C887 0.961 . S
H874 C888 0.960 . S
H875 C888 0.961 . S
H876 C888 0.959 . S
H877 C891 0.929 . S
H878 C892 0.931 . S
H879 C894 0.930 . S
C880 H868 0.930 . S
C880 C881 1.399 . S
C880 C885 1.399 . S
C881 C880 1.399 . S
C881 C882 1.376 . S
C882 H869 0.930 . S
C882 C881 1.376 . S
C882 C883 1.388 . S
C883 H870 0.930 . S
C883 C882 1.388 . S
C883 C884 1.390 . S
C884 C883 1.390 . S
C884 C885 1.394 . S
C884 C890 1.465 . S
C885 C880 1.399 . S
C885 C884 1.394 . S
C885 C886 1.516 . S
C886 C885 1.516 . S
C886 C887 1.502 . S
C886 C888 1.561 . S
C886 C889 1.526 . S
C887 H871 0.959 . S
C887 H872 0.959 . S
C887 H873 0.961 . S
C887 C886 1.502 . S
C888 H874 0.960 . S
C888 H875 0.961 . S
C888 H876 0.959 . S
C888 C886 1.561 . S
C889 C886 1.526 . S
C889 C890 1.396 . S
C889 C894 1.390 . S
C890 C884 1.465 . S
C890 C889 1.396 . S
C890 C891 1.399 . S
C891 H877 0.929 . S
C891 C890 1.399 . S
C891 C892 1.385 . S
C892 H878 0.931 . S
C892 C891 1.385 . S
C892 C893 1.389 . S
C893 C892 1.389 . S
C893 C894 1.387 . S
C894 H879 0.930 . S
C894 C889 1.390 . S
C894 C893 1.387 . S
H895 C907 0.930 . S
H896 C909 0.930 . S
H897 C910 0.930 . S
H898 C914 0.959 . S
H899 C914 0.959 . S
H900 C914 0.961 . S
H901 C915 0.960 . S
H902 C915 0.961 . S
H903 C915 0.959 . S
H904 C918 0.929 . S
H905 C919 0.931 . S
H906 C921 0.930 . S
C907 H895 0.930 . S
C907 C908 1.399 . S
C907 C912 1.399 . S
C908 C907 1.399 . S
C908 C909 1.376 . S
C909 H896 0.930 . S
C909 C908 1.376 . S
C909 C910 1.388 . S
C910 H897 0.930 . S
C910 C909 1.388 . S
C910 C911 1.390 . S
C911 C910 1.390 . S
C911 C912 1.394 . S
C911 C917 1.465 . S
C912 C907 1.399 . S
C912 C911 1.394 . S
C912 C913 1.516 . S
C913 C912 1.516 . S
C913 C914 1.502 . S
C913 C915 1.561 . S
C913 C916 1.526 . S
C914 H898 0.959 . S
C914 H899 0.959 . S
C914 H900 0.961 . S
C914 C913 1.502 . S
C915 H901 0.960 . S
C915 H902 0.961 . S
C915 H903 0.959 . S
C915 C913 1.561 . S
C916 C913 1.526 . S
C916 C917 1.396 . S
C916 C921 1.390 1_655 S
C917 C911 1.465 . S
C917 C916 1.396 . S
C917 C918 1.399 . S
C918 H904 0.929 . S
C918 C917 1.399 . S
C918 C919 1.385 1_655 S
C919 H905 0.931 . S
C919 C918 1.385 1_455 S
C919 C920 1.389 . S
C920 C919 1.389 . S
C920 C921 1.387 . S
C921 H906 0.930 . S
C921 C916 1.390 1_455 S
C921 C920 1.387 . S
H922 C934 0.930 . S
H923 C936 0.930 . S
H924 C937 0.930 . S
H925 C941 0.959 . S
H926 C941 0.959 . S
H927 C941 0.961 . S
H928 C942 0.960 . S
H929 C942 0.961 . S
H930 C942 0.959 . S
H931 C945 0.929 . S
H932 C946 0.931 . S
H933 C948 0.930 . S
C934 H922 0.930 . S
C934 C935 1.401 . S
C934 C939 1.399 1_545 S
C935 C934 1.401 . S
C935 C936 1.374 1_655 S
C936 H923 0.930 . S
C936 C935 1.374 1_455 S
C936 C937 1.388 1_545 S
C937 H924 0.930 . S
C937 C936 1.388 1_565 S
C937 C938 1.390 . S
C938 C937 1.390 . S
C938 C939 1.394 1_455 S
C938 C944 1.465 . S
C939 C934 1.399 1_565 S
C939 C938 1.394 1_655 S
C939 C940 1.516 . S
C940 C939 1.516 . S
C940 C941 1.502 . S
C940 C942 1.561 . S
C940 C943 1.526 . S
C941 H925 0.959 . S
C941 H926 0.959 . S
C941 H927 0.961 . S
C941 C940 1.502 . S
C942 H928 0.960 . S
C942 H929 0.961 . S
C942 H930 0.959 . S
C942 C940 1.561 . S
C943 C940 1.526 . S
C943 C944 1.396 1_655 S
C943 C948 1.390 . S
C944 C938 1.465 . S
C944 C943 1.396 1_455 S
C944 C945 1.399 . S
C945 H931 0.929 . S
C945 C944 1.399 . S
C945 C946 1.385 . S
C946 H932 0.931 . S
C946 C945 1.385 . S
C946 C947 1.389 1_455 S
C947 C946 1.389 1_655 S
C947 C948 1.387 . S
C948 H933 0.930 . S
C948 C943 1.390 . S
C948 C947 1.387 . S
H949 C961 0.930 . S
H950 C963 0.930 . S
H951 C964 0.930 . S
H952 C968 0.959 . S
H953 C968 0.959 . S
H954 C968 0.961 . S
H955 C969 0.960 . S
H956 C969 0.961 . S
H957 C969 0.959 . S
H958 C972 0.929 . S
H959 C973 0.931 . S
H960 C975 0.930 . S
C961 H949 0.930 . S
C961 C962 1.399 1_545 S
C961 C966 1.399 . S
C962 C961 1.399 1_565 S
C962 C963 1.376 . S
C963 H950 0.930 . S
C963 C962 1.376 . S
C963 C964 1.388 . S
C964 H951 0.930 . S
C964 C963 1.388 . S
C964 C965 1.390 . S
C965 C964 1.390 . S
C965 C966 1.394 1_565 S
C965 C971 1.465 . S
C966 C961 1.399 . S
C966 C965 1.394 1_545 S
C966 C967 1.516 . S
C967 C966 1.516 . S
C967 C968 1.502 . S
C967 C969 1.561 . S
C967 C970 1.526 . S
C968 H952 0.959 . S
C968 H953 0.959 . S
C968 H954 0.961 . S
C968 C967 1.502 . S
C969 H955 0.960 . S
C969 H956 0.961 . S
C969 H957 0.959 . S
C969 C967 1.561 . S
C970 C967 1.526 . S
C970 C971 1.396 1_545 S
C970 C975 1.390 . S
C971 C965 1.465 . S
C971 C970 1.396 1_565 S
C971 C972 1.399 . S
C972 H958 0.929 . S
C972 C971 1.399 . S
C972 C973 1.385 . S
C973 H959 0.931 . S
C973 C972 1.385 . S
C973 C974 1.389 . S
C974 C973 1.389 . S
C974 C975 1.387 1_565 S
C975 H960 0.930 . S
C975 C970 1.390 . S
C975 C974 1.387 1_545 S
H976 C988 0.930 . S
H977 C990 0.930 . S
H978 C991 0.930 . S
H979 C995 0.959 . S
H980 C995 0.959 . S
H981 C995 0.961 . S
H982 C996 0.960 . S
H983 C996 0.961 . S
H984 C996 0.959 . S
H985 C999 0.929 . S
H986 C1000 0.931 . S
H987 C1002 0.930 . S
C988 H976 0.930 . S
C988 C989 1.399 . S
C988 C993 1.399 . S
C989 C988 1.399 . S
C989 C990 1.376 . S
C990 H977 0.930 . S
C990 C989 1.376 . S
C990 C991 1.388 . S
C991 H978 0.930 . S
C991 C990 1.388 . S
C991 C992 1.390 . S
C992 C991 1.390 . S
C992 C993 1.394 . S
C992 C998 1.465 . S
C993 C988 1.399 . S
C993 C992 1.394 . S
C993 C994 1.516 . S
C994 C993 1.516 . S
C994 C995 1.502 . S
C994 C996 1.561 . S
C994 C997 1.526 . S
C995 H979 0.959 . S
C995 H980 0.959 . S
C995 H981 0.961 . S
C995 C994 1.502 . S
C996 H982 0.960 . S
C996 H983 0.961 . S
C996 H984 0.959 . S
C996 C994 1.561 . S
C997 C994 1.526 . S
C997 C998 1.396 . S
C997 C1002 1.390 1_545 S
C998 C992 1.465 . S
C998 C997 1.396 . S
C998 C999 1.399 . S
C999 H985 0.929 . S
C999 C998 1.399 . S
C999 C1000 1.385 1_545 S
C1000 H986 0.931 . S
C1000 C999 1.385 1_565 S
C1000 C1001 1.389 . S
C1001 C1000 1.389 . S
C1001 C1002 1.387 . S
C1002 H987 0.930 . S
C1002 C997 1.390 1_565 S
C1002 C1001 1.387 . S
H1003 C1015 0.930 . S
H1004 C1017 0.930 . S
H1005 C1018 0.930 . S
H1006 C1022 0.959 . S
H1007 C1022 0.959 . S
H1008 C1022 0.961 . S
H1009 C1023 0.960 . S
H1010 C1023 0.961 . S
H1011 C1023 0.959 . S
H1012 C1026 0.929 . S
H1013 C1027 0.931 . S
H1014 C1029 0.930 . S
C1015 H1003 0.930 . S
C1015 C1016 1.399 . S
C1015 C1020 1.399 . S
C1016 C1015 1.399 . S
C1016 C1017 1.376 . S
C1017 H1004 0.930 . S
C1017 C1016 1.376 . S
C1017 C1018 1.388 . S
C1018 H1005 0.930 . S
C1018 C1017 1.388 . S
C1018 C1019 1.390 . S
C1019 C1018 1.390 . S
C1019 C1020 1.394 . S
C1019 C1025 1.465 . S
C1020 C1015 1.399 . S
C1020 C1019 1.394 . S
C1020 C1021 1.516 . S
C1021 C1020 1.516 . S
C1021 C1022 1.502 . S
C1021 C1023 1.561 . S
C1021 C1024 1.526 . S
C1022 H1006 0.959 . S
C1022 H1007 0.959 . S
C1022 H1008 0.961 . S
C1022 C1021 1.502 . S
C1023 H1009 0.960 . S
C1023 H1010 0.961 . S
C1023 H1011 0.959 . S
C1023 C1021 1.561 . S
C1024 C1021 1.526 . S
C1024 C1025 1.396 . S
C1024 C1029 1.390 . S
C1025 C1019 1.465 . S
C1025 C1024 1.396 . S
C1025 C1026 1.399 . S
C1026 H1012 0.929 . S
C1026 C1025 1.399 . S
C1026 C1027 1.385 . S
C1027 H1013 0.931 . S
C1027 C1026 1.385 . S
C1027 C1028 1.389 . S
C1028 C1027 1.389 . S
C1028 C1029 1.387 . S
C1029 H1014 0.930 . S
C1029 C1024 1.390 . S
C1029 C1028 1.387 . S
H1030 C1042 0.930 . S
H1031 C1044 0.930 . S
H1032 C1045 0.930 . S
H1033 C1049 0.959 . S
H1034 C1049 0.959 . S
H1035 C1049 0.961 . S
H1036 C1050 0.960 . S
H1037 C1050 0.961 . S
H1038 C1050 0.959 . S
H1039 C1053 0.929 . S
H1040 C1054 0.931 . S
H1041 C1056 0.930 . S
C1042 H1030 0.930 . S
C1042 C1043 1.399 . S
C1042 C1047 1.399 . S
C1043 C1042 1.399 . S
C1043 C1044 1.376 . S
C1044 H1031 0.930 . S
C1044 C1043 1.376 . S
C1044 C1045 1.388 . S
C1045 H1032 0.930 . S
C1045 C1044 1.388 . S
C1045 C1046 1.390 . S
C1046 C1045 1.390 . S
C1046 C1047 1.394 . S
C1046 C1052 1.465 . S
C1047 C1042 1.399 . S
C1047 C1046 1.394 . S
C1047 C1048 1.516 . S
C1048 C1047 1.516 . S
C1048 C1049 1.502 1_455 S
C1048 C1050 1.561 . S
C1048 C1051 1.526 . S
C1049 H1033 0.959 . S
C1049 H1034 0.959 . S
C1049 H1035 0.961 . S
C1049 C1048 1.502 1_655 S
C1050 H1036 0.960 . S
C1050 H1037 0.961 . S
C1050 H1038 0.959 . S
C1050 C1048 1.561 . S
C1051 C1048 1.526 . S
C1051 C1052 1.396 . S
C1051 C1056 1.390 . S
C1052 C1046 1.465 . S
C1052 C1051 1.396 . S
C1052 C1053 1.399 . S
C1053 H1039 0.929 . S
C1053 C1052 1.399 . S
C1053 C1054 1.385 . S
C1054 H1040 0.931 . S
C1054 C1053 1.385 . S
C1054 C1055 1.389 . S
C1055 C1054 1.389 . S
C1055 C1056 1.387 . S
C1056 H1041 0.930 . S
C1056 C1051 1.390 . S
C1056 C1055 1.387 . S
H1057 C1069 0.930 1_565 S
H1058 C1071 0.930 . S
H1059 C1072 0.930 . S
H1060 C1076 0.959 . S
H1061 C1076 0.959 . S
H1062 C1076 0.961 . S
H1063 C1077 0.960 . S
H1064 C1077 0.961 . S
H1065 C1077 0.959 . S
H1066 C1080 0.929 . S
H1067 C1081 0.931 . S
H1068 C1083 0.930 . S
C1069 H1057 0.930 1_545 S
C1069 C1070 1.399 . S
C1069 C1074 1.399 1_655 S
C1070 C1069 1.399 . S
C1070 C1071 1.376 . S
C1071 H1058 0.930 . S
C1071 C1070 1.376 . S
C1071 C1072 1.388 1_655 S
C1072 H1059 0.930 . S
C1072 C1071 1.388 1_455 S
C1072 C1073 1.390 . S
C1073 C1072 1.390 . S
C1073 C1074 1.394 . S
C1073 C1079 1.465 . S
C1074 C1069 1.399 1_455 S
C1074 C1073 1.394 . S
C1074 C1075 1.515 1_545 S
C1075 C1074 1.515 1_565 S
C1075 C1076 1.494 1_565 S
C1075 C1077 1.572 . S
C1075 C1078 1.524 1_565 S
C1076 H1060 0.959 . S
C1076 H1061 0.959 . S
C1076 H1062 0.961 . S
C1076 C1075 1.494 1_545 S
C1077 H1063 0.960 . S
C1077 H1064 0.961 . S
C1077 H1065 0.959 . S
C1077 C1075 1.572 . S
C1078 C1075 1.524 1_545 S
C1078 C1079 1.396 . S
C1078 C1083 1.390 . S
C1079 C1073 1.465 . S
C1079 C1078 1.396 . S
C1079 C1080 1.399 . S
C1080 H1066 0.929 . S
C1080 C1079 1.399 . S
C1080 C1081 1.385 . S
C1081 H1067 0.931 . S
C1081 C1080 1.385 . S
C1081 C1082 1.389 . S
C1082 C1081 1.389 . S
C1082 C1083 1.387 . S
C1083 H1068 0.930 . S
C1083 C1078 1.390 . S
C1083 C1082 1.387 . S
H1084 C1096 0.930 . S
H1085 C1098 0.930 . S
H1086 C1099 0.930 . S
H1087 C1103 0.959 . S
H1088 C1103 0.959 . S
H1089 C1103 0.961 . S
H1090 C1104 0.960 . S
H1091 C1104 0.961 . S
H1092 C1104 0.959 . S
H1093 C1107 0.929 . S
H1094 C1108 0.931 . S
H1095 C1110 0.930 . S
C1096 H1084 0.930 . S
C1096 C1097 1.399 . S
C1096 C1101 1.399 . S
C1097 C1096 1.399 . S
C1097 C1098 1.376 . S
C1098 H1085 0.930 . S
C1098 C1097 1.376 . S
C1098 C1099 1.388 . S
C1099 H1086 0.930 . S
C1099 C1098 1.388 . S
C1099 C1100 1.390 . S
C1100 C1099 1.390 . S
C1100 C1101 1.394 . S
C1100 C1106 1.465 . S
C1101 C1096 1.399 . S
C1101 C1100 1.394 . S
C1101 C1102 1.516 . S
C1102 C1101 1.516 . S
C1102 C1103 1.502 . S
C1102 C1104 1.561 . S
C1102 C1105 1.526 . S
C1103 H1087 0.959 . S
C1103 H1088 0.959 . S
C1103 H1089 0.961 . S
C1103 C1102 1.502 . S
C1104 H1090 0.960 . S
C1104 H1091 0.961 . S
C1104 H1092 0.959 . S
C1104 C1102 1.561 . S
C1105 C1102 1.526 . S
C1105 C1106 1.396 . S
C1105 C1110 1.390 . S
C1106 C1100 1.465 . S
C1106 C1105 1.396 . S
C1106 C1107 1.399 . S
C1107 H1093 0.929 . S
C1107 C1106 1.399 . S
C1107 C1108 1.385 . S
C1108 H1094 0.931 . S
C1108 C1107 1.385 . S
C1108 C1109 1.389 . S
C1109 C1108 1.389 . S
C1109 C1110 1.387 . S
C1110 H1095 0.930 . S
C1110 C1105 1.390 . S
C1110 C1109 1.387 . S
H1111 C1123 0.930 . S
H1112 C1125 0.930 . S
H1113 C1126 0.930 . S
H1114 C1130 0.959 . S
H1115 C1130 0.959 . S
H1116 C1130 0.961 . S
H1117 C1131 0.960 . S
H1118 C1131 0.961 . S
H1119 C1131 0.959 . S
H1120 C1134 0.929 . S
H1121 C1135 0.931 . S
H1122 C1137 0.930 . S
C1123 H1111 0.930 . S
C1123 C1124 1.399 . S
C1123 C1128 1.399 . S
C1124 C1123 1.399 . S
C1124 C1125 1.376 . S
C1125 H1112 0.930 . S
C1125 C1124 1.376 . S
C1125 C1126 1.388 . S
C1126 H1113 0.930 . S
C1126 C1125 1.388 . S
C1126 C1127 1.390 . S
C1127 C1126 1.390 . S
C1127 C1128 1.394 . S
C1127 C1133 1.465 . S
C1128 C1123 1.399 . S
C1128 C1127 1.394 . S
C1128 C1129 1.516 . S
C1129 C1128 1.516 . S
C1129 C1130 1.502 . S
C1129 C1131 1.561 . S
C1129 C1132 1.526 . S
C1130 H1114 0.959 . S
C1130 H1115 0.959 . S
C1130 H1116 0.961 . S
C1130 C1129 1.502 . S
C1131 H1117 0.960 . S
C1131 H1118 0.961 . S
C1131 H1119 0.959 . S
C1131 C1129 1.561 . S
C1132 C1129 1.526 . S
C1132 C1133 1.396 . S
C1132 C1137 1.390 1_455 S
C1133 C1127 1.465 . S
C1133 C1132 1.396 . S
C1133 C1134 1.399 . S
C1134 H1120 0.929 . S
C1134 C1133 1.399 . S
C1134 C1135 1.385 1_455 S
C1135 H1121 0.931 . S
C1135 C1134 1.385 1_655 S
C1135 C1136 1.389 . S
C1136 C1135 1.389 . S
C1136 C1137 1.387 . S
C1137 H1122 0.930 . S
C1137 C1132 1.390 1_655 S
C1137 C1136 1.387 . S
H1138 C1150 0.930 . S
H1139 C1152 0.930 . S
H1140 C1153 0.930 . S
H1141 C1157 0.959 . S
H1142 C1157 0.959 . S
H1143 C1157 0.961 . S
H1144 C1158 0.960 1_655 S
H1145 C1158 0.961 1_655 S
H1146 C1158 0.959 . S
H1147 C1161 0.929 . S
H1148 C1162 0.931 . S
H1149 C1164 0.926 1_655 S
C1150 H1138 0.930 . S
C1150 C1151 1.399 1_655 S
C1150 C1155 1.401 1_565 S
C1151 C1150 1.399 1_455 S
C1151 C1152 1.376 . S
C1152 H1139 0.930 . S
C1152 C1151 1.376 . S
C1152 C1153 1.388 1_565 S
C1153 H1140 0.930 . S
C1153 C1152 1.388 1_545 S
C1153 C1154 1.390 . S
C1154 C1153 1.390 . S
C1154 C1155 1.388 1_455 S
C1154 C1160 1.465 . S
C1155 C1150 1.401 1_545 S
C1155 C1154 1.388 1_655 S
C1155 C1156 1.519 . S
C1156 C1155 1.519 . S
C1156 C1157 1.502 . S
C1156 C1158 1.561 1_655 S
C1156 C1159 1.526 1_655 S
C1157 H1141 0.959 . S
C1157 H1142 0.959 . S
C1157 H1143 0.961 . S
C1157 C1156 1.502 . S
C1158 H1144 0.960 1_455 S
C1158 H1145 0.961 1_455 S
C1158 H1146 0.959 . S
C1158 C1156 1.561 1_455 S
C1159 C1156 1.526 1_455 S
C1159 C1160 1.396 . S
C1159 C1164 1.390 . S
C1160 C1154 1.465 . S
C1160 C1159 1.396 . S
C1160 C1161 1.399 . S
C1161 H1147 0.929 . S
C1161 C1160 1.399 . S
C1161 C1162 1.385 . S
C1162 H1148 0.931 . S
C1162 C1161 1.385 . S
C1162 C1163 1.389 . S
C1163 C1162 1.389 . S
C1163 C1164 1.390 . S
C1164 H1149 0.926 1_455 S
C1164 C1159 1.390 . S
C1164 C1163 1.390 . S
H1165 C1177 0.930 . S
H1166 C1179 0.930 . S
H1167 C1180 0.930 . S
H1168 C1184 0.959 . S
H1169 C1184 0.959 . S
H1170 C1184 0.961 . S
H1171 C1185 0.960 . S
H1172 C1185 0.961 . S
H1173 C1185 0.959 . S
H1174 C1188 0.929 . S
H1175 C1189 0.931 . S
H1176 C1191 0.930 . S
C1177 H1165 0.930 . S
C1177 C1178 1.399 . S
C1177 C1182 1.399 . S
C1178 C1177 1.399 . S
C1178 C1179 1.376 1_545 S
C1179 H1166 0.930 . S
C1179 C1178 1.376 1_565 S
C1179 C1180 1.388 . S
C1180 H1167 0.930 . S
C1180 C1179 1.388 . S
C1180 C1181 1.402 . S
C1181 C1180 1.402 . S
C1181 C1182 1.378 1_565 S
C1181 C1187 1.467 . S
C1182 C1177 1.399 . S
C1182 C1181 1.378 1_545 S
C1182 C1183 1.516 . S
C1183 C1182 1.516 . S
C1183 C1184 1.502 . S
C1183 C1185 1.561 . S
C1183 C1186 1.526 . S
C1184 H1168 0.959 . S
C1184 H1169 0.959 . S
C1184 H1170 0.961 . S
C1184 C1183 1.502 . S
C1185 H1171 0.960 . S
C1185 H1172 0.961 . S
C1185 H1173 0.959 . S
C1185 C1183 1.561 . S
C1186 C1183 1.526 . S
C1186 C1187 1.396 1_545 S
C1186 C1191 1.390 . S
C1187 C1181 1.467 . S
C1187 C1186 1.396 1_565 S
C1187 C1188 1.399 . S
C1188 H1174 0.929 . S
C1188 C1187 1.399 . S
C1188 C1189 1.385 . S
C1189 H1175 0.931 . S
C1189 C1188 1.385 . S
C1189 C1190 1.389 1_565 S
C1190 C1189 1.389 1_545 S
C1190 C1191 1.387 . S
C1191 H1176 0.930 . S
C1191 C1186 1.390 . S
C1191 C1190 1.387 . S
H1192 C1204 0.930 . S
H1193 C1206 0.930 . S
H1194 C1207 0.930 . S
H1195 C1211 0.959 . S
H1196 C1211 0.959 . S
H1197 C1211 0.961 . S
H1198 C1212 0.960 . S
H1199 C1212 0.961 . S
H1200 C1212 0.959 . S
H1201 C1215 0.929 . S
H1202 C1216 0.931 . S
H1203 C1218 0.930 . S
C1204 H1192 0.930 . S
C1204 C1205 1.399 . S
C1204 C1209 1.399 . S
C1205 C1204 1.399 . S
C1205 C1206 1.376 . S
C1206 H1193 0.930 . S
C1206 C1205 1.376 . S
C1206 C1207 1.388 . S
C1207 H1194 0.930 . S
C1207 C1206 1.388 . S
C1207 C1208 1.390 . S
C1208 C1207 1.390 . S
C1208 C1209 1.394 . S
C1208 C1214 1.465 . S
C1209 C1204 1.399 . S
C1209 C1208 1.394 . S
C1209 C1210 1.516 . S
C1210 C1209 1.516 . S
C1210 C1211 1.502 . S
C1210 C1212 1.561 . S
C1210 C1213 1.526 . S
C1211 H1195 0.959 . S
C1211 H1196 0.959 . S
C1211 H1197 0.961 . S
C1211 C1210 1.502 . S
C1212 H1198 0.960 . S
C1212 H1199 0.961 . S
C1212 H1200 0.959 . S
C1212 C1210 1.561 . S
C1213 C1210 1.526 . S
C1213 C1214 1.396 . S
C1213 C1218 1.390 . S
C1214 C1208 1.465 . S
C1214 C1213 1.396 . S
C1214 C1215 1.399 . S
C1215 H1201 0.929 . S
C1215 C1214 1.399 . S
C1215 C1216 1.385 . S
C1216 H1202 0.931 . S
C1216 C1215 1.385 . S
C1216 C1217 1.389 . S
C1217 C1216 1.389 . S
C1217 C1218 1.387 . S
C1218 H1203 0.930 . S
C1218 C1213 1.390 . S
C1218 C1217 1.387 . S
H1219 C1231 0.930 . S
H1220 C1233 0.930 . S
H1221 C1234 0.930 . S
H1222 C1238 0.959 . S
H1223 C1238 0.959 . S
H1224 C1238 0.961 . S
H1225 C1239 0.960 . S
H1226 C1239 0.961 . S
H1227 C1239 0.959 . S
H1228 C1242 0.929 . S
H1229 C1243 0.931 . S
H1230 C1245 0.930 . S
C1231 H1219 0.930 . S
C1231 C1232 1.399 . S
C1231 C1236 1.399 . S
C1232 C1231 1.399 . S
C1232 C1233 1.376 . S
C1233 H1220 0.930 . S
C1233 C1232 1.376 . S
C1233 C1234 1.388 . S
C1234 H1221 0.930 . S
C1234 C1233 1.388 . S
C1234 C1235 1.390 . S
C1235 C1234 1.390 . S
C1235 C1236 1.394 . S
C1235 C1241 1.465 . S
C1236 C1231 1.399 . S
C1236 C1235 1.394 . S
C1236 C1237 1.516 . S
C1237 C1236 1.516 . S
C1237 C1238 1.502 . S
C1237 C1239 1.561 . S
C1237 C1240 1.526 . S
C1238 H1222 0.959 . S
C1238 H1223 0.959 . S
C1238 H1224 0.961 . S
C1238 C1237 1.502 . S
C1239 H1225 0.960 . S
C1239 H1226 0.961 . S
C1239 H1227 0.959 . S
C1239 C1237 1.561 . S
C1240 C1237 1.526 . S
C1240 C1241 1.396 . S
C1240 C1245 1.390 . S
C1241 C1235 1.465 . S
C1241 C1240 1.396 . S
C1241 C1242 1.399 . S
C1242 H1228 0.929 . S
C1242 C1241 1.399 . S
C1242 C1243 1.385 . S
C1243 H1229 0.931 . S
C1243 C1242 1.385 . S
C1243 C1244 1.389 . S
C1244 C1243 1.389 . S
C1244 C1245 1.387 . S
C1245 H1230 0.930 . S
C1245 C1240 1.390 . S
C1245 C1244 1.387 . S
H1246 C1258 0.930 . S
H1247 C1260 0.930 . S
H1248 C1261 0.930 . S
H1249 C1265 0.959 . S
H1250 C1265 0.959 . S
H1251 C1265 0.961 . S
H1252 C1266 0.960 . S
H1253 C1266 0.961 . S
H1254 C1266 0.959 . S
H1255 C1269 0.929 . S
H1256 C1270 0.931 . S
H1257 C1272 0.930 . S
C1258 H1246 0.930 . S
C1258 C1259 1.399 . S
C1258 C1263 1.399 . S
C1259 C1258 1.399 . S
C1259 C1260 1.376 . S
C1260 H1247 0.930 . S
C1260 C1259 1.376 . S
C1260 C1261 1.388 . S
C1261 H1248 0.930 . S
C1261 C1260 1.388 . S
C1261 C1262 1.390 . S
C1262 C1261 1.390 . S
C1262 C1263 1.394 . S
C1262 C1268 1.465 . S
C1263 C1258 1.399 . S
C1263 C1262 1.394 . S
C1263 C1264 1.516 . S
C1264 C1263 1.516 . S
C1264 C1265 1.502 . S
C1264 C1266 1.561 . S
C1264 C1267 1.526 . S
C1265 H1249 0.959 . S
C1265 H1250 0.959 . S
C1265 H1251 0.961 . S
C1265 C1264 1.502 . S
C1266 H1252 0.960 . S
C1266 H1253 0.961 . S
C1266 H1254 0.959 . S
C1266 C1264 1.561 . S
C1267 C1264 1.526 . S
C1267 C1268 1.396 . S
C1267 C1272 1.390 . S
C1268 C1262 1.465 . S
C1268 C1267 1.396 . S
C1268 C1269 1.399 . S
C1269 H1255 0.929 . S
C1269 C1268 1.399 . S
C1269 C1270 1.385 . S
C1270 H1256 0.931 . S
C1270 C1269 1.385 . S
C1270 C1271 1.389 . S
C1271 C1270 1.389 . S
C1271 C1272 1.387 . S
C1272 H1257 0.930 . S
C1272 C1267 1.390 . S
C1272 C1271 1.387 . S
H1273 C1285 0.930 . S
H1274 C1287 0.930 . S
H1275 C1288 0.930 . S
H1276 C1292 0.959 . S
H1277 C1292 0.959 . S
H1278 C1292 0.961 . S
H1279 C1293 0.960 . S
H1280 C1293 0.961 . S
H1281 C1293 0.959 . S
H1282 C1296 0.929 . S
H1283 C1297 0.931 . S
H1284 C1299 0.930 . S
C1285 H1273 0.930 . S
C1285 C1286 1.399 . S
C1285 C1290 1.399 . S
C1286 C1285 1.399 . S
C1286 C1287 1.376 . S
C1287 H1274 0.930 . S
C1287 C1286 1.376 . S
C1287 C1288 1.388 . S
C1288 H1275 0.930 . S
C1288 C1287 1.388 . S
C1288 C1289 1.390 . S
C1289 C1288 1.390 . S
C1289 C1290 1.394 . S
C1289 C1295 1.465 . S
C1290 C1285 1.399 . S
C1290 C1289 1.394 . S
C1290 C1291 1.516 . S
C1291 C1290 1.516 . S
C1291 C1292 1.502 . S
C1291 C1293 1.561 . S
C1291 C1294 1.526 . S
C1292 H1276 0.959 . S
C1292 H1277 0.959 . S
C1292 H1278 0.961 . S
C1292 C1291 1.502 . S
C1293 H1279 0.960 . S
C1293 H1280 0.961 . S
C1293 H1281 0.959 . S
C1293 C1291 1.561 . S
C1294 C1291 1.526 . S
C1294 C1295 1.396 . S
C1294 C1299 1.390 . S
C1295 C1289 1.465 . S
C1295 C1294 1.396 . S
C1295 C1296 1.399 . S
C1296 H1282 0.929 . S
C1296 C1295 1.399 . S
C1296 C1297 1.385 . S
C1297 H1283 0.931 . S
C1297 C1296 1.385 . S
C1297 C1298 1.389 . S
C1298 C1297 1.389 . S
C1298 C1299 1.387 . S
C1299 H1284 0.930 . S
C1299 C1294 1.390 . S
C1299 C1298 1.387 . S
H1300 C1312 0.930 . S
H1301 C1314 0.930 . S
H1302 C1315 0.930 . S
H1303 C1319 0.959 . S
H1304 C1319 0.959 . S
H1305 C1319 0.961 . S
H1306 C1320 0.960 . S
H1307 C1320 0.961 . S
H1308 C1320 0.959 . S
H1309 C1323 0.929 . S
H1310 C1324 0.931 . S
H1311 C1326 0.930 . S
C1312 H1300 0.930 . S
C1312 C1313 1.399 . S
C1312 C1317 1.399 . S
C1313 C1312 1.399 . S
C1313 C1314 1.376 . S
C1314 H1301 0.930 . S
C1314 C1313 1.376 . S
C1314 C1315 1.388 . S
C1315 H1302 0.930 . S
C1315 C1314 1.388 . S
C1315 C1316 1.390 . S
C1316 C1315 1.390 . S
C1316 C1317 1.394 . S
C1316 C1322 1.465 . S
C1317 C1312 1.399 . S
C1317 C1316 1.394 . S
C1317 C1318 1.516 . S
C1318 C1317 1.516 . S
C1318 C1319 1.502 . S
C1318 C1320 1.561 . S
C1318 C1321 1.526 . S
C1319 H1303 0.959 . S
C1319 H1304 0.959 . S
C1319 H1305 0.961 . S
C1319 C1318 1.502 . S
C1320 H1306 0.960 . S
C1320 H1307 0.961 . S
C1320 H1308 0.959 . S
C1320 C1318 1.561 . S
C1321 C1318 1.526 . S
C1321 C1322 1.396 . S
C1321 C1326 1.390 . S
C1322 C1316 1.465 . S
C1322 C1321 1.396 . S
C1322 C1323 1.399 . S
C1323 H1309 0.929 . S
C1323 C1322 1.399 . S
C1323 C1324 1.385 . S
C1324 H1310 0.931 . S
C1324 C1323 1.385 . S
C1324 C1325 1.389 . S
C1325 C1324 1.389 . S
C1325 C1326 1.387 . S
C1326 H1311 0.930 . S
C1326 C1321 1.390 . S
C1326 C1325 1.387 . S
H1327 C1339 0.930 . S
H1328 C1341 0.930 . S
H1329 C1342 0.930 . S
H1330 C1346 0.959 . S
H1331 C1346 0.959 . S
H1332 C1346 0.961 . S
H1333 C1347 0.960 . S
H1334 C1347 0.961 . S
H1335 C1347 0.959 . S
H1336 C1350 0.929 . S
H1337 C1351 0.931 . S
H1338 C1353 0.930 . S
C1339 H1327 0.930 . S
C1339 C1340 1.399 . S
C1339 C1344 1.399 . S
C1340 C1339 1.399 . S
C1340 C1341 1.376 . S
C1341 H1328 0.930 . S
C1341 C1340 1.376 . S
C1341 C1342 1.388 . S
C1342 H1329 0.930 . S
C1342 C1341 1.388 . S
C1342 C1343 1.390 . S
C1343 C1342 1.390 . S
C1343 C1344 1.394 . S
C1343 C1349 1.465 . S
C1344 C1339 1.399 . S
C1344 C1343 1.394 . S
C1344 C1345 1.516 . S
C1345 C1344 1.516 . S
C1345 C1346 1.502 . S
C1345 C1347 1.561 . S
C1345 C1348 1.526 . S
C1346 H1330 0.959 . S
C1346 H1331 0.959 . S
C1346 H1332 0.961 . S
C1346 C1345 1.502 . S
C1347 H1333 0.960 . S
C1347 H1334 0.961 . S
C1347 H1335 0.959 . S
C1347 C1345 1.561 . S
C1348 C1345 1.526 . S
C1348 C1349 1.396 . S
C1348 C1353 1.390 . S
C1349 C1343 1.465 . S
C1349 C1348 1.396 . S
C1349 C1350 1.399 . S
C1350 H1336 0.929 . S
C1350 C1349 1.399 . S
C1350 C1351 1.385 . S
C1351 H1337 0.931 . S
C1351 C1350 1.385 . S
C1351 C1352 1.389 . S
C1352 C1351 1.389 . S
C1352 C1353 1.387 . S
C1353 H1338 0.930 . S
C1353 C1348 1.390 . S
C1353 C1352 1.387 . S
H1354 C1366 0.930 . S
H1355 C1368 0.930 . S
H1356 C1369 0.930 . S
H1357 C1373 0.959 . S
H1358 C1373 0.959 . S
H1359 C1373 0.961 . S
H1360 C1374 0.960 . S
H1361 C1374 0.961 . S
H1362 C1374 0.959 . S
H1363 C1377 0.929 . S
H1364 C1378 0.931 . S
H1365 C1380 0.930 . S
C1366 H1354 0.930 . S
C1366 C1367 1.399 . S
C1366 C1371 1.399 . S
C1367 C1366 1.399 . S
C1367 C1368 1.376 . S
C1368 H1355 0.930 . S
C1368 C1367 1.376 . S
C1368 C1369 1.388 . S
C1369 H1356 0.930 . S
C1369 C1368 1.388 . S
C1369 C1370 1.390 . S
C1370 C1369 1.390 . S
C1370 C1371 1.394 . S
C1370 C1376 1.465 . S
C1371 C1366 1.399 . S
C1371 C1370 1.394 . S
C1371 C1372 1.516 . S
C1372 C1371 1.516 . S
C1372 C1373 1.502 . S
C1372 C1374 1.561 . S
C1372 C1375 1.526 . S
C1373 H1357 0.959 . S
C1373 H1358 0.959 . S
C1373 H1359 0.961 . S
C1373 C1372 1.502 . S
C1374 H1360 0.960 . S
C1374 H1361 0.961 . S
C1374 H1362 0.959 . S
C1374 C1372 1.561 . S
C1375 C1372 1.526 . S
C1375 C1376 1.396 . S
C1375 C1380 1.390 . S
C1376 C1370 1.465 . S
C1376 C1375 1.396 . S
C1376 C1377 1.399 . S
C1377 H1363 0.929 . S
C1377 C1376 1.399 . S
C1377 C1378 1.385 . S
C1378 H1364 0.931 . S
C1378 C1377 1.385 . S
C1378 C1379 1.389 . S
C1379 C1378 1.389 . S
C1379 C1380 1.387 . S
C1380 H1365 0.930 . S
C1380 C1375 1.390 . S
C1380 C1379 1.387 . S
H1381 C1393 0.930 . S
H1382 C1395 0.930 . S
H1383 C1396 0.930 . S
H1384 C1400 0.959 . S
H1385 C1400 0.959 . S
H1386 C1400 0.961 . S
H1387 C1401 0.960 . S
H1388 C1401 0.961 . S
H1389 C1401 0.959 . S
H1390 C1404 0.929 . S
H1391 C1405 0.931 . S
H1392 C1407 0.930 . S
C1393 H1381 0.930 . S
C1393 C1394 1.399 . S
C1393 C1398 1.399 . S
C1394 C1393 1.399 . S
C1394 C1395 1.376 . S
C1395 H1382 0.930 . S
C1395 C1394 1.376 . S
C1395 C1396 1.388 . S
C1396 H1383 0.930 . S
C1396 C1395 1.388 . S
C1396 C1397 1.390 . S
C1397 C1396 1.390 . S
C1397 C1398 1.394 . S
C1397 C1403 1.465 . S
C1398 C1393 1.399 . S
C1398 C1397 1.394 . S
C1398 C1399 1.516 . S
C1399 C1398 1.516 . S
C1399 C1400 1.502 . S
C1399 C1401 1.561 . S
C1399 C1402 1.526 . S
C1400 H1384 0.959 . S
C1400 H1385 0.959 . S
C1400 H1386 0.961 . S
C1400 C1399 1.502 . S
C1401 H1387 0.960 . S
C1401 H1388 0.961 . S
C1401 H1389 0.959 . S
C1401 C1399 1.561 . S
C1402 C1399 1.526 . S
C1402 C1403 1.396 . S
C1402 C1407 1.390 . S
C1403 C1397 1.465 . S
C1403 C1402 1.396 . S
C1403 C1404 1.399 . S
C1404 H1390 0.929 . S
C1404 C1403 1.399 . S
C1404 C1405 1.385 . S
C1405 H1391 0.931 . S
C1405 C1404 1.385 . S
C1405 C1406 1.389 . S
C1406 C1405 1.389 . S
C1406 C1407 1.387 . S
C1407 H1392 0.930 . S
C1407 C1402 1.390 . S
C1407 C1406 1.387 . S
H1408 C1420 0.930 . S
H1409 C1422 0.930 . S
H1410 C1423 0.930 . S
H1411 C1427 0.959 . S
H1412 C1427 0.959 . S
H1413 C1427 0.961 . S
H1414 C1428 0.960 . S
H1415 C1428 0.961 . S
H1416 C1428 0.959 . S
H1417 C1431 0.929 . S
H1418 C1432 0.931 . S
H1419 C1434 0.930 . S
C1420 H1408 0.930 . S
C1420 C1421 1.399 . S
C1420 C1425 1.399 . S
C1421 C1420 1.399 . S
C1421 C1422 1.376 . S
C1422 H1409 0.930 . S
C1422 C1421 1.376 . S
C1422 C1423 1.388 . S
C1423 H1410 0.930 . S
C1423 C1422 1.388 . S
C1423 C1424 1.390 . S
C1424 C1423 1.390 . S
C1424 C1425 1.394 . S
C1424 C1430 1.465 . S
C1425 C1420 1.399 . S
C1425 C1424 1.394 . S
C1425 C1426 1.516 . S
C1426 C1425 1.516 . S
C1426 C1427 1.502 . S
C1426 C1428 1.561 . S
C1426 C1429 1.526 . S
C1427 H1411 0.959 . S
C1427 H1412 0.959 . S
C1427 H1413 0.961 . S
C1427 C1426 1.502 . S
C1428 H1414 0.960 . S
C1428 H1415 0.961 . S
C1428 H1416 0.959 . S
C1428 C1426 1.561 . S
C1429 C1426 1.526 . S
C1429 C1430 1.396 . S
C1429 C1434 1.390 . S
C1430 C1424 1.465 . S
C1430 C1429 1.396 . S
C1430 C1431 1.399 . S
C1431 H1417 0.929 . S
C1431 C1430 1.399 . S
C1431 C1432 1.385 . S
C1432 H1418 0.931 . S
C1432 C1431 1.385 . S
C1432 C1433 1.389 . S
C1433 C1432 1.389 . S
C1433 C1434 1.387 . S
C1434 H1419 0.930 . S
C1434 C1429 1.390 . S
C1434 C1433 1.387 . S
H1435 C1447 0.930 . S
H1436 C1449 0.930 . S
H1437 C1450 0.930 . S
H1438 C1454 0.959 . S
H1439 C1454 0.959 . S
H1440 C1454 0.961 . S
H1441 C1455 0.960 . S
H1442 C1455 0.961 . S
H1443 C1455 0.959 . S
H1444 C1458 0.929 . S
H1445 C1459 0.931 . S
H1446 C1461 0.930 . S
C1447 H1435 0.930 . S
C1447 C1448 1.399 . S
C1447 C1452 1.399 . S
C1448 C1447 1.399 . S
C1448 C1449 1.376 . S
C1449 H1436 0.930 . S
C1449 C1448 1.376 . S
C1449 C1450 1.388 . S
C1450 H1437 0.930 . S
C1450 C1449 1.388 . S
C1450 C1451 1.390 . S
C1451 C1450 1.390 . S
C1451 C1452 1.394 . S
C1451 C1457 1.465 . S
C1452 C1447 1.399 . S
C1452 C1451 1.394 . S
C1452 C1453 1.516 . S
C1453 C1452 1.516 . S
C1453 C1454 1.502 . S
C1453 C1455 1.561 . S
C1453 C1456 1.526 . S
C1454 H1438 0.959 . S
C1454 H1439 0.959 . S
C1454 H1440 0.961 . S
C1454 C1453 1.502 . S
C1455 H1441 0.960 . S
C1455 H1442 0.961 . S
C1455 H1443 0.959 . S
C1455 C1453 1.561 . S
C1456 C1453 1.526 . S
C1456 C1457 1.396 . S
C1456 C1461 1.390 . S
C1457 C1451 1.465 . S
C1457 C1456 1.396 . S
C1457 C1458 1.399 . S
C1458 H1444 0.929 . S
C1458 C1457 1.399 . S
C1458 C1459 1.385 . S
C1459 H1445 0.931 . S
C1459 C1458 1.385 . S
C1459 C1460 1.389 . S
C1460 C1459 1.389 . S
C1460 C1461 1.387 . S
C1461 H1446 0.930 . S
C1461 C1456 1.390 . S
C1461 C1460 1.387 . S
H1462 C1474 0.930 . S
H1463 C1476 0.930 . S
H1464 C1477 0.930 . S
H1465 C1481 0.959 . S
H1466 C1481 0.959 . S
H1467 C1481 0.961 . S
H1468 C1482 0.960 . S
H1469 C1482 0.961 . S
H1470 C1482 0.959 . S
H1471 C1485 0.929 . S
H1472 C1486 0.931 . S
H1473 C1488 0.930 . S
C1474 H1462 0.930 . S
C1474 C1475 1.399 . S
C1474 C1479 1.399 . S
C1475 C1474 1.399 . S
C1475 C1476 1.376 . S
C1476 H1463 0.930 . S
C1476 C1475 1.376 . S
C1476 C1477 1.388 . S
C1477 H1464 0.930 . S
C1477 C1476 1.388 . S
C1477 C1478 1.390 . S
C1478 C1477 1.390 . S
C1478 C1479 1.394 . S
C1478 C1484 1.465 . S
C1479 C1474 1.399 . S
C1479 C1478 1.394 . S
C1479 C1480 1.516 . S
C1480 C1479 1.516 . S
C1480 C1481 1.502 . S
C1480 C1482 1.561 . S
C1480 C1483 1.526 . S
C1481 H1465 0.959 . S
C1481 H1466 0.959 . S
C1481 H1467 0.961 . S
C1481 C1480 1.502 . S
C1482 H1468 0.960 . S
C1482 H1469 0.961 . S
C1482 H1470 0.959 . S
C1482 C1480 1.561 . S
C1483 C1480 1.526 . S
C1483 C1484 1.396 . S
C1483 C1488 1.390 . S
C1484 C1478 1.465 . S
C1484 C1483 1.396 . S
C1484 C1485 1.399 . S
C1485 H1471 0.929 . S
C1485 C1484 1.399 . S
C1485 C1486 1.385 . S
C1486 H1472 0.931 . S
C1486 C1485 1.385 . S
C1486 C1487 1.389 . S
C1487 C1486 1.389 . S
C1487 C1488 1.387 . S
C1488 H1473 0.930 . S
C1488 C1483 1.390 . S
C1488 C1487 1.387 . S
H1489 C1501 0.930 . S
H1490 C1503 0.930 . S
H1491 C1504 0.930 . S
H1492 C1508 0.959 . S
H1493 C1508 0.959 . S
H1494 C1508 0.961 . S
H1495 C1509 0.960 . S
H1496 C1509 0.961 . S
H1497 C1509 0.959 . S
H1498 C1512 0.929 . S
H1499 C1513 0.931 . S
H1500 C1515 0.930 . S
C1501 H1489 0.930 . S
C1501 C1502 1.399 . S
C1501 C1506 1.399 . S
C1502 C1501 1.399 . S
C1502 C1503 1.376 . S
C1503 H1490 0.930 . S
C1503 C1502 1.376 . S
C1503 C1504 1.388 . S
C1504 H1491 0.930 . S
C1504 C1503 1.388 . S
C1504 C1505 1.390 . S
C1505 C1504 1.390 . S
C1505 C1506 1.394 . S
C1505 C1511 1.465 . S
C1506 C1501 1.399 . S
C1506 C1505 1.394 . S
C1506 C1507 1.516 . S
C1507 C1506 1.516 . S
C1507 C1508 1.502 . S
C1507 C1509 1.561 . S
C1507 C1510 1.526 . S
C1508 H1492 0.959 . S
C1508 H1493 0.959 . S
C1508 H1494 0.961 . S
C1508 C1507 1.502 . S
C1509 H1495 0.960 . S
C1509 H1496 0.961 . S
C1509 H1497 0.959 . S
C1509 C1507 1.561 . S
C1510 C1507 1.526 . S
C1510 C1511 1.396 . S
C1510 C1515 1.390 . S
C1511 C1505 1.465 . S
C1511 C1510 1.396 . S
C1511 C1512 1.399 . S
C1512 H1498 0.929 . S
C1512 C1511 1.399 . S
C1512 C1513 1.385 . S
C1513 H1499 0.931 . S
C1513 C1512 1.385 . S
C1513 C1514 1.389 . S
C1514 C1513 1.389 . S
C1514 C1515 1.387 . S
C1515 H1500 0.930 . S
C1515 C1510 1.390 . S
C1515 C1514 1.387 . S
H1516 C1528 0.930 . S
H1517 C1530 0.930 . S
H1518 C1531 0.930 . S
H1519 C1535 0.959 . S
H1520 C1535 0.959 . S
H1521 C1535 0.961 . S
H1522 C1536 0.960 . S
H1523 C1536 0.961 . S
H1524 C1536 0.959 . S
H1525 C1539 0.929 . S
H1526 C1540 0.931 . S
H1527 C1542 0.930 . S
C1528 H1516 0.930 . S
C1528 C1529 1.399 . S
C1528 C1533 1.399 . S
C1529 C1528 1.399 . S
C1529 C1530 1.376 . S
C1530 H1517 0.930 . S
C1530 C1529 1.376 . S
C1530 C1531 1.388 . S
C1531 H1518 0.930 . S
C1531 C1530 1.388 . S
C1531 C1532 1.390 . S
C1532 C1531 1.390 . S
C1532 C1533 1.394 . S
C1532 C1538 1.465 . S
C1533 C1528 1.399 . S
C1533 C1532 1.394 . S
C1533 C1534 1.516 . S
C1534 C1533 1.516 . S
C1534 C1535 1.502 . S
C1534 C1536 1.561 . S
C1534 C1537 1.526 . S
C1535 H1519 0.959 . S
C1535 H1520 0.959 . S
C1535 H1521 0.961 . S
C1535 C1534 1.502 . S
C1536 H1522 0.960 . S
C1536 H1523 0.961 . S
C1536 H1524 0.959 . S
C1536 C1534 1.561 . S
C1537 C1534 1.526 . S
C1537 C1538 1.396 . S
C1537 C1542 1.390 . S
C1538 C1532 1.465 . S
C1538 C1537 1.396 . S
C1538 C1539 1.399 . S
C1539 H1525 0.929 . S
C1539 C1538 1.399 . S
C1539 C1540 1.385 . S
C1540 H1526 0.931 . S
C1540 C1539 1.385 . S
C1540 C1541 1.389 . S
C1541 C1540 1.389 . S
C1541 C1542 1.387 . S
C1542 H1527 0.930 . S
C1542 C1537 1.390 . S
C1542 C1541 1.387 . S
H1543 C1555 0.930 . S
H1544 C1557 0.930 . S
H1545 C1558 0.930 . S
H1546 C1562 0.959 . S
H1547 C1562 0.959 . S
H1548 C1562 0.961 . S
H1549 C1563 0.960 . S
H1550 C1563 0.961 . S
H1551 C1563 0.959 . S
H1552 C1566 0.929 . S
H1553 C1567 0.931 . S
H1554 C1569 0.930 . S
C1555 H1543 0.930 . S
C1555 C1556 1.399 . S
C1555 C1560 1.399 . S
C1556 C1555 1.399 . S
C1556 C1557 1.376 . S
C1557 H1544 0.930 . S
C1557 C1556 1.376 . S
C1557 C1558 1.388 . S
C1558 H1545 0.930 . S
C1558 C1557 1.388 . S
C1558 C1559 1.390 . S
C1559 C1558 1.390 . S
C1559 C1560 1.394 . S
C1559 C1565 1.465 . S
C1560 C1555 1.399 . S
C1560 C1559 1.394 . S
C1560 C1561 1.516 . S
C1561 C1560 1.516 . S
C1561 C1562 1.502 . S
C1561 C1563 1.561 . S
C1561 C1564 1.526 . S
C1562 H1546 0.959 . S
C1562 H1547 0.959 . S
C1562 H1548 0.961 . S
C1562 C1561 1.502 . S
C1563 H1549 0.960 . S
C1563 H1550 0.961 . S
C1563 H1551 0.959 . S
C1563 C1561 1.561 . S
C1564 C1561 1.526 . S
C1564 C1565 1.396 . S
C1564 C1569 1.390 . S
C1565 C1559 1.465 . S
C1565 C1564 1.396 . S
C1565 C1566 1.399 . S
C1566 H1552 0.929 . S
C1566 C1565 1.399 . S
C1566 C1567 1.385 . S
C1567 H1553 0.931 . S
C1567 C1566 1.385 . S
C1567 C1568 1.389 . S
C1568 C1567 1.389 . S
C1568 C1569 1.387 . S
C1569 H1554 0.930 . S
C1569 C1564 1.390 . S
C1569 C1568 1.387 . S
H1570 C1582 0.930 . S
H1571 C1584 0.930 . S
H1572 C1585 0.930 . S
H1573 C1589 0.959 . S
H1574 C1589 0.959 . S
H1575 C1589 0.961 . S
H1576 C1590 0.960 . S
H1577 C1590 0.961 . S
H1578 C1590 0.959 . S
H1579 C1593 0.929 . S
H1580 C1594 0.931 . S
H1581 C1596 0.930 . S
C1582 H1570 0.930 . S
C1582 C1583 1.399 . S
C1582 C1587 1.399 . S
C1583 C1582 1.399 . S
C1583 C1584 1.376 . S
C1584 H1571 0.930 . S
C1584 C1583 1.376 . S
C1584 C1585 1.388 . S
C1585 H1572 0.930 . S
C1585 C1584 1.388 . S
C1585 C1586 1.390 . S
C1586 C1585 1.390 . S
C1586 C1587 1.394 . S
C1586 C1592 1.465 . S
C1587 C1582 1.399 . S
C1587 C1586 1.394 . S
C1587 C1588 1.516 . S
C1588 C1587 1.516 . S
C1588 C1589 1.502 . S
C1588 C1590 1.561 . S
C1588 C1591 1.526 . S
C1589 H1573 0.959 . S
C1589 H1574 0.959 . S
C1589 H1575 0.961 . S
C1589 C1588 1.502 . S
C1590 H1576 0.960 . S
C1590 H1577 0.961 . S
C1590 H1578 0.959 . S
C1590 C1588 1.561 . S
C1591 C1588 1.526 . S
C1591 C1592 1.396 . S
C1591 C1596 1.390 . S
C1592 C1586 1.465 . S
C1592 C1591 1.396 . S
C1592 C1593 1.399 . S
C1593 H1579 0.929 . S
C1593 C1592 1.399 . S
C1593 C1594 1.385 . S
C1594 H1580 0.931 . S
C1594 C1593 1.385 . S
C1594 C1595 1.389 . S
C1595 C1594 1.389 . S
C1595 C1596 1.387 . S
C1596 H1581 0.930 . S
C1596 C1591 1.390 . S
C1596 C1595 1.387 . S
H1597 C1609 0.930 . S
H1598 C1611 0.930 . S
H1599 C1612 0.930 . S
H1600 C1616 0.959 . S
H1601 C1616 0.959 . S
H1602 C1616 0.961 . S
H1603 C1617 0.960 . S
H1604 C1617 0.961 . S
H1605 C1617 0.959 . S
H1606 C1620 0.929 . S
H1607 C1621 0.931 . S
H1608 C1623 0.930 . S
C1609 H1597 0.930 . S
C1609 C1610 1.399 . S
C1609 C1614 1.399 . S
C1610 C1609 1.399 . S
C1610 C1611 1.376 . S
C1611 H1598 0.930 . S
C1611 C1610 1.376 . S
C1611 C1612 1.388 . S
C1612 H1599 0.930 . S
C1612 C1611 1.388 . S
C1612 C1613 1.390 . S
C1613 C1612 1.390 . S
C1613 C1614 1.394 . S
C1613 C1619 1.465 . S
C1614 C1609 1.399 . S
C1614 C1613 1.394 . S
C1614 C1615 1.516 . S
C1615 C1614 1.516 . S
C1615 C1616 1.502 . S
C1615 C1617 1.561 . S
C1615 C1618 1.526 . S
C1616 H1600 0.959 . S
C1616 H1601 0.959 . S
C1616 H1602 0.961 . S
C1616 C1615 1.502 . S
C1617 H1603 0.960 . S
C1617 H1604 0.961 . S
C1617 H1605 0.959 . S
C1617 C1615 1.561 . S
C1618 C1615 1.526 . S
C1618 C1619 1.396 . S
C1618 C1623 1.390 . S
C1619 C1613 1.465 . S
C1619 C1618 1.396 . S
C1619 C1620 1.399 . S
C1620 H1606 0.929 . S
C1620 C1619 1.399 . S
C1620 C1621 1.385 . S
C1621 H1607 0.931 . S
C1621 C1620 1.385 . S
C1621 C1622 1.389 . S
C1622 C1621 1.389 . S
C1622 C1623 1.387 . S
C1623 H1608 0.930 . S
C1623 C1618 1.390 . S
C1623 C1622 1.387 . S
C557 C2 1.491 . S
C569 C138 1.499 . S
C584 C172 1.473 . S
C596 C36 1.487 . S
C611 C206 1.484 . S
C623 C70 1.501 . S
C638 C240 1.473 . S
C650 C104 1.489 . S
C665 C274 1.492 . S
C677 C410 1.492 . S
C692 C308 1.483 . S
C704 C444 1.499 . S
C719 C478 1.500 . S
C731 C342 1.480 . S
C746 C376 1.478 . S
C758 C512 1.487 . S
C773 C413 0.737 . S
C785 C9 0.810 . S
C800 C447 0.748 . S
C812 C43 0.862 . S
C827 C77 0.877 . S
C839 C481 0.718 . S
C854 C515 0.835 . S
C866 C111 0.710 . S
C881 C277 0.773 . S
C893 C145 0.746 . S
C908 C311 0.788 . S
C920 C179 0.720 . S
C935 C213 0.857 . S
C947 C345 0.756 . S
C962 C247 0.711 . S
C974 C379 0.793 . S
C989 C141 0.827 . S
C1001 C281 0.664 . S
C1016 C175 0.773 . S
C1028 C315 0.686 . S
C1043 C209 0.836 . S
C1055 C349 0.677 . S
C1070 C383 0.720 . S
C1082 C243 0.842 . S
C1097 C5 0.761 . S
C1109 C417 0.877 . S
C1124 C39 0.753 . S
C1136 C451 0.715 . S
C1151 C485 0.745 . S
C1163 C73 0.738 . S
C1178 C107 0.836 . S
C1190 C519 0.770 . S
C1205 C101 2.216 . S
C1217 C33 2.214 . S
C1232 C67 2.215 . S
C1244 C135 2.212 . S
C1259 C237 2.218 . S
C1271 C169 2.218 . S
C1286 C271 2.217 . S
C1298 C203 2.215 . S
C1313 C373 2.210 . S
C1325 C305 2.207 . S
C1340 C407 2.211 . S
C1352 C339 2.207 . S
C1367 C441 2.208 . S
C1379 C509 2.208 . S
C1394 C543 2.215 . S
C1406 C475 2.218 . S
C1421 C258 1.721 . S
C1433 C20 1.746 . S
C1448 C156 1.720 . S
C1460 C54 1.764 . S
C1475 C190 1.743 . S
C1487 C88 1.723 . S
C1502 C224 1.762 . S
C1514 C122 1.720 . S
C1529 C530 1.726 . S
C1541 C292 1.754 . S
C1556 C428 1.762 . S
C1568 C326 1.736 . S
C1583 C462 1.746 . S
C1595 C360 1.754 . S
C1610 C496 1.768 . S
C1622 C394 1.719 . S
