# Generated by pormake.
# Topology zfo, (5)-cn, num edge types: 1
# Building blocks:
#     Node 0, Type 0, BuildingBlock: XOMCOT_clean_sbu_0, # of connection points: 5
#     Node 1, Type 0, BuildingBlock: XOMCOT_clean_sbu_0, # of connection points: 5
#     Node 2, Type 0, BuildingBlock: XOMCOT_clean_sbu_0, # of connection points: 5
#     Node 3, Type 0, BuildingBlock: XOMCOT_clean_sbu_0, # of connection points: 5
#     Node 4, Type 0, BuildingBlock: XOMCOT_clean_sbu_0, # of connection points: 5
#     Node 5, Type 0, BuildingBlock: XOMCOT_clean_sbu_0, # of connection points: 5
#     Node 6, Type 0, BuildingBlock: XOMCOT_clean_sbu_0, # of connection points: 5
#     Node 7, Type 0, BuildingBlock: XOMCOT_clean_sbu_0, # of connection points: 5
#     Node 8, Type 0, BuildingBlock: XOMCOT_clean_sbu_0, # of connection points: 5
#     Node 9, Type 0, BuildingBlock: XOMCOT_clean_sbu_0, # of connection points: 5
#     Node 10, Type 0, BuildingBlock: XOMCOT_clean_sbu_0, # of connection points: 5
#     Node 11, Type 0, BuildingBlock: XOMCOT_clean_sbu_0, # of connection points: 5
#     Node 12, Type 0, BuildingBlock: XOMCOT_clean_sbu_0, # of connection points: 5
#     Node 13, Type 0, BuildingBlock: XOMCOT_clean_sbu_0, # of connection points: 5
#     Node 14, Type 0, BuildingBlock: XOMCOT_clean_sbu_0, # of connection points: 5
#     Node 15, Type 0, BuildingBlock: XOMCOT_clean_sbu_0, # of connection points: 5
#     Edge 16, Type (0, 0), BuildingBlock: ZUJKAS_clean_linker_0, # of connection points: 2
#     Edge 17, Type (0, 0), BuildingBlock: ZUJKAS_clean_linker_0, # of connection points: 2
#     Edge 18, Type (0, 0), BuildingBlock: ZUJKAS_clean_linker_0, # of connection points: 2
#     Edge 19, Type (0, 0), BuildingBlock: ZUJKAS_clean_linker_0, # of connection points: 2
#     Edge 20, Type (0, 0), BuildingBlock: ZUJKAS_clean_linker_0, # of connection points: 2
#     Edge 21, Type (0, 0), BuildingBlock: ZUJKAS_clean_linker_0, # of connection points: 2
#     Edge 22, Type (0, 0), BuildingBlock: ZUJKAS_clean_linker_0, # of connection points: 2
#     Edge 23, Type (0, 0), BuildingBlock: ZUJKAS_clean_linker_0, # of connection points: 2
#     Edge 24, Type (0, 0), BuildingBlock: ZUJKAS_clean_linker_0, # of connection points: 2
#     Edge 25, Type (0, 0), BuildingBlock: ZUJKAS_clean_linker_0, # of connection points: 2
#     Edge 26, Type (0, 0), BuildingBlock: ZUJKAS_clean_linker_0, # of connection points: 2
#     Edge 27, Type (0, 0), BuildingBlock: ZUJKAS_clean_linker_0, # of connection points: 2
#     Edge 28, Type (0, 0), BuildingBlock: ZUJKAS_clean_linker_0, # of connection points: 2
#     Edge 29, Type (0, 0), BuildingBlock: ZUJKAS_clean_linker_0, # of connection points: 2
#     Edge 30, Type (0, 0), BuildingBlock: ZUJKAS_clean_linker_0, # of connection points: 2
#     Edge 31, Type (0, 0), BuildingBlock: ZUJKAS_clean_linker_0, # of connection points: 2
#     Edge 32, Type (0, 0), BuildingBlock: ZUJKAS_clean_linker_0, # of connection points: 2
#     Edge 33, Type (0, 0), BuildingBlock: ZUJKAS_clean_linker_0, # of connection points: 2
#     Edge 34, Type (0, 0), BuildingBlock: ZUJKAS_clean_linker_0, # of connection points: 2
#     Edge 35, Type (0, 0), BuildingBlock: ZUJKAS_clean_linker_0, # of connection points: 2
#     Edge 36, Type (0, 0), BuildingBlock: ZUJKAS_clean_linker_0, # of connection points: 2
#     Edge 37, Type (0, 0), BuildingBlock: ZUJKAS_clean_linker_0, # of connection points: 2
#     Edge 38, Type (0, 0), BuildingBlock: ZUJKAS_clean_linker_0, # of connection points: 2
#     Edge 39, Type (0, 0), BuildingBlock: ZUJKAS_clean_linker_0, # of connection points: 2
#     Edge 40, Type (0, 0), BuildingBlock: ZUJKAS_clean_linker_0, # of connection points: 2
#     Edge 41, Type (0, 0), BuildingBlock: ZUJKAS_clean_linker_0, # of connection points: 2
#     Edge 42, Type (0, 0), BuildingBlock: ZUJKAS_clean_linker_0, # of connection points: 2
#     Edge 43, Type (0, 0), BuildingBlock: ZUJKAS_clean_linker_0, # of connection points: 2
#     Edge 44, Type (0, 0), BuildingBlock: ZUJKAS_clean_linker_0, # of connection points: 2
#     Edge 45, Type (0, 0), BuildingBlock: ZUJKAS_clean_linker_0, # of connection points: 2
#     Edge 46, Type (0, 0), BuildingBlock: ZUJKAS_clean_linker_0, # of connection points: 2
#     Edge 47, Type (0, 0), BuildingBlock: ZUJKAS_clean_linker_0, # of connection points: 2
#     Edge 48, Type (0, 0), BuildingBlock: ZUJKAS_clean_linker_0, # of connection points: 2
#     Edge 49, Type (0, 0), BuildingBlock: ZUJKAS_clean_linker_0, # of connection points: 2
#     Edge 50, Type (0, 0), BuildingBlock: ZUJKAS_clean_linker_0, # of connection points: 2
#     Edge 51, Type (0, 0), BuildingBlock: ZUJKAS_clean_linker_0, # of connection points: 2
#     Edge 52, Type (0, 0), BuildingBlock: ZUJKAS_clean_linker_0, # of connection points: 2
#     Edge 53, Type (0, 0), BuildingBlock: ZUJKAS_clean_linker_0, # of connection points: 2
#     Edge 54, Type (0, 0), BuildingBlock: ZUJKAS_clean_linker_0, # of connection points: 2
#     Edge 55, Type (0, 0), BuildingBlock: ZUJKAS_clean_linker_0, # of connection points: 2
# Relax obj value: 0.175
# Max RMSD: 0.183
# Mean RMSD: 0.183
data_MOF--net-zfo--node1-XOMCOT_clean_sbu_0--edge1-ZUJKAS_clean_linker_0
_symmetry_space_group_name_H-M    P1
_symmetry_Int_Tables_number       1
_symmetry_cell_setting            triclinic
loop_
_symmetry_equiv_pos_as_xyz
'x, y, z'
_cell_length_a     43.225265
_cell_length_b     43.213551
_cell_length_c     74.25948
_cell_angle_alpha  90.000881
_cell_angle_beta   89.981744
_cell_angle_gamma 90.009415
loop_
_atom_site_label
_atom_site_type_symbol
_atom_site_fract_x
_atom_site_fract_y
_atom_site_fract_z
_atom_type_partial_charge
Co0 Co 0.07525 0.21669 0.15809 0.0
C1 C 0.14269 0.21167 0.15866 0.0
C2 C 0.12166 0.17371 0.17273 0.0
C3 C 0.15329 0.17173 0.17474 0.0
N4 N 0.11521 0.19875 0.16264 0.0
N5 N 0.16644 0.19577 0.16596 0.0
H6 H 0.145 0.23327 0.15142 0.0
H7 H 0.10458 0.15871 0.17883 0.0
C8 C 0.0367 0.16202 0.14741 0.0
O9 O 0.02546 0.17861 0.13409 0.0
N10 N 0.0349 0.23546 0.15407 0.0
C11 C 0.02915 0.26374 0.14709 0.0
C12 C 0.99812 0.26984 0.14826 0.0
C13 C 0.0072 0.22561 0.16035 0.0
N14 N 0.98429 0.24583 0.15652 0.0
C15 C 0.08655 0.2409 0.12241 0.0
C16 C 0.09708 0.18452 0.10601 0.0
C17 C 0.09636 0.21127 0.09538 0.0
C18 C 0.09175 0.23983 0.10387 0.0
C19 C 0.0914 0.18667 0.12449 0.0
N20 N 0.08406 0.21441 0.1323 0.0
H21 H 0.08552 0.26316 0.12881 0.0
H22 H 0.09301 0.1659 0.13252 0.0
H23 H 0.0462 0.28019 0.14264 0.0
H24 H 0.00391 0.20435 0.16779 0.0
O25 O 0.09207 0.2572 0.16322 0.0
O26 O 0.07143 0.22544 0.18345 0.0
O27 O 0.05647 0.17385 0.1582 0.0
C28 C 0.08511 0.25159 0.17995 0.0
H29 H 0.16553 0.15432 0.18241 0.0
H30 H 0.98682 0.29107 0.14418 0.0
H31 H 0.10155 0.16206 0.10008 0.0
H32 H 0.09277 0.26123 0.09629 0.0
Co33 Co 0.78027 0.08085 0.65405 0.0
C34 C 0.78985 0.14869 0.65667 0.0
C35 C 0.8265 0.12384 0.66945 0.0
C36 C 0.83073 0.15498 0.67261 0.0
N37 N 0.80133 0.11986 0.65894 0.0
N38 N 0.80758 0.17055 0.66452 0.0
H39 H 0.76746 0.15361 0.651 0.0
H40 H 0.83996 0.10537 0.67534 0.0
C41 C 0.84601 0.06662 0.64609 0.0
O42 O 0.84614 0.09151 0.63594 0.0
N43 N 0.75841 0.04267 0.64977 0.0
C44 C 0.73244 0.04043 0.63984 0.0
C45 C 0.72139 0.01076 0.64104 0.0
C46 C 0.76295 0.01431 0.65692 0.0
N47 N 0.74045 0.9944 0.6518 0.0
C48 C 0.76834 0.11131 0.61999 0.0
C49 C 0.79605 0.06659 0.59884 0.0
C50 C 0.78366 0.09289 0.59051 0.0
C51 C 0.76919 0.1152 0.60132 0.0
C52 C 0.79461 0.06362 0.61751 0.0
N53 N 0.78243 0.08662 0.62799 0.0
H54 H 0.7553 0.12759 0.62781 0.0
H55 H 0.80309 0.04252 0.62353 0.0
H56 H 0.72196 0.05933 0.6325 0.0
H57 H 0.78158 0.00869 0.66609 0.0
O58 O 0.74112 0.10075 0.65885 0.0
O59 O 0.77077 0.07801 0.67935 0.0
O60 O 0.8214 0.05826 0.65436 0.0
C61 C 0.74564 0.09335 0.67564 0.0
H62 H 0.84886 0.16519 0.6807 0.0
H63 H 0.70083 0.00188 0.63451 0.0
H64 H 0.80612 0.04804 0.59097 0.0
H65 H 0.75846 0.13546 0.59542 0.0
Co66 Co 0.92251 0.78175 0.16001 0.0
C67 C 0.85492 0.78694 0.16607 0.0
C68 C 0.87928 0.82503 0.17775 0.0
C69 C 0.84857 0.82732 0.18251 0.0
N70 N 0.88315 0.80025 0.16686 0.0
N71 N 0.83344 0.80315 0.17524 0.0
H72 H 0.85029 0.76479 0.16 0.0
H73 H 0.89774 0.8395 0.1828 0.0
C74 C 0.93077 0.8482 0.15169 0.0
O75 O 0.9042 0.84583 0.14318 0.0
N76 N 0.96126 0.76249 0.15391 0.0
C77 C 0.96424 0.73764 0.14312 0.0
C78 C 0.99489 0.72965 0.14228 0.0
C79 C 0.99003 0.76916 0.15974 0.0
N80 N 0.01112 0.74943 0.1527 0.0
C81 C 0.88891 0.7678 0.12719 0.0
C82 C 0.93038 0.79664 0.10436 0.0
C83 C 0.90488 0.7813 0.09693 0.0
C84 C 0.88392 0.76678 0.10859 0.0
C85 C 0.93446 0.79709 0.12295 0.0
N86 N 0.91331 0.78377 0.13427 0.0
H87 H 0.87409 0.75424 0.13568 0.0
H88 H 0.95531 0.80746 0.12822 0.0
H89 H 0.94529 0.72594 0.13648 0.0
H90 H 0.99534 0.7879 0.1689 0.0
O91 O 0.90577 0.74138 0.16521 0.0
O92 O 0.92901 0.77184 0.18511 0.0
O93 O 0.94238 0.82435 0.15943 0.0
C94 C 0.91468 0.74594 0.18173 0.0
H95 H 0.83853 0.84433 0.19148 0.0
H96 H 0.00437 0.71017 0.13496 0.0
H97 H 0.94738 0.8079 0.09588 0.0
H98 H 0.86459 0.7536 0.10337 0.0
Co99 Co 0.21269 0.92279 0.66351 0.0
C100 C 0.20506 0.85596 0.65961 0.0
C101 C 0.16467 0.87627 0.67156 0.0
C102 C 0.161 0.84459 0.67121 0.0
N103 N 0.1923 0.8832 0.66426 0.0
N104 N 0.18658 0.83182 0.6638 0.0
H105 H 0.22818 0.85394 0.65418 0.0
H106 H 0.14886 0.89289 0.67737 0.0
C107 C 0.16145 0.9651 0.65156 0.0
O108 O 0.18045 0.97819 0.64003 0.0
N109 N 0.23422 0.96249 0.66337 0.0
C110 C 0.2651 0.96634 0.66136 0.0
C111 C 0.27274 0.99651 0.66477 0.0
C112 C 0.22383 0.99057 0.66877 0.0
N113 N 0.2468 0.0117 0.66934 0.0
C114 C 0.24323 0.91903 0.62896 0.0
C115 C 0.19017 0.90921 0.60902 0.0
C116 C 0.21863 0.91108 0.60005 0.0
C117 C 0.24545 0.91566 0.61031 0.0
C118 C 0.18903 0.91272 0.62769 0.0
N119 N 0.21517 0.91902 0.63738 0.0
H120 H 0.26425 0.92063 0.63659 0.0
H121 H 0.16698 0.91008 0.63435 0.0
H122 H 0.28168 0.94828 0.65867 0.0
H123 H 0.20037 0.99537 0.67297 0.0
O124 O 0.25106 0.90286 0.67001 0.0
O125 O 0.21662 0.92159 0.6894 0.0
O126 O 0.17087 0.94352 0.66197 0.0
C127 C 0.24286 0.90759 0.68664 0.0
H128 H 0.14133 0.83202 0.67646 0.0
H129 H 0.29567 0.00654 0.66406 0.0
H130 H 0.16886 0.90528 0.60171 0.0
H131 H 0.26807 0.91592 0.60403 0.0
Co132 Co 0.57771 0.27964 0.84126 0.0
C133 C 0.64607 0.28611 0.8387 0.0
C134 C 0.6226 0.32395 0.82618 0.0
C135 C 0.65381 0.32711 0.82303 0.0
N136 N 0.61772 0.29874 0.83654 0.0
N137 N 0.66853 0.30322 0.83093 0.0
H138 H 0.65017 0.26351 0.84429 0.0
H139 H 0.6046 0.33834 0.82052 0.0
C140 C 0.56886 0.34531 0.85121 0.0
O141 O 0.59454 0.34203 0.8605 0.0
N142 N 0.53836 0.25989 0.84519 0.0
C143 C 0.53422 0.23394 0.85493 0.0
C144 C 0.50403 0.22464 0.85323 0.0
C145 C 0.51072 0.26609 0.83759 0.0
N146 N 0.48931 0.24471 0.84227 0.0
C147 C 0.60769 0.26251 0.87474 0.0
C148 C 0.5656 0.29188 0.89692 0.0
C149 C 0.59104 0.27698 0.90471 0.0
C150 C 0.61194 0.26159 0.89339 0.0
C151 C 0.56221 0.29212 0.87827 0.0
N152 N 0.58408 0.27914 0.8673 0.0
H153 H 0.62275 0.24885 0.86644 0.0
H154 H 0.54167 0.30255 0.87265 0.0
H155 H 0.55217 0.22222 0.86244 0.0
H156 H 0.5067 0.28503 0.82834 0.0
O157 O 0.59507 0.23987 0.83531 0.0
O158 O 0.57398 0.27238 0.8157 0.0
O159 O 0.55782 0.32218 0.8425 0.0
C160 C 0.58794 0.24616 0.81868 0.0
H161 H 0.66465 0.34516 0.81514 0.0
H162 H 0.49372 0.20452 0.85952 0.0
H163 H 0.54803 0.30275 0.90518 0.0
H164 H 0.63138 0.24889 0.89887 0.0
Co165 Co 0.72222 0.57011 0.34005 0.0
C166 C 0.7124 0.63652 0.33493 0.0
C167 C 0.67867 0.61 0.32038 0.0
C168 C 0.67499 0.6408 0.31606 0.0
N169 N 0.70214 0.60749 0.3322 0.0
N170 N 0.69637 0.65739 0.32515 0.0
H171 H 0.73247 0.64193 0.34305 0.0
H172 H 0.66612 0.59073 0.31465 0.0
C173 C 0.66942 0.52838 0.34995 0.0
O174 O 0.68509 0.51983 0.36428 0.0
N175 N 0.74306 0.5323 0.34742 0.0
C176 C 0.76908 0.52958 0.35733 0.0
C177 C 0.77796 0.49912 0.35772 0.0
C178 C 0.73738 0.50341 0.34125 0.0
N179 N 0.75796 0.48259 0.34767 0.0
C180 C 0.74008 0.59108 0.37529 0.0
C181 C 0.68135 0.59394 0.38982 0.0
C182 C 0.7069 0.59831 0.40117 0.0
C183 C 0.7365 0.59812 0.39349 0.0
C184 C 0.68609 0.58709 0.37162 0.0
N185 N 0.7153 0.58295 0.36495 0.0
H186 H 0.76287 0.59258 0.36953 0.0
H187 H 0.66613 0.58488 0.36299 0.0
H188 H 0.78219 0.54828 0.36307 0.0
H189 H 0.7187 0.49785 0.33212 0.0
O190 O 0.76184 0.5894 0.33612 0.0
O191 O 0.73579 0.56287 0.31556 0.0
O192 O 0.68111 0.54786 0.33891 0.0
C193 C 0.76001 0.57939 0.31965 0.0
H194 H 0.65841 0.65009 0.30658 0.0
H195 H 0.79845 0.49011 0.36425 0.0
H196 H 0.65795 0.59499 0.39498 0.0
H197 H 0.7568 0.60339 0.40147 0.0
Co198 Co 0.41898 0.71116 0.84547 0.0
C199 C 0.35204 0.70213 0.84595 0.0
C200 C 0.37461 0.66521 0.83176 0.0
C201 C 0.34306 0.66157 0.83006 0.0
N202 N 0.38004 0.69066 0.84171 0.0
N203 N 0.32895 0.68496 0.83891 0.0
H204 H 0.34878 0.72375 0.85305 0.0
H205 H 0.39225 0.65119 0.82544 0.0
C206 C 0.46283 0.65968 0.85471 0.0
O207 O 0.47508 0.6774 0.8672 0.0
N208 N 0.45811 0.73254 0.84876 0.0
C209 C 0.46238 0.76042 0.85659 0.0
C210 C 0.49192 0.77037 0.85326 0.0
C211 C 0.48516 0.72642 0.8403 0.0
N212 N 0.50619 0.74906 0.84301 0.0
C213 C 0.40473 0.73535 0.88067 0.0
C214 C 0.40446 0.67934 0.89854 0.0
C215 C 0.40062 0.70659 0.90854 0.0
C216 C 0.39998 0.73482 0.89926 0.0
C217 C 0.4091 0.681 0.87994 0.0
N218 N 0.41153 0.70893 0.8714 0.0
H219 H 0.40218 0.75706 0.87373 0.0
H220 H 0.41018 0.65964 0.87247 0.0
H221 H 0.44501 0.77405 0.86324 0.0
H222 H 0.48891 0.70659 0.83166 0.0
O223 O 0.39954 0.75048 0.84034 0.0
O224 O 0.42116 0.71962 0.82001 0.0
O225 O 0.44045 0.6697 0.8451 0.0
C226 C 0.4063 0.74506 0.82357 0.0
H227 H 0.3315 0.64363 0.82244 0.0
H228 H 0.50194 0.79202 0.85772 0.0
H229 H 0.40338 0.65687 0.90497 0.0
H230 H 0.3961 0.75645 0.90627 0.0
Co231 Co 0.28789 0.42731 0.33636 0.0
C232 C 0.29086 0.35985 0.33605 0.0
C233 C 0.33188 0.37922 0.32428 0.0
C234 C 0.33321 0.34741 0.32272 0.0
N235 N 0.30531 0.38681 0.33267 0.0
N236 N 0.3072 0.33545 0.32998 0.0
H237 H 0.26841 0.3582 0.34244 0.0
H238 H 0.3485 0.39559 0.31902 0.0
C239 C 0.34221 0.46671 0.34655 0.0
O240 O 0.32503 0.4794 0.35915 0.0
N241 N 0.26958 0.46801 0.33959 0.0
C242 C 0.24185 0.47448 0.34708 0.0
C243 C 0.23488 0.50498 0.34417 0.0
C244 C 0.27853 0.49476 0.33166 0.0
N245 N 0.25787 0.51772 0.33446 0.0
C246 C 0.26225 0.41555 0.3716 0.0
C247 C 0.31803 0.40907 0.38929 0.0
C248 C 0.29063 0.40819 0.39938 0.0
C249 C 0.26241 0.41065 0.39019 0.0
C250 C 0.31672 0.41399 0.37073 0.0
N251 N 0.28917 0.41956 0.36228 0.0
H252 H 0.24037 0.41526 0.36471 0.0
H253 H 0.33801 0.41287 0.36317 0.0
H254 H 0.22635 0.45813 0.3532 0.0
H255 H 0.299 0.49702 0.32337 0.0
O256 O 0.24725 0.411 0.331 0.0
O257 O 0.28002 0.43011 0.31083 0.0
O258 O 0.33089 0.4457 0.33638 0.0
C259 C 0.25348 0.41715 0.31425 0.0
H260 H 0.35114 0.33422 0.31604 0.0
H261 H 0.21408 0.51673 0.34855 0.0
H262 H 0.3403 0.4055 0.39563 0.0
H263 H 0.24057 0.40905 0.39727 0.0
Co264 Co 0.91813 0.78217 0.84053 0.0
C265 C 0.8502 0.7885 0.83721 0.0
C266 C 0.87364 0.826 0.82435 0.0
C267 C 0.84246 0.82851 0.82073 0.0
N268 N 0.87844 0.80137 0.83519 0.0
N269 N 0.82782 0.80481 0.82888 0.0
H270 H 0.84622 0.76603 0.84301 0.0
H271 H 0.89168 0.84027 0.81862 0.0
C272 C 0.92753 0.84825 0.84934 0.0
O273 O 0.90164 0.84574 0.85852 0.0
N274 N 0.957 0.76201 0.84523 0.0
C275 C 0.95973 0.73585 0.85496 0.0
C276 C 0.98984 0.7261 0.85429 0.0
C277 C 0.98553 0.76799 0.83872 0.0
N278 N 0.00599 0.74615 0.84405 0.0
C279 C 0.8874 0.76665 0.87405 0.0
C280 C 0.92986 0.7957 0.89612 0.0
C281 C 0.90467 0.78047 0.904 0.0
C282 C 0.88335 0.76564 0.89272 0.0
C283 C 0.93298 0.79616 0.87746 0.0
N284 N 0.91112 0.78303 0.86653 0.0
H285 H 0.87234 0.75285 0.86585 0.0
H286 H 0.95348 0.80663 0.8718 0.0
H287 H 0.94088 0.72435 0.86182 0.0
H288 H 0.99093 0.78713 0.82986 0.0
O289 O 0.9004 0.7423 0.8351 0.0
O290 O 0.92237 0.77351 0.81511 0.0
O291 O 0.93851 0.82454 0.84116 0.0
C292 C 0.90794 0.74765 0.81843 0.0
H293 H 0.83166 0.84582 0.8123 0.0
H294 H 0.99918 0.70573 0.86081 0.0
H295 H 0.94722 0.80707 0.9043 0.0
H296 H 0.86436 0.75235 0.89827 0.0
Co297 Co 0.21573 0.92528 0.34377 0.0
C298 C 0.21578 0.8575 0.33766 0.0
C299 C 0.17613 0.8791 0.32593 0.0
C300 C 0.17673 0.84863 0.32058 0.0
N301 N 0.20015 0.88457 0.33712 0.0
N302 N 0.20187 0.83517 0.32787 0.0
H303 H 0.23811 0.85463 0.34384 0.0
H304 H 0.16049 0.89656 0.32085 0.0
C305 C 0.14869 0.92869 0.352 0.0
O306 O 0.15269 0.90246 0.36067 0.0
N307 N 0.23214 0.96541 0.34971 0.0
C308 C 0.25684 0.97006 0.36041 0.0
C309 C 0.26271 0.00117 0.36129 0.0
C310 C 0.22342 0.99371 0.34398 0.0
N311 N 0.24173 0.01609 0.35101 0.0
C312 C 0.2326 0.89302 0.37659 0.0
C313 C 0.19947 0.93118 0.3994 0.0
C314 C 0.21634 0.90663 0.40679 0.0
C315 C 0.23339 0.88761 0.39516 0.0
C316 C 0.19948 0.93585 0.38085 0.0
N317 N 0.21473 0.91607 0.36953 0.0
H318 H 0.24745 0.87949 0.36809 0.0
H319 H 0.18771 0.95597 0.37563 0.0
H320 H 0.26991 0.95193 0.36697 0.0
H321 H 0.20427 0.99777 0.3349 0.0
O322 O 0.25727 0.91176 0.3382 0.0
O323 O 0.22422 0.9322 0.31861 0.0
O324 O 0.17184 0.94192 0.34445 0.0
C325 C 0.25121 0.91995 0.32171 0.0
H326 H 0.16117 0.83786 0.31103 0.0
H327 H 0.2816 0.0119 0.36853 0.0
H328 H 0.18712 0.94734 0.40794 0.0
H329 H 0.24748 0.8689 0.40035 0.0
Co330 Co 0.07963 0.21336 0.8403 0.0
C331 C 0.14619 0.20451 0.83696 0.0
C332 C 0.12176 0.16823 0.82328 0.0
C333 C 0.15297 0.16516 0.81972 0.0
N334 N 0.11772 0.19293 0.83409 0.0
N335 N 0.16812 0.18828 0.82818 0.0
H336 H 0.15056 0.22528 0.84468 0.0
H337 H 0.10329 0.15457 0.81752 0.0
C338 C 0.03539 0.16192 0.84913 0.0
O339 O 0.02446 0.17888 0.86238 0.0
N340 N 0.04144 0.23477 0.84614 0.0
C341 C 0.03815 0.26024 0.85649 0.0
C342 C 0.00841 0.27095 0.85501 0.0
C343 C 0.01362 0.23091 0.83811 0.0
N344 N 0.99302 0.25254 0.84346 0.0
C345 C 0.10012 0.23328 0.8753 0.0
C346 C 0.09725 0.17623 0.89196 0.0
C347 C 0.10405 0.2024 0.90235 0.0
C348 C 0.10653 0.23105 0.89368 0.0
C349 C 0.09147 0.17951 0.87354 0.0
N350 N 0.09031 0.20815 0.86572 0.0
H351 H 0.10318 0.25538 0.86882 0.0
H352 H 0.08826 0.15881 0.86567 0.0
H353 H 0.05615 0.27162 0.86396 0.0
H354 H 0.00887 0.21331 0.82811 0.0
O355 O 0.09916 0.25284 0.83584 0.0
O356 O 0.07441 0.22506 0.81533 0.0
O357 O 0.05735 0.17224 0.83928 0.0
C358 C 0.09051 0.24965 0.81918 0.0
H359 H 0.16345 0.14846 0.81073 0.0
H360 H 0.99893 0.29105 0.86174 0.0
H361 H 0.09673 0.1534 0.89797 0.0
H362 H 0.11275 0.25173 0.90109 0.0
Co363 Co 0.77932 0.06866 0.33492 0.0
C364 C 0.78712 0.13571 0.33284 0.0
C365 C 0.82487 0.11245 0.3198 0.0
C366 C 0.82865 0.14396 0.31766 0.0
N367 N 0.79887 0.10751 0.32937 0.0
N368 N 0.80472 0.15843 0.32576 0.0
H369 H 0.7658 0.13944 0.34016 0.0
H370 H 0.83945 0.0945 0.31426 0.0
C371 C 0.83146 0.02686 0.34585 0.0
O372 O 0.81381 0.016 0.3588 0.0
N373 N 0.75886 0.02959 0.34015 0.0
C374 C 0.73256 0.02544 0.34963 0.0
C375 C 0.7242 0.9949 0.34888 0.0
C376 C 0.76533 0.00145 0.33309 0.0
N377 N 0.74488 0.97971 0.33859 0.0
C378 C 0.75512 0.08774 0.36923 0.0
C379 C 0.8107 0.08872 0.38749 0.0
C380 C 0.78323 0.09321 0.39718 0.0
C381 C 0.75528 0.09388 0.38766 0.0
C382 C 0.80939 0.08276 0.36901 0.0
N383 N 0.78159 0.07959 0.36041 0.0
H384 H 0.73355 0.08986 0.36208 0.0
H385 H 0.83088 0.0808 0.36173 0.0
H386 H 0.71902 0.04323 0.35595 0.0
H387 H 0.78459 0.99704 0.32414 0.0
O388 O 0.73954 0.08644 0.32927 0.0
O389 O 0.77041 0.06304 0.30963 0.0
O390 O 0.82128 0.04799 0.33535 0.0
C391 C 0.74467 0.07769 0.31281 0.0
H392 H 0.84687 0.15526 0.31012 0.0
H393 H 0.70366 0.98494 0.35487 0.0
H394 H 0.833 0.08914 0.39413 0.0
H395 H 0.73367 0.0992 0.39437 0.0
Co396 Co 0.42205 0.72052 0.16436 0.0
C397 C 0.35542 0.70954 0.16547 0.0
C398 C 0.37977 0.67525 0.18085 0.0
C399 C 0.34841 0.67054 0.18296 0.0
N400 N 0.38393 0.69969 0.16988 0.0
N401 N 0.3332 0.69223 0.17331 0.0
H402 H 0.35115 0.73001 0.15746 0.0
H403 H 0.39815 0.66253 0.18739 0.0
C404 C 0.46411 0.66878 0.15325 0.0
O405 O 0.47355 0.68607 0.13976 0.0
N406 N 0.46051 0.74229 0.15933 0.0
C407 C 0.46348 0.77091 0.15224 0.0
C408 C 0.49393 0.77963 0.15285 0.0
C409 C 0.48927 0.73482 0.16506 0.0
N410 N 0.51021 0.75688 0.16081 0.0
C411 C 0.4066 0.74293 0.12882 0.0
C412 C 0.40128 0.68552 0.11279 0.0
C413 C 0.39909 0.71201 0.10199 0.0
C414 C 0.40085 0.74104 0.11035 0.0
C415 C 0.40693 0.68854 0.13122 0.0
N416 N 0.41195 0.71696 0.13879 0.0
H417 H 0.40607 0.76533 0.13508 0.0
H418 H 0.40728 0.66787 0.13938 0.0
H419 H 0.44486 0.7858 0.14808 0.0
H420 H 0.49467 0.71392 0.17241 0.0
O421 O 0.40254 0.75977 0.16955 0.0
O422 O 0.42683 0.73026 0.18956 0.0
O423 O 0.44401 0.67921 0.16433 0.0
C424 C 0.41128 0.75535 0.18611 0.0
H425 H 0.33771 0.65292 0.19123 0.0
H426 H 0.5031 0.80174 0.14856 0.0
H427 H 0.39843 0.66262 0.10709 0.0
H428 H 0.39826 0.76221 0.10269 0.0
Co429 Co 0.28327 0.42158 0.65608 0.0
C430 C 0.29288 0.3548 0.65566 0.0
C431 C 0.33029 0.3776 0.66924 0.0
C432 C 0.33413 0.34606 0.67091 0.0
N433 N 0.3044 0.38288 0.65967 0.0
N434 N 0.31036 0.33174 0.66249 0.0
H435 H 0.27092 0.35156 0.64895 0.0
H436 H 0.34441 0.39532 0.67539 0.0
C437 C 0.33542 0.46379 0.64507 0.0
O438 O 0.31812 0.47477 0.632 0.0
N439 N 0.26102 0.46044 0.65301 0.0
C440 C 0.23065 0.46327 0.64895 0.0
C441 C 0.22178 0.49348 0.651 0.0
C442 C 0.26975 0.48917 0.65822 0.0
N443 N 0.24635 0.50971 0.65678 0.0
C444 C 0.25831 0.41231 0.62043 0.0
C445 C 0.31451 0.40424 0.60333 0.0
C446 C 0.28745 0.40461 0.59295 0.0
C447 C 0.25901 0.40798 0.60181 0.0
C448 C 0.3127 0.40852 0.62195 0.0
N449 N 0.28499 0.4144 0.63016 0.0
H450 H 0.2362 0.41336 0.62698 0.0
H451 H 0.33373 0.40713 0.62976 0.0
H452 H 0.21502 0.44453 0.64595 0.0
H453 H 0.29209 0.49477 0.6639 0.0
O454 O 0.24463 0.40111 0.66157 0.0
O455 O 0.27517 0.42374 0.68163 0.0
O456 O 0.32464 0.44341 0.65586 0.0
C457 C 0.25006 0.4081 0.67833 0.0
H458 H 0.35241 0.33472 0.67835 0.0
H459 H 0.19879 0.50271 0.64883 0.0
H460 H 0.33689 0.40036 0.59717 0.0
H461 H 0.23742 0.40769 0.59441 0.0
Co462 Co 0.57816 0.28794 0.1607 0.0
C463 C 0.64574 0.28872 0.167 0.0
C464 C 0.62423 0.32921 0.17778 0.0
C465 C 0.65489 0.32923 0.18286 0.0
N466 N 0.61864 0.30429 0.16726 0.0
N467 N 0.66819 0.30354 0.17617 0.0
H468 H 0.64868 0.2659 0.16142 0.0
H469 H 0.60687 0.34524 0.18254 0.0
C470 C 0.57269 0.35481 0.15233 0.0
O471 O 0.59888 0.35151 0.14353 0.0
N472 N 0.53837 0.27061 0.15486 0.0
C473 C 0.53442 0.24574 0.14416 0.0
C474 C 0.50398 0.23705 0.14473 0.0
C475 C 0.51026 0.27681 0.16189 0.0
N476 N 0.48886 0.25642 0.15591 0.0
C477 C 0.611 0.2725 0.12793 0.0
C478 C 0.57103 0.3031 0.105 0.0
C479 C 0.59614 0.28697 0.09765 0.0
C480 C 0.61619 0.27138 0.10937 0.0
C481 C 0.56669 0.30356 0.12359 0.0
N482 N 0.58717 0.28936 0.13494 0.0
H483 H 0.62536 0.25856 0.13647 0.0
H484 H 0.5462 0.31468 0.12883 0.0
H485 H 0.55272 0.23413 0.13688 0.0
H486 H 0.50587 0.29479 0.17171 0.0
O487 O 0.59251 0.24663 0.16587 0.0
O488 O 0.57172 0.2788 0.18587 0.0
O489 O 0.56043 0.3314 0.16017 0.0
C490 C 0.58419 0.25201 0.18241 0.0
H491 H 0.66599 0.3457 0.19173 0.0
H492 H 0.49375 0.21767 0.13766 0.0
H493 H 0.55418 0.31438 0.09644 0.0
H494 H 0.6355 0.25804 0.10426 0.0
Co495 Co 0.71221 0.58113 0.65599 0.0
C496 C 0.70126 0.64778 0.65758 0.0
C497 C 0.66748 0.62325 0.67325 0.0
C498 C 0.66288 0.65461 0.67551 0.0
N499 N 0.69153 0.61918 0.66199 0.0
N500 N 0.68426 0.66997 0.66569 0.0
H501 H 0.72145 0.65212 0.64935 0.0
H502 H 0.65497 0.60481 0.67987 0.0
C503 C 0.66074 0.53692 0.64694 0.0
O504 O 0.67801 0.52509 0.63411 0.0
N505 N 0.73391 0.54289 0.65036 0.0
C506 C 0.76002 0.53992 0.64053 0.0
C507 C 0.77107 0.51035 0.64222 0.0
C508 C 0.73001 0.51497 0.65833 0.0
N509 N 0.75227 0.49468 0.65342 0.0
C510 C 0.7325 0.60056 0.62083 0.0
C511 C 0.67523 0.5989 0.60441 0.0
C512 C 0.7015 0.60424 0.5938 0.0
C513 C 0.73031 0.60619 0.60237 0.0
C514 C 0.67857 0.59337 0.62284 0.0
N515 N 0.70725 0.59158 0.63055 0.0
H516 H 0.75459 0.60372 0.62728 0.0
H517 H 0.6579 0.59071 0.63081 0.0
H518 H 0.77179 0.55809 0.63342 0.0
H519 H 0.71204 0.50999 0.66806 0.0
O520 O 0.75149 0.60094 0.66065 0.0
O521 O 0.72346 0.57595 0.68098 0.0
O522 O 0.6711 0.55892 0.65675 0.0
C523 C 0.7481 0.59206 0.67727 0.0
H524 H 0.64551 0.66519 0.68401 0.0
H525 H 0.79177 0.50123 0.63596 0.0
H526 H 0.65233 0.5983 0.59851 0.0
H527 H 0.751 0.61211 0.59489 0.0
H528 H 0.05902 0.11966 0.17161 0.0
H529 H 0.04676 0.06446 0.17343 0.0
H530 H 0.98283 0.07426 0.12924 0.0
H531 H 0.99525 0.12929 0.12712 0.0
H532 H 0.991 0.03475 0.17953 0.0
H533 H 0.0376 0.0031 0.11255 0.0
H534 H 0.04593 0.03973 0.1232 0.0
H535 H 0.00995 0.03401 0.11147 0.0
C536 C 0.04235 0.11009 0.16226 0.0
C537 C 0.02828 0.12889 0.14912 0.0
C538 C 0.03539 0.07852 0.16333 0.0
C539 C 0.01436 0.06511 0.15124 0.0
C540 C -0.00028 0.08395 0.13841 0.0
H541 H 0.91555 0.89966 0.13264 0.0
H542 H 0.93964 0.95054 0.13373 0.0
C543 C 0.00669 0.11548 0.1373 0.0
C544 C 0.00721 0.03155 0.15218 0.0
H545 H 0.0044 0.96587 0.12665 0.0
C546 C 0.99435 0.01954 0.16808 0.0
C547 C 0.01188 0.01168 0.13727 0.0
C548 C 0.02739 0.02268 0.12022 0.0
C549 C 0.98448 0.98859 0.16912 0.0
C550 C 0.98785 0.96918 0.15392 0.0
C551 C 0.0018 0.98086 0.13827 0.0
C552 C 0.9743 0.93771 0.15334 0.0
C553 C 0.96918 0.9772 0.18614 0.0
C554 C 0.9861 0.91343 0.16388 0.0
C555 C 0.97237 0.88402 0.16325 0.0
C556 C 0.94658 0.87861 0.15212 0.0
C557 C 0.93524 0.90299 0.14145 0.0
C558 C 0.94902 0.93213 0.14201 0.0
H559 H 0.96488 0.99621 0.19589 0.0
H560 H 0.94682 0.9658 0.18293 0.0
H561 H 0.98427 0.95974 0.19269 0.0
H562 H 0.00585 0.91724 0.17257 0.0
H563 H 0.98168 0.8657 0.1716 0.0
H564 H 0.11206 0.9279 0.65833 0.0
H565 H 0.05723 0.94162 0.65726 0.0
H566 H 0.08173 0.03629 0.64533 0.0
H567 H 0.13658 0.02207 0.64526 0.0
H568 H 0.02233 0.97664 0.67576 0.0
H569 H 0.02125 0.0232 0.60648 0.0
H570 H 0.05442 0.00346 0.61561 0.0
H571 H 0.04819 0.04397 0.62023 0.0
C572 C 0.10568 0.95162 0.65543 0.0
C573 C 0.12847 0.97391 0.65173 0.0
C574 C 0.07433 0.95946 0.65481 0.0
C575 C 0.06512 0.98988 0.65079 0.0
C576 C 0.08804 0.01242 0.64777 0.0
H577 H 0.88376 0.06594 0.67517 0.0
H578 H 0.93629 0.04492 0.67668 0.0
C579 C 0.1194 0.00438 0.6479 0.0
C580 C 0.03162 0.99797 0.65007 0.0
H581 H 0.97723 0.03501 0.62467 0.0
C582 C 0.01243 0.98914 0.66448 0.0
C583 C 0.01834 0.01367 0.63521 0.0
C584 C 0.03658 0.02128 0.61844 0.0
C585 C 0.98066 0.99606 0.66462 0.0
C586 C 0.96786 0.01357 0.65031 0.0
C587 C 0.98693 0.02188 0.63576 0.0
C588 C 0.93499 0.024 0.65015 0.0
C589 C 0.96118 0.98383 0.67991 0.0
C590 C 0.91674 0.0199 0.63464 0.0
C591 C 0.8871 0.03274 0.63361 0.0
C592 C 0.87494 0.04928 0.64821 0.0
C593 C 0.89254 0.0526 0.66393 0.0
C594 C 0.92249 0.04042 0.66481 0.0
H595 H 0.97131 0.96236 0.68566 0.0
H596 H 0.96037 0.00132 0.69084 0.0
H597 H 0.93717 0.97874 0.67549 0.0
H598 H 0.92577 0.00747 0.62311 0.0
H599 H 0.87395 0.03038 0.62126 0.0
H600 H 0.44074 0.61611 0.83123 0.0
H601 H 0.45443 0.56128 0.82969 0.0
H602 H 0.52053 0.57409 0.87252 0.0
H603 H 0.50676 0.6289 0.87433 0.0
H604 H 0.51146 0.5327 0.82313 0.0
H605 H 0.4666 0.50265 0.89086 0.0
H606 H 0.45712 0.53853 0.87969 0.0
H607 H 0.49363 0.53419 0.89103 0.0
C608 C 0.45823 0.60733 0.84033 0.0
C609 C 0.47248 0.62689 0.85302 0.0
C610 C 0.46601 0.57596 0.83941 0.0
C611 C 0.48805 0.56351 0.85121 0.0
C612 C 0.50294 0.58311 0.86355 0.0
H613 H 0.58382 0.3958 0.8712 0.0
H614 H 0.56095 0.4472 0.87012 0.0
C615 C 0.49519 0.61449 0.86449 0.0
C616 C 0.49565 0.53005 0.85058 0.0
H617 H 0.49828 0.4648 0.87645 0.0
C618 C 0.50826 0.51772 0.8347 0.0
C619 C 0.49117 0.51053 0.86565 0.0
C620 C 0.47611 0.52202 0.88272 0.0
C621 C 0.51792 0.4867 0.83378 0.0
C622 C 0.51445 0.46751 0.84908 0.0
C623 C 0.50092 0.4796 0.86475 0.0
C624 C 0.52723 0.4357 0.84968 0.0
C625 C 0.53299 0.47502 0.81676 0.0
C626 C 0.51552 0.41195 0.8387 0.0
C627 C 0.52859 0.38225 0.83929 0.0
C628 C 0.55358 0.37598 0.85087 0.0
C629 C 0.56474 0.39978 0.86204 0.0
C630 C 0.55166 0.42924 0.86148 0.0
H631 H 0.53844 0.49409 0.80724 0.0
H632 H 0.55467 0.46239 0.81995 0.0
H633 H 0.51711 0.45862 0.80992 0.0
H634 H 0.49635 0.41639 0.82968 0.0
H635 H 0.51942 0.36439 0.83057 0.0
H636 H 0.6303 0.54083 0.32186 0.0
H637 H 0.57501 0.52942 0.31988 0.0
H638 H 0.57854 0.48445 0.37167 0.0
H639 H 0.63396 0.49519 0.37363 0.0
H640 H 0.54348 0.45218 0.34734 0.0
H641 H 0.50909 0.57588 0.34806 0.0
H642 H 0.53541 0.56607 0.33025 0.0
H643 H 0.54785 0.56328 0.3533 0.0
C644 C 0.61939 0.52833 0.33279 0.0
C645 C 0.63655 0.51915 0.34798 0.0
C646 C 0.58771 0.52202 0.33169 0.0
C647 C 0.57249 0.5067 0.34581 0.0
C648 C 0.58977 0.49651 0.36067 0.0
H649 H 0.37605 0.5038 0.36903 0.0
H650 H 0.43184 0.51309 0.36835 0.0
C651 C 0.62148 0.50266 0.36176 0.0
C652 C 0.53852 0.50161 0.34525 0.0
H653 H 0.46917 0.53933 0.34289 0.0
C654 C 0.52721 0.47121 0.34636 0.0
C655 C 0.51732 0.52652 0.34425 0.0
C656 C 0.52794 0.5598 0.34408 0.0
C657 C 0.4953 0.46502 0.34635 0.0
C658 C 0.47412 0.48988 0.34482 0.0
C659 C 0.48543 0.52029 0.34386 0.0
C660 C 0.44012 0.4849 0.34475 0.0
C661 C 0.48459 0.43198 0.34845 0.0
C662 C 0.4261 0.46654 0.33146 0.0
C663 C 0.39421 0.46106 0.33186 0.0
C664 C 0.37565 0.47412 0.34545 0.0
C665 C 0.38963 0.49333 0.35839 0.0
C666 C 0.42154 0.49866 0.35803 0.0
H667 H 0.50299 0.41703 0.35424 0.0
H668 H 0.46384 0.43058 0.35724 0.0
H669 H 0.47839 0.42254 0.33503 0.0
H670 H 0.43984 0.45632 0.32082 0.0
H671 H 0.38418 0.44639 0.32158 0.0
H672 H 0.05648 0.11861 0.8251 0.0
H673 H 0.04228 0.06392 0.82336 0.0
H674 H 0.97734 0.0765 0.86683 0.0
H675 H 0.99162 0.13113 0.86884 0.0
H676 H 0.01724 0.02589 0.87151 0.0
H677 H 0.96303 0.02417 0.80361 0.0
H678 H 0.00128 0.04037 0.80464 0.0
H679 H 0.96989 0.05963 0.81584 0.0
C680 C 0.03894 0.10986 0.83419 0.0
C681 C 0.02519 0.12932 0.84713 0.0
C682 C 0.03076 0.07858 0.83311 0.0
C683 C 0.00854 0.0662 0.84485 0.0
C684 C 0.99451 0.08562 0.85761 0.0
H685 H 0.91411 0.89923 0.86928 0.0
H686 H 0.93756 0.95032 0.86757 0.0
C687 C 0.00266 0.11687 0.85871 0.0
C688 C 0.00077 0.03274 0.84444 0.0
H689 H 0.9676 0.97624 0.81866 0.0
C690 C 0.0065 0.01502 0.85993 0.0
C691 C 0.98706 0.01851 0.82924 0.0
C692 C 0.97968 0.03661 0.81241 0.0
C693 C 0.99838 0.98361 0.86076 0.0
C694 C 0.98374 0.96964 0.8458 0.0
C695 C 0.97893 0.98702 0.83008 0.0
C696 C 0.97058 0.938 0.8469 0.0
C697 C 0.00531 0.96567 0.87771 0.0
C698 C 0.98111 0.9141 0.83563 0.0
C699 C 0.96768 0.88456 0.83658 0.0
C700 C 0.94324 0.87872 0.84862 0.0
C701 C 0.93288 0.90283 0.85984 0.0
C702 C 0.94637 0.93209 0.85897 0.0
H703 H 0.02415 0.97665 0.88563 0.0
H704 H 0.98428 0.96503 0.88628 0.0
H705 H 0.01202 0.94146 0.87455 0.0
H706 H -0.00034 0.9183 0.82614 0.0
H707 H 0.97607 0.86652 0.82771 0.0
H708 H 0.12898 0.97802 0.33157 0.0
H709 H 0.07581 0.99714 0.32834 0.0
H710 H 0.04417 0.9283 0.36615 0.0
H711 H 0.09677 0.90882 0.36922 0.0
H712 H 0.00907 0.93007 0.33522 0.0
H713 H 0.02413 0.04825 0.36355 0.0
H714 H 0.04984 0.03838 0.34542 0.0
H715 H 0.05263 0.01815 0.36649 0.0
C716 C 0.11072 0.96716 0.3393 0.0
C717 C 0.11713 0.94187 0.35064 0.0
C718 C 0.08037 0.97819 0.3375 0.0
C719 C 0.05605 0.96431 0.34713 0.0
C720 C 0.06255 0.93935 0.35859 0.0
H721 H 0.86035 0.9811 0.36493 0.0
H722 H 0.91488 0.96624 0.36373 0.0
C723 C 0.09271 0.92827 0.36033 0.0
C724 C 0.02355 0.97475 0.34495 0.0
H725 H 0.97466 0.03561 0.35222 0.0
C726 C 0.00157 0.95319 0.33889 0.0
C727 C 0.01383 0.00495 0.34966 0.0
C728 C 0.03623 0.02876 0.35679 0.0
C729 C 0.9701 0.96086 0.33762 0.0
C730 C 0.96028 0.99078 0.34275 0.0
C731 C 0.98231 0.01265 0.34833 0.0
C732 C 0.92709 0.99941 0.34308 0.0
C733 C 0.94761 0.93689 0.33077 0.0
C734 C 0.91596 0.02325 0.33203 0.0
C735 C 0.88476 0.03181 0.33267 0.0
C736 C 0.8642 0.01689 0.34455 0.0
C737 C 0.87549 0.99301 0.3556 0.0
C738 C 0.90664 0.98438 0.35488 0.0
H739 H 0.95951 0.91835 0.32307 0.0
H740 H 0.9357 0.92598 0.34239 0.0
H741 H 0.92976 0.94764 0.32202 0.0
H742 H 0.93143 0.03522 0.3229 0.0
H743 H 0.8769 0.05038 0.32403 0.0
H744 H 0.58983 0.40659 0.13401 0.0
H745 H 0.56734 0.45821 0.13581 0.0
H746 H 0.5001 0.42543 0.17421 0.0
H747 H 0.52259 0.37328 0.17254 0.0
H748 H 0.50332 0.47557 0.12883 0.0
H749 H 0.54245 0.50236 0.19858 0.0
H750 H 0.55974 0.4719 0.1853 0.0
H751 H 0.52218 0.46647 0.19507 0.0
C752 C 0.57026 0.41022 0.14287 0.0
C753 C 0.5581 0.38579 0.15321 0.0
C754 C 0.55742 0.43978 0.14384 0.0
C755 C 0.53231 0.44569 0.15527 0.0
C756 C 0.51976 0.42138 0.16548 0.0
H757 H 0.44398 0.62428 0.1768 0.0
H758 H 0.45871 0.56962 0.1776 0.0
C759 C 0.53253 0.3916 0.16444 0.0
C760 C 0.51944 0.47742 0.15622 0.0
H761 H 0.5153 0.54138 0.18313 0.0
C762 C 0.50573 0.48993 0.14073 0.0
C763 C 0.52254 0.49598 0.17179 0.0
C764 C 0.53767 0.48373 0.18865 0.0
C765 C 0.49531 0.52068 0.14031 0.0
C766 C 0.49943 0.53964 0.15567 0.0
C767 C 0.51235 0.52686 0.17134 0.0
C768 C 0.4912 0.57299 0.15553 0.0
C769 C 0.47982 0.53249 0.12345 0.0
C770 C 0.50514 0.59321 0.14314 0.0
C771 C 0.49673 0.62443 0.14261 0.0
C772 C 0.47442 0.63614 0.15458 0.0
C773 C 0.4612 0.61603 0.16736 0.0
C774 C 0.46956 0.58476 0.16784 0.0
H775 H 0.47027 0.51323 0.11523 0.0
H776 H 0.46079 0.5488 0.12672 0.0
H777 H 0.49712 0.5449 0.11509 0.0
H778 H 0.52248 0.58479 0.13382 0.0
H779 H 0.50757 0.63929 0.1327 0.0
H780 H 0.3812 0.43527 0.66422 0.0
H781 H 0.43596 0.44854 0.66527 0.0
H782 H 0.41929 0.52665 0.63044 0.0
H783 H 0.3644 0.51281 0.62881 0.0
H784 H 0.46875 0.49569 0.61968 0.0
H785 H 0.47878 0.51507 0.69307 0.0
H786 H 0.46397 0.4773 0.68804 0.0
H787 H 0.44189 0.51107 0.68197 0.0
C788 C 0.38905 0.45548 0.65692 0.0
C789 C 0.36834 0.47309 0.64651 0.0
C790 C 0.42042 0.46315 0.65763 0.0
C791 C 0.43175 0.48898 0.64825 0.0
C792 C 0.4111 0.50671 0.63788 0.0
H793 H 0.61458 0.56799 0.66443 0.0
H794 H 0.55936 0.55628 0.66445 0.0
C795 C 0.37972 0.4988 0.63698 0.0
C796 C 0.46531 0.49663 0.64861 0.0
H797 H 0.52628 0.50964 0.67688 0.0
C798 C 0.48128 0.49896 0.63219 0.0
C799 C 0.48165 0.50132 0.66491 0.0
C800 C 0.46562 0.50139 0.68297 0.0
C801 C 0.51314 0.50534 0.63162 0.0
C802 C 0.52977 0.50852 0.64795 0.0
C803 C 0.51369 0.50672 0.66436 0.0
C804 C 0.56362 0.51476 0.64833 0.0
C805 C 0.52843 0.50931 0.61349 0.0
C806 C 0.58463 0.49496 0.63961 0.0
C807 C 0.61629 0.5018 0.63941 0.0
C808 C 0.62763 0.52827 0.64822 0.0
C809 C 0.60668 0.54737 0.65754 0.0
C810 C 0.57504 0.54073 0.65754 0.0
H811 H 0.51134 0.51536 0.60289 0.0
H812 H 0.54642 0.52764 0.6139 0.0
H813 H 0.53961 0.48722 0.60953 0.0
H814 H 0.57654 0.47426 0.63288 0.0
H815 H 0.63185 0.48646 0.63227 0.0
H816 H 0.14009 0.17885 0.07647 0.0
H817 H 0.14659 0.17648 0.04369 0.0
H818 H 0.06761 0.23643 0.03696 0.0
H819 H 0.06159 0.23951 0.06963 0.0
H820 H 0.10984 0.15527 0.01793 0.0
H821 H 0.12961 0.27996 0.00603 0.0
H822 H 0.1299 0.26335 0.02831 0.0
H823 H 0.09385 0.27341 0.01763 0.0
C824 C 0.12421 0.19157 0.06796 0.0
C825 C 0.10051 0.2096 0.07558 0.0
C826 C 0.12797 0.19026 0.04926 0.0
C827 C 0.10801 0.20682 0.03785 0.0
C828 C 0.08393 0.22427 0.04547 0.0
H829 H 0.06675 0.17226 0.92612 0.0
H830 H 0.07047 0.17175 0.95896 0.0
C831 C 0.08041 0.22591 0.06414 0.0
C832 C 0.11165 0.2051 0.01798 0.0
H833 H 0.1162 0.24966 0.98013 0.0
C834 C 0.11158 0.1759 0.00968 0.0
C835 C 0.11457 0.23195 0.00719 0.0
C836 C 0.11734 0.26389 0.01527 0.0
C837 C 0.11321 0.17288 0.99087 0.0
C838 C 0.114 0.19984 0.98003 0.0
C839 C 0.11519 0.22897 0.98838 0.0
C840 C 0.11278 0.19855 0.96004 0.0
C841 C 0.11436 0.1408 0.98286 0.0
C842 C 0.13489 0.21438 0.94967 0.0
C843 C 0.13246 0.21517 0.93089 0.0
C844 C 0.10797 0.19998 0.92214 0.0
C845 C 0.08616 0.18372 0.9325 0.0
C846 C 0.08836 0.18329 0.95128 0.0
H847 H 0.12424 0.12386 0.99254 0.0
H848 H 0.0905 0.13315 0.9796 0.0
H849 H 0.12838 0.14029 0.97033 0.0
H850 H 0.15387 0.22644 0.95611 0.0
H851 H 0.14967 0.22777 0.92322 0.0
H852 H 0.74278 0.06785 0.42116 0.0
H853 H 0.74361 0.07157 0.45394 0.0
H854 H 0.82563 0.1282 0.45123 0.0
H855 H 0.82445 0.12544 0.41828 0.0
H856 H 0.79124 0.05158 0.47637 0.0
H857 H 0.76806 0.17721 0.48506 0.0
H858 H 0.76083 0.15709 0.46416 0.0
H859 H 0.79957 0.1679 0.47022 0.0
C860 C 0.76068 0.08161 0.42749 0.0
C861 C 0.78345 0.0965 0.41709 0.0
C862 C 0.76123 0.08351 0.44623 0.0
C863 C 0.78447 0.10041 0.45498 0.0
C864 C 0.80721 0.11543 0.4447 0.0
H865 H 0.83216 0.07999 0.56815 0.0
H866 H 0.83328 0.08279 0.53525 0.0
C867 C 0.80669 0.11355 0.4259 0.0
C868 C 0.7855 0.101 0.47489 0.0
H869 H 0.78033 0.14874 0.5114 0.0
C870 C 0.78889 0.07281 0.48404 0.0
C871 C 0.78211 0.12872 0.48481 0.0
C872 C 0.77717 0.15946 0.47562 0.0
C873 C 0.78909 0.07157 0.5029 0.0
C874 C 0.7863 0.09934 0.51283 0.0
C875 C 0.78273 0.12754 0.5037 0.0
C876 C 0.78625 0.09935 0.53275 0.0
C877 C 0.79159 0.04047 0.51205 0.0
C878 C 0.75973 0.10858 0.54221 0.0
C879 C 0.75899 0.10698 0.561 0.0
C880 C 0.78485 0.09622 0.57063 0.0
C881 C 0.81169 0.08783 0.56109 0.0
C882 C 0.8124 0.08947 0.54232 0.0
H883 H 0.78633 0.02113 0.50267 0.0
H884 H 0.81555 0.03728 0.51709 0.0
H885 H 0.77562 0.03903 0.52373 0.0
H886 H 0.73933 0.1163 0.53502 0.0
H887 H 0.73788 0.11334 0.56792 0.0
H888 H 0.85186 0.78687 0.9241 0.0
H889 H 0.84734 0.78676 0.95704 0.0
H890 H 0.94548 0.77078 0.96161 0.0
H891 H 0.95019 0.77057 0.92884 0.0
H892 H 0.86485 0.74028 0.98285 0.0
H893 H 0.93023 0.84971 0.9917 0.0
H894 H 0.91447 0.83784 0.97027 0.0
H895 H 0.95007 0.82136 0.97832 0.0
C896 C 0.87241 0.78308 0.93214 0.0
C897 C 0.90145 0.77915 0.92388 0.0
C898 C 0.8698 0.78312 0.95092 0.0
C899 C 0.89617 0.77934 0.96169 0.0
C900 C 0.92498 0.77445 0.9535 0.0
H901 H 0.94981 0.77033 0.07191 0.0
H902 H 0.94456 0.76961 0.0392 0.0
C903 C 0.92762 0.77442 0.93478 0.0
C904 C 0.89389 0.78069 0.98154 0.0
H905 H 0.92162 0.8196 0.0181 0.0
C906 C 0.87692 0.75779 0.9906 0.0
C907 C 0.90957 0.80369 0.99154 0.0
C908 C 0.92688 0.82974 0.98248 0.0
C909 C 0.8764 0.75649 0.00951 0.0
C910 C 0.89295 0.77892 0.01947 0.0
C911 C 0.90911 0.80234 0.01038 0.0
C912 C 0.8952 0.77781 0.03933 0.0
C913 C 0.85921 0.73051 0.01868 0.0
C914 C 0.8691 0.78259 0.05022 0.0
C915 C 0.87205 0.7832 0.06899 0.0
C916 C 0.9012 0.77929 0.0771 0.0
C917 C 0.92714 0.77401 0.06609 0.0
C918 C 0.92417 0.77339 0.0474 0.0
H919 H 0.85251 0.71197 0.00908 0.0
H920 H 0.87354 0.72021 0.02954 0.0
H921 H 0.83782 0.73981 0.02493 0.0
H922 H 0.84662 0.78653 0.04421 0.0
H923 H 0.8517 0.78757 0.07712 0.0
H924 H 0.26661 0.89407 0.42806 0.0
H925 H 0.2682 0.89117 0.46098 0.0
H926 H 0.16973 0.90678 0.46317 0.0
H927 H 0.16793 0.90967 0.43031 0.0
H928 H 0.2032 0.94607 0.48522 0.0
H929 H 0.23825 0.82376 0.49576 0.0
H930 H 0.26284 0.84525 0.48079 0.0
H931 H 0.22339 0.83775 0.47454 0.0
C932 C 0.24521 0.89624 0.43554 0.0
C933 C 0.21714 0.90214 0.4266 0.0
C934 C 0.24616 0.89458 0.45435 0.0
C935 C 0.21904 0.89849 0.46449 0.0
C936 C 0.19092 0.90369 0.45557 0.0
H937 H 0.1869 0.87067 0.57841 0.0
H938 H 0.18789 0.86764 0.54551 0.0
C939 C 0.18995 0.90544 0.43682 0.0
C940 C 0.22012 0.89922 0.48442 0.0
H941 H 0.23782 0.85621 0.52159 0.0
C942 C 0.21072 0.92641 0.49319 0.0
C943 C 0.22973 0.87346 0.49473 0.0
C944 C 0.23888 0.84328 0.48603 0.0
C945 C 0.21082 0.92863 0.51202 0.0
C946 C 0.22109 0.90312 0.52234 0.0
C947 C 0.23025 0.87581 0.5136 0.0
C948 C 0.22164 0.90418 0.54225 0.0
C949 C 0.19936 0.95804 0.52072 0.0
C950 C 0.24069 0.92538 0.55129 0.0
C951 C 0.24 0.92735 0.57007 0.0
C952 C 0.22033 0.90804 0.58015 0.0
C953 C 0.20189 0.88625 0.57103 0.0
C954 C 0.20261 0.8843 0.55226 0.0
H955 H 0.18556 0.97233 0.51123 0.0
H956 H 0.18491 0.95282 0.53272 0.0
H957 H 0.21947 0.97201 0.5252 0.0
H958 H 0.25587 0.94062 0.5438 0.0
H959 H 0.25437 0.94448 0.57666 0.0
H960 H 0.61176 0.23632 0.07738 0.0
H961 H 0.61471 0.23285 0.04453 0.0
H962 H 0.5918 0.32968 0.04026 0.0
H963 H 0.58913 0.33349 0.07308 0.0
H964 H 0.55444 0.28922 0.01925 0.0
H965 H 0.68007 0.26747 0.00903 0.0
H966 H 0.66096 0.2428 0.02505 0.0
H967 H 0.66477 0.28339 0.02968 0.0
C968 C 0.608 0.25703 0.06947 0.0
C969 C 0.6002 0.2852 0.07783 0.0
C970 C 0.60967 0.25498 0.05071 0.0
C971 C 0.60374 0.28107 0.04002 0.0
C972 C 0.59649 0.3093 0.04831 0.0
H973 H 0.58327 0.32543 0.92775 0.0
H974 H 0.58686 0.32502 0.96058 0.0
C975 C 0.59483 0.31139 0.06704 0.0
C976 C 0.60308 0.27863 0.02017 0.0
H977 H 0.64808 0.26518 0.9832 0.0
C978 C 0.57491 0.28401 0.01135 0.0
C979 C 0.62978 0.2715 0.00998 0.0
C980 C 0.66071 0.26616 0.01884 0.0
C981 C 0.57269 0.28255 0.99255 0.0
C982 C 0.59952 0.27616 0.98231 0.0
C983 C 0.6276 0.27018 0.99113 0.0
C984 C 0.59892 0.27653 0.9624 0.0
C985 C 0.54155 0.28755 0.98382 0.0
C986 C 0.60555 0.24963 0.95255 0.0
C987 C 0.60355 0.2498 0.93375 0.0
C988 C 0.59498 0.27693 0.92455 0.0
C989 C 0.58931 0.30404 0.93448 0.0
C990 C 0.59137 0.30385 0.95322 0.0
H991 H 0.52229 0.28373 0.99347 0.0
H992 H 0.54004 0.31176 0.97892 0.0
H993 H 0.53836 0.27186 0.97212 0.0
H994 H 0.61155 0.22836 0.95944 0.0
H995 H 0.60786 0.22851 0.92648 0.0
H996 H 0.65771 0.63528 0.5739 0.0
H997 H 0.65294 0.63686 0.54096 0.0
H998 H 0.73523 0.58114 0.53598 0.0
H999 H 0.73986 0.57892 0.56871 0.0
H1000 H 0.69842 0.65785 0.5144 0.0
H1001 H 0.66768 0.53386 0.50702 0.0
H1002 H 0.66452 0.55429 0.52817 0.0
H1003 H 0.70153 0.54065 0.52049 0.0
C1004 C 0.67469 0.62326 0.56577 0.0
C1005 C 0.69912 0.60689 0.57391 0.0
C1006 C 0.67201 0.62433 0.54699 0.0
C1007 C 0.6935 0.60877 0.53611 0.0
C1008 C 0.71819 0.59296 0.54418 0.0
H1009 H 0.74218 0.5729 0.42769 0.0
H1010 H 0.73588 0.57794 0.46018 0.0
C1011 C 0.72096 0.59198 0.56288 0.0
C1012 C 0.69041 0.6088 0.51628 0.0
H1013 H 0.68323 0.56027 0.4803 0.0
C1014 C 0.69465 0.63666 0.50688 0.0
C1015 C 0.68533 0.5811 0.50661 0.0
C1016 C 0.67921 0.55079 0.51606 0.0
C1017 C 0.69561 0.63721 0.48797 0.0
C1018 C 0.69179 0.60924 0.47832 0.0
C1019 C 0.68631 0.58164 0.48775 0.0
C1020 C 0.69563 0.60754 0.45854 0.0
C1021 C 0.70216 0.66737 0.47847 0.0
C1022 C 0.67501 0.62252 0.44684 0.0
C1023 C 0.67869 0.61988 0.42816 0.0
C1024 C 0.70304 0.60216 0.42093 0.0
C1025 C 0.72354 0.5872 0.43278 0.0
C1026 C 0.71984 0.58984 0.45136 0.0
H1027 H 0.70996 0.68567 0.48794 0.0
H1028 H 0.72016 0.66413 0.46796 0.0
H1029 H 0.68076 0.67554 0.47172 0.0
H1030 H 0.65591 0.63594 0.45213 0.0
H1031 H 0.66259 0.63179 0.41941 0.0
H1032 H 0.3621 0.74677 0.07975 0.0
H1033 H 0.3587 0.74417 0.04688 0.0
H1034 H 0.42447 0.66916 0.04648 0.0
H1035 H 0.42815 0.67168 0.07927 0.0
H1036 H 0.40674 0.7527 0.0226 0.0
H1037 H 0.35525 0.63595 0.0145 0.0
H1038 H 0.35519 0.65634 0.03572 0.0
H1039 H 0.38941 0.63647 0.02824 0.0
C1040 C 0.3758 0.72968 0.07267 0.0
C1041 C 0.39537 0.70939 0.08215 0.0
C1042 C 0.37371 0.72813 0.0539 0.0
C1043 C 0.39099 0.70619 0.04426 0.0
C1044 C 0.41036 0.68577 0.05367 0.0
H1045 H 0.43187 0.6699 0.93241 0.0
H1046 H 0.42799 0.66985 0.96528 0.0
C1047 C 0.41244 0.68726 0.07243 0.0
C1048 C 0.39015 0.70581 0.02431 0.0
H1049 H 0.37546 0.65961 0.98798 0.0
C1050 C 0.39962 0.73246 0.01502 0.0
C1051 C 0.38097 0.67932 0.01447 0.0
C1052 C 0.36935 0.65048 0.02372 0.0
C1053 C 0.40089 0.7331 0.99614 0.0
C1054 C 0.39199 0.70651 0.98631 0.0
C1055 C 0.38229 0.67993 0.99558 0.0
C1056 C 0.39316 0.70573 0.96638 0.0
C1057 C 0.41261 0.76189 0.98687 0.0
C1058 C 0.37437 0.72547 0.95613 0.0
C1059 C 0.3764 0.72545 0.93735 0.0
C1060 C 0.3972 0.70558 0.92846 0.0
C1061 C 0.41542 0.68528 0.9388 0.0
C1062 C 0.41334 0.68531 0.95758 0.0
H1063 H 0.42506 0.77745 0.99632 0.0
H1064 H 0.4284 0.75585 0.97561 0.0
H1065 H 0.39272 0.77486 0.9812 0.0
H1066 H 0.35818 0.74096 0.96267 0.0
H1067 H 0.36159 0.74093 0.92979 0.0
H1068 H 0.32866 0.43187 0.56995 0.0
H1069 H 0.32948 0.42922 0.53705 0.0
H1070 H 0.25037 0.36844 0.53793 0.0
H1071 H 0.24942 0.37086 0.57085 0.0
H1072 H 0.33494 0.37821 0.51382 0.0
H1073 H 0.22268 0.43876 0.50457 0.0
H1074 H 0.24315 0.43864 0.52575 0.0
H1075 H 0.22104 0.4054 0.51896 0.0
C1076 C 0.31162 0.41768 0.56316 0.0
C1077 C 0.28883 0.40175 0.57302 0.0
C1078 C 0.31205 0.4163 0.54436 0.0
C1079 C 0.28967 0.39907 0.53506 0.0
C1080 C 0.26741 0.38245 0.54484 0.0
H1081 H 0.25234 0.37327 0.42082 0.0
H1082 H 0.25279 0.36942 0.4537 0.0
C1083 C 0.26691 0.38386 0.56365 0.0
C1084 C 0.28959 0.39867 0.51511 0.0
H1085 H 0.24641 0.41856 0.47839 0.0
C1086 C 0.31562 0.38704 0.50605 0.0
C1087 C 0.26432 0.41023 0.50504 0.0
C1088 C 0.2363 0.42423 0.51403 0.0
C1089 C 0.31694 0.38639 0.48717 0.0
C1090 C 0.29175 0.3981 0.47711 0.0
C1091 C 0.26563 0.4095 0.48616 0.0
C1092 C 0.29231 0.39954 0.45718 0.0
C1093 C 0.3451 0.3728 0.47813 0.0
C1094 C 0.31424 0.41794 0.44828 0.0
C1095 C 0.31393 0.42037 0.42952 0.0
C1096 C 0.29154 0.40457 0.41929 0.0
C1097 C 0.26966 0.38604 0.42828 0.0
C1098 C 0.26998 0.38366 0.44706 0.0
H1099 H 0.35838 0.35764 0.48741 0.0
H1100 H 0.3385 0.35918 0.46604 0.0
H1101 H 0.36058 0.39185 0.47374 0.0
H1102 H 0.33123 0.43095 0.45587 0.0
H1103 H 0.33075 0.43527 0.42307 0.0
H1104 H 0.08642 0.31466 0.18004 0.0
H1105 H 0.10869 0.3483 0.20326 0.0
H1106 H 0.13303 0.26772 0.23463 0.0
H1107 H 0.10843 0.23453 0.21221 0.0
H1108 H 0.11702 0.30903 0.25624 0.0
H1109 H 0.19708 0.36556 0.20819 0.0
H1110 H 0.15744 0.37278 0.20261 0.0
H1111 H 0.1725 0.33388 0.20166 0.0
C1112 C 0.09615 0.30435 0.19207 0.0
C1113 C 0.09578 0.27215 0.19444 0.0
C1114 C 0.10925 0.32349 0.20521 0.0
C1115 C 0.12355 0.31061 0.22049 0.0
C1116 C 0.1223 0.27837 0.223 0.0
H1117 H 0.27046 0.39221 0.28235 0.0
H1118 H 0.2369 0.36818 0.25989 0.0
C1119 C 0.10822 0.25937 0.2102 0.0
C1120 C 0.14034 0.33026 0.23377 0.0
H1121 H 0.19661 0.3853 0.23786 0.0
C1122 C 0.13453 0.32561 0.2522 0.0
C1123 C 0.16352 0.35169 0.22858 0.0
C1124 C 0.17325 0.35605 0.20921 0.0
C1125 C 0.15172 0.34095 0.26552 0.0
C1126 C 0.17412 0.36321 0.26033 0.0
C1127 C 0.1793 0.36851 0.2419 0.0
C1128 C 0.19409 0.37953 0.27363 0.0
C1129 C 0.14668 0.33173 0.28492 0.0
C1130 C 0.18139 0.39465 0.2887 0.0
C1131 C 0.2007 0.40742 0.30187 0.0
C1132 C 0.23293 0.40663 0.29973 0.0
C1133 C 0.24561 0.39332 0.28418 0.0
C1134 C 0.2264 0.37957 0.27136 0.0
H1135 H 0.1363 0.30827 0.28601 0.0
H1136 H 0.16872 0.33181 0.29259 0.0
H1137 H 0.13042 0.34825 0.29134 0.0
H1138 H 0.15659 0.39614 0.29046 0.0
H1139 H 0.19048 0.41785 0.31373 0.0
H1140 H 0.74792 0.07896 0.71137 0.0
H1141 H 0.71568 0.10001 0.73551 0.0
H1142 H 0.66415 0.15323 0.69659 0.0
H1143 H 0.6959 0.13185 0.67235 0.0
H1144 H 0.71219 0.16136 0.74407 0.0
H1145 H 0.59536 0.11668 0.72733 0.0
H1146 H 0.63022 0.10088 0.71757 0.0
H1147 H 0.61403 0.13626 0.70899 0.0
C1148 C 0.72939 0.09475 0.70792 0.0
C1149 C 0.72441 0.10375 0.68998 0.0
C1150 C 0.711 0.10675 0.72172 0.0
C1151 C 0.68728 0.12789 0.71783 0.0
C1152 C 0.68184 0.13641 0.69987 0.0
H1153 H 0.57919 0.25463 0.78254 0.0
H1154 H 0.60155 0.22399 0.75798 0.0
C1155 C 0.70014 0.12431 0.68604 0.0
C1156 C 0.67018 0.14307 0.73268 0.0
H1157 H 0.59787 0.15658 0.74954 0.0
C1158 C 0.68722 0.16007 0.74536 0.0
C1159 C 0.63758 0.14151 0.73424 0.0
C1160 C 0.61821 0.12262 0.72141 0.0
C1161 C 0.67255 0.17598 0.7594 0.0
C1162 C 0.63999 0.17451 0.76093 0.0
C1163 C 0.62285 0.15756 0.74829 0.0
C1164 C 0.62357 0.19077 0.77559 0.0
C1165 C 0.69192 0.19479 0.7723 0.0
C1166 C 0.62784 0.18158 0.79352 0.0
C1167 C 0.61514 0.19896 0.80753 0.0
C1168 C 0.59791 0.22579 0.80382 0.0
C1169 C 0.59242 0.23411 0.7858 0.0
C1170 C 0.60513 0.21665 0.77177 0.0
H1171 H 0.71571 0.19871 0.7671 0.0
H1172 H 0.68098 0.21759 0.77496 0.0
H1173 H 0.69374 0.18229 0.78531 0.0
H1174 H 0.64175 0.16145 0.79668 0.0
H1175 H 0.61967 0.19188 0.82127 0.0
H1176 H 0.81238 0.61313 0.32504 0.0
H1177 H 0.84535 0.63679 0.30212 0.0
H1178 H 0.79142 0.59326 0.26037 0.0
H1179 H 0.7583 0.56923 0.28326 0.0
H1180 H 0.85913 0.59405 0.25486 0.0
H1181 H 0.80878 0.70906 0.27153 0.0
H1182 H 0.82447 0.68774 0.29019 0.0
H1183 H 0.79109 0.6732 0.27855 0.0
C1184 C 0.8078 0.60815 0.31099 0.0
C1185 C 0.78256 0.58955 0.30593 0.0
C1186 C 0.82661 0.62178 0.29793 0.0
C1187 C 0.82046 0.61714 0.2796 0.0
C1188 C 0.79641 0.59717 0.27449 0.0
H1189 H 0.88097 0.69296 0.17852 0.0
H1190 H 0.86171 0.65996 0.20271 0.0
C1191 C 0.77754 0.58348 0.28757 0.0
C1192 C 0.83769 0.63486 0.26583 0.0
H1193 H 0.84838 0.70805 0.24976 0.0
C1194 C 0.8569 0.61898 0.25373 0.0
C1195 C 0.83466 0.66736 0.26446 0.0
C1196 C 0.81348 0.68543 0.27675 0.0
C1197 C 0.8734 0.63486 0.2403 0.0
C1198 C 0.87004 0.66734 0.23877 0.0
C1199 C 0.85107 0.68318 0.25103 0.0
C1200 C 0.88456 0.68534 0.22403 0.0
C1201 C 0.8945 0.61679 0.228 0.0
C1202 C 0.90364 0.71076 0.22797 0.0
C1203 C 0.91449 0.72989 0.21415 0.0
C1204 C 0.90629 0.72397 0.19617 0.0
C1205 C 0.88789 0.69801 0.19223 0.0
C1206 C 0.87701 0.67897 0.20604 0.0
H1207 H 0.90183 0.59461 0.23425 0.0
H1208 H 0.88196 0.61124 0.21537 0.0
H1209 H 0.91546 0.63037 0.22447 0.0
H1210 H 0.90955 0.7162 0.24179 0.0
H1211 H 0.92855 0.74977 0.21761 0.0
H1212 H 0.38632 0.72821 0.79047 0.0
H1213 H 0.36297 0.76127 0.76758 0.0
H1214 H 0.37931 0.84138 0.80104 0.0
H1215 H 0.40048 0.80775 0.82459 0.0
H1216 H 0.32609 0.84634 0.78857 0.0
H1217 H 0.39853 0.81454 0.73054 0.0
H1218 H 0.38102 0.78022 0.73934 0.0
H1219 H 0.4078 0.80202 0.75305 0.0
C1220 C 0.3853 0.75294 0.79278 0.0
C1221 C 0.39535 0.76558 0.80915 0.0
C1222 C 0.37219 0.77191 0.77962 0.0
C1223 C 0.37009 0.80406 0.78227 0.0
C1224 C 0.38077 0.81672 0.79858 0.0
H1225 H 0.30545 0.90926 0.68882 0.0
H1226 H 0.33794 0.88918 0.71316 0.0
C1227 C 0.39295 0.79758 0.812 0.0
C1228 C 0.35468 0.82399 0.76862 0.0
H1229 H 0.3481 0.83569 0.72337 0.0
C1230 C 0.33135 0.84441 0.77434 0.0
C1231 C 0.36188 0.82227 0.75004 0.0
C1232 C 0.38895 0.80384 0.74296 0.0
C1233 C 0.31426 0.86208 0.762 0.0
C1234 C 0.31938 0.85796 0.74331 0.0
C1235 C 0.34359 0.83854 0.73764 0.0
C1236 C 0.29955 0.87273 0.72936 0.0
C1237 C 0.29129 0.88523 0.76928 0.0
C1238 C 0.26711 0.8705 0.73032 0.0
C1239 C 0.24859 0.88302 0.71674 0.0
C1240 C 0.26221 0.89677 0.70159 0.0
C1241 C 0.29452 0.89872 0.70043 0.0
C1242 C 0.31303 0.88718 0.71431 0.0
H1243 H 0.29877 0.89419 0.78261 0.0
H1244 H 0.28824 0.90517 0.76002 0.0
H1245 H 0.2686 0.87368 0.77124 0.0
H1246 H 0.25604 0.85838 0.74132 0.0
H1247 H 0.22367 0.8808 0.7177 0.0
H1248 H 0.91626 0.75475 0.78212 0.0
H1249 H 0.89338 0.72335 0.75806 0.0
H1250 H 0.8535 0.66235 0.79772 0.0
H1251 H 0.87605 0.69358 0.82181 0.0
H1252 H 0.89696 0.65655 0.75011 0.0
H1253 H 0.77897 0.69733 0.76833 0.0
H1254 H 0.81361 0.7166 0.77598 0.0
H1255 H 0.80125 0.68128 0.78649 0.0
C1256 C 0.90298 0.73441 0.7857 0.0
C1257 C 0.89773 0.72677 0.80385 0.0
C1258 C 0.88996 0.71651 0.77196 0.0
C1259 C 0.87143 0.69086 0.77617 0.0
C1260 C 0.8674 0.68234 0.79423 0.0
H1261 H 0.74693 0.5768 0.71295 0.0
H1262 H 0.7795 0.5979 0.73695 0.0
C1263 C 0.8804 0.70016 0.80797 0.0
C1264 C 0.85485 0.67402 0.76177 0.0
H1265 H 0.78246 0.65939 0.7456 0.0
C1266 C 0.87193 0.65711 0.74908 0.0
C1267 C 0.82223 0.6749 0.76052 0.0
C1268 C 0.80284 0.69368 0.77344 0.0
C1269 C 0.85712 0.6406 0.73524 0.0
C1270 C 0.82448 0.6416 0.73394 0.0
C1271 C 0.80747 0.65849 0.74669 0.0
C1272 C 0.8073 0.62622 0.71917 0.0
C1273 C 0.8765 0.62187 0.72233 0.0
C1274 C 0.81233 0.63493 0.7012 0.0
C1275 C 0.79385 0.62282 0.68746 0.0
C1276 C 0.76979 0.60204 0.69148 0.0
C1277 C 0.7653 0.59274 0.70943 0.0
C1278 C 0.78386 0.60479 0.72315 0.0
H1279 H 0.8995 0.61622 0.72814 0.0
H1280 H 0.86468 0.59998 0.71858 0.0
H1281 H 0.88036 0.63552 0.70987 0.0
H1282 H 0.82979 0.65196 0.69786 0.0
H1283 H 0.79774 0.63059 0.67378 0.0
H1284 H 0.31429 0.92099 0.32167 0.0
H1285 H 0.34876 0.90249 0.29773 0.0
H1286 H 0.26906 0.8778 0.2657 0.0
H1287 H 0.23505 0.89864 0.28888 0.0
H1288 H 0.35837 0.84995 0.28612 0.0
H1289 H 0.31742 0.91415 0.22699 0.0
H1290 H 0.30499 0.92418 0.2494 0.0
H1291 H 0.28486 0.89478 0.23665 0.0
C1292 C 0.30436 0.9124 0.30924 0.0
C1293 C 0.27218 0.91171 0.30689 0.0
C1294 C 0.32398 0.9017 0.29561 0.0
C1295 C 0.31168 0.8893 0.2796 0.0
C1296 C 0.27937 0.88847 0.27744 0.0
H1297 H 0.39069 0.7405 0.2194 0.0
H1298 H 0.37012 0.77554 0.24222 0.0
C1299 C 0.25986 0.90016 0.29077 0.0
C1300 C 0.33223 0.87461 0.26594 0.0
H1301 H 0.34048 0.86376 0.22071 0.0
C1302 C 0.35486 0.85355 0.27182 0.0
C1303 C 0.32862 0.87972 0.24721 0.0
C1304 C 0.3079 0.90475 0.23977 0.0
C1305 C 0.37261 0.83633 0.25957 0.0
C1306 C 0.36632 0.83877 0.24089 0.0
C1307 C 0.34497 0.86112 0.23499 0.0
C1308 C 0.38031 0.81753 0.22733 0.0
C1309 C 0.39804 0.816 0.26691 0.0
C1310 C 0.39171 0.82908 0.21089 0.0
C1311 C 0.4021 0.80886 0.19749 0.0
C1312 C 0.40212 0.77682 0.20049 0.0
C1313 C 0.39147 0.76522 0.21698 0.0
C1314 C 0.38002 0.78532 0.23011 0.0
H1315 H 0.40815 0.8262 0.27932 0.0
H1316 H 0.38825 0.79314 0.27065 0.0
H1317 H 0.41691 0.81255 0.25697 0.0
H1318 H 0.39213 0.85374 0.2083 0.0
H1319 H 0.41016 0.81822 0.18479 0.0
H1320 H 0.07905 0.24714 0.78298 0.0
H1321 H 0.10287 0.27894 0.75941 0.0
H1322 H 0.15058 0.33217 0.7999 0.0
H1323 H 0.12714 0.30046 0.82351 0.0
H1324 H 0.10414 0.34566 0.75347 0.0
H1325 H 0.22006 0.29546 0.76766 0.0
H1326 H 0.18472 0.27818 0.77582 0.0
H1327 H 0.20042 0.31174 0.78677 0.0
C1328 C 0.09429 0.26589 0.78687 0.0
C1329 C 0.1014 0.27117 0.80508 0.0
C1330 C 0.10785 0.28401 0.7734 0.0
C1331 C 0.12882 0.30753 0.77794 0.0
C1332 C 0.13481 0.31379 0.79613 0.0
H1333 H 0.25564 0.41916 0.71441 0.0
H1334 H 0.22422 0.39741 0.73875 0.0
C1335 C 0.12126 0.29574 0.8096 0.0
C1336 C 0.14565 0.32447 0.76365 0.0
H1337 H 0.21777 0.33542 0.74605 0.0
C1338 C 0.12897 0.34348 0.75181 0.0
C1339 C 0.17804 0.3215 0.76157 0.0
C1340 C 0.19693 0.30044 0.77351 0.0
C1341 C 0.14396 0.35998 0.73803 0.0
C1342 C 0.17634 0.35684 0.73587 0.0
C1343 C 0.19297 0.33791 0.74779 0.0
C1344 C 0.19348 0.37216 0.72105 0.0
C1345 C 0.12507 0.38097 0.72609 0.0
C1346 C 0.18655 0.36527 0.70303 0.0
C1347 C 0.20439 0.37773 0.6891 0.0
C1348 C 0.22967 0.39709 0.69296 0.0
C1349 C 0.23627 0.40437 0.711 0.0
C1350 C 0.21837 0.39195 0.72492 0.0
H1351 H 0.10291 0.38768 0.73259 0.0
H1352 H 0.13811 0.4023 0.72263 0.0
H1353 H 0.11949 0.36863 0.7134 0.0
H1354 H 0.16791 0.3495 0.69974 0.0
H1355 H 0.19885 0.37152 0.67535 0.0
H1356 H 0.6819 0.07858 0.31382 0.0
H1357 H 0.64684 0.09895 0.29078 0.0
H1358 H 0.72548 0.12118 0.25726 0.0
H1359 H 0.76005 0.09844 0.27961 0.0
H1360 H 0.63944 0.15259 0.28041 0.0
H1361 H 0.67244 0.08898 0.21929 0.0
H1362 H 0.68608 0.07743 0.24121 0.0
H1363 H 0.70648 0.10653 0.22838 0.0
C1364 C 0.69145 0.08703 0.30125 0.0
C1365 C 0.72348 0.08665 0.29828 0.0
C1366 C 0.67149 0.09879 0.28813 0.0
C1367 C 0.68331 0.11121 0.27203 0.0
C1368 C 0.71548 0.11066 0.26913 0.0
H1369 H 0.60723 0.26531 0.21535 0.0
H1370 H 0.62734 0.22878 0.23749 0.0
C1371 C 0.73532 0.09789 0.28198 0.0
C1372 C 0.66251 0.12748 0.25915 0.0
H1373 H 0.65053 0.14022 0.21439 0.0
C1374 C 0.64145 0.14932 0.26597 0.0
C1375 C 0.66424 0.1229 0.24029 0.0
C1376 C 0.68329 0.09738 0.23195 0.0
C1377 C 0.62336 0.1677 0.25451 0.0
C1378 C 0.62771 0.16552 0.23565 0.0
C1379 C 0.64753 0.14255 0.22882 0.0
C1380 C 0.61334 0.18771 0.22279 0.0
C1381 C 0.59969 0.18899 0.26287 0.0
C1382 C 0.59965 0.17706 0.20676 0.0
C1383 C 0.58936 0.19804 0.19375 0.0
C1384 C 0.59177 0.22998 0.19677 0.0
C1385 C 0.60446 0.24072 0.21297 0.0
C1386 C 0.61574 0.21979 0.22569 0.0
H1387 H 0.59041 0.17899 0.27555 0.0
H1388 H 0.61089 0.21131 0.26637 0.0
H1389 H 0.58002 0.19352 0.25362 0.0
H1390 H 0.59759 0.1525 0.20411 0.0
H1391 H 0.57982 0.18934 0.18124 0.0
H1392 H 0.44804 0.30326 0.16076 0.0
H1393 H 0.39168 0.29788 0.1646 0.0
H1394 H 0.40159 0.19856 0.16589 0.0
H1395 H 0.45736 0.20389 0.16187 0.0
H1396 H 0.36025 0.21949 0.14008 0.0
H1397 H 0.33599 0.27135 0.2072 0.0
H1398 H 0.35827 0.29461 0.19185 0.0
H1399 H 0.37429 0.25928 0.20046 0.0
C1400 C 0.43809 0.28041 0.16227 0.0
C1401 C 0.45682 0.25397 0.16081 0.0
C1402 C 0.40602 0.27734 0.16448 0.0
C1403 C 0.39253 0.2478 0.16552 0.0
C1404 C 0.41153 0.22154 0.16502 0.0
H1405 H 0.21054 0.18037 0.19046 0.0
H1406 H 0.26504 0.19529 0.18997 0.0
C1407 C 0.44332 0.22459 0.16267 0.0
C1408 C 0.35856 0.2436 0.16544 0.0
H1409 H 0.29292 0.25429 0.19024 0.0
C1410 C 0.34548 0.22722 0.151 0.0
C1411 C 0.3395 0.25359 0.17976 0.0
C1412 C 0.35262 0.2705 0.1958 0.0
C1413 C 0.31391 0.21999 0.15064 0.0
C1414 C 0.29475 0.23003 0.16492 0.0
C1415 C 0.30771 0.24679 0.17927 0.0
C1416 C 0.26146 0.22215 0.16548 0.0
C1417 C 0.30157 0.20075 0.13526 0.0
C1418 C 0.24139 0.2325 0.15193 0.0
C1419 C 0.21033 0.22361 0.152 0.0
C1420 C 0.19865 0.20446 0.16575 0.0
C1421 C 0.21879 0.19462 0.17948 0.0
C1422 C 0.24989 0.20343 0.17936 0.0
H1423 H 0.32041 0.18878 0.12783 0.0
H1424 H 0.28492 0.1831 0.14018 0.0
H1425 H 0.28929 0.21603 0.12561 0.0
H1426 H 0.24981 0.24729 0.14122 0.0
H1427 H 0.19561 0.23148 0.14115 0.0
H1428 H 0.77495 0.20392 0.64021 0.0
H1429 H 0.76378 0.25921 0.64114 0.0
H1430 H 0.81528 0.26753 0.69061 0.0
H1431 H 0.82577 0.21183 0.69013 0.0
H1432 H 0.75767 0.30003 0.69053 0.0
H1433 H 0.82856 0.3261 0.63005 0.0
H1434 H 0.79998 0.29652 0.6266 0.0
H1435 H 0.83134 0.28986 0.64202 0.0
C1436 C 0.78367 0.21736 0.65141 0.0
C1437 C 0.80135 0.20335 0.66508 0.0
C1438 C 0.77747 0.24904 0.65183 0.0
C1439 C 0.78902 0.2675 0.66582 0.0
C1440 C 0.80628 0.25366 0.67964 0.0
H1441 H 0.80634 0.46589 0.65996 0.0
H1442 H 0.81419 0.4107 0.66524 0.0
C1443 C 0.8125 0.22188 0.67925 0.0
C1444 C 0.78354 0.30134 0.66575 0.0
H1445 H 0.79697 0.36662 0.64116 0.0
C1446 C 0.76634 0.31469 0.6798 0.0
C1447 C 0.79515 0.32038 0.65182 0.0
C1448 C 0.81503 0.3076 0.63685 0.0
C1449 C 0.76004 0.34663 0.68012 0.0
C1450 C 0.77096 0.36548 0.6659 0.0
C1451 C 0.78844 0.3521 0.65199 0.0
C1452 C 0.76543 0.39934 0.66521 0.0
C1453 C 0.74225 0.35997 0.69577 0.0
C1454 C 0.73534 0.41147 0.66386 0.0
C1455 C 0.73081 0.44319 0.66092 0.0
C1456 C 0.75632 0.46306 0.65901 0.0
C1457 C 0.78629 0.451 0.6611 0.0
C1458 C 0.79079 0.41951 0.66418 0.0
H1459 H 0.74231 0.34413 0.70755 0.0
H1460 H 0.75206 0.38262 0.69994 0.0
H1461 H 0.71787 0.36373 0.69165 0.0
H1462 H 0.71544 0.39626 0.6643 0.0
H1463 H 0.70752 0.45193 0.65919 0.0
H1464 H 0.54126 0.72687 0.18753 0.0
H1465 H 0.59716 0.72863 0.19326 0.0
H1466 H 0.60906 0.7893 0.14767 0.0
H1467 H 0.55381 0.78688 0.14155 0.0
H1468 H 0.65142 0.74071 0.14883 0.0
H1469 H 0.64467 0.80354 0.21418 0.0
H1470 H 0.6226 0.76839 0.21237 0.0
H1471 H 0.61232 0.80125 0.19887 0.0
C1472 C 0.55584 0.74035 0.17866 0.0
C1473 C 0.54303 0.75699 0.16418 0.0
C1474 C 0.58769 0.74159 0.18206 0.0
C1475 C 0.6071 0.75947 0.17104 0.0
C1476 C 0.59442 0.77554 0.15641 0.0
H1477 H 0.78529 0.84255 0.17848 0.0
H1478 H 0.73029 0.82887 0.17952 0.0
C1479 C 0.56278 0.77433 0.15302 0.0
C1480 C 0.64075 0.76162 0.17438 0.0
H1481 H 0.69441 0.79233 0.203 0.0
C1482 C 0.6609 0.75166 0.16076 0.0
C1483 C 0.65288 0.77622 0.18989 0.0
C1484 C 0.6321 0.78821 0.20466 0.0
C1485 C 0.69286 0.75668 0.16196 0.0
C1486 C 0.70501 0.77152 0.1774 0.0
C1487 C 0.68496 0.7808 0.19125 0.0
C1488 C 0.73822 0.77943 0.17875 0.0
C1489 C 0.71313 0.74737 0.14631 0.0
C1490 C 0.76081 0.75615 0.17853 0.0
C1491 C 0.79213 0.76393 0.17782 0.0
C1492 C 0.80138 0.79513 0.17751 0.0
C1493 C 0.77877 0.81837 0.17871 0.0
C1494 C 0.74741 0.81057 0.17929 0.0
H1495 H 0.69941 0.74257 0.13397 0.0
H1496 H 0.73027 0.76575 0.1432 0.0
H1497 H 0.72599 0.726 0.14985 0.0
H1498 H 0.75418 0.73198 0.17853 0.0
H1499 H 0.80909 0.74552 0.17739 0.0
H1500 H 0.29154 0.55052 0.64863 0.0
H1501 H 0.28819 0.60728 0.6512 0.0
H1502 H 0.19841 0.59857 0.67602 0.0
H1503 H 0.20155 0.54221 0.6733 0.0
H1504 H 0.23049 0.64021 0.63478 0.0
H1505 H 0.25241 0.66299 0.70739 0.0
H1506 H 0.26841 0.6299 0.69573 0.0
H1507 H 0.22832 0.63028 0.70196 0.0
C1508 C 0.2715 0.56084 0.65499 0.0
C1509 C 0.24672 0.54222 0.66069 0.0
C1510 C 0.26955 0.59309 0.65639 0.0
C1511 C 0.24311 0.6069 0.66386 0.0
C1512 C 0.21907 0.58823 0.67035 0.0
H1513 H 0.16085 0.78399 0.68241 0.0
H1514 H 0.1761 0.72977 0.68135 0.0
C1515 C 0.22081 0.55616 0.66871 0.0
C1516 C 0.23882 0.64073 0.66332 0.0
H1517 H 0.23093 0.70406 0.69029 0.0
C1518 C 0.23101 0.6544 0.64683 0.0
C1519 C 0.23914 0.65879 0.67914 0.0
C1520 C 0.24769 0.64493 0.6971 0.0
C1521 C 0.22229 0.68562 0.64582 0.0
C1522 C 0.22225 0.70373 0.66171 0.0
C1523 C 0.2309 0.69014 0.67814 0.0
C1524 C 0.21245 0.73659 0.66171 0.0
C1525 C 0.21181 0.69841 0.62791 0.0
C1526 C 0.22768 0.75845 0.65094 0.0
C1527 C 0.21858 0.78944 0.65121 0.0
C1528 C 0.19444 0.7994 0.66256 0.0
C1529 C 0.1792 0.77732 0.67332 0.0
C1530 C 0.18812 0.74627 0.67288 0.0
H1531 H 0.20497 0.67971 0.61845 0.0
H1532 H 0.19192 0.71441 0.6296 0.0
H1533 H 0.23113 0.71145 0.62166 0.0
H1534 H 0.24689 0.75163 0.64246 0.0
H1535 H 0.23067 0.80554 0.64257 0.0
H1536 H 0.95179 0.20693 0.8365 0.0
H1537 H 0.89601 0.21336 0.83135 0.0
H1538 H 0.90704 0.31255 0.83323 0.0
H1539 H 0.9624 0.30616 0.83857 0.0
H1540 H 0.86304 0.29191 0.85636 0.0
H1541 H 0.84429 0.24177 0.78838 0.0
H1542 H 0.86417 0.21673 0.80383 0.0
H1543 H 0.88219 0.25212 0.79665 0.0
C1544 C 0.9423 0.23004 0.8354 0.0
C1545 C 0.96126 0.25604 0.83809 0.0
C1546 C 0.91051 0.23372 0.83243 0.0
C1547 C 0.89741 0.26346 0.83182 0.0
C1548 C 0.91665 0.2894 0.8337 0.0
H1549 H 0.71063 0.32178 0.80589 0.0
H1550 H 0.7662 0.31112 0.80589 0.0
C1551 C 0.94822 0.28573 0.83682 0.0
C1552 C 0.86345 0.26785 0.83095 0.0
H1553 H 0.79927 0.25451 0.80528 0.0
C1554 C 0.84912 0.28378 0.84516 0.0
C1555 C 0.84539 0.25742 0.81628 0.0
C1556 C 0.85976 0.24129 0.80032 0.0
C1557 C 0.81724 0.28956 0.84514 0.0
C1558 C 0.79903 0.27849 0.8307 0.0
C1559 C 0.81331 0.26272 0.8164 0.0
C1560 C 0.76518 0.28355 0.83019 0.0
C1561 C 0.80344 0.30804 0.86042 0.0
C1562 C 0.74619 0.2712 0.84371 0.0
C1563 C 0.71454 0.27756 0.84388 0.0
C1564 C 0.70115 0.29617 0.83043 0.0
C1565 C 0.72018 0.30784 0.81663 0.0
C1566 C 0.75191 0.30151 0.8165 0.0
H1567 H 0.82135 0.32144 0.8678 0.0
H1568 H 0.78556 0.32435 0.85542 0.0
H1569 H 0.7923 0.292 0.87013 0.0
H1570 H 0.75594 0.25691 0.85427 0.0
H1571 H 0.7007 0.26837 0.85479 0.0
H1572 H 0.68413 0.69465 0.29652 0.0
H1573 H 0.69662 0.74964 0.29361 0.0
H1574 H 0.7367 0.74895 0.34676 0.0
H1575 H 0.724 0.6942 0.34989 0.0
H1576 H 0.67631 0.79771 0.31538 0.0
H1577 H 0.80417 0.79053 0.31633 0.0
H1578 H 0.77981 0.75738 0.31197 0.0
H1579 H 0.78656 0.77008 0.33471 0.0
C1580 C 0.69543 0.7062 0.30764 0.0
C1581 C 0.70311 0.68994 0.32344 0.0
C1582 C 0.70281 0.73756 0.30587 0.0
C1583 C 0.71819 0.75316 0.3198 0.0
C1584 C 0.72563 0.73711 0.33564 0.0
H1585 H 0.72032 0.9342 0.35898 0.0
H1586 H 0.71511 0.87978 0.35115 0.0
C1587 C 0.71824 0.70582 0.33743 0.0
C1588 C 0.72462 0.78672 0.31844 0.0
H1589 H 0.78205 0.84034 0.32343 0.0
C1590 C 0.69949 0.80703 0.31679 0.0
C1591 C 0.75493 0.79882 0.32 0.0
C1592 C 0.78295 0.77806 0.32066 0.0
C1593 C 0.70365 0.83914 0.31788 0.0
C1594 C 0.73364 0.85112 0.32086 0.0
C1595 C 0.75905 0.83098 0.32132 0.0
C1596 C 0.73834 0.88403 0.32548 0.0
C1597 C 0.67579 0.86002 0.31646 0.0
C1598 C 0.75399 0.90425 0.31383 0.0
C1599 C 0.75683 0.93569 0.31822 0.0
C1600 C 0.74415 0.94716 0.33436 0.0
C1601 C 0.7296 0.92638 0.34623 0.0
C1602 C 0.7267 0.89521 0.34183 0.0
H1603 H 0.65622 0.84834 0.30953 0.0
H1604 H 0.66801 0.86651 0.3302 0.0
H1605 H 0.68157 0.8816 0.30907 0.0
H1606 H 0.76332 0.89587 0.3012 0.0
H1607 H 0.76811 0.95108 0.30879 0.0
H1608 H 0.04794 0.79256 0.84137 0.0
H1609 H 0.10439 0.78644 0.83865 0.0
H1610 H 0.0929 0.68752 0.83449 0.0
H1611 H 0.037 0.69356 0.83732 0.0
H1612 H 0.13305 0.70626 0.86192 0.0
H1613 H 0.16212 0.7616 0.79639 0.0
H1614 H 0.13897 0.78407 0.8117 0.0
H1615 H 0.12332 0.74941 0.80201 0.0
C1616 C 0.05757 0.76967 0.83945 0.0
C1617 C 0.03829 0.7435 0.83975 0.0
C1618 C 0.0897 0.76617 0.83789 0.0
C1619 C 0.10275 0.7365 0.83638 0.0
C1620 C 0.0833 0.71059 0.83574 0.0
H1621 H 0.28589 0.66897 0.81396 0.0
H1622 H 0.23117 0.68314 0.81387 0.0
C1623 C 0.05142 0.71405 0.83741 0.0
C1624 C 0.13661 0.73171 0.83708 0.0
H1625 H 0.20385 0.74284 0.81385 0.0
C1626 C 0.14859 0.71437 0.85145 0.0
C1627 C 0.15666 0.7422 0.82334 0.0
C1628 C 0.14474 0.76018 0.80738 0.0
C1629 C 0.18004 0.70676 0.85235 0.0
C1630 C 0.20017 0.71729 0.83866 0.0
C1631 C 0.1883 0.73495 0.82436 0.0
C1632 C 0.23342 0.70924 0.83869 0.0
C1633 C 0.19127 0.68669 0.86766 0.0
C1634 C 0.25277 0.71927 0.85267 0.0
C1635 C 0.28396 0.71087 0.85289 0.0
C1636 C 0.29646 0.69249 0.83905 0.0
C1637 C 0.27697 0.68266 0.82499 0.0
C1638 C 0.24576 0.69104 0.8248 0.0
H1639 H 0.17188 0.67467 0.87456 0.0
H1640 H 0.20795 0.66904 0.86277 0.0
H1641 H 0.20325 0.70138 0.87774 0.0
H1642 H 0.24374 0.73362 0.86341 0.0
H1643 H 0.29823 0.71866 0.86397 0.0
H1644 H 0.2488 0.31422 0.32609 0.0
H1645 H 0.23174 0.26029 0.32694 0.0
H1646 H 0.32619 0.23074 0.3345 0.0
H1647 H 0.34341 0.2848 0.33331 0.0
H1648 H 0.29512 0.19438 0.31037 0.0
H1649 H 0.22539 0.20963 0.37259 0.0
H1650 H 0.21454 0.23482 0.35444 0.0
H1651 H 0.25207 0.23866 0.36464 0.0
C1652 C 0.26588 0.29622 0.32806 0.0
C1653 C 0.29739 0.30365 0.32992 0.0
C1654 C 0.25611 0.26544 0.32853 0.0
C1655 C 0.27761 0.24157 0.33117 0.0
C1656 C 0.3092 0.24886 0.33253 0.0
H1657 H 0.26028 0.061 0.37379 0.0
H1658 H 0.26529 0.11595 0.36726 0.0
C1659 C 0.31903 0.27966 0.33185 0.0
C1660 C 0.26723 0.20901 0.33282 0.0
H1661 H 0.22358 0.16055 0.35876 0.0
C1662 C 0.27935 0.18695 0.32088 0.0
C1663 C 0.24676 0.19943 0.34662 0.0
C1664 C 0.23412 0.22178 0.36042 0.0
C1665 C 0.27214 0.15541 0.32261 0.0
C1666 C 0.25169 0.14584 0.33642 0.0
C1667 C 0.23897 0.16803 0.34806 0.0
C1668 C 0.24614 0.11271 0.3404 0.0
C1669 C 0.28759 0.13249 0.31018 0.0
C1670 C 0.23289 0.09269 0.32765 0.0
C1671 C 0.23032 0.06098 0.3313 0.0
C1672 C 0.24089 0.04894 0.34778 0.0
C1673 C 0.25262 0.06941 0.36081 0.0
C1674 C 0.25527 0.10089 0.35715 0.0
H1675 H 0.30728 0.14298 0.30274 0.0
H1676 H 0.29626 0.11219 0.31784 0.0
H1677 H 0.27051 0.1241 0.30016 0.0
H1678 H 0.22509 0.10148 0.31477 0.0
H1679 H 0.22116 0.04581 0.32101 0.0
H1680 H 0.54749 0.70235 0.83958 0.0
H1681 H 0.60317 0.70802 0.83338 0.0
H1682 H 0.5905 0.80602 0.82532 0.0
H1683 H 0.53526 0.80049 0.83155 0.0
H1684 H 0.64027 0.73834 0.80355 0.0
H1685 H 0.6484 0.79525 0.87051 0.0
H1686 H 0.6155 0.77219 0.86387 0.0
H1687 H 0.6196 0.81111 0.8557 0.0
C1688 C 0.55659 0.7249 0.83605 0.0
C1689 C 0.53733 0.75108 0.83635 0.0
C1690 C 0.58827 0.72812 0.83253 0.0
C1691 C 0.60085 0.75752 0.82918 0.0
C1692 C 0.58121 0.78323 0.82812 0.0
H1693 H 0.78641 0.8202 0.80271 0.0
H1694 H 0.73142 0.80666 0.80183 0.0
C1695 C 0.54975 0.78007 0.83175 0.0
C1696 C 0.63469 0.76221 0.82877 0.0
H1697 H 0.69303 0.79692 0.85215 0.0
C1698 C 0.65195 0.75099 0.81417 0.0
C1699 C 0.64976 0.77839 0.8428 0.0
C1700 C 0.63249 0.78974 0.85921 0.0
C1701 C 0.68402 0.75621 0.81306 0.0
C1702 C 0.69885 0.77336 0.82682 0.0
C1703 C 0.68156 0.78399 0.84155 0.0
C1704 C 0.7324 0.78019 0.82657 0.0
C1705 C 0.70181 0.74301 0.79736 0.0
C1706 C 0.75097 0.77041 0.84096 0.0
C1707 C 0.78213 0.77857 0.84167 0.0
C1708 C 0.7955 0.79668 0.82799 0.0
C1709 C 0.77684 0.80643 0.81353 0.0
C1710 C 0.74552 0.79831 0.81286 0.0
H1711 H 0.68879 0.72417 0.79056 0.0
H1712 H 0.70604 0.76159 0.78735 0.0
H1713 H 0.72458 0.73386 0.80178 0.0
H1714 H 0.74121 0.7567 0.85178 0.0
H1715 H 0.79561 0.7711 0.85315 0.0
H1716 H 0.30891 0.55352 0.33029 0.0
H1717 H 0.30965 0.60928 0.32357 0.0
H1718 H 0.21026 0.6086 0.31837 0.0
H1719 H 0.20951 0.55323 0.32461 0.0
H1720 H 0.2409 0.64577 0.29234 0.0
H1721 H 0.27939 0.67045 0.36256 0.0
H1722 H 0.30333 0.6453 0.34922 0.0
H1723 H 0.26539 0.63284 0.35587 0.0
C1724 C 0.28737 0.56525 0.32734 0.0
C1725 C 0.2591 0.54923 0.32827 0.0
C1726 C 0.28778 0.59705 0.32365 0.0
C1727 C 0.25994 0.61308 0.32079 0.0
C1728 C 0.23198 0.59669 0.32064 0.0
H1729 H 0.16773 0.78452 0.32004 0.0
H1730 H 0.18654 0.73173 0.31563 0.0
C1731 C 0.23155 0.56511 0.32437 0.0
C1732 C 0.25902 0.64722 0.31934 0.0
H1733 H 0.26435 0.71262 0.3449 0.0
C1734 C 0.24652 0.66051 0.3037 0.0
C1735 C 0.2664 0.66633 0.3342 0.0
C1736 C 0.27921 0.65316 0.35149 0.0
C1737 C 0.24004 0.69229 0.3028 0.0
C1738 C 0.24575 0.71105 0.31804 0.0
C1739 C 0.25989 0.69809 0.33328 0.0
C1740 C 0.23485 0.74347 0.31911 0.0
C1741 C 0.22657 0.70538 0.28568 0.0
C1742 C 0.25572 0.7675 0.32278 0.0
C1743 C 0.24501 0.79767 0.32536 0.0
C1744 C 0.21315 0.80432 0.3245 0.0
C1745 C 0.19238 0.78023 0.32058 0.0
C1746 C 0.20312 0.75008 0.31799 0.0
H1747 H 0.23275 0.69094 0.27383 0.0
H1748 H 0.20097 0.70574 0.28679 0.0
H1749 H 0.23472 0.72941 0.2833 0.0
H1750 H 0.28029 0.76283 0.32378 0.0
H1751 H 0.26173 0.81573 0.328 0.0
H1752 H 0.45032 0.29211 0.83465 0.0
H1753 H 0.39481 0.28798 0.8278 0.0
H1754 H 0.40123 0.1885 0.83046 0.0
H1755 H 0.45643 0.19245 0.83694 0.0
H1756 H 0.36434 0.21245 0.80101 0.0
H1757 H 0.33276 0.26131 0.86799 0.0
H1758 H 0.35844 0.28386 0.85416 0.0
H1759 H 0.37122 0.24743 0.86305 0.0
C1760 C 0.43991 0.26942 0.83348 0.0
C1761 C 0.45755 0.24263 0.8366 0.0
C1762 C 0.40825 0.26708 0.8297 0.0
C1763 C 0.39394 0.23793 0.82889 0.0
C1764 C 0.41184 0.2112 0.83113 0.0
H1765 H 0.21658 0.14934 0.82403 0.0
H1766 H 0.27141 0.16353 0.82216 0.0
C1767 C 0.4433 0.21351 0.83499 0.0
C1768 C 0.36007 0.23487 0.82678 0.0
H1769 H 0.2922 0.24408 0.84961 0.0
C1770 C 0.34846 0.21964 0.81152 0.0
C1771 C 0.33953 0.24425 0.84055 0.0
C1772 C 0.35096 0.25996 0.85745 0.0
C1773 C 0.31677 0.21315 0.80978 0.0
C1774 C 0.29639 0.22152 0.82387 0.0
C1775 C 0.30791 0.23761 0.83886 0.0
C1776 C 0.26321 0.2129 0.82375 0.0
C1777 C 0.30544 0.19744 0.79288 0.0
C1778 C 0.2405 0.23586 0.82556 0.0
C1779 C 0.20933 0.22776 0.82685 0.0
C1780 C 0.20024 0.19651 0.8264 0.0
C1781 C 0.22295 0.17356 0.82428 0.0
C1782 C 0.25421 0.18168 0.82311 0.0
H1783 H 0.32158 0.20121 0.78144 0.0
H1784 H 0.30389 0.17215 0.7953 0.0
H1785 H 0.28215 0.20596 0.78898 0.0
H1786 H 0.24694 0.26008 0.8261 0.0
H1787 H 0.19233 0.24602 0.82809 0.0
H1788 H 0.74822 0.18537 0.32617 0.0
H1789 H 0.73685 0.24069 0.3273 0.0
H1790 H 0.83458 0.26092 0.32692 0.0
H1791 H 0.84608 0.20547 0.32563 0.0
H1792 H 0.75216 0.28123 0.35324 0.0
H1793 H 0.80283 0.31912 0.28837 0.0
H1794 H 0.79603 0.27891 0.29364 0.0
H1795 H 0.82988 0.29829 0.30211 0.0
C1796 C 0.7673 0.20158 0.32635 0.0
C1797 C 0.79808 0.19108 0.32589 0.0
C1798 C 0.76076 0.2332 0.32688 0.0
C1799 C 0.78483 0.25496 0.32694 0.0
C1800 C 0.81561 0.24457 0.32642 0.0
H1801 H 0.78372 0.43899 0.36907 0.0
H1802 H 0.78787 0.38376 0.36312 0.0
C1803 C 0.82218 0.21291 0.32576 0.0
C1804 C 0.77771 0.28839 0.32867 0.0
H1805 H 0.79103 0.35911 0.30967 0.0
C1806 C 0.76041 0.29822 0.34361 0.0
C1807 C 0.78801 0.31049 0.31594 0.0
C1808 C 0.80494 0.30117 0.29902 0.0
C1809 C 0.75408 0.32964 0.34653 0.0
C1810 C 0.76595 0.35188 0.33438 0.0
C1811 C 0.78224 0.34202 0.31907 0.0
C1812 C 0.76304 0.3855 0.33785 0.0
C1813 C 0.73473 0.33869 0.3626 0.0
C1814 C 0.74835 0.405 0.32538 0.0
C1815 C 0.7463 0.43685 0.32864 0.0
C1816 C 0.75918 0.44973 0.34434 0.0
C1817 C 0.77387 0.42999 0.35675 0.0
C1818 C 0.77592 0.3983 0.35348 0.0
H1819 H 0.7197 0.31931 0.36709 0.0
H1820 H 0.75024 0.34482 0.37396 0.0
H1821 H 0.71992 0.35902 0.35955 0.0
H1822 H 0.73846 0.39557 0.31315 0.0
H1823 H 0.73517 0.45138 0.3187 0.0
H1824 H 0.04166 0.76725 0.18297 0.0
H1825 H 0.09698 0.76012 0.18927 0.0
H1826 H 0.10978 0.72106 0.13636 0.0
H1827 H 0.05498 0.72844 0.12991 0.0
H1828 H 0.13233 0.68417 0.16634 0.0
H1829 H 0.17385 0.80624 0.16707 0.0
H1830 H 0.1401 0.79705 0.18026 0.0
H1831 H 0.13822 0.795 0.15617 0.0
C1832 C 0.0564 0.7577 0.17258 0.0
C1833 C 0.04391 0.74814 0.156 0.0
C1834 C 0.08793 0.75357 0.17621 0.0
C1835 C 0.10733 0.74003 0.16326 0.0
C1836 C 0.09509 0.73138 0.14655 0.0
H1837 H 0.30128 0.72021 0.14652 0.0
H1838 H 0.24602 0.7319 0.14598 0.0
C1839 C 0.06375 0.73549 0.14292 0.0
C1840 C 0.14015 0.73334 0.1672 0.0
H1841 H 0.21095 0.76722 0.17207 0.0
C1842 C 0.14954 0.70227 0.16778 0.0
C1843 C 0.16237 0.7571 0.16894 0.0
C1844 C 0.15337 0.79078 0.168 0.0
C1845 C 0.18079 0.69428 0.16969 0.0
C1846 C 0.2031 0.71804 0.1712 0.0
C1847 C 0.19366 0.74912 0.17097 0.0
C1848 C 0.23655 0.71107 0.17189 0.0
C1849 C 0.18987 0.66056 0.16936 0.0
C1850 C 0.24944 0.6955 0.18665 0.0
C1851 C 0.28109 0.68884 0.18703 0.0
C1852 C 0.30036 0.6978 0.17267 0.0
C1853 C 0.28721 0.71334 0.15789 0.0
C1854 C 0.25564 0.71999 0.15754 0.0
H1855 H 0.17055 0.64547 0.16485 0.0
H1856 H 0.20997 0.65687 0.1603 0.0
H1857 H 0.19675 0.65325 0.18311 0.0
H1858 H 0.23508 0.68877 0.19795 0.0
H1859 H 0.29052 0.67732 0.19873 0.0
H1860 H 0.33151 0.28796 0.68586 0.0
H1861 H 0.31537 0.23403 0.68762 0.0
H1862 H 0.2532 0.24804 0.64296 0.0
H1863 H 0.27055 0.30138 0.64031 0.0
H1864 H 0.25886 0.21057 0.69461 0.0
H1865 H 0.2977 0.17148 0.6271 0.0
H1866 H 0.30919 0.20818 0.63652 0.0
H1867 H 0.27176 0.20381 0.62621 0.0
C1868 C 0.31495 0.27954 0.67611 0.0
C1869 C 0.30241 0.29929 0.66292 0.0
C1870 C 0.30548 0.24869 0.67728 0.0
C1871 C 0.28328 0.23692 0.66533 0.0
C1872 C 0.27078 0.25644 0.65212 0.0
H1873 H 0.20358 0.05116 0.65679 0.0
H1874 H 0.2068 0.10803 0.65748 0.0
C1875 C 0.28049 0.28715 0.65079 0.0
C1876 C 0.27277 0.2044 0.66695 0.0
H1877 H 0.26739 0.13619 0.64397 0.0
C1878 C 0.2607 0.19432 0.68353 0.0
C1879 C 0.27513 0.18324 0.65246 0.0
C1880 C 0.28942 0.1921 0.63463 0.0
C1881 C 0.25124 0.16356 0.68603 0.0
C1882 C 0.25378 0.14252 0.67159 0.0
C1883 C 0.26513 0.15266 0.65492 0.0
C1884 C 0.2481 0.10911 0.67392 0.0
C1885 C 0.2389 0.15354 0.70411 0.0
C1886 C 0.26986 0.09122 0.68325 0.0
C1887 C 0.26824 0.05902 0.68267 0.0
C1888 C 0.24471 0.04425 0.67289 0.0
C1889 C 0.22171 0.06216 0.66456 0.0
C1890 C 0.2236 0.09449 0.66489 0.0
H1891 H 0.23271 0.17362 0.71273 0.0
H1892 H 0.21819 0.1386 0.7024 0.0
H1893 H 0.25683 0.13975 0.71118 0.0
H1894 H 0.28909 0.10214 0.69011 0.0
H1895 H 0.28614 0.04557 0.68921 0.0
H1896 H 0.68698 0.24411 0.17994 0.0
H1897 H 0.7403 0.22562 0.18211 0.0
H1898 H 0.77305 0.31993 0.18113 0.0
H1899 H 0.71967 0.33849 0.17912 0.0
H1900 H 0.78347 0.23353 0.15698 0.0
H1901 H 0.82574 0.28387 0.22075 0.0
H1902 H 0.78509 0.28188 0.21523 0.0
H1903 H 0.80871 0.31291 0.20664 0.0
C1904 C 0.70555 0.26089 0.1803 0.0
C1905 C 0.69926 0.29276 0.17917 0.0
C1906 C 0.73597 0.2503 0.18169 0.0
C1907 C 0.76066 0.27137 0.182 0.0
C1908 C 0.75436 0.30325 0.18139 0.0
H1909 H 0.93722 0.26887 0.13702 0.0
H1910 H 0.88251 0.26895 0.14492 0.0
C1911 C 0.72389 0.31386 0.18014 0.0
C1912 C 0.79299 0.2601 0.18093 0.0
H1913 H 0.86504 0.27064 0.19869 0.0
C1914 C 0.80118 0.24114 0.16633 0.0
C1915 C 0.81606 0.26949 0.19329 0.0
C1916 C 0.80838 0.28788 0.20996 0.0
C1917 C 0.83209 0.23316 0.16306 0.0
C1918 C 0.85543 0.2449 0.17449 0.0
C1919 C 0.8471 0.26199 0.18981 0.0
C1920 C 0.88852 0.24288 0.16955 0.0
C1921 C 0.83958 0.21298 0.14706 0.0
C1922 C 0.91012 0.22848 0.18091 0.0
C1923 C 0.94162 0.22855 0.17643 0.0
C1924 C 0.95188 0.24349 0.1607 0.0
C1925 C 0.93004 0.25749 0.14931 0.0
C1926 C 0.89873 0.25726 0.15371 0.0
H1927 H 0.81969 0.19791 0.14344 0.0
H1928 H 0.84474 0.2279 0.13527 0.0
H1929 H 0.86007 0.19818 0.14973 0.0
H1930 H 0.90264 0.2175 0.19328 0.0
H1931 H 0.95799 0.21783 0.18552 0.0
H1932 H 0.68647 0.96538 0.65814 0.0
H1933 H 0.67859 0.91007 0.66298 0.0
H1934 H 0.77728 0.89544 0.66103 0.0
H1935 H 0.78523 0.95123 0.65643 0.0
H1936 H 0.69437 0.86584 0.63901 0.0
H1937 H 0.7522 0.84365 0.70449 0.0
H1938 H 0.74262 0.88214 0.69684 0.0
H1939 H 0.77616 0.86266 0.68811 0.0
C1940 C 0.7065 0.9504 0.65893 0.0
C1941 C 0.73645 0.96248 0.65677 0.0
C1942 C 0.70199 0.91884 0.66174 0.0
C1943 C 0.72732 0.89861 0.66243 0.0
C1944 C 0.75741 0.91069 0.66087 0.0
H1945 H 0.71293 0.70217 0.63914 0.0
H1946 H 0.72431 0.75745 0.63869 0.0
C1947 C 0.76195 0.94249 0.65821 0.0
C1948 C 0.72172 0.86476 0.66325 0.0
H1949 H 0.73568 0.79954 0.68792 0.0
C1950 C 0.70336 0.85137 0.64973 0.0
C1951 C 0.73323 0.84598 0.67733 0.0
C1952 C 0.75192 0.85931 0.69262 0.0
C1953 C 0.69623 0.81972 0.64986 0.0
C1954 C 0.70838 0.80076 0.66367 0.0
C1955 C 0.72659 0.81412 0.67728 0.0
C1956 C 0.70222 0.76704 0.66423 0.0
C1957 C 0.6752 0.80704 0.63541 0.0
C1958 C 0.68662 0.75393 0.67894 0.0
C1959 C 0.68038 0.72218 0.67936 0.0
C1960 C 0.68978 0.7029 0.66509 0.0
C1961 C 0.70556 0.7162 0.65042 0.0
C1962 C 0.71184 0.74789 0.65005 0.0
H1963 H 0.66136 0.82561 0.62893 0.0
H1964 H 0.68942 0.79583 0.62482 0.0
H1965 H 0.65911 0.78944 0.641 0.0
H1966 H 0.67912 0.76831 0.69007 0.0
H1967 H 0.66865 0.71272 0.69099 0.0
loop_
_geom_bond_atom_site_label_1
_geom_bond_atom_site_label_2
_geom_bond_distance
_geom_bond_site_symmetry_2
_ccdc_geom_bond_type
Co0 N4 2.148 . S
Co0 N10 2.128 . S
Co0 N20 2.194 . S
Co0 O25 2.351 . S
Co0 O26 2.155 . S
Co0 O27 2.096 . S
C1 N4 1.301 . S
C1 N5 1.328 . S
C1 H6 0.930 . S
C2 C3 1.333 . S
C2 N4 1.317 . S
C2 H7 0.930 . S
C3 C2 1.333 . S
C3 N5 1.350 . S
C3 H29 0.931 . S
N4 Co0 2.148 . S
N4 C1 1.301 . S
N4 C2 1.317 . S
N5 C1 1.328 . S
N5 C3 1.350 . S
H6 C1 0.930 . S
H7 C2 0.930 . S
C8 O9 1.224 . S
C8 O27 1.247 . S
O9 C8 1.224 . S
N10 Co0 2.128 . S
N10 C11 1.355 . S
N10 C13 1.311 1_455 S
C11 N10 1.355 . S
C11 C12 1.363 1_455 S
C11 H23 0.929 . S
C12 C11 1.363 1_655 S
C12 N14 1.375 . S
C12 H30 0.931 . S
C13 N10 1.311 1_655 S
C13 N14 1.347 . S
C13 H24 0.929 . S
N14 C12 1.375 . S
N14 C13 1.347 . S
C15 C18 1.365 . S
C15 N20 1.328 . S
C15 H21 0.929 . S
C16 C17 1.362 . S
C16 C19 1.378 . S
C16 H31 0.929 . S
C17 C16 1.362 . S
C17 C18 1.366 . S
C18 C15 1.365 . S
C18 C17 1.366 . S
C18 H32 0.930 . S
C19 C16 1.378 . S
C19 N20 1.315 . S
C19 H22 0.930 . S
N20 Co0 2.194 . S
N20 C15 1.328 . S
N20 C19 1.315 . S
H21 C15 0.929 . S
H22 C19 0.930 . S
H23 C11 0.929 . S
H24 C13 0.929 . S
O25 Co0 2.351 . S
O25 C28 1.244 . S
O26 Co0 2.155 . S
O26 C28 1.240 . S
O27 Co0 2.096 . S
O27 C8 1.247 . S
C28 O25 1.244 . S
C28 O26 1.240 . S
H29 C3 0.931 . S
H30 C12 0.931 . S
H31 C16 0.929 . S
H32 C18 0.930 . S
Co33 N37 2.148 . S
Co33 N43 2.128 . S
Co33 N53 2.194 . S
Co33 O58 2.351 . S
Co33 O59 2.155 . S
Co33 O60 2.096 . S
C34 N37 1.301 . S
C34 N38 1.328 . S
C34 H39 0.930 . S
C35 C36 1.333 . S
C35 N37 1.317 . S
C35 H40 0.930 . S
C36 C35 1.333 . S
C36 N38 1.350 . S
C36 H62 0.931 . S
N37 Co33 2.148 . S
N37 C34 1.301 . S
N37 C35 1.317 . S
N38 C34 1.328 . S
N38 C36 1.350 . S
H39 C34 0.930 . S
H40 C35 0.930 . S
C41 O42 1.224 . S
C41 O60 1.247 . S
O42 C41 1.224 . S
N43 Co33 2.128 . S
N43 C44 1.355 . S
N43 C46 1.311 1_545 S
C44 N43 1.355 . S
C44 C45 1.363 1_545 S
C44 H56 0.929 . S
C45 C44 1.363 1_565 S
C45 N47 1.375 . S
C45 H63 0.931 . S
C46 N43 1.311 1_565 S
C46 N47 1.347 . S
C46 H57 0.929 . S
N47 C45 1.375 . S
N47 C46 1.347 . S
C48 C51 1.365 . S
C48 N53 1.328 . S
C48 H54 0.929 . S
C49 C50 1.362 . S
C49 C52 1.378 . S
C49 H64 0.929 . S
C50 C49 1.362 . S
C50 C51 1.366 . S
C51 C48 1.365 . S
C51 C50 1.366 . S
C51 H65 0.930 . S
C52 C49 1.378 . S
C52 N53 1.315 . S
C52 H55 0.930 . S
N53 Co33 2.194 . S
N53 C48 1.328 . S
N53 C52 1.315 . S
H54 C48 0.929 . S
H55 C52 0.930 . S
H56 C44 0.929 . S
H57 C46 0.929 . S
O58 Co33 2.351 . S
O58 C61 1.244 . S
O59 Co33 2.155 . S
O59 C61 1.240 . S
O60 Co33 2.096 . S
O60 C41 1.247 . S
C61 O58 1.244 . S
C61 O59 1.240 . S
H62 C36 0.931 . S
H63 C45 0.931 . S
H64 C49 0.929 . S
H65 C51 0.930 . S
Co66 N70 2.148 . S
Co66 N76 2.128 . S
Co66 N86 2.194 . S
Co66 O91 2.351 . S
Co66 O92 2.155 . S
Co66 O93 2.096 . S
C67 N70 1.301 . S
C67 N71 1.328 . S
C67 H72 0.930 . S
C68 C69 1.333 . S
C68 N70 1.317 . S
C68 H73 0.930 . S
C69 C68 1.333 . S
C69 N71 1.350 . S
C69 H95 0.931 . S
N70 Co66 2.148 . S
N70 C67 1.301 . S
N70 C68 1.317 . S
N71 C67 1.328 . S
N71 C69 1.350 . S
H72 C67 0.930 . S
H73 C68 0.930 . S
C74 O75 1.224 . S
C74 O93 1.247 . S
O75 C74 1.224 . S
N76 Co66 2.128 . S
N76 C77 1.355 . S
N76 C79 1.311 1_655 S
C77 N76 1.355 . S
C77 C78 1.363 1_655 S
C77 H89 0.929 . S
C78 C77 1.363 1_455 S
C78 N80 1.375 . S
C78 H96 0.931 . S
C79 N76 1.311 1_455 S
C79 N80 1.347 . S
C79 H90 0.929 . S
N80 C78 1.375 . S
N80 C79 1.347 . S
C81 C84 1.365 . S
C81 N86 1.328 . S
C81 H87 0.929 . S
C82 C83 1.362 . S
C82 C85 1.378 . S
C82 H97 0.929 . S
C83 C82 1.362 . S
C83 C84 1.366 . S
C84 C81 1.365 . S
C84 C83 1.366 . S
C84 H98 0.930 . S
C85 C82 1.378 . S
C85 N86 1.315 . S
C85 H88 0.930 . S
N86 Co66 2.194 . S
N86 C81 1.328 . S
N86 C85 1.315 . S
H87 C81 0.929 . S
H88 C85 0.930 . S
H89 C77 0.929 . S
H90 C79 0.929 . S
O91 Co66 2.351 . S
O91 C94 1.244 . S
O92 Co66 2.155 . S
O92 C94 1.240 . S
O93 Co66 2.096 . S
O93 C74 1.247 . S
C94 O91 1.244 . S
C94 O92 1.240 . S
H95 C69 0.931 . S
H96 C78 0.931 . S
H97 C82 0.929 . S
H98 C84 0.930 . S
Co99 N103 2.148 . S
Co99 N109 2.128 . S
Co99 N119 2.194 . S
Co99 O124 2.351 . S
Co99 O125 2.155 . S
Co99 O126 2.096 . S
C100 N103 1.301 . S
C100 N104 1.328 . S
C100 H105 0.930 . S
C101 C102 1.333 . S
C101 N103 1.317 . S
C101 H106 0.930 . S
C102 C101 1.333 . S
C102 N104 1.350 . S
C102 H128 0.931 . S
N103 Co99 2.148 . S
N103 C100 1.301 . S
N103 C101 1.317 . S
N104 C100 1.328 . S
N104 C102 1.350 . S
H105 C100 0.930 . S
H106 C101 0.930 . S
C107 O108 1.224 . S
C107 O126 1.247 . S
O108 C107 1.224 . S
N109 Co99 2.128 . S
N109 C110 1.355 . S
N109 C112 1.311 1_565 S
C110 N109 1.355 . S
C110 C111 1.363 1_565 S
C110 H122 0.929 . S
C111 C110 1.363 1_545 S
C111 N113 1.375 . S
C111 H129 0.931 . S
C112 N109 1.311 1_545 S
C112 N113 1.347 . S
C112 H123 0.929 . S
N113 C111 1.375 . S
N113 C112 1.347 . S
C114 C117 1.365 . S
C114 N119 1.328 . S
C114 H120 0.929 . S
C115 C116 1.362 . S
C115 C118 1.378 . S
C115 H130 0.929 . S
C116 C115 1.362 . S
C116 C117 1.366 . S
C117 C114 1.365 . S
C117 C116 1.366 . S
C117 H131 0.930 . S
C118 C115 1.378 . S
C118 N119 1.315 . S
C118 H121 0.930 . S
N119 Co99 2.194 . S
N119 C114 1.328 . S
N119 C118 1.315 . S
H120 C114 0.929 . S
H121 C118 0.930 . S
H122 C110 0.929 . S
H123 C112 0.929 . S
O124 Co99 2.351 . S
O124 C127 1.244 . S
O125 Co99 2.155 . S
O125 C127 1.240 . S
O126 Co99 2.096 . S
O126 C107 1.247 . S
C127 O124 1.244 . S
C127 O125 1.240 . S
H128 C102 0.931 . S
H129 C111 0.931 . S
H130 C115 0.929 . S
H131 C117 0.930 . S
Co132 N136 2.148 . S
Co132 N142 2.128 . S
Co132 N152 2.194 . S
Co132 O157 2.351 . S
Co132 O158 2.155 . S
Co132 O159 2.096 . S
C133 N136 1.301 . S
C133 N137 1.328 . S
C133 H138 0.930 . S
C134 C135 1.333 . S
C134 N136 1.317 . S
C134 H139 0.930 . S
C135 C134 1.333 . S
C135 N137 1.350 . S
C135 H161 0.931 . S
N136 Co132 2.148 . S
N136 C133 1.301 . S
N136 C134 1.317 . S
N137 C133 1.328 . S
N137 C135 1.350 . S
H138 C133 0.930 . S
H139 C134 0.930 . S
C140 O141 1.224 . S
C140 O159 1.247 . S
O141 C140 1.224 . S
N142 Co132 2.128 . S
N142 C143 1.355 . S
N142 C145 1.311 . S
C143 N142 1.355 . S
C143 C144 1.363 . S
C143 H155 0.929 . S
C144 C143 1.363 . S
C144 N146 1.375 . S
C144 H162 0.931 . S
C145 N142 1.311 . S
C145 N146 1.347 . S
C145 H156 0.929 . S
N146 C144 1.375 . S
N146 C145 1.347 . S
C147 C150 1.365 . S
C147 N152 1.328 . S
C147 H153 0.929 . S
C148 C149 1.362 . S
C148 C151 1.378 . S
C148 H163 0.929 . S
C149 C148 1.362 . S
C149 C150 1.366 . S
C150 C147 1.365 . S
C150 C149 1.366 . S
C150 H164 0.930 . S
C151 C148 1.378 . S
C151 N152 1.315 . S
C151 H154 0.930 . S
N152 Co132 2.194 . S
N152 C147 1.328 . S
N152 C151 1.315 . S
H153 C147 0.929 . S
H154 C151 0.930 . S
H155 C143 0.929 . S
H156 C145 0.929 . S
O157 Co132 2.351 . S
O157 C160 1.244 . S
O158 Co132 2.155 . S
O158 C160 1.240 . S
O159 Co132 2.096 . S
O159 C140 1.247 . S
C160 O157 1.244 . S
C160 O158 1.240 . S
H161 C135 0.931 . S
H162 C144 0.931 . S
H163 C148 0.929 . S
H164 C150 0.930 . S
Co165 N169 2.148 . S
Co165 N175 2.128 . S
Co165 N185 2.194 . S
Co165 O190 2.351 . S
Co165 O191 2.155 . S
Co165 O192 2.096 . S
C166 N169 1.301 . S
C166 N170 1.328 . S
C166 H171 0.930 . S
C167 C168 1.333 . S
C167 N169 1.317 . S
C167 H172 0.930 . S
C168 C167 1.333 . S
C168 N170 1.350 . S
C168 H194 0.931 . S
N169 Co165 2.148 . S
N169 C166 1.301 . S
N169 C167 1.317 . S
N170 C166 1.328 . S
N170 C168 1.350 . S
H171 C166 0.930 . S
H172 C167 0.930 . S
C173 O174 1.224 . S
C173 O192 1.247 . S
O174 C173 1.224 . S
N175 Co165 2.128 . S
N175 C176 1.355 . S
N175 C178 1.311 . S
C176 N175 1.355 . S
C176 C177 1.363 . S
C176 H188 0.929 . S
C177 C176 1.363 . S
C177 N179 1.375 . S
C177 H195 0.931 . S
C178 N175 1.311 . S
C178 N179 1.347 . S
C178 H189 0.929 . S
N179 C177 1.375 . S
N179 C178 1.347 . S
C180 C183 1.365 . S
C180 N185 1.328 . S
C180 H186 0.929 . S
C181 C182 1.362 . S
C181 C184 1.378 . S
C181 H196 0.929 . S
C182 C181 1.362 . S
C182 C183 1.366 . S
C183 C180 1.365 . S
C183 C182 1.366 . S
C183 H197 0.930 . S
C184 C181 1.378 . S
C184 N185 1.315 . S
C184 H187 0.930 . S
N185 Co165 2.194 . S
N185 C180 1.328 . S
N185 C184 1.315 . S
H186 C180 0.929 . S
H187 C184 0.930 . S
H188 C176 0.929 . S
H189 C178 0.929 . S
O190 Co165 2.351 . S
O190 C193 1.244 . S
O191 Co165 2.155 . S
O191 C193 1.240 . S
O192 Co165 2.096 . S
O192 C173 1.247 . S
C193 O190 1.244 . S
C193 O191 1.240 . S
H194 C168 0.931 . S
H195 C177 0.931 . S
H196 C181 0.929 . S
H197 C183 0.930 . S
Co198 N202 2.148 . S
Co198 N208 2.128 . S
Co198 N218 2.194 . S
Co198 O223 2.351 . S
Co198 O224 2.155 . S
Co198 O225 2.096 . S
C199 N202 1.301 . S
C199 N203 1.328 . S
C199 H204 0.930 . S
C200 C201 1.333 . S
C200 N202 1.317 . S
C200 H205 0.930 . S
C201 C200 1.333 . S
C201 N203 1.350 . S
C201 H227 0.931 . S
N202 Co198 2.148 . S
N202 C199 1.301 . S
N202 C200 1.317 . S
N203 C199 1.328 . S
N203 C201 1.350 . S
H204 C199 0.930 . S
H205 C200 0.930 . S
C206 O207 1.224 . S
C206 O225 1.247 . S
O207 C206 1.224 . S
N208 Co198 2.128 . S
N208 C209 1.355 . S
N208 C211 1.311 . S
C209 N208 1.355 . S
C209 C210 1.363 . S
C209 H221 0.929 . S
C210 C209 1.363 . S
C210 N212 1.375 . S
C210 H228 0.931 . S
C211 N208 1.311 . S
C211 N212 1.347 . S
C211 H222 0.929 . S
N212 C210 1.375 . S
N212 C211 1.347 . S
C213 C216 1.365 . S
C213 N218 1.328 . S
C213 H219 0.929 . S
C214 C215 1.362 . S
C214 C217 1.378 . S
C214 H229 0.929 . S
C215 C214 1.362 . S
C215 C216 1.366 . S
C216 C213 1.365 . S
C216 C215 1.366 . S
C216 H230 0.930 . S
C217 C214 1.378 . S
C217 N218 1.315 . S
C217 H220 0.930 . S
N218 Co198 2.194 . S
N218 C213 1.328 . S
N218 C217 1.315 . S
H219 C213 0.929 . S
H220 C217 0.930 . S
H221 C209 0.929 . S
H222 C211 0.929 . S
O223 Co198 2.351 . S
O223 C226 1.244 . S
O224 Co198 2.155 . S
O224 C226 1.240 . S
O225 Co198 2.096 . S
O225 C206 1.247 . S
C226 O223 1.244 . S
C226 O224 1.240 . S
H227 C201 0.931 . S
H228 C210 0.931 . S
H229 C214 0.929 . S
H230 C216 0.930 . S
Co231 N235 2.148 . S
Co231 N241 2.128 . S
Co231 N251 2.194 . S
Co231 O256 2.351 . S
Co231 O257 2.155 . S
Co231 O258 2.096 . S
C232 N235 1.301 . S
C232 N236 1.328 . S
C232 H237 0.930 . S
C233 C234 1.333 . S
C233 N235 1.317 . S
C233 H238 0.930 . S
C234 C233 1.333 . S
C234 N236 1.350 . S
C234 H260 0.931 . S
N235 Co231 2.148 . S
N235 C232 1.301 . S
N235 C233 1.317 . S
N236 C232 1.328 . S
N236 C234 1.350 . S
H237 C232 0.930 . S
H238 C233 0.930 . S
C239 O240 1.224 . S
C239 O258 1.247 . S
O240 C239 1.224 . S
N241 Co231 2.128 . S
N241 C242 1.355 . S
N241 C244 1.311 . S
C242 N241 1.355 . S
C242 C243 1.363 . S
C242 H254 0.929 . S
C243 C242 1.363 . S
C243 N245 1.375 . S
C243 H261 0.931 . S
C244 N241 1.311 . S
C244 N245 1.347 . S
C244 H255 0.929 . S
N245 C243 1.375 . S
N245 C244 1.347 . S
C246 C249 1.365 . S
C246 N251 1.328 . S
C246 H252 0.929 . S
C247 C248 1.362 . S
C247 C250 1.378 . S
C247 H262 0.929 . S
C248 C247 1.362 . S
C248 C249 1.366 . S
C249 C246 1.365 . S
C249 C248 1.366 . S
C249 H263 0.930 . S
C250 C247 1.378 . S
C250 N251 1.315 . S
C250 H253 0.930 . S
N251 Co231 2.194 . S
N251 C246 1.328 . S
N251 C250 1.315 . S
H252 C246 0.929 . S
H253 C250 0.930 . S
H254 C242 0.929 . S
H255 C244 0.929 . S
O256 Co231 2.351 . S
O256 C259 1.244 . S
O257 Co231 2.155 . S
O257 C259 1.240 . S
O258 Co231 2.096 . S
O258 C239 1.247 . S
C259 O256 1.244 . S
C259 O257 1.240 . S
H260 C234 0.931 . S
H261 C243 0.931 . S
H262 C247 0.929 . S
H263 C249 0.930 . S
Co264 N268 2.148 . S
Co264 N274 2.128 . S
Co264 N284 2.194 . S
Co264 O289 2.351 . S
Co264 O290 2.155 . S
Co264 O291 2.096 . S
C265 N268 1.301 . S
C265 N269 1.328 . S
C265 H270 0.930 . S
C266 C267 1.333 . S
C266 N268 1.317 . S
C266 H271 0.930 . S
C267 C266 1.333 . S
C267 N269 1.350 . S
C267 H293 0.931 . S
N268 Co264 2.148 . S
N268 C265 1.301 . S
N268 C266 1.317 . S
N269 C265 1.328 . S
N269 C267 1.350 . S
H270 C265 0.930 . S
H271 C266 0.930 . S
C272 O273 1.224 . S
C272 O291 1.247 . S
O273 C272 1.224 . S
N274 Co264 2.128 . S
N274 C275 1.355 . S
N274 C277 1.311 1_655 S
C275 N274 1.355 . S
C275 C276 1.363 1_655 S
C275 H287 0.929 . S
C276 C275 1.363 1_455 S
C276 N278 1.375 . S
C276 H294 0.931 . S
C277 N274 1.311 1_455 S
C277 N278 1.347 . S
C277 H288 0.929 . S
N278 C276 1.375 . S
N278 C277 1.347 . S
C279 C282 1.365 . S
C279 N284 1.328 . S
C279 H285 0.929 . S
C280 C281 1.362 . S
C280 C283 1.378 . S
C280 H295 0.929 . S
C281 C280 1.362 . S
C281 C282 1.366 . S
C282 C279 1.365 . S
C282 C281 1.366 . S
C282 H296 0.930 . S
C283 C280 1.378 . S
C283 N284 1.315 . S
C283 H286 0.930 . S
N284 Co264 2.194 . S
N284 C279 1.328 . S
N284 C283 1.315 . S
H285 C279 0.929 . S
H286 C283 0.930 . S
H287 C275 0.929 . S
H288 C277 0.929 . S
O289 Co264 2.351 . S
O289 C292 1.244 . S
O290 Co264 2.155 . S
O290 C292 1.240 . S
O291 Co264 2.096 . S
O291 C272 1.247 . S
C292 O289 1.244 . S
C292 O290 1.240 . S
H293 C267 0.931 . S
H294 C276 0.931 . S
H295 C280 0.929 . S
H296 C282 0.930 . S
Co297 N301 2.148 . S
Co297 N307 2.128 . S
Co297 N317 2.194 . S
Co297 O322 2.351 . S
Co297 O323 2.155 . S
Co297 O324 2.096 . S
C298 N301 1.301 . S
C298 N302 1.328 . S
C298 H303 0.930 . S
C299 C300 1.333 . S
C299 N301 1.317 . S
C299 H304 0.930 . S
C300 C299 1.333 . S
C300 N302 1.350 . S
C300 H326 0.931 . S
N301 Co297 2.148 . S
N301 C298 1.301 . S
N301 C299 1.317 . S
N302 C298 1.328 . S
N302 C300 1.350 . S
H303 C298 0.930 . S
H304 C299 0.930 . S
C305 O306 1.224 . S
C305 O324 1.247 . S
O306 C305 1.224 . S
N307 Co297 2.128 . S
N307 C308 1.355 . S
N307 C310 1.311 1_565 S
C308 N307 1.355 . S
C308 C309 1.363 1_565 S
C308 H320 0.929 . S
C309 C308 1.363 1_545 S
C309 N311 1.375 . S
C309 H327 0.931 . S
C310 N307 1.311 1_545 S
C310 N311 1.347 . S
C310 H321 0.929 . S
N311 C309 1.375 . S
N311 C310 1.347 . S
C312 C315 1.365 . S
C312 N317 1.328 . S
C312 H318 0.929 . S
C313 C314 1.362 . S
C313 C316 1.378 . S
C313 H328 0.929 . S
C314 C313 1.362 . S
C314 C315 1.366 . S
C315 C312 1.365 . S
C315 C314 1.366 . S
C315 H329 0.930 . S
C316 C313 1.378 . S
C316 N317 1.315 . S
C316 H319 0.930 . S
N317 Co297 2.194 . S
N317 C312 1.328 . S
N317 C316 1.315 . S
H318 C312 0.929 . S
H319 C316 0.930 . S
H320 C308 0.929 . S
H321 C310 0.929 . S
O322 Co297 2.351 . S
O322 C325 1.244 . S
O323 Co297 2.155 . S
O323 C325 1.240 . S
O324 Co297 2.096 . S
O324 C305 1.247 . S
C325 O322 1.244 . S
C325 O323 1.240 . S
H326 C300 0.931 . S
H327 C309 0.931 . S
H328 C313 0.929 . S
H329 C315 0.930 . S
Co330 N334 2.148 . S
Co330 N340 2.128 . S
Co330 N350 2.194 . S
Co330 O355 2.351 . S
Co330 O356 2.155 . S
Co330 O357 2.096 . S
C331 N334 1.301 . S
C331 N335 1.328 . S
C331 H336 0.930 . S
C332 C333 1.333 . S
C332 N334 1.317 . S
C332 H337 0.930 . S
C333 C332 1.333 . S
C333 N335 1.350 . S
C333 H359 0.931 . S
N334 Co330 2.148 . S
N334 C331 1.301 . S
N334 C332 1.317 . S
N335 C331 1.328 . S
N335 C333 1.350 . S
H336 C331 0.930 . S
H337 C332 0.930 . S
C338 O339 1.224 . S
C338 O357 1.247 . S
O339 C338 1.224 . S
N340 Co330 2.128 . S
N340 C341 1.355 . S
N340 C343 1.311 1_455 S
C341 N340 1.355 . S
C341 C342 1.363 1_455 S
C341 H353 0.929 . S
C342 C341 1.363 1_655 S
C342 N344 1.375 . S
C342 H360 0.931 . S
C343 N340 1.311 1_655 S
C343 N344 1.347 . S
C343 H354 0.929 . S
N344 C342 1.375 . S
N344 C343 1.347 . S
C345 C348 1.365 . S
C345 N350 1.328 . S
C345 H351 0.929 . S
C346 C347 1.362 . S
C346 C349 1.378 . S
C346 H361 0.929 . S
C347 C346 1.362 . S
C347 C348 1.366 . S
C348 C345 1.365 . S
C348 C347 1.366 . S
C348 H362 0.930 . S
C349 C346 1.378 . S
C349 N350 1.315 . S
C349 H352 0.930 . S
N350 Co330 2.194 . S
N350 C345 1.328 . S
N350 C349 1.315 . S
H351 C345 0.929 . S
H352 C349 0.930 . S
H353 C341 0.929 . S
H354 C343 0.929 . S
O355 Co330 2.351 . S
O355 C358 1.244 . S
O356 Co330 2.155 . S
O356 C358 1.240 . S
O357 Co330 2.096 . S
O357 C338 1.247 . S
C358 O355 1.244 . S
C358 O356 1.240 . S
H359 C333 0.931 . S
H360 C342 0.931 . S
H361 C346 0.929 . S
H362 C348 0.930 . S
Co363 N367 2.148 . S
Co363 N373 2.128 . S
Co363 N383 2.194 . S
Co363 O388 2.351 . S
Co363 O389 2.155 . S
Co363 O390 2.096 . S
C364 N367 1.301 . S
C364 N368 1.328 . S
C364 H369 0.930 . S
C365 C366 1.333 . S
C365 N367 1.317 . S
C365 H370 0.930 . S
C366 C365 1.333 . S
C366 N368 1.350 . S
C366 H392 0.931 . S
N367 Co363 2.148 . S
N367 C364 1.301 . S
N367 C365 1.317 . S
N368 C364 1.328 . S
N368 C366 1.350 . S
H369 C364 0.930 . S
H370 C365 0.930 . S
C371 O372 1.224 . S
C371 O390 1.247 . S
O372 C371 1.224 . S
N373 Co363 2.128 . S
N373 C374 1.355 . S
N373 C376 1.311 1_545 S
C374 N373 1.355 . S
C374 C375 1.363 1_545 S
C374 H386 0.929 . S
C375 C374 1.363 1_565 S
C375 N377 1.375 . S
C375 H393 0.931 . S
C376 N373 1.311 1_565 S
C376 N377 1.347 . S
C376 H387 0.929 . S
N377 C375 1.375 . S
N377 C376 1.347 . S
C378 C381 1.365 . S
C378 N383 1.328 . S
C378 H384 0.929 . S
C379 C380 1.362 . S
C379 C382 1.378 . S
C379 H394 0.929 . S
C380 C379 1.362 . S
C380 C381 1.366 . S
C381 C378 1.365 . S
C381 C380 1.366 . S
C381 H395 0.930 . S
C382 C379 1.378 . S
C382 N383 1.315 . S
C382 H385 0.930 . S
N383 Co363 2.194 . S
N383 C378 1.328 . S
N383 C382 1.315 . S
H384 C378 0.929 . S
H385 C382 0.930 . S
H386 C374 0.929 . S
H387 C376 0.929 . S
O388 Co363 2.351 . S
O388 C391 1.244 . S
O389 Co363 2.155 . S
O389 C391 1.240 . S
O390 Co363 2.096 . S
O390 C371 1.247 . S
C391 O388 1.244 . S
C391 O389 1.240 . S
H392 C366 0.931 . S
H393 C375 0.931 . S
H394 C379 0.929 . S
H395 C381 0.930 . S
Co396 N400 2.148 . S
Co396 N406 2.128 . S
Co396 N416 2.194 . S
Co396 O421 2.351 . S
Co396 O422 2.155 . S
Co396 O423 2.096 . S
C397 N400 1.301 . S
C397 N401 1.328 . S
C397 H402 0.930 . S
C398 C399 1.333 . S
C398 N400 1.317 . S
C398 H403 0.930 . S
C399 C398 1.333 . S
C399 N401 1.350 . S
C399 H425 0.931 . S
N400 Co396 2.148 . S
N400 C397 1.301 . S
N400 C398 1.317 . S
N401 C397 1.328 . S
N401 C399 1.350 . S
H402 C397 0.930 . S
H403 C398 0.930 . S
C404 O405 1.224 . S
C404 O423 1.247 . S
O405 C404 1.224 . S
N406 Co396 2.128 . S
N406 C407 1.355 . S
N406 C409 1.311 . S
C407 N406 1.355 . S
C407 C408 1.363 . S
C407 H419 0.929 . S
C408 C407 1.363 . S
C408 N410 1.375 . S
C408 H426 0.931 . S
C409 N406 1.311 . S
C409 N410 1.347 . S
C409 H420 0.929 . S
N410 C408 1.375 . S
N410 C409 1.347 . S
C411 C414 1.365 . S
C411 N416 1.328 . S
C411 H417 0.929 . S
C412 C413 1.362 . S
C412 C415 1.378 . S
C412 H427 0.929 . S
C413 C412 1.362 . S
C413 C414 1.366 . S
C414 C411 1.365 . S
C414 C413 1.366 . S
C414 H428 0.930 . S
C415 C412 1.378 . S
C415 N416 1.315 . S
C415 H418 0.930 . S
N416 Co396 2.194 . S
N416 C411 1.328 . S
N416 C415 1.315 . S
H417 C411 0.929 . S
H418 C415 0.930 . S
H419 C407 0.929 . S
H420 C409 0.929 . S
O421 Co396 2.351 . S
O421 C424 1.244 . S
O422 Co396 2.155 . S
O422 C424 1.240 . S
O423 Co396 2.096 . S
O423 C404 1.247 . S
C424 O421 1.244 . S
C424 O422 1.240 . S
H425 C399 0.931 . S
H426 C408 0.931 . S
H427 C412 0.929 . S
H428 C414 0.930 . S
Co429 N433 2.148 . S
Co429 N439 2.128 . S
Co429 N449 2.194 . S
Co429 O454 2.351 . S
Co429 O455 2.155 . S
Co429 O456 2.096 . S
C430 N433 1.301 . S
C430 N434 1.328 . S
C430 H435 0.930 . S
C431 C432 1.333 . S
C431 N433 1.317 . S
C431 H436 0.930 . S
C432 C431 1.333 . S
C432 N434 1.350 . S
C432 H458 0.931 . S
N433 Co429 2.148 . S
N433 C430 1.301 . S
N433 C431 1.317 . S
N434 C430 1.328 . S
N434 C432 1.350 . S
H435 C430 0.930 . S
H436 C431 0.930 . S
C437 O438 1.224 . S
C437 O456 1.247 . S
O438 C437 1.224 . S
N439 Co429 2.128 . S
N439 C440 1.355 . S
N439 C442 1.311 . S
C440 N439 1.355 . S
C440 C441 1.363 . S
C440 H452 0.929 . S
C441 C440 1.363 . S
C441 N443 1.375 . S
C441 H459 0.931 . S
C442 N439 1.311 . S
C442 N443 1.347 . S
C442 H453 0.929 . S
N443 C441 1.375 . S
N443 C442 1.347 . S
C444 C447 1.365 . S
C444 N449 1.328 . S
C444 H450 0.929 . S
C445 C446 1.362 . S
C445 C448 1.378 . S
C445 H460 0.929 . S
C446 C445 1.362 . S
C446 C447 1.366 . S
C447 C444 1.365 . S
C447 C446 1.366 . S
C447 H461 0.930 . S
C448 C445 1.378 . S
C448 N449 1.315 . S
C448 H451 0.930 . S
N449 Co429 2.194 . S
N449 C444 1.328 . S
N449 C448 1.315 . S
H450 C444 0.929 . S
H451 C448 0.930 . S
H452 C440 0.929 . S
H453 C442 0.929 . S
O454 Co429 2.351 . S
O454 C457 1.244 . S
O455 Co429 2.155 . S
O455 C457 1.240 . S
O456 Co429 2.096 . S
O456 C437 1.247 . S
C457 O454 1.244 . S
C457 O455 1.240 . S
H458 C432 0.931 . S
H459 C441 0.931 . S
H460 C445 0.929 . S
H461 C447 0.930 . S
Co462 N466 2.148 . S
Co462 N472 2.128 . S
Co462 N482 2.194 . S
Co462 O487 2.351 . S
Co462 O488 2.155 . S
Co462 O489 2.096 . S
C463 N466 1.301 . S
C463 N467 1.328 . S
C463 H468 0.930 . S
C464 C465 1.333 . S
C464 N466 1.317 . S
C464 H469 0.930 . S
C465 C464 1.333 . S
C465 N467 1.350 . S
C465 H491 0.931 . S
N466 Co462 2.148 . S
N466 C463 1.301 . S
N466 C464 1.317 . S
N467 C463 1.328 . S
N467 C465 1.350 . S
H468 C463 0.930 . S
H469 C464 0.930 . S
C470 O471 1.224 . S
C470 O489 1.247 . S
O471 C470 1.224 . S
N472 Co462 2.128 . S
N472 C473 1.355 . S
N472 C475 1.311 . S
C473 N472 1.355 . S
C473 C474 1.363 . S
C473 H485 0.929 . S
C474 C473 1.363 . S
C474 N476 1.375 . S
C474 H492 0.931 . S
C475 N472 1.311 . S
C475 N476 1.347 . S
C475 H486 0.929 . S
N476 C474 1.375 . S
N476 C475 1.347 . S
C477 C480 1.365 . S
C477 N482 1.328 . S
C477 H483 0.929 . S
C478 C479 1.362 . S
C478 C481 1.378 . S
C478 H493 0.929 . S
C479 C478 1.362 . S
C479 C480 1.366 . S
C480 C477 1.365 . S
C480 C479 1.366 . S
C480 H494 0.930 . S
C481 C478 1.378 . S
C481 N482 1.315 . S
C481 H484 0.930 . S
N482 Co462 2.194 . S
N482 C477 1.328 . S
N482 C481 1.315 . S
H483 C477 0.929 . S
H484 C481 0.930 . S
H485 C473 0.929 . S
H486 C475 0.929 . S
O487 Co462 2.351 . S
O487 C490 1.244 . S
O488 Co462 2.155 . S
O488 C490 1.240 . S
O489 Co462 2.096 . S
O489 C470 1.247 . S
C490 O487 1.244 . S
C490 O488 1.240 . S
H491 C465 0.931 . S
H492 C474 0.931 . S
H493 C478 0.929 . S
H494 C480 0.930 . S
Co495 N499 2.148 . S
Co495 N505 2.128 . S
Co495 N515 2.194 . S
Co495 O520 2.351 . S
Co495 O521 2.155 . S
Co495 O522 2.096 . S
C496 N499 1.301 . S
C496 N500 1.328 . S
C496 H501 0.930 . S
C497 C498 1.333 . S
C497 N499 1.317 . S
C497 H502 0.930 . S
C498 C497 1.333 . S
C498 N500 1.350 . S
C498 H524 0.931 . S
N499 Co495 2.148 . S
N499 C496 1.301 . S
N499 C497 1.317 . S
N500 C496 1.328 . S
N500 C498 1.350 . S
H501 C496 0.930 . S
H502 C497 0.930 . S
C503 O504 1.224 . S
C503 O522 1.247 . S
O504 C503 1.224 . S
N505 Co495 2.128 . S
N505 C506 1.355 . S
N505 C508 1.311 . S
C506 N505 1.355 . S
C506 C507 1.363 . S
C506 H518 0.929 . S
C507 C506 1.363 . S
C507 N509 1.375 . S
C507 H525 0.931 . S
C508 N505 1.311 . S
C508 N509 1.347 . S
C508 H519 0.929 . S
N509 C507 1.375 . S
N509 C508 1.347 . S
C510 C513 1.365 . S
C510 N515 1.328 . S
C510 H516 0.929 . S
C511 C512 1.362 . S
C511 C514 1.378 . S
C511 H526 0.929 . S
C512 C511 1.362 . S
C512 C513 1.366 . S
C513 C510 1.365 . S
C513 C512 1.366 . S
C513 H527 0.930 . S
C514 C511 1.378 . S
C514 N515 1.315 . S
C514 H517 0.930 . S
N515 Co495 2.194 . S
N515 C510 1.328 . S
N515 C514 1.315 . S
H516 C510 0.929 . S
H517 C514 0.930 . S
H518 C506 0.929 . S
H519 C508 0.929 . S
O520 Co495 2.351 . S
O520 C523 1.244 . S
O521 Co495 2.155 . S
O521 C523 1.240 . S
O522 Co495 2.096 . S
O522 C503 1.247 . S
C523 O520 1.244 . S
C523 O521 1.240 . S
H524 C498 0.931 . S
H525 C507 0.931 . S
H526 C511 0.929 . S
H527 C513 0.930 . S
H528 C536 0.929 . S
H529 C538 0.930 . S
H530 C540 0.930 . S
H531 C543 0.929 1_655 S
H532 C546 0.930 . S
H533 C548 0.960 . S
H534 C548 0.960 . S
H535 C548 0.960 . S
C536 H528 0.929 . S
C536 C537 1.377 . S
C536 C538 1.384 . S
C537 C536 1.377 . S
C537 C543 1.390 . S
C538 H529 0.930 . S
C538 C536 1.384 . S
C538 C539 1.372 . S
C539 C538 1.372 . S
C539 C540 1.400 1_455 S
C539 C544 1.490 . S
C540 H530 0.930 . S
C540 C539 1.400 1_655 S
C540 C543 1.386 1_655 S
H541 C557 0.930 . S
H542 C558 0.931 . S
C543 H531 0.929 1_455 S
C543 C537 1.390 . S
C543 C540 1.386 1_455 S
C544 C539 1.490 . S
C544 C546 1.395 . S
C544 C547 1.403 1_455 S
H545 C551 0.930 . S
C546 H532 0.930 . S
C546 C544 1.395 . S
C546 C549 1.403 1_545 S
C547 C544 1.403 1_655 S
C547 C548 1.524 . S
C547 C551 1.400 1_545 S
C548 H533 0.960 . S
C548 H534 0.960 . S
C548 H535 0.960 . S
C548 C547 1.524 . S
C549 C546 1.403 1_565 S
C549 C550 1.392 1_455 S
C549 C553 1.495 . S
C550 C549 1.392 1_655 S
C550 C551 1.385 . S
C550 C552 1.478 . S
C551 H545 0.930 . S
C551 C547 1.400 1_565 S
C551 C550 1.385 . S
C552 C550 1.478 . S
C552 C554 1.381 1_655 S
C552 C558 1.383 . S
C553 C549 1.495 . S
C553 H559 0.959 . S
C553 H560 0.961 . S
C553 H561 0.960 . S
C554 C552 1.381 1_455 S
C554 C555 1.394 1_455 S
C554 H562 0.930 . S
C555 C554 1.394 1_655 S
C555 C556 1.383 . S
C555 H563 0.929 1_655 S
C556 C555 1.383 . S
C556 C557 1.377 . S
C557 H541 0.930 . S
C557 C556 1.377 . S
C557 C558 1.379 . S
C558 H542 0.931 . S
C558 C552 1.383 . S
C558 C557 1.379 . S
H559 C553 0.959 . S
H560 C553 0.961 . S
H561 C553 0.960 . S
H562 C554 0.930 . S
H563 C555 0.929 1_455 S
H564 C572 0.929 . S
H565 C574 0.930 . S
H566 C576 0.930 1_545 S
H567 C579 0.929 . S
H568 C582 0.930 . S
H569 C584 0.960 . S
H570 C584 0.960 . S
H571 C584 0.960 . S
C572 H564 0.929 . S
C572 C573 1.377 . S
C572 C574 1.384 . S
C573 C572 1.377 . S
C573 C579 1.390 . S
C574 H565 0.930 . S
C574 C572 1.384 . S
C574 C575 1.372 . S
C575 C574 1.372 . S
C575 C576 1.400 . S
C575 C580 1.490 . S
C576 H566 0.930 1_565 S
C576 C575 1.400 . S
C576 C579 1.386 . S
H577 C593 0.930 . S
H578 C594 0.931 . S
C579 H567 0.929 . S
C579 C573 1.390 . S
C579 C576 1.386 . S
C580 C575 1.490 . S
C580 C582 1.395 . S
C580 C583 1.403 1_565 S
H581 C587 0.930 . S
C582 H568 0.930 . S
C582 C580 1.395 . S
C582 C585 1.403 1_455 S
C583 C580 1.403 1_545 S
C583 C584 1.524 . S
C583 C587 1.400 1_455 S
C584 H569 0.960 . S
C584 H570 0.960 . S
C584 H571 0.960 . S
C584 C583 1.524 . S
C585 C582 1.403 1_655 S
C585 C586 1.392 1_565 S
C585 C589 1.495 . S
C586 C585 1.392 1_545 S
C586 C587 1.385 . S
C586 C588 1.478 . S
C587 H581 0.930 . S
C587 C583 1.400 1_655 S
C587 C586 1.385 . S
C588 C586 1.478 . S
C588 C590 1.381 . S
C588 C594 1.383 . S
C589 C585 1.495 . S
C589 H595 0.959 . S
C589 H596 0.961 . S
C589 H597 0.960 . S
C590 C588 1.381 . S
C590 C591 1.394 . S
C590 H598 0.930 1_545 S
C591 C590 1.394 . S
C591 C592 1.383 . S
C591 H599 0.929 . S
C592 C591 1.383 . S
C592 C593 1.377 . S
C593 H577 0.930 . S
C593 C592 1.377 . S
C593 C594 1.379 . S
C594 H578 0.931 . S
C594 C588 1.383 . S
C594 C593 1.379 . S
H595 C589 0.959 . S
H596 C589 0.961 . S
H597 C589 0.960 . S
H598 C590 0.930 1_565 S
H599 C591 0.929 . S
H600 C608 0.929 . S
H601 C610 0.930 . S
H602 C612 0.930 . S
H603 C615 0.929 . S
H604 C618 0.930 . S
H605 C620 0.960 . S
H606 C620 0.960 . S
H607 C620 0.960 . S
C608 H600 0.929 . S
C608 C609 1.377 . S
C608 C610 1.384 . S
C609 C608 1.377 . S
C609 C615 1.390 . S
C610 H601 0.930 . S
C610 C608 1.384 . S
C610 C611 1.372 . S
C611 C610 1.372 . S
C611 C612 1.400 . S
C611 C616 1.490 . S
C612 H602 0.930 . S
C612 C611 1.400 . S
C612 C615 1.386 . S
H613 C629 0.930 . S
H614 C630 0.931 . S
C615 H603 0.929 . S
C615 C609 1.390 . S
C615 C612 1.386 . S
C616 C611 1.490 . S
C616 C618 1.395 . S
C616 C619 1.403 . S
H617 C623 0.930 . S
C618 H604 0.930 . S
C618 C616 1.395 . S
C618 C621 1.403 . S
C619 C616 1.403 . S
C619 C620 1.524 . S
C619 C623 1.400 . S
C620 H605 0.960 . S
C620 H606 0.960 . S
C620 H607 0.960 . S
C620 C619 1.524 . S
C621 C618 1.403 . S
C621 C622 1.392 . S
C621 C625 1.495 . S
C622 C621 1.392 . S
C622 C623 1.385 . S
C622 C624 1.478 . S
C623 H617 0.930 . S
C623 C619 1.400 . S
C623 C622 1.385 . S
C624 C622 1.478 . S
C624 C626 1.381 . S
C624 C630 1.383 . S
C625 C621 1.495 . S
C625 H631 0.959 . S
C625 H632 0.961 . S
C625 H633 0.960 . S
C626 C624 1.381 . S
C626 C627 1.394 . S
C626 H634 0.930 . S
C627 C626 1.394 . S
C627 C628 1.383 . S
C627 H635 0.929 . S
C628 C627 1.383 . S
C628 C629 1.377 . S
C629 H613 0.930 . S
C629 C628 1.377 . S
C629 C630 1.379 . S
C630 H614 0.931 . S
C630 C624 1.383 . S
C630 C629 1.379 . S
H631 C625 0.959 . S
H632 C625 0.961 . S
H633 C625 0.960 . S
H634 C626 0.930 . S
H635 C627 0.929 . S
H636 C644 0.929 . S
H637 C646 0.930 . S
H638 C648 0.930 . S
H639 C651 0.929 . S
H640 C654 0.930 . S
H641 C656 0.960 . S
H642 C656 0.960 . S
H643 C656 0.960 . S
C644 H636 0.929 . S
C644 C645 1.377 . S
C644 C646 1.384 . S
C645 C644 1.377 . S
C645 C651 1.390 . S
C646 H637 0.930 . S
C646 C644 1.384 . S
C646 C647 1.372 . S
C647 C646 1.372 . S
C647 C648 1.400 . S
C647 C652 1.490 . S
C648 H638 0.930 . S
C648 C647 1.400 . S
C648 C651 1.386 . S
H649 C665 0.930 . S
H650 C666 0.931 . S
C651 H639 0.929 . S
C651 C645 1.390 . S
C651 C648 1.386 . S
C652 C647 1.490 . S
C652 C654 1.395 . S
C652 C655 1.403 . S
H653 C659 0.930 . S
C654 H640 0.930 . S
C654 C652 1.395 . S
C654 C657 1.403 . S
C655 C652 1.403 . S
C655 C656 1.524 . S
C655 C659 1.400 . S
C656 H641 0.960 . S
C656 H642 0.960 . S
C656 H643 0.960 . S
C656 C655 1.524 . S
C657 C654 1.403 . S
C657 C658 1.392 . S
C657 C661 1.495 . S
C658 C657 1.392 . S
C658 C659 1.385 . S
C658 C660 1.478 . S
C659 H653 0.930 . S
C659 C655 1.400 . S
C659 C658 1.385 . S
C660 C658 1.478 . S
C660 C662 1.381 . S
C660 C666 1.383 . S
C661 C657 1.495 . S
C661 H667 0.959 . S
C661 H668 0.961 . S
C661 H669 0.960 . S
C662 C660 1.381 . S
C662 C663 1.394 . S
C662 H670 0.930 . S
C663 C662 1.394 . S
C663 C664 1.383 . S
C663 H671 0.929 . S
C664 C663 1.383 . S
C664 C665 1.377 . S
C665 H649 0.930 . S
C665 C664 1.377 . S
C665 C666 1.379 . S
C666 H650 0.931 . S
C666 C660 1.383 . S
C666 C665 1.379 . S
H667 C661 0.959 . S
H668 C661 0.961 . S
H669 C661 0.960 . S
H670 C662 0.930 . S
H671 C663 0.929 . S
H672 C680 0.929 . S
H673 C682 0.930 . S
H674 C684 0.930 . S
H675 C687 0.929 1_655 S
H676 C690 0.930 . S
H677 C692 0.960 . S
H678 C692 0.960 1_455 S
H679 C692 0.960 . S
C680 H672 0.929 . S
C680 C681 1.377 . S
C680 C682 1.384 . S
C681 C680 1.377 . S
C681 C687 1.390 . S
C682 H673 0.930 . S
C682 C680 1.384 . S
C682 C683 1.372 . S
C683 C682 1.372 . S
C683 C684 1.400 1_455 S
C683 C688 1.490 . S
C684 H674 0.930 . S
C684 C683 1.400 1_655 S
C684 C687 1.386 1_655 S
H685 C701 0.930 . S
H686 C702 0.931 . S
C687 H675 0.929 1_455 S
C687 C681 1.390 . S
C687 C684 1.386 1_455 S
C688 C683 1.490 . S
C688 C690 1.395 . S
C688 C691 1.403 1_455 S
H689 C695 0.930 . S
C690 H676 0.930 . S
C690 C688 1.395 . S
C690 C693 1.403 1_545 S
C691 C688 1.403 1_655 S
C691 C692 1.524 . S
C691 C695 1.400 1_545 S
C692 H677 0.960 . S
C692 H678 0.960 1_655 S
C692 H679 0.960 . S
C692 C691 1.524 . S
C693 C690 1.403 1_565 S
C693 C694 1.392 1_455 S
C693 C697 1.495 . S
C694 C693 1.392 1_655 S
C694 C695 1.385 . S
C694 C696 1.478 . S
C695 H689 0.930 . S
C695 C691 1.400 1_565 S
C695 C694 1.385 . S
C696 C694 1.478 . S
C696 C698 1.381 1_655 S
C696 C702 1.383 . S
C697 C693 1.495 . S
C697 H703 0.959 . S
C697 H704 0.937 1_455 S
C697 H705 0.960 . S
C698 C696 1.381 1_455 S
C698 C699 1.395 . S
C698 H706 0.930 . S
C699 C698 1.395 . S
C699 C700 1.380 1_455 S
C699 H707 0.932 . S
C700 C699 1.380 1_655 S
C700 C701 1.377 . S
C701 H685 0.930 . S
C701 C700 1.377 . S
C701 C702 1.379 . S
C702 H686 0.931 . S
C702 C696 1.383 . S
C702 C701 1.379 . S
H703 C697 0.959 . S
H704 C697 0.937 1_655 S
H705 C697 0.960 . S
H706 C698 0.930 . S
H707 C699 0.932 . S
H708 C716 0.929 . S
H709 C718 0.930 . S
H710 C720 0.930 . S
H711 C723 0.929 . S
H712 C726 0.930 . S
H713 C728 0.960 . S
H714 C728 0.960 . S
H715 C728 0.960 . S
C716 H708 0.929 . S
C716 C717 1.377 . S
C716 C718 1.384 . S
C717 C716 1.377 . S
C717 C723 1.390 . S
C718 H709 0.930 . S
C718 C716 1.384 . S
C718 C719 1.372 . S
C719 C718 1.372 . S
C719 C720 1.400 . S
C719 C724 1.490 . S
C720 H710 0.930 . S
C720 C719 1.400 . S
C720 C723 1.386 . S
H721 C737 0.930 . S
H722 C738 0.931 . S
C723 H711 0.929 . S
C723 C717 1.390 . S
C723 C720 1.386 . S
C724 C719 1.490 . S
C724 C726 1.395 . S
C724 C727 1.403 1_565 S
H725 C731 0.930 . S
C726 H712 0.930 . S
C726 C724 1.395 . S
C726 C729 1.403 1_455 S
C727 C724 1.403 1_545 S
C727 C728 1.524 . S
C727 C731 1.400 1_455 S
C728 H713 0.960 . S
C728 H714 0.960 . S
C728 H715 0.960 . S
C728 C727 1.524 . S
C729 C726 1.403 1_655 S
C729 C730 1.392 1_565 S
C729 C733 1.495 . S
C730 C729 1.392 1_545 S
C730 C731 1.385 . S
C730 C732 1.478 . S
C731 H725 0.930 . S
C731 C727 1.400 1_655 S
C731 C730 1.385 . S
C732 C730 1.478 . S
C732 C734 1.381 . S
C732 C738 1.383 . S
C733 C729 1.495 . S
C733 H739 0.959 . S
C733 H740 0.961 . S
C733 H741 0.960 . S
C734 C732 1.381 . S
C734 C735 1.394 . S
C734 H742 0.930 . S
C735 C734 1.394 . S
C735 C736 1.383 . S
C735 H743 0.929 . S
C736 C735 1.383 . S
C736 C737 1.377 . S
C737 H721 0.930 . S
C737 C736 1.377 . S
C737 C738 1.379 . S
C738 H722 0.931 . S
C738 C732 1.383 . S
C738 C737 1.379 . S
H739 C733 0.959 . S
H740 C733 0.961 . S
H741 C733 0.960 . S
H742 C734 0.930 . S
H743 C735 0.929 . S
H744 C752 0.929 . S
H745 C754 0.930 . S
H746 C756 0.930 . S
H747 C759 0.929 . S
H748 C762 0.930 . S
H749 C764 0.960 . S
H750 C764 0.960 . S
H751 C764 0.960 . S
C752 H744 0.929 . S
C752 C753 1.377 . S
C752 C754 1.384 . S
C753 C752 1.377 . S
C753 C759 1.390 . S
C754 H745 0.930 . S
C754 C752 1.384 . S
C754 C755 1.372 . S
C755 C754 1.372 . S
C755 C756 1.400 . S
C755 C760 1.490 . S
C756 H746 0.930 . S
C756 C755 1.400 . S
C756 C759 1.386 . S
H757 C773 0.930 . S
H758 C774 0.931 . S
C759 H747 0.929 . S
C759 C753 1.390 . S
C759 C756 1.386 . S
C760 C755 1.490 . S
C760 C762 1.395 . S
C760 C763 1.403 . S
H761 C767 0.930 . S
C762 H748 0.930 . S
C762 C760 1.395 . S
C762 C765 1.403 . S
C763 C760 1.403 . S
C763 C764 1.524 . S
C763 C767 1.400 . S
C764 H749 0.960 . S
C764 H750 0.960 . S
C764 H751 0.960 . S
C764 C763 1.524 . S
C765 C762 1.403 . S
C765 C766 1.392 . S
C765 C769 1.495 . S
C766 C765 1.392 . S
C766 C767 1.385 . S
C766 C768 1.478 . S
C767 H761 0.930 . S
C767 C763 1.400 . S
C767 C766 1.385 . S
C768 C766 1.478 . S
C768 C770 1.381 . S
C768 C774 1.383 . S
C769 C765 1.495 . S
C769 H775 0.959 . S
C769 H776 0.961 . S
C769 H777 0.960 . S
C770 C768 1.381 . S
C770 C771 1.394 . S
C770 H778 0.930 . S
C771 C770 1.394 . S
C771 C772 1.383 . S
C771 H779 0.929 . S
C772 C771 1.383 . S
C772 C773 1.377 . S
C773 H757 0.930 . S
C773 C772 1.377 . S
C773 C774 1.379 . S
C774 H758 0.931 . S
C774 C768 1.383 . S
C774 C773 1.379 . S
H775 C769 0.959 . S
H776 C769 0.961 . S
H777 C769 0.960 . S
H778 C770 0.930 . S
H779 C771 0.929 . S
H780 C788 0.929 . S
H781 C790 0.930 . S
H782 C792 0.930 . S
H783 C795 0.929 . S
H784 C798 0.930 . S
H785 C800 0.960 . S
H786 C800 0.960 . S
H787 C800 0.960 . S
C788 H780 0.929 . S
C788 C789 1.377 . S
C788 C790 1.384 . S
C789 C788 1.377 . S
C789 C795 1.390 . S
C790 H781 0.930 . S
C790 C788 1.384 . S
C790 C791 1.372 . S
C791 C790 1.372 . S
C791 C792 1.400 . S
C791 C796 1.490 . S
C792 H782 0.930 . S
C792 C791 1.400 . S
C792 C795 1.386 . S
H793 C809 0.930 . S
H794 C810 0.931 . S
C795 H783 0.929 . S
C795 C789 1.390 . S
C795 C792 1.386 . S
C796 C791 1.490 . S
C796 C798 1.395 . S
C796 C799 1.403 . S
H797 C803 0.930 . S
C798 H784 0.930 . S
C798 C796 1.395 . S
C798 C801 1.403 . S
C799 C796 1.403 . S
C799 C800 1.524 . S
C799 C803 1.400 . S
C800 H785 0.960 . S
C800 H786 0.960 . S
C800 H787 0.960 . S
C800 C799 1.524 . S
C801 C798 1.403 . S
C801 C802 1.392 . S
C801 C805 1.495 . S
C802 C801 1.392 . S
C802 C803 1.385 . S
C802 C804 1.478 . S
C803 H797 0.930 . S
C803 C799 1.400 . S
C803 C802 1.385 . S
C804 C802 1.478 . S
C804 C806 1.381 . S
C804 C810 1.383 . S
C805 C801 1.495 . S
C805 H811 0.959 . S
C805 H812 0.961 . S
C805 H813 0.960 . S
C806 C804 1.381 . S
C806 C807 1.394 . S
C806 H814 0.930 . S
C807 C806 1.394 . S
C807 C808 1.383 . S
C807 H815 0.929 . S
C808 C807 1.383 . S
C808 C809 1.377 . S
C809 H793 0.930 . S
C809 C808 1.377 . S
C809 C810 1.379 . S
C810 H794 0.931 . S
C810 C804 1.383 . S
C810 C809 1.379 . S
H811 C805 0.959 . S
H812 C805 0.961 . S
H813 C805 0.960 . S
H814 C806 0.930 . S
H815 C807 0.929 . S
H816 C824 0.929 . S
H817 C826 0.930 . S
H818 C828 0.930 . S
H819 C831 0.929 . S
H820 C834 0.930 . S
H821 C836 0.960 . S
H822 C836 0.960 . S
H823 C836 0.960 . S
C824 H816 0.929 . S
C824 C825 1.377 . S
C824 C826 1.384 . S
C825 C824 1.377 . S
C825 C831 1.390 . S
C826 H817 0.930 . S
C826 C824 1.384 . S
C826 C827 1.372 . S
C827 C826 1.372 . S
C827 C828 1.400 . S
C827 C832 1.490 . S
C828 H818 0.930 . S
C828 C827 1.400 . S
C828 C831 1.386 . S
H829 C845 0.930 . S
H830 C846 0.931 . S
C831 H819 0.929 . S
C831 C825 1.390 . S
C831 C828 1.386 . S
C832 C827 1.490 . S
C832 C834 1.395 . S
C832 C835 1.403 . S
H833 C839 0.930 . S
C834 H820 0.930 . S
C834 C832 1.395 . S
C834 C837 1.403 1_554 S
C835 C832 1.403 . S
C835 C836 1.524 . S
C835 C839 1.400 1_554 S
C836 H821 0.960 . S
C836 H822 0.960 . S
C836 H823 0.960 . S
C836 C835 1.524 . S
C837 C834 1.403 1_556 S
C837 C838 1.392 . S
C837 C841 1.495 . S
C838 C837 1.392 . S
C838 C839 1.385 . S
C838 C840 1.478 . S
C839 H833 0.930 . S
C839 C835 1.400 1_556 S
C839 C838 1.385 . S
C840 C838 1.478 . S
C840 C842 1.381 . S
C840 C846 1.383 . S
C841 C837 1.495 . S
C841 H847 0.959 . S
C841 H848 0.961 . S
C841 H849 0.960 . S
C842 C840 1.381 . S
C842 C843 1.394 . S
C842 H850 0.930 . S
C843 C842 1.394 . S
C843 C844 1.383 . S
C843 H851 0.929 . S
C844 C843 1.383 . S
C844 C845 1.377 . S
C845 H829 0.930 . S
C845 C844 1.377 . S
C845 C846 1.379 . S
C846 H830 0.931 . S
C846 C840 1.383 . S
C846 C845 1.379 . S
H847 C841 0.959 . S
H848 C841 0.961 . S
H849 C841 0.960 . S
H850 C842 0.930 . S
H851 C843 0.929 . S
H852 C860 0.929 . S
H853 C862 0.930 . S
H854 C864 0.930 . S
H855 C867 0.929 . S
H856 C870 0.930 . S
H857 C872 0.960 . S
H858 C872 0.960 . S
H859 C872 0.960 . S
C860 H852 0.929 . S
C860 C861 1.377 . S
C860 C862 1.384 . S
C861 C860 1.377 . S
C861 C867 1.390 . S
C862 H853 0.930 . S
C862 C860 1.384 . S
C862 C863 1.372 . S
C863 C862 1.372 . S
C863 C864 1.400 . S
C863 C868 1.490 . S
C864 H854 0.930 . S
C864 C863 1.400 . S
C864 C867 1.386 . S
H865 C881 0.930 . S
H866 C882 0.931 . S
C867 H855 0.929 . S
C867 C861 1.390 . S
C867 C864 1.386 . S
C868 C863 1.490 . S
C868 C870 1.395 . S
C868 C871 1.403 . S
H869 C875 0.930 . S
C870 H856 0.930 . S
C870 C868 1.395 . S
C870 C873 1.403 . S
C871 C868 1.403 . S
C871 C872 1.524 . S
C871 C875 1.400 . S
C872 H857 0.960 . S
C872 H858 0.960 . S
C872 H859 0.960 . S
C872 C871 1.524 . S
C873 C870 1.403 . S
C873 C874 1.392 . S
C873 C877 1.468 1_545 S
C874 C873 1.392 . S
C874 C875 1.385 . S
C874 C876 1.478 . S
C875 H869 0.930 . S
C875 C871 1.400 . S
C875 C874 1.385 . S
C876 C874 1.478 . S
C876 C878 1.381 . S
C876 C882 1.383 . S
C877 C873 1.468 1_565 S
C877 H883 0.980 . S
C877 H884 0.964 . S
C877 H885 0.964 . S
C878 C876 1.381 . S
C878 C879 1.394 . S
C878 H886 0.930 . S
C879 C878 1.394 . S
C879 C880 1.383 . S
C879 H887 0.929 . S
C880 C879 1.383 . S
C880 C881 1.377 . S
C881 H865 0.930 . S
C881 C880 1.377 . S
C881 C882 1.379 . S
C882 H866 0.931 . S
C882 C876 1.383 . S
C882 C881 1.379 . S
H883 C877 0.980 . S
H884 C877 0.964 . S
H885 C877 0.964 . S
H886 C878 0.930 . S
H887 C879 0.929 . S
H888 C896 0.929 . S
H889 C898 0.930 . S
H890 C900 0.930 . S
H891 C903 0.929 . S
H892 C906 0.930 . S
H893 C908 0.960 . S
H894 C908 0.960 . S
H895 C908 0.960 . S
C896 H888 0.929 . S
C896 C897 1.377 . S
C896 C898 1.384 . S
C897 C896 1.377 . S
C897 C903 1.390 . S
C898 H889 0.930 . S
C898 C896 1.384 . S
C898 C899 1.372 . S
C899 C898 1.372 . S
C899 C900 1.400 . S
C899 C904 1.490 . S
C900 H890 0.930 . S
C900 C899 1.400 . S
C900 C903 1.386 . S
H901 C917 0.930 . S
H902 C918 0.931 . S
C903 H891 0.929 . S
C903 C897 1.390 . S
C903 C900 1.386 . S
C904 C899 1.490 . S
C904 C906 1.395 . S
C904 C907 1.403 . S
H905 C911 0.930 . S
C906 H892 0.930 . S
C906 C904 1.395 . S
C906 C909 1.403 1_556 S
C907 C904 1.403 . S
C907 C908 1.524 . S
C907 C911 1.400 1_556 S
C908 H893 0.960 . S
C908 H894 0.960 . S
C908 H895 0.960 . S
C908 C907 1.524 . S
C909 C906 1.403 1_554 S
C909 C910 1.392 . S
C909 C913 1.495 . S
C910 C909 1.392 . S
C910 C911 1.385 . S
C910 C912 1.478 . S
C911 H905 0.930 . S
C911 C907 1.400 1_554 S
C911 C910 1.385 . S
C912 C910 1.478 . S
C912 C914 1.381 . S
C912 C918 1.383 . S
C913 C909 1.495 . S
C913 H919 0.959 . S
C913 H920 0.961 . S
C913 H921 0.960 . S
C914 C912 1.381 . S
C914 C915 1.394 . S
C914 H922 0.930 . S
C915 C914 1.394 . S
C915 C916 1.383 . S
C915 H923 0.929 . S
C916 C915 1.383 . S
C916 C917 1.377 . S
C917 H901 0.930 . S
C917 C916 1.377 . S
C917 C918 1.379 . S
C918 H902 0.931 . S
C918 C912 1.383 . S
C918 C917 1.379 . S
H919 C913 0.959 . S
H920 C913 0.961 . S
H921 C913 0.960 . S
H922 C914 0.930 . S
H923 C915 0.929 . S
H924 C932 0.929 . S
H925 C934 0.930 . S
H926 C936 0.930 . S
H927 C939 0.929 . S
H928 C942 0.930 . S
H929 C944 0.960 . S
H930 C944 0.960 . S
H931 C944 0.960 . S
C932 H924 0.929 . S
C932 C933 1.377 . S
C932 C934 1.384 . S
C933 C932 1.377 . S
C933 C939 1.390 . S
C934 H925 0.930 . S
C934 C932 1.384 . S
C934 C935 1.372 . S
C935 C934 1.372 . S
C935 C936 1.400 . S
C935 C940 1.490 . S
C936 H926 0.930 . S
C936 C935 1.400 . S
C936 C939 1.386 . S
H937 C953 0.930 . S
H938 C954 0.931 . S
C939 H927 0.929 . S
C939 C933 1.390 . S
C939 C936 1.386 . S
C940 C935 1.490 . S
C940 C942 1.395 . S
C940 C943 1.403 . S
H941 C947 0.930 . S
C942 H928 0.930 . S
C942 C940 1.395 . S
C942 C945 1.403 . S
C943 C940 1.403 . S
C943 C944 1.524 . S
C943 C947 1.400 . S
C944 H929 0.960 . S
C944 H930 0.960 . S
C944 H931 0.960 . S
C944 C943 1.524 . S
C945 C942 1.403 . S
C945 C946 1.392 . S
C945 C949 1.495 . S
C946 C945 1.392 . S
C946 C947 1.385 . S
C946 C948 1.478 . S
C947 H941 0.930 . S
C947 C943 1.400 . S
C947 C946 1.385 . S
C948 C946 1.478 . S
C948 C950 1.381 . S
C948 C954 1.383 . S
C949 C945 1.495 . S
C949 H955 0.959 1_565 S
C949 H956 0.961 1_565 S
C949 H957 0.960 . S
C950 C948 1.381 . S
C950 C951 1.394 . S
C950 H958 0.930 . S
C951 C950 1.394 . S
C951 C952 1.383 . S
C951 H959 0.929 . S
C952 C951 1.383 . S
C952 C953 1.377 . S
C953 H937 0.930 . S
C953 C952 1.377 . S
C953 C954 1.379 . S
C954 H938 0.931 . S
C954 C948 1.383 . S
C954 C953 1.379 . S
H955 C949 0.959 1_545 S
H956 C949 0.961 1_545 S
H957 C949 0.960 . S
H958 C950 0.930 . S
H959 C951 0.929 . S
H960 C968 0.929 . S
H961 C970 0.930 . S
H962 C972 0.930 . S
H963 C975 0.929 . S
H964 C978 0.930 . S
H965 C980 0.960 . S
H966 C980 0.960 . S
H967 C980 0.960 . S
C968 H960 0.929 . S
C968 C969 1.377 . S
C968 C970 1.384 . S
C969 C968 1.377 . S
C969 C975 1.390 . S
C970 H961 0.930 . S
C970 C968 1.384 . S
C970 C971 1.372 . S
C971 C970 1.372 . S
C971 C972 1.400 . S
C971 C976 1.490 . S
C972 H962 0.930 . S
C972 C971 1.400 . S
C972 C975 1.386 . S
H973 C989 0.930 . S
H974 C990 0.931 . S
C975 H963 0.929 . S
C975 C969 1.390 . S
C975 C972 1.386 . S
C976 C971 1.490 . S
C976 C978 1.395 . S
C976 C979 1.403 . S
H977 C983 0.930 . S
C978 H964 0.930 . S
C978 C976 1.395 . S
C978 C981 1.403 1_554 S
C979 C976 1.403 . S
C979 C980 1.524 . S
C979 C983 1.400 1_554 S
C980 H965 0.960 . S
C980 H966 0.960 . S
C980 H967 0.960 . S
C980 C979 1.524 . S
C981 C978 1.403 1_556 S
C981 C982 1.392 . S
C981 C985 1.495 . S
C982 C981 1.392 . S
C982 C983 1.385 . S
C982 C984 1.478 . S
C983 H977 0.930 . S
C983 C979 1.400 1_556 S
C983 C982 1.385 . S
C984 C982 1.478 . S
C984 C986 1.381 . S
C984 C990 1.383 . S
C985 C981 1.495 . S
C985 H991 0.959 . S
C985 H992 0.961 . S
C985 H993 0.960 . S
C986 C984 1.381 . S
C986 C987 1.394 . S
C986 H994 0.930 . S
C987 C986 1.394 . S
C987 C988 1.383 . S
C987 H995 0.929 . S
C988 C987 1.383 . S
C988 C989 1.377 . S
C989 H973 0.930 . S
C989 C988 1.377 . S
C989 C990 1.379 . S
C990 H974 0.931 . S
C990 C984 1.383 . S
C990 C989 1.379 . S
H991 C985 0.959 . S
H992 C985 0.961 . S
H993 C985 0.960 . S
H994 C986 0.930 . S
H995 C987 0.929 . S
H996 C1004 0.929 . S
H997 C1006 0.930 . S
H998 C1008 0.930 . S
H999 C1011 0.929 . S
H1000 C1014 0.930 . S
H1001 C1016 0.960 . S
H1002 C1016 0.960 . S
H1003 C1016 0.960 . S
C1004 H996 0.929 . S
C1004 C1005 1.377 . S
C1004 C1006 1.384 . S
C1005 C1004 1.377 . S
C1005 C1011 1.390 . S
C1006 H997 0.930 . S
C1006 C1004 1.384 . S
C1006 C1007 1.372 . S
C1007 C1006 1.372 . S
C1007 C1008 1.400 . S
C1007 C1012 1.490 . S
C1008 H998 0.930 . S
C1008 C1007 1.400 . S
C1008 C1011 1.386 . S
H1009 C1025 0.930 . S
H1010 C1026 0.931 . S
C1011 H999 0.929 . S
C1011 C1005 1.390 . S
C1011 C1008 1.386 . S
C1012 C1007 1.490 . S
C1012 C1014 1.395 . S
C1012 C1015 1.403 . S
H1013 C1019 0.930 . S
C1014 H1000 0.930 . S
C1014 C1012 1.395 . S
C1014 C1017 1.403 . S
C1015 C1012 1.403 . S
C1015 C1016 1.524 . S
C1015 C1019 1.400 . S
C1016 H1001 0.960 . S
C1016 H1002 0.960 . S
C1016 H1003 0.960 . S
C1016 C1015 1.524 . S
C1017 C1014 1.403 . S
C1017 C1018 1.392 . S
C1017 C1021 1.495 . S
C1018 C1017 1.392 . S
C1018 C1019 1.385 . S
C1018 C1020 1.478 . S
C1019 H1013 0.930 . S
C1019 C1015 1.400 . S
C1019 C1018 1.385 . S
C1020 C1018 1.478 . S
C1020 C1022 1.381 . S
C1020 C1026 1.383 . S
C1021 C1017 1.495 . S
C1021 H1027 0.959 . S
C1021 H1028 0.961 . S
C1021 H1029 0.960 . S
C1022 C1020 1.381 . S
C1022 C1023 1.394 . S
C1022 H1030 0.930 . S
C1023 C1022 1.394 . S
C1023 C1024 1.383 . S
C1023 H1031 0.929 . S
C1024 C1023 1.383 . S
C1024 C1025 1.377 . S
C1025 H1009 0.930 . S
C1025 C1024 1.377 . S
C1025 C1026 1.379 . S
C1026 H1010 0.931 . S
C1026 C1020 1.383 . S
C1026 C1025 1.379 . S
H1027 C1021 0.959 . S
H1028 C1021 0.961 . S
H1029 C1021 0.960 . S
H1030 C1022 0.930 . S
H1031 C1023 0.929 . S
H1032 C1040 0.929 . S
H1033 C1042 0.930 . S
H1034 C1044 0.930 . S
H1035 C1047 0.929 . S
H1036 C1050 0.930 . S
H1037 C1052 0.960 . S
H1038 C1052 0.960 . S
H1039 C1052 0.960 . S
C1040 H1032 0.929 . S
C1040 C1041 1.377 . S
C1040 C1042 1.384 . S
C1041 C1040 1.377 . S
C1041 C1047 1.390 . S
C1042 H1033 0.930 . S
C1042 C1040 1.384 . S
C1042 C1043 1.372 . S
C1043 C1042 1.372 . S
C1043 C1044 1.400 . S
C1043 C1048 1.490 . S
C1044 H1034 0.930 . S
C1044 C1043 1.400 . S
C1044 C1047 1.386 . S
H1045 C1061 0.930 . S
H1046 C1062 0.931 . S
C1047 H1035 0.929 . S
C1047 C1041 1.390 . S
C1047 C1044 1.386 . S
C1048 C1043 1.490 . S
C1048 C1050 1.395 . S
C1048 C1051 1.403 . S
H1049 C1055 0.930 . S
C1050 H1036 0.930 . S
C1050 C1048 1.395 . S
C1050 C1053 1.403 1_554 S
C1051 C1048 1.403 . S
C1051 C1052 1.524 . S
C1051 C1055 1.400 1_554 S
C1052 H1037 0.960 . S
C1052 H1038 0.960 . S
C1052 H1039 0.960 . S
C1052 C1051 1.524 . S
C1053 C1050 1.403 1_556 S
C1053 C1054 1.392 . S
C1053 C1057 1.495 . S
C1054 C1053 1.392 . S
C1054 C1055 1.385 . S
C1054 C1056 1.478 . S
C1055 H1049 0.930 . S
C1055 C1051 1.400 1_556 S
C1055 C1054 1.385 . S
C1056 C1054 1.478 . S
C1056 C1058 1.381 . S
C1056 C1062 1.383 . S
C1057 C1053 1.495 . S
C1057 H1063 0.959 . S
C1057 H1064 0.961 . S
C1057 H1065 0.960 . S
C1058 C1056 1.381 . S
C1058 C1059 1.394 . S
C1058 H1066 0.930 . S
C1059 C1058 1.394 . S
C1059 C1060 1.383 . S
C1059 H1067 0.929 . S
C1060 C1059 1.383 . S
C1060 C1061 1.377 . S
C1061 H1045 0.930 . S
C1061 C1060 1.377 . S
C1061 C1062 1.379 . S
C1062 H1046 0.931 . S
C1062 C1056 1.383 . S
C1062 C1061 1.379 . S
H1063 C1057 0.959 . S
H1064 C1057 0.961 . S
H1065 C1057 0.960 . S
H1066 C1058 0.930 . S
H1067 C1059 0.929 . S
H1068 C1076 0.929 . S
H1069 C1078 0.930 . S
H1070 C1080 0.930 . S
H1071 C1083 0.929 . S
H1072 C1086 0.930 . S
H1073 C1088 0.960 . S
H1074 C1088 0.960 . S
H1075 C1088 0.960 . S
C1076 H1068 0.929 . S
C1076 C1077 1.377 . S
C1076 C1078 1.384 . S
C1077 C1076 1.377 . S
C1077 C1083 1.390 . S
C1078 H1069 0.930 . S
C1078 C1076 1.384 . S
C1078 C1079 1.372 . S
C1079 C1078 1.372 . S
C1079 C1080 1.400 . S
C1079 C1084 1.490 . S
C1080 H1070 0.930 . S
C1080 C1079 1.400 . S
C1080 C1083 1.386 . S
H1081 C1097 0.930 . S
H1082 C1098 0.931 . S
C1083 H1071 0.929 . S
C1083 C1077 1.390 . S
C1083 C1080 1.386 . S
C1084 C1079 1.490 . S
C1084 C1086 1.395 . S
C1084 C1087 1.403 . S
H1085 C1091 0.930 . S
C1086 H1072 0.930 . S
C1086 C1084 1.395 . S
C1086 C1089 1.403 . S
C1087 C1084 1.403 . S
C1087 C1088 1.524 . S
C1087 C1091 1.400 . S
C1088 H1073 0.960 . S
C1088 H1074 0.960 . S
C1088 H1075 0.960 . S
C1088 C1087 1.524 . S
C1089 C1086 1.403 . S
C1089 C1090 1.392 . S
C1089 C1093 1.495 . S
C1090 C1089 1.392 . S
C1090 C1091 1.385 . S
C1090 C1092 1.478 . S
C1091 H1085 0.930 . S
C1091 C1087 1.400 . S
C1091 C1090 1.385 . S
C1092 C1090 1.478 . S
C1092 C1094 1.381 . S
C1092 C1098 1.383 . S
C1093 C1089 1.495 . S
C1093 H1099 0.959 . S
C1093 H1100 0.961 . S
C1093 H1101 0.960 . S
C1094 C1092 1.381 . S
C1094 C1095 1.394 . S
C1094 H1102 0.930 . S
C1095 C1094 1.394 . S
C1095 C1096 1.383 . S
C1095 H1103 0.929 . S
C1096 C1095 1.383 . S
C1096 C1097 1.377 . S
C1097 H1081 0.930 . S
C1097 C1096 1.377 . S
C1097 C1098 1.379 . S
C1098 H1082 0.931 . S
C1098 C1092 1.383 . S
C1098 C1097 1.379 . S
H1099 C1093 0.959 . S
H1100 C1093 0.961 . S
H1101 C1093 0.960 . S
H1102 C1094 0.930 . S
H1103 C1095 0.929 . S
H1104 C1112 0.929 . S
H1105 C1114 0.930 . S
H1106 C1116 0.930 . S
H1107 C1119 0.929 . S
H1108 C1122 0.930 . S
H1109 C1124 0.960 . S
H1110 C1124 0.960 . S
H1111 C1124 0.960 . S
C1112 H1104 0.929 . S
C1112 C1113 1.377 . S
C1112 C1114 1.384 . S
C1113 C1112 1.377 . S
C1113 C1119 1.390 . S
C1114 H1105 0.930 . S
C1114 C1112 1.384 . S
C1114 C1115 1.372 . S
C1115 C1114 1.372 . S
C1115 C1116 1.400 . S
C1115 C1120 1.490 . S
C1116 H1106 0.930 . S
C1116 C1115 1.400 . S
C1116 C1119 1.386 . S
H1117 C1133 0.930 . S
H1118 C1134 0.931 . S
C1119 H1107 0.929 . S
C1119 C1113 1.390 . S
C1119 C1116 1.386 . S
C1120 C1115 1.490 . S
C1120 C1122 1.395 . S
C1120 C1123 1.403 . S
H1121 C1127 0.930 . S
C1122 H1108 0.930 . S
C1122 C1120 1.395 . S
C1122 C1125 1.403 . S
C1123 C1120 1.403 . S
C1123 C1124 1.524 . S
C1123 C1127 1.400 . S
C1124 H1109 0.960 . S
C1124 H1110 0.960 . S
C1124 H1111 0.960 . S
C1124 C1123 1.524 . S
C1125 C1122 1.403 . S
C1125 C1126 1.392 . S
C1125 C1129 1.495 . S
C1126 C1125 1.392 . S
C1126 C1127 1.385 . S
C1126 C1128 1.478 . S
C1127 H1121 0.930 . S
C1127 C1123 1.400 . S
C1127 C1126 1.385 . S
C1128 C1126 1.478 . S
C1128 C1130 1.381 . S
C1128 C1134 1.383 . S
C1129 C1125 1.495 . S
C1129 H1135 0.959 . S
C1129 H1136 0.961 . S
C1129 H1137 0.960 . S
C1130 C1128 1.381 . S
C1130 C1131 1.394 . S
C1130 H1138 0.930 . S
C1131 C1130 1.394 . S
C1131 C1132 1.383 . S
C1131 H1139 0.929 . S
C1132 C1131 1.383 . S
C1132 C1133 1.377 . S
C1133 H1117 0.930 . S
C1133 C1132 1.377 . S
C1133 C1134 1.379 . S
C1134 H1118 0.931 . S
C1134 C1128 1.383 . S
C1134 C1133 1.379 . S
H1135 C1129 0.959 . S
H1136 C1129 0.961 . S
H1137 C1129 0.960 . S
H1138 C1130 0.930 . S
H1139 C1131 0.929 . S
H1140 C1148 0.929 . S
H1141 C1150 0.930 . S
H1142 C1152 0.930 . S
H1143 C1155 0.929 . S
H1144 C1158 0.930 . S
H1145 C1160 0.960 . S
H1146 C1160 0.960 . S
H1147 C1160 0.960 . S
C1148 H1140 0.929 . S
C1148 C1149 1.377 . S
C1148 C1150 1.384 . S
C1149 C1148 1.377 . S
C1149 C1155 1.390 . S
C1150 H1141 0.930 . S
C1150 C1148 1.384 . S
C1150 C1151 1.372 . S
C1151 C1150 1.372 . S
C1151 C1152 1.400 . S
C1151 C1156 1.490 . S
C1152 H1142 0.930 . S
C1152 C1151 1.400 . S
C1152 C1155 1.386 . S
H1153 C1169 0.930 . S
H1154 C1170 0.931 . S
C1155 H1143 0.929 . S
C1155 C1149 1.390 . S
C1155 C1152 1.386 . S
C1156 C1151 1.490 . S
C1156 C1158 1.395 . S
C1156 C1159 1.403 . S
H1157 C1163 0.930 . S
C1158 H1144 0.930 . S
C1158 C1156 1.395 . S
C1158 C1161 1.403 . S
C1159 C1156 1.403 . S
C1159 C1160 1.524 . S
C1159 C1163 1.400 . S
C1160 H1145 0.960 . S
C1160 H1146 0.960 . S
C1160 H1147 0.960 . S
C1160 C1159 1.524 . S
C1161 C1158 1.403 . S
C1161 C1162 1.392 . S
C1161 C1165 1.495 . S
C1162 C1161 1.392 . S
C1162 C1163 1.385 . S
C1162 C1164 1.478 . S
C1163 H1157 0.930 . S
C1163 C1159 1.400 . S
C1163 C1162 1.385 . S
C1164 C1162 1.478 . S
C1164 C1166 1.381 . S
C1164 C1170 1.383 . S
C1165 C1161 1.495 . S
C1165 H1171 0.959 . S
C1165 H1172 0.961 . S
C1165 H1173 0.960 . S
C1166 C1164 1.381 . S
C1166 C1167 1.394 . S
C1166 H1174 0.930 . S
C1167 C1166 1.394 . S
C1167 C1168 1.383 . S
C1167 H1175 0.929 . S
C1168 C1167 1.383 . S
C1168 C1169 1.377 . S
C1169 H1153 0.930 . S
C1169 C1168 1.377 . S
C1169 C1170 1.379 . S
C1170 H1154 0.931 . S
C1170 C1164 1.383 . S
C1170 C1169 1.379 . S
H1171 C1165 0.959 . S
H1172 C1165 0.961 . S
H1173 C1165 0.960 . S
H1174 C1166 0.930 . S
H1175 C1167 0.929 . S
H1176 C1184 0.929 . S
H1177 C1186 0.930 . S
H1178 C1188 0.930 . S
H1179 C1191 0.929 . S
H1180 C1194 0.930 . S
H1181 C1196 0.960 . S
H1182 C1196 0.960 . S
H1183 C1196 0.960 . S
C1184 H1176 0.929 . S
C1184 C1185 1.377 . S
C1184 C1186 1.384 . S
C1185 C1184 1.377 . S
C1185 C1191 1.390 . S
C1186 H1177 0.930 . S
C1186 C1184 1.384 . S
C1186 C1187 1.372 . S
C1187 C1186 1.372 . S
C1187 C1188 1.400 . S
C1187 C1192 1.490 . S
C1188 H1178 0.930 . S
C1188 C1187 1.400 . S
C1188 C1191 1.386 . S
H1189 C1205 0.930 . S
H1190 C1206 0.931 . S
C1191 H1179 0.929 . S
C1191 C1185 1.390 . S
C1191 C1188 1.386 . S
C1192 C1187 1.490 . S
C1192 C1194 1.395 . S
C1192 C1195 1.403 . S
H1193 C1199 0.930 . S
C1194 H1180 0.930 . S
C1194 C1192 1.395 . S
C1194 C1197 1.403 . S
C1195 C1192 1.403 . S
C1195 C1196 1.524 . S
C1195 C1199 1.400 . S
C1196 H1181 0.960 . S
C1196 H1182 0.960 . S
C1196 H1183 0.960 . S
C1196 C1195 1.524 . S
C1197 C1194 1.403 . S
C1197 C1198 1.392 . S
C1197 C1201 1.495 . S
C1198 C1197 1.392 . S
C1198 C1199 1.385 . S
C1198 C1200 1.478 . S
C1199 H1193 0.930 . S
C1199 C1195 1.400 . S
C1199 C1198 1.385 . S
C1200 C1198 1.478 . S
C1200 C1202 1.381 . S
C1200 C1206 1.383 . S
C1201 C1197 1.495 . S
C1201 H1207 0.959 . S
C1201 H1208 0.961 . S
C1201 H1209 0.960 . S
C1202 C1200 1.381 . S
C1202 C1203 1.394 . S
C1202 H1210 0.930 . S
C1203 C1202 1.394 . S
C1203 C1204 1.383 . S
C1203 H1211 0.929 . S
C1204 C1203 1.383 . S
C1204 C1205 1.377 . S
C1205 H1189 0.930 . S
C1205 C1204 1.377 . S
C1205 C1206 1.379 . S
C1206 H1190 0.931 . S
C1206 C1200 1.383 . S
C1206 C1205 1.379 . S
H1207 C1201 0.959 . S
H1208 C1201 0.961 . S
H1209 C1201 0.960 . S
H1210 C1202 0.930 . S
H1211 C1203 0.929 . S
H1212 C1220 0.929 . S
H1213 C1222 0.930 . S
H1214 C1224 0.930 . S
H1215 C1227 0.929 . S
H1216 C1230 0.930 . S
H1217 C1232 0.960 . S
H1218 C1232 0.960 . S
H1219 C1232 0.960 . S
C1220 H1212 0.929 . S
C1220 C1221 1.377 . S
C1220 C1222 1.384 . S
C1221 C1220 1.377 . S
C1221 C1227 1.390 . S
C1222 H1213 0.930 . S
C1222 C1220 1.384 . S
C1222 C1223 1.372 . S
C1223 C1222 1.372 . S
C1223 C1224 1.400 . S
C1223 C1228 1.490 . S
C1224 H1214 0.930 . S
C1224 C1223 1.400 . S
C1224 C1227 1.386 . S
H1225 C1241 0.930 . S
H1226 C1242 0.931 . S
C1227 H1215 0.929 . S
C1227 C1221 1.390 . S
C1227 C1224 1.386 . S
C1228 C1223 1.490 . S
C1228 C1230 1.395 . S
C1228 C1231 1.403 . S
H1229 C1235 0.930 . S
C1230 H1216 0.930 . S
C1230 C1228 1.395 . S
C1230 C1233 1.403 . S
C1231 C1228 1.403 . S
C1231 C1232 1.524 . S
C1231 C1235 1.400 . S
C1232 H1217 0.960 . S
C1232 H1218 0.960 . S
C1232 H1219 0.960 . S
C1232 C1231 1.524 . S
C1233 C1230 1.403 . S
C1233 C1234 1.392 . S
C1233 C1237 1.495 . S
C1234 C1233 1.392 . S
C1234 C1235 1.385 . S
C1234 C1236 1.478 . S
C1235 H1229 0.930 . S
C1235 C1231 1.400 . S
C1235 C1234 1.385 . S
C1236 C1234 1.478 . S
C1236 C1238 1.381 . S
C1236 C1242 1.383 . S
C1237 C1233 1.495 . S
C1237 H1243 0.959 . S
C1237 H1244 0.961 . S
C1237 H1245 0.960 . S
C1238 C1236 1.381 . S
C1238 C1239 1.394 . S
C1238 H1246 0.930 . S
C1239 C1238 1.394 . S
C1239 C1240 1.383 . S
C1239 H1247 0.929 . S
C1240 C1239 1.383 . S
C1240 C1241 1.377 . S
C1241 H1225 0.930 . S
C1241 C1240 1.377 . S
C1241 C1242 1.379 . S
C1242 H1226 0.931 . S
C1242 C1236 1.383 . S
C1242 C1241 1.379 . S
H1243 C1237 0.959 . S
H1244 C1237 0.961 . S
H1245 C1237 0.960 . S
H1246 C1238 0.930 . S
H1247 C1239 0.929 . S
H1248 C1256 0.929 . S
H1249 C1258 0.930 . S
H1250 C1260 0.930 . S
H1251 C1263 0.929 . S
H1252 C1266 0.930 . S
H1253 C1268 0.960 . S
H1254 C1268 0.960 . S
H1255 C1268 0.960 . S
C1256 H1248 0.929 . S
C1256 C1257 1.377 . S
C1256 C1258 1.384 . S
C1257 C1256 1.377 . S
C1257 C1263 1.390 . S
C1258 H1249 0.930 . S
C1258 C1256 1.384 . S
C1258 C1259 1.372 . S
C1259 C1258 1.372 . S
C1259 C1260 1.400 . S
C1259 C1264 1.490 . S
C1260 H1250 0.930 . S
C1260 C1259 1.400 . S
C1260 C1263 1.386 . S
H1261 C1277 0.930 . S
H1262 C1278 0.931 . S
C1263 H1251 0.929 . S
C1263 C1257 1.390 . S
C1263 C1260 1.386 . S
C1264 C1259 1.490 . S
C1264 C1266 1.395 . S
C1264 C1267 1.403 . S
H1265 C1271 0.930 . S
C1266 H1252 0.930 . S
C1266 C1264 1.395 . S
C1266 C1269 1.403 . S
C1267 C1264 1.403 . S
C1267 C1268 1.524 . S
C1267 C1271 1.400 . S
C1268 H1253 0.960 . S
C1268 H1254 0.960 . S
C1268 H1255 0.960 . S
C1268 C1267 1.524 . S
C1269 C1266 1.403 . S
C1269 C1270 1.392 . S
C1269 C1273 1.495 . S
C1270 C1269 1.392 . S
C1270 C1271 1.385 . S
C1270 C1272 1.478 . S
C1271 H1265 0.930 . S
C1271 C1267 1.400 . S
C1271 C1270 1.385 . S
C1272 C1270 1.478 . S
C1272 C1274 1.381 . S
C1272 C1278 1.383 . S
C1273 C1269 1.495 . S
C1273 H1279 0.959 . S
C1273 H1280 0.961 . S
C1273 H1281 0.960 . S
C1274 C1272 1.381 . S
C1274 C1275 1.394 . S
C1274 H1282 0.930 . S
C1275 C1274 1.394 . S
C1275 C1276 1.383 . S
C1275 H1283 0.929 . S
C1276 C1275 1.383 . S
C1276 C1277 1.377 . S
C1277 H1261 0.930 . S
C1277 C1276 1.377 . S
C1277 C1278 1.379 . S
C1278 H1262 0.931 . S
C1278 C1272 1.383 . S
C1278 C1277 1.379 . S
H1279 C1273 0.959 . S
H1280 C1273 0.961 . S
H1281 C1273 0.960 . S
H1282 C1274 0.930 . S
H1283 C1275 0.929 . S
H1284 C1292 0.929 . S
H1285 C1294 0.930 . S
H1286 C1296 0.930 . S
H1287 C1299 0.929 . S
H1288 C1302 0.930 . S
H1289 C1304 0.960 . S
H1290 C1304 0.960 . S
H1291 C1304 0.960 . S
C1292 H1284 0.929 . S
C1292 C1293 1.377 . S
C1292 C1294 1.384 . S
C1293 C1292 1.377 . S
C1293 C1299 1.390 . S
C1294 H1285 0.930 . S
C1294 C1292 1.384 . S
C1294 C1295 1.372 . S
C1295 C1294 1.372 . S
C1295 C1296 1.400 . S
C1295 C1300 1.490 . S
C1296 H1286 0.930 . S
C1296 C1295 1.400 . S
C1296 C1299 1.386 . S
H1297 C1313 0.930 . S
H1298 C1314 0.931 . S
C1299 H1287 0.929 . S
C1299 C1293 1.390 . S
C1299 C1296 1.386 . S
C1300 C1295 1.490 . S
C1300 C1302 1.395 . S
C1300 C1303 1.403 . S
H1301 C1307 0.930 . S
C1302 H1288 0.930 . S
C1302 C1300 1.395 . S
C1302 C1305 1.403 . S
C1303 C1300 1.403 . S
C1303 C1304 1.524 . S
C1303 C1307 1.400 . S
C1304 H1289 0.960 . S
C1304 H1290 0.960 . S
C1304 H1291 0.960 . S
C1304 C1303 1.524 . S
C1305 C1302 1.403 . S
C1305 C1306 1.392 . S
C1305 C1309 1.495 . S
C1306 C1305 1.392 . S
C1306 C1307 1.385 . S
C1306 C1308 1.478 . S
C1307 H1301 0.930 . S
C1307 C1303 1.400 . S
C1307 C1306 1.385 . S
C1308 C1306 1.478 . S
C1308 C1310 1.381 . S
C1308 C1314 1.383 . S
C1309 C1305 1.495 . S
C1309 H1315 0.959 . S
C1309 H1316 0.961 . S
C1309 H1317 0.960 . S
C1310 C1308 1.381 . S
C1310 C1311 1.394 . S
C1310 H1318 0.930 . S
C1311 C1310 1.394 . S
C1311 C1312 1.383 . S
C1311 H1319 0.929 . S
C1312 C1311 1.383 . S
C1312 C1313 1.377 . S
C1313 H1297 0.930 . S
C1313 C1312 1.377 . S
C1313 C1314 1.379 . S
C1314 H1298 0.931 . S
C1314 C1308 1.383 . S
C1314 C1313 1.379 . S
H1315 C1309 0.959 . S
H1316 C1309 0.961 . S
H1317 C1309 0.960 . S
H1318 C1310 0.930 . S
H1319 C1311 0.929 . S
H1320 C1328 0.929 . S
H1321 C1330 0.930 . S
H1322 C1332 0.930 . S
H1323 C1335 0.929 . S
H1324 C1338 0.930 . S
H1325 C1340 0.960 . S
H1326 C1340 0.960 . S
H1327 C1340 0.960 . S
C1328 H1320 0.929 . S
C1328 C1329 1.377 . S
C1328 C1330 1.384 . S
C1329 C1328 1.377 . S
C1329 C1335 1.390 . S
C1330 H1321 0.930 . S
C1330 C1328 1.384 . S
C1330 C1331 1.372 . S
C1331 C1330 1.372 . S
C1331 C1332 1.400 . S
C1331 C1336 1.490 . S
C1332 H1322 0.930 . S
C1332 C1331 1.400 . S
C1332 C1335 1.386 . S
H1333 C1349 0.930 . S
H1334 C1350 0.931 . S
C1335 H1323 0.929 . S
C1335 C1329 1.390 . S
C1335 C1332 1.386 . S
C1336 C1331 1.490 . S
C1336 C1338 1.395 . S
C1336 C1339 1.403 . S
H1337 C1343 0.930 . S
C1338 H1324 0.930 . S
C1338 C1336 1.395 . S
C1338 C1341 1.403 . S
C1339 C1336 1.403 . S
C1339 C1340 1.524 . S
C1339 C1343 1.400 . S
C1340 H1325 0.960 . S
C1340 H1326 0.960 . S
C1340 H1327 0.960 . S
C1340 C1339 1.524 . S
C1341 C1338 1.403 . S
C1341 C1342 1.392 . S
C1341 C1345 1.495 . S
C1342 C1341 1.392 . S
C1342 C1343 1.385 . S
C1342 C1344 1.478 . S
C1343 H1337 0.930 . S
C1343 C1339 1.400 . S
C1343 C1342 1.385 . S
C1344 C1342 1.478 . S
C1344 C1346 1.381 . S
C1344 C1350 1.383 . S
C1345 C1341 1.495 . S
C1345 H1351 0.959 . S
C1345 H1352 0.961 . S
C1345 H1353 0.960 . S
C1346 C1344 1.381 . S
C1346 C1347 1.394 . S
C1346 H1354 0.930 . S
C1347 C1346 1.394 . S
C1347 C1348 1.383 . S
C1347 H1355 0.929 . S
C1348 C1347 1.383 . S
C1348 C1349 1.377 . S
C1349 H1333 0.930 . S
C1349 C1348 1.377 . S
C1349 C1350 1.379 . S
C1350 H1334 0.931 . S
C1350 C1344 1.383 . S
C1350 C1349 1.379 . S
H1351 C1345 0.959 . S
H1352 C1345 0.961 . S
H1353 C1345 0.960 . S
H1354 C1346 0.930 . S
H1355 C1347 0.929 . S
H1356 C1364 0.929 . S
H1357 C1366 0.930 . S
H1358 C1368 0.930 . S
H1359 C1371 0.929 . S
H1360 C1374 0.930 . S
H1361 C1376 0.960 . S
H1362 C1376 0.960 . S
H1363 C1376 0.960 . S
C1364 H1356 0.929 . S
C1364 C1365 1.377 . S
C1364 C1366 1.384 . S
C1365 C1364 1.377 . S
C1365 C1371 1.390 . S
C1366 H1357 0.930 . S
C1366 C1364 1.384 . S
C1366 C1367 1.372 . S
C1367 C1366 1.372 . S
C1367 C1368 1.400 . S
C1367 C1372 1.490 . S
C1368 H1358 0.930 . S
C1368 C1367 1.400 . S
C1368 C1371 1.386 . S
H1369 C1385 0.930 . S
H1370 C1386 0.931 . S
C1371 H1359 0.929 . S
C1371 C1365 1.390 . S
C1371 C1368 1.386 . S
C1372 C1367 1.490 . S
C1372 C1374 1.395 . S
C1372 C1375 1.403 . S
H1373 C1379 0.930 . S
C1374 H1360 0.930 . S
C1374 C1372 1.395 . S
C1374 C1377 1.403 . S
C1375 C1372 1.403 . S
C1375 C1376 1.524 . S
C1375 C1379 1.400 . S
C1376 H1361 0.960 . S
C1376 H1362 0.960 . S
C1376 H1363 0.960 . S
C1376 C1375 1.524 . S
C1377 C1374 1.403 . S
C1377 C1378 1.392 . S
C1377 C1381 1.495 . S
C1378 C1377 1.392 . S
C1378 C1379 1.385 . S
C1378 C1380 1.478 . S
C1379 H1373 0.930 . S
C1379 C1375 1.400 . S
C1379 C1378 1.385 . S
C1380 C1378 1.478 . S
C1380 C1382 1.381 . S
C1380 C1386 1.383 . S
C1381 C1377 1.495 . S
C1381 H1387 0.959 . S
C1381 H1388 0.961 . S
C1381 H1389 0.960 . S
C1382 C1380 1.381 . S
C1382 C1383 1.394 . S
C1382 H1390 0.930 . S
C1383 C1382 1.394 . S
C1383 C1384 1.383 . S
C1383 H1391 0.929 . S
C1384 C1383 1.383 . S
C1384 C1385 1.377 . S
C1385 H1369 0.930 . S
C1385 C1384 1.377 . S
C1385 C1386 1.379 . S
C1386 H1370 0.931 . S
C1386 C1380 1.383 . S
C1386 C1385 1.379 . S
H1387 C1381 0.959 . S
H1388 C1381 0.961 . S
H1389 C1381 0.960 . S
H1390 C1382 0.930 . S
H1391 C1383 0.929 . S
H1392 C1400 0.929 . S
H1393 C1402 0.930 . S
H1394 C1404 0.930 . S
H1395 C1407 0.929 . S
H1396 C1410 0.930 . S
H1397 C1412 0.960 . S
H1398 C1412 0.960 . S
H1399 C1412 0.960 . S
C1400 H1392 0.929 . S
C1400 C1401 1.377 . S
C1400 C1402 1.384 . S
C1401 C1400 1.377 . S
C1401 C1407 1.390 . S
C1402 H1393 0.930 . S
C1402 C1400 1.384 . S
C1402 C1403 1.372 . S
C1403 C1402 1.372 . S
C1403 C1404 1.400 . S
C1403 C1408 1.490 . S
C1404 H1394 0.930 . S
C1404 C1403 1.400 . S
C1404 C1407 1.386 . S
H1405 C1421 0.930 . S
H1406 C1422 0.931 . S
C1407 H1395 0.929 . S
C1407 C1401 1.390 . S
C1407 C1404 1.386 . S
C1408 C1403 1.490 . S
C1408 C1410 1.395 . S
C1408 C1411 1.403 . S
H1409 C1415 0.930 . S
C1410 H1396 0.930 . S
C1410 C1408 1.395 . S
C1410 C1413 1.403 . S
C1411 C1408 1.403 . S
C1411 C1412 1.524 . S
C1411 C1415 1.400 . S
C1412 H1397 0.960 . S
C1412 H1398 0.960 . S
C1412 H1399 0.960 . S
C1412 C1411 1.524 . S
C1413 C1410 1.403 . S
C1413 C1414 1.392 . S
C1413 C1417 1.495 . S
C1414 C1413 1.392 . S
C1414 C1415 1.385 . S
C1414 C1416 1.478 . S
C1415 H1409 0.930 . S
C1415 C1411 1.400 . S
C1415 C1414 1.385 . S
C1416 C1414 1.478 . S
C1416 C1418 1.381 . S
C1416 C1422 1.383 . S
C1417 C1413 1.495 . S
C1417 H1423 0.959 . S
C1417 H1424 0.961 . S
C1417 H1425 0.960 . S
C1418 C1416 1.381 . S
C1418 C1419 1.394 . S
C1418 H1426 0.930 . S
C1419 C1418 1.394 . S
C1419 C1420 1.383 . S
C1419 H1427 0.929 . S
C1420 C1419 1.383 . S
C1420 C1421 1.377 . S
C1421 H1405 0.930 . S
C1421 C1420 1.377 . S
C1421 C1422 1.379 . S
C1422 H1406 0.931 . S
C1422 C1416 1.383 . S
C1422 C1421 1.379 . S
H1423 C1417 0.959 . S
H1424 C1417 0.961 . S
H1425 C1417 0.960 . S
H1426 C1418 0.930 . S
H1427 C1419 0.929 . S
H1428 C1436 0.929 . S
H1429 C1438 0.930 . S
H1430 C1440 0.930 . S
H1431 C1443 0.929 . S
H1432 C1446 0.930 . S
H1433 C1448 0.960 . S
H1434 C1448 0.960 . S
H1435 C1448 0.960 . S
C1436 H1428 0.929 . S
C1436 C1437 1.377 . S
C1436 C1438 1.384 . S
C1437 C1436 1.377 . S
C1437 C1443 1.390 . S
C1438 H1429 0.930 . S
C1438 C1436 1.384 . S
C1438 C1439 1.372 . S
C1439 C1438 1.372 . S
C1439 C1440 1.400 . S
C1439 C1444 1.490 . S
C1440 H1430 0.930 . S
C1440 C1439 1.400 . S
C1440 C1443 1.386 . S
H1441 C1457 0.930 . S
H1442 C1458 0.931 . S
C1443 H1431 0.929 . S
C1443 C1437 1.390 . S
C1443 C1440 1.386 . S
C1444 C1439 1.490 . S
C1444 C1446 1.395 . S
C1444 C1447 1.403 . S
H1445 C1451 0.930 . S
C1446 H1432 0.930 . S
C1446 C1444 1.395 . S
C1446 C1449 1.403 . S
C1447 C1444 1.403 . S
C1447 C1448 1.524 . S
C1447 C1451 1.400 . S
C1448 H1433 0.960 . S
C1448 H1434 0.960 . S
C1448 H1435 0.960 . S
C1448 C1447 1.524 . S
C1449 C1446 1.403 . S
C1449 C1450 1.392 . S
C1449 C1453 1.495 . S
C1450 C1449 1.392 . S
C1450 C1451 1.385 . S
C1450 C1452 1.478 . S
C1451 H1445 0.930 . S
C1451 C1447 1.400 . S
C1451 C1450 1.385 . S
C1452 C1450 1.478 . S
C1452 C1454 1.381 . S
C1452 C1458 1.383 . S
C1453 C1449 1.495 . S
C1453 H1459 0.959 . S
C1453 H1460 0.961 . S
C1453 H1461 0.960 . S
C1454 C1452 1.381 . S
C1454 C1455 1.394 . S
C1454 H1462 0.930 . S
C1455 C1454 1.394 . S
C1455 C1456 1.383 . S
C1455 H1463 0.929 . S
C1456 C1455 1.383 . S
C1456 C1457 1.377 . S
C1457 H1441 0.930 . S
C1457 C1456 1.377 . S
C1457 C1458 1.379 . S
C1458 H1442 0.931 . S
C1458 C1452 1.383 . S
C1458 C1457 1.379 . S
H1459 C1453 0.959 . S
H1460 C1453 0.961 . S
H1461 C1453 0.960 . S
H1462 C1454 0.930 . S
H1463 C1455 0.929 . S
H1464 C1472 0.929 . S
H1465 C1474 0.930 . S
H1466 C1476 0.930 . S
H1467 C1479 0.929 . S
H1468 C1482 0.930 . S
H1469 C1484 0.960 . S
H1470 C1484 0.960 . S
H1471 C1484 0.960 . S
C1472 H1464 0.929 . S
C1472 C1473 1.377 . S
C1472 C1474 1.384 . S
C1473 C1472 1.377 . S
C1473 C1479 1.390 . S
C1474 H1465 0.930 . S
C1474 C1472 1.384 . S
C1474 C1475 1.372 . S
C1475 C1474 1.372 . S
C1475 C1476 1.400 . S
C1475 C1480 1.490 . S
C1476 H1466 0.930 . S
C1476 C1475 1.400 . S
C1476 C1479 1.386 . S
H1477 C1493 0.930 . S
H1478 C1494 0.931 . S
C1479 H1467 0.929 . S
C1479 C1473 1.390 . S
C1479 C1476 1.386 . S
C1480 C1475 1.490 . S
C1480 C1482 1.395 . S
C1480 C1483 1.403 . S
H1481 C1487 0.930 . S
C1482 H1468 0.930 . S
C1482 C1480 1.395 . S
C1482 C1485 1.403 . S
C1483 C1480 1.403 . S
C1483 C1484 1.524 . S
C1483 C1487 1.400 . S
C1484 H1469 0.960 . S
C1484 H1470 0.960 . S
C1484 H1471 0.960 . S
C1484 C1483 1.524 . S
C1485 C1482 1.403 . S
C1485 C1486 1.392 . S
C1485 C1489 1.495 . S
C1486 C1485 1.392 . S
C1486 C1487 1.385 . S
C1486 C1488 1.478 . S
C1487 H1481 0.930 . S
C1487 C1483 1.400 . S
C1487 C1486 1.385 . S
C1488 C1486 1.478 . S
C1488 C1490 1.381 . S
C1488 C1494 1.383 . S
C1489 C1485 1.495 . S
C1489 H1495 0.959 . S
C1489 H1496 0.961 . S
C1489 H1497 0.960 . S
C1490 C1488 1.381 . S
C1490 C1491 1.394 . S
C1490 H1498 0.930 . S
C1491 C1490 1.394 . S
C1491 C1492 1.383 . S
C1491 H1499 0.929 . S
C1492 C1491 1.383 . S
C1492 C1493 1.377 . S
C1493 H1477 0.930 . S
C1493 C1492 1.377 . S
C1493 C1494 1.379 . S
C1494 H1478 0.931 . S
C1494 C1488 1.383 . S
C1494 C1493 1.379 . S
H1495 C1489 0.959 . S
H1496 C1489 0.961 . S
H1497 C1489 0.960 . S
H1498 C1490 0.930 . S
H1499 C1491 0.929 . S
H1500 C1508 0.929 . S
H1501 C1510 0.930 . S
H1502 C1512 0.930 . S
H1503 C1515 0.929 . S
H1504 C1518 0.930 . S
H1505 C1520 0.960 . S
H1506 C1520 0.960 . S
H1507 C1520 0.960 . S
C1508 H1500 0.929 . S
C1508 C1509 1.377 . S
C1508 C1510 1.384 . S
C1509 C1508 1.377 . S
C1509 C1515 1.390 . S
C1510 H1501 0.930 . S
C1510 C1508 1.384 . S
C1510 C1511 1.372 . S
C1511 C1510 1.372 . S
C1511 C1512 1.400 . S
C1511 C1516 1.490 . S
C1512 H1502 0.930 . S
C1512 C1511 1.400 . S
C1512 C1515 1.386 . S
H1513 C1529 0.930 . S
H1514 C1530 0.931 . S
C1515 H1503 0.929 . S
C1515 C1509 1.390 . S
C1515 C1512 1.386 . S
C1516 C1511 1.490 . S
C1516 C1518 1.395 . S
C1516 C1519 1.403 . S
H1517 C1523 0.930 . S
C1518 H1504 0.930 . S
C1518 C1516 1.395 . S
C1518 C1521 1.403 . S
C1519 C1516 1.403 . S
C1519 C1520 1.524 . S
C1519 C1523 1.400 . S
C1520 H1505 0.960 . S
C1520 H1506 0.960 . S
C1520 H1507 0.960 . S
C1520 C1519 1.524 . S
C1521 C1518 1.403 . S
C1521 C1522 1.392 . S
C1521 C1525 1.495 . S
C1522 C1521 1.392 . S
C1522 C1523 1.385 . S
C1522 C1524 1.478 . S
C1523 H1517 0.930 . S
C1523 C1519 1.400 . S
C1523 C1522 1.385 . S
C1524 C1522 1.478 . S
C1524 C1526 1.381 . S
C1524 C1530 1.383 . S
C1525 C1521 1.495 . S
C1525 H1531 0.959 . S
C1525 H1532 0.961 . S
C1525 H1533 0.960 . S
C1526 C1524 1.381 . S
C1526 C1527 1.394 . S
C1526 H1534 0.930 . S
C1527 C1526 1.394 . S
C1527 C1528 1.383 . S
C1527 H1535 0.929 . S
C1528 C1527 1.383 . S
C1528 C1529 1.377 . S
C1529 H1513 0.930 . S
C1529 C1528 1.377 . S
C1529 C1530 1.379 . S
C1530 H1514 0.931 . S
C1530 C1524 1.383 . S
C1530 C1529 1.379 . S
H1531 C1525 0.959 . S
H1532 C1525 0.961 . S
H1533 C1525 0.960 . S
H1534 C1526 0.930 . S
H1535 C1527 0.929 . S
H1536 C1544 0.929 . S
H1537 C1546 0.930 . S
H1538 C1548 0.930 . S
H1539 C1551 0.929 . S
H1540 C1554 0.930 . S
H1541 C1556 0.960 . S
H1542 C1556 0.960 . S
H1543 C1556 0.960 . S
C1544 H1536 0.929 . S
C1544 C1545 1.377 . S
C1544 C1546 1.384 . S
C1545 C1544 1.377 . S
C1545 C1551 1.390 . S
C1546 H1537 0.930 . S
C1546 C1544 1.384 . S
C1546 C1547 1.372 . S
C1547 C1546 1.372 . S
C1547 C1548 1.400 . S
C1547 C1552 1.490 . S
C1548 H1538 0.930 . S
C1548 C1547 1.400 . S
C1548 C1551 1.386 . S
H1549 C1565 0.930 . S
H1550 C1566 0.931 . S
C1551 H1539 0.929 . S
C1551 C1545 1.390 . S
C1551 C1548 1.386 . S
C1552 C1547 1.490 . S
C1552 C1554 1.395 . S
C1552 C1555 1.403 . S
H1553 C1559 0.930 . S
C1554 H1540 0.930 . S
C1554 C1552 1.395 . S
C1554 C1557 1.403 . S
C1555 C1552 1.403 . S
C1555 C1556 1.524 . S
C1555 C1559 1.400 . S
C1556 H1541 0.960 . S
C1556 H1542 0.960 . S
C1556 H1543 0.960 . S
C1556 C1555 1.524 . S
C1557 C1554 1.403 . S
C1557 C1558 1.392 . S
C1557 C1561 1.495 . S
C1558 C1557 1.392 . S
C1558 C1559 1.385 . S
C1558 C1560 1.478 . S
C1559 H1553 0.930 . S
C1559 C1555 1.400 . S
C1559 C1558 1.385 . S
C1560 C1558 1.478 . S
C1560 C1562 1.381 . S
C1560 C1566 1.383 . S
C1561 C1557 1.495 . S
C1561 H1567 0.959 . S
C1561 H1568 0.961 . S
C1561 H1569 0.960 . S
C1562 C1560 1.381 . S
C1562 C1563 1.394 . S
C1562 H1570 0.930 . S
C1563 C1562 1.394 . S
C1563 C1564 1.383 . S
C1563 H1571 0.929 . S
C1564 C1563 1.383 . S
C1564 C1565 1.377 . S
C1565 H1549 0.930 . S
C1565 C1564 1.377 . S
C1565 C1566 1.379 . S
C1566 H1550 0.931 . S
C1566 C1560 1.383 . S
C1566 C1565 1.379 . S
H1567 C1561 0.959 . S
H1568 C1561 0.961 . S
H1569 C1561 0.960 . S
H1570 C1562 0.930 . S
H1571 C1563 0.929 . S
H1572 C1580 0.929 . S
H1573 C1582 0.930 . S
H1574 C1584 0.930 . S
H1575 C1587 0.929 . S
H1576 C1590 0.930 . S
H1577 C1592 0.960 . S
H1578 C1592 0.960 . S
H1579 C1592 0.960 . S
C1580 H1572 0.929 . S
C1580 C1581 1.377 . S
C1580 C1582 1.384 . S
C1581 C1580 1.377 . S
C1581 C1587 1.390 . S
C1582 H1573 0.930 . S
C1582 C1580 1.384 . S
C1582 C1583 1.372 . S
C1583 C1582 1.372 . S
C1583 C1584 1.400 . S
C1583 C1588 1.490 . S
C1584 H1574 0.930 . S
C1584 C1583 1.400 . S
C1584 C1587 1.386 . S
H1585 C1601 0.930 . S
H1586 C1602 0.931 . S
C1587 H1575 0.929 . S
C1587 C1581 1.390 . S
C1587 C1584 1.386 . S
C1588 C1583 1.490 . S
C1588 C1590 1.395 . S
C1588 C1591 1.403 . S
H1589 C1595 0.930 . S
C1590 H1576 0.930 . S
C1590 C1588 1.395 . S
C1590 C1593 1.403 . S
C1591 C1588 1.403 . S
C1591 C1592 1.524 . S
C1591 C1595 1.400 . S
C1592 H1577 0.960 . S
C1592 H1578 0.960 . S
C1592 H1579 0.960 . S
C1592 C1591 1.524 . S
C1593 C1590 1.403 . S
C1593 C1594 1.392 . S
C1593 C1597 1.495 . S
C1594 C1593 1.392 . S
C1594 C1595 1.385 . S
C1594 C1596 1.478 . S
C1595 H1589 0.930 . S
C1595 C1591 1.400 . S
C1595 C1594 1.385 . S
C1596 C1594 1.478 . S
C1596 C1598 1.381 . S
C1596 C1602 1.383 . S
C1597 C1593 1.495 . S
C1597 H1603 0.959 . S
C1597 H1604 0.961 . S
C1597 H1605 0.960 . S
C1598 C1596 1.381 . S
C1598 C1599 1.394 . S
C1598 H1606 0.930 . S
C1599 C1598 1.394 . S
C1599 C1600 1.383 . S
C1599 H1607 0.929 . S
C1600 C1599 1.383 . S
C1600 C1601 1.377 . S
C1601 H1585 0.930 . S
C1601 C1600 1.377 . S
C1601 C1602 1.379 . S
C1602 H1586 0.931 . S
C1602 C1596 1.383 . S
C1602 C1601 1.379 . S
H1603 C1597 0.959 . S
H1604 C1597 0.961 . S
H1605 C1597 0.960 . S
H1606 C1598 0.930 . S
H1607 C1599 0.929 . S
H1608 C1616 0.929 . S
H1609 C1618 0.930 . S
H1610 C1620 0.930 . S
H1611 C1623 0.929 . S
H1612 C1626 0.930 . S
H1613 C1628 0.960 . S
H1614 C1628 0.960 . S
H1615 C1628 0.960 . S
C1616 H1608 0.929 . S
C1616 C1617 1.377 . S
C1616 C1618 1.384 . S
C1617 C1616 1.377 . S
C1617 C1623 1.390 . S
C1618 H1609 0.930 . S
C1618 C1616 1.384 . S
C1618 C1619 1.372 . S
C1619 C1618 1.372 . S
C1619 C1620 1.400 . S
C1619 C1624 1.490 . S
C1620 H1610 0.930 . S
C1620 C1619 1.400 . S
C1620 C1623 1.386 . S
H1621 C1637 0.930 . S
H1622 C1638 0.931 . S
C1623 H1611 0.929 . S
C1623 C1617 1.390 . S
C1623 C1620 1.386 . S
C1624 C1619 1.490 . S
C1624 C1626 1.395 . S
C1624 C1627 1.403 . S
H1625 C1631 0.930 . S
C1626 H1612 0.930 . S
C1626 C1624 1.395 . S
C1626 C1629 1.403 . S
C1627 C1624 1.403 . S
C1627 C1628 1.524 . S
C1627 C1631 1.400 . S
C1628 H1613 0.960 . S
C1628 H1614 0.960 . S
C1628 H1615 0.960 . S
C1628 C1627 1.524 . S
C1629 C1626 1.403 . S
C1629 C1630 1.392 . S
C1629 C1633 1.495 . S
C1630 C1629 1.392 . S
C1630 C1631 1.385 . S
C1630 C1632 1.478 . S
C1631 H1625 0.930 . S
C1631 C1627 1.400 . S
C1631 C1630 1.385 . S
C1632 C1630 1.478 . S
C1632 C1634 1.381 . S
C1632 C1638 1.383 . S
C1633 C1629 1.495 . S
C1633 H1639 0.959 . S
C1633 H1640 0.961 . S
C1633 H1641 0.960 . S
C1634 C1632 1.381 . S
C1634 C1635 1.394 . S
C1634 H1642 0.930 . S
C1635 C1634 1.394 . S
C1635 C1636 1.383 . S
C1635 H1643 0.929 . S
C1636 C1635 1.383 . S
C1636 C1637 1.377 . S
C1637 H1621 0.930 . S
C1637 C1636 1.377 . S
C1637 C1638 1.379 . S
C1638 H1622 0.931 . S
C1638 C1632 1.383 . S
C1638 C1637 1.379 . S
H1639 C1633 0.959 . S
H1640 C1633 0.961 . S
H1641 C1633 0.960 . S
H1642 C1634 0.930 . S
H1643 C1635 0.929 . S
H1644 C1652 0.929 . S
H1645 C1654 0.930 . S
H1646 C1656 0.930 . S
H1647 C1659 0.929 . S
H1648 C1662 0.930 . S
H1649 C1664 0.960 . S
H1650 C1664 0.960 . S
H1651 C1664 0.960 . S
C1652 H1644 0.929 . S
C1652 C1653 1.377 . S
C1652 C1654 1.384 . S
C1653 C1652 1.377 . S
C1653 C1659 1.390 . S
C1654 H1645 0.930 . S
C1654 C1652 1.384 . S
C1654 C1655 1.372 . S
C1655 C1654 1.372 . S
C1655 C1656 1.400 . S
C1655 C1660 1.490 . S
C1656 H1646 0.930 . S
C1656 C1655 1.400 . S
C1656 C1659 1.386 . S
H1657 C1673 0.930 . S
H1658 C1674 0.931 . S
C1659 H1647 0.929 . S
C1659 C1653 1.390 . S
C1659 C1656 1.386 . S
C1660 C1655 1.490 . S
C1660 C1662 1.395 . S
C1660 C1663 1.403 . S
H1661 C1667 0.930 . S
C1662 H1648 0.930 . S
C1662 C1660 1.395 . S
C1662 C1665 1.403 . S
C1663 C1660 1.403 . S
C1663 C1664 1.524 . S
C1663 C1667 1.400 . S
C1664 H1649 0.960 . S
C1664 H1650 0.960 . S
C1664 H1651 0.960 . S
C1664 C1663 1.524 . S
C1665 C1662 1.403 . S
C1665 C1666 1.392 . S
C1665 C1669 1.495 . S
C1666 C1665 1.392 . S
C1666 C1667 1.385 . S
C1666 C1668 1.478 . S
C1667 H1661 0.930 . S
C1667 C1663 1.400 . S
C1667 C1666 1.385 . S
C1668 C1666 1.478 . S
C1668 C1670 1.381 . S
C1668 C1674 1.383 . S
C1669 C1665 1.495 . S
C1669 H1675 0.959 . S
C1669 H1676 0.961 . S
C1669 H1677 0.960 . S
C1670 C1668 1.381 . S
C1670 C1671 1.394 . S
C1670 H1678 0.930 . S
C1671 C1670 1.394 . S
C1671 C1672 1.383 . S
C1671 H1679 0.929 . S
C1672 C1671 1.383 . S
C1672 C1673 1.377 . S
C1673 H1657 0.930 . S
C1673 C1672 1.377 . S
C1673 C1674 1.379 . S
C1674 H1658 0.931 . S
C1674 C1668 1.383 . S
C1674 C1673 1.379 . S
H1675 C1669 0.959 . S
H1676 C1669 0.961 . S
H1677 C1669 0.960 . S
H1678 C1670 0.930 . S
H1679 C1671 0.929 . S
H1680 C1688 0.929 . S
H1681 C1690 0.930 . S
H1682 C1692 0.930 . S
H1683 C1695 0.929 . S
H1684 C1698 0.930 . S
H1685 C1700 0.960 . S
H1686 C1700 0.960 . S
H1687 C1700 0.960 . S
C1688 H1680 0.929 . S
C1688 C1689 1.377 . S
C1688 C1690 1.384 . S
C1689 C1688 1.377 . S
C1689 C1695 1.390 . S
C1690 H1681 0.930 . S
C1690 C1688 1.384 . S
C1690 C1691 1.372 . S
C1691 C1690 1.372 . S
C1691 C1692 1.400 . S
C1691 C1696 1.490 . S
C1692 H1682 0.930 . S
C1692 C1691 1.400 . S
C1692 C1695 1.386 . S
H1693 C1709 0.930 . S
H1694 C1710 0.931 . S
C1695 H1683 0.929 . S
C1695 C1689 1.390 . S
C1695 C1692 1.386 . S
C1696 C1691 1.490 . S
C1696 C1698 1.395 . S
C1696 C1699 1.403 . S
H1697 C1703 0.930 . S
C1698 H1684 0.930 . S
C1698 C1696 1.395 . S
C1698 C1701 1.403 . S
C1699 C1696 1.403 . S
C1699 C1700 1.524 . S
C1699 C1703 1.400 . S
C1700 H1685 0.960 . S
C1700 H1686 0.960 . S
C1700 H1687 0.960 . S
C1700 C1699 1.524 . S
C1701 C1698 1.403 . S
C1701 C1702 1.392 . S
C1701 C1705 1.495 . S
C1702 C1701 1.392 . S
C1702 C1703 1.385 . S
C1702 C1704 1.478 . S
C1703 H1697 0.930 . S
C1703 C1699 1.400 . S
C1703 C1702 1.385 . S
C1704 C1702 1.478 . S
C1704 C1706 1.381 . S
C1704 C1710 1.383 . S
C1705 C1701 1.495 . S
C1705 H1711 0.959 . S
C1705 H1712 0.961 . S
C1705 H1713 0.960 . S
C1706 C1704 1.381 . S
C1706 C1707 1.394 . S
C1706 H1714 0.930 . S
C1707 C1706 1.394 . S
C1707 C1708 1.383 . S
C1707 H1715 0.929 . S
C1708 C1707 1.383 . S
C1708 C1709 1.377 . S
C1709 H1693 0.930 . S
C1709 C1708 1.377 . S
C1709 C1710 1.379 . S
C1710 H1694 0.931 . S
C1710 C1704 1.383 . S
C1710 C1709 1.379 . S
H1711 C1705 0.959 . S
H1712 C1705 0.961 . S
H1713 C1705 0.960 . S
H1714 C1706 0.930 . S
H1715 C1707 0.929 . S
H1716 C1724 0.929 . S
H1717 C1726 0.930 . S
H1718 C1728 0.930 . S
H1719 C1731 0.929 . S
H1720 C1734 0.930 . S
H1721 C1736 0.960 . S
H1722 C1736 0.960 . S
H1723 C1736 0.960 . S
C1724 H1716 0.929 . S
C1724 C1725 1.377 . S
C1724 C1726 1.384 . S
C1725 C1724 1.377 . S
C1725 C1731 1.390 . S
C1726 H1717 0.930 . S
C1726 C1724 1.384 . S
C1726 C1727 1.372 . S
C1727 C1726 1.372 . S
C1727 C1728 1.400 . S
C1727 C1732 1.490 . S
C1728 H1718 0.930 . S
C1728 C1727 1.400 . S
C1728 C1731 1.386 . S
H1729 C1745 0.930 . S
H1730 C1746 0.931 . S
C1731 H1719 0.929 . S
C1731 C1725 1.390 . S
C1731 C1728 1.386 . S
C1732 C1727 1.490 . S
C1732 C1734 1.395 . S
C1732 C1735 1.403 . S
H1733 C1739 0.930 . S
C1734 H1720 0.930 . S
C1734 C1732 1.395 . S
C1734 C1737 1.403 . S
C1735 C1732 1.403 . S
C1735 C1736 1.524 . S
C1735 C1739 1.400 . S
C1736 H1721 0.960 . S
C1736 H1722 0.960 . S
C1736 H1723 0.960 . S
C1736 C1735 1.524 . S
C1737 C1734 1.403 . S
C1737 C1738 1.392 . S
C1737 C1741 1.495 . S
C1738 C1737 1.392 . S
C1738 C1739 1.385 . S
C1738 C1740 1.478 . S
C1739 H1733 0.930 . S
C1739 C1735 1.400 . S
C1739 C1738 1.385 . S
C1740 C1738 1.478 . S
C1740 C1742 1.381 . S
C1740 C1746 1.383 . S
C1741 C1737 1.495 . S
C1741 H1747 0.959 . S
C1741 H1748 0.961 . S
C1741 H1749 0.960 . S
C1742 C1740 1.381 . S
C1742 C1743 1.394 . S
C1742 H1750 0.930 . S
C1743 C1742 1.394 . S
C1743 C1744 1.383 . S
C1743 H1751 0.929 . S
C1744 C1743 1.383 . S
C1744 C1745 1.377 . S
C1745 H1729 0.930 . S
C1745 C1744 1.377 . S
C1745 C1746 1.379 . S
C1746 H1730 0.931 . S
C1746 C1740 1.383 . S
C1746 C1745 1.379 . S
H1747 C1741 0.959 . S
H1748 C1741 0.961 . S
H1749 C1741 0.960 . S
H1750 C1742 0.930 . S
H1751 C1743 0.929 . S
H1752 C1760 0.929 . S
H1753 C1762 0.930 . S
H1754 C1764 0.930 . S
H1755 C1767 0.929 . S
H1756 C1770 0.930 . S
H1757 C1772 0.960 . S
H1758 C1772 0.960 . S
H1759 C1772 0.960 . S
C1760 H1752 0.929 . S
C1760 C1761 1.377 . S
C1760 C1762 1.384 . S
C1761 C1760 1.377 . S
C1761 C1767 1.390 . S
C1762 H1753 0.930 . S
C1762 C1760 1.384 . S
C1762 C1763 1.372 . S
C1763 C1762 1.372 . S
C1763 C1764 1.400 . S
C1763 C1768 1.490 . S
C1764 H1754 0.930 . S
C1764 C1763 1.400 . S
C1764 C1767 1.386 . S
H1765 C1781 0.930 . S
H1766 C1782 0.931 . S
C1767 H1755 0.929 . S
C1767 C1761 1.390 . S
C1767 C1764 1.386 . S
C1768 C1763 1.490 . S
C1768 C1770 1.395 . S
C1768 C1771 1.403 . S
H1769 C1775 0.930 . S
C1770 H1756 0.930 . S
C1770 C1768 1.395 . S
C1770 C1773 1.403 . S
C1771 C1768 1.403 . S
C1771 C1772 1.524 . S
C1771 C1775 1.400 . S
C1772 H1757 0.960 . S
C1772 H1758 0.960 . S
C1772 H1759 0.960 . S
C1772 C1771 1.524 . S
C1773 C1770 1.403 . S
C1773 C1774 1.392 . S
C1773 C1777 1.495 . S
C1774 C1773 1.392 . S
C1774 C1775 1.385 . S
C1774 C1776 1.478 . S
C1775 H1769 0.930 . S
C1775 C1771 1.400 . S
C1775 C1774 1.385 . S
C1776 C1774 1.478 . S
C1776 C1778 1.381 . S
C1776 C1782 1.383 . S
C1777 C1773 1.495 . S
C1777 H1783 0.959 . S
C1777 H1784 0.961 . S
C1777 H1785 0.960 . S
C1778 C1776 1.381 . S
C1778 C1779 1.394 . S
C1778 H1786 0.930 . S
C1779 C1778 1.394 . S
C1779 C1780 1.383 . S
C1779 H1787 0.929 . S
C1780 C1779 1.383 . S
C1780 C1781 1.377 . S
C1781 H1765 0.930 . S
C1781 C1780 1.377 . S
C1781 C1782 1.379 . S
C1782 H1766 0.931 . S
C1782 C1776 1.383 . S
C1782 C1781 1.379 . S
H1783 C1777 0.959 . S
H1784 C1777 0.961 . S
H1785 C1777 0.960 . S
H1786 C1778 0.930 . S
H1787 C1779 0.929 . S
H1788 C1796 0.929 . S
H1789 C1798 0.930 . S
H1790 C1800 0.930 . S
H1791 C1803 0.929 . S
H1792 C1806 0.930 . S
H1793 C1808 0.960 . S
H1794 C1808 0.960 . S
H1795 C1808 0.960 . S
C1796 H1788 0.929 . S
C1796 C1797 1.377 . S
C1796 C1798 1.384 . S
C1797 C1796 1.377 . S
C1797 C1803 1.390 . S
C1798 H1789 0.930 . S
C1798 C1796 1.384 . S
C1798 C1799 1.372 . S
C1799 C1798 1.372 . S
C1799 C1800 1.400 . S
C1799 C1804 1.490 . S
C1800 H1790 0.930 . S
C1800 C1799 1.400 . S
C1800 C1803 1.386 . S
H1801 C1817 0.930 . S
H1802 C1818 0.931 . S
C1803 H1791 0.929 . S
C1803 C1797 1.390 . S
C1803 C1800 1.386 . S
C1804 C1799 1.490 . S
C1804 C1806 1.395 . S
C1804 C1807 1.403 . S
H1805 C1811 0.930 . S
C1806 H1792 0.930 . S
C1806 C1804 1.395 . S
C1806 C1809 1.403 . S
C1807 C1804 1.403 . S
C1807 C1808 1.524 . S
C1807 C1811 1.400 . S
C1808 H1793 0.960 . S
C1808 H1794 0.960 . S
C1808 H1795 0.960 . S
C1808 C1807 1.524 . S
C1809 C1806 1.403 . S
C1809 C1810 1.392 . S
C1809 C1813 1.495 . S
C1810 C1809 1.392 . S
C1810 C1811 1.385 . S
C1810 C1812 1.478 . S
C1811 H1805 0.930 . S
C1811 C1807 1.400 . S
C1811 C1810 1.385 . S
C1812 C1810 1.478 . S
C1812 C1814 1.381 . S
C1812 C1818 1.383 . S
C1813 C1809 1.495 . S
C1813 H1819 0.959 . S
C1813 H1820 0.961 . S
C1813 H1821 0.960 . S
C1814 C1812 1.381 . S
C1814 C1815 1.394 . S
C1814 H1822 0.930 . S
C1815 C1814 1.394 . S
C1815 C1816 1.383 . S
C1815 H1823 0.929 . S
C1816 C1815 1.383 . S
C1816 C1817 1.377 . S
C1817 H1801 0.930 . S
C1817 C1816 1.377 . S
C1817 C1818 1.379 . S
C1818 H1802 0.931 . S
C1818 C1812 1.383 . S
C1818 C1817 1.379 . S
H1819 C1813 0.959 . S
H1820 C1813 0.961 . S
H1821 C1813 0.960 . S
H1822 C1814 0.930 . S
H1823 C1815 0.929 . S
H1824 C1832 0.929 . S
H1825 C1834 0.930 . S
H1826 C1836 0.930 . S
H1827 C1839 0.929 . S
H1828 C1842 0.930 . S
H1829 C1844 0.960 . S
H1830 C1844 0.960 . S
H1831 C1844 0.960 . S
C1832 H1824 0.929 . S
C1832 C1833 1.377 . S
C1832 C1834 1.384 . S
C1833 C1832 1.377 . S
C1833 C1839 1.390 . S
C1834 H1825 0.930 . S
C1834 C1832 1.384 . S
C1834 C1835 1.372 . S
C1835 C1834 1.372 . S
C1835 C1836 1.400 . S
C1835 C1840 1.490 . S
C1836 H1826 0.930 . S
C1836 C1835 1.400 . S
C1836 C1839 1.386 . S
H1837 C1853 0.930 . S
H1838 C1854 0.931 . S
C1839 H1827 0.929 . S
C1839 C1833 1.390 . S
C1839 C1836 1.386 . S
C1840 C1835 1.490 . S
C1840 C1842 1.395 . S
C1840 C1843 1.403 . S
H1841 C1847 0.930 . S
C1842 H1828 0.930 . S
C1842 C1840 1.395 . S
C1842 C1845 1.403 . S
C1843 C1840 1.403 . S
C1843 C1844 1.524 . S
C1843 C1847 1.400 . S
C1844 H1829 0.960 . S
C1844 H1830 0.960 . S
C1844 H1831 0.960 . S
C1844 C1843 1.524 . S
C1845 C1842 1.403 . S
C1845 C1846 1.392 . S
C1845 C1849 1.495 . S
C1846 C1845 1.392 . S
C1846 C1847 1.385 . S
C1846 C1848 1.478 . S
C1847 H1841 0.930 . S
C1847 C1843 1.400 . S
C1847 C1846 1.385 . S
C1848 C1846 1.478 . S
C1848 C1850 1.381 . S
C1848 C1854 1.383 . S
C1849 C1845 1.495 . S
C1849 H1855 0.959 . S
C1849 H1856 0.961 . S
C1849 H1857 0.960 . S
C1850 C1848 1.381 . S
C1850 C1851 1.394 . S
C1850 H1858 0.930 . S
C1851 C1850 1.394 . S
C1851 C1852 1.383 . S
C1851 H1859 0.929 . S
C1852 C1851 1.383 . S
C1852 C1853 1.377 . S
C1853 H1837 0.930 . S
C1853 C1852 1.377 . S
C1853 C1854 1.379 . S
C1854 H1838 0.931 . S
C1854 C1848 1.383 . S
C1854 C1853 1.379 . S
H1855 C1849 0.959 . S
H1856 C1849 0.961 . S
H1857 C1849 0.960 . S
H1858 C1850 0.930 . S
H1859 C1851 0.929 . S
H1860 C1868 0.929 . S
H1861 C1870 0.930 . S
H1862 C1872 0.930 . S
H1863 C1875 0.929 . S
H1864 C1878 0.930 . S
H1865 C1880 0.960 . S
H1866 C1880 0.960 . S
H1867 C1880 0.960 . S
C1868 H1860 0.929 . S
C1868 C1869 1.377 . S
C1868 C1870 1.384 . S
C1869 C1868 1.377 . S
C1869 C1875 1.390 . S
C1870 H1861 0.930 . S
C1870 C1868 1.384 . S
C1870 C1871 1.372 . S
C1871 C1870 1.372 . S
C1871 C1872 1.400 . S
C1871 C1876 1.490 . S
C1872 H1862 0.930 . S
C1872 C1871 1.400 . S
C1872 C1875 1.386 . S
H1873 C1889 0.930 . S
H1874 C1890 0.931 . S
C1875 H1863 0.929 . S
C1875 C1869 1.390 . S
C1875 C1872 1.386 . S
C1876 C1871 1.490 . S
C1876 C1878 1.395 . S
C1876 C1879 1.403 . S
H1877 C1883 0.930 . S
C1878 H1864 0.930 . S
C1878 C1876 1.395 . S
C1878 C1881 1.403 . S
C1879 C1876 1.403 . S
C1879 C1880 1.524 . S
C1879 C1883 1.400 . S
C1880 H1865 0.960 . S
C1880 H1866 0.960 . S
C1880 H1867 0.960 . S
C1880 C1879 1.524 . S
C1881 C1878 1.403 . S
C1881 C1882 1.392 . S
C1881 C1885 1.495 . S
C1882 C1881 1.392 . S
C1882 C1883 1.385 . S
C1882 C1884 1.478 . S
C1883 H1877 0.930 . S
C1883 C1879 1.400 . S
C1883 C1882 1.385 . S
C1884 C1882 1.478 . S
C1884 C1886 1.381 . S
C1884 C1890 1.383 . S
C1885 C1881 1.495 . S
C1885 H1891 0.959 . S
C1885 H1892 0.961 . S
C1885 H1893 0.960 . S
C1886 C1884 1.381 . S
C1886 C1887 1.394 . S
C1886 H1894 0.930 . S
C1887 C1886 1.394 . S
C1887 C1888 1.383 . S
C1887 H1895 0.929 . S
C1888 C1887 1.383 . S
C1888 C1889 1.377 . S
C1889 H1873 0.930 . S
C1889 C1888 1.377 . S
C1889 C1890 1.379 . S
C1890 H1874 0.931 . S
C1890 C1884 1.383 . S
C1890 C1889 1.379 . S
H1891 C1885 0.959 . S
H1892 C1885 0.961 . S
H1893 C1885 0.960 . S
H1894 C1886 0.930 . S
H1895 C1887 0.929 . S
H1896 C1904 0.929 . S
H1897 C1906 0.930 . S
H1898 C1908 0.930 . S
H1899 C1911 0.929 . S
H1900 C1914 0.930 . S
H1901 C1916 0.960 . S
H1902 C1916 0.960 . S
H1903 C1916 0.960 . S
C1904 H1896 0.929 . S
C1904 C1905 1.377 . S
C1904 C1906 1.384 . S
C1905 C1904 1.377 . S
C1905 C1911 1.390 . S
C1906 H1897 0.930 . S
C1906 C1904 1.384 . S
C1906 C1907 1.372 . S
C1907 C1906 1.372 . S
C1907 C1908 1.400 . S
C1907 C1912 1.490 . S
C1908 H1898 0.930 . S
C1908 C1907 1.400 . S
C1908 C1911 1.386 . S
H1909 C1925 0.930 . S
H1910 C1926 0.931 . S
C1911 H1899 0.929 . S
C1911 C1905 1.390 . S
C1911 C1908 1.386 . S
C1912 C1907 1.490 . S
C1912 C1914 1.395 . S
C1912 C1915 1.403 . S
H1913 C1919 0.930 . S
C1914 H1900 0.930 . S
C1914 C1912 1.395 . S
C1914 C1917 1.403 . S
C1915 C1912 1.403 . S
C1915 C1916 1.524 . S
C1915 C1919 1.400 . S
C1916 H1901 0.960 . S
C1916 H1902 0.960 . S
C1916 H1903 0.960 . S
C1916 C1915 1.524 . S
C1917 C1914 1.403 . S
C1917 C1918 1.392 . S
C1917 C1921 1.495 . S
C1918 C1917 1.392 . S
C1918 C1919 1.385 . S
C1918 C1920 1.478 . S
C1919 H1913 0.930 . S
C1919 C1915 1.400 . S
C1919 C1918 1.385 . S
C1920 C1918 1.478 . S
C1920 C1922 1.381 . S
C1920 C1926 1.383 . S
C1921 C1917 1.495 . S
C1921 H1927 0.959 . S
C1921 H1928 0.961 . S
C1921 H1929 0.960 . S
C1922 C1920 1.381 . S
C1922 C1923 1.394 . S
C1922 H1930 0.930 . S
C1923 C1922 1.394 . S
C1923 C1924 1.383 . S
C1923 H1931 0.929 . S
C1924 C1923 1.383 . S
C1924 C1925 1.377 . S
C1925 H1909 0.930 . S
C1925 C1924 1.377 . S
C1925 C1926 1.379 . S
C1926 H1910 0.931 . S
C1926 C1920 1.383 . S
C1926 C1925 1.379 . S
H1927 C1921 0.959 . S
H1928 C1921 0.961 . S
H1929 C1921 0.960 . S
H1930 C1922 0.930 . S
H1931 C1923 0.929 . S
H1932 C1940 0.929 . S
H1933 C1942 0.930 . S
H1934 C1944 0.930 . S
H1935 C1947 0.929 . S
H1936 C1950 0.930 . S
H1937 C1952 0.960 . S
H1938 C1952 0.960 . S
H1939 C1952 0.960 . S
C1940 H1932 0.929 . S
C1940 C1941 1.377 . S
C1940 C1942 1.384 . S
C1941 C1940 1.377 . S
C1941 C1947 1.390 . S
C1942 H1933 0.930 . S
C1942 C1940 1.384 . S
C1942 C1943 1.372 . S
C1943 C1942 1.372 . S
C1943 C1944 1.400 . S
C1943 C1948 1.490 . S
C1944 H1934 0.930 . S
C1944 C1943 1.400 . S
C1944 C1947 1.386 . S
H1945 C1961 0.930 . S
H1946 C1962 0.931 . S
C1947 H1935 0.929 . S
C1947 C1941 1.390 . S
C1947 C1944 1.386 . S
C1948 C1943 1.490 . S
C1948 C1950 1.395 . S
C1948 C1951 1.403 . S
H1949 C1955 0.930 . S
C1950 H1936 0.930 . S
C1950 C1948 1.395 . S
C1950 C1953 1.403 . S
C1951 C1948 1.403 . S
C1951 C1952 1.524 . S
C1951 C1955 1.400 . S
C1952 H1937 0.960 . S
C1952 H1938 0.960 . S
C1952 H1939 0.960 . S
C1952 C1951 1.524 . S
C1953 C1950 1.403 . S
C1953 C1954 1.392 . S
C1953 C1957 1.495 . S
C1954 C1953 1.392 . S
C1954 C1955 1.385 . S
C1954 C1956 1.478 . S
C1955 H1949 0.930 . S
C1955 C1951 1.400 . S
C1955 C1954 1.385 . S
C1956 C1954 1.478 . S
C1956 C1958 1.381 . S
C1956 C1962 1.383 . S
C1957 C1953 1.495 . S
C1957 H1963 0.959 . S
C1957 H1964 0.961 . S
C1957 H1965 0.960 . S
C1958 C1956 1.381 . S
C1958 C1959 1.394 . S
C1958 H1966 0.930 . S
C1959 C1958 1.394 . S
C1959 C1960 1.383 . S
C1959 H1967 0.929 . S
C1960 C1959 1.383 . S
C1960 C1961 1.377 . S
C1961 H1945 0.930 . S
C1961 C1960 1.377 . S
C1961 C1962 1.379 . S
C1962 H1946 0.931 . S
C1962 C1956 1.383 . S
C1962 C1961 1.379 . S
H1963 C1957 0.959 . S
H1964 C1957 0.961 . S
H1965 C1957 0.960 . S
H1966 C1958 0.930 . S
H1967 C1959 0.929 . S
C537 C8 2.319 . S
C556 C74 2.320 . S
C573 C107 2.319 . S
C592 C41 2.317 . S
C609 C206 2.319 . S
C628 C140 2.324 . S
C645 C173 2.322 . S
C664 C239 2.317 . S
C681 C338 2.321 . S
C700 C272 2.308 . S
C717 C305 2.322 . S
C736 C371 2.317 . S
C753 C470 2.322 . S
C772 C404 2.311 . S
C789 C437 2.322 . S
C808 C503 2.312 . S
C825 C17 1.442 . S
C844 C347 1.423 . S
C861 C380 1.445 . S
C880 C50 1.442 . S
C897 C281 1.438 . S
C916 C83 1.444 . S
C933 C314 1.444 . S
C952 C116 1.448 . S
C969 C479 1.445 . S
C988 C149 1.443 . S
C1005 C512 1.439 . S
C1024 C182 1.441 . S
C1041 C413 1.440 . S
C1060 C215 1.456 . S
C1077 C446 1.443 . S
C1096 C248 1.422 . S
C1113 C28 0.880 . S
C1132 C259 0.893 . S
C1149 C61 0.880 . S
C1168 C160 0.865 . S
C1185 C193 0.878 . S
C1204 C94 0.898 . S
C1221 C226 0.873 . S
C1240 C127 0.856 . S
C1257 C292 0.871 . S
C1276 C523 0.897 . S
C1293 C325 0.877 . S
C1312 C424 0.878 . S
C1329 C358 0.871 . S
C1348 C457 0.898 . S
C1365 C391 0.878 . S
C1384 C490 0.877 . S
C1401 N476 0.933 . S
C1420 N5 0.927 . S
C1437 N38 0.942 . S
C1456 N509 0.961 . S
C1473 N410 0.932 . S
C1492 N71 0.959 . S
C1509 N443 0.936 . S
C1528 N104 0.946 . S
C1545 N344 0.936 . S
C1564 N137 0.944 . S
C1581 N170 0.942 . S
C1600 N377 0.904 . S
C1617 N278 0.934 . S
C1636 N203 0.931 . S
C1653 N236 0.944 . S
C1672 N311 0.932 . S
C1689 N212 0.926 . S
C1708 N269 0.949 . S
C1725 N245 0.930 . S
C1744 N302 0.940 . S
C1761 N146 0.934 . S
C1780 N335 0.928 . S
C1797 N368 0.936 . S
C1816 N179 0.960 . S
C1833 N80 0.935 . S
C1852 N401 0.917 . S
C1869 N434 0.935 . S
C1888 N113 0.962 . S
C1905 N467 0.937 . S
C1924 N14 0.956 . S
C1941 N47 0.929 . S
C1960 N500 0.931 . S
