# Generated by pormake.
# Topology wgl, (5)-cn, num edge types: 1
# Building blocks:
#     Node 0, Type 0, BuildingBlock: XOMCOT_clean_sbu_0, # of connection points: 5
#     Node 1, Type 0, BuildingBlock: XOMCOT_clean_sbu_0, # of connection points: 5
#     Node 2, Type 0, BuildingBlock: XOMCOT_clean_sbu_0, # of connection points: 5
#     Node 3, Type 0, BuildingBlock: XOMCOT_clean_sbu_0, # of connection points: 5
#     Node 4, Type 0, BuildingBlock: XOMCOT_clean_sbu_0, # of connection points: 5
#     Node 5, Type 0, BuildingBlock: XOMCOT_clean_sbu_0, # of connection points: 5
#     Node 6, Type 0, BuildingBlock: XOMCOT_clean_sbu_0, # of connection points: 5
#     Node 7, Type 0, BuildingBlock: XOMCOT_clean_sbu_0, # of connection points: 5
#     Node 8, Type 0, BuildingBlock: XOMCOT_clean_sbu_0, # of connection points: 5
#     Node 9, Type 0, BuildingBlock: XOMCOT_clean_sbu_0, # of connection points: 5
#     Node 10, Type 0, BuildingBlock: XOMCOT_clean_sbu_0, # of connection points: 5
#     Node 11, Type 0, BuildingBlock: XOMCOT_clean_sbu_0, # of connection points: 5
#     Node 12, Type 0, BuildingBlock: XOMCOT_clean_sbu_0, # of connection points: 5
#     Node 13, Type 0, BuildingBlock: XOMCOT_clean_sbu_0, # of connection points: 5
#     Node 14, Type 0, BuildingBlock: XOMCOT_clean_sbu_0, # of connection points: 5
#     Node 15, Type 0, BuildingBlock: XOMCOT_clean_sbu_0, # of connection points: 5
#     Node 16, Type 0, BuildingBlock: XOMCOT_clean_sbu_0, # of connection points: 5
#     Node 17, Type 0, BuildingBlock: XOMCOT_clean_sbu_0, # of connection points: 5
#     Node 18, Type 0, BuildingBlock: XOMCOT_clean_sbu_0, # of connection points: 5
#     Node 19, Type 0, BuildingBlock: XOMCOT_clean_sbu_0, # of connection points: 5
#     Node 20, Type 0, BuildingBlock: XOMCOT_clean_sbu_0, # of connection points: 5
#     Node 21, Type 0, BuildingBlock: XOMCOT_clean_sbu_0, # of connection points: 5
#     Node 22, Type 0, BuildingBlock: XOMCOT_clean_sbu_0, # of connection points: 5
#     Node 23, Type 0, BuildingBlock: XOMCOT_clean_sbu_0, # of connection points: 5
#     Node 24, Type 0, BuildingBlock: XOMCOT_clean_sbu_0, # of connection points: 5
#     Node 25, Type 0, BuildingBlock: XOMCOT_clean_sbu_0, # of connection points: 5
#     Node 26, Type 0, BuildingBlock: XOMCOT_clean_sbu_0, # of connection points: 5
#     Node 27, Type 0, BuildingBlock: XOMCOT_clean_sbu_0, # of connection points: 5
#     Node 28, Type 0, BuildingBlock: XOMCOT_clean_sbu_0, # of connection points: 5
#     Node 29, Type 0, BuildingBlock: XOMCOT_clean_sbu_0, # of connection points: 5
#     Node 30, Type 0, BuildingBlock: XOMCOT_clean_sbu_0, # of connection points: 5
#     Node 31, Type 0, BuildingBlock: XOMCOT_clean_sbu_0, # of connection points: 5
#     Edge 32, Type (0, 0), BuildingBlock: CIFDUS_clean_linker_0, # of connection points: 2
#     Edge 33, Type (0, 0), BuildingBlock: CIFDUS_clean_linker_0, # of connection points: 2
#     Edge 34, Type (0, 0), BuildingBlock: CIFDUS_clean_linker_0, # of connection points: 2
#     Edge 35, Type (0, 0), BuildingBlock: CIFDUS_clean_linker_0, # of connection points: 2
#     Edge 36, Type (0, 0), BuildingBlock: CIFDUS_clean_linker_0, # of connection points: 2
#     Edge 37, Type (0, 0), BuildingBlock: CIFDUS_clean_linker_0, # of connection points: 2
#     Edge 38, Type (0, 0), BuildingBlock: CIFDUS_clean_linker_0, # of connection points: 2
#     Edge 39, Type (0, 0), BuildingBlock: CIFDUS_clean_linker_0, # of connection points: 2
#     Edge 40, Type (0, 0), BuildingBlock: CIFDUS_clean_linker_0, # of connection points: 2
#     Edge 41, Type (0, 0), BuildingBlock: CIFDUS_clean_linker_0, # of connection points: 2
#     Edge 42, Type (0, 0), BuildingBlock: CIFDUS_clean_linker_0, # of connection points: 2
#     Edge 43, Type (0, 0), BuildingBlock: CIFDUS_clean_linker_0, # of connection points: 2
#     Edge 44, Type (0, 0), BuildingBlock: CIFDUS_clean_linker_0, # of connection points: 2
#     Edge 45, Type (0, 0), BuildingBlock: CIFDUS_clean_linker_0, # of connection points: 2
#     Edge 46, Type (0, 0), BuildingBlock: CIFDUS_clean_linker_0, # of connection points: 2
#     Edge 47, Type (0, 0), BuildingBlock: CIFDUS_clean_linker_0, # of connection points: 2
#     Edge 48, Type (0, 0), BuildingBlock: CIFDUS_clean_linker_0, # of connection points: 2
#     Edge 49, Type (0, 0), BuildingBlock: CIFDUS_clean_linker_0, # of connection points: 2
#     Edge 50, Type (0, 0), BuildingBlock: CIFDUS_clean_linker_0, # of connection points: 2
#     Edge 51, Type (0, 0), BuildingBlock: CIFDUS_clean_linker_0, # of connection points: 2
#     Edge 52, Type (0, 0), BuildingBlock: CIFDUS_clean_linker_0, # of connection points: 2
#     Edge 53, Type (0, 0), BuildingBlock: CIFDUS_clean_linker_0, # of connection points: 2
#     Edge 54, Type (0, 0), BuildingBlock: CIFDUS_clean_linker_0, # of connection points: 2
#     Edge 55, Type (0, 0), BuildingBlock: CIFDUS_clean_linker_0, # of connection points: 2
#     Edge 56, Type (0, 0), BuildingBlock: CIFDUS_clean_linker_0, # of connection points: 2
#     Edge 57, Type (0, 0), BuildingBlock: CIFDUS_clean_linker_0, # of connection points: 2
#     Edge 58, Type (0, 0), BuildingBlock: CIFDUS_clean_linker_0, # of connection points: 2
#     Edge 59, Type (0, 0), BuildingBlock: CIFDUS_clean_linker_0, # of connection points: 2
#     Edge 60, Type (0, 0), BuildingBlock: CIFDUS_clean_linker_0, # of connection points: 2
#     Edge 61, Type (0, 0), BuildingBlock: CIFDUS_clean_linker_0, # of connection points: 2
#     Edge 62, Type (0, 0), BuildingBlock: CIFDUS_clean_linker_0, # of connection points: 2
#     Edge 63, Type (0, 0), BuildingBlock: CIFDUS_clean_linker_0, # of connection points: 2
#     Edge 64, Type (0, 0), BuildingBlock: CIFDUS_clean_linker_0, # of connection points: 2
#     Edge 65, Type (0, 0), BuildingBlock: CIFDUS_clean_linker_0, # of connection points: 2
#     Edge 66, Type (0, 0), BuildingBlock: CIFDUS_clean_linker_0, # of connection points: 2
#     Edge 67, Type (0, 0), BuildingBlock: CIFDUS_clean_linker_0, # of connection points: 2
#     Edge 68, Type (0, 0), BuildingBlock: CIFDUS_clean_linker_0, # of connection points: 2
#     Edge 69, Type (0, 0), BuildingBlock: CIFDUS_clean_linker_0, # of connection points: 2
#     Edge 70, Type (0, 0), BuildingBlock: CIFDUS_clean_linker_0, # of connection points: 2
#     Edge 71, Type (0, 0), BuildingBlock: CIFDUS_clean_linker_0, # of connection points: 2
#     Edge 72, Type (0, 0), BuildingBlock: CIFDUS_clean_linker_0, # of connection points: 2
#     Edge 73, Type (0, 0), BuildingBlock: CIFDUS_clean_linker_0, # of connection points: 2
#     Edge 74, Type (0, 0), BuildingBlock: CIFDUS_clean_linker_0, # of connection points: 2
#     Edge 75, Type (0, 0), BuildingBlock: CIFDUS_clean_linker_0, # of connection points: 2
#     Edge 76, Type (0, 0), BuildingBlock: CIFDUS_clean_linker_0, # of connection points: 2
#     Edge 77, Type (0, 0), BuildingBlock: CIFDUS_clean_linker_0, # of connection points: 2
#     Edge 78, Type (0, 0), BuildingBlock: CIFDUS_clean_linker_0, # of connection points: 2
#     Edge 79, Type (0, 0), BuildingBlock: CIFDUS_clean_linker_0, # of connection points: 2
#     Edge 80, Type (0, 0), BuildingBlock: CIFDUS_clean_linker_0, # of connection points: 2
#     Edge 81, Type (0, 0), BuildingBlock: CIFDUS_clean_linker_0, # of connection points: 2
#     Edge 82, Type (0, 0), BuildingBlock: CIFDUS_clean_linker_0, # of connection points: 2
#     Edge 83, Type (0, 0), BuildingBlock: CIFDUS_clean_linker_0, # of connection points: 2
#     Edge 84, Type (0, 0), BuildingBlock: CIFDUS_clean_linker_0, # of connection points: 2
#     Edge 85, Type (0, 0), BuildingBlock: CIFDUS_clean_linker_0, # of connection points: 2
#     Edge 86, Type (0, 0), BuildingBlock: CIFDUS_clean_linker_0, # of connection points: 2
#     Edge 87, Type (0, 0), BuildingBlock: CIFDUS_clean_linker_0, # of connection points: 2
#     Edge 88, Type (0, 0), BuildingBlock: CIFDUS_clean_linker_0, # of connection points: 2
#     Edge 89, Type (0, 0), BuildingBlock: CIFDUS_clean_linker_0, # of connection points: 2
#     Edge 90, Type (0, 0), BuildingBlock: CIFDUS_clean_linker_0, # of connection points: 2
#     Edge 91, Type (0, 0), BuildingBlock: CIFDUS_clean_linker_0, # of connection points: 2
#     Edge 92, Type (0, 0), BuildingBlock: CIFDUS_clean_linker_0, # of connection points: 2
#     Edge 93, Type (0, 0), BuildingBlock: CIFDUS_clean_linker_0, # of connection points: 2
#     Edge 94, Type (0, 0), BuildingBlock: CIFDUS_clean_linker_0, # of connection points: 2
#     Edge 95, Type (0, 0), BuildingBlock: CIFDUS_clean_linker_0, # of connection points: 2
#     Edge 96, Type (0, 0), BuildingBlock: CIFDUS_clean_linker_0, # of connection points: 2
#     Edge 97, Type (0, 0), BuildingBlock: CIFDUS_clean_linker_0, # of connection points: 2
#     Edge 98, Type (0, 0), BuildingBlock: CIFDUS_clean_linker_0, # of connection points: 2
#     Edge 99, Type (0, 0), BuildingBlock: CIFDUS_clean_linker_0, # of connection points: 2
#     Edge 100, Type (0, 0), BuildingBlock: CIFDUS_clean_linker_0, # of connection points: 2
#     Edge 101, Type (0, 0), BuildingBlock: CIFDUS_clean_linker_0, # of connection points: 2
#     Edge 102, Type (0, 0), BuildingBlock: CIFDUS_clean_linker_0, # of connection points: 2
#     Edge 103, Type (0, 0), BuildingBlock: CIFDUS_clean_linker_0, # of connection points: 2
#     Edge 104, Type (0, 0), BuildingBlock: CIFDUS_clean_linker_0, # of connection points: 2
#     Edge 105, Type (0, 0), BuildingBlock: CIFDUS_clean_linker_0, # of connection points: 2
#     Edge 106, Type (0, 0), BuildingBlock: CIFDUS_clean_linker_0, # of connection points: 2
#     Edge 107, Type (0, 0), BuildingBlock: CIFDUS_clean_linker_0, # of connection points: 2
#     Edge 108, Type (0, 0), BuildingBlock: CIFDUS_clean_linker_0, # of connection points: 2
#     Edge 109, Type (0, 0), BuildingBlock: CIFDUS_clean_linker_0, # of connection points: 2
#     Edge 110, Type (0, 0), BuildingBlock: CIFDUS_clean_linker_0, # of connection points: 2
#     Edge 111, Type (0, 0), BuildingBlock: CIFDUS_clean_linker_0, # of connection points: 2
# Relax obj value: 0.049
# Max RMSD: 0.095
# Mean RMSD: 0.095
data_MOF--net-wgl--node1-XOMCOT_clean_sbu_0--edge1-CIFDUS_clean_linker_0
_symmetry_space_group_name_H-M    P1
_symmetry_Int_Tables_number       1
_symmetry_cell_setting            triclinic
loop_
_symmetry_equiv_pos_as_xyz
'x, y, z'
_cell_length_a     51.646699
_cell_length_b     51.5912
_cell_length_c     45.953495
_cell_angle_alpha  89.993365
_cell_angle_beta   89.973442
_cell_angle_gamma 90.062779
loop_
_atom_site_label
_atom_site_type_symbol
_atom_site_fract_x
_atom_site_fract_y
_atom_site_fract_z
_atom_type_partial_charge
Co0 Co 0.29367 0.32774 0.14582 0.0
C1 C 0.32431 0.27772 0.14514 0.0
C2 C 0.30503 0.28543 0.10471 0.0
C3 C 0.31639 0.26155 0.10291 0.0
N4 N 0.30987 0.29591 0.13113 0.0
N5 N 0.32839 0.25656 0.12822 0.0
H6 H 0.33035 0.27915 0.16763 0.0
H7 H 0.29311 0.29375 0.08788 0.0
C8 C 0.28314 0.35185 0.08663 0.0
O9 O 0.29771 0.37217 0.09204 0.0
N10 N 0.27574 0.3592 0.15988 0.0
C11 C 0.27554 0.36867 0.18732 0.0
C12 C 0.25864 0.38931 0.18895 0.0
C13 C 0.25797 0.37401 0.14564 0.0
N14 N 0.24763 0.39277 0.16267 0.0
C15 C 0.33503 0.36287 0.15951 0.0
C16 C 0.3628 0.35737 0.1084 0.0
C17 C 0.37136 0.37526 0.12921 0.0
C18 C 0.35743 0.37752 0.15523 0.0
C19 C 0.33994 0.34327 0.11341 0.0
N20 N 0.32569 0.34697 0.13824 0.0
H21 H 0.32535 0.36427 0.18015 0.0
H22 H 0.33332 0.33002 0.09682 0.0
H23 H 0.28646 0.36086 0.20535 0.0
H24 H 0.25132 0.37048 0.1238 0.0
O25 O 0.30087 0.31689 0.18541 0.0
O26 O 0.2654 0.30706 0.16061 0.0
O27 O 0.27952 0.33431 0.10578 0.0
C28 C 0.27873 0.30479 0.18454 0.0
H29 H 0.31498 0.24823 0.08476 0.0
H30 H 0.25467 0.40078 0.20816 0.0
H31 H 0.37319 0.35491 0.0881 0.0
H32 H 0.36384 0.39059 0.17223 0.0
Co33 Co 0.9423 0.04718 0.40167 0.0
C34 C 0.99027 0.08159 0.39928 0.0
C35 C 0.99317 0.04644 0.37466 0.0
C36 C 0.01606 0.05962 0.37192 0.0
N37 N 0.97642 0.06051 0.39082 0.0
N38 N 1.01422 0.08162 0.38737 0.0
H39 H 0.98371 0.09621 0.4143 0.0
H40 H 0.98914 0.02744 0.3658 0.0
C41 C 0.94357 0.04309 0.3374 0.0
O42 O 0.95231 0.06704 0.33752 0.0
N43 N 0.90912 0.03207 0.41202 0.0
C44 C 0.89216 0.04042 0.4322 0.0
C45 C 0.87076 0.02431 0.43185 0.0
C46 C 0.89784 1.0111 0.39966 0.0
N47 N 0.87432 1.00597 0.41125 0.0
C48 C 0.92961 0.1015 0.40338 0.0
C49 C 0.89114 0.1 0.3617 0.0
C50 C 0.89719 0.12385 0.37473 0.0
C51 C 0.91665 0.12433 0.39597 0.0
C52 C 0.90454 0.07764 0.36984 0.0
N53 N 0.92442 0.07872 0.38947 0.0
H54 H 0.94296 0.10202 0.42133 0.0
H55 H 0.89859 0.05934 0.36058 0.0
H56 H 0.89499 0.05722 0.44592 0.0
H57 H 0.9067 0.99963 0.38268 0.0
O58 O 0.94859 0.05656 0.44164 0.0
O59 O 0.96008 0.01921 0.42168 0.0
O60 O 0.93867 0.0316 0.36145 0.0
C61 C 0.96009 0.03435 0.44445 0.0
H62 H 0.03311 0.05324 0.36022 0.0
H63 H 0.85365 0.02628 0.44527 0.0
H64 H 0.87588 0.09848 0.34564 0.0
H65 H 0.92104 0.14195 0.4078 0.0
Co66 Co 0.23105 0.69417 0.64549 0.0
C67 C 0.19836 0.74253 0.64785 0.0
C68 C 0.23366 0.74649 0.62345 0.0
C69 C 0.22152 0.77 0.62393 0.0
N70 N 0.21922 0.72917 0.6382 0.0
N71 N 0.19943 0.76769 0.63935 0.0
H72 H 0.1832 0.73427 0.66123 0.0
H73 H 0.25221 0.74244 0.61353 0.0
C74 C 0.24069 0.67976 0.58298 0.0
O75 O 0.22533 0.65961 0.58598 0.0
N76 N 0.24547 0.65943 0.65247 0.0
C77 C 0.24401 0.64487 0.67692 0.0
C78 C 0.25967 0.62329 0.67393 0.0
C79 C 0.26296 0.64675 0.63564 0.0
N80 N 0.27135 0.6245 0.64778 0.0
C81 C 0.18612 0.66129 0.64769 0.0
C82 C 0.16012 0.68359 0.6014 0.0
C83 C 0.14801 0.66398 0.61741 0.0
C84 C 0.16132 0.65261 0.64057 0.0
C85 C 0.18521 0.69143 0.60892 0.0
N86 N 0.19802 0.68023 0.6318 0.0
H87 H 0.19517 0.6535 0.66683 0.0
H88 H 0.19417 0.70686 0.59659 0.0
H89 H 0.23281 0.64974 0.69603 0.0
H90 H 0.27094 0.65412 0.61563 0.0
O91 O 0.22186 0.69788 0.68597 0.0
O92 O 0.2597 0.70924 0.66713 0.0
O93 O 0.246 0.69421 0.60482 0.0
C94 C 0.24439 0.70855 0.68976 0.0
H95 H 0.22846 0.78754 0.61359 0.0
H96 H 0.26232 0.60799 0.68977 0.0
H97 H 0.15007 0.69315 0.58372 0.0
H98 H 0.15212 0.63795 0.65395 0.0
Co99 Co 0.57547 0.98499 0.89132 0.0
C100 C 0.52908 0.94997 0.89336 0.0
C101 C 0.52682 0.97993 0.86092 0.0
C102 C 0.50382 0.96681 0.86119 0.0
N103 N 0.54274 0.96943 0.88088 0.0
N104 N 0.50508 0.94815 0.88166 0.0
H105 H 0.536 0.93837 0.91137 0.0
H106 H 0.53114 0.99686 0.84796 0.0
C107 C 0.59909 0.99069 0.83178 0.0
O108 O 0.6205 0.98019 0.84178 0.0
N109 N 0.60792 1.00282 0.90111 0.0
C110 C 0.6218 1.00214 0.92604 0.0
C111 C 0.64239 0.01916 0.92384 0.0
C112 C 0.6195 0.02164 0.88513 0.0
N113 N 0.64103 0.0312 0.89786 0.0
C114 C 0.60856 0.94228 0.90636 0.0
C115 C 0.60199 0.91404 0.85574 0.0
C116 C 0.62008 0.90556 0.87633 0.0
C117 C 0.62273 0.9196 0.90222 0.0
C118 C 0.58836 0.93717 0.86065 0.0
N119 N 0.59291 0.9518 0.88501 0.0
H120 H 0.61018 0.95207 0.92689 0.0
H121 H 0.57468 0.9437 0.84443 0.0
H122 H 0.61704 0.99082 0.94507 0.0
H123 H 0.61185 0.02917 0.86499 0.0
O124 O 0.56716 0.98067 0.93202 0.0
O125 O 0.55645 0.01495 0.90572 0.0
O126 O 0.57997 0.99485 0.84889 0.0
C127 C 0.55533 1.00284 0.93065 0.0
H128 H 0.48712 0.97106 0.84777 0.0
H129 H 0.65719 0.02237 0.94012 0.0
H130 H 0.59908 0.90342 0.83567 0.0
H131 H 0.63585 0.91314 0.91912 0.0
Co132 Co 0.29533 0.69401 0.35539 0.0
C133 C 0.32939 0.74235 0.35753 0.0
C134 C 0.29456 0.74485 0.38269 0.0
C135 C 0.30758 0.76787 0.38534 0.0
N136 N 0.30856 0.72824 0.36629 0.0
N137 N 0.32939 0.76628 0.36954 0.0
H138 H 0.34383 0.73599 0.3422 0.0
H139 H 0.27569 0.74069 0.39178 0.0
C140 C 0.29107 0.69517 0.41975 0.0
O141 O 0.31499 0.7039 0.41981 0.0
N142 N 0.28029 0.66072 0.34495 0.0
C143 C 0.28933 0.64346 0.32549 0.0
C144 C 0.27304 0.6222 0.32522 0.0
C145 C 0.25867 0.64973 0.35626 0.0
N146 N 0.25377 0.6261 0.34465 0.0
C147 C 0.34971 0.68187 0.35393 0.0
C148 C 0.34861 0.64297 0.39519 0.0
C149 C 0.37242 0.64965 0.38249 0.0
C150 C 0.3727 0.66931 0.36146 0.0
C151 C 0.32607 0.65618 0.38712 0.0
N152 N 0.32695 0.67623 0.36765 0.0
H153 H 0.35013 0.6953 0.33606 0.0
H154 H 0.30783 0.64996 0.39628 0.0
H155 H 0.30672 0.64601 0.31267 0.0
H156 H 0.24661 0.65894 0.37249 0.0
O157 O 0.30481 0.7003 0.31546 0.0
O158 O 0.26743 0.71186 0.33521 0.0
O159 O 0.27972 0.69025 0.39561 0.0
C160 C 0.28266 0.71185 0.31251 0.0
H161 H 0.3012 0.78483 0.39722 0.0
H162 H 0.27554 0.60494 0.31213 0.0
H163 H 0.34731 0.62744 0.41098 0.0
H164 H 0.39033 0.67415 0.34989 0.0
Co165 Co 0.58086 0.0426 0.61041 0.0
C166 C 0.53139 0.07343 0.61263 0.0
C167 C 0.54585 0.06419 0.65508 0.0
C168 C 0.52313 0.07757 0.65821 0.0
N169 N 0.55131 0.06151 0.62651 0.0
N170 N 0.51393 0.08342 0.6316 0.0
H171 H 0.52954 0.07475 0.58924 0.0
H172 H 0.55728 0.05683 0.67286 0.0
C173 C 0.61187 0.02908 0.66374 0.0
O174 O 0.63281 0.03697 0.65008 0.0
N175 N 0.61008 0.02263 0.59473 0.0
C176 C 0.62416 0.02711 0.57049 0.0
C177 C 0.64312 1.00843 0.56808 0.0
C178 C 0.62004 1.00032 0.60573 0.0
N179 N 0.64076 0.99174 0.5905 0.0
C180 C 0.61002 0.08637 0.59007 0.0
C181 C 0.62049 0.10865 0.64344 0.0
C182 C 0.63057 0.12033 0.61831 0.0
C183 C 0.6246 0.10911 0.59135 0.0
C184 C 0.60585 0.08583 0.64113 0.0
N185 N 0.60193 0.07407 0.61475 0.0
H186 H 0.60464 0.07918 0.56896 0.0
H187 H 0.59769 0.07785 0.66076 0.0
H188 H 0.62099 0.04253 0.55512 0.0
H189 H 0.61235 0.99051 0.62465 0.0
O190 O 0.56824 0.04868 0.57135 0.0
O191 O 0.55768 1.01482 0.59834 0.0
O192 O 0.58983 0.02988 0.65098 0.0
C193 C 0.55514 0.02731 0.57381 0.0
H194 H 0.5137 0.08194 0.67867 0.0
H195 H 0.65791 1.00762 0.55141 0.0
H196 H 0.62401 0.11691 0.66473 0.0
H197 H 0.63069 0.11812 0.57118 0.0
Co198 Co 0.23581 0.32881 0.85889 0.0
C199 C 0.20138 0.28052 0.85958 0.0
C200 C 0.23267 0.28013 0.89011 0.0
C201 C 0.22043 0.25665 0.89138 0.0
N202 N 0.22051 0.29567 0.87085 0.0
N203 N 0.20081 0.2567 0.87213 0.0
H204 H 0.18934 0.28575 0.84134 0.0
H205 H 0.25021 0.28506 0.90167 0.0
C206 C 0.23479 0.33254 0.92362 0.0
O207 O 0.21061 0.32458 0.92267 0.0
N208 N 0.25324 0.36092 0.84811 0.0
C209 C 0.24678 0.37875 0.82795 0.0
C210 C 0.2638 0.39951 0.83014 0.0
C211 C 0.27407 0.37096 0.86198 0.0
N212 N 0.28079 0.39462 0.8518 0.0
C213 C 0.1816 0.34164 0.85182 0.0
C214 C 0.18153 0.38396 0.88863 0.0
C215 C 0.15822 0.37671 0.87522 0.0
C216 C 0.1585 0.35525 0.8565 0.0
C217 C 0.2041 0.36971 0.88351 0.0
N218 N 0.20381 0.34816 0.86618 0.0
H219 H 0.18175 0.32652 0.83574 0.0
H220 H 0.22194 0.37624 0.89337 0.0
H221 H 0.23038 0.3772 0.81341 0.0
H222 H 0.28403 0.36125 0.87955 0.0
O223 O 0.23021 0.31992 0.81847 0.0
O224 O 0.26499 0.3093 0.84399 0.0
O225 O 0.24786 0.3348 0.90015 0.0
C226 C 0.25231 0.30789 0.81949 0.0
H227 H 0.22596 0.24052 0.90508 0.0
H228 H 0.263 0.41728 0.81765 0.0
H229 H 0.18242 0.4007 0.90282 0.0
H230 H 0.14128 0.34967 0.8446 0.0
Co231 Co 0.94976 0.98639 0.11232 0.0
C232 C 0.99756 0.9527 0.1098 0.0
C233 C 0.99801 0.98109 0.14398 0.0
C234 C 0.02135 0.96872 0.14384 0.0
N235 N 0.98286 0.97113 0.12287 0.0
N236 N 0.02134 0.95106 0.12226 0.0
H237 H 0.99154 0.94174 0.09088 0.0
H238 H 0.99304 0.99723 0.15787 0.0
C239 C 0.92955 0.99417 0.17365 0.0
O240 O 0.90861 0.98051 0.16827 0.0
N241 N 0.91704 1.00412 0.10276 0.0
C242 C 0.90337 1.00393 0.07769 0.0
C243 C 0.88305 0.02133 0.07982 0.0
C244 C 0.9054 0.0228 0.11896 0.0
N245 N 0.88425 0.03308 0.106 0.0
C246 C 0.91533 0.94382 0.10056 0.0
C247 C 0.9255 0.91538 0.15029 0.0
C248 C 0.90656 0.90636 0.1309 0.0
C249 C 0.90202 0.92068 0.10548 0.0
C250 C 0.93829 0.93893 0.14461 0.0
N251 N 0.93224 0.95348 0.1206 0.0
H252 H 0.9122 0.95375 0.08032 0.0
H253 H 0.95264 0.94574 0.15992 0.0
H254 H 0.90815 0.99265 0.05862 0.0
H255 H 0.91297 0.03007 0.13923 0.0
O256 O 0.95745 0.98065 0.0716 0.0
O257 O 0.96857 0.01569 0.09651 0.0
O258 O 0.94632 0.99838 0.15378 0.0
C259 C 0.9695 1.00281 0.07211 0.0
H260 H 0.03745 0.97283 0.15821 0.0
H261 H 0.86865 0.02507 0.06326 0.0
H262 H 0.9299 0.90473 0.16998 0.0
H263 H 0.88829 0.91394 0.08934 0.0
Co264 Co 0.73666 0.7043 0.86788 0.0
C265 C 0.70011 0.74986 0.86541 0.0
C266 C 0.73048 0.75351 0.89711 0.0
C267 C 0.71671 0.77611 0.89676 0.0
N268 N 0.72017 0.73691 0.87768 0.0
N269 N 0.69776 0.77404 0.87676 0.0
H270 H 0.6884 0.74232 0.84781 0.0
H271 H 0.74771 0.74993 0.90981 0.0
C272 C 0.74393 0.68279 0.92816 0.0
O273 O 0.73331 0.66098 0.91941 0.0
N274 N 0.75551 0.67204 0.85875 0.0
C275 C 0.75542 0.65813 0.83381 0.0
C276 C 0.77283 0.6379 0.83615 0.0
C277 C 0.77435 0.6607 0.87501 0.0
N278 N 0.78456 0.63938 0.86229 0.0
C279 C 0.69516 0.66914 0.85474 0.0
C280 C 0.66623 0.6772 0.90459 0.0
C281 C 0.65805 0.65839 0.88459 0.0
C282 C 0.67254 0.6549 0.85915 0.0
C283 C 0.68935 0.69089 0.89946 0.0
N284 N 0.70419 0.68582 0.87539 0.0
H285 H 0.70518 0.66687 0.83444 0.0
H286 H 0.69558 0.7052 0.91516 0.0
H287 H 0.74413 0.66262 0.81468 0.0
H288 H 0.78152 0.66841 0.89527 0.0
O289 O 0.73128 0.71142 0.82703 0.0
O290 O 0.76561 0.72403 0.85211 0.0
O291 O 0.74752 0.70136 0.91014 0.0
C292 C 0.753 0.72413 0.82747 0.0
H293 H 0.7207 0.7931 0.90985 0.0
H294 H 0.77649 0.62322 0.81984 0.0
H295 H 0.65531 0.68076 0.92431 0.0
H296 H 0.66638 0.6412 0.84266 0.0
Co297 Co 0.07779 0.97755 0.61218 0.0
C298 C 0.03027 0.94347 0.61203 0.0
C299 C 0.03222 0.96947 0.64846 0.0
C300 C 1.00885 0.95695 0.64925 0.0
N301 N 0.04585 0.96112 0.62526 0.0
N302 N 1.0074 0.94078 0.6263 0.0
H303 H 0.03487 0.93398 0.59167 0.0
H304 H 0.03812 0.98469 0.66315 0.0
C305 C 0.10567 0.98876 0.66711 0.0
O306 O 0.12592 0.97824 0.65442 0.0
N307 N 0.10902 0.9966 0.59975 0.0
C308 C 0.12562 0.99307 0.57733 0.0
C309 C 0.14472 1.01197 0.5784 0.0
C310 C 0.11741 0.0188 0.61249 0.0
N311 N 0.13969 0.02788 0.60096 0.0
C312 C 0.11089 0.93403 0.5996 0.0
C313 C 0.10642 0.91026 0.65335 0.0
C314 C 0.12307 0.89966 0.63254 0.0
C315 C 0.12488 0.91146 0.60523 0.0
C316 C 0.09304 0.93315 0.64692 0.0
N317 N 0.09652 0.94558 0.62085 0.0
H318 H 0.11128 0.94183 0.57796 0.0
H319 H 0.08024 0.94115 0.6632 0.0
H320 H 0.12405 0.97834 0.56079 0.0
H321 H 0.10742 0.02828 0.63021 0.0
O322 O 0.06931 0.9697 0.57259 0.0
O323 O 0.05691 1.00538 0.59548 0.0
O324 O 0.08416 0.99061 0.65328 0.0
C325 C 0.05654 0.9913 0.57181 0.0
H326 H 0.99366 0.9601 0.6651 0.0
H327 H 0.16133 1.01345 0.56413 0.0
H328 H 0.10428 0.90133 0.67454 0.0
H329 H 0.13699 0.90323 0.58833 0.0
Co330 Co 0.79609 0.33291 0.36589 0.0
C331 C 0.82982 0.28532 0.36325 0.0
C332 C 0.79833 0.28301 0.39377 0.0
C333 C 0.81046 0.25951 0.39313 0.0
N334 N 0.81036 0.29929 0.37525 0.0
N335 N 0.8301 0.26082 0.37391 0.0
H336 H 0.84254 0.29243 0.34631 0.0
H337 H 0.78099 0.28751 0.40592 0.0
C338 C 0.79152 0.35432 0.42658 0.0
O339 O 0.80317 0.37568 0.41806 0.0
N340 N 0.77926 0.36626 0.35748 0.0
C341 C 0.7795 0.38046 0.33274 0.0
C342 C 0.7627 0.40117 0.33571 0.0
C343 C 0.76104 0.37793 0.37424 0.0
N344 N 0.75131 0.39965 0.36204 0.0
C345 C 0.84006 0.36367 0.35025 0.0
C346 C 0.8708 0.35192 0.39771 0.0
C347 C 0.88132 0.36689 0.37509 0.0
C348 C 0.86535 0.37302 0.35143 0.0
C349 C 0.84517 0.34282 0.39562 0.0
N350 N 0.82996 0.34904 0.37221 0.0
H351 H 0.82913 0.36716 0.33079 0.0
H352 H 0.83786 0.33009 0.41241 0.0
H353 H 0.79022 0.37574 0.31327 0.0
H354 H 0.75378 0.37011 0.39443 0.0
O355 O 0.80009 0.32552 0.32497 0.0
O356 O 0.76555 0.31513 0.351 0.0
O357 O 0.78654 0.3363 0.40833 0.0
C358 C 0.77773 0.31406 0.3261 0.0
H359 H 0.80492 0.24247 0.4054 0.0
H360 H 0.75908 0.41607 0.31964 0.0
H361 H 0.88258 0.34632 0.41615 0.0
H362 H 0.8726 0.38445 0.33339 0.0
Co363 Co 0.45367 0.04738 0.11607 0.0
C364 C 0.49878 0.08428 0.11386 0.0
C365 C 0.50211 0.05532 0.14729 0.0
C366 C 0.52353 0.07096 0.14851 0.0
N367 N 0.48631 0.06383 0.126 0.0
N368 N 0.52151 0.08908 0.12757 0.0
H369 H 0.49144 0.09537 0.09566 0.0
H370 H 0.4986 0.03851 0.16075 0.0
C371 C 0.43122 0.03881 0.17557 0.0
O372 O 0.40946 0.04918 0.16642 0.0
N373 N 0.42143 0.02879 0.10657 0.0
C374 C 0.40682 0.03008 0.08221 0.0
C375 C 0.38709 1.01199 0.08391 0.0
C376 C 0.41108 1.00866 0.12168 0.0
N377 N 0.38965 0.99868 0.10898 0.0
C378 C 0.41927 0.09044 0.1041 0.0
C379 C 0.42992 0.11803 0.1543 0.0
C380 C 0.41219 0.12836 0.13436 0.0
C381 C 0.40698 0.11423 0.10896 0.0
C382 C 0.44142 0.09392 0.14884 0.0
N383 N 0.43559 0.08001 0.12429 0.0
H384 H 0.4162 0.08094 0.08361 0.0
H385 H 0.45525 0.0865 0.16439 0.0
H386 H 0.41058 0.04253 0.06379 0.0
H387 H 0.41958 1.00056 0.14111 0.0
O388 O 0.46109 0.05279 0.07518 0.0
O389 O 0.47305 0.01833 0.10054 0.0
O390 O 0.45032 0.03608 0.15811 0.0
C391 C 0.47345 0.03083 0.07586 0.0
H392 H 0.53979 0.06881 0.16319 0.0
H393 H 0.37204 1.00894 0.06789 0.0
H394 H 0.43478 0.12844 0.17402 0.0
H395 H 0.39411 0.1219 0.09247 0.0
Co396 Co 0.73228 0.32895 0.6447 0.0
C397 C 0.70187 0.27912 0.64382 0.0
C398 C 0.71058 0.2933 0.60102 0.0
C399 C 0.69842 0.26982 0.59835 0.0
N400 N 0.71303 0.29927 0.62951 0.0
N401 N 0.69309 0.2608 0.62515 0.0
H402 H 0.70106 0.27726 0.66725 0.0
H403 H 0.71746 0.30478 0.583 0.0
C404 C 0.744 0.36085 0.59188 0.0
O405 O 0.7363 0.38132 0.60653 0.0
N406 N 0.75298 0.35825 0.65876 0.0
C407 C 0.7475 0.3774 0.67782 0.0
C408 C 0.76689 0.39589 0.67651 0.0
C409 C 0.77617 0.36501 0.64721 0.0
N410 N 0.78467 0.38828 0.65678 0.0
C411 C 0.68867 0.356 0.66777 0.0
C412 C 0.66388 0.36688 0.61596 0.0
C413 C 0.65243 0.37512 0.64208 0.0
C414 C 0.66496 0.36879 0.6682 0.0
C415 C 0.68757 0.35357 0.61657 0.0
N416 N 0.70046 0.3495 0.64222 0.0
H417 H 0.69724 0.35092 0.68836 0.0
H418 H 0.69522 0.34637 0.5963 0.0
H419 H 0.7303 0.37882 0.69096 0.0
H420 H 0.78583 0.35383 0.6305 0.0
O421 O 0.72781 0.31652 0.68389 0.0
O422 O 0.76069 0.30587 0.6556 0.0
O423 O 0.74332 0.33837 0.60369 0.0
C424 C 0.74906 0.30353 0.68071 0.0
H425 H 0.69408 0.25992 0.57815 0.0
H426 H 0.76694 0.41435 0.68771 0.0
H427 H 0.65479 0.37077 0.5952 0.0
H428 H 0.6564 0.37337 0.68909 0.0
Co429 Co 0.4455 0.98097 0.39563 0.0
C430 C 0.49349 0.94808 0.39746 0.0
C431 C 0.49228 0.97481 0.3616 0.0
C432 C 0.51586 0.96282 0.36148 0.0
N433 N 0.47812 0.96564 0.38398 0.0
N434 N 0.51679 0.94621 0.38405 0.0
H435 H 0.48837 0.93807 0.41735 0.0
H436 H 0.48648 0.99026 0.34714 0.0
C437 C 0.41852 0.98555 0.33827 0.0
O438 O 0.39833 0.97443 0.35045 0.0
N439 N 0.41326 0.99877 0.40629 0.0
C440 C 0.39872 0.99762 0.43073 0.0
C441 C 0.37837 0.01494 0.42836 0.0
C442 C 0.40243 0.01822 0.39067 0.0
N443 N 0.3806 0.02762 0.40283 0.0
C444 C 0.41512 0.93731 0.41401 0.0
C445 C 0.42282 0.90691 0.36526 0.0
C446 C 0.40834 0.89669 0.38848 0.0
C447 C 0.40439 0.91253 0.41291 0.0
C448 C 0.43297 0.93212 0.36712 0.0
N449 N 0.42853 0.94729 0.39106 0.0
H450 H 0.41349 0.94794 0.43397 0.0
H451 H 0.44486 0.93924 0.34948 0.0
H452 H 0.40284 0.98591 0.44962 0.0
H453 H 0.41076 0.02612 0.37102 0.0
O454 O 0.4551 0.97743 0.43595 0.0
O455 O 0.4647 1.01142 0.40862 0.0
O456 O 0.43892 0.99003 0.3533 0.0
C457 C 0.46665 0.99968 0.43374 0.0
H458 H 0.53154 0.9666 0.3464 0.0
H459 H 0.36312 0.01786 0.44418 0.0
H460 H 0.42699 0.89532 0.34619 0.0
H461 H 0.39334 0.90579 0.43146 0.0
Co462 Co 0.80287 0.6979 0.14918 0.0
C463 C 0.83797 0.74506 0.15053 0.0
C464 C 0.81222 0.74367 0.11389 0.0
C465 C 0.82507 0.76681 0.11326 0.0
N466 N 0.8202 0.72975 0.13705 0.0
N467 N 0.84109 0.76795 0.1363 0.0
H468 H 0.84721 0.74029 0.17097 0.0
H469 H 0.79691 0.73821 0.09912 0.0
C470 C 0.79447 0.67178 0.09215 0.0
O471 O 0.80489 0.65112 0.10411 0.0
N472 N 0.78278 0.66678 0.16031 0.0
C473 C 0.78315 0.65235 0.18488 0.0
C474 C 0.76432 0.63324 0.1831 0.0
C475 C 0.76223 0.65721 0.14526 0.0
N476 N 0.75138 0.63613 0.15783 0.0
C477 C 0.84408 0.66304 0.16407 0.0
C478 C 0.87473 0.67176 0.11574 0.0
C479 C 0.88433 0.6558 0.13805 0.0
C480 C 0.86822 0.65115 0.1621 0.0
C481 C 0.85006 0.68303 0.1184 0.0
N482 N 0.83487 0.67841 0.14231 0.0
H483 H 0.83346 0.66078 0.18394 0.0
H484 H 0.84345 0.69602 0.10151 0.0
H485 H 0.79547 0.65576 0.20347 0.0
H486 H 0.75454 0.66599 0.12578 0.0
O487 O 0.80952 0.70596 0.18926 0.0
O488 O 0.77497 0.71941 0.16529 0.0
O489 O 0.7914 0.69244 0.10728 0.0
C490 C 0.7883 0.71927 0.18952 0.0
H491 H 0.82218 0.78217 0.09752 0.0
H492 H 0.76059 0.61835 0.19915 0.0
H493 H 0.88648 0.67633 0.09691 0.0
H494 H 0.87439 0.63881 0.17984 0.0
Co495 Co 0.07793 0.04439 0.89156 0.0
C496 C 0.03217 0.08067 0.89437 0.0
C497 C 0.02923 0.05081 0.86191 0.0
C498 C 1.00651 0.06426 0.86227 0.0
N499 N 0.04549 0.06103 0.88175 0.0
N500 N 1.00811 0.08285 0.88276 0.0
H501 H 0.0393 0.09208 0.91243 0.0
H502 H 0.03303 0.0337 0.84909 0.0
C503 C 0.09967 0.03867 0.83118 0.0
O504 O 0.1217 0.04873 0.84002 0.0
N505 N 0.10997 0.02528 0.90043 0.0
C506 C 0.12378 0.02462 0.92541 0.0
C507 C 0.14373 1.00693 0.92261 0.0
C508 C 0.12104 1.00666 0.88366 0.0
N509 N 0.14212 0.99583 0.89612 0.0
C510 C 0.11305 0.08555 0.90647 0.0
C511 C 0.10607 0.11535 0.85706 0.0
C512 C 0.12483 0.12295 0.87742 0.0
C513 C 0.12768 0.10805 0.9027 0.0
C514 C 0.09193 0.09239 0.8616 0.0
N515 N 0.09653 0.07706 0.8854 0.0
H516 H 0.11494 0.07512 0.92658 0.0
H517 H 0.07772 0.08663 0.84558 0.0
H518 H 0.11936 0.03553 0.94485 0.0
H519 H 0.11327 1.00003 0.86319 0.0
O520 O 0.07022 0.04856 0.93241 0.0
O521 O 0.05806 0.01496 0.90571 0.0
O522 O 0.08123 0.03474 0.84918 0.0
C523 C 0.05745 0.02688 0.93076 0.0
H524 H 0.98968 0.06019 0.84898 0.0
H525 H 0.15827 1.00261 0.93884 0.0
H526 H 0.10292 0.12657 0.83747 0.0
H527 H 0.14121 0.11376 0.91954 0.0
Co528 Co 0.79025 0.82838 0.6415 0.0
C529 C 0.82438 0.78121 0.6408 0.0
C530 C 0.79605 0.7819 0.60663 0.0
C531 C 0.80856 0.75861 0.60564 0.0
N532 N 0.80593 0.79628 0.62843 0.0
N533 N 0.82615 0.75793 0.62725 0.0
H534 H 0.83508 0.78646 0.66018 0.0
H535 H 0.77965 0.78715 0.59338 0.0
C536 C 0.7808 0.85359 0.58317 0.0
O537 O 0.79155 0.875 0.59292 0.0
N538 N 0.77242 0.86012 0.65417 0.0
C539 C 0.77396 0.872 0.68032 0.0
C540 C 0.75596 0.89166 0.6816 0.0
C541 C 0.75231 0.87214 0.64068 0.0
N542 N 0.74234 0.89185 0.65659 0.0
C543 C 0.83316 0.86141 0.65579 0.0
C544 C 0.85981 0.85698 0.60383 0.0
C545 C 0.86948 0.87364 0.62538 0.0
C546 C 0.85608 0.87526 0.6518 0.0
C547 C 0.83644 0.84358 0.60866 0.0
N548 N 0.82275 0.84688 0.63394 0.0
H549 H 0.82412 0.8621 0.6768 0.0
H550 H 0.82922 0.83079 0.59188 0.0
H551 H 0.78632 0.86615 0.69809 0.0
H552 H 0.74402 0.86578 0.62035 0.0
O553 O 0.79698 0.8187 0.68144 0.0
O554 O 0.76157 0.8081 0.65712 0.0
O555 O 0.77781 0.83415 0.60014 0.0
C556 C 0.77498 0.8065 0.68115 0.0
H557 H 0.80437 0.74293 0.59071 0.0
H558 H 0.75294 0.90455 0.69987 0.0
H559 H 0.86985 0.8548 0.58329 0.0
H560 H 0.86339 0.88709 0.66948 0.0
Co561 Co 0.45462 0.54523 0.89014 0.0
C562 C 0.50048 0.58147 0.89311 0.0
C563 C 0.50344 0.55209 0.86013 0.0
C564 C 0.52622 0.56561 0.86081 0.0
N565 N 0.48715 0.56193 0.88018 0.0
N566 N 0.52457 0.58394 0.88159 0.0
H567 H 0.49331 0.59262 0.91135 0.0
H568 H 0.49959 0.53525 0.84685 0.0
C569 C 0.43238 0.53866 0.83012 0.0
O570 O 0.41074 0.54914 0.83951 0.0
N571 N 0.42241 0.52625 0.89949 0.0
C572 C 0.40882 0.52613 0.92465 0.0
C573 C 0.38831 0.50901 0.9223 0.0
C574 C 0.4106 0.50778 0.88306 0.0
N575 N 0.38928 0.49767 0.89591 0.0
C576 C 0.41972 0.58653 0.90434 0.0
C577 C 0.42681 0.61577 0.85453 0.0
C578 C 0.40817 0.62362 0.87489 0.0
C579 C 0.40526 0.60902 0.90036 0.0
C580 C 0.44081 0.5928 0.8593 0.0
N581 N 0.43612 0.57774 0.8833 0.0
H582 H 0.41784 0.57637 0.92462 0.0
H583 H 0.45496 0.58681 0.84333 0.0
H584 H 0.41365 0.53714 0.94389 0.0
H585 H 0.41789 0.50083 0.8625 0.0
O586 O 0.46204 0.55031 0.93093 0.0
O587 O 0.47448 0.51615 0.90543 0.0
O588 O 0.45119 0.53479 0.84772 0.0
C589 C 0.47472 0.52861 0.93019 0.0
H590 H 0.54308 0.56179 0.84748 0.0
H591 H 0.37375 0.50535 0.93874 0.0
H592 H 0.43 0.62681 0.8348 0.0
H593 H 0.39185 0.61499 0.91721 0.0
Co594 Co 0.73443 0.20754 0.14456 0.0
C595 C 0.69867 0.25373 0.14702 0.0
C596 C 0.72905 0.25682 0.11521 0.0
C597 C 0.71558 0.27963 0.1155 0.0
N598 N 0.71855 0.24047 0.13478 0.0
N599 N 0.69661 0.27788 0.13555 0.0
H600 H 0.68683 0.24638 0.16462 0.0
H601 H 0.74614 0.25287 0.10239 0.0
C602 C 0.73966 0.18493 0.08464 0.0
O603 O 0.72889 0.16344 0.09415 0.0
N604 N 0.75261 0.17489 0.15357 0.0
C605 C 0.75236 0.1609 0.17844 0.0
C606 C 0.76937 0.14036 0.1759 0.0
C607 C 0.77121 0.1633 0.13717 0.0
N608 N 0.78111 0.14173 0.14972 0.0
C609 C 0.69159 0.17555 0.16112 0.0
C610 C 0.66052 0.18517 0.11335 0.0
C611 C 0.65058 0.17014 0.13624 0.0
C612 C 0.66674 0.1651 0.16007 0.0
C613 C 0.68575 0.19528 0.11525 0.0
N614 N 0.70118 0.19007 0.13879 0.0
H615 H 0.70253 0.17297 0.18072 0.0
H616 H 0.69259 0.20796 0.09816 0.0
H617 H 0.7414 0.16559 0.19774 0.0
H618 H 0.7784 0.17105 0.11691 0.0
O619 O 0.73042 0.21541 0.18536 0.0
O620 O 0.76436 0.22671 0.15879 0.0
O621 O 0.74394 0.20375 0.10209 0.0
C622 C 0.75235 0.22765 0.18381 0.0
H623 H 0.71973 0.29649 0.10226 0.0
H624 H 0.7728 0.12563 0.1922 0.0
H625 H 0.64858 0.18996 0.09474 0.0
H626 H 0.66003 0.1536 0.17831 0.0
Co627 Co 0.08248 0.4829 0.39576 0.0
C628 C 0.03673 0.44647 0.39644 0.0
C629 C 0.03727 0.4714 0.35903 0.0
C630 C 0.01572 0.456 0.35745 0.0
N631 N 0.05087 0.46529 0.38317 0.0
N632 N 0.01526 0.44039 0.38089 0.0
H633 H 0.04183 0.43759 0.41698 0.0
H634 H 0.04208 0.48645 0.34363 0.0
C635 C 0.10172 0.49615 0.33528 0.0
O636 O 0.12321 0.48314 0.33968 0.0
N637 N 0.11368 0.50221 0.40817 0.0
C638 C 0.12429 0.50234 0.43507 0.0
C639 C 0.14427 0.52001 0.43603 0.0
C640 C 0.12723 0.52075 0.39351 0.0
N641 N 0.14621 0.53158 0.40985 0.0
C642 C 0.12087 0.44362 0.40391 0.0
C643 C 0.1113 0.41558 0.35377 0.0
C644 C 0.13075 0.40712 0.37279 0.0
C645 C 0.13523 0.42136 0.39822 0.0
C646 C 0.0975 0.43834 0.36014 0.0
N647 N 0.10291 0.45255 0.38461 0.0
H648 H 0.12381 0.45321 0.42439 0.0
H649 H 0.08269 0.44464 0.34516 0.0
H650 H 0.11785 0.49066 0.45322 0.0
H651 H 0.12269 0.52746 0.37192 0.0
O652 O 0.07554 0.47266 0.43536 0.0
O653 O 0.06096 0.50872 0.41499 0.0
O654 O 0.08515 0.49896 0.35573 0.0
C655 C 0.06184 0.49364 0.43782 0.0
H656 H 1.00089 0.45688 0.34082 0.0
H657 H 0.15641 0.52405 0.45468 0.0
H658 H 0.10704 0.40494 0.33402 0.0
H659 H 0.14941 0.415 0.41404 0.0
Co660 Co 0.79525 0.19936 0.86317 0.0
C661 C 0.82893 0.2467 0.86234 0.0
C662 C 0.80035 0.24687 0.89637 0.0
C663 C 0.81299 0.27019 0.89669 0.0
N664 N 0.81028 0.23206 0.87498 0.0
N665 N 0.83079 0.27024 0.87523 0.0
H666 H 0.8399 0.24082 0.84339 0.0
H667 H 0.78417 0.24157 0.91006 0.0
C668 C 0.78742 0.1723 0.91989 0.0
O669 O 0.79818 0.15187 0.90783 0.0
N670 N 0.77784 0.16703 0.85198 0.0
C671 C 0.78106 0.15125 0.82878 0.0
C672 C 0.76327 0.1312 0.83036 0.0
C673 C 0.75689 0.15721 0.86588 0.0
N674 N 0.74833 0.13486 0.85406 0.0
C675 C 0.83977 0.16847 0.84839 0.0
C676 C 0.86493 0.17325 0.90126 0.0
C677 C 0.87515 0.15667 0.88012 0.0
C678 C 0.86271 0.15489 0.85315 0.0
C679 C 0.84163 0.18623 0.8957 0.0
N680 N 0.82848 0.18241 0.87015 0.0
H681 H 0.8313 0.16795 0.82707 0.0
H682 H 0.83382 0.19886 0.91227 0.0
H683 H 0.79462 0.15419 0.81124 0.0
H684 H 0.74765 0.16645 0.88425 0.0
O685 O 0.8004 0.20847 0.82283 0.0
O686 O 0.76545 0.21823 0.84853 0.0
O687 O 0.78435 0.19313 0.90507 0.0
C688 C 0.77798 0.2198 0.82389 0.0
H689 H 0.809 0.2862 0.91125 0.0
H690 H 0.76167 0.11509 0.81539 0.0
H691 H 0.87436 0.17548 0.92217 0.0
H692 H 0.87063 0.14297 0.83591 0.0
Co693 Co 0.08739 0.54366 0.10531 0.0
C694 C 0.03836 0.57688 0.10628 0.0
C695 C 0.03517 0.54043 0.1284 0.0
C696 C 1.01186 0.55296 0.13059 0.0
N697 N 0.05224 0.55558 0.11399 0.0
N698 N 1.01387 0.57575 0.11666 0.0
H699 H 0.04545 0.59274 0.09327 0.0
H700 H 0.03945 0.52132 0.13678 0.0
C701 C 0.08334 0.54072 0.16996 0.0
O702 O 0.07237 0.56368 0.16898 0.0
N703 N 0.12166 0.52986 0.09726 0.0
C704 C 0.13957 0.53929 0.0788 0.0
C705 C 0.16094 0.52319 0.07939 0.0
C706 C 0.13237 0.50823 0.10887 0.0
N707 N 0.15646 0.50366 0.09836 0.0
C708 C 0.09729 0.59782 0.09962 0.0
C709 C 0.12976 0.60398 0.14683 0.0
C710 C 0.12187 0.62605 0.13128 0.0
C711 C 0.10614 0.62246 0.10681 0.0
C712 C 0.12037 0.57941 0.13874 0.0
N713 N 0.10286 0.57685 0.11655 0.0
H714 H 0.08597 0.59574 0.08011 0.0
H715 H 0.12711 0.56257 0.15046 0.0
H716 H 0.13725 0.55662 0.06581 0.0
H717 H 0.12254 0.49577 0.12427 0.0
O718 O 0.0823 0.55135 0.06471 0.0
O719 O 0.0715 0.51417 0.08531 0.0
O720 O 0.0904 0.52957 0.14636 0.0
C721 C 0.0717 0.52875 0.06205 0.0
H722 H 0.99456 0.54576 0.14119 0.0
H723 H 0.17857 0.52585 0.067 0.0
H724 H 0.14273 0.60567 0.16525 0.0
H725 H 0.10084 0.6386 0.09297 0.0
Co726 Co 0.73262 0.83777 0.35866 0.0
C727 C 0.69891 0.79029 0.36141 0.0
C728 C 0.72805 0.7917 0.39471 0.0
C729 C 0.71557 0.76836 0.39658 0.0
N730 N 0.71767 0.80561 0.37283 0.0
N731 N 0.69743 0.76726 0.37554 0.0
H732 H 0.68764 0.79523 0.34235 0.0
H733 H 0.74454 0.79745 0.40766 0.0
C734 C 0.74414 0.86517 0.41448 0.0
O735 O 0.73306 0.88571 0.40303 0.0
N736 N 0.74987 0.86949 0.34466 0.0
C737 C 0.74695 0.88187 0.31893 0.0
C738 C 0.76449 0.90205 0.31723 0.0
C739 C 0.77047 0.88151 0.35714 0.0
N740 N 0.77905 0.90197 0.34154 0.0
C741 C 0.68923 0.87124 0.3479 0.0
C742 C 0.66523 0.86485 0.40127 0.0
C743 C 0.65457 0.88211 0.38107 0.0
C744 C 0.6666 0.88486 0.35395 0.0
C745 C 0.68827 0.85182 0.39445 0.0
N746 N 0.70062 0.85599 0.36845 0.0
H747 H 0.69726 0.87271 0.32643 0.0
H748 H 0.69642 0.83868 0.41031 0.0
H749 H 0.7337 0.87628 0.30186 0.0
H750 H 0.77991 0.87497 0.37676 0.0
O751 O 0.72354 0.82844 0.31939 0.0
O752 O 0.76029 0.81735 0.34069 0.0
O753 O 0.74677 0.84442 0.39938 0.0
C754 C 0.74543 0.81628 0.31766 0.0
H755 H 0.72 0.753 0.41183 0.0
H756 H 0.76637 0.91571 0.29948 0.0
H757 H 0.6562 0.86191 0.42229 0.0
H758 H 0.65839 0.89733 0.33738 0.0
Co759 Co 0.44533 0.48016 0.60903 0.0
C760 C 0.49376 0.44772 0.61602 0.0
C761 C 0.49446 0.48484 0.63719 0.0
C762 C 0.51788 0.47323 0.64136 0.0
N763 N 0.47924 0.46903 0.62149 0.0
N764 N 0.51762 0.44975 0.62836 0.0
H765 H 0.48712 0.43137 0.60329 0.0
H766 H 0.48909 0.50406 0.64438 0.0
C767 C 0.41862 0.49126 0.66521 0.0
O768 O 0.39843 0.47911 0.65435 0.0
N769 N 0.41162 0.49424 0.59757 0.0
C770 C 0.39233 0.48512 0.58053 0.0
C771 C 0.37141 0.50183 0.58232 0.0
C772 C 0.40242 0.51693 0.60814 0.0
N773 N 0.37771 0.52157 0.60017 0.0
C774 C 0.42203 0.43116 0.59674 0.0
C775 C 0.42567 0.40979 0.65175 0.0
C776 C 0.41562 0.39474 0.62901 0.0
C777 C 0.41389 0.40577 0.6013 0.0
C778 C 0.43397 0.43526 0.64611 0.0
N779 N 0.4311 0.44609 0.61904 0.0
H780 H 0.42214 0.4383 0.57474 0.0
H781 H 0.44348 0.44587 0.66331 0.0
H782 H 0.39269 0.46748 0.56804 0.0
H783 H 0.41329 0.52933 0.62269 0.0
O784 O 0.45393 0.47251 0.56919 0.0
O785 O 0.46203 0.51006 0.59035 0.0
O786 O 0.43928 0.49373 0.65001 0.0
C787 C 0.46385 0.49546 0.56719 0.0
H788 H 0.53417 0.48205 0.65233 0.0
H789 H 0.35258 0.49891 0.57251 0.0
H790 H 0.42816 0.40158 0.67325 0.0
H791 H 0.40688 0.39455 0.58298 0.0
Co792 Co 0.22893 0.19702 0.3627 0.0
C793 C 0.19633 0.24517 0.36096 0.0
C794 C 0.2228 0.24377 0.39702 0.0
C795 C 0.21092 0.26748 0.39704 0.0
N796 N 0.21374 0.22969 0.37453 0.0
N797 N 0.19444 0.26849 0.37437 0.0
H798 H 0.18643 0.24009 0.341 0.0
H799 H 0.23804 0.23777 0.41164 0.0
C800 C 0.23252 0.16832 0.41875 0.0
O801 O 0.22149 0.14872 0.40529 0.0
N802 N 0.24658 0.16474 0.3518 0.0
C803 C 0.24499 0.14981 0.3277 0.0
C804 C 0.26243 0.12954 0.33005 0.0
C805 C 0.26635 0.15422 0.36715 0.0
N806 N 0.27557 0.13221 0.35521 0.0
C807 C 0.18489 0.16787 0.34287 0.0
C808 C 0.15455 0.17468 0.39182 0.0
C809 C 0.14426 0.16078 0.36822 0.0
C810 C 0.16003 0.15734 0.34362 0.0
C811 C 0.17982 0.18458 0.3903 0.0
N812 N 0.195 0.18047 0.36631 0.0
H813 H 0.1955 0.16674 0.32285 0.0
H814 H 0.187 0.196 0.40829 0.0
H815 H 0.23293 0.15355 0.30903 0.0
H816 H 0.27441 0.16282 0.38658 0.0
O817 O 0.22621 0.2072 0.32261 0.0
O818 O 0.25985 0.21602 0.35077 0.0
O819 O 0.23714 0.18942 0.40497 0.0
C820 C 0.24856 0.2184 0.32546 0.0
H821 H 0.21465 0.28316 0.41214 0.0
H822 H 0.26507 0.11401 0.3145 0.0
H823 H 0.143 0.17856 0.41099 0.0
H824 H 0.15322 0.14682 0.32473 0.0
Co825 Co 0.57481 0.4889 0.11776 0.0
C826 C 0.52821 0.45334 0.11561 0.0
C827 C 0.52578 0.4837 0.14749 0.0
C828 C 0.50286 0.47046 0.1475 0.0
N829 N 0.54185 0.47307 0.12775 0.0
N830 N 0.50413 0.45152 0.12736 0.0
H831 H 0.53522 0.44147 0.09787 0.0
H832 H 0.52994 0.50081 0.16022 0.0
C833 C 0.59688 0.49575 0.17772 0.0
O834 O 0.61845 0.48497 0.16855 0.0
N835 N 0.60744 0.50717 0.10857 0.0
C836 C 0.62181 0.50638 0.08399 0.0
C837 C 0.64247 0.52331 0.08657 0.0
C838 C 0.61891 0.52603 0.12473 0.0
N839 N 0.6408 0.53549 0.11245 0.0
C840 C 0.60888 0.44658 0.10451 0.0
C841 C 0.60114 0.41844 0.155 0.0
C842 C 0.6198 0.40998 0.13501 0.0
C843 C 0.62306 0.424 0.10919 0.0
C844 C 0.58749 0.4415 0.14956 0.0
N845 N 0.59255 0.45605 0.12525 0.0
H846 H 0.61098 0.45629 0.08399 0.0
H847 H 0.57335 0.44801 0.16529 0.0
H848 H 0.61741 0.49492 0.06495 0.0
H849 H 0.61098 0.53364 0.14469 0.0
O850 O 0.56756 0.48356 0.07696 0.0
O851 O 0.55568 0.51822 0.10196 0.0
O852 O 0.57818 0.49966 0.16001 0.0
C853 C 0.55532 0.50552 0.07735 0.0
H854 H 0.48623 0.47478 0.161 0.0
H855 H 0.65759 0.52626 0.07059 0.0
H856 H 0.59775 0.40785 0.175 0.0
H857 H 0.63661 0.41756 0.09271 0.0
Co858 Co 0.29558 0.82676 0.86002 0.0
C859 C 0.33139 0.78079 0.86081 0.0
C860 C 0.30287 0.7804 0.89488 0.0
C861 C 0.31637 0.75761 0.89597 0.0
N862 N 0.31219 0.79506 0.87298 0.0
N863 N 0.33414 0.75766 0.87449 0.0
H864 H 0.34206 0.78652 0.84158 0.0
H865 H 0.28646 0.78529 0.90839 0.0
C866 C 0.28457 0.85415 0.91531 0.0
O867 O 0.29465 0.87461 0.90252 0.0
N868 N 0.27641 0.85793 0.84767 0.0
C869 C 0.27999 0.87439 0.82512 0.0
C870 C 0.26164 0.89392 0.82653 0.0
C871 C 0.2546 0.86679 0.86078 0.0
N872 N 0.24594 0.88933 0.84941 0.0
C873 C 0.33858 0.86042 0.84749 0.0
C874 C 0.36253 0.85645 0.90114 0.0
C875 C 0.37261 0.87351 0.88037 0.0
C876 C 0.36077 0.87495 0.85306 0.0
C877 C 0.33993 0.84251 0.89476 0.0
N878 N 0.32734 0.84584 0.86877 0.0
H879 H 0.33084 0.86055 0.82584 0.0
H880 H 0.33226 0.82944 0.911 0.0
H881 H 0.29441 0.87246 0.8083 0.0
H882 H 0.24517 0.857 0.87867 0.0
O883 O 0.30368 0.81849 0.82042 0.0
O884 O 0.26808 0.80544 0.84287 0.0
O885 O 0.28257 0.8327 0.90133 0.0
C886 C 0.28235 0.80533 0.81933 0.0
H887 H 0.3129 0.7418 0.91098 0.0
H888 H 0.26044 0.91055 0.81223 0.0
H889 H 0.37159 0.85444 0.92227 0.0
H890 H 0.36873 0.88716 0.83607 0.0
Co891 Co 0.94836 0.54748 0.61135 0.0
C892 C 0.99491 0.58188 0.60263 0.0
C893 C 0.98836 0.57293 0.64759 0.0
C894 C 1.00998 0.58822 0.6457 0.0
N895 N 0.97839 0.56918 0.62069 0.0
N896 N 1.01412 0.59374 0.61754 0.0
H897 H 0.99337 0.58216 0.57917 0.0
H898 H 0.98094 0.56491 0.6676 0.0
C899 C 0.92878 0.53596 0.67127 0.0
O900 O 0.90578 0.5436 0.66254 0.0
N901 N 0.9189 0.52443 0.60242 0.0
C902 C 0.90374 0.52403 0.57843 0.0
C903 C 0.88525 0.50482 0.58131 0.0
C904 C 0.91021 0.50409 0.61848 0.0
N905 N 0.88914 0.49255 0.6068 0.0
C906 C 0.90934 0.5853 0.5983 0.0
C907 C 0.91277 0.61366 0.64916 0.0
C908 C 0.89516 0.62145 0.62779 0.0
C909 C 0.89367 0.60704 0.60204 0.0
C910 C 0.92787 0.59148 0.64469 0.0
N911 N 0.92557 0.577 0.61978 0.0
H912 H 0.90891 0.57572 0.57757 0.0
H913 H 0.94111 0.58598 0.66164 0.0
H914 H 0.90594 0.53648 0.55971 0.0
H915 H 0.91927 0.49725 0.63818 0.0
O916 O 0.95318 0.55427 0.57055 0.0
O917 O 0.9717 0.52188 0.59422 0.0
O918 O 0.94768 0.53525 0.65326 0.0
C919 C 0.9686 0.53446 0.56977 0.0
H920 H 0.02246 0.5939 0.66352 0.0
H921 H 0.86978 0.50065 0.56613 0.0
H922 H 0.91465 0.62442 0.66929 0.0
H923 H 0.88092 0.61293 0.58454 0.0
Co924 Co 0.23212 0.82981 0.14253 0.0
C925 C 0.20124 0.78066 0.15025 0.0
C926 C 0.20973 0.78853 0.10545 0.0
C927 C 0.19717 0.76517 0.10702 0.0
N928 N 0.21219 0.79867 0.13248 0.0
N929 N 0.19195 0.76025 0.13506 0.0
H930 H 0.20076 0.78183 0.17373 0.0
H931 H 0.21716 0.79686 0.0856 0.0
C932 C 0.24428 0.84991 0.08296 0.0
O933 O 0.23572 0.87271 0.09135 0.0
N934 N 0.2535 0.86038 0.15228 0.0
C935 C 0.25255 0.87524 0.17649 0.0
C936 C 0.27115 0.89441 0.17478 0.0
C937 C 0.27403 0.87004 0.13722 0.0
N938 N 0.2845 0.89134 0.14983 0.0
C939 C 0.1923 0.86714 0.1546 0.0
C940 C 0.16564 0.86317 0.10266 0.0
C941 C 0.15683 0.88061 0.12373 0.0
C942 C 0.17032 0.8823 0.15006 0.0
C943 C 0.18808 0.84862 0.10792 0.0
N944 N 0.20177 0.85129 0.13334 0.0
H945 H 0.20121 0.86774 0.17568 0.0
H946 H 0.19447 0.83555 0.09117 0.0
H947 H 0.23971 0.87226 0.19473 0.0
H948 H 0.28182 0.86138 0.11773 0.0
O949 O 0.22471 0.82445 0.18313 0.0
O950 O 0.25837 0.80761 0.16008 0.0
O951 O 0.24525 0.83111 0.10106 0.0
C952 C 0.24515 0.80986 0.18419 0.0
H953 H 0.19319 0.75216 0.08907 0.0
H954 H 0.27429 0.90966 0.19057 0.0
H955 H 0.15558 0.86113 0.08211 0.0
H956 H 0.16363 0.89496 0.16731 0.0
Co957 Co 0.95079 0.48167 0.89304 0.0
C958 C 0.99728 0.44615 0.89068 0.0
C959 C 0.99622 0.47481 0.85679 0.0
C960 C 0.01925 0.46189 0.85492 0.0
N961 N 0.98223 0.46506 0.87905 0.0
N962 N 0.02012 0.44402 0.87622 0.0
H963 H 0.99238 0.43534 0.91011 0.0
H964 H 0.99084 0.49132 0.84368 0.0
C965 C 0.92295 0.49322 0.83809 0.0
O966 O 0.90248 0.48316 0.85085 0.0
N967 N 0.91998 0.50109 0.90616 0.0
C968 C 0.90417 0.49794 0.92936 0.0
C969 C 0.88488 0.5166 0.92854 0.0
C970 C 0.91101 0.52296 0.89319 0.0
N971 N 0.889 0.53208 0.90535 0.0
C972 C 0.91694 0.43913 0.90626 0.0
C973 C 0.91971 0.41462 0.85285 0.0
C974 C 0.90306 0.40473 0.87421 0.0
C975 C 0.90224 0.41693 0.90136 0.0
C976 C 0.93389 0.43727 0.85859 0.0
N977 N 0.93123 0.45009 0.88456 0.0
H978 H 0.91722 0.44708 0.92782 0.0
H979 H 0.94667 0.44475 0.84196 0.0
H980 H 0.90643 0.48365 0.94629 0.0
H981 H 0.92045 0.53224 0.87497 0.0
O982 O 0.95955 0.47309 0.93239 0.0
O983 O 0.9726 0.50883 0.91016 0.0
O984 O 0.94438 0.49505 0.85204 0.0
C985 C 0.97283 0.49434 0.93355 0.0
H986 H 0.03469 0.46592 0.83961 0.0
H987 H 0.86879 0.51824 0.94352 0.0
H988 H 0.92128 0.40531 0.8318 0.0
H989 H 0.89044 0.40918 0.91883 0.0
Co990 Co 0.29537 0.19645 0.6412 0.0
C991 C 0.32891 0.24399 0.64809 0.0
C992 C 0.32198 0.23433 0.60337 0.0
C993 C 0.33758 0.25576 0.60425 0.0
N994 N 0.31656 0.22655 0.63079 0.0
N995 N 0.34195 0.26189 0.63225 0.0
H996 H 0.32862 0.24363 0.67162 0.0
H997 H 0.31536 0.22519 0.58364 0.0
C998 C 0.28535 0.17304 0.58196 0.0
O999 O 0.29252 0.15013 0.59152 0.0
N1000 N 0.27325 0.16658 0.65094 0.0
C1001 C 0.27443 0.15076 0.67433 0.0
C1002 C 0.25582 0.13165 0.67173 0.0
C1003 C 0.25281 0.15746 0.6354 0.0
N1004 N 0.24246 0.13565 0.64695 0.0
C1005 C 0.33635 0.16399 0.66196 0.0
C1006 C 0.36525 0.16236 0.61138 0.0
C1007 C 0.37577 0.15174 0.63682 0.0
C1008 C 0.36065 0.15218 0.66214 0.0
C1009 C 0.34074 0.17405 0.61214 0.0
N1010 N 0.32635 0.17467 0.63722 0.0
H1011 H 0.32646 0.16595 0.68241 0.0
H1012 H 0.33415 0.18365 0.59272 0.0
H1013 H 0.28757 0.15279 0.69238 0.0
H1014 H 0.24539 0.16657 0.61595 0.0
O1015 O 0.29878 0.20508 0.68201 0.0
O1016 O 0.26765 0.21955 0.65326 0.0
O1017 O 0.28542 0.19264 0.59894 0.0
C1018 C 0.27838 0.21955 0.67893 0.0
H1019 H 0.34476 0.26644 0.58562 0.0
H1020 H 0.25288 0.11562 0.68657 0.0
H1021 H 0.37644 0.16297 0.59145 0.0
H1022 H 0.36795 0.14432 0.6824 0.0
Co1023 Co 0.58254 0.55247 0.39931 0.0
C1024 C 0.53522 0.5865 0.39844 0.0
C1025 C 0.53596 0.55756 0.36483 0.0
C1026 C 0.51246 0.56967 0.36396 0.0
N1027 N 0.5504 0.56801 0.38629 0.0
N1028 N 0.51185 0.58769 0.3851 0.0
H1029 H 0.54046 0.59761 0.41753 0.0
H1030 H 0.5414 0.54106 0.35172 0.0
C1031 C 0.60941 0.54154 0.34321 0.0
O1032 O 0.6301 0.55203 0.35503 0.0
N1033 N 0.6142 0.5342 0.41144 0.0
C1034 C 0.631 0.53838 0.4335 0.0
C1035 C 0.65082 0.52035 0.43188 0.0
C1036 C 0.62324 0.51245 0.39837 0.0
N1037 N 0.64608 0.50433 0.40933 0.0
C1038 C 0.61438 0.59657 0.41241 0.0
C1039 C 0.61139 0.6204 0.35863 0.0
C1040 C 0.62748 0.6311 0.38004 0.0
C1041 C 0.62834 0.61925 0.40739 0.0
C1042 C 0.59794 0.5973 0.36452 0.0
N1043 N 0.60086 0.58479 0.39063 0.0
H1044 H 0.61406 0.58887 0.4341 0.0
H1045 H 0.5855 0.58928 0.34789 0.0
H1046 H 0.6292 0.55303 0.45008 0.0
H1047 H 0.61335 0.50268 0.38078 0.0
O1048 O 0.57403 0.56025 0.43908 0.0
O1049 O 0.56204 0.52436 0.4165 0.0
O1050 O 0.58846 0.53947 0.35803 0.0
C1051 C 0.56146 0.53854 0.44009 0.0
H1052 H 0.49655 0.56496 0.34954 0.0
H1053 H 0.66773 0.51959 0.44576 0.0
H1054 H 0.60972 0.62941 0.33743 0.0
H1055 H 0.63965 0.6276 0.42491 0.0
H1056 H 0.30365 0.2941 0.2358 0.0
H1057 H 0.23357 0.27782 0.18793 0.0
H1058 H 0.21883 0.24921 0.22676 0.0
H1059 H 0.2255 0.22887 0.27404 0.0
H1060 H 0.29485 0.24495 0.32313 0.0
H1061 H 0.3103 0.27342 0.28399 0.0
C1062 C 0.28511 0.28436 0.23393 0.0
C1063 C 0.26971 0.2882 0.20893 0.0
C1064 C 0.27669 0.26778 0.25646 0.0
C1065 C 0.2458 0.27532 0.20686 0.0
C1066 C 0.23736 0.25888 0.22906 0.0
C1067 C 0.2441 0.23845 0.27622 0.0
C1068 C 0.25906 0.23464 0.30149 0.0
C1069 C 0.25264 0.25493 0.25388 0.0
C1070 C 0.283 0.24742 0.30389 0.0
C1071 C 0.29179 0.26377 0.28154 0.0
H1072 H 0.01789 0.02749 0.56577 0.0
H1073 H 0.06058 0.96911 0.51867 0.0
H1074 H 0.03375 0.97603 0.47592 0.0
H1075 H 0.99798 0.99837 0.4515 0.0
H1076 H 0.95547 0.0574 0.49756 0.0
H1077 H 0.982 0.05033 0.54088 0.0
C1078 C 0.02144 0.01651 0.54604 0.0
C1079 C 0.04127 0.99785 0.5455 0.0
C1080 C 1.00571 0.02044 0.52133 0.0
C1081 C 0.04545 0.9836 0.5198 0.0
C1082 C 0.03005 0.98745 0.49527 0.0
C1083 C 0.99433 1.00945 0.47113 0.0
C1084 C 0.97464 0.0282 0.47136 0.0
C1085 C 1.00999 1.00565 0.49581 0.0
C1086 C 0.97045 0.04273 0.49684 0.0
C1087 C 0.9857 0.03879 0.52162 0.0
H1088 H 0.24852 0.7643 0.81271 0.0
H1089 H 0.30372 0.81154 0.76613 0.0
H1090 H 0.29856 0.78479 0.723 0.0
H1091 H 0.27854 0.74796 0.69793 0.0
H1092 H 0.22236 0.70101 0.74308 0.0
H1093 H 0.22799 0.72717 0.78707 0.0
C1094 C 0.25915 0.76886 0.79301 0.0
C1095 C 0.27642 0.78999 0.79276 0.0
C1096 C 0.25625 0.75314 0.768 0.0
C1097 C 0.29028 0.79542 0.76707 0.0
C1098 C 0.28745 0.78005 0.74231 0.0
C1099 C 0.26786 0.74319 0.71754 0.0
C1100 C 0.25032 0.72237 0.7173 0.0
C1101 C 0.27068 0.75873 0.74254 0.0
C1102 C 0.23617 0.71683 0.74274 0.0
C1103 C 0.23925 0.7319 0.76788 0.0
H1104 H 0.48245 0.05597 0.02445 0.0
H1105 H 0.49959 0.9851 0.07044 0.0
H1106 H 0.52681 0.9707 0.03008 0.0
H1107 H 0.54604 0.97821 0.98192 0.0
H1108 H 0.52903 0.04885 0.93551 0.0
H1109 H 0.5017 0.06343 0.97589 0.0
C1110 C 0.492 0.0373 0.02558 0.0
C1111 C 0.48883 0.0216 0.0505 0.0
C1112 C 0.50786 0.02918 1.00229 0.0
C1113 C 0.50156 0.99755 0.05158 0.0
C1114 C 0.51722 0.98933 0.02851 0.0
C1115 C 0.53649 0.99689 0.98064 0.0
C1116 C 0.53974 1.01247 0.95568 0.0
C1117 C 0.52062 1.00502 0.00383 0.0
C1118 C 0.52701 0.03651 0.95444 0.0
C1119 C 0.51129 0.04481 0.97752 0.0
H1120 H 0.2781 0.76862 0.19053 0.0
H1121 H 0.22393 0.8164 0.23772 0.0
H1122 H 0.22923 0.78947 0.28085 0.0
H1123 H 0.24916 0.75217 0.30557 0.0
H1124 H 0.30405 0.70483 0.25903 0.0
H1125 H 0.29831 0.73135 0.21546 0.0
C1126 C 0.2677 0.77328 0.21035 0.0
C1127 C 0.25075 0.7946 0.21084 0.0
C1128 C 0.27066 0.75751 0.23521 0.0
C1129 C 0.23718 0.80016 0.23667 0.0
C1130 C 0.24008 0.78468 0.26139 0.0
C1131 C 0.25957 0.74747 0.28576 0.0
C1132 C 0.27681 0.72641 0.28549 0.0
C1133 C 0.25662 0.76318 0.2609 0.0
C1134 C 0.29055 0.72087 0.25979 0.0
C1135 C 0.28738 0.73611 0.23487 0.0
H1136 H 0.47594 0.97629 0.48566 0.0
H1137 H 0.4945 0.04501 0.43631 0.0
H1138 H 0.52347 0.05951 0.47527 0.0
H1139 H 0.54423 0.05214 0.52291 0.0
H1140 H 0.52579 0.98314 0.57184 0.0
H1141 H 0.49615 0.96922 0.53337 0.0
C1142 C 0.48616 0.99456 0.48343 0.0
C1143 C 0.48294 1.00959 0.45803 0.0
C1144 C 0.50297 1.00261 0.50578 0.0
C1145 C 0.4965 0.03311 0.45559 0.0
C1146 C 0.51315 0.04136 0.47785 0.0
C1147 C 0.53378 0.03402 0.52517 0.0
C1148 C 0.53737 0.01864 0.55026 0.0
C1149 C 0.51669 0.02616 0.50295 0.0
C1150 C 0.52351 0.99531 0.55281 0.0
C1151 C 0.50651 0.98736 0.53081 0.0
H1152 H 0.30292 0.22974 0.72997 0.0
H1153 H 0.23404 0.24859 0.68135 0.0
H1154 H 0.22031 0.27817 0.72004 0.0
H1155 H 0.22781 0.29857 0.7679 0.0
H1156 H 0.29705 0.27988 0.81604 0.0
H1157 H 0.31077 0.25059 0.77723 0.0
C1158 C 0.28481 0.24019 0.72788 0.0
C1159 C 0.26943 0.23676 0.70284 0.0
C1160 C 0.2772 0.25739 0.75006 0.0
C1161 C 0.24619 0.25074 0.7004 0.0
C1162 C 0.23836 0.26772 0.72251 0.0
C1163 C 0.246 0.28823 0.76982 0.0
C1164 C 0.2614 0.29152 0.7949 0.0
C1165 C 0.25373 0.27124 0.74743 0.0
C1166 C 0.28484 0.27784 0.79701 0.0
C1167 C 0.29267 0.26098 0.77485 0.0
H1168 H 0.04655 0.05272 0.98082 0.0
H1169 H 0.03062 0.98121 0.93557 0.0
H1170 H 1.00134 0.96785 0.97475 0.0
H1171 H 0.98009 0.97662 0.02186 0.0
H1172 H 0.99596 0.04841 0.06666 0.0
H1173 H 0.02517 0.06161 0.02752 0.0
C1174 C 0.03684 0.03411 0.97958 0.0
C1175 C 0.04096 0.0179 0.95532 0.0
C1176 C 0.01978 0.02672 1.002 0.0
C1177 C 0.02795 0.994 0.95402 0.0
C1178 C 1.01111 0.9864 0.97638 0.0
C1179 C 0.98976 0.99526 0.02297 0.0
C1180 C 0.98568 1.01156 0.04718 0.0
C1181 C 1.00676 1.00266 1.00043 0.0
C1182 C 0.9986 0.03553 0.04829 0.0
C1183 C 0.01541 0.04306 0.02594 0.0
H1184 H 0.72685 0.73198 0.77672 0.0
H1185 H 0.79798 0.75172 0.82073 0.0
H1186 H 0.81071 0.77914 0.77966 0.0
H1187 H 0.80146 0.79791 0.73149 0.0
H1188 H 0.73022 0.77843 0.68759 0.0
H1189 H 0.71765 0.75068 0.72846 0.0
C1190 C 0.74524 0.74213 0.7773 0.0
C1191 C 0.7615 0.73963 0.80183 0.0
C1192 C 0.75231 0.7581 0.75369 0.0
C1193 C 0.78513 0.75315 0.80217 0.0
C1194 C 0.79238 0.76892 0.7787 0.0
C1195 C 0.78311 0.7877 0.73086 0.0
C1196 C 0.76675 0.79039 0.70644 0.0
C1197 C 0.77607 0.77165 0.75441 0.0
C1198 C 0.74314 0.77684 0.70606 0.0
C1199 C 0.73598 0.7609 0.72943 0.0
H1200 H 0.80285 0.30441 0.27517 0.0
H1201 H 0.73206 0.28725 0.32127 0.0
H1202 H 0.71851 0.25843 0.28178 0.0
H1203 H 0.727 0.23773 0.23447 0.0
H1204 H 0.79778 0.25489 0.18836 0.0
H1205 H 0.81124 0.28387 0.22776 0.0
C1206 C 0.78433 0.29456 0.27653 0.0
C1207 C 0.76841 0.29817 0.30118 0.0
C1208 C 0.77682 0.27777 0.25388 0.0
C1209 C 0.74462 0.285 0.30256 0.0
C1210 C 0.73693 0.26841 0.28002 0.0
C1211 C 0.74549 0.24764 0.23307 0.0
C1212 C 0.76146 0.24395 0.20848 0.0
C1213 C 0.75295 0.26451 0.25567 0.0
C1214 C 0.78519 0.25721 0.20703 0.0
C1215 C 0.79284 0.27388 0.22952 0.0
H1216 H 0.7247 0.29307 0.73156 0.0
H1217 H 0.79403 0.27507 0.68322 0.0
H1218 H 0.80866 0.2469 0.72295 0.0
H1219 H 0.80193 0.22804 0.7718 0.0
H1220 H 0.73241 0.24642 0.81969 0.0
H1221 H 0.71759 0.27371 0.77956 0.0
C1222 C 0.74306 0.28304 0.72963 0.0
C1223 C 0.75834 0.28632 0.70444 0.0
C1224 C 0.75124 0.26687 0.75245 0.0
C1225 C 0.78195 0.27298 0.70235 0.0
C1226 C 0.79028 0.25685 0.72507 0.0
C1227 C 0.78345 0.23788 0.77341 0.0
C1228 C 0.76828 0.23513 0.7988 0.0
C1229 C 0.77511 0.25371 0.75026 0.0
C1230 C 0.74444 0.24811 0.80047 0.0
C1231 C 0.73599 0.26379 0.77753 0.0
H1232 H 0.78009 0.77642 0.31131 0.0
H1233 H 0.72413 0.82183 0.26401 0.0
H1234 H 0.73119 0.79559 0.22057 0.0
H1235 H 0.75326 0.75927 0.19552 0.0
H1236 H 0.80871 0.71361 0.24342 0.0
H1237 H 0.80167 0.73994 0.28659 0.0
C1238 C 0.76966 0.78071 0.29141 0.0
C1239 C 0.75174 0.80119 0.29098 0.0
C1240 C 0.77349 0.7652 0.26644 0.0
C1241 C 0.7381 0.80621 0.26504 0.0
C1242 C 0.74205 0.79113 0.24011 0.0
C1243 C 0.76356 0.75494 0.21549 0.0
C1244 C 0.78145 0.7344 0.21606 0.0
C1245 C 0.75958 0.77041 0.24052 0.0
C1246 C 0.79481 0.72928 0.24217 0.0
C1247 C 0.79089 0.74442 0.267 0.0
H1248 H 0.48211 0.55432 0.98126 0.0
H1249 H 0.50284 0.48386 0.93639 0.0
H1250 H 0.53008 0.471 0.97753 0.0
H1251 H 0.54814 0.47984 0.02616 0.0
H1252 H 0.52743 0.55035 0.07096 0.0
H1253 H 0.50026 0.56321 0.0298 0.0
C1254 C 0.49246 0.53605 0.98049 0.0
C1255 C 0.49027 0.52 0.95572 0.0
C1256 C 0.50828 0.5289 0.00414 0.0
C1257 C 0.50402 0.49653 0.95514 0.0
C1258 C 0.51969 0.48921 0.97865 0.0
C1259 C 0.53783 0.49812 0.0269 0.0
C1260 C 0.53998 0.51417 0.05168 0.0
C1261 C 0.52204 0.50529 1.00322 0.0
C1262 C 0.52628 0.53768 0.05221 0.0
C1263 C 0.51064 0.545 0.02869 0.0
H1264 H 1.00811 0.49953 0.56174 0.0
H1265 H 0.962 0.55653 0.51669 0.0
H1266 H 0.98709 0.54988 0.47249 0.0
H1267 H 0.02247 0.52818 0.4462 0.0
H1268 H 0.06824 0.4706 0.4906 0.0
H1269 H 0.04327 0.47728 0.53509 0.0
C1270 C 1.00345 0.51031 0.54218 0.0
C1271 C 0.98314 0.52846 0.54266 0.0
C1272 C 0.0181 0.50648 0.51659 0.0
C1273 C 0.9775 0.5424 0.51709 0.0
C1274 C 0.9919 0.53869 0.4917 0.0
C1275 C 0.02708 0.51725 0.46567 0.0
C1276 C 0.04729 0.49904 0.46504 0.0
C1277 C 1.01237 0.52091 0.49119 0.0
C1278 C 0.0528 0.4848 0.49043 0.0
C1279 C 0.03848 0.48855 0.51593 0.0
H1280 H 0.02945 0.49756 0.0555 0.0
H1281 H 0.08186 0.54676 0.00772 0.0
H1282 H 0.05553 0.54188 0.96387 0.0
H1283 H 0.01664 0.52437 0.93907 0.0
H1284 H 0.96404 0.47586 0.98764 0.0
H1285 H 0.99092 0.48006 0.03088 0.0
C1286 C 0.03535 0.50676 0.03533 0.0
C1287 C 0.05776 0.5222 0.0348 0.0
C1288 C 0.01971 0.50445 0.01031 0.0
C1289 C 0.06479 0.53456 0.00865 0.0
C1290 C 0.04963 0.53195 0.98358 0.0
C1291 C 1.01095 0.51504 0.95923 0.0
C1292 C 0.98826 0.49996 0.96007 0.0
C1293 C 0.02679 0.51724 0.9842 0.0
C1294 C 0.98138 0.48764 0.98632 0.0
C1295 C 0.99682 0.4899 0.01111 0.0
H1296 H 0.5211 0.5041 0.44561 0.0
H1297 H 0.56675 0.55933 0.49394 0.0
H1298 H 0.53978 0.55264 0.5368 0.0
H1299 H 0.50305 0.53096 0.56119 0.0
H1300 H 0.45763 0.47541 0.51314 0.0
H1301 H 0.48415 0.48262 0.46993 0.0
C1302 C 0.52528 0.51442 0.46562 0.0
C1303 C 0.54605 0.53206 0.46649 0.0
C1304 C 0.50941 0.51073 0.49034 0.0
C1305 C 0.55094 0.54557 0.49256 0.0
C1306 C 0.53543 0.54186 0.51716 0.0
C1307 C 0.49874 0.52078 0.54112 0.0
C1308 C 0.47824 0.50284 0.54042 0.0
C1309 C 0.51447 0.52462 0.51633 0.0
C1310 C 0.47324 0.48942 0.51432 0.0
C1311 C 0.4885 0.49341 0.48956 0.0
H1312 H 0.37711 0.24585 0.14624 0.0
H1313 H 0.30356 0.21126 0.12546 0.0
H1314 H 0.32273 0.16803 0.1272 0.0
H1315 H 0.36123 0.14037 0.1296 0.0
H1316 H 0.43533 0.1741 0.15018 0.0
H1317 H 0.41539 0.2171 0.15378 0.0
C1318 C 0.36529 0.22873 0.14295 0.0
C1319 C 0.33897 0.23162 0.13578 0.0
C1320 C 0.37668 0.2038 0.14344 0.0
C1321 C 0.32384 0.20937 0.13106 0.0
C1322 C 0.33483 0.1847 0.13186 0.0
C1323 C 0.37297 0.15713 0.13506 0.0
C1324 C 0.39975 0.15408 0.13928 0.0
C1325 C 0.36137 0.18172 0.13712 0.0
C1326 C 0.41465 0.17592 0.14682 0.0
C1327 C 0.40326 0.20054 0.14879 0.0
H1328 H 0.0352 0.10928 0.34478 0.0
H1329 H 0.03959 0.09432 0.43661 0.0
H1330 H 0.08027 0.1191 0.43962 0.0
H1331 H 0.11673 0.14091 0.41454 0.0
H1332 H 0.11017 0.15773 0.32268 0.0
H1333 H 0.06838 0.13619 0.32116 0.0
C1334 C 0.04487 0.11209 0.3655 0.0
C1335 C 0.03465 0.10027 0.39045 0.0
C1336 C 0.06807 0.12619 0.36688 0.0
C1337 C 0.04714 0.10365 0.41727 0.0
C1338 C 0.07045 0.11755 0.41886 0.0
C1339 C 0.106 0.14036 0.39429 0.0
C1340 C 0.11722 0.15034 0.36858 0.0
C1341 C 0.08146 0.12835 0.3936 0.0
C1342 C 0.10274 0.14937 0.34262 0.0
C1343 C 0.0786 0.13727 0.34172 0.0
H1344 H 0.10908 0.84899 0.63989 0.0
H1345 H 0.1746 0.90079 0.63993 0.0
H1346 H 0.20405 0.86416 0.64614 0.0
H1347 H 0.21139 0.81761 0.64712 0.0
H1348 H 0.14698 0.76464 0.64334 0.0
H1349 H 0.11667 0.80136 0.64398 0.0
C1350 C 0.12979 0.85209 0.64171 0.0
C1351 C 0.13985 0.87737 0.63944 0.0
C1352 C 0.14667 0.83079 0.64457 0.0
C1353 C 0.16662 0.8814 0.64158 0.0
C1354 C 0.18339 0.86051 0.6451 0.0
C1355 C 0.1907 0.81407 0.64651 0.0
C1356 C 0.18142 0.7885 0.64465 0.0
C1357 C 0.17368 0.83515 0.6459 0.0
C1358 C 0.15457 0.78416 0.64477 0.0
C1359 C 0.13729 0.80516 0.64486 0.0
H1360 H 0.45552 0.96181 0.8857 0.0
H1361 H 0.50717 0.89696 0.89512 0.0
H1362 H 0.46988 0.86743 0.89928 0.0
H1363 H 0.42239 0.85994 0.89367 0.0
H1364 H 0.37206 0.92557 0.88094 0.0
H1365 H 0.4089 0.95506 0.88456 0.0
C1366 C 0.45857 0.94121 0.88892 0.0
C1367 C 0.48392 0.93142 0.8896 0.0
C1368 C 0.43723 0.92456 0.8904 0.0
C1369 C 0.48776 0.90485 0.89451 0.0
C1370 C 0.46646 0.88802 0.89662 0.0
C1371 C 0.41961 0.88073 0.89227 0.0
C1372 C 0.39472 0.89072 0.88689 0.0
C1373 C 0.44108 0.89758 0.89363 0.0
C1374 C 0.39114 0.91761 0.88491 0.0
C1375 C 0.41216 0.93442 0.88694 0.0
H1376 H 0.38881 0.86897 0.34205 0.0
H1377 H 0.40506 0.86272 0.43404 0.0
H1378 H 0.38352 0.8209 0.43566 0.0
H1379 H 0.35677 0.78761 0.41211 0.0
H1380 H 0.34218 0.79162 0.3202 0.0
H1381 H 0.36696 0.83234 0.31706 0.0
C1382 C 0.3881 0.85829 0.36235 0.0
C1383 C 0.39793 0.8696 0.38807 0.0
C1384 C 0.37603 0.83373 0.36311 0.0
C1385 C 0.39682 0.85519 0.41409 0.0
C1386 C 0.38471 0.83105 0.41505 0.0
C1387 C 0.35963 0.79721 0.39135 0.0
C1388 C 0.34791 0.78685 0.36641 0.0
C1389 C 0.37373 0.82043 0.3899 0.0
C1390 C 0.3514 0.79926 0.33954 0.0
C1391 C 0.36532 0.8226 0.33788 0.0
H1392 H 0.40187 0.12101 0.59753 0.0
H1393 H 0.41142 0.1622 0.67861 0.0
H1394 H 0.45548 0.14607 0.68291 0.0
H1395 H 0.49073 0.11912 0.66507 0.0
H1396 H 0.48216 0.07666 0.5849 0.0
H1397 H 0.43875 0.09505 0.5783 0.0
C1398 C 0.4137 0.12657 0.61599 0.0
C1399 C 0.40309 0.14243 0.63799 0.0
C1400 C 0.43927 0.11713 0.61843 0.0
C1401 C 0.41876 0.14951 0.66174 0.0
C1402 C 0.44407 0.14045 0.66414 0.0
C1403 C 0.47938 0.11378 0.64616 0.0
C1404 C 0.48961 0.09626 0.62572 0.0
C1405 C 0.45438 0.12398 0.64288 0.0
C1406 C 0.47485 0.09017 0.60093 0.0
C1407 C 0.44992 0.10053 0.59729 0.0
H1408 H 0.21374 0.2064 0.87403 0.0
H1409 H 0.14983 0.25778 0.85722 0.0
H1410 H 0.12025 0.22044 0.85471 0.0
H1411 H 0.11219 0.1731 0.86226 0.0
H1412 H 0.17698 0.1232 0.88133 0.0
H1413 H 0.2065 0.15995 0.87831 0.0
C1414 C 0.19334 0.20949 0.86979 0.0
C1415 C 0.18394 0.2349 0.86631 0.0
C1416 C 0.17655 0.18811 0.86909 0.0
C1417 C 0.15756 0.23844 0.85997 0.0
C1418 C 0.14064 0.21708 0.85878 0.0
C1419 C 0.13282 0.17033 0.86535 0.0
C1420 C 0.14235 0.14547 0.87238 0.0
C1421 C 0.14982 0.19182 0.86402 0.0
C1422 C 0.16912 0.14215 0.87636 0.0
C1423 C 0.18603 0.16315 0.87457 0.0
H1424 H 0.10766 0.86651 0.10745 0.0
H1425 H 0.15508 0.93268 0.12888 0.0
H1426 H 0.11736 0.96096 0.12624 0.0
H1427 H 0.0707 0.96634 0.12255 0.0
H1428 H 0.0217 0.90077 0.10447 0.0
H1429 H 0.06014 0.87283 0.10011 0.0
C1430 C 0.10966 0.88719 0.11106 0.0
C1431 C 0.13405 0.89753 0.11861 0.0
C1432 C 0.08763 0.90335 0.11014 0.0
C1433 C 0.13647 0.9243 0.12338 0.0
C1434 C 0.11493 0.94046 0.12183 0.0
C1435 C 0.06843 0.94594 0.11748 0.0
C1436 C 0.04343 0.9355 0.11432 0.0
C1437 C 0.09039 0.9301 0.116 0.0
C1438 C 0.04077 0.90921 0.10698 0.0
C1439 C 0.06273 0.89325 0.10479 0.0
H1440 H 0.70999 0.82406 0.87195 0.0
H1441 H 0.64634 0.77059 0.86453 0.0
H1442 H 0.61591 0.80716 0.86049 0.0
H1443 H 0.60738 0.85474 0.86507 0.0
H1444 H 0.6721 0.90682 0.87545 0.0
H1445 H 0.70219 0.87053 0.87249 0.0
C1446 C 0.68946 0.82041 0.86922 0.0
C1447 C 0.68033 0.79474 0.86898 0.0
C1448 C 0.67229 0.84137 0.86778 0.0
C1449 C 0.65378 0.79022 0.86474 0.0
C1450 C 0.63642 0.81113 0.86271 0.0
C1451 C 0.6281 0.85803 0.86618 0.0
C1452 C 0.63759 0.88335 0.87071 0.0
C1453 C 0.6454 0.83684 0.86509 0.0
C1454 C 0.66442 0.88747 0.87224 0.0
C1455 C 0.68161 0.86675 0.87054 0.0
H1456 H 0.95839 0.95686 0.62984 0.0
H1457 H 1.00526 0.89154 0.60526 0.0
H1458 H 0.96603 0.86478 0.59974 0.0
H1459 H 0.91833 0.85915 0.60731 0.0
H1460 H 0.87295 0.92529 0.63359 0.0
H1461 H 0.91151 0.95253 0.63311 0.0
C1462 C 0.96 0.93679 0.62308 0.0
C1463 C 0.98467 0.92605 0.61839 0.0
C1464 C 0.93755 0.92164 0.62053 0.0
C1465 C 0.98647 0.90021 0.60898 0.0
C1466 C 0.96404 0.88491 0.60607 0.0
C1467 C 0.91693 0.87962 0.61242 0.0
C1468 C 0.89283 0.89014 0.62082 0.0
C1469 C 0.93946 0.89525 0.61255 0.0
C1470 C 0.89129 0.91668 0.62745 0.0
C1471 C 0.91332 0.93228 0.62717 0.0
H1472 H 0.91413 0.17402 0.36897 0.0
H1473 H 0.84496 0.12688 0.36693 0.0
H1474 H 0.81846 0.1655 0.36179 0.0
H1475 H 0.81434 0.21259 0.36356 0.0
H1476 H 0.88231 0.26067 0.36814 0.0
H1477 H 0.90999 0.2219 0.36611 0.0
C1478 C 0.89326 0.17223 0.36724 0.0
C1479 C 0.88161 0.14749 0.36849 0.0
C1480 C 0.87795 0.1947 0.36479 0.0
C1481 C 0.85456 0.14552 0.36572 0.0
C1482 C 0.83931 0.16765 0.36299 0.0
C1483 C 0.83525 0.21452 0.36365 0.0
C1484 C 0.84638 0.23926 0.36632 0.0
C1485 C 0.85074 0.19228 0.36325 0.0
C1486 C 0.87342 0.24175 0.36598 0.0
C1487 C 0.88915 0.21959 0.36515 0.0
H1488 H 0.54181 0.12177 0.16588 0.0
H1489 H 0.5455 0.09837 0.07624 0.0
H1490 H 0.5855 0.12375 0.06962 0.0
H1491 H 0.62231 0.14809 0.09172 0.0
H1492 H 0.61706 0.17133 0.1818 0.0
H1493 H 0.5749 0.15065 0.18593 0.0
C1494 C 0.55111 0.12284 0.14475 0.0
C1495 C 0.54093 0.10835 0.12159 0.0
C1496 C 0.57408 0.13705 0.14139 0.0
C1497 C 0.55297 0.10967 0.09424 0.0
C1498 C 0.57595 0.12392 0.09061 0.0
C1499 C 0.6117 0.14902 0.11206 0.0
C1500 C 0.62326 0.16065 0.13665 0.0
C1501 C 0.58716 0.13704 0.11434 0.0
C1502 C 0.60909 0.16182 0.16278 0.0
C1503 C 0.58485 0.15013 0.16516 0.0
H1504 H 0.70413 0.21631 0.59832 0.0
H1505 H 0.65686 0.24929 0.66594 0.0
H1506 H 0.63384 0.20778 0.67147 0.0
H1507 H 0.62485 0.1632 0.65353 0.0
H1508 H 0.6735 0.13101 0.58616 0.0
H1509 H 0.6981 0.17118 0.58384 0.0
C1510 C 0.68887 0.21432 0.61438 0.0
C1511 C 0.6819 0.23582 0.63143 0.0
C1512 C 0.67579 0.19063 0.6172 0.0
C1513 C 0.66251 0.23294 0.65262 0.0
C1514 C 0.64928 0.20929 0.65559 0.0
C1515 C 0.64109 0.16482 0.63869 0.0
C1516 C 0.64692 0.14418 0.61961 0.0
C1517 C 0.6554 0.18813 0.63752 0.0
C1518 C 0.66807 0.14674 0.60052 0.0
C1519 C 0.6823 0.16968 0.59929 0.0
H1520 H 0.6064 0.86555 0.39794 0.0
H1521 H 0.65102 0.93415 0.37869 0.0
H1522 H 0.61216 0.96078 0.38218 0.0
H1523 H 0.56517 0.96391 0.38486 0.0
H1524 H 0.51911 0.89597 0.40137 0.0
H1525 H 0.55872 0.86968 0.40562 0.0
C1526 C 0.60755 0.88639 0.39512 0.0
C1527 C 0.63142 0.89793 0.3878 0.0
C1528 C 0.58488 0.90158 0.39652 0.0
C1529 C 0.63278 0.9249 0.38404 0.0
C1530 C 0.6106 0.94011 0.38603 0.0
C1531 C 0.56388 0.94338 0.38975 0.0
C1532 C 0.53941 0.93173 0.39238 0.0
C1533 C 0.5865 0.92855 0.39132 0.0
C1534 C 0.53782 0.90527 0.39929 0.0
C1535 C 0.56044 0.89028 0.40143 0.0
H1536 H 0.92282 0.85756 0.14749 0.0
H1537 H 0.85447 0.90233 0.12796 0.0
H1538 H 0.82773 0.8636 0.13188 0.0
H1539 H 0.82408 0.81664 0.13586 0.0
H1540 H 0.89146 0.77031 0.15334 0.0
H1541 H 0.91821 0.80984 0.15612 0.0
C1542 C 0.90203 0.85881 0.14457 0.0
C1543 C 0.8907 0.88279 0.13698 0.0
C1544 C 0.88663 0.83616 0.14648 0.0
C1545 C 0.86372 0.8841 0.13327 0.0
C1546 C 0.84839 0.86196 0.13561 0.0
C1547 C 0.84458 0.81526 0.1407 0.0
C1548 C 0.85587 0.79066 0.14413 0.0
C1549 C 0.85969 0.83784 0.14142 0.0
C1550 C 0.88236 0.78906 0.15078 0.0
C1551 C 0.89763 0.81165 0.15203 0.0
H1552 H 0.95866 0.06903 0.88758 0.0
H1553 H 1.01013 0.13429 0.89534 0.0
H1554 H 0.9727 0.16372 0.89857 0.0
H1555 H 0.9251 0.17086 0.89265 0.0
H1556 H 0.87515 0.10465 0.88099 0.0
H1557 H 0.9121 0.0755 0.88556 0.0
C1558 C 0.96166 0.0897 0.89028 0.0
C1559 C 0.987 0.0996 0.89078 0.0
C1560 C 0.94026 0.10627 0.89099 0.0
C1561 C 0.99074 0.1263 0.89494 0.0
C1562 C 0.96935 0.14307 0.89646 0.0
C1563 C 0.92244 0.15003 0.89159 0.0
C1564 C 0.89759 0.13977 0.8863 0.0
C1565 C 0.944 0.13333 0.89351 0.0
C1566 C 0.89418 0.11283 0.88482 0.0
C1567 C 0.91526 0.09621 0.88745 0.0
H1568 H 0.90909 0.67048 0.64456 0.0
H1569 H 0.84333 0.62376 0.61989 0.0
H1570 H 0.8155 0.66189 0.62103 0.0
H1571 H 0.81053 0.70864 0.62481 0.0
H1572 H 0.87579 0.75679 0.64676 0.0
H1573 H 0.90311 0.71797 0.65187 0.0
C1574 C 0.88859 0.6687 0.6399 0.0
C1575 C 0.87828 0.64441 0.63185 0.0
C1576 C 0.87271 0.69091 0.64008 0.0
C1577 C 0.85173 0.6423 0.62574 0.0
C1578 C 0.83581 0.66407 0.62645 0.0
C1579 C 0.83074 0.71065 0.63079 0.0
C1580 C 0.84131 0.7355 0.63487 0.0
C1581 C 0.84622 0.68849 0.63286 0.0
C1582 C 0.86729 0.73782 0.64347 0.0
C1583 C 0.88289 0.71566 0.64614 0.0
H1584 H 0.6075 0.6722 0.89565 0.0
H1585 H 0.65788 0.60622 0.88541 0.0
H1586 H 0.62081 0.577 0.88746 0.0
H1587 H 0.57412 0.57035 0.8869 0.0
H1588 H 0.52241 0.63529 0.89467 0.0
H1589 H 0.5597 0.66478 0.89963 0.0
C1590 C 0.61026 0.6514 0.89442 0.0
C1591 C 0.63536 0.64134 0.89011 0.0
C1592 C 0.58861 0.63459 0.89503 0.0
C1593 C 0.63874 0.61437 0.88842 0.0
C1594 C 0.61756 0.59767 0.88959 0.0
C1595 C 0.57103 0.59095 0.88998 0.0
C1596 C 0.54564 0.60073 0.89003 0.0
C1597 C 0.59242 0.60759 0.89204 0.0
C1598 C 0.54181 0.62736 0.89462 0.0
C1599 C 0.56314 0.64418 0.89717 0.0
H1600 H 0.60673 0.35927 0.14654 0.0
H1601 H 0.67185 0.4109 0.13649 0.0
H1602 H 0.70167 0.37442 0.13961 0.0
H1603 H 0.70917 0.32786 0.14009 0.0
H1604 H 0.64513 0.27486 0.14754 0.0
H1605 H 0.61493 0.31164 0.15133 0.0
C1606 C 0.62747 0.36242 0.14557 0.0
C1607 C 0.63714 0.38768 0.14105 0.0
C1608 C 0.64463 0.34112 0.14678 0.0
C1609 C 0.66402 0.39161 0.13969 0.0
C1610 C 0.68106 0.37077 0.14147 0.0
C1611 C 0.6886 0.32437 0.1428 0.0
C1612 C 0.6793 0.29876 0.14311 0.0
C1613 C 0.67157 0.34545 0.14418 0.0
C1614 C 0.6527 0.29444 0.14728 0.0
C1615 C 0.63548 0.31547 0.14917 0.0
H1616 H 0.993 0.40729 0.34423 0.0
H1617 H 0.99001 0.43509 0.43236 0.0
H1618 H 0.94854 0.41246 0.43988 0.0
H1619 H 0.91052 0.3891 0.41878 0.0
H1620 H 0.91476 0.36221 0.32997 0.0
H1621 H 0.95818 0.38003 0.32525 0.0
C1622 C 0.98346 0.40791 0.36525 0.0
C1623 C 0.99436 0.42285 0.38766 0.0
C1624 C 0.9596 0.39534 0.36907 0.0
C1625 C 0.98202 0.42349 0.41489 0.0
C1626 C 0.9582 0.41079 0.41902 0.0
C1627 C 0.92117 0.38679 0.39862 0.0
C1628 C 0.90911 0.37484 0.37453 0.0
C1629 C 0.94637 0.39729 0.39593 0.0
C1630 C 0.92326 0.37189 0.34858 0.0
C1631 C 0.94818 0.38197 0.34588 0.0
H1632 H 0.91645 0.35532 0.85833 0.0
H1633 H 0.85111 0.40408 0.87853 0.0
H1634 H 0.82227 0.36663 0.87712 0.0
H1635 H 0.8163 0.31985 0.87532 0.0
H1636 H 0.88098 0.26974 0.85763 0.0
H1637 H 0.90942 0.30775 0.85216 0.0
C1638 C 0.89582 0.35766 0.86183 0.0
C1639 C 0.88584 0.38231 0.86871 0.0
C1640 C 0.87935 0.33581 0.86163 0.0
C1641 C 0.85915 0.38522 0.8734 0.0
C1642 C 0.84269 0.36384 0.87264 0.0
C1643 C 0.83661 0.31727 0.8701 0.0
C1644 C 0.8467 0.29211 0.86738 0.0
C1645 C 0.85269 0.33902 0.86765 0.0
C1646 C 0.87286 0.28897 0.85985 0.0
C1647 C 0.88909 0.31068 0.85695 0.0
H1648 H 0.9123 0.63769 0.09093 0.0
H1649 H 0.91758 0.64975 0.18381 0.0
H1650 H 0.95889 0.62743 0.18491 0.0
H1651 H 0.99211 0.6013 0.16044 0.0
H1652 H 0.98923 0.59089 0.06777 0.0
H1653 H 0.9489 0.61625 0.06537 0.0
C1654 C 0.92265 0.63585 0.11134 0.0
C1655 C 0.91116 0.64476 0.13739 0.0
C1656 C 0.94696 0.62332 0.11183 0.0
C1657 C 0.92518 0.64224 0.16354 0.0
C1658 C 0.94906 0.62967 0.16422 0.0
C1659 C 0.98284 0.60518 0.13972 0.0
C1660 C 0.99343 0.5945 0.11432 0.0
C1661 C 0.95984 0.61963 0.13867 0.0
C1662 C 0.98142 0.5993 0.08749 0.0
C1663 C 0.9583 0.61356 0.08622 0.0
H1664 H 0.71259 0.71787 0.37866 0.0
H1665 H 0.64724 0.7661 0.35775 0.0
H1666 H 0.6195 0.72741 0.35405 0.0
H1667 H 0.61327 0.67989 0.36222 0.0
H1668 H 0.67928 0.63323 0.38563 0.0
H1669 H 0.70738 0.67117 0.38302 0.0
C1670 C 0.69227 0.71992 0.3732 0.0
C1671 C 0.68183 0.74479 0.36901 0.0
C1672 C 0.67658 0.69781 0.37179 0.0
C1673 C 0.65567 0.74713 0.36112 0.0
C1674 C 0.63982 0.72503 0.35923 0.0
C1675 C 0.63388 0.6781 0.36622 0.0
C1676 C 0.64425 0.65389 0.3743 0.0
C1677 C 0.64993 0.70027 0.36528 0.0
C1678 C 0.67092 0.65172 0.37961 0.0
C1679 C 0.68697 0.67339 0.37814 0.0
H1680 H 0.60957 0.37159 0.60598 0.0
H1681 H 0.64019 0.41419 0.67939 0.0
H1682 H 0.60027 0.43842 0.6832 0.0
H1683 H 0.55732 0.44812 0.66612 0.0
H1684 H 0.527 0.41064 0.58944 0.0
H1685 H 0.5659 0.38337 0.58698 0.0
C1686 C 0.60764 0.38634 0.62261 0.0
C1687 C 0.62795 0.39055 0.64271 0.0
C1688 C 0.5846 0.40102 0.62429 0.0
C1689 C 0.62482 0.40977 0.66416 0.0
C1690 C 0.60199 0.42389 0.66627 0.0
C1691 C 0.55918 0.4344 0.64843 0.0
C1692 C 0.53928 0.43194 0.62767 0.0
C1693 C 0.58183 0.41969 0.64651 0.0
C1694 C 0.54189 0.41305 0.60577 0.0
C1695 C 0.56427 0.3976 0.60422 0.0
H1696 H 0.11411 0.35828 0.35798 0.0
H1697 H 0.18293 0.40331 0.37487 0.0
H1698 H 0.20926 0.36416 0.37339 0.0
H1699 H 0.21218 0.31696 0.37289 0.0
H1700 H 0.14421 0.27076 0.35735 0.0
H1701 H 0.11808 0.31038 0.35199 0.0
C1702 C 0.13493 0.35949 0.36071 0.0
C1703 C 0.14654 0.38362 0.36693 0.0
C1704 C 0.15003 0.33668 0.36026 0.0
C1705 C 0.17353 0.38493 0.3705 0.0
C1706 C 0.1886 0.36256 0.36965 0.0
C1707 C 0.19168 0.31564 0.36797 0.0
C1708 C 0.17998 0.29112 0.36589 0.0
C1709 C 0.17696 0.33832 0.36547 0.0
C1710 C 0.15355 0.2895 0.35899 0.0
C1711 C 0.13865 0.31213 0.35619 0.0
H1712 H 0.45412 0.46442 0.12536 0.0
H1713 H 0.50627 0.40031 0.11322 0.0
H1714 H 0.46915 0.37046 0.1096 0.0
H1715 H 0.42164 0.36238 0.11566 0.0
H1716 H 0.37103 0.42742 0.13098 0.0
H1717 H 0.40766 0.45714 0.12787 0.0
C1718 C 0.45738 0.44391 0.12178 0.0
C1719 C 0.48289 0.4345 0.12005 0.0
C1720 C 0.43614 0.42703 0.12065 0.0
C1721 C 0.48681 0.408 0.11461 0.0
C1722 C 0.46559 0.39096 0.11283 0.0
C1723 C 0.41873 0.3831 0.11786 0.0
C1724 C 0.39372 0.39274 0.12379 0.0
C1725 C 0.44014 0.40017 0.11666 0.0
C1726 C 0.39012 0.41958 0.12671 0.0
C1727 C 0.41104 0.43657 0.1249 0.0
H1728 H 0.32044 0.70782 0.87481 0.0
H1729 H 0.38469 0.75884 0.85804 0.0
H1730 H 0.41377 0.72122 0.85366 0.0
H1731 H 0.42132 0.67369 0.86008 0.0
H1732 H 0.35606 0.62404 0.87856 0.0
H1733 H 0.32697 0.66113 0.87688 0.0
C1734 C 0.3408 0.71068 0.87 0.0
C1735 C 0.35053 0.736 0.86719 0.0
C1736 C 0.35722 0.68915 0.86811 0.0
C1737 C 0.3768 0.73948 0.86028 0.0
C1738 C 0.3934 0.71799 0.85802 0.0
C1739 C 0.40067 0.67105 0.86324 0.0
C1740 C 0.39087 0.6462 0.86983 0.0
C1741 C 0.38394 0.69271 0.86267 0.0
C1742 C 0.36409 0.64301 0.8739 0.0
C1743 C 0.34744 0.6642 0.87291 0.0
H1744 H 0.12831 0.62213 0.58903 0.0
H1745 H 0.10664 0.69079 0.63641 0.0
H1746 H 0.06141 0.67652 0.63725 0.0
H1747 H 0.02946 0.6416 0.63032 0.0
H1748 H 0.05033 0.57326 0.58233 0.0
H1749 H 0.09436 0.59026 0.57519 0.0
C1750 C 0.11347 0.63415 0.59885 0.0
C1751 C 0.12053 0.65738 0.6127 0.0
C1752 C 0.08751 0.62578 0.59918 0.0
C1753 C 0.1014 0.67289 0.62555 0.0
C1754 C 0.07565 0.66468 0.62614 0.0
C1755 C 0.04352 0.63096 0.6175 0.0
C1756 C 0.03693 0.60638 0.60675 0.0
C1757 C 0.06865 0.64081 0.61382 0.0
C1758 C 0.0551 0.5924 0.59039 0.0
C1759 C 0.08027 0.602 0.58666 0.0
H1760 H 0.16989 0.64279 0.14908 0.0
H1761 H 0.09232 0.66967 0.1316 0.0
H1762 H 0.10671 0.71449 0.13543 0.0
H1763 H 0.14252 0.74601 0.13661 0.0
H1764 H 0.21985 0.71999 0.15435 0.0
H1765 H 0.20452 0.67501 0.15833 0.0
C1766 C 0.15602 0.65843 0.14685 0.0
C1767 C 0.13019 0.65281 0.13928 0.0
C1768 C 0.16446 0.68437 0.14908 0.0
C1769 C 0.11248 0.67341 0.13657 0.0
C1770 C 0.12065 0.6991 0.13888 0.0
C1771 C 0.15568 0.73049 0.14243 0.0
C1772 C 0.18209 0.73603 0.14556 0.0
C1773 C 0.14674 0.70481 0.14408 0.0
C1774 C 0.19934 0.71596 0.15242 0.0
C1775 C 0.1906 0.6903 0.15432 0.0
H1776 H 0.06909 0.46031 0.87809 0.0
H1777 H 0.02136 0.3925 0.88796 0.0
H1778 H 0.06032 0.36505 0.88974 0.0
H1779 H 0.10811 0.36045 0.88417 0.0
H1780 H 0.15482 0.42928 0.87379 0.0
H1781 H 0.11622 0.45623 0.87648 0.0
C1782 C 0.06729 0.43952 0.88098 0.0
C1783 C 0.04248 0.42834 0.88267 0.0
C1784 C 0.08961 0.42408 0.88156 0.0
C1785 C 0.04029 0.40148 0.8868 0.0
C1786 C 0.06255 0.38584 0.8875 0.0
C1787 C 0.10978 0.38135 0.88261 0.0
C1788 C 0.13441 0.39278 0.87871 0.0
C1789 C 0.08733 0.39689 0.88416 0.0
C1790 C 0.13625 0.41994 0.87708 0.0
C1791 C 0.11414 0.4354 0.87847 0.0
H1792 H 0.37952 0.37327 0.6656 0.0
H1793 H 0.43619 0.35424 0.60009 0.0
H1794 H 0.42042 0.3097 0.59846 0.0
H1795 H 0.38702 0.27797 0.61066 0.0
H1796 H 0.32893 0.29617 0.67454 0.0
H1797 H 0.3489 0.33891 0.68247 0.0
C1798 C 0.38872 0.35913 0.65155 0.0
C1799 C 0.4088 0.367 0.63276 0.0
C1800 C 0.37914 0.3335 0.6503 0.0
C1801 C 0.42055 0.34861 0.61451 0.0
C1802 C 0.41152 0.32318 0.61354 0.0
C1803 C 0.37907 0.29117 0.62671 0.0
C1804 C 0.35646 0.28418 0.64177 0.0
C1805 C 0.39029 0.31568 0.63055 0.0
C1806 C 0.34641 0.30118 0.66279 0.0
C1807 C 0.35769 0.32568 0.66707 0.0
H1808 H 0.42162 0.66806 0.39107 0.0
H1809 H 0.37708 0.59726 0.3876 0.0
H1810 H 0.41659 0.57185 0.39221 0.0
H1811 H 0.46393 0.56954 0.39171 0.0
H1812 H 0.5093 0.63946 0.39401 0.0
H1813 H 0.46944 0.66555 0.39586 0.0
C1814 C 0.42059 0.64707 0.39156 0.0
C1815 C 0.39638 0.63461 0.38879 0.0
C1816 C 0.44354 0.63247 0.39396 0.0
C1817 C 0.39534 0.6074 0.38992 0.0
C1818 C 0.41797 0.59281 0.39236 0.0
C1819 C 0.46499 0.5905 0.39314 0.0
C1820 C 0.48933 0.6027 0.39248 0.0
C1821 C 0.44215 0.60513 0.39366 0.0
C1822 C 0.4907 0.62978 0.39465 0.0
C1823 C 0.46794 0.6446 0.39539 0.0
H1824 H 0.29987 0.36752 0.03335 0.0
H1825 H 0.23651 0.32944 0.0772 0.0
H1826 H 0.21546 0.32098 0.03066 0.0
H1827 H 0.21598 0.32249 0.97752 0.0
H1828 H 0.28048 0.35803 0.93304 0.0
H1829 H 0.30015 0.36935 0.97964 0.0
C1830 C 0.28129 0.3577 0.03262 0.0
C1831 C 0.26969 0.34917 0.05855 0.0
C1832 C 0.26963 0.35221 0.00567 0.0
C1833 C 0.24583 0.33611 0.05743 0.0
C1834 C 0.23379 0.33123 0.03086 0.0
C1835 C 0.23429 0.3328 0.97799 0.0
C1836 C 0.24671 0.33941 0.95183 0.0
C1837 C 0.24569 0.33885 0.00483 0.0
C1838 C 0.27051 0.35265 0.95286 0.0
C1839 C 0.28177 0.35918 0.97952 0.0
H1840 H 0.91015 0.9789 0.22623 0.0
H1841 H 0.95808 0.03697 0.18517 0.0
H1842 H 0.9665 0.057 0.23214 0.0
H1843 H 0.96093 0.0579 0.28466 0.0
H1844 H 0.91447 0.99949 0.32706 0.0
H1845 H 0.90496 0.97959 0.27986 0.0
C1846 C 0.92227 0.99603 0.22765 0.0
C1847 C 0.93343 1.00645 0.20229 0.0
C1848 C 0.92747 1.00727 0.25493 0.0
C1849 C 0.94935 0.02849 0.20439 0.0
C1850 C 0.95419 0.03999 0.23123 0.0
C1851 C 0.9487 0.04082 0.28364 0.0
C1852 C 0.93841 0.03022 0.30929 0.0
C1853 C 0.94349 0.02947 0.25661 0.0
C1854 C 0.92276 1.00795 0.3076 0.0
C1855 C 0.91723 0.99663 0.28061 0.0
H1856 H 0.22621 0.66133 0.52998 0.0
H1857 H 0.28254 0.71049 0.57217 0.0
H1858 H 0.30283 0.71962 0.52533 0.0
H1859 H 0.30479 0.71356 0.47262 0.0
H1860 H 0.24787 0.66563 0.42976 0.0
H1861 H 0.22748 0.65621 0.47667 0.0
C1862 C 0.24299 0.67395 0.52891 0.0
C1863 C 0.25295 0.68507 0.55454 0.0
C1864 C 0.25438 0.67942 0.50182 0.0
C1865 C 0.27449 0.70167 0.55278 0.0
C1866 C 0.28613 0.7069 0.52601 0.0
C1867 C 0.28791 0.70105 0.4735 0.0
C1868 C 0.27791 0.69025 0.44777 0.0
C1869 C 0.27625 0.69588 0.50043 0.0
C1870 C 0.25588 0.67428 0.44925 0.0
C1871 C 0.24429 0.66881 0.47608 0.0
H1872 H 0.63839 0.99546 0.7926 0.0
H1873 H 0.55543 1.00226 0.801 0.0
H1874 H 0.55197 1.0136 0.74961 0.0
H1875 H 0.57243 0.02177 0.70233 0.0
H1876 H 0.65554 0.01683 0.69422 0.0
H1877 H 0.65894 1.00422 0.7453 0.0
C1878 C 0.61954 0.99937 0.78318 0.0
C1879 C 0.5972 0.99799 0.80068 0.0
C1880 C 0.6177 1.00613 0.75362 0.0
C1881 C 0.57296 1.00332 0.78813 0.0
C1882 C 0.57094 1.00972 0.75868 0.0
C1883 C 0.5913 0.01798 0.71168 0.0
C1884 C 0.61369 0.02042 0.69444 0.0
C1885 C 0.59317 1.01121 0.74123 0.0
C1886 C 0.63798 0.01528 0.707 0.0
C1887 C 0.63995 1.00806 0.73623 0.0
H1888 H 0.78377 0.71129 0.05443 0.0
H1889 H 0.78244 0.62794 0.06235 0.0
H1890 H 0.76624 0.62405 0.01276 0.0
H1891 H 0.75295 0.64408 0.96684 0.0
H1892 H 0.75577 0.72726 0.9577 0.0
H1893 H 0.77091 0.73143 0.00787 0.0
C1894 C 0.77982 0.69232 0.04531 0.0
C1895 C 0.78431 0.66997 0.0621 0.0
C1896 C 0.77085 0.69015 0.01648 0.0
C1897 C 0.77932 0.64548 0.04988 0.0
C1898 C 0.76999 0.6432 0.0215 0.0
C1899 C 0.75677 0.66314 0.97584 0.0
C1900 C 0.75316 0.68531 0.95855 0.0
C1901 C 0.76577 0.66538 0.00457 0.0
C1902 C 0.75848 0.70985 0.97048 0.0
C1903 C 0.76709 0.71226 0.99922 0.0
H1904 H 0.13745 0.0292 0.79151 0.0
H1905 H 0.05446 0.02973 0.80228 0.0
H1906 H 0.04881 0.01527 0.75217 0.0
H1907 H 0.06748 1.00148 0.70544 0.0
H1908 H 0.15057 0.99949 0.69546 0.0
H1909 H 0.15608 0.0156 0.74488 0.0
C1910 C 0.11814 0.0263 0.78282 0.0
C1911 C 0.09644 0.03049 0.80061 0.0
C1912 C 0.11501 0.01767 0.75407 0.0
C1913 C 0.07152 0.02644 0.78913 0.0
C1914 C 0.06825 0.01824 0.76042 0.0
C1915 C 0.08676 1.00472 0.71405 0.0
C1916 C 0.10853 0.99928 0.69681 0.0
C1917 C 0.08986 1.01364 0.74273 0.0
C1918 C 0.13344 1.00338 0.70834 0.0
C1919 C 0.13665 1.01265 0.7366 0.0
H1920 H 0.75312 0.32293 0.55204 0.0
H1921 H 0.75642 0.40586 0.5639 0.0
H1922 H 0.77202 0.4112 0.51411 0.0
H1923 H 0.78427 0.39234 0.46686 0.0
H1924 H 0.77942 0.30952 0.45477 0.0
H1925 H 0.76481 0.30418 0.50487 0.0
C1926 C 0.75723 0.34218 0.54377 0.0
C1927 C 0.75352 0.36394 0.56169 0.0
C1928 C 0.7659 0.34516 0.515 0.0
C1929 C 0.75893 0.38876 0.55054 0.0
C1930 C 0.76793 0.39185 0.52206 0.0
C1931 C 0.78013 0.37313 0.47526 0.0
C1932 C 0.78295 0.35138 0.4571 0.0
C1933 C 0.77142 0.37019 0.50406 0.0
C1934 C 0.77726 0.32662 0.46821 0.0
C1935 C 0.76896 0.32352 0.4969 0.0
H1936 H 0.45803 0.99887 0.30197 0.0
H1937 H 0.37474 0.99339 0.30641 0.0
H1938 H 0.37128 1.00976 0.25674 0.0
H1939 H 0.39186 0.02578 0.21199 0.0
H1940 H 0.47517 0.02974 0.20682 0.0
H1941 H 0.47867 1.01382 0.25672 0.0
C1942 C 0.43914 1.00129 0.29208 0.0
C1943 C 0.4167 0.99497 0.30792 0.0
C1944 C 0.43728 1.01045 0.26334 0.0
C1945 C 0.39235 0.99799 0.29468 0.0
C1946 C 0.39033 1.00743 0.26628 0.0
C1947 C 0.41077 0.02325 0.22183 0.0
C1948 C 0.43321 0.02905 0.20576 0.0
C1949 C 0.41265 1.01376 0.25042 0.0
C1950 C 0.45759 0.02534 0.21868 0.0
C1951 C 0.45962 0.01629 0.24725 0.0
H1952 H 0.78117 0.89167 0.54194 0.0
H1953 H 0.76248 0.81086 0.55438 0.0
H1954 H 0.75133 0.8068 0.50311 0.0
H1955 H 0.74621 0.82629 0.45445 0.0
H1956 H 0.76239 0.90763 0.44271 0.0
H1957 H 0.77533 0.91131 0.49367 0.0
C1958 C 0.77464 0.87316 0.53349 0.0
C1959 C 0.77289 0.85158 0.55214 0.0
C1960 C 0.7679 0.871 0.50392 0.0
C1961 C 0.76421 0.82781 0.54068 0.0
C1962 C 0.75781 0.82543 0.51125 0.0
C1963 C 0.75287 0.84471 0.46303 0.0
C1964 C 0.75355 0.86659 0.44483 0.0
C1965 C 0.75962 0.84686 0.49262 0.0
C1966 C 0.76172 0.89049 0.45632 0.0
C1967 C 0.76908 0.89263 0.48547 0.0
H1968 H 0.39307 0.53024 0.79211 0.0
H1969 H 0.47632 0.52781 0.7992 0.0
H1970 H 0.47962 0.51407 0.74841 0.0
H1971 H 0.4587 0.50217 0.70195 0.0
H1972 H 0.3753 0.50265 0.69618 0.0
H1973 H 0.37226 0.5179 0.74628 0.0
C1974 C 0.41195 0.52681 0.78253 0.0
C1975 C 0.43441 0.53012 0.79943 0.0
C1976 C 0.41369 0.5186 0.75346 0.0
C1977 C 0.45871 0.5253 0.78673 0.0
C1978 C 0.46062 0.51752 0.75764 0.0
C1979 C 0.4399 0.5058 0.71164 0.0
C1980 C 0.41728 0.5014 0.6953 0.0
C1981 C 0.43823 0.51406 0.74078 0.0
C1982 C 0.39303 0.50585 0.70827 0.0
C1983 C 0.39124 0.51458 0.73694 0.0
H1984 H 0.74857 0.14559 0.04664 0.0
H1985 H 0.74988 0.22897 0.05385 0.0
H1986 H 0.76407 0.23256 1.00329 0.0
H1987 H 0.77658 0.21197 0.95705 0.0
H1988 H 0.77692 0.12851 0.9507 0.0
H1989 H 0.76158 0.12503 1.00075 0.0
C1990 C 0.75184 0.16455 0.0371 0.0
C1991 C 0.74811 0.18697 0.05396 0.0
C1992 C 0.76034 0.16647 0.00814 0.0
C1993 C 0.75272 0.21139 0.04138 0.0
C1994 C 0.76078 0.21347 0.01244 0.0
C1995 C 0.77318 0.19305 0.96661 0.0
C1996 C 0.77785 0.17056 0.95016 0.0
C1997 C 0.76471 0.19115 0.99562 0.0
C1998 C 0.7736 0.14615 0.96292 0.0
C1999 C 0.76477 0.14412 0.99155 0.0
H2000 H 0.12215 0.48225 0.28288 0.0
H2001 H 0.06885 0.53586 0.32294 0.0
H2002 H 0.05848 0.55417 0.2754 0.0
H2003 H 0.06415 0.5548 0.22253 0.0
H2004 H 0.11609 0.50029 0.18177 0.0
H2005 H 0.12722 0.48236 0.22943 0.0
C2006 C 0.10843 0.49808 0.28119 0.0
C2007 C 0.09643 0.50779 0.30644 0.0
C2008 C 0.10214 0.50821 0.25365 0.0
C2009 C 0.07838 0.52803 0.30386 0.0
C2010 C 0.07241 0.53851 0.27668 0.0
C2011 C 0.0779 0.53898 0.22402 0.0
C2012 C 0.08928 0.52894 0.19859 0.0
C2013 C 0.08408 0.52869 0.25143 0.0
C2014 C 0.10693 0.50831 0.20096 0.0
C2015 C 0.11339 0.49812 0.22824 0.0
H2016 H 0.27164 0.13528 0.54349 0.0
H2017 H 0.27779 0.21836 0.55262 0.0
H2018 H 0.2624 0.22421 0.50299 0.0
H2019 H 0.24693 0.20588 0.45691 0.0
H2020 H 0.23892 0.12296 0.4483 0.0
H2021 H 0.25513 0.11698 0.49771 0.0
C2022 C 0.26974 0.15465 0.53456 0.0
C2023 C 0.27615 0.1763 0.55169 0.0
C2024 C 0.2604 0.15796 0.50609 0.0
C2025 C 0.27319 0.2013 0.53991 0.0
C2026 C 0.26433 0.20471 0.5115 0.0
C2027 C 0.24875 0.18651 0.46585 0.0
C2028 C 0.24175 0.16494 0.44894 0.0
C2029 C 0.25785 0.18319 0.49439 0.0
C2030 C 0.24403 0.13995 0.46091 0.0
C2031 C 0.2534 0.13648 0.48915 0.0
H2032 H 0.56965 0.53257 0.30543 0.0
H2033 H 0.65285 0.52886 0.31312 0.0
H2034 H 0.65625 0.51395 0.26294 0.0
H2035 H 0.63584 0.50268 0.21656 0.0
H2036 H 0.55284 0.508 0.20775 0.0
H2037 H 0.54915 0.52165 0.2585 0.0
C2038 C 0.58848 0.52831 0.29615 0.0
C2039 C 0.61093 0.53172 0.31303 0.0
C2040 C 0.59037 0.52018 0.267 0.0
C2041 C 0.63524 0.52646 0.30059 0.0
C2042 C 0.63724 0.51791 0.27188 0.0
C2043 C 0.61692 0.50674 0.22575 0.0
C2044 C 0.59466 0.50427 0.20838 0.0
C2045 C 0.61496 0.51484 0.25483 0.0
C2046 C 0.57032 0.50986 0.22058 0.0
C2047 C 0.56818 0.51759 0.24965 0.0
H2048 H 0.27835 0.81609 0.95613 0.0
H2049 H 0.27039 0.89847 0.94241 0.0
H2050 H 0.2572 0.90431 0.9928 0.0
H2051 H 0.24876 0.88647 0.04098 0.0
H2052 H 0.25816 0.80447 0.05619 0.0
H2053 H 0.27012 0.7981 0.00522 0.0
C2054 C 0.27349 0.83523 0.96418 0.0
C2055 C 0.27523 0.85677 0.94554 0.0
C2056 C 0.2664 0.8386 0.99352 0.0
C2057 C 0.26924 0.88155 0.95632 0.0
C2058 C 0.26171 0.88495 0.98516 0.0
C2059 C 0.2534 0.86718 0.03321 0.0
C2060 C 0.25244 0.846 0.05239 0.0
C2061 C 0.26042 0.86368 0.00401 0.0
C2062 C 0.2587 0.82116 0.04191 0.0
C2063 C 0.2655 0.81747 0.01272 0.0
H2064 H 0.89174 0.52992 0.7124 0.0
H2065 H 0.9742 0.52356 0.69889 0.0
H2066 H 0.98 0.5109 0.74977 0.0
H2067 H 0.96139 0.50111 0.79816 0.0
H2068 H 0.87867 0.50645 0.81028 0.0
H2069 H 0.87333 0.52023 0.76 0.0
C2070 C 0.91102 0.52582 0.72052 0.0
C2071 C 0.93249 0.52777 0.70185 0.0
C2072 C 0.9142 0.51843 0.74965 0.0
C2073 C 0.9573 0.52221 0.71278 0.0
C2074 C 0.96066 0.51501 0.7419 0.0
C2075 C 0.94226 0.50551 0.7898 0.0
C2076 C 0.92049 0.5028 0.80794 0.0
C2077 C 0.93922 0.51306 0.76057 0.0
C2078 C 0.89576 0.50828 0.79675 0.0
C2079 C 0.89265 0.51617 0.76798 0.0
H2080 H 0.24073 0.41555 0.11005 0.0
H2081 H 0.21092 0.4138 0.19765 0.0
H2082 H 0.17945 0.4474 0.18538 0.0
H2083 H 0.16084 0.47837 0.14997 0.0
H2084 H 0.19152 0.48094 0.06277 0.0
H2085 H 0.22187 0.4462 0.07455 0.0
C2086 C 0.22719 0.42234 0.12637 0.0
C2087 C 0.22835 0.41205 0.1548 0.0
C2088 C 0.20923 0.44203 0.11923 0.0
C2089 C 0.21078 0.42146 0.17573 0.0
C2090 C 0.19264 0.44067 0.16867 0.0
C2091 C 0.174 0.47117 0.13348 0.0
C2092 C 0.17381 0.48243 0.10547 0.0
C2093 C 0.19176 0.45127 0.14054 0.0
C2094 C 0.19134 0.47297 0.08455 0.0
C2095 C 0.20869 0.45296 0.09126 0.0
H2096 H 0.86636 0.98641 0.35735 0.0
H2097 H 0.84179 0.97973 0.44667 0.0
H2098 H 0.81075 0.94597 0.43314 0.0
H2099 H 0.78973 0.919 0.39568 0.0
H2100 H 0.81271 0.92696 0.30599 0.0
H2101 H 0.84517 0.95937 0.31975 0.0
C2102 C 0.85437 0.97738 0.37386 0.0
C2103 C 0.85646 0.98559 0.40304 0.0
C2104 C 0.8362 0.95822 0.36579 0.0
C2105 C 0.84044 0.97396 0.42408 0.0
C2106 C 0.82274 0.95457 0.41635 0.0
C2107 C 0.80205 0.92763 0.37921 0.0
C2108 C 0.79886 0.92043 0.34983 0.0
C2109 C 0.82034 0.94663 0.38725 0.0
C2110 C 0.81465 0.93221 0.32868 0.0
C2111 C 0.83326 0.95072 0.33658 0.0
H2112 H 0.3097 0.59825 0.67474 0.0
H2113 H 0.27292 0.60955 0.59164 0.0
H2114 H 0.30249 0.57833 0.56918 0.0
H2115 H 0.33897 0.54739 0.57323 0.0
H2116 H 0.37743 0.5384 0.65577 0.0
H2117 H 0.34739 0.5689 0.6783 0.0
C2118 C 0.30815 0.59373 0.65177 0.0
C2119 C 0.28904 0.60606 0.63492 0.0
C2120 C 0.32566 0.57617 0.63885 0.0
C2121 C 0.28752 0.60038 0.60503 0.0
C2122 C 0.30439 0.58248 0.5922 0.0
C2123 C 0.34072 0.55219 0.59611 0.0
C2124 C 0.36044 0.54059 0.61276 0.0
C2125 C 0.32357 0.57021 0.60887 0.0
C2126 C 0.36262 0.54719 0.64238 0.0
C2127 C 0.34533 0.56456 0.65534 0.0
H2128 H 0.67157 0.0653 0.92665 0.0
H2129 H 0.65175 0.03824 0.84071 0.0
H2130 H 0.68305 0.06816 0.81929 0.0
H2131 H 0.71681 0.10179 0.82489 0.0
H2132 H 0.73639 0.12876 0.91094 0.0
H2133 H 0.70468 0.09932 0.9322 0.0
C2134 C 0.67416 0.06588 0.90326 0.0
C2135 C 0.65921 0.0495 0.88541 0.0
C2136 C 0.69224 0.08323 0.891 0.0
C2137 C 0.66267 0.05082 0.85504 0.0
C2138 C 0.68073 0.06784 0.84273 0.0
C2139 C 0.71416 0.10116 0.84827 0.0
C2140 C 0.72897 0.11764 0.86619 0.0
C2141 C 0.69572 0.08411 0.86047 0.0
C2142 C 0.72505 0.11668 0.89651 0.0
C2143 C 0.70699 0.09968 0.90876 0.0
H2144 H 0.16747 0.53984 0.35667 0.0
H2145 H 0.16657 0.56871 0.44468 0.0
H2146 H 0.19918 0.60116 0.43213 0.0
H2147 H 0.22928 0.62063 0.39653 0.0
H2148 H 0.23102 0.59117 0.30878 0.0
H2149 H 0.19704 0.55994 0.32074 0.0
C2150 C 0.17421 0.55341 0.373 0.0
C2151 C 0.16452 0.55167 0.40164 0.0
C2152 C 0.19335 0.57194 0.36569 0.0
C2153 C 0.17382 0.5693 0.42258 0.0
C2154 C 0.19246 0.58798 0.41539 0.0
C2155 C 0.22204 0.60759 0.37994 0.0
C2156 C 0.23286 0.60834 0.35175 0.0
C2157 C 0.20257 0.58938 0.38708 0.0
C2158 C 0.22338 0.59092 0.3307 0.0
C2159 C 0.2038 0.57307 0.33751 0.0
H2160 H 0.6525 0.9739 0.64437 0.0
H2161 H 0.66931 0.96264 0.55334 0.0
H2162 H 0.70176 0.93001 0.56564 0.0
H2163 H 0.72692 0.90592 0.6024 0.0
H2164 H 0.71 0.91728 0.69345 0.0
H2165 H 0.67627 0.9484 0.68102 0.0
C2166 C 0.66293 0.96402 0.62719 0.0
C2167 C 0.65836 0.97085 0.59791 0.0
C2168 C 0.68183 0.94534 0.63445 0.0
C2169 C 0.67252 0.95805 0.57603 0.0
C2170 C 0.69109 0.93929 0.58306 0.0
C2171 C 0.71565 0.91491 0.61954 0.0
C2172 C 0.72129 0.9092 0.64889 0.0
C2173 C 0.69616 0.93297 0.61222 0.0
C2174 C 0.70654 0.92145 0.67072 0.0
C2175 C 0.68706 0.93922 0.66361 0.0
H2176 H 0.35947 0.46245 0.92432 0.0
H2177 H 0.377 0.4922 0.83887 0.0
H2178 H 0.34483 0.46314 0.81745 0.0
H2179 H 0.31091 0.42933 0.82294 0.0
H2180 H 0.29429 0.39918 0.90839 0.0
H2181 H 0.32653 0.42811 0.92967 0.0
C2182 C 0.35623 0.46264 0.90103 0.0
C2183 C 0.37079 0.47961 0.88334 0.0
C2184 C 0.3377 0.44569 0.88875 0.0
C2185 C 0.36642 0.47922 0.85308 0.0
C2186 C 0.34783 0.46267 0.84078 0.0
C2187 C 0.31433 0.42918 0.8462 0.0
C2188 C 0.30017 0.41192 0.86396 0.0
C2189 C 0.33324 0.44584 0.85838 0.0
C2190 C 0.30509 0.41187 0.89409 0.0
C2191 C 0.32348 0.42858 0.90634 0.0
H2192 H 0.85334 0.06708 0.07675 0.0
H2193 H 0.87514 0.04261 0.16313 0.0
H2194 H 0.8458 0.07439 0.18425 0.0
H2195 H 0.81337 0.10896 0.1786 0.0
H2196 H 0.7908 0.13311 0.09238 0.0
H2197 H 0.82086 0.10196 0.0711 0.0
C2198 C 0.85162 0.06857 0.10018 0.0
C2199 C 0.86673 0.05232 0.11817 0.0
C2200 C 0.83449 0.08702 0.11238 0.0
C2201 C 0.86424 0.05495 0.14857 0.0
C2202 C 0.84725 0.0731 0.16076 0.0
C2203 C 0.81487 0.1074 0.15515 0.0
C2204 C 0.79967 0.12363 0.13728 0.0
C2205 C 0.83221 0.08923 0.14293 0.0
C2206 C 0.80237 0.12132 0.10686 0.0
C2207 C 0.8195 0.10329 0.09459 0.0
H2208 H 0.85561 0.56336 0.93484 0.0
H2209 H 0.88357 0.54544 0.84871 0.0
H2210 H 0.85412 0.5772 0.82779 0.0
H2211 H 0.81956 0.60972 0.83348 0.0
H2212 H 0.79167 0.62828 0.91942 0.0
H2213 H 0.82175 0.59702 0.94065 0.0
C2214 C 0.85526 0.56641 0.91152 0.0
C2215 C 0.87203 0.55192 0.89352 0.0
C2216 C 0.83817 0.58497 0.89946 0.0
C2217 C 0.87132 0.55643 0.86328 0.0
C2218 C 0.85428 0.57455 0.85119 0.0
C2219 C 0.82 0.60691 0.85684 0.0
C2220 C 0.80323 0.62147 0.87472 0.0
C2221 C 0.8375 0.58888 0.869 0.0
C2222 C 0.80445 0.61768 0.90505 0.0
C2223 C 0.8216 0.59962 0.91725 0.0
H2224 H 0.17194 0.06083 0.57216 0.0
H2225 H 0.14509 0.03982 0.65783 0.0
H2226 H 0.17394 0.07173 0.67965 0.0
H2227 H 0.2079 0.10501 0.67483 0.0
H2228 H 0.23432 0.1272 0.58941 0.0
H2229 H 0.20465 0.09595 0.56723 0.0
C2230 C 0.17241 0.0633 0.59557 0.0
C2231 C 0.15623 0.04784 0.61324 0.0
C2232 C 0.18903 0.08206 0.60812 0.0
C2233 C 0.15699 0.05155 0.6436 0.0
C2234 C 0.17365 0.06976 0.65616 0.0
C2235 C 0.20713 0.10304 0.65136 0.0
C2236 C 0.22344 0.1185 0.63391 0.0
C2237 C 0.18988 0.08505 0.6387 0.0
C2238 C 0.22187 0.11585 0.60345 0.0
C2239 C 0.20499 0.09779 0.59072 0.0
H2240 H 0.68127 0.47422 0.43731 0.0
H2241 H 0.64991 0.49122 0.35249 0.0
H2242 H 0.67962 0.4604 0.33025 0.0
H2243 H 0.71524 0.42881 0.33449 0.0
H2244 H 0.74617 0.41093 0.41924 0.0
H2245 H 0.71615 0.44156 0.44171 0.0
C2246 C 0.68096 0.47116 0.41398 0.0
C2247 C 0.66321 0.48509 0.39672 0.0
C2248 C 0.69814 0.45314 0.4012 0.0
C2249 C 0.663 0.48063 0.36648 0.0
C2250 C 0.68017 0.46306 0.35364 0.0
C2251 C 0.71547 0.43169 0.35784 0.0
C2252 C 0.73303 0.41753 0.37507 0.0
C2253 C 0.69792 0.44925 0.37072 0.0
C2254 C 0.73274 0.42131 0.40542 0.0
C2255 C 0.71563 0.43896 0.41831 0.0
H2256 H 0.35924 0.96496 0.07894 0.0
H2257 H 0.38103 0.98782 0.16584 0.0
H2258 H 0.35113 0.956 0.18624 0.0
H2259 H 0.31766 0.92238 0.17965 0.0
H2260 H 0.29568 0.89949 0.09284 0.0
H2261 H 0.32669 0.93025 0.07237 0.0
C2262 C 0.35743 0.96302 0.10233 0.0
C2263 C 0.37252 0.97892 0.12073 0.0
C2264 C 0.34009 0.94453 0.11404 0.0
C2265 C 0.37003 0.97576 0.15105 0.0
C2266 C 0.35275 0.95761 0.16279 0.0
C2267 C 0.31961 0.9241 0.15626 0.0
C2268 C 0.30418 0.90849 0.13793 0.0
C2269 C 0.33753 0.94199 0.14454 0.0
C2270 C 0.30739 0.91088 0.1076 0.0
C2271 C 0.32505 0.92868 0.09582 0.0
H2272 H 0.81543 0.42323 0.68389 0.0
H2273 H 0.79889 0.38954 0.60012 0.0
H2274 H 0.83017 0.4185 0.57711 0.0
H2275 H 0.86133 0.45479 0.58035 0.0
H2276 H 0.87903 0.48759 0.66428 0.0
H2277 H 0.84865 0.45773 0.68754 0.0
C2278 C 0.81882 0.42217 0.66065 0.0
C2279 C 0.80477 0.40416 0.64384 0.0
C2280 C 0.83714 0.43883 0.6475 0.0
C2281 C 0.80957 0.40293 0.6137 0.0
C2282 C 0.82739 0.41965 0.60045 0.0
C2283 C 0.85857 0.45531 0.60372 0.0
C2284 C 0.87247 0.47349 0.62047 0.0
C2285 C 0.84115 0.43786 0.61706 0.0
C2286 C 0.86886 0.47368 0.65084 0.0
C2287 C 0.85132 0.45668 0.66417 0.0
H2288 H 0.30847 0.09965 0.32729 0.0
H2289 H 0.28444 0.12471 0.41265 0.0
H2290 H 0.31497 0.0948 0.4351 0.0
H2291 H 0.34844 0.06093 0.43074 0.0
H2292 H 0.37237 0.03577 0.34538 0.0
H2293 H 0.34224 0.06607 0.32293 0.0
C2294 C 0.30986 0.0985 0.35078 0.0
C2295 C 0.29416 0.11461 0.36813 0.0
C2296 C 0.32758 0.08116 0.36368 0.0
C2297 C 0.29649 0.11295 0.39863 0.0
C2298 C 0.31387 0.09566 0.41156 0.0
C2299 C 0.347 0.06201 0.40725 0.0
C2300 C 0.36285 0.04607 0.38989 0.0
C2301 C 0.32952 0.07961 0.39434 0.0
C2302 C 0.36081 0.04801 0.35939 0.0
C2303 C 0.3434 0.06527 0.34646 0.0
H2304 H 0.71688 0.60536 0.18662 0.0
H2305 H 0.74096 0.62879 0.10064 0.0
H2306 H 0.70865 0.60031 0.07901 0.0
H2307 H 0.6738 0.56792 0.08409 0.0
H2308 H 0.64962 0.54414 0.16989 0.0
H2309 H 0.68132 0.57339 0.1917 0.0
C2310 C 0.71511 0.60422 0.16317 0.0
C2311 C 0.73147 0.61949 0.14544 0.0
C2312 C 0.69629 0.58763 0.15068 0.0
C2313 C 0.72854 0.61775 0.11501 0.0
C2314 C 0.71009 0.60124 0.10252 0.0
C2315 C 0.67547 0.56904 0.10755 0.0
C2316 C 0.65912 0.5537 0.12517 0.0
C2317 C 0.69389 0.58599 0.12008 0.0
C2318 C 0.66154 0.55584 0.15563 0.0
C2319 C 0.67988 0.57251 0.1682 0.0
H2320 H 0.17034 0.95897 0.92373 0.0
H2321 H 0.15356 0.99045 0.83891 0.0
H2322 H 0.18384 0.95999 0.81664 0.0
H2323 H 0.21607 0.92472 0.82122 0.0
H2324 H 0.23213 0.89298 0.90613 0.0
H2325 H 0.20142 0.9229 0.92813 0.0
C2326 C 0.17335 0.95922 0.90039 0.0
C2327 C 0.1596 0.9771 0.88312 0.0
C2328 C 0.19077 0.94145 0.88761 0.0
C2329 C 0.16358 0.9768 0.85279 0.0
C2330 C 0.18106 0.95942 0.84 0.0
C2331 C 0.21284 0.92435 0.84451 0.0
C2332 C 0.22654 0.90643 0.86185 0.0
C2333 C 0.19488 0.94169 0.85718 0.0
C2334 C 0.22178 0.90618 0.89205 0.0
C2335 C 0.20425 0.92348 0.90476 0.0
loop_
_geom_bond_atom_site_label_1
_geom_bond_atom_site_label_2
_geom_bond_distance
_geom_bond_site_symmetry_2
_ccdc_geom_bond_type
Co0 N4 2.148 . S
Co0 N10 2.128 . S
Co0 N20 2.194 . S
Co0 O25 2.351 . S
Co0 O26 2.155 . S
Co0 O27 2.096 . S
C1 N4 1.301 . S
C1 N5 1.328 . S
C1 H6 0.930 . S
C2 C3 1.333 . S
C2 N4 1.317 . S
C2 H7 0.930 . S
C3 C2 1.333 . S
C3 N5 1.350 . S
C3 H29 0.931 . S
N4 Co0 2.148 . S
N4 C1 1.301 . S
N4 C2 1.317 . S
N5 C1 1.328 . S
N5 C3 1.350 . S
H6 C1 0.930 . S
H7 C2 0.930 . S
C8 O9 1.224 . S
C8 O27 1.247 . S
O9 C8 1.224 . S
N10 Co0 2.128 . S
N10 C11 1.355 . S
N10 C13 1.311 . S
C11 N10 1.355 . S
C11 C12 1.363 . S
C11 H23 0.929 . S
C12 C11 1.363 . S
C12 N14 1.375 . S
C12 H30 0.931 . S
C13 N10 1.311 . S
C13 N14 1.347 . S
C13 H24 0.929 . S
N14 C12 1.375 . S
N14 C13 1.347 . S
C15 C18 1.365 . S
C15 N20 1.328 . S
C15 H21 0.929 . S
C16 C17 1.362 . S
C16 C19 1.378 . S
C16 H31 0.929 . S
C17 C16 1.362 . S
C17 C18 1.366 . S
C18 C15 1.365 . S
C18 C17 1.366 . S
C18 H32 0.930 . S
C19 C16 1.378 . S
C19 N20 1.315 . S
C19 H22 0.930 . S
N20 Co0 2.194 . S
N20 C15 1.328 . S
N20 C19 1.315 . S
H21 C15 0.929 . S
H22 C19 0.930 . S
H23 C11 0.929 . S
H24 C13 0.929 . S
O25 Co0 2.351 . S
O25 C28 1.244 . S
O26 Co0 2.155 . S
O26 C28 1.240 . S
O27 Co0 2.096 . S
O27 C8 1.247 . S
C28 O25 1.244 . S
C28 O26 1.240 . S
H29 C3 0.931 . S
H30 C12 0.931 . S
H31 C16 0.929 . S
H32 C18 0.930 . S
Co33 N37 2.148 . S
Co33 N43 2.128 . S
Co33 N53 2.194 . S
Co33 O58 2.351 . S
Co33 O59 2.155 . S
Co33 O60 2.096 . S
C34 N37 1.301 . S
C34 N38 1.328 1_655 S
C34 H39 0.930 . S
C35 C36 1.333 1_655 S
C35 N37 1.317 . S
C35 H40 0.930 . S
C36 C35 1.333 1_455 S
C36 N38 1.350 . S
C36 H62 0.931 . S
N37 Co33 2.148 . S
N37 C34 1.301 . S
N37 C35 1.317 . S
N38 C34 1.328 1_455 S
N38 C36 1.350 . S
H39 C34 0.930 . S
H40 C35 0.930 . S
C41 O42 1.224 . S
C41 O60 1.247 . S
O42 C41 1.224 . S
N43 Co33 2.128 . S
N43 C44 1.355 . S
N43 C46 1.296 1_545 S
C44 N43 1.355 . S
C44 C45 1.363 . S
C44 H56 0.929 . S
C45 C44 1.363 . S
C45 N47 1.375 1_545 S
C45 H63 0.931 . S
C46 N43 1.296 1_565 S
C46 N47 1.351 . S
C46 H57 0.939 . S
N47 C45 1.375 1_565 S
N47 C46 1.351 . S
C48 C51 1.365 . S
C48 N53 1.328 . S
C48 H54 0.929 . S
C49 C50 1.362 . S
C49 C52 1.378 . S
C49 H64 0.929 . S
C50 C49 1.362 . S
C50 C51 1.366 . S
C51 C48 1.365 . S
C51 C50 1.366 . S
C51 H65 0.930 . S
C52 C49 1.378 . S
C52 N53 1.315 . S
C52 H55 0.930 . S
N53 Co33 2.194 . S
N53 C48 1.328 . S
N53 C52 1.315 . S
H54 C48 0.929 . S
H55 C52 0.930 . S
H56 C44 0.929 . S
H57 C46 0.939 . S
O58 Co33 2.351 . S
O58 C61 1.244 . S
O59 Co33 2.155 . S
O59 C61 1.240 . S
O60 Co33 2.096 . S
O60 C41 1.247 . S
C61 O58 1.244 . S
C61 O59 1.240 . S
H62 C36 0.931 . S
H63 C45 0.931 . S
H64 C49 0.929 . S
H65 C51 0.930 . S
Co66 N70 2.148 . S
Co66 N76 2.128 . S
Co66 N86 2.194 . S
Co66 O91 2.351 . S
Co66 O92 2.155 . S
Co66 O93 2.096 . S
C67 N70 1.301 . S
C67 N71 1.328 . S
C67 H72 0.930 . S
C68 C69 1.333 . S
C68 N70 1.317 . S
C68 H73 0.930 . S
C69 C68 1.333 . S
C69 N71 1.350 . S
C69 H95 0.931 . S
N70 Co66 2.148 . S
N70 C67 1.301 . S
N70 C68 1.317 . S
N71 C67 1.328 . S
N71 C69 1.350 . S
H72 C67 0.930 . S
H73 C68 0.930 . S
C74 O75 1.224 . S
C74 O93 1.247 . S
O75 C74 1.224 . S
N76 Co66 2.128 . S
N76 C77 1.355 . S
N76 C79 1.311 . S
C77 N76 1.355 . S
C77 C78 1.363 . S
C77 H89 0.929 . S
C78 C77 1.363 . S
C78 N80 1.375 . S
C78 H96 0.931 . S
C79 N76 1.311 . S
C79 N80 1.347 . S
C79 H90 0.929 . S
N80 C78 1.375 . S
N80 C79 1.347 . S
C81 C84 1.365 . S
C81 N86 1.328 . S
C81 H87 0.929 . S
C82 C83 1.362 . S
C82 C85 1.378 . S
C82 H97 0.929 . S
C83 C82 1.362 . S
C83 C84 1.366 . S
C84 C81 1.365 . S
C84 C83 1.366 . S
C84 H98 0.930 . S
C85 C82 1.378 . S
C85 N86 1.315 . S
C85 H88 0.930 . S
N86 Co66 2.194 . S
N86 C81 1.328 . S
N86 C85 1.315 . S
H87 C81 0.929 . S
H88 C85 0.930 . S
H89 C77 0.929 . S
H90 C79 0.929 . S
O91 Co66 2.351 . S
O91 C94 1.244 . S
O92 Co66 2.155 . S
O92 C94 1.240 . S
O93 Co66 2.096 . S
O93 C74 1.247 . S
C94 O91 1.244 . S
C94 O92 1.240 . S
H95 C69 0.931 . S
H96 C78 0.931 . S
H97 C82 0.929 . S
H98 C84 0.930 . S
Co99 N103 2.148 . S
Co99 N109 2.128 . S
Co99 N119 2.194 . S
Co99 O124 2.351 . S
Co99 O125 2.155 . S
Co99 O126 2.096 . S
C100 N103 1.301 . S
C100 N104 1.328 . S
C100 H105 0.930 . S
C101 C102 1.333 . S
C101 N103 1.317 . S
C101 H106 0.930 . S
C102 C101 1.333 . S
C102 N104 1.350 . S
C102 H128 0.931 . S
N103 Co99 2.148 . S
N103 C100 1.301 . S
N103 C101 1.317 . S
N104 C100 1.328 . S
N104 C102 1.350 . S
H105 C100 0.930 . S
H106 C101 0.930 . S
C107 O108 1.224 . S
C107 O126 1.247 . S
O108 C107 1.224 . S
N109 Co99 2.128 . S
N109 C110 1.355 . S
N109 C112 1.296 1_565 S
C110 N109 1.355 . S
C110 C111 1.363 . S
C110 H122 0.929 . S
C111 C110 1.363 . S
C111 N113 1.375 1_565 S
C111 H129 0.931 . S
C112 N109 1.296 1_545 S
C112 N113 1.351 . S
C112 H123 0.939 . S
N113 C111 1.375 1_545 S
N113 C112 1.351 . S
C114 C117 1.365 . S
C114 N119 1.328 . S
C114 H120 0.929 . S
C115 C116 1.362 . S
C115 C118 1.378 . S
C115 H130 0.929 . S
C116 C115 1.362 . S
C116 C117 1.366 . S
C117 C114 1.365 . S
C117 C116 1.366 . S
C117 H131 0.930 . S
C118 C115 1.378 . S
C118 N119 1.315 . S
C118 H121 0.930 . S
N119 Co99 2.194 . S
N119 C114 1.328 . S
N119 C118 1.315 . S
H120 C114 0.929 . S
H121 C118 0.930 . S
H122 C110 0.929 . S
H123 C112 0.939 . S
O124 Co99 2.351 . S
O124 C127 1.244 . S
O125 Co99 2.155 . S
O125 C127 1.240 . S
O126 Co99 2.096 . S
O126 C107 1.247 . S
C127 O124 1.244 . S
C127 O125 1.240 . S
H128 C102 0.931 . S
H129 C111 0.931 . S
H130 C115 0.929 . S
H131 C117 0.930 . S
Co132 N136 2.148 . S
Co132 N142 2.128 . S
Co132 N152 2.194 . S
Co132 O157 2.351 . S
Co132 O158 2.155 . S
Co132 O159 2.096 . S
C133 N136 1.301 . S
C133 N137 1.328 . S
C133 H138 0.930 . S
C134 C135 1.333 . S
C134 N136 1.317 . S
C134 H139 0.930 . S
C135 C134 1.333 . S
C135 N137 1.350 . S
C135 H161 0.931 . S
N136 Co132 2.148 . S
N136 C133 1.301 . S
N136 C134 1.317 . S
N137 C133 1.328 . S
N137 C135 1.350 . S
H138 C133 0.930 . S
H139 C134 0.930 . S
C140 O141 1.224 . S
C140 O159 1.247 . S
O141 C140 1.224 . S
N142 Co132 2.128 . S
N142 C143 1.355 . S
N142 C145 1.311 . S
C143 N142 1.355 . S
C143 C144 1.363 . S
C143 H155 0.929 . S
C144 C143 1.363 . S
C144 N146 1.375 . S
C144 H162 0.931 . S
C145 N142 1.311 . S
C145 N146 1.347 . S
C145 H156 0.929 . S
N146 C144 1.375 . S
N146 C145 1.347 . S
C147 C150 1.365 . S
C147 N152 1.328 . S
C147 H153 0.929 . S
C148 C149 1.362 . S
C148 C151 1.378 . S
C148 H163 0.929 . S
C149 C148 1.362 . S
C149 C150 1.366 . S
C150 C147 1.365 . S
C150 C149 1.366 . S
C150 H164 0.930 . S
C151 C148 1.378 . S
C151 N152 1.315 . S
C151 H154 0.930 . S
N152 Co132 2.194 . S
N152 C147 1.328 . S
N152 C151 1.315 . S
H153 C147 0.929 . S
H154 C151 0.930 . S
H155 C143 0.929 . S
H156 C145 0.929 . S
O157 Co132 2.351 . S
O157 C160 1.244 . S
O158 Co132 2.155 . S
O158 C160 1.240 . S
O159 Co132 2.096 . S
O159 C140 1.247 . S
C160 O157 1.244 . S
C160 O158 1.240 . S
H161 C135 0.931 . S
H162 C144 0.931 . S
H163 C148 0.929 . S
H164 C150 0.930 . S
Co165 N169 2.148 . S
Co165 N175 2.128 . S
Co165 N185 2.194 . S
Co165 O190 2.351 . S
Co165 O191 2.155 . S
Co165 O192 2.096 . S
C166 N169 1.301 . S
C166 N170 1.328 . S
C166 H171 0.930 . S
C167 C168 1.333 . S
C167 N169 1.317 . S
C167 H172 0.930 . S
C168 C167 1.333 . S
C168 N170 1.350 . S
C168 H194 0.931 . S
N169 Co165 2.148 . S
N169 C166 1.301 . S
N169 C167 1.317 . S
N170 C166 1.328 . S
N170 C168 1.350 . S
H171 C166 0.930 . S
H172 C167 0.930 . S
C173 O174 1.224 . S
C173 O192 1.247 . S
O174 C173 1.224 . S
N175 Co165 2.128 . S
N175 C176 1.355 . S
N175 C178 1.296 1_545 S
C176 N175 1.355 . S
C176 C177 1.363 . S
C176 H188 0.929 . S
C177 C176 1.363 . S
C177 N179 1.375 1_545 S
C177 H195 0.931 . S
C178 N175 1.296 1_565 S
C178 N179 1.351 . S
C178 H189 0.939 . S
N179 C177 1.375 1_565 S
N179 C178 1.351 . S
C180 C183 1.365 . S
C180 N185 1.328 . S
C180 H186 0.929 . S
C181 C182 1.362 . S
C181 C184 1.378 . S
C181 H196 0.929 . S
C182 C181 1.362 . S
C182 C183 1.366 . S
C183 C180 1.365 . S
C183 C182 1.366 . S
C183 H197 0.930 . S
C184 C181 1.378 . S
C184 N185 1.315 . S
C184 H187 0.930 . S
N185 Co165 2.194 . S
N185 C180 1.328 . S
N185 C184 1.315 . S
H186 C180 0.929 . S
H187 C184 0.930 . S
H188 C176 0.929 . S
H189 C178 0.939 . S
O190 Co165 2.351 . S
O190 C193 1.244 . S
O191 Co165 2.155 . S
O191 C193 1.240 . S
O192 Co165 2.096 . S
O192 C173 1.247 . S
C193 O190 1.244 . S
C193 O191 1.240 . S
H194 C168 0.931 . S
H195 C177 0.931 . S
H196 C181 0.929 . S
H197 C183 0.930 . S
Co198 N202 2.148 . S
Co198 N208 2.128 . S
Co198 N218 2.194 . S
Co198 O223 2.351 . S
Co198 O224 2.155 . S
Co198 O225 2.096 . S
C199 N202 1.301 . S
C199 N203 1.328 . S
C199 H204 0.930 . S
C200 C201 1.333 . S
C200 N202 1.317 . S
C200 H205 0.930 . S
C201 C200 1.333 . S
C201 N203 1.350 . S
C201 H227 0.931 . S
N202 Co198 2.148 . S
N202 C199 1.301 . S
N202 C200 1.317 . S
N203 C199 1.328 . S
N203 C201 1.350 . S
H204 C199 0.930 . S
H205 C200 0.930 . S
C206 O207 1.224 . S
C206 O225 1.247 . S
O207 C206 1.224 . S
N208 Co198 2.128 . S
N208 C209 1.355 . S
N208 C211 1.311 . S
C209 N208 1.355 . S
C209 C210 1.363 . S
C209 H221 0.929 . S
C210 C209 1.363 . S
C210 N212 1.375 . S
C210 H228 0.931 . S
C211 N208 1.311 . S
C211 N212 1.347 . S
C211 H222 0.929 . S
N212 C210 1.375 . S
N212 C211 1.347 . S
C213 C216 1.365 . S
C213 N218 1.328 . S
C213 H219 0.929 . S
C214 C215 1.362 . S
C214 C217 1.378 . S
C214 H229 0.929 . S
C215 C214 1.362 . S
C215 C216 1.366 . S
C216 C213 1.365 . S
C216 C215 1.366 . S
C216 H230 0.930 . S
C217 C214 1.378 . S
C217 N218 1.315 . S
C217 H220 0.930 . S
N218 Co198 2.194 . S
N218 C213 1.328 . S
N218 C217 1.315 . S
H219 C213 0.929 . S
H220 C217 0.930 . S
H221 C209 0.929 . S
H222 C211 0.929 . S
O223 Co198 2.351 . S
O223 C226 1.244 . S
O224 Co198 2.155 . S
O224 C226 1.240 . S
O225 Co198 2.096 . S
O225 C206 1.247 . S
C226 O223 1.244 . S
C226 O224 1.240 . S
H227 C201 0.931 . S
H228 C210 0.931 . S
H229 C214 0.929 . S
H230 C216 0.930 . S
Co231 N235 2.148 . S
Co231 N241 2.128 . S
Co231 N251 2.194 . S
Co231 O256 2.351 . S
Co231 O257 2.155 . S
Co231 O258 2.096 . S
C232 N235 1.301 . S
C232 N236 1.328 1_655 S
C232 H237 0.930 . S
C233 C234 1.333 1_655 S
C233 N235 1.317 . S
C233 H238 0.930 . S
C234 C233 1.333 1_455 S
C234 N236 1.350 . S
C234 H260 0.931 . S
N235 Co231 2.148 . S
N235 C232 1.301 . S
N235 C233 1.317 . S
N236 C232 1.328 1_455 S
N236 C234 1.350 . S
H237 C232 0.930 . S
H238 C233 0.930 . S
C239 O240 1.224 . S
C239 O258 1.247 . S
O240 C239 1.224 . S
N241 Co231 2.128 . S
N241 C242 1.355 . S
N241 C244 1.296 1_565 S
C242 N241 1.355 . S
C242 C243 1.363 . S
C242 H254 0.929 . S
C243 C242 1.363 . S
C243 N245 1.375 1_565 S
C243 H261 0.931 . S
C244 N241 1.296 1_545 S
C244 N245 1.351 . S
C244 H255 0.939 . S
N245 C243 1.375 1_545 S
N245 C244 1.351 . S
C246 C249 1.365 . S
C246 N251 1.328 . S
C246 H252 0.929 . S
C247 C248 1.362 . S
C247 C250 1.378 . S
C247 H262 0.929 . S
C248 C247 1.362 . S
C248 C249 1.366 . S
C249 C246 1.365 . S
C249 C248 1.366 . S
C249 H263 0.930 . S
C250 C247 1.378 . S
C250 N251 1.315 . S
C250 H253 0.930 . S
N251 Co231 2.194 . S
N251 C246 1.328 . S
N251 C250 1.315 . S
H252 C246 0.929 . S
H253 C250 0.930 . S
H254 C242 0.929 . S
H255 C244 0.939 . S
O256 Co231 2.351 . S
O256 C259 1.244 . S
O257 Co231 2.155 . S
O257 C259 1.240 . S
O258 Co231 2.096 . S
O258 C239 1.247 . S
C259 O256 1.244 . S
C259 O257 1.240 . S
H260 C234 0.931 . S
H261 C243 0.931 . S
H262 C247 0.929 . S
H263 C249 0.930 . S
Co264 N268 2.148 . S
Co264 N274 2.128 . S
Co264 N284 2.194 . S
Co264 O289 2.351 . S
Co264 O290 2.155 . S
Co264 O291 2.096 . S
C265 N268 1.301 . S
C265 N269 1.328 . S
C265 H270 0.930 . S
C266 C267 1.333 . S
C266 N268 1.317 . S
C266 H271 0.930 . S
C267 C266 1.333 . S
C267 N269 1.350 . S
C267 H293 0.931 . S
N268 Co264 2.148 . S
N268 C265 1.301 . S
N268 C266 1.317 . S
N269 C265 1.328 . S
N269 C267 1.350 . S
H270 C265 0.930 . S
H271 C266 0.930 . S
C272 O273 1.224 . S
C272 O291 1.247 . S
O273 C272 1.224 . S
N274 Co264 2.128 . S
N274 C275 1.355 . S
N274 C277 1.311 . S
C275 N274 1.355 . S
C275 C276 1.363 . S
C275 H287 0.929 . S
C276 C275 1.363 . S
C276 N278 1.375 . S
C276 H294 0.931 . S
C277 N274 1.311 . S
C277 N278 1.347 . S
C277 H288 0.929 . S
N278 C276 1.375 . S
N278 C277 1.347 . S
C279 C282 1.365 . S
C279 N284 1.328 . S
C279 H285 0.929 . S
C280 C281 1.362 . S
C280 C283 1.378 . S
C280 H295 0.929 . S
C281 C280 1.362 . S
C281 C282 1.366 . S
C282 C279 1.365 . S
C282 C281 1.366 . S
C282 H296 0.930 . S
C283 C280 1.378 . S
C283 N284 1.315 . S
C283 H286 0.930 . S
N284 Co264 2.194 . S
N284 C279 1.328 . S
N284 C283 1.315 . S
H285 C279 0.929 . S
H286 C283 0.930 . S
H287 C275 0.929 . S
H288 C277 0.929 . S
O289 Co264 2.351 . S
O289 C292 1.244 . S
O290 Co264 2.155 . S
O290 C292 1.240 . S
O291 Co264 2.096 . S
O291 C272 1.247 . S
C292 O289 1.244 . S
C292 O290 1.240 . S
H293 C267 0.931 . S
H294 C276 0.931 . S
H295 C280 0.929 . S
H296 C282 0.930 . S
Co297 N301 2.148 . S
Co297 N307 2.128 . S
Co297 N317 2.194 . S
Co297 O322 2.351 . S
Co297 O323 2.155 . S
Co297 O324 2.096 . S
C298 N301 1.301 . S
C298 N302 1.328 1_455 S
C298 H303 0.930 . S
C299 C300 1.333 1_455 S
C299 N301 1.317 . S
C299 H304 0.930 . S
C300 C299 1.333 1_655 S
C300 N302 1.350 . S
C300 H326 0.931 . S
N301 Co297 2.148 . S
N301 C298 1.301 . S
N301 C299 1.317 . S
N302 C298 1.328 1_655 S
N302 C300 1.350 . S
H303 C298 0.930 . S
H304 C299 0.930 . S
C305 O306 1.224 . S
C305 O324 1.247 . S
O306 C305 1.224 . S
N307 Co297 2.128 . S
N307 C308 1.355 . S
N307 C310 1.296 1_565 S
C308 N307 1.355 . S
C308 C309 1.363 . S
C308 H320 0.929 . S
C309 C308 1.363 . S
C309 N311 1.375 1_565 S
C309 H327 0.931 . S
C310 N307 1.296 1_545 S
C310 N311 1.351 . S
C310 H321 0.939 . S
N311 C309 1.375 1_545 S
N311 C310 1.351 . S
C312 C315 1.365 . S
C312 N317 1.328 . S
C312 H318 0.929 . S
C313 C314 1.362 . S
C313 C316 1.378 . S
C313 H328 0.929 . S
C314 C313 1.362 . S
C314 C315 1.366 . S
C315 C312 1.365 . S
C315 C314 1.366 . S
C315 H329 0.930 . S
C316 C313 1.378 . S
C316 N317 1.315 . S
C316 H319 0.930 . S
N317 Co297 2.194 . S
N317 C312 1.328 . S
N317 C316 1.315 . S
H318 C312 0.929 . S
H319 C316 0.930 . S
H320 C308 0.929 . S
H321 C310 0.939 . S
O322 Co297 2.351 . S
O322 C325 1.244 . S
O323 Co297 2.155 . S
O323 C325 1.240 . S
O324 Co297 2.096 . S
O324 C305 1.247 . S
C325 O322 1.244 . S
C325 O323 1.240 . S
H326 C300 0.931 . S
H327 C309 0.931 . S
H328 C313 0.929 . S
H329 C315 0.930 . S
Co330 N334 2.148 . S
Co330 N340 2.128 . S
Co330 N350 2.194 . S
Co330 O355 2.351 . S
Co330 O356 2.155 . S
Co330 O357 2.096 . S
C331 N334 1.301 . S
C331 N335 1.328 . S
C331 H336 0.930 . S
C332 C333 1.333 . S
C332 N334 1.317 . S
C332 H337 0.930 . S
C333 C332 1.333 . S
C333 N335 1.350 . S
C333 H359 0.931 . S
N334 Co330 2.148 . S
N334 C331 1.301 . S
N334 C332 1.317 . S
N335 C331 1.328 . S
N335 C333 1.350 . S
H336 C331 0.930 . S
H337 C332 0.930 . S
C338 O339 1.224 . S
C338 O357 1.247 . S
O339 C338 1.224 . S
N340 Co330 2.128 . S
N340 C341 1.355 . S
N340 C343 1.311 . S
C341 N340 1.355 . S
C341 C342 1.363 . S
C341 H353 0.929 . S
C342 C341 1.363 . S
C342 N344 1.375 . S
C342 H360 0.931 . S
C343 N340 1.311 . S
C343 N344 1.347 . S
C343 H354 0.929 . S
N344 C342 1.375 . S
N344 C343 1.347 . S
C345 C348 1.365 . S
C345 N350 1.328 . S
C345 H351 0.929 . S
C346 C347 1.362 . S
C346 C349 1.378 . S
C346 H361 0.929 . S
C347 C346 1.362 . S
C347 C348 1.366 . S
C348 C345 1.365 . S
C348 C347 1.366 . S
C348 H362 0.930 . S
C349 C346 1.378 . S
C349 N350 1.315 . S
C349 H352 0.930 . S
N350 Co330 2.194 . S
N350 C345 1.328 . S
N350 C349 1.315 . S
H351 C345 0.929 . S
H352 C349 0.930 . S
H353 C341 0.929 . S
H354 C343 0.929 . S
O355 Co330 2.351 . S
O355 C358 1.244 . S
O356 Co330 2.155 . S
O356 C358 1.240 . S
O357 Co330 2.096 . S
O357 C338 1.247 . S
C358 O355 1.244 . S
C358 O356 1.240 . S
H359 C333 0.931 . S
H360 C342 0.931 . S
H361 C346 0.929 . S
H362 C348 0.930 . S
Co363 N367 2.148 . S
Co363 N373 2.128 . S
Co363 N383 2.194 . S
Co363 O388 2.351 . S
Co363 O389 2.155 . S
Co363 O390 2.096 . S
C364 N367 1.301 . S
C364 N368 1.328 . S
C364 H369 0.930 . S
C365 C366 1.333 . S
C365 N367 1.317 . S
C365 H370 0.930 . S
C366 C365 1.333 . S
C366 N368 1.350 . S
C366 H392 0.931 . S
N367 Co363 2.148 . S
N367 C364 1.301 . S
N367 C365 1.317 . S
N368 C364 1.328 . S
N368 C366 1.350 . S
H369 C364 0.930 . S
H370 C365 0.930 . S
C371 O372 1.224 . S
C371 O390 1.247 . S
O372 C371 1.224 . S
N373 Co363 2.128 . S
N373 C374 1.355 . S
N373 C376 1.296 1_545 S
C374 N373 1.355 . S
C374 C375 1.363 . S
C374 H386 0.929 . S
C375 C374 1.363 . S
C375 N377 1.375 1_545 S
C375 H393 0.931 . S
C376 N373 1.296 1_565 S
C376 N377 1.351 . S
C376 H387 0.939 . S
N377 C375 1.375 1_565 S
N377 C376 1.351 . S
C378 C381 1.365 . S
C378 N383 1.328 . S
C378 H384 0.929 . S
C379 C380 1.362 . S
C379 C382 1.378 . S
C379 H394 0.929 . S
C380 C379 1.362 . S
C380 C381 1.366 . S
C381 C378 1.365 . S
C381 C380 1.366 . S
C381 H395 0.930 . S
C382 C379 1.378 . S
C382 N383 1.315 . S
C382 H385 0.930 . S
N383 Co363 2.194 . S
N383 C378 1.328 . S
N383 C382 1.315 . S
H384 C378 0.929 . S
H385 C382 0.930 . S
H386 C374 0.929 . S
H387 C376 0.939 . S
O388 Co363 2.351 . S
O388 C391 1.244 . S
O389 Co363 2.155 . S
O389 C391 1.240 . S
O390 Co363 2.096 . S
O390 C371 1.247 . S
C391 O388 1.244 . S
C391 O389 1.240 . S
H392 C366 0.931 . S
H393 C375 0.931 . S
H394 C379 0.929 . S
H395 C381 0.930 . S
Co396 N400 2.148 . S
Co396 N406 2.128 . S
Co396 N416 2.194 . S
Co396 O421 2.351 . S
Co396 O422 2.155 . S
Co396 O423 2.096 . S
C397 N400 1.301 . S
C397 N401 1.328 . S
C397 H402 0.930 . S
C398 C399 1.333 . S
C398 N400 1.317 . S
C398 H403 0.930 . S
C399 C398 1.333 . S
C399 N401 1.350 . S
C399 H425 0.931 . S
N400 Co396 2.148 . S
N400 C397 1.301 . S
N400 C398 1.317 . S
N401 C397 1.328 . S
N401 C399 1.350 . S
H402 C397 0.930 . S
H403 C398 0.930 . S
C404 O405 1.224 . S
C404 O423 1.247 . S
O405 C404 1.224 . S
N406 Co396 2.128 . S
N406 C407 1.355 . S
N406 C409 1.311 . S
C407 N406 1.355 . S
C407 C408 1.363 . S
C407 H419 0.929 . S
C408 C407 1.363 . S
C408 N410 1.375 . S
C408 H426 0.931 . S
C409 N406 1.311 . S
C409 N410 1.347 . S
C409 H420 0.929 . S
N410 C408 1.375 . S
N410 C409 1.347 . S
C411 C414 1.365 . S
C411 N416 1.328 . S
C411 H417 0.929 . S
C412 C413 1.362 . S
C412 C415 1.378 . S
C412 H427 0.929 . S
C413 C412 1.362 . S
C413 C414 1.366 . S
C414 C411 1.365 . S
C414 C413 1.366 . S
C414 H428 0.930 . S
C415 C412 1.378 . S
C415 N416 1.315 . S
C415 H418 0.930 . S
N416 Co396 2.194 . S
N416 C411 1.328 . S
N416 C415 1.315 . S
H417 C411 0.929 . S
H418 C415 0.930 . S
H419 C407 0.929 . S
H420 C409 0.929 . S
O421 Co396 2.351 . S
O421 C424 1.244 . S
O422 Co396 2.155 . S
O422 C424 1.240 . S
O423 Co396 2.096 . S
O423 C404 1.247 . S
C424 O421 1.244 . S
C424 O422 1.240 . S
H425 C399 0.931 . S
H426 C408 0.931 . S
H427 C412 0.929 . S
H428 C414 0.930 . S
Co429 N433 2.148 . S
Co429 N439 2.128 . S
Co429 N449 2.194 . S
Co429 O454 2.351 . S
Co429 O455 2.155 . S
Co429 O456 2.096 . S
C430 N433 1.301 . S
C430 N434 1.328 . S
C430 H435 0.930 . S
C431 C432 1.333 . S
C431 N433 1.317 . S
C431 H436 0.930 . S
C432 C431 1.333 . S
C432 N434 1.350 . S
C432 H458 0.931 . S
N433 Co429 2.148 . S
N433 C430 1.301 . S
N433 C431 1.317 . S
N434 C430 1.328 . S
N434 C432 1.350 . S
H435 C430 0.930 . S
H436 C431 0.930 . S
C437 O438 1.224 . S
C437 O456 1.247 . S
O438 C437 1.224 . S
N439 Co429 2.128 . S
N439 C440 1.355 . S
N439 C442 1.296 1_565 S
C440 N439 1.355 . S
C440 C441 1.363 . S
C440 H452 0.929 . S
C441 C440 1.363 . S
C441 N443 1.375 1_565 S
C441 H459 0.931 . S
C442 N439 1.296 1_545 S
C442 N443 1.351 . S
C442 H453 0.939 . S
N443 C441 1.375 1_545 S
N443 C442 1.351 . S
C444 C447 1.365 . S
C444 N449 1.328 . S
C444 H450 0.929 . S
C445 C446 1.362 . S
C445 C448 1.378 . S
C445 H460 0.929 . S
C446 C445 1.362 . S
C446 C447 1.366 . S
C447 C444 1.365 . S
C447 C446 1.366 . S
C447 H461 0.930 . S
C448 C445 1.378 . S
C448 N449 1.315 . S
C448 H451 0.930 . S
N449 Co429 2.194 . S
N449 C444 1.328 . S
N449 C448 1.315 . S
H450 C444 0.929 . S
H451 C448 0.930 . S
H452 C440 0.929 . S
H453 C442 0.939 . S
O454 Co429 2.351 . S
O454 C457 1.244 . S
O455 Co429 2.155 . S
O455 C457 1.240 . S
O456 Co429 2.096 . S
O456 C437 1.247 . S
C457 O454 1.244 . S
C457 O455 1.240 . S
H458 C432 0.931 . S
H459 C441 0.931 . S
H460 C445 0.929 . S
H461 C447 0.930 . S
Co462 N466 2.148 . S
Co462 N472 2.128 . S
Co462 N482 2.194 . S
Co462 O487 2.351 . S
Co462 O488 2.155 . S
Co462 O489 2.096 . S
C463 N466 1.301 . S
C463 N467 1.328 . S
C463 H468 0.930 . S
C464 C465 1.333 . S
C464 N466 1.317 . S
C464 H469 0.930 . S
C465 C464 1.333 . S
C465 N467 1.350 . S
C465 H491 0.931 . S
N466 Co462 2.148 . S
N466 C463 1.301 . S
N466 C464 1.317 . S
N467 C463 1.328 . S
N467 C465 1.350 . S
H468 C463 0.930 . S
H469 C464 0.930 . S
C470 O471 1.224 . S
C470 O489 1.247 . S
O471 C470 1.224 . S
N472 Co462 2.128 . S
N472 C473 1.355 . S
N472 C475 1.311 . S
C473 N472 1.355 . S
C473 C474 1.363 . S
C473 H485 0.929 . S
C474 C473 1.363 . S
C474 N476 1.375 . S
C474 H492 0.931 . S
C475 N472 1.311 . S
C475 N476 1.347 . S
C475 H486 0.929 . S
N476 C474 1.375 . S
N476 C475 1.347 . S
C477 C480 1.365 . S
C477 N482 1.328 . S
C477 H483 0.929 . S
C478 C479 1.362 . S
C478 C481 1.378 . S
C478 H493 0.929 . S
C479 C478 1.362 . S
C479 C480 1.366 . S
C480 C477 1.365 . S
C480 C479 1.366 . S
C480 H494 0.930 . S
C481 C478 1.378 . S
C481 N482 1.315 . S
C481 H484 0.930 . S
N482 Co462 2.194 . S
N482 C477 1.328 . S
N482 C481 1.315 . S
H483 C477 0.929 . S
H484 C481 0.930 . S
H485 C473 0.929 . S
H486 C475 0.929 . S
O487 Co462 2.351 . S
O487 C490 1.244 . S
O488 Co462 2.155 . S
O488 C490 1.240 . S
O489 Co462 2.096 . S
O489 C470 1.247 . S
C490 O487 1.244 . S
C490 O488 1.240 . S
H491 C465 0.931 . S
H492 C474 0.931 . S
H493 C478 0.929 . S
H494 C480 0.930 . S
Co495 N499 2.148 . S
Co495 N505 2.128 . S
Co495 N515 2.194 . S
Co495 O520 2.351 . S
Co495 O521 2.155 . S
Co495 O522 2.096 . S
C496 N499 1.301 . S
C496 N500 1.328 1_455 S
C496 H501 0.930 . S
C497 C498 1.333 1_455 S
C497 N499 1.317 . S
C497 H502 0.930 . S
C498 C497 1.333 1_655 S
C498 N500 1.350 . S
C498 H524 0.931 . S
N499 Co495 2.148 . S
N499 C496 1.301 . S
N499 C497 1.317 . S
N500 C496 1.328 1_655 S
N500 C498 1.350 . S
H501 C496 0.930 . S
H502 C497 0.930 . S
C503 O504 1.224 . S
C503 O522 1.247 . S
O504 C503 1.224 . S
N505 Co495 2.128 . S
N505 C506 1.355 . S
N505 C508 1.296 1_545 S
C506 N505 1.355 . S
C506 C507 1.363 . S
C506 H518 0.929 . S
C507 C506 1.363 . S
C507 N509 1.375 1_545 S
C507 H525 0.931 . S
C508 N505 1.296 1_565 S
C508 N509 1.351 . S
C508 H519 0.939 . S
N509 C507 1.375 1_565 S
N509 C508 1.351 . S
C510 C513 1.365 . S
C510 N515 1.328 . S
C510 H516 0.929 . S
C511 C512 1.362 . S
C511 C514 1.378 . S
C511 H526 0.929 . S
C512 C511 1.362 . S
C512 C513 1.366 . S
C513 C510 1.365 . S
C513 C512 1.366 . S
C513 H527 0.930 . S
C514 C511 1.378 . S
C514 N515 1.315 . S
C514 H517 0.930 . S
N515 Co495 2.194 . S
N515 C510 1.328 . S
N515 C514 1.315 . S
H516 C510 0.929 . S
H517 C514 0.930 . S
H518 C506 0.929 . S
H519 C508 0.939 . S
O520 Co495 2.351 . S
O520 C523 1.244 . S
O521 Co495 2.155 . S
O521 C523 1.240 . S
O522 Co495 2.096 . S
O522 C503 1.247 . S
C523 O520 1.244 . S
C523 O521 1.240 . S
H524 C498 0.931 . S
H525 C507 0.931 . S
H526 C511 0.929 . S
H527 C513 0.930 . S
Co528 N532 2.148 . S
Co528 N538 2.128 . S
Co528 N548 2.194 . S
Co528 O553 2.351 . S
Co528 O554 2.155 . S
Co528 O555 2.096 . S
C529 N532 1.301 . S
C529 N533 1.328 . S
C529 H534 0.930 . S
C530 C531 1.333 . S
C530 N532 1.317 . S
C530 H535 0.930 . S
C531 C530 1.333 . S
C531 N533 1.350 . S
C531 H557 0.931 . S
N532 Co528 2.148 . S
N532 C529 1.301 . S
N532 C530 1.317 . S
N533 C529 1.328 . S
N533 C531 1.350 . S
H534 C529 0.930 . S
H535 C530 0.930 . S
C536 O537 1.224 . S
C536 O555 1.247 . S
O537 C536 1.224 . S
N538 Co528 2.128 . S
N538 C539 1.355 . S
N538 C541 1.311 . S
C539 N538 1.355 . S
C539 C540 1.363 . S
C539 H551 0.929 . S
C540 C539 1.363 . S
C540 N542 1.375 . S
C540 H558 0.931 . S
C541 N538 1.311 . S
C541 N542 1.347 . S
C541 H552 0.929 . S
N542 C540 1.375 . S
N542 C541 1.347 . S
C543 C546 1.365 . S
C543 N548 1.328 . S
C543 H549 0.929 . S
C544 C545 1.362 . S
C544 C547 1.378 . S
C544 H559 0.929 . S
C545 C544 1.362 . S
C545 C546 1.366 . S
C546 C543 1.365 . S
C546 C545 1.366 . S
C546 H560 0.930 . S
C547 C544 1.378 . S
C547 N548 1.315 . S
C547 H550 0.930 . S
N548 Co528 2.194 . S
N548 C543 1.328 . S
N548 C547 1.315 . S
H549 C543 0.929 . S
H550 C547 0.930 . S
H551 C539 0.929 . S
H552 C541 0.929 . S
O553 Co528 2.351 . S
O553 C556 1.244 . S
O554 Co528 2.155 . S
O554 C556 1.240 . S
O555 Co528 2.096 . S
O555 C536 1.247 . S
C556 O553 1.244 . S
C556 O554 1.240 . S
H557 C531 0.931 . S
H558 C540 0.931 . S
H559 C544 0.929 . S
H560 C546 0.930 . S
Co561 N565 2.148 . S
Co561 N571 2.128 . S
Co561 N581 2.194 . S
Co561 O586 2.351 . S
Co561 O587 2.155 . S
Co561 O588 2.096 . S
C562 N565 1.301 . S
C562 N566 1.328 . S
C562 H567 0.930 . S
C563 C564 1.333 . S
C563 N565 1.317 . S
C563 H568 0.930 . S
C564 C563 1.333 . S
C564 N566 1.350 . S
C564 H590 0.931 . S
N565 Co561 2.148 . S
N565 C562 1.301 . S
N565 C563 1.317 . S
N566 C562 1.328 . S
N566 C564 1.350 . S
H567 C562 0.930 . S
H568 C563 0.930 . S
C569 O570 1.224 . S
C569 O588 1.247 . S
O570 C569 1.224 . S
N571 Co561 2.128 . S
N571 C572 1.355 . S
N571 C574 1.311 . S
C572 N571 1.355 . S
C572 C573 1.363 . S
C572 H584 0.929 . S
C573 C572 1.363 . S
C573 N575 1.375 . S
C573 H591 0.931 . S
C574 N571 1.311 . S
C574 N575 1.347 . S
C574 H585 0.929 . S
N575 C573 1.375 . S
N575 C574 1.347 . S
C576 C579 1.365 . S
C576 N581 1.328 . S
C576 H582 0.929 . S
C577 C578 1.362 . S
C577 C580 1.378 . S
C577 H592 0.929 . S
C578 C577 1.362 . S
C578 C579 1.366 . S
C579 C576 1.365 . S
C579 C578 1.366 . S
C579 H593 0.930 . S
C580 C577 1.378 . S
C580 N581 1.315 . S
C580 H583 0.930 . S
N581 Co561 2.194 . S
N581 C576 1.328 . S
N581 C580 1.315 . S
H582 C576 0.929 . S
H583 C580 0.930 . S
H584 C572 0.929 . S
H585 C574 0.929 . S
O586 Co561 2.351 . S
O586 C589 1.244 . S
O587 Co561 2.155 . S
O587 C589 1.240 . S
O588 Co561 2.096 . S
O588 C569 1.247 . S
C589 O586 1.244 . S
C589 O587 1.240 . S
H590 C564 0.931 . S
H591 C573 0.931 . S
H592 C577 0.929 . S
H593 C579 0.930 . S
Co594 N598 2.148 . S
Co594 N604 2.128 . S
Co594 N614 2.194 . S
Co594 O619 2.351 . S
Co594 O620 2.155 . S
Co594 O621 2.096 . S
C595 N598 1.301 . S
C595 N599 1.328 . S
C595 H600 0.930 . S
C596 C597 1.333 . S
C596 N598 1.317 . S
C596 H601 0.930 . S
C597 C596 1.333 . S
C597 N599 1.350 . S
C597 H623 0.931 . S
N598 Co594 2.148 . S
N598 C595 1.301 . S
N598 C596 1.317 . S
N599 C595 1.328 . S
N599 C597 1.350 . S
H600 C595 0.930 . S
H601 C596 0.930 . S
C602 O603 1.224 . S
C602 O621 1.247 . S
O603 C602 1.224 . S
N604 Co594 2.128 . S
N604 C605 1.355 . S
N604 C607 1.311 . S
C605 N604 1.355 . S
C605 C606 1.363 . S
C605 H617 0.929 . S
C606 C605 1.363 . S
C606 N608 1.375 . S
C606 H624 0.931 . S
C607 N604 1.311 . S
C607 N608 1.347 . S
C607 H618 0.929 . S
N608 C606 1.375 . S
N608 C607 1.347 . S
C609 C612 1.365 . S
C609 N614 1.328 . S
C609 H615 0.929 . S
C610 C611 1.362 . S
C610 C613 1.378 . S
C610 H625 0.929 . S
C611 C610 1.362 . S
C611 C612 1.366 . S
C612 C609 1.365 . S
C612 C611 1.366 . S
C612 H626 0.930 . S
C613 C610 1.378 . S
C613 N614 1.315 . S
C613 H616 0.930 . S
N614 Co594 2.194 . S
N614 C609 1.328 . S
N614 C613 1.315 . S
H615 C609 0.929 . S
H616 C613 0.930 . S
H617 C605 0.929 . S
H618 C607 0.929 . S
O619 Co594 2.351 . S
O619 C622 1.244 . S
O620 Co594 2.155 . S
O620 C622 1.240 . S
O621 Co594 2.096 . S
O621 C602 1.247 . S
C622 O619 1.244 . S
C622 O620 1.240 . S
H623 C597 0.931 . S
H624 C606 0.931 . S
H625 C610 0.929 . S
H626 C612 0.930 . S
Co627 N631 2.148 . S
Co627 N637 2.128 . S
Co627 N647 2.194 . S
Co627 O652 2.351 . S
Co627 O653 2.155 . S
Co627 O654 2.096 . S
C628 N631 1.301 . S
C628 N632 1.328 1_455 S
C628 H633 0.930 . S
C629 C630 1.333 1_455 S
C629 N631 1.317 . S
C629 H634 0.930 . S
C630 C629 1.333 1_655 S
C630 N632 1.350 . S
C630 H656 0.931 . S
N631 Co627 2.148 . S
N631 C628 1.301 . S
N631 C629 1.317 . S
N632 C628 1.328 1_655 S
N632 C630 1.350 . S
H633 C628 0.930 . S
H634 C629 0.930 . S
C635 O636 1.224 . S
C635 O654 1.247 . S
O636 C635 1.224 . S
N637 Co627 2.128 . S
N637 C638 1.355 . S
N637 C640 1.311 . S
C638 N637 1.355 . S
C638 C639 1.363 . S
C638 H650 0.929 . S
C639 C638 1.363 . S
C639 N641 1.375 . S
C639 H657 0.931 . S
C640 N637 1.311 . S
C640 N641 1.347 . S
C640 H651 0.929 . S
N641 C639 1.375 . S
N641 C640 1.347 . S
C642 C645 1.365 . S
C642 N647 1.328 . S
C642 H648 0.929 . S
C643 C644 1.362 . S
C643 C646 1.378 . S
C643 H658 0.929 . S
C644 C643 1.362 . S
C644 C645 1.366 . S
C645 C642 1.365 . S
C645 C644 1.366 . S
C645 H659 0.930 . S
C646 C643 1.378 . S
C646 N647 1.315 . S
C646 H649 0.930 . S
N647 Co627 2.194 . S
N647 C642 1.328 . S
N647 C646 1.315 . S
H648 C642 0.929 . S
H649 C646 0.930 . S
H650 C638 0.929 . S
H651 C640 0.929 . S
O652 Co627 2.351 . S
O652 C655 1.244 . S
O653 Co627 2.155 . S
O653 C655 1.240 . S
O654 Co627 2.096 . S
O654 C635 1.247 . S
C655 O652 1.244 . S
C655 O653 1.240 . S
H656 C630 0.931 . S
H657 C639 0.931 . S
H658 C643 0.929 . S
H659 C645 0.930 . S
Co660 N664 2.148 . S
Co660 N670 2.128 . S
Co660 N680 2.194 . S
Co660 O685 2.351 . S
Co660 O686 2.155 . S
Co660 O687 2.096 . S
C661 N664 1.301 . S
C661 N665 1.328 . S
C661 H666 0.930 . S
C662 C663 1.333 . S
C662 N664 1.317 . S
C662 H667 0.930 . S
C663 C662 1.333 . S
C663 N665 1.350 . S
C663 H689 0.931 . S
N664 Co660 2.148 . S
N664 C661 1.301 . S
N664 C662 1.317 . S
N665 C661 1.328 . S
N665 C663 1.350 . S
H666 C661 0.930 . S
H667 C662 0.930 . S
C668 O669 1.224 . S
C668 O687 1.247 . S
O669 C668 1.224 . S
N670 Co660 2.128 . S
N670 C671 1.355 . S
N670 C673 1.311 . S
C671 N670 1.355 . S
C671 C672 1.363 . S
C671 H683 0.929 . S
C672 C671 1.363 . S
C672 N674 1.375 . S
C672 H690 0.931 . S
C673 N670 1.311 . S
C673 N674 1.347 . S
C673 H684 0.929 . S
N674 C672 1.375 . S
N674 C673 1.347 . S
C675 C678 1.365 . S
C675 N680 1.328 . S
C675 H681 0.929 . S
C676 C677 1.362 . S
C676 C679 1.378 . S
C676 H691 0.929 . S
C677 C676 1.362 . S
C677 C678 1.366 . S
C678 C675 1.365 . S
C678 C677 1.366 . S
C678 H692 0.930 . S
C679 C676 1.378 . S
C679 N680 1.315 . S
C679 H682 0.930 . S
N680 Co660 2.194 . S
N680 C675 1.328 . S
N680 C679 1.315 . S
H681 C675 0.929 . S
H682 C679 0.930 . S
H683 C671 0.929 . S
H684 C673 0.929 . S
O685 Co660 2.351 . S
O685 C688 1.244 . S
O686 Co660 2.155 . S
O686 C688 1.240 . S
O687 Co660 2.096 . S
O687 C668 1.247 . S
C688 O685 1.244 . S
C688 O686 1.240 . S
H689 C663 0.931 . S
H690 C672 0.931 . S
H691 C676 0.929 . S
H692 C678 0.930 . S
Co693 N697 2.148 . S
Co693 N703 2.128 . S
Co693 N713 2.194 . S
Co693 O718 2.351 . S
Co693 O719 2.155 . S
Co693 O720 2.096 . S
C694 N697 1.301 . S
C694 N698 1.328 1_455 S
C694 H699 0.930 . S
C695 C696 1.333 1_455 S
C695 N697 1.317 . S
C695 H700 0.930 . S
C696 C695 1.333 1_655 S
C696 N698 1.350 . S
C696 H722 0.931 . S
N697 Co693 2.148 . S
N697 C694 1.301 . S
N697 C695 1.317 . S
N698 C694 1.328 1_655 S
N698 C696 1.350 . S
H699 C694 0.930 . S
H700 C695 0.930 . S
C701 O702 1.224 . S
C701 O720 1.247 . S
O702 C701 1.224 . S
N703 Co693 2.128 . S
N703 C704 1.355 . S
N703 C706 1.311 . S
C704 N703 1.355 . S
C704 C705 1.363 . S
C704 H716 0.929 . S
C705 C704 1.363 . S
C705 N707 1.375 . S
C705 H723 0.931 . S
C706 N703 1.311 . S
C706 N707 1.347 . S
C706 H717 0.929 . S
N707 C705 1.375 . S
N707 C706 1.347 . S
C708 C711 1.365 . S
C708 N713 1.328 . S
C708 H714 0.929 . S
C709 C710 1.362 . S
C709 C712 1.378 . S
C709 H724 0.929 . S
C710 C709 1.362 . S
C710 C711 1.366 . S
C711 C708 1.365 . S
C711 C710 1.366 . S
C711 H725 0.930 . S
C712 C709 1.378 . S
C712 N713 1.315 . S
C712 H715 0.930 . S
N713 Co693 2.194 . S
N713 C708 1.328 . S
N713 C712 1.315 . S
H714 C708 0.929 . S
H715 C712 0.930 . S
H716 C704 0.929 . S
H717 C706 0.929 . S
O718 Co693 2.351 . S
O718 C721 1.244 . S
O719 Co693 2.155 . S
O719 C721 1.240 . S
O720 Co693 2.096 . S
O720 C701 1.247 . S
C721 O718 1.244 . S
C721 O719 1.240 . S
H722 C696 0.931 . S
H723 C705 0.931 . S
H724 C709 0.929 . S
H725 C711 0.930 . S
Co726 N730 2.148 . S
Co726 N736 2.128 . S
Co726 N746 2.194 . S
Co726 O751 2.351 . S
Co726 O752 2.155 . S
Co726 O753 2.096 . S
C727 N730 1.301 . S
C727 N731 1.328 . S
C727 H732 0.930 . S
C728 C729 1.333 . S
C728 N730 1.317 . S
C728 H733 0.930 . S
C729 C728 1.333 . S
C729 N731 1.350 . S
C729 H755 0.931 . S
N730 Co726 2.148 . S
N730 C727 1.301 . S
N730 C728 1.317 . S
N731 C727 1.328 . S
N731 C729 1.350 . S
H732 C727 0.930 . S
H733 C728 0.930 . S
C734 O735 1.224 . S
C734 O753 1.247 . S
O735 C734 1.224 . S
N736 Co726 2.128 . S
N736 C737 1.355 . S
N736 C739 1.311 . S
C737 N736 1.355 . S
C737 C738 1.363 . S
C737 H749 0.929 . S
C738 C737 1.363 . S
C738 N740 1.375 . S
C738 H756 0.931 . S
C739 N736 1.311 . S
C739 N740 1.347 . S
C739 H750 0.929 . S
N740 C738 1.375 . S
N740 C739 1.347 . S
C741 C744 1.365 . S
C741 N746 1.328 . S
C741 H747 0.929 . S
C742 C743 1.362 . S
C742 C745 1.378 . S
C742 H757 0.929 . S
C743 C742 1.362 . S
C743 C744 1.366 . S
C744 C741 1.365 . S
C744 C743 1.366 . S
C744 H758 0.930 . S
C745 C742 1.378 . S
C745 N746 1.315 . S
C745 H748 0.930 . S
N746 Co726 2.194 . S
N746 C741 1.328 . S
N746 C745 1.315 . S
H747 C741 0.929 . S
H748 C745 0.930 . S
H749 C737 0.929 . S
H750 C739 0.929 . S
O751 Co726 2.351 . S
O751 C754 1.244 . S
O752 Co726 2.155 . S
O752 C754 1.240 . S
O753 Co726 2.096 . S
O753 C734 1.247 . S
C754 O751 1.244 . S
C754 O752 1.240 . S
H755 C729 0.931 . S
H756 C738 0.931 . S
H757 C742 0.929 . S
H758 C744 0.930 . S
Co759 N763 2.148 . S
Co759 N769 2.128 . S
Co759 N779 2.194 . S
Co759 O784 2.351 . S
Co759 O785 2.155 . S
Co759 O786 2.096 . S
C760 N763 1.301 . S
C760 N764 1.328 . S
C760 H765 0.930 . S
C761 C762 1.333 . S
C761 N763 1.317 . S
C761 H766 0.930 . S
C762 C761 1.333 . S
C762 N764 1.350 . S
C762 H788 0.931 . S
N763 Co759 2.148 . S
N763 C760 1.301 . S
N763 C761 1.317 . S
N764 C760 1.328 . S
N764 C762 1.350 . S
H765 C760 0.930 . S
H766 C761 0.930 . S
C767 O768 1.224 . S
C767 O786 1.247 . S
O768 C767 1.224 . S
N769 Co759 2.128 . S
N769 C770 1.355 . S
N769 C772 1.311 . S
C770 N769 1.355 . S
C770 C771 1.363 . S
C770 H782 0.929 . S
C771 C770 1.363 . S
C771 N773 1.375 . S
C771 H789 0.931 . S
C772 N769 1.311 . S
C772 N773 1.347 . S
C772 H783 0.929 . S
N773 C771 1.375 . S
N773 C772 1.347 . S
C774 C777 1.365 . S
C774 N779 1.328 . S
C774 H780 0.929 . S
C775 C776 1.362 . S
C775 C778 1.378 . S
C775 H790 0.929 . S
C776 C775 1.362 . S
C776 C777 1.366 . S
C777 C774 1.365 . S
C777 C776 1.366 . S
C777 H791 0.930 . S
C778 C775 1.378 . S
C778 N779 1.315 . S
C778 H781 0.930 . S
N779 Co759 2.194 . S
N779 C774 1.328 . S
N779 C778 1.315 . S
H780 C774 0.929 . S
H781 C778 0.930 . S
H782 C770 0.929 . S
H783 C772 0.929 . S
O784 Co759 2.351 . S
O784 C787 1.244 . S
O785 Co759 2.155 . S
O785 C787 1.240 . S
O786 Co759 2.096 . S
O786 C767 1.247 . S
C787 O784 1.244 . S
C787 O785 1.240 . S
H788 C762 0.931 . S
H789 C771 0.931 . S
H790 C775 0.929 . S
H791 C777 0.930 . S
Co792 N796 2.148 . S
Co792 N802 2.128 . S
Co792 N812 2.194 . S
Co792 O817 2.351 . S
Co792 O818 2.155 . S
Co792 O819 2.096 . S
C793 N796 1.301 . S
C793 N797 1.328 . S
C793 H798 0.930 . S
C794 C795 1.333 . S
C794 N796 1.317 . S
C794 H799 0.930 . S
C795 C794 1.333 . S
C795 N797 1.350 . S
C795 H821 0.931 . S
N796 Co792 2.148 . S
N796 C793 1.301 . S
N796 C794 1.317 . S
N797 C793 1.328 . S
N797 C795 1.350 . S
H798 C793 0.930 . S
H799 C794 0.930 . S
C800 O801 1.224 . S
C800 O819 1.247 . S
O801 C800 1.224 . S
N802 Co792 2.128 . S
N802 C803 1.355 . S
N802 C805 1.311 . S
C803 N802 1.355 . S
C803 C804 1.363 . S
C803 H815 0.929 . S
C804 C803 1.363 . S
C804 N806 1.375 . S
C804 H822 0.931 . S
C805 N802 1.311 . S
C805 N806 1.347 . S
C805 H816 0.929 . S
N806 C804 1.375 . S
N806 C805 1.347 . S
C807 C810 1.365 . S
C807 N812 1.328 . S
C807 H813 0.929 . S
C808 C809 1.362 . S
C808 C811 1.378 . S
C808 H823 0.929 . S
C809 C808 1.362 . S
C809 C810 1.366 . S
C810 C807 1.365 . S
C810 C809 1.366 . S
C810 H824 0.930 . S
C811 C808 1.378 . S
C811 N812 1.315 . S
C811 H814 0.930 . S
N812 Co792 2.194 . S
N812 C807 1.328 . S
N812 C811 1.315 . S
H813 C807 0.929 . S
H814 C811 0.930 . S
H815 C803 0.929 . S
H816 C805 0.929 . S
O817 Co792 2.351 . S
O817 C820 1.244 . S
O818 Co792 2.155 . S
O818 C820 1.240 . S
O819 Co792 2.096 . S
O819 C800 1.247 . S
C820 O817 1.244 . S
C820 O818 1.240 . S
H821 C795 0.931 . S
H822 C804 0.931 . S
H823 C808 0.929 . S
H824 C810 0.930 . S
Co825 N829 2.148 . S
Co825 N835 2.128 . S
Co825 N845 2.194 . S
Co825 O850 2.351 . S
Co825 O851 2.155 . S
Co825 O852 2.096 . S
C826 N829 1.301 . S
C826 N830 1.328 . S
C826 H831 0.930 . S
C827 C828 1.333 . S
C827 N829 1.317 . S
C827 H832 0.930 . S
C828 C827 1.333 . S
C828 N830 1.350 . S
C828 H854 0.931 . S
N829 Co825 2.148 . S
N829 C826 1.301 . S
N829 C827 1.317 . S
N830 C826 1.328 . S
N830 C828 1.350 . S
H831 C826 0.930 . S
H832 C827 0.930 . S
C833 O834 1.224 . S
C833 O852 1.247 . S
O834 C833 1.224 . S
N835 Co825 2.128 . S
N835 C836 1.355 . S
N835 C838 1.311 . S
C836 N835 1.355 . S
C836 C837 1.363 . S
C836 H848 0.929 . S
C837 C836 1.363 . S
C837 N839 1.375 . S
C837 H855 0.931 . S
C838 N835 1.311 . S
C838 N839 1.347 . S
C838 H849 0.929 . S
N839 C837 1.375 . S
N839 C838 1.347 . S
C840 C843 1.365 . S
C840 N845 1.328 . S
C840 H846 0.929 . S
C841 C842 1.362 . S
C841 C844 1.378 . S
C841 H856 0.929 . S
C842 C841 1.362 . S
C842 C843 1.366 . S
C843 C840 1.365 . S
C843 C842 1.366 . S
C843 H857 0.930 . S
C844 C841 1.378 . S
C844 N845 1.315 . S
C844 H847 0.930 . S
N845 Co825 2.194 . S
N845 C840 1.328 . S
N845 C844 1.315 . S
H846 C840 0.929 . S
H847 C844 0.930 . S
H848 C836 0.929 . S
H849 C838 0.929 . S
O850 Co825 2.351 . S
O850 C853 1.244 . S
O851 Co825 2.155 . S
O851 C853 1.240 . S
O852 Co825 2.096 . S
O852 C833 1.247 . S
C853 O850 1.244 . S
C853 O851 1.240 . S
H854 C828 0.931 . S
H855 C837 0.931 . S
H856 C841 0.929 . S
H857 C843 0.930 . S
Co858 N862 2.148 . S
Co858 N868 2.128 . S
Co858 N878 2.194 . S
Co858 O883 2.351 . S
Co858 O884 2.155 . S
Co858 O885 2.096 . S
C859 N862 1.301 . S
C859 N863 1.328 . S
C859 H864 0.930 . S
C860 C861 1.333 . S
C860 N862 1.317 . S
C860 H865 0.930 . S
C861 C860 1.333 . S
C861 N863 1.350 . S
C861 H887 0.931 . S
N862 Co858 2.148 . S
N862 C859 1.301 . S
N862 C860 1.317 . S
N863 C859 1.328 . S
N863 C861 1.350 . S
H864 C859 0.930 . S
H865 C860 0.930 . S
C866 O867 1.224 . S
C866 O885 1.247 . S
O867 C866 1.224 . S
N868 Co858 2.128 . S
N868 C869 1.355 . S
N868 C871 1.311 . S
C869 N868 1.355 . S
C869 C870 1.363 . S
C869 H881 0.929 . S
C870 C869 1.363 . S
C870 N872 1.375 . S
C870 H888 0.931 . S
C871 N868 1.311 . S
C871 N872 1.347 . S
C871 H882 0.929 . S
N872 C870 1.375 . S
N872 C871 1.347 . S
C873 C876 1.365 . S
C873 N878 1.328 . S
C873 H879 0.929 . S
C874 C875 1.362 . S
C874 C877 1.378 . S
C874 H889 0.929 . S
C875 C874 1.362 . S
C875 C876 1.366 . S
C876 C873 1.365 . S
C876 C875 1.366 . S
C876 H890 0.930 . S
C877 C874 1.378 . S
C877 N878 1.315 . S
C877 H880 0.930 . S
N878 Co858 2.194 . S
N878 C873 1.328 . S
N878 C877 1.315 . S
H879 C873 0.929 . S
H880 C877 0.930 . S
H881 C869 0.929 . S
H882 C871 0.929 . S
O883 Co858 2.351 . S
O883 C886 1.244 . S
O884 Co858 2.155 . S
O884 C886 1.240 . S
O885 Co858 2.096 . S
O885 C866 1.247 . S
C886 O883 1.244 . S
C886 O884 1.240 . S
H887 C861 0.931 . S
H888 C870 0.931 . S
H889 C874 0.929 . S
H890 C876 0.930 . S
Co891 N895 2.148 . S
Co891 N901 2.128 . S
Co891 N911 2.194 . S
Co891 O916 2.351 . S
Co891 O917 2.155 . S
Co891 O918 2.096 . S
C892 N895 1.301 . S
C892 N896 1.328 1_655 S
C892 H897 0.930 . S
C893 C894 1.333 1_655 S
C893 N895 1.317 . S
C893 H898 0.930 . S
C894 C893 1.333 1_455 S
C894 N896 1.350 . S
C894 H920 0.931 . S
N895 Co891 2.148 . S
N895 C892 1.301 . S
N895 C893 1.317 . S
N896 C892 1.328 1_455 S
N896 C894 1.350 . S
H897 C892 0.930 . S
H898 C893 0.930 . S
C899 O900 1.224 . S
C899 O918 1.247 . S
O900 C899 1.224 . S
N901 Co891 2.128 . S
N901 C902 1.355 . S
N901 C904 1.311 . S
C902 N901 1.355 . S
C902 C903 1.363 . S
C902 H914 0.929 . S
C903 C902 1.363 . S
C903 N905 1.375 . S
C903 H921 0.931 . S
C904 N901 1.311 . S
C904 N905 1.347 . S
C904 H915 0.929 . S
N905 C903 1.375 . S
N905 C904 1.347 . S
C906 C909 1.365 . S
C906 N911 1.328 . S
C906 H912 0.929 . S
C907 C908 1.362 . S
C907 C910 1.378 . S
C907 H922 0.929 . S
C908 C907 1.362 . S
C908 C909 1.366 . S
C909 C906 1.365 . S
C909 C908 1.366 . S
C909 H923 0.930 . S
C910 C907 1.378 . S
C910 N911 1.315 . S
C910 H913 0.930 . S
N911 Co891 2.194 . S
N911 C906 1.328 . S
N911 C910 1.315 . S
H912 C906 0.929 . S
H913 C910 0.930 . S
H914 C902 0.929 . S
H915 C904 0.929 . S
O916 Co891 2.351 . S
O916 C919 1.244 . S
O917 Co891 2.155 . S
O917 C919 1.240 . S
O918 Co891 2.096 . S
O918 C899 1.247 . S
C919 O916 1.244 . S
C919 O917 1.240 . S
H920 C894 0.931 . S
H921 C903 0.931 . S
H922 C907 0.929 . S
H923 C909 0.930 . S
Co924 N928 2.148 . S
Co924 N934 2.128 . S
Co924 N944 2.194 . S
Co924 O949 2.351 . S
Co924 O950 2.155 . S
Co924 O951 2.096 . S
C925 N928 1.301 . S
C925 N929 1.328 . S
C925 H930 0.930 . S
C926 C927 1.333 . S
C926 N928 1.317 . S
C926 H931 0.930 . S
C927 C926 1.333 . S
C927 N929 1.350 . S
C927 H953 0.931 . S
N928 Co924 2.148 . S
N928 C925 1.301 . S
N928 C926 1.317 . S
N929 C925 1.328 . S
N929 C927 1.350 . S
H930 C925 0.930 . S
H931 C926 0.930 . S
C932 O933 1.224 . S
C932 O951 1.247 . S
O933 C932 1.224 . S
N934 Co924 2.128 . S
N934 C935 1.355 . S
N934 C937 1.311 . S
C935 N934 1.355 . S
C935 C936 1.363 . S
C935 H947 0.929 . S
C936 C935 1.363 . S
C936 N938 1.375 . S
C936 H954 0.931 . S
C937 N934 1.311 . S
C937 N938 1.347 . S
C937 H948 0.929 . S
N938 C936 1.375 . S
N938 C937 1.347 . S
C939 C942 1.365 . S
C939 N944 1.328 . S
C939 H945 0.929 . S
C940 C941 1.362 . S
C940 C943 1.378 . S
C940 H955 0.929 . S
C941 C940 1.362 . S
C941 C942 1.366 . S
C942 C939 1.365 . S
C942 C941 1.366 . S
C942 H956 0.930 . S
C943 C940 1.378 . S
C943 N944 1.315 . S
C943 H946 0.930 . S
N944 Co924 2.194 . S
N944 C939 1.328 . S
N944 C943 1.315 . S
H945 C939 0.929 . S
H946 C943 0.930 . S
H947 C935 0.929 . S
H948 C937 0.929 . S
O949 Co924 2.351 . S
O949 C952 1.244 . S
O950 Co924 2.155 . S
O950 C952 1.240 . S
O951 Co924 2.096 . S
O951 C932 1.247 . S
C952 O949 1.244 . S
C952 O950 1.240 . S
H953 C927 0.931 . S
H954 C936 0.931 . S
H955 C940 0.929 . S
H956 C942 0.930 . S
Co957 N961 2.148 . S
Co957 N967 2.128 . S
Co957 N977 2.194 . S
Co957 O982 2.351 . S
Co957 O983 2.155 . S
Co957 O984 2.096 . S
C958 N961 1.301 . S
C958 N962 1.328 1_655 S
C958 H963 0.930 . S
C959 C960 1.333 1_655 S
C959 N961 1.317 . S
C959 H964 0.930 . S
C960 C959 1.333 1_455 S
C960 N962 1.350 . S
C960 H986 0.931 . S
N961 Co957 2.148 . S
N961 C958 1.301 . S
N961 C959 1.317 . S
N962 C958 1.328 1_455 S
N962 C960 1.350 . S
H963 C958 0.930 . S
H964 C959 0.930 . S
C965 O966 1.224 . S
C965 O984 1.247 . S
O966 C965 1.224 . S
N967 Co957 2.128 . S
N967 C968 1.355 . S
N967 C970 1.311 . S
C968 N967 1.355 . S
C968 C969 1.363 . S
C968 H980 0.929 . S
C969 C968 1.363 . S
C969 N971 1.375 . S
C969 H987 0.931 . S
C970 N967 1.311 . S
C970 N971 1.347 . S
C970 H981 0.929 . S
N971 C969 1.375 . S
N971 C970 1.347 . S
C972 C975 1.365 . S
C972 N977 1.328 . S
C972 H978 0.929 . S
C973 C974 1.362 . S
C973 C976 1.378 . S
C973 H988 0.929 . S
C974 C973 1.362 . S
C974 C975 1.366 . S
C975 C972 1.365 . S
C975 C974 1.366 . S
C975 H989 0.930 . S
C976 C973 1.378 . S
C976 N977 1.315 . S
C976 H979 0.930 . S
N977 Co957 2.194 . S
N977 C972 1.328 . S
N977 C976 1.315 . S
H978 C972 0.929 . S
H979 C976 0.930 . S
H980 C968 0.929 . S
H981 C970 0.929 . S
O982 Co957 2.351 . S
O982 C985 1.244 . S
O983 Co957 2.155 . S
O983 C985 1.240 . S
O984 Co957 2.096 . S
O984 C965 1.247 . S
C985 O982 1.244 . S
C985 O983 1.240 . S
H986 C960 0.931 . S
H987 C969 0.931 . S
H988 C973 0.929 . S
H989 C975 0.930 . S
Co990 N994 2.148 . S
Co990 N1000 2.128 . S
Co990 N1010 2.194 . S
Co990 O1015 2.351 . S
Co990 O1016 2.155 . S
Co990 O1017 2.096 . S
C991 N994 1.301 . S
C991 N995 1.328 . S
C991 H996 0.930 . S
C992 C993 1.333 . S
C992 N994 1.317 . S
C992 H997 0.930 . S
C993 C992 1.333 . S
C993 N995 1.350 . S
C993 H1019 0.931 . S
N994 Co990 2.148 . S
N994 C991 1.301 . S
N994 C992 1.317 . S
N995 C991 1.328 . S
N995 C993 1.350 . S
H996 C991 0.930 . S
H997 C992 0.930 . S
C998 O999 1.224 . S
C998 O1017 1.247 . S
O999 C998 1.224 . S
N1000 Co990 2.128 . S
N1000 C1001 1.355 . S
N1000 C1003 1.311 . S
C1001 N1000 1.355 . S
C1001 C1002 1.363 . S
C1001 H1013 0.929 . S
C1002 C1001 1.363 . S
C1002 N1004 1.375 . S
C1002 H1020 0.931 . S
C1003 N1000 1.311 . S
C1003 N1004 1.347 . S
C1003 H1014 0.929 . S
N1004 C1002 1.375 . S
N1004 C1003 1.347 . S
C1005 C1008 1.365 . S
C1005 N1010 1.328 . S
C1005 H1011 0.929 . S
C1006 C1007 1.362 . S
C1006 C1009 1.378 . S
C1006 H1021 0.929 . S
C1007 C1006 1.362 . S
C1007 C1008 1.366 . S
C1008 C1005 1.365 . S
C1008 C1007 1.366 . S
C1008 H1022 0.930 . S
C1009 C1006 1.378 . S
C1009 N1010 1.315 . S
C1009 H1012 0.930 . S
N1010 Co990 2.194 . S
N1010 C1005 1.328 . S
N1010 C1009 1.315 . S
H1011 C1005 0.929 . S
H1012 C1009 0.930 . S
H1013 C1001 0.929 . S
H1014 C1003 0.929 . S
O1015 Co990 2.351 . S
O1015 C1018 1.244 . S
O1016 Co990 2.155 . S
O1016 C1018 1.240 . S
O1017 Co990 2.096 . S
O1017 C998 1.247 . S
C1018 O1015 1.244 . S
C1018 O1016 1.240 . S
H1019 C993 0.931 . S
H1020 C1002 0.931 . S
H1021 C1006 0.929 . S
H1022 C1008 0.930 . S
Co1023 N1027 2.148 . S
Co1023 N1033 2.128 . S
Co1023 N1043 2.194 . S
Co1023 O1048 2.351 . S
Co1023 O1049 2.155 . S
Co1023 O1050 2.096 . S
C1024 N1027 1.301 . S
C1024 N1028 1.328 . S
C1024 H1029 0.930 . S
C1025 C1026 1.333 . S
C1025 N1027 1.317 . S
C1025 H1030 0.930 . S
C1026 C1025 1.333 . S
C1026 N1028 1.350 . S
C1026 H1052 0.931 . S
N1027 Co1023 2.148 . S
N1027 C1024 1.301 . S
N1027 C1025 1.317 . S
N1028 C1024 1.328 . S
N1028 C1026 1.350 . S
H1029 C1024 0.930 . S
H1030 C1025 0.930 . S
C1031 O1032 1.224 . S
C1031 O1050 1.247 . S
O1032 C1031 1.224 . S
N1033 Co1023 2.128 . S
N1033 C1034 1.355 . S
N1033 C1036 1.311 . S
C1034 N1033 1.355 . S
C1034 C1035 1.363 . S
C1034 H1046 0.929 . S
C1035 C1034 1.363 . S
C1035 N1037 1.375 . S
C1035 H1053 0.931 . S
C1036 N1033 1.311 . S
C1036 N1037 1.347 . S
C1036 H1047 0.929 . S
N1037 C1035 1.375 . S
N1037 C1036 1.347 . S
C1038 C1041 1.365 . S
C1038 N1043 1.328 . S
C1038 H1044 0.929 . S
C1039 C1040 1.362 . S
C1039 C1042 1.378 . S
C1039 H1054 0.929 . S
C1040 C1039 1.362 . S
C1040 C1041 1.366 . S
C1041 C1038 1.365 . S
C1041 C1040 1.366 . S
C1041 H1055 0.930 . S
C1042 C1039 1.378 . S
C1042 N1043 1.315 . S
C1042 H1045 0.930 . S
N1043 Co1023 2.194 . S
N1043 C1038 1.328 . S
N1043 C1042 1.315 . S
H1044 C1038 0.929 . S
H1045 C1042 0.930 . S
H1046 C1034 0.929 . S
H1047 C1036 0.929 . S
O1048 Co1023 2.351 . S
O1048 C1051 1.244 . S
O1049 Co1023 2.155 . S
O1049 C1051 1.240 . S
O1050 Co1023 2.096 . S
O1050 C1031 1.247 . S
C1051 O1048 1.244 . S
C1051 O1049 1.240 . S
H1052 C1026 0.931 . S
H1053 C1035 0.931 . S
H1054 C1039 0.929 . S
H1055 C1041 0.930 . S
H1056 C1062 0.930 . S
H1057 C1065 0.930 . S
H1058 C1066 0.930 . S
H1059 C1067 0.930 . S
H1060 C1070 0.930 . S
H1061 C1071 0.930 . S
C1062 H1056 0.930 . S
C1062 C1063 1.355 . S
C1062 C1064 1.415 . S
C1063 C1062 1.355 . S
C1063 C1065 1.419 . S
C1064 C1062 1.415 . S
C1064 C1069 1.425 . S
C1064 C1071 1.409 . S
C1065 H1057 0.930 . S
C1065 C1063 1.419 . S
C1065 C1066 1.362 . S
C1066 H1058 0.930 . S
C1066 C1065 1.362 . S
C1066 C1069 1.409 . S
C1067 H1059 0.930 . S
C1067 C1068 1.355 . S
C1067 C1069 1.415 . S
C1068 C1067 1.355 . S
C1068 C1070 1.419 . S
C1069 C1064 1.425 . S
C1069 C1066 1.409 . S
C1069 C1067 1.415 . S
C1070 H1060 0.930 . S
C1070 C1068 1.419 . S
C1070 C1071 1.362 . S
C1071 H1061 0.930 . S
C1071 C1064 1.409 . S
C1071 C1070 1.362 . S
H1072 C1078 0.930 . S
H1073 C1081 0.930 . S
H1074 C1082 0.930 . S
H1075 C1083 0.930 . S
H1076 C1086 0.930 . S
H1077 C1087 0.930 . S
C1078 H1072 0.930 . S
C1078 C1079 1.355 1_545 S
C1078 C1080 1.408 1_455 S
C1079 C1078 1.355 1_565 S
C1079 C1081 1.419 . S
C1080 C1078 1.408 1_655 S
C1080 C1085 1.425 1_645 S
C1080 C1087 1.416 . S
C1081 H1073 0.930 . S
C1081 C1079 1.419 . S
C1081 C1082 1.362 . S
C1082 H1074 0.930 . S
C1082 C1081 1.362 . S
C1082 C1085 1.416 . S
C1083 H1075 0.930 . S
C1083 C1084 1.355 1_565 S
C1083 C1085 1.408 1_655 S
C1084 C1083 1.355 1_545 S
C1084 C1086 1.419 . S
C1085 C1080 1.425 1_465 S
C1085 C1082 1.416 . S
C1085 C1083 1.408 1_455 S
C1086 H1076 0.930 . S
C1086 C1084 1.419 . S
C1086 C1087 1.362 . S
C1087 H1077 0.930 . S
C1087 C1080 1.416 . S
C1087 C1086 1.362 . S
H1088 C1094 0.930 . S
H1089 C1097 0.930 . S
H1090 C1098 0.930 . S
H1091 C1099 0.930 . S
H1092 C1102 0.930 . S
H1093 C1103 0.930 . S
C1094 H1088 0.930 . S
C1094 C1095 1.355 . S
C1094 C1096 1.415 . S
C1095 C1094 1.355 . S
C1095 C1097 1.419 . S
C1096 C1094 1.415 . S
C1096 C1101 1.425 . S
C1096 C1103 1.409 . S
C1097 H1089 0.930 . S
C1097 C1095 1.419 . S
C1097 C1098 1.362 . S
C1098 H1090 0.930 . S
C1098 C1097 1.362 . S
C1098 C1101 1.409 . S
C1099 H1091 0.930 . S
C1099 C1100 1.355 . S
C1099 C1101 1.415 . S
C1100 C1099 1.355 . S
C1100 C1102 1.419 . S
C1101 C1096 1.425 . S
C1101 C1098 1.409 . S
C1101 C1099 1.415 . S
C1102 H1092 0.930 . S
C1102 C1100 1.419 . S
C1102 C1103 1.362 . S
C1103 H1093 0.930 . S
C1103 C1096 1.409 . S
C1103 C1102 1.362 . S
H1104 C1110 0.930 . S
H1105 C1113 0.930 . S
H1106 C1114 0.930 . S
H1107 C1115 0.930 . S
H1108 C1118 0.930 . S
H1109 C1119 0.930 . S
C1110 H1104 0.930 . S
C1110 C1111 1.355 . S
C1110 C1112 1.415 1_554 S
C1111 C1110 1.355 . S
C1111 C1113 1.419 . S
C1112 C1110 1.415 1_556 S
C1112 C1117 1.425 1_546 S
C1112 C1119 1.409 . S
C1113 H1105 0.930 . S
C1113 C1111 1.419 . S
C1113 C1114 1.362 1_545 S
C1114 H1106 0.930 . S
C1114 C1113 1.362 1_565 S
C1114 C1117 1.409 . S
C1115 H1107 0.930 . S
C1115 C1116 1.355 . S
C1115 C1117 1.415 1_556 S
C1116 C1115 1.355 . S
C1116 C1118 1.419 . S
C1117 C1112 1.425 1_564 S
C1117 C1114 1.409 . S
C1117 C1115 1.415 1_554 S
C1118 H1108 0.930 . S
C1118 C1116 1.419 . S
C1118 C1119 1.362 1_565 S
C1119 H1109 0.930 . S
C1119 C1112 1.409 . S
C1119 C1118 1.362 1_545 S
H1120 C1126 0.930 . S
H1121 C1129 0.930 . S
H1122 C1130 0.930 . S
H1123 C1131 0.930 . S
H1124 C1134 0.930 . S
H1125 C1135 0.930 . S
C1126 H1120 0.930 . S
C1126 C1127 1.355 . S
C1126 C1128 1.415 . S
C1127 C1126 1.355 . S
C1127 C1129 1.419 . S
C1128 C1126 1.415 . S
C1128 C1133 1.425 . S
C1128 C1135 1.409 . S
C1129 H1121 0.930 . S
C1129 C1127 1.419 . S
C1129 C1130 1.362 . S
C1130 H1122 0.930 . S
C1130 C1129 1.362 . S
C1130 C1133 1.409 . S
C1131 H1123 0.930 . S
C1131 C1132 1.355 . S
C1131 C1133 1.415 . S
C1132 C1131 1.355 . S
C1132 C1134 1.419 . S
C1133 C1128 1.425 . S
C1133 C1130 1.409 . S
C1133 C1131 1.415 . S
C1134 H1124 0.930 . S
C1134 C1132 1.419 . S
C1134 C1135 1.362 . S
C1135 H1125 0.930 . S
C1135 C1128 1.409 . S
C1135 C1134 1.362 . S
H1136 C1142 0.930 . S
H1137 C1145 0.930 . S
H1138 C1146 0.930 . S
H1139 C1147 0.930 . S
H1140 C1150 0.930 . S
H1141 C1151 0.930 . S
C1142 H1136 0.930 . S
C1142 C1143 1.355 . S
C1142 C1144 1.415 . S
C1143 C1142 1.355 . S
C1143 C1145 1.419 1_565 S
C1144 C1142 1.415 . S
C1144 C1149 1.425 1_565 S
C1144 C1151 1.409 . S
C1145 H1137 0.930 . S
C1145 C1143 1.419 1_545 S
C1145 C1146 1.362 . S
C1146 H1138 0.930 . S
C1146 C1145 1.362 . S
C1146 C1149 1.409 . S
C1147 H1139 0.930 . S
C1147 C1148 1.355 . S
C1147 C1149 1.415 . S
C1148 C1147 1.355 . S
C1148 C1150 1.419 1_545 S
C1149 C1144 1.425 1_545 S
C1149 C1146 1.409 . S
C1149 C1147 1.415 . S
C1150 H1140 0.930 . S
C1150 C1148 1.419 1_565 S
C1150 C1151 1.362 . S
C1151 H1141 0.930 . S
C1151 C1144 1.409 . S
C1151 C1150 1.362 . S
H1152 C1158 0.930 . S
H1153 C1161 0.930 . S
H1154 C1162 0.930 . S
H1155 C1163 0.930 . S
H1156 C1166 0.930 . S
H1157 C1167 0.930 . S
C1158 H1152 0.930 . S
C1158 C1159 1.355 . S
C1158 C1160 1.415 . S
C1159 C1158 1.355 . S
C1159 C1161 1.419 . S
C1160 C1158 1.415 . S
C1160 C1165 1.425 . S
C1160 C1167 1.409 . S
C1161 H1153 0.930 . S
C1161 C1159 1.419 . S
C1161 C1162 1.362 . S
C1162 H1154 0.930 . S
C1162 C1161 1.362 . S
C1162 C1165 1.409 . S
C1163 H1155 0.930 . S
C1163 C1164 1.355 . S
C1163 C1165 1.415 . S
C1164 C1163 1.355 . S
C1164 C1166 1.419 . S
C1165 C1160 1.425 . S
C1165 C1162 1.409 . S
C1165 C1163 1.415 . S
C1166 H1156 0.930 . S
C1166 C1164 1.419 . S
C1166 C1167 1.362 . S
C1167 H1157 0.930 . S
C1167 C1160 1.409 . S
C1167 C1166 1.362 . S
H1168 C1174 0.930 1_565 S
H1169 C1177 0.930 . S
H1170 C1178 0.930 . S
H1171 C1179 0.930 1_545 S
H1172 C1182 0.930 . S
H1173 C1183 0.930 . S
C1174 H1168 0.930 1_545 S
C1174 C1175 1.355 . S
C1174 C1176 1.415 1_546 S
C1175 C1174 1.355 . S
C1175 C1177 1.419 1_455 S
C1176 C1174 1.415 1_564 S
C1176 C1181 1.425 1_464 S
C1176 C1183 1.409 . S
C1177 H1169 0.930 . S
C1177 C1175 1.419 1_655 S
C1177 C1178 1.362 . S
C1178 H1170 0.930 . S
C1178 C1177 1.362 . S
C1178 C1181 1.409 . S
C1179 H1171 0.930 1_565 S
C1179 C1180 1.355 . S
C1179 C1181 1.415 1_564 S
C1180 C1179 1.355 . S
C1180 C1182 1.419 1_655 S
C1181 C1176 1.425 1_646 S
C1181 C1178 1.409 . S
C1181 C1179 1.415 1_546 S
C1182 H1172 0.930 . S
C1182 C1180 1.419 1_455 S
C1182 C1183 1.362 . S
C1183 H1173 0.930 . S
C1183 C1176 1.409 . S
C1183 C1182 1.362 . S
H1184 C1190 0.930 . S
H1185 C1193 0.930 . S
H1186 C1194 0.930 . S
H1187 C1195 0.930 . S
H1188 C1198 0.930 . S
H1189 C1199 0.930 . S
C1190 H1184 0.930 . S
C1190 C1191 1.355 . S
C1190 C1192 1.415 . S
C1191 C1190 1.355 . S
C1191 C1193 1.419 . S
C1192 C1190 1.415 . S
C1192 C1197 1.425 . S
C1192 C1199 1.409 . S
C1193 H1185 0.930 . S
C1193 C1191 1.419 . S
C1193 C1194 1.362 . S
C1194 H1186 0.930 . S
C1194 C1193 1.362 . S
C1194 C1197 1.409 . S
C1195 H1187 0.930 . S
C1195 C1196 1.355 . S
C1195 C1197 1.415 . S
C1196 C1195 1.355 . S
C1196 C1198 1.419 . S
C1197 C1192 1.425 . S
C1197 C1194 1.409 . S
C1197 C1195 1.415 . S
C1198 H1188 0.930 . S
C1198 C1196 1.419 . S
C1198 C1199 1.362 . S
C1199 H1189 0.930 . S
C1199 C1192 1.409 . S
C1199 C1198 1.362 . S
H1200 C1206 0.930 . S
H1201 C1209 0.930 . S
H1202 C1210 0.930 . S
H1203 C1211 0.930 . S
H1204 C1214 0.930 . S
H1205 C1215 0.930 . S
C1206 H1200 0.930 . S
C1206 C1207 1.355 . S
C1206 C1208 1.415 . S
C1207 C1206 1.355 . S
C1207 C1209 1.419 . S
C1208 C1206 1.415 . S
C1208 C1213 1.425 . S
C1208 C1215 1.409 . S
C1209 H1201 0.930 . S
C1209 C1207 1.419 . S
C1209 C1210 1.362 . S
C1210 H1202 0.930 . S
C1210 C1209 1.362 . S
C1210 C1213 1.409 . S
C1211 H1203 0.930 . S
C1211 C1212 1.355 . S
C1211 C1213 1.415 . S
C1212 C1211 1.355 . S
C1212 C1214 1.419 . S
C1213 C1208 1.425 . S
C1213 C1210 1.409 . S
C1213 C1211 1.415 . S
C1214 H1204 0.930 . S
C1214 C1212 1.419 . S
C1214 C1215 1.362 . S
C1215 H1205 0.930 . S
C1215 C1208 1.409 . S
C1215 C1214 1.362 . S
H1216 C1222 0.930 . S
H1217 C1225 0.930 . S
H1218 C1226 0.930 . S
H1219 C1227 0.930 . S
H1220 C1230 0.930 . S
H1221 C1231 0.930 . S
C1222 H1216 0.930 . S
C1222 C1223 1.355 . S
C1222 C1224 1.415 . S
C1223 C1222 1.355 . S
C1223 C1225 1.419 . S
C1224 C1222 1.415 . S
C1224 C1229 1.425 . S
C1224 C1231 1.409 . S
C1225 H1217 0.930 . S
C1225 C1223 1.419 . S
C1225 C1226 1.362 . S
C1226 H1218 0.930 . S
C1226 C1225 1.362 . S
C1226 C1229 1.409 . S
C1227 H1219 0.930 . S
C1227 C1228 1.355 . S
C1227 C1229 1.415 . S
C1228 C1227 1.355 . S
C1228 C1230 1.419 . S
C1229 C1224 1.425 . S
C1229 C1226 1.409 . S
C1229 C1227 1.415 . S
C1230 H1220 0.930 . S
C1230 C1228 1.419 . S
C1230 C1231 1.362 . S
C1231 H1221 0.930 . S
C1231 C1224 1.409 . S
C1231 C1230 1.362 . S
H1232 C1238 0.930 . S
H1233 C1241 0.930 . S
H1234 C1242 0.930 . S
H1235 C1243 0.930 . S
H1236 C1246 0.930 . S
H1237 C1247 0.930 . S
C1238 H1232 0.930 . S
C1238 C1239 1.355 . S
C1238 C1240 1.415 . S
C1239 C1238 1.355 . S
C1239 C1241 1.419 . S
C1240 C1238 1.415 . S
C1240 C1245 1.425 . S
C1240 C1247 1.409 . S
C1241 H1233 0.930 . S
C1241 C1239 1.419 . S
C1241 C1242 1.362 . S
C1242 H1234 0.930 . S
C1242 C1241 1.362 . S
C1242 C1245 1.409 . S
C1243 H1235 0.930 . S
C1243 C1244 1.355 . S
C1243 C1245 1.415 . S
C1244 C1243 1.355 . S
C1244 C1246 1.419 . S
C1245 C1240 1.425 . S
C1245 C1242 1.409 . S
C1245 C1243 1.415 . S
C1246 H1236 0.930 . S
C1246 C1244 1.419 . S
C1246 C1247 1.362 . S
C1247 H1237 0.930 . S
C1247 C1240 1.409 . S
C1247 C1246 1.362 . S
H1248 C1254 0.930 . S
H1249 C1257 0.930 . S
H1250 C1258 0.930 . S
H1251 C1259 0.930 . S
H1252 C1262 0.930 . S
H1253 C1263 0.930 . S
C1254 H1248 0.930 . S
C1254 C1255 1.355 . S
C1254 C1256 1.415 1_556 S
C1255 C1254 1.355 . S
C1255 C1257 1.419 . S
C1256 C1254 1.415 1_554 S
C1256 C1261 1.425 1_554 S
C1256 C1263 1.409 . S
C1257 H1249 0.930 . S
C1257 C1255 1.419 . S
C1257 C1258 1.362 . S
C1258 H1250 0.930 . S
C1258 C1257 1.362 . S
C1258 C1261 1.409 . S
C1259 H1251 0.930 . S
C1259 C1260 1.355 . S
C1259 C1261 1.415 1_554 S
C1260 C1259 1.355 . S
C1260 C1262 1.419 . S
C1261 C1256 1.425 1_556 S
C1261 C1258 1.409 . S
C1261 C1259 1.415 1_556 S
C1262 H1252 0.930 . S
C1262 C1260 1.419 . S
C1262 C1263 1.362 . S
C1263 H1253 0.930 . S
C1263 C1256 1.409 . S
C1263 C1262 1.362 . S
H1264 C1270 0.930 . S
H1265 C1273 0.930 . S
H1266 C1274 0.930 . S
H1267 C1275 0.930 . S
H1268 C1278 0.930 . S
H1269 C1279 0.930 . S
C1270 H1264 0.930 . S
C1270 C1271 1.355 . S
C1270 C1272 1.415 . S
C1271 C1270 1.355 . S
C1271 C1273 1.419 . S
C1272 C1270 1.415 . S
C1272 C1277 1.425 1_655 S
C1272 C1279 1.409 . S
C1273 H1265 0.930 . S
C1273 C1271 1.419 . S
C1273 C1274 1.362 1_655 S
C1274 H1266 0.930 . S
C1274 C1273 1.362 1_455 S
C1274 C1277 1.409 . S
C1275 H1267 0.930 . S
C1275 C1276 1.355 . S
C1275 C1277 1.415 . S
C1276 C1275 1.355 . S
C1276 C1278 1.419 . S
C1277 C1272 1.425 1_455 S
C1277 C1274 1.409 . S
C1277 C1275 1.415 . S
C1278 H1268 0.930 . S
C1278 C1276 1.419 . S
C1278 C1279 1.362 1_455 S
C1279 H1269 0.930 . S
C1279 C1272 1.409 . S
C1279 C1278 1.362 1_655 S
H1280 C1286 0.930 1_655 S
H1281 C1289 0.930 . S
H1282 C1290 0.930 . S
H1283 C1291 0.930 1_455 S
H1284 C1294 0.930 . S
H1285 C1295 0.930 . S
C1286 H1280 0.930 1_455 S
C1286 C1287 1.355 . S
C1286 C1288 1.415 1_455 S
C1287 C1286 1.355 . S
C1287 C1289 1.419 . S
C1288 C1286 1.415 1_655 S
C1288 C1293 1.425 1_654 S
C1288 C1295 1.409 . S
C1289 H1281 0.930 . S
C1289 C1287 1.419 . S
C1289 C1290 1.362 1_554 S
C1290 H1282 0.930 . S
C1290 C1289 1.362 1_556 S
C1290 C1293 1.409 . S
C1291 H1283 0.930 1_655 S
C1291 C1292 1.355 . S
C1291 C1293 1.415 1_655 S
C1292 C1291 1.355 . S
C1292 C1294 1.419 . S
C1293 C1288 1.425 1_456 S
C1293 C1290 1.409 . S
C1293 C1291 1.415 1_455 S
C1294 H1284 0.930 . S
C1294 C1292 1.419 . S
C1294 C1295 1.362 1_556 S
C1295 H1285 0.930 . S
C1295 C1288 1.409 . S
C1295 C1294 1.362 1_554 S
H1296 C1302 0.930 . S
H1297 C1305 0.930 . S
H1298 C1306 0.930 . S
H1299 C1307 0.930 . S
H1300 C1310 0.930 . S
H1301 C1311 0.930 . S
C1302 H1296 0.930 . S
C1302 C1303 1.355 . S
C1302 C1304 1.415 . S
C1303 C1302 1.355 . S
C1303 C1305 1.419 . S
C1304 C1302 1.415 . S
C1304 C1309 1.425 . S
C1304 C1311 1.409 . S
C1305 H1297 0.930 . S
C1305 C1303 1.419 . S
C1305 C1306 1.362 . S
C1306 H1298 0.930 . S
C1306 C1305 1.362 . S
C1306 C1309 1.409 . S
C1307 H1299 0.930 . S
C1307 C1308 1.355 . S
C1307 C1309 1.415 . S
C1308 C1307 1.355 . S
C1308 C1310 1.419 . S
C1309 C1304 1.425 . S
C1309 C1306 1.409 . S
C1309 C1307 1.415 . S
C1310 H1300 0.930 . S
C1310 C1308 1.419 . S
C1310 C1311 1.362 . S
C1311 H1301 0.930 . S
C1311 C1304 1.409 . S
C1311 C1310 1.362 . S
H1312 C1318 0.930 . S
H1313 C1321 0.930 . S
H1314 C1322 0.930 . S
H1315 C1323 0.930 . S
H1316 C1326 0.930 . S
H1317 C1327 0.930 . S
C1318 H1312 0.930 . S
C1318 C1319 1.355 . S
C1318 C1320 1.415 . S
C1319 C1318 1.355 . S
C1319 C1321 1.419 . S
C1320 C1318 1.415 . S
C1320 C1325 1.425 . S
C1320 C1327 1.409 . S
C1321 H1313 0.930 . S
C1321 C1319 1.419 . S
C1321 C1322 1.362 . S
C1322 H1314 0.930 . S
C1322 C1321 1.362 . S
C1322 C1325 1.409 . S
C1323 H1315 0.930 . S
C1323 C1324 1.355 . S
C1323 C1325 1.415 . S
C1324 C1323 1.355 . S
C1324 C1326 1.419 . S
C1325 C1320 1.425 . S
C1325 C1322 1.409 . S
C1325 C1323 1.415 . S
C1326 H1316 0.930 . S
C1326 C1324 1.419 . S
C1326 C1327 1.362 . S
C1327 H1317 0.930 . S
C1327 C1320 1.409 . S
C1327 C1326 1.362 . S
H1328 C1334 0.930 . S
H1329 C1337 0.930 . S
H1330 C1338 0.930 . S
H1331 C1339 0.930 . S
H1332 C1342 0.930 . S
H1333 C1343 0.930 . S
C1334 H1328 0.930 . S
C1334 C1335 1.355 . S
C1334 C1336 1.415 . S
C1335 C1334 1.355 . S
C1335 C1337 1.419 . S
C1336 C1334 1.415 . S
C1336 C1341 1.425 . S
C1336 C1343 1.409 . S
C1337 H1329 0.930 . S
C1337 C1335 1.419 . S
C1337 C1338 1.362 . S
C1338 H1330 0.930 . S
C1338 C1337 1.362 . S
C1338 C1341 1.409 . S
C1339 H1331 0.930 . S
C1339 C1340 1.355 . S
C1339 C1341 1.415 . S
C1340 C1339 1.355 . S
C1340 C1342 1.419 . S
C1341 C1336 1.425 . S
C1341 C1338 1.409 . S
C1341 C1339 1.415 . S
C1342 H1332 0.930 . S
C1342 C1340 1.419 . S
C1342 C1343 1.362 . S
C1343 H1333 0.930 . S
C1343 C1336 1.409 . S
C1343 C1342 1.362 . S
H1344 C1350 0.930 . S
H1345 C1353 0.930 . S
H1346 C1354 0.930 . S
H1347 C1355 0.930 . S
H1348 C1358 0.930 . S
H1349 C1359 0.930 . S
C1350 H1344 0.930 . S
C1350 C1351 1.355 . S
C1350 C1352 1.415 . S
C1351 C1350 1.355 . S
C1351 C1353 1.419 . S
C1352 C1350 1.415 . S
C1352 C1357 1.425 . S
C1352 C1359 1.409 . S
C1353 H1345 0.930 . S
C1353 C1351 1.419 . S
C1353 C1354 1.362 . S
C1354 H1346 0.930 . S
C1354 C1353 1.362 . S
C1354 C1357 1.409 . S
C1355 H1347 0.930 . S
C1355 C1356 1.355 . S
C1355 C1357 1.415 . S
C1356 C1355 1.355 . S
C1356 C1358 1.419 . S
C1357 C1352 1.425 . S
C1357 C1354 1.409 . S
C1357 C1355 1.415 . S
C1358 H1348 0.930 . S
C1358 C1356 1.419 . S
C1358 C1359 1.362 . S
C1359 H1349 0.930 . S
C1359 C1352 1.409 . S
C1359 C1358 1.362 . S
H1360 C1366 0.930 . S
H1361 C1369 0.930 . S
H1362 C1370 0.930 . S
H1363 C1371 0.930 . S
H1364 C1374 0.930 . S
H1365 C1375 0.930 . S
C1366 H1360 0.930 . S
C1366 C1367 1.355 . S
C1366 C1368 1.415 . S
C1367 C1366 1.355 . S
C1367 C1369 1.419 . S
C1368 C1366 1.415 . S
C1368 C1373 1.425 . S
C1368 C1375 1.409 . S
C1369 H1361 0.930 . S
C1369 C1367 1.419 . S
C1369 C1370 1.362 . S
C1370 H1362 0.930 . S
C1370 C1369 1.362 . S
C1370 C1373 1.409 . S
C1371 H1363 0.930 . S
C1371 C1372 1.355 . S
C1371 C1373 1.415 . S
C1372 C1371 1.355 . S
C1372 C1374 1.419 . S
C1373 C1368 1.425 . S
C1373 C1370 1.409 . S
C1373 C1371 1.415 . S
C1374 H1364 0.930 . S
C1374 C1372 1.419 . S
C1374 C1375 1.362 . S
C1375 H1365 0.930 . S
C1375 C1368 1.409 . S
C1375 C1374 1.362 . S
H1376 C1382 0.930 . S
H1377 C1385 0.930 . S
H1378 C1386 0.930 . S
H1379 C1387 0.930 . S
H1380 C1390 0.930 . S
H1381 C1391 0.930 . S
C1382 H1376 0.930 . S
C1382 C1383 1.355 . S
C1382 C1384 1.415 . S
C1383 C1382 1.355 . S
C1383 C1385 1.419 . S
C1384 C1382 1.415 . S
C1384 C1389 1.425 . S
C1384 C1391 1.409 . S
C1385 H1377 0.930 . S
C1385 C1383 1.419 . S
C1385 C1386 1.362 . S
C1386 H1378 0.930 . S
C1386 C1385 1.362 . S
C1386 C1389 1.409 . S
C1387 H1379 0.930 . S
C1387 C1388 1.355 . S
C1387 C1389 1.415 . S
C1388 C1387 1.355 . S
C1388 C1390 1.419 . S
C1389 C1384 1.425 . S
C1389 C1386 1.409 . S
C1389 C1387 1.415 . S
C1390 H1380 0.930 . S
C1390 C1388 1.419 . S
C1390 C1391 1.362 . S
C1391 H1381 0.930 . S
C1391 C1384 1.409 . S
C1391 C1390 1.362 . S
H1392 C1398 0.930 . S
H1393 C1401 0.930 . S
H1394 C1402 0.930 . S
H1395 C1403 0.930 . S
H1396 C1406 0.930 . S
H1397 C1407 0.930 . S
C1398 H1392 0.930 . S
C1398 C1399 1.355 . S
C1398 C1400 1.415 . S
C1399 C1398 1.355 . S
C1399 C1401 1.419 . S
C1400 C1398 1.415 . S
C1400 C1405 1.425 . S
C1400 C1407 1.409 . S
C1401 H1393 0.930 . S
C1401 C1399 1.419 . S
C1401 C1402 1.362 . S
C1402 H1394 0.930 . S
C1402 C1401 1.362 . S
C1402 C1405 1.409 . S
C1403 H1395 0.930 . S
C1403 C1404 1.355 . S
C1403 C1405 1.415 . S
C1404 C1403 1.355 . S
C1404 C1406 1.419 . S
C1405 C1400 1.425 . S
C1405 C1402 1.409 . S
C1405 C1403 1.415 . S
C1406 H1396 0.930 . S
C1406 C1404 1.419 . S
C1406 C1407 1.362 . S
C1407 H1397 0.930 . S
C1407 C1400 1.409 . S
C1407 C1406 1.362 . S
H1408 C1414 0.930 . S
H1409 C1417 0.930 . S
H1410 C1418 0.930 . S
H1411 C1419 0.930 . S
H1412 C1422 0.930 . S
H1413 C1423 0.930 . S
C1414 H1408 0.930 . S
C1414 C1415 1.355 . S
C1414 C1416 1.415 . S
C1415 C1414 1.355 . S
C1415 C1417 1.419 . S
C1416 C1414 1.415 . S
C1416 C1421 1.425 . S
C1416 C1423 1.409 . S
C1417 H1409 0.930 . S
C1417 C1415 1.419 . S
C1417 C1418 1.362 . S
C1418 H1410 0.930 . S
C1418 C1417 1.362 . S
C1418 C1421 1.409 . S
C1419 H1411 0.930 . S
C1419 C1420 1.355 . S
C1419 C1421 1.415 . S
C1420 C1419 1.355 . S
C1420 C1422 1.419 . S
C1421 C1416 1.425 . S
C1421 C1418 1.409 . S
C1421 C1419 1.415 . S
C1422 H1412 0.930 . S
C1422 C1420 1.419 . S
C1422 C1423 1.362 . S
C1423 H1413 0.930 . S
C1423 C1416 1.409 . S
C1423 C1422 1.362 . S
H1424 C1430 0.930 . S
H1425 C1433 0.930 . S
H1426 C1434 0.930 . S
H1427 C1435 0.930 . S
H1428 C1438 0.930 . S
H1429 C1439 0.930 . S
C1430 H1424 0.930 . S
C1430 C1431 1.355 . S
C1430 C1432 1.415 . S
C1431 C1430 1.355 . S
C1431 C1433 1.419 . S
C1432 C1430 1.415 . S
C1432 C1437 1.425 . S
C1432 C1439 1.409 . S
C1433 H1425 0.930 . S
C1433 C1431 1.419 . S
C1433 C1434 1.362 . S
C1434 H1426 0.930 . S
C1434 C1433 1.362 . S
C1434 C1437 1.409 . S
C1435 H1427 0.930 . S
C1435 C1436 1.355 . S
C1435 C1437 1.415 . S
C1436 C1435 1.355 . S
C1436 C1438 1.419 . S
C1437 C1432 1.425 . S
C1437 C1434 1.409 . S
C1437 C1435 1.415 . S
C1438 H1428 0.930 . S
C1438 C1436 1.419 . S
C1438 C1439 1.362 . S
C1439 H1429 0.930 . S
C1439 C1432 1.409 . S
C1439 C1438 1.362 . S
H1440 C1446 0.930 . S
H1441 C1449 0.930 . S
H1442 C1450 0.930 . S
H1443 C1451 0.930 . S
H1444 C1454 0.930 . S
H1445 C1455 0.930 . S
C1446 H1440 0.930 . S
C1446 C1447 1.355 . S
C1446 C1448 1.415 . S
C1447 C1446 1.355 . S
C1447 C1449 1.419 . S
C1448 C1446 1.415 . S
C1448 C1453 1.425 . S
C1448 C1455 1.409 . S
C1449 H1441 0.930 . S
C1449 C1447 1.419 . S
C1449 C1450 1.362 . S
C1450 H1442 0.930 . S
C1450 C1449 1.362 . S
C1450 C1453 1.409 . S
C1451 H1443 0.930 . S
C1451 C1452 1.355 . S
C1451 C1453 1.415 . S
C1452 C1451 1.355 . S
C1452 C1454 1.419 . S
C1453 C1448 1.425 . S
C1453 C1450 1.409 . S
C1453 C1451 1.415 . S
C1454 H1444 0.930 . S
C1454 C1452 1.419 . S
C1454 C1455 1.362 . S
C1455 H1445 0.930 . S
C1455 C1448 1.409 . S
C1455 C1454 1.362 . S
H1456 C1462 0.930 . S
H1457 C1465 0.930 . S
H1458 C1466 0.930 . S
H1459 C1467 0.930 . S
H1460 C1470 0.930 . S
H1461 C1471 0.930 . S
C1462 H1456 0.930 . S
C1462 C1463 1.355 . S
C1462 C1464 1.415 . S
C1463 C1462 1.355 . S
C1463 C1465 1.419 . S
C1464 C1462 1.415 . S
C1464 C1469 1.425 . S
C1464 C1471 1.409 . S
C1465 H1457 0.930 . S
C1465 C1463 1.419 . S
C1465 C1466 1.362 . S
C1466 H1458 0.930 . S
C1466 C1465 1.362 . S
C1466 C1469 1.409 . S
C1467 H1459 0.930 . S
C1467 C1468 1.355 . S
C1467 C1469 1.415 . S
C1468 C1467 1.355 . S
C1468 C1470 1.419 . S
C1469 C1464 1.425 . S
C1469 C1466 1.409 . S
C1469 C1467 1.415 . S
C1470 H1460 0.930 . S
C1470 C1468 1.419 . S
C1470 C1471 1.362 . S
C1471 H1461 0.930 . S
C1471 C1464 1.409 . S
C1471 C1470 1.362 . S
H1472 C1478 0.930 . S
H1473 C1481 0.930 . S
H1474 C1482 0.930 . S
H1475 C1483 0.930 . S
H1476 C1486 0.930 . S
H1477 C1487 0.930 . S
C1478 H1472 0.930 . S
C1478 C1479 1.355 . S
C1478 C1480 1.415 . S
C1479 C1478 1.355 . S
C1479 C1481 1.419 . S
C1480 C1478 1.415 . S
C1480 C1485 1.425 . S
C1480 C1487 1.409 . S
C1481 H1473 0.930 . S
C1481 C1479 1.419 . S
C1481 C1482 1.362 . S
C1482 H1474 0.930 . S
C1482 C1481 1.362 . S
C1482 C1485 1.409 . S
C1483 H1475 0.930 . S
C1483 C1484 1.355 . S
C1483 C1485 1.415 . S
C1484 C1483 1.355 . S
C1484 C1486 1.419 . S
C1485 C1480 1.425 . S
C1485 C1482 1.409 . S
C1485 C1483 1.415 . S
C1486 H1476 0.930 . S
C1486 C1484 1.419 . S
C1486 C1487 1.362 . S
C1487 H1477 0.930 . S
C1487 C1480 1.409 . S
C1487 C1486 1.362 . S
H1488 C1494 0.930 . S
H1489 C1497 0.930 . S
H1490 C1498 0.930 . S
H1491 C1499 0.930 . S
H1492 C1502 0.930 . S
H1493 C1503 0.930 . S
C1494 H1488 0.930 . S
C1494 C1495 1.355 . S
C1494 C1496 1.415 . S
C1495 C1494 1.355 . S
C1495 C1497 1.419 . S
C1496 C1494 1.415 . S
C1496 C1501 1.425 . S
C1496 C1503 1.409 . S
C1497 H1489 0.930 . S
C1497 C1495 1.419 . S
C1497 C1498 1.362 . S
C1498 H1490 0.930 . S
C1498 C1497 1.362 . S
C1498 C1501 1.409 . S
C1499 H1491 0.930 . S
C1499 C1500 1.355 . S
C1499 C1501 1.415 . S
C1500 C1499 1.355 . S
C1500 C1502 1.419 . S
C1501 C1496 1.425 . S
C1501 C1498 1.409 . S
C1501 C1499 1.415 . S
C1502 H1492 0.930 . S
C1502 C1500 1.419 . S
C1502 C1503 1.362 . S
C1503 H1493 0.930 . S
C1503 C1496 1.409 . S
C1503 C1502 1.362 . S
H1504 C1510 0.930 . S
H1505 C1513 0.930 . S
H1506 C1514 0.930 . S
H1507 C1515 0.930 . S
H1508 C1518 0.930 . S
H1509 C1519 0.930 . S
C1510 H1504 0.930 . S
C1510 C1511 1.355 . S
C1510 C1512 1.415 . S
C1511 C1510 1.355 . S
C1511 C1513 1.419 . S
C1512 C1510 1.415 . S
C1512 C1517 1.425 . S
C1512 C1519 1.409 . S
C1513 H1505 0.930 . S
C1513 C1511 1.419 . S
C1513 C1514 1.362 . S
C1514 H1506 0.930 . S
C1514 C1513 1.362 . S
C1514 C1517 1.409 . S
C1515 H1507 0.930 . S
C1515 C1516 1.355 . S
C1515 C1517 1.415 . S
C1516 C1515 1.355 . S
C1516 C1518 1.419 . S
C1517 C1512 1.425 . S
C1517 C1514 1.409 . S
C1517 C1515 1.415 . S
C1518 H1508 0.930 . S
C1518 C1516 1.419 . S
C1518 C1519 1.362 . S
C1519 H1509 0.930 . S
C1519 C1512 1.409 . S
C1519 C1518 1.362 . S
H1520 C1526 0.930 . S
H1521 C1529 0.930 . S
H1522 C1530 0.930 . S
H1523 C1531 0.930 . S
H1524 C1534 0.930 . S
H1525 C1535 0.930 . S
C1526 H1520 0.930 . S
C1526 C1527 1.355 . S
C1526 C1528 1.415 . S
C1527 C1526 1.355 . S
C1527 C1529 1.419 . S
C1528 C1526 1.415 . S
C1528 C1533 1.425 . S
C1528 C1535 1.409 . S
C1529 H1521 0.930 . S
C1529 C1527 1.419 . S
C1529 C1530 1.362 . S
C1530 H1522 0.930 . S
C1530 C1529 1.362 . S
C1530 C1533 1.409 . S
C1531 H1523 0.930 . S
C1531 C1532 1.355 . S
C1531 C1533 1.415 . S
C1532 C1531 1.355 . S
C1532 C1534 1.419 . S
C1533 C1528 1.425 . S
C1533 C1530 1.409 . S
C1533 C1531 1.415 . S
C1534 H1524 0.930 . S
C1534 C1532 1.419 . S
C1534 C1535 1.362 . S
C1535 H1525 0.930 . S
C1535 C1528 1.409 . S
C1535 C1534 1.362 . S
H1536 C1542 0.930 . S
H1537 C1545 0.930 . S
H1538 C1546 0.930 . S
H1539 C1547 0.930 . S
H1540 C1550 0.930 . S
H1541 C1551 0.930 . S
C1542 H1536 0.930 . S
C1542 C1543 1.355 . S
C1542 C1544 1.415 . S
C1543 C1542 1.355 . S
C1543 C1545 1.419 . S
C1544 C1542 1.415 . S
C1544 C1549 1.425 . S
C1544 C1551 1.409 . S
C1545 H1537 0.930 . S
C1545 C1543 1.419 . S
C1545 C1546 1.362 . S
C1546 H1538 0.930 . S
C1546 C1545 1.362 . S
C1546 C1549 1.409 . S
C1547 H1539 0.930 . S
C1547 C1548 1.355 . S
C1547 C1549 1.415 . S
C1548 C1547 1.355 . S
C1548 C1550 1.419 . S
C1549 C1544 1.425 . S
C1549 C1546 1.409 . S
C1549 C1547 1.415 . S
C1550 H1540 0.930 . S
C1550 C1548 1.419 . S
C1550 C1551 1.362 . S
C1551 H1541 0.930 . S
C1551 C1544 1.409 . S
C1551 C1550 1.362 . S
H1552 C1558 0.930 . S
H1553 C1561 0.930 . S
H1554 C1562 0.930 . S
H1555 C1563 0.930 . S
H1556 C1566 0.930 . S
H1557 C1567 0.930 . S
C1558 H1552 0.930 . S
C1558 C1559 1.355 . S
C1558 C1560 1.415 . S
C1559 C1558 1.355 . S
C1559 C1561 1.419 . S
C1560 C1558 1.415 . S
C1560 C1565 1.425 . S
C1560 C1567 1.409 . S
C1561 H1553 0.930 . S
C1561 C1559 1.419 . S
C1561 C1562 1.362 . S
C1562 H1554 0.930 . S
C1562 C1561 1.362 . S
C1562 C1565 1.409 . S
C1563 H1555 0.930 . S
C1563 C1564 1.355 . S
C1563 C1565 1.415 . S
C1564 C1563 1.355 . S
C1564 C1566 1.419 . S
C1565 C1560 1.425 . S
C1565 C1562 1.409 . S
C1565 C1563 1.415 . S
C1566 H1556 0.930 . S
C1566 C1564 1.419 . S
C1566 C1567 1.362 . S
C1567 H1557 0.930 . S
C1567 C1560 1.409 . S
C1567 C1566 1.362 . S
H1568 C1574 0.930 . S
H1569 C1577 0.930 . S
H1570 C1578 0.930 . S
H1571 C1579 0.930 . S
H1572 C1582 0.930 . S
H1573 C1583 0.930 . S
C1574 H1568 0.930 . S
C1574 C1575 1.355 . S
C1574 C1576 1.415 . S
C1575 C1574 1.355 . S
C1575 C1577 1.419 . S
C1576 C1574 1.415 . S
C1576 C1581 1.425 . S
C1576 C1583 1.409 . S
C1577 H1569 0.930 . S
C1577 C1575 1.419 . S
C1577 C1578 1.362 . S
C1578 H1570 0.930 . S
C1578 C1577 1.362 . S
C1578 C1581 1.409 . S
C1579 H1571 0.930 . S
C1579 C1580 1.355 . S
C1579 C1581 1.415 . S
C1580 C1579 1.355 . S
C1580 C1582 1.419 . S
C1581 C1576 1.425 . S
C1581 C1578 1.409 . S
C1581 C1579 1.415 . S
C1582 H1572 0.930 . S
C1582 C1580 1.419 . S
C1582 C1583 1.362 . S
C1583 H1573 0.930 . S
C1583 C1576 1.409 . S
C1583 C1582 1.362 . S
H1584 C1590 0.930 . S
H1585 C1593 0.930 . S
H1586 C1594 0.930 . S
H1587 C1595 0.930 . S
H1588 C1598 0.930 . S
H1589 C1599 0.930 . S
C1590 H1584 0.930 . S
C1590 C1591 1.355 . S
C1590 C1592 1.415 . S
C1591 C1590 1.355 . S
C1591 C1593 1.419 . S
C1592 C1590 1.415 . S
C1592 C1597 1.425 . S
C1592 C1599 1.409 . S
C1593 H1585 0.930 . S
C1593 C1591 1.419 . S
C1593 C1594 1.362 . S
C1594 H1586 0.930 . S
C1594 C1593 1.362 . S
C1594 C1597 1.409 . S
C1595 H1587 0.930 . S
C1595 C1596 1.355 . S
C1595 C1597 1.415 . S
C1596 C1595 1.355 . S
C1596 C1598 1.419 . S
C1597 C1592 1.425 . S
C1597 C1594 1.409 . S
C1597 C1595 1.415 . S
C1598 H1588 0.930 . S
C1598 C1596 1.419 . S
C1598 C1599 1.362 . S
C1599 H1589 0.930 . S
C1599 C1592 1.409 . S
C1599 C1598 1.362 . S
H1600 C1606 0.930 . S
H1601 C1609 0.930 . S
H1602 C1610 0.930 . S
H1603 C1611 0.930 . S
H1604 C1614 0.930 . S
H1605 C1615 0.930 . S
C1606 H1600 0.930 . S
C1606 C1607 1.355 . S
C1606 C1608 1.415 . S
C1607 C1606 1.355 . S
C1607 C1609 1.419 . S
C1608 C1606 1.415 . S
C1608 C1613 1.425 . S
C1608 C1615 1.409 . S
C1609 H1601 0.930 . S
C1609 C1607 1.419 . S
C1609 C1610 1.362 . S
C1610 H1602 0.930 . S
C1610 C1609 1.362 . S
C1610 C1613 1.409 . S
C1611 H1603 0.930 . S
C1611 C1612 1.355 . S
C1611 C1613 1.415 . S
C1612 C1611 1.355 . S
C1612 C1614 1.419 . S
C1613 C1608 1.425 . S
C1613 C1610 1.409 . S
C1613 C1611 1.415 . S
C1614 H1604 0.930 . S
C1614 C1612 1.419 . S
C1614 C1615 1.362 . S
C1615 H1605 0.930 . S
C1615 C1608 1.409 . S
C1615 C1614 1.362 . S
H1616 C1622 0.930 . S
H1617 C1625 0.930 . S
H1618 C1626 0.930 . S
H1619 C1627 0.930 . S
H1620 C1630 0.930 . S
H1621 C1631 0.930 . S
C1622 H1616 0.930 . S
C1622 C1623 1.355 . S
C1622 C1624 1.415 . S
C1623 C1622 1.355 . S
C1623 C1625 1.419 . S
C1624 C1622 1.415 . S
C1624 C1629 1.425 . S
C1624 C1631 1.409 . S
C1625 H1617 0.930 . S
C1625 C1623 1.419 . S
C1625 C1626 1.362 . S
C1626 H1618 0.930 . S
C1626 C1625 1.362 . S
C1626 C1629 1.409 . S
C1627 H1619 0.930 . S
C1627 C1628 1.355 . S
C1627 C1629 1.415 . S
C1628 C1627 1.355 . S
C1628 C1630 1.419 . S
C1629 C1624 1.425 . S
C1629 C1626 1.409 . S
C1629 C1627 1.415 . S
C1630 H1620 0.930 . S
C1630 C1628 1.419 . S
C1630 C1631 1.362 . S
C1631 H1621 0.930 . S
C1631 C1624 1.409 . S
C1631 C1630 1.362 . S
H1632 C1638 0.930 . S
H1633 C1641 0.930 . S
H1634 C1642 0.930 . S
H1635 C1643 0.930 . S
H1636 C1646 0.930 . S
H1637 C1647 0.930 . S
C1638 H1632 0.930 . S
C1638 C1639 1.355 . S
C1638 C1640 1.415 . S
C1639 C1638 1.355 . S
C1639 C1641 1.419 . S
C1640 C1638 1.415 . S
C1640 C1645 1.425 . S
C1640 C1647 1.409 . S
C1641 H1633 0.930 . S
C1641 C1639 1.419 . S
C1641 C1642 1.362 . S
C1642 H1634 0.930 . S
C1642 C1641 1.362 . S
C1642 C1645 1.409 . S
C1643 H1635 0.930 . S
C1643 C1644 1.355 . S
C1643 C1645 1.415 . S
C1644 C1643 1.355 . S
C1644 C1646 1.419 . S
C1645 C1640 1.425 . S
C1645 C1642 1.409 . S
C1645 C1643 1.415 . S
C1646 H1636 0.930 . S
C1646 C1644 1.419 . S
C1646 C1647 1.362 . S
C1647 H1637 0.930 . S
C1647 C1640 1.409 . S
C1647 C1646 1.362 . S
H1648 C1654 0.930 . S
H1649 C1657 0.930 . S
H1650 C1658 0.930 . S
H1651 C1659 0.930 . S
H1652 C1662 0.930 . S
H1653 C1663 0.930 . S
C1654 H1648 0.930 . S
C1654 C1655 1.355 . S
C1654 C1656 1.415 . S
C1655 C1654 1.355 . S
C1655 C1657 1.419 . S
C1656 C1654 1.415 . S
C1656 C1661 1.425 . S
C1656 C1663 1.409 . S
C1657 H1649 0.930 . S
C1657 C1655 1.419 . S
C1657 C1658 1.362 . S
C1658 H1650 0.930 . S
C1658 C1657 1.362 . S
C1658 C1661 1.409 . S
C1659 H1651 0.930 . S
C1659 C1660 1.355 . S
C1659 C1661 1.415 . S
C1660 C1659 1.355 . S
C1660 C1662 1.419 . S
C1661 C1656 1.425 . S
C1661 C1658 1.409 . S
C1661 C1659 1.415 . S
C1662 H1652 0.930 . S
C1662 C1660 1.419 . S
C1662 C1663 1.362 . S
C1663 H1653 0.930 . S
C1663 C1656 1.409 . S
C1663 C1662 1.362 . S
H1664 C1670 0.930 . S
H1665 C1673 0.930 . S
H1666 C1674 0.930 . S
H1667 C1675 0.930 . S
H1668 C1678 0.930 . S
H1669 C1679 0.930 . S
C1670 H1664 0.930 . S
C1670 C1671 1.355 . S
C1670 C1672 1.415 . S
C1671 C1670 1.355 . S
C1671 C1673 1.419 . S
C1672 C1670 1.415 . S
C1672 C1677 1.425 . S
C1672 C1679 1.409 . S
C1673 H1665 0.930 . S
C1673 C1671 1.419 . S
C1673 C1674 1.362 . S
C1674 H1666 0.930 . S
C1674 C1673 1.362 . S
C1674 C1677 1.409 . S
C1675 H1667 0.930 . S
C1675 C1676 1.355 . S
C1675 C1677 1.415 . S
C1676 C1675 1.355 . S
C1676 C1678 1.419 . S
C1677 C1672 1.425 . S
C1677 C1674 1.409 . S
C1677 C1675 1.415 . S
C1678 H1668 0.930 . S
C1678 C1676 1.419 . S
C1678 C1679 1.362 . S
C1679 H1669 0.930 . S
C1679 C1672 1.409 . S
C1679 C1678 1.362 . S
H1680 C1686 0.930 . S
H1681 C1689 0.930 . S
H1682 C1690 0.930 . S
H1683 C1691 0.930 . S
H1684 C1694 0.930 . S
H1685 C1695 0.930 . S
C1686 H1680 0.930 . S
C1686 C1687 1.355 . S
C1686 C1688 1.415 . S
C1687 C1686 1.355 . S
C1687 C1689 1.419 . S
C1688 C1686 1.415 . S
C1688 C1693 1.425 . S
C1688 C1695 1.409 . S
C1689 H1681 0.930 . S
C1689 C1687 1.419 . S
C1689 C1690 1.362 . S
C1690 H1682 0.930 . S
C1690 C1689 1.362 . S
C1690 C1693 1.409 . S
C1691 H1683 0.930 . S
C1691 C1692 1.355 . S
C1691 C1693 1.415 . S
C1692 C1691 1.355 . S
C1692 C1694 1.419 . S
C1693 C1688 1.425 . S
C1693 C1690 1.409 . S
C1693 C1691 1.415 . S
C1694 H1684 0.930 . S
C1694 C1692 1.419 . S
C1694 C1695 1.362 . S
C1695 H1685 0.930 . S
C1695 C1688 1.409 . S
C1695 C1694 1.362 . S
H1696 C1702 0.930 . S
H1697 C1705 0.930 . S
H1698 C1706 0.930 . S
H1699 C1707 0.930 . S
H1700 C1710 0.930 . S
H1701 C1711 0.930 . S
C1702 H1696 0.930 . S
C1702 C1703 1.355 . S
C1702 C1704 1.415 . S
C1703 C1702 1.355 . S
C1703 C1705 1.419 . S
C1704 C1702 1.415 . S
C1704 C1709 1.425 . S
C1704 C1711 1.409 . S
C1705 H1697 0.930 . S
C1705 C1703 1.419 . S
C1705 C1706 1.362 . S
C1706 H1698 0.930 . S
C1706 C1705 1.362 . S
C1706 C1709 1.409 . S
C1707 H1699 0.930 . S
C1707 C1708 1.355 . S
C1707 C1709 1.415 . S
C1708 C1707 1.355 . S
C1708 C1710 1.419 . S
C1709 C1704 1.425 . S
C1709 C1706 1.409 . S
C1709 C1707 1.415 . S
C1710 H1700 0.930 . S
C1710 C1708 1.419 . S
C1710 C1711 1.362 . S
C1711 H1701 0.930 . S
C1711 C1704 1.409 . S
C1711 C1710 1.362 . S
H1712 C1718 0.930 . S
H1713 C1721 0.930 . S
H1714 C1722 0.930 . S
H1715 C1723 0.930 . S
H1716 C1726 0.930 . S
H1717 C1727 0.930 . S
C1718 H1712 0.930 . S
C1718 C1719 1.355 . S
C1718 C1720 1.415 . S
C1719 C1718 1.355 . S
C1719 C1721 1.419 . S
C1720 C1718 1.415 . S
C1720 C1725 1.425 . S
C1720 C1727 1.409 . S
C1721 H1713 0.930 . S
C1721 C1719 1.419 . S
C1721 C1722 1.362 . S
C1722 H1714 0.930 . S
C1722 C1721 1.362 . S
C1722 C1725 1.409 . S
C1723 H1715 0.930 . S
C1723 C1724 1.355 . S
C1723 C1725 1.415 . S
C1724 C1723 1.355 . S
C1724 C1726 1.419 . S
C1725 C1720 1.425 . S
C1725 C1722 1.409 . S
C1725 C1723 1.415 . S
C1726 H1716 0.930 . S
C1726 C1724 1.419 . S
C1726 C1727 1.362 . S
C1727 H1717 0.930 . S
C1727 C1720 1.409 . S
C1727 C1726 1.362 . S
H1728 C1734 0.930 . S
H1729 C1737 0.930 . S
H1730 C1738 0.930 . S
H1731 C1739 0.930 . S
H1732 C1742 0.930 . S
H1733 C1743 0.930 . S
C1734 H1728 0.930 . S
C1734 C1735 1.355 . S
C1734 C1736 1.415 . S
C1735 C1734 1.355 . S
C1735 C1737 1.419 . S
C1736 C1734 1.415 . S
C1736 C1741 1.425 . S
C1736 C1743 1.409 . S
C1737 H1729 0.930 . S
C1737 C1735 1.419 . S
C1737 C1738 1.362 . S
C1738 H1730 0.930 . S
C1738 C1737 1.362 . S
C1738 C1741 1.409 . S
C1739 H1731 0.930 . S
C1739 C1740 1.355 . S
C1739 C1741 1.415 . S
C1740 C1739 1.355 . S
C1740 C1742 1.419 . S
C1741 C1736 1.425 . S
C1741 C1738 1.409 . S
C1741 C1739 1.415 . S
C1742 H1732 0.930 . S
C1742 C1740 1.419 . S
C1742 C1743 1.362 . S
C1743 H1733 0.930 . S
C1743 C1736 1.409 . S
C1743 C1742 1.362 . S
H1744 C1750 0.930 . S
H1745 C1753 0.930 . S
H1746 C1754 0.930 . S
H1747 C1755 0.930 . S
H1748 C1758 0.930 . S
H1749 C1759 0.930 . S
C1750 H1744 0.930 . S
C1750 C1751 1.355 . S
C1750 C1752 1.415 . S
C1751 C1750 1.355 . S
C1751 C1753 1.419 . S
C1752 C1750 1.415 . S
C1752 C1757 1.425 . S
C1752 C1759 1.409 . S
C1753 H1745 0.930 . S
C1753 C1751 1.419 . S
C1753 C1754 1.362 . S
C1754 H1746 0.930 . S
C1754 C1753 1.362 . S
C1754 C1757 1.409 . S
C1755 H1747 0.930 . S
C1755 C1756 1.355 . S
C1755 C1757 1.415 . S
C1756 C1755 1.355 . S
C1756 C1758 1.419 . S
C1757 C1752 1.425 . S
C1757 C1754 1.409 . S
C1757 C1755 1.415 . S
C1758 H1748 0.930 . S
C1758 C1756 1.419 . S
C1758 C1759 1.362 . S
C1759 H1749 0.930 . S
C1759 C1752 1.409 . S
C1759 C1758 1.362 . S
H1760 C1766 0.930 . S
H1761 C1769 0.930 . S
H1762 C1770 0.930 . S
H1763 C1771 0.930 . S
H1764 C1774 0.930 . S
H1765 C1775 0.930 . S
C1766 H1760 0.930 . S
C1766 C1767 1.355 . S
C1766 C1768 1.415 . S
C1767 C1766 1.355 . S
C1767 C1769 1.419 . S
C1768 C1766 1.415 . S
C1768 C1773 1.425 . S
C1768 C1775 1.409 . S
C1769 H1761 0.930 . S
C1769 C1767 1.419 . S
C1769 C1770 1.362 . S
C1770 H1762 0.930 . S
C1770 C1769 1.362 . S
C1770 C1773 1.409 . S
C1771 H1763 0.930 . S
C1771 C1772 1.355 . S
C1771 C1773 1.415 . S
C1772 C1771 1.355 . S
C1772 C1774 1.419 . S
C1773 C1768 1.425 . S
C1773 C1770 1.409 . S
C1773 C1771 1.415 . S
C1774 H1764 0.930 . S
C1774 C1772 1.419 . S
C1774 C1775 1.362 . S
C1775 H1765 0.930 . S
C1775 C1768 1.409 . S
C1775 C1774 1.362 . S
H1776 C1782 0.930 . S
H1777 C1785 0.930 . S
H1778 C1786 0.930 . S
H1779 C1787 0.930 . S
H1780 C1790 0.930 . S
H1781 C1791 0.930 . S
C1782 H1776 0.930 . S
C1782 C1783 1.355 . S
C1782 C1784 1.415 . S
C1783 C1782 1.355 . S
C1783 C1785 1.419 . S
C1784 C1782 1.415 . S
C1784 C1789 1.425 . S
C1784 C1791 1.409 . S
C1785 H1777 0.930 . S
C1785 C1783 1.419 . S
C1785 C1786 1.362 . S
C1786 H1778 0.930 . S
C1786 C1785 1.362 . S
C1786 C1789 1.409 . S
C1787 H1779 0.930 . S
C1787 C1788 1.355 . S
C1787 C1789 1.415 . S
C1788 C1787 1.355 . S
C1788 C1790 1.419 . S
C1789 C1784 1.425 . S
C1789 C1786 1.409 . S
C1789 C1787 1.415 . S
C1790 H1780 0.930 . S
C1790 C1788 1.419 . S
C1790 C1791 1.362 . S
C1791 H1781 0.930 . S
C1791 C1784 1.409 . S
C1791 C1790 1.362 . S
H1792 C1798 0.930 . S
H1793 C1801 0.930 . S
H1794 C1802 0.930 . S
H1795 C1803 0.930 . S
H1796 C1806 0.930 . S
H1797 C1807 0.930 . S
C1798 H1792 0.930 . S
C1798 C1799 1.355 . S
C1798 C1800 1.415 . S
C1799 C1798 1.355 . S
C1799 C1801 1.419 . S
C1800 C1798 1.415 . S
C1800 C1805 1.425 . S
C1800 C1807 1.409 . S
C1801 H1793 0.930 . S
C1801 C1799 1.419 . S
C1801 C1802 1.362 . S
C1802 H1794 0.930 . S
C1802 C1801 1.362 . S
C1802 C1805 1.409 . S
C1803 H1795 0.930 . S
C1803 C1804 1.355 . S
C1803 C1805 1.415 . S
C1804 C1803 1.355 . S
C1804 C1806 1.419 . S
C1805 C1800 1.425 . S
C1805 C1802 1.409 . S
C1805 C1803 1.415 . S
C1806 H1796 0.930 . S
C1806 C1804 1.419 . S
C1806 C1807 1.362 . S
C1807 H1797 0.930 . S
C1807 C1800 1.409 . S
C1807 C1806 1.362 . S
H1808 C1814 0.930 . S
H1809 C1817 0.930 . S
H1810 C1818 0.930 . S
H1811 C1819 0.930 . S
H1812 C1822 0.930 . S
H1813 C1823 0.930 . S
C1814 H1808 0.930 . S
C1814 C1815 1.355 . S
C1814 C1816 1.415 . S
C1815 C1814 1.355 . S
C1815 C1817 1.419 . S
C1816 C1814 1.415 . S
C1816 C1821 1.425 . S
C1816 C1823 1.409 . S
C1817 H1809 0.930 . S
C1817 C1815 1.419 . S
C1817 C1818 1.362 . S
C1818 H1810 0.930 . S
C1818 C1817 1.362 . S
C1818 C1821 1.409 . S
C1819 H1811 0.930 . S
C1819 C1820 1.355 . S
C1819 C1821 1.415 . S
C1820 C1819 1.355 . S
C1820 C1822 1.419 . S
C1821 C1816 1.425 . S
C1821 C1818 1.409 . S
C1821 C1819 1.415 . S
C1822 H1812 0.930 . S
C1822 C1820 1.419 . S
C1822 C1823 1.362 . S
C1823 H1813 0.930 . S
C1823 C1816 1.409 . S
C1823 C1822 1.362 . S
H1824 C1830 0.930 . S
H1825 C1833 0.930 . S
H1826 C1834 0.930 . S
H1827 C1835 0.930 . S
H1828 C1838 0.930 . S
H1829 C1839 0.930 . S
C1830 H1824 0.930 . S
C1830 C1831 1.355 . S
C1830 C1832 1.415 . S
C1831 C1830 1.355 . S
C1831 C1833 1.419 . S
C1832 C1830 1.415 . S
C1832 C1837 1.425 1_554 S
C1832 C1839 1.409 1_554 S
C1833 H1825 0.930 . S
C1833 C1831 1.419 . S
C1833 C1834 1.362 . S
C1834 H1826 0.930 . S
C1834 C1833 1.362 . S
C1834 C1837 1.409 1_554 S
C1835 H1827 0.930 . S
C1835 C1836 1.355 . S
C1835 C1837 1.415 . S
C1836 C1835 1.355 . S
C1836 C1838 1.419 . S
C1837 C1832 1.425 1_556 S
C1837 C1834 1.409 1_556 S
C1837 C1835 1.415 . S
C1838 H1828 0.930 . S
C1838 C1836 1.419 . S
C1838 C1839 1.362 . S
C1839 H1829 0.930 . S
C1839 C1832 1.409 1_556 S
C1839 C1838 1.362 . S
H1840 C1846 0.930 . S
H1841 C1849 0.930 . S
H1842 C1850 0.930 . S
H1843 C1851 0.930 . S
H1844 C1854 0.930 . S
H1845 C1855 0.930 . S
C1846 H1840 0.930 . S
C1846 C1847 1.355 1_545 S
C1846 C1848 1.415 . S
C1847 C1846 1.355 1_565 S
C1847 C1849 1.419 . S
C1848 C1846 1.415 . S
C1848 C1853 1.425 1_545 S
C1848 C1855 1.409 . S
C1849 H1841 0.930 . S
C1849 C1847 1.419 . S
C1849 C1850 1.362 . S
C1850 H1842 0.930 . S
C1850 C1849 1.362 . S
C1850 C1853 1.409 . S
C1851 H1843 0.930 . S
C1851 C1852 1.355 1_565 S
C1851 C1853 1.415 . S
C1852 C1851 1.355 1_545 S
C1852 C1854 1.419 . S
C1853 C1848 1.425 1_565 S
C1853 C1850 1.409 . S
C1853 C1851 1.415 . S
C1854 H1844 0.930 . S
C1854 C1852 1.419 . S
C1854 C1855 1.362 . S
C1855 H1845 0.930 . S
C1855 C1848 1.409 . S
C1855 C1854 1.362 . S
H1856 C1862 0.930 . S
H1857 C1865 0.930 . S
H1858 C1866 0.930 . S
H1859 C1867 0.930 . S
H1860 C1870 0.930 . S
H1861 C1871 0.930 . S
C1862 H1856 0.930 . S
C1862 C1863 1.355 . S
C1862 C1864 1.415 . S
C1863 C1862 1.355 . S
C1863 C1865 1.419 . S
C1864 C1862 1.415 . S
C1864 C1869 1.425 . S
C1864 C1871 1.409 . S
C1865 H1857 0.930 . S
C1865 C1863 1.419 . S
C1865 C1866 1.362 . S
C1866 H1858 0.930 . S
C1866 C1865 1.362 . S
C1866 C1869 1.409 . S
C1867 H1859 0.930 . S
C1867 C1868 1.355 . S
C1867 C1869 1.415 . S
C1868 C1867 1.355 . S
C1868 C1870 1.419 . S
C1869 C1864 1.425 . S
C1869 C1866 1.409 . S
C1869 C1867 1.415 . S
C1870 H1860 0.930 . S
C1870 C1868 1.419 . S
C1870 C1871 1.362 . S
C1871 H1861 0.930 . S
C1871 C1864 1.409 . S
C1871 C1870 1.362 . S
H1872 C1878 0.930 . S
H1873 C1881 0.930 . S
H1874 C1882 0.930 . S
H1875 C1883 0.930 . S
H1876 C1886 0.930 . S
H1877 C1887 0.930 . S
C1878 H1872 0.930 . S
C1878 C1879 1.355 . S
C1878 C1880 1.415 . S
C1879 C1878 1.355 . S
C1879 C1881 1.419 1_565 S
C1880 C1878 1.415 . S
C1880 C1885 1.425 1_565 S
C1880 C1887 1.409 . S
C1881 H1873 0.930 . S
C1881 C1879 1.419 1_545 S
C1881 C1882 1.362 . S
C1882 H1874 0.930 . S
C1882 C1881 1.362 . S
C1882 C1885 1.409 . S
C1883 H1875 0.930 . S
C1883 C1884 1.355 . S
C1883 C1885 1.415 . S
C1884 C1883 1.355 . S
C1884 C1886 1.419 1_545 S
C1885 C1880 1.425 1_545 S
C1885 C1882 1.409 . S
C1885 C1883 1.415 . S
C1886 H1876 0.930 . S
C1886 C1884 1.419 1_565 S
C1886 C1887 1.362 . S
C1887 H1877 0.930 . S
C1887 C1880 1.409 . S
C1887 C1886 1.362 . S
H1888 C1894 0.930 . S
H1889 C1897 0.930 . S
H1890 C1898 0.930 . S
H1891 C1899 0.930 . S
H1892 C1902 0.930 . S
H1893 C1903 0.930 . S
C1894 H1888 0.930 . S
C1894 C1895 1.355 . S
C1894 C1896 1.415 . S
C1895 C1894 1.355 . S
C1895 C1897 1.419 . S
C1896 C1894 1.415 . S
C1896 C1901 1.425 1_554 S
C1896 C1903 1.409 1_554 S
C1897 H1889 0.930 . S
C1897 C1895 1.419 . S
C1897 C1898 1.362 . S
C1898 H1890 0.930 . S
C1898 C1897 1.362 . S
C1898 C1901 1.409 1_554 S
C1899 H1891 0.930 . S
C1899 C1900 1.355 . S
C1899 C1901 1.415 . S
C1900 C1899 1.355 . S
C1900 C1902 1.419 . S
C1901 C1896 1.425 1_556 S
C1901 C1898 1.409 1_556 S
C1901 C1899 1.415 . S
C1902 H1892 0.930 . S
C1902 C1900 1.419 . S
C1902 C1903 1.362 . S
C1903 H1893 0.930 . S
C1903 C1896 1.409 1_556 S
C1903 C1902 1.362 . S
H1904 C1910 0.930 . S
H1905 C1913 0.930 . S
H1906 C1914 0.930 . S
H1907 C1915 0.930 . S
H1908 C1918 0.930 . S
H1909 C1919 0.930 . S
C1910 H1904 0.930 . S
C1910 C1911 1.355 . S
C1910 C1912 1.415 . S
C1911 C1910 1.355 . S
C1911 C1913 1.419 1_545 S
C1912 C1910 1.415 . S
C1912 C1917 1.425 1_545 S
C1912 C1919 1.409 . S
C1913 H1905 0.930 . S
C1913 C1911 1.419 1_565 S
C1913 C1914 1.362 . S
C1914 H1906 0.930 . S
C1914 C1913 1.362 . S
C1914 C1917 1.409 . S
C1915 H1907 0.930 . S
C1915 C1916 1.355 . S
C1915 C1917 1.415 . S
C1916 C1915 1.355 . S
C1916 C1918 1.419 1_565 S
C1917 C1912 1.425 1_565 S
C1917 C1914 1.409 . S
C1917 C1915 1.415 . S
C1918 H1908 0.930 . S
C1918 C1916 1.419 1_545 S
C1918 C1919 1.362 . S
C1919 H1909 0.930 . S
C1919 C1912 1.409 . S
C1919 C1918 1.362 . S
H1920 C1926 0.930 . S
H1921 C1929 0.930 . S
H1922 C1930 0.930 . S
H1923 C1931 0.930 . S
H1924 C1934 0.930 . S
H1925 C1935 0.930 . S
C1926 H1920 0.930 . S
C1926 C1927 1.355 . S
C1926 C1928 1.415 . S
C1927 C1926 1.355 . S
C1927 C1929 1.419 . S
C1928 C1926 1.415 . S
C1928 C1933 1.425 . S
C1928 C1935 1.409 . S
C1929 H1921 0.930 . S
C1929 C1927 1.419 . S
C1929 C1930 1.362 . S
C1930 H1922 0.930 . S
C1930 C1929 1.362 . S
C1930 C1933 1.409 . S
C1931 H1923 0.930 . S
C1931 C1932 1.355 . S
C1931 C1933 1.415 . S
C1932 C1931 1.355 . S
C1932 C1934 1.419 . S
C1933 C1928 1.425 . S
C1933 C1930 1.409 . S
C1933 C1931 1.415 . S
C1934 H1924 0.930 . S
C1934 C1932 1.419 . S
C1934 C1935 1.362 . S
C1935 H1925 0.930 . S
C1935 C1928 1.409 . S
C1935 C1934 1.362 . S
H1936 C1942 0.930 . S
H1937 C1945 0.930 . S
H1938 C1946 0.930 . S
H1939 C1947 0.930 . S
H1940 C1950 0.930 . S
H1941 C1951 0.930 . S
C1942 H1936 0.930 . S
C1942 C1943 1.355 1_545 S
C1942 C1944 1.415 . S
C1943 C1942 1.355 1_565 S
C1943 C1945 1.419 . S
C1944 C1942 1.415 . S
C1944 C1949 1.425 1_545 S
C1944 C1951 1.409 . S
C1945 H1937 0.930 . S
C1945 C1943 1.419 . S
C1945 C1946 1.362 . S
C1946 H1938 0.930 . S
C1946 C1945 1.362 . S
C1946 C1949 1.409 . S
C1947 H1939 0.930 . S
C1947 C1948 1.355 1_565 S
C1947 C1949 1.415 . S
C1948 C1947 1.355 1_545 S
C1948 C1950 1.419 . S
C1949 C1944 1.425 1_565 S
C1949 C1946 1.409 . S
C1949 C1947 1.415 . S
C1950 H1940 0.930 . S
C1950 C1948 1.419 . S
C1950 C1951 1.362 . S
C1951 H1941 0.930 . S
C1951 C1944 1.409 . S
C1951 C1950 1.362 . S
H1952 C1958 0.930 . S
H1953 C1961 0.930 . S
H1954 C1962 0.930 . S
H1955 C1963 0.930 . S
H1956 C1966 0.930 . S
H1957 C1967 0.930 . S
C1958 H1952 0.930 . S
C1958 C1959 1.355 . S
C1958 C1960 1.415 . S
C1959 C1958 1.355 . S
C1959 C1961 1.419 . S
C1960 C1958 1.415 . S
C1960 C1965 1.425 . S
C1960 C1967 1.409 . S
C1961 H1953 0.930 . S
C1961 C1959 1.419 . S
C1961 C1962 1.362 . S
C1962 H1954 0.930 . S
C1962 C1961 1.362 . S
C1962 C1965 1.409 . S
C1963 H1955 0.930 . S
C1963 C1964 1.355 . S
C1963 C1965 1.415 . S
C1964 C1963 1.355 . S
C1964 C1966 1.419 . S
C1965 C1960 1.425 . S
C1965 C1962 1.409 . S
C1965 C1963 1.415 . S
C1966 H1956 0.930 . S
C1966 C1964 1.419 . S
C1966 C1967 1.362 . S
C1967 H1957 0.930 . S
C1967 C1960 1.409 . S
C1967 C1966 1.362 . S
H1968 C1974 0.930 . S
H1969 C1977 0.930 . S
H1970 C1978 0.930 . S
H1971 C1979 0.930 . S
H1972 C1982 0.930 . S
H1973 C1983 0.930 . S
C1974 H1968 0.930 . S
C1974 C1975 1.355 . S
C1974 C1976 1.415 . S
C1975 C1974 1.355 . S
C1975 C1977 1.419 . S
C1976 C1974 1.415 . S
C1976 C1981 1.425 . S
C1976 C1983 1.409 . S
C1977 H1969 0.930 . S
C1977 C1975 1.419 . S
C1977 C1978 1.362 . S
C1978 H1970 0.930 . S
C1978 C1977 1.362 . S
C1978 C1981 1.409 . S
C1979 H1971 0.930 . S
C1979 C1980 1.355 . S
C1979 C1981 1.415 . S
C1980 C1979 1.355 . S
C1980 C1982 1.419 . S
C1981 C1976 1.425 . S
C1981 C1978 1.409 . S
C1981 C1979 1.415 . S
C1982 H1972 0.930 . S
C1982 C1980 1.419 . S
C1982 C1983 1.362 . S
C1983 H1973 0.930 . S
C1983 C1976 1.409 . S
C1983 C1982 1.362 . S
H1984 C1990 0.930 . S
H1985 C1993 0.930 . S
H1986 C1994 0.930 . S
H1987 C1995 0.930 . S
H1988 C1998 0.930 . S
H1989 C1999 0.930 . S
C1990 H1984 0.930 . S
C1990 C1991 1.355 . S
C1990 C1992 1.415 . S
C1991 C1990 1.355 . S
C1991 C1993 1.419 . S
C1992 C1990 1.415 . S
C1992 C1997 1.425 1_554 S
C1992 C1999 1.409 1_554 S
C1993 H1985 0.930 . S
C1993 C1991 1.419 . S
C1993 C1994 1.362 . S
C1994 H1986 0.930 . S
C1994 C1993 1.362 . S
C1994 C1997 1.409 1_554 S
C1995 H1987 0.930 . S
C1995 C1996 1.355 . S
C1995 C1997 1.415 . S
C1996 C1995 1.355 . S
C1996 C1998 1.419 . S
C1997 C1992 1.425 1_556 S
C1997 C1994 1.409 1_556 S
C1997 C1995 1.415 . S
C1998 H1988 0.930 . S
C1998 C1996 1.419 . S
C1998 C1999 1.362 . S
C1999 H1989 0.930 . S
C1999 C1992 1.409 1_556 S
C1999 C1998 1.362 . S
H2000 C2006 0.930 . S
H2001 C2009 0.930 . S
H2002 C2010 0.930 . S
H2003 C2011 0.930 . S
H2004 C2014 0.930 . S
H2005 C2015 0.930 . S
C2006 H2000 0.930 . S
C2006 C2007 1.355 . S
C2006 C2008 1.415 . S
C2007 C2006 1.355 . S
C2007 C2009 1.419 . S
C2008 C2006 1.415 . S
C2008 C2013 1.425 . S
C2008 C2015 1.409 . S
C2009 H2001 0.930 . S
C2009 C2007 1.419 . S
C2009 C2010 1.362 . S
C2010 H2002 0.930 . S
C2010 C2009 1.362 . S
C2010 C2013 1.409 . S
C2011 H2003 0.930 . S
C2011 C2012 1.355 . S
C2011 C2013 1.415 . S
C2012 C2011 1.355 . S
C2012 C2014 1.419 . S
C2013 C2008 1.425 . S
C2013 C2010 1.409 . S
C2013 C2011 1.415 . S
C2014 H2004 0.930 . S
C2014 C2012 1.419 . S
C2014 C2015 1.362 . S
C2015 H2005 0.930 . S
C2015 C2008 1.409 . S
C2015 C2014 1.362 . S
H2016 C2022 0.930 . S
H2017 C2025 0.930 . S
H2018 C2026 0.930 . S
H2019 C2027 0.930 . S
H2020 C2030 0.930 . S
H2021 C2031 0.930 . S
C2022 H2016 0.930 . S
C2022 C2023 1.355 . S
C2022 C2024 1.415 . S
C2023 C2022 1.355 . S
C2023 C2025 1.419 . S
C2024 C2022 1.415 . S
C2024 C2029 1.425 . S
C2024 C2031 1.409 . S
C2025 H2017 0.930 . S
C2025 C2023 1.419 . S
C2025 C2026 1.362 . S
C2026 H2018 0.930 . S
C2026 C2025 1.362 . S
C2026 C2029 1.409 . S
C2027 H2019 0.930 . S
C2027 C2028 1.355 . S
C2027 C2029 1.415 . S
C2028 C2027 1.355 . S
C2028 C2030 1.419 . S
C2029 C2024 1.425 . S
C2029 C2026 1.409 . S
C2029 C2027 1.415 . S
C2030 H2020 0.930 . S
C2030 C2028 1.419 . S
C2030 C2031 1.362 . S
C2031 H2021 0.930 . S
C2031 C2024 1.409 . S
C2031 C2030 1.362 . S
H2032 C2038 0.930 . S
H2033 C2041 0.930 . S
H2034 C2042 0.930 . S
H2035 C2043 0.930 . S
H2036 C2046 0.930 . S
H2037 C2047 0.930 . S
C2038 H2032 0.930 . S
C2038 C2039 1.355 . S
C2038 C2040 1.415 . S
C2039 C2038 1.355 . S
C2039 C2041 1.419 . S
C2040 C2038 1.415 . S
C2040 C2045 1.425 . S
C2040 C2047 1.409 . S
C2041 H2033 0.930 . S
C2041 C2039 1.419 . S
C2041 C2042 1.362 . S
C2042 H2034 0.930 . S
C2042 C2041 1.362 . S
C2042 C2045 1.409 . S
C2043 H2035 0.930 . S
C2043 C2044 1.355 . S
C2043 C2045 1.415 . S
C2044 C2043 1.355 . S
C2044 C2046 1.419 . S
C2045 C2040 1.425 . S
C2045 C2042 1.409 . S
C2045 C2043 1.415 . S
C2046 H2036 0.930 . S
C2046 C2044 1.419 . S
C2046 C2047 1.362 . S
C2047 H2037 0.930 . S
C2047 C2040 1.409 . S
C2047 C2046 1.362 . S
H2048 C2054 0.930 . S
H2049 C2057 0.930 . S
H2050 C2058 0.930 . S
H2051 C2059 0.930 . S
H2052 C2062 0.930 . S
H2053 C2063 0.930 . S
C2054 H2048 0.930 . S
C2054 C2055 1.355 . S
C2054 C2056 1.415 . S
C2055 C2054 1.355 . S
C2055 C2057 1.419 . S
C2056 C2054 1.415 . S
C2056 C2061 1.425 1_556 S
C2056 C2063 1.409 1_556 S
C2057 H2049 0.930 . S
C2057 C2055 1.419 . S
C2057 C2058 1.362 . S
C2058 H2050 0.930 . S
C2058 C2057 1.362 . S
C2058 C2061 1.409 1_556 S
C2059 H2051 0.930 . S
C2059 C2060 1.355 . S
C2059 C2061 1.415 . S
C2060 C2059 1.355 . S
C2060 C2062 1.419 . S
C2061 C2056 1.425 1_554 S
C2061 C2058 1.409 1_554 S
C2061 C2059 1.415 . S
C2062 H2052 0.930 . S
C2062 C2060 1.419 . S
C2062 C2063 1.362 . S
C2063 H2053 0.930 . S
C2063 C2056 1.409 1_554 S
C2063 C2062 1.362 . S
H2064 C2070 0.930 . S
H2065 C2073 0.930 . S
H2066 C2074 0.930 . S
H2067 C2075 0.930 . S
H2068 C2078 0.930 . S
H2069 C2079 0.930 . S
C2070 H2064 0.930 . S
C2070 C2071 1.355 . S
C2070 C2072 1.415 . S
C2071 C2070 1.355 . S
C2071 C2073 1.419 . S
C2072 C2070 1.415 . S
C2072 C2077 1.425 . S
C2072 C2079 1.409 . S
C2073 H2065 0.930 . S
C2073 C2071 1.419 . S
C2073 C2074 1.362 . S
C2074 H2066 0.930 . S
C2074 C2073 1.362 . S
C2074 C2077 1.409 . S
C2075 H2067 0.930 . S
C2075 C2076 1.355 . S
C2075 C2077 1.415 . S
C2076 C2075 1.355 . S
C2076 C2078 1.419 . S
C2077 C2072 1.425 . S
C2077 C2074 1.409 . S
C2077 C2075 1.415 . S
C2078 H2068 0.930 . S
C2078 C2076 1.419 . S
C2078 C2079 1.362 . S
C2079 H2069 0.930 . S
C2079 C2072 1.409 . S
C2079 C2078 1.362 . S
H2080 C2086 0.930 . S
H2081 C2089 0.930 . S
H2082 C2090 0.930 . S
H2083 C2091 0.930 . S
H2084 C2094 0.930 . S
H2085 C2095 0.930 . S
C2086 H2080 0.930 . S
C2086 C2087 1.355 . S
C2086 C2088 1.415 . S
C2087 C2086 1.355 . S
C2087 C2089 1.419 . S
C2088 C2086 1.415 . S
C2088 C2093 1.425 . S
C2088 C2095 1.409 . S
C2089 H2081 0.930 . S
C2089 C2087 1.419 . S
C2089 C2090 1.362 . S
C2090 H2082 0.930 . S
C2090 C2089 1.362 . S
C2090 C2093 1.409 . S
C2091 H2083 0.930 . S
C2091 C2092 1.355 . S
C2091 C2093 1.415 . S
C2092 C2091 1.355 . S
C2092 C2094 1.419 . S
C2093 C2088 1.425 . S
C2093 C2090 1.409 . S
C2093 C2091 1.415 . S
C2094 H2084 0.930 . S
C2094 C2092 1.419 . S
C2094 C2095 1.362 . S
C2095 H2085 0.930 . S
C2095 C2088 1.409 . S
C2095 C2094 1.362 . S
H2096 C2102 0.930 . S
H2097 C2105 0.930 . S
H2098 C2106 0.930 . S
H2099 C2107 0.930 . S
H2100 C2110 0.930 . S
H2101 C2111 0.930 . S
C2102 H2096 0.930 . S
C2102 C2103 1.355 . S
C2102 C2104 1.415 . S
C2103 C2102 1.355 . S
C2103 C2105 1.419 . S
C2104 C2102 1.415 . S
C2104 C2109 1.425 . S
C2104 C2111 1.409 . S
C2105 H2097 0.930 . S
C2105 C2103 1.419 . S
C2105 C2106 1.362 . S
C2106 H2098 0.930 . S
C2106 C2105 1.362 . S
C2106 C2109 1.409 . S
C2107 H2099 0.930 . S
C2107 C2108 1.355 . S
C2107 C2109 1.415 . S
C2108 C2107 1.355 . S
C2108 C2110 1.419 . S
C2109 C2104 1.425 . S
C2109 C2106 1.409 . S
C2109 C2107 1.415 . S
C2110 H2100 0.930 . S
C2110 C2108 1.419 . S
C2110 C2111 1.362 . S
C2111 H2101 0.930 . S
C2111 C2104 1.409 . S
C2111 C2110 1.362 . S
H2112 C2118 0.930 . S
H2113 C2121 0.930 . S
H2114 C2122 0.930 . S
H2115 C2123 0.930 . S
H2116 C2126 0.930 . S
H2117 C2127 0.930 . S
C2118 H2112 0.930 . S
C2118 C2119 1.355 . S
C2118 C2120 1.415 . S
C2119 C2118 1.355 . S
C2119 C2121 1.419 . S
C2120 C2118 1.415 . S
C2120 C2125 1.425 . S
C2120 C2127 1.409 . S
C2121 H2113 0.930 . S
C2121 C2119 1.419 . S
C2121 C2122 1.362 . S
C2122 H2114 0.930 . S
C2122 C2121 1.362 . S
C2122 C2125 1.409 . S
C2123 H2115 0.930 . S
C2123 C2124 1.355 . S
C2123 C2125 1.415 . S
C2124 C2123 1.355 . S
C2124 C2126 1.419 . S
C2125 C2120 1.425 . S
C2125 C2122 1.409 . S
C2125 C2123 1.415 . S
C2126 H2116 0.930 . S
C2126 C2124 1.419 . S
C2126 C2127 1.362 . S
C2127 H2117 0.930 . S
C2127 C2120 1.409 . S
C2127 C2126 1.362 . S
H2128 C2134 0.930 . S
H2129 C2137 0.930 . S
H2130 C2138 0.930 . S
H2131 C2139 0.930 . S
H2132 C2142 0.930 . S
H2133 C2143 0.930 . S
C2134 H2128 0.930 . S
C2134 C2135 1.355 . S
C2134 C2136 1.415 . S
C2135 C2134 1.355 . S
C2135 C2137 1.419 . S
C2136 C2134 1.415 . S
C2136 C2141 1.425 . S
C2136 C2143 1.409 . S
C2137 H2129 0.930 . S
C2137 C2135 1.419 . S
C2137 C2138 1.362 . S
C2138 H2130 0.930 . S
C2138 C2137 1.362 . S
C2138 C2141 1.409 . S
C2139 H2131 0.930 . S
C2139 C2140 1.355 . S
C2139 C2141 1.415 . S
C2140 C2139 1.355 . S
C2140 C2142 1.419 . S
C2141 C2136 1.425 . S
C2141 C2138 1.409 . S
C2141 C2139 1.415 . S
C2142 H2132 0.930 . S
C2142 C2140 1.419 . S
C2142 C2143 1.362 . S
C2143 H2133 0.930 . S
C2143 C2136 1.409 . S
C2143 C2142 1.362 . S
H2144 C2150 0.930 . S
H2145 C2153 0.930 . S
H2146 C2154 0.930 . S
H2147 C2155 0.930 . S
H2148 C2158 0.930 . S
H2149 C2159 0.930 . S
C2150 H2144 0.930 . S
C2150 C2151 1.355 . S
C2150 C2152 1.415 . S
C2151 C2150 1.355 . S
C2151 C2153 1.419 . S
C2152 C2150 1.415 . S
C2152 C2157 1.425 . S
C2152 C2159 1.409 . S
C2153 H2145 0.930 . S
C2153 C2151 1.419 . S
C2153 C2154 1.362 . S
C2154 H2146 0.930 . S
C2154 C2153 1.362 . S
C2154 C2157 1.409 . S
C2155 H2147 0.930 . S
C2155 C2156 1.355 . S
C2155 C2157 1.415 . S
C2156 C2155 1.355 . S
C2156 C2158 1.419 . S
C2157 C2152 1.425 . S
C2157 C2154 1.409 . S
C2157 C2155 1.415 . S
C2158 H2148 0.930 . S
C2158 C2156 1.419 . S
C2158 C2159 1.362 . S
C2159 H2149 0.930 . S
C2159 C2152 1.409 . S
C2159 C2158 1.362 . S
H2160 C2166 0.930 . S
H2161 C2169 0.930 . S
H2162 C2170 0.930 . S
H2163 C2171 0.930 . S
H2164 C2174 0.930 . S
H2165 C2175 0.930 . S
C2166 H2160 0.930 . S
C2166 C2167 1.355 . S
C2166 C2168 1.415 . S
C2167 C2166 1.355 . S
C2167 C2169 1.419 . S
C2168 C2166 1.415 . S
C2168 C2173 1.425 . S
C2168 C2175 1.409 . S
C2169 H2161 0.930 . S
C2169 C2167 1.419 . S
C2169 C2170 1.362 . S
C2170 H2162 0.930 . S
C2170 C2169 1.362 . S
C2170 C2173 1.409 . S
C2171 H2163 0.930 . S
C2171 C2172 1.355 . S
C2171 C2173 1.415 . S
C2172 C2171 1.355 . S
C2172 C2174 1.419 . S
C2173 C2168 1.425 . S
C2173 C2170 1.409 . S
C2173 C2171 1.415 . S
C2174 H2164 0.930 . S
C2174 C2172 1.419 . S
C2174 C2175 1.362 . S
C2175 H2165 0.930 . S
C2175 C2168 1.409 . S
C2175 C2174 1.362 . S
H2176 C2182 0.930 . S
H2177 C2185 0.930 . S
H2178 C2186 0.930 . S
H2179 C2187 0.930 . S
H2180 C2190 0.930 . S
H2181 C2191 0.930 . S
C2182 H2176 0.930 . S
C2182 C2183 1.355 . S
C2182 C2184 1.415 . S
C2183 C2182 1.355 . S
C2183 C2185 1.419 . S
C2184 C2182 1.415 . S
C2184 C2189 1.425 . S
C2184 C2191 1.409 . S
C2185 H2177 0.930 . S
C2185 C2183 1.419 . S
C2185 C2186 1.362 . S
C2186 H2178 0.930 . S
C2186 C2185 1.362 . S
C2186 C2189 1.409 . S
C2187 H2179 0.930 . S
C2187 C2188 1.355 . S
C2187 C2189 1.415 . S
C2188 C2187 1.355 . S
C2188 C2190 1.419 . S
C2189 C2184 1.425 . S
C2189 C2186 1.409 . S
C2189 C2187 1.415 . S
C2190 H2180 0.930 . S
C2190 C2188 1.419 . S
C2190 C2191 1.362 . S
C2191 H2181 0.930 . S
C2191 C2184 1.409 . S
C2191 C2190 1.362 . S
H2192 C2198 0.930 . S
H2193 C2201 0.930 . S
H2194 C2202 0.930 . S
H2195 C2203 0.930 . S
H2196 C2206 0.930 . S
H2197 C2207 0.930 . S
C2198 H2192 0.930 . S
C2198 C2199 1.355 . S
C2198 C2200 1.415 . S
C2199 C2198 1.355 . S
C2199 C2201 1.419 . S
C2200 C2198 1.415 . S
C2200 C2205 1.425 . S
C2200 C2207 1.409 . S
C2201 H2193 0.930 . S
C2201 C2199 1.419 . S
C2201 C2202 1.362 . S
C2202 H2194 0.930 . S
C2202 C2201 1.362 . S
C2202 C2205 1.409 . S
C2203 H2195 0.930 . S
C2203 C2204 1.355 . S
C2203 C2205 1.415 . S
C2204 C2203 1.355 . S
C2204 C2206 1.419 . S
C2205 C2200 1.425 . S
C2205 C2202 1.409 . S
C2205 C2203 1.415 . S
C2206 H2196 0.930 . S
C2206 C2204 1.419 . S
C2206 C2207 1.362 . S
C2207 H2197 0.930 . S
C2207 C2200 1.409 . S
C2207 C2206 1.362 . S
H2208 C2214 0.930 . S
H2209 C2217 0.930 . S
H2210 C2218 0.930 . S
H2211 C2219 0.930 . S
H2212 C2222 0.930 . S
H2213 C2223 0.930 . S
C2214 H2208 0.930 . S
C2214 C2215 1.355 . S
C2214 C2216 1.415 . S
C2215 C2214 1.355 . S
C2215 C2217 1.419 . S
C2216 C2214 1.415 . S
C2216 C2221 1.425 . S
C2216 C2223 1.409 . S
C2217 H2209 0.930 . S
C2217 C2215 1.419 . S
C2217 C2218 1.362 . S
C2218 H2210 0.930 . S
C2218 C2217 1.362 . S
C2218 C2221 1.409 . S
C2219 H2211 0.930 . S
C2219 C2220 1.355 . S
C2219 C2221 1.415 . S
C2220 C2219 1.355 . S
C2220 C2222 1.419 . S
C2221 C2216 1.425 . S
C2221 C2218 1.409 . S
C2221 C2219 1.415 . S
C2222 H2212 0.930 . S
C2222 C2220 1.419 . S
C2222 C2223 1.362 . S
C2223 H2213 0.930 . S
C2223 C2216 1.409 . S
C2223 C2222 1.362 . S
H2224 C2230 0.930 . S
H2225 C2233 0.899 1_565 S
H2226 C2234 0.930 . S
H2227 C2235 0.930 . S
H2228 C2238 0.930 . S
H2229 C2239 0.930 . S
C2230 H2224 0.930 . S
C2230 C2231 1.355 . S
C2230 C2232 1.415 . S
C2231 C2230 1.355 . S
C2231 C2233 1.419 . S
C2232 C2230 1.415 . S
C2232 C2237 1.425 . S
C2232 C2239 1.409 . S
C2233 H2225 0.899 1_545 S
C2233 C2231 1.419 . S
C2233 C2234 1.362 . S
C2234 H2226 0.930 . S
C2234 C2233 1.362 . S
C2234 C2237 1.409 . S
C2235 H2227 0.930 . S
C2235 C2236 1.355 . S
C2235 C2237 1.415 . S
C2236 C2235 1.355 . S
C2236 C2238 1.419 . S
C2237 C2232 1.425 . S
C2237 C2234 1.409 . S
C2237 C2235 1.415 . S
C2238 H2228 0.930 . S
C2238 C2236 1.419 . S
C2238 C2239 1.362 . S
C2239 H2229 0.930 . S
C2239 C2232 1.409 . S
C2239 C2238 1.362 . S
H2240 C2246 0.930 . S
H2241 C2249 0.930 . S
H2242 C2250 0.930 . S
H2243 C2251 0.930 . S
H2244 C2254 0.930 . S
H2245 C2255 0.930 . S
C2246 H2240 0.930 . S
C2246 C2247 1.355 . S
C2246 C2248 1.415 . S
C2247 C2246 1.355 . S
C2247 C2249 1.419 . S
C2248 C2246 1.415 . S
C2248 C2253 1.425 . S
C2248 C2255 1.409 . S
C2249 H2241 0.930 . S
C2249 C2247 1.419 . S
C2249 C2250 1.362 . S
C2250 H2242 0.930 . S
C2250 C2249 1.362 . S
C2250 C2253 1.409 . S
C2251 H2243 0.930 . S
C2251 C2252 1.355 . S
C2251 C2253 1.415 . S
C2252 C2251 1.355 . S
C2252 C2254 1.419 . S
C2253 C2248 1.425 . S
C2253 C2250 1.409 . S
C2253 C2251 1.415 . S
C2254 H2244 0.930 . S
C2254 C2252 1.419 . S
C2254 C2255 1.362 . S
C2255 H2245 0.930 . S
C2255 C2248 1.409 . S
C2255 C2254 1.362 . S
H2256 C2262 0.930 . S
H2257 C2265 0.923 1_545 S
H2258 C2266 0.930 . S
H2259 C2267 0.930 . S
H2260 C2270 0.930 . S
H2261 C2271 0.930 . S
C2262 H2256 0.930 . S
C2262 C2263 1.355 . S
C2262 C2264 1.415 . S
C2263 C2262 1.355 . S
C2263 C2265 1.419 . S
C2264 C2262 1.415 . S
C2264 C2269 1.425 . S
C2264 C2271 1.409 . S
C2265 H2257 0.923 1_565 S
C2265 C2263 1.419 . S
C2265 C2266 1.362 . S
C2266 H2258 0.930 . S
C2266 C2265 1.362 . S
C2266 C2269 1.409 . S
C2267 H2259 0.930 . S
C2267 C2268 1.355 . S
C2267 C2269 1.415 . S
C2268 C2267 1.355 . S
C2268 C2270 1.419 . S
C2269 C2264 1.425 . S
C2269 C2266 1.409 . S
C2269 C2267 1.415 . S
C2270 H2260 0.930 . S
C2270 C2268 1.419 . S
C2270 C2271 1.362 . S
C2271 H2261 0.930 . S
C2271 C2264 1.409 . S
C2271 C2270 1.362 . S
H2272 C2278 0.930 . S
H2273 C2281 0.930 . S
H2274 C2282 0.930 . S
H2275 C2283 0.930 . S
H2276 C2286 0.930 . S
H2277 C2287 0.930 . S
C2278 H2272 0.930 . S
C2278 C2279 1.355 . S
C2278 C2280 1.415 . S
C2279 C2278 1.355 . S
C2279 C2281 1.419 . S
C2280 C2278 1.415 . S
C2280 C2285 1.425 . S
C2280 C2287 1.409 . S
C2281 H2273 0.930 . S
C2281 C2279 1.419 . S
C2281 C2282 1.362 . S
C2282 H2274 0.930 . S
C2282 C2281 1.362 . S
C2282 C2285 1.409 . S
C2283 H2275 0.930 . S
C2283 C2284 1.355 . S
C2283 C2285 1.415 . S
C2284 C2283 1.355 . S
C2284 C2286 1.419 . S
C2285 C2280 1.425 . S
C2285 C2282 1.409 . S
C2285 C2283 1.415 . S
C2286 H2276 0.930 . S
C2286 C2284 1.419 . S
C2286 C2287 1.362 . S
C2287 H2277 0.930 . S
C2287 C2280 1.409 . S
C2287 C2286 1.362 . S
H2288 C2294 0.930 . S
H2289 C2297 0.930 . S
H2290 C2298 0.930 . S
H2291 C2299 0.930 . S
H2292 C2302 0.930 . S
H2293 C2303 0.930 . S
C2294 H2288 0.930 . S
C2294 C2295 1.355 . S
C2294 C2296 1.415 . S
C2295 C2294 1.355 . S
C2295 C2297 1.419 . S
C2296 C2294 1.415 . S
C2296 C2301 1.425 . S
C2296 C2303 1.409 . S
C2297 H2289 0.930 . S
C2297 C2295 1.419 . S
C2297 C2298 1.362 . S
C2298 H2290 0.930 . S
C2298 C2297 1.362 . S
C2298 C2301 1.409 . S
C2299 H2291 0.930 . S
C2299 C2300 1.355 . S
C2299 C2301 1.415 . S
C2300 C2299 1.355 . S
C2300 C2302 1.419 . S
C2301 C2296 1.425 . S
C2301 C2298 1.409 . S
C2301 C2299 1.415 . S
C2302 H2292 0.930 . S
C2302 C2300 1.419 . S
C2302 C2303 1.362 . S
C2303 H2293 0.930 . S
C2303 C2296 1.409 . S
C2303 C2302 1.362 . S
H2304 C2310 0.930 . S
H2305 C2313 0.930 . S
H2306 C2314 0.930 . S
H2307 C2315 0.930 . S
H2308 C2318 0.930 . S
H2309 C2319 0.930 . S
C2310 H2304 0.930 . S
C2310 C2311 1.355 . S
C2310 C2312 1.415 . S
C2311 C2310 1.355 . S
C2311 C2313 1.419 . S
C2312 C2310 1.415 . S
C2312 C2317 1.425 . S
C2312 C2319 1.409 . S
C2313 H2305 0.930 . S
C2313 C2311 1.419 . S
C2313 C2314 1.362 . S
C2314 H2306 0.930 . S
C2314 C2313 1.362 . S
C2314 C2317 1.409 . S
C2315 H2307 0.930 . S
C2315 C2316 1.355 . S
C2315 C2317 1.415 . S
C2316 C2315 1.355 . S
C2316 C2318 1.419 . S
C2317 C2312 1.425 . S
C2317 C2314 1.409 . S
C2317 C2315 1.415 . S
C2318 H2308 0.930 . S
C2318 C2316 1.419 . S
C2318 C2319 1.362 . S
C2319 H2309 0.930 . S
C2319 C2312 1.409 . S
C2319 C2318 1.362 . S
H2320 C2326 0.930 . S
H2321 C2329 0.930 1_545 S
H2322 C2330 0.930 . S
H2323 C2331 0.930 . S
H2324 C2334 0.930 . S
H2325 C2335 0.930 . S
C2326 H2320 0.930 . S
C2326 C2327 1.355 . S
C2326 C2328 1.415 . S
C2327 C2326 1.355 . S
C2327 C2329 1.419 . S
C2328 C2326 1.415 . S
C2328 C2333 1.425 . S
C2328 C2335 1.409 . S
C2329 H2321 0.930 1_565 S
C2329 C2327 1.419 . S
C2329 C2330 1.362 . S
C2330 H2322 0.930 . S
C2330 C2329 1.362 . S
C2330 C2333 1.409 . S
C2331 H2323 0.930 . S
C2331 C2332 1.355 . S
C2331 C2333 1.415 . S
C2332 C2331 1.355 . S
C2332 C2334 1.419 . S
C2333 C2328 1.425 . S
C2333 C2330 1.409 . S
C2333 C2331 1.415 . S
C2334 H2324 0.930 . S
C2334 C2332 1.419 . S
C2334 C2335 1.362 . S
C2335 H2325 0.930 . S
C2335 C2328 1.409 . S
C2335 C2334 1.362 . S
C1063 C28 1.564 . S
C1068 C820 1.564 . S
C1079 C325 1.563 . S
C1084 C61 1.563 . S
C1095 C886 1.567 . S
C1100 C94 1.567 . S
C1111 C391 1.563 . S
C1116 C127 1.563 . S
C1127 C952 1.562 . S
C1132 C160 1.562 . S
C1143 C457 1.569 . S
C1148 C193 1.569 . S
C1159 C1018 1.569 . S
C1164 C226 1.569 . S
C1175 C523 1.561 . S
C1180 C259 1.561 . S
C1191 C292 1.569 . S
C1196 C556 1.569 . S
C1207 C358 1.568 . S
C1212 C622 1.568 . S
C1223 C424 1.560 . S
C1228 C688 1.560 . S
C1239 C754 1.565 . S
C1244 C490 1.565 . S
C1255 C589 1.560 . S
C1260 C853 1.560 . S
C1271 C919 1.560 . S
C1276 C655 1.560 . S
C1287 C721 1.568 . S
C1292 C985 1.568 . S
C1303 C1051 1.563 . S
C1308 C787 1.563 . S
C1319 N5 1.250 . S
C1324 C380 1.303 . S
C1335 N38 1.300 . S
C1340 C809 1.322 . S
C1351 C314 1.346 . S
C1356 N71 1.313 . S
C1367 N104 1.322 . S
C1372 C875 1.350 . S
C1383 C446 1.310 . S
C1388 N137 1.278 . S
C1399 C1007 1.308 . S
C1404 N170 1.274 . S
C1415 N203 1.334 . S
C1420 C512 1.348 . S
C1431 C941 1.347 . S
C1436 N236 1.316 . S
C1447 N269 1.264 . S
C1452 C116 1.318 . S
C1463 N302 1.305 . S
C1468 C545 1.342 . S
C1479 C50 1.324 . S
C1484 N335 1.273 . S
C1495 N368 1.261 . S
C1500 C611 1.303 . S
C1511 N401 1.251 . S
C1516 C182 1.306 . S
C1527 C743 1.352 . S
C1532 N434 1.332 . S
C1543 C248 1.352 . S
C1548 N467 1.334 . S
C1559 N500 1.290 . S
C1564 C677 1.335 . S
C1575 C908 1.351 . S
C1580 N533 1.325 . S
C1591 C281 1.351 . S
C1596 N566 1.327 . S
C1607 C842 1.335 . S
C1612 N599 1.292 . S
C1623 N632 1.274 . S
C1628 C347 1.308 . S
C1639 C974 1.352 . S
C1644 N665 1.331 . S
C1655 C479 1.307 . S
C1660 N698 1.271 . S
C1671 N731 1.323 . S
C1676 C1040 1.337 . S
C1687 C413 1.350 . S
C1692 N764 1.335 . S
C1703 C644 1.342 . S
C1708 N797 1.304 . S
C1719 N830 1.314 . S
C1724 C17 1.346 . S
C1735 N863 1.322 . S
C1740 C578 1.350 . S
C1751 C83 1.305 . S
C1756 N896 1.250 . S
C1767 C710 1.308 . S
C1772 N929 1.274 . S
C1783 N962 1.279 . S
C1788 C215 1.328 . S
C1799 C776 1.306 . S
C1804 N995 1.252 . S
C1815 C149 1.351 . S
C1820 N1028 1.325 . S
C1831 C8 1.100 . S
C1836 C206 1.084 . S
C1847 C239 1.080 . S
C1852 C41 1.064 . S
C1863 C74 1.093 . S
C1868 C140 1.076 . S
C1879 C107 1.109 . S
C1884 C173 1.110 . S
C1895 C470 1.108 . S
C1900 C272 1.110 . S
C1911 C503 1.098 . S
C1916 C305 1.082 . S
C1927 C404 1.109 . S
C1932 C338 1.109 . S
C1943 C437 1.056 . S
C1948 C371 1.068 . S
C1959 C536 1.067 . S
C1964 C734 1.056 . S
C1975 C569 1.110 . S
C1980 C767 1.107 . S
C1991 C602 1.107 . S
C1996 C668 1.110 . S
C2007 C635 1.083 . S
C2012 C701 1.066 . S
C2023 C998 1.055 . S
C2028 C800 1.053 . S
C2039 C1031 1.106 . S
C2044 C833 1.110 . S
C2055 C866 1.110 . S
C2060 C932 1.108 . S
C2071 C899 1.096 . S
C2076 C965 1.080 . S
C2087 N14 1.822 . S
C2092 N707 1.822 . S
C2103 N47 1.819 . S
C2108 N740 1.819 . S
C2119 N80 1.827 . S
C2124 N773 1.827 . S
C2135 N113 1.835 . S
C2140 N674 1.834 . S
C2151 N641 1.819 . S
C2156 N146 1.819 . S
C2167 N179 1.820 . S
C2172 N542 1.820 . S
C2183 N575 1.830 . S
C2188 N212 1.830 . S
C2199 N245 1.827 . S
C2204 N608 1.827 . S
C2215 N971 1.842 . S
C2220 N278 1.842 . S
C2231 N311 1.827 . S
C2236 N1004 1.827 . S
C2247 N1037 1.823 . S
C2252 N344 1.823 . S
C2263 N377 1.827 . S
C2268 N938 1.826 . S
C2279 N410 1.826 . S
C2284 N905 1.826 . S
C2295 N806 1.826 . S
C2300 N443 1.826 . S
C2311 N476 1.837 . S
C2316 N839 1.837 . S
C2327 N509 1.830 . S
C2332 N872 1.830 . S
