# Generated by pormake.
# Topology tfs, (6)-cn, num edge types: 1
# Building blocks:
#     Node 0, Type 0, BuildingBlock: BETDEL_clean_sbu_0, # of connection points: 6
#     Node 1, Type 0, BuildingBlock: BETDEL_clean_sbu_0, # of connection points: 6
#     Node 2, Type 0, BuildingBlock: BETDEL_clean_sbu_0, # of connection points: 6
#     Node 3, Type 0, BuildingBlock: BETDEL_clean_sbu_0, # of connection points: 6
#     Node 4, Type 0, BuildingBlock: BETDEL_clean_sbu_0, # of connection points: 6
#     Node 5, Type 0, BuildingBlock: BETDEL_clean_sbu_0, # of connection points: 6
#     Edge 6, Type (0, 0), BuildingBlock: OJICUG_clean_linker_0, # of connection points: 2
#     Edge 7, Type (0, 0), BuildingBlock: OJICUG_clean_linker_0, # of connection points: 2
#     Edge 8, Type (0, 0), BuildingBlock: OJICUG_clean_linker_0, # of connection points: 2
#     Edge 9, Type (0, 0), BuildingBlock: OJICUG_clean_linker_0, # of connection points: 2
#     Edge 10, Type (0, 0), BuildingBlock: OJICUG_clean_linker_0, # of connection points: 2
#     Edge 11, Type (0, 0), BuildingBlock: OJICUG_clean_linker_0, # of connection points: 2
#     Edge 12, Type (0, 0), BuildingBlock: OJICUG_clean_linker_0, # of connection points: 2
#     Edge 13, Type (0, 0), BuildingBlock: OJICUG_clean_linker_0, # of connection points: 2
#     Edge 14, Type (0, 0), BuildingBlock: OJICUG_clean_linker_0, # of connection points: 2
#     Edge 15, Type (0, 0), BuildingBlock: OJICUG_clean_linker_0, # of connection points: 2
#     Edge 16, Type (0, 0), BuildingBlock: OJICUG_clean_linker_0, # of connection points: 2
#     Edge 17, Type (0, 0), BuildingBlock: OJICUG_clean_linker_0, # of connection points: 2
#     Edge 18, Type (0, 0), BuildingBlock: OJICUG_clean_linker_0, # of connection points: 2
#     Edge 19, Type (0, 0), BuildingBlock: OJICUG_clean_linker_0, # of connection points: 2
#     Edge 20, Type (0, 0), BuildingBlock: OJICUG_clean_linker_0, # of connection points: 2
#     Edge 21, Type (0, 0), BuildingBlock: OJICUG_clean_linker_0, # of connection points: 2
#     Edge 22, Type (0, 0), BuildingBlock: OJICUG_clean_linker_0, # of connection points: 2
#     Edge 23, Type (0, 0), BuildingBlock: OJICUG_clean_linker_0, # of connection points: 2
# Relax obj value: 0.453
# Max RMSD: 0.293
# Mean RMSD: 0.258
data_MOF--net-tfs--node1-BETDEL_clean_sbu_0--edge1-OJICUG_clean_linker_0
_symmetry_space_group_name_H-M    P1
_symmetry_Int_Tables_number       1
_symmetry_cell_setting            triclinic
loop_
_symmetry_equiv_pos_as_xyz
'x, y, z'
_cell_length_a     34.315615
_cell_length_b     33.513448
_cell_length_c     10.443675
_cell_angle_alpha  90.516208
_cell_angle_beta   91.119177
_cell_angle_gamma 122.75834
loop_
_atom_site_label
_atom_site_type_symbol
_atom_site_fract_x
_atom_site_fract_y
_atom_site_fract_z
_atom_type_partial_charge
Dy0 Dy 0.16132 0.4728 0.30885 0.0
C1 C 0.21265 0.34043 0.20955 0.0
C2 C 0.1483 0.54546 0.35894 0.0
Dy3 Dy 0.18811 0.40177 0.28169 0.0
O4 O 0.12322 0.5098 0.28107 0.0
O5 O 0.17922 0.54009 0.4152 0.0
O6 O 0.14115 0.46658 0.10221 0.0
O7 O 0.19459 0.45704 0.15594 0.0
C8 C 0.16834 0.45373 0.06399 0.0
C9 C 0.18412 0.42464 0.52587 0.0
O10 O 0.25801 0.46569 0.2828 0.0
O11 O 0.23777 0.51704 0.35736 0.0
O12 O 0.18876 0.33554 0.30987 0.0
O13 O 0.22116 0.37744 0.14722 0.0
O14 O 0.21329 0.41457 0.48506 0.0
O15 O 0.15562 0.41864 0.43688 0.0
O16 O 0.09205 0.40494 0.30893 0.0
O17 O 0.11621 0.36073 0.20668 0.0
C18 C 0.26921 0.50705 0.33077 0.0
C19 C 0.08345 0.36773 0.23862 0.0
Dy20 Dy 0.72979 0.17421 0.93094 0.0
C21 C 0.92233 0.26306 0.91824 0.0
C22 C 0.63741 0.13519 0.92835 0.0
Dy23 Dy 0.82972 0.22429 0.9284 0.0
O24 O 0.66518 0.16201 0.84118 0.0
O25 O 0.66031 0.13108 0.02239 0.0
O26 O 0.72607 0.14401 0.73748 0.0
O27 O 0.77978 0.21452 0.78158 0.0
C28 C 0.76245 0.18196 0.69695 0.0
C29 C 0.79901 0.21533 0.16493 0.0
O30 O 0.82238 0.28664 0.92161 0.0
O31 O 0.74879 0.24589 1.00077 0.0
O32 O 0.89247 0.2216 0.96129 0.0
O33 O 0.90064 0.28143 0.869 0.0
O34 O 0.83727 0.25172 0.12734 0.0
O35 O 0.78028 0.18372 0.07783 0.0
O36 O 0.73664 0.11359 0.96258 0.0
O37 O 0.80865 0.1498 0.87261 0.0
C38 C 0.7874 0.28619 0.97418 0.0
C39 C 0.77064 0.11161 0.91381 0.0
Dy40 Dy 0.52266 0.73239 0.15039 0.0
C41 C 0.67354 0.92361 0.01745 0.0
C42 C 0.45388 0.65815 0.27273 0.0
Dy43 Dy 0.60601 0.84245 0.12298 0.0
O44 O 0.48007 0.65478 0.19019 0.0
O45 O 0.46538 0.70168 0.28703 0.0
O46 O 0.50872 0.71456 0.93569 0.0
O47 O 0.5582 0.78212 1.00181 0.0
C48 C 0.5402 0.75736 0.90067 0.0
C49 C 0.58945 0.81594 0.37211 0.0
O50 O 0.5433 0.84953 0.12772 0.0
O51 O 0.48471 0.76953 0.15346 0.0
O52 O 0.68073 0.90109 0.10588 0.0
O53 O 0.62946 0.90293 0.9909 0.0
O54 O 0.61979 0.85921 0.33843 0.0
O55 O 0.57176 0.79202 0.26997 0.0
O56 O 0.58511 0.72876 0.18076 0.0
O57 O 0.63683 0.79862 0.07557 0.0
C58 C 0.49886 0.81487 0.14295 0.0
C59 C 0.62485 0.75671 0.1231 0.0
Dy60 Dy 0.78127 0.53025 0.07984 0.0
C61 C 0.72321 0.66151 0.07088 0.0
C62 C 0.79874 0.45996 0.09917 0.0
Dy63 Dy 0.74669 0.59458 0.07632 0.0
O64 O 0.82006 0.49627 0.02606 0.0
O65 O 0.76902 0.46304 0.16669 0.0
O66 O 0.81038 0.55405 0.88775 0.0
O67 O 0.74831 0.54891 0.92911 0.0
C68 C 0.77885 0.56093 0.8464 0.0
C69 C 0.74676 0.56078 0.30672 0.0
O70 O 0.67705 0.52431 0.04355 0.0
O71 O 0.70507 0.47688 0.09138 0.0
O72 O 0.7402 0.65162 0.16821 0.0
O73 O 0.72033 0.63569 0.97251 0.0
O74 O 0.71393 0.56532 0.2625 0.0
O75 O 0.77854 0.5751 0.22688 0.0
O76 O 0.84693 0.59594 0.14153 0.0
O77 O 0.82588 0.64425 0.04941 0.0
C78 C 0.66997 0.48174 0.06574 0.0
C79 C 0.85859 0.63723 0.09387 0.0
Dy80 Dy 0.2599 0.8357 0.18211 0.0
C81 C 0.06037 0.76132 0.07864 0.0
C82 C 0.34055 0.83568 0.18397 0.0
Dy83 Dy 0.15283 0.80233 0.15364 0.0
O84 O 0.30157 0.80536 0.12497 0.0
O85 O 0.33556 0.8666 0.24714 0.0
O86 O 0.27054 0.8638 0.98473 0.0
O87 O 0.20518 0.80504 0.02817 0.0
C88 C 0.22848 0.83473 0.94278 0.0
C89 C 0.18025 0.81725 0.40298 0.0
O90 O 0.14754 0.73329 0.19045 0.0
O91 O 0.22283 0.76396 0.26896 0.0
O92 O 0.08598 0.80176 0.1403 0.0
O93 O 0.08637 0.74521 0.05158 0.0
O94 O 0.13861 0.80312 0.36308 0.0
O95 O 0.20417 0.82282 0.30642 0.0
O96 O 0.26461 0.90403 0.21954 0.0
O97 O 0.19438 0.88157 0.11316 0.0
C98 C 0.17937 0.72816 0.24847 0.0
C99 C 0.23583 0.91461 0.16525 0.0
Dy100 Dy 0.4402 0.18512 0.05961 0.0
C101 C 0.32662 0.26509 0.15586 0.0
C102 C 0.48079 0.14033 0.97796 0.0
Dy103 Dy 0.37688 0.22865 0.0851 0.0
O104 O 0.45326 0.12704 0.07359 0.0
O105 O 0.48715 0.17888 0.9286 0.0
O106 O 0.45505 0.1851 0.27309 0.0
O107 O 0.41574 0.21054 0.20829 0.0
C108 C 0.43077 0.20223 0.30856 0.0
C109 C 0.38437 0.20969 0.83611 0.0
O110 O 0.45122 0.29412 0.10581 0.0
O111 O 0.49324 0.26205 0.03456 0.0
O112 O 0.36499 0.28766 0.0943 0.0
O113 O 0.31636 0.22281 0.18408 0.0
O114 O 0.36006 0.22665 0.87197 0.0
O115 O 0.40048 0.20265 0.93635 0.0
O116 O 0.36854 0.12199 0.02891 0.0
O117 O 0.32824 0.15051 0.13061 0.0
C118 C 0.49072 0.29897 0.06834 0.0
C119 C 0.33137 0.11494 0.08598 0.0
C120 C 0.25907 0.26173 0.2549 0.0
C121 C 0.29574 0.28234 0.16952 0.0
H122 H 0.20324 0.26427 0.33509 0.0
C123 C 0.30207 0.31897 0.09103 0.0
H124 H 0.2534 0.23303 0.31527 0.0
C125 C 0.27285 0.33556 0.09918 0.0
C126 C 0.23737 0.31656 0.18805 0.0
H127 H 0.32962 0.33487 0.02277 0.0
H128 H 0.27923 0.36455 0.0389 0.0
C129 C 0.23025 0.27918 0.26522 0.0
C130 C 0.02014 0.36291 0.10878 0.0
C131 C 0.03993 0.33991 0.16531 0.0
H132 H 0.96867 0.35706 0.97755 0.0
C133 C 0.02407 0.29308 0.12791 0.0
H134 H 0.03313 0.39968 0.13265 0.0
C135 C 0.98792 0.26903 0.03778 0.0
C136 C 0.96769 0.29177 0.98235 0.0
H137 H 0.03988 0.27521 0.16797 0.0
H138 H 0.97475 0.23218 0.01445 0.0
C139 C 0.98449 0.33912 0.01687 0.0
C140 C 0.7261 0.03203 0.82027 0.0
C141 C 0.76279 0.06455 0.90229 0.0
H142 H 0.66811 0.96067 0.79451 0.0
C143 C 0.77664 0.04807 0.00534 0.0
H144 H 0.71461 0.04438 0.74138 0.0
C145 C 0.74995 1.00012 0.03618 0.0
C146 C 0.70912 0.96903 0.96486 0.0
H147 H 0.8043 0.07292 0.07106 0.0
H148 H 0.7584 0.98868 0.12322 0.0
C149 C 0.69909 0.98443 0.85197 0.0
C150 C 0.6908 0.70714 0.97272 0.0
C151 C 0.70265 0.69077 0.08104 0.0
H152 H 0.65813 0.74266 0.90151 0.0
C153 C 0.69198 0.70001 0.20283 0.0
H154 H 0.69844 0.70045 0.87772 0.0
C155 C 0.66811 0.72288 0.21603 0.0
C156 C 0.65564 0.73864 0.10823 0.0
H157 H 0.70035 0.68772 0.28832 0.0
H158 H 0.6586 0.72751 0.31078 0.0
C159 C 0.66804 0.73149 0.98641 0.0
C160 C 0.98127 0.75075 0.10369 0.0
C161 C 0.00832 0.73261 0.06691 0.0
H162 H 0.91254 0.73553 0.13872 0.0
C163 C 0.98498 0.68445 0.02996 0.0
H164 H 0.99804 0.78764 0.13341 0.0
C165 C 0.93661 0.65477 0.03555 0.0
C166 C 0.90943 0.67216 0.07589 0.0
H167 H 1.00431 0.66899 1.00139 0.0
H168 H 0.92035 0.61752 0.01012 0.0
C169 C 0.93225 0.72094 0.10671 0.0
C170 C 0.24193 0.98325 0.04697 0.0
C171 C 0.25279 0.9659 0.15524 0.0
H172 H 0.25852 0.0449 0.93943 0.0
C173 C 0.28406 0.99878 0.24874 0.0
H174 H 0.21838 0.95891 0.97254 0.0
C175 C 0.30575 0.04771 0.23154 0.0
C176 C 0.29723 0.06512 0.11976 0.0
H177 H 0.29317 0.9867 0.33326 0.0
H178 H 0.33176 0.07207 0.3017 0.0
C179 C 0.26458 0.03245 0.02837 0.0
C180 C 0.12711 0.63894 0.24311 0.0
C181 C 0.1669 0.68067 0.29205 0.0
H182 H 0.08971 0.56298 0.22742 0.0
C183 C 0.19674 0.6767 0.37798 0.0
H184 H 0.10331 0.64069 0.17731 0.0
C185 C 0.18864 0.63228 0.40787 0.0
C186 C 0.1507 0.59081 0.35188 0.0
H187 H 0.22737 0.70807 0.41919 0.0
H188 H 0.21354 0.63064 0.46924 0.0
C189 C 0.11923 0.59442 0.27228 0.0
C190 C 0.52332 0.10405 0.05027 0.0
C191 C 0.50972 0.12214 0.95047 0.0
H192 H 0.57647 0.09426 0.12162 0.0
C193 C 0.53164 0.1324 0.83314 0.0
H194 H 0.50629 0.09561 0.14137 0.0
C195 C 0.57094 0.13085 0.82133 0.0
C196 C 0.58891 0.12006 0.92782 0.0
H197 H 0.52093 0.14567 0.75472 0.0
H198 H 0.58972 0.14271 0.73311 0.0
C199 C 0.56334 0.10336 0.03929 0.0
C200 C 0.37915 0.62656 0.37727 0.0
C201 C 0.41065 0.61819 0.3188 0.0
H202 H 0.30869 0.59739 0.42643 0.0
C203 C 0.39732 0.57192 0.28557 0.0
H204 H 0.38908 0.66217 0.40507 0.0
C205 C 0.35153 0.53492 0.29844 0.0
C206 C 0.31861 0.54404 0.34336 0.0
H207 H 0.42136 0.56479 0.24168 0.0
H208 H 0.34154 0.49982 0.26522 0.0
C209 C 0.33316 0.58963 0.38889 0.0
C210 C 0.76414 0.37355 0.13003 0.0
C211 C 0.79961 0.41679 0.08164 0.0
H212 H 0.73208 0.29833 0.13241 0.0
C213 C 0.8324 0.41724 1.00203 0.0
H214 H 0.7382 0.37217 0.19072 0.0
C215 C 0.82895 0.37494 0.96824 0.0
C216 C 0.79228 0.33136 0.01218 0.0
H217 H 0.85998 0.45017 0.96288 0.0
H218 H 0.85431 0.37628 0.90519 0.0
C219 C 0.76036 0.33122 0.09516 0.0
C220 C 0.42773 0.87002 0.21867 0.0
C221 C 0.38304 0.83356 0.17411 0.0
H222 H 0.50012 0.89377 0.24176 0.0
C223 C 0.37839 0.79347 0.11378 0.0
H224 H 0.43274 0.90161 0.26469 0.0
C225 C 0.41637 0.78905 0.10084 0.0
C226 C 0.461 0.82471 0.14645 0.0
H227 H 0.34487 0.76473 0.07722 0.0
H228 H 0.41048 0.75696 0.05544 0.0
C229 C 0.46643 0.86577 0.20423 0.0
C230 C 0.58103 0.43471 0.08108 0.0
C231 C 0.62252 0.43667 0.05947 0.0
H232 H 0.5068 0.39008 0.10301 0.0
C233 C 0.61933 0.39343 0.03856 0.0
H234 H 0.58201 0.46715 0.09828 0.0
C235 C 0.5769 0.3499 0.04101 0.0
C236 C 0.53532 0.3472 0.0653 0.0
H237 H 0.65006 0.39293 0.02059 0.0
H238 H 0.57713 0.31806 0.02493 0.0
C239 C 0.53792 0.39043 0.08468 0.0
C240 C 0.20838 0.44079 0.88464 0.0
C241 C 0.17273 0.44577 0.92705 0.0
H242 H 0.24 0.43053 0.72365 0.0
C243 C 0.14074 0.44384 0.83646 0.0
H244 H 0.23355 0.44231 0.95213 0.0
C245 C 0.1444 0.43727 0.70585 0.0
C246 C 0.18006 0.43234 0.66328 0.0
H247 H 0.11272 0.44742 0.86652 0.0
H248 H 0.1193 0.43593 0.63841 0.0
C249 C 0.21204 0.43419 0.75385 0.0
C250 C 0.74581 0.15339 0.47075 0.0
C251 C 0.77261 0.19003 0.56132 0.0
H252 H 0.7328 0.13301 0.27202 0.0
C253 C 0.80747 0.23496 0.52083 0.0
H254 H 0.71859 0.11842 0.5003 0.0
C255 C 0.81535 0.24327 0.39093 0.0
C256 C 0.78858 0.20669 0.30028 0.0
H257 H 0.82837 0.26373 0.58929 0.0
H258 H 0.84253 0.27828 0.36157 0.0
C259 C 0.75367 0.16173 0.34064 0.0
C260 C 0.58654 0.81953 0.73658 0.0
C261 C 0.55333 0.77224 0.76551 0.0
H262 H 0.6235 0.87035 0.59097 0.0
C263 C 0.53251 0.73884 0.66321 0.0
H264 H 0.60365 0.8459 0.81227 0.0
C265 C 0.54443 0.75257 0.53562 0.0
C266 C 0.57684 0.80019 0.5068 0.0
H267 H 0.50711 0.7019 0.68177 0.0
H268 H 0.52856 0.72586 0.45988 0.0
C269 C 0.59797 0.8334 0.60919 0.0
C270 C 0.72857 0.55441 0.66182 0.0
C271 C 0.77086 0.56261 0.70905 0.0
H272 H 0.68739 0.54628 0.49542 0.0
C273 C 0.80471 0.56902 0.62324 0.0
H274 H 0.70187 0.54901 0.72639 0.0
C275 C 0.79635 0.567 0.49174 0.0
C276 C 0.75411 0.55882 0.44434 0.0
H277 H 0.8376 0.57526 0.65767 0.0
H278 H 0.82311 0.5724 0.4274 0.0
C279 C 0.72021 0.55241 0.53007 0.0
C280 C 0.23992 0.84671 0.58237 0.0
C281 C 0.1935 0.82062 0.53989 0.0
H282 H 0.28719 0.87233 0.74417 0.0
C283 C 0.15845 0.7984 0.63064 0.0
H284 H 0.26749 0.86422 0.51453 0.0
C285 C 0.16953 0.80225 0.76168 0.0
C286 C 0.21589 0.82924 0.80462 0.0
H287 H 0.12223 0.77788 0.60026 0.0
H288 H 0.1419 0.78482 0.82929 0.0
C289 C 0.25099 0.85143 0.71376 0.0
C290 C 0.42362 0.1896 0.66969 0.0
C291 C 0.39529 0.20629 0.70102 0.0
H292 H 0.4573 0.17573 0.5213 0.0
C293 C 0.37844 0.22173 0.60165 0.0
H294 H 0.43674 0.17715 0.7435 0.0
C295 C 0.39003 0.22087 0.47393 0.0
C296 C 0.41879 0.2046 0.443 0.0
H297 H 0.3565 0.23488 0.6227 0.0
H298 H 0.37657 0.23295 0.39965 0.0
C299 C 0.43533 0.18886 0.54221 0.0
loop_
_geom_bond_atom_site_label_1
_geom_bond_atom_site_label_2
_geom_bond_distance
_geom_bond_site_symmetry_2
_ccdc_geom_bond_type
Dy0 O4 2.398 . S
Dy0 O5 2.491 . S
Dy0 O6 2.403 1_554 S
Dy0 O7 2.664 . S
Dy0 O11 2.326 . S
Dy0 O15 2.310 . S
Dy0 O16 2.351 . S
C1 O12 1.185 . S
C1 O13 1.355 . S
C2 O4 1.185 . S
C2 O5 1.355 . S
Dy3 O7 2.310 . S
Dy3 O10 2.351 . S
Dy3 O12 2.398 . S
Dy3 O13 2.491 . S
Dy3 O14 2.403 . S
Dy3 O15 2.664 . S
Dy3 O17 2.326 . S
O4 Dy0 2.398 . S
O4 C2 1.185 . S
O5 Dy0 2.491 . S
O5 C2 1.355 . S
O6 Dy0 2.403 1_556 S
O6 C8 1.254 . S
O7 Dy0 2.664 . S
O7 Dy3 2.310 . S
O7 C8 1.268 1_554 S
C8 O6 1.254 . S
C8 O7 1.268 1_556 S
C9 O14 1.254 . S
C9 O15 1.268 . S
O10 Dy3 2.351 . S
O10 C18 1.249 . S
O11 Dy0 2.326 . S
O11 C18 1.267 . S
O12 C1 1.185 . S
O12 Dy3 2.398 . S
O13 C1 1.355 . S
O13 Dy3 2.491 . S
O14 Dy3 2.403 . S
O14 C9 1.254 . S
O15 Dy0 2.310 . S
O15 Dy3 2.664 . S
O15 C9 1.268 . S
O16 Dy0 2.351 . S
O16 C19 1.249 . S
O17 Dy3 2.326 . S
O17 C19 1.267 . S
C18 O10 1.249 . S
C18 O11 1.267 . S
C19 O16 1.249 . S
C19 O17 1.267 . S
Dy20 O24 2.398 . S
Dy20 O25 2.491 1_556 S
Dy20 O26 2.403 . S
Dy20 O27 2.664 . S
Dy20 O31 2.326 . S
Dy20 O35 2.310 1_556 S
Dy20 O36 2.351 . S
C21 O32 1.185 . S
C21 O33 1.355 1_554 S
C22 O24 1.185 . S
C22 O25 1.355 1_556 S
Dy23 O27 2.310 1_554 S
Dy23 O30 2.351 . S
Dy23 O32 2.398 . S
Dy23 O33 2.491 1_554 S
Dy23 O34 2.403 . S
Dy23 O35 2.664 . S
Dy23 O37 2.326 . S
O24 Dy20 2.398 . S
O24 C22 1.185 . S
O25 Dy20 2.491 1_554 S
O25 C22 1.355 1_554 S
O26 Dy20 2.403 . S
O26 C28 1.254 . S
O27 Dy20 2.664 . S
O27 Dy23 2.310 1_556 S
O27 C28 1.268 . S
C28 O26 1.254 . S
C28 O27 1.268 . S
C29 O34 1.254 . S
C29 O35 1.268 . S
O30 Dy23 2.351 . S
O30 C38 1.249 1_554 S
O31 Dy20 2.326 . S
O31 C38 1.267 . S
O32 C21 1.185 . S
O32 Dy23 2.398 . S
O33 C21 1.355 1_556 S
O33 Dy23 2.491 1_556 S
O34 Dy23 2.403 . S
O34 C29 1.254 . S
O35 Dy20 2.310 1_554 S
O35 Dy23 2.664 . S
O35 C29 1.268 . S
O36 Dy20 2.351 . S
O36 C39 1.249 1_556 S
O37 Dy23 2.326 . S
O37 C39 1.267 . S
C38 O30 1.249 1_556 S
C38 O31 1.267 . S
C39 O36 1.249 1_554 S
C39 O37 1.267 . S
Dy40 O44 2.398 . S
Dy40 O45 2.491 . S
Dy40 O46 2.403 1_554 S
Dy40 O47 2.664 . S
Dy40 O51 2.326 . S
Dy40 O55 2.310 . S
Dy40 O56 2.351 . S
C41 O52 1.185 . S
C41 O53 1.355 . S
C42 O44 1.185 . S
C42 O45 1.355 . S
Dy43 O47 2.310 . S
Dy43 O50 2.351 . S
Dy43 O52 2.398 . S
Dy43 O53 2.491 . S
Dy43 O54 2.403 . S
Dy43 O55 2.664 . S
Dy43 O57 2.326 . S
O44 Dy40 2.398 . S
O44 C42 1.185 . S
O45 Dy40 2.491 . S
O45 C42 1.355 . S
O46 Dy40 2.403 1_556 S
O46 C48 1.254 . S
O47 Dy40 2.664 . S
O47 Dy43 2.310 . S
O47 C48 1.268 1_554 S
C48 O46 1.254 . S
C48 O47 1.268 1_556 S
C49 O54 1.254 . S
C49 O55 1.268 . S
O50 Dy43 2.351 . S
O50 C58 1.249 . S
O51 Dy40 2.326 . S
O51 C58 1.267 . S
O52 C41 1.185 . S
O52 Dy43 2.398 . S
O53 C41 1.355 . S
O53 Dy43 2.491 . S
O54 Dy43 2.403 . S
O54 C49 1.254 . S
O55 Dy40 2.310 . S
O55 Dy43 2.664 . S
O55 C49 1.268 . S
O56 Dy40 2.351 . S
O56 C59 1.249 . S
O57 Dy43 2.326 . S
O57 C59 1.267 . S
C58 O50 1.249 . S
C58 O51 1.267 . S
C59 O56 1.249 . S
C59 O57 1.267 . S
Dy60 O64 2.398 . S
Dy60 O65 2.491 1_556 S
Dy60 O66 2.403 . S
Dy60 O67 2.664 . S
Dy60 O71 2.326 . S
Dy60 O75 2.310 1_556 S
Dy60 O76 2.351 1_556 S
C61 O72 1.185 . S
C61 O73 1.355 1_554 S
C62 O64 1.184 1_554 S
C62 O65 1.357 . S
Dy63 O67 2.310 1_554 S
Dy63 O70 2.351 . S
Dy63 O72 2.398 . S
Dy63 O73 2.491 1_554 S
Dy63 O74 2.403 . S
Dy63 O75 2.664 . S
Dy63 O77 2.326 . S
O64 Dy60 2.398 . S
O64 C62 1.184 1_556 S
O65 Dy60 2.491 1_554 S
O65 C62 1.357 . S
O66 Dy60 2.403 . S
O66 C68 1.254 . S
O67 Dy60 2.664 . S
O67 Dy63 2.310 1_556 S
O67 C68 1.268 . S
C68 O66 1.254 . S
C68 O67 1.268 . S
C69 O74 1.254 . S
C69 O75 1.268 . S
O70 Dy63 2.351 . S
O70 C78 1.249 1_554 S
O71 Dy60 2.326 . S
O71 C78 1.267 . S
O72 C61 1.185 . S
O72 Dy63 2.398 . S
O73 C61 1.355 1_556 S
O73 Dy63 2.491 1_556 S
O74 Dy63 2.403 . S
O74 C69 1.254 . S
O75 Dy60 2.310 1_554 S
O75 Dy63 2.664 . S
O75 C69 1.268 . S
O76 Dy60 2.351 1_554 S
O76 C79 1.249 . S
O77 Dy63 2.326 . S
O77 C79 1.267 . S
C78 O70 1.249 1_556 S
C78 O71 1.267 . S
C79 O76 1.249 . S
C79 O77 1.267 . S
Dy80 O84 2.398 . S
Dy80 O85 2.491 . S
Dy80 O86 2.403 1_554 S
Dy80 O87 2.664 . S
Dy80 O91 2.326 . S
Dy80 O95 2.310 . S
Dy80 O96 2.351 . S
C81 O92 1.185 . S
C81 O93 1.355 . S
C82 O84 1.185 . S
C82 O85 1.355 . S
Dy83 O87 2.310 . S
Dy83 O90 2.351 . S
Dy83 O92 2.398 . S
Dy83 O93 2.491 . S
Dy83 O94 2.403 . S
Dy83 O95 2.664 . S
Dy83 O97 2.326 . S
O84 Dy80 2.398 . S
O84 C82 1.185 . S
O85 Dy80 2.491 . S
O85 C82 1.355 . S
O86 Dy80 2.403 1_556 S
O86 C88 1.254 . S
O87 Dy80 2.664 . S
O87 Dy83 2.310 . S
O87 C88 1.268 1_554 S
C88 O86 1.254 . S
C88 O87 1.268 1_556 S
C89 O94 1.254 . S
C89 O95 1.268 . S
O90 Dy83 2.351 . S
O90 C98 1.249 . S
O91 Dy80 2.326 . S
O91 C98 1.267 . S
O92 C81 1.185 . S
O92 Dy83 2.398 . S
O93 C81 1.355 . S
O93 Dy83 2.491 . S
O94 Dy83 2.403 . S
O94 C89 1.254 . S
O95 Dy80 2.310 . S
O95 Dy83 2.664 . S
O95 C89 1.268 . S
O96 Dy80 2.351 . S
O96 C99 1.249 . S
O97 Dy83 2.326 . S
O97 C99 1.267 . S
C98 O90 1.249 . S
C98 O91 1.267 . S
C99 O96 1.249 . S
C99 O97 1.267 . S
Dy100 O104 2.398 . S
Dy100 O105 2.491 1_554 S
Dy100 O106 2.403 . S
Dy100 O107 2.664 . S
Dy100 O111 2.326 . S
Dy100 O115 2.310 1_554 S
Dy100 O116 2.351 . S
C101 O112 1.185 1_554 S
C101 O113 1.355 . S
C102 O104 1.185 1_556 S
C102 O105 1.355 . S
Dy103 O107 2.309 . S
Dy103 O110 2.351 1_554 S
Dy103 O112 2.398 1_554 S
Dy103 O113 2.491 . S
Dy103 O114 2.404 1_554 S
Dy103 O115 2.665 1_554 S
Dy103 O117 2.326 1_554 S
O104 Dy100 2.398 . S
O104 C102 1.185 1_554 S
O105 Dy100 2.491 1_556 S
O105 C102 1.355 . S
O106 Dy100 2.403 . S
O106 C108 1.254 . S
O107 Dy100 2.664 . S
O107 Dy103 2.309 . S
O107 C108 1.268 . S
C108 O106 1.254 . S
C108 O107 1.268 . S
C109 O114 1.254 . S
C109 O115 1.268 . S
O110 Dy103 2.351 1_556 S
O110 C118 1.249 1_556 S
O111 Dy100 2.326 . S
O111 C118 1.267 . S
O112 C101 1.185 1_556 S
O112 Dy103 2.398 1_556 S
O113 C101 1.355 . S
O113 Dy103 2.491 . S
O114 Dy103 2.404 1_556 S
O114 C109 1.254 . S
O115 Dy100 2.310 1_556 S
O115 Dy103 2.665 1_556 S
O115 C109 1.268 . S
O116 Dy100 2.351 . S
O116 C119 1.249 . S
O117 Dy103 2.326 1_556 S
O117 C119 1.267 1_556 S
C118 O110 1.249 1_554 S
C118 O111 1.267 . S
C119 O116 1.249 . S
C119 O117 1.267 1_554 S
C120 C121 1.387 . S
C120 H124 0.950 . S
C120 C129 1.390 . S
C121 C120 1.387 . S
C121 C123 1.387 1_554 S
H122 C129 0.950 . S
C123 C121 1.387 1_556 S
C123 C125 1.390 1_556 S
C123 H127 0.950 . S
H124 C120 0.950 . S
C125 C123 1.390 1_554 S
C125 C126 1.387 . S
C125 H128 0.950 1_554 S
C126 C125 1.387 . S
C126 C129 1.387 . S
H127 C123 0.950 . S
H128 C125 0.950 1_556 S
C129 C120 1.390 . S
C129 H122 0.950 . S
C129 C126 1.387 . S
C130 C131 1.387 . S
C130 H134 0.950 1_554 S
C130 C139 1.390 1_554 S
C131 C130 1.387 . S
C131 C133 1.387 . S
H132 C139 0.950 . S
C133 C131 1.387 . S
C133 C135 1.390 1_455 S
C133 H137 0.950 . S
H134 C130 0.950 1_556 S
C135 C133 1.390 1_655 S
C135 C136 1.387 . S
C135 H138 0.950 . S
C136 C135 1.387 . S
C136 C139 1.387 1_654 S
H137 C133 0.950 . S
H138 C135 0.950 . S
C139 C130 1.390 1_556 S
C139 H132 0.950 . S
C139 C136 1.387 1_456 S
C140 C141 1.387 . S
C140 H144 0.950 . S
C140 C149 1.390 . S
C141 C140 1.387 . S
C141 C143 1.387 . S
H142 C149 0.950 1_565 S
C143 C141 1.387 . S
C143 C145 1.379 1_545 S
C143 H147 0.950 . S
H144 C140 0.950 . S
C145 C143 1.379 1_565 S
C145 C146 1.399 . S
C145 H148 0.950 . S
C146 C145 1.399 . S
C146 C149 1.387 1_565 S
H147 C143 0.950 . S
H148 C145 0.950 . S
C149 C140 1.390 . S
C149 H142 0.950 1_545 S
C149 C146 1.387 1_545 S
C150 C151 1.387 1_556 S
C150 H154 0.950 . S
C150 C159 1.390 1_556 S
C151 C150 1.387 1_554 S
C151 C153 1.387 . S
H152 C159 0.950 1_556 S
C153 C151 1.387 . S
C153 C155 1.390 . S
C153 H157 0.950 . S
H154 C150 0.950 . S
C155 C153 1.390 . S
C155 C156 1.387 . S
C155 H158 0.950 . S
C156 C155 1.387 . S
C156 C159 1.387 . S
H157 C153 0.950 . S
H158 C155 0.950 . S
C159 C150 1.390 1_554 S
C159 H152 0.950 1_554 S
C159 C156 1.387 . S
C160 C161 1.387 . S
C160 H164 0.950 . S
C160 C169 1.390 . S
C161 C160 1.387 . S
C161 C163 1.387 . S
H162 C169 0.950 . S
C163 C161 1.387 . S
C163 C165 1.390 . S
C163 H167 0.950 1_655 S
H164 C160 0.950 . S
C165 C163 1.390 . S
C165 C166 1.387 . S
C165 H168 0.950 1_554 S
C166 C165 1.387 . S
C166 C169 1.387 . S
H167 C163 0.950 1_455 S
H168 C165 0.950 1_556 S
C169 C160 1.390 . S
C169 H162 0.950 . S
C169 C166 1.387 . S
C170 C171 1.387 . S
C170 H174 0.950 . S
C170 C179 1.390 1_565 S
C171 C170 1.387 . S
C171 C173 1.387 . S
H172 C179 0.950 . S
C173 C171 1.387 . S
C173 C175 1.390 1_565 S
C173 H177 0.950 . S
H174 C170 0.950 . S
C175 C173 1.390 1_545 S
C175 C176 1.387 . S
C175 H178 0.950 . S
C176 C175 1.387 . S
C176 C179 1.387 . S
H177 C173 0.950 . S
H178 C175 0.950 . S
C179 C170 1.390 1_545 S
C179 H172 0.950 . S
C179 C176 1.387 . S
C180 C181 1.387 . S
C180 H184 0.950 . S
C180 C189 1.390 . S
C181 C180 1.387 . S
C181 C183 1.387 . S
H182 C189 0.950 . S
C183 C181 1.387 . S
C183 C185 1.390 . S
C183 H187 0.950 . S
H184 C180 0.950 . S
C185 C183 1.390 . S
C185 C186 1.387 . S
C185 H188 0.950 . S
C186 C185 1.387 . S
C186 C189 1.387 . S
H187 C183 0.950 . S
H188 C185 0.950 . S
C189 C180 1.390 . S
C189 H182 0.950 . S
C189 C186 1.387 . S
C190 C191 1.387 . S
C190 H194 0.950 . S
C190 C199 1.390 . S
C191 C190 1.387 . S
C191 C193 1.387 . S
H192 C199 0.950 . S
C193 C191 1.387 . S
C193 C195 1.390 . S
C193 H197 0.950 1_556 S
H194 C190 0.950 . S
C195 C193 1.390 . S
C195 C196 1.387 . S
C195 H198 0.950 1_556 S
C196 C195 1.387 . S
C196 C199 1.387 . S
H197 C193 0.950 1_554 S
H198 C195 0.950 1_554 S
C199 C190 1.390 . S
C199 H192 0.950 . S
C199 C196 1.387 . S
C200 C201 1.387 . S
C200 H204 0.950 . S
C200 C209 1.390 . S
C201 C200 1.387 . S
C201 C203 1.387 . S
H202 C209 0.950 . S
C203 C201 1.387 . S
C203 C205 1.390 . S
C203 H207 0.950 . S
H204 C200 0.950 . S
C205 C203 1.390 . S
C205 C206 1.387 . S
C205 H208 0.950 . S
C206 C205 1.387 . S
C206 C209 1.387 . S
H207 C203 0.950 . S
H208 C205 0.950 . S
C209 C200 1.390 . S
C209 H202 0.950 . S
C209 C206 1.387 . S
C210 C211 1.387 . S
C210 H214 0.950 . S
C210 C219 1.390 . S
C211 C210 1.387 . S
C211 C213 1.387 1_554 S
H212 C219 0.950 . S
C213 C211 1.387 1_556 S
C213 C215 1.390 . S
C213 H217 0.950 . S
H214 C210 0.950 . S
C215 C213 1.390 . S
C215 C216 1.387 . S
C215 H218 0.950 . S
C216 C215 1.387 . S
C216 C219 1.387 1_556 S
H217 C213 0.950 . S
H218 C215 0.950 . S
C219 C210 1.390 . S
C219 H212 0.950 . S
C219 C216 1.387 1_554 S
C220 C221 1.387 . S
C220 H224 0.950 . S
C220 C229 1.390 . S
C221 C220 1.387 . S
C221 C223 1.387 . S
H222 C229 0.950 . S
C223 C221 1.387 . S
C223 C225 1.390 . S
C223 H227 0.950 . S
H224 C220 0.950 . S
C225 C223 1.390 . S
C225 C226 1.387 . S
C225 H228 0.950 . S
C226 C225 1.387 . S
C226 C229 1.387 . S
H227 C223 0.950 . S
H228 C225 0.950 . S
C229 C220 1.390 . S
C229 H222 0.950 . S
C229 C226 1.387 . S
C230 C231 1.387 1_554 S
C230 H234 0.950 . S
C230 C239 1.390 . S
C231 C230 1.387 1_556 S
C231 C233 1.387 . S
H232 C239 0.950 . S
C233 C231 1.387 . S
C233 C235 1.390 . S
C233 H237 0.950 . S
H234 C230 0.950 . S
C235 C233 1.390 . S
C235 C236 1.387 . S
C235 H238 0.950 . S
C236 C235 1.387 . S
C236 C239 1.387 1_556 S
H237 C233 0.950 . S
H238 C235 0.950 . S
C239 C230 1.390 . S
C239 H232 0.950 . S
C239 C236 1.387 1_554 S
C240 C241 1.387 . S
C240 H244 0.950 . S
C240 C249 1.390 . S
C241 C240 1.387 . S
C241 C243 1.387 . S
H242 C249 0.950 . S
C243 C241 1.387 . S
C243 C245 1.390 . S
C243 H247 0.950 . S
H244 C240 0.950 . S
C245 C243 1.390 . S
C245 C246 1.387 . S
C245 H248 0.950 . S
C246 C245 1.387 . S
C246 C249 1.387 . S
H247 C243 0.950 . S
H248 C245 0.950 . S
C249 C240 1.390 . S
C249 H242 0.950 . S
C249 C246 1.387 . S
C250 C251 1.387 . S
C250 H254 0.950 . S
C250 C259 1.390 . S
C251 C250 1.387 . S
C251 C253 1.387 . S
H252 C259 0.950 . S
C253 C251 1.387 . S
C253 C255 1.390 . S
C253 H257 0.950 . S
H254 C250 0.950 . S
C255 C253 1.390 . S
C255 C256 1.387 . S
C255 H258 0.950 . S
C256 C255 1.387 . S
C256 C259 1.387 . S
H257 C253 0.950 . S
H258 C255 0.950 . S
C259 C250 1.390 . S
C259 H252 0.950 . S
C259 C256 1.387 . S
C260 C261 1.387 . S
C260 H264 0.950 . S
C260 C269 1.390 . S
C261 C260 1.387 . S
C261 C263 1.387 . S
H262 C269 0.950 . S
C263 C261 1.387 . S
C263 C265 1.390 . S
C263 H267 0.950 . S
H264 C260 0.950 . S
C265 C263 1.390 . S
C265 C266 1.387 . S
C265 H268 0.950 . S
C266 C265 1.387 . S
C266 C269 1.387 . S
H267 C263 0.950 . S
H268 C265 0.950 . S
C269 C260 1.390 . S
C269 H262 0.950 . S
C269 C266 1.387 . S
C270 C271 1.387 . S
C270 H274 0.950 . S
C270 C279 1.390 . S
C271 C270 1.387 . S
C271 C273 1.387 . S
H272 C279 0.950 . S
C273 C271 1.387 . S
C273 C275 1.390 . S
C273 H277 0.950 . S
H274 C270 0.950 . S
C275 C273 1.390 . S
C275 C276 1.387 . S
C275 H278 0.950 . S
C276 C275 1.387 . S
C276 C279 1.387 . S
H277 C273 0.950 . S
H278 C275 0.950 . S
C279 C270 1.390 . S
C279 H272 0.950 . S
C279 C276 1.387 . S
C280 C281 1.387 . S
C280 H284 0.950 . S
C280 C289 1.390 . S
C281 C280 1.387 . S
C281 C283 1.387 . S
H282 C289 0.950 . S
C283 C281 1.387 . S
C283 C285 1.390 . S
C283 H287 0.950 . S
H284 C280 0.950 . S
C285 C283 1.390 . S
C285 C286 1.387 . S
C285 H288 0.950 . S
C286 C285 1.387 . S
C286 C289 1.387 . S
H287 C283 0.950 . S
H288 C285 0.950 . S
C289 C280 1.390 . S
C289 H282 0.950 . S
C289 C286 1.387 . S
C290 C291 1.387 . S
C290 H294 0.950 . S
C290 C299 1.390 . S
C291 C290 1.387 . S
C291 C293 1.387 . S
H292 C299 0.950 . S
C293 C291 1.387 . S
C293 C295 1.390 . S
C293 H297 0.950 . S
H294 C290 0.950 . S
C295 C293 1.390 . S
C295 C296 1.387 . S
C295 H298 0.950 . S
C296 C295 1.387 . S
C296 C299 1.387 . S
H297 C293 0.950 . S
H298 C295 0.950 . S
C299 C290 1.390 . S
C299 H292 0.950 . S
C299 C296 1.387 . S
C121 C101 1.497 . S
C126 C1 1.568 . S
C131 C19 1.645 . S
C136 C21 1.309 . S
C141 C39 1.223 . S
C146 C41 1.176 . S
C151 C61 1.870 . S
C156 C59 1.990 . S
C161 C81 1.804 1_655 S
C166 C79 2.058 . S
C171 C99 1.542 . S
C176 C119 1.568 . S
C181 C98 1.653 . S
C186 C2 1.628 . S
C191 C102 1.256 . S
C196 C22 1.266 . S
C201 C42 1.424 . S
C206 C18 1.416 . S
C211 C62 1.710 . S
C216 C38 1.759 . S
C221 C82 1.998 . S
C226 C58 2.005 . S
C231 C78 2.188 . S
C236 C118 2.178 1_556 S
C241 C8 1.399 . S
C246 C9 1.399 . S
C251 C28 1.410 . S
C256 C29 1.410 . S
C261 C48 1.414 . S
C266 C49 1.414 . S
C271 C68 1.396 . S
C276 C69 1.396 . S
C281 C89 1.396 . S
C286 C88 1.396 . S
C291 C109 1.406 . S
C296 C108 1.406 . S
