# Generated by pormake.
# Topology bcs, (6)-cn, num edge types: 1
# Building blocks:
#     Node 0, Type 0, BuildingBlock: BETDIP_clean_sbu_0, # of connection points: 6
#     Node 1, Type 0, BuildingBlock: BETDIP_clean_sbu_0, # of connection points: 6
#     Node 2, Type 0, BuildingBlock: BETDIP_clean_sbu_0, # of connection points: 6
#     Node 3, Type 0, BuildingBlock: BETDIP_clean_sbu_0, # of connection points: 6
#     Node 4, Type 0, BuildingBlock: BETDIP_clean_sbu_0, # of connection points: 6
#     Node 5, Type 0, BuildingBlock: BETDIP_clean_sbu_0, # of connection points: 6
#     Node 6, Type 0, BuildingBlock: BETDIP_clean_sbu_0, # of connection points: 6
#     Node 7, Type 0, BuildingBlock: BETDIP_clean_sbu_0, # of connection points: 6
#     Node 8, Type 0, BuildingBlock: BETDIP_clean_sbu_0, # of connection points: 6
#     Node 9, Type 0, BuildingBlock: BETDIP_clean_sbu_0, # of connection points: 6
#     Node 10, Type 0, BuildingBlock: BETDIP_clean_sbu_0, # of connection points: 6
#     Node 11, Type 0, BuildingBlock: BETDIP_clean_sbu_0, # of connection points: 6
#     Node 12, Type 0, BuildingBlock: BETDIP_clean_sbu_0, # of connection points: 6
#     Node 13, Type 0, BuildingBlock: BETDIP_clean_sbu_0, # of connection points: 6
#     Node 14, Type 0, BuildingBlock: BETDIP_clean_sbu_0, # of connection points: 6
#     Node 15, Type 0, BuildingBlock: BETDIP_clean_sbu_0, # of connection points: 6
#     Edge 16, Type (0, 0), BuildingBlock: KIFKEQ_clean_linker_1, # of connection points: 2
#     Edge 17, Type (0, 0), BuildingBlock: KIFKEQ_clean_linker_1, # of connection points: 2
#     Edge 18, Type (0, 0), BuildingBlock: KIFKEQ_clean_linker_1, # of connection points: 2
#     Edge 19, Type (0, 0), BuildingBlock: KIFKEQ_clean_linker_1, # of connection points: 2
#     Edge 20, Type (0, 0), BuildingBlock: KIFKEQ_clean_linker_1, # of connection points: 2
#     Edge 21, Type (0, 0), BuildingBlock: KIFKEQ_clean_linker_1, # of connection points: 2
#     Edge 22, Type (0, 0), BuildingBlock: KIFKEQ_clean_linker_1, # of connection points: 2
#     Edge 23, Type (0, 0), BuildingBlock: KIFKEQ_clean_linker_1, # of connection points: 2
#     Edge 24, Type (0, 0), BuildingBlock: KIFKEQ_clean_linker_1, # of connection points: 2
#     Edge 25, Type (0, 0), BuildingBlock: KIFKEQ_clean_linker_1, # of connection points: 2
#     Edge 26, Type (0, 0), BuildingBlock: KIFKEQ_clean_linker_1, # of connection points: 2
#     Edge 27, Type (0, 0), BuildingBlock: KIFKEQ_clean_linker_1, # of connection points: 2
#     Edge 28, Type (0, 0), BuildingBlock: KIFKEQ_clean_linker_1, # of connection points: 2
#     Edge 29, Type (0, 0), BuildingBlock: KIFKEQ_clean_linker_1, # of connection points: 2
#     Edge 30, Type (0, 0), BuildingBlock: KIFKEQ_clean_linker_1, # of connection points: 2
#     Edge 31, Type (0, 0), BuildingBlock: KIFKEQ_clean_linker_1, # of connection points: 2
#     Edge 32, Type (0, 0), BuildingBlock: KIFKEQ_clean_linker_1, # of connection points: 2
#     Edge 33, Type (0, 0), BuildingBlock: KIFKEQ_clean_linker_1, # of connection points: 2
#     Edge 34, Type (0, 0), BuildingBlock: KIFKEQ_clean_linker_1, # of connection points: 2
#     Edge 35, Type (0, 0), BuildingBlock: KIFKEQ_clean_linker_1, # of connection points: 2
#     Edge 36, Type (0, 0), BuildingBlock: KIFKEQ_clean_linker_1, # of connection points: 2
#     Edge 37, Type (0, 0), BuildingBlock: KIFKEQ_clean_linker_1, # of connection points: 2
#     Edge 38, Type (0, 0), BuildingBlock: KIFKEQ_clean_linker_1, # of connection points: 2
#     Edge 39, Type (0, 0), BuildingBlock: KIFKEQ_clean_linker_1, # of connection points: 2
#     Edge 40, Type (0, 0), BuildingBlock: KIFKEQ_clean_linker_1, # of connection points: 2
#     Edge 41, Type (0, 0), BuildingBlock: KIFKEQ_clean_linker_1, # of connection points: 2
#     Edge 42, Type (0, 0), BuildingBlock: KIFKEQ_clean_linker_1, # of connection points: 2
#     Edge 43, Type (0, 0), BuildingBlock: KIFKEQ_clean_linker_1, # of connection points: 2
#     Edge 44, Type (0, 0), BuildingBlock: KIFKEQ_clean_linker_1, # of connection points: 2
#     Edge 45, Type (0, 0), BuildingBlock: KIFKEQ_clean_linker_1, # of connection points: 2
#     Edge 46, Type (0, 0), BuildingBlock: KIFKEQ_clean_linker_1, # of connection points: 2
#     Edge 47, Type (0, 0), BuildingBlock: KIFKEQ_clean_linker_1, # of connection points: 2
#     Edge 48, Type (0, 0), BuildingBlock: KIFKEQ_clean_linker_1, # of connection points: 2
#     Edge 49, Type (0, 0), BuildingBlock: KIFKEQ_clean_linker_1, # of connection points: 2
#     Edge 50, Type (0, 0), BuildingBlock: KIFKEQ_clean_linker_1, # of connection points: 2
#     Edge 51, Type (0, 0), BuildingBlock: KIFKEQ_clean_linker_1, # of connection points: 2
#     Edge 52, Type (0, 0), BuildingBlock: KIFKEQ_clean_linker_1, # of connection points: 2
#     Edge 53, Type (0, 0), BuildingBlock: KIFKEQ_clean_linker_1, # of connection points: 2
#     Edge 54, Type (0, 0), BuildingBlock: KIFKEQ_clean_linker_1, # of connection points: 2
#     Edge 55, Type (0, 0), BuildingBlock: KIFKEQ_clean_linker_1, # of connection points: 2
#     Edge 56, Type (0, 0), BuildingBlock: KIFKEQ_clean_linker_1, # of connection points: 2
#     Edge 57, Type (0, 0), BuildingBlock: KIFKEQ_clean_linker_1, # of connection points: 2
#     Edge 58, Type (0, 0), BuildingBlock: KIFKEQ_clean_linker_1, # of connection points: 2
#     Edge 59, Type (0, 0), BuildingBlock: KIFKEQ_clean_linker_1, # of connection points: 2
#     Edge 60, Type (0, 0), BuildingBlock: KIFKEQ_clean_linker_1, # of connection points: 2
#     Edge 61, Type (0, 0), BuildingBlock: KIFKEQ_clean_linker_1, # of connection points: 2
#     Edge 62, Type (0, 0), BuildingBlock: KIFKEQ_clean_linker_1, # of connection points: 2
#     Edge 63, Type (0, 0), BuildingBlock: KIFKEQ_clean_linker_1, # of connection points: 2
# Relax obj value: 0.203
# Max RMSD: 0.235
# Mean RMSD: 0.195
data_MOF--net-bcs--node1-BETDIP_clean_sbu_0--edge1-KIFKEQ_clean_linker_1
_symmetry_space_group_name_H-M    P1
_symmetry_Int_Tables_number       1
_symmetry_cell_setting            triclinic
loop_
_symmetry_equiv_pos_as_xyz
'x, y, z'
_cell_length_a     43.097123
_cell_length_b     43.734071
_cell_length_c     39.871528
_cell_angle_alpha  70.991202
_cell_angle_beta   121.35935
_cell_angle_gamma 113.50837
loop_
_atom_site_label
_atom_site_type_symbol
_atom_site_fract_x
_atom_site_fract_y
_atom_site_fract_z
_atom_type_partial_charge
Tb0 Tb 1.05375 1.00893 0.99311 0.0
Tb1 Tb 0.09074 0.05406 0.03873 0.0
C2 C 1.03409 0.96555 0.95086 0.0
C3 C 1.05292 0.95501 0.93609 0.0
C4 C 0.09086 0.97138 0.94363 0.0
C5 C 0.109 0.95958 0.93173 0.0
C6 C 0.08953 0.93123 0.91179 0.0
C7 C 1.0512 0.91544 0.90362 0.0
C8 C 1.0332 0.92714 0.91575 0.0
C9 C 1.02084 0.98874 0.04505 0.0
C10 C 0.13192 1.00222 0.0631 0.0
C11 C 0.1098 0.09709 0.0811 0.0
C12 C 0.09012 0.10861 0.09387 0.0
C13 C 1.05316 0.09059 0.08901 0.0
C14 C 1.03434 0.10285 0.09955 0.0
C15 C 1.05205 0.13345 0.11509 0.0
C16 C 0.08927 0.15114 0.12022 0.0
C17 C 0.10802 0.13886 0.10968 0.0
C18 C 0.12348 0.07449 0.98669 0.0
C19 C 1.01368 0.06165 0.96711 0.0
O20 O 1.02941 0.99557 0.93644 0.0
O21 O 1.04614 0.95944 0.98913 0.0
O22 O 1.05649 1.00219 0.05294 0.0
O23 O 1.00439 0.98779 1.00724 0.0
O24 O 0.10952 1.0 0.02536 0.0
O25 O 0.12759 1.02136 0.07881 0.0
O26 O 0.11257 0.06643 0.0953 0.0
O27 O 0.10019 0.10392 0.04328 0.0
O28 O 0.08785 0.06088 0.97889 0.0
O29 O 0.14 0.07556 0.02448 0.0
O30 O 1.03481 0.0634 1.00514 0.0
O31 O 1.01913 0.04288 0.95206 0.0
H32 H 0.10668 0.99297 0.95925 0.0
H33 H 0.13858 0.97225 0.93904 0.0
H34 H 1.03496 0.89399 0.88775 0.0
H35 H 1.00389 0.91416 0.90956 0.0
H36 H 1.03869 0.06725 0.07665 0.0
H37 H 1.00559 0.0887 0.09469 0.0
H38 H 0.10409 0.17447 0.1326 0.0
H39 H 0.1365 0.15319 0.11361 0.0
Tb40 Tb 0.28821 0.76121 0.26762 0.0
Tb41 Tb 0.3598 0.80495 0.26186 0.0
C42 C 0.22994 0.71335 0.26044 0.0
C43 C 0.22215 0.67651 0.26767 0.0
C44 C 0.19482 0.65779 0.23654 0.0
C45 C 0.18276 0.62263 0.24445 0.0
C46 C 0.1969 0.60596 0.2838 0.0
C47 C 0.22819 0.62464 0.31369 0.0
C48 C 0.24065 0.6596 0.30568 0.0
C49 C 0.33379 0.80348 0.31964 0.0
C50 C 0.36043 0.73224 0.30879 0.0
C51 C 0.4208 0.84958 0.26972 0.0
C52 C 0.43573 0.88604 0.26834 0.0
C53 C 0.4724 0.90132 0.27214 0.0
C54 C 0.48545 0.93619 0.26462 0.0
C55 C 0.462 0.95645 0.25326 0.0
C56 C 0.42652 0.94104 0.25343 0.0
C57 C 0.4134 0.90588 0.26094 0.0
C58 C 0.31367 0.76237 0.20987 0.0
C59 C 0.28794 0.83419 0.22241 0.0
O60 O 0.23862 0.72898 0.23109 0.0
O61 O 0.25109 0.72903 0.29163 0.0
O62 O 0.34298 0.78678 0.30757 0.0
O63 O 0.29705 0.79514 0.30428 0.0
O64 O 0.32321 0.72544 0.29495 0.0
O65 O 0.38136 0.76304 0.30229 0.0
O66 O 0.41267 0.83306 0.29927 0.0
O67 O 0.39488 0.83864 0.23591 0.0
O68 O 0.30502 0.77948 0.22191 0.0
O69 O 0.35035 0.77025 0.22549 0.0
O70 O 0.32539 0.84104 0.23725 0.0
O71 O 0.2666 0.80307 0.22711 0.0
H72 H 0.18124 0.67039 0.20657 0.0
H73 H 0.15981 0.60885 0.22048 0.0
H74 H 0.24046 0.61302 0.34438 0.0
H75 H 0.26297 0.67337 0.32996 0.0
H76 H 0.49008 0.88623 0.27836 0.0
H77 H 0.51252 0.94687 0.26391 0.0
H78 H 0.40784 0.95594 0.2447 0.0
H79 H 0.38521 0.89424 0.25882 0.0
Tb80 Tb 0.56332 1.02628 0.54741 0.0
Tb81 Tb 0.57898 0.04097 0.47812 0.0
C82 C 0.55924 1.02974 0.60668 0.0
C83 C 0.54988 0.0518 0.61879 0.0
C84 C 0.55688 0.04679 0.65835 0.0
C85 C 0.54788 0.06721 0.67061 0.0
C86 C 0.53192 0.0931 0.64348 0.0
C87 C 0.52523 0.09826 0.60386 0.0
C88 C 0.5343 0.07781 0.59162 0.0
C89 C 0.52226 0.98019 0.49965 0.0
C90 C 0.52584 0.07731 0.46989 0.0
C91 C 0.58378 0.03664 0.41982 0.0
C92 C 0.58992 1.01236 0.40701 0.0
C93 C 0.56065 0.9974 0.37339 0.0
C94 C 0.56632 0.97602 0.35895 0.0
C95 C 0.60151 0.96949 0.37747 0.0
C96 C 0.63047 0.98359 0.41192 0.0
C97 C 0.62474 1.00484 0.4266 0.0
C98 C 0.62018 0.08691 0.52615 0.0
C99 C 0.61553 0.98932 0.55495 0.0
O100 O 0.59023 0.0429 0.60227 0.0
O101 O 0.5313 1.01259 0.57818 0.0
O102 O 0.53157 1.0117 0.48951 0.0
O103 O 0.534 0.97357 0.53779 0.0
O104 O 0.53541 0.06618 0.50822 0.0
O105 O 0.53724 0.0683 0.45053 0.0
O106 O 0.55175 1.02721 0.42167 0.0
O107 O 0.6124 0.05207 0.44956 0.0
O108 O 0.61078 0.05538 0.53604 0.0
O109 O 0.60859 0.09361 0.48804 0.0
O110 O 0.60502 0.99975 0.51638 0.0
O111 O 0.60548 0.99946 0.5747 0.0
H112 H 0.56893 1.02681 0.67968 0.0
H113 H 0.55235 0.06215 0.70101 0.0
H114 H 0.51296 0.11807 0.5824 0.0
H115 H 0.52896 0.08219 0.56103 0.0
H116 H 0.53348 1.00266 0.35783 0.0
H117 H 0.54329 0.96491 0.33298 0.0
H118 H 0.658 0.97918 0.42671 0.0
H119 H 0.64782 1.01589 0.4527 0.0
Tb120 Tb 0.3443 0.25794 0.78308 0.0
Tb121 Tb 0.30286 0.30795 0.75239 0.0
C122 C 0.36754 0.21217 0.78661 0.0
C123 C 0.39477 0.20666 0.77934 0.0
C124 C 0.41086 0.23084 0.75522 0.0
C125 C 0.43139 0.22252 0.74319 0.0
C126 C 0.4357 0.18988 0.75493 0.0
C127 C 0.42142 0.16653 0.78098 0.0
C128 C 0.40113 0.1749 0.79309 0.0
C129 C 0.37788 0.30692 0.82555 0.0
C130 C 0.36547 0.32634 0.71972 0.0
C131 C 0.27761 0.35241 0.7484 0.0
C132 C 0.24943 0.35517 0.7568 0.0
C133 C 0.24946 0.34208 0.79401 0.0
C134 C 0.22558 0.34875 0.80285 0.0
C135 C 0.20112 0.36846 0.77459 0.0
C136 C 0.19972 0.37986 0.73664 0.0
C137 C 0.2238 0.37341 0.72794 0.0
C138 C 0.2699 0.25944 0.70955 0.0
C139 C 0.28147 0.23947 0.81539 0.0
O140 O 0.33983 0.22259 0.75502 0.0
O141 O 0.38103 0.22724 0.81692 0.0
O142 O 0.36039 0.30932 0.78833 0.0
O143 O 0.37922 0.27604 0.84073 0.0
O144 O 0.36954 0.29552 0.74055 0.0
O145 O 0.34112 0.337 0.7216 0.0
O146 O 0.30755 0.34452 0.77908 0.0
O147 O 0.26448 0.33704 0.71846 0.0
O148 O 0.28679 0.25672 0.74682 0.0
O149 O 0.26863 0.29032 0.69461 0.0
O150 O 0.27902 0.27104 0.79638 0.0
O151 O 0.30444 0.22826 0.81189 0.0
H152 H 0.4061 0.25549 0.74425 0.0
H153 H 0.44202 0.2409 0.72299 0.0
H154 H 0.42481 0.14136 0.79086 0.0
H155 H 0.38888 0.15598 0.81173 0.0
H156 H 0.26881 0.32771 0.81679 0.0
H157 H 0.22764 0.33979 0.83246 0.0
H158 H 0.18068 0.39452 0.71393 0.0
H159 H 0.22318 0.38356 0.69898 0.0
Tb160 Tb 1.04311 1.01085 0.52482 0.0
Tb161 Tb 0.10212 0.05899 0.49991 0.0
C162 C 0.99851 0.95767 0.54094 0.0
C163 C 1.00571 0.92926 0.57308 0.0
C164 C 0.97593 0.90036 0.57293 0.0
C165 C 0.98148 0.8754 0.60622 0.0
C166 C 1.01702 0.87903 0.64018 0.0
C167 C 1.04762 0.90676 0.63863 0.0
C168 C 1.04189 0.93187 0.60546 0.0
C169 C 0.09194 0.05805 0.56972 0.0
C170 C 0.12105 0.99386 0.55516 0.0
C171 C 0.14656 0.11216 0.48325 0.0
C172 C 0.13918 0.14061 0.45111 0.0
C173 C 0.16923 0.16851 0.44928 0.0
C174 C 0.16303 0.19294 0.4154 0.0
C175 C 0.12655 0.18985 0.38293 0.0
C176 C 0.09597 0.16341 0.38671 0.0
C177 C 0.10236 0.13869 0.42023 0.0
C178 C 1.05302 1.01163 0.45512 0.0
C179 C 1.02408 0.07581 0.4698 0.0
O180 O 1.01 0.96126 0.51494 0.0
O181 O 1.00763 0.98621 0.55236 0.0
O182 O 0.09913 0.04231 0.55453 0.0
O183 O 1.05666 0.04584 0.56246 0.0
O184 O 0.08502 0.98297 0.54815 0.0
O185 O 0.13643 1.02571 0.54378 0.0
O186 O 0.13556 0.10858 0.50966 0.0
O187 O 0.13701 0.0836 0.47165 0.0
O188 O 1.04617 1.02766 0.47029 0.0
O189 O 0.08831 1.02361 0.46245 0.0
O190 O 1.06021 0.08687 0.47711 0.0
O191 O 1.00873 0.04388 0.48082 0.0
H192 H 0.9479 0.89797 0.54803 0.0
H193 H 0.95701 0.85472 0.6064 0.0
H194 H 0.07536 0.91016 0.66403 0.0
H195 H 1.06526 0.95414 0.60601 0.0
H196 H 0.19781 0.17034 0.47291 0.0
H197 H 0.18745 0.21254 0.41344 0.0
H198 H 1.06754 0.16042 0.36251 0.0
H199 H 0.07883 0.11709 0.42092 0.0
Tb200 Tb 0.30929 0.7771 0.79188 0.0
Tb201 Tb 0.33406 0.79078 0.72861 0.0
C202 C 0.29346 0.78356 0.84147 0.0
C203 C 0.27272 0.80237 0.84373 0.0
C204 C 0.28789 0.81566 0.87852 0.0
C205 C 0.26792 0.83167 0.88268 0.0
C206 C 0.23215 0.83477 0.85211 0.0
C207 C 0.2173 0.82194 0.81689 0.0
C208 C 0.23737 0.80595 0.81272 0.0
C209 C 0.27273 0.73186 0.74384 0.0
C210 C 0.27709 0.8274 0.71033 0.0
C211 C 0.35025 0.78476 0.67912 0.0
C212 C 0.37295 0.76768 0.67751 0.0
C213 C 0.37211 0.73385 0.6945 0.0
C214 C 0.39302 0.71825 0.6911 0.0
C215 C 0.4154 0.73621 0.6709 0.0
C216 C 0.41643 0.77016 0.65443 0.0
C217 C 0.39543 0.78563 0.65765 0.0
C218 C 0.37046 0.83601 0.77664 0.0
C219 C 0.36654 0.7406 0.81033 0.0
O220 O 0.32491 0.8012 0.83858 0.0
O221 O 0.27324 0.76003 0.81868 0.0
O222 O 0.28326 0.76335 0.73414 0.0
O223 O 0.28043 0.72489 0.7811 0.0
O224 O 0.28376 0.81692 0.74805 0.0
O225 O 0.2905 0.81702 0.69402 0.0
O226 O 0.31971 0.76583 0.68337 0.0
O227 O 0.36926 0.80926 0.70046 0.0
O228 O 0.35999 0.80452 0.78622 0.0
O229 O 0.36281 0.84303 0.73941 0.0
O230 O 0.36038 0.75146 0.77277 0.0
O231 O 0.35249 0.75047 0.8264 0.0
H232 H 0.315 0.81309 0.90291 0.0
H233 H 0.28013 0.84081 0.9104 0.0
H234 H 0.19013 0.82424 0.79249 0.0
H235 H 0.22501 0.79605 0.78546 0.0
H236 H 0.35519 0.71941 0.71021 0.0
H237 H 0.39188 0.6922 0.70453 0.0
H238 H 0.43287 0.78467 0.63822 0.0
H239 H 0.39645 0.81168 0.64419 0.0
Tb240 Tb 0.57627 0.9986 0.03081 0.0
Tb241 Tb 0.56156 0.06804 0.99237 0.0
C242 C 0.583 0.94172 0.03868 0.0
C243 C 0.59387 0.92764 0.01836 0.0
C244 C 0.58515 0.93843 0.97791 0.0
C245 C 0.59888 0.92727 0.96026 0.0
C246 C 0.62105 0.9046 0.98246 0.0
C247 C 0.62867 0.89306 0.0226 0.0
C248 C 0.61543 0.90463 0.04036 0.0
C249 C 0.62257 0.04741 0.07355 0.0
C250 C 0.60297 0.04676 0.9642 0.0
C251 C 0.55577 0.12509 0.98543 0.0
C252 C 0.54475 0.13878 1.00592 0.0
C253 C 0.55046 0.12556 0.0453 0.0
C254 C 0.53708 0.13692 0.06312 0.0
C255 C 0.51834 0.16222 0.04223 0.0
C256 C 0.51358 0.17598 1.00319 0.0
C257 C 0.52642 0.16422 0.98518 0.0
C258 C 0.51505 1.01908 0.94984 0.0
C259 C 0.5335 1.01965 0.05775 0.0
O260 O 0.55052 0.94898 0.01793 0.0
O261 O 0.60999 0.96531 0.05977 0.0
O262 O 0.60897 0.05007 0.03633 0.0
O263 O 0.61277 1.01597 0.08842 0.0
O264 O 0.59471 1.01667 0.98449 0.0
O265 O 0.59671 0.07332 0.96603 0.0
O266 O 0.58788 0.11722 1.00655 0.0
O267 O 0.52874 0.10211 0.9634 0.0
O268 O 0.52893 1.01664 0.98703 0.0
O269 O 0.52468 0.05051 0.93475 0.0
O270 O 0.54142 0.04961 0.03719 0.0
O271 O 0.54097 0.99328 0.05717 0.0
H272 H 0.5684 0.95605 0.9601 0.0
H273 H 0.59219 0.93642 0.92921 0.0
H274 H 0.64588 0.87583 0.04065 0.0
H275 H 0.62267 0.89604 0.0716 0.0
H276 H 0.56492 0.10622 0.06225 0.0
H277 H 0.54156 0.12602 0.09334 0.0
H278 H 0.499 0.19527 0.98614 0.0
H279 H 0.52154 0.17471 0.95477 0.0
Tb280 Tb 0.31149 0.27364 0.22257 0.0
Tb281 Tb 0.31585 0.28121 0.29953 0.0
C282 C 0.32391 0.2701 0.16895 0.0
C283 C 0.3462 0.2574 0.1611 0.0
C284 C 0.37674 0.24508 0.1916 0.0
C285 C 0.39842 0.23521 0.1823 0.0
C286 C 0.38986 0.2375 0.14237 0.0
C287 C 0.35857 0.24911 0.11221 0.0
C288 C 0.33717 0.25898 0.1215 0.0
C289 C 0.24969 0.24374 0.23183 0.0
C290 C 0.35175 0.22875 0.30637 0.0
C291 C 0.30209 0.28417 0.35244 0.0
C292 C 0.27748 0.29498 0.3592 0.0
C293 C 0.26414 0.27442 0.38697 0.0
C294 C 0.24484 0.28539 0.39807 0.0
C295 C 0.23812 0.31724 0.38153 0.0
C296 C 0.25018 0.33728 0.35238 0.0
C297 C 0.26975 0.32631 0.3414 0.0
C298 C 0.37695 0.31246 0.28877 0.0
C299 C 0.27659 0.3268 0.21596 0.0
O300 O 0.34223 0.29524 0.18943 0.0
O301 O 0.29756 0.24761 0.17847 0.0
O302 O 0.28323 0.24621 0.25849 0.0
O303 O 0.24964 0.25668 0.19758 0.0
O304 O 0.34714 0.24139 0.2694 0.0
O305 O 0.33779 0.23791 0.32315 0.0
O306 O 0.28631 0.25799 0.33406 0.0
O307 O 0.32737 0.30771 0.34196 0.0
O308 O 0.34311 0.309 0.263 0.0
O309 O 0.37802 0.29907 0.32344 0.0
O310 O 0.2802 0.31352 0.25255 0.0
O311 O 0.29108 0.31785 0.19955 0.0
H312 H 0.38431 0.24382 0.22242 0.0
H313 H 0.42241 0.22667 0.20637 0.0
H314 H 0.35035 0.25046 0.08119 0.0
H315 H 0.31361 0.26824 0.09752 0.0
H316 H 0.26962 0.25012 0.40103 0.0
H317 H 0.23544 0.26893 0.41997 0.0
H318 H 0.24582 0.36203 0.33911 0.0
H319 H 0.27973 0.34272 0.31989 0.0
Tb320 Tb 0.53906 0.50797 0.02401 0.0
Tb321 Tb 0.60255 0.55767 1.00672 0.0
C322 C 0.49259 0.45335 0.03347 0.0
C323 C 0.4978 0.42369 0.0643 0.0
C324 C 0.47562 0.39131 0.05465 0.0
C325 C 0.47649 0.36366 0.08484 0.0
C326 C 0.49871 0.36835 0.12505 0.0
C327 C 0.52443 0.40025 0.13406 0.0
C328 C 0.52409 0.42763 0.1039 0.0
C329 C 0.58553 0.55265 0.07305 0.0
C330 C 0.61835 0.4911 0.05994 0.0
C331 C 0.64864 0.61255 0.99757 0.0
C332 C 0.64266 0.64232 0.96701 0.0
C333 C 0.66172 0.67475 0.97749 0.0
C334 C 0.65935 0.70302 0.94792 0.0
C335 C 0.63878 0.69907 0.90746 0.0
C336 C 0.61613 0.66659 0.89753 0.0
C337 C 0.61793 0.63854 0.92704 0.0
C338 C 0.55645 0.51264 0.95818 0.0
C339 C 0.52294 0.57446 0.96979 0.0
O340 O 0.50765 0.45903 1.01003 0.0
O341 O 0.49881 0.48086 0.04524 0.0
O342 O 0.59407 0.53796 0.05813 0.0
O343 O 0.54959 0.54059 0.06302 0.0
O344 O 0.58146 0.47996 0.04957 0.0
O345 O 0.63487 0.52336 0.05153 0.0
O346 O 0.63395 0.60632 0.02153 0.0
O347 O 0.64273 0.5853 0.98546 0.0
O348 O 0.5477 0.52754 0.9727 0.0
O349 O 0.59246 0.52472 0.96835 0.0
O350 O 0.55961 0.58533 0.9792 0.0
O351 O 0.50666 0.54249 0.97974 0.0
H352 H 0.45616 0.38768 0.02402 0.0
H353 H 0.45729 0.3392 0.07679 0.0
H354 H 0.54217 0.40509 0.16445 0.0
H355 H 0.54258 0.45231 0.11184 0.0
H356 H 0.67976 0.67815 1.00838 0.0
H357 H 0.67608 0.72772 0.95673 0.0
H358 H 0.59973 0.66215 0.86696 0.0
H359 H 0.60163 0.61374 0.91834 0.0
Tb360 Tb 0.80707 0.27533 0.29595 0.0
Tb361 Tb 0.82874 0.28686 0.23056 0.0
C362 C 0.79314 0.28305 0.34633 0.0
C363 C 0.77298 0.30232 0.34877 0.0
C364 C 0.78932 0.31694 0.38293 0.0
C365 C 0.7697 0.33302 0.38753 0.0
C366 C 0.73308 0.33473 0.3581 0.0
C367 C 0.71711 0.32074 0.32341 0.0
C368 C 0.73688 0.30483 0.31871 0.0
C369 C 0.76801 0.22955 0.24826 0.0
C370 C 0.77397 0.32492 0.21431 0.0
C371 C 0.84157 0.27806 0.1799 0.0
C372 C 0.8639 0.26057 0.17825 0.0
C373 C 0.84752 0.24304 0.1464 0.0
C374 C 0.86841 0.22771 0.14274 0.0
C375 C 0.90637 0.2296 0.17086 0.0
C376 C 0.92257 0.24676 0.20319 0.0
C377 C 0.90155 0.26199 0.20691 0.0
C378 C 0.86767 0.3328 0.27797 0.0
C379 C 0.86317 0.23807 0.31312 0.0
O380 O 0.82422 0.30029 0.34257 0.0
O381 O 0.77231 0.25914 0.32407 0.0
O382 O 0.77899 0.2609 0.23833 0.0
O383 O 0.77685 0.22295 0.28579 0.0
O384 O 0.78318 0.31628 0.25277 0.0
O385 O 0.78439 0.31229 0.19694 0.0
O386 O 0.81271 0.25893 0.1871 0.0
O387 O 0.86043 0.30421 0.19873 0.0
O388 O 0.85673 0.30144 0.28799 0.0
O389 O 0.85908 0.33928 0.24047 0.0
O390 O 0.85591 0.24819 0.27519 0.0
O391 O 0.85014 0.24857 0.32973 0.0
H392 H 0.81707 0.31528 0.40655 0.0
H393 H 0.78279 0.3432 0.41476 0.0
H394 H 0.68923 0.32202 0.29987 0.0
H395 H 0.72366 0.29403 0.29187 0.0
H396 H 0.81858 0.24162 0.12388 0.0
H397 H 0.85504 0.2151 0.11723 0.0
H398 H 0.95151 0.24835 0.22572 0.0
H399 H 0.91488 0.27513 0.23199 0.0
Tb400 Tb 0.07212 0.49865 0.52933 0.0
Tb401 Tb 1.05673 0.56738 0.48957 0.0
C402 C 0.08018 0.44221 0.53812 0.0
C403 C 0.09566 0.42981 0.52086 0.0
C404 C 0.07291 0.4028 0.49898 0.0
C405 C 0.08724 0.39103 0.4825 0.0
C406 C 0.12478 0.40598 0.48755 0.0
C407 C 0.14733 0.43323 0.5092 0.0
C408 C 0.13305 0.44492 0.52567 0.0
C409 C 0.11922 0.54854 0.57023 0.0
C410 C 0.09772 0.54526 0.4615 0.0
C411 C 1.04989 0.6242 0.48138 0.0
C412 C 1.03753 0.63726 0.50113 0.0
C413 C 1.04648 0.62673 0.54166 0.0
C414 C 1.03137 0.63669 0.55885 0.0
C415 C 1.00706 0.65754 0.53599 0.0
C416 C 0.99917 0.6688 0.4957 0.0
C417 C 1.01411 0.65867 0.47851 0.0
C418 C 1.00972 0.51763 0.44851 0.0
C419 C 1.02991 0.52022 0.55622 0.0
O420 O 1.0482 0.44987 0.51371 0.0
O421 O 0.10439 0.46434 0.5624 0.0
O422 O 0.10493 0.55036 0.53305 0.0
O423 O 0.10955 0.51743 0.58603 0.0
O424 O 0.09056 0.51571 0.48318 0.0
O425 O 0.09105 0.57198 0.46241 0.0
O426 O 0.08226 0.61679 0.5031 0.0
O427 O 1.02355 0.60115 0.45912 0.0
O428 O 1.02405 0.51578 0.48572 0.0
O429 O 1.0192 0.54884 0.43275 0.0
O430 O 1.0381 0.55008 0.5356 0.0
O431 O 1.03651 0.49353 0.55517 0.0
H432 H 1.044 0.39067 0.49472 0.0
H433 H 1.06907 0.3698 0.4664 0.0
H434 H 0.17607 0.4459 0.51311 0.0
H435 H 0.15135 0.46606 0.5419 0.0
H436 H 1.06444 0.61013 0.55991 0.0
H437 H 1.03784 0.62715 0.58979 0.0
H438 H 0.98125 0.68538 0.47725 0.0
H439 H 1.00679 0.66714 0.44724 0.0
Tb440 Tb 0.84156 0.75768 0.2803 0.0
Tb441 Tb 0.79911 0.80682 0.24862 0.0
C442 C 0.86756 0.71353 0.28497 0.0
C443 C 0.89418 0.71089 0.2742 0.0
C444 C 0.89109 0.72282 0.23564 0.0
C445 C 0.91346 0.71617 0.22469 0.0
C446 C 0.93953 0.69772 0.25217 0.0
C447 C 0.94401 0.68757 0.29138 0.0
C448 C 0.92137 0.69394 0.30219 0.0
C449 C 0.87379 0.80668 0.32228 0.0
C450 C 0.86209 0.82566 0.21642 0.0
C451 C 0.77295 0.85062 0.24457 0.0
C452 C 0.74389 0.85304 0.25188 0.0
C453 C 0.74257 0.83909 0.2884 0.0
C454 C 0.71867 0.84607 0.29691 0.0
C455 C 0.69546 0.86695 0.269 0.0
C456 C 0.69518 0.87907 0.23155 0.0
C457 C 0.71933 0.87232 0.2232 0.0
C458 C 0.7665 0.75742 0.20689 0.0
C459 C 0.77922 0.73882 0.31321 0.0
O460 O 0.836 0.71942 0.25548 0.0
O461 O 0.88209 0.73068 0.31379 0.0
O462 O 0.85683 0.80907 0.28503 0.0
O463 O 0.87531 0.7759 0.33771 0.0
O464 O 0.86464 0.79415 0.23558 0.0
O465 O 0.83907 0.83687 0.2199 0.0
O466 O 0.80214 0.84203 0.27585 0.0
O467 O 0.76106 0.83629 0.21418 0.0
O468 O 0.78372 0.75539 0.24411 0.0
O469 O 0.76506 0.78823 0.19131 0.0
O470 O 0.77432 0.76922 0.29156 0.0
O471 O 0.8042 0.72858 0.31197 0.0
H472 H 0.87048 0.73621 0.21349 0.0
H473 H 0.909 0.72414 0.19417 0.0
H474 H 0.96438 0.67395 0.31351 0.0
H475 H 0.92435 0.68474 0.33216 0.0
H476 H 0.76108 0.82393 0.31104 0.0
H477 H 0.71989 0.83651 0.32614 0.0
H478 H 0.67708 0.89461 0.20905 0.0
H479 H 0.71976 0.88318 0.19478 0.0
Tb480 Tb 0.7905 0.26202 0.76611 0.0
Tb481 Tb 0.86163 0.30474 0.75836 0.0
C482 C 0.7312 0.21548 0.75886 0.0
C483 C 0.72122 0.17858 0.76419 0.0
C484 C 0.69084 0.16126 0.73293 0.0
C485 C 0.67707 0.12617 0.73952 0.0
C486 C 0.69277 0.10815 0.7779 0.0
C487 C 0.72664 0.12537 0.80735 0.0
C488 C 0.74068 0.16027 0.80054 0.0
C489 C 0.83723 0.30524 0.81683 0.0
C490 C 0.86093 0.2312 0.80375 0.0
C491 C 0.92293 0.34897 0.76677 0.0
C492 C 0.93827 0.38521 0.7676 0.0
C493 C 0.97491 0.4009 0.77141 0.0
C494 C 0.98806 0.43586 0.7654 0.0
C495 C 0.96467 0.45575 0.75541 0.0
C496 C 0.92938 0.43978 0.75598 0.0
C497 C 0.9162 0.40456 0.76203 0.0
C498 C 0.81416 0.26207 0.70687 0.0
C499 C 0.79028 0.33465 0.71937 0.0
O500 O 0.73951 0.23129 0.72931 0.0
O501 O 0.75394 0.23002 0.79091 0.0
O502 O 0.84589 0.28794 0.80488 0.0
O503 O 0.80055 0.29686 0.80231 0.0
O504 O 0.8247 0.22572 0.79378 0.0
O505 O 0.88188 0.2612 0.79496 0.0
O506 O 0.91552 0.33092 0.79644 0.0
O507 O 0.8962 0.33955 0.73237 0.0
O508 O 0.80628 0.27925 0.71967 0.0
O509 O 0.85073 0.27044 0.72078 0.0
O510 O 0.82754 0.34124 0.73306 0.0
O511 O 0.7691 0.30389 0.72561 0.0
H512 H 0.67636 0.17498 0.70408 0.0
H513 H 0.6519 0.11365 0.71565 0.0
H514 H 0.74022 0.11277 0.83725 0.0
H515 H 0.76521 0.17298 0.82468 0.0
H516 H 0.99243 0.38617 0.77631 0.0
H517 H 1.01504 0.44698 0.76449 0.0
H518 H 0.9108 0.45439 0.74846 0.0
H519 H 0.88808 0.39257 0.76006 0.0
Tb520 Tb 0.81477 0.77629 0.72609 0.0
Tb521 Tb 0.82916 0.79316 0.80362 0.0
C522 C 0.81795 0.7641 0.67047 0.0
C523 C 0.83915 0.75037 0.6622 0.0
C524 C 0.87461 0.74536 0.69081 0.0
C525 C 0.89393 0.73286 0.68108 0.0
C526 C 0.87821 0.72536 0.64259 0.0
C527 C 0.8426 0.73037 0.61433 0.0
C528 C 0.82336 0.74266 0.62407 0.0
C529 C 0.75859 0.75003 0.74536 0.0
C530 C 0.86203 0.73772 0.8117 0.0
C531 C 0.82306 0.80331 0.85842 0.0
C532 C 0.80026 0.81554 0.86613 0.0
C533 C 0.76806 0.82552 0.83567 0.0
C534 C 0.74639 0.83547 0.84491 0.0
C535 C 0.75643 0.83538 0.8848 0.0
C536 C 0.78942 0.82624 0.91483 0.0
C537 C 0.81089 0.81638 0.90559 0.0
C538 C 0.88637 0.81888 0.78634 0.0
C539 C 0.78351 0.83273 0.71777 0.0
O540 O 0.8356 0.79297 0.68401 0.0
O541 O 0.79708 0.74275 0.68782 0.0
O542 O 0.79322 0.75402 0.76829 0.0
O543 O 0.75371 0.75983 0.709 0.0
O544 O 0.85394 0.74731 0.77346 0.0
O545 O 0.85109 0.74958 0.8293 0.0
O546 O 0.80671 0.77465 0.84449 0.0
O547 O 0.84428 0.82564 0.84193 0.0
O548 O 0.85183 0.81502 0.76219 0.0
O549 O 0.89024 0.81074 0.82236 0.0
O550 O 0.7909 0.82289 0.75583 0.0
O551 O 0.79455 0.82068 0.7005 0.0
H552 H 0.88733 0.75117 0.72048 0.0
H553 H 0.92103 0.72885 0.70371 0.0
H554 H 0.8298 0.72536 0.58429 0.0
H555 H 0.79612 0.74647 0.60151 0.0
H556 H 0.75928 0.82496 0.80496 0.0
H557 H 0.72109 0.84205 0.82094 0.0
H558 H 0.79885 0.82669 0.94573 0.0
H559 H 0.8358 0.80907 0.92952 0.0
Tb560 Tb 0.55343 0.51081 0.49346 0.0
Tb561 Tb 0.5935 0.55346 0.54119 0.0
C562 C 0.53149 0.46877 0.44867 0.0
C563 C 0.55117 0.4567 0.43645 0.0
C564 C 0.58857 0.47408 0.44245 0.0
C565 C 0.60754 0.46153 0.43248 0.0
C566 C 0.58949 0.43135 0.4161 0.0
C567 C 0.55179 0.41428 0.40976 0.0
C568 C 0.53294 0.42679 0.41993 0.0
C569 C 0.52258 0.49021 0.54702 0.0
C570 C 0.63151 0.50036 0.56236 0.0
C571 C 0.61528 0.59541 0.586 0.0
C572 C 0.59542 0.60771 0.59777 0.0
C573 C 0.55894 0.58919 0.59418 0.0
C574 C 0.53986 0.60178 0.60397 0.0
C575 C 0.55677 0.63323 0.6175 0.0
C576 C 0.59345 0.65156 0.62115 0.0
C577 C 0.61249 0.63893 0.61137 0.0
C578 C 0.62405 0.57414 0.48738 0.0
C579 C 0.51592 0.5644 0.47173 0.0
O580 O 0.53123 0.50014 0.43601 0.0
O581 O 0.53935 0.46069 0.48606 0.0
O582 O 0.55811 0.50172 0.5544 0.0
O583 O 0.50486 0.49258 0.50859 0.0
O584 O 0.60754 0.49827 0.52482 0.0
O585 O 0.6296 0.52021 0.57924 0.0
O586 O 0.61518 0.56394 0.59859 0.0
O587 O 0.60801 0.60363 0.54878 0.0
O588 O 0.58857 0.56262 0.48019 0.0
O589 O 0.64192 0.57182 0.52581 0.0
O590 O 0.53957 0.56642 0.50937 0.0
O591 O 0.51785 0.54437 0.45511 0.0
H592 H 0.6033 0.49722 0.45523 0.0
H593 H 0.63664 0.4752 0.43836 0.0
H594 H 0.53667 0.3913 0.39668 0.0
H595 H 0.50409 0.41297 0.41505 0.0
H596 H 0.54511 0.56504 0.58364 0.0
H597 H 0.51193 0.58669 0.60121 0.0
H598 H 0.60723 0.67606 0.63082 0.0
H599 H 0.64047 0.65377 0.61403 0.0
Tb600 Tb 1.06366 0.52689 0.04711 0.0
Tb601 Tb 0.0807 0.54223 0.97888 0.0
C602 C 1.05748 0.53101 0.10458 0.0
C603 C 1.04943 0.55504 0.11576 0.0
C604 C 0.07883 0.57432 0.14574 0.0
C605 C 0.07143 0.59559 0.15859 0.0
C606 C 1.03444 0.59766 0.14216 0.0
C607 C 1.00519 0.57921 0.11131 0.0
C608 C 1.01259 0.55806 0.09822 0.0
C609 C 1.02267 0.48156 0.99835 0.0
C610 C 1.02869 0.57969 0.97083 0.0
C611 C 0.08626 0.53819 0.92096 0.0
C612 C 0.09228 0.51362 0.90847 0.0
C613 C 1.06289 0.49821 0.8752 0.0
C614 C 1.06846 0.47638 0.86126 0.0
C615 C 0.10367 0.46984 0.87996 0.0
C616 C 0.13275 0.48444 0.91402 0.0
C617 C 0.12712 0.50613 0.92819 0.0
C618 C 0.12186 0.58756 0.02771 0.0
C619 C 0.11547 0.48933 0.05534 0.0
O620 O 0.08977 0.5413 0.10305 0.0
O621 O 1.0297 0.51452 0.07536 0.0
O622 O 1.03248 0.51313 0.98882 0.0
O623 O 1.03374 0.47447 0.03637 0.0
O624 O 1.03804 0.5683 1.00904 0.0
O625 O 1.03956 0.57025 0.95129 0.0
O626 O 1.05397 0.52921 0.92214 0.0
O627 O 0.11474 0.55325 0.95107 0.0
O628 O 0.11198 0.55599 0.03717 0.0
O629 O 0.11084 0.59459 0.98969 0.0
O630 O 0.10593 0.50048 0.01702 0.0
O631 O 0.10498 0.49916 0.07492 0.0
H632 H 0.1075 0.57257 0.15972 0.0
H633 H 0.09452 0.61016 0.18174 0.0
H634 H 0.97633 0.58014 0.0983 0.0
H635 H 0.98929 0.54356 0.07503 0.0
H636 H 1.03571 0.50345 0.85955 0.0
H637 H 1.04534 0.46492 0.83553 0.0
H638 H 0.16032 0.48007 0.92889 0.0
H639 H 0.15031 0.51752 0.95401 0.0
H640 H 0.24778 0.25455 0.85271 0.0
H641 H 0.25708 0.16735 0.83549 0.0
H642 H 0.21179 0.21778 0.89028 0.0
H643 H 0.21968 0.13052 0.87145 0.0
H644 H 0.12252 0.06547 0.91682 0.0
H645 H 0.15812 0.10215 0.87862 0.0
H646 H 0.20727 0.17861 0.9516 0.0
H647 H 0.17314 0.14148 0.99063 0.0
C648 C 0.24236 0.22757 0.85634 0.0
C649 C 0.25706 0.21553 0.83959 0.0
C650 C 0.22107 0.20574 0.87868 0.0
C651 C 0.21108 0.16947 0.88552 0.0
C652 C 0.22524 0.15749 0.86811 0.0
C653 C 0.24753 0.17934 0.84687 0.0
C654 C 0.14044 0.09017 0.925 0.0
C655 C 0.14288 0.09922 0.95799 0.0
C656 C 0.16184 0.11183 0.90262 0.0
C657 C 0.1871 0.14511 0.91022 0.0
C658 C 0.18889 0.1542 0.94279 0.0
C659 C 0.16853 0.1322 0.96587 0.0
H660 H 0.13959 0.95568 0.03809 0.0
H661 H 0.18673 1.00119 0.14201 0.0
H662 H 0.17964 0.91802 0.07647 0.0
H663 H 0.22755 0.96322 0.18067 0.0
H664 H 0.31731 0.90343 0.22342 0.0
H665 H 0.28287 0.94656 0.18609 0.0
H666 H 0.17991 0.86931 0.13174 0.0
H667 H 0.21369 0.82669 0.16886 0.0
C668 C 0.1588 0.95801 0.06909 0.0
C669 C 0.1596 0.9816 0.08682 0.0
C670 C 0.18176 0.93616 0.09122 0.0
C671 C 0.20675 0.93726 0.13185 0.0
C672 C 0.20878 0.96171 0.14943 0.0
C673 C 0.18528 0.98343 0.12727 0.0
C674 C 0.28737 0.89574 0.20337 0.0
C675 C 0.26843 0.86143 0.19924 0.0
C676 C 0.26755 0.92044 0.18218 0.0
C677 C 0.22853 0.91152 0.15568 0.0
C678 C 0.20993 0.87728 0.15148 0.0
C679 C 0.22941 0.85272 0.17303 0.0
H680 H 0.47685 0.99146 0.41943 0.0
H681 H 0.50751 0.91198 0.51789 0.0
H682 H 0.43091 0.94912 0.37515 0.0
H683 H 0.4621 0.8698 0.4737 0.0
H684 H 0.40772 0.80814 0.37177 0.0
H685 H 0.45384 0.85157 0.41403 0.0
H686 H 0.36814 0.90178 0.36804 0.0
H687 H 0.32173 0.85792 0.32589 0.0
C688 C 0.47396 0.96497 0.43152 0.0
C689 C 0.49574 0.955 0.47213 0.0
C690 C 0.44749 0.94076 0.40625 0.0
C691 C 0.44279 0.9061 0.42094 0.0
C692 C 0.46518 0.89627 0.46142 0.0
C693 C 0.4911 0.92041 0.48675 0.0
C694 C 0.39873 0.82846 0.37072 0.0
C695 C 0.36113 0.82962 0.34567 0.0
C696 C 0.4251 0.85325 0.395 0.0
C697 C 0.41468 0.88013 0.3944 0.0
C698 C 0.37709 0.88151 0.36898 0.0
C699 C 0.35047 0.8563 0.34514 0.0
H700 H 0.40492 0.13343 0.72147 0.0
H701 H 0.50162 0.22183 0.74769 0.0
H702 H 0.42987 0.11446 0.69175 0.0
H703 H 0.52677 0.20271 0.71761 0.0
H704 H 0.57345 0.12431 0.70937 0.0
H705 H 0.55136 0.15155 0.73442 0.0
H706 H 0.44231 0.13438 0.63125 0.0
H707 H 0.46422 0.10685 0.60648 0.0
C708 C 0.43165 0.14872 0.721 0.0
C709 C 0.45156 0.17893 0.73716 0.0
C710 C 0.44569 0.13806 0.7036 0.0
C711 C 0.48009 0.15725 0.70221 0.0
C712 C 0.50018 0.18748 0.71841 0.0
C713 C 0.4858 0.19843 0.73544 0.0
C714 C 0.54489 0.12664 0.69199 0.0
C715 C 0.52038 0.11322 0.65623 0.0
C716 C 0.53241 0.14247 0.7061 0.0
C717 C 0.49509 0.1448 0.68485 0.0
C718 C 0.47113 0.13262 0.64831 0.0
C719 C 0.48372 0.11711 0.63404 0.0
H720 H 0.10096 0.92912 0.59065 0.0
H721 H 0.19378 1.00353 0.56933 0.0
H722 H 0.13853 0.88932 0.6269 0.0
H723 H 0.23139 0.96323 0.60554 0.0
H724 H 0.26846 0.86606 0.63765 0.0
H725 H 0.23137 0.90676 0.59963 0.0
H726 H 0.19662 0.88416 0.69096 0.0
H727 H 0.23352 0.84385 0.72886 0.0
C728 C 0.12943 0.93712 0.59377 0.0
C729 C 0.14439 0.96977 0.5773 0.0
C730 C 0.15102 0.91422 0.61465 0.0
C731 C 0.18801 0.9231 0.61923 0.0
C732 C 0.20288 0.95554 0.6023 0.0
C733 C 0.18141 0.9787 0.58178 0.0
C734 C 0.25279 0.8697 0.64952 0.0
C735 C 0.25392 0.85153 0.68629 0.0
C736 C 0.23177 0.89319 0.62787 0.0
C737 C 0.21099 0.89866 0.64223 0.0
C738 C 0.21198 0.88033 0.67884 0.0
C739 C 0.23331 0.85726 0.70066 0.0
H740 H 0.38067 0.90334 0.75592 0.0
H741 H 0.40576 0.82587 0.85818 0.0
H742 H 0.41531 0.94618 0.79916 0.0
H743 H 0.44211 0.869 0.902 0.0
H744 H 0.47487 0.95502 0.96845 0.0
H745 H 0.43944 0.90953 0.92788 0.0
H746 H 0.47747 0.97395 0.84021 0.0
H747 H 0.51118 1.01934 0.8799 0.0
C748 C 0.39388 0.89554 0.78778 0.0
C749 C 0.39068 0.86135 0.80371 0.0
C750 C 0.41406 0.92013 0.81267 0.0
C751 C 0.43214 0.91127 0.85424 0.0
C752 C 0.42838 0.87683 0.87021 0.0
C753 C 0.4077 0.85211 0.84516 0.0
C754 C 0.47557 0.95921 0.94051 0.0
C755 C 0.4953 0.99071 0.92701 0.0
C756 C 0.45546 0.93316 0.91731 0.0
C757 C 0.45503 0.93808 0.88034 0.0
C758 C 0.47607 0.96941 0.86782 0.0
C759 C 0.49563 0.99545 0.89067 0.0
H760 H 0.47774 0.12371 0.08397 0.0
H761 H 0.52453 0.22706 0.04211 0.0
H762 H 0.44968 0.14248 0.11051 0.0
H763 H 0.49795 0.24615 0.06995 0.0
H764 H 0.40976 0.26826 0.0816 0.0
H765 H 0.44166 0.25013 0.05961 0.0
H766 H 0.45762 0.16852 0.15831 0.0
H767 H 0.42304 0.1854 0.17865 0.0
C768 C 0.48254 0.15052 0.08101 0.0
C769 C 0.50317 0.17385 0.06065 0.0
C770 C 0.46656 0.16139 0.09642 0.0
C771 C 0.47115 0.19598 0.09237 0.0
C772 C 0.49281 0.2193 0.07295 0.0
C773 C 0.5083 0.20838 0.05707 0.0
C774 C 0.41963 0.24618 0.09845 0.0
C775 C 0.41306 0.22801 0.13159 0.0
C776 C 0.43865 0.23603 0.08616 0.0
C777 C 0.45236 0.20762 0.10692 0.0
C778 C 0.44696 0.19011 0.14095 0.0
C779 C 0.42754 0.20012 0.15305 0.0
H780 H 0.16148 0.25638 0.36334 0.0
H781 H 0.08364 0.16561 0.31222 0.0
H782 H 0.17899 0.27591 0.30901 0.0
H783 H 0.10026 0.18584 0.25789 0.0
H784 H 0.23573 0.19988 0.29082 0.0
H785 H 0.18948 0.19539 0.31131 0.0
H786 H 0.14818 0.27192 0.21337 0.0
H787 H 0.19434 0.27597 0.19207 0.0
C788 C 0.14668 0.24146 0.33957 0.0
C789 C 0.12268 0.20874 0.34317 0.0
C790 C 0.15627 0.25291 0.30819 0.0
C791 C 0.14138 0.2319 0.28006 0.0
C792 C 0.11199 0.20235 0.27943 0.0
C793 C 0.10261 0.19077 0.31085 0.0
C794 C 0.21623 0.21518 0.2732 0.0
C795 C 0.21833 0.23814 0.24004 0.0
C796 C 0.18993 0.21267 0.28483 0.0
C797 C 0.16554 0.2333 0.26368 0.0
C798 C 0.16671 0.25573 0.22977 0.0
C799 C 0.19282 0.25785 0.21764 0.0
H800 H 0.98071 0.25563 0.18406 0.0
H801 H 0.88344 0.16919 0.14587 0.0
H802 H 1.01682 0.23191 0.17327 0.0
H803 H 0.91906 0.14608 0.13373 0.0
H804 H 1.00444 0.09874 0.15014 0.0
H805 H 0.97072 0.12116 0.16587 0.0
H806 H 1.01967 0.22176 0.11896 0.0
H807 H 1.05328 0.19939 0.10319 0.0
C808 C 0.96705 0.23145 0.17362 0.0
C809 C 0.92903 0.21443 0.16577 0.0
C810 C 0.98766 0.21802 0.16695 0.0
C811 C 0.9709 0.1871 0.15237 0.0
C812 C 0.9331 0.16978 0.14526 0.0
C813 C 0.91248 0.18326 0.15181 0.0
C814 C 1.00784 0.12562 0.1429 0.0
C815 C 1.03168 0.14716 0.12532 0.0
C816 C 0.98847 0.13852 0.15198 0.0
C817 C 0.99236 0.17334 0.14374 0.0
C818 C 1.01641 0.19489 0.12641 0.0
C819 C 1.03574 0.18201 0.11731 0.0
H820 H 0.12379 0.49862 0.46006 0.0
H821 H 0.09681 0.5928 0.39655 0.0
H822 H 0.13688 0.49607 0.40879 0.0
H823 H 0.11067 0.59056 0.34558 0.0
H824 H 0.21865 0.55429 0.34504 0.0
H825 H 0.18683 0.52882 0.38717 0.0
H826 H 0.08728 0.5576 0.29211 0.0
H827 H 0.11946 0.58435 0.25093 0.0
C828 C 0.12085 0.51892 0.43525 0.0
C829 C 0.10957 0.54614 0.4325 0.0
C830 C 0.12809 0.51723 0.40579 0.0
C831 C 0.12403 0.54266 0.37283 0.0
C832 C 0.11299 0.57002 0.37016 0.0
C833 C 0.10585 0.57176 0.39973 0.0
C834 C 0.18936 0.55387 0.33248 0.0
C835 C 0.17277 0.57378 0.29593 0.0
C836 C 0.17107 0.53921 0.35667 0.0
C837 C 0.13555 0.54332 0.34354 0.0
C838 C 0.11547 0.5556 0.30346 0.0
C839 C 0.13393 0.57058 0.27957 0.0
H840 H 0.65942 0.97548 0.53378 0.0
H841 H 0.62562 0.94967 0.6265 0.0
H842 H 0.70122 0.93901 0.57269 0.0
H843 H 0.66566 0.91216 0.66441 0.0
H844 H 0.76754 0.87296 0.74345 0.0
H845 H 0.72814 0.91105 0.70359 0.0
H846 H 0.70555 0.8836 0.59651 0.0
H847 H 0.74653 0.84671 0.63655 0.0
C848 C 0.66058 0.96172 0.56225 0.0
C849 C 0.63939 0.96574 0.57713 0.0
C850 C 0.68445 0.94062 0.58459 0.0
C851 C 0.68733 0.92265 0.62212 0.0
C852 C 0.66524 0.92615 0.6363 0.0
C853 C 0.64191 0.94755 0.61431 0.0
C854 C 0.75436 0.87519 0.71139 0.0
C855 C 0.76034 0.85678 0.69328 0.0
C856 C 0.73138 0.89689 0.68839 0.0
C857 C 0.71314 0.90042 0.64655 0.0
C858 C 0.71941 0.8821 0.62849 0.0
C859 C 0.74285 0.86074 0.65153 0.0
H860 H 0.47978 0.49588 0.91912 0.0
H861 H 0.57494 0.46186 0.95326 0.0
H862 H 0.43616 0.4453 0.88828 0.0
H863 H 0.53113 0.41076 0.92294 0.0
H864 H 0.43317 0.30798 0.9027 0.0
H865 H 0.47731 0.35789 0.93533 0.0
H866 H 0.42342 0.42212 0.82804 0.0
H867 H 0.3803 0.37269 0.79519 0.0
C868 C 0.4913 0.47758 0.91986 0.0
C869 C 0.53063 0.48279 0.93821 0.0
C870 C 0.46639 0.44869 0.90229 0.0
C871 C 0.48032 0.42414 0.90336 0.0
C872 C 0.51971 0.42923 0.92198 0.0
C873 C 0.54471 0.45852 0.93893 0.0
C874 C 0.4307 0.33277 0.88624 0.0
C875 C 0.40306 0.33644 0.84654 0.0
C876 C 0.45604 0.36126 0.90479 0.0
C877 C 0.45367 0.39378 0.88415 0.0
C878 C 0.42564 0.39732 0.84471 0.0
C879 C 0.40087 0.369 0.82599 0.0
H880 H 0.92853 0.80743 0.39939 0.0
H881 H 0.87486 0.87241 0.29267 0.0
H882 H 0.97199 0.85705 0.43266 0.0
H883 H 0.91726 0.92164 0.3264 0.0
H884 H 0.97609 0.9936 0.42176 0.0
H885 H 0.93135 0.94314 0.39074 0.0
H886 H 1.02489 0.91075 0.41642 0.0
H887 H 1.06963 0.96165 0.4465 0.0
C888 C 0.92567 0.83222 0.38327 0.0
C889 C 0.89816 0.83607 0.34355 0.0
C890 C 0.95057 0.86052 0.40223 0.0
C891 C 0.9478 0.89303 0.38202 0.0
C892 C 0.9197 0.89679 0.34267 0.0
C893 C 0.89541 0.86862 0.32346 0.0
C894 C 0.987 0.97572 0.42058 0.0
C895 C 1.02618 0.98149 0.43619 0.0
C896 C 0.96148 0.94696 0.40292 0.0
C897 C 0.97479 0.92314 0.4014 0.0
C898 C 1.01401 0.92869 0.41751 0.0
C899 C 1.0395 0.95783 0.43439 0.0
H900 H 0.5857 0.66884 0.67811 0.0
H901 H 0.48092 0.62923 0.57894 0.0
H902 H 0.55232 0.69244 0.69289 0.0
H903 H 0.44756 0.65256 0.594 0.0
H904 H 0.39239 0.67262 0.65336 0.0
H905 H 0.4267 0.64667 0.64266 0.0
H906 H 0.52132 0.7368 0.66572 0.0
H907 H 0.48745 0.76234 0.67744 0.0
C908 C 0.5556 0.66528 0.65927 0.0
C909 C 0.53615 0.64706 0.62723 0.0
C910 C 0.53641 0.67881 0.66782 0.0
C911 C 0.49716 0.67445 0.64468 0.0
C912 C 0.47764 0.65599 0.61289 0.0
C913 C 0.49684 0.64255 0.60426 0.0
C914 C 0.42071 0.68674 0.65667 0.0
C915 C 0.43704 0.71965 0.66616 0.0
C916 C 0.44025 0.67199 0.65009 0.0
C917 C 0.47678 0.68965 0.65309 0.0
C918 C 0.4934 0.7223 0.66341 0.0
C919 C 0.47378 0.73711 0.66975 0.0
H920 H 0.6335 1.00332 0.96365 0.0
H921 H 0.59743 0.09318 0.89765 0.0
H922 H 0.64284 1.00016 0.90983 0.0
H923 H 0.60882 0.09121 0.84486 0.0
H924 H 0.71482 0.05516 0.83698 0.0
H925 H 0.68625 1.03002 0.882 0.0
H926 H 0.58581 0.0602 0.79213 0.0
H927 H 0.61551 0.0878 0.74883 0.0
C928 C 0.6277 1.02248 0.93765 0.0
C929 C 0.61453 0.04843 0.93469 0.0
C930 C 0.63303 1.02059 0.90686 0.0
C931 C 0.62568 0.04486 0.87263 0.0
C932 C 0.61348 0.07135 0.87022 0.0
C933 C 0.60787 0.07307 0.9009 0.0
C934 C 0.68611 0.05545 0.82628 0.0
C935 C 0.6689 0.07612 0.79076 0.0
C936 C 0.66958 0.04083 0.85212 0.0
C937 C 0.63492 0.04544 0.84145 0.0
C938 C 0.6136 0.05807 0.80188 0.0
C939 C 0.63055 0.07344 0.7766 0.0
H940 H 0.12121 0.44672 0.12431 0.0
H941 H 0.16166 0.47682 0.03625 0.0
H942 H 0.15944 0.40769 0.16178 0.0
H943 H 0.20183 0.43894 0.0749 0.0
H944 H 0.24435 0.34533 0.13521 0.0
H945 H 0.20497 0.38357 0.09574 0.0
H946 H 0.22027 0.40365 0.20348 0.0
H947 H 0.25785 0.36402 0.24256 0.0
C948 C 0.13862 0.44523 0.11312 0.0
C949 C 0.13845 0.46502 0.07733 0.0
C950 C 0.16094 0.42295 0.13487 0.0
C951 C 0.18438 0.42018 0.12193 0.0
C952 C 0.18393 0.43988 0.0858 0.0
C953 C 0.161 0.4618 0.06363 0.0
C954 C 0.23938 0.35802 0.15046 0.0
C955 C 0.25427 0.35155 0.19209 0.0
C956 C 0.21687 0.38018 0.12776 0.0
C957 C 0.20905 0.39691 0.14611 0.0
C958 C 0.22469 0.39081 0.18794 0.0
C959 C 0.24664 0.36822 0.21054 0.0
H960 H 0.59342 0.71369 0.82661 0.0
H961 H 0.70792 0.74411 0.91918 0.0
H962 H 0.61805 0.73309 0.77781 0.0
H963 H 0.73145 0.7629 0.871 0.0
H964 H 0.75443 0.70917 0.81001 0.0
H965 H 0.72026 0.70941 0.84282 0.0
H966 H 0.66878 0.78232 0.74641 0.0
H967 H 0.70327 0.78182 0.71293 0.0
C968 C 0.62348 0.72586 0.83637 0.0
C969 C 0.64882 0.72556 0.87723 0.0
C970 C 0.63744 0.73714 0.80832 0.0
C971 C 0.67665 0.7487 0.82104 0.0
C972 C 0.70107 0.75416 0.86052 0.0
C973 C 0.68728 0.74318 0.88833 0.0
C974 C 0.73517 0.72467 0.79539 0.0
C975 C 0.73147 0.74554 0.7593 0.0
C976 C 0.71597 0.7251 0.81426 0.0
C977 C 0.69284 0.7466 0.79749 0.0
C978 C 0.68684 0.76585 0.75991 0.0
C979 C 0.7062 0.76533 0.74077 0.0
H980 H 0.72749 0.33353 0.13399 0.0
H981 H 0.76967 0.37206 0.24145 0.0
H982 H 0.68958 0.37371 0.09609 0.0
H983 H 0.73261 0.41255 0.20344 0.0
H984 H 0.69478 0.50466 0.10846 0.0
H985 H 0.73259 0.46451 0.14518 0.0
H986 H 0.63217 0.3829 0.09765 0.0
H987 H 0.5941 0.42282 0.06165 0.0
C988 C 0.72886 0.35067 0.14944 0.0
C989 C 0.75153 0.34955 0.19071 0.0
C990 C 0.70706 0.37353 0.1278 0.0
C991 C 0.70824 0.39626 0.14686 0.0
C992 C 0.73133 0.39546 0.18797 0.0
C993 C 0.7524 0.37215 0.20971 0.0
C994 C 0.68076 0.47816 0.10586 0.0
C995 C 0.64143 0.46692 0.08225 0.0
C996 C 0.70239 0.4552 0.12694 0.0
C997 C 0.68531 0.42063 0.12414 0.0
C998 C 0.64609 0.40943 0.10013 0.0
C999 C 0.62431 0.43227 0.07975 0.0
H1000 H 0.97038 0.45328 0.46812 0.0
H1001 H 1.00529 0.51752 0.37851 0.0
H1002 H 0.93532 0.4074 0.42803 0.0
H1003 H 0.97197 0.47187 0.33938 0.0
H1004 H 0.87637 0.39996 0.25626 0.0
H1005 H 0.91002 0.44322 0.29889 0.0
H1006 H 0.93905 0.36712 0.40255 0.0
H1007 H 0.90373 0.32358 0.35938 0.0
C1008 C 0.97083 0.45739 0.44006 0.0
C1009 C 0.99012 0.48896 0.42615 0.0
C1010 C 0.95093 0.43113 0.41714 0.0
C1011 C 0.95026 0.43595 0.38005 0.0
C1012 C 0.97077 0.46738 0.36709 0.0
C1013 C 0.99012 0.49357 0.38966 0.0
C1014 C 0.88989 0.3925 0.28816 0.0
C1015 C 0.88762 0.35851 0.30453 0.0
C1016 C 0.90946 0.41732 0.3127 0.0
C1017 C 0.92785 0.40887 0.35433 0.0
C1018 C 0.92504 0.37462 0.37072 0.0
C1019 C 0.90498 0.34967 0.34603 0.0
H1020 H 0.59699 0.61321 0.40733 0.0
H1021 H 0.70012 0.59182 0.50142 0.0
H1022 H 0.63145 0.65079 0.36822 0.0
H1023 H 0.73415 0.62827 0.46235 0.0
H1024 H 0.79038 0.68093 0.3738 0.0
H1025 H 0.75497 0.64436 0.41164 0.0
H1026 H 0.6753 0.70262 0.34874 0.0
H1027 H 0.71158 0.73989 0.31161 0.0
C1028 C 0.62692 0.61582 0.42021 0.0
C1029 C 0.64433 0.59774 0.45915 0.0
C1030 C 0.64745 0.63823 0.39717 0.0
C1031 C 0.68723 0.64422 0.41031 0.0
C1032 C 0.7042 0.62568 0.449 0.0
C1033 C 0.68398 0.60404 0.47225 0.0
C1034 C 0.76547 0.68662 0.36759 0.0
C1035 C 0.75551 0.71504 0.33813 0.0
C1036 C 0.74445 0.66495 0.39012 0.0
C1037 C 0.71057 0.66877 0.38501 0.0
C1038 C 0.70031 0.69702 0.35514 0.0
C1039 C 0.72189 0.71922 0.33321 0.0
H1040 H 0.82518 0.35979 0.82262 0.0
H1041 H 0.91165 0.31062 0.86843 0.0
H1042 H 0.87125 0.40371 0.86469 0.0
H1043 H 0.95753 0.35417 0.9107 0.0
H1044 H 1.00875 0.41338 0.01561 0.0
H1045 H 0.96477 0.37161 0.97057 0.0
H1046 H 0.93396 0.45148 0.87267 0.0
H1047 H 0.97853 0.49342 0.91782 0.0
C1048 C 0.85401 0.35836 0.84175 0.0
C1049 C 0.86483 0.33177 0.84232 0.0
C1050 C 0.88044 0.38361 0.86558 0.0
C1051 C 0.91806 0.38242 0.89108 0.0
C1052 C 0.92876 0.35573 0.89158 0.0
C1053 C 0.90253 0.33087 0.86727 0.0
C1054 C 0.99275 0.42203 0.98443 0.0
C1055 C 0.99705 0.45666 0.97028 0.0
C1056 C 0.96766 0.39812 0.9586 0.0
C1057 C 0.94575 0.4082 0.91805 0.0
C1058 C 0.9502 0.4429 0.90381 0.0
C1059 C 0.97586 0.4669 0.92959 0.0
H1060 H 0.89499 0.81006 0.17869 0.0
H1061 H 0.8873 0.89784 0.19649 0.0
H1062 H 0.93104 0.84639 0.14106 0.0
H1063 H 0.92484 0.93423 0.16052 0.0
H1064 H 1.02271 0.99785 0.11546 0.0
H1065 H 0.98689 0.96169 0.1536 0.0
H1066 H 0.9354 0.88568 0.07944 0.0
H1067 H 0.96973 0.92234 0.04045 0.0
C1068 C 0.90078 0.83708 0.17518 0.0
C1069 C 0.88647 0.84941 0.1921 0.0
C1070 C 0.92212 0.85866 0.15281 0.0
C1071 C 0.93262 0.89494 0.14613 0.0
C1072 C 0.91887 0.90722 0.16372 0.0
C1073 C 0.89649 0.88562 0.18496 0.0
C1074 C 1.0042 0.97336 0.10698 0.0
C1075 C 1.00119 0.96429 0.07366 0.0
C1076 C 0.98269 0.952 0.12934 0.0
C1077 C 0.95671 0.919 0.12142 0.0
C1078 C 0.95433 0.90989 0.08852 0.0
C1079 C 0.97481 0.93161 0.06546 0.0
H1080 H 0.84216 0.17381 0.8532 0.0
H1081 H 0.92185 0.22524 0.80424 0.0
H1082 H 0.87582 0.13035 0.89197 0.0
H1083 H 0.9546 0.18165 0.84195 0.0
H1084 H 0.98134 0.07939 0.88597 0.0
H1085 H 0.94171 0.11784 0.84545 0.0
H1086 H 0.94403 0.12926 0.95022 0.0
H1087 H 0.98442 0.09142 0.99097 0.0
C1088 C 0.86654 0.1757 0.85035 0.0
C1089 C 0.87931 0.20321 0.82565 0.0
C1090 C 0.88594 0.15087 0.87271 0.0
C1091 C 0.91796 0.15242 0.87009 0.0
C1092 C 0.92997 0.17944 0.84455 0.0
C1093 C 0.91122 0.20458 0.82303 0.0
C1094 C 0.97308 0.08975 0.90037 0.0
C1095 C 0.98618 0.0822 0.94183 0.0
C1096 C 0.95049 0.11197 0.87713 0.0
C1097 C 0.93964 0.12675 0.89451 0.0
C1098 C 0.95156 0.1182 0.93576 0.0
C1099 C 0.97484 0.09655 0.95915 0.0
H1100 H 0.82407 0.207 0.69935 0.0
H1101 H 0.74033 0.2589 0.65531 0.0
H1102 H 0.77625 0.16361 0.65704 0.0
H1103 H 0.69273 0.21586 0.61294 0.0
H1104 H 0.6356 0.15518 0.50847 0.0
H1105 H 0.68221 0.19706 0.55272 0.0
H1106 H 0.71348 0.11721 0.65048 0.0
H1107 H 0.66636 0.07518 0.60613 0.0
C1108 C 0.7955 0.20917 0.68049 0.0
C1109 C 0.78588 0.23627 0.6806 0.0
C1110 C 0.76807 0.18423 0.65655 0.0
C1111 C 0.73066 0.18627 0.63164 0.0
C1112 C 0.72129 0.21363 0.63158 0.0
C1113 C 0.74851 0.23821 0.65593 0.0
C1114 C 0.65227 0.14656 0.53946 0.0
C1115 C 0.64732 0.11191 0.55382 0.0
C1116 C 0.67889 0.17054 0.56483 0.0
C1117 C 0.70167 0.16048 0.6051 0.0
C1118 C 0.69661 0.12576 0.61954 0.0
C1119 C 0.66947 0.10171 0.59424 0.0
H1120 H 0.638 0.92025 0.41474 0.0
H1121 H 0.58207 0.9753 0.29929 0.0
H1122 H 0.65502 0.89228 0.3852 0.0
H1123 H 0.59782 0.94653 0.2696 0.0
H1124 H 0.68671 0.92984 0.25005 0.0
H1125 H 0.65823 0.95086 0.27352 0.0
H1126 H 0.62955 0.85221 0.3385 0.0
H1127 H 0.6576 0.83075 0.31433 0.0
C1128 C 0.62895 0.92603 0.38301 0.0
C1129 C 0.60877 0.94998 0.35935 0.0
C1130 C 0.63831 0.90976 0.36603 0.0
C1131 C 0.62784 0.91729 0.3251 0.0
C1132 C 0.60656 0.94041 0.30127 0.0
C1133 C 0.59718 0.95661 0.31822 0.0
C1134 C 0.67347 0.91228 0.26846 0.0
C1135 C 0.67448 0.87855 0.28025 0.0
C1136 C 0.6572 0.92442 0.28202 0.0
C1137 C 0.64171 0.9032 0.30792 0.0
C1138 C 0.64169 0.86923 0.31892 0.0
C1139 C 0.6578 0.85699 0.30512 0.0
H1140 H 0.90848 0.22363 0.29514 0.0
H1141 H 0.87211 0.19928 0.38567 0.0
H1142 H 0.94704 0.18459 0.33367 0.0
H1143 H 0.91077 0.15988 0.42421 0.0
H1144 H 0.95067 0.0647 0.45419 0.0
H1145 H 0.91213 0.10416 0.41763 0.0
H1146 H 1.00538 0.1803 0.39892 0.0
H1147 H 1.04404 0.14131 0.4358 0.0
C1148 C 0.90869 0.20998 0.32329 0.0
C1149 C 0.88719 0.21469 0.33732 0.0
C1150 C 0.93098 0.18769 0.34546 0.0
C1151 C 0.93199 0.16915 0.38201 0.0
C1152 C 0.91037 0.17365 0.39602 0.0
C1153 C 0.88843 0.19638 0.37407 0.0
C1154 C 0.96299 0.08985 0.44231 0.0
C1155 C 1.00042 0.09963 0.44766 0.0
C1156 C 0.94095 0.11251 0.42155 0.0
C1157 C 0.95565 0.14531 0.40525 0.0
C1158 C 0.99307 0.15509 0.41071 0.0
C1159 C 1.01525 0.13266 0.4319 0.0
H1160 H 0.73237 0.23969 0.16689 0.0
H1161 H 0.7564 0.16192 0.26894 0.0
H1162 H 0.6958 0.19676 0.12289 0.0
H1163 H 0.7214 0.11917 0.22545 0.0
H1164 H 0.62575 0.04665 0.1433 0.0
H1165 H 0.65944 0.09161 0.1836 0.0
H1166 H 0.69886 0.15652 0.09712 0.0
H1167 H 0.66349 0.11148 0.05594 0.0
C1168 C 0.73009 0.2134 0.17983 0.0
C1169 C 0.74701 0.20405 0.22128 0.0
C1170 C 0.7093 0.18879 0.15467 0.0
C1171 C 0.70525 0.15432 0.17047 0.0
C1172 C 0.72297 0.14528 0.21205 0.0
C1173 C 0.74332 0.1698 0.23709 0.0
C1174 C 0.64159 0.07057 0.1329 0.0
C1175 C 0.64228 0.07557 0.09669 0.0
C1176 C 0.66114 0.09635 0.15612 0.0
C1177 C 0.68253 0.1277 0.1441 0.0
C1178 C 0.68253 0.13288 0.10729 0.0
C1179 C 0.66244 0.10708 0.08374 0.0
H1180 H 0.74116 0.8067 0.94889 0.0
H1181 H 0.71722 0.88339 0.84541 0.0
H1182 H 0.70762 0.82332 0.97018 0.0
H1183 H 0.68104 0.89855 0.86529 0.0
H1184 H 0.65691 0.94359 0.93612 0.0
H1185 H 0.68678 0.92627 0.91036 0.0
H1186 H 0.65004 0.8229 0.96107 0.0
H1187 H 0.62164 0.8407 0.98801 0.0
C1188 C 0.72866 0.82713 0.9305 0.0
C1189 C 0.7327 0.84404 0.89568 0.0
C1190 C 0.70867 0.83634 0.94243 0.0
C1191 C 0.69139 0.86248 0.91968 0.0
C1192 C 0.6944 0.87873 0.88414 0.0
C1193 C 0.71479 0.86969 0.87236 0.0
C1194 C 0.65497 0.91713 0.94143 0.0
C1195 C 0.63705 0.89359 0.96435 0.0
C1196 C 0.67203 0.90708 0.9265 0.0
C1197 C 0.67129 0.87307 0.93365 0.0
C1198 C 0.65225 0.84943 0.95562 0.0
C1199 C 0.63569 0.85958 0.97098 0.0
H1200 H 1.05433 0.90065 0.71216 0.0
H1201 H 0.98358 0.81136 0.65569 0.0
H1202 H 1.03313 0.87626 0.76325 0.0
H1203 H 0.9615 0.78778 0.70654 0.0
H1204 H 0.95282 0.80167 0.8335 0.0
H1205 H 0.99945 0.80581 0.81279 0.0
H1206 H 0.93119 0.84839 0.6943 0.0
H1207 H 0.88608 0.84595 0.71519 0.0
C1208 C 1.03607 0.875 0.71179 0.0
C1209 C 1.01923 0.8585 0.6788 0.0
C1210 C 1.02403 0.86102 0.74134 0.0
C1211 C 0.99512 0.83063 0.73797 0.0
C1212 C 0.98372 0.81135 0.70939 0.0
C1213 C 0.99604 0.8251 0.68006 0.0
C1214 C 0.94815 0.81214 0.80316 0.0
C1215 C 0.91569 0.82302 0.77554 0.0
C1216 C 0.97446 0.81412 0.79139 0.0
C1217 C 0.96804 0.82656 0.7519 0.0
C1218 C 0.93601 0.83794 0.72472 0.0
C1219 C 0.91028 0.83652 0.73657 0.0
H1220 H 0.15562 0.81461 0.82936 0.0
H1221 H 0.25874 0.89044 0.88748 0.0
H1222 H 0.12029 0.83876 0.84079 0.0
H1223 H 0.22367 0.91385 0.90007 0.0
H1224 H 0.14331 0.9667 0.88461 0.0
H1225 H 0.17654 0.94453 0.86795 0.0
H1226 H 0.11358 0.843 0.89594 0.0
H1227 H 0.08072 0.86502 0.91308 0.0
C1228 C 0.17077 0.83658 0.84432 0.0
C1229 C 0.21016 0.85045 0.85756 0.0
C1230 C 0.15054 0.85021 0.85131 0.0
C1231 C 0.16907 0.8782 0.87159 0.0
C1232 C 0.20832 0.89248 0.8841 0.0
C1233 C 0.22856 0.87879 0.87725 0.0
C1234 C 0.1367 0.93962 0.88755 0.0
C1235 C 0.10923 0.91777 0.90036 0.0
C1236 C 0.15577 0.92689 0.87789 0.0
C1237 C 0.14786 0.89192 0.88059 0.0
C1238 C 0.12007 0.87008 0.89289 0.0
C1239 C 0.10113 0.88278 0.90271 0.0
H1240 H 1.04603 0.48251 0.62934 0.0
H1241 H 0.98791 0.55726 0.54778 0.0
H1242 H 1.03355 0.48745 0.68023 0.0
H1243 H 0.97518 0.56201 0.59876 0.0
H1244 H 0.91501 0.48311 0.68582 0.0
H1245 H 0.93375 0.51399 0.63371 0.0
H1246 H 1.05117 0.53604 0.72081 0.0
H1247 H 1.03234 0.50609 0.77353 0.0
C1248 C 1.03014 0.49958 0.62219 0.0
C1249 C 1.01744 0.51909 0.58464 0.0
C1250 C 1.02385 0.5031 0.65149 0.0
C1251 C 1.0044 0.5259 0.64355 0.0
C1252 C 0.99088 0.54483 0.6057 0.0
C1253 C 0.99772 0.54171 0.57656 0.0
C1254 C 0.94466 0.49663 0.69444 0.0
C1255 C 0.97254 0.49018 0.73342 0.0
C1256 C 0.9554 0.51421 0.6643 0.0
C1257 C 0.99389 0.5256 0.67338 0.0
C1258 C 1.02126 0.52644 0.71322 0.0
C1259 C 1.01043 0.50939 0.74339 0.0
H1260 H 0.47714 0.08624 0.48836 0.0
H1261 H 0.51819 0.11987 0.40037 0.0
H1262 H 0.43384 0.12123 0.44904 0.0
H1263 H 0.47652 0.15603 0.36203 0.0
H1264 H 0.37336 0.19342 0.28048 0.0
H1265 H 0.41425 0.15654 0.32024 0.0
H1266 H 0.42706 0.17548 0.42732 0.0
H1267 H 0.3846 0.21097 0.38727 0.0
C1268 C 0.47731 0.10148 0.4609 0.0
C1269 C 0.50103 0.10011 0.44747 0.0
C1270 C 0.45252 0.12173 0.43829 0.0
C1271 C 0.4512 0.14153 0.40192 0.0
C1272 C 0.47573 0.14062 0.38917 0.0
C1273 C 0.5 0.12002 0.41141 0.0
C1274 C 0.38466 0.1895 0.3125 0.0
C1275 C 0.37548 0.20509 0.33059 0.0
C1276 C 0.40853 0.16852 0.33548 0.0
C1277 C 0.42449 0.16298 0.37732 0.0
C1278 C 0.41501 0.1785 0.3953 0.0
C1279 C 0.39068 0.19907 0.37226 0.0
H1280 H 0.56785 0.60336 0.07931 0.0
H1281 H 0.66216 0.56851 0.11249 0.0
H1282 H 0.61227 0.654 0.11039 0.0
H1283 H 0.70638 0.61859 0.1442 0.0
H1284 H 0.7631 0.69146 0.23782 0.0
H1285 H 0.71939 0.64198 0.20511 0.0
H1286 H 0.66673 0.70641 0.09736 0.0
H1287 H 0.71147 0.75628 0.12974 0.0
C1288 C 0.59802 0.6064 0.09363 0.0
C1289 C 0.61168 0.58207 0.09377 0.0
C1290 C 0.62337 0.63542 0.11104 0.0
C1291 C 0.66269 0.64014 0.12958 0.0
C1292 C 0.67621 0.61547 0.13024 0.0
C1293 C 0.65096 0.58687 0.11217 0.0
C1294 C 0.74269 0.69516 0.20694 0.0
C1295 C 0.74103 0.72777 0.18618 0.0
C1296 C 0.71757 0.66682 0.18832 0.0
C1297 C 0.68969 0.67043 0.1488 0.0
C1298 C 0.68786 0.703 0.12796 0.0
C1299 C 0.71356 0.73146 0.14639 0.0
H1300 H 0.26728 0.19325 0.73828 0.0
H1301 H 0.21704 0.26008 0.63175 0.0
H1302 H 0.2254 0.14483 0.70287 0.0
H1303 H 0.17402 0.2113 0.59684 0.0
H1304 H 0.07508 0.10701 0.57988 0.0
H1305 H 0.11962 0.15698 0.61195 0.0
H1306 H 0.21352 0.12549 0.63694 0.0
H1307 H 0.16896 0.07599 0.60382 0.0
C1308 C 0.2476 0.19762 0.7072 0.0
C1309 C 0.24568 0.23045 0.68762 0.0
C1310 C 0.22361 0.16993 0.68705 0.0
C1311 C 0.19662 0.17448 0.64725 0.0
C1312 C 0.19462 0.20725 0.62759 0.0
C1313 C 0.21925 0.23506 0.6475 0.0
C1314 C 0.10523 0.11083 0.59222 0.0
C1315 C 0.11872 0.08771 0.58962 0.0
C1316 C 0.13061 0.13943 0.61027 0.0
C1317 C 0.16985 0.14494 0.62677 0.0
C1318 C 0.18334 0.12167 0.62445 0.0
C1319 C 0.15794 0.09347 0.60558 0.0
H1320 H 0.75895 0.39244 0.3896 0.0
H1321 H 0.65781 0.31157 0.3409 0.0
H1322 H 0.72409 0.41576 0.40273 0.0
H1323 H 0.62271 0.33537 0.35309 0.0
H1324 H 0.58573 0.36505 0.42504 0.0
H1325 H 0.61932 0.34261 0.40929 0.0
H1326 H 0.6739 0.44369 0.36929 0.0
H1327 H 0.63994 0.46622 0.38454 0.0
C1328 C 0.72925 0.37965 0.38159 0.0
C1329 C 0.71129 0.35004 0.36425 0.0
C1330 C 0.70914 0.39323 0.38878 0.0
C1331 C 0.67053 0.37745 0.37908 0.0
C1332 C 0.65248 0.34802 0.36137 0.0
C1333 C 0.67253 0.33457 0.35394 0.0
C1334 C 0.60448 0.38256 0.41239 0.0
C1335 C 0.60995 0.41755 0.4061 0.0
C1336 C 0.62383 0.36963 0.40338 0.0
C1337 C 0.64939 0.39129 0.38798 0.0
C1338 C 0.65487 0.42626 0.38163 0.0
C1339 C 0.63538 0.4392 0.39047 0.0
H1340 H 0.48901 0.05509 0.04694 0.0
H1341 H 0.54973 0.98283 0.1314 0.0
H1342 H 0.47447 0.05976 0.09649 0.0
H1343 H 0.5354 0.98769 0.18093 0.0
H1344 H 0.52976 1.00657 0.27175 0.0
H1345 H 0.55003 0.03549 0.21993 0.0
H1346 H 0.43338 1.01284 0.13082 0.0
H1347 H 0.41326 0.98297 0.18212 0.0
C1348 C 0.49896 0.04002 0.07605 0.0
C1349 C 0.51995 1.01813 0.08535 0.0
C1350 C 0.49111 0.04314 0.10438 0.0
C1351 C 0.50479 1.02491 0.14265 0.0
C1352 C 0.5255 1.0028 0.15184 0.0
C1353 C 0.53286 0.9993 0.12332 0.0
C1354 C 0.50831 1.00951 0.24128 0.0
C1355 C 0.47029 0.99047 0.23069 0.0
C1356 C 0.51997 1.02594 0.21162 0.0
C1357 C 0.49326 1.02465 0.17161 0.0
C1358 C 0.45454 1.01338 0.16159 0.0
C1359 C 0.443 0.99642 0.19123 0.0
H1360 H 1.01872 0.61999 0.89948 0.0
H1361 H 0.98526 0.5935 0.99259 0.0
H1362 H 0.97934 0.65815 0.86252 0.0
H1363 H 0.94423 0.63062 0.95469 0.0
H1364 H 0.89991 0.72347 0.89292 0.0
H1365 H 0.9408 0.68639 0.93204 0.0
H1366 H 0.91692 0.65984 0.82387 0.0
H1367 H 0.87761 0.69803 0.78497 0.0
C1368 C 1.00268 0.6221 0.91196 0.0
C1369 C 1.0051 0.60354 0.94898 0.0
C1370 C 0.97973 0.64388 0.89053 0.0
C1371 C 0.958 0.64742 0.90516 0.0
C1372 C 0.96076 0.62902 0.94249 0.0
C1373 C 0.98419 0.60753 0.96423 0.0
C1374 C 0.90332 0.70962 0.87752 0.0
C1375 C 0.88545 0.71381 0.83576 0.0
C1376 C 0.9267 0.68815 0.90001 0.0
C1377 C 0.93254 0.66999 0.88135 0.0
C1378 C 0.91401 0.67385 0.83951 0.0
C1379 C 0.89108 0.69562 0.81707 0.0
H1380 H 0.54432 0.35251 0.20551 0.0
H1381 H 0.42759 0.33081 0.11506 0.0
H1382 H 0.52228 0.33517 0.2564 0.0
H1383 H 0.40673 0.31467 0.16514 0.0
H1384 H 0.39184 0.36355 0.23545 0.0
H1385 H 0.42887 0.36835 0.20327 0.0
H1386 H 0.46524 0.2819 0.28366 0.0
H1387 H 0.42879 0.27778 0.31716 0.0
C1388 C 0.51416 0.34277 0.19657 0.0
C1389 C 0.48781 0.34426 0.15594 0.0
C1390 C 0.50168 0.33278 0.22573 0.0
C1391 C 0.46288 0.32402 0.21433 0.0
C1392 C 0.43676 0.3209 0.17458 0.0
C1393 C 0.449 0.3303 0.14573 0.0
C1394 C 0.40894 0.34643 0.24725 0.0
C1395 C 0.40748 0.32027 0.27839 0.0
C1396 C 0.42986 0.349 0.22877 0.0
C1397 C 0.44912 0.32507 0.2407 0.0
C1398 C 0.4505 0.30054 0.27414 0.0
C1399 C 0.42983 0.29829 0.29321 0.0
H1400 H 0.54292 0.63797 0.93134 0.0
H1401 H 0.4506 0.56597 0.95537 0.0
H1402 H 0.50552 0.67808 0.89378 0.0
H1403 H 0.4132 0.60629 0.91772 0.0
H1404 H 0.37603 0.7029 0.88355 0.0
H1405 H 0.41355 0.66267 0.92216 0.0
H1406 H 0.44734 0.68372 0.83041 0.0
H1407 H 0.41004 0.72376 0.79189 0.0
C1408 C 0.51463 0.63063 0.92861 0.0
C1409 C 0.49976 0.59863 0.94635 0.0
C1410 C 0.49312 0.65363 0.90691 0.0
C1411 C 0.45635 0.64543 0.90274 0.0
C1412 C 0.44155 0.61352 0.92066 0.0
C1413 C 0.4629 0.59031 0.942 0.0
C1414 C 0.39157 0.69905 0.87168 0.0
C1415 C 0.39 0.71669 0.8346 0.0
C1416 C 0.41286 0.67581 0.89369 0.0
C1417 C 0.43348 0.66998 0.8794 0.0
C1418 C 0.43213 0.68783 0.8425 0.0
C1419 C 0.41054 0.71072 0.82032 0.0
H1420 H 0.16004 0.61203 0.55045 0.0
H1421 H 0.12524 0.54965 0.6407 0.0
H1422 H 0.19803 0.65761 0.59109 0.0
H1423 H 0.16142 0.59511 0.68039 0.0
H1424 H 0.26093 0.66431 0.76412 0.0
H1425 H 0.22437 0.62157 0.7206 0.0
H1426 H 0.19868 0.69929 0.61821 0.0
H1427 H 0.23701 0.74228 0.66229 0.0
C1428 C 0.16021 0.60829 0.57876 0.0
C1429 C 0.14017 0.57726 0.59272 0.0
C1430 C 0.18181 0.63439 0.60202 0.0
C1431 C 0.18343 0.63 0.63949 0.0
C1432 C 0.16199 0.59922 0.65241 0.0
C1433 C 0.14098 0.57314 0.62952 0.0
C1434 C 0.24759 0.67225 0.73229 0.0
C1435 C 0.2516 0.70655 0.71659 0.0
C1436 C 0.2263 0.64772 0.70724 0.0
C1437 C 0.20785 0.65676 0.66571 0.0
C1438 C 0.21258 0.69129 0.64994 0.0
C1439 C 0.2344 0.71595 0.67515 0.0
H1440 H 0.35548 0.38493 0.65993 0.0
H1441 H 0.43268 0.32445 0.72111 0.0
H1442 H 0.3913 0.42131 0.62242 0.0
H1443 H 0.46938 0.36151 0.68436 0.0
H1444 H 0.54894 0.45062 0.62687 0.0
H1445 H 0.51406 0.41325 0.66563 0.0
H1446 H 0.41211 0.43717 0.57156 0.0
H1447 H 0.44654 0.47337 0.5328 0.0
C1448 C 0.38011 0.37886 0.666 0.0
C1449 C 0.38948 0.35007 0.69505 0.0
C1450 C 0.40138 0.40042 0.64366 0.0
C1451 C 0.43497 0.39611 0.64861 0.0
C1452 C 0.44464 0.3675 0.67809 0.0
C1453 C 0.4228 0.34541 0.69981 0.0
C1454 C 0.5191 0.44837 0.61392 0.0
C1455 C 0.50204 0.46677 0.57509 0.0
C1456 C 0.49831 0.42608 0.63675 0.0
C1457 C 0.45859 0.42054 0.62353 0.0
C1458 C 0.44198 0.4394 0.58496 0.0
C1459 C 0.46244 0.4609 0.5619 0.0
H1460 H 0.32404 0.70669 0.20408 0.0
H1461 H 0.24043 0.75955 0.15645 0.0
H1462 H 0.27678 0.66321 0.16161 0.0
H1463 H 0.19346 0.7165 0.11394 0.0
H1464 H 0.13849 0.65585 1.01029 0.0
H1465 H 0.18467 0.69746 0.05495 0.0
H1466 H 0.21307 0.6172 0.15309 0.0
H1467 H 0.16634 0.57539 0.10824 0.0
C1468 C 0.29565 0.70907 0.18438 0.0
C1469 C 0.28591 0.7365 0.18349 0.0
C1470 C 0.26851 0.68407 0.16036 0.0
C1471 C 0.23133 0.68639 0.13438 0.0
C1472 C 0.22186 0.71406 0.13338 0.0
C1473 C 0.24874 0.73867 0.15778 0.0
C1474 C 0.15444 0.64707 0.04144 0.0
C1475 C 0.14879 0.61236 0.05573 0.0
C1476 C 0.18082 0.6709 0.06705 0.0
C1477 C 0.20269 0.66067 0.10757 0.0
C1478 C 0.19693 0.62589 0.12197 0.0
C1479 C 0.17002 0.60197 0.09637 0.0
H1480 H 0.81938 0.40425 0.71767 0.0
H1481 H 0.71575 0.32618 0.6669 0.0
H1482 H 0.78418 0.44682 0.67984 0.0
H1483 H 0.68122 0.36816 0.62942 0.0
H1484 H 0.636 0.4524 0.53623 0.0
H1485 H 0.677 0.41538 0.57314 0.0
H1486 H 0.73109 0.46381 0.67634 0.0
H1487 H 0.6896 0.50108 0.63924 0.0
C1488 C 0.78929 0.39616 0.69831 0.0
C1489 C 0.77053 0.36166 0.69549 0.0
C1490 C 0.76904 0.42053 0.67682 0.0
C1491 C 0.72975 0.41104 0.65133 0.0
C1492 C 0.7114 0.3766 0.64827 0.0
C1493 C 0.73132 0.3524 0.67009 0.0
C1494 C 0.65678 0.4555 0.56668 0.0
C1495 C 0.65917 0.47978 0.58467 0.0
C1496 C 0.68029 0.43407 0.58798 0.0
C1497 C 0.70733 0.43631 0.62794 0.0
C1498 C 0.71079 0.46142 0.64561 0.0
C1499 C 0.68685 0.48271 0.62435 0.0
H1500 H 0.95347 0.63675 0.27406 0.0
H1501 H 0.96988 0.7332 0.19993 0.0
H1502 H 0.98126 0.6165 0.24899 0.0
H1503 H 0.99703 0.71237 0.17406 0.0
H1504 H 0.98971 0.64047 0.10246 0.0
H1505 H 0.97146 0.66811 0.13119 0.0
H1506 H 1.0421 0.62613 0.249 0.0
H1507 H 1.05948 0.59793 0.22036 0.0
C1508 C 0.96371 0.65393 0.25303 0.0
C1509 C 0.9595 0.68668 0.23911 0.0
C1510 C 0.97954 0.64223 0.23855 0.0
C1511 C 0.99129 0.66287 0.20958 0.0
C1512 C 0.98783 0.69584 0.19612 0.0
C1513 C 0.97224 0.70769 0.21088 0.0
C1514 C 1.00145 0.63737 0.13448 0.0
C1515 C 1.02596 0.61704 0.15918 0.0
C1516 C 0.99133 0.65343 0.15091 0.0
C1517 C 1.00531 0.64917 0.19231 0.0
C1518 C 1.0307 0.62965 0.21699 0.0
C1519 C 1.04094 0.61379 0.2006 0.0
H1520 H 0.93499 0.66328 0.50082 0.0
H1521 H 1.03809 0.67251 0.61127 0.0
H1522 H 0.90577 0.67895 0.52845 0.0
H1523 H 1.00805 0.68663 0.6397 0.0
H1524 H 0.95395 0.74713 0.66108 0.0
H1525 H 0.98576 0.73026 0.63706 0.0
H1526 H 0.88052 0.65808 0.57475 0.0
H1527 H 0.84883 0.67538 0.59816 0.0
C1528 C 0.95157 0.66872 0.53102 0.0
C1529 C 0.98913 0.66676 0.55359 0.0
C1530 C 0.93452 0.67725 0.54716 0.0
C1531 C 0.95434 0.68393 0.58652 0.0
C1532 C 0.99192 0.68196 0.6092 0.0
C1533 C 1.00904 0.67346 0.59299 0.0
C1534 C 0.93774 0.72742 0.64261 0.0
C1535 C 0.89869 0.71295 0.63119 0.0
C1536 C 0.956 0.71767 0.62882 0.0
C1537 C 0.93571 0.69304 0.60343 0.0
C1538 C 0.89697 0.67774 0.59332 0.0
C1539 C 0.87875 0.6876 0.6069 0.0
H1540 H 0.45767 0.56275 0.39516 0.0
H1541 H 0.51312 0.61458 0.49603 0.0
H1542 H 0.41729 0.6009 0.35661 0.0
H1543 H 0.47326 0.65262 0.45754 0.0
H1544 H 0.43552 0.74089 0.35976 0.0
H1545 H 0.46947 0.69854 0.39902 0.0
H1546 H 0.36523 0.61978 0.35301 0.0
H1547 H 0.33066 0.66262 0.31359 0.0
C1548 C 0.46106 0.58202 0.40927 0.0
C1549 C 0.48889 0.58554 0.44877 0.0
C1550 C 0.43777 0.60382 0.38718 0.0
C1551 C 0.44211 0.63007 0.40379 0.0
C1552 C 0.46932 0.633 0.44356 0.0
C1553 C 0.49215 0.61099 0.46574 0.0
C1554 C 0.41958 0.71458 0.3579 0.0
C1555 C 0.38019 0.70534 0.3333 0.0
C1556 C 0.43915 0.6902 0.38073 0.0
C1557 C 0.42022 0.65562 0.37941 0.0
C1558 C 0.38079 0.64617 0.35466 0.0
C1559 C 0.36093 0.67072 0.33222 0.0
H1560 H 0.16455 0.33193 0.82106 0.0
H1561 H 0.19016 0.43053 0.75423 0.0
H1562 H 0.13514 0.35262 0.84439 0.0
H1563 H 0.16053 0.45083 0.777 0.0
H1564 H 0.08371 0.47432 0.80191 0.0
H1565 H 0.10005 0.44533 0.77308 0.0
H1566 H 0.15857 0.393 0.88963 0.0
H1567 H 0.14075 0.42102 0.91827 0.0
C1568 C 0.1637 0.3579 0.81114 0.0
C1569 C 0.17973 0.37955 0.78576 0.0
C1570 C 0.14683 0.3697 0.82446 0.0
C1571 C 0.14549 0.40332 0.8125 0.0
C1572 C 0.16048 0.42462 0.7862 0.0
C1573 C 0.17744 0.41292 0.77307 0.0
C1574 C 0.09914 0.45592 0.82122 0.0
C1575 C 0.11092 0.4499 0.86235 0.0
C1576 C 0.10889 0.43963 0.80477 0.0
C1577 C 0.13084 0.41709 0.82912 0.0
C1578 C 0.14138 0.41004 0.87005 0.0
C1579 C 0.13156 0.42634 0.88652 0.0
H1580 H 0.24849 0.30832 0.4577 0.0
H1581 H 0.18708 0.35501 0.33852 0.0
H1582 H 0.21993 0.32858 0.48189 0.0
H1583 H 0.15975 0.37678 0.36321 0.0
H1584 H 0.08944 0.38297 0.41589 0.0
H1585 H 0.11551 0.36109 0.38989 0.0
H1586 H 0.22285 0.3791 0.49503 0.0
H1587 H 0.19639 0.39943 0.52168 0.0
C1588 C 0.22874 0.32279 0.4365 0.0
C1589 C 0.22013 0.32984 0.396 0.0
C1590 C 0.21271 0.3349 0.45056 0.0
C1591 C 0.18762 0.35462 0.42468 0.0
C1592 C 0.17869 0.36148 0.38407 0.0
C1593 C 0.19475 0.3493 0.36995 0.0
C1594 C 0.11849 0.38193 0.43366 0.0
C1595 C 0.14068 0.393 0.47102 0.0
C1596 C 0.13363 0.36974 0.41849 0.0
C1597 C 0.17137 0.36816 0.44028 0.0
C1598 C 0.19354 0.37941 0.47751 0.0
C1599 C 0.17845 0.39155 0.49265 0.0
loop_
_geom_bond_atom_site_label_1
_geom_bond_atom_site_label_2
_geom_bond_distance
_geom_bond_site_symmetry_2
_ccdc_geom_bond_type
Tb0 C2 2.809 1_655 S
Tb0 O20 2.484 1_655 S
Tb0 O21 2.440 . S
Tb0 O22 2.658 1_556 S
Tb0 O23 2.409 . S
Tb0 O24 2.378 1_656 S
Tb0 O28 2.325 1_665 S
Tb0 O31 2.341 1_565 S
Tb1 C11 2.815 . S
Tb1 O22 2.325 1_445 S
Tb1 O25 2.341 1_545 S
Tb1 O26 2.484 1_455 S
Tb1 O27 2.440 . S
Tb1 O28 2.658 1_554 S
Tb1 O29 2.409 . S
Tb1 O30 2.378 1_454 S
C2 Tb0 2.809 1_455 S
C2 C3 1.513 . S
C2 O20 1.248 . S
C2 O21 1.266 1_455 S
C3 C2 1.513 . S
C3 C4 1.359 . S
C3 C8 1.348 1_455 S
C4 C3 1.359 . S
C4 C5 1.380 . S
C4 H32 0.929 . S
C5 C4 1.380 . S
C5 C6 1.347 . S
C5 H33 0.931 . S
C6 C5 1.347 . S
C6 C7 1.369 . S
C7 C6 1.369 . S
C7 C8 1.408 1_455 S
C7 H34 0.930 1_455 S
C8 C3 1.348 1_655 S
C8 C7 1.408 1_655 S
C8 H35 0.930 . S
C9 O22 1.281 . S
C9 O23 1.254 1_554 S
C10 O24 1.236 . S
C10 O25 1.266 . S
C11 Tb1 2.815 . S
C11 C12 1.507 1_455 S
C11 O26 1.247 1_455 S
C11 O27 1.274 . S
C12 C11 1.507 1_655 S
C12 C13 1.359 . S
C12 C17 1.348 1_655 S
C13 C12 1.359 . S
C13 C14 1.380 . S
C13 H36 0.929 . S
C14 C13 1.380 . S
C14 C15 1.347 . S
C14 H37 0.931 . S
C15 C14 1.347 . S
C15 C16 1.369 . S
C16 C15 1.369 . S
C16 C17 1.408 1_655 S
C16 H38 0.930 1_655 S
C17 C12 1.348 1_455 S
C17 C16 1.408 1_455 S
C17 H39 0.930 . S
C18 O28 1.281 . S
C18 O29 1.254 1_556 S
C19 O30 1.236 . S
C19 O31 1.266 . S
O20 Tb0 2.484 1_455 S
O20 C2 1.248 . S
O21 Tb0 2.440 . S
O21 C2 1.266 1_655 S
O22 Tb0 2.658 1_554 S
O22 Tb1 2.325 1_665 S
O22 C9 1.281 . S
O23 Tb0 2.409 . S
O23 C9 1.254 1_556 S
O24 Tb0 2.378 1_454 S
O24 C10 1.236 . S
O25 Tb1 2.341 1_565 S
O25 C10 1.266 . S
O26 Tb1 2.484 1_655 S
O26 C11 1.247 1_655 S
O27 Tb1 2.440 . S
O27 C11 1.274 . S
O28 Tb0 2.325 1_445 S
O28 Tb1 2.658 1_556 S
O28 C18 1.281 . S
O29 Tb1 2.409 . S
O29 C18 1.254 1_554 S
O30 Tb1 2.378 1_656 S
O30 C19 1.236 . S
O31 Tb0 2.341 1_545 S
O31 C19 1.266 . S
H32 C4 0.929 . S
H33 C5 0.931 . S
H34 C7 0.930 1_655 S
H35 C8 0.930 . S
H36 C13 0.929 . S
H37 C14 0.931 . S
H38 C16 0.930 1_455 S
H39 C17 0.930 . S
Tb40 C42 2.809 . S
Tb40 O60 2.484 . S
Tb40 O61 2.440 . S
Tb40 O62 2.658 . S
Tb40 O63 2.409 . S
Tb40 O64 2.378 . S
Tb40 O68 2.325 . S
Tb40 O71 2.341 . S
Tb41 C51 2.809 . S
Tb41 O62 2.325 . S
Tb41 O65 2.341 . S
Tb41 O66 2.484 . S
Tb41 O67 2.440 . S
Tb41 O68 2.658 . S
Tb41 O69 2.409 . S
Tb41 O70 2.378 . S
C42 Tb40 2.809 . S
C42 C43 1.514 . S
C42 O60 1.248 . S
C42 O61 1.266 . S
C43 C42 1.514 . S
C43 C44 1.359 . S
C43 C48 1.348 . S
C44 C43 1.359 . S
C44 C45 1.380 . S
C44 H72 0.929 . S
C45 C44 1.380 . S
C45 C46 1.347 . S
C45 H73 0.931 . S
C46 C45 1.347 . S
C46 C47 1.369 . S
C47 C46 1.369 . S
C47 C48 1.408 . S
C47 H74 0.930 . S
C48 C43 1.348 . S
C48 C47 1.408 . S
C48 H75 0.930 . S
C49 O62 1.281 . S
C49 O63 1.254 . S
C50 O64 1.236 . S
C50 O65 1.266 . S
C51 Tb41 2.809 . S
C51 C52 1.514 . S
C51 O66 1.248 . S
C51 O67 1.266 . S
C52 C51 1.514 . S
C52 C53 1.359 . S
C52 C57 1.348 . S
C53 C52 1.359 . S
C53 C54 1.380 . S
C53 H76 0.929 . S
C54 C53 1.380 . S
C54 C55 1.347 . S
C54 H77 0.931 . S
C55 C54 1.347 . S
C55 C56 1.369 . S
C56 C55 1.369 . S
C56 C57 1.408 . S
C56 H78 0.930 . S
C57 C52 1.348 . S
C57 C56 1.408 . S
C57 H79 0.930 . S
C58 O68 1.281 . S
C58 O69 1.254 . S
C59 O70 1.236 . S
C59 O71 1.266 . S
O60 Tb40 2.484 . S
O60 C42 1.248 . S
O61 Tb40 2.440 . S
O61 C42 1.266 . S
O62 Tb40 2.658 . S
O62 Tb41 2.325 . S
O62 C49 1.281 . S
O63 Tb40 2.409 . S
O63 C49 1.254 . S
O64 Tb40 2.378 . S
O64 C50 1.236 . S
O65 Tb41 2.341 . S
O65 C50 1.266 . S
O66 Tb41 2.484 . S
O66 C51 1.248 . S
O67 Tb41 2.440 . S
O67 C51 1.266 . S
O68 Tb40 2.325 . S
O68 Tb41 2.658 . S
O68 C58 1.281 . S
O69 Tb41 2.409 . S
O69 C58 1.254 . S
O70 Tb41 2.378 . S
O70 C59 1.236 . S
O71 Tb40 2.341 . S
O71 C59 1.266 . S
H72 C44 0.929 . S
H73 C45 0.931 . S
H74 C47 0.930 . S
H75 C48 0.930 . S
H76 C53 0.929 . S
H77 C54 0.931 . S
H78 C56 0.930 . S
H79 C57 0.930 . S
Tb80 C82 2.809 1_565 S
Tb80 O100 2.484 1_565 S
Tb80 O101 2.440 . S
Tb80 O102 2.658 . S
Tb80 O103 2.409 . S
Tb80 O104 2.378 1_565 S
Tb80 O108 2.325 1_565 S
Tb80 O111 2.341 . S
Tb81 C91 2.809 1_545 S
Tb81 O102 2.325 1_545 S
Tb81 O105 2.341 . S
Tb81 O106 2.484 1_545 S
Tb81 O107 2.440 . S
Tb81 O108 2.658 . S
Tb81 O109 2.409 . S
Tb81 O110 2.378 1_545 S
C82 Tb80 2.809 1_545 S
C82 C83 1.514 . S
C82 O100 1.248 . S
C82 O101 1.266 1_545 S
C83 C82 1.514 . S
C83 C84 1.359 . S
C83 C88 1.348 . S
C84 C83 1.359 . S
C84 C85 1.380 . S
C84 H112 0.929 . S
C85 C84 1.380 . S
C85 C86 1.347 . S
C85 H113 0.931 . S
C86 C85 1.347 . S
C86 C87 1.369 . S
C87 C86 1.369 . S
C87 C88 1.408 . S
C87 H114 0.930 . S
C88 C83 1.348 . S
C88 C87 1.408 . S
C88 H115 0.930 1_545 S
C89 O102 1.281 . S
C89 O103 1.254 . S
C90 O104 1.236 . S
C90 O105 1.266 . S
C91 Tb81 2.809 1_565 S
C91 C92 1.514 . S
C91 O106 1.248 . S
C91 O107 1.266 1_565 S
C92 C91 1.514 . S
C92 C93 1.359 . S
C92 C97 1.348 . S
C93 C92 1.359 . S
C93 C94 1.380 . S
C93 H116 0.929 . S
C94 C93 1.380 . S
C94 C95 1.347 . S
C94 H117 0.931 . S
C95 C94 1.347 . S
C95 C96 1.369 . S
C96 C95 1.369 . S
C96 C97 1.408 . S
C96 H118 0.930 . S
C97 C92 1.348 . S
C97 C96 1.408 . S
C97 H119 0.930 1_565 S
C98 O108 1.281 . S
C98 O109 1.254 . S
C99 O110 1.236 . S
C99 O111 1.266 . S
O100 Tb80 2.484 1_545 S
O100 C82 1.248 . S
O101 Tb80 2.440 . S
O101 C82 1.266 1_565 S
O102 Tb80 2.658 . S
O102 Tb81 2.325 1_565 S
O102 C89 1.281 . S
O103 Tb80 2.409 . S
O103 C89 1.254 . S
O104 Tb80 2.378 1_545 S
O104 C90 1.236 . S
O105 Tb81 2.341 . S
O105 C90 1.266 . S
O106 Tb81 2.484 1_565 S
O106 C91 1.248 . S
O107 Tb81 2.440 . S
O107 C91 1.266 1_545 S
O108 Tb80 2.325 1_545 S
O108 Tb81 2.658 . S
O108 C98 1.281 . S
O109 Tb81 2.409 . S
O109 C98 1.254 . S
O110 Tb81 2.378 1_565 S
O110 C99 1.236 . S
O111 Tb80 2.341 . S
O111 C99 1.266 . S
H112 C84 0.929 . S
H113 C85 0.931 . S
H114 C87 0.930 . S
H115 C88 0.930 1_565 S
H116 C93 0.929 . S
H117 C94 0.931 . S
H118 C96 0.930 . S
H119 C97 0.930 1_545 S
Tb120 C122 2.809 . S
Tb120 O140 2.484 . S
Tb120 O141 2.440 . S
Tb120 O142 2.658 . S
Tb120 O143 2.409 . S
Tb120 O144 2.378 . S
Tb120 O148 2.325 . S
Tb120 O151 2.341 . S
Tb121 C131 2.809 . S
Tb121 O142 2.325 . S
Tb121 O145 2.341 . S
Tb121 O146 2.484 . S
Tb121 O147 2.440 . S
Tb121 O148 2.658 . S
Tb121 O149 2.409 . S
Tb121 O150 2.378 . S
C122 Tb120 2.809 . S
C122 C123 1.514 . S
C122 O140 1.248 . S
C122 O141 1.266 . S
C123 C122 1.514 . S
C123 C124 1.359 . S
C123 C128 1.348 . S
C124 C123 1.359 . S
C124 C125 1.380 . S
C124 H152 0.929 . S
C125 C124 1.380 . S
C125 C126 1.347 . S
C125 H153 0.931 . S
C126 C125 1.347 . S
C126 C127 1.369 . S
C127 C126 1.369 . S
C127 C128 1.408 . S
C127 H154 0.930 . S
C128 C123 1.348 . S
C128 C127 1.408 . S
C128 H155 0.930 . S
C129 O142 1.281 . S
C129 O143 1.254 . S
C130 O144 1.236 . S
C130 O145 1.266 . S
C131 Tb121 2.809 . S
C131 C132 1.514 . S
C131 O146 1.248 . S
C131 O147 1.266 . S
C132 C131 1.514 . S
C132 C133 1.359 . S
C132 C137 1.348 . S
C133 C132 1.359 . S
C133 C134 1.380 . S
C133 H156 0.929 . S
C134 C133 1.380 . S
C134 C135 1.347 . S
C134 H157 0.931 . S
C135 C134 1.347 . S
C135 C136 1.369 . S
C136 C135 1.369 . S
C136 C137 1.408 . S
C136 H158 0.930 . S
C137 C132 1.348 . S
C137 C136 1.408 . S
C137 H159 0.930 . S
C138 O148 1.281 . S
C138 O149 1.254 . S
C139 O150 1.236 . S
C139 O151 1.266 . S
O140 Tb120 2.484 . S
O140 C122 1.248 . S
O141 Tb120 2.440 . S
O141 C122 1.266 . S
O142 Tb120 2.658 . S
O142 Tb121 2.325 . S
O142 C129 1.281 . S
O143 Tb120 2.409 . S
O143 C129 1.254 . S
O144 Tb120 2.378 . S
O144 C130 1.236 . S
O145 Tb121 2.341 . S
O145 C130 1.266 . S
O146 Tb121 2.484 . S
O146 C131 1.248 . S
O147 Tb121 2.440 . S
O147 C131 1.266 . S
O148 Tb120 2.325 . S
O148 Tb121 2.658 . S
O148 C138 1.281 . S
O149 Tb121 2.409 . S
O149 C138 1.254 . S
O150 Tb121 2.378 . S
O150 C139 1.236 . S
O151 Tb120 2.341 . S
O151 C139 1.266 . S
H152 C124 0.929 . S
H153 C125 0.931 . S
H154 C127 0.930 . S
H155 C128 0.930 . S
H156 C133 0.929 . S
H157 C134 0.931 . S
H158 C136 0.930 . S
H159 C137 0.930 . S
Tb160 C162 2.809 . S
Tb160 O180 2.484 . S
Tb160 O181 2.440 . S
Tb160 O182 2.658 1_665 S
Tb160 O183 2.409 1_665 S
Tb160 O184 2.378 1_655 S
Tb160 O188 2.325 . S
Tb160 O191 2.341 1_565 S
Tb161 C171 2.809 . S
Tb161 O182 2.325 . S
Tb161 O185 2.341 1_545 S
Tb161 O186 2.484 . S
Tb161 O187 2.440 . S
Tb161 O188 2.658 1_445 S
Tb161 O189 2.409 1_445 S
Tb161 O190 2.378 1_455 S
C162 Tb160 2.809 . S
C162 C163 1.514 . S
C162 O180 1.248 . S
C162 O181 1.266 . S
C163 C162 1.514 . S
C163 C164 1.359 . S
C163 C168 1.348 . S
C164 C163 1.359 . S
C164 C165 1.380 . S
C164 H192 0.929 . S
C165 C164 1.380 . S
C165 C166 1.347 . S
C165 H193 0.931 . S
C166 C165 1.347 . S
C166 C167 1.369 . S
C167 C166 1.369 . S
C167 C168 1.408 . S
C167 H194 0.930 . S
C168 C163 1.348 . S
C168 C167 1.408 . S
C168 H195 0.930 . S
C169 O182 1.281 . S
C169 O183 1.254 . S
C170 O184 1.236 . S
C170 O185 1.266 . S
C171 Tb161 2.809 . S
C171 C172 1.514 . S
C171 O186 1.248 . S
C171 O187 1.266 . S
C172 C171 1.514 . S
C172 C173 1.359 . S
C172 C177 1.348 . S
C173 C172 1.359 . S
C173 C174 1.380 . S
C173 H196 0.929 . S
C174 C173 1.380 . S
C174 C175 1.347 . S
C174 H197 0.931 . S
C175 C174 1.347 . S
C175 C176 1.369 . S
C176 C175 1.369 . S
C176 C177 1.408 . S
C176 H198 0.930 . S
C177 C172 1.348 . S
C177 C176 1.408 . S
C177 H199 0.930 . S
C178 O188 1.281 . S
C178 O189 1.254 . S
C179 O190 1.236 . S
C179 O191 1.266 . S
O180 Tb160 2.484 . S
O180 C162 1.248 . S
O181 Tb160 2.440 . S
O181 C162 1.266 . S
O182 Tb160 2.658 1_445 S
O182 Tb161 2.325 . S
O182 C169 1.281 . S
O183 Tb160 2.409 1_445 S
O183 C169 1.254 . S
O184 Tb160 2.378 1_455 S
O184 C170 1.236 . S
O185 Tb161 2.341 1_565 S
O185 C170 1.266 . S
O186 Tb161 2.484 . S
O186 C171 1.248 . S
O187 Tb161 2.440 . S
O187 C171 1.266 . S
O188 Tb160 2.325 . S
O188 Tb161 2.658 1_665 S
O188 C178 1.281 . S
O189 Tb161 2.409 1_665 S
O189 C178 1.254 . S
O190 Tb161 2.378 1_655 S
O190 C179 1.236 . S
O191 Tb160 2.341 1_545 S
O191 C179 1.266 . S
H192 C164 0.929 . S
H193 C165 0.931 . S
H194 C167 0.930 . S
H195 C168 0.930 . S
H196 C173 0.929 . S
H197 C174 0.931 . S
H198 C176 0.930 . S
H199 C177 0.930 . S
Tb200 C202 2.809 . S
Tb200 O220 2.484 . S
Tb200 O221 2.440 . S
Tb200 O222 2.658 . S
Tb200 O223 2.409 . S
Tb200 O224 2.378 . S
Tb200 O228 2.325 . S
Tb200 O231 2.341 . S
Tb201 C211 2.809 . S
Tb201 O222 2.325 . S
Tb201 O225 2.341 . S
Tb201 O226 2.484 . S
Tb201 O227 2.440 . S
Tb201 O228 2.658 . S
Tb201 O229 2.409 . S
Tb201 O230 2.378 . S
C202 Tb200 2.809 . S
C202 C203 1.514 . S
C202 O220 1.248 . S
C202 O221 1.266 . S
C203 C202 1.514 . S
C203 C204 1.359 . S
C203 C208 1.348 . S
C204 C203 1.359 . S
C204 C205 1.380 . S
C204 H232 0.929 . S
C205 C204 1.380 . S
C205 C206 1.347 . S
C205 H233 0.931 . S
C206 C205 1.347 . S
C206 C207 1.369 . S
C207 C206 1.369 . S
C207 C208 1.408 . S
C207 H234 0.930 . S
C208 C203 1.348 . S
C208 C207 1.408 . S
C208 H235 0.930 . S
C209 O222 1.281 . S
C209 O223 1.254 . S
C210 O224 1.236 . S
C210 O225 1.266 . S
C211 Tb201 2.809 . S
C211 C212 1.514 . S
C211 O226 1.248 . S
C211 O227 1.266 . S
C212 C211 1.514 . S
C212 C213 1.359 . S
C212 C217 1.348 . S
C213 C212 1.359 . S
C213 C214 1.380 . S
C213 H236 0.929 . S
C214 C213 1.380 . S
C214 C215 1.347 . S
C214 H237 0.931 . S
C215 C214 1.347 . S
C215 C216 1.369 . S
C216 C215 1.369 . S
C216 C217 1.408 . S
C216 H238 0.930 . S
C217 C212 1.348 . S
C217 C216 1.408 . S
C217 H239 0.930 . S
C218 O228 1.281 . S
C218 O229 1.254 . S
C219 O230 1.236 . S
C219 O231 1.266 . S
O220 Tb200 2.484 . S
O220 C202 1.248 . S
O221 Tb200 2.440 . S
O221 C202 1.266 . S
O222 Tb200 2.658 . S
O222 Tb201 2.325 . S
O222 C209 1.281 . S
O223 Tb200 2.409 . S
O223 C209 1.254 . S
O224 Tb200 2.378 . S
O224 C210 1.236 . S
O225 Tb201 2.341 . S
O225 C210 1.266 . S
O226 Tb201 2.484 . S
O226 C211 1.248 . S
O227 Tb201 2.440 . S
O227 C211 1.266 . S
O228 Tb200 2.325 . S
O228 Tb201 2.658 . S
O228 C218 1.281 . S
O229 Tb201 2.409 . S
O229 C218 1.254 . S
O230 Tb201 2.378 . S
O230 C219 1.236 . S
O231 Tb200 2.341 . S
O231 C219 1.266 . S
H232 C204 0.929 . S
H233 C205 0.931 . S
H234 C207 0.930 . S
H235 C208 0.930 . S
H236 C213 0.929 . S
H237 C214 0.931 . S
H238 C216 0.930 . S
H239 C217 0.930 . S
Tb240 C242 2.809 1_554 S
Tb240 O260 2.484 1_554 S
Tb240 O261 2.440 . S
Tb240 O262 2.658 1_565 S
Tb240 O263 2.409 1_565 S
Tb240 O264 2.378 1_564 S
Tb240 O268 2.325 1_554 S
Tb240 O271 2.341 . S
Tb241 C251 2.809 1_556 S
Tb241 O262 2.325 1_556 S
Tb241 O265 2.341 . S
Tb241 O266 2.484 1_556 S
Tb241 O267 2.440 . S
Tb241 O268 2.658 1_545 S
Tb241 O269 2.409 1_545 S
Tb241 O270 2.378 1_546 S
C242 Tb240 2.809 1_556 S
C242 C243 1.514 . S
C242 O260 1.248 . S
C242 O261 1.266 1_556 S
C243 C242 1.514 . S
C243 C244 1.359 . S
C243 C248 1.348 1_556 S
C244 C243 1.359 . S
C244 C245 1.380 . S
C244 H272 0.929 . S
C245 C244 1.380 . S
C245 C246 1.347 . S
C245 H273 0.931 . S
C246 C245 1.347 . S
C246 C247 1.369 . S
C247 C246 1.369 . S
C247 C248 1.408 1_556 S
C247 H274 0.930 1_556 S
C248 C243 1.348 1_554 S
C248 C247 1.408 1_554 S
C248 H275 0.930 . S
C249 O262 1.281 . S
C249 O263 1.254 . S
C250 O264 1.236 . S
C250 O265 1.266 . S
C251 Tb241 2.809 1_554 S
C251 C252 1.514 . S
C251 O266 1.248 . S
C251 O267 1.266 1_554 S
C252 C251 1.514 . S
C252 C253 1.359 . S
C252 C257 1.348 1_554 S
C253 C252 1.359 . S
C253 C254 1.380 . S
C253 H276 0.929 . S
C254 C253 1.380 . S
C254 C255 1.347 . S
C254 H277 0.931 . S
C255 C254 1.347 . S
C255 C256 1.369 . S
C256 C255 1.369 . S
C256 C257 1.408 1_554 S
C256 H278 0.930 1_554 S
C257 C252 1.348 1_556 S
C257 C256 1.408 1_556 S
C257 H279 0.930 . S
C258 O268 1.281 . S
C258 O269 1.254 . S
C259 O270 1.236 . S
C259 O271 1.266 . S
O260 Tb240 2.484 1_556 S
O260 C242 1.248 . S
O261 Tb240 2.440 . S
O261 C242 1.266 1_554 S
O262 Tb240 2.658 1_545 S
O262 Tb241 2.325 1_554 S
O262 C249 1.281 . S
O263 Tb240 2.409 1_545 S
O263 C249 1.254 . S
O264 Tb240 2.378 1_546 S
O264 C250 1.236 . S
O265 Tb241 2.341 . S
O265 C250 1.266 . S
O266 Tb241 2.484 1_554 S
O266 C251 1.248 . S
O267 Tb241 2.440 . S
O267 C251 1.266 1_556 S
O268 Tb240 2.325 1_556 S
O268 Tb241 2.658 1_565 S
O268 C258 1.281 . S
O269 Tb241 2.409 1_565 S
O269 C258 1.254 . S
O270 Tb241 2.378 1_564 S
O270 C259 1.236 . S
O271 Tb240 2.341 . S
O271 C259 1.266 . S
H272 C244 0.929 . S
H273 C245 0.931 . S
H274 C247 0.930 1_554 S
H275 C248 0.930 . S
H276 C253 0.929 . S
H277 C254 0.931 . S
H278 C256 0.930 1_556 S
H279 C257 0.930 . S
Tb280 C282 2.809 . S
Tb280 O300 2.484 . S
Tb280 O301 2.440 . S
Tb280 O302 2.658 . S
Tb280 O303 2.409 . S
Tb280 O304 2.378 . S
Tb280 O308 2.325 . S
Tb280 O311 2.341 . S
Tb281 C291 2.809 . S
Tb281 O302 2.325 . S
Tb281 O305 2.341 . S
Tb281 O306 2.484 . S
Tb281 O307 2.440 . S
Tb281 O308 2.658 . S
Tb281 O309 2.409 . S
Tb281 O310 2.378 . S
C282 Tb280 2.809 . S
C282 C283 1.514 . S
C282 O300 1.248 . S
C282 O301 1.266 . S
C283 C282 1.514 . S
C283 C284 1.359 . S
C283 C288 1.348 . S
C284 C283 1.359 . S
C284 C285 1.380 . S
C284 H312 0.929 . S
C285 C284 1.380 . S
C285 C286 1.347 . S
C285 H313 0.931 . S
C286 C285 1.347 . S
C286 C287 1.369 . S
C287 C286 1.369 . S
C287 C288 1.408 . S
C287 H314 0.930 . S
C288 C283 1.348 . S
C288 C287 1.408 . S
C288 H315 0.930 . S
C289 O302 1.281 . S
C289 O303 1.254 . S
C290 O304 1.236 . S
C290 O305 1.266 . S
C291 Tb281 2.809 . S
C291 C292 1.514 . S
C291 O306 1.248 . S
C291 O307 1.266 . S
C292 C291 1.514 . S
C292 C293 1.359 . S
C292 C297 1.348 . S
C293 C292 1.359 . S
C293 C294 1.380 . S
C293 H316 0.929 . S
C294 C293 1.380 . S
C294 C295 1.347 . S
C294 H317 0.931 . S
C295 C294 1.347 . S
C295 C296 1.369 . S
C296 C295 1.369 . S
C296 C297 1.408 . S
C296 H318 0.930 . S
C297 C292 1.348 . S
C297 C296 1.408 . S
C297 H319 0.930 . S
C298 O308 1.281 . S
C298 O309 1.254 . S
C299 O310 1.236 . S
C299 O311 1.266 . S
O300 Tb280 2.484 . S
O300 C282 1.248 . S
O301 Tb280 2.440 . S
O301 C282 1.266 . S
O302 Tb280 2.658 . S
O302 Tb281 2.325 . S
O302 C289 1.281 . S
O303 Tb280 2.409 . S
O303 C289 1.254 . S
O304 Tb280 2.378 . S
O304 C290 1.236 . S
O305 Tb281 2.341 . S
O305 C290 1.266 . S
O306 Tb281 2.484 . S
O306 C291 1.248 . S
O307 Tb281 2.440 . S
O307 C291 1.266 . S
O308 Tb280 2.325 . S
O308 Tb281 2.658 . S
O308 C298 1.281 . S
O309 Tb281 2.409 . S
O309 C298 1.254 . S
O310 Tb281 2.378 . S
O310 C299 1.236 . S
O311 Tb280 2.341 . S
O311 C299 1.266 . S
H312 C284 0.929 . S
H313 C285 0.931 . S
H314 C287 0.930 . S
H315 C288 0.930 . S
H316 C293 0.929 . S
H317 C294 0.931 . S
H318 C296 0.930 . S
H319 C297 0.930 . S
Tb320 C322 2.809 . S
Tb320 O340 2.484 . S
Tb320 O341 2.440 . S
Tb320 O342 2.658 . S
Tb320 O343 2.409 . S
Tb320 O344 2.378 . S
Tb320 O348 2.325 1_554 S
Tb320 O351 2.341 1_554 S
Tb321 C331 2.809 . S
Tb321 O342 2.325 1_556 S
Tb321 O345 2.341 1_556 S
Tb321 O346 2.484 . S
Tb321 O347 2.440 . S
Tb321 O348 2.658 . S
Tb321 O349 2.409 . S
Tb321 O350 2.378 . S
C322 Tb320 2.809 . S
C322 C323 1.514 . S
C322 O340 1.248 . S
C322 O341 1.266 . S
C323 C322 1.514 . S
C323 C324 1.359 . S
C323 C328 1.348 . S
C324 C323 1.359 . S
C324 C325 1.380 . S
C324 H352 0.929 . S
C325 C324 1.380 . S
C325 C326 1.347 . S
C325 H353 0.931 . S
C326 C325 1.347 . S
C326 C327 1.369 . S
C327 C326 1.369 . S
C327 C328 1.408 . S
C327 H354 0.930 . S
C328 C323 1.348 . S
C328 C327 1.408 . S
C328 H355 0.930 . S
C329 O342 1.281 . S
C329 O343 1.254 . S
C330 O344 1.236 . S
C330 O345 1.266 . S
C331 Tb321 2.809 . S
C331 C332 1.514 . S
C331 O346 1.248 . S
C331 O347 1.266 . S
C332 C331 1.514 . S
C332 C333 1.359 . S
C332 C337 1.348 . S
C333 C332 1.359 . S
C333 C334 1.380 . S
C333 H356 0.929 . S
C334 C333 1.380 . S
C334 C335 1.347 . S
C334 H357 0.931 . S
C335 C334 1.347 . S
C335 C336 1.369 . S
C336 C335 1.369 . S
C336 C337 1.408 . S
C336 H358 0.930 . S
C337 C332 1.348 . S
C337 C336 1.408 . S
C337 H359 0.930 . S
C338 O348 1.281 . S
C338 O349 1.254 . S
C339 O350 1.236 . S
C339 O351 1.266 . S
O340 Tb320 2.484 . S
O340 C322 1.248 . S
O341 Tb320 2.440 . S
O341 C322 1.266 . S
O342 Tb320 2.658 . S
O342 Tb321 2.325 1_554 S
O342 C329 1.281 . S
O343 Tb320 2.409 . S
O343 C329 1.254 . S
O344 Tb320 2.378 . S
O344 C330 1.236 . S
O345 Tb321 2.341 1_554 S
O345 C330 1.266 . S
O346 Tb321 2.484 . S
O346 C331 1.248 . S
O347 Tb321 2.440 . S
O347 C331 1.266 . S
O348 Tb320 2.325 1_556 S
O348 Tb321 2.658 . S
O348 C338 1.281 . S
O349 Tb321 2.409 . S
O349 C338 1.254 . S
O350 Tb321 2.378 . S
O350 C339 1.236 . S
O351 Tb320 2.341 1_556 S
O351 C339 1.266 . S
H352 C324 0.929 . S
H353 C325 0.931 . S
H354 C327 0.930 . S
H355 C328 0.930 . S
H356 C333 0.929 . S
H357 C334 0.931 . S
H358 C336 0.930 . S
H359 C337 0.930 . S
Tb360 C362 2.809 . S
Tb360 O380 2.484 . S
Tb360 O381 2.440 . S
Tb360 O382 2.658 . S
Tb360 O383 2.409 . S
Tb360 O384 2.378 . S
Tb360 O388 2.325 . S
Tb360 O391 2.341 . S
Tb361 C371 2.809 . S
Tb361 O382 2.325 . S
Tb361 O385 2.341 . S
Tb361 O386 2.484 . S
Tb361 O387 2.440 . S
Tb361 O388 2.658 . S
Tb361 O389 2.409 . S
Tb361 O390 2.378 . S
C362 Tb360 2.809 . S
C362 C363 1.514 . S
C362 O380 1.248 . S
C362 O381 1.266 . S
C363 C362 1.514 . S
C363 C364 1.359 . S
C363 C368 1.348 . S
C364 C363 1.359 . S
C364 C365 1.380 . S
C364 H392 0.929 . S
C365 C364 1.380 . S
C365 C366 1.347 . S
C365 H393 0.931 . S
C366 C365 1.347 . S
C366 C367 1.369 . S
C367 C366 1.369 . S
C367 C368 1.408 . S
C367 H394 0.930 . S
C368 C363 1.348 . S
C368 C367 1.408 . S
C368 H395 0.930 . S
C369 O382 1.281 . S
C369 O383 1.254 . S
C370 O384 1.236 . S
C370 O385 1.266 . S
C371 Tb361 2.809 . S
C371 C372 1.514 . S
C371 O386 1.248 . S
C371 O387 1.266 . S
C372 C371 1.514 . S
C372 C373 1.359 . S
C372 C377 1.348 . S
C373 C372 1.359 . S
C373 C374 1.380 . S
C373 H396 0.929 . S
C374 C373 1.380 . S
C374 C375 1.347 . S
C374 H397 0.931 . S
C375 C374 1.347 . S
C375 C376 1.369 . S
C376 C375 1.369 . S
C376 C377 1.408 . S
C376 H398 0.930 . S
C377 C372 1.348 . S
C377 C376 1.408 . S
C377 H399 0.930 . S
C378 O388 1.281 . S
C378 O389 1.254 . S
C379 O390 1.236 . S
C379 O391 1.266 . S
O380 Tb360 2.484 . S
O380 C362 1.248 . S
O381 Tb360 2.440 . S
O381 C362 1.266 . S
O382 Tb360 2.658 . S
O382 Tb361 2.325 . S
O382 C369 1.281 . S
O383 Tb360 2.409 . S
O383 C369 1.254 . S
O384 Tb360 2.378 . S
O384 C370 1.236 . S
O385 Tb361 2.341 . S
O385 C370 1.266 . S
O386 Tb361 2.484 . S
O386 C371 1.248 . S
O387 Tb361 2.440 . S
O387 C371 1.266 . S
O388 Tb360 2.325 . S
O388 Tb361 2.658 . S
O388 C378 1.281 . S
O389 Tb361 2.409 . S
O389 C378 1.254 . S
O390 Tb361 2.378 . S
O390 C379 1.236 . S
O391 Tb360 2.341 . S
O391 C379 1.266 . S
H392 C364 0.929 . S
H393 C365 0.931 . S
H394 C367 0.930 . S
H395 C368 0.930 . S
H396 C373 0.929 . S
H397 C374 0.931 . S
H398 C376 0.930 . S
H399 C377 0.930 . S
Tb400 C402 2.809 . S
Tb400 O420 2.484 . S
Tb400 O421 2.440 . S
Tb400 O422 2.658 . S
Tb400 O423 2.409 . S
Tb400 O424 2.378 . S
Tb400 O428 2.325 1_455 S
Tb400 O431 2.341 1_455 S
Tb401 C411 2.809 . S
Tb401 O422 2.325 1_655 S
Tb401 O425 2.341 1_655 S
Tb401 O426 2.484 . S
Tb401 O427 2.440 . S
Tb401 O428 2.658 . S
Tb401 O429 2.409 . S
Tb401 O430 2.378 . S
C402 Tb400 2.809 . S
C402 C403 1.514 . S
C402 O420 1.248 . S
C402 O421 1.266 . S
C403 C402 1.514 . S
C403 C404 1.359 . S
C403 C408 1.348 . S
C404 C403 1.359 . S
C404 C405 1.380 . S
C404 H432 0.929 . S
C405 C404 1.380 . S
C405 C406 1.347 . S
C405 H433 0.931 . S
C406 C405 1.347 . S
C406 C407 1.369 . S
C407 C406 1.369 . S
C407 C408 1.408 . S
C407 H434 0.930 . S
C408 C403 1.348 . S
C408 C407 1.408 . S
C408 H435 0.930 . S
C409 O422 1.281 . S
C409 O423 1.254 . S
C410 O424 1.236 . S
C410 O425 1.266 . S
C411 Tb401 2.809 . S
C411 C412 1.514 . S
C411 O426 1.248 . S
C411 O427 1.266 . S
C412 C411 1.514 . S
C412 C413 1.359 . S
C412 C417 1.348 . S
C413 C412 1.359 . S
C413 C414 1.380 . S
C413 H436 0.929 . S
C414 C413 1.380 . S
C414 C415 1.347 . S
C414 H437 0.931 . S
C415 C414 1.347 . S
C415 C416 1.369 . S
C416 C415 1.369 . S
C416 C417 1.408 . S
C416 H438 0.930 . S
C417 C412 1.348 . S
C417 C416 1.408 . S
C417 H439 0.930 . S
C418 O428 1.281 . S
C418 O429 1.254 . S
C419 O430 1.236 . S
C419 O431 1.266 . S
O420 Tb400 2.484 . S
O420 C402 1.248 . S
O421 Tb400 2.440 . S
O421 C402 1.266 . S
O422 Tb400 2.658 . S
O422 Tb401 2.325 1_455 S
O422 C409 1.281 . S
O423 Tb400 2.409 . S
O423 C409 1.254 . S
O424 Tb400 2.378 . S
O424 C410 1.236 . S
O425 Tb401 2.341 1_455 S
O425 C410 1.266 . S
O426 Tb401 2.484 . S
O426 C411 1.248 . S
O427 Tb401 2.440 . S
O427 C411 1.266 . S
O428 Tb400 2.325 1_655 S
O428 Tb401 2.658 . S
O428 C418 1.281 . S
O429 Tb401 2.409 . S
O429 C418 1.254 . S
O430 Tb401 2.378 . S
O430 C419 1.236 . S
O431 Tb400 2.341 1_655 S
O431 C419 1.266 . S
H432 C404 0.929 . S
H433 C405 0.931 . S
H434 C407 0.930 . S
H435 C408 0.930 . S
H436 C413 0.929 . S
H437 C414 0.931 . S
H438 C416 0.930 . S
H439 C417 0.930 . S
Tb440 C442 2.809 . S
Tb440 O460 2.484 . S
Tb440 O461 2.440 . S
Tb440 O462 2.658 . S
Tb440 O463 2.409 . S
Tb440 O464 2.378 . S
Tb440 O468 2.325 . S
Tb440 O471 2.341 . S
Tb441 C451 2.809 . S
Tb441 O462 2.325 . S
Tb441 O465 2.341 . S
Tb441 O466 2.484 . S
Tb441 O467 2.440 . S
Tb441 O468 2.658 . S
Tb441 O469 2.409 . S
Tb441 O470 2.378 . S
C442 Tb440 2.809 . S
C442 C443 1.514 . S
C442 O460 1.248 . S
C442 O461 1.266 . S
C443 C442 1.514 . S
C443 C444 1.359 . S
C443 C448 1.348 . S
C444 C443 1.359 . S
C444 C445 1.380 . S
C444 H472 0.929 . S
C445 C444 1.380 . S
C445 C446 1.347 . S
C445 H473 0.931 . S
C446 C445 1.347 . S
C446 C447 1.369 . S
C447 C446 1.369 . S
C447 C448 1.408 . S
C447 H474 0.930 . S
C448 C443 1.348 . S
C448 C447 1.408 . S
C448 H475 0.930 . S
C449 O462 1.281 . S
C449 O463 1.254 . S
C450 O464 1.236 . S
C450 O465 1.266 . S
C451 Tb441 2.809 . S
C451 C452 1.514 . S
C451 O466 1.248 . S
C451 O467 1.266 . S
C452 C451 1.514 . S
C452 C453 1.359 . S
C452 C457 1.348 . S
C453 C452 1.359 . S
C453 C454 1.380 . S
C453 H476 0.929 . S
C454 C453 1.380 . S
C454 C455 1.347 . S
C454 H477 0.931 . S
C455 C454 1.347 . S
C455 C456 1.369 . S
C456 C455 1.369 . S
C456 C457 1.408 . S
C456 H478 0.930 . S
C457 C452 1.348 . S
C457 C456 1.408 . S
C457 H479 0.930 . S
C458 O468 1.281 . S
C458 O469 1.254 . S
C459 O470 1.236 . S
C459 O471 1.266 . S
O460 Tb440 2.484 . S
O460 C442 1.248 . S
O461 Tb440 2.440 . S
O461 C442 1.266 . S
O462 Tb440 2.658 . S
O462 Tb441 2.325 . S
O462 C449 1.281 . S
O463 Tb440 2.409 . S
O463 C449 1.254 . S
O464 Tb440 2.378 . S
O464 C450 1.236 . S
O465 Tb441 2.341 . S
O465 C450 1.266 . S
O466 Tb441 2.484 . S
O466 C451 1.248 . S
O467 Tb441 2.440 . S
O467 C451 1.266 . S
O468 Tb440 2.325 . S
O468 Tb441 2.658 . S
O468 C458 1.281 . S
O469 Tb441 2.409 . S
O469 C458 1.254 . S
O470 Tb441 2.378 . S
O470 C459 1.236 . S
O471 Tb440 2.341 . S
O471 C459 1.266 . S
H472 C444 0.929 . S
H473 C445 0.931 . S
H474 C447 0.930 . S
H475 C448 0.930 . S
H476 C453 0.929 . S
H477 C454 0.931 . S
H478 C456 0.930 . S
H479 C457 0.930 . S
Tb480 C482 2.809 . S
Tb480 O500 2.484 . S
Tb480 O501 2.440 . S
Tb480 O502 2.658 . S
Tb480 O503 2.409 . S
Tb480 O504 2.378 . S
Tb480 O508 2.325 . S
Tb480 O511 2.341 . S
Tb481 C491 2.809 . S
Tb481 O502 2.325 . S
Tb481 O505 2.341 . S
Tb481 O506 2.484 . S
Tb481 O507 2.440 . S
Tb481 O508 2.658 . S
Tb481 O509 2.409 . S
Tb481 O510 2.378 . S
C482 Tb480 2.809 . S
C482 C483 1.514 . S
C482 O500 1.248 . S
C482 O501 1.266 . S
C483 C482 1.514 . S
C483 C484 1.359 . S
C483 C488 1.348 . S
C484 C483 1.359 . S
C484 C485 1.380 . S
C484 H512 0.929 . S
C485 C484 1.380 . S
C485 C486 1.347 . S
C485 H513 0.931 . S
C486 C485 1.347 . S
C486 C487 1.369 . S
C487 C486 1.369 . S
C487 C488 1.408 . S
C487 H514 0.930 . S
C488 C483 1.348 . S
C488 C487 1.408 . S
C488 H515 0.930 . S
C489 O502 1.281 . S
C489 O503 1.254 . S
C490 O504 1.236 . S
C490 O505 1.266 . S
C491 Tb481 2.809 . S
C491 C492 1.514 . S
C491 O506 1.248 . S
C491 O507 1.266 . S
C492 C491 1.514 . S
C492 C493 1.359 . S
C492 C497 1.348 . S
C493 C492 1.359 . S
C493 C494 1.380 . S
C493 H516 0.929 . S
C494 C493 1.380 . S
C494 C495 1.347 . S
C494 H517 0.931 . S
C495 C494 1.347 . S
C495 C496 1.369 . S
C496 C495 1.369 . S
C496 C497 1.408 . S
C496 H518 0.930 . S
C497 C492 1.348 . S
C497 C496 1.408 . S
C497 H519 0.930 . S
C498 O508 1.281 . S
C498 O509 1.254 . S
C499 O510 1.236 . S
C499 O511 1.266 . S
O500 Tb480 2.484 . S
O500 C482 1.248 . S
O501 Tb480 2.440 . S
O501 C482 1.266 . S
O502 Tb480 2.658 . S
O502 Tb481 2.325 . S
O502 C489 1.281 . S
O503 Tb480 2.409 . S
O503 C489 1.254 . S
O504 Tb480 2.378 . S
O504 C490 1.236 . S
O505 Tb481 2.341 . S
O505 C490 1.266 . S
O506 Tb481 2.484 . S
O506 C491 1.248 . S
O507 Tb481 2.440 . S
O507 C491 1.266 . S
O508 Tb480 2.325 . S
O508 Tb481 2.658 . S
O508 C498 1.281 . S
O509 Tb481 2.409 . S
O509 C498 1.254 . S
O510 Tb481 2.378 . S
O510 C499 1.236 . S
O511 Tb480 2.341 . S
O511 C499 1.266 . S
H512 C484 0.929 . S
H513 C485 0.931 . S
H514 C487 0.930 . S
H515 C488 0.930 . S
H516 C493 0.929 . S
H517 C494 0.931 . S
H518 C496 0.930 . S
H519 C497 0.930 . S
Tb520 C522 2.809 . S
Tb520 O540 2.484 . S
Tb520 O541 2.440 . S
Tb520 O542 2.658 . S
Tb520 O543 2.409 . S
Tb520 O544 2.378 . S
Tb520 O548 2.325 . S
Tb520 O551 2.341 . S
Tb521 C531 2.809 . S
Tb521 O542 2.325 . S
Tb521 O545 2.341 . S
Tb521 O546 2.484 . S
Tb521 O547 2.440 . S
Tb521 O548 2.658 . S
Tb521 O549 2.409 . S
Tb521 O550 2.378 . S
C522 Tb520 2.809 . S
C522 C523 1.514 . S
C522 O540 1.248 . S
C522 O541 1.266 . S
C523 C522 1.514 . S
C523 C524 1.359 . S
C523 C528 1.348 . S
C524 C523 1.359 . S
C524 C525 1.380 . S
C524 H552 0.929 . S
C525 C524 1.380 . S
C525 C526 1.347 . S
C525 H553 0.931 . S
C526 C525 1.347 . S
C526 C527 1.369 . S
C527 C526 1.369 . S
C527 C528 1.408 . S
C527 H554 0.930 . S
C528 C523 1.348 . S
C528 C527 1.408 . S
C528 H555 0.930 . S
C529 O542 1.281 . S
C529 O543 1.254 . S
C530 O544 1.236 . S
C530 O545 1.266 . S
C531 Tb521 2.809 . S
C531 C532 1.514 . S
C531 O546 1.248 . S
C531 O547 1.266 . S
C532 C531 1.514 . S
C532 C533 1.359 . S
C532 C537 1.348 . S
C533 C532 1.359 . S
C533 C534 1.380 . S
C533 H556 0.929 . S
C534 C533 1.380 . S
C534 C535 1.347 . S
C534 H557 0.931 . S
C535 C534 1.347 . S
C535 C536 1.369 . S
C536 C535 1.369 . S
C536 C537 1.408 . S
C536 H558 0.930 . S
C537 C532 1.348 . S
C537 C536 1.408 . S
C537 H559 0.930 . S
C538 O548 1.281 . S
C538 O549 1.254 . S
C539 O550 1.236 . S
C539 O551 1.266 . S
O540 Tb520 2.484 . S
O540 C522 1.248 . S
O541 Tb520 2.440 . S
O541 C522 1.266 . S
O542 Tb520 2.658 . S
O542 Tb521 2.325 . S
O542 C529 1.281 . S
O543 Tb520 2.409 . S
O543 C529 1.254 . S
O544 Tb520 2.378 . S
O544 C530 1.236 . S
O545 Tb521 2.341 . S
O545 C530 1.266 . S
O546 Tb521 2.484 . S
O546 C531 1.248 . S
O547 Tb521 2.440 . S
O547 C531 1.266 . S
O548 Tb520 2.325 . S
O548 Tb521 2.658 . S
O548 C538 1.281 . S
O549 Tb521 2.409 . S
O549 C538 1.254 . S
O550 Tb521 2.378 . S
O550 C539 1.236 . S
O551 Tb520 2.341 . S
O551 C539 1.266 . S
H552 C524 0.929 . S
H553 C525 0.931 . S
H554 C527 0.930 . S
H555 C528 0.930 . S
H556 C533 0.929 . S
H557 C534 0.931 . S
H558 C536 0.930 . S
H559 C537 0.930 . S
Tb560 C562 2.809 . S
Tb560 O580 2.484 . S
Tb560 O581 2.440 . S
Tb560 O582 2.658 . S
Tb560 O583 2.409 . S
Tb560 O584 2.378 . S
Tb560 O588 2.325 . S
Tb560 O591 2.341 . S
Tb561 C571 2.809 . S
Tb561 O582 2.325 . S
Tb561 O585 2.341 . S
Tb561 O586 2.484 . S
Tb561 O587 2.440 . S
Tb561 O588 2.658 . S
Tb561 O589 2.409 . S
Tb561 O590 2.378 . S
C562 Tb560 2.809 . S
C562 C563 1.514 . S
C562 O580 1.248 . S
C562 O581 1.266 . S
C563 C562 1.514 . S
C563 C564 1.359 . S
C563 C568 1.348 . S
C564 C563 1.359 . S
C564 C565 1.380 . S
C564 H592 0.929 . S
C565 C564 1.380 . S
C565 C566 1.347 . S
C565 H593 0.931 . S
C566 C565 1.347 . S
C566 C567 1.369 . S
C567 C566 1.369 . S
C567 C568 1.408 . S
C567 H594 0.930 . S
C568 C563 1.348 . S
C568 C567 1.408 . S
C568 H595 0.930 . S
C569 O582 1.281 . S
C569 O583 1.254 . S
C570 O584 1.236 . S
C570 O585 1.266 . S
C571 Tb561 2.809 . S
C571 C572 1.514 . S
C571 O586 1.248 . S
C571 O587 1.266 . S
C572 C571 1.514 . S
C572 C573 1.359 . S
C572 C577 1.348 . S
C573 C572 1.359 . S
C573 C574 1.380 . S
C573 H596 0.929 . S
C574 C573 1.380 . S
C574 C575 1.347 . S
C574 H597 0.931 . S
C575 C574 1.347 . S
C575 C576 1.369 . S
C576 C575 1.369 . S
C576 C577 1.408 . S
C576 H598 0.930 . S
C577 C572 1.348 . S
C577 C576 1.408 . S
C577 H599 0.930 . S
C578 O588 1.281 . S
C578 O589 1.254 . S
C579 O590 1.236 . S
C579 O591 1.266 . S
O580 Tb560 2.484 . S
O580 C562 1.248 . S
O581 Tb560 2.440 . S
O581 C562 1.266 . S
O582 Tb560 2.658 . S
O582 Tb561 2.325 . S
O582 C569 1.281 . S
O583 Tb560 2.409 . S
O583 C569 1.254 . S
O584 Tb560 2.378 . S
O584 C570 1.236 . S
O585 Tb561 2.341 . S
O585 C570 1.266 . S
O586 Tb561 2.484 . S
O586 C571 1.248 . S
O587 Tb561 2.440 . S
O587 C571 1.266 . S
O588 Tb560 2.325 . S
O588 Tb561 2.658 . S
O588 C578 1.281 . S
O589 Tb561 2.409 . S
O589 C578 1.254 . S
O590 Tb561 2.378 . S
O590 C579 1.236 . S
O591 Tb560 2.341 . S
O591 C579 1.266 . S
H592 C564 0.929 . S
H593 C565 0.931 . S
H594 C567 0.930 . S
H595 C568 0.930 . S
H596 C573 0.929 . S
H597 C574 0.931 . S
H598 C576 0.930 . S
H599 C577 0.930 . S
Tb600 C602 2.809 . S
Tb600 O620 2.484 . S
Tb600 O621 2.440 . S
Tb600 O622 2.658 1_554 S
Tb600 O623 2.409 1_554 S
Tb600 O624 2.378 1_554 S
Tb600 O628 2.325 1_655 S
Tb600 O631 2.341 1_655 S
Tb601 C611 2.809 . S
Tb601 O622 2.325 1_455 S
Tb601 O625 2.341 1_455 S
Tb601 O626 2.484 . S
Tb601 O627 2.440 . S
Tb601 O628 2.658 1_556 S
Tb601 O629 2.409 1_556 S
Tb601 O630 2.378 1_556 S
C602 Tb600 2.809 . S
C602 C603 1.514 . S
C602 O620 1.248 . S
C602 O621 1.266 . S
C603 C602 1.514 . S
C603 C604 1.359 . S
C603 C608 1.348 . S
C604 C603 1.359 . S
C604 C605 1.380 . S
C604 H632 0.929 . S
C605 C604 1.380 . S
C605 C606 1.347 . S
C605 H633 0.931 . S
C606 C605 1.347 . S
C606 C607 1.369 . S
C607 C606 1.369 . S
C607 C608 1.408 . S
C607 H634 0.930 . S
C608 C603 1.348 . S
C608 C607 1.408 . S
C608 H635 0.930 . S
C609 O622 1.281 . S
C609 O623 1.254 . S
C610 O624 1.236 . S
C610 O625 1.266 . S
C611 Tb601 2.809 . S
C611 C612 1.514 . S
C611 O626 1.248 . S
C611 O627 1.266 . S
C612 C611 1.514 . S
C612 C613 1.359 . S
C612 C617 1.348 . S
C613 C612 1.359 . S
C613 C614 1.380 . S
C613 H636 0.929 . S
C614 C613 1.380 . S
C614 C615 1.347 . S
C614 H637 0.931 . S
C615 C614 1.347 . S
C615 C616 1.369 . S
C616 C615 1.369 . S
C616 C617 1.408 . S
C616 H638 0.930 . S
C617 C612 1.348 . S
C617 C616 1.408 . S
C617 H639 0.930 . S
C618 O628 1.281 . S
C618 O629 1.254 . S
C619 O630 1.236 . S
C619 O631 1.266 . S
O620 Tb600 2.484 . S
O620 C602 1.248 . S
O621 Tb600 2.440 . S
O621 C602 1.266 . S
O622 Tb600 2.658 1_556 S
O622 Tb601 2.325 1_655 S
O622 C609 1.281 . S
O623 Tb600 2.409 1_556 S
O623 C609 1.254 . S
O624 Tb600 2.378 1_556 S
O624 C610 1.236 . S
O625 Tb601 2.341 1_655 S
O625 C610 1.266 . S
O626 Tb601 2.484 . S
O626 C611 1.248 . S
O627 Tb601 2.440 . S
O627 C611 1.266 . S
O628 Tb600 2.325 1_455 S
O628 Tb601 2.658 1_554 S
O628 C618 1.281 . S
O629 Tb601 2.409 1_554 S
O629 C618 1.254 . S
O630 Tb601 2.378 1_554 S
O630 C619 1.236 . S
O631 Tb600 2.341 1_455 S
O631 C619 1.266 . S
H632 C604 0.929 . S
H633 C605 0.931 . S
H634 C607 0.930 . S
H635 C608 0.930 . S
H636 C613 0.929 . S
H637 C614 0.931 . S
H638 C616 0.930 . S
H639 C617 0.930 . S
H640 C648 0.950 . S
H641 C653 0.950 . S
H642 C650 0.950 . S
H643 C652 0.950 . S
H644 C654 0.950 . S
H645 C656 0.950 . S
H646 C658 0.950 . S
H647 C659 0.950 . S
C648 H640 0.950 . S
C648 C649 1.386 . S
C648 C650 1.391 . S
C649 C648 1.386 . S
C649 C653 1.393 . S
C650 H642 0.950 . S
C650 C648 1.391 . S
C650 C651 1.400 . S
C651 C650 1.400 . S
C651 C652 1.398 . S
C651 C657 1.491 . S
C652 H643 0.950 . S
C652 C651 1.398 . S
C652 C653 1.391 . S
C653 H641 0.950 . S
C653 C649 1.393 . S
C653 C652 1.391 . S
C654 H644 0.950 . S
C654 C655 1.386 . S
C654 C656 1.391 . S
C655 C654 1.386 . S
C655 C659 1.393 . S
C656 H645 0.950 . S
C656 C654 1.391 . S
C656 C657 1.400 . S
C657 C651 1.491 . S
C657 C656 1.400 . S
C657 C658 1.398 . S
C658 H646 0.950 . S
C658 C657 1.398 . S
C658 C659 1.391 . S
C659 H647 0.950 . S
C659 C655 1.393 . S
C659 C658 1.391 . S
H660 C668 0.950 . S
H661 C673 0.950 . S
H662 C670 0.950 . S
H663 C672 0.950 . S
H664 C674 0.950 . S
H665 C676 0.950 . S
H666 C678 0.950 . S
H667 C679 0.950 . S
C668 H660 0.950 . S
C668 C669 1.386 . S
C668 C670 1.391 . S
C669 C668 1.386 . S
C669 C673 1.393 . S
C670 H662 0.950 . S
C670 C668 1.391 . S
C670 C671 1.400 . S
C671 C670 1.400 . S
C671 C672 1.398 . S
C671 C677 1.491 . S
C672 H663 0.950 . S
C672 C671 1.398 . S
C672 C673 1.391 . S
C673 H661 0.950 . S
C673 C669 1.393 . S
C673 C672 1.391 . S
C674 H664 0.950 . S
C674 C675 1.386 . S
C674 C676 1.391 . S
C675 C674 1.386 . S
C675 C679 1.393 . S
C676 H665 0.950 . S
C676 C674 1.391 . S
C676 C677 1.400 . S
C677 C671 1.491 . S
C677 C676 1.400 . S
C677 C678 1.398 . S
C678 H666 0.950 . S
C678 C677 1.398 . S
C678 C679 1.391 . S
C679 H667 0.950 . S
C679 C675 1.393 . S
C679 C678 1.391 . S
H680 C688 0.950 . S
H681 C693 0.950 . S
H682 C690 0.950 . S
H683 C692 0.950 . S
H684 C694 0.950 . S
H685 C696 0.950 . S
H686 C698 0.950 . S
H687 C699 0.950 . S
C688 H680 0.950 . S
C688 C689 1.386 . S
C688 C690 1.391 . S
C689 C688 1.386 . S
C689 C693 1.393 . S
C690 H682 0.950 . S
C690 C688 1.391 . S
C690 C691 1.400 . S
C691 C690 1.400 . S
C691 C692 1.398 . S
C691 C697 1.491 . S
C692 H683 0.950 . S
C692 C691 1.398 . S
C692 C693 1.391 . S
C693 H681 0.950 . S
C693 C689 1.393 . S
C693 C692 1.391 . S
C694 H684 0.950 . S
C694 C695 1.386 . S
C694 C696 1.391 . S
C695 C694 1.386 . S
C695 C699 1.393 . S
C696 H685 0.950 . S
C696 C694 1.391 . S
C696 C697 1.400 . S
C697 C691 1.491 . S
C697 C696 1.400 . S
C697 C698 1.398 . S
C698 H686 0.950 . S
C698 C697 1.398 . S
C698 C699 1.391 . S
C699 H687 0.950 . S
C699 C695 1.393 . S
C699 C698 1.391 . S
H700 C708 0.950 . S
H701 C713 0.950 . S
H702 C710 0.950 . S
H703 C712 0.950 . S
H704 C714 0.950 . S
H705 C716 0.950 . S
H706 C718 0.950 . S
H707 C719 0.950 . S
C708 H700 0.950 . S
C708 C709 1.386 . S
C708 C710 1.391 . S
C709 C708 1.386 . S
C709 C713 1.393 . S
C710 H702 0.950 . S
C710 C708 1.391 . S
C710 C711 1.400 . S
C711 C710 1.400 . S
C711 C712 1.398 . S
C711 C717 1.491 . S
C712 H703 0.950 . S
C712 C711 1.398 . S
C712 C713 1.391 . S
C713 H701 0.950 . S
C713 C709 1.393 . S
C713 C712 1.391 . S
C714 H704 0.950 . S
C714 C715 1.386 . S
C714 C716 1.391 . S
C715 C714 1.386 . S
C715 C719 1.393 . S
C716 H705 0.950 . S
C716 C714 1.391 . S
C716 C717 1.400 . S
C717 C711 1.491 . S
C717 C716 1.400 . S
C717 C718 1.398 . S
C718 H706 0.950 . S
C718 C717 1.398 . S
C718 C719 1.391 . S
C719 H707 0.950 . S
C719 C715 1.393 . S
C719 C718 1.391 . S
H720 C728 0.950 . S
H721 C733 0.950 . S
H722 C730 0.950 . S
H723 C732 0.950 . S
H724 C734 0.950 . S
H725 C736 0.950 . S
H726 C738 0.950 . S
H727 C739 0.950 . S
C728 H720 0.950 . S
C728 C729 1.386 . S
C728 C730 1.391 . S
C729 C728 1.386 . S
C729 C733 1.393 . S
C730 H722 0.950 . S
C730 C728 1.391 . S
C730 C731 1.400 . S
C731 C730 1.400 . S
C731 C732 1.398 . S
C731 C737 1.491 . S
C732 H723 0.950 . S
C732 C731 1.398 . S
C732 C733 1.391 . S
C733 H721 0.950 . S
C733 C729 1.393 . S
C733 C732 1.391 . S
C734 H724 0.950 . S
C734 C735 1.386 . S
C734 C736 1.391 . S
C735 C734 1.386 . S
C735 C739 1.393 . S
C736 H725 0.950 . S
C736 C734 1.391 . S
C736 C737 1.400 . S
C737 C731 1.491 . S
C737 C736 1.400 . S
C737 C738 1.398 . S
C738 H726 0.950 . S
C738 C737 1.398 . S
C738 C739 1.391 . S
C739 H727 0.950 . S
C739 C735 1.393 . S
C739 C738 1.391 . S
H740 C748 0.950 . S
H741 C753 0.950 . S
H742 C750 0.950 . S
H743 C752 0.950 . S
H744 C754 0.950 . S
H745 C756 0.950 . S
H746 C758 0.950 . S
H747 C759 0.950 . S
C748 H740 0.950 . S
C748 C749 1.386 . S
C748 C750 1.391 . S
C749 C748 1.386 . S
C749 C753 1.393 . S
C750 H742 0.950 . S
C750 C748 1.391 . S
C750 C751 1.400 . S
C751 C750 1.400 . S
C751 C752 1.398 . S
C751 C757 1.491 . S
C752 H743 0.950 . S
C752 C751 1.398 . S
C752 C753 1.391 . S
C753 H741 0.950 . S
C753 C749 1.393 . S
C753 C752 1.391 . S
C754 H744 0.950 . S
C754 C755 1.386 . S
C754 C756 1.391 . S
C755 C754 1.386 . S
C755 C759 1.393 . S
C756 H745 0.950 . S
C756 C754 1.391 . S
C756 C757 1.400 . S
C757 C751 1.491 . S
C757 C756 1.400 . S
C757 C758 1.398 . S
C758 H746 0.950 . S
C758 C757 1.398 . S
C758 C759 1.391 . S
C759 H747 0.950 . S
C759 C755 1.393 . S
C759 C758 1.391 . S
H760 C768 0.950 . S
H761 C773 0.950 . S
H762 C770 0.950 . S
H763 C772 0.950 . S
H764 C774 0.950 . S
H765 C776 0.950 . S
H766 C778 0.950 . S
H767 C779 0.950 . S
C768 H760 0.950 . S
C768 C769 1.386 . S
C768 C770 1.391 . S
C769 C768 1.386 . S
C769 C773 1.393 . S
C770 H762 0.950 . S
C770 C768 1.391 . S
C770 C771 1.400 . S
C771 C770 1.400 . S
C771 C772 1.398 . S
C771 C777 1.491 . S
C772 H763 0.950 . S
C772 C771 1.398 . S
C772 C773 1.391 . S
C773 H761 0.950 . S
C773 C769 1.393 . S
C773 C772 1.391 . S
C774 H764 0.950 . S
C774 C775 1.386 . S
C774 C776 1.391 . S
C775 C774 1.386 . S
C775 C779 1.393 . S
C776 H765 0.950 . S
C776 C774 1.391 . S
C776 C777 1.400 . S
C777 C771 1.491 . S
C777 C776 1.400 . S
C777 C778 1.398 . S
C778 H766 0.950 . S
C778 C777 1.398 . S
C778 C779 1.391 . S
C779 H767 0.950 . S
C779 C775 1.393 . S
C779 C778 1.391 . S
H780 C788 0.950 . S
H781 C793 0.950 . S
H782 C790 0.950 . S
H783 C792 0.950 . S
H784 C794 0.950 . S
H785 C796 0.950 . S
H786 C798 0.950 . S
H787 C799 0.950 . S
C788 H780 0.950 . S
C788 C789 1.386 . S
C788 C790 1.391 . S
C789 C788 1.386 . S
C789 C793 1.393 . S
C790 H782 0.950 . S
C790 C788 1.391 . S
C790 C791 1.400 . S
C791 C790 1.400 . S
C791 C792 1.398 . S
C791 C797 1.491 . S
C792 H783 0.950 . S
C792 C791 1.398 . S
C792 C793 1.391 . S
C793 H781 0.950 . S
C793 C789 1.393 . S
C793 C792 1.391 . S
C794 H784 0.950 . S
C794 C795 1.386 . S
C794 C796 1.391 . S
C795 C794 1.386 . S
C795 C799 1.393 . S
C796 H785 0.950 . S
C796 C794 1.391 . S
C796 C797 1.400 . S
C797 C791 1.491 . S
C797 C796 1.400 . S
C797 C798 1.398 . S
C798 H786 0.950 . S
C798 C797 1.398 . S
C798 C799 1.391 . S
C799 H787 0.950 . S
C799 C795 1.393 . S
C799 C798 1.391 . S
H800 C808 0.950 . S
H801 C813 0.950 . S
H802 C810 0.950 . S
H803 C812 0.950 . S
H804 C814 0.950 . S
H805 C816 0.950 . S
H806 C818 0.950 . S
H807 C819 0.950 . S
C808 H800 0.950 . S
C808 C809 1.386 . S
C808 C810 1.391 . S
C809 C808 1.386 . S
C809 C813 1.393 . S
C810 H802 0.950 . S
C810 C808 1.391 . S
C810 C811 1.400 . S
C811 C810 1.400 . S
C811 C812 1.398 . S
C811 C817 1.491 . S
C812 H803 0.950 . S
C812 C811 1.398 . S
C812 C813 1.391 . S
C813 H801 0.950 . S
C813 C809 1.393 . S
C813 C812 1.391 . S
C814 H804 0.950 . S
C814 C815 1.386 . S
C814 C816 1.391 . S
C815 C814 1.386 . S
C815 C819 1.393 . S
C816 H805 0.950 . S
C816 C814 1.391 . S
C816 C817 1.400 . S
C817 C811 1.491 . S
C817 C816 1.400 . S
C817 C818 1.398 . S
C818 H806 0.950 . S
C818 C817 1.398 . S
C818 C819 1.391 . S
C819 H807 0.950 . S
C819 C815 1.393 . S
C819 C818 1.391 . S
H820 C828 0.950 . S
H821 C833 0.950 . S
H822 C830 0.950 . S
H823 C832 0.950 . S
H824 C834 0.950 . S
H825 C836 0.950 . S
H826 C838 0.950 . S
H827 C839 0.950 . S
C828 H820 0.950 . S
C828 C829 1.386 . S
C828 C830 1.391 . S
C829 C828 1.386 . S
C829 C833 1.393 . S
C830 H822 0.950 . S
C830 C828 1.391 . S
C830 C831 1.400 . S
C831 C830 1.400 . S
C831 C832 1.398 . S
C831 C837 1.491 . S
C832 H823 0.950 . S
C832 C831 1.398 . S
C832 C833 1.391 . S
C833 H821 0.950 . S
C833 C829 1.393 . S
C833 C832 1.391 . S
C834 H824 0.950 . S
C834 C835 1.386 . S
C834 C836 1.391 . S
C835 C834 1.386 . S
C835 C839 1.393 . S
C836 H825 0.950 . S
C836 C834 1.391 . S
C836 C837 1.400 . S
C837 C831 1.491 . S
C837 C836 1.400 . S
C837 C838 1.398 . S
C838 H826 0.950 . S
C838 C837 1.398 . S
C838 C839 1.391 . S
C839 H827 0.950 . S
C839 C835 1.393 . S
C839 C838 1.391 . S
H840 C848 0.950 . S
H841 C853 0.950 . S
H842 C850 0.950 . S
H843 C852 0.950 . S
H844 C854 0.950 . S
H845 C856 0.950 . S
H846 C858 0.950 . S
H847 C859 0.950 . S
C848 H840 0.950 . S
C848 C849 1.386 . S
C848 C850 1.391 . S
C849 C848 1.386 . S
C849 C853 1.393 . S
C850 H842 0.950 . S
C850 C848 1.391 . S
C850 C851 1.400 . S
C851 C850 1.400 . S
C851 C852 1.398 . S
C851 C857 1.491 . S
C852 H843 0.950 . S
C852 C851 1.398 . S
C852 C853 1.391 . S
C853 H841 0.950 . S
C853 C849 1.393 . S
C853 C852 1.391 . S
C854 H844 0.950 . S
C854 C855 1.386 . S
C854 C856 1.391 . S
C855 C854 1.386 . S
C855 C859 1.393 . S
C856 H845 0.950 . S
C856 C854 1.391 . S
C856 C857 1.400 . S
C857 C851 1.491 . S
C857 C856 1.400 . S
C857 C858 1.398 . S
C858 H846 0.950 . S
C858 C857 1.398 . S
C858 C859 1.391 . S
C859 H847 0.950 . S
C859 C855 1.393 . S
C859 C858 1.391 . S
H860 C868 0.950 . S
H861 C873 0.950 . S
H862 C870 0.950 . S
H863 C872 0.950 . S
H864 C874 0.950 . S
H865 C876 0.950 . S
H866 C878 0.950 . S
H867 C879 0.950 . S
C868 H860 0.950 . S
C868 C869 1.386 . S
C868 C870 1.391 . S
C869 C868 1.386 . S
C869 C873 1.393 . S
C870 H862 0.950 . S
C870 C868 1.391 . S
C870 C871 1.400 . S
C871 C870 1.400 . S
C871 C872 1.398 . S
C871 C877 1.491 . S
C872 H863 0.950 . S
C872 C871 1.398 . S
C872 C873 1.391 . S
C873 H861 0.950 . S
C873 C869 1.393 . S
C873 C872 1.391 . S
C874 H864 0.950 . S
C874 C875 1.386 . S
C874 C876 1.391 . S
C875 C874 1.386 . S
C875 C879 1.393 . S
C876 H865 0.950 . S
C876 C874 1.391 . S
C876 C877 1.400 . S
C877 C871 1.491 . S
C877 C876 1.400 . S
C877 C878 1.398 . S
C878 H866 0.950 . S
C878 C877 1.398 . S
C878 C879 1.391 . S
C879 H867 0.950 . S
C879 C875 1.393 . S
C879 C878 1.391 . S
H880 C888 0.950 . S
H881 C893 0.950 . S
H882 C890 0.950 . S
H883 C892 0.950 . S
H884 C894 0.950 . S
H885 C896 0.950 . S
H886 C898 0.950 . S
H887 C899 0.950 . S
C888 H880 0.950 . S
C888 C889 1.386 . S
C888 C890 1.391 . S
C889 C888 1.386 . S
C889 C893 1.393 . S
C890 H882 0.950 . S
C890 C888 1.391 . S
C890 C891 1.400 . S
C891 C890 1.400 . S
C891 C892 1.398 . S
C891 C897 1.491 . S
C892 H883 0.950 . S
C892 C891 1.398 . S
C892 C893 1.391 . S
C893 H881 0.950 . S
C893 C889 1.393 . S
C893 C892 1.391 . S
C894 H884 0.950 . S
C894 C895 1.386 . S
C894 C896 1.391 . S
C895 C894 1.386 . S
C895 C899 1.393 . S
C896 H885 0.950 . S
C896 C894 1.391 . S
C896 C897 1.400 . S
C897 C891 1.491 . S
C897 C896 1.400 . S
C897 C898 1.398 . S
C898 H886 0.950 . S
C898 C897 1.398 . S
C898 C899 1.391 . S
C899 H887 0.950 . S
C899 C895 1.393 . S
C899 C898 1.391 . S
H900 C908 0.950 . S
H901 C913 0.950 . S
H902 C910 0.950 . S
H903 C912 0.950 . S
H904 C914 0.950 . S
H905 C916 0.950 . S
H906 C918 0.950 . S
H907 C919 0.950 . S
C908 H900 0.950 . S
C908 C909 1.386 . S
C908 C910 1.391 . S
C909 C908 1.386 . S
C909 C913 1.393 . S
C910 H902 0.950 . S
C910 C908 1.391 . S
C910 C911 1.400 . S
C911 C910 1.400 . S
C911 C912 1.398 . S
C911 C917 1.491 . S
C912 H903 0.950 . S
C912 C911 1.398 . S
C912 C913 1.391 . S
C913 H901 0.950 . S
C913 C909 1.393 . S
C913 C912 1.391 . S
C914 H904 0.950 . S
C914 C915 1.386 . S
C914 C916 1.391 . S
C915 C914 1.386 . S
C915 C919 1.393 . S
C916 H905 0.950 . S
C916 C914 1.391 . S
C916 C917 1.400 . S
C917 C911 1.491 . S
C917 C916 1.400 . S
C917 C918 1.398 . S
C918 H906 0.950 . S
C918 C917 1.398 . S
C918 C919 1.391 . S
C919 H907 0.950 . S
C919 C915 1.393 . S
C919 C918 1.391 . S
H920 C928 0.950 . S
H921 C933 0.950 . S
H922 C930 0.950 . S
H923 C932 0.950 . S
H924 C934 0.950 . S
H925 C936 0.950 . S
H926 C938 0.950 . S
H927 C939 0.950 . S
C928 H920 0.950 . S
C928 C929 1.386 . S
C928 C930 1.391 . S
C929 C928 1.386 . S
C929 C933 1.393 . S
C930 H922 0.950 . S
C930 C928 1.391 . S
C930 C931 1.400 . S
C931 C930 1.400 . S
C931 C932 1.398 . S
C931 C937 1.491 . S
C932 H923 0.950 . S
C932 C931 1.398 . S
C932 C933 1.391 . S
C933 H921 0.950 . S
C933 C929 1.393 . S
C933 C932 1.391 . S
C934 H924 0.950 . S
C934 C935 1.386 . S
C934 C936 1.391 . S
C935 C934 1.386 . S
C935 C939 1.393 . S
C936 H925 0.950 . S
C936 C934 1.391 . S
C936 C937 1.400 . S
C937 C931 1.491 . S
C937 C936 1.400 . S
C937 C938 1.398 . S
C938 H926 0.950 . S
C938 C937 1.398 . S
C938 C939 1.391 . S
C939 H927 0.950 . S
C939 C935 1.393 . S
C939 C938 1.391 . S
H940 C948 0.950 . S
H941 C953 0.950 . S
H942 C950 0.950 . S
H943 C952 0.950 . S
H944 C954 0.950 . S
H945 C956 0.950 . S
H946 C958 0.950 . S
H947 C959 0.950 . S
C948 H940 0.950 . S
C948 C949 1.386 . S
C948 C950 1.391 . S
C949 C948 1.386 . S
C949 C953 1.393 . S
C950 H942 0.950 . S
C950 C948 1.391 . S
C950 C951 1.400 . S
C951 C950 1.400 . S
C951 C952 1.398 . S
C951 C957 1.491 . S
C952 H943 0.950 . S
C952 C951 1.398 . S
C952 C953 1.391 . S
C953 H941 0.950 . S
C953 C949 1.393 . S
C953 C952 1.391 . S
C954 H944 0.950 . S
C954 C955 1.386 . S
C954 C956 1.391 . S
C955 C954 1.386 . S
C955 C959 1.393 . S
C956 H945 0.950 . S
C956 C954 1.391 . S
C956 C957 1.400 . S
C957 C951 1.491 . S
C957 C956 1.400 . S
C957 C958 1.398 . S
C958 H946 0.950 . S
C958 C957 1.398 . S
C958 C959 1.391 . S
C959 H947 0.950 . S
C959 C955 1.393 . S
C959 C958 1.391 . S
H960 C968 0.950 . S
H961 C973 0.950 . S
H962 C970 0.950 . S
H963 C972 0.950 . S
H964 C974 0.950 . S
H965 C976 0.950 . S
H966 C978 0.950 . S
H967 C979 0.950 . S
C968 H960 0.950 . S
C968 C969 1.386 . S
C968 C970 1.391 . S
C969 C968 1.386 . S
C969 C973 1.393 . S
C970 H962 0.950 . S
C970 C968 1.391 . S
C970 C971 1.400 . S
C971 C970 1.400 . S
C971 C972 1.398 . S
C971 C977 1.491 . S
C972 H963 0.950 . S
C972 C971 1.398 . S
C972 C973 1.391 . S
C973 H961 0.950 . S
C973 C969 1.393 . S
C973 C972 1.391 . S
C974 H964 0.950 . S
C974 C975 1.386 . S
C974 C976 1.391 . S
C975 C974 1.386 . S
C975 C979 1.393 . S
C976 H965 0.950 . S
C976 C974 1.391 . S
C976 C977 1.400 . S
C977 C971 1.491 . S
C977 C976 1.400 . S
C977 C978 1.398 . S
C978 H966 0.950 . S
C978 C977 1.398 . S
C978 C979 1.391 . S
C979 H967 0.950 . S
C979 C975 1.393 . S
C979 C978 1.391 . S
H980 C988 0.950 . S
H981 C993 0.950 . S
H982 C990 0.950 . S
H983 C992 0.950 . S
H984 C994 0.950 . S
H985 C996 0.950 . S
H986 C998 0.950 . S
H987 C999 0.950 . S
C988 H980 0.950 . S
C988 C989 1.386 . S
C988 C990 1.391 . S
C989 C988 1.386 . S
C989 C993 1.393 . S
C990 H982 0.950 . S
C990 C988 1.391 . S
C990 C991 1.400 . S
C991 C990 1.400 . S
C991 C992 1.398 . S
C991 C997 1.491 . S
C992 H983 0.950 . S
C992 C991 1.398 . S
C992 C993 1.391 . S
C993 H981 0.950 . S
C993 C989 1.393 . S
C993 C992 1.391 . S
C994 H984 0.950 . S
C994 C995 1.386 . S
C994 C996 1.391 . S
C995 C994 1.386 . S
C995 C999 1.393 . S
C996 H985 0.950 . S
C996 C994 1.391 . S
C996 C997 1.400 . S
C997 C991 1.491 . S
C997 C996 1.400 . S
C997 C998 1.398 . S
C998 H986 0.950 . S
C998 C997 1.398 . S
C998 C999 1.391 . S
C999 H987 0.950 . S
C999 C995 1.393 . S
C999 C998 1.391 . S
H1000 C1008 0.950 . S
H1001 C1013 0.950 . S
H1002 C1010 0.950 . S
H1003 C1012 0.950 . S
H1004 C1014 0.950 . S
H1005 C1016 0.950 . S
H1006 C1018 0.950 . S
H1007 C1019 0.950 . S
C1008 H1000 0.950 . S
C1008 C1009 1.386 . S
C1008 C1010 1.391 . S
C1009 C1008 1.386 . S
C1009 C1013 1.393 . S
C1010 H1002 0.950 . S
C1010 C1008 1.391 . S
C1010 C1011 1.400 . S
C1011 C1010 1.400 . S
C1011 C1012 1.398 . S
C1011 C1017 1.491 . S
C1012 H1003 0.950 . S
C1012 C1011 1.398 . S
C1012 C1013 1.391 . S
C1013 H1001 0.950 . S
C1013 C1009 1.393 . S
C1013 C1012 1.391 . S
C1014 H1004 0.950 . S
C1014 C1015 1.386 . S
C1014 C1016 1.391 . S
C1015 C1014 1.386 . S
C1015 C1019 1.393 . S
C1016 H1005 0.950 . S
C1016 C1014 1.391 . S
C1016 C1017 1.400 . S
C1017 C1011 1.491 . S
C1017 C1016 1.400 . S
C1017 C1018 1.398 . S
C1018 H1006 0.950 . S
C1018 C1017 1.398 . S
C1018 C1019 1.391 . S
C1019 H1007 0.950 . S
C1019 C1015 1.393 . S
C1019 C1018 1.391 . S
H1020 C1028 0.950 . S
H1021 C1033 0.950 . S
H1022 C1030 0.950 . S
H1023 C1032 0.950 . S
H1024 C1034 0.950 . S
H1025 C1036 0.950 . S
H1026 C1038 0.950 . S
H1027 C1039 0.950 . S
C1028 H1020 0.950 . S
C1028 C1029 1.386 . S
C1028 C1030 1.391 . S
C1029 C1028 1.386 . S
C1029 C1033 1.393 . S
C1030 H1022 0.950 . S
C1030 C1028 1.391 . S
C1030 C1031 1.400 . S
C1031 C1030 1.400 . S
C1031 C1032 1.398 . S
C1031 C1037 1.491 . S
C1032 H1023 0.950 . S
C1032 C1031 1.398 . S
C1032 C1033 1.391 . S
C1033 H1021 0.950 . S
C1033 C1029 1.393 . S
C1033 C1032 1.391 . S
C1034 H1024 0.950 . S
C1034 C1035 1.386 . S
C1034 C1036 1.391 . S
C1035 C1034 1.386 . S
C1035 C1039 1.393 . S
C1036 H1025 0.950 . S
C1036 C1034 1.391 . S
C1036 C1037 1.400 . S
C1037 C1031 1.491 . S
C1037 C1036 1.400 . S
C1037 C1038 1.398 . S
C1038 H1026 0.950 . S
C1038 C1037 1.398 . S
C1038 C1039 1.391 . S
C1039 H1027 0.950 . S
C1039 C1035 1.393 . S
C1039 C1038 1.391 . S
H1040 C1048 0.950 . S
H1041 C1053 0.950 . S
H1042 C1050 0.950 . S
H1043 C1052 0.950 . S
H1044 C1054 0.950 . S
H1045 C1056 0.950 . S
H1046 C1058 0.950 . S
H1047 C1059 0.950 . S
C1048 H1040 0.950 . S
C1048 C1049 1.386 . S
C1048 C1050 1.391 . S
C1049 C1048 1.386 . S
C1049 C1053 1.393 . S
C1050 H1042 0.950 . S
C1050 C1048 1.391 . S
C1050 C1051 1.400 . S
C1051 C1050 1.400 . S
C1051 C1052 1.398 . S
C1051 C1057 1.491 . S
C1052 H1043 0.950 . S
C1052 C1051 1.398 . S
C1052 C1053 1.391 . S
C1053 H1041 0.950 . S
C1053 C1049 1.393 . S
C1053 C1052 1.391 . S
C1054 H1044 0.950 . S
C1054 C1055 1.386 . S
C1054 C1056 1.391 . S
C1055 C1054 1.386 . S
C1055 C1059 1.393 . S
C1056 H1045 0.950 . S
C1056 C1054 1.391 . S
C1056 C1057 1.400 . S
C1057 C1051 1.491 . S
C1057 C1056 1.400 . S
C1057 C1058 1.398 . S
C1058 H1046 0.950 . S
C1058 C1057 1.398 . S
C1058 C1059 1.391 . S
C1059 H1047 0.950 . S
C1059 C1055 1.393 . S
C1059 C1058 1.391 . S
H1060 C1068 0.950 . S
H1061 C1073 0.950 . S
H1062 C1070 0.950 . S
H1063 C1072 0.950 . S
H1064 C1074 0.950 . S
H1065 C1076 0.950 . S
H1066 C1078 0.950 . S
H1067 C1079 0.950 . S
C1068 H1060 0.950 . S
C1068 C1069 1.386 . S
C1068 C1070 1.391 . S
C1069 C1068 1.386 . S
C1069 C1073 1.393 . S
C1070 H1062 0.950 . S
C1070 C1068 1.391 . S
C1070 C1071 1.400 . S
C1071 C1070 1.400 . S
C1071 C1072 1.398 . S
C1071 C1077 1.491 . S
C1072 H1063 0.950 . S
C1072 C1071 1.398 . S
C1072 C1073 1.391 . S
C1073 H1061 0.950 . S
C1073 C1069 1.393 . S
C1073 C1072 1.391 . S
C1074 H1064 0.950 . S
C1074 C1075 1.386 . S
C1074 C1076 1.391 . S
C1075 C1074 1.386 . S
C1075 C1079 1.393 . S
C1076 H1065 0.950 . S
C1076 C1074 1.391 . S
C1076 C1077 1.400 . S
C1077 C1071 1.491 . S
C1077 C1076 1.400 . S
C1077 C1078 1.398 . S
C1078 H1066 0.950 . S
C1078 C1077 1.398 . S
C1078 C1079 1.391 . S
C1079 H1067 0.950 . S
C1079 C1075 1.393 . S
C1079 C1078 1.391 . S
H1080 C1088 0.950 . S
H1081 C1093 0.950 . S
H1082 C1090 0.950 . S
H1083 C1092 0.950 . S
H1084 C1094 0.950 . S
H1085 C1096 0.950 . S
H1086 C1098 0.950 . S
H1087 C1099 0.950 . S
C1088 H1080 0.950 . S
C1088 C1089 1.386 . S
C1088 C1090 1.391 . S
C1089 C1088 1.386 . S
C1089 C1093 1.393 . S
C1090 H1082 0.950 . S
C1090 C1088 1.391 . S
C1090 C1091 1.400 . S
C1091 C1090 1.400 . S
C1091 C1092 1.398 . S
C1091 C1097 1.491 . S
C1092 H1083 0.950 . S
C1092 C1091 1.398 . S
C1092 C1093 1.391 . S
C1093 H1081 0.950 . S
C1093 C1089 1.393 . S
C1093 C1092 1.391 . S
C1094 H1084 0.950 . S
C1094 C1095 1.386 . S
C1094 C1096 1.391 . S
C1095 C1094 1.386 . S
C1095 C1099 1.393 . S
C1096 H1085 0.950 . S
C1096 C1094 1.391 . S
C1096 C1097 1.400 . S
C1097 C1091 1.491 . S
C1097 C1096 1.400 . S
C1097 C1098 1.398 . S
C1098 H1086 0.950 . S
C1098 C1097 1.398 . S
C1098 C1099 1.391 . S
C1099 H1087 0.950 . S
C1099 C1095 1.393 . S
C1099 C1098 1.391 . S
H1100 C1108 0.950 . S
H1101 C1113 0.950 . S
H1102 C1110 0.950 . S
H1103 C1112 0.950 . S
H1104 C1114 0.950 . S
H1105 C1116 0.950 . S
H1106 C1118 0.950 . S
H1107 C1119 0.950 . S
C1108 H1100 0.950 . S
C1108 C1109 1.386 . S
C1108 C1110 1.391 . S
C1109 C1108 1.386 . S
C1109 C1113 1.393 . S
C1110 H1102 0.950 . S
C1110 C1108 1.391 . S
C1110 C1111 1.400 . S
C1111 C1110 1.400 . S
C1111 C1112 1.398 . S
C1111 C1117 1.491 . S
C1112 H1103 0.950 . S
C1112 C1111 1.398 . S
C1112 C1113 1.391 . S
C1113 H1101 0.950 . S
C1113 C1109 1.393 . S
C1113 C1112 1.391 . S
C1114 H1104 0.950 . S
C1114 C1115 1.386 . S
C1114 C1116 1.391 . S
C1115 C1114 1.386 . S
C1115 C1119 1.393 . S
C1116 H1105 0.950 . S
C1116 C1114 1.391 . S
C1116 C1117 1.400 . S
C1117 C1111 1.491 . S
C1117 C1116 1.400 . S
C1117 C1118 1.398 . S
C1118 H1106 0.950 . S
C1118 C1117 1.398 . S
C1118 C1119 1.391 . S
C1119 H1107 0.950 . S
C1119 C1115 1.393 . S
C1119 C1118 1.391 . S
H1120 C1128 0.950 . S
H1121 C1133 0.950 . S
H1122 C1130 0.950 . S
H1123 C1132 0.950 . S
H1124 C1134 0.950 . S
H1125 C1136 0.950 . S
H1126 C1138 0.950 . S
H1127 C1139 0.950 . S
C1128 H1120 0.950 . S
C1128 C1129 1.386 . S
C1128 C1130 1.391 . S
C1129 C1128 1.386 . S
C1129 C1133 1.393 . S
C1130 H1122 0.950 . S
C1130 C1128 1.391 . S
C1130 C1131 1.400 . S
C1131 C1130 1.400 . S
C1131 C1132 1.398 . S
C1131 C1137 1.491 . S
C1132 H1123 0.950 . S
C1132 C1131 1.398 . S
C1132 C1133 1.391 . S
C1133 H1121 0.950 . S
C1133 C1129 1.393 . S
C1133 C1132 1.391 . S
C1134 H1124 0.950 . S
C1134 C1135 1.386 . S
C1134 C1136 1.391 . S
C1135 C1134 1.386 . S
C1135 C1139 1.393 . S
C1136 H1125 0.950 . S
C1136 C1134 1.391 . S
C1136 C1137 1.400 . S
C1137 C1131 1.491 . S
C1137 C1136 1.400 . S
C1137 C1138 1.398 . S
C1138 H1126 0.950 . S
C1138 C1137 1.398 . S
C1138 C1139 1.391 . S
C1139 H1127 0.950 . S
C1139 C1135 1.393 . S
C1139 C1138 1.391 . S
H1140 C1148 0.950 . S
H1141 C1153 0.950 . S
H1142 C1150 0.950 . S
H1143 C1152 0.950 . S
H1144 C1154 0.950 . S
H1145 C1156 0.950 . S
H1146 C1158 0.950 . S
H1147 C1159 0.950 . S
C1148 H1140 0.950 . S
C1148 C1149 1.386 . S
C1148 C1150 1.391 . S
C1149 C1148 1.386 . S
C1149 C1153 1.393 . S
C1150 H1142 0.950 . S
C1150 C1148 1.391 . S
C1150 C1151 1.400 . S
C1151 C1150 1.400 . S
C1151 C1152 1.398 . S
C1151 C1157 1.491 . S
C1152 H1143 0.950 . S
C1152 C1151 1.398 . S
C1152 C1153 1.391 . S
C1153 H1141 0.950 . S
C1153 C1149 1.393 . S
C1153 C1152 1.391 . S
C1154 H1144 0.950 . S
C1154 C1155 1.386 . S
C1154 C1156 1.391 . S
C1155 C1154 1.386 . S
C1155 C1159 1.393 . S
C1156 H1145 0.950 . S
C1156 C1154 1.391 . S
C1156 C1157 1.400 . S
C1157 C1151 1.491 . S
C1157 C1156 1.400 . S
C1157 C1158 1.398 . S
C1158 H1146 0.950 . S
C1158 C1157 1.398 . S
C1158 C1159 1.391 . S
C1159 H1147 0.950 . S
C1159 C1155 1.393 . S
C1159 C1158 1.391 . S
H1160 C1168 0.950 . S
H1161 C1173 0.950 . S
H1162 C1170 0.950 . S
H1163 C1172 0.950 . S
H1164 C1174 0.950 . S
H1165 C1176 0.950 . S
H1166 C1178 0.950 . S
H1167 C1179 0.950 . S
C1168 H1160 0.950 . S
C1168 C1169 1.386 . S
C1168 C1170 1.391 . S
C1169 C1168 1.386 . S
C1169 C1173 1.393 . S
C1170 H1162 0.950 . S
C1170 C1168 1.391 . S
C1170 C1171 1.400 . S
C1171 C1170 1.400 . S
C1171 C1172 1.398 . S
C1171 C1177 1.491 . S
C1172 H1163 0.950 . S
C1172 C1171 1.398 . S
C1172 C1173 1.391 . S
C1173 H1161 0.950 . S
C1173 C1169 1.393 . S
C1173 C1172 1.391 . S
C1174 H1164 0.950 . S
C1174 C1175 1.386 . S
C1174 C1176 1.391 . S
C1175 C1174 1.386 . S
C1175 C1179 1.393 . S
C1176 H1165 0.950 . S
C1176 C1174 1.391 . S
C1176 C1177 1.400 . S
C1177 C1171 1.491 . S
C1177 C1176 1.400 . S
C1177 C1178 1.398 . S
C1178 H1166 0.950 . S
C1178 C1177 1.398 . S
C1178 C1179 1.391 . S
C1179 H1167 0.950 . S
C1179 C1175 1.393 . S
C1179 C1178 1.391 . S
H1180 C1188 0.950 . S
H1181 C1193 0.950 . S
H1182 C1190 0.950 . S
H1183 C1192 0.950 . S
H1184 C1194 0.950 . S
H1185 C1196 0.950 . S
H1186 C1198 0.950 . S
H1187 C1199 0.950 . S
C1188 H1180 0.950 . S
C1188 C1189 1.386 . S
C1188 C1190 1.391 . S
C1189 C1188 1.386 . S
C1189 C1193 1.393 . S
C1190 H1182 0.950 . S
C1190 C1188 1.391 . S
C1190 C1191 1.400 . S
C1191 C1190 1.400 . S
C1191 C1192 1.398 . S
C1191 C1197 1.491 . S
C1192 H1183 0.950 . S
C1192 C1191 1.398 . S
C1192 C1193 1.391 . S
C1193 H1181 0.950 . S
C1193 C1189 1.393 . S
C1193 C1192 1.391 . S
C1194 H1184 0.950 . S
C1194 C1195 1.386 . S
C1194 C1196 1.391 . S
C1195 C1194 1.386 . S
C1195 C1199 1.393 . S
C1196 H1185 0.950 . S
C1196 C1194 1.391 . S
C1196 C1197 1.400 . S
C1197 C1191 1.491 . S
C1197 C1196 1.400 . S
C1197 C1198 1.398 . S
C1198 H1186 0.950 . S
C1198 C1197 1.398 . S
C1198 C1199 1.391 . S
C1199 H1187 0.950 . S
C1199 C1195 1.393 . S
C1199 C1198 1.391 . S
H1200 C1208 0.950 . S
H1201 C1213 0.950 . S
H1202 C1210 0.950 . S
H1203 C1212 0.950 . S
H1204 C1214 0.950 . S
H1205 C1216 0.950 . S
H1206 C1218 0.950 . S
H1207 C1219 0.950 . S
C1208 H1200 0.950 . S
C1208 C1209 1.386 . S
C1208 C1210 1.391 . S
C1209 C1208 1.386 . S
C1209 C1213 1.393 . S
C1210 H1202 0.950 . S
C1210 C1208 1.391 . S
C1210 C1211 1.400 . S
C1211 C1210 1.400 . S
C1211 C1212 1.398 . S
C1211 C1217 1.491 . S
C1212 H1203 0.950 . S
C1212 C1211 1.398 . S
C1212 C1213 1.391 . S
C1213 H1201 0.950 . S
C1213 C1209 1.393 . S
C1213 C1212 1.391 . S
C1214 H1204 0.950 . S
C1214 C1215 1.386 . S
C1214 C1216 1.391 . S
C1215 C1214 1.386 . S
C1215 C1219 1.393 . S
C1216 H1205 0.950 . S
C1216 C1214 1.391 . S
C1216 C1217 1.400 . S
C1217 C1211 1.491 . S
C1217 C1216 1.400 . S
C1217 C1218 1.398 . S
C1218 H1206 0.950 . S
C1218 C1217 1.398 . S
C1218 C1219 1.391 . S
C1219 H1207 0.950 . S
C1219 C1215 1.393 . S
C1219 C1218 1.391 . S
H1220 C1228 0.950 . S
H1221 C1233 0.950 . S
H1222 C1230 0.950 . S
H1223 C1232 0.950 . S
H1224 C1234 0.950 . S
H1225 C1236 0.950 . S
H1226 C1238 0.950 . S
H1227 C1239 0.950 . S
C1228 H1220 0.950 . S
C1228 C1229 1.386 . S
C1228 C1230 1.391 . S
C1229 C1228 1.386 . S
C1229 C1233 1.393 . S
C1230 H1222 0.950 . S
C1230 C1228 1.391 . S
C1230 C1231 1.400 . S
C1231 C1230 1.400 . S
C1231 C1232 1.398 . S
C1231 C1237 1.491 . S
C1232 H1223 0.950 . S
C1232 C1231 1.398 . S
C1232 C1233 1.391 . S
C1233 H1221 0.950 . S
C1233 C1229 1.393 . S
C1233 C1232 1.391 . S
C1234 H1224 0.950 . S
C1234 C1235 1.386 . S
C1234 C1236 1.391 . S
C1235 C1234 1.386 . S
C1235 C1239 1.393 . S
C1236 H1225 0.950 . S
C1236 C1234 1.391 . S
C1236 C1237 1.400 . S
C1237 C1231 1.491 . S
C1237 C1236 1.400 . S
C1237 C1238 1.398 . S
C1238 H1226 0.950 . S
C1238 C1237 1.398 . S
C1238 C1239 1.391 . S
C1239 H1227 0.950 . S
C1239 C1235 1.393 . S
C1239 C1238 1.391 . S
H1240 C1248 0.950 . S
H1241 C1253 0.950 . S
H1242 C1250 0.950 . S
H1243 C1252 0.950 . S
H1244 C1254 0.950 . S
H1245 C1256 0.950 . S
H1246 C1258 0.950 . S
H1247 C1259 0.950 . S
C1248 H1240 0.950 . S
C1248 C1249 1.386 . S
C1248 C1250 1.391 . S
C1249 C1248 1.386 . S
C1249 C1253 1.393 . S
C1250 H1242 0.950 . S
C1250 C1248 1.391 . S
C1250 C1251 1.400 . S
C1251 C1250 1.400 . S
C1251 C1252 1.398 . S
C1251 C1257 1.491 . S
C1252 H1243 0.950 . S
C1252 C1251 1.398 . S
C1252 C1253 1.391 . S
C1253 H1241 0.950 . S
C1253 C1249 1.393 . S
C1253 C1252 1.391 . S
C1254 H1244 0.950 . S
C1254 C1255 1.386 . S
C1254 C1256 1.391 . S
C1255 C1254 1.386 . S
C1255 C1259 1.393 . S
C1256 H1245 0.950 . S
C1256 C1254 1.391 . S
C1256 C1257 1.400 . S
C1257 C1251 1.491 . S
C1257 C1256 1.400 . S
C1257 C1258 1.398 . S
C1258 H1246 0.950 . S
C1258 C1257 1.398 . S
C1258 C1259 1.391 . S
C1259 H1247 0.950 . S
C1259 C1255 1.393 . S
C1259 C1258 1.391 . S
H1260 C1268 0.950 . S
H1261 C1273 0.950 . S
H1262 C1270 0.950 . S
H1263 C1272 0.950 . S
H1264 C1274 0.950 . S
H1265 C1276 0.950 . S
H1266 C1278 0.950 . S
H1267 C1279 0.950 . S
C1268 H1260 0.950 . S
C1268 C1269 1.386 . S
C1268 C1270 1.391 . S
C1269 C1268 1.386 . S
C1269 C1273 1.393 . S
C1270 H1262 0.950 . S
C1270 C1268 1.391 . S
C1270 C1271 1.400 . S
C1271 C1270 1.400 . S
C1271 C1272 1.398 . S
C1271 C1277 1.491 . S
C1272 H1263 0.950 . S
C1272 C1271 1.398 . S
C1272 C1273 1.391 . S
C1273 H1261 0.950 . S
C1273 C1269 1.393 . S
C1273 C1272 1.391 . S
C1274 H1264 0.950 . S
C1274 C1275 1.386 . S
C1274 C1276 1.391 . S
C1275 C1274 1.386 . S
C1275 C1279 1.393 . S
C1276 H1265 0.950 . S
C1276 C1274 1.391 . S
C1276 C1277 1.400 . S
C1277 C1271 1.491 . S
C1277 C1276 1.400 . S
C1277 C1278 1.398 . S
C1278 H1266 0.950 . S
C1278 C1277 1.398 . S
C1278 C1279 1.391 . S
C1279 H1267 0.950 . S
C1279 C1275 1.393 . S
C1279 C1278 1.391 . S
H1280 C1288 0.950 . S
H1281 C1293 0.950 . S
H1282 C1290 0.950 . S
H1283 C1292 0.950 . S
H1284 C1294 0.950 . S
H1285 C1296 0.950 . S
H1286 C1298 0.950 . S
H1287 C1299 0.950 . S
C1288 H1280 0.950 . S
C1288 C1289 1.386 . S
C1288 C1290 1.391 . S
C1289 C1288 1.386 . S
C1289 C1293 1.393 . S
C1290 H1282 0.950 . S
C1290 C1288 1.391 . S
C1290 C1291 1.400 . S
C1291 C1290 1.400 . S
C1291 C1292 1.398 . S
C1291 C1297 1.491 . S
C1292 H1283 0.950 . S
C1292 C1291 1.398 . S
C1292 C1293 1.391 . S
C1293 H1281 0.950 . S
C1293 C1289 1.393 . S
C1293 C1292 1.391 . S
C1294 H1284 0.950 . S
C1294 C1295 1.386 . S
C1294 C1296 1.391 . S
C1295 C1294 1.386 . S
C1295 C1299 1.393 . S
C1296 H1285 0.950 . S
C1296 C1294 1.391 . S
C1296 C1297 1.400 . S
C1297 C1291 1.491 . S
C1297 C1296 1.400 . S
C1297 C1298 1.398 . S
C1298 H1286 0.950 . S
C1298 C1297 1.398 . S
C1298 C1299 1.391 . S
C1299 H1287 0.950 . S
C1299 C1295 1.393 . S
C1299 C1298 1.391 . S
H1300 C1308 0.950 . S
H1301 C1313 0.950 . S
H1302 C1310 0.950 . S
H1303 C1312 0.950 . S
H1304 C1314 0.950 . S
H1305 C1316 0.950 . S
H1306 C1318 0.950 . S
H1307 C1319 0.950 . S
C1308 H1300 0.950 . S
C1308 C1309 1.386 . S
C1308 C1310 1.391 . S
C1309 C1308 1.386 . S
C1309 C1313 1.393 . S
C1310 H1302 0.950 . S
C1310 C1308 1.391 . S
C1310 C1311 1.400 . S
C1311 C1310 1.400 . S
C1311 C1312 1.398 . S
C1311 C1317 1.491 . S
C1312 H1303 0.950 . S
C1312 C1311 1.398 . S
C1312 C1313 1.391 . S
C1313 H1301 0.950 . S
C1313 C1309 1.393 . S
C1313 C1312 1.391 . S
C1314 H1304 0.950 . S
C1314 C1315 1.386 . S
C1314 C1316 1.391 . S
C1315 C1314 1.386 . S
C1315 C1319 1.393 . S
C1316 H1305 0.950 . S
C1316 C1314 1.391 . S
C1316 C1317 1.400 . S
C1317 C1311 1.491 . S
C1317 C1316 1.400 . S
C1317 C1318 1.398 . S
C1318 H1306 0.950 . S
C1318 C1317 1.398 . S
C1318 C1319 1.391 . S
C1319 H1307 0.950 . S
C1319 C1315 1.393 . S
C1319 C1318 1.391 . S
H1320 C1328 0.950 . S
H1321 C1333 0.950 . S
H1322 C1330 0.950 . S
H1323 C1332 0.950 . S
H1324 C1334 0.950 . S
H1325 C1336 0.950 . S
H1326 C1338 0.950 . S
H1327 C1339 0.950 . S
C1328 H1320 0.950 . S
C1328 C1329 1.386 . S
C1328 C1330 1.391 . S
C1329 C1328 1.386 . S
C1329 C1333 1.393 . S
C1330 H1322 0.950 . S
C1330 C1328 1.391 . S
C1330 C1331 1.400 . S
C1331 C1330 1.400 . S
C1331 C1332 1.398 . S
C1331 C1337 1.491 . S
C1332 H1323 0.950 . S
C1332 C1331 1.398 . S
C1332 C1333 1.391 . S
C1333 H1321 0.950 . S
C1333 C1329 1.393 . S
C1333 C1332 1.391 . S
C1334 H1324 0.950 . S
C1334 C1335 1.386 . S
C1334 C1336 1.391 . S
C1335 C1334 1.386 . S
C1335 C1339 1.393 . S
C1336 H1325 0.950 . S
C1336 C1334 1.391 . S
C1336 C1337 1.400 . S
C1337 C1331 1.491 . S
C1337 C1336 1.400 . S
C1337 C1338 1.398 . S
C1338 H1326 0.950 . S
C1338 C1337 1.398 . S
C1338 C1339 1.391 . S
C1339 H1327 0.950 . S
C1339 C1335 1.393 . S
C1339 C1338 1.391 . S
H1340 C1348 0.950 . S
H1341 C1353 0.950 1_545 S
H1342 C1350 0.950 . S
H1343 C1352 0.950 . S
H1344 C1354 0.950 . S
H1345 C1356 0.950 . S
H1346 C1358 0.950 . S
H1347 C1359 0.950 . S
C1348 H1340 0.950 . S
C1348 C1349 1.386 . S
C1348 C1350 1.391 . S
C1349 C1348 1.386 . S
C1349 C1353 1.393 . S
C1350 H1342 0.950 . S
C1350 C1348 1.391 . S
C1350 C1351 1.400 . S
C1351 C1350 1.400 . S
C1351 C1352 1.398 . S
C1351 C1357 1.491 . S
C1352 H1343 0.950 . S
C1352 C1351 1.398 . S
C1352 C1353 1.391 . S
C1353 H1341 0.950 1_565 S
C1353 C1349 1.393 . S
C1353 C1352 1.391 . S
C1354 H1344 0.950 . S
C1354 C1355 1.386 . S
C1354 C1356 1.391 . S
C1355 C1354 1.386 . S
C1355 C1359 1.393 . S
C1356 H1345 0.950 . S
C1356 C1354 1.391 . S
C1356 C1357 1.400 . S
C1357 C1351 1.491 . S
C1357 C1356 1.400 . S
C1357 C1358 1.398 . S
C1358 H1346 0.950 . S
C1358 C1357 1.398 . S
C1358 C1359 1.391 . S
C1359 H1347 0.950 . S
C1359 C1355 1.393 . S
C1359 C1358 1.391 . S
H1360 C1368 0.950 . S
H1361 C1373 0.950 . S
H1362 C1370 0.950 . S
H1363 C1372 0.950 . S
H1364 C1374 0.950 . S
H1365 C1376 0.950 . S
H1366 C1378 0.950 . S
H1367 C1379 0.950 . S
C1368 H1360 0.950 . S
C1368 C1369 1.386 . S
C1368 C1370 1.391 . S
C1369 C1368 1.386 . S
C1369 C1373 1.393 . S
C1370 H1362 0.950 . S
C1370 C1368 1.391 . S
C1370 C1371 1.400 . S
C1371 C1370 1.400 . S
C1371 C1372 1.398 . S
C1371 C1377 1.491 . S
C1372 H1363 0.950 . S
C1372 C1371 1.398 . S
C1372 C1373 1.391 . S
C1373 H1361 0.950 . S
C1373 C1369 1.393 . S
C1373 C1372 1.391 . S
C1374 H1364 0.950 . S
C1374 C1375 1.386 . S
C1374 C1376 1.391 . S
C1375 C1374 1.386 . S
C1375 C1379 1.393 . S
C1376 H1365 0.950 . S
C1376 C1374 1.391 . S
C1376 C1377 1.400 . S
C1377 C1371 1.491 . S
C1377 C1376 1.400 . S
C1377 C1378 1.398 . S
C1378 H1366 0.950 . S
C1378 C1377 1.398 . S
C1378 C1379 1.391 . S
C1379 H1367 0.950 . S
C1379 C1375 1.393 . S
C1379 C1378 1.391 . S
H1380 C1388 0.950 . S
H1381 C1393 0.950 . S
H1382 C1390 0.950 . S
H1383 C1392 0.950 . S
H1384 C1394 0.950 . S
H1385 C1396 0.950 . S
H1386 C1398 0.950 . S
H1387 C1399 0.950 . S
C1388 H1380 0.950 . S
C1388 C1389 1.386 . S
C1388 C1390 1.391 . S
C1389 C1388 1.386 . S
C1389 C1393 1.393 . S
C1390 H1382 0.950 . S
C1390 C1388 1.391 . S
C1390 C1391 1.400 . S
C1391 C1390 1.400 . S
C1391 C1392 1.398 . S
C1391 C1397 1.491 . S
C1392 H1383 0.950 . S
C1392 C1391 1.398 . S
C1392 C1393 1.391 . S
C1393 H1381 0.950 . S
C1393 C1389 1.393 . S
C1393 C1392 1.391 . S
C1394 H1384 0.950 . S
C1394 C1395 1.386 . S
C1394 C1396 1.391 . S
C1395 C1394 1.386 . S
C1395 C1399 1.393 . S
C1396 H1385 0.950 . S
C1396 C1394 1.391 . S
C1396 C1397 1.400 . S
C1397 C1391 1.491 . S
C1397 C1396 1.400 . S
C1397 C1398 1.398 . S
C1398 H1386 0.950 . S
C1398 C1397 1.398 . S
C1398 C1399 1.391 . S
C1399 H1387 0.950 . S
C1399 C1395 1.393 . S
C1399 C1398 1.391 . S
H1400 C1408 0.950 . S
H1401 C1413 0.950 . S
H1402 C1410 0.950 . S
H1403 C1412 0.950 . S
H1404 C1414 0.950 . S
H1405 C1416 0.950 . S
H1406 C1418 0.950 . S
H1407 C1419 0.950 . S
C1408 H1400 0.950 . S
C1408 C1409 1.386 . S
C1408 C1410 1.391 . S
C1409 C1408 1.386 . S
C1409 C1413 1.393 . S
C1410 H1402 0.950 . S
C1410 C1408 1.391 . S
C1410 C1411 1.400 . S
C1411 C1410 1.400 . S
C1411 C1412 1.398 . S
C1411 C1417 1.491 . S
C1412 H1403 0.950 . S
C1412 C1411 1.398 . S
C1412 C1413 1.391 . S
C1413 H1401 0.950 . S
C1413 C1409 1.393 . S
C1413 C1412 1.391 . S
C1414 H1404 0.950 . S
C1414 C1415 1.386 . S
C1414 C1416 1.391 . S
C1415 C1414 1.386 . S
C1415 C1419 1.393 . S
C1416 H1405 0.950 . S
C1416 C1414 1.391 . S
C1416 C1417 1.400 . S
C1417 C1411 1.491 . S
C1417 C1416 1.400 . S
C1417 C1418 1.398 . S
C1418 H1406 0.950 . S
C1418 C1417 1.398 . S
C1418 C1419 1.391 . S
C1419 H1407 0.950 . S
C1419 C1415 1.393 . S
C1419 C1418 1.391 . S
H1420 C1428 0.950 . S
H1421 C1433 0.950 . S
H1422 C1430 0.950 . S
H1423 C1432 0.950 . S
H1424 C1434 0.950 . S
H1425 C1436 0.950 . S
H1426 C1438 0.950 . S
H1427 C1439 0.950 . S
C1428 H1420 0.950 . S
C1428 C1429 1.386 . S
C1428 C1430 1.391 . S
C1429 C1428 1.386 . S
C1429 C1433 1.393 . S
C1430 H1422 0.950 . S
C1430 C1428 1.391 . S
C1430 C1431 1.400 . S
C1431 C1430 1.400 . S
C1431 C1432 1.398 . S
C1431 C1437 1.491 . S
C1432 H1423 0.950 . S
C1432 C1431 1.398 . S
C1432 C1433 1.391 . S
C1433 H1421 0.950 . S
C1433 C1429 1.393 . S
C1433 C1432 1.391 . S
C1434 H1424 0.950 . S
C1434 C1435 1.386 . S
C1434 C1436 1.391 . S
C1435 C1434 1.386 . S
C1435 C1439 1.393 . S
C1436 H1425 0.950 . S
C1436 C1434 1.391 . S
C1436 C1437 1.400 . S
C1437 C1431 1.491 . S
C1437 C1436 1.400 . S
C1437 C1438 1.398 . S
C1438 H1426 0.950 . S
C1438 C1437 1.398 . S
C1438 C1439 1.391 . S
C1439 H1427 0.950 . S
C1439 C1435 1.393 . S
C1439 C1438 1.391 . S
H1440 C1448 0.950 . S
H1441 C1453 0.950 . S
H1442 C1450 0.950 . S
H1443 C1452 0.950 . S
H1444 C1454 0.950 . S
H1445 C1456 0.950 . S
H1446 C1458 0.950 . S
H1447 C1459 0.950 . S
C1448 H1440 0.950 . S
C1448 C1449 1.386 . S
C1448 C1450 1.391 . S
C1449 C1448 1.386 . S
C1449 C1453 1.393 . S
C1450 H1442 0.950 . S
C1450 C1448 1.391 . S
C1450 C1451 1.400 . S
C1451 C1450 1.400 . S
C1451 C1452 1.398 . S
C1451 C1457 1.491 . S
C1452 H1443 0.950 . S
C1452 C1451 1.398 . S
C1452 C1453 1.391 . S
C1453 H1441 0.950 . S
C1453 C1449 1.393 . S
C1453 C1452 1.391 . S
C1454 H1444 0.950 . S
C1454 C1455 1.386 . S
C1454 C1456 1.391 . S
C1455 C1454 1.386 . S
C1455 C1459 1.393 . S
C1456 H1445 0.950 . S
C1456 C1454 1.391 . S
C1456 C1457 1.400 . S
C1457 C1451 1.491 . S
C1457 C1456 1.400 . S
C1457 C1458 1.398 . S
C1458 H1446 0.950 . S
C1458 C1457 1.398 . S
C1458 C1459 1.391 . S
C1459 H1447 0.950 . S
C1459 C1455 1.393 . S
C1459 C1458 1.391 . S
H1460 C1468 0.950 . S
H1461 C1473 0.950 . S
H1462 C1470 0.950 . S
H1463 C1472 0.950 . S
H1464 C1474 0.950 . S
H1465 C1476 0.950 . S
H1466 C1478 0.950 . S
H1467 C1479 0.950 . S
C1468 H1460 0.950 . S
C1468 C1469 1.386 . S
C1468 C1470 1.391 . S
C1469 C1468 1.386 . S
C1469 C1473 1.393 . S
C1470 H1462 0.950 . S
C1470 C1468 1.391 . S
C1470 C1471 1.400 . S
C1471 C1470 1.400 . S
C1471 C1472 1.398 . S
C1471 C1477 1.491 . S
C1472 H1463 0.950 . S
C1472 C1471 1.398 . S
C1472 C1473 1.391 . S
C1473 H1461 0.950 . S
C1473 C1469 1.393 . S
C1473 C1472 1.391 . S
C1474 H1464 0.950 . S
C1474 C1475 1.386 . S
C1474 C1476 1.391 . S
C1475 C1474 1.386 . S
C1475 C1479 1.393 . S
C1476 H1465 0.950 . S
C1476 C1474 1.391 . S
C1476 C1477 1.400 . S
C1477 C1471 1.491 . S
C1477 C1476 1.400 . S
C1477 C1478 1.398 . S
C1478 H1466 0.950 . S
C1478 C1477 1.398 . S
C1478 C1479 1.391 . S
C1479 H1467 0.950 . S
C1479 C1475 1.393 . S
C1479 C1478 1.391 . S
H1480 C1488 0.950 . S
H1481 C1493 0.950 . S
H1482 C1490 0.950 . S
H1483 C1492 0.950 . S
H1484 C1494 0.950 . S
H1485 C1496 0.950 . S
H1486 C1498 0.950 . S
H1487 C1499 0.950 . S
C1488 H1480 0.950 . S
C1488 C1489 1.386 . S
C1488 C1490 1.391 . S
C1489 C1488 1.386 . S
C1489 C1493 1.393 . S
C1490 H1482 0.950 . S
C1490 C1488 1.391 . S
C1490 C1491 1.400 . S
C1491 C1490 1.400 . S
C1491 C1492 1.398 . S
C1491 C1497 1.491 . S
C1492 H1483 0.950 . S
C1492 C1491 1.398 . S
C1492 C1493 1.391 . S
C1493 H1481 0.950 . S
C1493 C1489 1.393 . S
C1493 C1492 1.391 . S
C1494 H1484 0.950 . S
C1494 C1495 1.386 . S
C1494 C1496 1.391 . S
C1495 C1494 1.386 . S
C1495 C1499 1.393 . S
C1496 H1485 0.950 . S
C1496 C1494 1.391 . S
C1496 C1497 1.400 . S
C1497 C1491 1.491 . S
C1497 C1496 1.400 . S
C1497 C1498 1.398 . S
C1498 H1486 0.950 . S
C1498 C1497 1.398 . S
C1498 C1499 1.391 . S
C1499 H1487 0.950 . S
C1499 C1495 1.393 . S
C1499 C1498 1.391 . S
H1500 C1508 0.950 . S
H1501 C1513 0.950 . S
H1502 C1510 0.950 . S
H1503 C1512 0.950 . S
H1504 C1514 0.950 . S
H1505 C1516 0.950 . S
H1506 C1518 0.950 . S
H1507 C1519 0.950 . S
C1508 H1500 0.950 . S
C1508 C1509 1.386 . S
C1508 C1510 1.391 . S
C1509 C1508 1.386 . S
C1509 C1513 1.393 . S
C1510 H1502 0.950 . S
C1510 C1508 1.391 . S
C1510 C1511 1.400 . S
C1511 C1510 1.400 . S
C1511 C1512 1.398 . S
C1511 C1517 1.491 . S
C1512 H1503 0.950 . S
C1512 C1511 1.398 . S
C1512 C1513 1.391 . S
C1513 H1501 0.950 . S
C1513 C1509 1.393 . S
C1513 C1512 1.391 . S
C1514 H1504 0.950 . S
C1514 C1515 1.386 . S
C1514 C1516 1.391 . S
C1515 C1514 1.386 . S
C1515 C1519 1.393 . S
C1516 H1505 0.950 . S
C1516 C1514 1.391 . S
C1516 C1517 1.400 . S
C1517 C1511 1.491 . S
C1517 C1516 1.400 . S
C1517 C1518 1.398 . S
C1518 H1506 0.950 . S
C1518 C1517 1.398 . S
C1518 C1519 1.391 . S
C1519 H1507 0.950 . S
C1519 C1515 1.393 . S
C1519 C1518 1.391 . S
H1520 C1528 0.950 . S
H1521 C1533 0.950 . S
H1522 C1530 0.950 . S
H1523 C1532 0.950 . S
H1524 C1534 0.950 . S
H1525 C1536 0.950 . S
H1526 C1538 0.950 . S
H1527 C1539 0.950 . S
C1528 H1520 0.950 . S
C1528 C1529 1.386 . S
C1528 C1530 1.391 . S
C1529 C1528 1.386 . S
C1529 C1533 1.393 . S
C1530 H1522 0.950 . S
C1530 C1528 1.391 . S
C1530 C1531 1.400 . S
C1531 C1530 1.400 . S
C1531 C1532 1.398 . S
C1531 C1537 1.491 . S
C1532 H1523 0.950 . S
C1532 C1531 1.398 . S
C1532 C1533 1.391 . S
C1533 H1521 0.950 . S
C1533 C1529 1.393 . S
C1533 C1532 1.391 . S
C1534 H1524 0.950 . S
C1534 C1535 1.386 . S
C1534 C1536 1.391 . S
C1535 C1534 1.386 . S
C1535 C1539 1.393 . S
C1536 H1525 0.950 . S
C1536 C1534 1.391 . S
C1536 C1537 1.400 . S
C1537 C1531 1.491 . S
C1537 C1536 1.400 . S
C1537 C1538 1.398 . S
C1538 H1526 0.950 . S
C1538 C1537 1.398 . S
C1538 C1539 1.391 . S
C1539 H1527 0.950 . S
C1539 C1535 1.393 . S
C1539 C1538 1.391 . S
H1540 C1548 0.950 . S
H1541 C1553 0.950 . S
H1542 C1550 0.950 . S
H1543 C1552 0.950 . S
H1544 C1554 0.950 . S
H1545 C1556 0.950 . S
H1546 C1558 0.950 . S
H1547 C1559 0.950 . S
C1548 H1540 0.950 . S
C1548 C1549 1.386 . S
C1548 C1550 1.391 . S
C1549 C1548 1.386 . S
C1549 C1553 1.393 . S
C1550 H1542 0.950 . S
C1550 C1548 1.391 . S
C1550 C1551 1.400 . S
C1551 C1550 1.400 . S
C1551 C1552 1.398 . S
C1551 C1557 1.491 . S
C1552 H1543 0.950 . S
C1552 C1551 1.398 . S
C1552 C1553 1.391 . S
C1553 H1541 0.950 . S
C1553 C1549 1.393 . S
C1553 C1552 1.391 . S
C1554 H1544 0.950 . S
C1554 C1555 1.386 . S
C1554 C1556 1.391 . S
C1555 C1554 1.386 . S
C1555 C1559 1.393 . S
C1556 H1545 0.950 . S
C1556 C1554 1.391 . S
C1556 C1557 1.400 . S
C1557 C1551 1.491 . S
C1557 C1556 1.400 . S
C1557 C1558 1.398 . S
C1558 H1546 0.950 . S
C1558 C1557 1.398 . S
C1558 C1559 1.391 . S
C1559 H1547 0.950 . S
C1559 C1555 1.393 . S
C1559 C1558 1.391 . S
H1560 C1568 0.950 . S
H1561 C1573 0.950 . S
H1562 C1570 0.950 . S
H1563 C1572 0.950 . S
H1564 C1574 0.950 . S
H1565 C1576 0.950 . S
H1566 C1578 0.950 . S
H1567 C1579 0.950 . S
C1568 H1560 0.950 . S
C1568 C1569 1.386 . S
C1568 C1570 1.391 . S
C1569 C1568 1.386 . S
C1569 C1573 1.393 . S
C1570 H1562 0.950 . S
C1570 C1568 1.391 . S
C1570 C1571 1.400 . S
C1571 C1570 1.400 . S
C1571 C1572 1.398 . S
C1571 C1577 1.491 . S
C1572 H1563 0.950 . S
C1572 C1571 1.398 . S
C1572 C1573 1.391 . S
C1573 H1561 0.950 . S
C1573 C1569 1.393 . S
C1573 C1572 1.391 . S
C1574 H1564 0.950 . S
C1574 C1575 1.386 . S
C1574 C1576 1.391 . S
C1575 C1574 1.386 . S
C1575 C1579 1.393 . S
C1576 H1565 0.950 . S
C1576 C1574 1.391 . S
C1576 C1577 1.400 . S
C1577 C1571 1.491 . S
C1577 C1576 1.400 . S
C1577 C1578 1.398 . S
C1578 H1566 0.950 . S
C1578 C1577 1.398 . S
C1578 C1579 1.391 . S
C1579 H1567 0.950 . S
C1579 C1575 1.393 . S
C1579 C1578 1.391 . S
H1580 C1588 0.950 . S
H1581 C1593 0.950 . S
H1582 C1590 0.950 . S
H1583 C1592 0.950 . S
H1584 C1594 0.950 . S
H1585 C1596 0.950 . S
H1586 C1598 0.950 . S
H1587 C1599 0.950 . S
C1588 H1580 0.950 . S
C1588 C1589 1.386 . S
C1588 C1590 1.391 . S
C1589 C1588 1.386 . S
C1589 C1593 1.393 . S
C1590 H1582 0.950 . S
C1590 C1588 1.391 . S
C1590 C1591 1.400 . S
C1591 C1590 1.400 . S
C1591 C1592 1.398 . S
C1591 C1597 1.491 . S
C1592 H1583 0.950 . S
C1592 C1591 1.398 . S
C1592 C1593 1.391 . S
C1593 H1581 0.950 . S
C1593 C1589 1.393 . S
C1593 C1592 1.391 . S
C1594 H1584 0.950 . S
C1594 C1595 1.386 . S
C1594 C1596 1.391 . S
C1595 C1594 1.386 . S
C1595 C1599 1.393 . S
C1596 H1585 0.950 . S
C1596 C1594 1.391 . S
C1596 C1597 1.400 . S
C1597 C1591 1.491 . S
C1597 C1596 1.400 . S
C1597 C1598 1.398 . S
C1598 H1586 0.950 . S
C1598 C1597 1.398 . S
C1598 C1599 1.391 . S
C1599 H1587 0.950 . S
C1599 C1595 1.393 . S
C1599 C1598 1.391 . S
C649 C139 3.515 . S
C655 C18 3.542 . S
C669 C10 2.356 . S
C675 C59 2.355 . S
C689 C89 0.988 . S
C695 C49 0.946 . S
C709 C126 1.368 . S
C715 C86 1.382 . S
C729 C170 2.321 . S
C735 C210 2.358 . S
C749 C218 1.025 . S
C755 C258 1.028 . S
C769 C255 1.273 . S
C775 C286 1.266 . S
C789 C175 0.891 . S
C795 C289 0.907 . S
C809 C375 1.194 . S
C815 C15 1.162 . S
C829 C410 0.827 . S
C835 C46 0.847 . S
C849 C99 2.327 . S
C855 C539 2.295 . S
C869 C338 0.966 . S
C875 C129 1.013 . S
C889 C449 0.996 . S
C895 C178 0.999 . S
C909 C575 1.185 . S
C915 C215 1.196 . S
C929 C250 0.838 . S
C935 C486 0.857 . S
C949 C619 2.331 . S
C955 C299 2.288 . S
C969 C335 0.904 . S
C975 C529 0.912 . S
C989 C370 2.356 . S
C995 C330 2.319 . S
C1009 C418 1.021 . S
C1015 C378 1.010 . S
C1029 C578 3.542 . S
C1035 C459 3.515 . S
C1049 C489 0.943 . S
C1055 C609 0.985 . S
C1069 C450 3.523 . S
C1075 C9 3.548 . S
C1089 C490 2.361 . S
C1095 C19 2.349 . S
C1109 C498 0.983 . S
C1115 C98 0.968 . S
C1129 C95 1.383 . S
C1135 C455 1.368 . S
C1149 C379 2.355 . S
C1155 C179 2.326 . S
C1169 C369 1.027 . S
C1175 C249 1.024 . S
C1189 C535 1.267 . S
C1195 C246 1.277 . S
C1209 C166 0.887 . S
C1215 C538 0.907 . S
C1229 C206 1.188 . S
C1235 C6 1.173 . S
C1249 C419 0.817 . S
C1255 C495 0.833 . S
C1269 C90 2.332 . S
C1275 C290 2.287 . S
C1289 C329 0.968 . S
C1295 C458 1.013 . S
C1309 C138 0.997 . S
C1315 C169 1.002 . S
C1329 C366 1.194 . S
C1335 C566 1.162 . S
C1349 C259 0.866 . S
C1355 C55 0.852 . S
C1369 C610 2.326 . S
C1375 C530 2.294 . S
C1389 C326 0.890 . S
C1395 C298 0.921 . S
C1409 C339 2.320 . S
C1415 C219 2.353 . S
C1429 C409 1.035 . S
C1435 C209 1.007 . S
C1449 C130 3.517 . S
C1455 C569 3.544 . S
C1469 C58 0.982 . S
C1475 C618 0.974 . S
C1489 C499 2.356 . S
C1495 C570 2.356 . S
C1509 C446 1.368 . S
C1515 C606 1.383 . S
C1529 C415 1.268 . S
C1535 C526 1.257 . S
C1549 C579 2.352 . S
C1555 C50 2.358 . S
C1569 C135 1.370 . S
C1575 C615 1.385 . S
C1589 C295 1.264 . S
C1595 C406 1.271 . S
