# Generated by pormake.
# Topology snl, (6)-cn, num edge types: 1
# Building blocks:
#     Node 0, Type 0, BuildingBlock: PAMTOO_clean_sbu_0, # of connection points: 6
#     Node 1, Type 0, BuildingBlock: PAMTOO_clean_sbu_0, # of connection points: 6
#     Node 2, Type 0, BuildingBlock: PAMTOO_clean_sbu_0, # of connection points: 6
#     Node 3, Type 0, BuildingBlock: PAMTOO_clean_sbu_0, # of connection points: 6
#     Node 4, Type 0, BuildingBlock: PAMTOO_clean_sbu_0, # of connection points: 6
#     Node 5, Type 0, BuildingBlock: PAMTOO_clean_sbu_0, # of connection points: 6
#     Node 6, Type 0, BuildingBlock: PAMTOO_clean_sbu_0, # of connection points: 6
#     Node 7, Type 0, BuildingBlock: PAMTOO_clean_sbu_0, # of connection points: 6
#     Node 8, Type 0, BuildingBlock: PAMTOO_clean_sbu_0, # of connection points: 6
#     Node 9, Type 0, BuildingBlock: PAMTOO_clean_sbu_0, # of connection points: 6
#     Node 10, Type 0, BuildingBlock: PAMTOO_clean_sbu_0, # of connection points: 6
#     Node 11, Type 0, BuildingBlock: PAMTOO_clean_sbu_0, # of connection points: 6
#     Node 12, Type 0, BuildingBlock: PAMTOO_clean_sbu_0, # of connection points: 6
#     Node 13, Type 0, BuildingBlock: PAMTOO_clean_sbu_0, # of connection points: 6
#     Node 14, Type 0, BuildingBlock: PAMTOO_clean_sbu_0, # of connection points: 6
#     Node 15, Type 0, BuildingBlock: PAMTOO_clean_sbu_0, # of connection points: 6
#     Edge 16, Type (0, 0), BuildingBlock: TEMPAE_clean_linker_10, # of connection points: 2
#     Edge 17, Type (0, 0), BuildingBlock: TEMPAE_clean_linker_10, # of connection points: 2
#     Edge 18, Type (0, 0), BuildingBlock: TEMPAE_clean_linker_10, # of connection points: 2
#     Edge 19, Type (0, 0), BuildingBlock: TEMPAE_clean_linker_10, # of connection points: 2
#     Edge 20, Type (0, 0), BuildingBlock: TEMPAE_clean_linker_10, # of connection points: 2
#     Edge 21, Type (0, 0), BuildingBlock: TEMPAE_clean_linker_10, # of connection points: 2
#     Edge 22, Type (0, 0), BuildingBlock: TEMPAE_clean_linker_10, # of connection points: 2
#     Edge 23, Type (0, 0), BuildingBlock: TEMPAE_clean_linker_10, # of connection points: 2
#     Edge 24, Type (0, 0), BuildingBlock: TEMPAE_clean_linker_10, # of connection points: 2
#     Edge 25, Type (0, 0), BuildingBlock: TEMPAE_clean_linker_10, # of connection points: 2
#     Edge 26, Type (0, 0), BuildingBlock: TEMPAE_clean_linker_10, # of connection points: 2
#     Edge 27, Type (0, 0), BuildingBlock: TEMPAE_clean_linker_10, # of connection points: 2
#     Edge 28, Type (0, 0), BuildingBlock: TEMPAE_clean_linker_10, # of connection points: 2
#     Edge 29, Type (0, 0), BuildingBlock: TEMPAE_clean_linker_10, # of connection points: 2
#     Edge 30, Type (0, 0), BuildingBlock: TEMPAE_clean_linker_10, # of connection points: 2
#     Edge 31, Type (0, 0), BuildingBlock: TEMPAE_clean_linker_10, # of connection points: 2
#     Edge 32, Type (0, 0), BuildingBlock: TEMPAE_clean_linker_10, # of connection points: 2
#     Edge 33, Type (0, 0), BuildingBlock: TEMPAE_clean_linker_10, # of connection points: 2
#     Edge 34, Type (0, 0), BuildingBlock: TEMPAE_clean_linker_10, # of connection points: 2
#     Edge 35, Type (0, 0), BuildingBlock: TEMPAE_clean_linker_10, # of connection points: 2
#     Edge 36, Type (0, 0), BuildingBlock: TEMPAE_clean_linker_10, # of connection points: 2
#     Edge 37, Type (0, 0), BuildingBlock: TEMPAE_clean_linker_10, # of connection points: 2
#     Edge 38, Type (0, 0), BuildingBlock: TEMPAE_clean_linker_10, # of connection points: 2
#     Edge 39, Type (0, 0), BuildingBlock: TEMPAE_clean_linker_10, # of connection points: 2
#     Edge 40, Type (0, 0), BuildingBlock: TEMPAE_clean_linker_10, # of connection points: 2
#     Edge 41, Type (0, 0), BuildingBlock: TEMPAE_clean_linker_10, # of connection points: 2
#     Edge 42, Type (0, 0), BuildingBlock: TEMPAE_clean_linker_10, # of connection points: 2
#     Edge 43, Type (0, 0), BuildingBlock: TEMPAE_clean_linker_10, # of connection points: 2
#     Edge 44, Type (0, 0), BuildingBlock: TEMPAE_clean_linker_10, # of connection points: 2
#     Edge 45, Type (0, 0), BuildingBlock: TEMPAE_clean_linker_10, # of connection points: 2
#     Edge 46, Type (0, 0), BuildingBlock: TEMPAE_clean_linker_10, # of connection points: 2
#     Edge 47, Type (0, 0), BuildingBlock: TEMPAE_clean_linker_10, # of connection points: 2
#     Edge 48, Type (0, 0), BuildingBlock: TEMPAE_clean_linker_10, # of connection points: 2
#     Edge 49, Type (0, 0), BuildingBlock: TEMPAE_clean_linker_10, # of connection points: 2
#     Edge 50, Type (0, 0), BuildingBlock: TEMPAE_clean_linker_10, # of connection points: 2
#     Edge 51, Type (0, 0), BuildingBlock: TEMPAE_clean_linker_10, # of connection points: 2
#     Edge 52, Type (0, 0), BuildingBlock: TEMPAE_clean_linker_10, # of connection points: 2
#     Edge 53, Type (0, 0), BuildingBlock: TEMPAE_clean_linker_10, # of connection points: 2
#     Edge 54, Type (0, 0), BuildingBlock: TEMPAE_clean_linker_10, # of connection points: 2
#     Edge 55, Type (0, 0), BuildingBlock: TEMPAE_clean_linker_10, # of connection points: 2
#     Edge 56, Type (0, 0), BuildingBlock: TEMPAE_clean_linker_10, # of connection points: 2
#     Edge 57, Type (0, 0), BuildingBlock: TEMPAE_clean_linker_10, # of connection points: 2
#     Edge 58, Type (0, 0), BuildingBlock: TEMPAE_clean_linker_10, # of connection points: 2
#     Edge 59, Type (0, 0), BuildingBlock: TEMPAE_clean_linker_10, # of connection points: 2
#     Edge 60, Type (0, 0), BuildingBlock: TEMPAE_clean_linker_10, # of connection points: 2
#     Edge 61, Type (0, 0), BuildingBlock: TEMPAE_clean_linker_10, # of connection points: 2
#     Edge 62, Type (0, 0), BuildingBlock: TEMPAE_clean_linker_10, # of connection points: 2
#     Edge 63, Type (0, 0), BuildingBlock: TEMPAE_clean_linker_10, # of connection points: 2
# Relax obj value: 0.150
# Max RMSD: 0.233
# Mean RMSD: 0.208
data_MOF--net-snl--node1-PAMTOO_clean_sbu_0--edge1-TEMPAE_clean_linker_10
_symmetry_space_group_name_H-M    P1
_symmetry_Int_Tables_number       1
_symmetry_cell_setting            triclinic
loop_
_symmetry_equiv_pos_as_xyz
'x, y, z'
_cell_length_a     57.796
_cell_length_b     58.578817
_cell_length_c     26.017047
_cell_angle_alpha  88.245763
_cell_angle_beta   91.864412
_cell_angle_gamma 90.170217
loop_
_atom_site_label
_atom_site_type_symbol
_atom_site_fract_x
_atom_site_fract_y
_atom_site_fract_z
_atom_type_partial_charge
Dy0 Dy 0.14219 0.63191 0.07516 0.0
Dy1 Dy 0.1238 0.61177 0.18892 0.0
C2 C 0.0886 0.62107 0.09485 0.0
O3 O 0.14588 0.66073 0.12837 0.0
O4 O 0.11839 0.64991 0.18623 0.0
O5 O 0.14022 0.65635 1.01104 0.0
O6 O 0.16522 0.62886 1.01184 0.0
O7 O 0.15944 0.62416 0.2041 0.0
O8 O 0.17402 0.62204 0.12329 0.0
O9 O 0.13478 0.58117 0.14488 0.0
O10 O 0.13123 0.59623 0.06239 0.0
O11 O 0.12879 0.58969 0.25626 0.0
O12 O 0.09847 0.61137 0.24869 0.0
C13 C 0.13176 0.6656 0.16499 0.0
O14 O 0.10337 0.63565 0.0745 0.0
O15 O 0.09481 0.60675 0.13245 0.0
C16 C 0.15089 0.64224 0.93023 0.0
C17 C 0.1428 0.63488 0.82392 0.0
C18 C 0.12557 0.62979 0.8597 0.0
C19 C 0.12961 0.63336 0.91239 0.0
C20 C 0.16803 0.6474 0.89473 0.0
C21 C 0.16406 0.64377 0.84225 0.0
C22 C 0.15592 0.64595 0.98545 0.0
C23 C 0.17696 0.62308 0.17366 0.0
C24 C 0.13328 0.57868 0.09462 0.0
C25 C 0.11336 0.60285 0.33338 0.0
C26 C 0.11901 0.61109 0.43995 0.0
C27 C 0.13578 0.61859 0.40501 0.0
C28 C 0.13299 0.61451 0.35227 0.0
C29 C 0.09645 0.59571 0.36786 0.0
C30 C 0.09921 0.59978 0.42047 0.0
C31 C 0.1105 0.59719 0.2785 0.0
H32 H 0.10909 0.62271 0.84706 0.0
H33 H 0.11619 0.62909 0.93919 0.0
H34 H 0.18458 0.65426 0.90766 0.0
H35 H 0.17761 0.64818 0.8159 0.0
H36 H 0.15135 0.62716 0.41854 0.0
H37 H 0.14629 0.62017 0.32637 0.0
H38 H 0.08115 0.58675 0.35412 0.0
H39 H 0.08575 0.5941 0.44591 0.0
Dy40 Dy 0.62119 0.88831 0.34083 0.0
Dy41 Dy 0.64097 0.87009 0.45791 0.0
C42 C 0.63142 0.83483 0.36722 0.0
O43 O 0.58983 0.87841 0.38316 0.0
O44 O 0.60337 0.87824 0.4677 0.0
O45 O 0.59943 0.88449 0.27259 0.0
O46 O 0.62239 0.91363 0.27835 0.0
O47 O 0.64471 0.90786 0.45354 0.0
O48 O 0.61577 0.91719 0.39443 0.0
O49 O 0.67 0.86538 0.40339 0.0
O50 O 0.65923 0.8937 0.34505 0.0
O51 O 0.66623 0.87278 0.5207 0.0
O52 O 0.63859 0.84786 0.52548 0.0
C53 C 0.58632 0.87832 0.43278 0.0
O54 O 0.63072 0.85141 0.3318 0.0
O55 O 0.63153 0.83863 0.41668 0.0
C56 C 0.61404 0.89996 0.19479 0.0
C57 C 0.62309 0.89499 0.08931 0.0
C58 C 0.63008 0.87808 0.12627 0.0
C59 C 0.62561 0.88054 0.17851 0.0
C60 C 0.60748 0.91703 0.15833 0.0
C61 C 0.61196 0.91462 0.10623 0.0
C62 C 0.60787 0.90247 0.249 0.0
C63 C 0.62965 0.92255 0.43342 0.0
C64 C 0.67466 0.87919 0.36416 0.0
C65 C 0.65286 0.86263 0.60393 0.0
C66 C 0.6464 0.87113 0.7091 0.0
C67 C 0.64179 0.88825 0.6709 0.0
C68 C 0.64492 0.88402 0.61874 0.0
C69 C 0.65761 0.84563 0.64185 0.0
C70 C 0.65443 0.8498 0.69379 0.0
C71 C 0.65608 0.85737 0.54946 0.0
H72 H 0.63851 0.86265 0.11471 0.0
H73 H 0.63086 0.86714 0.20603 0.0
H74 H 0.59862 0.93219 0.17011 0.0
H75 H 0.6067 0.92818 0.07918 0.0
H76 H 0.63538 0.9048 0.68123 0.0
H77 H 0.64102 0.89737 0.59003 0.0
H78 H 0.66379 0.82903 0.63124 0.0
H79 H 0.65849 0.83633 0.72207 0.0
Dy80 Dy 0.36456 0.36848 0.57477 0.0
Dy81 Dy 0.3876 0.38154 0.68971 0.0
C82 C 0.41912 0.36987 0.59638 0.0
O83 O 0.37198 0.33538 0.61615 0.0
O84 O 0.37406 0.34588 0.70098 0.0
O85 O 0.3648 0.34761 0.50795 0.0
O86 O 0.33971 0.37484 0.51155 0.0
O87 O 0.34991 0.38863 0.69174 0.0
O88 O 0.33563 0.36454 0.63027 0.0
O89 O 0.39431 0.41119 0.63487 0.0
O90 O 0.36255 0.40608 0.58184 0.0
O91 O 0.39153 0.40607 0.74982 0.0
O92 O 0.40976 0.37389 0.75668 0.0
C93 C 0.37196 0.33031 0.6657 0.0
O94 O 0.40227 0.37617 0.56388 0.0
O95 O 0.4155 0.36606 0.64537 0.0
C96 C 0.35235 0.36526 0.42876 0.0
C97 C 0.35982 0.37316 0.32257 0.0
C98 C 0.37785 0.37631 0.35948 0.0
C99 C 0.37414 0.37244 0.41206 0.0
C100 C 0.33424 0.36257 0.39227 0.0
C101 C 0.33789 0.3665 0.33978 0.0
C102 C 0.34844 0.35918 0.48337 0.0
C103 C 0.33288 0.37669 0.67145 0.0
C104 C 0.37936 0.41904 0.5994 0.0
C105 C 0.39884 0.39063 0.83393 0.0
C106 C 0.38857 0.3875 0.93961 0.0
C107 C 0.37203 0.38109 0.90166 0.0
C108 C 0.37711 0.38267 0.84927 0.0
C109 C 0.41538 0.39689 0.87151 0.0
C110 C 0.41033 0.39535 0.92374 0.0
C111 C 0.40465 0.39271 0.77917 0.0
H112 H 0.39486 0.38172 0.34771 0.0
H113 H 0.38838 0.37471 0.43957 0.0
H114 H 0.31732 0.35693 0.40429 0.0
H115 H 0.32368 0.36366 0.31256 0.0
H116 H 0.35503 0.37517 0.9124 0.0
H117 H 0.36408 0.37779 0.82076 0.0
H118 H 0.43227 0.40299 0.86044 0.0
H119 H 0.42362 0.40007 0.95177 0.0
Dy120 Dy 0.88558 0.11684 0.84271 0.0
Dy121 Dy 0.86681 0.13437 0.95559 0.0
C122 C 0.87709 0.17018 0.86317 0.0
O123 O 0.91723 0.12568 0.88824 0.0
O124 O 0.90417 0.1251 0.97129 0.0
O125 O 0.90714 0.12095 0.77687 0.0
O126 O 0.88426 0.09172 0.78326 0.0
O127 O 0.86299 0.09657 0.95624 0.0
O128 O 0.89067 0.0873 0.89925 0.0
O129 O 0.83748 0.13972 0.89743 0.0
O130 O 0.84747 0.11214 0.84184 0.0
O131 O 0.84152 0.1322 1.01501 0.0
O132 O 0.86983 0.1564 0.02063 0.0
C133 C 0.92097 0.12497 0.93827 0.0
O134 O 0.87674 0.15402 0.82904 0.0
O135 O 0.87755 0.16576 0.9129 0.0
C136 C 0.89259 0.10539 0.69922 0.0
C137 C 0.88357 0.11002 0.59191 0.0
C138 C 0.87746 0.1275 0.62493 0.0
C139 C 0.88191 0.12519 0.67812 0.0
C140 C 0.89824 0.08777 0.66666 0.0
C141 C 0.89377 0.09002 0.61362 0.0
C142 C 0.89875 0.10294 0.75455 0.0
C143 C 0.8773 0.08179 0.93776 0.0
C144 C 0.83228 0.12636 0.85894 0.0
C145 C 0.85504 0.14205 0.09867 0.0
C146 C 0.86122 0.13345 0.20571 0.0
C147 C 0.86549 0.1162 0.17065 0.0
C148 C 0.8625 0.12049 0.1175 0.0
C149 C 0.85062 0.15917 0.13346 0.0
C150 C 0.85367 0.15494 0.18638 0.0
C151 C 0.85204 0.14737 0.04315 0.0
H152 H 0.86976 0.1432 0.60955 0.0
H153 H 0.87736 0.139 0.70263 0.0
H154 H 0.90639 0.0723 0.68225 0.0
H155 H 0.89832 0.07605 0.58957 0.0
H156 H 0.87152 0.09954 0.18425 0.0
H157 H 0.86614 0.10707 0.09119 0.0
H158 H 0.84482 0.1759 0.11963 0.0
H159 H 0.8499 0.16849 0.21225 0.0
Dy160 Dy 0.12896 0.38863 0.84277 0.0
Dy161 Dy 0.15092 0.37291 0.9592 0.0
C162 C 0.14202 0.33637 0.87015 0.0
O163 O 0.10009 0.37362 0.88726 0.0
O164 O 0.11346 0.38168 0.96868 0.0
O165 O 0.10641 0.38318 0.77626 0.0
O166 O 0.12726 0.41382 0.78005 0.0
O167 O 0.1549 0.41052 0.94914 0.0
O168 O 0.12317 0.41745 0.89637 0.0
O169 O 0.17965 0.36806 0.9043 0.0
O170 O 0.16705 0.39396 0.84161 0.0
O171 O 0.1761 0.37713 0.02193 0.0
O172 O 0.14898 0.35175 0.02834 0.0
C173 C 0.09649 0.37654 0.93614 0.0
O174 O 0.14074 0.3526 0.83405 0.0
O175 O 0.14224 0.34066 0.91951 0.0
C176 C 0.11895 0.39933 0.69732 0.0
C177 C 0.12878 0.39502 0.59196 0.0
C178 C 0.14221 0.3834 0.63069 0.0
C179 C 0.13736 0.38557 0.68288 0.0
C180 C 0.1056 0.41094 0.65898 0.0
C181 C 0.11043 0.40883 0.60695 0.0
C182 C 0.11316 0.40165 0.75183 0.0
C183 C 0.13853 0.42427 0.93113 0.0
C184 C 0.18322 0.38061 0.86238 0.0
C185 C 0.16291 0.3679 0.10576 0.0
C186 C 0.15603 0.37647 0.21089 0.0
C187 C 0.14017 0.38462 0.17228 0.0
C188 C 0.14359 0.38039 0.12022 0.0
C189 C 0.17888 0.36004 0.14393 0.0
C190 C 0.17551 0.36426 0.19585 0.0
C191 C 0.16626 0.36191 0.05171 0.0
H192 H 0.15662 0.37281 0.62071 0.0
H193 H 0.14793 0.3765 0.71193 0.0
H194 H 0.09126 0.42158 0.6693 0.0
H195 H 0.0995 0.41776 0.57837 0.0
H196 H 0.12513 0.39431 0.18226 0.0
H197 H 0.13104 0.38664 0.09134 0.0
H198 H 0.19383 0.35025 0.13364 0.0
H199 H 0.18792 0.35744 0.22433 0.0
Dy200 Dy 0.88009 0.88623 0.1947 0.0
Dy201 Dy 0.85733 0.8723 0.07972 0.0
C202 C 0.86616 0.83448 0.17118 0.0
O203 O 0.90851 0.87145 0.1506 0.0
O204 O 0.89495 0.88013 0.06844 0.0
O205 O 0.90246 0.87949 0.26168 0.0
O206 O 0.88308 0.91101 0.25463 0.0
O207 O 0.85524 0.91004 0.08505 0.0
O208 O 0.88654 0.91568 0.13924 0.0
O209 O 0.8286 0.86765 0.13549 0.0
O210 O 0.84216 0.89216 0.19682 0.0
O211 O 0.83247 0.87791 1.01637 0.0
O212 O 0.85782 0.8509 1.01365 0.0
C213 C 0.91194 0.87459 0.10128 0.0
O214 O 0.86788 0.85014 0.20635 0.0
O215 O 0.8658 0.83952 0.12159 0.0
C216 C 0.89112 0.89603 0.33891 0.0
C217 C 0.88178 0.89196 0.44508 0.0
C218 C 0.86792 0.88052 0.40833 0.0
C219 C 0.87256 0.88253 0.35573 0.0
C220 C 0.90478 0.90761 0.3752 0.0
C221 C 0.90018 0.90564 0.42763 0.0
C222 C 0.89671 0.89818 0.284 0.0
C223 C 0.87184 0.92319 0.10288 0.0
C224 C 0.82554 0.87957 0.17688 0.0
C225 C 0.84458 0.86718 0.93391 0.0
C226 C 0.85234 0.87434 0.82765 0.0
C227 C 0.86438 0.88731 0.86472 0.0
C228 C 0.86059 0.88371 0.91743 0.0
C229 C 0.83228 0.85456 0.89713 0.0
C230 C 0.83608 0.85809 0.84465 0.0
C231 C 0.84112 0.86191 0.98899 0.0
H232 H 0.85375 0.86968 0.42027 0.0
H233 H 0.86178 0.87346 0.32825 0.0
H234 H 0.91911 0.91821 0.36295 0.0
H235 H 0.91097 0.91502 0.4545 0.0
H236 H 0.87715 0.89984 0.85309 0.0
H237 H 0.87037 0.89354 0.9453 0.0
H238 H 0.81986 0.84172 0.90906 0.0
H239 H 0.82623 0.84806 0.81731 0.0
Dy240 Dy 0.38736 0.61211 0.33769 0.0
Dy241 Dy 0.36938 0.62975 0.44957 0.0
C242 C 0.37967 0.66448 0.35672 0.0
O243 O 0.41807 0.62554 0.38137 0.0
O244 O 0.40635 0.61941 0.46415 0.0
O245 O 0.40883 0.61699 0.27193 0.0
O246 O 0.38675 0.58715 0.27779 0.0
O247 O 0.36654 0.59184 0.4524 0.0
O248 O 0.39407 0.58305 0.39463 0.0
O249 O 0.33988 0.63474 0.39178 0.0
O250 O 0.34939 0.60602 0.33881 0.0
O251 O 0.34436 0.62853 0.50957 0.0
O252 O 0.37306 0.65235 0.51356 0.0
C253 C 0.4227 0.62322 0.43102 0.0
O254 O 0.37525 0.64827 0.32394 0.0
O255 O 0.3832 0.65984 0.40595 0.0
C256 C 0.39465 0.60145 0.19382 0.0
C257 C 0.38585 0.60625 0.08637 0.0
C258 C 0.38072 0.62412 0.1192 0.0
C259 C 0.38506 0.62174 0.17243 0.0
C260 C 0.39929 0.58344 0.16144 0.0
C261 C 0.39491 0.58578 0.10834 0.0
C262 C 0.40088 0.59891 0.24919 0.0
C263 C 0.38115 0.57735 0.4338 0.0
C264 C 0.33426 0.62044 0.35536 0.0
C265 C 0.35862 0.63854 0.59256 0.0
C266 C 0.36486 0.63005 0.69971 0.0
C267 C 0.36786 0.61242 0.66486 0.0
C268 C 0.36484 0.61665 0.61169 0.0
C269 C 0.35557 0.65608 0.62714 0.0
C270 C 0.35865 0.65191 0.6801 0.0
C271 C 0.35532 0.64368 0.53697 0.0
H272 H 0.37392 0.64019 0.10365 0.0
H273 H 0.38129 0.63587 0.19671 0.0
H274 H 0.4066 0.56761 0.17719 0.0
H275 H 0.39868 0.57151 0.08448 0.0
H276 H 0.37285 0.59546 0.67863 0.0
H277 H 0.36743 0.60289 0.5856 0.0
H278 H 0.35074 0.67307 0.61312 0.0
H279 H 0.3559 0.66578 0.70578 0.0
Dy280 Dy 0.64072 0.12961 0.57738 0.0
Dy281 Dy 0.62286 0.1104 0.69255 0.0
C282 C 0.58681 0.11933 0.59733 0.0
O283 O 0.63029 0.16057 0.6181 0.0
O284 O 0.63114 0.14757 0.70282 0.0
O285 O 0.6367 0.15102 0.50872 0.0
O286 O 0.66641 0.12867 0.51856 0.0
O287 O 0.66112 0.10692 0.6927 0.0
O288 O 0.66994 0.13554 0.63468 0.0
O289 O 0.61757 0.08154 0.63825 0.0
O290 O 0.64527 0.09186 0.58087 0.0
O291 O 0.62545 0.08534 0.7553 0.0
O292 O 0.60096 0.11316 0.75787 0.0
C293 C 0.63068 0.16426 0.66769 0.0
O294 O 0.60337 0.12013 0.56375 0.0
O295 O 0.59085 0.11935 0.64725 0.0
C296 C 0.65233 0.13653 0.43318 0.0
C297 C 0.64736 0.127 0.32738 0.0
C298 C 0.62957 0.12149 0.3614 0.0
C299 C 0.63205 0.12614 0.41384 0.0
C300 C 0.67021 0.14173 0.3996 0.0
C301 C 0.6678 0.137 0.34729 0.0
C302 C 0.65494 0.14281 0.48761 0.0
C303 C 0.67568 0.12208 0.67445 0.0
C304 C 0.63086 0.07672 0.5999 0.0
C305 C 0.61596 0.09832 0.83752 0.0
C306 C 0.62545 0.10366 0.94386 0.0
C307 C 0.64104 0.11195 0.90708 0.0
C308 C 0.63633 0.1093 0.85432 0.0
C309 C 0.60042 0.09008 0.87393 0.0
C310 C 0.60508 0.09271 0.92648 0.0
C311 C 0.61021 0.09556 0.78245 0.0
H312 H 0.61373 0.11351 0.3475 0.0
H313 H 0.61806 0.12185 0.43914 0.0
H314 H 0.68597 0.14979 0.41373 0.0
H315 H 0.68174 0.1417 0.32219 0.0
H316 H 0.65698 0.12029 0.91907 0.0
H317 H 0.64854 0.11582 0.82671 0.0
H318 H 0.58452 0.0817 0.86166 0.0
H319 H 0.59248 0.08647 0.95349 0.0
Dy320 Dy 0.88812 0.3926 0.84461 0.0
Dy321 Dy 0.87342 0.37118 0.95942 0.0
C322 C 0.83649 0.37841 0.86601 0.0
O323 O 0.89207 0.42174 0.89862 0.0
O324 O 0.86759 0.40875 0.96097 0.0
O325 O 0.88274 0.41657 0.78036 0.0
O326 O 0.91032 0.39165 0.77944 0.0
O327 O 0.90997 0.38323 0.97216 0.0
O328 O 0.92115 0.38489 0.88777 0.0
O329 O 0.88873 0.34266 0.91718 0.0
O330 O 0.88038 0.3553 0.83436 0.0
O331 O 0.87964 0.34932 0.02679 0.0
O332 O 0.84786 0.36874 1.01851 0.0
C333 C 0.87985 0.42516 0.93958 0.0
O334 O 0.84986 0.39474 0.84833 0.0
O335 O 0.84392 0.36425 0.90317 0.0
C336 C 0.89405 0.40383 0.69881 0.0
C337 C 0.88618 0.39591 0.59289 0.0
C338 C 0.86899 0.39066 0.62865 0.0
C339 C 0.87292 0.39451 0.68122 0.0
C340 C 0.91108 0.40923 0.66327 0.0
C341 C 0.90722 0.40533 0.61096 0.0
C342 C 0.8991 0.4078 0.75379 0.0
C343 C 0.926 0.38487 0.93744 0.0
C344 C 0.88578 0.33878 0.86799 0.0
C345 C 0.86263 0.36116 0.10336 0.0
C346 C 0.86626 0.37011 0.20971 0.0
C347 C 0.88335 0.37796 0.17596 0.0
C348 C 0.88154 0.37356 0.12329 0.0
C349 C 0.84539 0.35365 0.13662 0.0
C350 C 0.84715 0.35808 0.18915 0.0
C351 C 0.86069 0.35539 0.04852 0.0
H352 H 0.85267 0.38321 0.61611 0.0
H353 H 0.85957 0.39009 0.7081 0.0
H354 H 0.92749 0.41646 0.67606 0.0
H355 H 0.9207 0.4099 0.58453 0.0
H356 H 0.89841 0.38709 0.1904 0.0
H357 H 0.89504 0.37958 0.09827 0.0
H358 H 0.83059 0.34416 0.12197 0.0
H359 H 0.83344 0.35212 0.21366 0.0
Dy360 Dy 0.36276 0.12687 0.57801 0.0
Dy361 Dy 0.38207 0.10866 0.69428 0.0
C362 C 0.37427 0.07441 0.60154 0.0
O363 O 0.33387 0.13248 0.63246 0.0
O364 O 0.34392 0.10392 0.69077 0.0
O365 O 0.33761 0.12517 0.51472 0.0
O366 O 0.36585 0.14943 0.51113 0.0
O367 O 0.371 0.14504 0.70252 0.0
O368 O 0.37677 0.15703 0.61911 0.0
O369 O 0.41249 0.12208 0.65215 0.0
O370 O 0.39976 0.11677 0.56875 0.0
O371 O 0.40401 0.11301 0.76208 0.0
O372 O 0.38146 0.08355 0.75727 0.0
C373 C 0.32887 0.1189 0.67188 0.0
O374 O 0.35919 0.08903 0.58114 0.0
O375 O 0.38793 0.07982 0.64088 0.0
C376 C 0.35147 0.13537 0.43198 0.0
C377 C 0.35789 0.1271 0.3266 0.0
C378 C 0.3632 0.11014 0.36479 0.0
C379 C 0.36008 0.11426 0.41703 0.0
C380 C 0.34606 0.15221 0.3941 0.0
C381 C 0.34921 0.14815 0.34207 0.0
C382 C 0.34822 0.14047 0.48656 0.0
C383 C 0.37464 0.16138 0.66792 0.0
C384 C 0.41652 0.12035 0.603 0.0
C385 C 0.38986 0.09767 0.84047 0.0
C386 C 0.38102 0.10302 0.94602 0.0
C387 C 0.37306 0.11931 0.90853 0.0
C388 C 0.37743 0.11666 0.85627 0.0
C389 C 0.39738 0.0812 0.87747 0.0
C390 C 0.39301 0.0838 0.92957 0.0
C391 C 0.3959 0.09502 0.78619 0.0
H392 H 0.37012 0.09382 0.3544 0.0
H393 H 0.36449 0.10104 0.4457 0.0
H394 H 0.33936 0.1686 0.4048 0.0
H395 H 0.3446 0.16148 0.31385 0.0
H396 H 0.36395 0.13442 0.91966 0.0
H397 H 0.37143 0.12959 0.82834 0.0
H398 H 0.4069 0.06637 0.86609 0.0
H399 H 0.39902 0.07069 0.95702 0.0
Dy400 Dy 0.62704 0.61266 0.3438 0.0
Dy401 Dy 0.64605 0.63088 0.45806 0.0
C402 C 0.67953 0.6239 0.36473 0.0
O403 O 0.62323 0.5825 0.39833 0.0
O404 O 0.64994 0.59296 0.46077 0.0
O405 O 0.62925 0.58912 0.28177 0.0
O406 O 0.60462 0.61697 0.27591 0.0
O407 O 0.60969 0.61948 0.47197 0.0
O408 O 0.59547 0.61896 0.38782 0.0
O409 O 0.62877 0.6602 0.41629 0.0
O410 O 0.63547 0.65006 0.33385 0.0
O411 O 0.64377 0.65337 0.52188 0.0
O412 O 0.67223 0.62956 0.5198 0.0
C413 C 0.63636 0.57761 0.43952 0.0
O414 O 0.66504 0.6081 0.34967 0.0
O415 O 0.67396 0.63793 0.40091 0.0
C416 C 0.61939 0.60414 0.19802 0.0
C417 C 0.62867 0.61122 0.09249 0.0
C418 C 0.64616 0.61445 0.13065 0.0
C419 C 0.64155 0.61101 0.18298 0.0
C420 C 0.60198 0.60091 0.16017 0.0
C421 C 0.60653 0.6044 0.10805 0.0
C422 C 0.6139 0.60004 0.25258 0.0
C423 C 0.59248 0.61831 0.43773 0.0
C424 C 0.63056 0.66557 0.36731 0.0
C425 C 0.65918 0.63913 0.60201 0.0
C426 C 0.65413 0.63139 0.70912 0.0
C427 C 0.63648 0.62506 0.67364 0.0
C428 C 0.63899 0.62887 0.62062 0.0
C429 C 0.67697 0.64506 0.63705 0.0
C430 C 0.67451 0.64122 0.68997 0.0
C431 C 0.66175 0.6446 0.54665 0.0
H432 H 0.66333 0.61991 0.12012 0.0
H433 H 0.65524 0.61369 0.21161 0.0
H434 H 0.5848 0.59555 0.17096 0.0
H435 H 0.59275 0.6014 0.07985 0.0
H436 H 0.62046 0.61766 0.68689 0.0
H437 H 0.62502 0.62415 0.59424 0.0
H438 H 0.69273 0.65291 0.62348 0.0
H439 H 0.68864 0.64595 0.71591 0.0
Dy440 Dy 0.13501 0.86896 0.0847 0.0
Dy441 Dy 0.11797 0.88727 0.19704 0.0
C442 C 0.12657 0.92222 0.10184 0.0
O443 O 0.16382 0.86189 0.14363 0.0
O444 O 0.15608 0.89139 0.19554 0.0
O445 O 0.16063 0.8693 0.02595 0.0
O446 O 0.13136 0.84628 0.02086 0.0
O447 O 0.12587 0.8497 0.20776 0.0
O448 O 0.11747 0.84014 0.1248 0.0
O449 O 0.08564 0.88102 0.15094 0.0
O450 O 0.09851 0.88062 0.06771 0.0
O451 O 0.09662 0.88314 0.26321 0.0
O452 O 0.1208 0.91142 0.2584 0.0
C453 C 0.17035 0.87598 0.17983 0.0
O454 O 0.13948 0.90673 0.08138 0.0
O455 O 0.11392 0.91743 0.14202 0.0
C456 C 0.14708 0.85933 0.94263 0.0
C457 C 0.14266 0.86783 0.83521 0.0
C458 C 0.13694 0.88482 0.86984 0.0
C459 C 0.13912 0.8806 0.92313 0.0
C460 C 0.15268 0.84237 0.90837 0.0
C461 C 0.15049 0.84654 0.85526 0.0
C462 C 0.1496 0.8543 0.99834 0.0
C463 C 0.12011 0.8344 0.17363 0.0
C464 C 0.08181 0.88174 0.10083 0.0
C465 C 0.11249 0.89683 0.34179 0.0
C466 C 0.12215 0.89057 0.44854 0.0
C467 C 0.12473 0.8724 0.41497 0.0
C468 C 0.12001 0.87551 0.36204 0.0
C469 C 0.11026 0.91503 0.375 0.0
C470 C 0.11507 0.91198 0.42778 0.0
C471 C 0.10604 0.90036 0.28677 0.0
H472 H 0.13104 0.90146 0.85577 0.0
H473 H 0.13466 0.89392 0.94905 0.0
H474 H 0.15871 0.8258 0.92274 0.0
H475 H 0.15466 0.83294 0.82987 0.0
H476 H 0.13043 0.85578 0.42963 0.0
H477 H 0.122 0.86123 0.33708 0.0
H478 H 0.10442 0.9316 0.36016 0.0
H479 H 0.11266 0.92625 0.45253 0.0
Dy480 Dy 0.86422 0.63152 0.0852 0.0
Dy481 Dy 0.88267 0.61287 0.20174 0.0
C482 C 0.87525 0.57889 0.10852 0.0
O483 O 0.83522 0.63736 0.13914 0.0
O484 O 0.84458 0.60815 0.19611 0.0
O485 O 0.83871 0.63065 0.02245 0.0
O486 O 0.86812 0.65344 1.01762 0.0
O487 O 0.87171 0.6493 0.21028 0.0
O488 O 0.8777 0.66167 0.12715 0.0
O489 O 0.91347 0.6262 0.16127 0.0
O490 O 0.90144 0.62186 0.0771 0.0
O491 O 0.90431 0.61671 0.27019 0.0
O492 O 0.88117 0.58772 0.26452 0.0
C493 C 0.82987 0.62355 0.17785 0.0
O494 O 0.86041 0.59367 0.08776 0.0
O495 O 0.88887 0.58423 0.14799 0.0
C496 C 0.85247 0.6397 0.93929 0.0
C497 C 0.85753 0.63046 0.83397 0.0
C498 C 0.86822 0.61643 0.87281 0.0
C499 C 0.8657 0.621 0.92501 0.0
C500 C 0.84178 0.65366 0.90086 0.0
C501 C 0.84426 0.64912 0.84883 0.0
C502 C 0.84987 0.64531 0.99373 0.0
C503 C 0.87535 0.66579 0.17602 0.0
C504 C 0.91795 0.62499 0.11225 0.0
C505 C 0.88931 0.60168 0.34795 0.0
C506 C 0.87967 0.60728 0.45295 0.0
C507 C 0.87222 0.62362 0.41512 0.0
C508 C 0.87694 0.62082 0.3631 0.0
C509 C 0.89647 0.58524 0.38535 0.0
C510 C 0.8917 0.58796 0.43723 0.0
C511 C 0.89567 0.59887 0.29394 0.0
H512 H 0.87838 0.60179 0.86289 0.0
H513 H 0.8741 0.61001 0.95418 0.0
H514 H 0.8316 0.66825 0.91109 0.0
H515 H 0.83608 0.66052 0.82019 0.0
H516 H 0.86267 0.63855 0.4257 0.0
H517 H 0.87114 0.6337 0.33481 0.0
H518 H 0.90609 0.57038 0.37452 0.0
H519 H 0.89795 0.57518 0.46521 0.0
Dy520 Dy 0.14504 0.13184 0.95256 0.0
Dy521 Dy 0.12422 0.11595 0.83836 0.0
C522 C 0.13175 0.08001 0.93251 0.0
O523 O 0.17388 0.13676 0.89684 0.0
O524 O 0.16205 0.10938 0.84086 0.0
O525 O 0.16994 0.12812 1.01622 0.0
O526 O 0.14393 0.15459 1.0164 0.0
O527 O 0.13692 0.152 0.82754 0.0
O528 O 0.13118 0.1627 0.91009 0.0
O529 O 0.09455 0.12931 0.88116 0.0
O530 O 0.10787 0.12245 0.96438 0.0
O531 O 0.10261 0.1224 0.77019 0.0
O532 O 0.12256 0.0912 0.77807 0.0
C533 C 0.17805 0.12322 0.85868 0.0
O534 O 0.14731 0.09394 0.95194 0.0
O535 O 0.11782 0.08654 0.89377 0.0
C536 C 0.157 0.1395 0.09749 0.0
C537 C 0.14976 0.13196 0.20384 0.0
C538 C 0.14396 0.11502 0.16825 0.0
C539 C 0.14748 0.11879 0.11551 0.0
C540 C 0.1629 0.15632 0.1328 0.0
C541 C 0.15933 0.15263 0.18533 0.0
C542 C 0.1607 0.14425 0.04227 0.0
C543 C 0.13363 0.16785 0.86118 0.0
C544 C 0.09091 0.12685 0.93063 0.0
C545 C 0.11521 0.1062 0.69339 0.0
C546 C 0.12445 0.1107 0.58723 0.0
C547 C 0.1327 0.12706 0.62205 0.0
C548 C 0.12814 0.12482 0.67462 0.0
C549 C 0.10736 0.08967 0.65907 0.0
C550 C 0.11193 0.09185 0.60666 0.0
C551 C 0.10909 0.10391 0.74802 0.0
H552 H 0.13635 0.099 0.18106 0.0
H553 H 0.14267 0.1056 0.08884 0.0
H554 H 0.17028 0.17242 0.1197 0.0
H555 H 0.16431 0.16592 0.21156 0.0
H556 H 0.14223 0.14189 0.60852 0.0
H557 H 0.13443 0.13778 0.70046 0.0
H558 H 0.09746 0.07511 0.67279 0.0
H559 H 0.10567 0.0787 0.58133 0.0
Dy560 Dy 0.64215 0.36708 0.59703 0.0
Dy561 Dy 0.62495 0.38569 0.70938 0.0
C562 C 0.63436 0.42044 0.61416 0.0
O563 O 0.67113 0.36009 0.65559 0.0
O564 O 0.66319 0.3889 0.70965 0.0
O565 O 0.66777 0.36706 0.53814 0.0
O566 O 0.63797 0.34476 0.53277 0.0
O567 O 0.6333 0.34831 0.72097 0.0
O568 O 0.62509 0.3381 0.63818 0.0
O569 O 0.59281 0.37844 0.66324 0.0
O570 O 0.60582 0.37914 0.5802 0.0
O571 O 0.60338 0.38155 0.77526 0.0
O572 O 0.62719 0.4101 0.77024 0.0
C573 C 0.67743 0.37362 0.6931 0.0
O574 O 0.64725 0.40481 0.59411 0.0
O575 O 0.62138 0.41575 0.65385 0.0
C576 C 0.65389 0.35779 0.45472 0.0
C577 C 0.64899 0.36664 0.34743 0.0
C578 C 0.63714 0.37999 0.38226 0.0
C579 C 0.63959 0.37561 0.43547 0.0
C580 C 0.66575 0.34453 0.42029 0.0
C581 C 0.66335 0.34888 0.36723 0.0
C582 C 0.65639 0.3524 0.51029 0.0
C583 C 0.62771 0.33279 0.68726 0.0
C584 C 0.589 0.3796 0.61313 0.0
C585 C 0.61829 0.396 0.85365 0.0
C586 C 0.62763 0.39 0.96063 0.0
C587 C 0.63653 0.37462 0.92566 0.0
C588 C 0.63193 0.37762 0.87259 0.0
C589 C 0.6096 0.41145 0.88824 0.0
C590 C 0.61421 0.40851 0.94113 0.0
C591 C 0.61228 0.39912 0.79839 0.0
H592 H 0.62614 0.39394 0.36841 0.0
H593 H 0.6303 0.38606 0.46155 0.0
H594 H 0.67678 0.33062 0.43445 0.0
H595 H 0.67245 0.33804 0.34166 0.0
H596 H 0.64713 0.36033 0.93929 0.0
H597 H 0.63887 0.36553 0.84643 0.0
H598 H 0.59897 0.42569 0.87436 0.0
H599 H 0.60682 0.4205 0.96686 0.0
Dy600 Dy 0.38176 0.88495 0.34743 0.0
Dy601 Dy 0.36201 0.86792 0.46138 0.0
C602 C 0.32772 0.87556 0.36256 0.0
O603 O 0.38804 0.91368 0.40205 0.0
O604 O 0.35801 0.9056 0.4546 0.0
O605 O 0.38173 0.90989 0.28438 0.0
O606 O 0.40509 0.88109 0.28487 0.0
O607 O 0.39966 0.87684 0.47353 0.0
O608 O 0.41099 0.86875 0.39265 0.0
O609 O 0.37026 0.83617 0.42059 0.0
O610 O 0.3702 0.84889 0.33572 0.0
O611 O 0.36563 0.84668 0.53039 0.0
O612 O 0.33704 0.87046 0.5214 0.0
C613 C 0.3737 0.91982 0.43743 0.0
O614 O 0.34344 0.88885 0.34178 0.0
O615 O 0.33221 0.86326 0.40493 0.0
C616 C 0.39184 0.89574 0.20354 0.0
C617 C 0.38332 0.88999 0.09693 0.0
C618 C 0.36559 0.88622 0.1322 0.0
C619 C 0.36983 0.889 0.18506 0.0
C620 C 0.40948 0.89955 0.16858 0.0
C621 C 0.4053 0.89671 0.11589 0.0
C622 C 0.39693 0.89881 0.25887 0.0
C623 C 0.41581 0.87151 0.44161 0.0
C624 C 0.36965 0.83231 0.37101 0.0
C625 C 0.35112 0.86174 0.60652 0.0
C626 C 0.35728 0.87 0.7128 0.0
C627 C 0.37468 0.87594 0.67805 0.0
C628 C 0.37163 0.87185 0.6254 0.0
C629 C 0.33356 0.8563 0.64075 0.0
C630 C 0.33656 0.8604 0.69325 0.0
C631 C 0.34795 0.85576 0.552 0.0
H632 H 0.34853 0.8808 0.11902 0.0
H633 H 0.35598 0.88584 0.21147 0.0
H634 H 0.42657 0.90478 0.18206 0.0
H635 H 0.41926 0.90006 0.0899 0.0
H636 H 0.39092 0.88319 0.69171 0.0
H637 H 0.38543 0.8762 0.59962 0.0
H638 H 0.31757 0.84857 0.62694 0.0
H639 H 0.32262 0.856 0.71858 0.0
C640 C 0.11766 0.63685 0.74273 0.0
C641 C 0.13881 0.63096 0.76774 0.0
C642 C 0.11401 0.63382 0.68957 0.0
C643 C 0.13187 0.62455 0.66051 0.0
C644 C 0.15315 0.61837 0.68562 0.0
C645 C 0.15636 0.62166 0.73873 0.0
C646 C 0.09109 0.64071 0.66438 0.0
C647 C 0.17259 0.60826 0.65634 0.0
C648 C 0.11621 0.59743 0.53239 0.0
C649 C 0.12224 0.61467 0.4965 0.0
C650 C 0.11911 0.60046 0.58567 0.0
C651 C 0.12831 0.62126 0.6039 0.0
C652 C 0.13442 0.63875 0.56796 0.0
C653 C 0.13134 0.63525 0.51484 0.0
C654 C 0.11248 0.5813 0.62249 0.0
C655 C 0.14423 0.6612 0.58565 0.0
H656 H 0.10408 0.64428 0.76458 0.0
H657 H 0.17263 0.61672 0.75771 0.0
H658 H 0.09387 0.65393 0.63373 0.0
H659 H 0.08287 0.62581 0.64576 0.0
H660 H 0.07893 0.64756 0.69227 0.0
H661 H 0.18804 0.60427 0.68148 0.0
H662 H 0.16663 0.59234 0.63798 0.0
H663 H 0.17778 0.62034 0.6251 0.0
H664 H 0.10952 0.58132 0.51881 0.0
H665 H 0.1358 0.64881 0.48762 0.0
H666 H 0.09945 0.58738 0.64926 0.0
H667 H 0.12787 0.5757 0.64616 0.0
H668 H 0.10525 0.56631 0.60227 0.0
H669 H 0.13188 0.66949 0.61096 0.0
H670 H 0.14794 0.67316 0.55297 0.0
H671 H 0.16049 0.6582 0.60866 0.0
C672 C 0.64751 0.88261 1.01647 0.0
C673 C 0.62686 0.89204 0.03326 0.0
C674 C 0.65109 0.8796 0.96382 0.0
C675 C 0.63361 0.88615 0.92685 0.0
C676 C 0.6128 0.89578 0.94349 0.0
C677 C 0.60967 0.89856 0.99631 0.0
C678 C 0.67355 0.86929 0.94777 0.0
C679 C 0.59368 0.90293 0.90548 0.0
C680 C 0.64964 0.89594 0.78659 0.0
C681 C 0.6428 0.87527 0.76469 0.0
C682 C 0.64683 0.89971 0.83923 0.0
C683 C 0.63684 0.88244 0.87087 0.0
C684 C 0.62974 0.86163 0.8489 0.0
C685 C 0.63279 0.85831 0.79626 0.0
C686 C 0.65468 0.92212 0.86109 0.0
C687 C 0.61887 0.84283 0.88103 0.0
H688 H 0.66103 0.87777 0.0445 0.0
H689 H 0.5935 0.90552 1.00875 0.0
H690 H 0.67 0.85327 0.92722 0.0
H691 H 0.68232 0.88118 0.92064 0.0
H692 H 0.68555 0.86541 0.98109 0.0
H693 H 0.57879 0.91067 0.92446 0.0
H694 H 0.60038 0.91548 0.87679 0.0
H695 H 0.58739 0.88791 0.88411 0.0
H696 H 0.65761 0.90905 0.76274 0.0
H697 H 0.62711 0.84242 0.77963 0.0
H698 H 0.66797 0.919 0.89222 0.0
H699 H 0.63989 0.93075 0.8784 0.0
H700 H 0.66206 0.93383 0.83144 0.0
H701 H 0.63092 0.83745 0.91316 0.0
H702 H 0.61433 0.82763 0.85821 0.0
H703 H 0.60292 0.8492 0.89834 0.0
C704 C 0.34738 0.38683 0.2331 0.0
C705 C 0.36394 0.37612 0.26631 0.0
C706 C 0.35074 0.38908 0.17984 0.0
C707 C 0.37115 0.38037 0.15901 0.0
C708 C 0.38799 0.36966 0.19233 0.0
C709 C 0.38421 0.36769 0.24544 0.0
C710 C 0.33242 0.40077 0.14582 0.0
C711 C 0.40996 0.36006 0.17178 0.0
C712 C 0.37147 0.36707 1.01628 0.0
C713 C 0.38335 0.38598 0.99555 0.0
C714 C 0.36721 0.36512 0.06922 0.0
C715 C 0.37495 0.3825 0.10243 0.0
C716 C 0.38665 0.40178 0.08164 0.0
C717 C 0.39069 0.40328 0.02862 0.0
C718 C 0.35472 0.34427 0.08975 0.0
C719 C 0.39507 0.42077 0.11551 0.0
H720 H 0.33179 0.39365 0.24884 0.0
H721 H 0.39696 0.3591 0.27055 0.0
H722 H 0.34001 0.4157 0.12516 0.0
H723 H 0.32585 0.3889 0.11627 0.0
H724 H 0.31757 0.40669 0.16794 0.0
H725 H 0.42139 0.35234 0.20271 0.0
H726 H 0.40565 0.34683 0.14336 0.0
H727 H 0.4197 0.37376 0.15145 0.0
H728 H 0.36594 0.3535 0.99127 0.0
H729 H 0.39954 0.41814 1.01296 0.0
H730 H 0.3391 0.34947 0.1101 0.0
H731 H 0.3661 0.33481 0.11815 0.0
H732 H 0.34935 0.33252 0.05881 0.0
H733 H 0.38036 0.42796 0.13603 0.0
H734 H 0.40351 0.4348 0.09331 0.0
H735 H 0.40766 0.41394 0.14516 0.0
C736 C 0.85962 0.12288 0.51375 0.0
C737 C 0.87989 0.11278 0.535 0.0
C738 C 0.85618 0.12579 0.46018 0.0
C739 C 0.87341 0.11843 0.42693 0.0
C740 C 0.89383 0.10809 0.44809 0.0
C741 C 0.89684 0.10544 0.50174 0.0
C742 C 0.83415 0.13688 0.43916 0.0
C743 C 0.91266 0.10008 0.41405 0.0
C744 C 0.85707 0.10891 0.28603 0.0
C745 C 0.86472 0.12927 0.26225 0.0
C746 C 0.85974 0.10515 0.33957 0.0
C747 C 0.87039 0.1221 0.37007 0.0
C748 C 0.87833 0.14258 0.34621 0.0
C749 C 0.8754 0.14591 0.29271 0.0
C750 C 0.85101 0.08311 0.36354 0.0
C751 C 0.88993 0.16102 0.37722 0.0
H752 H 0.8463 0.12835 0.53903 0.0
H753 H 0.91272 0.09795 0.5177 0.0
H754 H 0.83834 0.15271 0.41683 0.0
H755 H 0.82497 0.12527 0.41241 0.0
H756 H 0.82226 0.14128 0.47005 0.0
H757 H 0.9272 0.09179 0.43643 0.0
H758 H 0.90548 0.08775 0.38617 0.0
H759 H 0.9196 0.11479 0.39145 0.0
H760 H 0.8486 0.09608 0.26288 0.0
H761 H 0.88168 0.16153 0.27457 0.0
H762 H 0.83781 0.08681 0.39216 0.0
H763 H 0.86543 0.07397 0.38441 0.0
H764 H 0.84321 0.07161 0.33452 0.0
H765 H 0.87807 0.16696 0.40668 0.0
H766 H 0.89512 0.17596 0.35285 0.0
H767 H 0.90558 0.15406 0.39792 0.0
C768 C 0.17072 0.38531 0.30054 0.0
C769 C 0.15212 0.38017 0.26668 0.0
C770 C 0.16746 0.38799 0.35341 0.0
C771 C 0.14503 0.3855 0.37329 0.0
C772 C 0.12613 0.38054 0.33931 0.0
C773 C 0.12989 0.37795 0.28659 0.0
C774 C 0.18808 0.39339 0.38808 0.0
C775 C 0.10194 0.37771 0.35878 0.0
C776 C 0.1392 0.37132 0.51666 0.0
C777 C 0.13363 0.39265 0.53616 0.0
C778 C 0.14304 0.36877 0.46395 0.0
C779 C 0.14134 0.388 0.42961 0.0
C780 C 0.13597 0.40961 0.4491 0.0
C781 C 0.13219 0.41166 0.50194 0.0
C782 C 0.14867 0.34541 0.44489 0.0
C783 C 0.13412 0.43059 0.41404 0.0
H784 H 0.18791 0.3874 0.28561 0.0
H785 H 0.11543 0.37368 0.26109 0.0
H786 H 0.18513 0.40963 0.4077 0.0
H787 H 0.19034 0.3798 0.41845 0.0
H788 H 0.20436 0.39495 0.36668 0.0
H789 H 0.08905 0.37418 0.32741 0.0
H790 H 0.10153 0.36344 0.3878 0.0
H791 H 0.09666 0.39339 0.37813 0.0
H792 H 0.14009 0.35646 0.54249 0.0
H793 H 0.12825 0.42829 0.51657 0.0
H794 H 0.16545 0.34592 0.42537 0.0
H795 H 0.13526 0.34017 0.41611 0.0
H796 H 0.14968 0.33224 0.47651 0.0
H797 H 0.15063 0.43342 0.39419 0.0
H798 H 0.13002 0.44619 0.43519 0.0
H799 H 0.12042 0.42807 0.38388 0.0
C800 C 0.85957 0.89916 0.74869 0.0
C801 C 0.85689 0.87732 0.77155 0.0
C802 C 0.86344 0.90205 0.6957 0.0
C803 C 0.86478 0.88265 0.66465 0.0
C804 C 0.86223 0.86058 0.68756 0.0
C805 C 0.85833 0.85819 0.74053 0.0
C806 C 0.86601 0.92588 0.67285 0.0
C807 C 0.86371 0.83942 0.6561 0.0
C808 C 0.85462 0.88933 0.51913 0.0
C809 C 0.87731 0.88956 0.50136 0.0
C810 C 0.85029 0.88725 0.57205 0.0
C811 C 0.86908 0.88536 0.60832 0.0
C812 C 0.892 0.88559 0.59066 0.0
C813 C 0.89583 0.88764 0.53759 0.0
C814 C 0.82558 0.88709 0.58915 0.0
C815 C 0.91255 0.8835 0.62786 0.0
H816 H 0.85826 0.91405 0.77212 0.0
H817 H 0.85667 0.84123 0.75785 0.0
H818 H 0.88308 0.92773 0.65484 0.0
H819 H 0.85254 0.929 0.64208 0.0
H820 H 0.8645 0.93919 0.70207 0.0
H821 H 0.86124 0.82349 0.67959 0.0
H822 H 0.85036 0.84004 0.62446 0.0
H823 H 0.88083 0.83868 0.63814 0.0
H824 H 0.84018 0.89108 0.49168 0.0
H825 H 0.91342 0.88743 0.52441 0.0
H826 H 0.8229 0.90122 0.61575 0.0
H827 H 0.82194 0.87089 0.61062 0.0
H828 H 0.8129 0.88893 0.55627 0.0
H829 H 0.91215 0.89733 0.656 0.0
H830 H 0.92929 0.88439 0.6081 0.0
H831 H 0.9117 0.86703 0.64997 0.0
C832 C 0.37991 0.64186 0.78662 0.0
C833 C 0.36818 0.62582 0.75631 0.0
C834 C 0.38268 0.6385 0.84017 0.0
C835 C 0.37349 0.61861 0.86425 0.0
C836 C 0.36176 0.60227 0.83389 0.0
C837 C 0.35928 0.60604 0.78032 0.0
C838 C 0.39546 0.65628 0.871 0.0
C839 C 0.35166 0.58087 0.85807 0.0
C840 C 0.39881 0.60064 0.99624 0.0
C841 C 0.38236 0.60908 0.02938 0.0
C842 C 0.396 0.60337 0.94255 0.0
C843 C 0.37629 0.61492 0.92119 0.0
C844 C 0.35955 0.6234 0.9543 0.0
C845 C 0.36277 0.62038 1.00791 0.0
C846 C 0.41429 0.59413 0.90868 0.0
C847 C 0.33828 0.63579 0.93308 0.0
H848 H 0.38714 0.65702 0.76834 0.0
H849 H 0.34998 0.59368 0.75731 0.0
H850 H 0.38401 0.66304 0.90035 0.0
H851 H 0.41063 0.64842 0.89183 0.0
H852 H 0.40158 0.67079 0.84648 0.0
H853 H 0.34316 0.56978 0.82914 0.0
H854 H 0.36548 0.57093 0.87908 0.0
H855 H 0.33873 0.58546 0.88659 0.0
H856 H 0.41419 0.59222 1.01233 0.0
H857 H 0.34981 0.6267 0.03305 0.0
H858 H 0.42213 0.60833 0.88598 0.0
H859 H 0.40634 0.58219 0.88088 0.0
H860 H 0.42827 0.58502 0.9312 0.0
H861 H 0.34347 0.65127 0.91061 0.0
H862 H 0.32671 0.64103 0.96388 0.0
H863 H 0.32836 0.62471 0.90643 0.0
C864 C 0.63898 0.12721 1.01858 0.0
C865 C 0.63009 0.10658 1.00012 0.0
C866 C 0.64237 0.13048 0.07166 0.0
C867 C 0.63675 0.11271 0.10732 0.0
C868 C 0.62813 0.09172 0.08893 0.0
C869 C 0.62494 0.08891 0.0357 0.0
C870 C 0.6516 0.15312 0.08963 0.0
C871 C 0.62204 0.07229 0.12554 0.0
C872 C 0.66285 0.11412 0.24371 0.0
C873 C 0.6445 0.12285 0.27118 0.0
C874 C 0.66058 0.1107 0.1905 0.0
C875 C 0.63946 0.11619 0.16389 0.0
C876 C 0.62084 0.12493 0.1914 0.0
C877 C 0.62357 0.12811 0.24462 0.0
C878 C 0.68079 0.10119 0.16274 0.0
C879 C 0.59807 0.13109 0.16452 0.0
H880 H 0.64277 0.14105 0.99154 0.0
H881 H 0.61843 0.07277 0.02189 0.0
H882 H 0.63862 0.16138 0.11345 0.0
H883 H 0.66745 0.15044 0.11423 0.0
H884 H 0.65576 0.16497 0.05706 0.0
H885 H 0.61599 0.05689 0.10509 0.0
H886 H 0.63731 0.06758 0.15051 0.0
H887 H 0.6082 0.07772 0.15107 0.0
H888 H 0.67899 0.10975 0.26397 0.0
H889 H 0.60941 0.13516 0.26532 0.0
H890 H 0.686 0.11338 0.13172 0.0
H891 H 0.67565 0.08505 0.14424 0.0
H892 H 0.69602 0.09776 0.18895 0.0
H893 H 0.60088 0.14431 0.13389 0.0
H894 H 0.58528 0.13766 0.19138 0.0
H895 H 0.59058 0.1159 0.14565 0.0
C896 C 0.86234 0.35682 0.30202 0.0
C897 C 0.86847 0.37405 0.26619 0.0
C898 C 0.86445 0.36014 0.35526 0.0
C899 C 0.87301 0.38118 0.37346 0.0
C900 C 0.87915 0.39869 0.33761 0.0
C901 C 0.87679 0.39493 0.28452 0.0
C902 C 0.85777 0.341 0.39209 0.0
C903 C 0.88833 0.42138 0.35536 0.0
C904 C 0.8613 0.39706 0.51144 0.0
C905 C 0.88242 0.39157 0.53696 0.0
C906 C 0.85796 0.39375 0.45833 0.0
C907 C 0.87613 0.38464 0.42998 0.0
C908 C 0.89738 0.37882 0.45566 0.0
C909 C 0.90025 0.38235 0.50867 0.0
C910 C 0.83506 0.40021 0.43244 0.0
C911 C 0.91714 0.36891 0.42707 0.0
H912 H 0.85623 0.3405 0.28844 0.0
H913 H 0.88129 0.40847 0.25731 0.0
H914 H 0.87308 0.33556 0.41617 0.0
H915 H 0.84454 0.34702 0.41847 0.0
H916 H 0.85077 0.32592 0.37184 0.0
H917 H 0.89197 0.43337 0.32269 0.0
H918 H 0.87565 0.42944 0.38024 0.0
H919 H 0.90453 0.41875 0.37883 0.0
H920 H 0.84751 0.4044 0.53281 0.0
H921 H 0.9165 0.37771 0.52815 0.0
H922 H 0.82725 0.38516 0.4136 0.0
H923 H 0.83778 0.41348 0.40187 0.0
H924 H 0.82258 0.40683 0.45993 0.0
H925 H 0.91153 0.35288 0.40871 0.0
H926 H 0.93251 0.36517 0.45268 0.0
H927 H 0.92236 0.38101 0.39589 0.0
C928 C 0.37058 0.14038 0.23891 0.0
C929 C 0.36144 0.12306 0.27088 0.0
C930 C 0.3736 0.13711 0.1862 0.0
C931 C 0.36734 0.11598 0.16455 0.0
C932 C 0.35821 0.09837 0.19657 0.0
C933 C 0.3554 0.1021 0.24925 0.0
C934 C 0.38354 0.15631 0.15367 0.0
C935 C 0.35128 0.07561 0.17511 0.0
C936 C 0.35633 0.11484 1.01903 0.0
C937 C 0.37731 0.10619 1.00207 0.0
C938 C 0.35279 0.11795 0.07167 0.0
C939 C 0.37062 0.11229 0.10852 0.0
C940 C 0.39178 0.10349 0.09172 0.0
C941 C 0.39488 0.1006 0.0389 0.0
C942 C 0.32995 0.12737 0.08786 0.0
C943 C 0.41129 0.0973 0.12956 0.0
H944 H 0.37565 0.15651 0.25526 0.0
H945 H 0.34809 0.08869 0.27337 0.0
H946 H 0.39973 0.15061 0.13627 0.0
H947 H 0.37119 0.16106 0.12161 0.0
H948 H 0.38741 0.17174 0.17621 0.0
H949 H 0.34446 0.06367 0.20499 0.0
H950 H 0.33782 0.07811 0.14409 0.0
H951 H 0.3664 0.06756 0.15773 0.0
H952 H 0.34253 0.11897 0.99113 0.0
H953 H 0.4113 0.09426 0.02637 0.0
H954 H 0.33285 0.14355 0.10821 0.0
H955 H 0.32172 0.11518 0.1152 0.0
H956 H 0.31774 0.13072 0.05463 0.0
H957 H 0.41692 0.11263 0.15064 0.0
H958 H 0.42649 0.0902 0.11048 0.0
H959 H 0.40524 0.08452 0.1585 0.0
C960 C 0.61685 0.6256 1.00337 0.0
C961 C 0.63332 0.61478 0.03663 0.0
C962 C 0.6205 0.62836 0.95038 0.0
C963 C 0.64117 0.62015 0.92981 0.0
C964 C 0.65801 0.60945 0.96318 0.0
C965 C 0.65391 0.60692 1.01611 0.0
C966 C 0.60215 0.64 0.91634 0.0
C967 C 0.68028 0.60045 0.94286 0.0
C968 C 0.64051 0.60854 0.78622 0.0
C969 C 0.65118 0.62824 0.76582 0.0
C970 C 0.63736 0.60558 0.83944 0.0
C971 C 0.64506 0.62271 0.87334 0.0
C972 C 0.65599 0.64254 0.8531 0.0
C973 C 0.65886 0.64508 0.79975 0.0
C974 C 0.62566 0.58417 0.85938 0.0
C975 C 0.66441 0.66125 0.88778 0.0
H976 H 0.60106 0.63207 1.01888 0.0
H977 H 0.66664 0.59833 0.04129 0.0
H978 H 0.60961 0.65517 0.89628 0.0
H979 H 0.59588 0.62822 0.88631 0.0
H980 H 0.58712 0.64557 0.93831 0.0
H981 H 0.69179 0.5929 0.97388 0.0
H982 H 0.67638 0.58721 0.91421 0.0
H983 H 0.68976 0.61442 0.92284 0.0
H984 H 0.63478 0.59528 0.76058 0.0
H985 H 0.66679 0.66053 0.78449 0.0
H986 H 0.60967 0.58869 0.87923 0.0
H987 H 0.6372 0.57509 0.88808 0.0
H988 H 0.62099 0.5723 0.82817 0.0
H989 H 0.6496 0.66848 0.90789 0.0
H990 H 0.67314 0.67531 0.86625 0.0
H991 H 0.6767 0.65417 0.91775 0.0
C992 C 0.1177 0.86764 0.53086 0.0
C993 C 0.12622 0.88716 0.50514 0.0
C994 C 0.1206 0.86462 0.5845 0.0
C995 C 0.13237 0.8815 0.61323 0.0
C996 C 0.14123 0.90112 0.58745 0.0
C997 C 0.13802 0.90373 0.5338 0.0
C998 C 0.11082 0.84348 0.6105 0.0
C999 C 0.15404 0.91942 0.61658 0.0
C1000 C 0.12112 0.88375 0.75649 0.0
C1001 C 0.14038 0.87209 0.77842 0.0
C1002 C 0.1184 0.88711 0.70288 0.0
C1003 C 0.13533 0.87862 0.67028 0.0
C1004 C 0.15495 0.8671 0.69218 0.0
C1005 C 0.15724 0.86401 0.74587 0.0
C1006 C 0.09723 0.89949 0.68108 0.0
C1007 C 0.17345 0.85787 0.65884 0.0
H1008 H 0.1083 0.8549 0.50914 0.0
H1009 H 0.1449 0.91874 0.51417 0.0
H1010 H 0.12481 0.83398 0.63201 0.0
H1011 H 0.09794 0.8484 0.63885 0.0
H1012 H 0.10233 0.83186 0.58265 0.0
H1013 H 0.16005 0.93354 0.59081 0.0
H1014 H 0.14264 0.92666 0.64545 0.0
H1015 H 0.16927 0.91193 0.63788 0.0
H1016 H 0.10786 0.88983 0.7812 0.0
H1017 H 0.17237 0.85531 0.76243 0.0
H1018 H 0.08699 0.88801 0.6559 0.0
H1019 H 0.10248 0.91444 0.65693 0.0
H1020 H 0.08593 0.90551 0.71162 0.0
H1021 H 0.1658 0.84515 0.63247 0.0
H1022 H 0.18781 0.84961 0.68186 0.0
H1023 H 0.18072 0.87187 0.6346 0.0
C1024 C 0.88188 0.61955 0.75983 0.0
C1025 C 0.86033 0.62597 0.77819 0.0
C1026 C 0.88491 0.61617 0.70712 0.0
C1027 C 0.86596 0.61925 0.67164 0.0
C1028 C 0.84411 0.62544 0.68996 0.0
C1029 C 0.84156 0.6287 0.74284 0.0
C1030 C 0.90851 0.6096 0.68929 0.0
C1031 C 0.82341 0.62878 0.65362 0.0
C1032 C 0.87853 0.63199 0.53046 0.0
C1033 C 0.87544 0.6105 0.50869 0.0
C1034 C 0.87546 0.63507 0.58325 0.0
C1035 C 0.86905 0.61625 0.61531 0.0
C1036 C 0.86566 0.59458 0.59351 0.0
C1037 C 0.86891 0.59197 0.54063 0.0
C1038 C 0.87931 0.65846 0.60486 0.0
C1039 C 0.85867 0.5741 0.62611 0.0
H1040 H 0.89657 0.61766 0.78658 0.0
H1041 H 0.82475 0.63329 0.75658 0.0
H1042 H 0.90735 0.59341 0.66832 0.0
H1043 H 0.91495 0.62293 0.66205 0.0
H1044 H 0.92136 0.60741 0.72175 0.0
H1045 H 0.80753 0.63327 0.67399 0.0
H1046 H 0.82703 0.64257 0.6248 0.0
H1047 H 0.82001 0.61296 0.63222 0.0
H1048 H 0.88386 0.64635 0.50638 0.0
H1049 H 0.86618 0.57537 0.52416 0.0
H1050 H 0.89336 0.6577 0.63495 0.0
H1051 H 0.86343 0.66422 0.62343 0.0
H1052 H 0.88401 0.67138 0.57482 0.0
H1053 H 0.87193 0.57074 0.65721 0.0
H1054 H 0.85653 0.55846 0.60331 0.0
H1055 H 0.84213 0.57759 0.64484 0.0
C1056 C 0.14971 0.12145 0.51286 0.0
C1057 C 0.12843 0.11341 0.53081 0.0
C1058 C 0.15353 0.12415 0.45984 0.0
C1059 C 0.13566 0.11867 0.42364 0.0
C1060 C 0.11419 0.11047 0.44146 0.0
C1061 C 0.11083 0.108 0.49463 0.0
C1062 C 0.17668 0.13292 0.44253 0.0
C1063 C 0.09465 0.10451 0.4043 0.0
C1064 C 0.13701 0.14601 0.28887 0.0
C1065 C 0.14581 0.12831 0.26001 0.0
C1066 C 0.13366 0.1431 0.34197 0.0
C1067 C 0.13923 0.12196 0.36717 0.0
C1068 C 0.148 0.10396 0.33828 0.0
C1069 C 0.15114 0.10733 0.28513 0.0
C1070 C 0.12412 0.16269 0.37111 0.0
C1071 C 0.1542 0.08117 0.36361 0.0
H1072 H 0.16354 0.12542 0.54032 0.0
H1073 H 0.09419 0.10213 0.5079 0.0
H1074 H 0.18465 0.12039 0.41736 0.0
H1075 H 0.1743 0.14904 0.41949 0.0
H1076 H 0.18887 0.13617 0.47541 0.0
H1077 H 0.07919 0.09787 0.42424 0.0
H1078 H 0.08951 0.11984 0.38059 0.0
H1079 H 0.10045 0.09143 0.37759 0.0
H1080 H 0.1325 0.16216 0.26977 0.0
H1081 H 0.15818 0.09363 0.26337 0.0
H1082 H 0.13648 0.16737 0.40258 0.0
H1083 H 0.10772 0.15745 0.38916 0.0
H1084 H 0.12072 0.17806 0.34596 0.0
H1085 H 0.16763 0.08353 0.39445 0.0
H1086 H 0.16078 0.0689 0.33585 0.0
H1087 H 0.1388 0.0736 0.38202 0.0
C1088 C 0.62441 0.37571 0.26776 0.0
C1089 C 0.64625 0.37092 0.29067 0.0
C1090 C 0.6215 0.37899 0.21414 0.0
C1091 C 0.6409 0.37747 0.18249 0.0
C1092 C 0.66303 0.37287 0.20539 0.0
C1093 C 0.66543 0.36967 0.25907 0.0
C1094 C 0.59761 0.38383 0.1913 0.0
C1095 C 0.68417 0.37123 0.17313 0.0
C1096 C 0.63028 0.36481 0.04076 0.0
C1097 C 0.63186 0.38664 1.01728 0.0
C1098 C 0.63327 0.36158 0.09437 0.0
C1099 C 0.63803 0.3806 0.12541 0.0
C1100 C 0.63993 0.40262 0.10191 0.0
C1101 C 0.63682 0.40537 0.04825 0.0
C1102 C 0.63107 0.33781 0.11787 0.0
C1103 C 0.64512 0.42333 0.1335 0.0
H1104 H 0.60944 0.37643 0.29169 0.0
H1105 H 0.68243 0.36632 0.2764 0.0
H1106 H 0.59765 0.40022 0.16878 0.0
H1107 H 0.59248 0.37025 0.16437 0.0
H1108 H 0.58437 0.38479 0.22117 0.0
H1109 H 0.70018 0.36771 0.19683 0.0
H1110 H 0.68178 0.35742 0.14519 0.0
H1111 H 0.68658 0.3874 0.1506 0.0
H1112 H 0.62616 0.35028 1.01731 0.0
H1113 H 0.6384 0.42225 0.03044 0.0
H1114 H 0.61675 0.3373 0.14527 0.0
H1115 H 0.64718 0.33314 0.14002 0.0
H1116 H 0.62765 0.32478 0.08843 0.0
H1117 H 0.6314 0.42551 0.1618 0.0
H1118 H 0.64627 0.43924 0.10936 0.0
H1119 H 0.66171 0.42092 0.1556 0.0
C1120 C 0.35859 0.89495 1.01578 0.0
C1121 C 0.37905 0.88694 0.0406 0.0
C1122 C 0.35467 0.8926 0.96251 0.0
C1123 C 0.37156 0.8819 0.93321 0.0
C1124 C 0.39219 0.87366 0.95809 0.0
C1125 C 0.39567 0.87628 1.01132 0.0
C1126 C 0.33247 0.90166 0.93752 0.0
C1127 C 0.41058 0.86201 0.92846 0.0
C1128 C 0.35332 0.85654 0.80492 0.0
C1129 C 0.36082 0.87326 0.76931 0.0
C1130 C 0.35654 0.85922 0.85819 0.0
C1131 C 0.36761 0.87909 0.87665 0.0
C1132 C 0.37522 0.89606 0.84102 0.0
C1133 C 0.37175 0.89295 0.78787 0.0
C1134 C 0.34824 0.84065 0.89476 0.0
C1135 C 0.38708 0.91751 0.85905 0.0
H1136 H 0.34576 0.90344 0.03789 0.0
H1137 H 0.41138 0.86973 0.0302 0.0
H1138 H 0.33645 0.91463 0.90708 0.0
H1139 H 0.32283 0.88763 0.91868 0.0
H1140 H 0.32108 0.90955 0.96558 0.0
H1141 H 0.42569 0.85666 0.9534 0.0
H1142 H 0.4032 0.8467 0.90989 0.0
H1143 H 0.41673 0.87367 0.89736 0.0
H1144 H 0.34521 0.84109 0.79111 0.0
H1145 H 0.37737 0.9061 0.76083 0.0
H1146 H 0.33591 0.84783 0.92176 0.0
H1147 H 0.3631 0.83362 0.9182 0.0
H1148 H 0.33958 0.82643 0.87433 0.0
H1149 H 0.3756 0.9268 0.88461 0.0
H1150 H 0.39179 0.92917 0.82655 0.0
H1151 H 0.40305 0.91302 0.8819 0.0
C1152 C 0.11327 0.69714 0.21323 0.0
C1153 C 0.1304 0.68979 0.18049 0.0
C1154 C 0.11065 0.72049 0.22329 0.0
C1155 C 0.12542 0.73682 0.19985 0.0
C1156 C 0.14353 0.72931 0.16917 0.0
C1157 C 0.14581 0.70599 0.16001 0.0
C1158 C 0.09134 0.72775 0.25682 0.0
C1159 C 0.15972 0.74605 0.14337 0.0
C1160 C 0.1052 0.7956 0.15512 0.0
C1161 C 0.11802 0.8098 0.18792 0.0
C1162 C 0.10616 0.77179 0.16109 0.0
C1163 C 0.12032 0.76176 0.20097 0.0
C1164 C 0.1319 0.77599 0.23679 0.0
C1165 C 0.13061 0.79994 0.22986 0.0
C1166 C 0.09337 0.7574 0.12213 0.0
C1167 C 0.14689 0.76597 0.28029 0.0
H1168 H 0.10139 0.68479 0.22965 0.0
H1169 H 0.15935 0.70056 0.13527 0.0
H1170 H 0.09752 0.74086 0.28395 0.0
H1171 H 0.07721 0.73553 0.23235 0.0
H1172 H 0.08407 0.71309 0.27916 0.0
H1173 H 0.17409 0.73739 0.12443 0.0
H1174 H 0.14992 0.75648 0.11377 0.0
H1175 H 0.16725 0.75793 0.17181 0.0
H1176 H 0.09509 0.80313 0.12311 0.0
H1177 H 0.14051 0.81082 0.25542 0.0
H1178 H 0.08338 0.7437 0.14174 0.0
H1179 H 0.10602 0.74904 0.09764 0.0
H1180 H 0.08128 0.76769 0.09678 0.0
H1181 H 0.13829 0.75104 0.29877 0.0
H1182 H 0.15102 0.77873 0.30997 0.0
H1183 H 0.16339 0.75992 0.26488 0.0
C1184 C 0.54565 0.8907 0.41643 0.0
C1185 C 0.56196 0.87911 0.44852 0.0
C1186 C 0.52199 0.88978 0.4263 0.0
C1187 C 0.51427 0.87658 0.46893 0.0
C1188 C 0.53075 0.86577 0.5031 0.0
C1189 C 0.55452 0.86732 0.4927 0.0
C1190 C 0.50517 0.90196 0.38928 0.0
C1191 C 0.52323 0.85147 0.5488 0.0
C1192 C 0.45036 0.8859 0.49179 0.0
C1193 C 0.44037 0.86986 0.45886 0.0
C1194 C 0.4746 0.88731 0.49889 0.0
C1195 C 0.48896 0.87208 0.47308 0.0
C1196 C 0.47869 0.85456 0.44367 0.0
C1197 C 0.45457 0.85385 0.43646 0.0
C1198 C 0.4848 0.90628 0.5304 0.0
C1199 C 0.49322 0.83766 0.41625 0.0
H1200 H 0.55139 0.90018 0.3827 0.0
H1201 H 0.5671 0.85837 0.51761 0.0
H1202 H 0.49496 0.88922 0.36738 0.0
H1203 H 0.4928 0.91226 0.41057 0.0
H1204 H 0.51407 0.91342 0.36137 0.0
H1205 H 0.53795 0.84737 0.57602 0.0
H1206 H 0.50964 0.86035 0.56969 0.0
H1207 H 0.51567 0.83521 0.53524 0.0
H1208 H 0.43939 0.89836 0.50896 0.0
H1209 H 0.44682 0.84128 0.4114 0.0
H1210 H 0.49122 0.92001 0.50417 0.0
H1211 H 0.49975 0.90005 0.55466 0.0
H1212 H 0.47181 0.91377 0.5555 0.0
H1213 H 0.50156 0.84644 0.38327 0.0
H1214 H 0.48271 0.82323 0.40137 0.0
H1215 H 0.50718 0.83068 0.44238 0.0
C1216 C 0.3829 0.29624 0.72199 0.0
C1217 C 0.36962 0.30594 0.68097 0.0
C1218 C 0.3836 0.27237 0.7304 0.0
C1219 C 0.37036 0.2581 0.69755 0.0
C1220 C 0.35553 0.26809 0.65876 0.0
C1221 C 0.35556 0.29183 0.65061 0.0
C1222 C 0.39973 0.26241 0.7719 0.0
C1223 C 0.34074 0.25362 0.62351 0.0
C1224 C 0.39076 0.20041 0.65643 0.0
C1225 C 0.37599 0.18549 0.68278 0.0
C1226 C 0.39029 0.22397 0.66409 0.0
C1227 C 0.37424 0.23294 0.69812 0.0
C1228 C 0.3601 0.21781 0.72698 0.0
C1229 C 0.3613 0.19414 0.7193 0.0
C1230 C 0.40604 0.23936 0.63327 0.0
C1231 C 0.34262 0.22667 0.76323 0.0
H1232 H 0.39382 0.30716 0.74543 0.0
H1233 H 0.34503 0.29936 0.61928 0.0
H1234 H 0.39118 0.24835 0.79363 0.0
H1235 H 0.41509 0.25511 0.75391 0.0
H1236 H 0.40577 0.27551 0.7993 0.0
H1237 H 0.32806 0.26402 0.59995 0.0
H1238 H 0.35198 0.24453 0.5971 0.0
H1239 H 0.33118 0.24051 0.64608 0.0
H1240 H 0.40235 0.19369 0.62865 0.0
H1241 H 0.34981 0.18258 0.73958 0.0
H1242 H 0.41487 0.25182 0.65854 0.0
H1243 H 0.39562 0.24921 0.60373 0.0
H1244 H 0.41939 0.22959 0.61348 0.0
H1245 H 0.35035 0.24017 0.7874 0.0
H1246 H 0.33574 0.21286 0.7887 0.0
H1247 H 0.32792 0.23446 0.74055 0.0
C1248 C 0.95929 0.10699 0.93221 0.0
C1249 C 0.9453 0.12263 0.95632 0.0
C1250 C 0.98336 0.10716 0.93991 0.0
C1251 C 0.99378 0.1237 0.97181 0.0
C1252 C 0.97958 0.13843 0.9994 0.0
C1253 C 0.95534 0.13764 0.99152 0.0
C1254 C 0.9977 0.09084 0.91034 0.0
C1255 C 0.98999 0.15623 0.0339 0.0
C1256 C 0.05895 0.11604 0.99006 0.0
C1257 C 0.06678 0.12866 0.94735 0.0
C1258 C 0.03523 0.11535 1.00099 0.0
C1259 C 0.01918 0.12778 0.96874 0.0
C1260 C 0.02736 0.14187 0.92798 0.0
C1261 C 0.05098 0.14199 0.91762 0.0
C1262 C 0.02724 0.10015 0.0448 0.0
C1263 C 0.01098 0.1557 0.89301 0.0
H1264 H 0.95141 0.09523 0.90536 0.0
H1265 H 0.94447 0.14977 1.01003 0.0
H1266 H 0.00652 0.1004 0.87909 0.0
H1267 H 0.01129 0.08277 0.93585 0.0
H1268 H 0.98698 0.07717 0.89281 0.0
H1269 H 0.97705 0.16307 0.06004 0.0
H1270 H 0.00481 0.14912 0.05731 0.0
H1271 H 0.99665 0.17063 1.00988 0.0
H1272 H 0.07113 0.10574 1.01323 0.0
H1273 H 0.05702 0.15212 0.88511 0.0
H1274 H 0.01941 0.0844 0.02912 0.0
H1275 H 0.01375 0.10876 0.06658 0.0
H1276 H 0.04178 0.09514 0.07172 0.0
H1277 H 1.00038 0.14402 0.86901 0.0
H1278 H 0.0203 0.1677 0.86702 0.0
H1279 H 0.99895 0.16564 0.91596 0.0
C1280 C 0.15467 0.29637 0.88887 0.0
C1281 C 0.14316 0.31219 0.85571 0.0
C1282 C 0.15394 0.27295 0.87957 0.0
C1283 C 0.14096 0.26503 0.83655 0.0
C1284 C 0.13025 0.28101 0.80142 0.0
C1285 C 0.13165 0.3045 0.81119 0.0
C1286 C 0.16604 0.2566 0.91752 0.0
C1287 C 0.11611 0.27326 0.75539 0.0
C1288 C 0.14967 0.20183 0.81356 0.0
C1289 C 0.13291 0.19222 0.84539 0.0
C1290 C 0.15172 0.22572 0.80737 0.0
C1291 C 0.13636 0.24008 0.83288 0.0
C1292 C 0.11823 0.23022 0.86146 0.0
C1293 C 0.11693 0.20644 0.86789 0.0
C1294 C 0.17138 0.23553 0.77692 0.0
C1295 C 0.10115 0.24479 0.88843 0.0
H1296 H 0.16392 0.3023 0.92288 0.0
H1297 H 0.12274 0.31671 0.78546 0.0
H1298 H 0.15296 0.24678 0.93941 0.0
H1299 H 0.17652 0.24415 0.89702 0.0
H1300 H 0.17755 0.26557 0.94538 0.0
H1301 H 0.11196 0.28763 0.72778 0.0
H1302 H 0.12539 0.25986 0.73507 0.0
H1303 H 0.09962 0.26568 0.76852 0.0
H1304 H 0.16212 0.19079 0.79644 0.0
H1305 H 0.10383 0.19893 0.89215 0.0
H1306 H 0.18503 0.24191 0.80385 0.0
H1307 H 0.16542 0.25022 0.75208 0.0
H1308 H 0.1792 0.22256 0.75251 0.0
H1309 H 0.11003 0.25306 0.92146 0.0
H1310 H 0.08638 0.23462 0.90314 0.0
H1311 H 0.09427 0.25855 0.86201 0.0
C1312 C 0.04257 0.89765 0.10944 0.0
C1313 C 0.05743 0.88378 0.08265 0.0
C1314 C 0.01857 0.8968 0.10062 0.0
C1315 C 0.0091 0.88135 0.06474 0.0
C1316 C 0.02414 0.86851 0.03478 0.0
C1317 C 0.04827 0.86999 0.04389 0.0
C1318 C 1.00329 0.91115 0.13281 0.0
C1319 C 0.01477 0.85191 0.99608 0.0
C1320 C 0.95189 0.85926 0.11178 0.0
C1321 C 0.93605 0.87337 0.08419 0.0
C1322 C 0.97561 0.86038 0.10254 0.0
C1323 C 0.98381 0.87631 0.0653 0.0
C1324 C 0.96774 0.88952 0.0348 0.0
C1325 C 0.94393 0.88779 0.04442 0.0
C1326 C 0.99203 0.84565 0.13542 0.0
C1327 C 0.97574 0.90667 0.99473 0.0
H1328 H 0.04972 0.90853 0.13901 0.0
H1329 H 0.05978 0.85922 0.02327 0.0
H1330 H 0.98972 0.91981 0.1083 0.0
H1331 H 0.99445 0.89998 0.16129 0.0
H1332 H 0.01331 0.9243 0.15398 0.0
H1333 H 0.02823 0.84673 0.96925 0.0
H1334 H 0.00845 0.83636 1.01667 0.0
H1335 H 0.9999 0.85938 0.97343 0.0
H1336 H 0.9458 0.84783 0.14205 0.0
H1337 H 0.93172 0.89875 0.02302 0.0
H1338 H 1.00188 0.85651 0.16271 0.0
H1339 H 0.00473 0.83725 0.11118 0.0
H1340 H 0.98279 0.83226 0.15797 0.0
H1341 H 0.98275 0.92194 1.01411 0.0
H1342 H 0.96135 0.91222 0.96791 0.0
H1343 H 0.98983 0.89952 0.97219 0.0
C1344 C 0.39699 0.70305 0.36093 0.0
C1345 C 0.37999 0.68872 0.33987 0.0
C1346 C 0.39531 0.72683 0.35492 0.0
C1347 C 0.37579 0.73655 0.32827 0.0
C1348 C 0.35937 0.72208 0.30381 0.0
C1349 C 0.36178 0.6982 0.30958 0.0
C1350 C 0.41349 0.74152 0.38078 0.0
C1351 C 0.33828 0.73172 0.27531 0.0
C1352 C 0.35887 0.79175 0.38854 0.0
C1353 C 0.36856 0.80822 0.35544 0.0
C1354 C 0.35977 0.76846 0.37807 0.0
C1355 C 0.37098 0.76134 0.33371 0.0
C1356 C 0.37979 0.77795 0.29868 0.0
C1357 C 0.37832 0.80129 0.3098 0.0
C1358 C 0.34978 0.75141 0.4161 0.0
C1359 C 0.39194 0.77106 0.25114 0.0
H1360 H 0.41115 0.69563 0.38411 0.0
H1361 H 0.34853 0.68707 0.29366 0.0
H1362 H 0.41887 0.75565 0.35439 0.0
H1363 H 0.40616 0.7493 0.41503 0.0
H1364 H 0.42907 0.73154 0.39348 0.0
H1365 H 0.32959 0.71881 0.2509 0.0
H1366 H 0.32574 0.73754 0.30352 0.0
H1367 H 0.34292 0.74675 0.25076 0.0
H1368 H 0.35095 0.79704 0.42345 0.0
H1369 H 0.38582 0.81398 0.28406 0.0
H1370 H 0.36402 0.74164 0.43605 0.0
H1371 H 0.33848 0.73899 0.39586 0.0
H1372 H 0.33953 0.75978 0.4456 0.0
H1373 H 0.40915 0.76382 0.26246 0.0
H1374 H 0.39453 0.78579 0.224 0.0
H1375 H 0.38201 0.75761 0.2309 0.0
C1376 C 0.5523 0.13241 0.54357 0.0
C1377 C 0.56241 0.1171 0.58 0.0
C1378 C 0.52806 0.13312 0.5357 0.0
C1379 C 0.51393 0.11793 0.56448 0.0
C1380 C 0.52442 0.10112 0.59777 0.0
C1381 C 0.54849 0.1011 0.60551 0.0
C1382 C 0.51757 0.15126 0.49984 0.0
C1383 C 0.51014 0.0843 0.62854 0.0
C1384 C 0.45649 0.13514 0.61643 0.0
C1385 C 0.4408 0.12222 0.58713 0.0
C1386 C 0.48017 0.13522 0.60664 0.0
C1387 C 0.48851 0.12171 0.56702 0.0
C1388 C 0.47259 0.10962 0.53531 0.0
C1389 C 0.44881 0.11015 0.54555 0.0
C1390 C 0.49641 0.14868 0.64094 0.0
C1391 C 0.48078 0.09499 0.49282 0.0
H1392 H 0.56313 0.14482 0.52395 0.0
H1393 H 0.55642 0.08908 0.63329 0.0
H1394 H 0.50287 0.14426 0.47674 0.0
H1395 H 0.51072 0.16523 0.52281 0.0
H1396 H 0.53051 0.15864 0.47336 0.0
H1397 H 0.52092 0.07049 0.64707 0.0
H1398 H 0.50129 0.09339 0.65912 0.0
H1399 H 0.49658 0.07643 0.60362 0.0
H1400 H 0.4503 0.14484 0.64805 0.0
H1401 H 0.4367 0.10017 0.52276 0.0
H1402 H 0.50851 0.15901 0.61748 0.0
H1403 H 0.50695 0.13675 0.66593 0.0
H1404 H 0.48699 0.16029 0.66594 0.0
H1405 H 0.49423 0.104 0.47043 0.0
H1406 H 0.46632 0.09009 0.46618 0.0
H1407 H 0.48871 0.07917 0.50989 0.0
C1408 C 0.86186 0.20915 0.87347 0.0
C1409 C 0.87606 0.19456 0.84682 0.0
C1410 C 0.86316 0.2329 0.86619 0.0
C1411 C 0.87944 0.24244 0.83209 0.0
C1412 C 0.89284 0.22772 0.80258 0.0
C1413 C 0.89086 0.20384 0.81003 0.0
C1414 C 0.84817 0.2478 0.8978 0.0
C1415 C 0.91042 0.23717 0.76594 0.0
C1416 C 0.87303 0.30682 0.81115 0.0
C1417 C 0.88703 0.31477 0.8519 0.0
C1418 C 0.87141 0.28328 0.80173 0.0
C1419 C 0.88434 0.26747 0.8334 0.0
C1420 C 0.8998 0.2757 0.87197 0.0
C1421 C 0.90079 0.29916 0.881 0.0
C1422 C 0.85467 0.27527 0.76037 0.0
C1423 C 0.91422 0.25958 0.90617 0.0
H1424 H 0.85022 0.20194 0.90158 0.0
H1425 H 0.90192 0.19255 0.78957 0.0
H1426 H 0.8591 0.25638 0.9273 0.0
H1427 H 0.8397 0.26132 0.87309 0.0
H1428 H 0.83455 0.23783 0.91771 0.0
H1429 H 0.91645 0.22397 0.7397 0.0
H1430 H 0.90313 0.25175 0.74258 0.0
H1431 H 0.92563 0.24361 0.78828 0.0
H1432 H 0.86231 0.31881 0.78858 0.0
H1433 H 0.91189 0.30525 0.91211 0.0
H1434 H 0.8391 0.26793 0.77854 0.0
H1435 H 0.8625 0.26165 0.73795 0.0
H1436 H 0.84906 0.28948 0.73358 0.0
H1437 H 0.90278 0.24987 0.93245 0.0
H1438 H 0.92738 0.26876 0.92985 0.0
H1439 H 0.92319 0.24703 0.88276 0.0
C1440 C 0.61968 0.802 0.31178 0.0
C1441 C 0.63314 0.81071 0.35248 0.0
C1442 C 0.61884 0.77829 0.30368 0.0
C1443 C 0.6321 0.76318 0.33648 0.0
C1444 C 0.64697 0.77224 0.37514 0.0
C1445 C 0.6471 0.7958 0.38296 0.0
C1446 C 0.60266 0.76935 0.26229 0.0
C1447 C 0.6618 0.75693 0.41038 0.0
C1448 C 0.61298 0.70375 0.37755 0.0
C1449 C 0.62817 0.68995 0.35142 0.0
C1450 C 0.61278 0.72753 0.36959 0.0
C1451 C 0.62857 0.73792 0.33549 0.0
C1452 C 0.64304 0.72395 0.30668 0.0
C1453 C 0.64252 0.70003 0.31467 0.0
C1454 C 0.59671 0.74163 0.40043 0.0
C1455 C 0.66026 0.73429 0.27031 0.0
H1456 H 0.60885 0.81352 0.28821 0.0
H1457 H 0.65779 0.80255 0.41402 0.0
H1458 H 0.61128 0.75606 0.24026 0.0
H1459 H 0.58744 0.76126 0.2804 0.0
H1460 H 0.59642 0.78317 0.23514 0.0
H1461 H 0.67431 0.76678 0.43434 0.0
H1462 H 0.65058 0.74682 0.43641 0.0
H1463 H 0.67158 0.7447 0.38773 0.0
H1464 H 0.60167 0.69596 0.40558 0.0
H1465 H 0.65436 0.6894 0.29457 0.0
H1466 H 0.58774 0.75468 0.37528 0.0
H1467 H 0.60691 0.75078 0.43027 0.0
H1468 H 0.58348 0.73095 0.41986 0.0
H1469 H 0.65222 0.74828 0.24629 0.0
H1470 H 0.66734 0.72138 0.2447 0.0
H1471 H 0.67486 0.74178 0.2929 0.0
C1472 C 0.86068 0.69813 0.22687 0.0
C1473 C 0.87598 0.6899 0.19109 0.0
C1474 C 0.85859 0.72177 0.23416 0.0
C1475 C 0.87244 0.7373 0.20566 0.0
C1476 C 0.88915 0.72879 0.17256 0.0
C1477 C 0.89051 0.70525 0.16526 0.0
C1478 C 0.84046 0.73012 0.26948 0.0
C1479 C 0.90462 0.74464 0.14217 0.0
C1480 C 0.85171 0.79524 0.15606 0.0
C1481 C 0.86486 0.81004 0.18667 0.0
C1482 C 0.85267 0.77154 0.16468 0.0
C1483 C 0.86757 0.7623 0.20425 0.0
C1484 C 0.87989 0.77722 0.23728 0.0
C1485 C 0.87822 0.80102 0.22835 0.0
C1486 C 0.83883 0.75636 0.12917 0.0
C1487 C 0.89606 0.76808 0.27964 0.0
H1488 H 0.84936 0.68626 0.24672 0.0
H1489 H 0.90255 0.69886 0.13804 0.0
H1490 H 0.84743 0.74402 0.29354 0.0
H1491 H 0.82563 0.73722 0.24606 0.0
H1492 H 0.83393 0.71616 0.29504 0.0
H1493 H 0.91855 0.73529 0.1233 0.0
H1494 H 0.89412 0.75398 0.11191 0.0
H1495 H 0.9127 0.75752 0.1675 0.0
H1496 H 0.8411 0.80222 0.12423 0.0
H1497 H 0.88844 0.81246 0.25201 0.0
H1498 H 0.82955 0.743 0.15163 0.0
H1499 H 0.8507 0.74757 0.10361 0.0
H1500 H 0.82598 0.76615 0.10473 0.0
H1501 H 0.88789 0.75377 0.30135 0.0
H1502 H 0.90131 0.78152 0.30693 0.0
H1503 H 0.91188 0.76132 0.26249 0.0
C1504 C 0.62092 0.19546 0.7279 0.0
C1505 C 0.63151 0.18837 0.68337 0.0
C1506 C 0.61987 0.21882 0.73929 0.0
C1507 C 0.63007 0.23529 0.70586 0.0
C1508 C 0.64193 0.22795 0.66256 0.0
C1509 C 0.64229 0.20468 0.65163 0.0
C1510 C 0.60687 0.22594 0.78549 0.0
C1511 C 0.65346 0.24477 0.62633 0.0
C1512 C 0.60818 0.29531 0.67891 0.0
C1513 C 0.62551 0.30843 0.7027 0.0
C1514 C 0.60827 0.27141 0.68385 0.0
C1515 C 0.62653 0.26028 0.71217 0.0
C1516 C 0.64322 0.27354 0.73926 0.0
C1517 C 0.64238 0.29756 0.73457 0.0
C1518 C 0.58983 0.25807 0.6552 0.0
C1519 C 0.66306 0.26241 0.76953 0.0
H1520 H 0.61258 0.18288 0.75255 0.0
H1521 H 0.65087 0.19926 0.61763 0.0
H1522 H 0.61705 0.23855 0.80779 0.0
H1523 H 0.59044 0.23434 0.77238 0.0
H1524 H 0.60268 0.21115 0.8113 0.0
H1525 H 0.66385 0.23616 0.59745 0.0
H1526 H 0.6401 0.2554 0.60555 0.0
H1527 H 0.66497 0.25645 0.64822 0.0
H1528 H 0.59503 0.30375 0.65451 0.0
H1529 H 0.6559 0.30772 0.75265 0.0
H1530 H 0.58314 0.24396 0.68001 0.0
H1531 H 0.59741 0.25033 0.62119 0.0
H1532 H 0.57508 0.26905 0.64167 0.0
H1533 H 0.65696 0.24753 0.79281 0.0
H1534 H 0.67201 0.27457 0.79545 0.0
H1535 H 0.67582 0.25602 0.74247 0.0
C1536 C 0.96003 0.373 0.99441 0.0
C1537 C 0.95071 0.38643 0.95335 0.0
C1538 C 0.9842 0.37138 1.00287 0.0
C1539 C 0.99915 0.38375 0.96996 0.0
C1540 C 0.98959 0.39876 0.93124 0.0
C1541 C 0.96554 0.39973 0.92313 0.0
C1542 C 0.99367 0.35518 0.04449 0.0
C1543 C 0.00479 0.41265 0.89586 0.0
C1544 C 0.06434 0.39045 0.98961 0.0
C1545 C 0.07229 0.3756 0.95283 0.0
C1546 C 0.04051 0.39235 0.99842 0.0
C1547 C 0.02446 0.37883 0.97028 0.0
C1548 C 0.0327 0.36254 0.9362 0.0
C1549 C 0.05646 0.3613 0.92755 0.0
C1550 C 0.03246 0.40998 0.03489 0.0
C1551 C 0.01631 0.34746 0.90603 0.0
H1552 H 0.94856 0.36268 1.01775 0.0
H1553 H 0.95832 0.41037 0.89178 0.0
H1554 H 1.00017 0.33957 0.02666 0.0
H1555 H 0.00846 0.36299 0.06582 0.0
H1556 H 0.98025 0.35003 0.07221 0.0
H1557 H 0.99475 0.4255 0.87218 0.0
H1558 H 0.01848 0.42162 0.91835 0.0
H1559 H 0.01351 0.4011 0.86957 0.0
H1560 H 0.07656 0.40159 1.00911 0.0
H1561 H 0.0626 0.34958 0.89955 0.0
H1562 H 0.01845 0.40303 0.05901 0.0
H1563 H 0.02532 0.42489 1.01239 0.0
H1564 H 0.04685 0.41604 0.06041 0.0
H1565 H 1.00352 0.33935 0.93174 0.0
H1566 H 0.02556 0.33383 0.88623 0.0
H1567 H 0.00655 0.35799 0.87655 0.0
C1568 C 0.45595 0.61037 0.489 0.0
C1569 C 0.44718 0.62451 0.44858 0.0
C1570 C 0.47996 0.60892 0.49954 0.0
C1571 C 0.49529 0.62219 0.46936 0.0
C1572 C 0.48622 0.63785 0.43139 0.0
C1573 C 0.46232 0.63865 0.42118 0.0
C1574 C 0.48893 0.59202 0.54027 0.0
C1575 C 0.50186 0.65265 0.39888 0.0
C1576 C 0.56003 0.62967 0.49303 0.0
C1577 C 0.56849 0.61601 0.45461 0.0
C1578 C 0.53611 0.63071 0.50138 0.0
C1579 C 0.5206 0.6175 0.47107 0.0
C1580 C 0.52946 0.60214 0.43565 0.0
C1581 C 0.55326 0.60178 0.42749 0.0
C1582 C 0.52737 0.64726 0.53952 0.0
C1583 C 0.51366 0.58738 0.40322 0.0
H1584 H 0.44422 0.59942 0.51023 0.0
H1585 H 0.45549 0.64988 0.39045 0.0
H1586 H 0.49563 0.57675 0.52146 0.0
H1587 H 0.50345 0.59942 0.56322 0.0
H1588 H 0.47514 0.58641 0.56664 0.0
H1589 H 0.49205 0.66584 0.37567 0.0
H1590 H 0.515 0.66132 0.42349 0.0
H1591 H 0.51123 0.64181 0.37222 0.0
H1592 H 0.57187 0.64068 0.51399 0.0
H1593 H 0.5599 0.59096 0.39828 0.0
H1594 H 0.51305 0.63962 0.56168 0.0
H1595 H 0.52045 0.66266 0.51846 0.0
H1596 H 0.54135 0.65272 0.56681 0.0
H1597 H 0.50066 0.57865 0.42739 0.0
H1598 H 0.52338 0.57426 0.38285 0.0
H1599 H 0.50412 0.59827 0.37405 0.0
C1600 C 0.45857 0.35336 0.60456 0.0
C1601 C 0.44331 0.369 0.57992 0.0
C1602 C 0.48249 0.35492 0.59801 0.0
C1603 C 0.49144 0.37289 0.56682 0.0
C1604 C 0.47596 0.38771 0.53872 0.0
C1605 C 0.45196 0.38548 0.54535 0.0
C1606 C 0.49826 0.33845 0.62796 0.0
C1607 C 0.48476 0.40707 0.5051 0.0
C1608 C 0.54871 0.39258 0.62396 0.0
C1609 C 0.56461 0.38113 0.59452 0.0
C1610 C 0.5249 0.39146 0.6126 0.0
C1611 C 0.51667 0.37819 0.5712 0.0
C1612 C 0.53273 0.36777 0.53922 0.0
C1613 C 0.55663 0.3695 0.55109 0.0
C1614 C 0.50849 0.40324 0.64721 0.0
C1615 C 0.52468 0.3535 0.49477 0.0
H1616 H 0.45185 0.34043 0.63088 0.0
H1617 H 0.44016 0.39765 0.52638 0.0
H1618 H 0.51179 0.33191 0.60301 0.0
H1619 H 0.50714 0.34745 0.65995 0.0
H1620 H 0.48861 0.32369 0.64455 0.0
H1621 H 0.47096 0.41402 0.47835 0.0
H1622 H 0.49107 0.42105 0.52977 0.0
H1623 H 0.49951 0.40146 0.48238 0.0
H1624 H 0.55488 0.40189 0.65712 0.0
H1625 H 0.56891 0.36062 0.52828 0.0
H1626 H 0.49912 0.39025 0.67054 0.0
H1627 H 0.49538 0.41318 0.62397 0.0
H1628 H 0.51767 0.41495 0.67383 0.0
H1629 H 0.51816 0.33685 0.50983 0.0
H1630 H 0.53891 0.35018 0.46831 0.0
H1631 H 0.5102 0.36197 0.47265 0.0
C1632 C 0.04994 0.60237 0.08961 0.0
C1633 C 0.06382 0.62146 0.07853 0.0
C1634 C 0.02579 0.60347 0.08404 0.0
C1635 C 0.01518 0.62422 0.06708 0.0
C1636 C 0.02916 0.64294 0.05145 0.0
C1637 C 0.05342 0.64134 0.0573 0.0
C1638 C 0.01163 0.58299 0.1007 0.0
C1639 C 0.01852 0.66525 0.03249 0.0
C1640 C 0.94958 0.62101 0.04859 0.0
C1641 C 0.94249 0.62687 0.09756 0.0
C1642 C 0.9732 0.62118 0.03678 0.0
C1643 C 0.98998 0.6273 0.07487 0.0
C1644 C 0.98276 0.63426 0.12341 0.0
C1645 C 0.95919 0.63397 0.13407 0.0
C1646 C 0.98023 0.61387 0.98444 0.0
C1647 C 1.00001 0.64101 0.1652 0.0
H1648 H 0.05791 0.58677 0.10504 0.0
H1649 H 0.06406 0.65611 0.04833 0.0
H1650 H 1.00342 0.58651 0.13762 0.0
H1651 H 0.99756 0.57961 0.07192 0.0
H1652 H 0.02236 0.56735 0.10628 0.0
H1653 H 0.03125 0.67634 1.01252 0.0
H1654 H 1.0035 0.66224 1.00588 0.0
H1655 H 0.0121 0.67454 0.0657 0.0
H1656 H 0.93678 0.61565 0.02003 0.0
H1657 H 0.95392 0.63891 0.17176 0.0
H1658 H 0.98797 0.59656 0.98786 0.0
H1659 H 0.99354 0.62559 0.96874 0.0
H1660 H 0.96523 0.61334 0.95666 0.0
H1661 H 0.01079 0.62604 0.17742 0.0
H1662 H 0.99147 0.64744 0.19955 0.0
H1663 H 0.01182 0.65448 0.15046 0.0
C1664 C 0.13767 0.5536 0.01968 0.0
C1665 C 0.13353 0.55562 0.07229 0.0
C1666 C 0.13766 0.53227 0.99664 0.0
C1667 C 0.13316 0.51231 0.02664 0.0
C1668 C 0.12878 0.51415 0.07971 0.0
C1669 C 0.12918 0.53579 0.10203 0.0
C1670 C 0.14281 0.53112 0.9402 0.0
C1671 C 0.1237 0.49326 0.11284 0.0
C1672 C 0.11604 0.4592 0.95277 0.0
C1673 C 0.13701 0.44721 0.95343 0.0
C1674 C 0.11434 0.48017 0.97748 0.0
C1675 C 0.13418 0.48951 1.00266 0.0
C1676 C 0.15543 0.47757 1.00283 0.0
C1677 C 0.15653 0.45655 0.9786 0.0
C1678 C 0.09132 0.49227 0.97691 0.0
C1679 C 0.1771 0.48708 0.02826 0.0
H1680 H 0.1412 0.56876 0.99627 0.0
H1681 H 0.12581 0.5372 0.14254 0.0
H1682 H 0.15854 0.52068 0.93541 0.0
H1683 H 0.12832 0.52266 0.91918 0.0
H1684 H 0.1456 0.54828 0.92206 0.0
H1685 H 0.11968 0.49763 0.15283 0.0
H1686 H 0.10883 0.48375 0.09588 0.0
H1687 H 0.13882 0.48161 0.11418 0.0
H1688 H 0.10082 0.45194 0.934 0.0
H1689 H 0.17284 0.44742 0.97921 0.0
H1690 H 0.09274 0.50915 0.95674 0.0
H1691 H 0.08629 0.49543 1.01687 0.0
H1692 H 0.07734 0.48233 0.95754 0.0
H1693 H 0.18139 0.50389 1.01013 0.0
H1694 H 0.19222 0.47557 0.02536 0.0
H1695 H 0.17421 0.48991 0.06952 0.0
C1696 C 0.70171 0.89337 0.29717 0.0
C1697 C 0.69728 0.87815 0.33855 0.0
C1698 C 0.72234 0.89239 0.27048 0.0
C1699 C 0.73918 0.87581 0.28533 0.0
C1700 C 0.73492 0.86032 0.32695 0.0
C1701 C 0.714 0.86167 0.35311 0.0
C1702 C 0.72617 0.90931 0.22654 0.0
C1703 C 0.7525 0.84241 0.34393 0.0
C1704 C 0.78496 0.8644 0.18683 0.0
C1705 C 0.80326 0.87833 0.20398 0.0
C1706 C 0.76419 0.86289 0.21365 0.0
C1707 C 0.76166 0.87561 0.25864 0.0
C1708 C 0.78016 0.88946 0.27638 0.0
C1709 C 0.80063 0.89066 0.24894 0.0
C1710 C 0.74484 0.84793 0.19351 0.0
C1711 C 0.7782 0.90338 0.324 0.0
H1712 H 0.68896 0.90616 0.28527 0.0
H1713 H 0.71071 0.84973 0.38469 0.0
H1714 H 0.74156 0.92003 0.23542 0.0
H1715 H 0.72969 0.90014 0.19095 0.0
H1716 H 0.71105 0.92072 0.21879 0.0
H1717 H 0.7463 0.83118 0.37583 0.0
H1718 H 0.75663 0.83166 0.31108 0.0
H1719 H 0.76884 0.85076 0.35687 0.0
H1720 H 0.78684 0.85466 0.15247 0.0
H1721 H 0.81464 0.90138 0.26297 0.0
H1722 H 0.72958 0.85861 0.18217 0.0
H1723 H 0.73937 0.83568 0.22416 0.0
H1724 H 0.74994 0.8382 0.1597 0.0
H1725 H 0.76428 0.91626 0.31782 0.0
H1726 H 0.79458 0.91239 0.33419 0.0
H1727 H 0.7734 0.8922 0.35717 0.0
C1728 C 0.36571 0.45005 0.53767 0.0
C1729 C 0.3816 0.4425 0.57653 0.0
C1730 C 0.36737 0.47189 0.51453 0.0
C1731 C 0.38534 0.48676 0.53049 0.0
C1732 C 0.40161 0.47929 0.56935 0.0
C1733 C 0.39956 0.45722 0.59193 0.0
C1734 C 0.34963 0.47913 0.47331 0.0
C1735 C 0.421 0.49469 0.5874 0.0
C1736 C 0.39666 0.53714 0.43838 0.0
C1737 C 0.38334 0.55435 0.45929 0.0
C1738 C 0.39819 0.51524 0.46211 0.0
C1739 C 0.38621 0.51047 0.50792 0.0
C1740 C 0.37333 0.52798 0.52996 0.0
C1741 C 0.37202 0.54961 0.5054 0.0
C1742 C 0.41207 0.49702 0.43737 0.0
C1743 C 0.36033 0.52368 0.57878 0.0
H1744 H 0.3518 0.43887 0.52512 0.0
H1745 H 0.41199 0.45154 0.62165 0.0
H1746 H 0.33974 0.49401 0.48613 0.0
H1747 H 0.35838 0.48456 0.43763 0.0
H1748 H 0.3372 0.46524 0.46398 0.0
H1749 H 0.43275 0.48606 0.61648 0.0
H1750 H 0.43131 0.50056 0.55425 0.0
H1751 H 0.41372 0.51012 0.60449 0.0
H1752 H 0.40559 0.54065 0.40299 0.0
H1753 H 0.36191 0.5628 0.5224 0.0
H1754 H 0.40029 0.48333 0.42367 0.0
H1755 H 0.42447 0.48903 0.46593 0.0
H1756 H 0.42183 0.50388 0.4042 0.0
H1757 H 0.34623 0.51116 0.57171 0.0
H1758 H 0.3526 0.53953 0.59309 0.0
H1759 H 0.37205 0.51621 0.60941 0.0
C1760 C 0.80434 0.11357 0.79026 0.0
C1761 C 0.80908 0.12741 0.83253 0.0
C1762 C 0.78279 0.11418 0.76396 0.0
C1763 C 0.76536 0.12899 0.78013 0.0
C1764 C 0.77002 0.14324 0.82233 0.0
C1765 C 0.79184 0.1423 0.84805 0.0
C1766 C 0.77858 0.09865 0.71927 0.0
C1767 C 0.75184 0.15926 0.84067 0.0
C1768 C 0.7151 0.14025 0.68418 0.0
C1769 C 0.69865 0.12432 0.70126 0.0
C1770 C 0.73669 0.14246 0.71027 0.0
C1771 C 0.74192 0.12842 0.75444 0.0
C1772 C 0.72524 0.11259 0.77226 0.0
C1773 C 0.7039 0.11073 0.74553 0.0
C1774 C 0.75404 0.15953 0.6901 0.0
C1775 C 0.7301 0.09725 0.81909 0.0
H1776 H 0.8175 0.10208 0.77753 0.0
H1777 H 0.79535 0.15316 0.88039 0.0
H1778 H 0.76449 0.08639 0.72824 0.0
H1779 H 0.77288 0.10878 0.68445 0.0
H1780 H 0.79426 0.08881 0.71018 0.0
H1781 H 0.75849 0.17 0.87237 0.0
H1782 H 0.74546 0.17059 0.80836 0.0
H1783 H 0.73678 0.14929 0.85444 0.0
H1784 H 0.71117 0.15095 0.65031 0.0
H1785 H 0.69131 0.09849 0.75951 0.0
H1786 H 0.76957 0.15045 0.67741 0.0
H1787 H 0.75985 0.17102 0.72113 0.0
H1788 H 0.74686 0.17009 0.65719 0.0
H1789 H 0.74469 0.08565 0.81175 0.0
H1790 H 0.71485 0.08671 0.82956 0.0
H1791 H 0.73537 0.10761 0.85251 0.0
C1792 C 0.8937 0.54009 0.10192 0.0
C1793 C 0.87689 0.5561 0.08492 0.0
C1794 C 0.89551 0.51884 0.07834 0.0
C1795 C 0.88012 0.51342 0.03687 0.0
C1796 C 0.8632 0.52954 1.01953 0.0
C1797 C 0.86182 0.55059 0.04362 0.0
C1798 C 0.91381 0.50213 0.09793 0.0
C1799 C 0.84636 0.52448 0.97569 0.0
C1800 C 0.89382 0.46594 0.94508 0.0
C1801 C 0.88017 0.44788 0.96397 0.0
C1802 C 0.89437 0.48722 0.96897 0.0
C1803 C 0.88094 0.49058 1.01277 0.0
C1804 C 0.8673 0.47238 0.03219 0.0
C1805 C 0.86708 0.45134 1.00767 0.0
C1806 C 0.90916 0.5062 0.94708 0.0
C1807 C 0.85264 0.47518 0.0786 0.0
H1808 H 0.90552 0.54418 0.1335 0.0
H1809 H 0.84878 0.56276 0.02987 0.0
H1810 H 0.9055 0.4862 0.11241 0.0
H1811 H 0.92499 0.49741 0.06606 0.0
H1812 H 0.92489 0.50914 0.1294 0.0
H1813 H 0.83459 0.53905 0.96594 0.0
H1814 H 0.85593 0.52034 0.94089 0.0
H1815 H 0.83571 0.50933 0.98595 0.0
H1816 H 0.90411 0.46347 0.91162 0.0
H1817 H 0.85653 0.43757 0.02296 0.0
H1818 H 0.92132 0.51254 0.97732 0.0
H1819 H 0.89804 0.52078 0.93388 0.0
H1820 H 0.9193 0.50063 0.91416 0.0
H1821 H 0.86357 0.48079 0.11174 0.0
H1822 H 0.84362 0.45913 0.09002 0.0
H1823 H 0.83946 0.48863 0.07026 0.0
C1824 C 0.20428 0.1094 0.79172 0.0
C1825 C 0.20057 0.12405 0.83245 0.0
C1826 C 0.22489 0.11009 0.76478 0.0
C1827 C 0.24247 0.12579 0.7787 0.0
C1828 C 0.23888 0.14079 0.81948 0.0
C1829 C 0.21796 0.13975 0.8459 0.0
C1830 C 0.22797 0.09372 0.72175 0.0
C1831 C 0.25724 0.15775 0.8355 0.0
C1832 C 0.3031 0.10832 0.74427 0.0
C1833 C 0.30662 0.12112 0.69858 0.0
C1834 C 0.28266 0.11027 0.77138 0.0
C1835 C 0.26506 0.12532 0.75245 0.0
C1836 C 0.26853 0.13854 0.70674 0.0
C1837 C 0.2893 0.13633 0.68038 0.0
C1838 C 0.27976 0.09586 0.81993 0.0
C1839 C 0.25013 0.15472 0.68525 0.0
H1840 H 0.191 0.09724 0.78062 0.0
H1841 H 0.21523 0.15126 0.87695 0.0
H1842 H 0.23221 0.10328 0.68579 0.0
H1843 H 0.24266 0.08206 0.73158 0.0
H1844 H 0.21224 0.08324 0.71418 0.0
H1845 H 0.25142 0.16891 0.86629 0.0
H1846 H 0.27306 0.14854 0.84963 0.0
H1847 H 0.26212 0.16863 0.80191 0.0
H1848 H 0.31639 0.09668 0.75923 0.0
H1849 H 0.29189 0.14641 0.64542 0.0
H1850 H 0.26519 0.08371 0.81434 0.0
H1851 H 0.27541 0.10683 0.85223 0.0
H1852 H 0.29559 0.08595 0.8311 0.0
H1853 H 0.23437 0.14495 0.67406 0.0
H1854 H 0.25595 0.16472 0.65106 0.0
H1855 H 0.24514 0.16675 0.71508 0.0
C1856 C 0.62024 0.5376 0.44596 0.0
C1857 C 0.63549 0.55439 0.46442 0.0
C1858 C 0.61903 0.51587 0.47048 0.0
C1859 C 0.63341 0.51076 0.5145 0.0
C1860 C 0.64875 0.52765 0.53338 0.0
C1861 C 0.6496 0.54918 0.50822 0.0
C1862 C 0.60244 0.49832 0.44915 0.0
C1863 C 0.66444 0.52294 0.58005 0.0
C1864 C 0.61903 0.4607 0.6055 0.0
C1865 C 0.63409 0.44374 0.58952 0.0
C1866 C 0.61838 0.4825 0.58107 0.0
C1867 C 0.63316 0.48751 0.53976 0.0
C1868 C 0.64836 0.47047 0.52349 0.0
C1869 C 0.64862 0.44887 0.54843 0.0
C1870 C 0.60191 0.5002 0.59953 0.0
C1871 C 0.6645 0.47508 0.47984 0.0
H1872 H 0.60916 0.54143 0.41241 0.0
H1873 H 0.66141 0.56196 0.52312 0.0
H1874 H 0.61218 0.4832 0.43715 0.0
H1875 H 0.59053 0.49236 0.47938 0.0
H1876 H 0.59197 0.50513 0.41557 0.0
H1877 H 0.67497 0.53808 0.59067 0.0
H1878 H 0.65402 0.5176 0.61343 0.0
H1879 H 0.67632 0.50867 0.57256 0.0
H1880 H 0.60764 0.45693 0.63694 0.0
H1881 H 0.66032 0.43597 0.53553 0.0
H1882 H 0.59027 0.50628 0.56724 0.0
H1883 H 0.61178 0.51523 0.61325 0.0
H1884 H 0.59116 0.49349 0.63126 0.0
H1885 H 0.65445 0.48052 0.44455 0.0
H1886 H 0.67495 0.45987 0.47115 0.0
H1887 H 0.67647 0.48926 0.48962 0.0
C1888 C 0.28684 0.86049 0.35588 0.0
C1889 C 0.30467 0.874 0.33563 0.0
C1890 C 0.26513 0.85898 0.32998 0.0
C1891 C 0.26114 0.87122 0.28268 0.0
C1892 C 0.27921 0.88451 0.26163 0.0
C1893 C 0.30065 0.88576 0.28828 0.0
C1894 C 0.2463 0.84463 0.35371 0.0
C1895 C 0.27574 0.89787 0.21139 0.0
C1896 C 0.20952 0.85733 0.19341 0.0
C1897 C 0.19372 0.87434 0.20547 0.0
C1898 C 0.23142 0.85579 0.21878 0.0
C1899 C 0.23765 0.87165 0.257 0.0
C1900 C 0.2217 0.88872 0.26946 0.0
C1901 C 0.20004 0.88985 0.24367 0.0
C1902 C 0.24797 0.83733 0.20446 0.0
C1903 C 0.2276 0.90603 0.30978 0.0
H1904 H 0.28977 0.85121 0.39217 0.0
H1905 H 0.3143 0.89609 0.27182 0.0
H1906 H 0.23175 0.85575 0.36395 0.0
H1907 H 0.23934 0.8323 0.32557 0.0
H1908 H 0.25255 0.83502 0.38891 0.0
H1909 H 0.29193 0.90625 0.19863 0.0
H1910 H 0.26932 0.88646 0.18078 0.0
H1911 H 0.26243 0.91124 0.21562 0.0
H1912 H 0.2048 0.8452 0.16422 0.0
H1913 H 0.18803 0.90306 0.25359 0.0
H1914 H 0.25329 0.82692 0.23915 0.0
H1915 H 0.26389 0.84518 0.18892 0.0
H1916 H 0.24028 0.82586 0.17526 0.0
H1917 H 0.23238 0.8972 0.34692 0.0
H1918 H 0.21301 0.91783 0.31604 0.0
H1919 H 0.2428 0.91631 0.29801 0.0
C1920 C 0.64248 0.95012 0.50028 0.0
C1921 C 0.62831 0.94535 0.45696 0.0
C1922 C 0.64159 0.97127 0.524 0.0
C1923 C 0.62616 0.98829 0.50411 0.0
C1924 C 0.61159 0.9836 0.46077 0.0
C1925 C 0.61281 0.96218 0.4377 0.0
C1926 C 0.65747 0.97548 0.57004 0.0
C1927 C 0.59489 0.00131 0.43845 0.0
C1928 C 0.61373 0.03721 0.59288 0.0
C1929 C 0.6293 0.05401 0.57574 0.0
C1930 C 0.61208 0.01592 0.56918 0.0
C1931 C 0.6263 0.01131 0.52736 0.0
C1932 C 0.64182 0.0283 0.50956 0.0
C1933 C 0.64313 0.04934 0.53388 0.0
C1934 C 0.59533 0.99825 0.58933 0.0
C1935 C 0.65736 0.02413 0.46523 0.0
H1936 H 0.65442 0.93728 0.51594 0.0
H1937 H 0.60169 0.95867 0.40452 0.0
H1938 H 0.66955 0.98969 0.5609 0.0
H1939 H 0.64725 0.98069 0.60306 0.0
H1940 H 0.66782 0.96016 0.58204 0.0
H1941 H 0.58406 0.99472 0.40609 0.0
H1942 H 0.58336 0.00713 0.46868 0.0
H1943 H 0.60461 0.01648 0.42433 0.0
H1944 H 0.60285 0.04065 0.62487 0.0
H1945 H 0.65513 0.06217 0.51991 0.0
H1946 H 0.60499 0.98304 0.60462 0.0
H1947 H 0.58362 0.99249 0.55763 0.0
H1948 H 0.58466 0.00484 0.62038 0.0
H1949 H 0.66942 0.0099 0.47562 0.0
H1950 H 0.66771 0.03945 0.45449 0.0
H1951 H 0.64688 0.01897 0.43102 0.0
C1952 C 0.22289 0.36383 0.85225 0.0
C1953 C 0.20547 0.37922 0.8355 0.0
C1954 C 0.24348 0.362 0.82517 0.0
C1955 C 0.24672 0.37589 0.78037 0.0
C1956 C 0.22915 0.39133 0.76321 0.0
C1957 C 0.20883 0.39281 0.79087 0.0
C1958 C 0.26185 0.34533 0.84464 0.0
C1959 C 0.23192 0.40655 0.71583 0.0
C1960 C 0.30756 0.39072 0.73983 0.0
C1961 C 0.31048 0.3765 0.69798 0.0
C1962 C 0.2871 0.39036 0.76732 0.0
C1963 C 0.26896 0.37538 0.75289 0.0
C1964 C 0.27171 0.36089 0.71085 0.0
C1965 C 0.29244 0.36164 0.6838 0.0
C1966 C 0.28485 0.40622 0.81161 0.0
C1967 C 0.25273 0.34467 0.69439 0.0
H1968 H 0.22041 0.35313 0.88636 0.0
H1969 H 0.19551 0.4047 0.77722 0.0
H1970 H 0.26615 0.33352 0.81384 0.0
H1971 H 0.27794 0.3547 0.85519 0.0
H1972 H 0.25633 0.33511 0.87878 0.0
H1973 H 0.21627 0.41704 0.70649 0.0
H1974 H 0.24689 0.41818 0.72168 0.0
H1975 H 0.23555 0.39608 0.68222 0.0
H1976 H 0.32133 0.40226 0.75137 0.0
H1977 H 0.29458 0.35046 0.65188 0.0
H1978 H 0.28086 0.39629 0.84723 0.0
H1979 H 0.27028 0.41821 0.8034 0.0
H1980 H 0.30085 0.41633 0.81895 0.0
H1981 H 0.24804 0.33329 0.72731 0.0
H1982 H 0.25785 0.33397 0.66214 0.0
H1983 H 0.23698 0.35445 0.68216 0.0
C1984 C 0.89179 0.96149 0.09614 0.0
C1985 C 0.8743 0.94653 0.07937 0.0
C1986 C 0.89411 0.98346 0.07324 0.0
C1987 C 0.8786 0.99062 0.03259 0.0
C1988 C 0.86113 0.97547 1.01515 0.0
C1989 C 0.85919 0.95371 0.03868 0.0
C1990 C 0.91295 0.99913 0.09294 0.0
C1991 C 0.84422 0.98237 0.97198 0.0
C1992 C 0.86585 0.05359 1.00667 0.0
C1993 C 0.87844 0.05852 0.96235 0.0
C1994 C 0.86633 0.0318 0.03062 0.0
C1995 C 0.87968 0.01431 1.00986 0.0
C1996 C 0.8928 0.01921 0.96572 0.0
C1997 C 0.89205 0.04126 0.94252 0.0
C1998 C 0.85211 0.02738 0.07762 0.0
C1999 C 0.90724 0.00102 0.9424 0.0
H2000 H 0.90363 0.9561 0.12728 0.0
H2001 H 0.84569 0.94232 0.025 0.0
H2002 H 0.92386 0.00504 0.06082 0.0
H2003 H 0.90512 0.01451 0.10906 0.0
H2004 H 0.92422 0.9907 0.12323 0.0
H2005 H 0.83221 0.96828 0.96155 0.0
H2006 H 0.83382 0.99715 0.98343 0.0
H2007 H 0.8537 0.98783 0.93729 0.0
H2008 H 0.85543 0.06678 0.0228 0.0
H2009 H 0.90194 0.04488 0.90852 0.0
H2010 H 0.86318 0.02019 0.10974 0.0
H2011 H 0.83845 0.01458 0.069 0.0
H2012 H 0.84369 0.04312 0.09067 0.0
H2013 H 0.91926 0.99324 0.97205 0.0
H2014 H 0.91749 0.00785 0.90996 0.0
H2015 H 0.89582 0.98717 0.92807 0.0
C2016 C 0.20319 0.61719 0.25084 0.0
C2017 C 0.2005 0.62301 0.1982 0.0
C2018 C 0.22498 0.61731 0.27601 0.0
C2019 C 0.24471 0.62367 0.24816 0.0
C2020 C 0.2422 0.62968 0.19503 0.0
C2021 C 0.22011 0.62909 0.17051 0.0
C2022 C 0.22689 0.61036 0.33241 0.0
C2023 C 0.26283 0.63682 0.16423 0.0
C2024 C 0.29765 0.64123 0.3289 0.0
C2025 C 0.31104 0.6213 0.32949 0.0
C2026 C 0.27631 0.6425 0.30136 0.0
C2027 C 0.26799 0.62324 0.27465 0.0
C2028 C 0.28137 0.60303 0.27556 0.0
C2029 C 0.30278 0.60238 0.30257 0.0
C2030 C 0.26267 0.66444 0.30077 0.0
C2031 C 0.27295 0.58196 0.24853 0.0
H2032 H 0.18818 0.61227 0.27257 0.0
H2033 H 0.21815 0.63374 0.12996 0.0
H2034 H 0.23848 0.59535 0.33791 0.0
H2035 H 0.23469 0.62441 0.35479 0.0
H2036 H 0.20982 0.60595 0.34855 0.0
H2037 H 0.2579 0.6417 0.12375 0.0
H2038 H 0.27169 0.65152 0.1823 0.0
H2039 H 0.27552 0.62265 0.16416 0.0
H2040 H 0.30409 0.65601 0.34901 0.0
H2041 H 0.31302 0.58689 0.30291 0.0
H2042 H 0.24586 0.66147 0.31929 0.0
H2043 H 0.25878 0.67036 0.2605 0.0
H2044 H 0.27207 0.67823 0.32117 0.0
H2045 H 0.25635 0.57609 0.26469 0.0
H2046 H 0.28559 0.56771 0.25236 0.0
H2047 H 0.2696 0.58599 0.20704 0.0
C2048 C 0.39236 0.95866 0.44571 0.0
C2049 C 0.37554 0.94269 0.46078 0.0
C2050 C 0.39411 0.98011 0.46873 0.0
C2051 C 0.37869 0.98572 0.50773 0.0
C2052 C 0.3619 0.96956 0.52343 0.0
C2053 C 0.36052 0.94836 0.49984 0.0
C2054 C 0.41224 0.99689 0.4509 0.0
C2055 C 0.34508 0.97478 0.56474 0.0
C2056 C 0.39066 0.03454 0.59903 0.0
C2057 C 0.37617 0.05175 0.57755 0.0
C2058 C 0.39221 0.01315 0.576 0.0
C2059 C 0.37904 0.00888 0.53032 0.0
C2060 C 0.36481 0.02636 0.50794 0.0
C2061 C 0.36352 0.04747 0.53176 0.0
C2062 C 0.40757 0.99494 0.60109 0.0
C2063 C 0.35049 0.02263 0.45929 0.0
H2064 H 0.40414 0.95444 0.41587 0.0
H2065 H 0.34752 0.9362 0.5122 0.0
H2066 H 0.40373 0.0124 0.43371 0.0
H2067 H 0.42316 0.00237 0.48416 0.0
H2068 H 0.42359 0.9896 0.42194 0.0
H2069 H 0.33368 0.96002 0.57407 0.0
H2070 H 0.35463 0.9797 0.60039 0.0
H2071 H 0.33403 0.98948 0.55197 0.0
H2072 H 0.40061 0.03768 0.63414 0.0
H2073 H 0.35245 0.06064 0.51429 0.0
H2074 H 0.41968 0.98838 0.57281 0.0
H2075 H 0.39684 0.98031 0.61435 0.0
H2076 H 0.41779 0.00134 0.63458 0.0
H2077 H 0.36164 0.01665 0.42853 0.0
H2078 H 0.34139 0.03839 0.44506 0.0
H2079 H 0.33737 0.00914 0.46646 0.0
C2080 C 0.80445 0.61374 0.25113 0.0
C2081 C 0.80773 0.62601 0.20465 0.0
C2082 C 0.78399 0.61568 0.27807 0.0
C2083 C 0.76612 0.63015 0.25812 0.0
C2084 C 0.7694 0.643 0.21182 0.0
C2085 C 0.79022 0.64083 0.18565 0.0
C2086 C 0.7813 0.60169 0.32731 0.0
C2087 C 0.75069 0.65858 0.18932 0.0
C2088 C 0.70607 0.61181 0.29689 0.0
C2089 C 0.70171 0.62624 0.33764 0.0
C2090 C 0.72657 0.61351 0.26975 0.0
C2091 C 0.74335 0.63003 0.28353 0.0
C2092 C 0.73899 0.64499 0.32396 0.0
C2093 C 0.71818 0.64293 0.35058 0.0
C2094 C 0.73047 0.59717 0.22703 0.0
C2095 C 0.75648 0.66284 0.33967 0.0
H2096 H 0.81794 0.60247 0.26677 0.0
H2097 H 0.79266 0.65053 0.15009 0.0
H2098 H 0.77627 0.61282 0.35879 0.0
H2099 H 0.76727 0.58893 0.32192 0.0
H2100 H 0.79744 0.5925 0.33955 0.0
H2101 H 0.75656 0.66873 0.15538 0.0
H2102 H 0.7354 0.6483 0.17737 0.0
H2103 H 0.74495 0.67047 0.21874 0.0
H2104 H 0.69345 0.59897 0.28602 0.0
H2105 H 0.7149 0.65428 0.38163 0.0
H2106 H 0.7454 0.58593 0.23763 0.0
H2107 H 0.73475 0.60676 0.19115 0.0
H2108 H 0.71511 0.58625 0.21899 0.0
H2109 H 0.77246 0.65439 0.35539 0.0
H2110 H 0.74984 0.6742 0.36925 0.0
H2111 H 0.76139 0.67345 0.30568 0.0
C2112 C 0.11289 0.0412 0.93925 0.0
C2113 C 0.12962 0.0568 0.95678 0.0
C2114 C 0.11083 0.01937 0.96291 0.0
C2115 C 0.12586 0.01298 1.00503 0.0
C2116 C 0.1426 0.02874 0.02315 0.0
C2117 C 0.14426 0.05037 0.9989 0.0
C2118 C 0.09275 0.00304 0.94253 0.0
C2119 C 0.15901 0.02265 0.06782 0.0
C2120 C 0.1119 0.96274 0.09569 0.0
C2121 C 0.12597 0.9455 0.07728 0.0
C2122 C 0.11126 0.98467 0.0719 0.0
C2123 C 0.12502 0.98948 0.02875 0.0
C2124 C 0.13903 0.97208 1.00971 0.0
C2125 C 0.13933 0.95039 0.0341 0.0
C2126 C 0.09607 0.00277 0.0933 0.0
C2127 C 0.15404 0.97647 0.96394 0.0
H2128 H 0.10141 0.04601 0.907 0.0
H2129 H 0.15719 0.06225 1.01313 0.0
H2130 H 0.10127 0.9877 0.9279 0.0
H2131 H 0.08144 0.99715 0.97396 0.0
H2132 H 0.08177 0.01089 0.91095 0.0
H2133 H 0.17049 0.03712 0.07844 0.0
H2134 H 0.14912 0.01727 0.10198 0.0
H2135 H 0.16998 0.00801 0.05792 0.0
H2136 H 0.10141 0.95915 0.12875 0.0
H2137 H 0.1502 0.93724 1.0192 0.0
H2138 H 0.08419 0.00991 0.06257 0.0
H2139 H 0.10694 0.01707 0.10737 0.0
H2140 H 0.08561 0.99605 0.12551 0.0
H2141 H 0.14334 0.98299 0.93051 0.0
H2142 H 0.16323 0.96087 0.95259 0.0
H2143 H 0.1671 0.98979 0.97305 0.0
C2144 C 0.70539 0.38341 0.76443 0.0
C2145 C 0.70069 0.37157 0.71907 0.0
C2146 C 0.72725 0.38251 0.78938 0.0
C2147 C 0.74508 0.36952 0.76858 0.0
C2148 C 0.74037 0.35701 0.72358 0.0
C2149 C 0.71819 0.35813 0.69939 0.0
C2150 C 0.73142 0.39606 0.83732 0.0
C2151 C 0.75894 0.34296 0.70022 0.0
C2152 C 0.80595 0.39048 0.80045 0.0
C2153 C 0.81312 0.37558 0.84121 0.0
C2154 C 0.78418 0.38822 0.7757 0.0
C2155 C 0.769 0.37063 0.79191 0.0
C2156 C 0.77618 0.35528 0.83249 0.0
C2157 C 0.79816 0.35793 0.85668 0.0
C2158 C 0.77725 0.40503 0.73276 0.0
C2159 C 0.76049 0.33629 0.85086 0.0
H2160 H 0.69196 0.39362 0.78054 0.0
H2161 H 0.71472 0.34883 0.66459 0.0
H2162 H 0.73868 0.38488 0.86901 0.0
H2163 H 0.74432 0.40973 0.82976 0.0
H2164 H 0.71535 0.40409 0.85047 0.0
H2165 H 0.75211 0.33287 0.66757 0.0
H2166 H 0.77287 0.35438 0.68612 0.0
H2167 H 0.76692 0.33111 0.72974 0.0
H2168 H 0.81735 0.4041 0.78776 0.0
H2169 H 0.80357 0.34622 0.88781 0.0
H2170 H 0.76215 0.41515 0.74415 0.0
H2171 H 0.77191 0.39579 0.69771 0.0
H2172 H 0.79149 0.41701 0.72296 0.0
H2173 H 0.74478 0.34365 0.86726 0.0
H2174 H 0.76912 0.32496 0.88062 0.0
H2175 H 0.75467 0.32582 0.81803 0.0
loop_
_geom_bond_atom_site_label_1
_geom_bond_atom_site_label_2
_geom_bond_distance
_geom_bond_site_symmetry_2
_ccdc_geom_bond_type
Dy0 O3 2.300 1_556 S
Dy0 O5 2.403 . S
Dy0 O6 2.387 . S
Dy0 O8 2.336 1_556 S
Dy0 O10 2.297 1_556 S
Dy0 O14 2.270 1_556 S
Dy0 C22 2.747 . S
Dy1 O4 2.298 . S
Dy1 O7 2.275 . S
Dy1 O9 2.307 . S
Dy1 O11 2.395 . S
Dy1 O12 2.379 . S
Dy1 O15 2.339 . S
Dy1 C31 2.738 . S
C2 O14 1.254 . S
C2 O15 1.257 . S
O3 Dy0 2.300 1_554 S
O3 C13 1.266 . S
O4 Dy1 2.298 . S
O4 C13 1.236 . S
O5 Dy0 2.403 . S
O5 C22 1.255 . S
O6 Dy0 2.387 . S
O6 C22 1.249 . S
O7 Dy1 2.275 . S
O7 C23 1.254 . S
O8 Dy0 2.336 1_554 S
O8 C23 1.257 . S
O9 Dy1 2.307 . S
O9 C24 1.266 . S
O10 Dy0 2.297 1_554 S
O10 C24 1.236 . S
O11 Dy1 2.395 . S
O11 C31 1.255 . S
O12 Dy1 2.379 . S
O12 C31 1.249 . S
C13 O3 1.266 . S
C13 O4 1.236 . S
O14 Dy0 2.270 1_554 S
O14 C2 1.254 . S
O15 Dy1 2.339 . S
O15 C2 1.257 . S
C16 C19 1.344 . S
C16 C20 1.328 . S
C16 C22 1.516 . S
C17 C18 1.304 . S
C17 C21 1.323 . S
C18 C17 1.304 . S
C18 C19 1.371 . S
C18 H32 0.930 . S
C19 C16 1.344 . S
C19 C18 1.371 . S
C19 H33 0.931 . S
C20 C16 1.328 . S
C20 C21 1.433 . S
C20 H34 0.931 . S
C21 C17 1.323 . S
C21 C20 1.433 . S
C21 H35 0.933 . S
C22 Dy0 2.747 . S
C22 O5 1.255 . S
C22 O6 1.249 . S
C22 C16 1.516 . S
C23 O7 1.254 . S
C23 O8 1.257 . S
C24 O9 1.266 . S
C24 O10 1.236 . S
C25 C28 1.344 . S
C25 C29 1.328 . S
C25 C31 1.516 . S
C26 C27 1.304 . S
C26 C30 1.323 . S
C27 C26 1.304 . S
C27 C28 1.371 . S
C27 H36 0.930 . S
C28 C25 1.344 . S
C28 C27 1.371 . S
C28 H37 0.931 . S
C29 C25 1.328 . S
C29 C30 1.433 . S
C29 H38 0.931 . S
C30 C26 1.323 . S
C30 C29 1.433 . S
C30 H39 0.933 . S
C31 Dy1 2.738 . S
C31 O11 1.255 . S
C31 O12 1.249 . S
C31 C25 1.516 . S
H32 C18 0.930 . S
H33 C19 0.931 . S
H34 C20 0.931 . S
H35 C21 0.933 . S
H36 C27 0.930 . S
H37 C28 0.931 . S
H38 C29 0.931 . S
H39 C30 0.933 . S
Dy40 O43 2.307 . S
Dy40 O45 2.395 . S
Dy40 O46 2.379 . S
Dy40 O48 2.339 . S
Dy40 O50 2.298 . S
Dy40 O54 2.275 . S
Dy40 C62 2.738 . S
Dy41 O44 2.298 . S
Dy41 O47 2.275 . S
Dy41 O49 2.307 . S
Dy41 O51 2.395 . S
Dy41 O52 2.379 . S
Dy41 O55 2.339 . S
Dy41 C71 2.738 . S
C42 O54 1.254 . S
C42 O55 1.257 . S
O43 Dy40 2.307 . S
O43 C53 1.266 . S
O44 Dy41 2.298 . S
O44 C53 1.236 . S
O45 Dy40 2.395 . S
O45 C62 1.255 . S
O46 Dy40 2.379 . S
O46 C62 1.249 . S
O47 Dy41 2.275 . S
O47 C63 1.254 . S
O48 Dy40 2.339 . S
O48 C63 1.257 . S
O49 Dy41 2.307 . S
O49 C64 1.266 . S
O50 Dy40 2.298 . S
O50 C64 1.236 . S
O51 Dy41 2.395 . S
O51 C71 1.255 . S
O52 Dy41 2.379 . S
O52 C71 1.249 . S
C53 O43 1.266 . S
C53 O44 1.236 . S
O54 Dy40 2.275 . S
O54 C42 1.254 . S
O55 Dy41 2.339 . S
O55 C42 1.257 . S
C56 C59 1.344 . S
C56 C60 1.328 . S
C56 C62 1.516 . S
C57 C58 1.304 . S
C57 C61 1.323 . S
C58 C57 1.304 . S
C58 C59 1.371 . S
C58 H72 0.930 . S
C59 C56 1.344 . S
C59 C58 1.371 . S
C59 H73 0.931 . S
C60 C56 1.328 . S
C60 C61 1.433 . S
C60 H74 0.931 . S
C61 C57 1.323 . S
C61 C60 1.433 . S
C61 H75 0.933 . S
C62 Dy40 2.738 . S
C62 O45 1.255 . S
C62 O46 1.249 . S
C62 C56 1.516 . S
C63 O47 1.254 . S
C63 O48 1.257 . S
C64 O49 1.266 . S
C64 O50 1.236 . S
C65 C68 1.344 . S
C65 C69 1.328 . S
C65 C71 1.516 . S
C66 C67 1.304 . S
C66 C70 1.323 . S
C67 C66 1.304 . S
C67 C68 1.371 . S
C67 H76 0.930 . S
C68 C65 1.344 . S
C68 C67 1.371 . S
C68 H77 0.931 . S
C69 C65 1.328 . S
C69 C70 1.433 . S
C69 H78 0.931 . S
C70 C66 1.323 . S
C70 C69 1.433 . S
C70 H79 0.933 . S
C71 Dy41 2.738 . S
C71 O51 1.255 . S
C71 O52 1.249 . S
C71 C65 1.516 . S
H72 C58 0.930 . S
H73 C59 0.931 . S
H74 C60 0.931 . S
H75 C61 0.933 . S
H76 C67 0.930 . S
H77 C68 0.931 . S
H78 C69 0.931 . S
H79 C70 0.933 . S
Dy80 O83 2.307 . S
Dy80 O85 2.395 . S
Dy80 O86 2.379 . S
Dy80 O88 2.339 . S
Dy80 O90 2.298 . S
Dy80 O94 2.275 . S
Dy80 C102 2.738 . S
Dy81 O84 2.298 . S
Dy81 O87 2.275 . S
Dy81 O89 2.307 . S
Dy81 O91 2.395 . S
Dy81 O92 2.379 . S
Dy81 O95 2.339 . S
Dy81 C111 2.738 . S
C82 O94 1.254 . S
C82 O95 1.257 . S
O83 Dy80 2.307 . S
O83 C93 1.266 . S
O84 Dy81 2.298 . S
O84 C93 1.236 . S
O85 Dy80 2.395 . S
O85 C102 1.255 . S
O86 Dy80 2.379 . S
O86 C102 1.249 . S
O87 Dy81 2.275 . S
O87 C103 1.254 . S
O88 Dy80 2.339 . S
O88 C103 1.257 . S
O89 Dy81 2.307 . S
O89 C104 1.266 . S
O90 Dy80 2.298 . S
O90 C104 1.236 . S
O91 Dy81 2.395 . S
O91 C111 1.255 . S
O92 Dy81 2.379 . S
O92 C111 1.249 . S
C93 O83 1.266 . S
C93 O84 1.236 . S
O94 Dy80 2.275 . S
O94 C82 1.254 . S
O95 Dy81 2.339 . S
O95 C82 1.257 . S
C96 C99 1.344 . S
C96 C100 1.328 . S
C96 C102 1.516 . S
C97 C98 1.304 . S
C97 C101 1.323 . S
C98 C97 1.304 . S
C98 C99 1.371 . S
C98 H112 0.930 . S
C99 C96 1.344 . S
C99 C98 1.371 . S
C99 H113 0.931 . S
C100 C96 1.328 . S
C100 C101 1.433 . S
C100 H114 0.931 . S
C101 C97 1.323 . S
C101 C100 1.433 . S
C101 H115 0.933 . S
C102 Dy80 2.738 . S
C102 O85 1.255 . S
C102 O86 1.249 . S
C102 C96 1.516 . S
C103 O87 1.254 . S
C103 O88 1.257 . S
C104 O89 1.266 . S
C104 O90 1.236 . S
C105 C108 1.344 . S
C105 C109 1.328 . S
C105 C111 1.516 . S
C106 C107 1.304 . S
C106 C110 1.323 . S
C107 C106 1.304 . S
C107 C108 1.371 . S
C107 H116 0.930 . S
C108 C105 1.344 . S
C108 C107 1.371 . S
C108 H117 0.931 . S
C109 C105 1.328 . S
C109 C110 1.433 . S
C109 H118 0.931 . S
C110 C106 1.323 . S
C110 C109 1.433 . S
C110 H119 0.933 . S
C111 Dy81 2.738 . S
C111 O91 1.255 . S
C111 O92 1.249 . S
C111 C105 1.516 . S
H112 C98 0.930 . S
H113 C99 0.931 . S
H114 C100 0.931 . S
H115 C101 0.933 . S
H116 C107 0.930 . S
H117 C108 0.931 . S
H118 C109 0.931 . S
H119 C110 0.933 . S
Dy120 O123 2.307 . S
Dy120 O125 2.395 . S
Dy120 O126 2.379 . S
Dy120 O128 2.339 . S
Dy120 O130 2.298 . S
Dy120 O134 2.275 . S
Dy120 C142 2.738 . S
Dy121 O124 2.298 . S
Dy121 O127 2.275 . S
Dy121 O129 2.307 . S
Dy121 O131 2.395 1_556 S
Dy121 O132 2.379 1_556 S
Dy121 O135 2.339 . S
Dy121 C151 2.738 1_556 S
C122 O134 1.254 . S
C122 O135 1.257 . S
O123 Dy120 2.307 . S
O123 C133 1.266 . S
O124 Dy121 2.298 . S
O124 C133 1.236 . S
O125 Dy120 2.395 . S
O125 C142 1.255 . S
O126 Dy120 2.379 . S
O126 C142 1.249 . S
O127 Dy121 2.275 . S
O127 C143 1.254 . S
O128 Dy120 2.339 . S
O128 C143 1.257 . S
O129 Dy121 2.307 . S
O129 C144 1.266 . S
O130 Dy120 2.298 . S
O130 C144 1.236 . S
O131 Dy121 2.395 1_554 S
O131 C151 1.255 . S
O132 Dy121 2.379 1_554 S
O132 C151 1.249 . S
C133 O123 1.266 . S
C133 O124 1.236 . S
O134 Dy120 2.275 . S
O134 C122 1.254 . S
O135 Dy121 2.339 . S
O135 C122 1.257 . S
C136 C139 1.344 . S
C136 C140 1.328 . S
C136 C142 1.516 . S
C137 C138 1.304 . S
C137 C141 1.323 . S
C138 C137 1.304 . S
C138 C139 1.371 . S
C138 H152 0.930 . S
C139 C136 1.344 . S
C139 C138 1.371 . S
C139 H153 0.931 . S
C140 C136 1.328 . S
C140 C141 1.433 . S
C140 H154 0.931 . S
C141 C137 1.323 . S
C141 C140 1.433 . S
C141 H155 0.933 . S
C142 Dy120 2.738 . S
C142 O125 1.255 . S
C142 O126 1.249 . S
C142 C136 1.516 . S
C143 O127 1.254 . S
C143 O128 1.257 . S
C144 O129 1.266 . S
C144 O130 1.236 . S
C145 C148 1.344 . S
C145 C149 1.328 . S
C145 C151 1.516 . S
C146 C147 1.304 . S
C146 C150 1.323 . S
C147 C146 1.304 . S
C147 C148 1.371 . S
C147 H156 0.930 . S
C148 C145 1.344 . S
C148 C147 1.371 . S
C148 H157 0.931 . S
C149 C145 1.328 . S
C149 C150 1.433 . S
C149 H158 0.931 . S
C150 C146 1.323 . S
C150 C149 1.433 . S
C150 H159 0.933 . S
C151 Dy121 2.738 1_554 S
C151 O131 1.255 . S
C151 O132 1.249 . S
C151 C145 1.516 . S
H152 C138 0.930 . S
H153 C139 0.931 . S
H154 C140 0.931 . S
H155 C141 0.933 . S
H156 C147 0.930 . S
H157 C148 0.931 . S
H158 C149 0.931 . S
H159 C150 0.933 . S
Dy160 O163 2.307 . S
Dy160 O165 2.395 . S
Dy160 O166 2.379 . S
Dy160 O168 2.339 . S
Dy160 O170 2.298 . S
Dy160 O174 2.275 . S
Dy160 C182 2.738 . S
Dy161 O164 2.298 . S
Dy161 O167 2.275 . S
Dy161 O169 2.307 . S
Dy161 O171 2.395 . S
Dy161 O172 2.380 1_556 S
Dy161 O175 2.339 . S
Dy161 C191 2.738 1_556 S
C162 O174 1.254 . S
C162 O175 1.257 . S
O163 Dy160 2.307 . S
O163 C173 1.266 . S
O164 Dy161 2.298 . S
O164 C173 1.236 . S
O165 Dy160 2.395 . S
O165 C182 1.255 . S
O166 Dy160 2.379 . S
O166 C182 1.249 . S
O167 Dy161 2.275 . S
O167 C183 1.254 . S
O168 Dy160 2.339 . S
O168 C183 1.257 . S
O169 Dy161 2.307 . S
O169 C184 1.266 . S
O170 Dy160 2.298 . S
O170 C184 1.236 . S
O171 Dy161 2.395 . S
O171 C191 1.255 1_556 S
O172 Dy161 2.380 1_554 S
O172 C191 1.249 . S
C173 O163 1.266 . S
C173 O164 1.236 . S
O174 Dy160 2.275 . S
O174 C162 1.254 . S
O175 Dy161 2.339 . S
O175 C162 1.257 . S
C176 C179 1.344 . S
C176 C180 1.328 . S
C176 C182 1.516 . S
C177 C178 1.304 . S
C177 C181 1.323 . S
C178 C177 1.304 . S
C178 C179 1.371 . S
C178 H192 0.930 . S
C179 C176 1.344 . S
C179 C178 1.371 . S
C179 H193 0.931 . S
C180 C176 1.328 . S
C180 C181 1.433 . S
C180 H194 0.931 . S
C181 C177 1.323 . S
C181 C180 1.433 . S
C181 H195 0.933 . S
C182 Dy160 2.738 . S
C182 O165 1.255 . S
C182 O166 1.249 . S
C182 C176 1.516 . S
C183 O167 1.254 . S
C183 O168 1.257 . S
C184 O169 1.266 . S
C184 O170 1.236 . S
C185 C188 1.344 . S
C185 C189 1.328 . S
C185 C191 1.516 . S
C186 C187 1.304 . S
C186 C190 1.323 . S
C187 C186 1.304 . S
C187 C188 1.371 . S
C187 H196 0.930 . S
C188 C185 1.344 . S
C188 C187 1.371 . S
C188 H197 0.931 . S
C189 C185 1.328 . S
C189 C190 1.433 . S
C189 H198 0.931 . S
C190 C186 1.323 . S
C190 C189 1.433 . S
C190 H199 0.933 . S
C191 Dy161 2.738 1_554 S
C191 O171 1.255 1_554 S
C191 O172 1.249 . S
C191 C185 1.516 . S
H192 C178 0.930 . S
H193 C179 0.931 . S
H194 C180 0.931 . S
H195 C181 0.933 . S
H196 C187 0.930 . S
H197 C188 0.931 . S
H198 C189 0.931 . S
H199 C190 0.933 . S
Dy200 O203 2.307 . S
Dy200 O205 2.395 . S
Dy200 O206 2.379 . S
Dy200 O208 2.339 . S
Dy200 O210 2.298 . S
Dy200 O214 2.275 . S
Dy200 C222 2.738 . S
Dy201 O204 2.298 . S
Dy201 O207 2.275 . S
Dy201 O209 2.307 . S
Dy201 O211 2.395 1_554 S
Dy201 O212 2.379 1_554 S
Dy201 O215 2.339 . S
Dy201 C231 2.738 1_554 S
C202 O214 1.254 . S
C202 O215 1.257 . S
O203 Dy200 2.307 . S
O203 C213 1.266 . S
O204 Dy201 2.298 . S
O204 C213 1.236 . S
O205 Dy200 2.395 . S
O205 C222 1.255 . S
O206 Dy200 2.379 . S
O206 C222 1.249 . S
O207 Dy201 2.275 . S
O207 C223 1.254 . S
O208 Dy200 2.339 . S
O208 C223 1.257 . S
O209 Dy201 2.307 . S
O209 C224 1.266 . S
O210 Dy200 2.298 . S
O210 C224 1.236 . S
O211 Dy201 2.395 1_556 S
O211 C231 1.255 . S
O212 Dy201 2.379 1_556 S
O212 C231 1.249 . S
C213 O203 1.266 . S
C213 O204 1.236 . S
O214 Dy200 2.275 . S
O214 C202 1.254 . S
O215 Dy201 2.339 . S
O215 C202 1.257 . S
C216 C219 1.344 . S
C216 C220 1.328 . S
C216 C222 1.516 . S
C217 C218 1.304 . S
C217 C221 1.323 . S
C218 C217 1.304 . S
C218 C219 1.371 . S
C218 H232 0.930 . S
C219 C216 1.344 . S
C219 C218 1.371 . S
C219 H233 0.931 . S
C220 C216 1.328 . S
C220 C221 1.433 . S
C220 H234 0.931 . S
C221 C217 1.323 . S
C221 C220 1.433 . S
C221 H235 0.933 . S
C222 Dy200 2.738 . S
C222 O205 1.255 . S
C222 O206 1.249 . S
C222 C216 1.516 . S
C223 O207 1.254 . S
C223 O208 1.257 . S
C224 O209 1.266 . S
C224 O210 1.236 . S
C225 C228 1.344 . S
C225 C229 1.328 . S
C225 C231 1.516 . S
C226 C227 1.304 . S
C226 C230 1.323 . S
C227 C226 1.304 . S
C227 C228 1.371 . S
C227 H236 0.930 . S
C228 C225 1.344 . S
C228 C227 1.371 . S
C228 H237 0.931 . S
C229 C225 1.328 . S
C229 C230 1.433 . S
C229 H238 0.931 . S
C230 C226 1.323 . S
C230 C229 1.433 . S
C230 H239 0.933 . S
C231 Dy201 2.738 1_556 S
C231 O211 1.255 . S
C231 O212 1.249 . S
C231 C225 1.516 . S
H232 C218 0.930 . S
H233 C219 0.931 . S
H234 C220 0.931 . S
H235 C221 0.933 . S
H236 C227 0.930 . S
H237 C228 0.931 . S
H238 C229 0.931 . S
H239 C230 0.933 . S
Dy240 O243 2.307 . S
Dy240 O245 2.395 . S
Dy240 O246 2.379 . S
Dy240 O248 2.339 . S
Dy240 O250 2.298 . S
Dy240 O254 2.275 . S
Dy240 C262 2.738 . S
Dy241 O244 2.298 . S
Dy241 O247 2.275 . S
Dy241 O249 2.307 . S
Dy241 O251 2.395 . S
Dy241 O252 2.379 . S
Dy241 O255 2.339 . S
Dy241 C271 2.738 . S
C242 O254 1.254 . S
C242 O255 1.257 . S
O243 Dy240 2.307 . S
O243 C253 1.266 . S
O244 Dy241 2.298 . S
O244 C253 1.236 . S
O245 Dy240 2.395 . S
O245 C262 1.255 . S
O246 Dy240 2.379 . S
O246 C262 1.249 . S
O247 Dy241 2.275 . S
O247 C263 1.254 . S
O248 Dy240 2.339 . S
O248 C263 1.257 . S
O249 Dy241 2.307 . S
O249 C264 1.266 . S
O250 Dy240 2.298 . S
O250 C264 1.236 . S
O251 Dy241 2.395 . S
O251 C271 1.255 . S
O252 Dy241 2.379 . S
O252 C271 1.249 . S
C253 O243 1.266 . S
C253 O244 1.236 . S
O254 Dy240 2.275 . S
O254 C242 1.254 . S
O255 Dy241 2.339 . S
O255 C242 1.257 . S
C256 C259 1.344 . S
C256 C260 1.328 . S
C256 C262 1.516 . S
C257 C258 1.304 . S
C257 C261 1.323 . S
C258 C257 1.304 . S
C258 C259 1.371 . S
C258 H272 0.930 . S
C259 C256 1.344 . S
C259 C258 1.371 . S
C259 H273 0.931 . S
C260 C256 1.328 . S
C260 C261 1.433 . S
C260 H274 0.931 . S
C261 C257 1.323 . S
C261 C260 1.433 . S
C261 H275 0.933 . S
C262 Dy240 2.738 . S
C262 O245 1.255 . S
C262 O246 1.249 . S
C262 C256 1.516 . S
C263 O247 1.254 . S
C263 O248 1.257 . S
C264 O249 1.266 . S
C264 O250 1.236 . S
C265 C268 1.344 . S
C265 C269 1.328 . S
C265 C271 1.516 . S
C266 C267 1.304 . S
C266 C270 1.323 . S
C267 C266 1.304 . S
C267 C268 1.371 . S
C267 H276 0.930 . S
C268 C265 1.344 . S
C268 C267 1.371 . S
C268 H277 0.931 . S
C269 C265 1.328 . S
C269 C270 1.433 . S
C269 H278 0.931 . S
C270 C266 1.323 . S
C270 C269 1.433 . S
C270 H279 0.933 . S
C271 Dy241 2.738 . S
C271 O251 1.255 . S
C271 O252 1.249 . S
C271 C265 1.516 . S
H272 C258 0.930 . S
H273 C259 0.931 . S
H274 C260 0.931 . S
H275 C261 0.933 . S
H276 C267 0.930 . S
H277 C268 0.931 . S
H278 C269 0.931 . S
H279 C270 0.933 . S
Dy280 O283 2.307 . S
Dy280 O285 2.395 . S
Dy280 O286 2.379 . S
Dy280 O288 2.339 . S
Dy280 O290 2.298 . S
Dy280 O294 2.275 . S
Dy280 C302 2.738 . S
Dy281 O284 2.298 . S
Dy281 O287 2.275 . S
Dy281 O289 2.307 . S
Dy281 O291 2.395 . S
Dy281 O292 2.379 . S
Dy281 O295 2.339 . S
Dy281 C311 2.738 . S
C282 O294 1.254 . S
C282 O295 1.257 . S
O283 Dy280 2.307 . S
O283 C293 1.266 . S
O284 Dy281 2.298 . S
O284 C293 1.236 . S
O285 Dy280 2.395 . S
O285 C302 1.255 . S
O286 Dy280 2.379 . S
O286 C302 1.249 . S
O287 Dy281 2.275 . S
O287 C303 1.254 . S
O288 Dy280 2.339 . S
O288 C303 1.257 . S
O289 Dy281 2.307 . S
O289 C304 1.266 . S
O290 Dy280 2.298 . S
O290 C304 1.236 . S
O291 Dy281 2.395 . S
O291 C311 1.255 . S
O292 Dy281 2.379 . S
O292 C311 1.249 . S
C293 O283 1.266 . S
C293 O284 1.236 . S
O294 Dy280 2.275 . S
O294 C282 1.254 . S
O295 Dy281 2.339 . S
O295 C282 1.257 . S
C296 C299 1.344 . S
C296 C300 1.328 . S
C296 C302 1.516 . S
C297 C298 1.304 . S
C297 C301 1.323 . S
C298 C297 1.304 . S
C298 C299 1.371 . S
C298 H312 0.930 . S
C299 C296 1.344 . S
C299 C298 1.371 . S
C299 H313 0.931 . S
C300 C296 1.328 . S
C300 C301 1.433 . S
C300 H314 0.931 . S
C301 C297 1.323 . S
C301 C300 1.433 . S
C301 H315 0.933 . S
C302 Dy280 2.738 . S
C302 O285 1.255 . S
C302 O286 1.249 . S
C302 C296 1.516 . S
C303 O287 1.254 . S
C303 O288 1.257 . S
C304 O289 1.266 . S
C304 O290 1.236 . S
C305 C308 1.344 . S
C305 C309 1.328 . S
C305 C311 1.516 . S
C306 C307 1.304 . S
C306 C310 1.323 . S
C307 C306 1.304 . S
C307 C308 1.371 . S
C307 H316 0.930 . S
C308 C305 1.344 . S
C308 C307 1.371 . S
C308 H317 0.931 . S
C309 C305 1.328 . S
C309 C310 1.433 . S
C309 H318 0.931 . S
C310 C306 1.323 . S
C310 C309 1.433 . S
C310 H319 0.933 . S
C311 Dy281 2.738 . S
C311 O291 1.255 . S
C311 O292 1.249 . S
C311 C305 1.516 . S
H312 C298 0.930 . S
H313 C299 0.931 . S
H314 C300 0.931 . S
H315 C301 0.933 . S
H316 C307 0.930 . S
H317 C308 0.931 . S
H318 C309 0.931 . S
H319 C310 0.933 . S
Dy320 O323 2.307 . S
Dy320 O325 2.395 . S
Dy320 O326 2.379 . S
Dy320 O328 2.339 . S
Dy320 O330 2.298 . S
Dy320 O334 2.275 . S
Dy320 C342 2.738 . S
Dy321 O324 2.297 1_554 S
Dy321 O327 2.270 1_554 S
Dy321 O329 2.300 1_554 S
Dy321 O331 2.403 . S
Dy321 O332 2.387 . S
Dy321 O335 2.336 1_554 S
Dy321 C351 2.747 . S
C322 O334 1.254 . S
C322 O335 1.257 . S
O323 Dy320 2.307 . S
O323 C333 1.266 . S
O324 Dy321 2.297 1_556 S
O324 C333 1.236 . S
O325 Dy320 2.395 . S
O325 C342 1.255 . S
O326 Dy320 2.379 . S
O326 C342 1.249 . S
O327 Dy321 2.270 1_556 S
O327 C343 1.254 . S
O328 Dy320 2.339 . S
O328 C343 1.257 . S
O329 Dy321 2.300 1_556 S
O329 C344 1.266 . S
O330 Dy320 2.298 . S
O330 C344 1.236 . S
O331 Dy321 2.403 . S
O331 C351 1.255 . S
O332 Dy321 2.387 . S
O332 C351 1.249 . S
C333 O323 1.266 . S
C333 O324 1.236 . S
O334 Dy320 2.275 . S
O334 C322 1.254 . S
O335 Dy321 2.336 1_556 S
O335 C322 1.257 . S
C336 C339 1.344 . S
C336 C340 1.328 . S
C336 C342 1.516 . S
C337 C338 1.304 . S
C337 C341 1.323 . S
C338 C337 1.304 . S
C338 C339 1.371 . S
C338 H352 0.930 . S
C339 C336 1.344 . S
C339 C338 1.371 . S
C339 H353 0.931 . S
C340 C336 1.328 . S
C340 C341 1.433 . S
C340 H354 0.931 . S
C341 C337 1.323 . S
C341 C340 1.433 . S
C341 H355 0.933 . S
C342 Dy320 2.738 . S
C342 O325 1.255 . S
C342 O326 1.249 . S
C342 C336 1.516 . S
C343 O327 1.254 . S
C343 O328 1.257 . S
C344 O329 1.266 . S
C344 O330 1.236 . S
C345 C348 1.344 . S
C345 C349 1.328 . S
C345 C351 1.516 . S
C346 C347 1.304 . S
C346 C350 1.323 . S
C347 C346 1.304 . S
C347 C348 1.371 . S
C347 H356 0.930 . S
C348 C345 1.344 . S
C348 C347 1.371 . S
C348 H357 0.931 . S
C349 C345 1.328 . S
C349 C350 1.433 . S
C349 H358 0.931 . S
C350 C346 1.323 . S
C350 C349 1.433 . S
C350 H359 0.933 . S
C351 Dy321 2.747 . S
C351 O331 1.255 . S
C351 O332 1.249 . S
C351 C345 1.516 . S
H352 C338 0.930 . S
H353 C339 0.931 . S
H354 C340 0.931 . S
H355 C341 0.933 . S
H356 C347 0.930 . S
H357 C348 0.931 . S
H358 C349 0.931 . S
H359 C350 0.933 . S
Dy360 O363 2.307 . S
Dy360 O365 2.395 . S
Dy360 O366 2.379 . S
Dy360 O368 2.339 . S
Dy360 O370 2.298 . S
Dy360 O374 2.275 . S
Dy360 C382 2.738 . S
Dy361 O364 2.298 . S
Dy361 O367 2.275 . S
Dy361 O369 2.307 . S
Dy361 O371 2.395 . S
Dy361 O372 2.379 . S
Dy361 O375 2.339 . S
Dy361 C391 2.738 . S
C362 O374 1.254 . S
C362 O375 1.257 . S
O363 Dy360 2.307 . S
O363 C373 1.266 . S
O364 Dy361 2.298 . S
O364 C373 1.236 . S
O365 Dy360 2.395 . S
O365 C382 1.255 . S
O366 Dy360 2.379 . S
O366 C382 1.249 . S
O367 Dy361 2.275 . S
O367 C383 1.254 . S
O368 Dy360 2.339 . S
O368 C383 1.257 . S
O369 Dy361 2.307 . S
O369 C384 1.266 . S
O370 Dy360 2.298 . S
O370 C384 1.236 . S
O371 Dy361 2.395 . S
O371 C391 1.255 . S
O372 Dy361 2.379 . S
O372 C391 1.249 . S
C373 O363 1.266 . S
C373 O364 1.236 . S
O374 Dy360 2.275 . S
O374 C362 1.254 . S
O375 Dy361 2.339 . S
O375 C362 1.257 . S
C376 C379 1.344 . S
C376 C380 1.328 . S
C376 C382 1.516 . S
C377 C378 1.304 . S
C377 C381 1.323 . S
C378 C377 1.304 . S
C378 C379 1.371 . S
C378 H392 0.930 . S
C379 C376 1.344 . S
C379 C378 1.371 . S
C379 H393 0.931 . S
C380 C376 1.328 . S
C380 C381 1.433 . S
C380 H394 0.931 . S
C381 C377 1.323 . S
C381 C380 1.433 . S
C381 H395 0.933 . S
C382 Dy360 2.738 . S
C382 O365 1.255 . S
C382 O366 1.249 . S
C382 C376 1.516 . S
C383 O367 1.254 . S
C383 O368 1.257 . S
C384 O369 1.266 . S
C384 O370 1.236 . S
C385 C388 1.344 . S
C385 C389 1.328 . S
C385 C391 1.516 . S
C386 C387 1.304 . S
C386 C390 1.323 . S
C387 C386 1.304 . S
C387 C388 1.371 . S
C387 H396 0.930 . S
C388 C385 1.344 . S
C388 C387 1.371 . S
C388 H397 0.931 . S
C389 C385 1.328 . S
C389 C390 1.433 . S
C389 H398 0.931 . S
C390 C386 1.323 . S
C390 C389 1.433 . S
C390 H399 0.933 . S
C391 Dy361 2.738 . S
C391 O371 1.255 . S
C391 O372 1.249 . S
C391 C385 1.516 . S
H392 C378 0.930 . S
H393 C379 0.931 . S
H394 C380 0.931 . S
H395 C381 0.933 . S
H396 C387 0.930 . S
H397 C388 0.931 . S
H398 C389 0.931 . S
H399 C390 0.933 . S
Dy400 O403 2.307 . S
Dy400 O405 2.395 . S
Dy400 O406 2.379 . S
Dy400 O408 2.339 . S
Dy400 O410 2.298 . S
Dy400 O414 2.275 . S
Dy400 C422 2.738 . S
Dy401 O404 2.298 . S
Dy401 O407 2.275 . S
Dy401 O409 2.307 . S
Dy401 O411 2.395 . S
Dy401 O412 2.379 . S
Dy401 O415 2.339 . S
Dy401 C431 2.738 . S
C402 O414 1.254 . S
C402 O415 1.257 . S
O403 Dy400 2.307 . S
O403 C413 1.266 . S
O404 Dy401 2.298 . S
O404 C413 1.236 . S
O405 Dy400 2.395 . S
O405 C422 1.255 . S
O406 Dy400 2.379 . S
O406 C422 1.249 . S
O407 Dy401 2.275 . S
O407 C423 1.254 . S
O408 Dy400 2.339 . S
O408 C423 1.257 . S
O409 Dy401 2.307 . S
O409 C424 1.266 . S
O410 Dy400 2.298 . S
O410 C424 1.236 . S
O411 Dy401 2.395 . S
O411 C431 1.255 . S
O412 Dy401 2.379 . S
O412 C431 1.249 . S
C413 O403 1.266 . S
C413 O404 1.236 . S
O414 Dy400 2.275 . S
O414 C402 1.254 . S
O415 Dy401 2.339 . S
O415 C402 1.257 . S
C416 C419 1.344 . S
C416 C420 1.328 . S
C416 C422 1.516 . S
C417 C418 1.304 . S
C417 C421 1.323 . S
C418 C417 1.304 . S
C418 C419 1.371 . S
C418 H432 0.930 . S
C419 C416 1.344 . S
C419 C418 1.371 . S
C419 H433 0.931 . S
C420 C416 1.328 . S
C420 C421 1.433 . S
C420 H434 0.931 . S
C421 C417 1.323 . S
C421 C420 1.433 . S
C421 H435 0.933 . S
C422 Dy400 2.738 . S
C422 O405 1.255 . S
C422 O406 1.249 . S
C422 C416 1.516 . S
C423 O407 1.254 . S
C423 O408 1.257 . S
C424 O409 1.266 . S
C424 O410 1.236 . S
C425 C428 1.344 . S
C425 C429 1.328 . S
C425 C431 1.516 . S
C426 C427 1.304 . S
C426 C430 1.323 . S
C427 C426 1.304 . S
C427 C428 1.371 . S
C427 H436 0.930 . S
C428 C425 1.344 . S
C428 C427 1.371 . S
C428 H437 0.931 . S
C429 C425 1.328 . S
C429 C430 1.433 . S
C429 H438 0.931 . S
C430 C426 1.323 . S
C430 C429 1.433 . S
C430 H439 0.933 . S
C431 Dy401 2.738 . S
C431 O411 1.255 . S
C431 O412 1.249 . S
C431 C425 1.516 . S
H432 C418 0.930 . S
H433 C419 0.931 . S
H434 C420 0.931 . S
H435 C421 0.933 . S
H436 C427 0.930 . S
H437 C428 0.931 . S
H438 C429 0.931 . S
H439 C430 0.933 . S
Dy440 O443 2.307 . S
Dy440 O445 2.395 1_554 S
Dy440 O446 2.379 1_554 S
Dy440 O448 2.339 . S
Dy440 O450 2.298 . S
Dy440 O454 2.275 . S
Dy440 C462 2.738 1_554 S
Dy441 O444 2.298 . S
Dy441 O447 2.275 . S
Dy441 O449 2.307 . S
Dy441 O451 2.395 . S
Dy441 O452 2.379 . S
Dy441 O455 2.339 . S
Dy441 C471 2.738 . S
C442 O454 1.254 . S
C442 O455 1.257 . S
O443 Dy440 2.307 . S
O443 C453 1.266 . S
O444 Dy441 2.298 . S
O444 C453 1.236 . S
O445 Dy440 2.395 1_556 S
O445 C462 1.255 . S
O446 Dy440 2.379 1_556 S
O446 C462 1.249 . S
O447 Dy441 2.275 . S
O447 C463 1.254 . S
O448 Dy440 2.339 . S
O448 C463 1.257 . S
O449 Dy441 2.307 . S
O449 C464 1.266 . S
O450 Dy440 2.298 . S
O450 C464 1.236 . S
O451 Dy441 2.395 . S
O451 C471 1.255 . S
O452 Dy441 2.379 . S
O452 C471 1.249 . S
C453 O443 1.266 . S
C453 O444 1.236 . S
O454 Dy440 2.275 . S
O454 C442 1.254 . S
O455 Dy441 2.339 . S
O455 C442 1.257 . S
C456 C459 1.344 . S
C456 C460 1.328 . S
C456 C462 1.516 . S
C457 C458 1.304 . S
C457 C461 1.323 . S
C458 C457 1.304 . S
C458 C459 1.371 . S
C458 H472 0.930 . S
C459 C456 1.344 . S
C459 C458 1.371 . S
C459 H473 0.931 . S
C460 C456 1.328 . S
C460 C461 1.433 . S
C460 H474 0.931 . S
C461 C457 1.323 . S
C461 C460 1.433 . S
C461 H475 0.933 . S
C462 Dy440 2.738 1_556 S
C462 O445 1.255 . S
C462 O446 1.249 . S
C462 C456 1.516 . S
C463 O447 1.254 . S
C463 O448 1.257 . S
C464 O449 1.266 . S
C464 O450 1.236 . S
C465 C468 1.344 . S
C465 C469 1.328 . S
C465 C471 1.516 . S
C466 C467 1.304 . S
C466 C470 1.323 . S
C467 C466 1.304 . S
C467 C468 1.371 . S
C467 H476 0.930 . S
C468 C465 1.344 . S
C468 C467 1.371 . S
C468 H477 0.931 . S
C469 C465 1.328 . S
C469 C470 1.433 . S
C469 H478 0.931 . S
C470 C466 1.323 . S
C470 C469 1.433 . S
C470 H479 0.933 . S
C471 Dy441 2.738 . S
C471 O451 1.255 . S
C471 O452 1.249 . S
C471 C465 1.516 . S
H472 C458 0.930 . S
H473 C459 0.931 . S
H474 C460 0.931 . S
H475 C461 0.933 . S
H476 C467 0.930 . S
H477 C468 0.931 . S
H478 C469 0.931 . S
H479 C470 0.933 . S
Dy480 O483 2.307 . S
Dy480 O485 2.395 . S
Dy480 O486 2.380 1_554 S
Dy480 O488 2.339 . S
Dy480 O490 2.298 . S
Dy480 O494 2.275 . S
Dy480 C502 2.738 1_554 S
Dy481 O484 2.298 . S
Dy481 O487 2.275 . S
Dy481 O489 2.307 . S
Dy481 O491 2.395 . S
Dy481 O492 2.379 . S
Dy481 O495 2.339 . S
Dy481 C511 2.738 . S
C482 O494 1.254 . S
C482 O495 1.257 . S
O483 Dy480 2.307 . S
O483 C493 1.266 . S
O484 Dy481 2.298 . S
O484 C493 1.236 . S
O485 Dy480 2.395 . S
O485 C502 1.255 1_554 S
O486 Dy480 2.380 1_556 S
O486 C502 1.249 . S
O487 Dy481 2.275 . S
O487 C503 1.254 . S
O488 Dy480 2.339 . S
O488 C503 1.257 . S
O489 Dy481 2.307 . S
O489 C504 1.266 . S
O490 Dy480 2.298 . S
O490 C504 1.236 . S
O491 Dy481 2.395 . S
O491 C511 1.255 . S
O492 Dy481 2.379 . S
O492 C511 1.249 . S
C493 O483 1.266 . S
C493 O484 1.236 . S
O494 Dy480 2.275 . S
O494 C482 1.254 . S
O495 Dy481 2.339 . S
O495 C482 1.257 . S
C496 C499 1.344 . S
C496 C500 1.328 . S
C496 C502 1.516 . S
C497 C498 1.304 . S
C497 C501 1.323 . S
C498 C497 1.304 . S
C498 C499 1.371 . S
C498 H512 0.930 . S
C499 C496 1.344 . S
C499 C498 1.371 . S
C499 H513 0.931 . S
C500 C496 1.328 . S
C500 C501 1.433 . S
C500 H514 0.931 . S
C501 C497 1.323 . S
C501 C500 1.433 . S
C501 H515 0.933 . S
C502 Dy480 2.738 1_556 S
C502 O485 1.255 1_556 S
C502 O486 1.249 . S
C502 C496 1.516 . S
C503 O487 1.254 . S
C503 O488 1.257 . S
C504 O489 1.266 . S
C504 O490 1.236 . S
C505 C508 1.344 . S
C505 C509 1.328 . S
C505 C511 1.516 . S
C506 C507 1.304 . S
C506 C510 1.323 . S
C507 C506 1.304 . S
C507 C508 1.371 . S
C507 H516 0.930 . S
C508 C505 1.344 . S
C508 C507 1.371 . S
C508 H517 0.931 . S
C509 C505 1.328 . S
C509 C510 1.433 . S
C509 H518 0.931 . S
C510 C506 1.323 . S
C510 C509 1.433 . S
C510 H519 0.933 . S
C511 Dy481 2.738 . S
C511 O491 1.255 . S
C511 O492 1.249 . S
C511 C505 1.516 . S
H512 C498 0.930 . S
H513 C499 0.931 . S
H514 C500 0.931 . S
H515 C501 0.933 . S
H516 C507 0.930 . S
H517 C508 0.931 . S
H518 C509 0.931 . S
H519 C510 0.933 . S
Dy520 O523 2.307 . S
Dy520 O525 2.395 1_556 S
Dy520 O526 2.379 1_556 S
Dy520 O528 2.339 . S
Dy520 O530 2.298 . S
Dy520 O534 2.275 . S
Dy520 C542 2.738 1_556 S
Dy521 O524 2.298 . S
Dy521 O527 2.275 . S
Dy521 O529 2.307 . S
Dy521 O531 2.395 . S
Dy521 O532 2.379 . S
Dy521 O535 2.339 . S
Dy521 C551 2.738 . S
C522 O534 1.254 . S
C522 O535 1.257 . S
O523 Dy520 2.307 . S
O523 C533 1.266 . S
O524 Dy521 2.298 . S
O524 C533 1.236 . S
O525 Dy520 2.395 1_554 S
O525 C542 1.255 . S
O526 Dy520 2.379 1_554 S
O526 C542 1.249 . S
O527 Dy521 2.275 . S
O527 C543 1.254 . S
O528 Dy520 2.339 . S
O528 C543 1.257 . S
O529 Dy521 2.307 . S
O529 C544 1.266 . S
O530 Dy520 2.298 . S
O530 C544 1.236 . S
O531 Dy521 2.395 . S
O531 C551 1.255 . S
O532 Dy521 2.379 . S
O532 C551 1.249 . S
C533 O523 1.266 . S
C533 O524 1.236 . S
O534 Dy520 2.275 . S
O534 C522 1.254 . S
O535 Dy521 2.339 . S
O535 C522 1.257 . S
C536 C539 1.344 . S
C536 C540 1.328 . S
C536 C542 1.516 . S
C537 C538 1.304 . S
C537 C541 1.323 . S
C538 C537 1.304 . S
C538 C539 1.371 . S
C538 H552 0.930 . S
C539 C536 1.344 . S
C539 C538 1.371 . S
C539 H553 0.931 . S
C540 C536 1.328 . S
C540 C541 1.433 . S
C540 H554 0.931 . S
C541 C537 1.323 . S
C541 C540 1.433 . S
C541 H555 0.933 . S
C542 Dy520 2.738 1_554 S
C542 O525 1.255 . S
C542 O526 1.249 . S
C542 C536 1.516 . S
C543 O527 1.254 . S
C543 O528 1.257 . S
C544 O529 1.266 . S
C544 O530 1.236 . S
C545 C548 1.344 . S
C545 C549 1.328 . S
C545 C551 1.516 . S
C546 C547 1.304 . S
C546 C550 1.323 . S
C547 C546 1.304 . S
C547 C548 1.371 . S
C547 H556 0.930 . S
C548 C545 1.344 . S
C548 C547 1.371 . S
C548 H557 0.931 . S
C549 C545 1.328 . S
C549 C550 1.433 . S
C549 H558 0.931 . S
C550 C546 1.323 . S
C550 C549 1.433 . S
C550 H559 0.933 . S
C551 Dy521 2.738 . S
C551 O531 1.255 . S
C551 O532 1.249 . S
C551 C545 1.516 . S
H552 C538 0.930 . S
H553 C539 0.931 . S
H554 C540 0.931 . S
H555 C541 0.933 . S
H556 C547 0.930 . S
H557 C548 0.931 . S
H558 C549 0.931 . S
H559 C550 0.933 . S
Dy560 O563 2.307 . S
Dy560 O565 2.395 . S
Dy560 O566 2.379 . S
Dy560 O568 2.339 . S
Dy560 O570 2.298 . S
Dy560 O574 2.275 . S
Dy560 C582 2.738 . S
Dy561 O564 2.298 . S
Dy561 O567 2.275 . S
Dy561 O569 2.307 . S
Dy561 O571 2.395 . S
Dy561 O572 2.379 . S
Dy561 O575 2.339 . S
Dy561 C591 2.738 . S
C562 O574 1.254 . S
C562 O575 1.257 . S
O563 Dy560 2.307 . S
O563 C573 1.266 . S
O564 Dy561 2.298 . S
O564 C573 1.236 . S
O565 Dy560 2.395 . S
O565 C582 1.255 . S
O566 Dy560 2.379 . S
O566 C582 1.249 . S
O567 Dy561 2.275 . S
O567 C583 1.254 . S
O568 Dy560 2.339 . S
O568 C583 1.257 . S
O569 Dy561 2.307 . S
O569 C584 1.266 . S
O570 Dy560 2.298 . S
O570 C584 1.236 . S
O571 Dy561 2.395 . S
O571 C591 1.255 . S
O572 Dy561 2.379 . S
O572 C591 1.249 . S
C573 O563 1.266 . S
C573 O564 1.236 . S
O574 Dy560 2.275 . S
O574 C562 1.254 . S
O575 Dy561 2.339 . S
O575 C562 1.257 . S
C576 C579 1.344 . S
C576 C580 1.328 . S
C576 C582 1.516 . S
C577 C578 1.304 . S
C577 C581 1.323 . S
C578 C577 1.304 . S
C578 C579 1.371 . S
C578 H592 0.930 . S
C579 C576 1.344 . S
C579 C578 1.371 . S
C579 H593 0.931 . S
C580 C576 1.328 . S
C580 C581 1.433 . S
C580 H594 0.931 . S
C581 C577 1.323 . S
C581 C580 1.433 . S
C581 H595 0.933 . S
C582 Dy560 2.738 . S
C582 O565 1.255 . S
C582 O566 1.249 . S
C582 C576 1.516 . S
C583 O567 1.254 . S
C583 O568 1.257 . S
C584 O569 1.266 . S
C584 O570 1.236 . S
C585 C588 1.344 . S
C585 C589 1.328 . S
C585 C591 1.516 . S
C586 C587 1.304 . S
C586 C590 1.323 . S
C587 C586 1.304 . S
C587 C588 1.371 . S
C587 H596 0.930 . S
C588 C585 1.344 . S
C588 C587 1.371 . S
C588 H597 0.931 . S
C589 C585 1.328 . S
C589 C590 1.433 . S
C589 H598 0.931 . S
C590 C586 1.323 . S
C590 C589 1.433 . S
C590 H599 0.933 . S
C591 Dy561 2.738 . S
C591 O571 1.255 . S
C591 O572 1.249 . S
C591 C585 1.516 . S
H592 C578 0.930 . S
H593 C579 0.931 . S
H594 C580 0.931 . S
H595 C581 0.933 . S
H596 C587 0.930 . S
H597 C588 0.931 . S
H598 C589 0.931 . S
H599 C590 0.933 . S
Dy600 O603 2.307 . S
Dy600 O605 2.395 . S
Dy600 O606 2.379 . S
Dy600 O608 2.339 . S
Dy600 O610 2.298 . S
Dy600 O614 2.275 . S
Dy600 C622 2.738 . S
Dy601 O604 2.298 . S
Dy601 O607 2.275 . S
Dy601 O609 2.307 . S
Dy601 O611 2.395 . S
Dy601 O612 2.379 . S
Dy601 O615 2.339 . S
Dy601 C631 2.738 . S
C602 O614 1.254 . S
C602 O615 1.257 . S
O603 Dy600 2.307 . S
O603 C613 1.266 . S
O604 Dy601 2.298 . S
O604 C613 1.236 . S
O605 Dy600 2.395 . S
O605 C622 1.255 . S
O606 Dy600 2.379 . S
O606 C622 1.249 . S
O607 Dy601 2.275 . S
O607 C623 1.254 . S
O608 Dy600 2.339 . S
O608 C623 1.257 . S
O609 Dy601 2.307 . S
O609 C624 1.266 . S
O610 Dy600 2.298 . S
O610 C624 1.236 . S
O611 Dy601 2.395 . S
O611 C631 1.255 . S
O612 Dy601 2.379 . S
O612 C631 1.249 . S
C613 O603 1.266 . S
C613 O604 1.236 . S
O614 Dy600 2.275 . S
O614 C602 1.254 . S
O615 Dy601 2.339 . S
O615 C602 1.257 . S
C616 C619 1.344 . S
C616 C620 1.328 . S
C616 C622 1.516 . S
C617 C618 1.304 . S
C617 C621 1.323 . S
C618 C617 1.304 . S
C618 C619 1.371 . S
C618 H632 0.930 . S
C619 C616 1.344 . S
C619 C618 1.371 . S
C619 H633 0.931 . S
C620 C616 1.328 . S
C620 C621 1.433 . S
C620 H634 0.931 . S
C621 C617 1.323 . S
C621 C620 1.433 . S
C621 H635 0.933 . S
C622 Dy600 2.738 . S
C622 O605 1.255 . S
C622 O606 1.249 . S
C622 C616 1.516 . S
C623 O607 1.254 . S
C623 O608 1.257 . S
C624 O609 1.266 . S
C624 O610 1.236 . S
C625 C628 1.344 . S
C625 C629 1.328 . S
C625 C631 1.516 . S
C626 C627 1.304 . S
C626 C630 1.323 . S
C627 C626 1.304 . S
C627 C628 1.371 . S
C627 H636 0.930 . S
C628 C625 1.344 . S
C628 C627 1.371 . S
C628 H637 0.931 . S
C629 C625 1.328 . S
C629 C630 1.433 . S
C629 H638 0.931 . S
C630 C626 1.323 . S
C630 C629 1.433 . S
C630 H639 0.933 . S
C631 Dy601 2.738 . S
C631 O611 1.255 . S
C631 O612 1.249 . S
C631 C625 1.516 . S
H632 C618 0.930 . S
H633 C619 0.931 . S
H634 C620 0.931 . S
H635 C621 0.933 . S
H636 C627 0.930 . S
H637 C628 0.931 . S
H638 C629 0.931 . S
H639 C630 0.933 . S
C640 C641 1.391 . S
C640 C642 1.394 . S
C640 H656 0.931 . S
C641 C640 1.391 . S
C641 C645 1.376 . S
C642 C640 1.394 . S
C642 C643 1.369 . S
C642 C646 1.531 . S
C643 C642 1.369 . S
C643 C644 1.410 . S
C643 C651 1.503 . S
C644 C643 1.410 . S
C644 C645 1.392 . S
C644 C647 1.511 . S
C645 C641 1.376 . S
C645 C644 1.392 . S
C645 H657 0.929 . S
C646 C642 1.531 . S
C646 H658 0.960 . S
C646 H659 0.962 . S
C646 H660 0.960 . S
C647 C644 1.511 . S
C647 H661 0.961 . S
C647 H662 0.961 . S
C647 H663 0.961 . S
C648 C649 1.370 . S
C648 C650 1.363 . S
C648 H664 0.931 . S
C649 C648 1.370 . S
C649 C653 1.408 . S
C650 C648 1.363 . S
C650 C651 1.370 . S
C650 C654 1.524 . S
C651 C643 1.503 . S
C651 C650 1.370 . S
C651 C652 1.403 . S
C652 C651 1.403 . S
C652 C653 1.404 . S
C652 C655 1.539 . S
C653 C649 1.408 . S
C653 C652 1.404 . S
C653 H665 0.930 . S
C654 C650 1.524 . S
C654 H666 0.956 . S
C654 H667 0.961 . S
C654 H668 0.961 . S
C655 C652 1.539 . S
C655 H669 0.958 . S
C655 H670 0.961 . S
C655 H671 0.960 . S
H656 C640 0.931 . S
H657 C645 0.929 . S
H658 C646 0.960 . S
H659 C646 0.962 . S
H660 C646 0.960 . S
H661 C647 0.961 . S
H662 C647 0.961 . S
H663 C647 0.961 . S
H664 C648 0.931 . S
H665 C653 0.930 . S
H666 C654 0.956 . S
H667 C654 0.961 . S
H668 C654 0.961 . S
H669 C655 0.958 . S
H670 C655 0.961 . S
H671 C655 0.960 . S
C672 C673 1.391 . S
C672 C674 1.394 . S
C672 H688 0.931 . S
C673 C672 1.391 . S
C673 C677 1.376 . S
C674 C672 1.394 . S
C674 C675 1.369 . S
C674 C678 1.531 . S
C675 C674 1.369 . S
C675 C676 1.410 . S
C675 C683 1.503 . S
C676 C675 1.410 . S
C676 C677 1.392 . S
C676 C679 1.511 . S
C677 C673 1.376 . S
C677 C676 1.392 . S
C677 H689 0.929 . S
C678 C674 1.531 . S
C678 H690 0.960 . S
C678 H691 0.962 . S
C678 H692 0.960 . S
C679 C676 1.511 . S
C679 H693 0.961 . S
C679 H694 0.961 . S
C679 H695 0.961 . S
C680 C681 1.370 . S
C680 C682 1.363 . S
C680 H696 0.931 . S
C681 C680 1.370 . S
C681 C685 1.408 . S
C682 C680 1.363 . S
C682 C683 1.370 . S
C682 C686 1.524 . S
C683 C675 1.503 . S
C683 C682 1.370 . S
C683 C684 1.403 . S
C684 C683 1.403 . S
C684 C685 1.404 . S
C684 C687 1.539 . S
C685 C681 1.408 . S
C685 C684 1.404 . S
C685 H697 0.930 . S
C686 C682 1.524 . S
C686 H698 0.956 . S
C686 H699 0.961 . S
C686 H700 0.961 . S
C687 C684 1.539 . S
C687 H701 0.958 . S
C687 H702 0.961 . S
C687 H703 0.960 . S
H688 C672 0.931 . S
H689 C677 0.929 . S
H690 C678 0.960 . S
H691 C678 0.962 . S
H692 C678 0.960 . S
H693 C679 0.961 . S
H694 C679 0.961 . S
H695 C679 0.961 . S
H696 C680 0.931 . S
H697 C685 0.930 . S
H698 C686 0.956 . S
H699 C686 0.961 . S
H700 C686 0.961 . S
H701 C687 0.958 . S
H702 C687 0.961 . S
H703 C687 0.960 . S
C704 C705 1.391 . S
C704 C706 1.394 . S
C704 H720 0.931 . S
C705 C704 1.391 . S
C705 C709 1.376 . S
C706 C704 1.394 . S
C706 C707 1.369 . S
C706 C710 1.531 . S
C707 C706 1.369 . S
C707 C708 1.410 . S
C707 C715 1.503 . S
C708 C707 1.410 . S
C708 C709 1.392 . S
C708 C711 1.511 . S
C709 C705 1.376 . S
C709 C708 1.392 . S
C709 H721 0.929 . S
C710 C706 1.531 . S
C710 H722 0.960 . S
C710 H723 0.962 . S
C710 H724 0.960 . S
C711 C708 1.511 . S
C711 H725 0.961 . S
C711 H726 0.961 . S
C711 H727 0.961 . S
C712 C713 1.370 . S
C712 C714 1.363 1_556 S
C712 H728 0.931 . S
C713 C712 1.370 . S
C713 C717 1.408 . S
C714 C712 1.363 1_554 S
C714 C715 1.370 . S
C714 C718 1.524 . S
C715 C707 1.503 . S
C715 C714 1.370 . S
C715 C716 1.403 . S
C716 C715 1.403 . S
C716 C717 1.404 1_554 S
C716 C719 1.539 . S
C717 C713 1.408 . S
C717 C716 1.404 1_556 S
C717 H729 0.930 . S
C718 C714 1.524 . S
C718 H730 0.956 . S
C718 H731 0.961 . S
C718 H732 0.961 . S
C719 C716 1.539 . S
C719 H733 0.958 . S
C719 H734 0.961 . S
C719 H735 0.960 . S
H720 C704 0.931 . S
H721 C709 0.929 . S
H722 C710 0.960 . S
H723 C710 0.962 . S
H724 C710 0.960 . S
H725 C711 0.961 . S
H726 C711 0.961 . S
H727 C711 0.961 . S
H728 C712 0.931 . S
H729 C717 0.930 . S
H730 C718 0.956 . S
H731 C718 0.961 . S
H732 C718 0.961 . S
H733 C719 0.958 . S
H734 C719 0.961 . S
H735 C719 0.960 . S
C736 C737 1.391 . S
C736 C738 1.394 . S
C736 H752 0.931 . S
C737 C736 1.391 . S
C737 C741 1.376 . S
C738 C736 1.394 . S
C738 C739 1.369 . S
C738 C742 1.531 . S
C739 C738 1.369 . S
C739 C740 1.410 . S
C739 C747 1.503 . S
C740 C739 1.410 . S
C740 C741 1.392 . S
C740 C743 1.511 . S
C741 C737 1.376 . S
C741 C740 1.392 . S
C741 H753 0.929 . S
C742 C738 1.531 . S
C742 H754 0.960 . S
C742 H755 0.962 . S
C742 H756 0.960 . S
C743 C740 1.511 . S
C743 H757 0.961 . S
C743 H758 0.961 . S
C743 H759 0.961 . S
C744 C745 1.370 . S
C744 C746 1.363 . S
C744 H760 0.931 . S
C745 C744 1.370 . S
C745 C749 1.408 . S
C746 C744 1.363 . S
C746 C747 1.370 . S
C746 C750 1.524 . S
C747 C739 1.503 . S
C747 C746 1.370 . S
C747 C748 1.403 . S
C748 C747 1.403 . S
C748 C749 1.404 . S
C748 C751 1.539 . S
C749 C745 1.408 . S
C749 C748 1.404 . S
C749 H761 0.930 . S
C750 C746 1.524 . S
C750 H762 0.956 . S
C750 H763 0.961 . S
C750 H764 0.961 . S
C751 C748 1.539 . S
C751 H765 0.958 . S
C751 H766 0.961 . S
C751 H767 0.960 . S
H752 C736 0.931 . S
H753 C741 0.929 . S
H754 C742 0.960 . S
H755 C742 0.962 . S
H756 C742 0.960 . S
H757 C743 0.961 . S
H758 C743 0.961 . S
H759 C743 0.961 . S
H760 C744 0.931 . S
H761 C749 0.930 . S
H762 C750 0.956 . S
H763 C750 0.961 . S
H764 C750 0.961 . S
H765 C751 0.958 . S
H766 C751 0.961 . S
H767 C751 0.960 . S
C768 C769 1.391 . S
C768 C770 1.394 . S
C768 H784 0.931 . S
C769 C768 1.391 . S
C769 C773 1.376 . S
C770 C768 1.394 . S
C770 C771 1.369 . S
C770 C774 1.531 . S
C771 C770 1.369 . S
C771 C772 1.410 . S
C771 C779 1.503 . S
C772 C771 1.410 . S
C772 C773 1.392 . S
C772 C775 1.511 . S
C773 C769 1.376 . S
C773 C772 1.392 . S
C773 H785 0.929 . S
C774 C770 1.531 . S
C774 H786 0.960 . S
C774 H787 0.962 . S
C774 H788 0.960 . S
C775 C772 1.511 . S
C775 H789 0.961 . S
C775 H790 0.961 . S
C775 H791 0.961 . S
C776 C777 1.370 . S
C776 C778 1.363 . S
C776 H792 0.931 . S
C777 C776 1.370 . S
C777 C781 1.408 . S
C778 C776 1.363 . S
C778 C779 1.370 . S
C778 C782 1.524 . S
C779 C771 1.503 . S
C779 C778 1.370 . S
C779 C780 1.403 . S
C780 C779 1.403 . S
C780 C781 1.404 . S
C780 C783 1.539 . S
C781 C777 1.408 . S
C781 C780 1.404 . S
C781 H793 0.930 . S
C782 C778 1.524 . S
C782 H794 0.956 . S
C782 H795 0.961 . S
C782 H796 0.961 . S
C783 C780 1.539 . S
C783 H797 0.958 . S
C783 H798 0.961 . S
C783 H799 0.960 . S
H784 C768 0.931 . S
H785 C773 0.929 . S
H786 C774 0.960 . S
H787 C774 0.962 . S
H788 C774 0.960 . S
H789 C775 0.961 . S
H790 C775 0.961 . S
H791 C775 0.961 . S
H792 C776 0.931 . S
H793 C781 0.930 . S
H794 C782 0.956 . S
H795 C782 0.961 . S
H796 C782 0.961 . S
H797 C783 0.958 . S
H798 C783 0.961 . S
H799 C783 0.960 . S
C800 C801 1.391 . S
C800 C802 1.394 . S
C800 H816 0.931 . S
C801 C800 1.391 . S
C801 C805 1.376 . S
C802 C800 1.394 . S
C802 C803 1.369 . S
C802 C806 1.531 . S
C803 C802 1.369 . S
C803 C804 1.410 . S
C803 C811 1.503 . S
C804 C803 1.410 . S
C804 C805 1.392 . S
C804 C807 1.511 . S
C805 C801 1.376 . S
C805 C804 1.392 . S
C805 H817 0.929 . S
C806 C802 1.531 . S
C806 H818 0.960 . S
C806 H819 0.962 . S
C806 H820 0.960 . S
C807 C804 1.511 . S
C807 H821 0.961 . S
C807 H822 0.961 . S
C807 H823 0.961 . S
C808 C809 1.370 . S
C808 C810 1.363 . S
C808 H824 0.931 . S
C809 C808 1.370 . S
C809 C813 1.408 . S
C810 C808 1.363 . S
C810 C811 1.370 . S
C810 C814 1.524 . S
C811 C803 1.503 . S
C811 C810 1.370 . S
C811 C812 1.403 . S
C812 C811 1.403 . S
C812 C813 1.404 . S
C812 C815 1.539 . S
C813 C809 1.408 . S
C813 C812 1.404 . S
C813 H825 0.930 . S
C814 C810 1.524 . S
C814 H826 0.956 . S
C814 H827 0.961 . S
C814 H828 0.961 . S
C815 C812 1.539 . S
C815 H829 0.958 . S
C815 H830 0.961 . S
C815 H831 0.960 . S
H816 C800 0.931 . S
H817 C805 0.929 . S
H818 C806 0.960 . S
H819 C806 0.962 . S
H820 C806 0.960 . S
H821 C807 0.961 . S
H822 C807 0.961 . S
H823 C807 0.961 . S
H824 C808 0.931 . S
H825 C813 0.930 . S
H826 C814 0.956 . S
H827 C814 0.961 . S
H828 C814 0.961 . S
H829 C815 0.958 . S
H830 C815 0.961 . S
H831 C815 0.960 . S
C832 C833 1.391 . S
C832 C834 1.394 . S
C832 H848 0.931 . S
C833 C832 1.391 . S
C833 C837 1.376 . S
C834 C832 1.394 . S
C834 C835 1.369 . S
C834 C838 1.531 . S
C835 C834 1.369 . S
C835 C836 1.410 . S
C835 C843 1.503 . S
C836 C835 1.410 . S
C836 C837 1.392 . S
C836 C839 1.511 . S
C837 C833 1.376 . S
C837 C836 1.392 . S
C837 H849 0.929 . S
C838 C834 1.531 . S
C838 H850 0.960 . S
C838 H851 0.962 . S
C838 H852 0.960 . S
C839 C836 1.511 . S
C839 H853 0.961 . S
C839 H854 0.961 . S
C839 H855 0.961 . S
C840 C841 1.370 . S
C840 C842 1.363 . S
C840 H856 0.931 . S
C841 C840 1.370 . S
C841 C845 1.408 . S
C842 C840 1.363 . S
C842 C843 1.370 . S
C842 C846 1.524 . S
C843 C835 1.503 . S
C843 C842 1.370 . S
C843 C844 1.403 . S
C844 C843 1.403 . S
C844 C845 1.404 . S
C844 C847 1.539 . S
C845 C841 1.408 . S
C845 C844 1.404 . S
C845 H857 0.930 . S
C846 C842 1.524 . S
C846 H858 0.956 . S
C846 H859 0.961 . S
C846 H860 0.961 . S
C847 C844 1.539 . S
C847 H861 0.958 . S
C847 H862 0.961 . S
C847 H863 0.960 . S
H848 C832 0.931 . S
H849 C837 0.929 . S
H850 C838 0.960 . S
H851 C838 0.962 . S
H852 C838 0.960 . S
H853 C839 0.961 . S
H854 C839 0.961 . S
H855 C839 0.961 . S
H856 C840 0.931 . S
H857 C845 0.930 . S
H858 C846 0.956 . S
H859 C846 0.961 . S
H860 C846 0.961 . S
H861 C847 0.958 . S
H862 C847 0.961 . S
H863 C847 0.960 . S
C864 C865 1.391 . S
C864 C866 1.394 1_556 S
C864 H880 0.931 . S
C865 C864 1.391 . S
C865 C869 1.376 . S
C866 C864 1.394 1_554 S
C866 C867 1.369 . S
C866 C870 1.531 . S
C867 C866 1.369 . S
C867 C868 1.410 . S
C867 C875 1.503 . S
C868 C867 1.410 . S
C868 C869 1.392 1_554 S
C868 C871 1.511 . S
C869 C865 1.376 . S
C869 C868 1.392 1_556 S
C869 H881 0.929 . S
C870 C866 1.531 . S
C870 H882 0.960 . S
C870 H883 0.962 . S
C870 H884 0.960 . S
C871 C868 1.511 . S
C871 H885 0.961 . S
C871 H886 0.961 . S
C871 H887 0.961 . S
C872 C873 1.370 . S
C872 C874 1.363 . S
C872 H888 0.931 . S
C873 C872 1.370 . S
C873 C877 1.408 . S
C874 C872 1.363 . S
C874 C875 1.370 . S
C874 C878 1.524 . S
C875 C867 1.503 . S
C875 C874 1.370 . S
C875 C876 1.403 . S
C876 C875 1.403 . S
C876 C877 1.404 . S
C876 C879 1.539 . S
C877 C873 1.408 . S
C877 C876 1.404 . S
C877 H889 0.930 . S
C878 C874 1.524 . S
C878 H890 0.956 . S
C878 H891 0.961 . S
C878 H892 0.961 . S
C879 C876 1.539 . S
C879 H893 0.958 . S
C879 H894 0.961 . S
C879 H895 0.960 . S
H880 C864 0.931 . S
H881 C869 0.929 . S
H882 C870 0.960 . S
H883 C870 0.962 . S
H884 C870 0.960 . S
H885 C871 0.961 . S
H886 C871 0.961 . S
H887 C871 0.961 . S
H888 C872 0.931 . S
H889 C877 0.930 . S
H890 C878 0.956 . S
H891 C878 0.961 . S
H892 C878 0.961 . S
H893 C879 0.958 . S
H894 C879 0.961 . S
H895 C879 0.960 . S
C896 C897 1.391 . S
C896 C898 1.394 . S
C896 H912 0.931 . S
C897 C896 1.391 . S
C897 C901 1.376 . S
C898 C896 1.394 . S
C898 C899 1.369 . S
C898 C902 1.531 . S
C899 C898 1.369 . S
C899 C900 1.410 . S
C899 C907 1.503 . S
C900 C899 1.410 . S
C900 C901 1.392 . S
C900 C903 1.511 . S
C901 C897 1.376 . S
C901 C900 1.392 . S
C901 H913 0.929 . S
C902 C898 1.531 . S
C902 H914 0.960 . S
C902 H915 0.962 . S
C902 H916 0.960 . S
C903 C900 1.511 . S
C903 H917 0.961 . S
C903 H918 0.961 . S
C903 H919 0.961 . S
C904 C905 1.370 . S
C904 C906 1.363 . S
C904 H920 0.931 . S
C905 C904 1.370 . S
C905 C909 1.408 . S
C906 C904 1.363 . S
C906 C907 1.370 . S
C906 C910 1.524 . S
C907 C899 1.503 . S
C907 C906 1.370 . S
C907 C908 1.403 . S
C908 C907 1.403 . S
C908 C909 1.404 . S
C908 C911 1.539 . S
C909 C905 1.408 . S
C909 C908 1.404 . S
C909 H921 0.930 . S
C910 C906 1.524 . S
C910 H922 0.956 . S
C910 H923 0.961 . S
C910 H924 0.961 . S
C911 C908 1.539 . S
C911 H925 0.958 . S
C911 H926 0.961 . S
C911 H927 0.960 . S
H912 C896 0.931 . S
H913 C901 0.929 . S
H914 C902 0.960 . S
H915 C902 0.962 . S
H916 C902 0.960 . S
H917 C903 0.961 . S
H918 C903 0.961 . S
H919 C903 0.961 . S
H920 C904 0.931 . S
H921 C909 0.930 . S
H922 C910 0.956 . S
H923 C910 0.961 . S
H924 C910 0.961 . S
H925 C911 0.958 . S
H926 C911 0.961 . S
H927 C911 0.960 . S
C928 C929 1.391 . S
C928 C930 1.394 . S
C928 H944 0.931 . S
C929 C928 1.391 . S
C929 C933 1.376 . S
C930 C928 1.394 . S
C930 C931 1.369 . S
C930 C934 1.531 . S
C931 C930 1.369 . S
C931 C932 1.410 . S
C931 C939 1.503 . S
C932 C931 1.410 . S
C932 C933 1.392 . S
C932 C935 1.511 . S
C933 C929 1.376 . S
C933 C932 1.392 . S
C933 H945 0.929 . S
C934 C930 1.531 . S
C934 H946 0.960 . S
C934 H947 0.962 . S
C934 H948 0.960 . S
C935 C932 1.511 . S
C935 H949 0.961 . S
C935 H950 0.961 . S
C935 H951 0.961 . S
C936 C937 1.370 . S
C936 C938 1.363 . S
C936 H952 0.931 . S
C937 C936 1.370 . S
C937 C941 1.408 . S
C938 C936 1.363 . S
C938 C939 1.370 . S
C938 C942 1.524 . S
C939 C931 1.503 . S
C939 C938 1.370 . S
C939 C940 1.403 . S
C940 C939 1.403 . S
C940 C941 1.404 . S
C940 C943 1.539 . S
C941 C937 1.408 . S
C941 C940 1.404 . S
C941 H953 0.930 . S
C942 C938 1.524 . S
C942 H954 0.956 . S
C942 H955 0.961 . S
C942 H956 0.961 . S
C943 C940 1.539 . S
C943 H957 0.958 . S
C943 H958 0.961 . S
C943 H959 0.960 . S
H944 C928 0.931 . S
H945 C933 0.929 . S
H946 C934 0.960 . S
H947 C934 0.962 . S
H948 C934 0.960 . S
H949 C935 0.961 . S
H950 C935 0.961 . S
H951 C935 0.961 . S
H952 C936 0.931 . S
H953 C941 0.930 . S
H954 C942 0.956 . S
H955 C942 0.961 . S
H956 C942 0.961 . S
H957 C943 0.958 . S
H958 C943 0.961 . S
H959 C943 0.960 . S
C960 C961 1.391 . S
C960 C962 1.394 1_554 S
C960 H976 0.931 . S
C961 C960 1.391 . S
C961 C965 1.376 . S
C962 C960 1.394 1_556 S
C962 C963 1.369 . S
C962 C966 1.531 . S
C963 C962 1.369 . S
C963 C964 1.410 . S
C963 C971 1.503 . S
C964 C963 1.410 . S
C964 C965 1.392 1_556 S
C964 C967 1.511 . S
C965 C961 1.376 . S
C965 C964 1.392 1_554 S
C965 H977 0.929 . S
C966 C962 1.531 . S
C966 H978 0.960 . S
C966 H979 0.962 . S
C966 H980 0.960 . S
C967 C964 1.511 . S
C967 H981 0.961 . S
C967 H982 0.961 . S
C967 H983 0.961 . S
C968 C969 1.370 . S
C968 C970 1.363 . S
C968 H984 0.931 . S
C969 C968 1.370 . S
C969 C973 1.408 . S
C970 C968 1.363 . S
C970 C971 1.370 . S
C970 C974 1.524 . S
C971 C963 1.503 . S
C971 C970 1.370 . S
C971 C972 1.403 . S
C972 C971 1.403 . S
C972 C973 1.404 . S
C972 C975 1.539 . S
C973 C969 1.408 . S
C973 C972 1.404 . S
C973 H985 0.930 . S
C974 C970 1.524 . S
C974 H986 0.956 . S
C974 H987 0.961 . S
C974 H988 0.961 . S
C975 C972 1.539 . S
C975 H989 0.958 . S
C975 H990 0.961 . S
C975 H991 0.960 . S
H976 C960 0.931 . S
H977 C965 0.929 . S
H978 C966 0.960 . S
H979 C966 0.962 . S
H980 C966 0.960 . S
H981 C967 0.961 . S
H982 C967 0.961 . S
H983 C967 0.961 . S
H984 C968 0.931 . S
H985 C973 0.930 . S
H986 C974 0.956 . S
H987 C974 0.961 . S
H988 C974 0.961 . S
H989 C975 0.958 . S
H990 C975 0.961 . S
H991 C975 0.960 . S
C992 C993 1.391 . S
C992 C994 1.394 . S
C992 H1008 0.931 . S
C993 C992 1.391 . S
C993 C997 1.376 . S
C994 C992 1.394 . S
C994 C995 1.369 . S
C994 C998 1.531 . S
C995 C994 1.369 . S
C995 C996 1.410 . S
C995 C1003 1.503 . S
C996 C995 1.410 . S
C996 C997 1.392 . S
C996 C999 1.511 . S
C997 C993 1.376 . S
C997 C996 1.392 . S
C997 H1009 0.929 . S
C998 C994 1.531 . S
C998 H1010 0.960 . S
C998 H1011 0.962 . S
C998 H1012 0.960 . S
C999 C996 1.511 . S
C999 H1013 0.961 . S
C999 H1014 0.961 . S
C999 H1015 0.961 . S
C1000 C1001 1.370 . S
C1000 C1002 1.363 . S
C1000 H1016 0.931 . S
C1001 C1000 1.370 . S
C1001 C1005 1.408 . S
C1002 C1000 1.363 . S
C1002 C1003 1.370 . S
C1002 C1006 1.524 . S
C1003 C995 1.503 . S
C1003 C1002 1.370 . S
C1003 C1004 1.403 . S
C1004 C1003 1.403 . S
C1004 C1005 1.404 . S
C1004 C1007 1.539 . S
C1005 C1001 1.408 . S
C1005 C1004 1.404 . S
C1005 H1017 0.930 . S
C1006 C1002 1.524 . S
C1006 H1018 0.956 . S
C1006 H1019 0.961 . S
C1006 H1020 0.961 . S
C1007 C1004 1.539 . S
C1007 H1021 0.958 . S
C1007 H1022 0.961 . S
C1007 H1023 0.960 . S
H1008 C992 0.931 . S
H1009 C997 0.929 . S
H1010 C998 0.960 . S
H1011 C998 0.962 . S
H1012 C998 0.960 . S
H1013 C999 0.961 . S
H1014 C999 0.961 . S
H1015 C999 0.961 . S
H1016 C1000 0.931 . S
H1017 C1005 0.930 . S
H1018 C1006 0.956 . S
H1019 C1006 0.961 . S
H1020 C1006 0.961 . S
H1021 C1007 0.958 . S
H1022 C1007 0.961 . S
H1023 C1007 0.960 . S
C1024 C1025 1.391 . S
C1024 C1026 1.394 . S
C1024 H1040 0.931 . S
C1025 C1024 1.391 . S
C1025 C1029 1.376 . S
C1026 C1024 1.394 . S
C1026 C1027 1.369 . S
C1026 C1030 1.531 . S
C1027 C1026 1.369 . S
C1027 C1028 1.410 . S
C1027 C1035 1.503 . S
C1028 C1027 1.410 . S
C1028 C1029 1.392 . S
C1028 C1031 1.511 . S
C1029 C1025 1.376 . S
C1029 C1028 1.392 . S
C1029 H1041 0.929 . S
C1030 C1026 1.531 . S
C1030 H1042 0.960 . S
C1030 H1043 0.962 . S
C1030 H1044 0.960 . S
C1031 C1028 1.511 . S
C1031 H1045 0.961 . S
C1031 H1046 0.961 . S
C1031 H1047 0.961 . S
C1032 C1033 1.370 . S
C1032 C1034 1.363 . S
C1032 H1048 0.931 . S
C1033 C1032 1.370 . S
C1033 C1037 1.408 . S
C1034 C1032 1.363 . S
C1034 C1035 1.370 . S
C1034 C1038 1.524 . S
C1035 C1027 1.503 . S
C1035 C1034 1.370 . S
C1035 C1036 1.403 . S
C1036 C1035 1.403 . S
C1036 C1037 1.404 . S
C1036 C1039 1.539 . S
C1037 C1033 1.408 . S
C1037 C1036 1.404 . S
C1037 H1049 0.930 . S
C1038 C1034 1.524 . S
C1038 H1050 0.956 . S
C1038 H1051 0.961 . S
C1038 H1052 0.961 . S
C1039 C1036 1.539 . S
C1039 H1053 0.958 . S
C1039 H1054 0.961 . S
C1039 H1055 0.960 . S
H1040 C1024 0.931 . S
H1041 C1029 0.929 . S
H1042 C1030 0.960 . S
H1043 C1030 0.962 . S
H1044 C1030 0.960 . S
H1045 C1031 0.961 . S
H1046 C1031 0.961 . S
H1047 C1031 0.961 . S
H1048 C1032 0.931 . S
H1049 C1037 0.930 . S
H1050 C1038 0.956 . S
H1051 C1038 0.961 . S
H1052 C1038 0.961 . S
H1053 C1039 0.958 . S
H1054 C1039 0.961 . S
H1055 C1039 0.960 . S
C1056 C1057 1.391 . S
C1056 C1058 1.394 . S
C1056 H1072 0.931 . S
C1057 C1056 1.391 . S
C1057 C1061 1.376 . S
C1058 C1056 1.394 . S
C1058 C1059 1.369 . S
C1058 C1062 1.531 . S
C1059 C1058 1.369 . S
C1059 C1060 1.410 . S
C1059 C1067 1.503 . S
C1060 C1059 1.410 . S
C1060 C1061 1.392 . S
C1060 C1063 1.511 . S
C1061 C1057 1.376 . S
C1061 C1060 1.392 . S
C1061 H1073 0.929 . S
C1062 C1058 1.531 . S
C1062 H1074 0.960 . S
C1062 H1075 0.962 . S
C1062 H1076 0.960 . S
C1063 C1060 1.511 . S
C1063 H1077 0.961 . S
C1063 H1078 0.961 . S
C1063 H1079 0.961 . S
C1064 C1065 1.370 . S
C1064 C1066 1.363 . S
C1064 H1080 0.931 . S
C1065 C1064 1.370 . S
C1065 C1069 1.408 . S
C1066 C1064 1.363 . S
C1066 C1067 1.370 . S
C1066 C1070 1.524 . S
C1067 C1059 1.503 . S
C1067 C1066 1.370 . S
C1067 C1068 1.403 . S
C1068 C1067 1.403 . S
C1068 C1069 1.404 . S
C1068 C1071 1.539 . S
C1069 C1065 1.408 . S
C1069 C1068 1.404 . S
C1069 H1081 0.930 . S
C1070 C1066 1.524 . S
C1070 H1082 0.956 . S
C1070 H1083 0.961 . S
C1070 H1084 0.961 . S
C1071 C1068 1.539 . S
C1071 H1085 0.958 . S
C1071 H1086 0.961 . S
C1071 H1087 0.960 . S
H1072 C1056 0.931 . S
H1073 C1061 0.929 . S
H1074 C1062 0.960 . S
H1075 C1062 0.962 . S
H1076 C1062 0.960 . S
H1077 C1063 0.961 . S
H1078 C1063 0.961 . S
H1079 C1063 0.961 . S
H1080 C1064 0.931 . S
H1081 C1069 0.930 . S
H1082 C1070 0.956 . S
H1083 C1070 0.961 . S
H1084 C1070 0.961 . S
H1085 C1071 0.958 . S
H1086 C1071 0.961 . S
H1087 C1071 0.960 . S
C1088 C1089 1.391 . S
C1088 C1090 1.394 . S
C1088 H1104 0.931 . S
C1089 C1088 1.391 . S
C1089 C1093 1.376 . S
C1090 C1088 1.394 . S
C1090 C1091 1.369 . S
C1090 C1094 1.531 . S
C1091 C1090 1.369 . S
C1091 C1092 1.410 . S
C1091 C1099 1.503 . S
C1092 C1091 1.410 . S
C1092 C1093 1.392 . S
C1092 C1095 1.511 . S
C1093 C1089 1.376 . S
C1093 C1092 1.392 . S
C1093 H1105 0.929 . S
C1094 C1090 1.531 . S
C1094 H1106 0.960 . S
C1094 H1107 0.962 . S
C1094 H1108 0.960 . S
C1095 C1092 1.511 . S
C1095 H1109 0.961 . S
C1095 H1110 0.961 . S
C1095 H1111 0.961 . S
C1096 C1097 1.370 . S
C1096 C1098 1.363 . S
C1096 H1112 0.931 . S
C1097 C1096 1.370 . S
C1097 C1101 1.408 . S
C1098 C1096 1.363 . S
C1098 C1099 1.370 . S
C1098 C1102 1.524 . S
C1099 C1091 1.503 . S
C1099 C1098 1.370 . S
C1099 C1100 1.403 . S
C1100 C1099 1.403 . S
C1100 C1101 1.404 . S
C1100 C1103 1.539 . S
C1101 C1097 1.408 . S
C1101 C1100 1.404 . S
C1101 H1113 0.930 . S
C1102 C1098 1.524 . S
C1102 H1114 0.956 . S
C1102 H1115 0.961 . S
C1102 H1116 0.961 . S
C1103 C1100 1.539 . S
C1103 H1117 0.958 . S
C1103 H1118 0.961 . S
C1103 H1119 0.960 . S
H1104 C1088 0.931 . S
H1105 C1093 0.929 . S
H1106 C1094 0.960 . S
H1107 C1094 0.962 . S
H1108 C1094 0.960 . S
H1109 C1095 0.961 . S
H1110 C1095 0.961 . S
H1111 C1095 0.961 . S
H1112 C1096 0.931 . S
H1113 C1101 0.930 . S
H1114 C1102 0.956 . S
H1115 C1102 0.961 . S
H1116 C1102 0.961 . S
H1117 C1103 0.958 . S
H1118 C1103 0.961 . S
H1119 C1103 0.960 . S
C1120 C1121 1.391 . S
C1120 C1122 1.394 1_554 S
C1120 H1136 0.931 . S
C1121 C1120 1.391 . S
C1121 C1125 1.376 . S
C1122 C1120 1.394 1_556 S
C1122 C1123 1.369 . S
C1122 C1126 1.531 . S
C1123 C1122 1.369 . S
C1123 C1124 1.410 . S
C1123 C1131 1.503 . S
C1124 C1123 1.410 . S
C1124 C1125 1.392 1_556 S
C1124 C1127 1.511 . S
C1125 C1121 1.376 . S
C1125 C1124 1.392 1_554 S
C1125 H1137 0.929 . S
C1126 C1122 1.531 . S
C1126 H1138 0.960 . S
C1126 H1139 0.962 . S
C1126 H1140 0.960 . S
C1127 C1124 1.511 . S
C1127 H1141 0.961 . S
C1127 H1142 0.961 . S
C1127 H1143 0.961 . S
C1128 C1129 1.370 . S
C1128 C1130 1.363 . S
C1128 H1144 0.931 . S
C1129 C1128 1.370 . S
C1129 C1133 1.408 . S
C1130 C1128 1.363 . S
C1130 C1131 1.370 . S
C1130 C1134 1.524 . S
C1131 C1123 1.503 . S
C1131 C1130 1.370 . S
C1131 C1132 1.403 . S
C1132 C1131 1.403 . S
C1132 C1133 1.404 . S
C1132 C1135 1.539 . S
C1133 C1129 1.408 . S
C1133 C1132 1.404 . S
C1133 H1145 0.930 . S
C1134 C1130 1.524 . S
C1134 H1146 0.956 . S
C1134 H1147 0.961 . S
C1134 H1148 0.961 . S
C1135 C1132 1.539 . S
C1135 H1149 0.958 . S
C1135 H1150 0.961 . S
C1135 H1151 0.960 . S
H1136 C1120 0.931 . S
H1137 C1125 0.929 . S
H1138 C1126 0.960 . S
H1139 C1126 0.962 . S
H1140 C1126 0.960 . S
H1141 C1127 0.961 . S
H1142 C1127 0.961 . S
H1143 C1127 0.961 . S
H1144 C1128 0.931 . S
H1145 C1133 0.930 . S
H1146 C1134 0.956 . S
H1147 C1134 0.961 . S
H1148 C1134 0.961 . S
H1149 C1135 0.958 . S
H1150 C1135 0.961 . S
H1151 C1135 0.960 . S
C1152 C1153 1.391 . S
C1152 C1154 1.394 . S
C1152 H1168 0.931 . S
C1153 C1152 1.391 . S
C1153 C1157 1.376 . S
C1154 C1152 1.394 . S
C1154 C1155 1.369 . S
C1154 C1158 1.531 . S
C1155 C1154 1.369 . S
C1155 C1156 1.410 . S
C1155 C1163 1.503 . S
C1156 C1155 1.410 . S
C1156 C1157 1.392 . S
C1156 C1159 1.511 . S
C1157 C1153 1.376 . S
C1157 C1156 1.392 . S
C1157 H1169 0.929 . S
C1158 C1154 1.531 . S
C1158 H1170 0.960 . S
C1158 H1171 0.962 . S
C1158 H1172 0.960 . S
C1159 C1156 1.511 . S
C1159 H1173 0.961 . S
C1159 H1174 0.961 . S
C1159 H1175 0.961 . S
C1160 C1161 1.370 . S
C1160 C1162 1.363 . S
C1160 H1176 0.931 . S
C1161 C1160 1.370 . S
C1161 C1165 1.408 . S
C1162 C1160 1.363 . S
C1162 C1163 1.370 . S
C1162 C1166 1.524 . S
C1163 C1155 1.503 . S
C1163 C1162 1.370 . S
C1163 C1164 1.403 . S
C1164 C1163 1.403 . S
C1164 C1165 1.404 . S
C1164 C1167 1.539 . S
C1165 C1161 1.408 . S
C1165 C1164 1.404 . S
C1165 H1177 0.930 . S
C1166 C1162 1.524 . S
C1166 H1178 0.956 . S
C1166 H1179 0.961 . S
C1166 H1180 0.961 . S
C1167 C1164 1.539 . S
C1167 H1181 0.958 . S
C1167 H1182 0.961 . S
C1167 H1183 0.960 . S
H1168 C1152 0.931 . S
H1169 C1157 0.929 . S
H1170 C1158 0.960 . S
H1171 C1158 0.962 . S
H1172 C1158 0.960 . S
H1173 C1159 0.961 . S
H1174 C1159 0.961 . S
H1175 C1159 0.961 . S
H1176 C1160 0.931 . S
H1177 C1165 0.930 . S
H1178 C1166 0.956 . S
H1179 C1166 0.961 . S
H1180 C1166 0.961 . S
H1181 C1167 0.958 . S
H1182 C1167 0.961 . S
H1183 C1167 0.960 . S
C1184 C1185 1.391 . S
C1184 C1186 1.394 . S
C1184 H1200 0.931 . S
C1185 C1184 1.391 . S
C1185 C1189 1.376 . S
C1186 C1184 1.394 . S
C1186 C1187 1.369 . S
C1186 C1190 1.531 . S
C1187 C1186 1.369 . S
C1187 C1188 1.410 . S
C1187 C1195 1.503 . S
C1188 C1187 1.410 . S
C1188 C1189 1.392 . S
C1188 C1191 1.511 . S
C1189 C1185 1.376 . S
C1189 C1188 1.392 . S
C1189 H1201 0.929 . S
C1190 C1186 1.531 . S
C1190 H1202 0.960 . S
C1190 H1203 0.962 . S
C1190 H1204 0.960 . S
C1191 C1188 1.511 . S
C1191 H1205 0.961 . S
C1191 H1206 0.961 . S
C1191 H1207 0.961 . S
C1192 C1193 1.370 . S
C1192 C1194 1.363 . S
C1192 H1208 0.931 . S
C1193 C1192 1.370 . S
C1193 C1197 1.408 . S
C1194 C1192 1.363 . S
C1194 C1195 1.370 . S
C1194 C1198 1.524 . S
C1195 C1187 1.503 . S
C1195 C1194 1.370 . S
C1195 C1196 1.403 . S
C1196 C1195 1.403 . S
C1196 C1197 1.404 . S
C1196 C1199 1.539 . S
C1197 C1193 1.408 . S
C1197 C1196 1.404 . S
C1197 H1209 0.930 . S
C1198 C1194 1.524 . S
C1198 H1210 0.956 . S
C1198 H1211 0.961 . S
C1198 H1212 0.961 . S
C1199 C1196 1.539 . S
C1199 H1213 0.958 . S
C1199 H1214 0.961 . S
C1199 H1215 0.960 . S
H1200 C1184 0.931 . S
H1201 C1189 0.929 . S
H1202 C1190 0.960 . S
H1203 C1190 0.962 . S
H1204 C1190 0.960 . S
H1205 C1191 0.961 . S
H1206 C1191 0.961 . S
H1207 C1191 0.961 . S
H1208 C1192 0.931 . S
H1209 C1197 0.930 . S
H1210 C1198 0.956 . S
H1211 C1198 0.961 . S
H1212 C1198 0.961 . S
H1213 C1199 0.958 . S
H1214 C1199 0.961 . S
H1215 C1199 0.960 . S
C1216 C1217 1.391 . S
C1216 C1218 1.394 . S
C1216 H1232 0.931 . S
C1217 C1216 1.391 . S
C1217 C1221 1.376 . S
C1218 C1216 1.394 . S
C1218 C1219 1.369 . S
C1218 C1222 1.531 . S
C1219 C1218 1.369 . S
C1219 C1220 1.410 . S
C1219 C1227 1.503 . S
C1220 C1219 1.410 . S
C1220 C1221 1.392 . S
C1220 C1223 1.511 . S
C1221 C1217 1.376 . S
C1221 C1220 1.392 . S
C1221 H1233 0.929 . S
C1222 C1218 1.531 . S
C1222 H1234 0.960 . S
C1222 H1235 0.962 . S
C1222 H1236 0.960 . S
C1223 C1220 1.511 . S
C1223 H1237 0.961 . S
C1223 H1238 0.961 . S
C1223 H1239 0.961 . S
C1224 C1225 1.370 . S
C1224 C1226 1.363 . S
C1224 H1240 0.931 . S
C1225 C1224 1.370 . S
C1225 C1229 1.408 . S
C1226 C1224 1.363 . S
C1226 C1227 1.370 . S
C1226 C1230 1.524 . S
C1227 C1219 1.503 . S
C1227 C1226 1.370 . S
C1227 C1228 1.403 . S
C1228 C1227 1.403 . S
C1228 C1229 1.404 . S
C1228 C1231 1.539 . S
C1229 C1225 1.408 . S
C1229 C1228 1.404 . S
C1229 H1241 0.930 . S
C1230 C1226 1.524 . S
C1230 H1242 0.956 . S
C1230 H1243 0.961 . S
C1230 H1244 0.961 . S
C1231 C1228 1.539 . S
C1231 H1245 0.958 . S
C1231 H1246 0.961 . S
C1231 H1247 0.960 . S
H1232 C1216 0.931 . S
H1233 C1221 0.929 . S
H1234 C1222 0.960 . S
H1235 C1222 0.962 . S
H1236 C1222 0.960 . S
H1237 C1223 0.961 . S
H1238 C1223 0.961 . S
H1239 C1223 0.961 . S
H1240 C1224 0.931 . S
H1241 C1229 0.930 . S
H1242 C1230 0.956 . S
H1243 C1230 0.961 . S
H1244 C1230 0.961 . S
H1245 C1231 0.958 . S
H1246 C1231 0.961 . S
H1247 C1231 0.960 . S
C1248 C1249 1.391 . S
C1248 C1250 1.394 . S
C1248 H1264 0.931 . S
C1249 C1248 1.391 . S
C1249 C1253 1.376 . S
C1250 C1248 1.394 . S
C1250 C1251 1.369 . S
C1250 C1254 1.531 . S
C1251 C1250 1.369 . S
C1251 C1252 1.410 . S
C1251 C1259 1.503 1_655 S
C1252 C1251 1.410 . S
C1252 C1253 1.392 . S
C1252 C1255 1.511 1_556 S
C1253 C1249 1.376 . S
C1253 C1252 1.392 . S
C1253 H1265 0.929 . S
C1254 C1250 1.531 . S
C1254 H1266 0.960 1_655 S
C1254 H1267 0.962 . S
C1254 H1268 0.960 . S
C1255 C1252 1.511 1_554 S
C1255 H1269 0.961 . S
C1255 H1270 0.961 1_655 S
C1255 H1271 0.961 . S
C1256 C1257 1.370 . S
C1256 C1258 1.363 . S
C1256 H1272 0.931 . S
C1257 C1256 1.370 . S
C1257 C1261 1.408 . S
C1258 C1256 1.363 . S
C1258 C1259 1.370 . S
C1258 C1262 1.524 . S
C1259 C1251 1.503 1_455 S
C1259 C1258 1.370 . S
C1259 C1260 1.403 . S
C1260 C1259 1.403 . S
C1260 C1261 1.404 . S
C1260 C1263 1.539 . S
C1261 C1257 1.408 . S
C1261 C1260 1.404 . S
C1261 H1273 0.930 . S
C1262 C1258 1.524 . S
C1262 H1274 0.956 . S
C1262 H1275 0.996 1_556 S
C1262 H1276 0.961 1_556 S
C1263 C1260 1.539 . S
C1263 H1277 0.958 . S
C1263 H1278 0.961 . S
C1263 H1279 0.960 . S
H1264 C1248 0.931 . S
H1265 C1253 0.929 . S
H1266 C1254 0.960 1_455 S
H1267 C1254 0.962 . S
H1268 C1254 0.960 . S
H1269 C1255 0.961 . S
H1270 C1255 0.961 1_455 S
H1271 C1255 0.961 . S
H1272 C1256 0.931 . S
H1273 C1261 0.930 . S
H1274 C1262 0.956 . S
H1275 C1262 0.996 1_554 S
H1276 C1262 0.961 1_554 S
H1277 C1263 0.958 . S
H1278 C1263 0.961 . S
H1279 C1263 0.960 . S
C1280 C1281 1.391 . S
C1280 C1282 1.394 . S
C1280 H1296 0.931 . S
C1281 C1280 1.391 . S
C1281 C1285 1.376 . S
C1282 C1280 1.394 . S
C1282 C1283 1.369 . S
C1282 C1286 1.531 . S
C1283 C1282 1.369 . S
C1283 C1284 1.410 . S
C1283 C1291 1.503 . S
C1284 C1283 1.410 . S
C1284 C1285 1.392 . S
C1284 C1287 1.511 . S
C1285 C1281 1.376 . S
C1285 C1284 1.392 . S
C1285 H1297 0.929 . S
C1286 C1282 1.531 . S
C1286 H1298 0.960 . S
C1286 H1299 0.962 . S
C1286 H1300 0.960 . S
C1287 C1284 1.511 . S
C1287 H1301 0.961 . S
C1287 H1302 0.961 . S
C1287 H1303 0.961 . S
C1288 C1289 1.370 . S
C1288 C1290 1.363 . S
C1288 H1304 0.931 . S
C1289 C1288 1.370 . S
C1289 C1293 1.408 . S
C1290 C1288 1.363 . S
C1290 C1291 1.370 . S
C1290 C1294 1.524 . S
C1291 C1283 1.503 . S
C1291 C1290 1.370 . S
C1291 C1292 1.403 . S
C1292 C1291 1.403 . S
C1292 C1293 1.404 . S
C1292 C1295 1.539 . S
C1293 C1289 1.408 . S
C1293 C1292 1.404 . S
C1293 H1305 0.930 . S
C1294 C1290 1.524 . S
C1294 H1306 0.956 . S
C1294 H1307 0.961 . S
C1294 H1308 0.961 . S
C1295 C1292 1.539 . S
C1295 H1309 0.958 . S
C1295 H1310 0.961 . S
C1295 H1311 0.960 . S
H1296 C1280 0.931 . S
H1297 C1285 0.929 . S
H1298 C1286 0.960 . S
H1299 C1286 0.962 . S
H1300 C1286 0.960 . S
H1301 C1287 0.961 . S
H1302 C1287 0.961 . S
H1303 C1287 0.961 . S
H1304 C1288 0.931 . S
H1305 C1293 0.930 . S
H1306 C1294 0.956 . S
H1307 C1294 0.961 . S
H1308 C1294 0.961 . S
H1309 C1295 0.958 . S
H1310 C1295 0.961 . S
H1311 C1295 0.960 . S
C1312 C1313 1.391 . S
C1312 C1314 1.394 . S
C1312 H1328 0.931 . S
C1313 C1312 1.391 . S
C1313 C1317 1.376 . S
C1314 C1312 1.394 . S
C1314 C1315 1.369 . S
C1314 C1318 1.531 . S
C1315 C1314 1.369 . S
C1315 C1316 1.410 . S
C1315 C1323 1.503 1_455 S
C1316 C1315 1.410 . S
C1316 C1317 1.392 . S
C1316 C1319 1.511 1_554 S
C1317 C1313 1.376 . S
C1317 C1316 1.392 . S
C1317 H1329 0.929 1_554 S
C1318 C1314 1.531 . S
C1318 H1330 0.960 1_455 S
C1318 H1331 0.962 . S
C1318 H1332 0.960 . S
C1319 C1316 1.511 1_556 S
C1319 H1333 0.961 . S
C1319 H1334 0.961 1_455 S
C1319 H1335 0.961 . S
C1320 C1321 1.370 . S
C1320 C1322 1.363 . S
C1320 H1336 0.931 . S
C1321 C1320 1.370 . S
C1321 C1325 1.408 . S
C1322 C1320 1.363 . S
C1322 C1323 1.370 . S
C1322 C1326 1.524 . S
C1323 C1315 1.503 1_655 S
C1323 C1322 1.370 . S
C1323 C1324 1.403 . S
C1324 C1323 1.403 . S
C1324 C1325 1.404 . S
C1324 C1327 1.539 . S
C1325 C1321 1.408 . S
C1325 C1324 1.404 . S
C1325 H1337 0.930 . S
C1326 C1322 1.524 . S
C1326 H1338 0.956 . S
C1326 H1339 0.946 1_655 S
C1326 H1340 0.961 . S
C1327 C1324 1.539 . S
C1327 H1341 0.958 . S
C1327 H1342 0.961 . S
C1327 H1343 0.960 . S
H1328 C1312 0.931 . S
H1329 C1317 0.929 1_556 S
H1330 C1318 0.960 1_655 S
H1331 C1318 0.962 . S
H1332 C1318 0.960 . S
H1333 C1319 0.961 . S
H1334 C1319 0.961 1_655 S
H1335 C1319 0.961 . S
H1336 C1320 0.931 . S
H1337 C1325 0.930 . S
H1338 C1326 0.956 . S
H1339 C1326 0.946 1_455 S
H1340 C1326 0.961 . S
H1341 C1327 0.958 . S
H1342 C1327 0.961 . S
H1343 C1327 0.960 . S
C1344 C1345 1.391 . S
C1344 C1346 1.394 . S
C1344 H1360 0.931 . S
C1345 C1344 1.391 . S
C1345 C1349 1.376 . S
C1346 C1344 1.394 . S
C1346 C1347 1.369 . S
C1346 C1350 1.531 . S
C1347 C1346 1.369 . S
C1347 C1348 1.410 . S
C1347 C1355 1.503 . S
C1348 C1347 1.410 . S
C1348 C1349 1.392 . S
C1348 C1351 1.511 . S
C1349 C1345 1.376 . S
C1349 C1348 1.392 . S
C1349 H1361 0.929 . S
C1350 C1346 1.531 . S
C1350 H1362 0.960 . S
C1350 H1363 0.962 . S
C1350 H1364 0.960 . S
C1351 C1348 1.511 . S
C1351 H1365 0.961 . S
C1351 H1366 0.961 . S
C1351 H1367 0.961 . S
C1352 C1353 1.370 . S
C1352 C1354 1.363 . S
C1352 H1368 0.931 . S
C1353 C1352 1.370 . S
C1353 C1357 1.408 . S
C1354 C1352 1.363 . S
C1354 C1355 1.370 . S
C1354 C1358 1.524 . S
C1355 C1347 1.503 . S
C1355 C1354 1.370 . S
C1355 C1356 1.403 . S
C1356 C1355 1.403 . S
C1356 C1357 1.404 . S
C1356 C1359 1.539 . S
C1357 C1353 1.408 . S
C1357 C1356 1.404 . S
C1357 H1369 0.930 . S
C1358 C1354 1.524 . S
C1358 H1370 0.956 . S
C1358 H1371 0.961 . S
C1358 H1372 0.961 . S
C1359 C1356 1.539 . S
C1359 H1373 0.958 . S
C1359 H1374 0.961 . S
C1359 H1375 0.960 . S
H1360 C1344 0.931 . S
H1361 C1349 0.929 . S
H1362 C1350 0.960 . S
H1363 C1350 0.962 . S
H1364 C1350 0.960 . S
H1365 C1351 0.961 . S
H1366 C1351 0.961 . S
H1367 C1351 0.961 . S
H1368 C1352 0.931 . S
H1369 C1357 0.930 . S
H1370 C1358 0.956 . S
H1371 C1358 0.961 . S
H1372 C1358 0.961 . S
H1373 C1359 0.958 . S
H1374 C1359 0.961 . S
H1375 C1359 0.960 . S
C1376 C1377 1.391 . S
C1376 C1378 1.394 . S
C1376 H1392 0.931 . S
C1377 C1376 1.391 . S
C1377 C1381 1.376 . S
C1378 C1376 1.394 . S
C1378 C1379 1.369 . S
C1378 C1382 1.531 . S
C1379 C1378 1.369 . S
C1379 C1380 1.410 . S
C1379 C1387 1.503 . S
C1380 C1379 1.410 . S
C1380 C1381 1.392 . S
C1380 C1383 1.511 . S
C1381 C1377 1.376 . S
C1381 C1380 1.392 . S
C1381 H1393 0.929 . S
C1382 C1378 1.531 . S
C1382 H1394 0.960 . S
C1382 H1395 0.962 . S
C1382 H1396 0.960 . S
C1383 C1380 1.511 . S
C1383 H1397 0.961 . S
C1383 H1398 0.961 . S
C1383 H1399 0.961 . S
C1384 C1385 1.370 . S
C1384 C1386 1.363 . S
C1384 H1400 0.931 . S
C1385 C1384 1.370 . S
C1385 C1389 1.408 . S
C1386 C1384 1.363 . S
C1386 C1387 1.370 . S
C1386 C1390 1.524 . S
C1387 C1379 1.503 . S
C1387 C1386 1.370 . S
C1387 C1388 1.403 . S
C1388 C1387 1.403 . S
C1388 C1389 1.404 . S
C1388 C1391 1.539 . S
C1389 C1385 1.408 . S
C1389 C1388 1.404 . S
C1389 H1401 0.930 . S
C1390 C1386 1.524 . S
C1390 H1402 0.956 . S
C1390 H1403 0.961 . S
C1390 H1404 0.961 . S
C1391 C1388 1.539 . S
C1391 H1405 0.958 . S
C1391 H1406 0.961 . S
C1391 H1407 0.960 . S
H1392 C1376 0.931 . S
H1393 C1381 0.929 . S
H1394 C1382 0.960 . S
H1395 C1382 0.962 . S
H1396 C1382 0.960 . S
H1397 C1383 0.961 . S
H1398 C1383 0.961 . S
H1399 C1383 0.961 . S
H1400 C1384 0.931 . S
H1401 C1389 0.930 . S
H1402 C1390 0.956 . S
H1403 C1390 0.961 . S
H1404 C1390 0.961 . S
H1405 C1391 0.958 . S
H1406 C1391 0.961 . S
H1407 C1391 0.960 . S
C1408 C1409 1.391 . S
C1408 C1410 1.394 . S
C1408 H1424 0.931 . S
C1409 C1408 1.391 . S
C1409 C1413 1.376 . S
C1410 C1408 1.394 . S
C1410 C1411 1.369 . S
C1410 C1414 1.531 . S
C1411 C1410 1.369 . S
C1411 C1412 1.410 . S
C1411 C1419 1.503 . S
C1412 C1411 1.410 . S
C1412 C1413 1.392 . S
C1412 C1415 1.511 . S
C1413 C1409 1.376 . S
C1413 C1412 1.392 . S
C1413 H1425 0.929 . S
C1414 C1410 1.531 . S
C1414 H1426 0.960 . S
C1414 H1427 0.962 . S
C1414 H1428 0.960 . S
C1415 C1412 1.511 . S
C1415 H1429 0.961 . S
C1415 H1430 0.961 . S
C1415 H1431 0.961 . S
C1416 C1417 1.370 . S
C1416 C1418 1.363 . S
C1416 H1432 0.931 . S
C1417 C1416 1.370 . S
C1417 C1421 1.408 . S
C1418 C1416 1.363 . S
C1418 C1419 1.370 . S
C1418 C1422 1.524 . S
C1419 C1411 1.503 . S
C1419 C1418 1.370 . S
C1419 C1420 1.403 . S
C1420 C1419 1.403 . S
C1420 C1421 1.404 . S
C1420 C1423 1.539 . S
C1421 C1417 1.408 . S
C1421 C1420 1.404 . S
C1421 H1433 0.930 . S
C1422 C1418 1.524 . S
C1422 H1434 0.956 . S
C1422 H1435 0.961 . S
C1422 H1436 0.961 . S
C1423 C1420 1.539 . S
C1423 H1437 0.958 . S
C1423 H1438 0.961 . S
C1423 H1439 0.960 . S
H1424 C1408 0.931 . S
H1425 C1413 0.929 . S
H1426 C1414 0.960 . S
H1427 C1414 0.962 . S
H1428 C1414 0.960 . S
H1429 C1415 0.961 . S
H1430 C1415 0.961 . S
H1431 C1415 0.961 . S
H1432 C1416 0.931 . S
H1433 C1421 0.930 . S
H1434 C1422 0.956 . S
H1435 C1422 0.961 . S
H1436 C1422 0.961 . S
H1437 C1423 0.958 . S
H1438 C1423 0.961 . S
H1439 C1423 0.960 . S
C1440 C1441 1.391 . S
C1440 C1442 1.394 . S
C1440 H1456 0.931 . S
C1441 C1440 1.391 . S
C1441 C1445 1.376 . S
C1442 C1440 1.394 . S
C1442 C1443 1.369 . S
C1442 C1446 1.531 . S
C1443 C1442 1.369 . S
C1443 C1444 1.410 . S
C1443 C1451 1.503 . S
C1444 C1443 1.410 . S
C1444 C1445 1.392 . S
C1444 C1447 1.511 . S
C1445 C1441 1.376 . S
C1445 C1444 1.392 . S
C1445 H1457 0.929 . S
C1446 C1442 1.531 . S
C1446 H1458 0.960 . S
C1446 H1459 0.962 . S
C1446 H1460 0.960 . S
C1447 C1444 1.511 . S
C1447 H1461 0.961 . S
C1447 H1462 0.961 . S
C1447 H1463 0.961 . S
C1448 C1449 1.370 . S
C1448 C1450 1.363 . S
C1448 H1464 0.931 . S
C1449 C1448 1.370 . S
C1449 C1453 1.408 . S
C1450 C1448 1.363 . S
C1450 C1451 1.370 . S
C1450 C1454 1.524 . S
C1451 C1443 1.503 . S
C1451 C1450 1.370 . S
C1451 C1452 1.403 . S
C1452 C1451 1.403 . S
C1452 C1453 1.404 . S
C1452 C1455 1.539 . S
C1453 C1449 1.408 . S
C1453 C1452 1.404 . S
C1453 H1465 0.930 . S
C1454 C1450 1.524 . S
C1454 H1466 0.956 . S
C1454 H1467 0.961 . S
C1454 H1468 0.961 . S
C1455 C1452 1.539 . S
C1455 H1469 0.958 . S
C1455 H1470 0.961 . S
C1455 H1471 0.960 . S
H1456 C1440 0.931 . S
H1457 C1445 0.929 . S
H1458 C1446 0.960 . S
H1459 C1446 0.962 . S
H1460 C1446 0.960 . S
H1461 C1447 0.961 . S
H1462 C1447 0.961 . S
H1463 C1447 0.961 . S
H1464 C1448 0.931 . S
H1465 C1453 0.930 . S
H1466 C1454 0.956 . S
H1467 C1454 0.961 . S
H1468 C1454 0.961 . S
H1469 C1455 0.958 . S
H1470 C1455 0.961 . S
H1471 C1455 0.960 . S
C1472 C1473 1.391 . S
C1472 C1474 1.394 . S
C1472 H1488 0.931 . S
C1473 C1472 1.391 . S
C1473 C1477 1.376 . S
C1474 C1472 1.394 . S
C1474 C1475 1.369 . S
C1474 C1478 1.531 . S
C1475 C1474 1.369 . S
C1475 C1476 1.410 . S
C1475 C1483 1.503 . S
C1476 C1475 1.410 . S
C1476 C1477 1.392 . S
C1476 C1479 1.511 . S
C1477 C1473 1.376 . S
C1477 C1476 1.392 . S
C1477 H1489 0.929 . S
C1478 C1474 1.531 . S
C1478 H1490 0.960 . S
C1478 H1491 0.962 . S
C1478 H1492 0.960 . S
C1479 C1476 1.511 . S
C1479 H1493 0.961 . S
C1479 H1494 0.961 . S
C1479 H1495 0.961 . S
C1480 C1481 1.370 . S
C1480 C1482 1.363 . S
C1480 H1496 0.931 . S
C1481 C1480 1.370 . S
C1481 C1485 1.408 . S
C1482 C1480 1.363 . S
C1482 C1483 1.370 . S
C1482 C1486 1.524 . S
C1483 C1475 1.503 . S
C1483 C1482 1.370 . S
C1483 C1484 1.403 . S
C1484 C1483 1.403 . S
C1484 C1485 1.404 . S
C1484 C1487 1.539 . S
C1485 C1481 1.408 . S
C1485 C1484 1.404 . S
C1485 H1497 0.930 . S
C1486 C1482 1.524 . S
C1486 H1498 0.956 . S
C1486 H1499 0.961 . S
C1486 H1500 0.961 . S
C1487 C1484 1.539 . S
C1487 H1501 0.958 . S
C1487 H1502 0.961 . S
C1487 H1503 0.960 . S
H1488 C1472 0.931 . S
H1489 C1477 0.929 . S
H1490 C1478 0.960 . S
H1491 C1478 0.962 . S
H1492 C1478 0.960 . S
H1493 C1479 0.961 . S
H1494 C1479 0.961 . S
H1495 C1479 0.961 . S
H1496 C1480 0.931 . S
H1497 C1485 0.930 . S
H1498 C1486 0.956 . S
H1499 C1486 0.961 . S
H1500 C1486 0.961 . S
H1501 C1487 0.958 . S
H1502 C1487 0.961 . S
H1503 C1487 0.960 . S
C1504 C1505 1.391 . S
C1504 C1506 1.394 . S
C1504 H1520 0.931 . S
C1505 C1504 1.391 . S
C1505 C1509 1.376 . S
C1506 C1504 1.394 . S
C1506 C1507 1.369 . S
C1506 C1510 1.531 . S
C1507 C1506 1.369 . S
C1507 C1508 1.410 . S
C1507 C1515 1.503 . S
C1508 C1507 1.410 . S
C1508 C1509 1.392 . S
C1508 C1511 1.511 . S
C1509 C1505 1.376 . S
C1509 C1508 1.392 . S
C1509 H1521 0.929 . S
C1510 C1506 1.531 . S
C1510 H1522 0.960 . S
C1510 H1523 0.962 . S
C1510 H1524 0.960 . S
C1511 C1508 1.511 . S
C1511 H1525 0.961 . S
C1511 H1526 0.961 . S
C1511 H1527 0.961 . S
C1512 C1513 1.370 . S
C1512 C1514 1.363 . S
C1512 H1528 0.931 . S
C1513 C1512 1.370 . S
C1513 C1517 1.408 . S
C1514 C1512 1.363 . S
C1514 C1515 1.370 . S
C1514 C1518 1.524 . S
C1515 C1507 1.503 . S
C1515 C1514 1.370 . S
C1515 C1516 1.403 . S
C1516 C1515 1.403 . S
C1516 C1517 1.404 . S
C1516 C1519 1.539 . S
C1517 C1513 1.408 . S
C1517 C1516 1.404 . S
C1517 H1529 0.930 . S
C1518 C1514 1.524 . S
C1518 H1530 0.956 . S
C1518 H1531 0.961 . S
C1518 H1532 0.961 . S
C1519 C1516 1.539 . S
C1519 H1533 0.958 . S
C1519 H1534 0.961 . S
C1519 H1535 0.960 . S
H1520 C1504 0.931 . S
H1521 C1509 0.929 . S
H1522 C1510 0.960 . S
H1523 C1510 0.962 . S
H1524 C1510 0.960 . S
H1525 C1511 0.961 . S
H1526 C1511 0.961 . S
H1527 C1511 0.961 . S
H1528 C1512 0.931 . S
H1529 C1517 0.930 . S
H1530 C1518 0.956 . S
H1531 C1518 0.961 . S
H1532 C1518 0.961 . S
H1533 C1519 0.958 . S
H1534 C1519 0.961 . S
H1535 C1519 0.960 . S
C1536 C1537 1.391 . S
C1536 C1538 1.394 . S
C1536 H1552 0.931 1_556 S
C1537 C1536 1.391 . S
C1537 C1541 1.376 . S
C1538 C1536 1.394 . S
C1538 C1539 1.369 . S
C1538 C1542 1.531 1_556 S
C1539 C1538 1.369 . S
C1539 C1540 1.410 . S
C1539 C1547 1.503 1_655 S
C1540 C1539 1.410 . S
C1540 C1541 1.392 . S
C1540 C1543 1.511 . S
C1541 C1537 1.376 . S
C1541 C1540 1.392 . S
C1541 H1553 0.929 . S
C1542 C1538 1.531 1_554 S
C1542 H1554 0.960 1_655 S
C1542 H1555 0.962 . S
C1542 H1556 0.960 . S
C1543 C1540 1.511 . S
C1543 H1557 0.961 . S
C1543 H1558 0.961 . S
C1543 H1559 0.961 . S
C1544 C1545 1.370 . S
C1544 C1546 1.363 . S
C1544 H1560 0.931 . S
C1545 C1544 1.370 . S
C1545 C1549 1.408 . S
C1546 C1544 1.363 . S
C1546 C1547 1.370 . S
C1546 C1550 1.524 . S
C1547 C1539 1.503 1_455 S
C1547 C1546 1.370 . S
C1547 C1548 1.403 . S
C1548 C1547 1.403 . S
C1548 C1549 1.404 . S
C1548 C1551 1.539 . S
C1549 C1545 1.408 . S
C1549 C1548 1.404 . S
C1549 H1561 0.930 . S
C1550 C1546 1.524 . S
C1550 H1562 0.951 1_455 S
C1550 H1563 0.961 1_455 S
C1550 H1564 0.961 . S
C1551 C1548 1.539 . S
C1551 H1565 0.958 . S
C1551 H1566 0.961 . S
C1551 H1567 0.936 1_455 S
H1552 C1536 0.931 1_554 S
H1553 C1541 0.929 . S
H1554 C1542 0.960 1_455 S
H1555 C1542 0.962 . S
H1556 C1542 0.960 . S
H1557 C1543 0.961 . S
H1558 C1543 0.961 . S
H1559 C1543 0.961 . S
H1560 C1544 0.931 . S
H1561 C1549 0.930 . S
H1562 C1550 0.951 1_655 S
H1563 C1550 0.961 1_655 S
H1564 C1550 0.961 . S
H1565 C1551 0.958 . S
H1566 C1551 0.961 . S
H1567 C1551 0.936 1_655 S
C1568 C1569 1.391 . S
C1568 C1570 1.394 . S
C1568 H1584 0.931 . S
C1569 C1568 1.391 . S
C1569 C1573 1.376 . S
C1570 C1568 1.394 . S
C1570 C1571 1.369 . S
C1570 C1574 1.531 . S
C1571 C1570 1.369 . S
C1571 C1572 1.410 . S
C1571 C1579 1.503 . S
C1572 C1571 1.410 . S
C1572 C1573 1.392 . S
C1572 C1575 1.511 . S
C1573 C1569 1.376 . S
C1573 C1572 1.392 . S
C1573 H1585 0.929 . S
C1574 C1570 1.531 . S
C1574 H1586 0.960 . S
C1574 H1587 0.962 . S
C1574 H1588 0.960 . S
C1575 C1572 1.511 . S
C1575 H1589 0.961 . S
C1575 H1590 0.961 . S
C1575 H1591 0.961 . S
C1576 C1577 1.370 . S
C1576 C1578 1.363 . S
C1576 H1592 0.931 . S
C1577 C1576 1.370 . S
C1577 C1581 1.408 . S
C1578 C1576 1.363 . S
C1578 C1579 1.370 . S
C1578 C1582 1.524 . S
C1579 C1571 1.503 . S
C1579 C1578 1.370 . S
C1579 C1580 1.403 . S
C1580 C1579 1.403 . S
C1580 C1581 1.404 . S
C1580 C1583 1.539 . S
C1581 C1577 1.408 . S
C1581 C1580 1.404 . S
C1581 H1593 0.930 . S
C1582 C1578 1.524 . S
C1582 H1594 0.956 . S
C1582 H1595 0.961 . S
C1582 H1596 0.961 . S
C1583 C1580 1.539 . S
C1583 H1597 0.958 . S
C1583 H1598 0.961 . S
C1583 H1599 0.960 . S
H1584 C1568 0.931 . S
H1585 C1573 0.929 . S
H1586 C1574 0.960 . S
H1587 C1574 0.962 . S
H1588 C1574 0.960 . S
H1589 C1575 0.961 . S
H1590 C1575 0.961 . S
H1591 C1575 0.961 . S
H1592 C1576 0.931 . S
H1593 C1581 0.930 . S
H1594 C1582 0.956 . S
H1595 C1582 0.961 . S
H1596 C1582 0.961 . S
H1597 C1583 0.958 . S
H1598 C1583 0.961 . S
H1599 C1583 0.960 . S
C1600 C1601 1.391 . S
C1600 C1602 1.394 . S
C1600 H1616 0.931 . S
C1601 C1600 1.391 . S
C1601 C1605 1.376 . S
C1602 C1600 1.394 . S
C1602 C1603 1.369 . S
C1602 C1606 1.531 . S
C1603 C1602 1.369 . S
C1603 C1604 1.410 . S
C1603 C1611 1.503 . S
C1604 C1603 1.410 . S
C1604 C1605 1.392 . S
C1604 C1607 1.511 . S
C1605 C1601 1.376 . S
C1605 C1604 1.392 . S
C1605 H1617 0.929 . S
C1606 C1602 1.531 . S
C1606 H1618 0.960 . S
C1606 H1619 0.962 . S
C1606 H1620 0.960 . S
C1607 C1604 1.511 . S
C1607 H1621 0.961 . S
C1607 H1622 0.961 . S
C1607 H1623 0.961 . S
C1608 C1609 1.370 . S
C1608 C1610 1.363 . S
C1608 H1624 0.931 . S
C1609 C1608 1.370 . S
C1609 C1613 1.408 . S
C1610 C1608 1.363 . S
C1610 C1611 1.370 . S
C1610 C1614 1.524 . S
C1611 C1603 1.503 . S
C1611 C1610 1.370 . S
C1611 C1612 1.403 . S
C1612 C1611 1.403 . S
C1612 C1613 1.404 . S
C1612 C1615 1.539 . S
C1613 C1609 1.408 . S
C1613 C1612 1.404 . S
C1613 H1625 0.930 . S
C1614 C1610 1.524 . S
C1614 H1626 0.956 . S
C1614 H1627 0.961 . S
C1614 H1628 0.961 . S
C1615 C1612 1.539 . S
C1615 H1629 0.958 . S
C1615 H1630 0.961 . S
C1615 H1631 0.960 . S
H1616 C1600 0.931 . S
H1617 C1605 0.929 . S
H1618 C1606 0.960 . S
H1619 C1606 0.962 . S
H1620 C1606 0.960 . S
H1621 C1607 0.961 . S
H1622 C1607 0.961 . S
H1623 C1607 0.961 . S
H1624 C1608 0.931 . S
H1625 C1613 0.930 . S
H1626 C1614 0.956 . S
H1627 C1614 0.961 . S
H1628 C1614 0.961 . S
H1629 C1615 0.958 . S
H1630 C1615 0.961 . S
H1631 C1615 0.960 . S
C1632 C1633 1.391 . S
C1632 C1634 1.394 . S
C1632 H1648 0.931 . S
C1633 C1632 1.391 . S
C1633 C1637 1.376 . S
C1634 C1632 1.394 . S
C1634 C1635 1.369 . S
C1634 C1638 1.531 . S
C1635 C1634 1.369 . S
C1635 C1636 1.410 . S
C1635 C1643 1.503 1_455 S
C1636 C1635 1.410 . S
C1636 C1637 1.392 . S
C1636 C1639 1.511 1_554 S
C1637 C1633 1.376 . S
C1637 C1636 1.392 . S
C1637 H1649 0.929 1_554 S
C1638 C1634 1.531 . S
C1638 H1650 0.960 . S
C1638 H1651 0.962 . S
C1638 H1652 0.960 . S
C1639 C1636 1.511 1_556 S
C1639 H1653 0.961 . S
C1639 H1654 0.961 1_455 S
C1639 H1655 0.961 . S
C1640 C1641 1.370 . S
C1640 C1642 1.363 . S
C1640 H1656 0.931 . S
C1641 C1640 1.370 . S
C1641 C1645 1.408 . S
C1642 C1640 1.363 . S
C1642 C1643 1.370 . S
C1642 C1646 1.524 . S
C1643 C1635 1.503 1_655 S
C1643 C1642 1.370 . S
C1643 C1644 1.403 . S
C1644 C1643 1.403 . S
C1644 C1645 1.404 . S
C1644 C1647 1.539 . S
C1645 C1641 1.408 . S
C1645 C1644 1.404 . S
C1645 H1657 0.930 . S
C1646 C1642 1.524 . S
C1646 H1658 0.956 1_655 S
C1646 H1659 0.961 1_655 S
C1646 H1660 0.961 . S
C1647 C1644 1.539 . S
C1647 H1661 0.958 . S
C1647 H1662 0.961 . S
C1647 H1663 0.960 . S
H1648 C1632 0.931 . S
H1649 C1637 0.929 1_556 S
H1650 C1638 0.960 . S
H1651 C1638 0.962 . S
H1652 C1638 0.960 . S
H1653 C1639 0.961 . S
H1654 C1639 0.961 1_655 S
H1655 C1639 0.961 . S
H1656 C1640 0.931 . S
H1657 C1645 0.930 . S
H1658 C1646 0.956 1_455 S
H1659 C1646 0.961 1_455 S
H1660 C1646 0.961 . S
H1661 C1647 0.958 . S
H1662 C1647 0.961 . S
H1663 C1647 0.960 . S
C1664 C1665 1.391 1_556 S
C1664 C1666 1.394 . S
C1664 H1680 0.931 . S
C1665 C1664 1.391 1_554 S
C1665 C1669 1.376 . S
C1666 C1664 1.394 . S
C1666 C1667 1.369 . S
C1666 C1670 1.531 . S
C1667 C1666 1.369 . S
C1667 C1668 1.410 . S
C1667 C1675 1.503 . S
C1668 C1667 1.410 . S
C1668 C1669 1.392 1_556 S
C1668 C1671 1.511 . S
C1669 C1665 1.376 . S
C1669 C1668 1.392 1_554 S
C1669 H1681 0.929 . S
C1670 C1666 1.531 . S
C1670 H1682 0.960 . S
C1670 H1683 0.962 . S
C1670 H1684 0.960 . S
C1671 C1668 1.511 . S
C1671 H1685 0.961 1_556 S
C1671 H1686 0.961 . S
C1671 H1687 0.961 . S
C1672 C1673 1.370 . S
C1672 C1674 1.363 . S
C1672 H1688 0.931 . S
C1673 C1672 1.370 . S
C1673 C1677 1.408 . S
C1674 C1672 1.363 . S
C1674 C1675 1.370 . S
C1674 C1678 1.524 1_556 S
C1675 C1667 1.503 . S
C1675 C1674 1.370 . S
C1675 C1676 1.403 . S
C1676 C1675 1.403 . S
C1676 C1677 1.404 . S
C1676 C1679 1.539 . S
C1677 C1673 1.408 . S
C1677 C1676 1.404 . S
C1677 H1689 0.930 . S
C1678 C1674 1.524 1_554 S
C1678 H1690 0.956 1_554 S
C1678 H1691 0.961 . S
C1678 H1692 0.961 . S
C1679 C1676 1.539 . S
C1679 H1693 0.958 . S
C1679 H1694 0.961 . S
C1679 H1695 0.960 . S
H1680 C1664 0.931 . S
H1681 C1669 0.929 . S
H1682 C1670 0.960 . S
H1683 C1670 0.962 . S
H1684 C1670 0.960 . S
H1685 C1671 0.961 1_554 S
H1686 C1671 0.961 . S
H1687 C1671 0.961 . S
H1688 C1672 0.931 . S
H1689 C1677 0.930 . S
H1690 C1678 0.956 1_556 S
H1691 C1678 0.961 . S
H1692 C1678 0.961 . S
H1693 C1679 0.958 . S
H1694 C1679 0.961 . S
H1695 C1679 0.960 . S
C1696 C1697 1.391 . S
C1696 C1698 1.394 . S
C1696 H1712 0.931 . S
C1697 C1696 1.391 . S
C1697 C1701 1.376 . S
C1698 C1696 1.394 . S
C1698 C1699 1.369 . S
C1698 C1702 1.531 . S
C1699 C1698 1.369 . S
C1699 C1700 1.410 . S
C1699 C1707 1.503 . S
C1700 C1699 1.410 . S
C1700 C1701 1.392 . S
C1700 C1703 1.511 . S
C1701 C1697 1.376 . S
C1701 C1700 1.392 . S
C1701 H1713 0.929 . S
C1702 C1698 1.531 . S
C1702 H1714 0.960 . S
C1702 H1715 0.962 . S
C1702 H1716 0.960 . S
C1703 C1700 1.511 . S
C1703 H1717 0.961 . S
C1703 H1718 0.961 . S
C1703 H1719 0.961 . S
C1704 C1705 1.370 . S
C1704 C1706 1.363 . S
C1704 H1720 0.931 . S
C1705 C1704 1.370 . S
C1705 C1709 1.408 . S
C1706 C1704 1.363 . S
C1706 C1707 1.370 . S
C1706 C1710 1.524 . S
C1707 C1699 1.503 . S
C1707 C1706 1.370 . S
C1707 C1708 1.403 . S
C1708 C1707 1.403 . S
C1708 C1709 1.404 . S
C1708 C1711 1.539 . S
C1709 C1705 1.408 . S
C1709 C1708 1.404 . S
C1709 H1721 0.930 . S
C1710 C1706 1.524 . S
C1710 H1722 0.956 . S
C1710 H1723 0.961 . S
C1710 H1724 0.961 . S
C1711 C1708 1.539 . S
C1711 H1725 0.958 . S
C1711 H1726 0.961 . S
C1711 H1727 0.960 . S
H1712 C1696 0.931 . S
H1713 C1701 0.929 . S
H1714 C1702 0.960 . S
H1715 C1702 0.962 . S
H1716 C1702 0.960 . S
H1717 C1703 0.961 . S
H1718 C1703 0.961 . S
H1719 C1703 0.961 . S
H1720 C1704 0.931 . S
H1721 C1709 0.930 . S
H1722 C1710 0.956 . S
H1723 C1710 0.961 . S
H1724 C1710 0.961 . S
H1725 C1711 0.958 . S
H1726 C1711 0.961 . S
H1727 C1711 0.960 . S
C1728 C1729 1.391 . S
C1728 C1730 1.394 . S
C1728 H1744 0.931 . S
C1729 C1728 1.391 . S
C1729 C1733 1.376 . S
C1730 C1728 1.394 . S
C1730 C1731 1.369 . S
C1730 C1734 1.531 . S
C1731 C1730 1.369 . S
C1731 C1732 1.410 . S
C1731 C1739 1.503 . S
C1732 C1731 1.410 . S
C1732 C1733 1.392 . S
C1732 C1735 1.511 . S
C1733 C1729 1.376 . S
C1733 C1732 1.392 . S
C1733 H1745 0.929 . S
C1734 C1730 1.531 . S
C1734 H1746 0.960 . S
C1734 H1747 0.962 . S
C1734 H1748 0.960 . S
C1735 C1732 1.511 . S
C1735 H1749 0.961 . S
C1735 H1750 0.961 . S
C1735 H1751 0.961 . S
C1736 C1737 1.370 . S
C1736 C1738 1.363 . S
C1736 H1752 0.931 . S
C1737 C1736 1.370 . S
C1737 C1741 1.408 . S
C1738 C1736 1.363 . S
C1738 C1739 1.370 . S
C1738 C1742 1.524 . S
C1739 C1731 1.503 . S
C1739 C1738 1.370 . S
C1739 C1740 1.403 . S
C1740 C1739 1.403 . S
C1740 C1741 1.404 . S
C1740 C1743 1.539 . S
C1741 C1737 1.408 . S
C1741 C1740 1.404 . S
C1741 H1753 0.930 . S
C1742 C1738 1.524 . S
C1742 H1754 0.956 . S
C1742 H1755 0.961 . S
C1742 H1756 0.961 . S
C1743 C1740 1.539 . S
C1743 H1757 0.958 . S
C1743 H1758 0.961 . S
C1743 H1759 0.960 . S
H1744 C1728 0.931 . S
H1745 C1733 0.929 . S
H1746 C1734 0.960 . S
H1747 C1734 0.962 . S
H1748 C1734 0.960 . S
H1749 C1735 0.961 . S
H1750 C1735 0.961 . S
H1751 C1735 0.961 . S
H1752 C1736 0.931 . S
H1753 C1741 0.930 . S
H1754 C1742 0.956 . S
H1755 C1742 0.961 . S
H1756 C1742 0.961 . S
H1757 C1743 0.958 . S
H1758 C1743 0.961 . S
H1759 C1743 0.960 . S
C1760 C1761 1.391 . S
C1760 C1762 1.394 . S
C1760 H1776 0.931 . S
C1761 C1760 1.391 . S
C1761 C1765 1.376 . S
C1762 C1760 1.394 . S
C1762 C1763 1.369 . S
C1762 C1766 1.531 . S
C1763 C1762 1.369 . S
C1763 C1764 1.410 . S
C1763 C1771 1.503 . S
C1764 C1763 1.410 . S
C1764 C1765 1.392 . S
C1764 C1767 1.511 . S
C1765 C1761 1.376 . S
C1765 C1764 1.392 . S
C1765 H1777 0.929 . S
C1766 C1762 1.531 . S
C1766 H1778 0.960 . S
C1766 H1779 0.962 . S
C1766 H1780 0.960 . S
C1767 C1764 1.511 . S
C1767 H1781 0.961 . S
C1767 H1782 0.961 . S
C1767 H1783 0.961 . S
C1768 C1769 1.370 . S
C1768 C1770 1.363 . S
C1768 H1784 0.931 . S
C1769 C1768 1.370 . S
C1769 C1773 1.408 . S
C1770 C1768 1.363 . S
C1770 C1771 1.370 . S
C1770 C1774 1.524 . S
C1771 C1763 1.503 . S
C1771 C1770 1.370 . S
C1771 C1772 1.403 . S
C1772 C1771 1.403 . S
C1772 C1773 1.404 . S
C1772 C1775 1.539 . S
C1773 C1769 1.408 . S
C1773 C1772 1.404 . S
C1773 H1785 0.930 . S
C1774 C1770 1.524 . S
C1774 H1786 0.956 . S
C1774 H1787 0.961 . S
C1774 H1788 0.961 . S
C1775 C1772 1.539 . S
C1775 H1789 0.958 . S
C1775 H1790 0.961 . S
C1775 H1791 0.960 . S
H1776 C1760 0.931 . S
H1777 C1765 0.929 . S
H1778 C1766 0.960 . S
H1779 C1766 0.962 . S
H1780 C1766 0.960 . S
H1781 C1767 0.961 . S
H1782 C1767 0.961 . S
H1783 C1767 0.961 . S
H1784 C1768 0.931 . S
H1785 C1773 0.930 . S
H1786 C1774 0.956 . S
H1787 C1774 0.961 . S
H1788 C1774 0.961 . S
H1789 C1775 0.958 . S
H1790 C1775 0.961 . S
H1791 C1775 0.960 . S
C1792 C1793 1.391 . S
C1792 C1794 1.394 . S
C1792 H1808 0.931 . S
C1793 C1792 1.391 . S
C1793 C1797 1.376 . S
C1794 C1792 1.394 . S
C1794 C1795 1.369 . S
C1794 C1798 1.531 . S
C1795 C1794 1.369 . S
C1795 C1796 1.410 . S
C1795 C1803 1.503 . S
C1796 C1795 1.410 . S
C1796 C1797 1.392 . S
C1796 C1799 1.511 . S
C1797 C1793 1.376 . S
C1797 C1796 1.392 . S
C1797 H1809 0.929 . S
C1798 C1794 1.531 . S
C1798 H1810 0.960 . S
C1798 H1811 0.962 . S
C1798 H1812 0.960 . S
C1799 C1796 1.511 . S
C1799 H1813 0.961 . S
C1799 H1814 0.961 . S
C1799 H1815 0.961 . S
C1800 C1801 1.370 . S
C1800 C1802 1.363 . S
C1800 H1816 0.931 . S
C1801 C1800 1.370 . S
C1801 C1805 1.408 1_556 S
C1802 C1800 1.363 . S
C1802 C1803 1.371 1_556 S
C1802 C1806 1.524 . S
C1803 C1795 1.503 . S
C1803 C1802 1.371 1_554 S
C1803 C1804 1.403 . S
C1804 C1803 1.403 . S
C1804 C1805 1.404 . S
C1804 C1807 1.539 . S
C1805 C1801 1.408 1_554 S
C1805 C1804 1.404 . S
C1805 H1817 0.930 . S
C1806 C1802 1.524 . S
C1806 H1818 0.956 . S
C1806 H1819 0.961 . S
C1806 H1820 0.961 . S
C1807 C1804 1.539 . S
C1807 H1821 0.958 . S
C1807 H1822 0.961 . S
C1807 H1823 0.960 . S
H1808 C1792 0.931 . S
H1809 C1797 0.929 . S
H1810 C1798 0.960 . S
H1811 C1798 0.962 . S
H1812 C1798 0.960 . S
H1813 C1799 0.961 . S
H1814 C1799 0.961 . S
H1815 C1799 0.961 . S
H1816 C1800 0.931 . S
H1817 C1805 0.930 . S
H1818 C1806 0.956 . S
H1819 C1806 0.961 . S
H1820 C1806 0.961 . S
H1821 C1807 0.958 . S
H1822 C1807 0.961 . S
H1823 C1807 0.960 . S
C1824 C1825 1.391 . S
C1824 C1826 1.394 . S
C1824 H1840 0.931 . S
C1825 C1824 1.391 . S
C1825 C1829 1.376 . S
C1826 C1824 1.394 . S
C1826 C1827 1.369 . S
C1826 C1830 1.531 . S
C1827 C1826 1.369 . S
C1827 C1828 1.410 . S
C1827 C1835 1.503 . S
C1828 C1827 1.410 . S
C1828 C1829 1.392 . S
C1828 C1831 1.511 . S
C1829 C1825 1.376 . S
C1829 C1828 1.392 . S
C1829 H1841 0.929 . S
C1830 C1826 1.531 . S
C1830 H1842 0.960 . S
C1830 H1843 0.962 . S
C1830 H1844 0.960 . S
C1831 C1828 1.511 . S
C1831 H1845 0.961 . S
C1831 H1846 0.961 . S
C1831 H1847 0.961 . S
C1832 C1833 1.370 . S
C1832 C1834 1.363 . S
C1832 H1848 0.931 . S
C1833 C1832 1.370 . S
C1833 C1837 1.408 . S
C1834 C1832 1.363 . S
C1834 C1835 1.370 . S
C1834 C1838 1.524 . S
C1835 C1827 1.503 . S
C1835 C1834 1.370 . S
C1835 C1836 1.403 . S
C1836 C1835 1.403 . S
C1836 C1837 1.404 . S
C1836 C1839 1.539 . S
C1837 C1833 1.408 . S
C1837 C1836 1.404 . S
C1837 H1849 0.930 . S
C1838 C1834 1.524 . S
C1838 H1850 0.956 . S
C1838 H1851 0.961 . S
C1838 H1852 0.961 . S
C1839 C1836 1.539 . S
C1839 H1853 0.958 . S
C1839 H1854 0.961 . S
C1839 H1855 0.960 . S
H1840 C1824 0.931 . S
H1841 C1829 0.929 . S
H1842 C1830 0.960 . S
H1843 C1830 0.962 . S
H1844 C1830 0.960 . S
H1845 C1831 0.961 . S
H1846 C1831 0.961 . S
H1847 C1831 0.961 . S
H1848 C1832 0.931 . S
H1849 C1837 0.930 . S
H1850 C1838 0.956 . S
H1851 C1838 0.961 . S
H1852 C1838 0.961 . S
H1853 C1839 0.958 . S
H1854 C1839 0.961 . S
H1855 C1839 0.960 . S
C1856 C1857 1.391 . S
C1856 C1858 1.394 . S
C1856 H1872 0.931 . S
C1857 C1856 1.391 . S
C1857 C1861 1.376 . S
C1858 C1856 1.394 . S
C1858 C1859 1.369 . S
C1858 C1862 1.531 . S
C1859 C1858 1.369 . S
C1859 C1860 1.410 . S
C1859 C1867 1.503 . S
C1860 C1859 1.410 . S
C1860 C1861 1.392 . S
C1860 C1863 1.511 . S
C1861 C1857 1.376 . S
C1861 C1860 1.392 . S
C1861 H1873 0.929 . S
C1862 C1858 1.531 . S
C1862 H1874 0.960 . S
C1862 H1875 0.962 . S
C1862 H1876 0.960 . S
C1863 C1860 1.511 . S
C1863 H1877 0.961 . S
C1863 H1878 0.961 . S
C1863 H1879 0.961 . S
C1864 C1865 1.370 . S
C1864 C1866 1.363 . S
C1864 H1880 0.931 . S
C1865 C1864 1.370 . S
C1865 C1869 1.408 . S
C1866 C1864 1.363 . S
C1866 C1867 1.370 . S
C1866 C1870 1.524 . S
C1867 C1859 1.503 . S
C1867 C1866 1.370 . S
C1867 C1868 1.403 . S
C1868 C1867 1.403 . S
C1868 C1869 1.404 . S
C1868 C1871 1.539 . S
C1869 C1865 1.408 . S
C1869 C1868 1.404 . S
C1869 H1881 0.930 . S
C1870 C1866 1.524 . S
C1870 H1882 0.956 . S
C1870 H1883 0.961 . S
C1870 H1884 0.961 . S
C1871 C1868 1.539 . S
C1871 H1885 0.958 . S
C1871 H1886 0.961 . S
C1871 H1887 0.960 . S
H1872 C1856 0.931 . S
H1873 C1861 0.929 . S
H1874 C1862 0.960 . S
H1875 C1862 0.962 . S
H1876 C1862 0.960 . S
H1877 C1863 0.961 . S
H1878 C1863 0.961 . S
H1879 C1863 0.961 . S
H1880 C1864 0.931 . S
H1881 C1869 0.930 . S
H1882 C1870 0.956 . S
H1883 C1870 0.961 . S
H1884 C1870 0.961 . S
H1885 C1871 0.958 . S
H1886 C1871 0.961 . S
H1887 C1871 0.960 . S
C1888 C1889 1.391 . S
C1888 C1890 1.394 . S
C1888 H1904 0.931 . S
C1889 C1888 1.391 . S
C1889 C1893 1.376 . S
C1890 C1888 1.394 . S
C1890 C1891 1.369 . S
C1890 C1894 1.531 . S
C1891 C1890 1.369 . S
C1891 C1892 1.410 . S
C1891 C1899 1.503 . S
C1892 C1891 1.410 . S
C1892 C1893 1.392 . S
C1892 C1895 1.511 . S
C1893 C1889 1.376 . S
C1893 C1892 1.392 . S
C1893 H1905 0.929 . S
C1894 C1890 1.531 . S
C1894 H1906 0.960 . S
C1894 H1907 0.962 . S
C1894 H1908 0.960 . S
C1895 C1892 1.511 . S
C1895 H1909 0.961 . S
C1895 H1910 0.961 . S
C1895 H1911 0.961 . S
C1896 C1897 1.370 . S
C1896 C1898 1.363 . S
C1896 H1912 0.931 . S
C1897 C1896 1.370 . S
C1897 C1901 1.408 . S
C1898 C1896 1.363 . S
C1898 C1899 1.370 . S
C1898 C1902 1.524 . S
C1899 C1891 1.503 . S
C1899 C1898 1.370 . S
C1899 C1900 1.403 . S
C1900 C1899 1.403 . S
C1900 C1901 1.404 . S
C1900 C1903 1.539 . S
C1901 C1897 1.408 . S
C1901 C1900 1.404 . S
C1901 H1913 0.930 . S
C1902 C1898 1.524 . S
C1902 H1914 0.956 . S
C1902 H1915 0.961 . S
C1902 H1916 0.961 . S
C1903 C1900 1.539 . S
C1903 H1917 0.958 . S
C1903 H1918 0.961 . S
C1903 H1919 0.960 . S
H1904 C1888 0.931 . S
H1905 C1893 0.929 . S
H1906 C1894 0.960 . S
H1907 C1894 0.962 . S
H1908 C1894 0.960 . S
H1909 C1895 0.961 . S
H1910 C1895 0.961 . S
H1911 C1895 0.961 . S
H1912 C1896 0.931 . S
H1913 C1901 0.930 . S
H1914 C1902 0.956 . S
H1915 C1902 0.961 . S
H1916 C1902 0.961 . S
H1917 C1903 0.958 . S
H1918 C1903 0.961 . S
H1919 C1903 0.960 . S
C1920 C1921 1.391 . S
C1920 C1922 1.394 . S
C1920 H1936 0.931 . S
C1921 C1920 1.391 . S
C1921 C1925 1.376 . S
C1922 C1920 1.394 . S
C1922 C1923 1.369 . S
C1922 C1926 1.531 1_565 S
C1923 C1922 1.369 . S
C1923 C1924 1.410 . S
C1923 C1931 1.503 1_565 S
C1924 C1923 1.410 . S
C1924 C1925 1.392 . S
C1924 C1927 1.511 . S
C1925 C1921 1.376 . S
C1925 C1924 1.392 . S
C1925 H1937 0.929 . S
C1926 C1922 1.531 1_545 S
C1926 H1938 0.960 . S
C1926 H1939 0.967 . S
C1926 H1940 0.960 . S
C1927 C1924 1.511 . S
C1927 H1941 0.961 . S
C1927 H1942 0.959 1_565 S
C1927 H1943 0.961 1_565 S
C1928 C1929 1.370 . S
C1928 C1930 1.363 . S
C1928 H1944 0.931 . S
C1929 C1928 1.370 . S
C1929 C1933 1.408 . S
C1930 C1928 1.363 . S
C1930 C1931 1.370 . S
C1930 C1934 1.524 1_545 S
C1931 C1923 1.503 1_545 S
C1931 C1930 1.370 . S
C1931 C1932 1.403 . S
C1932 C1931 1.403 . S
C1932 C1933 1.404 . S
C1932 C1935 1.539 . S
C1933 C1929 1.408 . S
C1933 C1932 1.404 . S
C1933 H1945 0.930 . S
C1934 C1930 1.524 1_565 S
C1934 H1946 0.956 . S
C1934 H1947 0.961 . S
C1934 H1948 0.961 . S
C1935 C1932 1.539 . S
C1935 H1949 0.958 . S
C1935 H1950 0.961 . S
C1935 H1951 0.960 . S
H1936 C1920 0.931 . S
H1937 C1925 0.929 . S
H1938 C1926 0.960 . S
H1939 C1926 0.967 . S
H1940 C1926 0.960 . S
H1941 C1927 0.961 . S
H1942 C1927 0.959 1_545 S
H1943 C1927 0.961 1_545 S
H1944 C1928 0.931 . S
H1945 C1933 0.930 . S
H1946 C1934 0.956 . S
H1947 C1934 0.961 . S
H1948 C1934 0.961 . S
H1949 C1935 0.958 . S
H1950 C1935 0.961 . S
H1951 C1935 0.960 . S
C1952 C1953 1.391 . S
C1952 C1954 1.394 . S
C1952 H1968 0.931 . S
C1953 C1952 1.391 . S
C1953 C1957 1.376 . S
C1954 C1952 1.394 . S
C1954 C1955 1.369 . S
C1954 C1958 1.531 . S
C1955 C1954 1.369 . S
C1955 C1956 1.410 . S
C1955 C1963 1.503 . S
C1956 C1955 1.410 . S
C1956 C1957 1.392 . S
C1956 C1959 1.511 . S
C1957 C1953 1.376 . S
C1957 C1956 1.392 . S
C1957 H1969 0.929 . S
C1958 C1954 1.531 . S
C1958 H1970 0.960 . S
C1958 H1971 0.962 . S
C1958 H1972 0.960 . S
C1959 C1956 1.511 . S
C1959 H1973 0.961 . S
C1959 H1974 0.961 . S
C1959 H1975 0.961 . S
C1960 C1961 1.370 . S
C1960 C1962 1.363 . S
C1960 H1976 0.931 . S
C1961 C1960 1.370 . S
C1961 C1965 1.408 . S
C1962 C1960 1.363 . S
C1962 C1963 1.370 . S
C1962 C1966 1.524 . S
C1963 C1955 1.503 . S
C1963 C1962 1.370 . S
C1963 C1964 1.403 . S
C1964 C1963 1.403 . S
C1964 C1965 1.404 . S
C1964 C1967 1.539 . S
C1965 C1961 1.408 . S
C1965 C1964 1.404 . S
C1965 H1977 0.930 . S
C1966 C1962 1.524 . S
C1966 H1978 0.956 . S
C1966 H1979 0.961 . S
C1966 H1980 0.961 . S
C1967 C1964 1.539 . S
C1967 H1981 0.958 . S
C1967 H1982 0.961 . S
C1967 H1983 0.960 . S
H1968 C1952 0.931 . S
H1969 C1957 0.929 . S
H1970 C1958 0.960 . S
H1971 C1958 0.962 . S
H1972 C1958 0.960 . S
H1973 C1959 0.961 . S
H1974 C1959 0.961 . S
H1975 C1959 0.961 . S
H1976 C1960 0.931 . S
H1977 C1965 0.930 . S
H1978 C1966 0.956 . S
H1979 C1966 0.961 . S
H1980 C1966 0.961 . S
H1981 C1967 0.958 . S
H1982 C1967 0.961 . S
H1983 C1967 0.960 . S
C1984 C1985 1.391 . S
C1984 C1986 1.394 1_554 S
C1984 H2000 0.931 . S
C1985 C1984 1.391 . S
C1985 C1989 1.376 . S
C1986 C1984 1.394 1_556 S
C1986 C1987 1.369 . S
C1986 C1990 1.531 . S
C1987 C1986 1.369 . S
C1987 C1988 1.410 1_556 S
C1987 C1995 1.503 1_565 S
C1988 C1987 1.410 1_554 S
C1988 C1989 1.392 . S
C1988 C1991 1.511 . S
C1989 C1985 1.376 . S
C1989 C1988 1.392 . S
C1989 H2001 0.929 . S
C1990 C1986 1.531 . S
C1990 H2002 0.960 . S
C1990 H2003 0.962 . S
C1990 H2004 0.960 . S
C1991 C1988 1.511 . S
C1991 H2005 0.961 . S
C1991 H2006 0.961 1_565 S
C1991 H2007 0.961 1_554 S
C1992 C1993 1.370 . S
C1992 C1994 1.363 . S
C1992 H2008 0.931 . S
C1993 C1992 1.370 . S
C1993 C1997 1.408 . S
C1994 C1992 1.363 . S
C1994 C1995 1.370 . S
C1994 C1998 1.524 1_556 S
C1995 C1987 1.503 1_545 S
C1995 C1994 1.370 . S
C1995 C1996 1.403 . S
C1996 C1995 1.403 . S
C1996 C1997 1.404 . S
C1996 C1999 1.539 1_545 S
C1997 C1993 1.408 . S
C1997 C1996 1.404 . S
C1997 H2009 0.930 . S
C1998 C1994 1.524 1_554 S
C1998 H2010 0.956 . S
C1998 H2011 0.961 . S
C1998 H2012 0.961 . S
C1999 C1996 1.539 1_565 S
C1999 H2013 0.958 . S
C1999 H2014 0.966 . S
C1999 H2015 0.960 . S
H2000 C1984 0.931 . S
H2001 C1989 0.929 . S
H2002 C1990 0.960 . S
H2003 C1990 0.962 . S
H2004 C1990 0.960 . S
H2005 C1991 0.961 . S
H2006 C1991 0.961 1_545 S
H2007 C1991 0.961 1_556 S
H2008 C1992 0.931 . S
H2009 C1997 0.930 . S
H2010 C1998 0.956 . S
H2011 C1998 0.961 . S
H2012 C1998 0.961 . S
H2013 C1999 0.958 . S
H2014 C1999 0.966 . S
H2015 C1999 0.960 . S
C2016 C2017 1.391 . S
C2016 C2018 1.394 . S
C2016 H2032 0.931 . S
C2017 C2016 1.391 . S
C2017 C2021 1.376 . S
C2018 C2016 1.394 . S
C2018 C2019 1.369 . S
C2018 C2022 1.531 . S
C2019 C2018 1.369 . S
C2019 C2020 1.410 . S
C2019 C2027 1.503 . S
C2020 C2019 1.410 . S
C2020 C2021 1.392 . S
C2020 C2023 1.511 . S
C2021 C2017 1.376 . S
C2021 C2020 1.392 . S
C2021 H2033 0.929 . S
C2022 C2018 1.531 . S
C2022 H2034 0.960 . S
C2022 H2035 0.962 . S
C2022 H2036 0.960 . S
C2023 C2020 1.511 . S
C2023 H2037 0.961 . S
C2023 H2038 0.961 . S
C2023 H2039 0.961 . S
C2024 C2025 1.370 . S
C2024 C2026 1.363 . S
C2024 H2040 0.931 . S
C2025 C2024 1.370 . S
C2025 C2029 1.408 . S
C2026 C2024 1.363 . S
C2026 C2027 1.370 . S
C2026 C2030 1.524 . S
C2027 C2019 1.503 . S
C2027 C2026 1.370 . S
C2027 C2028 1.403 . S
C2028 C2027 1.403 . S
C2028 C2029 1.404 . S
C2028 C2031 1.539 . S
C2029 C2025 1.408 . S
C2029 C2028 1.404 . S
C2029 H2041 0.930 . S
C2030 C2026 1.524 . S
C2030 H2042 0.956 . S
C2030 H2043 0.961 . S
C2030 H2044 0.961 . S
C2031 C2028 1.539 . S
C2031 H2045 0.958 . S
C2031 H2046 0.961 . S
C2031 H2047 0.960 . S
H2032 C2016 0.931 . S
H2033 C2021 0.929 . S
H2034 C2022 0.960 . S
H2035 C2022 0.962 . S
H2036 C2022 0.960 . S
H2037 C2023 0.961 . S
H2038 C2023 0.961 . S
H2039 C2023 0.961 . S
H2040 C2024 0.931 . S
H2041 C2029 0.930 . S
H2042 C2030 0.956 . S
H2043 C2030 0.961 . S
H2044 C2030 0.961 . S
H2045 C2031 0.958 . S
H2046 C2031 0.961 . S
H2047 C2031 0.960 . S
C2048 C2049 1.391 . S
C2048 C2050 1.394 . S
C2048 H2064 0.931 . S
C2049 C2048 1.391 . S
C2049 C2053 1.376 . S
C2050 C2048 1.394 . S
C2050 C2051 1.369 . S
C2050 C2054 1.531 . S
C2051 C2050 1.369 . S
C2051 C2052 1.410 . S
C2051 C2059 1.503 1_565 S
C2052 C2051 1.410 . S
C2052 C2053 1.392 . S
C2052 C2055 1.511 . S
C2053 C2049 1.376 . S
C2053 C2052 1.392 . S
C2053 H2065 0.929 . S
C2054 C2050 1.531 . S
C2054 H2066 0.960 1_565 S
C2054 H2067 0.962 . S
C2054 H2068 0.960 . S
C2055 C2052 1.511 . S
C2055 H2069 0.961 . S
C2055 H2070 0.961 . S
C2055 H2071 0.961 . S
C2056 C2057 1.370 . S
C2056 C2058 1.363 . S
C2056 H2072 0.931 . S
C2057 C2056 1.370 . S
C2057 C2061 1.408 . S
C2058 C2056 1.363 . S
C2058 C2059 1.370 . S
C2058 C2062 1.524 1_545 S
C2059 C2051 1.503 1_545 S
C2059 C2058 1.370 . S
C2059 C2060 1.403 . S
C2060 C2059 1.403 . S
C2060 C2061 1.404 . S
C2060 C2063 1.539 . S
C2061 C2057 1.408 . S
C2061 C2060 1.404 . S
C2061 H2073 0.930 . S
C2062 C2058 1.524 1_565 S
C2062 H2074 0.956 . S
C2062 H2075 0.961 . S
C2062 H2076 0.961 . S
C2063 C2060 1.539 . S
C2063 H2077 0.958 . S
C2063 H2078 0.961 . S
C2063 H2079 0.960 . S
H2064 C2048 0.931 . S
H2065 C2053 0.929 . S
H2066 C2054 0.960 1_545 S
H2067 C2054 0.962 . S
H2068 C2054 0.960 . S
H2069 C2055 0.961 . S
H2070 C2055 0.961 . S
H2071 C2055 0.961 . S
H2072 C2056 0.931 . S
H2073 C2061 0.930 . S
H2074 C2062 0.956 . S
H2075 C2062 0.961 . S
H2076 C2062 0.961 . S
H2077 C2063 0.958 . S
H2078 C2063 0.961 . S
H2079 C2063 0.960 . S
C2080 C2081 1.391 . S
C2080 C2082 1.394 . S
C2080 H2096 0.931 . S
C2081 C2080 1.391 . S
C2081 C2085 1.376 . S
C2082 C2080 1.394 . S
C2082 C2083 1.369 . S
C2082 C2086 1.531 . S
C2083 C2082 1.369 . S
C2083 C2084 1.410 . S
C2083 C2091 1.503 . S
C2084 C2083 1.410 . S
C2084 C2085 1.392 . S
C2084 C2087 1.511 . S
C2085 C2081 1.376 . S
C2085 C2084 1.392 . S
C2085 H2097 0.929 . S
C2086 C2082 1.531 . S
C2086 H2098 0.960 . S
C2086 H2099 0.962 . S
C2086 H2100 0.960 . S
C2087 C2084 1.511 . S
C2087 H2101 0.961 . S
C2087 H2102 0.961 . S
C2087 H2103 0.961 . S
C2088 C2089 1.370 . S
C2088 C2090 1.363 . S
C2088 H2104 0.931 . S
C2089 C2088 1.370 . S
C2089 C2093 1.408 . S
C2090 C2088 1.363 . S
C2090 C2091 1.370 . S
C2090 C2094 1.524 . S
C2091 C2083 1.503 . S
C2091 C2090 1.370 . S
C2091 C2092 1.403 . S
C2092 C2091 1.403 . S
C2092 C2093 1.404 . S
C2092 C2095 1.539 . S
C2093 C2089 1.408 . S
C2093 C2092 1.404 . S
C2093 H2105 0.930 . S
C2094 C2090 1.524 . S
C2094 H2106 0.956 . S
C2094 H2107 0.961 . S
C2094 H2108 0.961 . S
C2095 C2092 1.539 . S
C2095 H2109 0.958 . S
C2095 H2110 0.961 . S
C2095 H2111 0.960 . S
H2096 C2080 0.931 . S
H2097 C2085 0.929 . S
H2098 C2086 0.960 . S
H2099 C2086 0.962 . S
H2100 C2086 0.960 . S
H2101 C2087 0.961 . S
H2102 C2087 0.961 . S
H2103 C2087 0.961 . S
H2104 C2088 0.931 . S
H2105 C2093 0.930 . S
H2106 C2094 0.956 . S
H2107 C2094 0.961 . S
H2108 C2094 0.961 . S
H2109 C2095 0.958 . S
H2110 C2095 0.961 . S
H2111 C2095 0.960 . S
C2112 C2113 1.391 . S
C2112 C2114 1.394 . S
C2112 H2128 0.931 . S
C2113 C2112 1.391 . S
C2113 C2117 1.376 . S
C2114 C2112 1.394 . S
C2114 C2115 1.379 . S
C2114 C2118 1.531 . S
C2115 C2114 1.379 . S
C2115 C2116 1.407 1_556 S
C2115 C2123 1.494 1_546 S
C2116 C2115 1.407 1_554 S
C2116 C2117 1.392 1_554 S
C2116 C2119 1.511 . S
C2117 C2113 1.376 . S
C2117 C2116 1.392 1_556 S
C2117 H2129 0.929 . S
C2118 C2114 1.531 . S
C2118 H2130 0.960 1_545 S
C2118 H2131 0.962 . S
C2118 H2132 0.960 . S
C2119 C2116 1.511 . S
C2119 H2133 0.961 . S
C2119 H2134 0.961 . S
C2119 H2135 0.961 . S
C2120 C2121 1.370 . S
C2120 C2122 1.363 . S
C2120 H2136 0.931 . S
C2121 C2120 1.370 . S
C2121 C2125 1.408 . S
C2122 C2120 1.363 . S
C2122 C2123 1.370 . S
C2122 C2126 1.524 1_565 S
C2123 C2115 1.494 1_564 S
C2123 C2122 1.370 . S
C2123 C2124 1.403 . S
C2124 C2123 1.403 . S
C2124 C2125 1.404 . S
C2124 C2127 1.539 1_554 S
C2125 C2121 1.408 . S
C2125 C2124 1.404 . S
C2125 H2137 0.930 . S
C2126 C2122 1.524 1_545 S
C2126 H2138 0.956 . S
C2126 H2139 0.961 . S
C2126 H2140 0.961 . S
C2127 C2124 1.539 1_556 S
C2127 H2141 0.958 . S
C2127 H2142 0.961 . S
C2127 H2143 0.960 . S
H2128 C2112 0.931 . S
H2129 C2117 0.929 . S
H2130 C2118 0.960 1_565 S
H2131 C2118 0.962 . S
H2132 C2118 0.960 . S
H2133 C2119 0.961 . S
H2134 C2119 0.961 . S
H2135 C2119 0.961 . S
H2136 C2120 0.931 . S
H2137 C2125 0.930 . S
H2138 C2126 0.956 . S
H2139 C2126 0.961 . S
H2140 C2126 0.961 . S
H2141 C2127 0.958 . S
H2142 C2127 0.961 . S
H2143 C2127 0.960 . S
C2144 C2145 1.391 . S
C2144 C2146 1.394 . S
C2144 H2160 0.931 . S
C2145 C2144 1.391 . S
C2145 C2149 1.376 . S
C2146 C2144 1.394 . S
C2146 C2147 1.369 . S
C2146 C2150 1.531 . S
C2147 C2146 1.369 . S
C2147 C2148 1.410 . S
C2147 C2155 1.503 . S
C2148 C2147 1.410 . S
C2148 C2149 1.392 . S
C2148 C2151 1.511 . S
C2149 C2145 1.376 . S
C2149 C2148 1.392 . S
C2149 H2161 0.929 . S
C2150 C2146 1.531 . S
C2150 H2162 0.960 . S
C2150 H2163 0.962 . S
C2150 H2164 0.960 . S
C2151 C2148 1.511 . S
C2151 H2165 0.961 . S
C2151 H2166 0.961 . S
C2151 H2167 0.961 . S
C2152 C2153 1.370 . S
C2152 C2154 1.363 . S
C2152 H2168 0.931 . S
C2153 C2152 1.370 . S
C2153 C2157 1.408 . S
C2154 C2152 1.363 . S
C2154 C2155 1.370 . S
C2154 C2158 1.524 . S
C2155 C2147 1.503 . S
C2155 C2154 1.370 . S
C2155 C2156 1.403 . S
C2156 C2155 1.403 . S
C2156 C2157 1.404 . S
C2156 C2159 1.539 . S
C2157 C2153 1.408 . S
C2157 C2156 1.404 . S
C2157 H2169 0.930 . S
C2158 C2154 1.524 . S
C2158 H2170 0.956 . S
C2158 H2171 0.961 . S
C2158 H2172 0.961 . S
C2159 C2156 1.539 . S
C2159 H2173 0.958 . S
C2159 H2174 0.961 . S
C2159 H2175 0.960 . S
H2160 C2144 0.931 . S
H2161 C2149 0.929 . S
H2162 C2150 0.960 . S
H2163 C2150 0.962 . S
H2164 C2150 0.960 . S
H2165 C2151 0.961 . S
H2166 C2151 0.961 . S
H2167 C2151 0.961 . S
H2168 C2152 0.931 . S
H2169 C2157 0.930 . S
H2170 C2158 0.956 . S
H2171 C2158 0.961 . S
H2172 C2158 0.961 . S
H2173 C2159 0.958 . S
H2174 C2159 0.961 . S
H2175 C2159 0.960 . S
C641 C17 1.507 . S
C649 C26 1.533 . S
C673 C57 1.438 1_556 S
C681 C66 1.465 . S
C705 C97 1.577 . S
C713 C106 1.566 . S
C737 C137 1.547 . S
C745 C146 1.572 . S
C769 C186 1.417 . S
C777 C177 1.430 . S
C801 C226 1.576 . S
C809 C217 1.551 . S
C833 C266 1.514 . S
C841 C257 1.527 1_556 S
C865 C306 1.474 . S
C873 C297 1.455 . S
C897 C346 1.506 . S
C905 C337 1.533 . S
C929 C377 1.461 . S
C937 C386 1.456 1_554 S
C961 C417 1.575 . S
C969 C426 1.567 . S
C993 C466 1.569 . S
C1001 C457 1.561 . S
C1025 C497 1.410 . S
C1033 C506 1.434 . S
C1057 C546 1.573 . S
C1065 C537 1.554 . S
C1089 C577 1.510 . S
C1097 C586 1.528 1_554 S
C1121 C617 1.451 . S
C1129 C626 1.463 . S
C1153 C13 1.644 . S
C1161 C463 1.576 . S
C1185 C53 1.769 . S
C1193 C623 1.708 . S
C1217 C93 1.741 . S
C1225 C383 1.684 . S
C1249 C133 1.799 . S
C1257 C544 1.803 . S
C1281 C162 1.573 . S
C1289 C543 1.659 . S
C1313 C464 1.824 . S
C1321 C213 1.812 . S
C1345 C242 1.673 . S
C1353 C624 1.753 . S
C1377 C282 1.712 . S
C1385 C384 1.790 . S
C1409 C122 1.530 . S
C1417 C344 1.623 . S
C1441 C42 1.692 . S
C1449 C424 1.734 . S
C1473 C503 1.634 . S
C1481 C202 1.673 . S
C1505 C293 1.758 . S
C1513 C583 1.653 . S
C1537 C343 1.704 . S
C1545 C173 1.803 . S
C1569 C253 1.745 . S
C1577 C423 1.650 . S
C1601 C82 1.690 . S
C1609 C584 1.755 . S
C1633 C2 1.702 . S
C1641 C504 1.804 . S
C1665 C24 1.703 . S
C1673 C183 1.720 . S
C1697 C64 1.755 . S
C1705 C224 1.746 . S
C1729 C104 1.749 . S
C1737 C263 1.751 . S
C1761 C144 1.766 . S
C1769 C303 1.782 . S
C1793 C482 1.714 . S
C1801 C333 1.713 . S
C1825 C533 1.738 . S
C1833 C373 1.766 . S
C1857 C413 1.748 . S
C1865 C562 1.750 . S
C1889 C602 1.776 . S
C1897 C453 1.769 . S
C1921 C63 1.837 . S
C1929 C304 1.833 . S
C1953 C184 1.944 . S
C1961 C103 1.950 . S
C1985 C223 1.560 . S
C1993 C143 1.555 . S
C2017 C23 1.688 . S
C2025 C264 1.684 . S
C2049 C613 1.835 . S
C2057 C362 1.842 . S
C2081 C493 1.945 . S
C2089 C402 1.949 . S
C2113 C522 1.544 . S
C2121 C442 1.559 . S
C2145 C573 1.693 . S
C2153 C322 1.695 . S
