# Generated by pormake.
# Topology yfx, (5)-cn, num edge types: 1
# Building blocks:
#     Node 0, Type 0, BuildingBlock: BEQFEK_clean_sbu_0, # of connection points: 5
#     Node 1, Type 0, BuildingBlock: BEQFEK_clean_sbu_0, # of connection points: 5
#     Node 2, Type 0, BuildingBlock: BEQFEK_clean_sbu_0, # of connection points: 5
#     Node 3, Type 0, BuildingBlock: BEQFEK_clean_sbu_0, # of connection points: 5
#     Node 4, Type 0, BuildingBlock: BEQFEK_clean_sbu_0, # of connection points: 5
#     Node 5, Type 0, BuildingBlock: BEQFEK_clean_sbu_0, # of connection points: 5
#     Node 6, Type 0, BuildingBlock: BEQFEK_clean_sbu_0, # of connection points: 5
#     Node 7, Type 0, BuildingBlock: BEQFEK_clean_sbu_0, # of connection points: 5
#     Edge 8, Type (0, 0), BuildingBlock: EZIPEK_clean_linker_0, # of connection points: 2
#     Edge 9, Type (0, 0), BuildingBlock: EZIPEK_clean_linker_0, # of connection points: 2
#     Edge 10, Type (0, 0), BuildingBlock: EZIPEK_clean_linker_0, # of connection points: 2
#     Edge 11, Type (0, 0), BuildingBlock: EZIPEK_clean_linker_0, # of connection points: 2
#     Edge 12, Type (0, 0), BuildingBlock: EZIPEK_clean_linker_0, # of connection points: 2
#     Edge 13, Type (0, 0), BuildingBlock: EZIPEK_clean_linker_0, # of connection points: 2
#     Edge 14, Type (0, 0), BuildingBlock: EZIPEK_clean_linker_0, # of connection points: 2
#     Edge 15, Type (0, 0), BuildingBlock: EZIPEK_clean_linker_0, # of connection points: 2
#     Edge 16, Type (0, 0), BuildingBlock: EZIPEK_clean_linker_0, # of connection points: 2
#     Edge 17, Type (0, 0), BuildingBlock: EZIPEK_clean_linker_0, # of connection points: 2
#     Edge 18, Type (0, 0), BuildingBlock: EZIPEK_clean_linker_0, # of connection points: 2
#     Edge 19, Type (0, 0), BuildingBlock: EZIPEK_clean_linker_0, # of connection points: 2
#     Edge 20, Type (0, 0), BuildingBlock: EZIPEK_clean_linker_0, # of connection points: 2
#     Edge 21, Type (0, 0), BuildingBlock: EZIPEK_clean_linker_0, # of connection points: 2
#     Edge 22, Type (0, 0), BuildingBlock: EZIPEK_clean_linker_0, # of connection points: 2
#     Edge 23, Type (0, 0), BuildingBlock: EZIPEK_clean_linker_0, # of connection points: 2
#     Edge 24, Type (0, 0), BuildingBlock: EZIPEK_clean_linker_0, # of connection points: 2
#     Edge 25, Type (0, 0), BuildingBlock: EZIPEK_clean_linker_0, # of connection points: 2
#     Edge 26, Type (0, 0), BuildingBlock: EZIPEK_clean_linker_0, # of connection points: 2
#     Edge 27, Type (0, 0), BuildingBlock: EZIPEK_clean_linker_0, # of connection points: 2
# Relax obj value: 0.147
# Max RMSD: 0.151
# Mean RMSD: 0.151
data_MOF--net-yfx--node1-BEQFEK_clean_sbu_0--edge1-EZIPEK_clean_linker_0
_symmetry_space_group_name_H-M    P1
_symmetry_Int_Tables_number       1
_symmetry_cell_setting            triclinic
loop_
_symmetry_equiv_pos_as_xyz
'x, y, z'
_cell_length_a     30.835012
_cell_length_b     30.630197
_cell_length_c     16.367282
_cell_angle_alpha  89.886421
_cell_angle_beta   90.082884
_cell_angle_gamma 90.215367
loop_
_atom_site_label
_atom_site_type_symbol
_atom_site_fract_x
_atom_site_fract_y
_atom_site_fract_z
_atom_type_partial_charge
Co0 Co 0.29188 0.36453 0.12624 0.0
Co1 Co 0.19008 0.37405 0.1347 0.0
C2 C 0.22703 0.31177 0.02015 0.0
O3 O 0.26322 0.32388 0.04986 0.0
O4 O 0.19118 0.3291 0.0432 0.0
C5 C 0.36292 0.35804 0.02399 0.0
O6 O 0.33353 0.36666 0.96815 0.0
C7 C 0.09897 0.41754 0.12213 0.0
C8 C 0.09649 0.44436 0.24672 0.0
C9 C 0.07517 0.44581 0.17245 0.0
N10 N 0.13359 0.40166 0.16445 0.0
N11 N 0.13063 0.41731 0.23952 0.0
C12 C 0.08907 0.40709 0.03488 0.0
H13 H 0.1141 0.38522 0.00888 0.0
H14 H 0.08654 0.43768 -0.00122 0.0
H15 H 0.05709 0.39053 0.03108 0.0
C16 C 0.28872 0.45594 0.08304 0.0
N17 N 0.26925 0.41992 0.1126 0.0
N18 N 0.22721 0.42201 0.0998 0.0
C19 C 0.21935 0.45836 0.05519 0.0
C20 C 0.25785 0.48125 0.04442 0.0
C21 C 0.33654 0.46399 0.08467 0.0
H22 H 0.3513 0.45149 0.02767 0.0
H23 H 0.34338 0.49956 0.08812 0.0
H24 H 0.35131 0.44706 0.13777 0.0
O25 O 0.28577 0.34297 0.23401 0.0
O26 O 0.21373 0.34022 0.23806 0.0
H27 H 0.15295 0.47672 0.05416 0.0
H28 H 0.18197 0.49351 0.96448 0.0
C29 C 0.17818 0.46697 0.01018 0.0
H30 H 0.16801 0.43681 0.97823 0.0
H31 H 0.15373 0.41175 0.28499 0.0
O32 O 0.353 0.36014 0.09896 0.0
C33 C 0.25117 0.33135 0.26896 0.0
Co34 Co 0.65272 0.29958 0.90415 0.0
Co35 Co 0.63118 0.19801 0.92747 0.0
C36 C 0.68558 0.2377 0.78652 0.0
O37 O 0.68034 0.27633 0.81165 0.0
O38 O 0.66889 0.20431 0.82292 0.0
C39 C 0.68689 0.38466 0.86927 0.0
O40 O 0.70086 0.36804 0.80027 0.0
C41 C 0.57383 0.11715 0.89772 0.0
C42 C 0.59035 0.07832 0.00679 0.0
C43 C 0.56308 0.07843 0.9394 0.0
N44 N 0.60528 0.13882 0.93972 0.0
N45 N 0.61489 0.11482 0.00447 0.0
C46 C 0.55427 0.13349 0.81999 0.0
H47 H 0.57976 0.13493 0.77229 0.0
H48 H 0.54223 0.16722 0.82869 0.0
H49 H 0.52735 0.11202 0.79944 0.0
C50 C 0.5604 0.30684 0.90907 0.0
N51 N 0.59575 0.28174 0.90787 0.0
N52 N 0.58575 0.24134 0.9286 0.0
C53 C 0.5434 0.24075 0.94971 0.0
C54 C 0.52623 0.28192 0.93651 0.0
C55 C 0.56052 0.35482 0.89241 0.0
H56 H 0.58336 0.36237 0.84196 0.0
H57 H 0.52754 0.36642 0.8762 0.0
H58 H 0.57153 0.37225 0.94811 0.0
O59 O 0.6837 0.28012 -0.00145 0.0
O60 O 0.67151 0.2099 0.02377 0.0
H61 H 0.54387 0.1788 0.01309 0.0
H62 H 0.50474 0.2177 0.04943 0.0
C63 C 0.52099 0.20459 0.99422 0.0
H64 H 0.49519 0.19118 0.95432 0.0
H65 H 0.63759 0.12393 0.04867 0.0
O66 O 0.66152 0.36256 0.9143 0.0
C67 C 0.6898 0.24631 0.04103 0.0
Co68 Co 0.72793 0.67073 0.0498 0.0
Co69 Co 0.82231 0.64666 0.11169 0.0
C70 C 0.80304 0.71863 0.98684 0.0
O71 O 0.76299 0.71185 0.99539 0.0
O72 O 0.83158 0.69511 0.02359 0.0
C73 C 0.65732 0.70992 0.96925 0.0
O74 O 0.68429 0.74262 0.95788 0.0
C75 C 0.90523 0.59147 0.10253 0.0
C76 C 0.93121 0.60028 0.22655 0.0
C77 C 0.93862 0.57784 0.15473 0.0
N78 N 0.87873 0.61954 0.14285 0.0
N79 N 0.89522 0.62472 0.21684 0.0
C80 C 0.90019 0.57925 0.01469 0.0
H81 H 0.92608 0.59566 0.97883 0.0
H82 H 0.86819 0.58972 0.99073 0.0
H83 H 0.90453 0.54355 0.00699 0.0
C84 C 0.72981 0.58296 0.99045 0.0
N85 N 0.74892 0.61566 0.03101 0.0
N86 N 0.78415 0.60183 0.06802 0.0
C87 C 0.78585 0.55797 0.05827 0.0
C88 C 0.75209 0.54508 0.007 0.0
C89 C 0.69086 0.58823 0.93655 0.0
H90 H 0.66128 0.58973 0.97496 0.0
H91 H 0.69352 0.61911 0.90135 0.0
H92 H 0.68757 0.56061 0.89318 0.0
O93 O 0.72527 0.68568 0.16416 0.0
O94 O 0.79261 0.67665 0.21065 0.0
H95 H 0.82939 0.5458 0.15814 0.0
H96 H 0.79488 0.5003 0.13024 0.0
C97 C 0.8143 0.52811 0.10634 0.0
H98 H 0.83952 0.51419 0.0661 0.0
H99 H 0.88123 0.64417 0.26183 0.0
O100 O 0.6694 0.67594 0.00709 0.0
C101 C 0.75321 0.68925 0.22062 0.0
Co102 Co 0.35249 0.71218 0.90428 0.0
Co103 Co 0.3737 0.8134 0.93818 0.0
C104 C 0.30463 0.78178 0.81881 0.0
O105 O 0.31282 0.74234 0.83551 0.0
O106 O 0.32549 0.81369 0.85135 0.0
C107 C 0.31103 0.63248 0.86111 0.0
O108 O 0.28596 0.65758 0.81644 0.0
C109 C 0.42363 0.89923 0.90694 0.0
C110 C 0.42113 0.92847 0.02968 0.0
C111 C 0.43866 0.93487 0.95276 0.0
N112 N 0.39904 0.8728 0.95523 0.0
N113 N 0.39758 0.89124 0.02823 0.0
C114 C 0.43244 0.8909 0.81865 0.0
H115 H 0.42634 0.85612 0.80339 0.0
H116 H 0.46623 0.90035 0.80301 0.0
H117 H 0.41026 0.91141 0.78171 0.0
C118 C 0.44446 0.70966 0.87146 0.0
N119 N 0.40829 0.7326 0.88589 0.0
N120 N 0.41841 0.77313 0.90569 0.0
C121 C 0.46195 0.77629 0.90779 0.0
C122 C 0.47955 0.73662 0.88559 0.0
C123 C 0.44533 0.66132 0.85914 0.0
H124 H 0.43629 0.64482 0.91713 0.0
H125 H 0.4211 0.652 0.81205 0.0
H126 H 0.47805 0.65022 0.84027 0.0
O127 O 0.33692 0.72181 0.01659 0.0
O128 O 0.34869 0.79092 0.04656 0.0
H129 H 0.51806 0.80321 0.96973 0.0
H130 H 0.49404 0.83692 0.8932 0.0
C131 C 0.48666 0.81371 0.9432 0.0
H132 H 0.46751 0.82987 0.99153 0.0
H133 H 0.38147 0.87769 0.07827 0.0
O134 O 0.34501 0.6484 0.8936 0.0
C135 C 0.33712 0.75237 0.06838 0.0
Co136 Co 0.78932 0.84841 0.55228 0.0
Co137 Co 0.69383 0.86983 0.61337 0.0
C138 C 0.71508 0.79905 0.48748 0.0
O139 O 0.75502 0.80669 0.49675 0.0
O140 O 0.68588 0.82159 0.5244 0.0
C141 C 0.85806 0.82448 0.44538 0.0
O142 O 0.82759 0.82062 0.3896 0.0
C143 C 0.60869 0.92149 0.60399 0.0
C144 C 0.58986 0.92259 0.73363 0.0
C145 C 0.57809 0.939 0.65797 0.0
N146 N 0.63757 0.89672 0.64635 0.0
N147 N 0.62535 0.89742 0.7238 0.0
C148 C 0.61035 0.92868 0.51374 0.0
H149 H 0.64254 0.91941 0.48906 0.0
H150 H 0.60296 0.96326 0.49896 0.0
H151 H 0.58511 0.90813 0.48428 0.0
C152 C 0.7845 0.9382 0.49463 0.0
N153 N 0.76728 0.90393 0.53413 0.0
N154 N 0.73096 0.91566 0.57012 0.0
C155 C 0.72646 0.95932 0.56022 0.0
C156 C 0.75973 0.97443 0.51051 0.0
C157 C 0.82411 0.93682 0.4423 0.0
H158 H 0.82748 0.90449 0.41359 0.0
H159 H 0.82255 0.96199 0.3935 0.0
H160 H 0.85279 0.94394 0.48085 0.0
O161 O 0.79116 0.83312 0.66629 0.0
O162 O 0.72374 0.84025 0.71246 0.0
H163 H 0.68354 0.97017 0.66126 0.0
H164 H 0.71068 0.01853 0.62316 0.0
C165 C 0.69507 0.9872 0.60556 0.0
H166 H 0.6673 0.99523 0.56542 0.0
H167 H 0.64218 0.88189 0.77089 0.0
O168 O 0.84873 0.83953 0.51533 0.0
C169 C 0.76341 0.82868 0.72257 0.0
Co170 Co 0.15905 0.79221 0.40315 0.0
Co171 Co 0.14418 0.69212 0.44107 0.0
C172 C 0.21059 0.73326 0.3147 0.0
O173 O 0.19428 0.77115 0.31805 0.0
O174 O 0.19534 0.70137 0.35791 0.0
C175 C 0.18155 0.88413 0.37599 0.0
O176 O 0.19164 0.87528 0.29989 0.0
C177 C 0.09159 0.61053 0.39815 0.0
C178 C 0.09601 0.5752 0.51522 0.0
C179 C 0.07458 0.57438 0.44067 0.0
N180 N 0.12031 0.63201 0.44687 0.0
N181 N 0.12305 0.60986 0.51607 0.0
C182 C 0.0798 0.62519 0.31384 0.0
H183 H 0.10981 0.63015 0.27757 0.0
H184 H 0.063 0.65707 0.31691 0.0
H185 H 0.05845 0.60096 0.28332 0.0
C186 C 0.06684 0.79072 0.37735 0.0
N187 N 0.10404 0.76999 0.3927 0.0
N188 N 0.09617 0.73082 0.42218 0.0
C189 C 0.05302 0.72726 0.43449 0.0
C190 C 0.03326 0.76445 0.40393 0.0
C191 C 0.06403 0.83661 0.34656 0.0
H192 H 0.06332 0.85929 0.39915 0.0
H193 H 0.09276 0.84459 0.30851 0.0
H194 H 0.0338 0.84125 0.31069 0.0
O195 O 0.18523 0.77507 0.50646 0.0
O196 O 0.17132 0.70775 0.54862 0.0
H197 H 0.05264 0.66765 0.50599 0.0
H198 H 0.02774 0.71382 0.55278 0.0
C199 C 0.03231 0.69647 0.49395 0.0
H200 H 0.99961 0.68673 0.47228 0.0
H201 H 0.1416 0.6198 0.5661 0.0
O202 O 0.16296 0.85533 0.41935 0.0
C203 C 0.18848 0.74523 0.55957 0.0
Co204 Co 0.21945 0.1634 0.61577 0.0
Co205 Co 0.31888 0.13693 0.63869 0.0
C206 C 0.28937 0.20643 0.51899 0.0
O207 O 0.25135 0.20132 0.54569 0.0
O208 O 0.32108 0.18266 0.5442 0.0
C209 C 0.14788 0.1887 0.52136 0.0
O210 O 0.17638 0.18635 0.4619 0.0
C211 C 0.40419 0.0846 0.6132 0.0
C212 C 0.42554 0.07861 0.74106 0.0
C213 C 0.43592 0.0651 0.66298 0.0
N214 N 0.37598 0.10754 0.66044 0.0
N215 N 0.38982 0.10387 0.73671 0.0
C216 C 0.40131 0.0815 0.52231 0.0
H217 H 0.42647 0.103 0.49496 0.0
H218 H 0.36892 0.0922 0.50051 0.0
H219 H 0.40806 0.04761 0.5022 0.0
C220 C 0.21307 0.07268 0.5596 0.0
N221 N 0.23535 0.1056 0.59462 0.0
N222 N 0.27527 0.09276 0.61076 0.0
C223 C 0.27812 0.04998 0.59071 0.0
C224 C 0.23941 0.03655 0.55533 0.0
C225 C 0.16786 0.07582 0.52708 0.0
H226 H 0.14494 0.07305 0.57888 0.0
H227 H 0.16316 0.10711 0.49553 0.0
H228 H 0.16041 0.04955 0.48269 0.0
O229 O 0.22956 0.18146 0.72649 0.0
O230 O 0.30053 0.17149 0.74234 0.0
H231 H 0.33223 0.03292 0.66548 0.0
H232 H 0.30428 0.98703 0.61979 0.0
C233 C 0.3155 0.02112 0.60979 0.0
H234 H 0.33809 0.02084 0.55739 0.0
H235 H 0.37404 0.1176 0.78676 0.0
O236 O 0.15877 0.17724 0.59304 0.0
C237 C 0.26389 0.18595 0.76801 0.0
Co238 Co 0.85027 0.22236 0.40639 0.0
Co239 Co 0.86741 0.32474 0.42873 0.0
C240 C 0.81501 0.28258 0.28732 0.0
O241 O 0.82203 0.24422 0.31277 0.0
O242 O 0.83024 0.31666 0.32363 0.0
C243 C 0.82061 0.13582 0.37127 0.0
O244 O 0.8078 0.1511 0.30022 0.0
C245 C 0.92594 0.40451 0.40135 0.0
C246 C 0.90532 0.44665 0.50292 0.0
C247 C 0.93547 0.44411 0.44043 0.0
N248 N 0.89216 0.38461 0.43969 0.0
N249 N 0.88006 0.41058 0.49993 0.0
C250 C 0.94845 0.38622 0.32838 0.0
H251 H 0.94637 0.3501 0.328 0.0
H252 H 0.98278 0.39718 0.3259 0.0
H253 H 0.93159 0.39809 0.273 0.0
C254 C 0.94334 0.21927 0.41357 0.0
N255 N 0.90648 0.24223 0.41156 0.0
N256 N 0.91411 0.28311 0.43192 0.0
C257 C 0.95621 0.28621 0.45353 0.0
C258 C 0.97597 0.24649 0.44035 0.0
C259 C 0.94619 0.17134 0.39795 0.0
H260 H 0.92365 0.16208 0.34794 0.0
H261 H 0.97981 0.16184 0.38181 0.0
H262 H 0.93651 0.15351 0.45414 0.0
O263 O 0.81801 0.24108 0.49967 0.0
O264 O 0.82712 0.31181 0.52429 0.0
H265 H 0.99748 0.31163 0.54776 0.0
H266 H 0.99728 0.34138 0.45391 0.0
C267 C 0.9763 0.32359 0.49764 0.0
H268 H 0.95126 0.3452 0.52381 0.0
H269 H 0.85533 0.40301 0.54111 0.0
O270 O 0.84387 0.15938 0.41761 0.0
C271 C 0.81024 0.27469 0.5415 0.0
C272 C 0.48207 0.33003 0.0258 0.0
C273 C 0.48378 0.29852 0.96272 0.0
C274 C 0.40526 0.30137 0.94866 0.0
C275 C 0.4046 0.33834 0.00104 0.0
N276 N 0.444 0.39232 0.0794 0.0
N277 N 0.44791 0.25806 0.85554 0.0
C278 C 0.44348 0.35395 0.03702 0.0
C279 C 0.44564 0.28524 0.92149 0.0
N280 N 0.51684 0.33622 0.07642 0.0
N281 N 0.36776 0.27986 0.92914 0.0
H282 H 0.47702 0.24523 0.83403 0.0
H283 H 0.42127 0.25119 0.81836 0.0
H284 H 0.33767 0.28836 0.95302 0.0
H285 H 0.36725 0.25042 0.89734 0.0
H286 H 0.51572 0.35607 0.128 0.0
H287 H 0.54523 0.31797 0.0719 0.0
H288 H 0.47251 0.4071 0.09984 0.0
H289 H 0.41658 0.41164 0.08681 0.0
C290 C 0.75033 0.43502 0.89918 0.0
C291 C 0.70499 0.42597 0.90224 0.0
C292 C 0.69591 0.48698 0.99612 0.0
C293 C 0.73887 0.50088 0.98006 0.0
N294 N 0.80503 0.49171 0.90302 0.0
N295 N 0.63338 0.45126 0.93838 0.0
C296 C 0.76571 0.47595 0.92787 0.0
C297 C 0.67735 0.45417 0.94664 0.0
N298 N 0.77914 0.40411 0.87381 0.0
N299 N 0.67281 0.5052 0.05838 0.0
H300 H 0.61868 0.43039 0.89635 0.0
H301 H 0.61214 0.47342 0.96517 0.0
H302 H 0.68615 0.52852 0.09757 0.0
H303 H 0.64236 0.49369 0.07602 0.0
H304 H 0.81263 0.40854 0.87763 0.0
H305 H 0.77023 0.37233 0.85867 0.0
H306 H 0.82363 0.47634 0.85845 0.0
H307 H 0.81722 0.52195 0.92123 0.0
C308 C 0.57943 0.71086 0.007 0.0
C309 C 0.61171 0.71417 0.94571 0.0
C310 C 0.55657 0.72918 0.84224 0.0
C311 C 0.52433 0.72318 0.90273 0.0
N312 N 0.50365 0.7001 0.03856 0.0
N313 N 0.63158 0.71851 0.80331 0.0
C314 C 0.53533 0.71094 0.98366 0.0
C315 C 0.60051 0.72105 0.86264 0.0
N316 N 0.59079 0.71073 0.0879 0.0
N317 N 0.54525 0.7438 0.7662 0.0
H318 H 0.66412 0.71223 0.8161 0.0
H319 H 0.62466 0.71902 0.74104 0.0
H320 H 0.51306 0.74819 0.74825 0.0
H321 H 0.5677 0.75395 0.7226 0.0
H322 H 0.56842 0.71328 0.13524 0.0
H323 H 0.6228 0.7126 0.10826 0.0
H324 H 0.51016 0.68615 0.09534 0.0
H325 H 0.47064 0.70151 0.02518 0.0
C326 C 0.29138 0.51429 0.91841 0.0
C327 C 0.26589 0.51935 0.99003 0.0
C328 C 0.26261 0.59841 0.96589 0.0
C329 C 0.29211 0.59328 0.89975 0.0
N330 N 0.33231 0.5467 0.80887 0.0
N331 N 0.21966 0.56432 0.07326 0.0
C332 C 0.30565 0.55141 0.87483 0.0
C333 C 0.24885 0.56089 0.01074 0.0
N334 N 0.30152 0.47418 0.88837 0.0
N335 N 0.24976 0.63945 0.98829 0.0
H336 H 0.21184 0.53851 0.11214 0.0
H337 H 0.20099 0.59184 0.08438 0.0
H338 H 0.25972 0.66778 0.95827 0.0
H339 H 0.23003 0.64636 0.0379 0.0
H340 H 0.29032 0.44481 0.91311 0.0
H341 H 0.29032 0.44481 0.91311 0.0
H342 H 0.34342 0.51628 0.78946 0.0
H343 H 0.34309 0.57311 0.77388 0.0
C344 C 0.97926 0.81414 0.46661 0.0
C345 C 0.98798 0.77792 0.41617 0.0
C346 C 0.91048 0.76845 0.3914 0.0
C347 C 0.90276 0.80932 0.42999 0.0
N348 N 0.93299 0.876 0.48596 0.0
N349 N 0.96269 0.72358 0.32042 0.0
C350 C 0.93808 0.83365 0.46233 0.0
C351 C 0.95385 0.75596 0.37517 0.0
N352 N 0.00969 0.82914 0.52058 0.0
N353 N 0.87715 0.74018 0.37534 0.0
H354 H 0.99412 0.71308 0.3078 0.0
H355 H 0.93904 0.70973 0.28288 0.0
H356 H 0.84509 0.74602 0.39179 0.0
H357 H 0.88212 0.70848 0.35449 0.0
H358 H 1.00309 0.8533 0.56356 0.0
H359 H 0.03977 0.81421 0.52839 0.0
H360 H 0.95892 0.89587 0.50341 0.0
H361 H 0.90402 0.89268 0.47832 0.0
C362 C 0.19058 0.97212 0.53702 0.0
C363 C 0.22852 0.9949 0.51337 0.0
C364 C 0.23923 0.94204 0.40341 0.0
C365 C 0.19701 0.92452 0.41776 0.0
N366 N 0.12825 0.93275 0.48716 0.0
N367 N 0.2836 1.00702 0.4104 0.0
C368 C 0.17142 0.94236 0.48161 0.0
C369 C 0.25145 0.98153 0.44263 0.0
N370 N 0.17254 0.97923 0.61193 0.0
N371 N 0.26883 0.92028 0.35689 0.0
H372 H 0.29255 0.03714 0.43474 0.0
H373 H 0.29822 1.00014 0.35449 0.0
H374 H 0.26338 0.88947 0.3323 0.0
H375 H 0.30098 0.93058 0.35148 0.0
H376 H 0.14659 0.96081 0.63415 0.0
H377 H 0.18639 1.00037 0.65466 0.0
H378 H 0.10777 0.94771 0.5292 0.0
H379 H 0.11199 0.91434 0.44319 0.0
C380 C 0.09839 0.24168 0.45206 0.0
C381 C 0.10377 0.20512 0.50477 0.0
C382 C 0.02569 0.20365 0.529 0.0
C383 C 0.02008 0.23397 0.46478 0.0
N384 N 0.05067 0.27851 0.3573 0.0
N385 N 0.07032 0.14632 0.58262 0.0
C386 C 0.0563 0.25213 0.4239 0.0
C387 C 0.06688 0.18477 0.5408 0.0
N388 N 0.13289 0.26783 0.43237 0.0
N389 N 0.99205 0.19368 0.58017 0.0
H390 H 0.09934 0.12991 0.59095 0.0
H391 H 0.04343 0.12833 0.60181 0.0
H392 H 0.96155 0.20805 0.5751 0.0
H393 H 0.99586 0.17485 0.6328 0.0
H394 H 0.12967 0.29689 0.39973 0.0
H395 H 0.16382 0.26359 0.45692 0.0
H396 H 0.07629 0.28891 0.32053 0.0
H397 H 0.02018 0.28693 0.33466 0.0
C398 C 0.75854 0.08321 0.39798 0.0
C399 C 0.80336 0.09426 0.40477 0.0
C400 C 0.81239 0.03559 0.50408 0.0
C401 C 0.7707 0.01938 0.48448 0.0
N402 N 0.70604 0.0244 0.40146 0.0
N403 N 0.8749 0.07289 0.45008 0.0
C404 C 0.74413 0.0422 0.42828 0.0
C405 C 0.8309 0.06821 0.4541 0.0
N406 N 0.72919 0.11233 0.3675 0.0
N407 N 0.83444 0.01951 0.56992 0.0
H408 H 0.88989 0.09356 0.408 0.0
H409 H 0.89624 0.05221 0.48074 0.0
H410 H 0.82103 0.99612 0.60901 0.0
H411 H 0.8638 0.0327 0.58993 0.0
H412 H 0.69586 0.10652 0.36835 0.0
H413 H 0.73716 0.14416 0.35078 0.0
H414 H 0.68795 0.03804 0.35404 0.0
H415 H 0.69442 0.99426 0.42163 0.0
C416 C 0.29182 0.28372 0.47053 0.0
C417 C 0.29234 0.23859 0.45104 0.0
C418 C 0.25684 0.25449 0.31955 0.0
C419 C 0.25733 0.29989 0.33778 0.0
N420 N 0.28021 0.35855 0.42565 0.0
N421 N 0.28336 0.18169 0.35223 0.0
C422 C 0.27639 0.3147 0.41194 0.0
C423 C 0.27752 0.22439 0.37358 0.0
N424 N 0.30478 0.29657 0.54662 0.0
N425 N 0.23616 0.24013 0.25068 0.0
H426 H 0.29878 0.15946 0.39092 0.0
H427 H 0.27678 0.1692 0.29445 0.0
H428 H 0.22088 0.26118 0.20983 0.0
H429 H 0.23095 0.20737 0.23706 0.0
H430 H 0.30031 0.32787 0.56972 0.0
H431 H 0.3191 0.2749 0.58777 0.0
H432 H 0.2981 0.37192 0.47348 0.0
H433 H 0.26668 0.38183 0.38666 0.0
C434 C 0.76508 0.24318 0.09479 0.0
C435 C 0.72064 0.25174 0.10954 0.0
C436 C 0.73996 0.29233 0.23402 0.0
C437 C 0.78448 0.28476 0.2177 0.0
N438 N 0.84014 0.26147 0.12567 0.0
N439 N 0.66543 0.28902 0.18627 0.0
C440 C 0.79712 0.26295 0.14538 0.0
C441 C 0.70802 0.27772 0.17726 0.0
N442 N 0.77645 0.21566 0.03284 0.0
N443 N 0.72821 0.31166 0.30577 0.0
H444 H 0.64083 0.27637 0.14926 0.0
H445 H 0.65464 0.31223 0.22786 0.0
H446 H 0.75082 0.32545 0.34557 0.0
H447 H 0.69647 0.3128 0.3272 0.0
H448 H 0.808 0.20511 0.02241 0.0
H449 H 0.75352 0.20021 0.99589 0.0
H450 H 0.85195 0.24921 0.07082 0.0
H451 H 0.86382 0.27646 0.16182 0.0
C452 C 0.73588 0.69647 0.37173 0.0
C453 C 0.73939 0.7155 0.29287 0.0
C454 C 0.70233 0.78133 0.34334 0.0
C455 C 0.70589 0.76569 0.42409 0.0
N456 N 0.72377 0.70795 0.51714 0.0
N457 N 0.73037 0.77863 0.20547 0.0
C458 C 0.72131 0.72266 0.43849 0.0
C459 C 0.72328 0.7585 0.27897 0.0
N460 N 0.74571 0.65339 0.38242 0.0
N461 N 0.68003 0.819 0.32907 0.0
H462 H 0.74742 0.76408 0.15784 0.0
H463 H 0.72323 0.8113 0.19427 0.0
H464 H 0.66472 0.83598 0.37609 0.0
H465 H 0.67295 0.8307 0.27078 0.0
H466 H 0.73998 0.63637 0.43646 0.0
H467 H 0.75724 0.63382 0.33515 0.0
H468 H 0.73955 0.67941 0.53445 0.0
H469 H 0.71069 0.72569 0.56562 0.0
C470 C 0.30101 0.69976 0.16734 0.0
C471 C 0.3184 0.74223 0.1516 0.0
C472 C 0.28153 0.76723 0.27491 0.0
C473 C 0.25259 0.73076 0.26945 0.0
N474 N 0.23891 0.65857 0.21564 0.0
N475 N 0.33641 0.81221 0.21009 0.0
C476 C 0.26382 0.69545 0.21817 0.0
C477 C 0.31232 0.77478 0.21173 0.0
N478 N 0.32144 0.66365 0.13764 0.0
N479 N 0.28093 0.79323 0.34272 0.0
H480 H 0.36521 0.81477 0.17717 0.0
H481 H 0.32848 0.84004 0.24329 0.0
H482 H 0.26053 0.78718 0.39223 0.0
H483 H 0.30371 0.81763 0.35418 0.0
H484 H 0.3118 0.63185 0.15144 0.0
H485 H 0.35178 0.66558 0.10965 0.0
H486 H 0.24516 0.63278 0.17629 0.0
H487 H 0.21072 0.65437 0.24961 0.0
C488 C 0.78232 0.82137 0.87292 0.0
C489 C 0.77793 0.80238 0.79433 0.0
C490 C 0.81609 0.73681 0.84349 0.0
C491 C 0.81303 0.75218 0.92429 0.0
N492 N 0.79599 0.80964 0.01791 0.0
N493 N 0.78678 0.73962 0.70641 0.0
C494 C 0.79776 0.79516 0.93916 0.0
C495 C 0.79431 0.75958 0.77981 0.0
N496 N 0.77238 0.86437 0.88385 0.0
N497 N 0.83855 0.69934 0.82868 0.0
H498 H 0.76927 0.75423 0.65923 0.0
H499 H 0.79414 0.70707 0.69488 0.0
H500 H 0.85439 0.68246 0.87541 0.0
H501 H 0.84516 0.68777 0.77024 0.0
H502 H 0.77868 0.88136 0.93761 0.0
H503 H 0.7601 0.8839 0.83698 0.0
H504 H 0.78038 0.83816 0.03569 0.0
H505 H 0.8094 0.79169 0.06599 0.0
C506 C 0.1997 0.76471 0.70757 0.0
C507 C 0.21724 0.75484 0.62974 0.0
C508 C 0.2878 0.78405 0.67278 0.0
C509 C 0.27224 0.78768 0.75348 0.0
N510 N 0.21421 0.78068 0.85048 0.0
N511 N 0.2795 0.74865 0.54163 0.0
C512 C 0.22816 0.77829 0.77146 0.0
C513 C 0.26173 0.76303 0.61313 0.0
N514 N 0.15596 0.76188 0.71985 0.0
N515 N 0.32809 0.79981 0.65413 0.0
H516 H 0.26173 0.73112 0.49831 0.0
H517 H 0.31254 0.75018 0.52882 0.0
H518 H 0.34758 0.81532 0.69756 0.0
H519 H 0.34016 0.80147 0.59481 0.0
H520 H 0.14066 0.77295 0.77251 0.0
H521 H 0.13457 0.75067 0.67503 0.0
H522 H 0.18412 0.76924 0.87003 0.0
H523 H 0.23393 0.79285 0.8972 0.0
C524 C 0.23449 0.20279 0.90792 0.0
C525 C 0.26008 0.21574 0.83969 0.0
C526 C 0.25202 0.29257 0.88044 0.0
C527 C 0.2298 0.27947 0.95229 0.0
N528 N 0.20223 0.22218 0.03851 0.0
N529 N 0.29877 0.27243 0.7677 0.0
C530 C 0.22151 0.23453 0.96701 0.0
C531 C 0.27059 0.26052 0.82823 0.0
N532 N 0.22196 0.16012 0.91516 0.0
N533 N 0.2545 0.33601 0.86143 0.0
H534 H 0.31319 0.24994 0.72871 0.0
H535 H 0.31123 0.30387 0.76108 0.0
H536 H 0.24055 0.3601 0.89788 0.0
H537 H 0.26658 0.34795 0.80637 0.0
H538 H 0.1992 0.1491 0.95741 0.0
H539 H 0.23327 0.1358 0.8761 0.0
H540 H 0.20004 0.18995 0.05839 0.0
H541 H 0.18965 0.24477 0.07966 0.0
C542 C 0.70279 0.25463 0.64347 0.0
C543 C 0.71584 0.23423 0.71708 0.0
C544 C 0.7922 0.24314 0.67787 0.0
C545 C 0.77905 0.26817 0.60897 0.0
N546 N 0.72239 0.30117 0.52899 0.0
N547 N 0.77235 0.20958 0.80714 0.0
C548 C 0.7344 0.27488 0.5926 0.0
C549 C 0.76045 0.22802 0.73445 0.0
N550 N 0.6598 0.25452 0.62312 0.0
N551 N 0.83509 0.23336 0.68832 0.0
H552 H 0.74982 0.19559 0.84688 0.0
H553 H 0.80401 0.20934 0.82928 0.0
H554 H 0.85946 0.24645 0.65135 0.0
H555 H 0.84642 0.21096 0.73115 0.0
H556 H 0.64774 0.26575 0.56755 0.0
H557 H 0.63654 0.23923 0.65979 0.0
H558 H 0.69054 0.31032 0.51707 0.0
H559 H 0.74496 0.31704 0.49189 0.0
C560 C 0.01718 0.55577 0.13534 0.0
C561 C 0.97305 0.54321 0.14381 0.0
C562 C 0.99605 0.46577 0.14865 0.0
C563 C 0.04029 0.47873 0.15169 0.0
N564 N 0.09318 0.53705 0.15247 0.0
N565 N 0.92072 0.48614 0.16816 0.0
C566 C 0.05087 0.52405 0.14573 0.0
C567 C 0.96253 0.49807 0.15188 0.0
N568 N 0.02685 0.59815 0.11621 0.0
N569 N 0.98595 0.42242 0.1438 0.0
H570 H 0.8959 0.50876 0.17448 0.0
H571 H 0.91108 0.45439 0.18181 0.0
H572 H 0.00931 0.39794 0.14676 0.0
H573 H 0.95493 0.4109 0.13053 0.0
H574 H 0.05784 0.60904 0.10111 0.0
H575 H 1.00304 0.62193 0.10847 0.0
H576 H 0.10288 0.56947 0.15823 0.0
H577 H 0.11886 0.5152 0.15706 0.0
C578 C 0.54491 0.99906 0.91612 0.0
C579 C 0.53011 0.04279 0.92182 0.0
C580 C 0.45466 0.01459 0.9229 0.0
C581 C 0.47005 0.97115 0.93108 0.0
N582 N 0.53114 0.92338 0.95031 0.0
N583 N 0.4699 0.09186 0.93922 0.0
C584 C 0.51557 0.96366 0.9306 0.0
C585 C 0.48459 0.05053 0.92624 0.0
N586 N 0.58739 0.99141 0.89761 0.0
N587 N 0.4112 0.02148 0.91305 0.0
H588 H 0.49068 0.11849 0.94319 0.0
H589 H 0.43774 0.09933 0.9522 0.0
H590 H 0.3888 0.99591 0.90992 0.0
H591 H 0.39774 0.05194 0.90114 0.0
H592 H 0.59996 0.96035 0.88806 0.0
H593 H 0.60916 0.01656 0.88398 0.0
H594 H 0.56392 0.91673 0.95899 0.0
H595 H 0.51086 0.89776 0.96708 0.0
C596 C 0.51576 0.04813 0.64502 0.0
C597 C 0.47211 0.03334 0.64357 0.0
C598 C 0.49916 0.9575 0.62964 0.0
C599 C 0.54236 0.97195 0.64369 0.0
N600 N 0.59087 0.03142 0.67573 0.0
N601 N 0.42216 0.97276 0.64114 0.0
C602 C 0.55043 0.01745 0.65369 0.0
C603 C 0.46382 0.98765 0.63672 0.0
N604 N 0.52418 0.09171 0.63692 0.0
N605 N 0.4919 0.91472 0.61019 0.0
H606 H 0.39601 0.99366 0.64789 0.0
H607 H 0.41361 0.9399 0.64364 0.0
H608 H 0.51686 0.89194 0.6061 0.0
H609 H 0.46194 0.90258 0.59144 0.0
H610 H 0.55529 0.10435 0.62884 0.0
H611 H 0.49959 0.11481 0.63062 0.0
H612 H 0.59774 0.06342 0.69298 0.0
H613 H 0.61683 0.01019 0.68349 0.0
C614 C 0.99519 0.55353 0.40858 0.0
C615 C 0.03951 0.54129 0.41986 0.0
C616 C 0.01548 0.46565 0.44439 0.0
C617 C 0.9718 0.47668 0.42628 0.0
N618 N 0.9205 0.53059 0.38202 0.0
N619 N 0.09159 0.48305 0.42692 0.0
C620 C 0.96196 0.52052 0.40471 0.0
C621 C 0.04941 0.49637 0.42971 0.0
N622 N 0.98446 0.59665 0.40598 0.0
N623 N 0.02431 0.42762 0.48424 0.0
H624 H 0.1171 0.50452 0.41425 0.0
H625 H 0.10055 0.45028 0.42803 0.0
H626 H 0.9997 0.40798 0.50739 0.0
H627 H 0.05513 0.41922 0.50506 0.0
H628 H 0.95282 0.60824 0.40822 0.0
H629 H 0.00753 0.62132 0.40663 0.0
H630 H 0.91021 0.56162 0.36564 0.0
H631 H 0.89628 0.50699 0.37527 0.0
loop_
_geom_bond_atom_site_label_1
_geom_bond_atom_site_label_2
_geom_bond_distance
_geom_bond_site_symmetry_2
_ccdc_geom_bond_type
Co0 O3 1.970 1_554 S
Co0 N17 1.989 . S
Co0 O25 1.967 . S
Co0 O32 1.920 . S
Co1 O4 1.966 1_554 S
Co1 N10 2.022 . S
Co1 N18 1.993 . S
Co1 O26 1.941 . S
C2 O3 1.258 . S
C2 O4 1.263 . S
O3 Co0 1.970 1_556 S
O3 C2 1.258 . S
O4 Co1 1.966 1_556 S
O4 C2 1.263 . S
C5 O6 1.235 . S
C5 O32 1.289 1_556 S
O6 C5 1.235 . S
C7 C9 1.400 . S
C7 N10 1.351 1_556 S
C7 C12 1.501 . S
C8 C9 1.387 1_554 S
C8 N11 1.341 . S
C9 C7 1.400 . S
C9 C8 1.387 1_556 S
N10 Co1 2.022 . S
N10 C7 1.351 1_554 S
N10 N11 1.365 . S
N11 C8 1.341 . S
N11 N10 1.365 . S
N11 H31 0.862 . S
C12 C7 1.501 . S
C12 H13 0.961 . S
C12 H14 0.961 . S
C12 H15 0.960 . S
H13 C12 0.961 . S
H14 C12 0.961 . S
H15 C12 0.960 . S
C16 N17 1.342 . S
C16 C20 1.401 . S
C16 C21 1.499 . S
N17 Co0 1.989 . S
N17 C16 1.342 . S
N17 N18 1.388 . S
N18 Co1 1.993 . S
N18 N17 1.388 . S
N18 C19 1.346 . S
C19 N18 1.346 . S
C19 C20 1.396 . S
C19 C29 1.510 . S
C20 C16 1.401 . S
C20 C19 1.396 . S
C21 C16 1.499 . S
C21 H22 0.959 . S
C21 H23 0.960 1_554 S
C21 H24 0.961 . S
H22 C21 0.959 . S
H23 C21 0.960 1_556 S
H24 C21 0.961 . S
O25 Co0 1.967 . S
O25 C33 1.258 . S
O26 Co1 1.941 . S
O26 C33 1.266 . S
H27 C29 0.959 . S
H28 C29 0.961 1_556 S
C29 C19 1.510 . S
C29 H27 0.959 . S
C29 H28 0.961 1_554 S
C29 H30 0.960 . S
H30 C29 0.960 . S
H31 N11 0.862 . S
O32 Co0 1.920 . S
O32 C5 1.289 1_554 S
C33 O25 1.258 . S
C33 O26 1.266 . S
Co34 O37 1.970 1_554 S
Co34 N51 1.989 . S
Co34 O59 1.967 . S
Co34 O66 1.920 . S
Co35 O38 1.966 1_554 S
Co35 N44 2.022 . S
Co35 N52 1.993 . S
Co35 O60 1.941 . S
C36 O37 1.258 . S
C36 O38 1.263 . S
O37 Co34 1.970 1_556 S
O37 C36 1.258 . S
O38 Co35 1.966 1_556 S
O38 C36 1.263 . S
C39 O40 1.235 . S
C39 O66 1.289 1_556 S
O40 C39 1.235 . S
C41 C43 1.400 . S
C41 N44 1.351 1_556 S
C41 C46 1.501 . S
C42 C43 1.387 1_554 S
C42 N45 1.341 . S
C43 C41 1.400 . S
C43 C42 1.387 1_556 S
N44 Co35 2.022 . S
N44 C41 1.351 1_554 S
N44 N45 1.365 . S
N45 C42 1.341 . S
N45 N44 1.365 . S
N45 H65 0.862 . S
C46 C41 1.501 . S
C46 H47 0.961 . S
C46 H48 0.961 . S
C46 H49 0.960 . S
H47 C46 0.961 . S
H48 C46 0.961 . S
H49 C46 0.960 . S
C50 N51 1.342 . S
C50 C54 1.401 . S
C50 C55 1.499 . S
N51 Co34 1.989 . S
N51 C50 1.342 . S
N51 N52 1.388 . S
N52 Co35 1.993 . S
N52 N51 1.388 . S
N52 C53 1.346 . S
C53 N52 1.346 . S
C53 C54 1.396 . S
C53 C63 1.510 . S
C54 C50 1.401 . S
C54 C53 1.396 . S
C55 C50 1.499 . S
C55 H56 0.959 . S
C55 H57 0.960 1_554 S
C55 H58 0.961 . S
H56 C55 0.959 . S
H57 C55 0.960 1_556 S
H58 C55 0.961 . S
O59 Co34 1.967 . S
O59 C67 1.258 . S
O60 Co35 1.941 . S
O60 C67 1.266 . S
H61 C63 0.959 . S
H62 C63 0.961 1_556 S
C63 C53 1.510 . S
C63 H61 0.959 . S
C63 H62 0.961 1_554 S
C63 H64 0.960 . S
H64 C63 0.960 . S
H65 N45 0.862 . S
O66 Co34 1.920 . S
O66 C39 1.289 1_554 S
C67 O59 1.258 . S
C67 O60 1.266 . S
Co68 O71 1.970 1_554 S
Co68 N85 1.989 . S
Co68 O93 1.967 . S
Co68 O100 1.920 . S
Co69 O72 1.966 1_554 S
Co69 N78 2.022 . S
Co69 N86 1.993 . S
Co69 O94 1.941 . S
C70 O71 1.258 . S
C70 O72 1.263 . S
O71 Co68 1.970 1_556 S
O71 C70 1.258 . S
O72 Co69 1.966 1_556 S
O72 C70 1.263 . S
C73 O74 1.235 . S
C73 O100 1.289 1_556 S
O74 C73 1.235 . S
C75 C77 1.400 . S
C75 N78 1.351 1_556 S
C75 C80 1.501 . S
C76 C77 1.387 1_554 S
C76 N79 1.341 . S
C77 C75 1.400 . S
C77 C76 1.387 1_556 S
N78 Co69 2.022 . S
N78 C75 1.351 1_554 S
N78 N79 1.365 . S
N79 C76 1.341 . S
N79 N78 1.365 . S
N79 H99 0.862 . S
C80 C75 1.501 . S
C80 H81 0.961 . S
C80 H82 0.961 . S
C80 H83 0.960 . S
H81 C80 0.961 . S
H82 C80 0.961 . S
H83 C80 0.960 . S
C84 N85 1.342 . S
C84 C88 1.401 . S
C84 C89 1.499 . S
N85 Co68 1.989 . S
N85 C84 1.342 . S
N85 N86 1.388 . S
N86 Co69 1.993 . S
N86 N85 1.388 . S
N86 C87 1.346 . S
C87 N86 1.346 . S
C87 C88 1.396 . S
C87 C97 1.510 . S
C88 C84 1.401 . S
C88 C87 1.396 . S
C89 C84 1.499 . S
C89 H90 0.959 . S
C89 H91 0.960 1_554 S
C89 H92 0.961 . S
H90 C89 0.959 . S
H91 C89 0.960 1_556 S
H92 C89 0.961 . S
O93 Co68 1.967 . S
O93 C101 1.258 . S
O94 Co69 1.941 . S
O94 C101 1.266 . S
H95 C97 0.959 . S
H96 C97 0.961 1_556 S
C97 C87 1.510 . S
C97 H95 0.959 . S
C97 H96 0.961 1_554 S
C97 H98 0.960 . S
H98 C97 0.960 . S
H99 N79 0.862 . S
O100 Co68 1.920 . S
O100 C73 1.289 1_554 S
C101 O93 1.258 . S
C101 O94 1.266 . S
Co102 O105 1.970 1_554 S
Co102 N119 1.989 . S
Co102 O127 1.967 . S
Co102 O134 1.920 . S
Co103 O106 1.966 1_554 S
Co103 N112 2.022 . S
Co103 N120 1.993 . S
Co103 O128 1.941 . S
C104 O105 1.258 . S
C104 O106 1.263 . S
O105 Co102 1.970 1_556 S
O105 C104 1.258 . S
O106 Co103 1.966 1_556 S
O106 C104 1.263 . S
C107 O108 1.235 . S
C107 O134 1.289 1_556 S
O108 C107 1.235 . S
C109 C111 1.400 . S
C109 N112 1.351 1_556 S
C109 C114 1.501 . S
C110 C111 1.387 1_554 S
C110 N113 1.341 . S
C111 C109 1.400 . S
C111 C110 1.387 1_556 S
N112 Co103 2.022 . S
N112 C109 1.351 1_554 S
N112 N113 1.365 . S
N113 C110 1.341 . S
N113 N112 1.365 . S
N113 H133 0.862 . S
C114 C109 1.501 . S
C114 H115 0.961 . S
C114 H116 0.961 . S
C114 H117 0.960 . S
H115 C114 0.961 . S
H116 C114 0.961 . S
H117 C114 0.960 . S
C118 N119 1.342 . S
C118 C122 1.401 . S
C118 C123 1.499 . S
N119 Co102 1.989 . S
N119 C118 1.342 . S
N119 N120 1.388 . S
N120 Co103 1.993 . S
N120 N119 1.388 . S
N120 C121 1.346 . S
C121 N120 1.346 . S
C121 C122 1.396 . S
C121 C131 1.510 . S
C122 C118 1.401 . S
C122 C121 1.396 . S
C123 C118 1.499 . S
C123 H124 0.959 . S
C123 H125 0.960 1_554 S
C123 H126 0.961 . S
H124 C123 0.959 . S
H125 C123 0.960 1_556 S
H126 C123 0.961 . S
O127 Co102 1.967 . S
O127 C135 1.258 . S
O128 Co103 1.941 . S
O128 C135 1.266 . S
H129 C131 0.959 . S
H130 C131 0.961 1_556 S
C131 C121 1.510 . S
C131 H129 0.959 . S
C131 H130 0.961 1_554 S
C131 H132 0.960 . S
H132 C131 0.960 . S
H133 N113 0.862 . S
O134 Co102 1.920 . S
O134 C107 1.289 1_554 S
C135 O127 1.258 . S
C135 O128 1.266 . S
Co136 O139 1.970 . S
Co136 N153 1.989 . S
Co136 O161 1.967 . S
Co136 O168 1.920 . S
Co137 O140 1.966 . S
Co137 N146 2.022 . S
Co137 N154 1.993 . S
Co137 O162 1.941 . S
C138 O139 1.258 . S
C138 O140 1.263 . S
O139 Co136 1.970 . S
O139 C138 1.258 . S
O140 Co137 1.966 . S
O140 C138 1.263 . S
C141 O142 1.235 . S
C141 O168 1.289 . S
O142 C141 1.235 . S
C143 C145 1.400 . S
C143 N146 1.351 . S
C143 C148 1.501 . S
C144 C145 1.387 . S
C144 N147 1.341 . S
C145 C143 1.400 . S
C145 C144 1.387 . S
N146 Co137 2.022 . S
N146 C143 1.351 . S
N146 N147 1.365 . S
N147 C144 1.341 . S
N147 N146 1.365 . S
N147 H167 0.862 . S
C148 C143 1.501 . S
C148 H149 0.961 . S
C148 H150 0.961 . S
C148 H151 0.960 . S
H149 C148 0.961 . S
H150 C148 0.961 . S
H151 C148 0.960 . S
C152 N153 1.342 . S
C152 C156 1.401 . S
C152 C157 1.499 . S
N153 Co136 1.989 . S
N153 C152 1.342 . S
N153 N154 1.388 . S
N154 Co137 1.993 . S
N154 N153 1.388 . S
N154 C155 1.346 . S
C155 N154 1.346 . S
C155 C156 1.396 . S
C155 C165 1.510 . S
C156 C152 1.401 . S
C156 C155 1.396 . S
C157 C152 1.499 . S
C157 H158 0.959 . S
C157 H159 0.960 . S
C157 H160 0.961 . S
H158 C157 0.959 . S
H159 C157 0.960 . S
H160 C157 0.961 . S
O161 Co136 1.967 . S
O161 C169 1.258 . S
O162 Co137 1.941 . S
O162 C169 1.266 . S
H163 C165 0.959 1_545 S
H164 C165 0.961 1_545 S
C165 C155 1.510 . S
C165 H163 0.959 1_565 S
C165 H164 0.961 1_565 S
C165 H166 0.960 . S
H166 C165 0.960 . S
H167 N147 0.862 . S
O168 Co136 1.920 . S
O168 C141 1.289 . S
C169 O161 1.258 . S
C169 O162 1.266 . S
Co170 O173 1.970 . S
Co170 N187 1.989 . S
Co170 O195 1.967 . S
Co170 O202 1.920 . S
Co171 O174 1.966 . S
Co171 N180 2.022 . S
Co171 N188 1.993 . S
Co171 O196 1.941 . S
C172 O173 1.258 . S
C172 O174 1.263 . S
O173 Co170 1.970 . S
O173 C172 1.258 . S
O174 Co171 1.966 . S
O174 C172 1.263 . S
C175 O176 1.235 . S
C175 O202 1.289 . S
O176 C175 1.235 . S
C177 C179 1.400 . S
C177 N180 1.351 . S
C177 C182 1.501 . S
C178 C179 1.387 . S
C178 N181 1.341 . S
C179 C177 1.400 . S
C179 C178 1.387 . S
N180 Co171 2.022 . S
N180 C177 1.351 . S
N180 N181 1.365 . S
N181 C178 1.341 . S
N181 N180 1.365 . S
N181 H201 0.862 . S
C182 C177 1.501 . S
C182 H183 0.961 . S
C182 H184 0.961 . S
C182 H185 0.960 . S
H183 C182 0.961 . S
H184 C182 0.961 . S
H185 C182 0.960 . S
C186 N187 1.342 . S
C186 C190 1.401 . S
C186 C191 1.499 . S
N187 Co170 1.989 . S
N187 C186 1.342 . S
N187 N188 1.388 . S
N188 Co171 1.993 . S
N188 N187 1.388 . S
N188 C189 1.346 . S
C189 N188 1.346 . S
C189 C190 1.396 . S
C189 C199 1.510 . S
C190 C186 1.401 . S
C190 C189 1.396 . S
C191 C186 1.499 . S
C191 H192 0.959 . S
C191 H193 0.960 . S
C191 H194 0.961 . S
H192 C191 0.959 . S
H193 C191 0.960 . S
H194 C191 0.961 . S
O195 Co170 1.967 . S
O195 C203 1.258 . S
O196 Co171 1.941 . S
O196 C203 1.266 . S
H197 C199 0.959 1_655 S
H198 C199 0.961 1_655 S
C199 C189 1.510 . S
C199 H197 0.959 1_455 S
C199 H198 0.961 1_455 S
C199 H200 0.960 . S
H200 C199 0.960 . S
H201 N181 0.862 . S
O202 Co170 1.920 . S
O202 C175 1.289 . S
C203 O195 1.258 . S
C203 O196 1.266 . S
Co204 O207 1.970 . S
Co204 N221 1.989 . S
Co204 O229 1.967 . S
Co204 O236 1.920 . S
Co205 O208 1.966 . S
Co205 N214 2.022 . S
Co205 N222 1.993 . S
Co205 O230 1.941 . S
C206 O207 1.258 . S
C206 O208 1.263 . S
O207 Co204 1.970 . S
O207 C206 1.258 . S
O208 Co205 1.966 . S
O208 C206 1.263 . S
C209 O210 1.235 . S
C209 O236 1.289 . S
O210 C209 1.235 . S
C211 C213 1.400 . S
C211 N214 1.351 . S
C211 C216 1.501 . S
C212 C213 1.387 . S
C212 N215 1.341 . S
C213 C211 1.400 . S
C213 C212 1.387 . S
N214 Co205 2.022 . S
N214 C211 1.351 . S
N214 N215 1.365 . S
N215 C212 1.341 . S
N215 N214 1.365 . S
N215 H235 0.862 . S
C216 C211 1.501 . S
C216 H217 0.961 . S
C216 H218 0.961 . S
C216 H219 0.960 . S
H217 C216 0.961 . S
H218 C216 0.961 . S
H219 C216 0.960 . S
C220 N221 1.342 . S
C220 C224 1.401 . S
C220 C225 1.499 . S
N221 Co204 1.989 . S
N221 C220 1.342 . S
N221 N222 1.388 . S
N222 Co205 1.993 . S
N222 N221 1.388 . S
N222 C223 1.346 . S
C223 N222 1.346 . S
C223 C224 1.396 . S
C223 C233 1.510 . S
C224 C220 1.401 . S
C224 C223 1.396 . S
C225 C220 1.499 . S
C225 H226 0.959 . S
C225 H227 0.960 . S
C225 H228 0.961 . S
H226 C225 0.959 . S
H227 C225 0.960 . S
H228 C225 0.961 . S
O229 Co204 1.967 . S
O229 C237 1.258 . S
O230 Co205 1.941 . S
O230 C237 1.266 . S
H231 C233 0.959 1_565 S
H232 C233 0.961 1_565 S
C233 C223 1.510 . S
C233 H231 0.959 1_545 S
C233 H232 0.961 1_545 S
C233 H234 0.960 . S
H234 C233 0.960 . S
H235 N215 0.862 . S
O236 Co204 1.920 . S
O236 C209 1.289 . S
C237 O229 1.258 . S
C237 O230 1.266 . S
Co238 O241 1.970 . S
Co238 N255 1.989 . S
Co238 O263 1.967 . S
Co238 O270 1.920 . S
Co239 O242 1.966 . S
Co239 N248 2.022 . S
Co239 N256 1.993 . S
Co239 O264 1.941 . S
C240 O241 1.258 . S
C240 O242 1.263 . S
O241 Co238 1.970 . S
O241 C240 1.258 . S
O242 Co239 1.966 . S
O242 C240 1.263 . S
C243 O244 1.235 . S
C243 O270 1.289 . S
O244 C243 1.235 . S
C245 C247 1.400 . S
C245 N248 1.351 . S
C245 C250 1.501 . S
C246 C247 1.387 . S
C246 N249 1.341 . S
C247 C245 1.400 . S
C247 C246 1.387 . S
N248 Co239 2.022 . S
N248 C245 1.351 . S
N248 N249 1.365 . S
N249 C246 1.341 . S
N249 N248 1.365 . S
N249 H269 0.862 . S
C250 C245 1.501 . S
C250 H251 0.961 . S
C250 H252 0.961 . S
C250 H253 0.960 . S
H251 C250 0.961 . S
H252 C250 0.961 . S
H253 C250 0.960 . S
C254 N255 1.342 . S
C254 C258 1.401 . S
C254 C259 1.499 . S
N255 Co238 1.989 . S
N255 C254 1.342 . S
N255 N256 1.388 . S
N256 Co239 1.993 . S
N256 N255 1.388 . S
N256 C257 1.346 . S
C257 N256 1.346 . S
C257 C258 1.396 . S
C257 C267 1.510 . S
C258 C254 1.401 . S
C258 C257 1.396 . S
C259 C254 1.499 . S
C259 H260 0.959 . S
C259 H261 0.960 . S
C259 H262 0.961 . S
H260 C259 0.959 . S
H261 C259 0.960 . S
H262 C259 0.961 . S
O263 Co238 1.967 . S
O263 C271 1.258 . S
O264 Co239 1.941 . S
O264 C271 1.266 . S
H265 C267 0.959 1_455 S
H266 C267 0.961 1_455 S
C267 C257 1.510 . S
C267 H265 0.959 1_655 S
C267 H266 0.961 1_655 S
C267 H268 0.960 . S
H268 C267 0.960 . S
H269 N249 0.862 . S
O270 Co238 1.920 . S
O270 C243 1.289 . S
C271 O263 1.258 . S
C271 O264 1.266 . S
C272 C273 1.363 . S
C272 C278 1.379 . S
C272 N280 1.356 . S
C273 C272 1.363 . S
C273 C279 1.363 1_554 S
C274 C275 1.363 . S
C274 C279 1.379 . S
C274 N281 1.356 . S
C275 C274 1.363 . S
C275 C278 1.363 1_556 S
N276 C278 1.356 . S
N276 H288 0.984 . S
N276 H289 0.985 . S
N277 C279 1.356 . S
N277 H282 0.984 . S
N277 H283 0.985 . S
C278 C272 1.379 . S
C278 C275 1.363 1_554 S
C278 N276 1.356 . S
C279 C273 1.363 1_556 S
C279 C274 1.379 . S
C279 N277 1.356 . S
N280 C272 1.356 . S
N280 H286 0.984 . S
N280 H287 0.984 . S
N281 C274 1.356 . S
N281 H284 0.984 . S
N281 H285 0.985 . S
H282 N277 0.984 . S
H283 N277 0.985 . S
H284 N281 0.984 . S
H285 N281 0.985 . S
H286 N280 0.984 . S
H287 N280 0.984 . S
H288 N276 0.984 . S
H289 N276 0.985 . S
C290 C291 1.363 . S
C290 C296 1.379 . S
C290 N298 1.356 . S
C291 C290 1.363 . S
C291 C297 1.363 1_556 S
C292 C293 1.363 . S
C292 C297 1.379 . S
C292 N299 1.356 . S
C293 C292 1.363 . S
C293 C296 1.363 1_554 S
N294 C296 1.356 . S
N294 H306 0.984 . S
N294 H307 0.985 . S
N295 C297 1.356 . S
N295 H300 0.984 . S
N295 H301 0.985 . S
C296 C290 1.379 . S
C296 C293 1.363 1_556 S
C296 N294 1.356 . S
C297 C291 1.363 1_554 S
C297 C292 1.379 . S
C297 N295 1.356 . S
N298 C290 1.356 . S
N298 H304 0.984 . S
N298 H305 0.984 . S
N299 C292 1.356 . S
N299 H302 0.984 . S
N299 H303 0.985 . S
H300 N295 0.984 . S
H301 N295 0.985 . S
H302 N299 0.984 . S
H303 N299 0.985 . S
H304 N298 0.984 . S
H305 N298 0.984 . S
H306 N294 0.984 . S
H307 N294 0.985 . S
C308 C309 1.363 1_554 S
C308 C314 1.379 . S
C308 N316 1.356 . S
C309 C308 1.363 1_556 S
C309 C315 1.363 . S
C310 C311 1.363 1_556 S
C310 C315 1.379 . S
C310 N317 1.356 . S
C311 C310 1.363 1_554 S
C311 C314 1.363 . S
N312 C314 1.356 . S
N312 H324 0.984 . S
N312 H325 0.985 . S
N313 C315 1.356 . S
N313 H318 0.984 . S
N313 H319 0.985 . S
C314 C308 1.379 . S
C314 C311 1.363 . S
C314 N312 1.356 . S
C315 C309 1.363 . S
C315 C310 1.379 . S
C315 N313 1.356 . S
N316 C308 1.356 . S
N316 H322 0.984 . S
N316 H323 0.984 1_554 S
N317 C310 1.356 . S
N317 H320 0.984 1_556 S
N317 H321 0.985 . S
H318 N313 0.984 . S
H319 N313 0.985 . S
H320 N317 0.984 1_554 S
H321 N317 0.985 . S
H322 N316 0.984 . S
H323 N316 0.984 1_556 S
H324 N312 0.984 . S
H325 N312 0.985 . S
C326 C327 1.363 1_556 S
C326 C332 1.379 . S
C326 N334 1.356 . S
C327 C326 1.363 1_554 S
C327 C333 1.363 . S
C328 C329 1.363 1_554 S
C328 C333 1.379 . S
C328 N335 1.356 . S
C329 C328 1.363 1_556 S
C329 C332 1.363 . S
N330 C332 1.356 . S
N330 H342 0.984 . S
N330 H343 0.985 . S
N331 C333 1.356 . S
N331 H336 0.984 . S
N331 H337 0.985 . S
C332 C326 1.379 . S
C332 C329 1.363 . S
C332 N330 1.356 . S
C333 C327 1.363 . S
C333 C328 1.379 . S
C333 N331 1.356 . S
N334 C326 1.356 . S
N334 H340 0.984 . S
N334 H341 0.984 1_556 S
N335 C328 1.356 . S
N335 H338 0.984 1_554 S
N335 H339 0.985 . S
H336 N331 0.984 . S
H337 N331 0.985 . S
H338 N335 0.984 1_556 S
H339 N335 0.985 . S
H340 N334 0.984 . S
H341 N334 0.984 1_554 S
H342 N330 0.984 . S
H343 N330 0.985 . S
C344 C345 1.363 . S
C344 C350 1.379 . S
C344 N352 1.356 . S
C345 C344 1.363 . S
C345 C351 1.363 . S
C346 C347 1.363 . S
C346 C351 1.379 . S
C346 N353 1.356 . S
C347 C346 1.363 . S
C347 C350 1.363 . S
N348 C350 1.356 . S
N348 H360 0.984 . S
N348 H361 0.985 . S
N349 C351 1.356 . S
N349 H354 0.984 1_655 S
N349 H355 0.985 . S
C350 C344 1.379 . S
C350 C347 1.363 . S
C350 N348 1.356 . S
C351 C345 1.363 . S
C351 C346 1.379 . S
C351 N349 1.356 . S
N352 C344 1.356 . S
N352 H358 0.984 . S
N352 H359 0.984 1_655 S
N353 C346 1.356 . S
N353 H356 0.984 . S
N353 H357 0.985 . S
H354 N349 0.984 1_455 S
H355 N349 0.985 . S
H356 N353 0.984 . S
H357 N353 0.985 . S
H358 N352 0.984 . S
H359 N352 0.984 1_455 S
H360 N348 0.984 . S
H361 N348 0.985 . S
C362 C363 1.363 . S
C362 C368 1.379 . S
C362 N370 1.356 . S
C363 C362 1.363 . S
C363 C369 1.363 . S
C364 C365 1.363 . S
C364 C369 1.379 . S
C364 N371 1.356 . S
C365 C364 1.363 . S
C365 C368 1.363 . S
N366 C368 1.356 . S
N366 H378 0.984 . S
N366 H379 0.985 . S
N367 C369 1.356 1_545 S
N367 H372 0.984 . S
N367 H373 0.985 . S
C368 C362 1.379 . S
C368 C365 1.363 . S
C368 N366 1.356 . S
C369 C363 1.363 . S
C369 C364 1.379 . S
C369 N367 1.356 1_565 S
N370 C362 1.356 . S
N370 H376 0.984 . S
N370 H377 0.984 . S
N371 C364 1.356 . S
N371 H374 0.984 . S
N371 H375 0.985 . S
H372 N367 0.984 . S
H373 N367 0.985 . S
H374 N371 0.984 . S
H375 N371 0.985 . S
H376 N370 0.984 . S
H377 N370 0.984 . S
H378 N366 0.984 . S
H379 N366 0.985 . S
C380 C381 1.363 . S
C380 C386 1.379 . S
C380 N388 1.356 . S
C381 C380 1.363 . S
C381 C387 1.363 . S
C382 C383 1.363 . S
C382 C387 1.379 . S
C382 N389 1.356 1_455 S
C383 C382 1.363 . S
C383 C386 1.363 . S
N384 C386 1.356 . S
N384 H396 0.984 . S
N384 H397 0.985 . S
N385 C387 1.356 . S
N385 H390 0.984 . S
N385 H391 0.985 . S
C386 C380 1.379 . S
C386 C383 1.363 . S
C386 N384 1.356 . S
C387 C381 1.363 . S
C387 C382 1.379 . S
C387 N385 1.356 . S
N388 C380 1.356 . S
N388 H394 0.984 . S
N388 H395 0.984 . S
N389 C382 1.356 1_655 S
N389 H392 0.984 . S
N389 H393 0.985 . S
H390 N385 0.984 . S
H391 N385 0.985 . S
H392 N389 0.984 . S
H393 N389 0.985 . S
H394 N388 0.984 . S
H395 N388 0.984 . S
H396 N384 0.984 . S
H397 N384 0.985 . S
C398 C399 1.363 . S
C398 C404 1.379 . S
C398 N406 1.356 . S
C399 C398 1.363 . S
C399 C405 1.363 . S
C400 C401 1.363 . S
C400 C405 1.379 . S
C400 N407 1.356 . S
C401 C400 1.363 . S
C401 C404 1.363 . S
N402 C404 1.367 . S
N402 H414 0.987 . S
N402 H415 0.971 1_545 S
N403 C405 1.356 . S
N403 H408 0.984 . S
N403 H409 0.985 . S
C404 C398 1.379 . S
C404 C401 1.363 . S
C404 N402 1.367 . S
C405 C399 1.363 . S
C405 C400 1.379 . S
C405 N403 1.356 . S
N406 C398 1.356 . S
N406 H412 0.984 . S
N406 H413 0.984 . S
N407 C400 1.356 . S
N407 H410 0.984 1_545 S
N407 H411 0.985 . S
H408 N403 0.984 . S
H409 N403 0.985 . S
H410 N407 0.984 1_565 S
H411 N407 0.985 . S
H412 N406 0.984 . S
H413 N406 0.984 . S
H414 N402 0.987 . S
H415 N402 0.971 1_565 S
C416 C417 1.363 . S
C416 C422 1.379 . S
C416 N424 1.356 . S
C417 C416 1.363 . S
C417 C423 1.363 . S
C418 C419 1.363 . S
C418 C423 1.379 . S
C418 N425 1.356 . S
C419 C418 1.363 . S
C419 C422 1.363 . S
N420 C422 1.356 . S
N420 H432 0.984 . S
N420 H433 0.985 . S
N421 C423 1.356 . S
N421 H426 0.984 . S
N421 H427 0.985 . S
C422 C416 1.379 . S
C422 C419 1.363 . S
C422 N420 1.356 . S
C423 C417 1.363 . S
C423 C418 1.379 . S
C423 N421 1.356 . S
N424 C416 1.356 . S
N424 H430 0.984 . S
N424 H431 0.984 . S
N425 C418 1.356 . S
N425 H428 0.984 . S
N425 H429 0.985 . S
H426 N421 0.984 . S
H427 N421 0.985 . S
H428 N425 0.984 . S
H429 N425 0.985 . S
H430 N424 0.984 . S
H431 N424 0.984 . S
H432 N420 0.984 . S
H433 N420 0.985 . S
C434 C435 1.363 . S
C434 C440 1.379 . S
C434 N442 1.356 . S
C435 C434 1.363 . S
C435 C441 1.363 . S
C436 C437 1.363 . S
C436 C441 1.379 . S
C436 N443 1.356 . S
C437 C436 1.363 . S
C437 C440 1.363 . S
N438 C440 1.356 . S
N438 H450 0.984 . S
N438 H451 0.985 . S
N439 C441 1.356 . S
N439 H444 0.984 . S
N439 H445 0.985 . S
C440 C434 1.379 . S
C440 C437 1.363 . S
C440 N438 1.356 . S
C441 C435 1.363 . S
C441 C436 1.379 . S
C441 N439 1.356 . S
N442 C434 1.356 . S
N442 H448 0.984 . S
N442 H449 0.984 . S
N443 C436 1.356 . S
N443 H446 0.984 . S
N443 H447 0.985 . S
H444 N439 0.984 . S
H445 N439 0.985 . S
H446 N443 0.984 . S
H447 N443 0.985 . S
H448 N442 0.984 . S
H449 N442 0.984 . S
H450 N438 0.984 . S
H451 N438 0.985 . S
C452 C453 1.363 . S
C452 C458 1.379 . S
C452 N460 1.356 . S
C453 C452 1.363 . S
C453 C459 1.363 . S
C454 C455 1.363 . S
C454 C459 1.379 . S
C454 N461 1.356 . S
C455 C454 1.363 . S
C455 C458 1.363 . S
N456 C458 1.356 . S
N456 H468 0.984 . S
N456 H469 0.985 . S
N457 C459 1.356 . S
N457 H462 0.984 . S
N457 H463 0.985 . S
C458 C452 1.379 . S
C458 C455 1.363 . S
C458 N456 1.356 . S
C459 C453 1.363 . S
C459 C454 1.379 . S
C459 N457 1.356 . S
N460 C452 1.356 . S
N460 H466 0.984 . S
N460 H467 0.984 . S
N461 C454 1.356 . S
N461 H464 0.984 . S
N461 H465 0.985 . S
H462 N457 0.984 . S
H463 N457 0.985 . S
H464 N461 0.984 . S
H465 N461 0.985 . S
H466 N460 0.984 . S
H467 N460 0.984 . S
H468 N456 0.984 . S
H469 N456 0.985 . S
C470 C471 1.363 . S
C470 C476 1.379 . S
C470 N478 1.356 . S
C471 C470 1.363 . S
C471 C477 1.363 . S
C472 C473 1.363 . S
C472 C477 1.379 . S
C472 N479 1.356 . S
C473 C472 1.363 . S
C473 C476 1.363 . S
N474 C476 1.356 . S
N474 H486 0.984 . S
N474 H487 0.985 . S
N475 C477 1.356 . S
N475 H480 0.984 . S
N475 H481 0.985 . S
C476 C470 1.379 . S
C476 C473 1.363 . S
C476 N474 1.356 . S
C477 C471 1.363 . S
C477 C472 1.379 . S
C477 N475 1.356 . S
N478 C470 1.356 . S
N478 H484 0.984 . S
N478 H485 0.984 . S
N479 C472 1.356 . S
N479 H482 0.984 . S
N479 H483 0.985 . S
H480 N475 0.984 . S
H481 N475 0.985 . S
H482 N479 0.984 . S
H483 N479 0.985 . S
H484 N478 0.984 . S
H485 N478 0.984 . S
H486 N474 0.984 . S
H487 N474 0.985 . S
C488 C489 1.363 . S
C488 C494 1.379 . S
C488 N496 1.356 . S
C489 C488 1.363 . S
C489 C495 1.363 . S
C490 C491 1.363 . S
C490 C495 1.379 . S
C490 N497 1.356 . S
C491 C490 1.363 . S
C491 C494 1.363 . S
N492 C494 1.356 . S
N492 H504 0.984 . S
N492 H505 0.985 . S
N493 C495 1.356 . S
N493 H498 0.984 . S
N493 H499 0.985 . S
C494 C488 1.379 . S
C494 C491 1.363 . S
C494 N492 1.356 . S
C495 C489 1.363 . S
C495 C490 1.379 . S
C495 N493 1.356 . S
N496 C488 1.356 . S
N496 H502 0.984 . S
N496 H503 0.984 . S
N497 C490 1.356 . S
N497 H500 0.984 . S
N497 H501 0.985 . S
H498 N493 0.984 . S
H499 N493 0.985 . S
H500 N497 0.984 . S
H501 N497 0.985 . S
H502 N496 0.984 . S
H503 N496 0.984 . S
H504 N492 0.984 . S
H505 N492 0.985 . S
C506 C507 1.363 . S
C506 C512 1.379 . S
C506 N514 1.356 . S
C507 C506 1.363 . S
C507 C513 1.363 . S
C508 C509 1.363 . S
C508 C513 1.379 . S
C508 N515 1.356 . S
C509 C508 1.363 . S
C509 C512 1.363 . S
N510 C512 1.356 . S
N510 H522 0.984 . S
N510 H523 0.985 . S
N511 C513 1.356 . S
N511 H516 0.984 . S
N511 H517 0.985 . S
C512 C506 1.379 . S
C512 C509 1.363 . S
C512 N510 1.356 . S
C513 C507 1.363 . S
C513 C508 1.379 . S
C513 N511 1.356 . S
N514 C506 1.356 . S
N514 H520 0.984 . S
N514 H521 0.984 . S
N515 C508 1.356 . S
N515 H518 0.984 . S
N515 H519 0.985 . S
H516 N511 0.984 . S
H517 N511 0.985 . S
H518 N515 0.984 . S
H519 N515 0.985 . S
H520 N514 0.984 . S
H521 N514 0.984 . S
H522 N510 0.984 . S
H523 N510 0.985 . S
C524 C525 1.363 . S
C524 C530 1.379 . S
C524 N532 1.356 . S
C525 C524 1.363 . S
C525 C531 1.363 . S
C526 C527 1.363 . S
C526 C531 1.379 . S
C526 N533 1.356 . S
C527 C526 1.363 . S
C527 C530 1.363 . S
N528 C530 1.356 . S
N528 H540 0.984 . S
N528 H541 0.985 . S
N529 C531 1.356 . S
N529 H534 0.984 . S
N529 H535 0.985 . S
C530 C524 1.379 . S
C530 C527 1.363 . S
C530 N528 1.356 . S
C531 C525 1.363 . S
C531 C526 1.379 . S
C531 N529 1.356 . S
N532 C524 1.356 . S
N532 H538 0.984 . S
N532 H539 0.984 . S
N533 C526 1.356 . S
N533 H536 0.984 . S
N533 H537 0.985 . S
H534 N529 0.984 . S
H535 N529 0.985 . S
H536 N533 0.984 . S
H537 N533 0.985 . S
H538 N532 0.984 . S
H539 N532 0.984 . S
H540 N528 0.984 . S
H541 N528 0.985 . S
C542 C543 1.363 . S
C542 C548 1.379 . S
C542 N550 1.356 . S
C543 C542 1.363 . S
C543 C549 1.363 . S
C544 C545 1.363 . S
C544 C549 1.379 . S
C544 N551 1.356 . S
C545 C544 1.363 . S
C545 C548 1.363 . S
N546 C548 1.356 . S
N546 H558 0.984 . S
N546 H559 0.985 . S
N547 C549 1.356 . S
N547 H552 0.984 . S
N547 H553 0.985 . S
C548 C542 1.379 . S
C548 C545 1.363 . S
C548 N546 1.356 . S
C549 C543 1.363 . S
C549 C544 1.379 . S
C549 N547 1.356 . S
N550 C542 1.356 . S
N550 H556 0.984 . S
N550 H557 0.984 . S
N551 C544 1.356 . S
N551 H554 0.984 . S
N551 H555 0.985 . S
H552 N547 0.984 . S
H553 N547 0.985 . S
H554 N551 0.984 . S
H555 N551 0.985 . S
H556 N550 0.984 . S
H557 N550 0.984 . S
H558 N546 0.984 . S
H559 N546 0.985 . S
C560 C561 1.363 1_554 S
C560 C566 1.379 1_655 S
C560 N568 1.356 . S
C561 C560 1.363 1_556 S
C561 C567 1.363 . S
C562 C563 1.363 . S
C562 C567 1.379 1_455 S
C562 N569 1.356 . S
C563 C562 1.363 . S
C563 C566 1.363 1_556 S
N564 C566 1.356 . S
N564 H576 0.984 . S
N564 H577 0.985 . S
N565 C567 1.356 . S
N565 H570 0.984 . S
N565 H571 0.985 . S
C566 C560 1.379 1_455 S
C566 C563 1.363 1_554 S
C566 N564 1.356 . S
C567 C561 1.363 . S
C567 C562 1.379 1_655 S
C567 N565 1.356 . S
N568 C560 1.356 . S
N568 H574 0.984 . S
N568 H575 0.984 . S
N569 C562 1.356 . S
N569 H572 0.984 . S
N569 H573 0.985 . S
H570 N565 0.984 . S
H571 N565 0.985 . S
H572 N569 0.984 . S
H573 N569 0.985 . S
H574 N568 0.984 . S
H575 N568 0.984 . S
H576 N564 0.984 . S
H577 N564 0.985 . S
C578 C579 1.363 1_554 S
C578 C584 1.379 1_545 S
C578 N586 1.356 . S
C579 C578 1.363 1_556 S
C579 C585 1.363 . S
C580 C581 1.363 . S
C580 C585 1.379 1_565 S
C580 N587 1.356 . S
C581 C580 1.363 . S
C581 C584 1.363 1_556 S
N582 C584 1.356 . S
N582 H594 0.984 . S
N582 H595 0.985 . S
N583 C585 1.356 . S
N583 H588 0.984 . S
N583 H589 0.985 . S
C584 C578 1.379 1_565 S
C584 C581 1.363 1_554 S
C584 N582 1.356 . S
C585 C579 1.363 . S
C585 C580 1.379 1_545 S
C585 N583 1.356 . S
N586 C578 1.356 . S
N586 H592 0.984 . S
N586 H593 0.984 . S
N587 C580 1.356 . S
N587 H590 0.984 . S
N587 H591 0.985 . S
H588 N583 0.984 . S
H589 N583 0.985 . S
H590 N587 0.984 . S
H591 N587 0.985 . S
H592 N586 0.984 . S
H593 N586 0.984 . S
H594 N582 0.984 . S
H595 N582 0.985 . S
C596 C597 1.363 . S
C596 C602 1.379 . S
C596 N604 1.356 . S
C597 C596 1.363 . S
C597 C603 1.363 1_545 S
C598 C599 1.363 . S
C598 C603 1.379 . S
C598 N605 1.356 . S
C599 C598 1.363 . S
C599 C602 1.363 1_565 S
N600 C602 1.356 1_565 S
N600 H612 0.984 1_565 S
N600 H613 0.985 . S
N601 C603 1.356 1_545 S
N601 H606 0.984 . S
N601 H607 0.985 1_545 S
C602 C596 1.379 . S
C602 C599 1.363 1_545 S
C602 N600 1.356 1_545 S
C603 C597 1.363 1_565 S
C603 C598 1.379 . S
C603 N601 1.356 1_565 S
N604 C596 1.356 . S
N604 H610 0.984 . S
N604 H611 0.984 . S
N605 C598 1.356 . S
N605 H608 0.984 . S
N605 H609 0.985 . S
H606 N601 0.984 . S
H607 N601 0.985 1_565 S
H608 N605 0.984 . S
H609 N605 0.985 . S
H610 N604 0.984 . S
H611 N604 0.984 . S
H612 N600 0.984 1_545 S
H613 N600 0.985 . S
C614 C615 1.363 1_655 S
C614 C620 1.379 . S
C614 N622 1.356 1_655 S
C615 C614 1.363 1_455 S
C615 C621 1.363 . S
C616 C617 1.363 1_455 S
C616 C621 1.379 . S
C616 N623 1.356 1_455 S
C617 C616 1.363 1_655 S
C617 C620 1.363 . S
N618 C620 1.356 . S
N618 H630 0.984 . S
N618 H631 0.985 . S
N619 C621 1.356 . S
N619 H624 0.984 . S
N619 H625 0.985 . S
C620 C614 1.379 . S
C620 C617 1.363 . S
C620 N618 1.356 . S
C621 C615 1.363 . S
C621 C616 1.379 . S
C621 N619 1.356 . S
N622 C614 1.356 1_455 S
N622 H628 0.984 1_455 S
N622 H629 0.984 . S
N623 C616 1.356 1_655 S
N623 H626 0.984 . S
N623 H627 0.985 1_655 S
H624 N619 0.984 . S
H625 N619 0.985 . S
H626 N623 0.984 . S
H627 N623 0.985 1_455 S
H628 N622 0.984 1_655 S
H629 N622 0.984 . S
H630 N618 0.984 . S
H631 N618 0.985 . S
C273 C54 0.954 . S
C275 C5 0.986 . S
C291 C39 0.986 . S
C293 C88 0.954 . S
C309 C73 0.986 . S
C311 C122 0.954 . S
C327 C20 0.954 . S
C329 C107 0.986 . S
C345 C190 0.954 1_655 S
C347 C141 0.986 . S
C363 C224 0.954 1_565 S
C365 C175 0.986 . S
C381 C209 0.986 . S
C383 C258 0.954 1_455 S
C399 C243 0.986 . S
C401 C156 0.954 1_545 S
C417 C206 1.565 . S
C419 C33 1.595 . S
C435 C67 1.596 . S
C437 C240 1.564 . S
C453 C101 1.596 . S
C455 C138 1.564 . S
C471 C135 1.596 . S
C473 C172 1.564 . S
C489 C169 1.596 . S
C491 C70 1.567 . S
C507 C203 1.596 . S
C509 C104 1.567 . S
C525 C237 1.596 . S
C527 C2 1.567 . S
C543 C36 1.565 . S
C545 C271 1.597 . S
C561 C77 1.913 . S
C563 C9 1.913 . S
C579 C43 1.913 . S
C581 C111 1.913 . S
C597 C213 1.913 . S
C599 C145 1.913 . S
C615 C179 1.913 . S
C617 C247 1.913 . S
