# Generated by pormake.
# Topology snk, (6)-cn, num edge types: 1
# Building blocks:
#     Node 0, Type 0, BuildingBlock: INOVEN_clean_sbu_0, # of connection points: 6
#     Node 1, Type 0, BuildingBlock: INOVEN_clean_sbu_0, # of connection points: 6
#     Node 2, Type 0, BuildingBlock: INOVEN_clean_sbu_0, # of connection points: 6
#     Node 3, Type 0, BuildingBlock: INOVEN_clean_sbu_0, # of connection points: 6
#     Node 4, Type 0, BuildingBlock: INOVEN_clean_sbu_0, # of connection points: 6
#     Node 5, Type 0, BuildingBlock: INOVEN_clean_sbu_0, # of connection points: 6
#     Node 6, Type 0, BuildingBlock: INOVEN_clean_sbu_0, # of connection points: 6
#     Node 7, Type 0, BuildingBlock: INOVEN_clean_sbu_0, # of connection points: 6
#     Edge 8, Type (0, 0), BuildingBlock: ZUJKAS_clean_linker_0, # of connection points: 2
#     Edge 9, Type (0, 0), BuildingBlock: ZUJKAS_clean_linker_0, # of connection points: 2
#     Edge 10, Type (0, 0), BuildingBlock: ZUJKAS_clean_linker_0, # of connection points: 2
#     Edge 11, Type (0, 0), BuildingBlock: ZUJKAS_clean_linker_0, # of connection points: 2
#     Edge 12, Type (0, 0), BuildingBlock: ZUJKAS_clean_linker_0, # of connection points: 2
#     Edge 13, Type (0, 0), BuildingBlock: ZUJKAS_clean_linker_0, # of connection points: 2
#     Edge 14, Type (0, 0), BuildingBlock: ZUJKAS_clean_linker_0, # of connection points: 2
#     Edge 15, Type (0, 0), BuildingBlock: ZUJKAS_clean_linker_0, # of connection points: 2
#     Edge 16, Type (0, 0), BuildingBlock: ZUJKAS_clean_linker_0, # of connection points: 2
#     Edge 17, Type (0, 0), BuildingBlock: ZUJKAS_clean_linker_0, # of connection points: 2
#     Edge 18, Type (0, 0), BuildingBlock: ZUJKAS_clean_linker_0, # of connection points: 2
#     Edge 19, Type (0, 0), BuildingBlock: ZUJKAS_clean_linker_0, # of connection points: 2
#     Edge 20, Type (0, 0), BuildingBlock: ZUJKAS_clean_linker_0, # of connection points: 2
#     Edge 21, Type (0, 0), BuildingBlock: ZUJKAS_clean_linker_0, # of connection points: 2
#     Edge 22, Type (0, 0), BuildingBlock: ZUJKAS_clean_linker_0, # of connection points: 2
#     Edge 23, Type (0, 0), BuildingBlock: ZUJKAS_clean_linker_0, # of connection points: 2
#     Edge 24, Type (0, 0), BuildingBlock: ZUJKAS_clean_linker_0, # of connection points: 2
#     Edge 25, Type (0, 0), BuildingBlock: ZUJKAS_clean_linker_0, # of connection points: 2
#     Edge 26, Type (0, 0), BuildingBlock: ZUJKAS_clean_linker_0, # of connection points: 2
#     Edge 27, Type (0, 0), BuildingBlock: ZUJKAS_clean_linker_0, # of connection points: 2
#     Edge 28, Type (0, 0), BuildingBlock: ZUJKAS_clean_linker_0, # of connection points: 2
#     Edge 29, Type (0, 0), BuildingBlock: ZUJKAS_clean_linker_0, # of connection points: 2
#     Edge 30, Type (0, 0), BuildingBlock: ZUJKAS_clean_linker_0, # of connection points: 2
#     Edge 31, Type (0, 0), BuildingBlock: ZUJKAS_clean_linker_0, # of connection points: 2
# Relax obj value: 0.062
# Max RMSD: 0.120
# Mean RMSD: 0.109
data_MOF--net-snk--node1-INOVEN_clean_sbu_0--edge1-ZUJKAS_clean_linker_0
_symmetry_space_group_name_H-M    P1
_symmetry_Int_Tables_number       1
_symmetry_cell_setting            triclinic
loop_
_symmetry_equiv_pos_as_xyz
'x, y, z'
_cell_length_a     49.973673
_cell_length_b     50.07438
_cell_length_c     30.020022
_cell_angle_alpha  95.70123
_cell_angle_beta   95.895659
_cell_angle_gamma 90.612305
loop_
_atom_site_label
_atom_site_type_symbol
_atom_site_fract_x
_atom_site_fract_y
_atom_site_fract_z
_atom_type_partial_charge
Gd0 Gd 0.99748 0.9944 0.46869 0.0
Gd1 Gd 0.02075 0.0165 0.564 0.0
C2 C 0.04773 0.03813 0.48262 0.0
C3 C 0.97596 0.98829 0.38591 0.0
C4 C 0.98189 0.99295 0.34022 0.0
C5 C 0.0084 0.99475 0.32902 0.0
C6 C 0.96044 0.9949 0.30688 0.0
C7 C 0.99177 0.99949 0.25088 0.0
C8 C 0.96529 0.99815 0.26269 0.0
C9 C 0.0133 0.99791 0.28466 0.0
C10 C 0.03562 0.96445 0.50845 0.0
C11 C 0.97044 0.97283 0.54996 0.0
C12 C 0.04226 0.02252 0.64678 0.0
C13 C 0.03636 0.01758 0.69236 0.0
C14 C 0.00986 0.01568 0.70355 0.0
C15 C 0.05782 0.0155 0.72564 0.0
C16 C 0.02652 0.01063 0.78157 0.0
C17 C 0.05299 0.01205 0.76976 0.0
C18 C 1.00498 0.01231 0.74784 0.0
C19 C 0.98241 0.04634 0.52433 0.0
O20 O 0.02732 0.02651 0.45566 0.0
O21 O 0.05158 0.03435 0.52578 0.0
O22 O 0.98968 0.96969 0.40522 0.0
O23 O 0.97257 0.00958 0.41357 0.0
O24 O 0.01514 0.95432 0.48184 0.0
O25 O 0.03582 0.98969 0.51041 0.0
O26 O 0.99095 0.98427 0.57693 0.0
O27 O 0.96654 0.97683 0.50691 0.0
O28 O 0.02836 0.04105 0.62764 0.0
O29 O 0.04587 1.00137 0.61893 0.0
O30 O 1.00284 0.05654 0.55101 0.0
O31 O 0.98239 0.02111 0.52241 0.0
H32 H 0.02525 0.99346 0.35442 0.0
H33 H 0.93985 0.99352 0.31489 0.0
H34 H 0.94824 0.99895 0.23751 0.0
H35 H 0.03392 0.99919 0.27684 0.0
H36 H 0.99299 0.01705 0.6782 0.0
H37 H 0.07841 0.01696 0.71763 0.0
H38 H 0.07004 0.01117 0.7949 0.0
H39 H 0.98436 0.01096 0.75566 0.0
Gd40 Gd 0.25977 0.73978 0.72355 0.0
Gd41 Gd 0.25076 0.76764 0.81785 0.0
C42 C 0.22188 0.79262 0.73251 0.0
C43 C 0.25421 0.71603 0.64237 0.0
C44 C 0.25199 0.7232 0.5957 0.0
C45 C 0.26398 0.74686 0.58481 0.0
C46 C 0.23858 0.70555 0.56123 0.0
C47 C 0.25035 0.73436 0.50498 0.0
C48 C 0.23773 0.71106 0.51631 0.0
C49 C 0.26323 0.75235 0.53986 0.0
C50 C 0.29596 0.77862 0.75761 0.0
C51 C 0.28897 0.71501 0.80873 0.0
C52 C 0.25582 0.79128 0.89911 0.0
C53 C 0.25799 0.78406 0.94575 0.0
C54 C 0.24654 0.76007 0.95639 0.0
C55 C 0.27073 0.80202 0.98045 0.0
C56 C 0.25947 0.77276 0.03637 0.0
C57 C 0.27152 0.79643 0.02531 0.0
C58 C 0.2472 0.75451 1.0013 0.0
C59 C 0.21468 0.72868 0.78346 0.0
O60 O 0.22766 0.77025 0.70821 0.0
O61 O 0.23246 0.79827 0.77473 0.0
O62 O 0.27753 0.72097 0.66604 0.0
O63 O 0.23382 0.7219 0.66544 0.0
O64 O 0.30181 0.75801 0.73102 0.0
O65 O 0.27119 0.77888 0.76113 0.0
O66 O 0.28309 0.73733 0.83312 0.0
O67 O 0.27828 0.70929 0.76661 0.0
O68 O 0.23261 0.78606 0.87523 0.0
O69 O 0.27636 0.78575 0.87622 0.0
O70 O 0.20864 0.74941 0.8096 0.0
O71 O 0.23948 0.72859 0.78037 0.0
H72 H 0.27426 0.76088 0.61098 0.0
H73 H 0.22918 0.6872 0.56898 0.0
H74 H 0.22785 0.69666 0.49036 0.0
H75 H 0.27279 0.77067 0.5324 0.0
H76 H 0.23675 0.74584 0.93005 0.0
H77 H 0.27965 0.82065 0.9729 0.0
H78 H 0.2809 0.81103 0.05143 0.0
H79 H 0.23807 0.73594 1.00859 0.0
Gd80 Gd 0.51985 1.00346 0.05147 0.0
Gd81 Gd 0.49184 0.01238 0.95685 0.0
C82 C 0.4666 0.04094 0.0421 0.0
C83 C 0.54376 0.00895 0.13267 0.0
C84 C 0.53679 0.01108 0.1794 0.0
C85 C 0.51277 0.99977 0.1903 0.0
C86 C 0.55502 0.02364 0.21392 0.0
C87 C 0.526 0.01245 0.2702 0.0
C88 C 0.54968 0.02437 0.25887 0.0
C89 C 0.50746 1.00038 0.23531 0.0
C90 C 0.48151 0.96692 0.01685 0.0
C91 C 0.5453 0.97518 0.96648 0.0
C92 C 0.46808 0.00673 0.87553 0.0
C93 C 0.47533 1.00431 0.82896 0.0
C94 C 0.49949 0.01546 0.81834 0.0
C95 C 0.45722 0.99173 0.79429 0.0
C96 C 0.48662 1.00265 0.73838 0.0
C97 C 0.4628 0.99085 0.74945 0.0
C98 C 0.50505 0.01472 0.77344 0.0
C99 C 0.53022 0.04893 0.99131 0.0
O100 O 0.48849 0.03441 0.06717 0.0
O101 O 0.46136 0.03142 0.99931 0.0
O102 O 0.53875 0.98569 0.10909 0.0
O103 O 0.53777 0.02932 0.10957 0.0
O104 O 0.50231 0.96126 0.04348 0.0
O105 O 0.48084 0.99167 1.01344 0.0
O106 O 0.52294 0.98089 0.94176 0.0
O107 O 0.55073 0.98561 1.00876 0.0
O108 O 0.47324 0.03002 0.89889 0.0
O109 O 0.47371 0.98643 0.89898 0.0
O110 O 0.5096 0.0545 0.96426 0.0
O111 O 0.53076 0.0242 0.99485 0.0
H112 H 0.49833 0.99012 0.16408 0.0
H113 H 0.57367 0.03246 0.20617 0.0
H114 H 0.56451 0.0336 0.28485 0.0
H115 H 0.48886 0.99135 0.24279 0.0
H116 H 0.51385 0.02513 0.84467 0.0
H117 H 0.43845 0.98304 0.80183 0.0
H118 H 0.44805 0.98164 0.72333 0.0
H119 H 0.52374 0.02364 0.76616 0.0
Gd120 Gd 0.2695 0.2676 0.31169 0.0
Gd121 Gd 0.24536 0.24525 0.21787 0.0
C122 C 0.22631 0.21712 0.29982 0.0
C123 C 0.27874 0.28762 0.39489 0.0
C124 C 0.27554 0.28142 0.44114 0.0
C125 C 0.29686 0.28767 0.47482 0.0
C126 C 0.25156 0.27029 0.45265 0.0
C127 C 0.2701 0.27277 0.53151 0.0
C128 C 0.24887 0.26601 0.49745 0.0
C129 C 0.29423 0.28335 0.51944 0.0
C130 C 0.2991 0.23081 0.2683 0.0
C131 C 0.28852 0.29586 0.23007 0.0
C132 C 0.23667 0.22491 0.13476 0.0
C133 C 0.23988 0.23105 0.08848 0.0
C134 C 0.21857 0.22479 0.0548 0.0
C135 C 0.26389 0.2421 0.07691 0.0
C136 C 0.24536 0.23953 0.99804 0.0
C137 C 0.2666 0.24629 0.03208 0.0
C138 C 0.22122 0.22902 1.01015 0.0
C139 C 0.21573 0.28233 0.26075 0.0
O140 O 0.23796 0.2376 0.32639 0.0
O141 O 0.22943 0.21358 0.25645 0.0
O142 O 0.2963 0.27362 0.37359 0.0
O143 O 0.25694 0.29228 0.36892 0.0
O144 O 0.30941 0.25167 0.29351 0.0
O145 O 0.27396 0.22974 0.26883 0.0
O146 O 0.27697 0.27534 0.20338 0.0
O147 O 0.28516 0.29942 0.27333 0.0
O148 O 0.21881 0.23865 0.15575 0.0
O149 O 0.25848 0.22066 0.161 0.0
O150 O 0.20541 0.26175 0.23478 0.0
O151 O 0.24091 0.28315 0.26065 0.0
H152 H 0.31557 0.29617 0.46665 0.0
H153 H 0.23481 0.26524 0.42722 0.0
H154 H 0.22994 0.25801 0.50553 0.0
H155 H 0.31118 0.28829 0.5445 0.0
H156 H 0.19984 0.21634 0.063 0.0
H157 H 0.28066 0.24715 0.10232 0.0
H158 H 0.28554 0.25424 0.02397 0.0
H159 H 0.20426 0.22408 0.9851 0.0
Gd160 Gd 0.76217 0.24333 0.22583 0.0
Gd161 Gd 0.74714 0.26598 0.32024 0.0
C162 C 0.7239 0.29445 0.23481 0.0
C163 C 0.76691 0.21638 0.14914 0.0
C164 C 0.76789 0.22163 0.10199 0.0
C165 C 0.76955 0.24792 0.08996 0.0
C166 C 0.76681 0.2 0.06845 0.0
C167 C 0.76912 0.23079 1.01088 0.0
C168 C 0.76742 0.2045 0.02333 0.0
C169 C 0.77022 0.25247 0.04478 0.0
C170 C 0.78937 0.28832 0.26174 0.0
C171 C 0.78756 0.21554 0.31304 0.0
C172 C 0.74322 0.28297 0.40361 0.0
C173 C 0.75427 0.27858 0.44975 0.0
C174 C 0.7601 0.25269 0.46174 0.0
C175 C 0.7561 0.30023 0.48339 0.0
C176 C 0.76671 0.26988 0.54106 0.0
C177 C 0.76234 0.29597 0.52861 0.0
C178 C 0.76619 0.24838 0.50699 0.0
C179 C 0.71053 0.23331 0.26911 0.0
O180 O 0.72893 0.27204 0.20991 0.0
O181 O 0.73311 0.2988 0.27798 0.0
O182 O 0.78757 0.22518 0.17751 0.0
O183 O 0.74373 0.22046 0.16531 0.0
O184 O 0.78428 0.2819 0.21877 0.0
O185 O 0.78252 0.2694 0.2831 0.0
O186 O 0.77609 0.2338 0.33941 0.0
O187 O 0.78412 0.21453 0.26862 0.0
O188 O 0.72853 0.2633 0.38126 0.0
O189 O 0.75875 0.2948 0.37858 0.0
O190 O 0.70414 0.25443 0.294 0.0
O191 O 0.73553 0.23035 0.27326 0.0
H192 H 0.77021 0.26489 0.11547 0.0
H193 H 0.76551 0.17957 0.07716 0.0
H194 H 0.76689 0.18734 0.99825 0.0
H195 H 0.77121 0.27296 0.03634 0.0
H196 H 0.75894 0.23564 0.43634 0.0
H197 H 0.75156 0.32034 0.47488 0.0
H198 H 0.76239 0.31294 0.55397 0.0
H199 H 0.76987 0.22811 0.51542 0.0
Gd200 Gd 0.7687 0.7681 0.81273 0.0
Gd201 Gd 0.74646 0.74475 0.7176 0.0
C202 C 0.72537 0.71753 0.79911 0.0
C203 C 0.77453 0.7895 0.89542 0.0
C204 C 0.76974 0.78332 0.94097 0.0
C205 C 0.77135 0.75706 0.95356 0.0
C206 C 0.76427 0.80437 0.97289 0.0
C207 C 0.76314 0.77331 0.03025 0.0
C208 C 0.76097 0.79945 0.01704 0.0
C209 C 0.76817 0.75212 0.99788 0.0
C210 C 0.7989 0.73024 0.77331 0.0
C211 C 0.79001 0.79518 0.73132 0.0
C212 C 0.74037 0.72352 0.6348 0.0
C213 C 0.74503 0.72974 0.58922 0.0
C214 C 0.74337 0.75601 0.57669 0.0
C215 C 0.75046 0.70872 0.55723 0.0
C216 C 0.7515 0.73983 0.49993 0.0
C217 C 0.7537 0.71368 0.51307 0.0
C218 C 0.74648 0.76099 0.53236 0.0
C219 C 0.71643 0.78276 0.75719 0.0
O220 O 0.73681 0.73804 0.82591 0.0
O221 O 0.72914 0.71372 0.756 0.0
O222 O 0.79337 0.77612 0.87631 0.0
O223 O 0.75322 0.79286 0.8675 0.0
O224 O 0.80896 0.75069 0.79992 0.0
O225 O 0.7736 0.72989 0.77126 0.0
O226 O 0.7785 0.77471 0.70447 0.0
O227 O 0.78616 0.79903 0.77439 0.0
O228 O 0.72162 0.7369 0.65415 0.0
O229 O 0.76174 0.72009 0.66253 0.0
O230 O 0.70624 0.76226 0.73082 0.0
O231 O 0.7417 0.78299 0.75891 0.0
H232 H 0.77534 0.74046 0.92931 0.0
H233 H 0.76297 0.82477 0.96381 0.0
H234 H 0.75741 0.81627 0.04115 0.0
H235 H 0.76962 0.73171 1.0068 0.0
H236 H 0.7394 0.77259 0.601 0.0
H237 H 0.7518 0.68831 0.56625 0.0
H238 H 0.75723 0.69688 0.48891 0.0
H239 H 0.745 0.78141 0.52349 0.0
Gd240 Gd 0.49792 0.49394 0.96985 0.0
Gd241 Gd 0.52072 0.51707 0.06478 0.0
C242 C 0.54776 0.53805 0.98294 0.0
C243 C 0.47668 0.48692 0.88701 0.0
C244 C 0.48232 0.49169 0.8412 0.0
C245 C 0.50845 0.49031 0.82793 0.0
C246 C 0.46081 0.49679 0.80966 0.0
C247 C 0.49112 0.49764 0.75115 0.0
C248 C 0.46513 0.49979 0.76515 0.0
C249 C 0.51281 0.49322 0.78327 0.0
C250 C 0.53614 0.46467 1.01108 0.0
C251 C 0.47048 0.47324 0.05137 0.0
C252 C 0.54208 0.52397 0.14756 0.0
C253 C 0.53642 0.51942 0.19345 0.0
C254 C 0.51032 0.5211 0.20677 0.0
C255 C 0.55789 0.51424 0.22501 0.0
C256 C 0.5276 0.51387 0.28362 0.0
C257 C 0.55356 0.51144 0.26958 0.0
C258 C 0.50595 0.51838 0.25149 0.0
C259 C 0.4826 0.54643 0.02356 0.0
O260 O 0.52747 0.52612 0.95612 0.0
O261 O 0.55156 0.53465 0.02625 0.0
O262 O 0.49103 0.46886 0.90667 0.0
O263 O 0.47242 0.50809 0.9144 0.0
O264 O 0.51573 0.45415 0.9847 0.0
O265 O 0.53616 0.48987 1.01215 0.0
O266 O 0.49076 0.48509 0.07842 0.0
O267 O 0.46691 0.47663 1.00807 0.0
O268 O 0.528 0.5422 0.12787 0.0
O269 O 0.546 0.50267 0.12024 0.0
O270 O 0.50294 0.55691 0.05015 0.0
O271 O 0.48253 0.52123 0.02253 0.0
H272 H 0.52539 0.48651 0.85184 0.0
H273 H 0.44052 0.49812 0.81934 0.0
H274 H 0.44805 0.50374 0.74167 0.0
H275 H 0.53305 0.4913 0.77366 0.0
H276 H 0.49341 0.52497 0.18285 0.0
H277 H 0.57816 0.51268 0.21529 0.0
H278 H 0.57061 0.50741 0.29307 0.0
H279 H 0.48573 0.52052 0.26113 0.0
Gd280 Gd 0.02111 0.50526 0.55315 0.0
Gd281 Gd 0.9932 0.51579 0.45927 0.0
C282 C 0.96893 0.54421 0.5455 0.0
C283 C 0.04504 0.509 0.63434 0.0
C284 C 0.03831 0.51135 0.68122 0.0
C285 C 0.01352 0.50189 0.69221 0.0
C286 C 0.05753 0.52216 0.71575 0.0
C287 C 0.02794 0.51265 0.77225 0.0
C288 C 0.05242 0.52282 0.76079 0.0
C289 C 0.00838 0.50252 0.73732 0.0
C290 C 0.98175 0.47005 0.51723 0.0
C291 C 0.04577 0.47719 0.46739 0.0
C292 C 0.96889 0.51142 0.37833 0.0
C293 C 0.97537 0.50822 0.33132 0.0
C294 C 1.00018 0.51717 0.31958 0.0
C295 C 0.95591 0.49717 0.29738 0.0
C296 C 0.98528 0.50548 0.23992 0.0
C297 C 0.96079 0.49579 0.25215 0.0
C298 C 1.00508 0.51583 0.2743 0.0
C299 C 0.03256 0.55111 0.49481 0.0
O300 O 0.99114 0.53755 0.56963 0.0
O301 O 0.96308 0.53447 0.50292 0.0
O302 O 0.03865 0.48614 0.61032 0.0
O303 O 0.04028 0.52982 0.61178 0.0
O304 O 1.00263 0.46335 0.54267 0.0
O305 O 0.98179 0.49492 0.5153 0.0
O306 O 0.02348 0.48355 0.44304 0.0
O307 O 0.05154 0.4873 0.50977 0.0
O308 O 0.97583 0.53443 0.40147 0.0
O309 O 0.9733 0.49087 0.40168 0.0
O310 O 0.01184 0.55765 0.46879 0.0
O311 O 0.03245 0.52626 0.49713 0.0
H312 H 0.99836 0.49353 0.66599 0.0
H313 H 0.07672 0.52972 0.7079 0.0
H314 H 0.06773 0.53125 0.78668 0.0
H315 H 0.98939 0.49435 0.74484 0.0
H316 H 0.01552 0.52571 0.34533 0.0
H317 H 0.93671 0.49 0.30582 0.0
H318 H 0.9453 0.48722 0.22673 0.0
H319 H 0.02408 0.52366 0.26618 0.0
H320 H 0.08739 0.07143 0.52835 0.0
H321 H 0.11786 0.10145 0.49715 0.0
H322 H 0.08267 0.07404 0.36296 0.0
H323 H 0.05165 0.04451 0.39387 0.0
H324 H 0.15605 0.09165 0.44078 0.0
H325 H 0.07739 0.15405 0.36131 0.0
H326 H 0.07012 0.13051 0.40043 0.0
H327 H 0.07309 0.11901 0.34243 0.0
C328 C 0.08608 0.07179 0.49218 0.0
C329 C 0.0669 0.05568 0.46367 0.0
C330 C 0.10354 0.08899 0.47439 0.0
C331 C 0.10225 0.09045 0.42774 0.0
C332 C 0.08359 0.07387 0.39912 0.0
H333 H 0.19433 0.17622 0.2549 0.0
H334 H 0.16511 0.14521 0.28668 0.0
C335 C 0.06595 0.05683 0.41689 0.0
C336 C 0.12067 0.10904 0.4091 0.0
H337 H 0.12199 0.16064 0.34275 0.0
C338 C 0.14858 0.10683 0.41956 0.0
C339 C 0.11095 0.12894 0.38148 0.0
C340 C 0.08126 0.1335 0.37109 0.0
C341 C 0.16697 0.1236 0.40252 0.0
C342 C 0.15723 0.14321 0.37451 0.0
C343 C 0.12938 0.14548 0.36407 0.0
C344 C 0.1756 0.16163 0.35571 0.0
C345 C 0.19673 0.11995 0.41392 0.0
C346 C 0.19109 0.18126 0.38401 0.0
C347 C 0.20775 0.19914 0.36597 0.0
C348 C 0.20928 0.19768 0.31922 0.0
C349 C 0.19379 0.17787 0.29104 0.0
C350 C 0.17701 0.16014 0.30911 0.0
H351 H 0.20104 0.10066 0.42831 0.0
H352 H 0.20757 0.12065 0.38354 0.0
H353 H 0.20482 0.13656 0.4391 0.0
H354 H 0.19002 0.18298 0.42004 0.0
H355 H 0.21931 0.21417 0.38869 0.0
H356 H 0.03325 0.91092 0.51668 0.0
H357 H 0.06611 0.88434 0.55847 0.0
H358 H 0.11589 0.95529 0.59832 0.0
H359 H 0.08309 0.98203 0.55626 0.0
H360 H 0.14377 0.90901 0.56394 0.0
H361 H 0.08046 0.88633 0.69752 0.0
H362 H 0.06448 0.87909 0.64112 0.0
H363 H 0.07323 0.9132 0.66245 0.0
C364 C 0.05119 0.92086 0.5344 0.0
C365 C 0.0556 0.94853 0.53345 0.0
C366 C 0.06984 0.90569 0.55846 0.0
C367 C 0.09322 0.91793 0.58197 0.0
C368 C 0.09786 0.94552 0.58062 0.0
H369 H 0.20311 0.83958 0.77175 0.0
H370 H 0.17316 0.8715 0.73619 0.0
C371 C 0.07913 0.96075 0.5567 0.0
C372 C 0.11312 0.90168 0.60692 0.0
H373 H 0.12054 0.86138 0.69252 0.0
C374 C 0.13879 0.89874 0.59226 0.0
C375 C 0.10665 0.8886 0.64419 0.0
C376 C 0.0798 0.89209 0.66263 0.0
C377 C 0.15791 0.88232 0.61299 0.0
C378 C 0.15103 0.86829 0.649 0.0
C379 C 0.12567 0.87195 0.66462 0.0
C380 C 0.16965 0.84925 0.67024 0.0
C381 C 0.18533 0.88014 0.59626 0.0
C382 C 0.17737 0.82603 0.64503 0.0
C383 C 0.19441 0.80772 0.6652 0.0
C384 C 0.20404 0.81224 0.7111 0.0
C385 C 0.19618 0.83551 0.73631 0.0
C386 C 0.17904 0.85377 0.71609 0.0
H387 H 0.1898 0.8972 0.57701 0.0
H388 H 0.20132 0.87946 0.62468 0.0
H389 H 0.18603 0.86131 0.57357 0.0
H390 H 0.16994 0.8219 0.60979 0.0
H391 H 0.19993 0.78998 0.64477 0.0
H392 H 0.28537 0.823 0.81197 0.0
H393 H 0.31794 0.85474 0.8556 0.0
H394 H 0.38306 0.81021 0.80255 0.0
H395 H 0.3505 0.77829 0.75872 0.0
H396 H 0.36036 0.84133 0.92125 0.0
H397 H 0.39763 0.88954 0.77952 0.0
H398 H 0.36636 0.87046 0.77361 0.0
H399 H 0.39782 0.85345 0.77465 0.0
C400 C 0.30662 0.82006 0.80947 0.0
C401 C 0.31552 0.79827 0.78211 0.0
C402 C 0.32515 0.83815 0.83437 0.0
C403 C 0.35278 0.83484 0.8319 0.0
C404 C 0.36174 0.81322 0.80432 0.0
H405 H 0.48318 0.91252 0.01484 0.0
H406 H 0.45184 0.8796 0.97061 0.0
C407 C 0.3432 0.79503 0.77947 0.0
C408 C 0.37218 0.85368 0.8593 0.0
H409 H 0.41943 0.90229 0.85236 0.0
C410 C 0.37334 0.85465 0.90631 0.0
C411 C 0.3888 0.87108 0.83942 0.0
C412 C 0.38756 0.87135 0.78904 0.0
C413 C 0.39087 0.87265 0.93418 0.0
C414 C 0.40774 0.88981 0.9143 0.0
C415 C 0.40652 0.8889 0.86729 0.0
C416 C 0.42631 0.90944 0.94175 0.0
C417 C 0.39086 0.87357 0.98457 0.0
C418 C 0.4223 0.93697 0.93967 0.0
C419 C 0.44006 0.95571 0.96483 0.0
C420 C 0.46221 0.94714 0.99202 0.0
C421 C 0.46615 0.91957 0.99423 0.0
C422 C 0.4483 0.90081 0.96914 0.0
H423 H 0.37293 0.86306 0.99412 0.0
H424 H 0.40911 0.86366 0.99877 0.0
H425 H 0.39136 0.89466 1.00016 0.0
H426 H 0.40541 0.94392 0.9186 0.0
H427 H 0.43658 0.97688 0.96268 0.0
H428 H 0.43357 0.07649 1.00178 0.0
H429 H 0.40441 0.1091 0.03802 0.0
H430 H 0.42571 0.07759 0.16536 0.0
H431 H 0.45613 0.0462 0.12978 0.0
H432 H 0.36193 0.10686 0.07876 0.0
H433 H 0.44194 0.15415 0.20318 0.0
H434 H 0.44919 0.12988 0.15784 0.0
H435 H 0.43856 0.11906 0.20893 0.0
C436 C 0.432 0.07658 0.03752 0.0
C437 C 0.44733 0.05908 0.06311 0.0
C438 C 0.41533 0.09522 0.05823 0.0
C439 C 0.41336 0.09639 0.10478 0.0
C440 C 0.42765 0.07789 0.12983 0.0
H441 H 0.28529 0.179 0.23704 0.0
H442 H 0.31242 0.14644 0.19609 0.0
C443 C 0.44485 0.05977 0.10939 0.0
C444 C 0.3964 0.11692 0.12702 0.0
H445 H 0.39684 0.1646 0.21666 0.0
C446 C 0.36965 0.11965 0.10871 0.0
C447 C 0.40653 0.13412 0.16556 0.0
C448 C 0.4357 0.13438 0.18467 0.0
C449 C 0.35269 0.13869 0.12817 0.0
C450 C 0.36235 0.15469 0.16833 0.0
C451 C 0.3892 0.15218 0.18624 0.0
C452 C 0.3453 0.17444 0.19222 0.0
C453 C 0.32492 0.14189 0.10458 0.0
C454 C 0.35501 0.20082 0.20526 0.0
C455 C 0.33995 0.21909 0.23008 0.0
C456 C 0.31468 0.2115 0.24168 0.0
C457 C 0.30467 0.18534 0.22814 0.0
C458 C 0.32006 0.16683 0.2043 0.0
H459 H 0.32417 0.13545 0.06796 0.0
H460 H 0.31039 0.12901 0.1187 0.0
H461 H 0.31836 0.16302 0.10893 0.0
H462 H 0.37437 0.20728 0.19646 0.0
H463 H 0.34802 0.23922 0.23994 0.0
H464 H 0.96732 0.96496 0.63846 0.0
H465 H 0.93596 0.93528 0.66875 0.0
H466 H 0.89867 0.91135 0.53462 0.0
H467 H 0.9298 0.94095 0.50392 0.0
H468 H 0.87607 0.93547 0.65499 0.0
H469 H 0.92041 0.83973 0.59018 0.0
H470 H 0.93875 0.8714 0.59653 0.0
H471 H 0.91322 0.86388 0.55026 0.0
C472 C 0.95246 0.9534 0.61533 0.0
C473 C 0.95115 0.95531 0.56868 0.0
C474 C 0.93454 0.93649 0.63275 0.0
C475 C 0.91521 0.92094 0.60388 0.0
C476 C 0.91366 0.92296 0.55742 0.0
H477 H 0.79722 0.79858 0.6427 0.0
H478 H 0.82658 0.82995 0.612 0.0
C479 C 0.93142 0.94 0.53998 0.0
C480 C 0.89653 0.90268 0.6223 0.0
H481 H 0.88047 0.83645 0.62515 0.0
C482 C 0.87703 0.91381 0.64864 0.0
C483 C 0.89777 0.87447 0.61366 0.0
C484 C 0.91875 0.86151 0.58639 0.0
C485 C 0.85841 0.89747 0.66605 0.0
C486 C 0.85982 0.86918 0.65788 0.0
C487 C 0.87936 0.8581 0.63143 0.0
C488 C 0.84141 0.85067 0.67669 0.0
C489 C 0.83699 0.91073 0.692 0.0
C490 C 0.8401 0.85166 0.72333 0.0
C491 C 0.82316 0.8339 0.74098 0.0
C492 C 0.80744 0.81446 0.71241 0.0
C493 C 0.80899 0.81331 0.66572 0.0
C494 C 0.8258 0.83123 0.64808 0.0
H495 H 0.83355 0.93161 0.68355 0.0
H496 H 0.81762 0.89926 0.68517 0.0
H497 H 0.84358 0.91166 0.72857 0.0
H498 H 0.85247 0.86595 0.74624 0.0
H499 H 0.82272 0.83519 0.77713 0.0
H500 H 0.93569 0.02801 0.47486 0.0
H501 H 0.90143 0.05465 0.43598 0.0
H502 H 0.94746 0.12701 0.48409 0.0
H503 H 0.98194 0.10048 0.52223 0.0
H504 H 0.87038 0.09585 0.47157 0.0
H505 H 0.93407 0.13238 0.34861 0.0
H506 H 0.94355 0.10484 0.38101 0.0
H507 H 0.94855 0.13892 0.40596 0.0
C508 C 0.93856 0.04958 0.47682 0.0
C509 C 0.96155 0.06219 0.5012 0.0
C510 C 0.91896 0.06477 0.45475 0.0
C511 C 0.92211 0.09277 0.45657 0.0
C512 C 0.9449 0.10539 0.48146 0.0
H513 H 0.80312 0.21296 0.40282 0.0
H514 H 0.83449 0.1818 0.43671 0.0
C515 C 0.96448 0.09023 0.50346 0.0
C516 C 0.90134 0.10892 0.4333 0.0
H517 H 0.89219 0.15398 0.35515 0.0
C518 C 0.87507 0.10844 0.4459 0.0
C519 C 0.90741 0.12501 0.39935 0.0
C520 C 0.93485 0.12518 0.38255 0.0
C521 C 0.85487 0.12421 0.42635 0.0
C522 C 0.86128 0.14124 0.39388 0.0
C523 C 0.88737 0.14114 0.3804 0.0
C524 C 0.84132 0.15946 0.37353 0.0
C525 C 0.82682 0.12229 0.44031 0.0
C526 C 0.83505 0.15758 0.32667 0.0
C527 C 0.81728 0.1755 0.3071 0.0
C528 C 0.80548 0.19579 0.33402 0.0
C529 C 0.81166 0.1975 0.38104 0.0
C530 C 0.8295 0.17958 0.40055 0.0
H531 H 0.82343 0.10321 0.45512 0.0
H532 H 0.82393 0.13912 0.46621 0.0
H533 H 0.81141 0.12365 0.41127 0.0
H534 H 0.84403 0.14227 0.30516 0.0
H535 H 0.81303 0.17356 0.2708 0.0
H536 H 0.65661 0.23966 0.25134 0.0
H537 H 0.62479 0.20955 0.20186 0.0
H538 H 0.6897 0.15716 0.17059 0.0
H539 H 0.7215 0.1869 0.2203 0.0
H540 H 0.65191 0.17324 0.09364 0.0
H541 H 0.60334 0.13112 0.23118 0.0
H542 H 0.60708 0.16708 0.23401 0.0
H543 H 0.6364 0.14691 0.24028 0.0
C544 C 0.66401 0.22169 0.23391 0.0
C545 C 0.69142 0.21554 0.23937 0.0
C546 C 0.64589 0.20459 0.2058 0.0
C547 C 0.65503 0.18124 0.18294 0.0
C548 C 0.68241 0.17519 0.18805 0.0
H549 H 0.57447 0.03928 0.04739 0.0
H550 H 0.60483 0.07255 0.09266 0.0
C551 C 0.70048 0.19216 0.21632 0.0
C552 C 0.63607 0.16284 0.15383 0.0
H553 H 0.58643 0.11602 0.15661 0.0
C554 C 0.63746 0.1608 0.10721 0.0
C555 C 0.61756 0.14661 0.17207 0.0
C556 C 0.61595 0.14777 0.22214 0.0
C557 C 0.62064 0.14275 0.07811 0.0
C558 C 0.60209 0.12657 0.09635 0.0
C559 C 0.60069 0.12864 0.14297 0.0
C560 C 0.58436 0.10678 0.06771 0.0
C561 C 0.62313 0.14065 0.02823 0.0
C562 C 0.56296 0.11522 0.03889 0.0
C563 C 0.54552 0.09631 1.01329 0.0
C564 C 0.54933 0.0688 0.01634 0.0
C565 C 0.57106 0.06041 0.04468 0.0
C566 C 0.58837 0.07931 0.07045 0.0
H567 H 0.64134 0.15144 0.02038 0.0
H568 H 0.62392 0.11927 0.01451 0.0
H569 H 0.60517 0.14945 1.01079 0.0
H570 H 0.5595 0.13641 0.03683 0.0
H571 H 0.52884 0.10322 0.9917 0.0
H572 H 0.73441 0.83031 0.80369 0.0
H573 H 0.70763 0.8643 0.84263 0.0
H574 H 0.63591 0.81564 0.80198 0.0
H575 H 0.66253 0.7816 0.76327 0.0
H576 H 0.66229 0.89237 0.80425 0.0
H577 H 0.63608 0.83255 0.94034 0.0
H578 H 0.66346 0.82411 0.90698 0.0
H579 H 0.62936 0.81576 0.88448 0.0
C580 C 0.71295 0.82685 0.8033 0.0
C581 C 0.70052 0.80331 0.78069 0.0
C582 C 0.6977 0.84626 0.82544 0.0
C583 C 0.66987 0.8423 0.82562 0.0
C584 C 0.65743 0.81887 0.80283 0.0
H585 H 0.54321 0.95293 0.87902 0.0
H586 H 0.57494 0.92201 0.84587 0.0
C587 C 0.67263 0.79953 0.78055 0.0
C588 C 0.65361 0.86293 0.84865 0.0
H589 H 0.61224 0.87296 0.93222 0.0
C590 C 0.65147 0.88823 0.83242 0.0
C591 C 0.63981 0.85754 0.88571 0.0
C592 C 0.64241 0.83111 0.90578 0.0
C593 C 0.6352 0.90806 0.85145 0.0
C594 C 0.62051 0.90227 0.88732 0.0
C595 C 0.62332 0.87725 0.90443 0.0
C596 C 0.60178 0.92174 0.90714 0.0
C597 C 0.63392 0.93506 0.83317 0.0
C598 C 0.60614 0.93154 0.95277 0.0
C599 C 0.58801 0.9492 0.97191 0.0
C600 C 0.56502 0.9572 0.94584 0.0
C601 C 0.56074 0.9473 0.90008 0.0
C602 C 0.57893 0.92972 0.88096 0.0
H603 H 0.65134 0.93864 0.81415 0.0
H604 H 0.61527 0.93587 0.80989 0.0
H605 H 0.63343 0.95151 0.86075 0.0
H606 H 0.62359 0.92549 0.9736 0.0
H607 H 0.5919 0.95633 1.00728 0.0
H608 H 0.58728 0.57174 0.02814 0.0
H609 H 0.61749 0.60177 0.9964 0.0
H610 H 0.58227 0.57359 0.86257 0.0
H611 H 0.55152 0.54403 0.894 0.0
H612 H 0.65563 0.59187 0.93978 0.0
H613 H 0.5764 0.65357 0.8601 0.0
H614 H 0.5694 0.63018 0.89961 0.0
H615 H 0.57229 0.61844 0.84169 0.0
C616 C 0.58591 0.57193 0.99194 0.0
C617 C 0.5668 0.55558 0.96368 0.0
C618 C 0.60322 0.58913 0.97383 0.0
C619 C 0.60183 0.59038 0.92712 0.0
C620 C 0.58325 0.57358 0.89876 0.0
H621 H 0.6933 0.6768 0.75378 0.0
H622 H 0.66411 0.64561 0.78532 0.0
C623 C 0.56578 0.55652 0.91683 0.0
C624 C 0.62008 0.60898 0.90816 0.0
H625 H 0.62091 0.66046 0.84146 0.0
C626 C 0.64802 0.60695 0.91848 0.0
C627 C 0.61017 0.62875 0.88042 0.0
C628 C 0.58043 0.6331 0.87013 0.0
C629 C 0.66626 0.62379 0.90125 0.0
C630 C 0.65632 0.6433 0.87318 0.0
C631 C 0.62845 0.64537 0.86282 0.0
C632 C 0.67454 0.66191 0.85444 0.0
C633 C 0.69606 0.62033 0.91253 0.0
C634 C 0.68994 0.68154 0.88286 0.0
C635 C 0.70656 0.69951 0.86497 0.0
C636 C 0.70814 0.69815 0.81824 0.0
C637 C 0.6927 0.67837 0.78991 0.0
C638 C 0.67595 0.66054 0.80784 0.0
H639 H 0.70052 0.601 0.92672 0.0
H640 H 0.70686 0.62123 0.88216 0.0
H641 H 0.70404 0.6369 0.93786 0.0
H642 H 0.68887 0.68317 0.91888 0.0
H643 H 0.71811 0.71449 0.88781 0.0
H644 H 0.70322 0.29349 0.1467 0.0
H645 H 0.67339 0.32578 0.11259 0.0
H646 H 0.67535 0.3735 0.24063 0.0
H647 H 0.70514 0.34113 0.27538 0.0
H648 H 0.62321 0.36356 0.19649 0.0
H649 H 0.6919 0.4016 0.08228 0.0
H650 H 0.68863 0.36565 0.07725 0.0
H651 H 0.70365 0.38324 0.12908 0.0
C652 C 0.69751 0.31092 0.16769 0.0
C653 C 0.70666 0.3147 0.21385 0.0
C654 C 0.68055 0.32946 0.148 0.0
C655 C 0.67245 0.35223 0.17392 0.0
C656 C 0.68151 0.35613 0.21997 0.0
H657 H 0.58339 0.48323 0.05841 0.0
H658 H 0.6167 0.45738 0.10111 0.0
C659 C 0.69857 0.33761 0.23974 0.0
C660 C 0.65359 0.37126 0.15316 0.0
H661 H 0.64545 0.41203 0.06824 0.0
C662 C 0.62814 0.37436 0.16872 0.0
C663 C 0.66018 0.38558 0.11731 0.0
C664 C 0.68767 0.38411 0.10072 0.0
C665 C 0.60876 0.39063 0.14826 0.0
C666 C 0.61491 0.40388 0.11099 0.0
C667 C 0.64069 0.4016 0.09652 0.0
C668 C 0.59461 0.41963 0.08581 0.0
C669 C 0.58184 0.3935 0.16666 0.0
C670 C 0.57136 0.40689 0.06265 0.0
C671 C 0.5524 0.42156 0.03822 0.0
C672 C 0.55638 0.44923 0.03653 0.0
C673 C 0.57976 0.46194 0.05942 0.0
C674 C 0.59879 0.44722 0.08373 0.0
H675 H 0.58275 0.38797 0.20172 0.0
H676 H 0.57466 0.41439 0.16605 0.0
H677 H 0.56686 0.37996 0.14544 0.0
H678 H 0.56799 0.38552 0.06316 0.0
H679 H 0.5346 0.41125 0.02078 0.0
H680 H 0.98666 0.41605 0.49957 0.0
H681 H 0.95583 0.38521 0.44977 0.0
H682 H 0.90324 0.45091 0.42339 0.0
H683 H 0.93431 0.48183 0.472 0.0
H684 H 0.90465 0.37242 0.457 0.0
H685 H 0.91062 0.41782 0.29746 0.0
H686 H 0.93397 0.42669 0.34681 0.0
H687 H 0.9014 0.44175 0.34145 0.0
C688 C 0.96852 0.42382 0.48303 0.0
C689 C 0.9628 0.45121 0.48931 0.0
C690 C 0.95102 0.40628 0.45454 0.0
C691 C 0.92758 0.41592 0.43214 0.0
C692 C 0.92162 0.44322 0.43926 0.0
H693 H 0.78407 0.32364 0.33417 0.0
H694 H 0.81832 0.35524 0.37361 0.0
C695 C 0.9392 0.46078 0.46737 0.0
C696 C 0.90859 0.39721 0.40325 0.0
H697 H 0.87364 0.38695 0.299 0.0
C698 C 0.89807 0.37544 0.42232 0.0
C699 C 0.90038 0.40098 0.3578 0.0
C700 C 0.91241 0.42291 0.33454 0.0
C701 C 0.87888 0.35778 0.39762 0.0
C702 C 0.86942 0.36252 0.3531 0.0
C703 C 0.88061 0.38371 0.33343 0.0
C704 C 0.84782 0.34564 0.32674 0.0
C705 C 0.86907 0.3341 0.4194 0.0
C706 C 0.85252 0.33103 0.28601 0.0
C707 C 0.83283 0.31317 0.26339 0.0
C708 C 0.80842 0.30966 0.28156 0.0
C709 C 0.80317 0.32538 0.32076 0.0
C710 C 0.82265 0.34343 0.34306 0.0
H711 H 0.88373 0.32893 0.44749 0.0
H712 H 0.84988 0.3392 0.4335 0.0
H713 H 0.86544 0.31613 0.3946 0.0
H714 H 0.87173 0.33271 0.27266 0.0
H715 H 0.83715 0.30122 0.23295 0.0
H716 H 0.78125 0.6833 0.72426 0.0
H717 H 0.8082 0.65053 0.68306 0.0
H718 H 0.87961 0.69922 0.72642 0.0
H719 H 0.85276 0.73215 0.76716 0.0
H720 H 0.8733 0.68101 0.633 0.0
H721 H 0.86192 0.59809 0.74032 0.0
H722 H 0.83112 0.61247 0.71834 0.0
H723 H 0.85435 0.63246 0.75804 0.0
C724 C 0.8027 0.68698 0.72495 0.0
C725 C 0.81496 0.71022 0.74889 0.0
C726 C 0.81807 0.6682 0.70164 0.0
C727 C 0.84594 0.67233 0.70211 0.0
C728 C 0.85814 0.69563 0.72576 0.0
H729 H 0.97231 0.56504 0.63373 0.0
H730 H 0.94142 0.59569 0.66965 0.0
C731 C 0.84281 0.71436 0.74911 0.0
C732 C 0.86248 0.65257 0.67768 0.0
H733 H 0.88535 0.58848 0.67631 0.0
C734 C 0.87588 0.66074 0.64231 0.0
C735 C 0.86596 0.62624 0.69023 0.0
C736 C 0.85279 0.61673 0.72902 0.0
C737 C 0.89272 0.64327 0.61913 0.0
C738 C 0.89601 0.61687 0.63142 0.0
C739 C 0.8826 0.60868 0.66677 0.0
C740 C 0.91424 0.59782 0.60928 0.0
C741 C 0.90743 0.65342 0.58249 0.0
C742 C 0.909 0.58857 0.56349 0.0
C743 C 0.92663 0.571 0.54274 0.0
C744 C 0.9498 0.56231 0.56749 0.0
C745 C 0.95474 0.57136 0.61355 0.0
C746 C 0.93707 0.58885 0.63423 0.0
H747 H 0.90715 0.67566 0.58357 0.0
H748 H 0.92868 0.64697 0.58533 0.0
H749 H 0.89761 0.64489 0.54921 0.0
H750 H 0.89126 0.59495 0.5438 0.0
H751 H 0.92215 0.56437 0.50728 0.0
H752 H 0.29702 0.29853 0.14163 0.0
H753 H 0.32734 0.32944 0.11161 0.0
H754 H 0.35001 0.36752 0.2455 0.0
H755 H 0.31981 0.33691 0.27589 0.0
H756 H 0.32785 0.38949 0.12406 0.0
H757 H 0.42238 0.34426 0.19353 0.0
H758 H 0.39038 0.32639 0.18614 0.0
H759 H 0.39769 0.35196 0.23223 0.0
C760 C 0.30838 0.31352 0.16473 0.0
C761 C 0.30599 0.31516 0.21124 0.0
C762 C 0.32569 0.33117 0.14748 0.0
C763 C 0.34112 0.35054 0.17641 0.0
C764 C 0.33851 0.35249 0.22268 0.0
H765 H 0.46627 0.46651 0.14009 0.0
H766 H 0.43412 0.43774 0.17038 0.0
C767 C 0.32111 0.33502 0.23993 0.0
C768 C 0.36 0.36878 0.15836 0.0
H769 H 0.42679 0.38392 0.1582 0.0
C770 C 0.34949 0.38826 0.13133 0.0
C771 C 0.38818 0.36722 0.16825 0.0
C772 C 0.40048 0.34624 0.19636 0.0
C773 C 0.36644 0.40656 0.11443 0.0
C774 C 0.39471 0.40481 0.12383 0.0
C775 C 0.40516 0.38529 0.15099 0.0
C776 C 0.41384 0.42275 0.10536 0.0
C777 C 0.35382 0.42799 0.08766 0.0
C778 C 0.4134 0.42371 0.05871 0.0
C779 C 0.4316 0.44029 0.04132 0.0
C780 C 0.45096 0.456 0.07016 0.0
C781 C 0.45162 0.45474 0.11688 0.0
C782 C 0.43325 0.43828 0.13427 0.0
H783 H 0.33281 0.4318 0.09526 0.0
H784 H 0.36557 0.44716 0.09459 0.0
H785 H 0.35322 0.42125 0.05122 0.0
H786 H 0.39917 0.41138 0.03561 0.0
H787 H 0.43068 0.44049 1.00515 0.0
H788 H 0.43508 0.52801 0.97685 0.0
H789 H 0.40103 0.5543 0.93661 0.0
H790 H 0.44957 0.62615 0.97569 0.0
H791 H 0.48367 0.60002 0.01568 0.0
H792 H 0.37274 0.59965 0.9735 0.0
H793 H 0.43269 0.62505 0.83717 0.0
H794 H 0.44126 0.59803 0.87132 0.0
H795 H 0.44948 0.63219 0.89303 0.0
C796 C 0.43851 0.54939 0.9766 0.0
C797 C 0.46203 0.562 0.99917 0.0
C798 C 0.41906 0.56436 0.95372 0.0
C799 C 0.42296 0.59209 0.95273 0.0
C800 C 0.44639 0.6047 0.97544 0.0
H801 H 0.3117 0.71775 0.8961 0.0
H802 H 0.34299 0.68646 0.92989 0.0
C803 C 0.46576 0.58979 0.99847 0.0
C804 C 0.40225 0.60808 0.9291 0.0
H805 H 0.39214 0.64885 0.84451 0.0
C806 C 0.37687 0.61027 0.9451 0.0
C807 C 0.40764 0.62164 0.89175 0.0
C808 C 0.43415 0.61899 0.87193 0.0
C809 C 0.35698 0.62636 0.92557 0.0
C810 C 0.36276 0.64082 0.88942 0.0
C811 C 0.38785 0.63795 0.87251 0.0
C812 C 0.34321 0.65938 0.86911 0.0
C813 C 0.3299 0.62771 0.94367 0.0
C814 C 0.33329 0.65476 0.82352 0.0
C815 C 0.31542 0.67265 0.804 0.0
C816 C 0.30732 0.69564 0.82967 0.0
C817 C 0.3174 0.70022 0.87536 0.0
C818 C 0.33519 0.68227 0.89484 0.0
H819 H 0.32633 0.61045 0.96303 0.0
H820 H 0.32907 0.64642 0.96659 0.0
H821 H 0.31342 0.62805 0.91596 0.0
H822 H 0.33938 0.63729 0.80303 0.0
H823 H 0.30817 0.66855 0.7687 0.0
H824 H 0.22552 0.68434 0.72926 0.0
H825 H 0.19325 0.65508 0.67966 0.0
H826 H 0.12776 0.7014 0.72735 0.0
H827 H 0.16002 0.73095 0.77699 0.0
H828 H 0.122 0.64242 0.72234 0.0
H829 H 0.14949 0.68041 0.56475 0.0
H830 H 0.17715 0.67059 0.6024 0.0
H831 H 0.15742 0.69879 0.61952 0.0
C832 C 0.20423 0.68823 0.72923 0.0
C833 C 0.19516 0.70998 0.75648 0.0
C834 C 0.1859 0.67159 0.70087 0.0
C835 C 0.15829 0.67644 0.69954 0.0
C836 C 0.14908 0.69756 0.72787 0.0
H837 H 0.03085 0.60569 0.50284 0.0
H838 H 0.06112 0.63712 0.55276 0.0
C839 C 0.16745 0.71433 0.75614 0.0
C840 C 0.13907 0.65947 0.66828 0.0
H841 H 0.12023 0.64215 0.55662 0.0
C842 C 0.12145 0.6424 0.68612 0.0
C843 C 0.13842 0.65983 0.62117 0.0
C844 C 0.15646 0.67852 0.60064 0.0
C845 C 0.10352 0.62503 0.65779 0.0
C846 C 0.10345 0.62481 0.61067 0.0
C847 C 0.12057 0.64237 0.59285 0.0
C848 C 0.08597 0.60608 0.57936 0.0
C849 C 0.08479 0.60704 0.67834 0.0
C850 C 0.09051 0.57845 0.57729 0.0
C851 C 0.07346 0.56058 0.54876 0.0
C852 C 0.05161 0.57014 0.52209 0.0
C853 C 0.04755 0.59788 0.52323 0.0
C854 C 0.06472 0.61578 0.55166 0.0
H855 H 0.0833 0.61369 0.71441 0.0
H856 H 0.06432 0.6065 0.65989 0.0
H857 H 0.09245 0.58628 0.67594 0.0
H858 H 0.10711 0.57072 0.59801 0.0
H859 H 0.07715 0.53927 0.5481 0.0
H860 H 0.23367 0.33008 0.30682 0.0
H861 H 0.20673 0.36435 0.34479 0.0
H862 H 0.13516 0.31531 0.305 0.0
H863 H 0.16192 0.28103 0.26726 0.0
H864 H 0.16137 0.39192 0.30503 0.0
H865 H 0.13481 0.33365 0.44283 0.0
H866 H 0.1623 0.32484 0.4099 0.0
H867 H 0.12823 0.31633 0.38734 0.0
C868 C 0.21221 0.32659 0.30644 0.0
C869 C 0.19985 0.30291 0.28425 0.0
C870 C 0.19687 0.34616 0.32801 0.0
C871 C 0.16902 0.3422 0.32809 0.0
C872 C 0.15668 0.31857 0.3059 0.0
H873 H 0.04276 0.45448 0.37999 0.0
H874 H 0.07386 0.42286 0.34659 0.0
C875 C 0.17196 0.29908 0.28419 0.0
C876 C 0.15263 0.36302 0.35034 0.0
H877 H 0.11107 0.37396 0.43346 0.0
C878 C 0.15048 0.38809 0.33328 0.0
C879 C 0.13871 0.35803 0.38746 0.0
C880 C 0.14124 0.33185 0.40832 0.0
C881 C 0.13416 0.40811 0.35166 0.0
C882 C 0.11945 0.40275 0.38771 0.0
C883 C 0.12218 0.37792 0.40553 0.0
C884 C 0.10105 0.42259 0.40747 0.0
C885 C 0.13293 0.43488 0.33258 0.0
C886 C 0.10582 0.43263 0.45294 0.0
C887 C 0.08807 0.45065 0.47219 0.0
C888 C 0.06504 0.45882 0.44641 0.0
C889 C 0.06034 0.44872 0.4008 0.0
C890 C 0.07817 0.43074 0.38155 0.0
H891 H 0.15022 0.43812 0.3131 0.0
H892 H 0.11415 0.4356 0.30958 0.0
H893 H 0.1327 0.45158 0.35979 0.0
H894 H 0.12329 0.42647 0.47358 0.0
H895 H 0.09229 0.45792 0.50744 0.0
H896 H 0.05273 0.97903 0.84092 0.0
H897 H 0.0464 0.97696 0.92026 0.0
H898 H 0.98329 0.03474 0.90961 0.0
H899 H 0.98952 0.03697 0.83026 0.0
H900 H 0.05208 0.01835 0.98913 0.0
H901 H 0.94814 0.97561 0.9689 0.0
H902 H 0.96856 0.97535 0.92263 0.0
H903 H 0.95175 1.00539 0.94113 0.0
C904 C 0.03747 0.99129 0.85542 0.0
C905 C 0.0216 0.00814 0.82914 0.0
C906 C 0.03382 0.99001 0.90075 0.0
C907 C 0.01416 1.00544 0.92079 0.0
C908 C 0.99818 0.02218 0.89465 0.0
H909 H 0.96559 0.03094 0.19126 0.0
H910 H 0.97195 0.03281 0.1119 0.0
C911 C 1.00176 0.02343 0.84925 0.0
C912 C 0.01115 1.00479 0.96945 0.0
H913 H 0.96628 0.9913 0.04322 0.0
C914 C 0.03337 0.0123 1.00097 0.0
C915 C 0.9867 0.99697 0.98487 0.0
C916 C 0.96248 0.98763 0.95266 0.0
C917 C 0.03166 0.01266 0.04748 0.0
C918 C 1.00721 1.00486 0.0629 0.0
C919 C 0.985 0.99734 0.03138 0.0
C920 C 1.00417 1.0043 0.11157 0.0
C921 C 0.05588 0.02201 0.0797 0.0
C922 C 0.02013 0.98761 0.13784 0.0
C923 C 0.01653 0.98648 0.18327 0.0
C924 C 0.9967 1.00183 0.20327 0.0
C925 C 0.98085 0.01863 0.17685 0.0
C926 C 0.98451 0.0198 0.1315 0.0
H927 H 0.07026 0.03398 0.06343 0.0
H928 H 0.04981 0.03434 0.10967 0.0
H929 H 0.06658 1.00426 0.09131 0.0
H930 H 0.03502 0.97501 0.12298 0.0
H931 H 0.02876 0.97298 0.20237 0.0
H932 H 0.29248 0.7531 0.46437 0.0
H933 H 0.29355 0.76016 0.38506 0.0
H934 H 0.2108 0.73309 0.35704 0.0
H935 H 0.20932 0.72663 0.43651 0.0
H936 H 0.28438 0.72187 0.31012 0.0
H937 H 0.2111 0.80414 0.29999 0.0
H938 H 0.22644 0.79442 0.35291 0.0
H939 H 0.19888 0.77489 0.32229 0.0
C940 C 0.27435 0.74907 0.44151 0.0
C941 C 0.25076 0.73942 0.45692 0.0
C942 C 0.27507 0.75293 0.39611 0.0
C943 C 0.25218 0.74746 0.36519 0.0
C944 C 0.22859 0.73786 0.3804 0.0
H945 H 0.21753 0.7532 0.07645 0.0
H946 H 0.21635 0.74607 0.15575 0.0
C947 C 0.22786 0.73392 0.42578 0.0
C948 C 0.25328 0.75098 0.31682 0.0
H949 H 0.22524 0.78497 0.23099 0.0
C950 C 0.27155 0.73576 0.29285 0.0
C951 C 0.23648 0.76906 0.2943 0.0
C952 C 0.21727 0.78676 0.3187 0.0
C953 C 0.27315 0.7378 0.24683 0.0
C954 C 0.25634 0.75587 0.22432 0.0
C955 C 0.23807 0.77108 0.24827 0.0
C956 C 0.2575 0.75943 0.17599 0.0
C957 C 0.29242 0.72018 0.22243 0.0
C958 C 0.281 0.7694 0.16102 0.0
C959 C 0.28177 0.77342 0.11568 0.0
C960 C 0.25902 0.76759 0.08435 0.0
C961 C 0.23553 0.75752 0.0995 0.0
C962 C 0.23475 0.75361 0.14487 0.0
H963 H 0.29879 0.70291 0.24125 0.0
H964 H 0.28319 0.71239 0.18832 0.0
H965 H 0.31069 0.73217 0.21856 0.0
H966 H 0.29866 0.77442 0.18455 0.0
H967 H 0.30023 0.78105 0.10514 0.0
H968 H 0.50673 0.04432 0.69833 0.0
H969 H 0.51327 0.0457 0.61891 0.0
H970 H 0.48464 0.96364 0.59035 0.0
H971 H 0.47801 0.96209 0.66971 0.0
H972 H 0.54486 0.01488 0.56405 0.0
H973 H 0.43699 1.00171 0.4992 0.0
H974 H 0.44804 0.00972 0.55821 0.0
H975 H 0.44958 0.97584 0.53255 0.0
C976 C 0.50204 0.02647 0.67525 0.0
C977 C 0.4917 1.00312 0.6904 0.0
C978 C 0.50566 0.02735 0.6298 0.0
C979 C 0.49896 1.00496 0.59848 0.0
C980 C 0.48928 0.9814 0.61365 0.0
H981 H 0.50618 0.9707 0.31041 0.0
H982 H 0.49988 0.96926 0.38992 0.0
C983 C 0.48556 0.98053 0.65907 0.0
C984 C 0.50237 1.00621 0.55009 0.0
H985 H 0.46829 1.00011 0.44475 0.0
C986 C 0.5281 0.01177 0.53797 0.0
C987 C 0.48049 1.00213 0.51606 0.0
C988 C 0.45216 0.99726 0.52706 0.0
C989 C 0.53265 0.01286 0.49273 0.0
C990 C 0.51077 0.00877 0.4587 0.0
C991 C 0.48504 1.00321 0.47083 0.0
C992 C 0.51416 0.01002 0.4103 0.0
C993 C 0.56097 0.01776 0.48173 0.0
C994 C 0.52378 0.03359 0.39509 0.0
C995 C 0.52736 0.03449 0.34963 0.0
C996 C 0.52114 0.01191 0.31829 0.0
C997 C 0.51092 0.98854 0.3335 0.0
C998 C 0.50743 0.98763 0.379 0.0
H999 H 0.57616 0.01334 0.50959 0.0
H1000 H 0.56511 1.0053 0.45058 0.0
H1001 H 0.56354 0.03918 0.47621 0.0
H1002 H 0.52844 0.05134 0.41839 0.0
H1003 H 0.53482 0.05296 0.33895 0.0
H1004 H 0.27035 0.28098 0.96359 0.0
H1005 H 0.27438 0.28655 0.88435 0.0
H1006 H 0.23119 0.21159 0.84452 0.0
H1007 H 0.22739 0.20564 0.92339 0.0
H1008 H 0.29805 0.25219 0.81911 0.0
H1009 H 0.18916 0.26475 0.76944 0.0
H1010 H 0.20347 0.26771 0.82748 0.0
H1011 H 0.19697 0.23515 0.79705 0.0
C1012 C 0.26186 0.26557 0.93802 0.0
C1013 C 0.24832 0.24297 0.94997 0.0
C1014 C 0.26407 0.26886 0.89273 0.0
C1015 C 0.25265 0.24973 0.8585 0.0
C1016 C 0.23958 0.22693 0.8703 0.0
H1017 H 0.24517 0.23125 0.56584 0.0
H1018 H 0.24114 0.22559 0.64505 0.0
C1019 C 0.2374 0.2236 0.91548 0.0
C1020 C 0.2548 0.2533 0.81045 0.0
H1021 H 0.21741 0.25991 0.71037 0.0
C1022 C 0.28045 0.25403 0.79536 0.0
C1023 C 0.23179 0.25558 0.77949 0.0
C1024 C 0.20378 0.25601 0.79413 0.0
C1025 C 0.28368 0.25652 0.74999 0.0
C1026 C 0.26066 0.25881 0.71903 0.0
C1027 C 0.23502 0.25807 0.73412 0.0
C1028 C 0.26281 0.26242 0.671 0.0
C1029 C 0.31168 0.2561 0.73535 0.0
C1030 C 0.27587 0.28524 0.65926 0.0
C1031 C 0.27805 0.28863 0.6141 0.0
C1032 C 0.26715 0.26928 0.57956 0.0
C1033 C 0.25363 0.24664 0.59145 0.0
C1034 C 0.25143 0.2433 0.63672 0.0
H1035 H 0.3263 0.24735 0.76003 0.0
H1036 H 0.31199 0.24441 0.70199 0.0
H1037 H 0.31849 0.27696 0.73245 0.0
H1038 H 0.28423 0.30058 0.68508 0.0
H1039 H 0.28804 0.30661 0.60625 0.0
H1040 H 0.73919 0.20505 0.93717 0.0
H1041 H 0.74096 0.21185 0.85798 0.0
H1042 H 0.80124 0.27445 0.89614 0.0
H1043 H 0.8002 0.26723 0.97543 0.0
H1044 H 0.73047 0.25786 0.81518 0.0
H1045 H 0.83557 0.2259 0.80089 0.0
H1046 H 0.81743 0.21899 0.8476 0.0
H1047 H 0.83196 0.25179 0.84565 0.0
C1048 C 0.75309 0.22004 0.92874 0.0
C1049 C 0.76971 0.23545 0.96271 0.0
C1050 C 0.75394 0.22402 0.88345 0.0
C1051 C 0.77154 0.24335 0.87105 0.0
C1052 C 0.78788 0.25906 0.90484 0.0
H1053 H 0.79688 0.29881 0.61163 0.0
H1054 H 0.79852 0.29255 0.69192 0.0
C1055 C 0.78702 0.25512 0.9502 0.0
C1056 C 0.77225 0.24742 0.82282 0.0
H1057 H 0.81323 0.24465 0.73804 0.0
C1058 C 0.74854 0.2549 0.7983 0.0
C1059 C 0.79587 0.24357 0.80083 0.0
C1060 C 0.82162 0.23439 0.82489 0.0
C1061 C 0.74787 0.25889 0.75254 0.0
C1062 C 0.77144 0.25495 0.73056 0.0
C1063 C 0.79521 0.24768 0.75506 0.0
C1064 C 0.77155 0.25792 0.6819 0.0
C1065 C 0.72203 0.26762 0.72814 0.0
C1066 C 0.75634 0.24016 0.64969 0.0
C1067 C 0.75542 0.24362 0.60392 0.0
C1068 C 0.76969 0.26497 0.58942 0.0
C1069 C 0.78547 0.28234 0.62175 0.0
C1070 C 0.78651 0.27874 0.66757 0.0
H1071 H 0.70766 0.27552 0.75187 0.0
H1072 H 0.72608 0.28334 0.70593 0.0
H1073 H 0.71227 0.25015 0.70671 0.0
H1074 H 0.74489 0.22378 0.66004 0.0
H1075 H 0.74284 0.23006 0.58001 0.0
H1076 H 0.78745 0.71846 0.44382 0.0
H1077 H 0.78945 0.72464 0.36437 0.0
H1078 H 0.72234 0.77794 0.36842 0.0
H1079 H 0.72022 0.77188 0.44787 0.0
H1080 H 0.75009 0.71252 0.29347 0.0
H1081 H 0.77639 0.82125 0.31095 0.0
H1082 H 0.77914 0.80147 0.35825 0.0
H1083 H 0.74692 0.81325 0.33691 0.0
C1084 C 0.77314 0.73154 0.42783 0.0
C1085 C 0.75371 0.74473 0.45228 0.0
C1086 C 0.77436 0.73511 0.38245 0.0
C1087 C 0.75628 0.75202 0.36054 0.0
C1088 C 0.73692 0.76529 0.38484 0.0
H1089 H 0.72717 0.79475 0.08629 0.0
H1090 H 0.72513 0.78861 0.16575 0.0
C1091 C 0.73573 0.7618 0.43029 0.0
C1092 C 0.75703 0.75488 0.31185 0.0
H1093 H 0.76444 0.80073 0.23673 0.0
C1094 C 0.75336 0.73179 0.28106 0.0
C1095 C 0.76122 0.78004 0.29567 0.0
C1096 C 0.76639 0.8054 0.32715 0.0
C1097 C 0.7533 0.73321 0.23452 0.0
C1098 C 0.7575 0.75837 0.21835 0.0
C1099 C 0.76116 0.78146 0.24913 0.0
C1100 C 0.75828 0.76122 0.16966 0.0
C1101 C 0.74813 0.70785 0.20305 0.0
C1102 C 0.77765 0.74793 0.1454 0.0
C1103 C 0.77886 0.75139 0.09994 0.0
C1104 C 0.7609 0.76845 0.07791 0.0
C1105 C 0.74147 0.78167 0.10231 0.0
C1106 C 0.74022 0.77813 0.1477 0.0
H1107 H 0.7381 0.69201 0.21924 0.0
H1108 H 0.73541 0.71178 0.17192 0.0
H1109 H 0.7676 0.69998 0.19333 0.0
H1110 H 0.79221 0.73528 0.16186 0.0
H1111 H 0.79437 0.74129 0.08241 0.0
H1112 H 0.45905 0.47656 0.6761 0.0
H1113 H 0.4656 0.4796 0.59723 0.0
H1114 H 0.53924 0.52518 0.63777 0.0
H1115 H 0.53269 0.52258 0.71698 0.0
H1116 H 0.47026 0.5259 0.55212 0.0
H1117 H 0.5619 0.46429 0.54777 0.0
H1118 H 0.54041 0.46449 0.59261 0.0
H1119 H 0.56398 0.4917 0.59148 0.0
C1120 C 0.47655 0.48744 0.66838 0.0
C1121 C 0.49533 0.49936 0.70304 0.0
C1122 C 0.48032 0.48902 0.6232 0.0
C1123 C 0.50305 0.50232 0.61159 0.0
C1124 C 0.52181 0.51435 0.64596 0.0
H1125 H 0.55981 0.53494 0.35851 0.0
H1126 H 0.55328 0.53213 0.43746 0.0
C1127 C 0.51804 0.51283 0.69124 0.0
C1128 C 0.50675 0.504 0.56348 0.0
H1129 H 0.54852 0.4861 0.48281 0.0
C1130 C 0.48731 0.51712 0.53688 0.0
C1131 C 0.52902 0.49253 0.54371 0.0
C1132 C 0.54994 0.47724 0.57016 0.0
C1133 C 0.48977 0.51949 0.49121 0.0
C1134 C 0.51203 0.50801 0.47144 0.0
C1135 C 0.53147 0.49489 0.49804 0.0
C1136 C 0.51569 0.50961 0.42329 0.0
C1137 C 0.46886 0.5348 0.46478 0.0
C1138 C 0.49685 0.49763 0.389 0.0
C1139 C 0.5006 0.49903 0.34369 0.0
C1140 C 0.52338 0.51232 0.33177 0.0
C1141 C 0.54224 0.5242 0.36634 0.0
C1142 C 0.53848 0.52275 0.41155 0.0
H1143 H 0.45699 0.54784 0.4872 0.0
H1144 H 0.47837 0.54746 0.44219 0.0
H1145 H 0.45473 0.52035 0.44363 0.0
H1146 H 0.47938 0.48691 0.39728 0.0
H1147 H 0.48589 0.48931 0.31802 0.0
H1148 H 0.06379 0.50028 0.84223 0.0
H1149 H 0.05609 0.49881 0.92104 0.0
H1150 H 0.97381 0.52163 0.89057 0.0
H1151 H 0.98138 0.52338 0.81161 0.0
H1152 H 0.03988 0.53953 0.98226 0.0
H1153 H 0.96597 0.45442 0.95594 0.0
H1154 H 0.98677 0.46244 0.91316 0.0
H1155 H 0.95736 0.48165 0.92283 0.0
C1156 C 0.04409 0.50521 0.85225 0.0
C1157 C 0.0232 0.51194 0.82042 0.0
C1158 C 0.03969 0.50421 0.89734 0.0
C1159 C 0.01428 0.50972 0.91163 0.0
C1160 C 0.99343 0.5167 0.88014 0.0
H1161 H 0.9492 0.51732 0.16985 0.0
H1162 H 0.95667 0.51819 0.09081 0.0
C1163 C 0.9978 0.51771 0.83498 0.0
C1164 C 0.00985 0.50867 0.95967 0.0
H1165 H 0.97277 0.47724 0.02943 0.0
C1166 C 0.02529 0.52583 0.99261 0.0
C1167 C 0.99079 0.4908 0.97314 0.0
C1168 C 0.97442 0.47109 0.93952 0.0
C1169 C 0.02187 0.52596 0.03853 0.0
C1170 C 1.00282 0.50809 0.052 0.0
C1171 C 0.98737 0.49093 0.01907 0.0
C1172 C 0.99842 0.50707 0.10006 0.0
C1173 C 0.03824 0.54567 0.07214 0.0
C1174 C 0.0193 0.5001 0.13152 0.0
C1175 C 0.01506 0.49943 0.1768 0.0
C1176 C 0.98978 0.50555 0.19154 0.0
C1177 C 0.96882 0.51215 0.15971 0.0
C1178 C 0.97309 0.51281 0.11449 0.0
H1179 H 0.04672 0.56232 0.05571 0.0
H1180 H 0.02587 0.55436 0.09846 0.0
H1181 H 0.05527 0.53511 0.0889 0.0
H1182 H 0.03886 0.49501 0.12099 0.0
H1183 H 0.03152 0.49383 0.20016 0.0
loop_
_geom_bond_atom_site_label_1
_geom_bond_atom_site_label_2
_geom_bond_distance
_geom_bond_site_symmetry_2
_ccdc_geom_bond_type
Gd0 C3 2.818 1_655 S
Gd0 O20 2.377 1_665 S
Gd0 O22 2.448 1_655 S
Gd0 O23 2.506 . S
Gd0 O24 2.435 1_655 S
Gd0 O25 2.717 1_655 S
Gd0 O27 2.395 . S
Gd0 O31 2.327 1_565 S
Gd1 C12 2.818 1_455 S
Gd1 O21 2.395 . S
Gd1 O25 2.327 1_545 S
Gd1 O26 2.377 1_445 S
Gd1 O28 2.448 1_455 S
Gd1 O29 2.506 . S
Gd1 O30 2.435 1_455 S
Gd1 O31 2.717 1_455 S
C2 O20 1.240 . S
C2 O21 1.240 . S
C3 Gd0 2.818 1_455 S
C3 C4 1.510 . S
C3 O22 1.249 . S
C3 O23 1.252 1_455 S
C4 C3 1.510 . S
C4 C5 1.404 . S
C4 C6 1.352 1_565 S
C5 C4 1.404 . S
C5 C9 1.389 . S
C5 H32 0.930 . S
C6 C4 1.352 1_545 S
C6 C8 1.374 . S
C6 H33 0.931 1_455 S
C7 C8 1.359 1_565 S
C7 C9 1.364 . S
C8 C6 1.374 . S
C8 C7 1.359 1_545 S
C8 H34 0.939 . S
C9 C5 1.389 . S
C9 C7 1.364 . S
C9 H35 0.931 . S
C10 O24 1.256 . S
C10 O25 1.257 . S
C11 O26 1.240 . S
C11 O27 1.240 . S
C12 Gd1 2.818 1_655 S
C12 C13 1.510 . S
C12 O28 1.249 . S
C12 O29 1.252 1_655 S
C13 C12 1.510 . S
C13 C14 1.404 . S
C13 C15 1.360 1_545 S
C14 C13 1.404 . S
C14 C18 1.389 . S
C14 H36 0.930 . S
C15 C13 1.360 1_565 S
C15 C17 1.387 . S
C15 H37 0.910 1_655 S
C16 C17 1.359 1_545 S
C16 C18 1.364 . S
C17 C15 1.387 . S
C17 C16 1.359 1_565 S
C17 H38 0.937 . S
C18 C14 1.389 . S
C18 C16 1.364 . S
C18 H39 0.931 . S
C19 O30 1.256 . S
C19 O31 1.257 . S
O20 Gd0 2.377 1_445 S
O20 C2 1.240 . S
O21 Gd1 2.395 . S
O21 C2 1.240 . S
O22 Gd0 2.448 1_455 S
O22 C3 1.249 . S
O23 Gd0 2.506 . S
O23 C3 1.252 1_655 S
O24 Gd0 2.435 1_455 S
O24 C10 1.256 . S
O25 Gd0 2.717 1_455 S
O25 Gd1 2.327 1_565 S
O25 C10 1.257 . S
O26 Gd1 2.377 1_665 S
O26 C11 1.240 . S
O27 Gd0 2.395 . S
O27 C11 1.240 . S
O28 Gd1 2.448 1_655 S
O28 C12 1.249 . S
O29 Gd1 2.506 . S
O29 C12 1.252 1_455 S
O30 Gd1 2.435 1_655 S
O30 C19 1.256 . S
O31 Gd0 2.327 1_545 S
O31 Gd1 2.717 1_655 S
O31 C19 1.257 . S
H32 C5 0.930 . S
H33 C6 0.931 1_655 S
H34 C8 0.939 . S
H35 C9 0.931 . S
H36 C14 0.930 . S
H37 C15 0.910 1_455 S
H38 C17 0.937 . S
H39 C18 0.931 . S
Gd40 C43 2.818 . S
Gd40 O60 2.377 . S
Gd40 O62 2.448 . S
Gd40 O63 2.506 . S
Gd40 O64 2.435 . S
Gd40 O65 2.717 . S
Gd40 O67 2.395 . S
Gd40 O71 2.327 . S
Gd41 C52 2.818 . S
Gd41 O61 2.395 . S
Gd41 O65 2.327 . S
Gd41 O66 2.377 . S
Gd41 O68 2.448 . S
Gd41 O69 2.506 . S
Gd41 O70 2.435 . S
Gd41 O71 2.717 . S
C42 O60 1.240 . S
C42 O61 1.240 . S
C43 Gd40 2.818 . S
C43 C44 1.510 . S
C43 O62 1.249 . S
C43 O63 1.252 . S
C44 C43 1.510 . S
C44 C45 1.404 . S
C44 C46 1.352 . S
C45 C44 1.404 . S
C45 C49 1.389 . S
C45 H72 0.930 . S
C46 C44 1.352 . S
C46 C48 1.374 . S
C46 H73 0.931 . S
C47 C48 1.359 . S
C47 C49 1.364 . S
C48 C46 1.374 . S
C48 C47 1.359 . S
C48 H74 0.931 . S
C49 C45 1.389 . S
C49 C47 1.364 . S
C49 H75 0.931 . S
C50 O64 1.256 . S
C50 O65 1.257 . S
C51 O66 1.240 . S
C51 O67 1.240 . S
C52 Gd41 2.818 . S
C52 C53 1.510 . S
C52 O68 1.249 . S
C52 O69 1.252 . S
C53 C52 1.510 . S
C53 C54 1.404 . S
C53 C55 1.352 . S
C54 C53 1.404 . S
C54 C58 1.389 . S
C54 H76 0.930 . S
C55 C53 1.352 . S
C55 C57 1.374 1_556 S
C55 H77 0.931 . S
C56 C57 1.359 . S
C56 C58 1.364 1_554 S
C57 C55 1.374 1_554 S
C57 C56 1.359 . S
C57 H78 0.931 . S
C58 C54 1.389 . S
C58 C56 1.364 1_556 S
C58 H79 0.931 1_556 S
C59 O70 1.256 . S
C59 O71 1.257 . S
O60 Gd40 2.377 . S
O60 C42 1.240 . S
O61 Gd41 2.395 . S
O61 C42 1.240 . S
O62 Gd40 2.448 . S
O62 C43 1.249 . S
O63 Gd40 2.506 . S
O63 C43 1.252 . S
O64 Gd40 2.435 . S
O64 C50 1.256 . S
O65 Gd40 2.717 . S
O65 Gd41 2.327 . S
O65 C50 1.257 . S
O66 Gd41 2.377 . S
O66 C51 1.240 . S
O67 Gd40 2.395 . S
O67 C51 1.240 . S
O68 Gd41 2.448 . S
O68 C52 1.249 . S
O69 Gd41 2.506 . S
O69 C52 1.252 . S
O70 Gd41 2.435 . S
O70 C59 1.256 . S
O71 Gd40 2.327 . S
O71 Gd41 2.717 . S
O71 C59 1.257 . S
H72 C45 0.930 . S
H73 C46 0.931 . S
H74 C48 0.931 . S
H75 C49 0.931 . S
H76 C54 0.930 . S
H77 C55 0.931 . S
H78 C57 0.931 . S
H79 C58 0.931 1_554 S
Gd80 C83 2.818 . S
Gd80 O100 2.377 1_565 S
Gd80 O102 2.448 . S
Gd80 O103 2.506 1_565 S
Gd80 O104 2.435 . S
Gd80 O105 2.717 1_554 S
Gd80 O107 2.395 1_554 S
Gd80 O111 2.327 1_565 S
Gd81 C92 2.818 . S
Gd81 O101 2.395 1_556 S
Gd81 O105 2.327 1_545 S
Gd81 O106 2.377 1_545 S
Gd81 O108 2.448 . S
Gd81 O109 2.506 1_545 S
Gd81 O110 2.435 . S
Gd81 O111 2.717 1_556 S
C82 O100 1.240 . S
C82 O101 1.240 . S
C83 Gd80 2.818 . S
C83 C84 1.510 . S
C83 O102 1.249 . S
C83 O103 1.252 1_565 S
C84 C83 1.510 . S
C84 C85 1.404 . S
C84 C86 1.352 1_565 S
C85 C84 1.404 . S
C85 C89 1.389 . S
C85 H112 0.930 . S
C86 C84 1.352 1_545 S
C86 C88 1.374 . S
C86 H113 0.931 . S
C87 C88 1.359 . S
C87 C89 1.364 1_545 S
C88 C86 1.374 . S
C88 C87 1.359 . S
C88 H114 0.931 . S
C89 C85 1.389 . S
C89 C87 1.364 1_565 S
C89 H115 0.931 . S
C90 O104 1.256 1_556 S
C90 O105 1.257 . S
C91 O106 1.240 . S
C91 O107 1.240 . S
C92 Gd81 2.818 . S
C92 C93 1.510 . S
C92 O108 1.249 . S
C92 O109 1.252 1_545 S
C93 C92 1.510 . S
C93 C94 1.404 . S
C93 C95 1.352 1_545 S
C94 C93 1.404 . S
C94 C98 1.389 . S
C94 H116 0.930 . S
C95 C93 1.352 1_565 S
C95 C97 1.374 . S
C95 H117 0.931 . S
C96 C97 1.359 . S
C96 C98 1.364 1_565 S
C97 C95 1.374 . S
C97 C96 1.359 . S
C97 H118 0.931 . S
C98 C94 1.389 . S
C98 C96 1.364 1_545 S
C98 H119 0.931 . S
C99 O110 1.256 1_554 S
C99 O111 1.257 . S
O100 Gd80 2.377 1_545 S
O100 C82 1.240 . S
O101 Gd81 2.395 1_554 S
O101 C82 1.240 . S
O102 Gd80 2.448 . S
O102 C83 1.249 . S
O103 Gd80 2.506 1_545 S
O103 C83 1.252 1_545 S
O104 Gd80 2.435 . S
O104 C90 1.256 1_554 S
O105 Gd80 2.717 1_556 S
O105 Gd81 2.327 1_565 S
O105 C90 1.257 . S
O106 Gd81 2.377 1_565 S
O106 C91 1.240 . S
O107 Gd80 2.395 1_556 S
O107 C91 1.240 . S
O108 Gd81 2.448 . S
O108 C92 1.249 . S
O109 Gd81 2.506 1_565 S
O109 C92 1.252 1_565 S
O110 Gd81 2.435 . S
O110 C99 1.256 1_556 S
O111 Gd80 2.327 1_545 S
O111 Gd81 2.717 1_554 S
O111 C99 1.257 . S
H112 C85 0.930 . S
H113 C86 0.931 . S
H114 C88 0.931 . S
H115 C89 0.931 . S
H116 C94 0.930 . S
H117 C95 0.931 . S
H118 C97 0.931 . S
H119 C98 0.931 . S
Gd120 C123 2.818 . S
Gd120 O140 2.377 . S
Gd120 O142 2.448 . S
Gd120 O143 2.506 . S
Gd120 O144 2.435 . S
Gd120 O145 2.717 . S
Gd120 O147 2.395 . S
Gd120 O151 2.327 . S
Gd121 C132 2.818 . S
Gd121 O141 2.395 . S
Gd121 O145 2.327 . S
Gd121 O146 2.377 . S
Gd121 O148 2.448 . S
Gd121 O149 2.506 . S
Gd121 O150 2.435 . S
Gd121 O151 2.717 . S
C122 O140 1.240 . S
C122 O141 1.240 . S
C123 Gd120 2.818 . S
C123 C124 1.510 . S
C123 O142 1.249 . S
C123 O143 1.252 . S
C124 C123 1.510 . S
C124 C125 1.404 . S
C124 C126 1.352 . S
C125 C124 1.404 . S
C125 C129 1.389 . S
C125 H152 0.930 . S
C126 C124 1.352 . S
C126 C128 1.374 . S
C126 H153 0.931 . S
C127 C128 1.359 . S
C127 C129 1.364 . S
C128 C126 1.374 . S
C128 C127 1.359 . S
C128 H154 0.931 . S
C129 C125 1.389 . S
C129 C127 1.364 . S
C129 H155 0.931 . S
C130 O144 1.256 . S
C130 O145 1.257 . S
C131 O146 1.240 . S
C131 O147 1.240 . S
C132 Gd121 2.818 . S
C132 C133 1.510 . S
C132 O148 1.249 . S
C132 O149 1.252 . S
C133 C132 1.510 . S
C133 C134 1.404 . S
C133 C135 1.352 . S
C134 C133 1.404 . S
C134 C138 1.389 1_554 S
C134 H156 0.930 . S
C135 C133 1.352 . S
C135 C137 1.400 . S
C135 H157 0.931 . S
C136 C137 1.347 1_556 S
C136 C138 1.364 . S
C137 C135 1.400 . S
C137 C136 1.347 1_554 S
C137 H158 0.918 1_554 S
C138 C134 1.389 1_556 S
C138 C136 1.364 . S
C138 H159 0.931 . S
C139 O150 1.256 . S
C139 O151 1.257 . S
O140 Gd120 2.377 . S
O140 C122 1.240 . S
O141 Gd121 2.395 . S
O141 C122 1.240 . S
O142 Gd120 2.448 . S
O142 C123 1.249 . S
O143 Gd120 2.506 . S
O143 C123 1.252 . S
O144 Gd120 2.435 . S
O144 C130 1.256 . S
O145 Gd120 2.717 . S
O145 Gd121 2.327 . S
O145 C130 1.257 . S
O146 Gd121 2.377 . S
O146 C131 1.240 . S
O147 Gd120 2.395 . S
O147 C131 1.240 . S
O148 Gd121 2.448 . S
O148 C132 1.249 . S
O149 Gd121 2.506 . S
O149 C132 1.252 . S
O150 Gd121 2.435 . S
O150 C139 1.256 . S
O151 Gd120 2.327 . S
O151 Gd121 2.717 . S
O151 C139 1.257 . S
H152 C125 0.930 . S
H153 C126 0.931 . S
H154 C128 0.931 . S
H155 C129 0.931 . S
H156 C134 0.930 . S
H157 C135 0.931 . S
H158 C137 0.918 1_556 S
H159 C138 0.931 . S
Gd160 C163 2.818 . S
Gd160 O180 2.377 . S
Gd160 O182 2.448 . S
Gd160 O183 2.506 . S
Gd160 O184 2.435 . S
Gd160 O185 2.717 . S
Gd160 O187 2.395 . S
Gd160 O191 2.327 . S
Gd161 C172 2.818 . S
Gd161 O181 2.395 . S
Gd161 O185 2.327 . S
Gd161 O186 2.377 . S
Gd161 O188 2.448 . S
Gd161 O189 2.506 . S
Gd161 O190 2.435 . S
Gd161 O191 2.717 . S
C162 O180 1.240 . S
C162 O181 1.240 . S
C163 Gd160 2.818 . S
C163 C164 1.510 . S
C163 O182 1.249 . S
C163 O183 1.252 . S
C164 C163 1.510 . S
C164 C165 1.404 . S
C164 C166 1.352 . S
C165 C164 1.404 . S
C165 C169 1.389 . S
C165 H192 0.930 . S
C166 C164 1.352 . S
C166 C168 1.374 1_554 S
C166 H193 0.931 . S
C167 C168 1.359 . S
C167 C169 1.364 1_556 S
C168 C166 1.374 1_556 S
C168 C167 1.359 . S
C168 H194 0.931 . S
C169 C165 1.389 . S
C169 C167 1.364 1_554 S
C169 H195 0.931 1_554 S
C170 O184 1.256 . S
C170 O185 1.257 . S
C171 O186 1.240 . S
C171 O187 1.240 . S
C172 Gd161 2.818 . S
C172 C173 1.510 . S
C172 O188 1.249 . S
C172 O189 1.252 . S
C173 C172 1.510 . S
C173 C174 1.404 . S
C173 C175 1.352 . S
C174 C173 1.404 . S
C174 C178 1.389 . S
C174 H196 0.930 . S
C175 C173 1.352 . S
C175 C177 1.374 . S
C175 H197 0.931 . S
C176 C177 1.359 . S
C176 C178 1.364 . S
C177 C175 1.374 . S
C177 C176 1.359 . S
C177 H198 0.931 . S
C178 C174 1.389 . S
C178 C176 1.364 . S
C178 H199 0.931 . S
C179 O190 1.256 . S
C179 O191 1.257 . S
O180 Gd160 2.377 . S
O180 C162 1.240 . S
O181 Gd161 2.395 . S
O181 C162 1.240 . S
O182 Gd160 2.448 . S
O182 C163 1.249 . S
O183 Gd160 2.506 . S
O183 C163 1.252 . S
O184 Gd160 2.435 . S
O184 C170 1.256 . S
O185 Gd160 2.717 . S
O185 Gd161 2.327 . S
O185 C170 1.257 . S
O186 Gd161 2.377 . S
O186 C171 1.240 . S
O187 Gd160 2.395 . S
O187 C171 1.240 . S
O188 Gd161 2.448 . S
O188 C172 1.249 . S
O189 Gd161 2.506 . S
O189 C172 1.252 . S
O190 Gd161 2.435 . S
O190 C179 1.256 . S
O191 Gd160 2.327 . S
O191 Gd161 2.717 . S
O191 C179 1.257 . S
H192 C165 0.930 . S
H193 C166 0.931 . S
H194 C168 0.931 . S
H195 C169 0.931 1_556 S
H196 C174 0.930 . S
H197 C175 0.931 . S
H198 C177 0.931 . S
H199 C178 0.931 . S
Gd200 C203 2.818 . S
Gd200 O220 2.377 . S
Gd200 O222 2.448 . S
Gd200 O223 2.506 . S
Gd200 O224 2.435 . S
Gd200 O225 2.717 . S
Gd200 O227 2.395 . S
Gd200 O231 2.327 . S
Gd201 C212 2.818 . S
Gd201 O221 2.395 . S
Gd201 O225 2.327 . S
Gd201 O226 2.377 . S
Gd201 O228 2.448 . S
Gd201 O229 2.506 . S
Gd201 O230 2.435 . S
Gd201 O231 2.717 . S
C202 O220 1.240 . S
C202 O221 1.240 . S
C203 Gd200 2.818 . S
C203 C204 1.510 . S
C203 O222 1.249 . S
C203 O223 1.252 . S
C204 C203 1.510 . S
C204 C205 1.404 . S
C204 C206 1.352 . S
C205 C204 1.404 . S
C205 C209 1.389 1_556 S
C205 H232 0.930 . S
C206 C204 1.352 . S
C206 C208 1.398 . S
C206 H233 0.931 . S
C207 C208 1.347 1_554 S
C207 C209 1.364 . S
C208 C206 1.398 . S
C208 C207 1.347 1_556 S
C208 H234 0.919 1_556 S
C209 C205 1.389 1_554 S
C209 C207 1.364 . S
C209 H235 0.931 . S
C210 O224 1.256 . S
C210 O225 1.257 . S
C211 O226 1.240 . S
C211 O227 1.240 . S
C212 Gd201 2.818 . S
C212 C213 1.510 . S
C212 O228 1.249 . S
C212 O229 1.252 . S
C213 C212 1.510 . S
C213 C214 1.404 . S
C213 C215 1.352 . S
C214 C213 1.404 . S
C214 C218 1.389 . S
C214 H236 0.930 . S
C215 C213 1.352 . S
C215 C217 1.374 . S
C215 H237 0.931 . S
C216 C217 1.359 . S
C216 C218 1.364 . S
C217 C215 1.374 . S
C217 C216 1.359 . S
C217 H238 0.931 . S
C218 C214 1.389 . S
C218 C216 1.364 . S
C218 H239 0.931 . S
C219 O230 1.256 . S
C219 O231 1.257 . S
O220 Gd200 2.377 . S
O220 C202 1.240 . S
O221 Gd201 2.395 . S
O221 C202 1.240 . S
O222 Gd200 2.448 . S
O222 C203 1.249 . S
O223 Gd200 2.506 . S
O223 C203 1.252 . S
O224 Gd200 2.435 . S
O224 C210 1.256 . S
O225 Gd200 2.717 . S
O225 Gd201 2.327 . S
O225 C210 1.257 . S
O226 Gd201 2.377 . S
O226 C211 1.240 . S
O227 Gd200 2.395 . S
O227 C211 1.240 . S
O228 Gd201 2.448 . S
O228 C212 1.249 . S
O229 Gd201 2.506 . S
O229 C212 1.252 . S
O230 Gd201 2.435 . S
O230 C219 1.256 . S
O231 Gd200 2.327 . S
O231 Gd201 2.717 . S
O231 C219 1.257 . S
H232 C205 0.930 . S
H233 C206 0.931 . S
H234 C208 0.919 1_554 S
H235 C209 0.931 . S
H236 C214 0.930 . S
H237 C215 0.931 . S
H238 C217 0.931 . S
H239 C218 0.931 . S
Gd240 C243 2.818 . S
Gd240 O260 2.377 . S
Gd240 O262 2.448 . S
Gd240 O263 2.506 . S
Gd240 O264 2.435 . S
Gd240 O265 2.717 1_556 S
Gd240 O267 2.395 . S
Gd240 O271 2.327 . S
Gd241 C252 2.818 . S
Gd241 O261 2.395 . S
Gd241 O265 2.327 . S
Gd241 O266 2.377 . S
Gd241 O268 2.448 . S
Gd241 O269 2.506 . S
Gd241 O270 2.435 . S
Gd241 O271 2.717 1_554 S
C242 O260 1.240 . S
C242 O261 1.240 1_556 S
C243 Gd240 2.818 . S
C243 C244 1.510 . S
C243 O262 1.249 . S
C243 O263 1.252 . S
C244 C243 1.510 . S
C244 C245 1.404 . S
C244 C246 1.352 . S
C245 C244 1.404 . S
C245 C249 1.389 . S
C245 H272 0.930 . S
C246 C244 1.352 . S
C246 C248 1.374 . S
C246 H273 0.931 . S
C247 C248 1.359 . S
C247 C249 1.364 . S
C248 C246 1.374 . S
C248 C247 1.359 . S
C248 H274 0.931 . S
C249 C245 1.389 . S
C249 C247 1.364 . S
C249 H275 0.931 . S
C250 O264 1.256 1_554 S
C250 O265 1.257 . S
C251 O266 1.240 . S
C251 O267 1.240 1_554 S
C252 Gd241 2.818 . S
C252 C253 1.510 . S
C252 O268 1.249 . S
C252 O269 1.252 . S
C253 C252 1.510 . S
C253 C254 1.404 . S
C253 C255 1.352 . S
C254 C253 1.404 . S
C254 C258 1.389 . S
C254 H276 0.930 . S
C255 C253 1.352 . S
C255 C257 1.374 . S
C255 H277 0.931 . S
C256 C257 1.359 . S
C256 C258 1.364 . S
C257 C255 1.374 . S
C257 C256 1.359 . S
C257 H278 0.931 . S
C258 C254 1.389 . S
C258 C256 1.364 . S
C258 H279 0.931 . S
C259 O270 1.256 1_556 S
C259 O271 1.257 . S
O260 Gd240 2.377 . S
O260 C242 1.240 . S
O261 Gd241 2.395 . S
O261 C242 1.240 1_554 S
O262 Gd240 2.448 . S
O262 C243 1.249 . S
O263 Gd240 2.506 . S
O263 C243 1.252 . S
O264 Gd240 2.435 . S
O264 C250 1.256 1_556 S
O265 Gd240 2.717 1_554 S
O265 Gd241 2.327 . S
O265 C250 1.257 . S
O266 Gd241 2.377 . S
O266 C251 1.240 . S
O267 Gd240 2.395 . S
O267 C251 1.240 1_556 S
O268 Gd241 2.448 . S
O268 C252 1.249 . S
O269 Gd241 2.506 . S
O269 C252 1.252 . S
O270 Gd241 2.435 . S
O270 C259 1.256 1_554 S
O271 Gd240 2.327 . S
O271 Gd241 2.717 1_556 S
O271 C259 1.257 . S
H272 C245 0.930 . S
H273 C246 0.931 . S
H274 C248 0.931 . S
H275 C249 0.931 . S
H276 C254 0.930 . S
H277 C255 0.931 . S
H278 C257 0.931 . S
H279 C258 0.931 . S
Gd280 C283 2.818 1_455 S
Gd280 O300 2.377 1_455 S
Gd280 O302 2.448 1_455 S
Gd280 O303 2.506 . S
Gd280 O304 2.435 1_455 S
Gd280 O305 2.717 1_455 S
Gd280 O307 2.395 . S
Gd280 O311 2.327 . S
Gd281 C292 2.818 1_655 S
Gd281 O301 2.395 . S
Gd281 O305 2.327 . S
Gd281 O306 2.377 1_655 S
Gd281 O308 2.448 1_655 S
Gd281 O309 2.506 . S
Gd281 O310 2.435 1_655 S
Gd281 O311 2.717 1_655 S
C282 O300 1.240 . S
C282 O301 1.240 . S
C283 Gd280 2.818 1_655 S
C283 C284 1.510 . S
C283 O302 1.249 . S
C283 O303 1.252 1_655 S
C284 C283 1.510 . S
C284 C285 1.404 . S
C284 C286 1.356 . S
C285 C284 1.404 . S
C285 C289 1.389 . S
C285 H312 0.930 . S
C286 C284 1.356 . S
C286 C288 1.381 . S
C286 H313 0.919 1_655 S
C287 C288 1.359 . S
C287 C289 1.364 . S
C288 C286 1.381 . S
C288 C287 1.359 . S
C288 H314 0.930 . S
C289 C285 1.389 . S
C289 C287 1.364 . S
C289 H315 0.931 . S
C290 O304 1.256 . S
C290 O305 1.257 . S
C291 O306 1.240 . S
C291 O307 1.240 . S
C292 Gd281 2.818 1_455 S
C292 C293 1.510 . S
C292 O308 1.249 . S
C292 O309 1.252 1_455 S
C293 C292 1.510 . S
C293 C294 1.404 . S
C293 C295 1.358 . S
C294 C293 1.404 . S
C294 C298 1.389 . S
C294 H316 0.930 . S
C295 C293 1.358 . S
C295 C297 1.385 . S
C295 H317 0.914 1_455 S
C296 C297 1.359 . S
C296 C298 1.364 . S
C297 C295 1.385 . S
C297 C296 1.359 . S
C297 H318 0.932 . S
C298 C294 1.389 . S
C298 C296 1.364 . S
C298 H319 0.931 . S
C299 O310 1.256 . S
C299 O311 1.257 . S
O300 Gd280 2.377 1_655 S
O300 C282 1.240 . S
O301 Gd281 2.395 . S
O301 C282 1.240 . S
O302 Gd280 2.448 1_655 S
O302 C283 1.249 . S
O303 Gd280 2.506 . S
O303 C283 1.252 1_455 S
O304 Gd280 2.435 1_655 S
O304 C290 1.256 . S
O305 Gd280 2.717 1_655 S
O305 Gd281 2.327 . S
O305 C290 1.257 . S
O306 Gd281 2.377 1_455 S
O306 C291 1.240 . S
O307 Gd280 2.395 . S
O307 C291 1.240 . S
O308 Gd281 2.448 1_455 S
O308 C292 1.249 . S
O309 Gd281 2.506 . S
O309 C292 1.252 1_655 S
O310 Gd281 2.435 1_455 S
O310 C299 1.256 . S
O311 Gd280 2.327 . S
O311 Gd281 2.717 1_455 S
O311 C299 1.257 . S
H312 C285 0.930 . S
H313 C286 0.919 1_455 S
H314 C288 0.930 . S
H315 C289 0.931 . S
H316 C294 0.930 . S
H317 C295 0.914 1_655 S
H318 C297 0.932 . S
H319 C298 0.931 . S
H320 C328 0.929 . S
H321 C330 0.930 . S
H322 C332 0.930 . S
H323 C335 0.929 . S
H324 C338 0.930 . S
H325 C340 0.960 . S
H326 C340 0.960 . S
H327 C340 0.960 . S
C328 H320 0.929 . S
C328 C329 1.377 . S
C328 C330 1.384 . S
C329 C328 1.377 . S
C329 C335 1.390 . S
C330 H321 0.930 . S
C330 C328 1.384 . S
C330 C331 1.372 . S
C331 C330 1.372 . S
C331 C332 1.400 . S
C331 C336 1.490 . S
C332 H322 0.930 . S
C332 C331 1.400 . S
C332 C335 1.386 . S
H333 C349 0.930 . S
H334 C350 0.931 . S
C335 H323 0.929 . S
C335 C329 1.390 . S
C335 C332 1.386 . S
C336 C331 1.490 . S
C336 C338 1.395 . S
C336 C339 1.403 . S
H337 C343 0.930 . S
C338 H324 0.930 . S
C338 C336 1.395 . S
C338 C341 1.403 . S
C339 C336 1.403 . S
C339 C340 1.524 . S
C339 C343 1.400 . S
C340 H325 0.960 . S
C340 H326 0.960 . S
C340 H327 0.960 . S
C340 C339 1.524 . S
C341 C338 1.403 . S
C341 C342 1.392 . S
C341 C345 1.495 . S
C342 C341 1.392 . S
C342 C343 1.385 . S
C342 C344 1.478 . S
C343 H337 0.930 . S
C343 C339 1.400 . S
C343 C342 1.385 . S
C344 C342 1.478 . S
C344 C346 1.381 . S
C344 C350 1.383 . S
C345 C341 1.495 . S
C345 H351 0.959 . S
C345 H352 0.961 . S
C345 H353 0.960 . S
C346 C344 1.381 . S
C346 C347 1.394 . S
C346 H354 0.930 . S
C347 C346 1.394 . S
C347 C348 1.383 . S
C347 H355 0.929 . S
C348 C347 1.383 . S
C348 C349 1.377 . S
C349 H333 0.930 . S
C349 C348 1.377 . S
C349 C350 1.379 . S
C350 H334 0.931 . S
C350 C344 1.383 . S
C350 C349 1.379 . S
H351 C345 0.959 . S
H352 C345 0.961 . S
H353 C345 0.960 . S
H354 C346 0.930 . S
H355 C347 0.929 . S
H356 C364 0.929 . S
H357 C366 0.930 . S
H358 C368 0.930 . S
H359 C371 0.929 . S
H360 C374 0.930 . S
H361 C376 0.960 . S
H362 C376 0.960 . S
H363 C376 0.960 . S
C364 H356 0.929 . S
C364 C365 1.377 . S
C364 C366 1.384 . S
C365 C364 1.377 . S
C365 C371 1.390 . S
C366 H357 0.930 . S
C366 C364 1.384 . S
C366 C367 1.372 . S
C367 C366 1.372 . S
C367 C368 1.400 . S
C367 C372 1.490 . S
C368 H358 0.930 . S
C368 C367 1.400 . S
C368 C371 1.386 . S
H369 C385 0.930 . S
H370 C386 0.931 . S
C371 H359 0.929 . S
C371 C365 1.390 . S
C371 C368 1.386 . S
C372 C367 1.490 . S
C372 C374 1.395 . S
C372 C375 1.403 . S
H373 C379 0.930 . S
C374 H360 0.930 . S
C374 C372 1.395 . S
C374 C377 1.403 . S
C375 C372 1.403 . S
C375 C376 1.524 . S
C375 C379 1.400 . S
C376 H361 0.960 . S
C376 H362 0.960 . S
C376 H363 0.960 . S
C376 C375 1.524 . S
C377 C374 1.403 . S
C377 C378 1.392 . S
C377 C381 1.495 . S
C378 C377 1.392 . S
C378 C379 1.385 . S
C378 C380 1.478 . S
C379 H373 0.930 . S
C379 C375 1.400 . S
C379 C378 1.385 . S
C380 C378 1.478 . S
C380 C382 1.381 . S
C380 C386 1.383 . S
C381 C377 1.495 . S
C381 H387 0.959 . S
C381 H388 0.961 . S
C381 H389 0.960 . S
C382 C380 1.381 . S
C382 C383 1.394 . S
C382 H390 0.930 . S
C383 C382 1.394 . S
C383 C384 1.383 . S
C383 H391 0.929 . S
C384 C383 1.383 . S
C384 C385 1.377 . S
C385 H369 0.930 . S
C385 C384 1.377 . S
C385 C386 1.379 . S
C386 H370 0.931 . S
C386 C380 1.383 . S
C386 C385 1.379 . S
H387 C381 0.959 . S
H388 C381 0.961 . S
H389 C381 0.960 . S
H390 C382 0.930 . S
H391 C383 0.929 . S
H392 C400 0.929 . S
H393 C402 0.930 . S
H394 C404 0.930 . S
H395 C407 0.929 . S
H396 C410 0.930 . S
H397 C412 0.960 . S
H398 C412 0.960 . S
H399 C412 0.960 . S
C400 H392 0.929 . S
C400 C401 1.377 . S
C400 C402 1.384 . S
C401 C400 1.377 . S
C401 C407 1.390 . S
C402 H393 0.930 . S
C402 C400 1.384 . S
C402 C403 1.372 . S
C403 C402 1.372 . S
C403 C404 1.400 . S
C403 C408 1.490 . S
C404 H394 0.930 . S
C404 C403 1.400 . S
C404 C407 1.386 . S
H405 C421 0.930 . S
H406 C422 0.931 . S
C407 H395 0.929 . S
C407 C401 1.390 . S
C407 C404 1.386 . S
C408 C403 1.490 . S
C408 C410 1.395 . S
C408 C411 1.403 . S
H409 C415 0.930 . S
C410 H396 0.930 . S
C410 C408 1.395 . S
C410 C413 1.403 . S
C411 C408 1.403 . S
C411 C412 1.524 . S
C411 C415 1.400 . S
C412 H397 0.960 . S
C412 H398 0.960 . S
C412 H399 0.960 . S
C412 C411 1.524 . S
C413 C410 1.403 . S
C413 C414 1.392 . S
C413 C417 1.495 . S
C414 C413 1.392 . S
C414 C415 1.385 . S
C414 C416 1.478 . S
C415 H409 0.930 . S
C415 C411 1.400 . S
C415 C414 1.385 . S
C416 C414 1.478 . S
C416 C418 1.381 . S
C416 C422 1.383 . S
C417 C413 1.495 . S
C417 H423 0.959 . S
C417 H424 0.961 . S
C417 H425 0.960 . S
C418 C416 1.381 . S
C418 C419 1.394 . S
C418 H426 0.930 . S
C419 C418 1.394 . S
C419 C420 1.383 . S
C419 H427 0.929 1_556 S
C420 C419 1.383 . S
C420 C421 1.377 . S
C421 H405 0.930 . S
C421 C420 1.377 . S
C421 C422 1.379 . S
C422 H406 0.931 . S
C422 C416 1.383 . S
C422 C421 1.379 . S
H423 C417 0.959 . S
H424 C417 0.961 . S
H425 C417 0.960 . S
H426 C418 0.930 . S
H427 C419 0.929 1_554 S
H428 C436 0.929 . S
H429 C438 0.930 . S
H430 C440 0.930 . S
H431 C443 0.929 . S
H432 C446 0.930 . S
H433 C448 0.960 . S
H434 C448 0.960 . S
H435 C448 0.960 . S
C436 H428 0.929 . S
C436 C437 1.377 . S
C436 C438 1.384 . S
C437 C436 1.377 . S
C437 C443 1.390 . S
C438 H429 0.930 . S
C438 C436 1.384 . S
C438 C439 1.372 . S
C439 C438 1.372 . S
C439 C440 1.400 . S
C439 C444 1.490 . S
C440 H430 0.930 . S
C440 C439 1.400 . S
C440 C443 1.386 . S
H441 C457 0.930 . S
H442 C458 0.931 . S
C443 H431 0.929 . S
C443 C437 1.390 . S
C443 C440 1.386 . S
C444 C439 1.490 . S
C444 C446 1.395 . S
C444 C447 1.403 . S
H445 C451 0.930 . S
C446 H432 0.930 . S
C446 C444 1.395 . S
C446 C449 1.403 . S
C447 C444 1.403 . S
C447 C448 1.524 . S
C447 C451 1.400 . S
C448 H433 0.960 . S
C448 H434 0.960 . S
C448 H435 0.960 . S
C448 C447 1.524 . S
C449 C446 1.403 . S
C449 C450 1.392 . S
C449 C453 1.495 . S
C450 C449 1.392 . S
C450 C451 1.385 . S
C450 C452 1.478 . S
C451 H445 0.930 . S
C451 C447 1.400 . S
C451 C450 1.385 . S
C452 C450 1.478 . S
C452 C454 1.381 . S
C452 C458 1.383 . S
C453 C449 1.495 . S
C453 H459 0.959 . S
C453 H460 0.961 . S
C453 H461 0.960 . S
C454 C452 1.381 . S
C454 C455 1.394 . S
C454 H462 0.930 . S
C455 C454 1.394 . S
C455 C456 1.383 . S
C455 H463 0.929 . S
C456 C455 1.383 . S
C456 C457 1.377 . S
C457 H441 0.930 . S
C457 C456 1.377 . S
C457 C458 1.379 . S
C458 H442 0.931 . S
C458 C452 1.383 . S
C458 C457 1.379 . S
H459 C453 0.959 . S
H460 C453 0.961 . S
H461 C453 0.960 . S
H462 C454 0.930 . S
H463 C455 0.929 . S
H464 C472 0.929 . S
H465 C474 0.930 . S
H466 C476 0.930 . S
H467 C479 0.929 . S
H468 C482 0.930 . S
H469 C484 0.960 . S
H470 C484 0.960 . S
H471 C484 0.960 . S
C472 H464 0.929 . S
C472 C473 1.377 . S
C472 C474 1.384 . S
C473 C472 1.377 . S
C473 C479 1.390 . S
C474 H465 0.930 . S
C474 C472 1.384 . S
C474 C475 1.372 . S
C475 C474 1.372 . S
C475 C476 1.400 . S
C475 C480 1.490 . S
C476 H466 0.930 . S
C476 C475 1.400 . S
C476 C479 1.386 . S
H477 C493 0.930 . S
H478 C494 0.931 . S
C479 H467 0.929 . S
C479 C473 1.390 . S
C479 C476 1.386 . S
C480 C475 1.490 . S
C480 C482 1.395 . S
C480 C483 1.403 . S
H481 C487 0.930 . S
C482 H468 0.930 . S
C482 C480 1.395 . S
C482 C485 1.403 . S
C483 C480 1.403 . S
C483 C484 1.524 . S
C483 C487 1.400 . S
C484 H469 0.960 . S
C484 H470 0.960 . S
C484 H471 0.960 . S
C484 C483 1.524 . S
C485 C482 1.403 . S
C485 C486 1.392 . S
C485 C489 1.495 . S
C486 C485 1.392 . S
C486 C487 1.385 . S
C486 C488 1.478 . S
C487 H481 0.930 . S
C487 C483 1.400 . S
C487 C486 1.385 . S
C488 C486 1.478 . S
C488 C490 1.381 . S
C488 C494 1.383 . S
C489 C485 1.495 . S
C489 H495 0.959 . S
C489 H496 0.961 . S
C489 H497 0.960 . S
C490 C488 1.381 . S
C490 C491 1.394 . S
C490 H498 0.930 . S
C491 C490 1.394 . S
C491 C492 1.383 . S
C491 H499 0.929 . S
C492 C491 1.383 . S
C492 C493 1.377 . S
C493 H477 0.930 . S
C493 C492 1.377 . S
C493 C494 1.379 . S
C494 H478 0.931 . S
C494 C488 1.383 . S
C494 C493 1.379 . S
H495 C489 0.959 . S
H496 C489 0.961 . S
H497 C489 0.960 . S
H498 C490 0.930 . S
H499 C491 0.929 . S
H500 C508 0.929 . S
H501 C510 0.930 . S
H502 C512 0.930 . S
H503 C515 0.929 . S
H504 C518 0.930 . S
H505 C520 0.960 . S
H506 C520 0.960 . S
H507 C520 0.960 . S
C508 H500 0.929 . S
C508 C509 1.377 . S
C508 C510 1.384 . S
C509 C508 1.377 . S
C509 C515 1.390 . S
C510 H501 0.930 . S
C510 C508 1.384 . S
C510 C511 1.372 . S
C511 C510 1.372 . S
C511 C512 1.400 . S
C511 C516 1.490 . S
C512 H502 0.930 . S
C512 C511 1.400 . S
C512 C515 1.386 . S
H513 C529 0.930 . S
H514 C530 0.931 . S
C515 H503 0.929 . S
C515 C509 1.390 . S
C515 C512 1.386 . S
C516 C511 1.490 . S
C516 C518 1.395 . S
C516 C519 1.403 . S
H517 C523 0.930 . S
C518 H504 0.930 . S
C518 C516 1.395 . S
C518 C521 1.403 . S
C519 C516 1.403 . S
C519 C520 1.524 . S
C519 C523 1.400 . S
C520 H505 0.960 . S
C520 H506 0.960 . S
C520 H507 0.960 . S
C520 C519 1.524 . S
C521 C518 1.403 . S
C521 C522 1.392 . S
C521 C525 1.495 . S
C522 C521 1.392 . S
C522 C523 1.385 . S
C522 C524 1.478 . S
C523 H517 0.930 . S
C523 C519 1.400 . S
C523 C522 1.385 . S
C524 C522 1.478 . S
C524 C526 1.381 . S
C524 C530 1.383 . S
C525 C521 1.495 . S
C525 H531 0.959 . S
C525 H532 0.961 . S
C525 H533 0.960 . S
C526 C524 1.381 . S
C526 C527 1.394 . S
C526 H534 0.930 . S
C527 C526 1.394 . S
C527 C528 1.383 . S
C527 H535 0.929 . S
C528 C527 1.383 . S
C528 C529 1.377 . S
C529 H513 0.930 . S
C529 C528 1.377 . S
C529 C530 1.379 . S
C530 H514 0.931 . S
C530 C524 1.383 . S
C530 C529 1.379 . S
H531 C525 0.959 . S
H532 C525 0.961 . S
H533 C525 0.960 . S
H534 C526 0.930 . S
H535 C527 0.929 . S
H536 C544 0.929 . S
H537 C546 0.930 . S
H538 C548 0.930 . S
H539 C551 0.929 . S
H540 C554 0.930 . S
H541 C556 0.960 . S
H542 C556 0.960 . S
H543 C556 0.960 . S
C544 H536 0.929 . S
C544 C545 1.377 . S
C544 C546 1.384 . S
C545 C544 1.377 . S
C545 C551 1.390 . S
C546 H537 0.930 . S
C546 C544 1.384 . S
C546 C547 1.372 . S
C547 C546 1.372 . S
C547 C548 1.400 . S
C547 C552 1.490 . S
C548 H538 0.930 . S
C548 C547 1.400 . S
C548 C551 1.386 . S
H549 C565 0.930 . S
H550 C566 0.931 . S
C551 H539 0.929 . S
C551 C545 1.390 . S
C551 C548 1.386 . S
C552 C547 1.490 . S
C552 C554 1.395 . S
C552 C555 1.403 . S
H553 C559 0.930 . S
C554 H540 0.930 . S
C554 C552 1.395 . S
C554 C557 1.403 . S
C555 C552 1.403 . S
C555 C556 1.524 . S
C555 C559 1.400 . S
C556 H541 0.960 . S
C556 H542 0.960 . S
C556 H543 0.960 . S
C556 C555 1.524 . S
C557 C554 1.403 . S
C557 C558 1.392 . S
C557 C561 1.495 . S
C558 C557 1.392 . S
C558 C559 1.385 . S
C558 C560 1.478 . S
C559 H553 0.930 . S
C559 C555 1.400 . S
C559 C558 1.385 . S
C560 C558 1.478 . S
C560 C562 1.381 . S
C560 C566 1.383 . S
C561 C557 1.495 . S
C561 H567 0.959 . S
C561 H568 0.961 . S
C561 H569 0.960 . S
C562 C560 1.381 . S
C562 C563 1.394 . S
C562 H570 0.930 . S
C563 C562 1.394 . S
C563 C564 1.383 . S
C563 H571 0.929 . S
C564 C563 1.383 . S
C564 C565 1.377 . S
C565 H549 0.930 . S
C565 C564 1.377 . S
C565 C566 1.379 . S
C566 H550 0.931 . S
C566 C560 1.383 . S
C566 C565 1.379 . S
H567 C561 0.959 . S
H568 C561 0.961 . S
H569 C561 0.960 . S
H570 C562 0.930 . S
H571 C563 0.929 . S
H572 C580 0.929 . S
H573 C582 0.930 . S
H574 C584 0.930 . S
H575 C587 0.929 . S
H576 C590 0.930 . S
H577 C592 0.960 . S
H578 C592 0.960 . S
H579 C592 0.960 . S
C580 H572 0.929 . S
C580 C581 1.377 . S
C580 C582 1.384 . S
C581 C580 1.377 . S
C581 C587 1.390 . S
C582 H573 0.930 . S
C582 C580 1.384 . S
C582 C583 1.372 . S
C583 C582 1.372 . S
C583 C584 1.400 . S
C583 C588 1.490 . S
C584 H574 0.930 . S
C584 C583 1.400 . S
C584 C587 1.386 . S
H585 C601 0.930 . S
H586 C602 0.931 . S
C587 H575 0.929 . S
C587 C581 1.390 . S
C587 C584 1.386 . S
C588 C583 1.490 . S
C588 C590 1.395 . S
C588 C591 1.403 . S
H589 C595 0.930 . S
C590 H576 0.930 . S
C590 C588 1.395 . S
C590 C593 1.403 . S
C591 C588 1.403 . S
C591 C592 1.524 . S
C591 C595 1.400 . S
C592 H577 0.960 . S
C592 H578 0.960 . S
C592 H579 0.960 . S
C592 C591 1.524 . S
C593 C590 1.403 . S
C593 C594 1.392 . S
C593 C597 1.495 . S
C594 C593 1.392 . S
C594 C595 1.385 . S
C594 C596 1.478 . S
C595 H589 0.930 . S
C595 C591 1.400 . S
C595 C594 1.385 . S
C596 C594 1.478 . S
C596 C598 1.381 . S
C596 C602 1.383 . S
C597 C593 1.495 . S
C597 H603 0.959 . S
C597 H604 0.961 . S
C597 H605 0.960 . S
C598 C596 1.381 . S
C598 C599 1.394 . S
C598 H606 0.930 . S
C599 C598 1.394 . S
C599 C600 1.383 . S
C599 H607 0.929 . S
C600 C599 1.383 . S
C600 C601 1.377 . S
C601 H585 0.930 . S
C601 C600 1.377 . S
C601 C602 1.379 . S
C602 H586 0.931 . S
C602 C596 1.383 . S
C602 C601 1.379 . S
H603 C597 0.959 . S
H604 C597 0.961 . S
H605 C597 0.960 . S
H606 C598 0.930 . S
H607 C599 0.929 . S
H608 C616 0.929 . S
H609 C618 0.930 . S
H610 C620 0.930 . S
H611 C623 0.929 . S
H612 C626 0.930 . S
H613 C628 0.960 . S
H614 C628 0.960 . S
H615 C628 0.960 . S
C616 H608 0.929 . S
C616 C617 1.377 . S
C616 C618 1.384 . S
C617 C616 1.377 . S
C617 C623 1.390 . S
C618 H609 0.930 . S
C618 C616 1.384 . S
C618 C619 1.372 . S
C619 C618 1.372 . S
C619 C620 1.400 . S
C619 C624 1.490 . S
C620 H610 0.930 . S
C620 C619 1.400 . S
C620 C623 1.386 . S
H621 C637 0.930 . S
H622 C638 0.931 . S
C623 H611 0.929 . S
C623 C617 1.390 . S
C623 C620 1.386 . S
C624 C619 1.490 . S
C624 C626 1.395 . S
C624 C627 1.403 . S
H625 C631 0.930 . S
C626 H612 0.930 . S
C626 C624 1.395 . S
C626 C629 1.403 . S
C627 C624 1.403 . S
C627 C628 1.524 . S
C627 C631 1.400 . S
C628 H613 0.960 . S
C628 H614 0.960 . S
C628 H615 0.960 . S
C628 C627 1.524 . S
C629 C626 1.403 . S
C629 C630 1.392 . S
C629 C633 1.495 . S
C630 C629 1.392 . S
C630 C631 1.385 . S
C630 C632 1.478 . S
C631 H625 0.930 . S
C631 C627 1.400 . S
C631 C630 1.385 . S
C632 C630 1.478 . S
C632 C634 1.381 . S
C632 C638 1.383 . S
C633 C629 1.495 . S
C633 H639 0.959 . S
C633 H640 0.961 . S
C633 H641 0.960 . S
C634 C632 1.381 . S
C634 C635 1.394 . S
C634 H642 0.930 . S
C635 C634 1.394 . S
C635 C636 1.383 . S
C635 H643 0.929 . S
C636 C635 1.383 . S
C636 C637 1.377 . S
C637 H621 0.930 . S
C637 C636 1.377 . S
C637 C638 1.379 . S
C638 H622 0.931 . S
C638 C632 1.383 . S
C638 C637 1.379 . S
H639 C633 0.959 . S
H640 C633 0.961 . S
H641 C633 0.960 . S
H642 C634 0.930 . S
H643 C635 0.929 . S
H644 C652 0.929 . S
H645 C654 0.930 . S
H646 C656 0.930 . S
H647 C659 0.929 . S
H648 C662 0.930 . S
H649 C664 0.960 . S
H650 C664 0.960 . S
H651 C664 0.960 . S
C652 H644 0.929 . S
C652 C653 1.377 . S
C652 C654 1.384 . S
C653 C652 1.377 . S
C653 C659 1.390 . S
C654 H645 0.930 . S
C654 C652 1.384 . S
C654 C655 1.372 . S
C655 C654 1.372 . S
C655 C656 1.400 . S
C655 C660 1.490 . S
C656 H646 0.930 . S
C656 C655 1.400 . S
C656 C659 1.386 . S
H657 C673 0.930 . S
H658 C674 0.931 . S
C659 H647 0.929 . S
C659 C653 1.390 . S
C659 C656 1.386 . S
C660 C655 1.490 . S
C660 C662 1.395 . S
C660 C663 1.403 . S
H661 C667 0.930 . S
C662 H648 0.930 . S
C662 C660 1.395 . S
C662 C665 1.403 . S
C663 C660 1.403 . S
C663 C664 1.524 . S
C663 C667 1.400 . S
C664 H649 0.960 . S
C664 H650 0.960 . S
C664 H651 0.960 . S
C664 C663 1.524 . S
C665 C662 1.403 . S
C665 C666 1.392 . S
C665 C669 1.495 . S
C666 C665 1.392 . S
C666 C667 1.385 . S
C666 C668 1.478 . S
C667 H661 0.930 . S
C667 C663 1.400 . S
C667 C666 1.385 . S
C668 C666 1.478 . S
C668 C670 1.381 . S
C668 C674 1.383 . S
C669 C665 1.495 . S
C669 H675 0.959 . S
C669 H676 0.961 . S
C669 H677 0.960 . S
C670 C668 1.381 . S
C670 C671 1.394 . S
C670 H678 0.930 . S
C671 C670 1.394 . S
C671 C672 1.383 . S
C671 H679 0.929 . S
C672 C671 1.383 . S
C672 C673 1.377 . S
C673 H657 0.930 . S
C673 C672 1.377 . S
C673 C674 1.379 . S
C674 H658 0.931 . S
C674 C668 1.383 . S
C674 C673 1.379 . S
H675 C669 0.959 . S
H676 C669 0.961 . S
H677 C669 0.960 . S
H678 C670 0.930 . S
H679 C671 0.929 . S
H680 C688 0.929 . S
H681 C690 0.930 . S
H682 C692 0.930 . S
H683 C695 0.929 . S
H684 C698 0.930 . S
H685 C700 0.960 . S
H686 C700 0.960 . S
H687 C700 0.960 . S
C688 H680 0.929 . S
C688 C689 1.377 . S
C688 C690 1.384 . S
C689 C688 1.377 . S
C689 C695 1.390 . S
C690 H681 0.930 . S
C690 C688 1.384 . S
C690 C691 1.372 . S
C691 C690 1.372 . S
C691 C692 1.400 . S
C691 C696 1.490 . S
C692 H682 0.930 . S
C692 C691 1.400 . S
C692 C695 1.386 . S
H693 C709 0.930 . S
H694 C710 0.931 . S
C695 H683 0.929 . S
C695 C689 1.390 . S
C695 C692 1.386 . S
C696 C691 1.490 . S
C696 C698 1.395 . S
C696 C699 1.403 . S
H697 C703 0.930 . S
C698 H684 0.930 . S
C698 C696 1.395 . S
C698 C701 1.403 . S
C699 C696 1.403 . S
C699 C700 1.524 . S
C699 C703 1.400 . S
C700 H685 0.960 . S
C700 H686 0.960 . S
C700 H687 0.960 . S
C700 C699 1.524 . S
C701 C698 1.403 . S
C701 C702 1.392 . S
C701 C705 1.495 . S
C702 C701 1.392 . S
C702 C703 1.385 . S
C702 C704 1.478 . S
C703 H697 0.930 . S
C703 C699 1.400 . S
C703 C702 1.385 . S
C704 C702 1.478 . S
C704 C706 1.381 . S
C704 C710 1.383 . S
C705 C701 1.495 . S
C705 H711 0.959 . S
C705 H712 0.961 . S
C705 H713 0.960 . S
C706 C704 1.381 . S
C706 C707 1.394 . S
C706 H714 0.930 . S
C707 C706 1.394 . S
C707 C708 1.383 . S
C707 H715 0.929 . S
C708 C707 1.383 . S
C708 C709 1.377 . S
C709 H693 0.930 . S
C709 C708 1.377 . S
C709 C710 1.379 . S
C710 H694 0.931 . S
C710 C704 1.383 . S
C710 C709 1.379 . S
H711 C705 0.959 . S
H712 C705 0.961 . S
H713 C705 0.960 . S
H714 C706 0.930 . S
H715 C707 0.929 . S
H716 C724 0.929 . S
H717 C726 0.930 . S
H718 C728 0.930 . S
H719 C731 0.929 . S
H720 C734 0.930 . S
H721 C736 0.960 . S
H722 C736 0.960 . S
H723 C736 0.960 . S
C724 H716 0.929 . S
C724 C725 1.377 . S
C724 C726 1.384 . S
C725 C724 1.377 . S
C725 C731 1.390 . S
C726 H717 0.930 . S
C726 C724 1.384 . S
C726 C727 1.372 . S
C727 C726 1.372 . S
C727 C728 1.400 . S
C727 C732 1.490 . S
C728 H718 0.930 . S
C728 C727 1.400 . S
C728 C731 1.386 . S
H729 C745 0.930 . S
H730 C746 0.931 . S
C731 H719 0.929 . S
C731 C725 1.390 . S
C731 C728 1.386 . S
C732 C727 1.490 . S
C732 C734 1.395 . S
C732 C735 1.403 . S
H733 C739 0.930 . S
C734 H720 0.930 . S
C734 C732 1.395 . S
C734 C737 1.403 . S
C735 C732 1.403 . S
C735 C736 1.524 . S
C735 C739 1.400 . S
C736 H721 0.960 . S
C736 H722 0.960 . S
C736 H723 0.960 . S
C736 C735 1.524 . S
C737 C734 1.403 . S
C737 C738 1.392 . S
C737 C741 1.495 . S
C738 C737 1.392 . S
C738 C739 1.385 . S
C738 C740 1.478 . S
C739 H733 0.930 . S
C739 C735 1.400 . S
C739 C738 1.385 . S
C740 C738 1.478 . S
C740 C742 1.381 . S
C740 C746 1.383 . S
C741 C737 1.495 . S
C741 H747 0.959 . S
C741 H748 0.961 . S
C741 H749 0.960 . S
C742 C740 1.381 . S
C742 C743 1.394 . S
C742 H750 0.930 . S
C743 C742 1.394 . S
C743 C744 1.383 . S
C743 H751 0.929 . S
C744 C743 1.383 . S
C744 C745 1.377 . S
C745 H729 0.930 . S
C745 C744 1.377 . S
C745 C746 1.379 . S
C746 H730 0.931 . S
C746 C740 1.383 . S
C746 C745 1.379 . S
H747 C741 0.959 . S
H748 C741 0.961 . S
H749 C741 0.960 . S
H750 C742 0.930 . S
H751 C743 0.929 . S
H752 C760 0.929 . S
H753 C762 0.930 . S
H754 C764 0.930 . S
H755 C767 0.929 . S
H756 C770 0.930 . S
H757 C772 0.960 . S
H758 C772 0.960 . S
H759 C772 0.960 . S
C760 H752 0.929 . S
C760 C761 1.377 . S
C760 C762 1.384 . S
C761 C760 1.377 . S
C761 C767 1.390 . S
C762 H753 0.930 . S
C762 C760 1.384 . S
C762 C763 1.372 . S
C763 C762 1.372 . S
C763 C764 1.400 . S
C763 C768 1.490 . S
C764 H754 0.930 . S
C764 C763 1.400 . S
C764 C767 1.386 . S
H765 C781 0.930 . S
H766 C782 0.931 . S
C767 H755 0.929 . S
C767 C761 1.390 . S
C767 C764 1.386 . S
C768 C763 1.490 . S
C768 C770 1.395 . S
C768 C771 1.403 . S
H769 C775 0.930 . S
C770 H756 0.930 . S
C770 C768 1.395 . S
C770 C773 1.403 . S
C771 C768 1.403 . S
C771 C772 1.524 . S
C771 C775 1.400 . S
C772 H757 0.960 . S
C772 H758 0.960 . S
C772 H759 0.960 . S
C772 C771 1.524 . S
C773 C770 1.403 . S
C773 C774 1.392 . S
C773 C777 1.495 . S
C774 C773 1.392 . S
C774 C775 1.385 . S
C774 C776 1.478 . S
C775 H769 0.930 . S
C775 C771 1.400 . S
C775 C774 1.385 . S
C776 C774 1.478 . S
C776 C778 1.381 . S
C776 C782 1.383 . S
C777 C773 1.495 . S
C777 H783 0.959 . S
C777 H784 0.961 . S
C777 H785 0.960 . S
C778 C776 1.381 . S
C778 C779 1.394 . S
C778 H786 0.930 . S
C779 C778 1.394 . S
C779 C780 1.383 . S
C779 H787 0.929 . S
C780 C779 1.383 . S
C780 C781 1.377 . S
C781 H765 0.930 . S
C781 C780 1.377 . S
C781 C782 1.379 . S
C782 H766 0.931 . S
C782 C776 1.383 . S
C782 C781 1.379 . S
H783 C777 0.959 . S
H784 C777 0.961 . S
H785 C777 0.960 . S
H786 C778 0.930 . S
H787 C779 0.929 . S
H788 C796 0.929 . S
H789 C798 0.930 . S
H790 C800 0.930 . S
H791 C803 0.929 1_554 S
H792 C806 0.930 . S
H793 C808 0.960 . S
H794 C808 0.960 . S
H795 C808 0.960 . S
C796 H788 0.929 . S
C796 C797 1.377 . S
C796 C798 1.384 . S
C797 C796 1.377 . S
C797 C803 1.390 . S
C798 H789 0.930 . S
C798 C796 1.384 . S
C798 C799 1.372 . S
C799 C798 1.372 . S
C799 C800 1.400 . S
C799 C804 1.490 . S
C800 H790 0.930 . S
C800 C799 1.400 . S
C800 C803 1.386 . S
H801 C817 0.930 . S
H802 C818 0.931 . S
C803 H791 0.929 1_556 S
C803 C797 1.390 . S
C803 C800 1.386 . S
C804 C799 1.490 . S
C804 C806 1.395 . S
C804 C807 1.403 . S
H805 C811 0.930 . S
C806 H792 0.930 . S
C806 C804 1.395 . S
C806 C809 1.403 . S
C807 C804 1.403 . S
C807 C808 1.524 . S
C807 C811 1.400 . S
C808 H793 0.960 . S
C808 H794 0.960 . S
C808 H795 0.960 . S
C808 C807 1.524 . S
C809 C806 1.403 . S
C809 C810 1.392 . S
C809 C813 1.495 . S
C810 C809 1.392 . S
C810 C811 1.385 . S
C810 C812 1.478 . S
C811 H805 0.930 . S
C811 C807 1.400 . S
C811 C810 1.385 . S
C812 C810 1.478 . S
C812 C814 1.381 . S
C812 C818 1.383 . S
C813 C809 1.495 . S
C813 H819 0.959 . S
C813 H820 0.961 . S
C813 H821 0.960 . S
C814 C812 1.381 . S
C814 C815 1.394 . S
C814 H822 0.930 . S
C815 C814 1.394 . S
C815 C816 1.383 . S
C815 H823 0.929 . S
C816 C815 1.383 . S
C816 C817 1.377 . S
C817 H801 0.930 . S
C817 C816 1.377 . S
C817 C818 1.379 . S
C818 H802 0.931 . S
C818 C812 1.383 . S
C818 C817 1.379 . S
H819 C813 0.959 . S
H820 C813 0.961 . S
H821 C813 0.960 . S
H822 C814 0.930 . S
H823 C815 0.929 . S
H824 C832 0.929 . S
H825 C834 0.930 . S
H826 C836 0.930 . S
H827 C839 0.929 . S
H828 C842 0.930 . S
H829 C844 0.960 . S
H830 C844 0.960 . S
H831 C844 0.960 . S
C832 H824 0.929 . S
C832 C833 1.377 . S
C832 C834 1.384 . S
C833 C832 1.377 . S
C833 C839 1.390 . S
C834 H825 0.930 . S
C834 C832 1.384 . S
C834 C835 1.372 . S
C835 C834 1.372 . S
C835 C836 1.400 . S
C835 C840 1.490 . S
C836 H826 0.930 . S
C836 C835 1.400 . S
C836 C839 1.386 . S
H837 C853 0.930 . S
H838 C854 0.931 . S
C839 H827 0.929 . S
C839 C833 1.390 . S
C839 C836 1.386 . S
C840 C835 1.490 . S
C840 C842 1.395 . S
C840 C843 1.403 . S
H841 C847 0.930 . S
C842 H828 0.930 . S
C842 C840 1.395 . S
C842 C845 1.403 . S
C843 C840 1.403 . S
C843 C844 1.524 . S
C843 C847 1.400 . S
C844 H829 0.960 . S
C844 H830 0.960 . S
C844 H831 0.960 . S
C844 C843 1.524 . S
C845 C842 1.403 . S
C845 C846 1.392 . S
C845 C849 1.495 . S
C846 C845 1.392 . S
C846 C847 1.385 . S
C846 C848 1.478 . S
C847 H841 0.930 . S
C847 C843 1.400 . S
C847 C846 1.385 . S
C848 C846 1.478 . S
C848 C850 1.381 . S
C848 C854 1.383 . S
C849 C845 1.495 . S
C849 H855 0.959 . S
C849 H856 0.961 . S
C849 H857 0.960 . S
C850 C848 1.381 . S
C850 C851 1.394 . S
C850 H858 0.930 . S
C851 C850 1.394 . S
C851 C852 1.383 . S
C851 H859 0.929 . S
C852 C851 1.383 . S
C852 C853 1.377 . S
C853 H837 0.930 . S
C853 C852 1.377 . S
C853 C854 1.379 . S
C854 H838 0.931 . S
C854 C848 1.383 . S
C854 C853 1.379 . S
H855 C849 0.959 . S
H856 C849 0.961 . S
H857 C849 0.960 . S
H858 C850 0.930 . S
H859 C851 0.929 . S
H860 C868 0.929 . S
H861 C870 0.930 . S
H862 C872 0.930 . S
H863 C875 0.929 . S
H864 C878 0.930 . S
H865 C880 0.960 . S
H866 C880 0.960 . S
H867 C880 0.960 . S
C868 H860 0.929 . S
C868 C869 1.377 . S
C868 C870 1.384 . S
C869 C868 1.377 . S
C869 C875 1.390 . S
C870 H861 0.930 . S
C870 C868 1.384 . S
C870 C871 1.372 . S
C871 C870 1.372 . S
C871 C872 1.400 . S
C871 C876 1.490 . S
C872 H862 0.930 . S
C872 C871 1.400 . S
C872 C875 1.386 . S
H873 C889 0.930 . S
H874 C890 0.931 . S
C875 H863 0.929 . S
C875 C869 1.390 . S
C875 C872 1.386 . S
C876 C871 1.490 . S
C876 C878 1.395 . S
C876 C879 1.403 . S
H877 C883 0.930 . S
C878 H864 0.930 . S
C878 C876 1.395 . S
C878 C881 1.403 . S
C879 C876 1.403 . S
C879 C880 1.524 . S
C879 C883 1.400 . S
C880 H865 0.960 . S
C880 H866 0.960 . S
C880 H867 0.960 . S
C880 C879 1.524 . S
C881 C878 1.403 . S
C881 C882 1.392 . S
C881 C885 1.495 . S
C882 C881 1.392 . S
C882 C883 1.385 . S
C882 C884 1.478 . S
C883 H877 0.930 . S
C883 C879 1.400 . S
C883 C882 1.385 . S
C884 C882 1.478 . S
C884 C886 1.381 . S
C884 C890 1.383 . S
C885 C881 1.495 . S
C885 H891 0.959 . S
C885 H892 0.961 . S
C885 H893 0.960 . S
C886 C884 1.381 . S
C886 C887 1.394 . S
C886 H894 0.930 . S
C887 C886 1.394 . S
C887 C888 1.383 . S
C887 H895 0.929 . S
C888 C887 1.383 . S
C888 C889 1.377 . S
C889 H873 0.930 . S
C889 C888 1.377 . S
C889 C890 1.379 . S
C890 H874 0.931 . S
C890 C884 1.383 . S
C890 C889 1.379 . S
H891 C885 0.959 . S
H892 C885 0.961 . S
H893 C885 0.960 . S
H894 C886 0.930 . S
H895 C887 0.929 . S
H896 C904 0.929 . S
H897 C906 0.930 1_455 S
H898 C908 0.930 . S
H899 C911 0.929 . S
H900 C914 0.930 . S
H901 C916 0.960 . S
H902 C916 0.960 1_565 S
H903 C916 0.960 . S
C904 H896 0.929 . S
C904 C905 1.377 1_565 S
C904 C906 1.384 . S
C905 C904 1.377 1_545 S
C905 C911 1.390 . S
C906 H897 0.930 1_655 S
C906 C904 1.384 . S
C906 C907 1.372 1_565 S
C907 C906 1.372 1_545 S
C907 C908 1.400 . S
C907 C912 1.490 . S
C908 H898 0.930 . S
C908 C907 1.400 . S
C908 C911 1.386 . S
H909 C925 0.930 . S
H910 C926 0.931 . S
C911 H899 0.929 . S
C911 C905 1.390 . S
C911 C908 1.386 . S
C912 C907 1.490 . S
C912 C914 1.395 1_645 S
C912 C915 1.403 . S
H913 C919 0.928 . S
C914 H900 0.930 . S
C914 C912 1.395 1_465 S
C914 C917 1.403 1_556 S
C915 C912 1.403 . S
C915 C916 1.524 . S
C915 C919 1.400 1_546 S
C916 H901 0.960 . S
C916 H902 0.960 1_545 S
C916 H903 0.960 . S
C916 C915 1.524 . S
C917 C914 1.403 1_554 S
C917 C918 1.392 . S
C917 C921 1.495 . S
C918 C917 1.392 . S
C918 C919 1.385 1_455 S
C918 C920 1.478 . S
C919 H913 0.928 . S
C919 C915 1.400 1_564 S
C919 C918 1.385 1_655 S
C920 C918 1.478 . S
C920 C922 1.381 . S
C920 C926 1.383 1_565 S
C921 C917 1.495 . S
C921 H927 0.959 . S
C921 H928 0.961 1_565 S
C921 H929 0.960 . S
C922 C920 1.381 . S
C922 C923 1.394 . S
C922 H930 0.930 . S
C923 C922 1.394 . S
C923 C924 1.383 . S
C923 H931 0.929 . S
C924 C923 1.383 . S
C924 C925 1.377 1_565 S
C925 H909 0.930 . S
C925 C924 1.377 1_545 S
C925 C926 1.379 . S
C926 H910 0.931 . S
C926 C920 1.383 1_545 S
C926 C925 1.379 . S
H927 C921 0.959 . S
H928 C921 0.961 1_545 S
H929 C921 0.960 . S
H930 C922 0.930 . S
H931 C923 0.929 . S
H932 C940 0.929 . S
H933 C942 0.930 . S
H934 C944 0.930 . S
H935 C947 0.929 . S
H936 C950 0.930 . S
H937 C952 0.960 . S
H938 C952 0.960 . S
H939 C952 0.960 . S
C940 H932 0.929 . S
C940 C941 1.377 . S
C940 C942 1.384 . S
C941 C940 1.377 . S
C941 C947 1.390 . S
C942 H933 0.930 . S
C942 C940 1.384 . S
C942 C943 1.372 . S
C943 C942 1.372 . S
C943 C944 1.400 . S
C943 C948 1.490 . S
C944 H934 0.930 . S
C944 C943 1.400 . S
C944 C947 1.386 . S
H945 C961 0.930 . S
H946 C962 0.931 . S
C947 H935 0.929 . S
C947 C941 1.390 . S
C947 C944 1.386 . S
C948 C943 1.490 . S
C948 C950 1.395 . S
C948 C951 1.403 . S
H949 C955 0.930 . S
C950 H936 0.930 . S
C950 C948 1.395 . S
C950 C953 1.403 . S
C951 C948 1.403 . S
C951 C952 1.524 . S
C951 C955 1.400 . S
C952 H937 0.960 . S
C952 H938 0.960 . S
C952 H939 0.960 . S
C952 C951 1.524 . S
C953 C950 1.403 . S
C953 C954 1.392 . S
C953 C957 1.495 . S
C954 C953 1.392 . S
C954 C955 1.385 . S
C954 C956 1.478 . S
C955 H949 0.930 . S
C955 C951 1.400 . S
C955 C954 1.385 . S
C956 C954 1.478 . S
C956 C958 1.381 . S
C956 C962 1.383 . S
C957 C953 1.495 . S
C957 H963 0.959 . S
C957 H964 0.961 . S
C957 H965 0.960 . S
C958 C956 1.381 . S
C958 C959 1.394 . S
C958 H966 0.930 . S
C959 C958 1.394 . S
C959 C960 1.383 . S
C959 H967 0.929 . S
C960 C959 1.383 . S
C960 C961 1.377 . S
C961 H945 0.930 . S
C961 C960 1.377 . S
C961 C962 1.379 . S
C962 H946 0.931 . S
C962 C956 1.383 . S
C962 C961 1.379 . S
H963 C957 0.959 . S
H964 C957 0.961 . S
H965 C957 0.960 . S
H966 C958 0.930 . S
H967 C959 0.929 . S
H968 C976 0.929 . S
H969 C978 0.930 . S
H970 C980 0.930 . S
H971 C983 0.929 . S
H972 C986 0.930 . S
H973 C988 0.960 . S
H974 C988 0.960 . S
H975 C988 0.960 . S
C976 H968 0.929 . S
C976 C977 1.377 1_545 S
C976 C978 1.384 . S
C977 C976 1.377 1_565 S
C977 C983 1.390 . S
C978 H969 0.930 . S
C978 C976 1.384 . S
C978 C979 1.372 1_545 S
C979 C978 1.372 1_565 S
C979 C980 1.400 . S
C979 C984 1.489 . S
C980 H970 0.930 . S
C980 C979 1.400 . S
C980 C983 1.386 . S
H981 C997 0.930 . S
H982 C998 0.931 . S
C983 H971 0.929 . S
C983 C977 1.390 . S
C983 C980 1.386 . S
C984 C979 1.489 . S
C984 C986 1.397 1_565 S
C984 C987 1.401 . S
H985 C991 0.930 . S
C986 H972 0.930 . S
C986 C984 1.397 1_545 S
C986 C989 1.403 . S
C987 C984 1.401 . S
C987 C988 1.524 . S
C987 C991 1.400 . S
C988 H973 0.960 . S
C988 H974 0.960 . S
C988 H975 0.960 . S
C988 C987 1.524 . S
C989 C986 1.403 . S
C989 C990 1.392 . S
C989 C993 1.495 . S
C990 C989 1.392 . S
C990 C991 1.385 1_545 S
C990 C992 1.478 . S
C991 H985 0.930 . S
C991 C987 1.400 . S
C991 C990 1.385 1_565 S
C992 C990 1.478 . S
C992 C994 1.381 . S
C992 C998 1.383 1_545 S
C993 C989 1.495 . S
C993 H999 0.959 . S
C993 H1000 0.961 . S
C993 H1001 0.960 . S
C994 C992 1.381 . S
C994 C995 1.394 . S
C994 H1002 0.930 . S
C995 C994 1.394 . S
C995 C996 1.383 . S
C995 H1003 0.929 . S
C996 C995 1.383 . S
C996 C997 1.377 1_545 S
C997 H981 0.930 . S
C997 C996 1.377 1_565 S
C997 C998 1.379 . S
C998 H982 0.931 . S
C998 C992 1.383 1_565 S
C998 C997 1.379 . S
H999 C993 0.959 . S
H1000 C993 0.961 . S
H1001 C993 0.960 . S
H1002 C994 0.930 . S
H1003 C995 0.929 . S
H1004 C1012 0.929 . S
H1005 C1014 0.930 . S
H1006 C1016 0.930 . S
H1007 C1019 0.929 . S
H1008 C1022 0.930 . S
H1009 C1024 0.960 . S
H1010 C1024 0.960 . S
H1011 C1024 0.960 . S
C1012 H1004 0.929 . S
C1012 C1013 1.377 . S
C1012 C1014 1.384 . S
C1013 C1012 1.377 . S
C1013 C1019 1.390 . S
C1014 H1005 0.930 . S
C1014 C1012 1.384 . S
C1014 C1015 1.372 . S
C1015 C1014 1.372 . S
C1015 C1016 1.400 . S
C1015 C1020 1.490 . S
C1016 H1006 0.930 . S
C1016 C1015 1.400 . S
C1016 C1019 1.386 . S
H1017 C1033 0.930 . S
H1018 C1034 0.931 . S
C1019 H1007 0.929 . S
C1019 C1013 1.390 . S
C1019 C1016 1.386 . S
C1020 C1015 1.490 . S
C1020 C1022 1.395 . S
C1020 C1023 1.403 . S
H1021 C1027 0.930 . S
C1022 H1008 0.930 . S
C1022 C1020 1.395 . S
C1022 C1025 1.403 . S
C1023 C1020 1.403 . S
C1023 C1024 1.524 . S
C1023 C1027 1.400 . S
C1024 H1009 0.960 . S
C1024 H1010 0.960 . S
C1024 H1011 0.960 . S
C1024 C1023 1.524 . S
C1025 C1022 1.403 . S
C1025 C1026 1.392 . S
C1025 C1029 1.495 . S
C1026 C1025 1.392 . S
C1026 C1027 1.385 . S
C1026 C1028 1.478 . S
C1027 H1021 0.930 . S
C1027 C1023 1.400 . S
C1027 C1026 1.385 . S
C1028 C1026 1.478 . S
C1028 C1030 1.381 . S
C1028 C1034 1.383 . S
C1029 C1025 1.495 . S
C1029 H1035 0.959 . S
C1029 H1036 0.961 . S
C1029 H1037 0.960 . S
C1030 C1028 1.381 . S
C1030 C1031 1.394 . S
C1030 H1038 0.930 . S
C1031 C1030 1.394 . S
C1031 C1032 1.383 . S
C1031 H1039 0.929 . S
C1032 C1031 1.383 . S
C1032 C1033 1.377 . S
C1033 H1017 0.930 . S
C1033 C1032 1.377 . S
C1033 C1034 1.379 . S
C1034 H1018 0.931 . S
C1034 C1028 1.383 . S
C1034 C1033 1.379 . S
H1035 C1029 0.959 . S
H1036 C1029 0.961 . S
H1037 C1029 0.960 . S
H1038 C1030 0.930 . S
H1039 C1031 0.929 . S
H1040 C1048 0.929 . S
H1041 C1050 0.930 . S
H1042 C1052 0.930 . S
H1043 C1055 0.929 . S
H1044 C1058 0.930 . S
H1045 C1060 0.960 . S
H1046 C1060 0.960 . S
H1047 C1060 0.960 . S
C1048 H1040 0.929 . S
C1048 C1049 1.377 . S
C1048 C1050 1.384 . S
C1049 C1048 1.377 . S
C1049 C1055 1.390 . S
C1050 H1041 0.930 . S
C1050 C1048 1.384 . S
C1050 C1051 1.372 . S
C1051 C1050 1.372 . S
C1051 C1052 1.400 . S
C1051 C1056 1.490 . S
C1052 H1042 0.930 . S
C1052 C1051 1.400 . S
C1052 C1055 1.386 . S
H1053 C1069 0.930 . S
H1054 C1070 0.931 . S
C1055 H1043 0.929 . S
C1055 C1049 1.390 . S
C1055 C1052 1.386 . S
C1056 C1051 1.490 . S
C1056 C1058 1.395 . S
C1056 C1059 1.403 . S
H1057 C1063 0.930 . S
C1058 H1044 0.930 . S
C1058 C1056 1.395 . S
C1058 C1061 1.403 . S
C1059 C1056 1.403 . S
C1059 C1060 1.524 . S
C1059 C1063 1.400 . S
C1060 H1045 0.960 . S
C1060 H1046 0.960 . S
C1060 H1047 0.960 . S
C1060 C1059 1.524 . S
C1061 C1058 1.403 . S
C1061 C1062 1.392 . S
C1061 C1065 1.495 . S
C1062 C1061 1.392 . S
C1062 C1063 1.385 . S
C1062 C1064 1.478 . S
C1063 H1057 0.930 . S
C1063 C1059 1.400 . S
C1063 C1062 1.385 . S
C1064 C1062 1.478 . S
C1064 C1066 1.381 . S
C1064 C1070 1.383 . S
C1065 C1061 1.495 . S
C1065 H1071 0.959 . S
C1065 H1072 0.961 . S
C1065 H1073 0.960 . S
C1066 C1064 1.381 . S
C1066 C1067 1.394 . S
C1066 H1074 0.930 . S
C1067 C1066 1.394 . S
C1067 C1068 1.383 . S
C1067 H1075 0.929 . S
C1068 C1067 1.383 . S
C1068 C1069 1.377 . S
C1069 H1053 0.930 . S
C1069 C1068 1.377 . S
C1069 C1070 1.379 . S
C1070 H1054 0.931 . S
C1070 C1064 1.383 . S
C1070 C1069 1.379 . S
H1071 C1065 0.959 . S
H1072 C1065 0.961 . S
H1073 C1065 0.960 . S
H1074 C1066 0.930 . S
H1075 C1067 0.929 . S
H1076 C1084 0.929 . S
H1077 C1086 0.930 . S
H1078 C1088 0.930 . S
H1079 C1091 0.929 . S
H1080 C1094 0.930 . S
H1081 C1096 0.960 . S
H1082 C1096 0.960 . S
H1083 C1096 0.960 . S
C1084 H1076 0.929 . S
C1084 C1085 1.377 . S
C1084 C1086 1.384 . S
C1085 C1084 1.377 . S
C1085 C1091 1.390 . S
C1086 H1077 0.930 . S
C1086 C1084 1.384 . S
C1086 C1087 1.372 . S
C1087 C1086 1.372 . S
C1087 C1088 1.400 . S
C1087 C1092 1.490 . S
C1088 H1078 0.930 . S
C1088 C1087 1.400 . S
C1088 C1091 1.386 . S
H1089 C1105 0.930 . S
H1090 C1106 0.931 . S
C1091 H1079 0.929 . S
C1091 C1085 1.390 . S
C1091 C1088 1.386 . S
C1092 C1087 1.490 . S
C1092 C1094 1.395 . S
C1092 C1095 1.403 . S
H1093 C1099 0.930 . S
C1094 H1080 0.930 . S
C1094 C1092 1.395 . S
C1094 C1097 1.403 . S
C1095 C1092 1.403 . S
C1095 C1096 1.524 . S
C1095 C1099 1.400 . S
C1096 H1081 0.960 . S
C1096 H1082 0.960 . S
C1096 H1083 0.960 . S
C1096 C1095 1.524 . S
C1097 C1094 1.403 . S
C1097 C1098 1.392 . S
C1097 C1101 1.495 . S
C1098 C1097 1.392 . S
C1098 C1099 1.385 . S
C1098 C1100 1.478 . S
C1099 H1093 0.930 . S
C1099 C1095 1.400 . S
C1099 C1098 1.385 . S
C1100 C1098 1.478 . S
C1100 C1102 1.381 . S
C1100 C1106 1.383 . S
C1101 C1097 1.495 . S
C1101 H1107 0.959 . S
C1101 H1108 0.961 . S
C1101 H1109 0.960 . S
C1102 C1100 1.381 . S
C1102 C1103 1.394 . S
C1102 H1110 0.930 . S
C1103 C1102 1.394 . S
C1103 C1104 1.383 . S
C1103 H1111 0.929 . S
C1104 C1103 1.383 . S
C1104 C1105 1.377 . S
C1105 H1089 0.930 . S
C1105 C1104 1.377 . S
C1105 C1106 1.379 . S
C1106 H1090 0.931 . S
C1106 C1100 1.383 . S
C1106 C1105 1.379 . S
H1107 C1101 0.959 . S
H1108 C1101 0.961 . S
H1109 C1101 0.960 . S
H1110 C1102 0.930 . S
H1111 C1103 0.929 . S
H1112 C1120 0.929 . S
H1113 C1122 0.930 . S
H1114 C1124 0.930 . S
H1115 C1127 0.929 . S
H1116 C1130 0.930 . S
H1117 C1132 0.960 . S
H1118 C1132 0.960 . S
H1119 C1132 0.960 . S
C1120 H1112 0.929 . S
C1120 C1121 1.377 . S
C1120 C1122 1.384 . S
C1121 C1120 1.377 . S
C1121 C1127 1.390 . S
C1122 H1113 0.930 . S
C1122 C1120 1.384 . S
C1122 C1123 1.372 . S
C1123 C1122 1.372 . S
C1123 C1124 1.400 . S
C1123 C1128 1.490 . S
C1124 H1114 0.930 . S
C1124 C1123 1.400 . S
C1124 C1127 1.386 . S
H1125 C1141 0.930 . S
H1126 C1142 0.931 . S
C1127 H1115 0.929 . S
C1127 C1121 1.390 . S
C1127 C1124 1.386 . S
C1128 C1123 1.490 . S
C1128 C1130 1.395 . S
C1128 C1131 1.403 . S
H1129 C1135 0.930 . S
C1130 H1116 0.930 . S
C1130 C1128 1.395 . S
C1130 C1133 1.403 . S
C1131 C1128 1.403 . S
C1131 C1132 1.524 . S
C1131 C1135 1.400 . S
C1132 H1117 0.960 . S
C1132 H1118 0.960 . S
C1132 H1119 0.960 . S
C1132 C1131 1.524 . S
C1133 C1130 1.403 . S
C1133 C1134 1.392 . S
C1133 C1137 1.495 . S
C1134 C1133 1.392 . S
C1134 C1135 1.385 . S
C1134 C1136 1.478 . S
C1135 H1129 0.930 . S
C1135 C1131 1.400 . S
C1135 C1134 1.385 . S
C1136 C1134 1.478 . S
C1136 C1138 1.381 . S
C1136 C1142 1.383 . S
C1137 C1133 1.495 . S
C1137 H1143 0.959 . S
C1137 H1144 0.961 . S
C1137 H1145 0.960 . S
C1138 C1136 1.381 . S
C1138 C1139 1.394 . S
C1138 H1146 0.930 . S
C1139 C1138 1.394 . S
C1139 C1140 1.383 . S
C1139 H1147 0.929 . S
C1140 C1139 1.383 . S
C1140 C1141 1.377 . S
C1141 H1125 0.930 . S
C1141 C1140 1.377 . S
C1141 C1142 1.379 . S
C1142 H1126 0.931 . S
C1142 C1136 1.383 . S
C1142 C1141 1.379 . S
H1143 C1137 0.959 . S
H1144 C1137 0.961 . S
H1145 C1137 0.960 . S
H1146 C1138 0.930 . S
H1147 C1139 0.929 . S
H1148 C1156 0.929 . S
H1149 C1158 0.930 . S
H1150 C1160 0.930 . S
H1151 C1163 0.929 . S
H1152 C1166 0.930 . S
H1153 C1168 0.960 . S
H1154 C1168 0.960 . S
H1155 C1168 0.960 . S
C1156 H1148 0.929 . S
C1156 C1157 1.377 1_455 S
C1156 C1158 1.384 . S
C1157 C1156 1.377 1_655 S
C1157 C1163 1.390 . S
C1158 H1149 0.930 . S
C1158 C1156 1.384 . S
C1158 C1159 1.372 1_455 S
C1159 C1158 1.372 1_655 S
C1159 C1160 1.400 . S
C1159 C1164 1.490 . S
C1160 H1150 0.930 . S
C1160 C1159 1.400 . S
C1160 C1163 1.386 . S
H1161 C1177 0.930 . S
H1162 C1178 0.931 . S
C1163 H1151 0.929 . S
C1163 C1157 1.390 . S
C1163 C1160 1.386 . S
C1164 C1159 1.490 . S
C1164 C1166 1.395 1_655 S
C1164 C1167 1.403 . S
H1165 C1171 0.930 . S
C1166 H1152 0.930 . S
C1166 C1164 1.395 1_455 S
C1166 C1169 1.403 1_556 S
C1167 C1164 1.403 . S
C1167 C1168 1.524 . S
C1167 C1171 1.400 1_556 S
C1168 H1153 0.960 . S
C1168 H1154 0.960 . S
C1168 H1155 0.960 . S
C1168 C1167 1.524 . S
C1169 C1166 1.403 1_554 S
C1169 C1170 1.392 . S
C1169 C1173 1.495 . S
C1170 C1169 1.392 . S
C1170 C1171 1.385 1_455 S
C1170 C1172 1.478 . S
C1171 H1165 0.930 . S
C1171 C1167 1.400 1_554 S
C1171 C1170 1.385 1_655 S
C1172 C1170 1.478 . S
C1172 C1174 1.381 . S
C1172 C1178 1.383 1_455 S
C1173 C1169 1.495 . S
C1173 H1179 0.959 . S
C1173 H1180 0.961 . S
C1173 H1181 0.960 . S
C1174 C1172 1.381 . S
C1174 C1175 1.394 . S
C1174 H1182 0.930 . S
C1175 C1174 1.394 . S
C1175 C1176 1.383 . S
C1175 H1183 0.929 . S
C1176 C1175 1.383 . S
C1176 C1177 1.377 1_455 S
C1177 H1161 0.930 . S
C1177 C1176 1.377 1_655 S
C1177 C1178 1.379 . S
C1178 H1162 0.931 . S
C1178 C1172 1.383 1_655 S
C1178 C1177 1.379 . S
H1179 C1173 0.959 . S
H1180 C1173 0.961 . S
H1181 C1173 0.960 . S
H1182 C1174 0.930 . S
H1183 C1175 0.929 . S
C329 C2 2.106 . S
C348 C122 2.092 . S
C365 C10 1.501 . S
C384 C42 1.514 . S
C401 C50 0.835 . S
C420 C90 0.798 . S
C437 C82 1.521 . S
C456 C130 1.512 . S
C473 C11 2.108 . S
C492 C211 2.108 . S
C509 C19 1.503 . S
C528 C171 1.504 . S
C545 C179 0.823 . S
C564 C99 0.792 . S
C581 C219 1.508 . S
C600 C91 1.520 . S
C617 C242 2.108 . S
C636 C202 2.108 . S
C653 C162 1.522 . S
C672 C250 1.501 . S
C689 C290 0.838 . S
C708 C170 0.834 . S
C725 C210 1.508 . S
C744 C282 1.517 . S
C761 C131 2.108 . S
C780 C251 2.098 . S
C797 C259 1.504 . S
C816 C51 1.507 . S
C833 C59 0.838 . S
C852 C299 0.863 . S
C869 C139 1.504 . S
C888 C291 1.502 . S
C905 C16 1.545 . S
C924 C7 1.558 . S
C941 C47 1.506 . S
C960 C56 1.514 . S
C977 C96 1.504 . S
C996 C87 1.507 . S
C1013 C136 1.548 . S
C1032 C127 1.550 . S
C1049 C167 1.506 . S
C1068 C176 1.486 . S
C1085 C216 1.546 . S
C1104 C207 1.559 . S
C1121 C247 1.544 . S
C1140 C256 1.555 . S
C1157 C287 1.504 . S
C1176 C296 1.507 . S
