# Generated by pormake.
# Topology cag, (4)-cn, num edge types: 1
# Building blocks:
#     Node 0, Type 0, BuildingBlock: GALJAG_clean_sbu_0, # of connection points: 4
#     Node 1, Type 0, BuildingBlock: GALJAG_clean_sbu_0, # of connection points: 4
#     Node 2, Type 0, BuildingBlock: GALJAG_clean_sbu_0, # of connection points: 4
#     Node 3, Type 0, BuildingBlock: GALJAG_clean_sbu_0, # of connection points: 4
#     Node 4, Type 0, BuildingBlock: GALJAG_clean_sbu_0, # of connection points: 4
#     Node 5, Type 0, BuildingBlock: GALJAG_clean_sbu_0, # of connection points: 4
#     Node 6, Type 0, BuildingBlock: GALJAG_clean_sbu_0, # of connection points: 4
#     Node 7, Type 0, BuildingBlock: GALJAG_clean_sbu_0, # of connection points: 4
#     Node 8, Type 0, BuildingBlock: GALJAG_clean_sbu_0, # of connection points: 4
#     Node 9, Type 0, BuildingBlock: GALJAG_clean_sbu_0, # of connection points: 4
#     Node 10, Type 0, BuildingBlock: GALJAG_clean_sbu_0, # of connection points: 4
#     Node 11, Type 0, BuildingBlock: GALJAG_clean_sbu_0, # of connection points: 4
#     Node 12, Type 0, BuildingBlock: GALJAG_clean_sbu_0, # of connection points: 4
#     Node 13, Type 0, BuildingBlock: GALJAG_clean_sbu_0, # of connection points: 4
#     Node 14, Type 0, BuildingBlock: GALJAG_clean_sbu_0, # of connection points: 4
#     Node 15, Type 0, BuildingBlock: GALJAG_clean_sbu_0, # of connection points: 4
#     Edge 16, Type (0, 0), BuildingBlock: UVAHIK_clean_linker_0, # of connection points: 2
#     Edge 17, Type (0, 0), BuildingBlock: UVAHIK_clean_linker_0, # of connection points: 2
#     Edge 18, Type (0, 0), BuildingBlock: UVAHIK_clean_linker_0, # of connection points: 2
#     Edge 19, Type (0, 0), BuildingBlock: UVAHIK_clean_linker_0, # of connection points: 2
#     Edge 20, Type (0, 0), BuildingBlock: UVAHIK_clean_linker_0, # of connection points: 2
#     Edge 21, Type (0, 0), BuildingBlock: UVAHIK_clean_linker_0, # of connection points: 2
#     Edge 22, Type (0, 0), BuildingBlock: UVAHIK_clean_linker_0, # of connection points: 2
#     Edge 23, Type (0, 0), BuildingBlock: UVAHIK_clean_linker_0, # of connection points: 2
#     Edge 24, Type (0, 0), BuildingBlock: UVAHIK_clean_linker_0, # of connection points: 2
#     Edge 25, Type (0, 0), BuildingBlock: UVAHIK_clean_linker_0, # of connection points: 2
#     Edge 26, Type (0, 0), BuildingBlock: UVAHIK_clean_linker_0, # of connection points: 2
#     Edge 27, Type (0, 0), BuildingBlock: UVAHIK_clean_linker_0, # of connection points: 2
#     Edge 28, Type (0, 0), BuildingBlock: UVAHIK_clean_linker_0, # of connection points: 2
#     Edge 29, Type (0, 0), BuildingBlock: UVAHIK_clean_linker_0, # of connection points: 2
#     Edge 30, Type (0, 0), BuildingBlock: UVAHIK_clean_linker_0, # of connection points: 2
#     Edge 31, Type (0, 0), BuildingBlock: UVAHIK_clean_linker_0, # of connection points: 2
#     Edge 32, Type (0, 0), BuildingBlock: UVAHIK_clean_linker_0, # of connection points: 2
#     Edge 33, Type (0, 0), BuildingBlock: UVAHIK_clean_linker_0, # of connection points: 2
#     Edge 34, Type (0, 0), BuildingBlock: UVAHIK_clean_linker_0, # of connection points: 2
#     Edge 35, Type (0, 0), BuildingBlock: UVAHIK_clean_linker_0, # of connection points: 2
#     Edge 36, Type (0, 0), BuildingBlock: UVAHIK_clean_linker_0, # of connection points: 2
#     Edge 37, Type (0, 0), BuildingBlock: UVAHIK_clean_linker_0, # of connection points: 2
#     Edge 38, Type (0, 0), BuildingBlock: UVAHIK_clean_linker_0, # of connection points: 2
#     Edge 39, Type (0, 0), BuildingBlock: UVAHIK_clean_linker_0, # of connection points: 2
#     Edge 40, Type (0, 0), BuildingBlock: UVAHIK_clean_linker_0, # of connection points: 2
#     Edge 41, Type (0, 0), BuildingBlock: UVAHIK_clean_linker_0, # of connection points: 2
#     Edge 42, Type (0, 0), BuildingBlock: UVAHIK_clean_linker_0, # of connection points: 2
#     Edge 43, Type (0, 0), BuildingBlock: UVAHIK_clean_linker_0, # of connection points: 2
#     Edge 44, Type (0, 0), BuildingBlock: UVAHIK_clean_linker_0, # of connection points: 2
#     Edge 45, Type (0, 0), BuildingBlock: UVAHIK_clean_linker_0, # of connection points: 2
#     Edge 46, Type (0, 0), BuildingBlock: UVAHIK_clean_linker_0, # of connection points: 2
#     Edge 47, Type (0, 0), BuildingBlock: UVAHIK_clean_linker_0, # of connection points: 2
# Relax obj value: 0.084
# Max RMSD: 0.168
# Mean RMSD: 0.142
data_MOF--net-cag--node1-GALJAG_clean_sbu_0--edge1-UVAHIK_clean_linker_0
_symmetry_space_group_name_H-M    P1
_symmetry_Int_Tables_number       1
_symmetry_cell_setting            triclinic
loop_
_symmetry_equiv_pos_as_xyz
'x, y, z'
_cell_length_a     60.480767
_cell_length_b     64.646414
_cell_length_c     49.938823
_cell_angle_alpha  89.998274
_cell_angle_beta   90.018481
_cell_angle_gamma 90.026035
loop_
_atom_site_label
_atom_site_type_symbol
_atom_site_fract_x
_atom_site_fract_y
_atom_site_fract_z
_atom_type_partial_charge
In0 In 0.32736 0.13922 0.0786 0.0
O1 O 0.31845 0.12413 0.11859 0.0
O2 O 0.30777 0.15493 0.11192 0.0
C3 C 0.32285 0.1033 0.05151 0.0
C4 C 0.30584 0.16841 0.05012 0.0
C5 C 0.37123 0.14549 0.08551 0.0
O6 O 0.30868 0.10962 0.06813 0.0
O7 O 0.33913 0.11524 0.04826 0.0
O8 O 0.36064 0.15307 0.06609 0.0
O9 O 0.35969 0.13498 0.1015 0.0
C10 C 0.30822 0.13964 0.12753 0.0
O11 O 0.32089 0.1727 0.06673 0.0
O12 O 0.30189 0.14935 0.04751 0.0
In13 In 0.16579 0.85542 0.5754 0.0
O14 O 0.17335 0.82162 0.56593 0.0
O15 O 0.19082 0.84466 0.54422 0.0
C16 C 0.12183 0.84836 0.57913 0.0
C17 C 0.19028 0.8546 0.62055 0.0
C18 C 0.16441 0.89401 0.55483 0.0
O19 O 0.13282 0.8441 0.55839 0.0
O20 O 0.13304 0.85594 0.59801 0.0
O21 O 0.16487 0.8905 0.57965 0.0
O22 O 0.16466 0.87805 0.54031 0.0
C23 C 0.18776 0.82564 0.54841 0.0
O24 O 0.19617 0.86433 0.59985 0.0
O25 O 0.17202 0.84529 0.61849 0.0
In26 In 0.32711 0.8605 0.91952 0.0
O27 O 0.32463 0.82772 0.93651 0.0
O28 O 0.30099 0.8498 0.94941 0.0
C29 C 0.37143 0.8546 0.9175 0.0
C30 C 0.30784 0.85917 0.87068 0.0
C31 C 0.32077 0.89844 0.94056 0.0
O32 O 0.35798 0.84263 0.90598 0.0
O33 O 0.36253 0.86932 0.92998 0.0
O34 O 0.31666 0.89437 0.91633 0.0
O35 O 0.32784 0.88335 0.95412 0.0
C36 C 0.3078 0.83142 0.95063 0.0
O37 O 0.32661 0.86719 0.87445 0.0
O38 O 0.29885 0.85202 0.89146 0.0
In39 In 0.16458 0.13745 0.42179 0.0
O40 O 0.19242 0.12574 0.39506 0.0
O41 O 0.17262 0.15041 0.38041 0.0
C42 C 0.16307 0.09943 0.4439 0.0
C43 C 0.18732 0.16673 0.44884 0.0
C44 C 0.12063 0.14401 0.41696 0.0
O45 O 0.16296 0.10239 0.41894 0.0
O46 O 0.1639 0.11571 0.45784 0.0
O47 O 0.13122 0.14838 0.43798 0.0
O48 O 0.13223 0.13653 0.39837 0.0
C49 C 0.1886 0.13828 0.37628 0.0
O50 O 0.17152 0.17097 0.43329 0.0
O51 O 0.19143 0.14769 0.45111 0.0
In52 In 0.6523 0.85783 0.91126 0.0
O53 O 0.67653 0.84443 0.94129 0.0
O54 O 0.65941 0.82326 0.91614 0.0
C55 C 0.65178 0.89565 0.93451 0.0
C56 C 0.67748 0.85997 0.86674 0.0
C57 C 0.6085 0.84952 0.90946 0.0
O58 O 0.65272 0.8791 0.94779 0.0
O59 O 0.651 0.89316 0.90951 0.0
O60 O 0.61892 0.8569 0.88978 0.0
O61 O 0.62022 0.84607 0.92986 0.0
C62 C 0.67346 0.82584 0.93455 0.0
O63 O 0.65729 0.85502 0.86598 0.0
O64 O 0.68483 0.86388 0.88982 0.0
In65 In 0.84004 0.1314 0.40386 0.0
O66 O 0.83492 0.13663 0.35901 0.0
O67 O 0.80934 0.1216 0.38074 0.0
C68 C 0.88379 0.13984 0.40267 0.0
C69 C 0.81753 0.16308 0.42602 0.0
C70 C 0.84155 0.09444 0.42906 0.0
O71 O 0.87394 0.13092 0.38361 0.0
O72 O 0.87153 0.1447 0.42208 0.0
O73 O 0.83969 0.11135 0.44143 0.0
O74 O 0.84262 0.09615 0.40394 0.0
C75 C 0.81596 0.12846 0.35851 0.0
O76 O 0.81449 0.14447 0.43268 0.0
O77 O 0.83211 0.16578 0.40829 0.0
In78 In 0.65219 0.13495 0.07961 0.0
O79 O 0.67471 0.14888 0.04793 0.0
O80 O 0.65559 0.16966 0.0713 0.0
C81 C 0.65496 0.097 0.05742 0.0
C82 C 0.67745 0.1322 0.12414 0.0
C83 C 0.60807 0.14159 0.08211 0.0
O84 O 0.65522 0.11342 0.04376 0.0
O85 O 0.65347 0.0997 0.08239 0.0
O86 O 0.62121 0.14857 0.09954 0.0
O87 O 0.61722 0.13165 0.06348 0.0
C88 C 0.66982 0.16741 0.05306 0.0
O89 O 0.65681 0.12929 0.12461 0.0
O90 O 0.68519 0.13637 0.10135 0.0
In91 In 0.84108 0.86023 0.58804 0.0
O92 O 0.81527 0.84638 0.5602 0.0
O93 O 0.83445 0.82558 0.58357 0.0
C94 C 0.84233 0.89737 0.56319 0.0
C95 C 0.81656 0.86331 0.63301 0.0
C96 C 0.8848 0.85178 0.5892 0.0
O97 O 0.84036 0.88055 0.55067 0.0
O98 O 0.84365 0.8955 0.58826 0.0
O99 O 0.87469 0.85942 0.60897 0.0
O100 O 0.87281 0.84818 0.56907 0.0
C101 C 0.81919 0.82787 0.56658 0.0
O102 O 0.83632 0.85701 0.63333 0.0
O103 O 0.8094 0.86826 0.61019 0.0
In104 In 0.83337 0.63858 0.07761 0.0
O105 O 0.81046 0.62388 0.10844 0.0
O106 O 0.82283 0.65394 0.11676 0.0
C107 C 0.83467 0.60074 0.05497 0.0
C108 C 0.80884 0.66659 0.05064 0.0
C109 C 0.87722 0.64636 0.08141 0.0
O110 O 0.83743 0.60364 0.07973 0.0
O111 O 0.83135 0.61699 0.04152 0.0
O112 O 0.86682 0.64743 0.05957 0.0
O113 O 0.86548 0.64157 0.10131 0.0
C114 C 0.81097 0.639 0.12436 0.0
O115 O 0.82662 0.67123 0.06241 0.0
O116 O 0.80359 0.64775 0.05211 0.0
In117 In 0.66632 0.35535 0.57153 0.0
O118 O 0.67258 0.36912 0.61294 0.0
O119 O 0.68955 0.34147 0.60262 0.0
C120 C 0.66965 0.39257 0.54703 0.0
C121 C 0.68769 0.32597 0.5432 0.0
C122 C 0.62284 0.34714 0.57864 0.0
O123 O 0.6827 0.38686 0.56525 0.0
O124 O 0.65515 0.37941 0.54084 0.0
O125 O 0.63248 0.34464 0.55651 0.0
O126 O 0.63514 0.35357 0.59722 0.0
C127 C 0.68611 0.35528 0.61995 0.0
O128 O 0.6723 0.32189 0.55942 0.0
O129 O 0.69217 0.34497 0.54098 0.0
In130 In 0.8271 0.3592 0.91623 0.0
O131 O 0.81961 0.3257 0.92735 0.0
O132 O 0.79964 0.34907 0.94478 0.0
C133 C 0.87103 0.3526 0.91136 0.0
C134 C 0.80402 0.3584 0.87005 0.0
C135 C 0.82875 0.39709 0.93876 0.0
O136 O 0.8604 0.34778 0.93218 0.0
O137 O 0.85949 0.36055 0.89304 0.0
O138 O 0.82724 0.39433 0.91383 0.0
O139 O 0.8294 0.38069 0.95246 0.0
C140 C 0.80354 0.33 0.94242 0.0
O141 O 0.79932 0.37045 0.88908 0.0
O142 O 0.82041 0.34679 0.87427 0.0
In143 In 0.66714 0.63768 0.41894 0.0
O144 O 0.67057 0.6691 0.43924 0.0
O145 O 0.69692 0.64764 0.44385 0.0
C146 C 0.62363 0.64681 0.41588 0.0
C147 C 0.68912 0.63832 0.3717 0.0
C148 C 0.66701 0.59937 0.44049 0.0
O149 O 0.63343 0.64392 0.43787 0.0
O150 O 0.63582 0.64536 0.39549 0.0
O151 O 0.65652 0.60388 0.41946 0.0
O152 O 0.6775 0.61424 0.45083 0.0
C153 C 0.68943 0.66542 0.44896 0.0
O154 O 0.68476 0.62184 0.38404 0.0
O155 O 0.68232 0.6545 0.38305 0.0
In156 In 0.15193 0.36068 0.9084 0.0
O157 O 0.17562 0.34743 0.93924 0.0
O158 O 0.15948 0.32622 0.91325 0.0
C159 C 0.15075 0.39822 0.93228 0.0
C160 C 0.17758 0.36271 0.8643 0.0
C161 C 0.10817 0.35275 0.90451 0.0
O162 O 0.15042 0.38152 0.94527 0.0
O163 O 0.15166 0.39602 0.90724 0.0
O164 O 0.11909 0.36102 0.88585 0.0
O165 O 0.11937 0.34821 0.92497 0.0
C166 C 0.17304 0.32886 0.93217 0.0
O167 O 0.15762 0.35702 0.8634 0.0
O168 O 0.18448 0.36746 0.88733 0.0
In169 In 0.34405 0.63324 0.41033 0.0
O170 O 0.33999 0.63207 0.36488 0.0
O171 O 0.31154 0.62677 0.38887 0.0
C172 C 0.38726 0.6439 0.40891 0.0
C173 C 0.32175 0.66508 0.43257 0.0
C174 C 0.34634 0.59563 0.43392 0.0
O175 O 0.37609 0.64059 0.38801 0.0
O176 O 0.37656 0.64214 0.43045 0.0
O177 O 0.34364 0.61214 0.44688 0.0
O178 O 0.34791 0.598 0.40894 0.0
C179 C 0.31953 0.62826 0.36563 0.0
O180 O 0.31907 0.64653 0.43959 0.0
O181 O 0.33596 0.66774 0.41439 0.0
In182 In 0.15746 0.6343 0.08618 0.0
O183 O 0.18265 0.64857 0.05787 0.0
O184 O 0.16453 0.669 0.08288 0.0
C185 C 0.1552 0.59705 0.06175 0.0
C186 C 0.18246 0.62924 0.13046 0.0
C187 C 0.11403 0.64389 0.08808 0.0
O188 O 0.15826 0.61368 0.04912 0.0
O189 O 0.15329 0.59917 0.08673 0.0
O190 O 0.125 0.63906 0.10864 0.0
O191 O 0.12504 0.64417 0.06663 0.0
C192 C 0.17926 0.66695 0.06519 0.0
O193 O 0.1624 0.63453 0.13156 0.0
O194 O 0.18977 0.62633 0.10713 0.0
In195 In 0.34312 0.35929 0.58734 0.0
O196 O 0.33784 0.35681 0.63252 0.0
O197 O 0.31069 0.36644 0.60854 0.0
C198 C 0.38657 0.35 0.59068 0.0
C199 C 0.32129 0.32755 0.56431 0.0
C200 C 0.34541 0.39673 0.56327 0.0
O201 O 0.37583 0.35747 0.61005 0.0
O202 O 0.37534 0.34699 0.56977 0.0
O203 O 0.34455 0.38001 0.55036 0.0
O204 O 0.34509 0.39461 0.58835 0.0
C205 C 0.31783 0.36232 0.63165 0.0
O206 O 0.31854 0.34614 0.55743 0.0
O207 O 0.33532 0.32485 0.58269 0.0
C208 C 0.27635 0.17901 0.01774 0.0
C209 C 0.29294 0.1845 0.03612 0.0
C210 C 0.26321 0.19422 0.00581 0.0
C211 C 0.24336 0.24722 0.01689 0.0
H212 H 0.22899 0.24607 0.94122 0.0
C213 C 0.20155 0.31595 0.96419 0.0
C214 C 0.18557 0.31174 0.94452 0.0
C215 C 0.21404 0.29996 0.9753 0.0
C216 C 0.23259 0.24645 0.96246 0.0
H217 H 0.30912 0.21019 0.056 0.0
H218 H 0.28624 0.23675 0.03513 0.0
H219 H 0.25241 0.21903 0.96023 0.0
H220 H 0.16992 0.28751 0.92125 0.0
H221 H 0.19153 0.25945 0.94102 0.0
H222 H 0.2235 0.27449 0.01927 0.0
C223 C 0.28323 0.22068 0.03015 0.0
C224 C 0.24606 0.23099 0.97331 0.0
C225 C 0.29643 0.20549 0.04195 0.0
C226 C 0.18216 0.2912 0.93636 0.0
C227 C 0.19464 0.27516 0.94755 0.0
C228 C 0.22984 0.26259 0.00609 0.0
C229 C 0.26633 0.2152 0.01216 0.0
C230 C 0.25173 0.23132 0.0006 0.0
C231 C 0.21079 0.27938 0.96709 0.0
C232 C 0.22444 0.2625 0.9787 0.0
H233 H 0.27327 0.16293 0.01289 0.0
H234 H 0.25022 0.18953 0.99216 0.0
H235 H 0.2471 0.24766 0.03809 0.0
H236 H 0.20463 0.33165 0.97078 0.0
H237 H 0.22657 0.30381 0.98998 0.0
C238 C 0.29262 0.67789 0.46377 0.0
C239 C 0.30875 0.68214 0.44432 0.0
C240 C 0.27987 0.69381 0.47459 0.0
C241 C 0.26074 0.74702 0.46137 0.0
H242 H 0.24697 0.74635 0.53721 0.0
C243 C 0.21685 0.81469 0.51576 0.0
C244 C 0.20073 0.8094 0.53482 0.0
C245 C 0.22996 0.7994 0.50397 0.0
C246 C 0.25047 0.74664 0.51594 0.0
H247 H 0.3243 0.70639 0.42099 0.0
H248 H 0.30214 0.73435 0.44017 0.0
H249 H 0.27059 0.71953 0.51845 0.0
H250 H 0.18535 0.78395 0.55609 0.0
H251 H 0.20813 0.75723 0.5354 0.0
H252 H 0.24062 0.77422 0.45897 0.0
C253 C 0.29918 0.71864 0.44681 0.0
C254 C 0.26402 0.73127 0.50519 0.0
C255 C 0.31196 0.70267 0.43595 0.0
C256 C 0.1977 0.7885 0.54152 0.0
C257 C 0.21083 0.77322 0.5298 0.0
C258 C 0.24721 0.76244 0.47217 0.0
C259 C 0.28297 0.71437 0.46625 0.0
C260 C 0.2692 0.73119 0.47775 0.0
C261 C 0.22726 0.77851 0.5111 0.0
C262 C 0.24181 0.76233 0.49954 0.0
H263 H 0.28969 0.6622 0.47052 0.0
H264 H 0.2673 0.68993 0.4892 0.0
H265 H 0.26419 0.74725 0.44009 0.0
H266 H 0.21958 0.8307 0.51023 0.0
H267 H 0.24259 0.80398 0.48979 0.0
C268 C 0.27794 0.82041 0.98216 0.0
C269 C 0.29611 0.81525 0.96598 0.0
C270 C 0.26585 0.80497 0.99515 0.0
C271 C 0.26784 0.74966 0.01525 0.0
H272 H 0.20391 0.75456 0.0148 0.0
C273 C 0.2102 0.68088 0.03749 0.0
C274 C 0.19217 0.68451 0.05458 0.0
C275 C 0.22302 0.69733 0.02815 0.0
C276 C 0.22175 0.7531 0.01535 0.0
H277 H 0.31615 0.78997 0.95108 0.0
H278 H 0.29484 0.76297 0.9733 0.0
H279 H 0.22645 0.7824 0.99633 0.0
H280 H 0.17324 0.70816 0.07507 0.0
H281 H 0.19559 0.73701 0.05849 0.0
H282 H 0.26303 0.72011 0.03372 0.0
C283 C 0.29011 0.77895 0.97637 0.0
C284 C 0.23469 0.76906 0.00484 0.0
C285 C 0.30227 0.79441 0.96351 0.0
C286 C 0.18703 0.70493 0.06189 0.0
C287 C 0.19977 0.72142 0.05235 0.0
C288 C 0.25489 0.73365 0.02559 0.0
C289 C 0.27159 0.78402 0.99211 0.0
C290 C 0.25789 0.76747 0.00448 0.0
C291 C 0.21799 0.71776 0.03553 0.0
C292 C 0.23171 0.73513 0.02555 0.0
H293 H 0.27288 0.83638 0.98453 0.0
H294 H 0.25193 0.80946 0.00748 0.0
H295 H 0.28566 0.74808 0.01574 0.0
H296 H 0.21456 0.6653 0.03151 0.0
H297 H 0.23678 0.69406 0.01492 0.0
C298 C 0.29199 0.31469 0.53329 0.0
C299 C 0.30852 0.31045 0.55226 0.0
C300 C 0.27939 0.2987 0.52237 0.0
C301 C 0.26186 0.24479 0.53479 0.0
H302 H 0.24557 0.24668 0.45971 0.0
C303 C 0.21779 0.17737 0.47984 0.0
C304 C 0.20059 0.18283 0.46229 0.0
C305 C 0.23106 0.19264 0.49147 0.0
C306 C 0.24981 0.24604 0.48077 0.0
H307 H 0.325 0.28614 0.57451 0.0
H308 H 0.30319 0.25807 0.55507 0.0
H309 H 0.26918 0.27364 0.47826 0.0
H310 H 0.18353 0.20852 0.4435 0.0
H311 H 0.20667 0.23515 0.46384 0.0
H312 H 0.24253 0.21706 0.53713 0.0
C313 C 0.29974 0.27382 0.54895 0.0
C314 C 0.26333 0.26149 0.49141 0.0
C315 C 0.31233 0.28986 0.55996 0.0
C316 C 0.1967 0.20384 0.45691 0.0
C317 C 0.21003 0.21908 0.46841 0.0
C318 C 0.2484 0.22927 0.52408 0.0
C319 C 0.28307 0.27807 0.53008 0.0
C320 C 0.26938 0.26115 0.5186 0.0
C321 C 0.22747 0.21363 0.48563 0.0
C322 C 0.24209 0.22983 0.49701 0.0
H323 H 0.28859 0.33043 0.52708 0.0
H324 H 0.26646 0.30257 0.50822 0.0
H325 H 0.26596 0.24421 0.55588 0.0
H326 H 0.22118 0.16129 0.48434 0.0
H327 H 0.24447 0.18797 0.50452 0.0
C328 C 0.77605 0.67611 0.02263 0.0
C329 C 0.79481 0.68216 0.03729 0.0
C330 C 0.76224 0.69098 0.01105 0.0
C331 C 0.74537 0.74505 0.01855 0.0
H332 H 0.72521 0.74051 0.94507 0.0
C333 C 0.7032 0.81289 0.96477 0.0
C334 C 0.68594 0.80865 0.94679 0.0
C335 C 0.71555 0.79682 0.9759 0.0
C336 C 0.7304 0.74185 0.96575 0.0
H337 H 0.81399 0.70844 0.05107 0.0
H338 H 0.78981 0.73437 0.03101 0.0
H339 H 0.74873 0.7135 0.96401 0.0
H340 H 0.66785 0.78429 0.92655 0.0
H341 H 0.68914 0.75608 0.9465 0.0
H342 H 0.72695 0.77319 0.02058 0.0
C343 C 0.78574 0.71816 0.02857 0.0
C344 C 0.74393 0.72641 0.97654 0.0
C345 C 0.79964 0.70331 0.0399 0.0
C346 C 0.68112 0.788 0.94032 0.0
C347 C 0.69341 0.77187 0.95162 0.0
C348 C 0.73172 0.76037 0.00788 0.0
C349 C 0.76682 0.71215 0.01419 0.0
C350 C 0.75177 0.72801 0.00294 0.0
C351 C 0.71083 0.7761 0.9695 0.0
C352 C 0.72429 0.75912 0.98124 0.0
H353 H 0.77193 0.65991 0.0203 0.0
H354 H 0.7477 0.68593 0.00019 0.0
H355 H 0.75085 0.74648 0.03913 0.0
H356 H 0.70741 0.82867 0.97 0.0
H357 H 0.7291 0.80071 0.98917 0.0
C358 C 0.80902 0.20083 0.43044 0.0
C359 C 0.8047 0.18025 0.43778 0.0
C360 C 0.79662 0.217 0.44138 0.0
C361 C 0.76018 0.22953 0.49864 0.0
H362 H 0.74099 0.27499 0.4536 0.0
C363 C 0.69571 0.28873 0.53426 0.0
C364 C 0.70028 0.30967 0.52921 0.0
C365 C 0.70844 0.27324 0.52239 0.0
C366 C 0.74641 0.26249 0.46647 0.0
H367 H 0.784 0.1604 0.4622 0.0
H368 H 0.76217 0.18851 0.48099 0.0
H369 H 0.76357 0.24738 0.4345 0.0
H370 H 0.72142 0.33085 0.50734 0.0
H371 H 0.74371 0.30372 0.48653 0.0
H372 H 0.74288 0.24453 0.53054 0.0
C373 C 0.77536 0.19226 0.46715 0.0
C374 C 0.75937 0.2467 0.45556 0.0
C375 C 0.78778 0.17613 0.45627 0.0
C376 C 0.71751 0.31483 0.51157 0.0
C377 C 0.73021 0.2993 0.49959 0.0
C378 C 0.74717 0.24525 0.5095 0.0
C379 C 0.77963 0.21289 0.45986 0.0
C380 C 0.76632 0.22998 0.4715 0.0
C381 C 0.72597 0.27836 0.50514 0.0
C382 C 0.74004 0.26185 0.49351 0.0
H383 H 0.82201 0.20446 0.41626 0.0
H384 H 0.80051 0.23273 0.43559 0.0
H385 H 0.7656 0.2171 0.51161 0.0
H386 H 0.68249 0.28429 0.54771 0.0
H387 H 0.70456 0.25723 0.52673 0.0
C388 C 0.79338 0.29294 0.94944 0.0
C389 C 0.78963 0.31394 0.95501 0.0
C390 C 0.7794 0.27778 0.95992 0.0
C391 C 0.73905 0.26752 0.01341 0.0
H392 H 0.71985 0.2234 0.96617 0.0
C393 C 0.67605 0.20546 0.04714 0.0
C394 C 0.68105 0.18499 0.03995 0.0
C395 C 0.68789 0.22195 0.03602 0.0
C396 C 0.7252 0.23551 0.9797 0.0
H397 H 0.76862 0.33554 0.97633 0.0
H398 H 0.7442 0.30898 0.99476 0.0
H399 H 0.74388 0.2506 0.949 0.0
H400 H 0.70205 0.1657 0.01516 0.0
H401 H 0.72283 0.19433 0.99604 0.0
H402 H 0.72066 0.25225 0.04424 0.0
C403 C 0.75798 0.30426 0.98235 0.0
C404 C 0.73898 0.25108 0.96985 0.0
C405 C 0.77192 0.31946 0.97174 0.0
C406 C 0.69776 0.18133 0.02103 0.0
C407 C 0.7096 0.19776 0.00995 0.0
C408 C 0.72533 0.25187 0.02331 0.0
C409 C 0.76143 0.28328 0.97629 0.0
C410 C 0.74623 0.26714 0.98666 0.0
C411 C 0.70496 0.21826 0.01749 0.0
C412 C 0.71842 0.23557 0.00662 0.0
H413 H 0.80692 0.28822 0.93665 0.0
H414 H 0.78267 0.26171 0.95524 0.0
H415 H 0.74452 0.2796 0.0269 0.0
H416 H 0.66322 0.20874 0.06166 0.0
H417 H 0.68372 0.23757 0.04198 0.0
C418 C 0.78717 0.81412 0.54056 0.0
C419 C 0.80636 0.81038 0.55565 0.0
C420 C 0.77453 0.79768 0.53088 0.0
C421 C 0.77745 0.7432 0.51197 0.0
H422 H 0.71372 0.74467 0.52036 0.0
C423 C 0.72214 0.67571 0.4766 0.0
C424 C 0.70214 0.68103 0.46409 0.0
C425 C 0.73468 0.69075 0.48981 0.0
C426 C 0.73146 0.74411 0.51757 0.0
H427 H 0.82753 0.78654 0.5722 0.0
H428 H 0.80552 0.7577 0.55485 0.0
H429 H 0.73622 0.77247 0.53897 0.0
H430 H 0.67946 0.70616 0.45572 0.0
H431 H 0.70152 0.73248 0.4781 0.0
H432 H 0.77276 0.71521 0.4899 0.0
C433 C 0.80029 0.77338 0.55064 0.0
C434 C 0.74434 0.76001 0.52832 0.0
C435 C 0.81282 0.78986 0.56061 0.0
C436 C 0.69476 0.70159 0.46532 0.0
C437 C 0.70737 0.71665 0.47831 0.0
C438 C 0.76456 0.72739 0.50098 0.0
C439 C 0.78093 0.77715 0.53584 0.0
C440 C 0.76743 0.7598 0.52544 0.0
C441 C 0.72757 0.71146 0.49059 0.0
C442 C 0.74138 0.72773 0.50345 0.0
H443 H 0.78177 0.82978 0.53645 0.0
H444 H 0.75983 0.80102 0.51926 0.0
H445 H 0.79521 0.74277 0.50926 0.0
H446 H 0.72818 0.65994 0.47608 0.0
H447 H 0.74995 0.68612 0.49942 0.0
C448 C 0.30217 0.07069 0.04137 0.0
C449 C 0.321 0.08313 0.03783 0.0
C450 C 0.30101 0.05109 0.02963 0.0
C451 C 0.33674 0.00931 0.00574 0.0
H452 H 0.28371 0.98874 0.97105 0.0
C453 C 0.30961 0.93562 0.93662 0.0
C454 C 0.31858 0.91942 0.95192 0.0
C455 C 0.30868 0.9557 0.947 0.0
C456 C 0.29865 0.99433 0.98059 0.0
H457 H 0.35315 0.08506 0.01878 0.0
H458 H 0.35114 0.05081 -0.00166 0.0
H459 H 0.28456 0.02416 0.98839 0.0
H460 H 0.33316 0.91139 0.99021 0.0
H461 H 0.33162 0.94643 0.00825 0.0
H462 H 0.35087 0.97959 -0.00205 0.0
C463 C 0.33735 0.05615 0.01034 0.0
C464 C 0.29908 0.01451 0.99068 0.0
C465 C 0.33845 0.07579 0.02192 0.0
C466 C 0.32621 0.92358 0.97793 0.0
C467 C 0.32544 0.94365 0.9882 0.0
C468 C 0.33625 0.98912 0.99589 0.0
C469 C 0.31872 0.04351 0.0143 0.0
C470 C 0.31817 0.02221 0.0033 0.0
C471 C 0.31688 0.95995 0.97275 0.0
C472 C 0.3172 0.98141 0.98323 0.0
H473 H 0.28847 0.07596 0.05354 0.0
H474 H 0.28652 0.04163 0.03319 0.0
H475 H 0.3516 0.01474 0.01562 0.0
H476 H 0.30358 0.93285 0.91651 0.0
H477 H 0.30212 0.96799 0.93459 0.0
C478 C 0.16321 0.91833 0.51589 0.0
C479 C 0.16373 0.91516 0.54371 0.0
C480 C 0.16265 0.93836 0.50542 0.0
C481 C 0.17551 0.99254 0.52251 0.0
H482 H 0.13739 0.00501 0.46219 0.0
C483 C 0.16264 0.07586 0.48366 0.0
C484 C 0.16247 0.07853 0.45576 0.0
C485 C 0.16232 0.05601 0.49476 0.0
C486 C 0.14828 0.00173 0.47887 0.0
H487 H 0.16397 0.93041 0.58238 0.0
H488 H 0.16282 0.96538 0.5641 0.0
H489 H 0.1378 0.97014 0.48079 0.0
H490 H 0.16184 0.06257 0.41756 0.0
H491 H 0.1615 0.02796 0.4369 0.0
H492 H 0.18607 0.0241 0.52052 0.0
C493 C 0.1631 0.95241 0.55037 0.0
C494 C 0.14852 0.98175 0.48952 0.0
C495 C 0.16364 0.93238 0.56084 0.0
C496 C 0.1619 0.061 0.43916 0.0
C497 C 0.16158 0.04117 0.45024 0.0
C498 C 0.17528 0.01252 0.51185 0.0
C499 C 0.16262 0.95563 0.52254 0.0
C500 C 0.16218 0.97692 0.51141 0.0
C501 C 0.16181 0.03844 0.47816 0.0
C502 C 0.16172 0.01732 0.48986 0.0
H503 H 0.16332 0.90533 0.5022 0.0
H504 H 0.16256 0.94033 0.48388 0.0
H505 H 0.18645 0.98924 0.53914 0.0
H506 H 0.16302 0.0891 0.49694 0.0
H507 H 0.16224 0.05443 0.51635 0.0
C508 C 0.65164 0.93425 0.93147 0.0
C509 C 0.65189 0.91626 0.94722 0.0
C510 C 0.65208 0.95376 0.94349 0.0
C511 C 0.66701 0.98017 0.0066 0.0
H512 H 0.63051 0.02434 0.97824 0.0
C513 C 0.65534 0.05839 0.06097 0.0
C514 C 0.65558 0.07628 0.04502 0.0
C515 C 0.65524 0.0388 0.04913 0.0
C516 C 0.64098 0.01222 0.98621 0.0
H517 H 0.65263 0.90453 0.98788 0.0
H518 H 0.6531 0.93859 0.00891 0.0
H519 H 0.62936 0.99024 0.95743 0.0
H520 H 0.65616 0.08774 0.00421 0.0
H521 H 0.6561 0.05356 0.98355 0.0
H522 H 0.67854 0.00216 0.03547 0.0
C523 C 0.6529 0.93765 0.98726 0.0
C524 C 0.64033 0.99269 0.97429 0.0
C525 C 0.65249 0.91814 0.97523 0.0
C526 C 0.65592 0.07422 0.01703 0.0
C527 C 0.65574 0.05465 0.00519 0.0
C528 C 0.66763 -0.0003 0.01856 0.0
C529 C 0.65275 0.95569 0.97153 0.0
C530 C 0.65336 0.97644 0.98432 0.0
C531 C 0.65529 0.03672 0.0211 0.0
C532 C 0.65464 0.01595 0.00847 0.0
H533 H 0.65126 0.93328 0.90982 0.0
H534 H 0.65223 0.96734 0.93079 0.0
H535 H 0.67751 0.96807 0.01456 0.0
H536 H 0.65504 0.05951 0.08261 0.0
H537 H 0.65467 0.02528 0.06193 0.0
C538 C 0.84303 0.05578 0.42818 0.0
C539 C 0.84231 0.07428 0.4429 0.0
C540 C 0.84352 0.0367 0.44131 0.0
C541 C 0.83059 0.01218 0.50635 0.0
H542 H 0.86742 0.96777 0.47929 0.0
C543 C 0.84397 0.93602 0.56452 0.0
C544 C 0.84294 0.91764 0.54958 0.0
C545 C 0.84431 0.9552 0.55163 0.0
C546 C 0.85691 0.97997 0.48694 0.0
H547 H 0.84179 0.08736 0.48287 0.0
H548 H 0.843 0.05409 0.50581 0.0
H549 H 0.86736 0.00118 0.45658 0.0
H550 H 0.84158 0.90487 0.50946 0.0
H551 H 0.84212 0.93838 0.48693 0.0
H552 H 0.82021 0.99097 0.53678 0.0
C553 C 0.84279 0.05427 0.48413 0.0
C554 C 0.85684 -0.0009 0.47392 0.0
C555 C 0.84223 0.07334 0.47099 0.0
C556 C 0.8424 0.91879 0.5215 0.0
C557 C 0.84283 0.93796 0.5086 0.0
C558 C 0.83071 0.99307 0.51942 0.0
C559 C 0.84337 0.03572 0.46945 0.0
C560 C 0.84364 0.01542 0.48344 0.0
C561 C 0.84372 0.95638 0.52353 0.0
C562 C 0.84383 0.97675 0.50982 0.0
H563 H 0.84303 0.05603 0.40649 0.0
H564 H 0.84366 0.02271 0.42939 0.0
H565 H 0.81995 0.0243 0.51396 0.0
H566 H 0.84445 0.9356 0.5862 0.0
H567 H 0.84524 0.96911 0.56366 0.0
C568 C 0.83218 0.42037 0.97861 0.0
C569 C 0.82965 0.41791 0.95083 0.0
C570 C 0.83303 0.44014 0.98991 0.0
C571 C 0.81743 0.49431 0.97684 0.0
H572 H 0.86059 0.50673 0.03198 0.0
C573 C 0.83196 0.57739 0.01515 0.0
C574 C 0.83488 0.57992 0.04286 0.0
C575 C 0.8317 0.55762 0.00383 0.0
C576 C 0.84828 0.50345 0.01681 0.0
H577 H 0.82607 0.43417 0.91309 0.0
H578 H 0.82765 0.46864 0.93279 0.0
H579 H 0.85918 0.47211 0.01262 0.0
H580 H 0.83989 0.56379 0.08044 0.0
H581 H 0.83917 0.52929 0.06076 0.0
H582 H 0.80642 0.52557 0.98109 0.0
C583 C 0.82876 0.45532 0.94587 0.0
C584 C 0.84748 0.48362 0.00572 0.0
C585 C 0.82798 0.43558 0.93458 0.0
C586 C 0.83768 0.56232 0.059 0.0
C587 C 0.83739 0.54256 0.0477 0.0
C588 C 0.81819 0.51412 0.98795 0.0
C589 C 0.83129 0.45783 0.97366 0.0
C590 C 0.83206 0.47884 0.9856 0.0
C591 C 0.83432 0.53997 0.01999 0.0
C592 C 0.83363 0.51893 0.00806 0.0
H593 H 0.83347 0.40702 0.99163 0.0
H594 H 0.83476 0.44157 0.01142 0.0
H595 H 0.80513 0.49102 0.96164 0.0
H596 H 0.82983 0.59069 0.0022 0.0
H597 H 0.82961 0.55618 0.98237 0.0
C598 C 0.68542 0.42828 0.54456 0.0
C599 C 0.67062 0.41334 0.53478 0.0
C600 C 0.68549 0.44829 0.53397 0.0
C601 C 0.65001 0.48473 0.49639 0.0
H602 H 0.70479 0.51497 0.4864 0.0
C603 C 0.65417 0.56264 0.44028 0.0
C604 C 0.66731 0.57824 0.4517 0.0
C605 C 0.65468 0.54254 0.45052 0.0
C606 C 0.68935 0.50678 0.48933 0.0
H607 H 0.64467 0.4074 0.50583 0.0
H608 H 0.64507 0.44218 0.48694 0.0
H609 H 0.70586 0.47957 0.50334 0.0
H610 H 0.69125 0.58511 0.48278 0.0
H611 H 0.69215 0.54993 0.50069 0.0
H612 H 0.63355 0.5119 0.48216 0.0
C613 C 0.65632 0.43861 0.50317 0.0
C614 C 0.68995 0.48651 0.49905 0.0
C615 C 0.65619 0.41864 0.51385 0.0
C616 C 0.68095 0.57338 0.47358 0.0
C617 C 0.68156 0.55323 0.48372 0.0
C618 C 0.64944 0.50495 0.48656 0.0
C619 C 0.67081 0.45375 0.51329 0.0
C620 C 0.67028 0.47524 0.50269 0.0
C621 C 0.66844 0.5376 0.47228 0.0
C622 C 0.66909 0.51619 0.48293 0.0
H623 H 0.69668 0.42465 0.56077 0.0
H624 H 0.69668 0.45961 0.54246 0.0
H625 H 0.63452 0.47667 0.49944 0.0
H626 H 0.64353 0.56593 0.42336 0.0
H627 H 0.64456 0.53078 0.44111 0.0
C628 C 0.15567 0.57533 0.02035 0.0
C629 C 0.15404 0.57672 0.04834 0.0
C630 C 0.15476 0.5561 0.00764 0.0
C631 C 0.13672 0.50199 0.01768 0.0
H632 H 0.17683 0.49081 0.95888 0.0
C633 C 0.14882 0.42026 0.97335 0.0
C634 C 0.15036 0.41869 0.94536 0.0
C635 C 0.14873 0.43963 0.98576 0.0
C636 C 0.16535 0.49378 0.97507 0.0
H637 H 0.15015 0.55915 0.08501 0.0
H638 H 0.14883 0.52553 0.06286 0.0
H639 H 0.17774 0.52444 0.9809 0.0
H640 H 0.15285 0.43611 0.90837 0.0
H641 H 0.1526 0.46995 0.93005 0.0
H642 H 0.12445 0.47124 0.01193 0.0
C643 C 0.15051 0.5393 0.05068 0.0
C644 C 0.16586 0.51305 0.98768 0.0
C645 C 0.15139 0.55854 0.06338 0.0
C646 C 0.1517 0.43685 0.93 0.0
C647 C 0.15168 0.45621 0.94242 0.0
C648 C 0.13624 0.4827 0.0051 0.0
C649 C 0.15223 0.53785 0.02266 0.0
C650 C 0.15156 0.51739 0.00915 0.0
C651 C 0.15025 0.45781 0.97044 0.0
C652 C 0.15057 0.47837 0.98366 0.0
H653 H 0.15763 0.5891 0.00822 0.0
H654 H 0.15582 0.55555 0.986 0.0
H655 H 0.12525 0.50494 0.03389 0.0
H656 H 0.14779 0.40652 0.9857 0.0
H657 H 0.14785 0.44034 0.0074 0.0
C658 C 0.34904 0.55702 0.43179 0.0
C659 C 0.34733 0.57519 0.44705 0.0
C660 C 0.34952 0.53769 0.44434 0.0
C661 C 0.33437 0.51185 0.50774 0.0
H662 H 0.37328 0.46848 0.4822 0.0
C663 C 0.34645 0.43536 0.56533 0.0
C664 C 0.34651 0.41713 0.55005 0.0
C665 C 0.34713 0.45467 0.55278 0.0
C666 C 0.36218 0.48038 0.4894 0.0
H667 H 0.34515 0.58746 0.48738 0.0
H668 H 0.34631 0.5538 0.50928 0.0
H669 H 0.37348 0.50218 0.46017 0.0
H670 H 0.3475 0.40474 0.50972 0.0
H671 H 0.34858 0.43847 0.48779 0.0
H672 H 0.3231 0.49008 0.53699 0.0
C673 C 0.34689 0.55441 0.48762 0.0
C674 C 0.36228 0.49968 0.47677 0.0
C675 C 0.34635 0.5737 0.47508 0.0
C676 C 0.34745 0.41855 0.52201 0.0
C677 C 0.3482 0.43785 0.50946 0.0
C678 C 0.33432 0.49259 0.5204 0.0
C679 C 0.34835 0.53616 0.4724 0.0
C680 C 0.34836 0.51564 0.4858 0.0
C681 C 0.34795 0.45613 0.52471 0.0
C682 C 0.34821 0.47664 0.51136 0.0
H683 H 0.34978 0.55771 0.41013 0.0
H684 H 0.3504 0.52393 0.43202 0.0
H685 H 0.32316 0.52368 0.51491 0.0
H686 H 0.34581 0.43474 0.58699 0.0
H687 H 0.34719 0.46847 0.56508 0.0
C688 C 0.57412 0.15735 0.10255 0.0
C689 C 0.58383 0.14401 0.08372 0.0
C690 C 0.55107 0.15897 0.10434 0.0
C691 C 0.50068 0.12955 0.09116 0.0
H692 H 0.47053 0.1825 0.0911 0.0
C693 C 0.40681 0.13605 0.10778 0.0
C694 C 0.39541 0.14773 0.0885 0.0
C695 C 0.42985 0.1369 0.10935 0.0
C696 C 0.47877 0.16763 0.09118 0.0
H697 H 0.57713 0.12203 0.0519 0.0
H698 H 0.53703 0.12466 0.05531 0.0
H699 H 0.51105 0.18139 0.08938 0.0
H700 H 0.39906 0.17005 0.05639 0.0
H701 H 0.43941 0.17168 0.05932 0.0
H702 H 0.46856 0.11574 0.09276 0.0
C703 C 0.54718 0.13385 0.06865 0.0
C704 C 0.5019 0.167 0.09038 0.0
C705 C 0.57013 0.13244 0.06662 0.0
C706 C 0.40743 0.16084 0.07142 0.0
C707 C 0.43049 0.16186 0.07318 0.0
C708 C 0.47764 0.13018 0.09232 0.0
C709 C 0.53742 0.14704 0.0876 0.0
C710 C 0.51303 0.14793 0.09 0.0
C711 C 0.44193 0.14962 0.09185 0.0
C712 C 0.46644 0.14921 0.09207 0.0
H713 H 0.5843 0.16645 0.11595 0.0
H714 H 0.54393 0.1692 0.11918 0.0
H715 H 0.50887 0.11465 0.09111 0.0
H716 H 0.39798 0.12584 0.12126 0.0
H717 H 0.43825 0.12745 0.12409 0.0
C718 C 0.92185 0.85348 0.61145 0.0
C719 C 0.90891 0.84816 0.58913 0.0
C720 C 0.94483 0.85117 0.61073 0.0
C721 C 0.99106 0.84833 0.56291 0.0
H722 H 0.02442 0.82974 0.6247 0.0
C723 C 0.08568 0.83772 0.55894 0.0
C724 C 0.09764 0.84549 0.58087 0.0
C725 C 0.06266 0.83606 0.56015 0.0
C726 C 0.01534 0.83509 0.60734 0.0
H727 H 0.90978 0.83572 0.54883 0.0
H728 H 0.94983 0.83148 0.54765 0.0
H729 H 0.98409 0.83037 0.62656 0.0
H730 H 0.09496 0.8572 0.62142 0.0
H731 H 0.0548 0.85449 0.62345 0.0
H732 H 0.02225 0.85332 0.5438 0.0
C733 C 0.94229 0.83773 0.56557 0.0
C734 C 0.99225 0.83546 0.60841 0.0
C735 C 0.91933 0.84005 0.5663 0.0
C736 C 0.08619 0.85114 0.60421 0.0
C737 C 0.06318 0.84946 0.60543 0.0
C738 C 0.01413 0.84796 0.56184 0.0
C739 C 0.95533 0.84349 0.58765 0.0
C740 C 0.97984 0.84222 0.58626 0.0
C741 C 0.05112 0.8421 0.58332 0.0
C742 C 0.02656 0.84149 0.5841 0.0
H743 H 0.91428 0.85981 0.62932 0.0
H744 H 0.95441 0.85596 0.62798 0.0
H745 H 0.98204 0.85395 0.54565 0.0
H746 H 0.09408 0.83317 0.54072 0.0
H747 H 0.05388 0.83006 0.54291 0.0
C748 C 0.40512 0.83465 0.90369 0.0
C749 C 0.39566 0.85185 0.91648 0.0
C750 C 0.42812 0.83226 0.90287 0.0
C751 C 0.47939 0.84999 0.93644 0.0
H752 H 0.50812 0.83176 0.87119 0.0
C753 C 0.57357 0.83821 0.93187 0.0
C754 C 0.58433 0.84621 0.9092 0.0
C755 C 0.55055 0.83649 0.93243 0.0
C756 C 0.50034 0.83693 0.88953 0.0
H757 H 0.40278 0.88013 0.93819 0.0
H758 H 0.44274 0.87617 0.9364 0.0
H759 H 0.46785 0.83393 0.87291 0.0
H760 H 0.57951 0.85812 0.86904 0.0
H761 H 0.53929 0.8554 0.87012 0.0
H762 H 0.51179 0.85373 0.95279 0.0
C763 C 0.4325 0.86429 0.92745 0.0
C764 C 0.47725 0.83796 0.89062 0.0
C765 C 0.40958 0.86663 0.92833 0.0
C766 C 0.57167 0.85189 0.8868 0.0
C767 C 0.54862 0.85021 0.88737 0.0
C768 C 0.50242 0.84899 0.93535 0.0
C769 C 0.44207 0.84705 0.9148 0.0
C770 C 0.46652 0.84475 0.91399 0.0
C771 C 0.53776 0.84279 0.91035 0.0
C772 C 0.5132 0.84264 0.91181 0.0
H773 H 0.39477 0.82299 0.89443 0.0
H774 H 0.43495 0.81871 0.89318 0.0
H775 H 0.47165 0.855 0.95489 0.0
H776 H 0.5829 0.83359 0.94939 0.0
H777 H 0.54274 0.83039 0.95027 0.0
C778 C 0.08536 0.14036 0.39129 0.0
C779 C 0.09646 0.14668 0.41461 0.0
C780 C 0.06236 0.1419 0.38952 0.0
C781 C 0.0127 0.14469 0.43205 0.0
H782 H 0.98353 0.15984 0.36572 0.0
C783 C 0.91804 0.1527 0.42518 0.0
C784 C 0.9079 0.14348 0.40287 0.0
C785 C 0.94099 0.15503 0.42616 0.0
C786 C 0.99145 0.15545 0.38432 0.0
H787 H 0.0923 0.16006 0.45409 0.0
H788 H 0.05215 0.163 0.45089 0.0
H789 H 0.02383 0.16062 0.36835 0.0
H790 H 0.91373 0.1299 0.36381 0.0
H791 H 0.95386 0.13385 0.36558 0.0
H792 H 0.98038 0.13933 0.44795 0.0
C793 C 0.06117 0.15655 0.43413 0.0
C794 C 0.01453 0.15589 0.38584 0.0
C795 C 0.08417 0.15498 0.43591 0.0
C796 C 0.92109 0.13708 0.38126 0.0
C797 C 0.94406 0.13945 0.38223 0.0
C798 C 0.98965 0.14429 0.43054 0.0
C799 C 0.04997 0.14983 0.41101 0.0
C800 C 0.02543 0.15036 0.40967 0.0
C801 C 0.95428 0.14822 0.40484 0.0
C802 C 0.97876 0.14953 0.40662 0.0
H803 H 0.09439 0.13387 0.37456 0.0
H804 H 0.05426 0.13634 0.37157 0.0
H805 H 0.02056 0.13999 0.45056 0.0
H806 H 0.90829 0.15786 0.44209 0.0
H807 H 0.94834 0.16212 0.4437 0.0
C808 C 0.07836 0.64678 0.11313 0.0
C809 C 0.08999 0.64786 0.08884 0.0
C810 C 0.0554 0.64914 0.11359 0.0
C811 C 0.00767 0.66792 0.07381 0.0
H812 H 0.97478 0.62847 0.11664 0.0
C813 C 0.91399 0.65342 0.06034 0.0
C814 C 0.90134 0.64959 0.08339 0.0
C815 C 0.93697 0.65527 0.06206 0.0
C816 C 0.98369 0.63982 0.10489 0.0
H817 H 0.08682 0.65279 0.04606 0.0
H818 H 0.04672 0.6567 0.0468 0.0
H819 H 0.01499 0.6282 0.11789 0.0
H820 H 0.9027 0.6453 0.12642 0.0
H821 H 0.94278 0.64875 0.12949 0.0
H822 H 0.97628 0.67932 0.06053 0.0
C823 C 0.05533 0.65425 0.06555 0.0
C824 C 0.00676 0.63967 0.10561 0.0
C825 C 0.0783 0.6519 0.0651 0.0
C826 C 0.91204 0.64814 0.10828 0.0
C827 C 0.935 0.65001 0.11002 0.0
C828 C 0.98456 0.66807 0.07309 0.0
C829 C 0.04358 0.65262 0.08975 0.0
C830 C 0.01904 0.6536 0.08993 0.0
C831 C 0.94777 0.65333 0.08689 0.0
C832 C 0.9723 0.65392 0.08849 0.0
H833 H 0.08695 0.64378 0.13177 0.0
H834 H 0.04687 0.64811 0.13261 0.0
H835 H 0.01665 0.67904 0.06177 0.0
H836 H 0.90618 0.65459 0.04087 0.0
H837 H 0.94633 0.65761 0.04382 0.0
C838 C 0.58567 0.33747 0.56057 0.0
C839 C 0.59887 0.34378 0.58222 0.0
C840 C 0.56278 0.33559 0.56354 0.0
C841 C 0.51708 0.35532 0.60464 0.0
H842 H 0.48347 0.31161 0.57039 0.0
C843 C 0.42246 0.35002 0.61558 0.0
C844 C 0.41059 0.34605 0.59196 0.0
C845 C 0.44541 0.34758 0.61624 0.0
C846 C 0.49262 0.32398 0.57994 0.0
H847 H 0.59862 0.35244 0.62417 0.0
H848 H 0.55868 0.349 0.62942 0.0
H849 H 0.5238 0.31116 0.5682 0.0
H850 H 0.41331 0.33593 0.5507 0.0
H851 H 0.45338 0.33192 0.55172 0.0
H852 H 0.486 0.36839 0.61595 0.0
C853 C 0.56596 0.34578 0.61005 0.0
C854 C 0.51571 0.32372 0.57868 0.0
C855 C 0.58884 0.34764 0.60708 0.0
C856 C 0.42203 0.33908 0.56921 0.0
C857 C 0.44497 0.33667 0.56985 0.0
C858 C 0.49403 0.3556 0.60587 0.0
C859 C 0.55264 0.33999 0.58822 0.0
C860 C 0.52819 0.3395 0.59082 0.0
C861 C 0.45697 0.34114 0.59328 0.0
C862 C 0.48151 0.34005 0.59332 0.0
H863 H 0.59296 0.3344 0.54116 0.0
H864 H 0.55297 0.33131 0.54626 0.0
H865 H 0.52619 0.36789 0.61383 0.0
H866 H 0.41407 0.35532 0.63347 0.0
H867 H 0.45412 0.35086 0.63471 0.0
C868 C 0.07218 0.35554 0.88009 0.0
C869 C 0.084 0.34963 0.90306 0.0
C870 C 0.04915 0.35389 0.8794 0.0
C871 C 0.00125 0.32921 0.91296 0.0
H872 H 0.96911 0.37601 0.88396 0.0
C873 C 0.90763 0.34193 0.9303 0.0
C874 C 0.89519 0.34986 0.90889 0.0
C875 C 0.93063 0.34033 0.92833 0.0
C876 C 0.97781 0.36268 0.89178 0.0
H877 H 0.08108 0.33687 0.94305 0.0
H878 H 0.04086 0.33417 0.94196 0.0
H879 H 0.00932 0.37584 0.88254 0.0
H880 H 0.89694 0.36182 0.86838 0.0
H881 H 0.93702 0.35886 0.86483 0.0
H882 H 0.96964 0.31618 0.9225 0.0
C883 C 0.04937 0.33988 0.92437 0.0
C884 C 0.00088 0.36257 0.89095 0.0
C885 C 0.07241 0.34153 0.92506 0.0
C886 C 0.90611 0.35575 0.88528 0.0
C887 C 0.92908 0.35416 0.8833 0.0
C888 C 0.97814 0.32931 0.9138 0.0
C889 C 0.03745 0.3463 0.90167 0.0
C890 C 0.01289 0.34589 0.90164 0.0
C891 C 0.94164 0.34665 0.90491 0.0
C892 C 0.96616 0.3461 0.90332 0.0
H893 H 0.08069 0.36175 0.86278 0.0
H894 H 0.04049 0.35867 0.86145 0.0
H895 H 0.01001 0.316 0.92106 0.0
H896 H 0.89965 0.33729 0.94877 0.0
H897 H 0.93984 0.33468 0.94544 0.0
C898 C 0.58665 0.65173 0.43737 0.0
C899 C 0.5996 0.6506 0.41407 0.0
C900 C 0.56372 0.65399 0.4356 0.0
C901 C 0.5175 0.64361 0.38989 0.0
H902 H 0.48429 0.67793 0.43924 0.0
C903 C 0.42256 0.64966 0.38385 0.0
C904 C 0.4112 0.64839 0.40832 0.0
C905 C 0.44547 0.65248 0.3834 0.0
C906 C 0.49332 0.66817 0.42543 0.0
H907 H 0.59881 0.65153 0.37068 0.0
H908 H 0.55876 0.65556 0.36759 0.0
H909 H 0.52464 0.67828 0.44062 0.0
H910 H 0.4148 0.64957 0.45149 0.0
H911 H 0.45477 0.65421 0.45075 0.0
H912 H 0.48628 0.63313 0.37507 0.0
C913 C 0.5663 0.65447 0.38721 0.0
C914 C 0.51643 0.66839 0.42621 0.0
C915 C 0.58924 0.65227 0.38899 0.0
C916 C 0.4231 0.65052 0.43231 0.0
C917 C 0.44601 0.65331 0.43188 0.0
C918 C 0.49442 0.64335 0.38915 0.0
C919 C 0.55326 0.65511 0.41049 0.0
C920 C 0.52877 0.65595 0.40863 0.0
C921 C 0.45751 0.65405 0.40743 0.0
C922 C 0.48204 0.65546 0.40709 0.0
H923 H 0.59418 0.65047 0.45699 0.0
H924 H 0.55412 0.65421 0.45391 0.0
H925 H 0.5265 0.6336 0.37635 0.0
H926 H 0.4138 0.64815 0.36503 0.0
H927 H 0.45378 0.65329 0.36422 0.0
C928 C 0.29991 0.12316 0.1717 0.0
C929 C 0.29725 0.13978 0.15391 0.0
C930 C 0.28912 0.12316 0.19645 0.0
C931 C 0.26063 0.15779 0.24469 0.0
H932 H 0.2352 0.1065 0.27067 0.0
C933 C 0.19839 0.15425 0.33226 0.0
C934 C 0.20175 0.13866 0.35141 0.0
C935 C 0.2108 0.15454 0.30868 0.0
C936 C 0.24241 0.12089 0.26379 0.0
H937 H 0.28126 0.16943 0.14795 0.0
H938 H 0.26203 0.16924 0.19079 0.0
H939 H 0.25551 0.10673 0.22852 0.0
H940 H 0.2207 0.11117 0.361 0.0
H941 H 0.2423 0.11161 0.31968 0.0
H942 H 0.24708 0.17198 0.27979 0.0
C943 C 0.27279 0.15639 0.18598 0.0
C944 C 0.2541 0.12103 0.23968 0.0
C945 C 0.2837 0.15645 0.16134 0.0
C946 C 0.21774 0.12336 0.34656 0.0
C947 C 0.23002 0.12356 0.32288 0.0
C948 C 0.24879 0.15767 0.2687 0.0
C949 C 0.27532 0.13972 0.20382 0.0
C950 C 0.26332 0.13949 0.22979 0.0
C951 C 0.22667 0.13915 0.30371 0.0
C952 C 0.23953 0.13923 0.27845 0.0
H953 H 0.31035 0.11015 0.16654 0.0
H954 H 0.29172 0.11022 0.20986 0.0
H955 H 0.26783 0.17221 0.23792 0.0
H956 H 0.18616 0.16624 0.33548 0.0
H957 H 0.20772 0.16663 0.29412 0.0
C958 C 0.27677 0.84799 0.84113 0.0
C959 C 0.29713 0.8582 0.84415 0.0
C960 C 0.26648 0.84703 0.81615 0.0
C961 C 0.26383 0.87327 0.75102 0.0
H962 H 0.2358 0.82233 0.72792 0.0
C963 C 0.22403 0.86464 0.64642 0.0
C964 C 0.20362 0.85431 0.64531 0.0
C965 C 0.23651 0.8646 0.66998 0.0
C966 C 0.24336 0.83673 0.73419 0.0
H967 H 0.32273 0.87536 0.82341 0.0
H968 H 0.30469 0.87369 0.77962 0.0
H969 H 0.25575 0.82323 0.77033 0.0
H970 H 0.18027 0.83577 0.66787 0.0
H971 H 0.20187 0.83592 0.70909 0.0
H972 H 0.25118 0.88686 0.71507 0.0
C973 C 0.29665 0.86654 0.79666 0.0
C974 C 0.25482 0.83723 0.75846 0.0
C975 C 0.30702 0.86742 0.82167 0.0
C976 C 0.19597 0.84383 0.66812 0.0
C977 C 0.20843 0.84381 0.69168 0.0
C978 C 0.25232 0.87278 0.72676 0.0
C979 C 0.27627 0.85632 0.79364 0.0
C980 C 0.26501 0.85555 0.76726 0.0
C981 C 0.22882 0.85424 0.69291 0.0
C982 C 0.2418 0.85455 0.71817 0.0
H983 H 0.26874 0.84076 0.85811 0.0
H984 H 0.25064 0.83929 0.81455 0.0
H985 H 0.27128 0.88769 0.75741 0.0
H986 H 0.23038 0.87279 0.62909 0.0
H987 H 0.25227 0.87256 0.67015 0.0
C988 C 0.68217 0.86054 0.81696 0.0
C989 C 0.69156 0.86097 0.84265 0.0
C990 C 0.69562 0.86155 0.79422 0.0
C991 C 0.75267 0.8754 0.77236 0.0
H992 H 0.73679 0.84338 0.70958 0.0
C993 C 0.81173 0.86128 0.68276 0.0
C994 C 0.80257 0.86422 0.6572 0.0
C995 C 0.79823 0.86163 0.7055 0.0
C996 C 0.74133 0.85251 0.72692 0.0
H997 H 0.72234 0.86257 0.8648 0.0
H998 H 0.74584 0.8636 0.82529 0.0
H999 H 0.71313 0.8423 0.74903 0.0
H1000 H 0.77218 0.86991 0.63532 0.0
H1001 H 0.74861 0.87024 0.67499 0.0
H1002 H 0.78123 0.88511 0.75027 0.0
C1003 C 0.72809 0.86309 0.82253 0.0
C1004 C 0.72773 0.85199 0.74951 0.0
C1005 C 0.71463 0.86235 0.84522 0.0
C1006 C 0.77971 0.8676 0.65478 0.0
C1007 C 0.7662 0.86769 0.67744 0.0
C1008 C 0.76641 0.8757 0.74987 0.0
C1009 C 0.71878 0.86275 0.79671 0.0
C1010 C 0.73319 0.86345 0.77254 0.0
C1011 C 0.77531 0.86465 0.703 0.0
C1012 C 0.76083 0.8643 0.72692 0.0
H1013 H 0.6644 0.85962 0.81441 0.0
H1014 H 0.6878 0.86162 0.77471 0.0
H1015 H 0.75722 0.88474 0.7895 0.0
H1016 H 0.8293 0.85865 0.6852 0.0
H1017 H 0.80564 0.85912 0.72498 0.0
C1018 C 0.78042 0.12017 0.33536 0.0
C1019 C 0.80224 0.12754 0.33407 0.0
C1020 C 0.76707 0.12003 0.31252 0.0
C1021 C 0.7618 0.14433 0.2458 0.0
H1022 H 0.7209 0.09924 0.23254 0.0
C1023 C 0.71411 0.13607 0.14652 0.0
C1024 C 0.69157 0.13102 0.14822 0.0
C1025 C 0.72757 0.13528 0.16921 0.0
C1026 C 0.7321 0.11203 0.23613 0.0
H1027 H 0.82739 0.14015 0.30782 0.0
H1028 H 0.80425 0.13953 0.26779 0.0
H1029 H 0.74491 0.09816 0.27181 0.0
H1030 H 0.66542 0.121 0.17493 0.0
H1031 H 0.68902 0.11957 0.21471 0.0
H1032 H 0.7491 0.15809 0.20999 0.0
C1033 C 0.79727 0.13424 0.28654 0.0
C1034 C 0.74585 0.11143 0.25862 0.0
C1035 C 0.81059 0.13447 0.30943 0.0
C1036 C 0.68275 0.12498 0.17304 0.0
C1037 C 0.69627 0.12406 0.19575 0.0
C1038 C 0.74814 0.14486 0.22325 0.0
C1039 C 0.77529 0.12717 0.28786 0.0
C1040 C 0.76086 0.12759 0.26374 0.0
C1041 C 0.7188 0.1293 0.19408 0.0
C1042 C 0.73315 0.12873 0.21817 0.0
H1043 H 0.7735 0.1148 0.35412 0.0
H1044 H 0.75015 0.11474 0.31436 0.0
H1045 H 0.77284 0.15723 0.24938 0.0
H1046 H 0.72139 0.14074 0.12765 0.0
H1047 H 0.74491 0.13916 0.16722 0.0
C1048 C 0.70877 0.65743 0.33528 0.0
C1049 C 0.7014 0.63864 0.3462 0.0
C1050 C 0.72076 0.65768 0.31137 0.0
C1051 C 0.75374 0.62366 0.2668 0.0
H1052 H 0.74428 0.66758 0.21515 0.0
C1053 C 0.78833 0.62109 0.15916 0.0
C1054 C 0.79863 0.63918 0.14983 0.0
C1055 C 0.77668 0.62119 0.1833 0.0
C1056 C 0.74721 0.65532 0.22951 0.0
H1057 H 0.70047 0.60541 0.34057 0.0
H1058 H 0.72083 0.60583 0.29848 0.0
H1059 H 0.72318 0.66734 0.25677 0.0
H1060 H 0.80476 0.67158 0.15827 0.0
H1061 H 0.78417 0.67179 0.20041 0.0
H1062 H 0.77747 0.61147 0.23917 0.0
C1063 C 0.71787 0.62037 0.30864 0.0
C1064 C 0.73518 0.6552 0.25339 0.0
C1065 C 0.70606 0.62012 0.33267 0.0
C1066 C 0.79698 0.6574 0.16501 0.0
C1067 C 0.78513 0.65756 0.18902 0.0
C1068 C 0.7656 0.62369 0.24281 0.0
C1069 C 0.72546 0.63914 0.29775 0.0
C1070 C 0.73829 0.63935 0.27234 0.0
C1071 C 0.77492 0.63943 0.19843 0.0
C1072 C 0.76245 0.63952 0.22394 0.0
H1073 H 0.70551 0.67194 0.34537 0.0
H1074 H 0.72662 0.67238 0.3038 0.0
H1075 H 0.7569 0.61144 0.28113 0.0
H1076 H 0.78932 0.60681 0.14786 0.0
H1077 H 0.7688 0.60705 0.18997 0.0
C1078 C 0.71327 0.34031 0.65224 0.0
C1079 C 0.69728 0.35534 0.64622 0.0
C1080 C 0.72416 0.34052 0.6769 0.0
C1081 C 0.73793 0.37499 0.73347 0.0
H1082 H 0.75092 0.32344 0.76995 0.0
C1083 C 0.77406 0.37207 0.84046 0.0
C1084 C 0.79132 0.35794 0.84482 0.0
C1085 C 0.7621 0.37171 0.81653 0.0
C1086 C 0.74757 0.33794 0.75988 0.0
H1087 H 0.67992 0.38226 0.66131 0.0
H1088 H 0.6987 0.38247 0.70458 0.0
H1089 H 0.73061 0.32285 0.72777 0.0
H1090 H 0.80958 0.33231 0.82769 0.0
H1091 H 0.7887 0.33168 0.78585 0.0
H1092 H 0.75484 0.39007 0.76568 0.0
C1093 C 0.7031 0.3707 0.6901 0.0
C1094 C 0.73596 0.33761 0.73571 0.0
C1095 C 0.69225 0.37052 0.66539 0.0
C1096 C 0.79634 0.34338 0.82488 0.0
C1097 C 0.78431 0.34294 0.801 0.0
C1098 C 0.74946 0.37532 0.7577 0.0
C1099 C 0.71924 0.35574 0.6961 0.0
C1100 C 0.7311 0.35613 0.72215 0.0
C1101 C 0.76709 0.35713 0.79656 0.0
C1102 C 0.75449 0.3568 0.77109 0.0
H1103 H 0.71755 0.32846 0.63781 0.0
H1104 H 0.73673 0.32896 0.68071 0.0
H1105 H 0.73477 0.38951 0.72334 0.0
H1106 H 0.76979 0.38345 0.85552 0.0
H1107 H 0.74877 0.38269 0.81379 0.0
C1108 C 0.31298 0.36205 0.68139 0.0
C1109 C 0.3037 0.36344 0.65569 0.0
C1110 C 0.2995 0.36278 0.70409 0.0
C1111 C 0.24284 0.37727 0.72654 0.0
H1112 H 0.25744 0.34247 0.78728 0.0
C1113 C 0.18288 0.36153 0.81463 0.0
C1114 C 0.19191 0.36349 0.84042 0.0
C1115 C 0.19657 0.36216 0.79208 0.0
C1116 C 0.25327 0.35238 0.77052 0.0
H1117 H 0.27308 0.36657 0.6335 0.0
H1118 H 0.24948 0.36716 0.67295 0.0
H1119 H 0.28123 0.34229 0.7479 0.0
H1120 H 0.22228 0.36756 0.86292 0.0
H1121 H 0.24621 0.36833 0.82353 0.0
H1122 H 0.2145 0.38688 0.7491 0.0
C1123 C 0.26719 0.36607 0.67575 0.0
C1124 C 0.26694 0.35237 0.74799 0.0
C1125 C 0.28071 0.3656 0.65309 0.0
C1126 C 0.21486 0.36603 0.84327 0.0
C1127 C 0.22856 0.36638 0.82077 0.0
C1128 C 0.22903 0.37708 0.74896 0.0
C1129 C 0.2764 0.36465 0.70157 0.0
C1130 C 0.26193 0.36483 0.72569 0.0
C1131 C 0.21955 0.36445 0.79497 0.0
C1132 C 0.23414 0.36466 0.77117 0.0
H1133 H 0.33069 0.36051 0.68398 0.0
H1134 H 0.30723 0.36202 0.72362 0.0
H1135 H 0.23865 0.38736 0.70999 0.0
H1136 H 0.16524 0.35957 0.81186 0.0
H1137 H 0.18923 0.3605 0.77241 0.0
C1138 C 0.31567 0.6263 0.31581 0.0
C1139 C 0.30585 0.62629 0.34128 0.0
C1140 C 0.3026 0.62512 0.29277 0.0
C1141 C 0.24602 0.61168 0.2692 0.0
H1142 H 0.26231 0.64557 0.20824 0.0
C1143 C 0.18729 0.62839 0.18023 0.0
C1144 C 0.19652 0.62716 0.15448 0.0
C1145 C 0.20078 0.62702 0.2029 0.0
C1146 C 0.25768 0.63586 0.22501 0.0
H1147 H 0.2747 0.62492 0.36268 0.0
H1148 H 0.25186 0.62337 0.32256 0.0
H1149 H 0.28564 0.64552 0.24801 0.0
H1150 H 0.22701 0.62333 0.13219 0.0
H1151 H 0.25058 0.62111 0.17179 0.0
H1152 H 0.21774 0.60246 0.24625 0.0
C1153 C 0.26966 0.62385 0.32028 0.0
C1154 C 0.27108 0.63577 0.24779 0.0
C1155 C 0.28274 0.62487 0.3433 0.0
C1156 C 0.21944 0.62435 0.1518 0.0
C1157 C 0.23294 0.62319 0.17444 0.0
C1158 C 0.23252 0.61192 0.24648 0.0
C1159 C 0.27941 0.62407 0.29471 0.0
C1160 C 0.26541 0.62371 0.27021 0.0
C1161 C 0.22377 0.6246 0.20021 0.0
C1162 C 0.23821 0.62403 0.22418 0.0
H1163 H 0.33346 0.62727 0.31366 0.0
H1164 H 0.3107 0.62497 0.27344 0.0
H1165 H 0.24133 0.60194 0.2859 0.0
H1166 H 0.16966 0.63054 0.18288 0.0
H1167 H 0.19329 0.62832 0.22253 0.0
loop_
_geom_bond_atom_site_label_1
_geom_bond_atom_site_label_2
_geom_bond_distance
_geom_bond_site_symmetry_2
_ccdc_geom_bond_type
In0 O1 2.294 . S
In0 O2 2.326 . S
In0 O6 2.266 . S
In0 O7 2.326 . S
In0 O8 2.266 . S
In0 O9 2.326 . S
In0 O11 2.294 . S
In0 O12 2.326 . S
O1 In0 2.294 . S
O1 C10 1.240 . S
O2 In0 2.326 . S
O2 C10 1.252 . S
C3 O6 1.252 . S
C3 O7 1.260 . S
C4 O11 1.240 . S
C4 O12 1.252 . S
C5 O8 1.252 . S
C5 O9 1.260 . S
O6 In0 2.266 . S
O6 C3 1.252 . S
O7 In0 2.326 . S
O7 C3 1.260 . S
O8 In0 2.266 . S
O8 C5 1.252 . S
O9 In0 2.326 . S
O9 C5 1.260 . S
C10 O1 1.240 . S
C10 O2 1.252 . S
O11 In0 2.294 . S
O11 C4 1.240 . S
O12 In0 2.326 . S
O12 C4 1.252 . S
In13 O14 2.294 . S
In13 O15 2.326 . S
In13 O19 2.266 . S
In13 O20 2.326 . S
In13 O21 2.266 . S
In13 O22 2.326 . S
In13 O24 2.294 . S
In13 O25 2.326 . S
O14 In13 2.294 . S
O14 C23 1.240 . S
O15 In13 2.326 . S
O15 C23 1.252 . S
C16 O19 1.252 . S
C16 O20 1.260 . S
C17 O24 1.240 . S
C17 O25 1.252 . S
C18 O21 1.252 . S
C18 O22 1.260 . S
O19 In13 2.266 . S
O19 C16 1.252 . S
O20 In13 2.326 . S
O20 C16 1.260 . S
O21 In13 2.266 . S
O21 C18 1.252 . S
O22 In13 2.326 . S
O22 C18 1.260 . S
C23 O14 1.240 . S
C23 O15 1.252 . S
O24 In13 2.294 . S
O24 C17 1.240 . S
O25 In13 2.326 . S
O25 C17 1.252 . S
In26 O27 2.294 . S
In26 O28 2.326 . S
In26 O32 2.266 . S
In26 O33 2.326 . S
In26 O34 2.266 . S
In26 O35 2.326 . S
In26 O37 2.294 . S
In26 O38 2.326 . S
O27 In26 2.294 . S
O27 C36 1.240 . S
O28 In26 2.326 . S
O28 C36 1.252 . S
C29 O32 1.252 . S
C29 O33 1.260 . S
C30 O37 1.240 . S
C30 O38 1.252 . S
C31 O34 1.252 . S
C31 O35 1.260 . S
O32 In26 2.266 . S
O32 C29 1.252 . S
O33 In26 2.326 . S
O33 C29 1.260 . S
O34 In26 2.266 . S
O34 C31 1.252 . S
O35 In26 2.326 . S
O35 C31 1.260 . S
C36 O27 1.240 . S
C36 O28 1.252 . S
O37 In26 2.294 . S
O37 C30 1.240 . S
O38 In26 2.326 . S
O38 C30 1.252 . S
In39 O40 2.294 . S
In39 O41 2.326 . S
In39 O45 2.266 . S
In39 O46 2.326 . S
In39 O47 2.266 . S
In39 O48 2.326 . S
In39 O50 2.294 . S
In39 O51 2.326 . S
O40 In39 2.294 . S
O40 C49 1.240 . S
O41 In39 2.326 . S
O41 C49 1.252 . S
C42 O45 1.252 . S
C42 O46 1.260 . S
C43 O50 1.240 . S
C43 O51 1.252 . S
C44 O47 1.252 . S
C44 O48 1.260 . S
O45 In39 2.266 . S
O45 C42 1.252 . S
O46 In39 2.326 . S
O46 C42 1.260 . S
O47 In39 2.266 . S
O47 C44 1.252 . S
O48 In39 2.326 . S
O48 C44 1.260 . S
C49 O40 1.240 . S
C49 O41 1.252 . S
O50 In39 2.294 . S
O50 C43 1.240 . S
O51 In39 2.326 . S
O51 C43 1.252 . S
In52 O53 2.294 . S
In52 O54 2.326 . S
In52 O58 2.266 . S
In52 O59 2.326 . S
In52 O60 2.266 . S
In52 O61 2.326 . S
In52 O63 2.294 . S
In52 O64 2.326 . S
O53 In52 2.294 . S
O53 C62 1.240 . S
O54 In52 2.326 . S
O54 C62 1.252 . S
C55 O58 1.252 . S
C55 O59 1.260 . S
C56 O63 1.240 . S
C56 O64 1.252 . S
C57 O60 1.252 . S
C57 O61 1.260 . S
O58 In52 2.266 . S
O58 C55 1.252 . S
O59 In52 2.326 . S
O59 C55 1.260 . S
O60 In52 2.266 . S
O60 C57 1.252 . S
O61 In52 2.326 . S
O61 C57 1.260 . S
C62 O53 1.240 . S
C62 O54 1.252 . S
O63 In52 2.294 . S
O63 C56 1.240 . S
O64 In52 2.326 . S
O64 C56 1.252 . S
In65 O66 2.294 . S
In65 O67 2.326 . S
In65 O71 2.266 . S
In65 O72 2.326 . S
In65 O73 2.266 . S
In65 O74 2.326 . S
In65 O76 2.294 . S
In65 O77 2.326 . S
O66 In65 2.294 . S
O66 C75 1.240 . S
O67 In65 2.326 . S
O67 C75 1.252 . S
C68 O71 1.252 . S
C68 O72 1.260 . S
C69 O76 1.240 . S
C69 O77 1.252 . S
C70 O73 1.252 . S
C70 O74 1.260 . S
O71 In65 2.266 . S
O71 C68 1.252 . S
O72 In65 2.326 . S
O72 C68 1.260 . S
O73 In65 2.266 . S
O73 C70 1.252 . S
O74 In65 2.326 . S
O74 C70 1.260 . S
C75 O66 1.240 . S
C75 O67 1.252 . S
O76 In65 2.294 . S
O76 C69 1.240 . S
O77 In65 2.326 . S
O77 C69 1.252 . S
In78 O79 2.294 . S
In78 O80 2.326 . S
In78 O84 2.266 . S
In78 O85 2.326 . S
In78 O86 2.266 . S
In78 O87 2.326 . S
In78 O89 2.294 . S
In78 O90 2.326 . S
O79 In78 2.294 . S
O79 C88 1.240 . S
O80 In78 2.326 . S
O80 C88 1.252 . S
C81 O84 1.252 . S
C81 O85 1.260 . S
C82 O89 1.240 . S
C82 O90 1.252 . S
C83 O86 1.252 . S
C83 O87 1.260 . S
O84 In78 2.266 . S
O84 C81 1.252 . S
O85 In78 2.326 . S
O85 C81 1.260 . S
O86 In78 2.266 . S
O86 C83 1.252 . S
O87 In78 2.326 . S
O87 C83 1.260 . S
C88 O79 1.240 . S
C88 O80 1.252 . S
O89 In78 2.294 . S
O89 C82 1.240 . S
O90 In78 2.326 . S
O90 C82 1.252 . S
In91 O92 2.294 . S
In91 O93 2.326 . S
In91 O97 2.266 . S
In91 O98 2.326 . S
In91 O99 2.266 . S
In91 O100 2.326 . S
In91 O102 2.294 . S
In91 O103 2.326 . S
O92 In91 2.294 . S
O92 C101 1.240 . S
O93 In91 2.326 . S
O93 C101 1.252 . S
C94 O97 1.252 . S
C94 O98 1.260 . S
C95 O102 1.240 . S
C95 O103 1.252 . S
C96 O99 1.252 . S
C96 O100 1.260 . S
O97 In91 2.266 . S
O97 C94 1.252 . S
O98 In91 2.326 . S
O98 C94 1.260 . S
O99 In91 2.266 . S
O99 C96 1.252 . S
O100 In91 2.326 . S
O100 C96 1.260 . S
C101 O92 1.240 . S
C101 O93 1.252 . S
O102 In91 2.294 . S
O102 C95 1.240 . S
O103 In91 2.326 . S
O103 C95 1.252 . S
In104 O105 2.294 . S
In104 O106 2.326 . S
In104 O110 2.266 . S
In104 O111 2.326 . S
In104 O112 2.266 . S
In104 O113 2.326 . S
In104 O115 2.294 . S
In104 O116 2.326 . S
O105 In104 2.294 . S
O105 C114 1.240 . S
O106 In104 2.326 . S
O106 C114 1.252 . S
C107 O110 1.252 . S
C107 O111 1.260 . S
C108 O115 1.240 . S
C108 O116 1.252 . S
C109 O112 1.252 . S
C109 O113 1.260 . S
O110 In104 2.266 . S
O110 C107 1.252 . S
O111 In104 2.326 . S
O111 C107 1.260 . S
O112 In104 2.266 . S
O112 C109 1.252 . S
O113 In104 2.326 . S
O113 C109 1.260 . S
C114 O105 1.240 . S
C114 O106 1.252 . S
O115 In104 2.294 . S
O115 C108 1.240 . S
O116 In104 2.326 . S
O116 C108 1.252 . S
In117 O118 2.294 . S
In117 O119 2.326 . S
In117 O123 2.266 . S
In117 O124 2.326 . S
In117 O125 2.266 . S
In117 O126 2.326 . S
In117 O128 2.294 . S
In117 O129 2.326 . S
O118 In117 2.294 . S
O118 C127 1.240 . S
O119 In117 2.326 . S
O119 C127 1.252 . S
C120 O123 1.252 . S
C120 O124 1.260 . S
C121 O128 1.240 . S
C121 O129 1.252 . S
C122 O125 1.252 . S
C122 O126 1.260 . S
O123 In117 2.266 . S
O123 C120 1.252 . S
O124 In117 2.326 . S
O124 C120 1.260 . S
O125 In117 2.266 . S
O125 C122 1.252 . S
O126 In117 2.326 . S
O126 C122 1.260 . S
C127 O118 1.240 . S
C127 O119 1.252 . S
O128 In117 2.294 . S
O128 C121 1.240 . S
O129 In117 2.326 . S
O129 C121 1.252 . S
In130 O131 2.294 . S
In130 O132 2.326 . S
In130 O136 2.266 . S
In130 O137 2.326 . S
In130 O138 2.266 . S
In130 O139 2.326 . S
In130 O141 2.294 . S
In130 O142 2.326 . S
O131 In130 2.294 . S
O131 C140 1.240 . S
O132 In130 2.326 . S
O132 C140 1.252 . S
C133 O136 1.252 . S
C133 O137 1.260 . S
C134 O141 1.240 . S
C134 O142 1.252 . S
C135 O138 1.252 . S
C135 O139 1.260 . S
O136 In130 2.266 . S
O136 C133 1.252 . S
O137 In130 2.326 . S
O137 C133 1.260 . S
O138 In130 2.266 . S
O138 C135 1.252 . S
O139 In130 2.326 . S
O139 C135 1.260 . S
C140 O131 1.240 . S
C140 O132 1.252 . S
O141 In130 2.294 . S
O141 C134 1.240 . S
O142 In130 2.326 . S
O142 C134 1.252 . S
In143 O144 2.294 . S
In143 O145 2.326 . S
In143 O149 2.266 . S
In143 O150 2.326 . S
In143 O151 2.266 . S
In143 O152 2.326 . S
In143 O154 2.294 . S
In143 O155 2.326 . S
O144 In143 2.294 . S
O144 C153 1.240 . S
O145 In143 2.326 . S
O145 C153 1.252 . S
C146 O149 1.252 . S
C146 O150 1.260 . S
C147 O154 1.240 . S
C147 O155 1.252 . S
C148 O151 1.252 . S
C148 O152 1.260 . S
O149 In143 2.266 . S
O149 C146 1.252 . S
O150 In143 2.326 . S
O150 C146 1.260 . S
O151 In143 2.266 . S
O151 C148 1.252 . S
O152 In143 2.326 . S
O152 C148 1.260 . S
C153 O144 1.240 . S
C153 O145 1.252 . S
O154 In143 2.294 . S
O154 C147 1.240 . S
O155 In143 2.326 . S
O155 C147 1.252 . S
In156 O157 2.294 . S
In156 O158 2.326 . S
In156 O162 2.266 . S
In156 O163 2.326 . S
In156 O164 2.266 . S
In156 O165 2.326 . S
In156 O167 2.294 . S
In156 O168 2.326 . S
O157 In156 2.294 . S
O157 C166 1.240 . S
O158 In156 2.326 . S
O158 C166 1.252 . S
C159 O162 1.252 . S
C159 O163 1.260 . S
C160 O167 1.240 . S
C160 O168 1.252 . S
C161 O164 1.252 . S
C161 O165 1.260 . S
O162 In156 2.266 . S
O162 C159 1.252 . S
O163 In156 2.326 . S
O163 C159 1.260 . S
O164 In156 2.266 . S
O164 C161 1.252 . S
O165 In156 2.326 . S
O165 C161 1.260 . S
C166 O157 1.240 . S
C166 O158 1.252 . S
O167 In156 2.294 . S
O167 C160 1.240 . S
O168 In156 2.326 . S
O168 C160 1.252 . S
In169 O170 2.294 . S
In169 O171 2.326 . S
In169 O175 2.266 . S
In169 O176 2.326 . S
In169 O177 2.266 . S
In169 O178 2.326 . S
In169 O180 2.294 . S
In169 O181 2.326 . S
O170 In169 2.294 . S
O170 C179 1.240 . S
O171 In169 2.326 . S
O171 C179 1.252 . S
C172 O175 1.252 . S
C172 O176 1.260 . S
C173 O180 1.240 . S
C173 O181 1.252 . S
C174 O177 1.252 . S
C174 O178 1.260 . S
O175 In169 2.266 . S
O175 C172 1.252 . S
O176 In169 2.326 . S
O176 C172 1.260 . S
O177 In169 2.266 . S
O177 C174 1.252 . S
O178 In169 2.326 . S
O178 C174 1.260 . S
C179 O170 1.240 . S
C179 O171 1.252 . S
O180 In169 2.294 . S
O180 C173 1.240 . S
O181 In169 2.326 . S
O181 C173 1.252 . S
In182 O183 2.294 . S
In182 O184 2.326 . S
In182 O188 2.266 . S
In182 O189 2.326 . S
In182 O190 2.266 . S
In182 O191 2.326 . S
In182 O193 2.294 . S
In182 O194 2.326 . S
O183 In182 2.294 . S
O183 C192 1.240 . S
O184 In182 2.326 . S
O184 C192 1.252 . S
C185 O188 1.252 . S
C185 O189 1.260 . S
C186 O193 1.240 . S
C186 O194 1.252 . S
C187 O190 1.252 . S
C187 O191 1.260 . S
O188 In182 2.266 . S
O188 C185 1.252 . S
O189 In182 2.326 . S
O189 C185 1.260 . S
O190 In182 2.266 . S
O190 C187 1.252 . S
O191 In182 2.326 . S
O191 C187 1.260 . S
C192 O183 1.240 . S
C192 O184 1.252 . S
O193 In182 2.294 . S
O193 C186 1.240 . S
O194 In182 2.326 . S
O194 C186 1.252 . S
In195 O196 2.294 . S
In195 O197 2.326 . S
In195 O201 2.266 . S
In195 O202 2.326 . S
In195 O203 2.266 . S
In195 O204 2.326 . S
In195 O206 2.294 . S
In195 O207 2.326 . S
O196 In195 2.294 . S
O196 C205 1.240 . S
O197 In195 2.326 . S
O197 C205 1.252 . S
C198 O201 1.252 . S
C198 O202 1.260 . S
C199 O206 1.240 . S
C199 O207 1.252 . S
C200 O203 1.252 . S
C200 O204 1.260 . S
O201 In195 2.266 . S
O201 C198 1.252 . S
O202 In195 2.326 . S
O202 C198 1.260 . S
O203 In195 2.266 . S
O203 C200 1.252 . S
O204 In195 2.326 . S
O204 C200 1.260 . S
C205 O196 1.240 . S
C205 O197 1.252 . S
O206 In195 2.294 . S
O206 C199 1.240 . S
O207 In195 2.326 . S
O207 C199 1.252 . S
C208 C209 1.349 . S
C208 C210 1.327 . S
C208 H233 0.950 . S
C209 C208 1.349 . S
C209 C225 1.349 . S
C210 C208 1.327 . S
C210 C229 1.429 . S
C210 H234 0.950 1_554 S
C211 C228 1.574 . S
C211 C230 1.368 . S
C211 H235 0.949 . S
H212 C216 0.949 . S
C213 C214 1.349 . S
C213 C215 1.327 . S
C213 H236 0.950 . S
C214 C213 1.349 . S
C214 C226 1.349 . S
C215 C213 1.327 . S
C215 C231 1.429 . S
C215 H237 0.950 . S
C216 H212 0.949 . S
C216 C224 1.574 . S
C216 C232 1.368 . S
H217 C225 0.950 . S
H218 C223 0.950 . S
H219 C224 0.949 . S
H220 C226 0.950 . S
H221 C227 0.950 . S
H222 C228 0.949 . S
C223 H218 0.950 . S
C223 C225 1.327 . S
C223 C229 1.429 . S
C224 C216 1.574 . S
C224 H219 0.949 . S
C224 C230 1.368 1_556 S
C225 C209 1.349 . S
C225 H217 0.950 . S
C225 C223 1.327 . S
C226 C214 1.349 . S
C226 H220 0.950 . S
C226 C227 1.327 . S
C227 H221 0.950 . S
C227 C226 1.327 . S
C227 C231 1.429 . S
C228 C211 1.574 . S
C228 H222 0.949 . S
C228 C232 1.368 1_554 S
C229 C210 1.429 . S
C229 C223 1.429 . S
C229 C230 1.523 . S
C230 C211 1.368 . S
C230 C224 1.368 1_554 S
C230 C229 1.523 . S
C231 C215 1.429 . S
C231 C227 1.429 . S
C231 C232 1.523 . S
C232 C216 1.368 . S
C232 C228 1.368 1_556 S
C232 C231 1.523 . S
H233 C208 0.950 . S
H234 C210 0.950 1_556 S
H235 C211 0.949 . S
H236 C213 0.950 . S
H237 C215 0.950 . S
C238 C239 1.349 . S
C238 C240 1.327 . S
C238 H263 0.950 . S
C239 C238 1.349 . S
C239 C255 1.349 . S
C240 C238 1.327 . S
C240 C259 1.429 . S
C240 H264 0.950 . S
C241 C258 1.574 . S
C241 C260 1.368 . S
C241 H265 0.949 . S
H242 C246 0.949 . S
C243 C244 1.349 . S
C243 C245 1.327 . S
C243 H266 0.950 . S
C244 C243 1.349 . S
C244 C256 1.349 . S
C245 C243 1.327 . S
C245 C261 1.429 . S
C245 H267 0.950 . S
C246 H242 0.949 . S
C246 C254 1.574 . S
C246 C262 1.368 . S
H247 C255 0.950 . S
H248 C253 0.950 . S
H249 C254 0.949 . S
H250 C256 0.950 . S
H251 C257 0.950 . S
H252 C258 0.949 . S
C253 H248 0.950 . S
C253 C255 1.327 . S
C253 C259 1.429 . S
C254 C246 1.574 . S
C254 H249 0.949 . S
C254 C260 1.368 . S
C255 C239 1.349 . S
C255 H247 0.950 . S
C255 C253 1.327 . S
C256 C244 1.349 . S
C256 H250 0.950 . S
C256 C257 1.327 . S
C257 H251 0.950 . S
C257 C256 1.327 . S
C257 C261 1.429 . S
C258 C241 1.574 . S
C258 H252 0.949 . S
C258 C262 1.368 . S
C259 C240 1.429 . S
C259 C253 1.429 . S
C259 C260 1.523 . S
C260 C241 1.368 . S
C260 C254 1.368 . S
C260 C259 1.523 . S
C261 C245 1.429 . S
C261 C257 1.429 . S
C261 C262 1.523 . S
C262 C246 1.368 . S
C262 C258 1.368 . S
C262 C261 1.523 . S
H263 C238 0.950 . S
H264 C240 0.950 . S
H265 C241 0.949 . S
H266 C243 0.950 . S
H267 C245 0.950 . S
C268 C269 1.349 . S
C268 C270 1.327 . S
C268 H293 0.950 . S
C269 C268 1.349 . S
C269 C285 1.349 . S
C270 C268 1.327 . S
C270 C289 1.429 . S
C270 H294 0.950 . S
C271 C288 1.563 1_556 S
C271 C290 1.370 . S
C271 H295 0.957 . S
H272 C276 0.949 . S
C273 C274 1.349 . S
C273 C275 1.327 . S
C273 H296 0.950 . S
C274 C273 1.349 . S
C274 C286 1.349 . S
C275 C273 1.327 . S
C275 C291 1.429 . S
C275 H297 0.950 . S
C276 H272 0.949 . S
C276 C284 1.574 . S
C276 C292 1.368 . S
H277 C285 0.950 . S
H278 C283 0.950 . S
H279 C284 0.949 . S
H280 C286 0.950 . S
H281 C287 0.950 . S
H282 C288 0.949 . S
C283 H278 0.950 . S
C283 C285 1.327 . S
C283 C289 1.429 . S
C284 C276 1.574 . S
C284 H279 0.949 . S
C284 C290 1.368 1_554 S
C285 C269 1.349 . S
C285 H277 0.950 . S
C285 C283 1.327 . S
C286 C274 1.349 . S
C286 H280 0.950 . S
C286 C287 1.327 . S
C287 H281 0.950 . S
C287 C286 1.327 . S
C287 C291 1.429 . S
C288 C271 1.563 1_554 S
C288 H282 0.949 . S
C288 C292 1.368 . S
C289 C270 1.429 . S
C289 C283 1.429 . S
C289 C290 1.523 . S
C290 C271 1.370 . S
C290 C284 1.368 1_556 S
C290 C289 1.523 . S
C291 C275 1.429 . S
C291 C287 1.429 . S
C291 C292 1.523 . S
C292 C276 1.368 . S
C292 C288 1.368 . S
C292 C291 1.523 . S
H293 C268 0.950 . S
H294 C270 0.950 . S
H295 C271 0.957 . S
H296 C273 0.950 . S
H297 C275 0.950 . S
C298 C299 1.349 . S
C298 C300 1.327 . S
C298 H323 0.950 . S
C299 C298 1.349 . S
C299 C315 1.349 . S
C300 C298 1.327 . S
C300 C319 1.429 . S
C300 H324 0.950 . S
C301 C318 1.574 . S
C301 C320 1.368 . S
C301 H325 0.949 . S
H302 C306 0.949 . S
C303 C304 1.349 . S
C303 C305 1.327 . S
C303 H326 0.950 . S
C304 C303 1.349 . S
C304 C316 1.349 . S
C305 C303 1.327 . S
C305 C321 1.429 . S
C305 H327 0.950 . S
C306 H302 0.949 . S
C306 C314 1.574 . S
C306 C322 1.368 . S
H307 C315 0.950 . S
H308 C313 0.950 . S
H309 C314 0.949 . S
H310 C316 0.950 . S
H311 C317 0.950 . S
H312 C318 0.949 . S
C313 H308 0.950 . S
C313 C315 1.327 . S
C313 C319 1.429 . S
C314 C306 1.574 . S
C314 H309 0.949 . S
C314 C320 1.368 . S
C315 C299 1.349 . S
C315 H307 0.950 . S
C315 C313 1.327 . S
C316 C304 1.349 . S
C316 H310 0.950 . S
C316 C317 1.327 . S
C317 H311 0.950 . S
C317 C316 1.327 . S
C317 C321 1.429 . S
C318 C301 1.574 . S
C318 H312 0.949 . S
C318 C322 1.368 . S
C319 C300 1.429 . S
C319 C313 1.429 . S
C319 C320 1.523 . S
C320 C301 1.368 . S
C320 C314 1.368 . S
C320 C319 1.523 . S
C321 C305 1.429 . S
C321 C317 1.429 . S
C321 C322 1.523 . S
C322 C306 1.368 . S
C322 C318 1.368 . S
C322 C321 1.523 . S
H323 C298 0.950 . S
H324 C300 0.950 . S
H325 C301 0.949 . S
H326 C303 0.950 . S
H327 C305 0.950 . S
C328 C329 1.349 . S
C328 C330 1.327 . S
C328 H353 0.950 . S
C329 C328 1.349 . S
C329 C345 1.349 . S
C330 C328 1.327 . S
C330 C349 1.429 . S
C330 H354 0.950 1_554 S
C331 C348 1.574 . S
C331 C350 1.368 . S
C331 H355 0.949 . S
H332 C336 0.949 . S
C333 C334 1.349 . S
C333 C335 1.327 . S
C333 H356 0.950 . S
C334 C333 1.349 . S
C334 C346 1.349 . S
C335 C333 1.327 . S
C335 C351 1.429 . S
C335 H357 0.950 . S
C336 H332 0.949 . S
C336 C344 1.574 . S
C336 C352 1.368 . S
H337 C345 0.950 . S
H338 C343 0.950 . S
H339 C344 0.949 . S
H340 C346 0.950 . S
H341 C347 0.950 . S
H342 C348 0.949 . S
C343 H338 0.950 . S
C343 C345 1.327 . S
C343 C349 1.429 . S
C344 C336 1.574 . S
C344 H339 0.949 . S
C344 C350 1.368 1_556 S
C345 C329 1.349 . S
C345 H337 0.950 . S
C345 C343 1.327 . S
C346 C334 1.349 . S
C346 H340 0.950 . S
C346 C347 1.327 . S
C347 H341 0.950 . S
C347 C346 1.327 . S
C347 C351 1.429 . S
C348 C331 1.574 . S
C348 H342 0.949 . S
C348 C352 1.368 1_554 S
C349 C330 1.429 . S
C349 C343 1.429 . S
C349 C350 1.523 . S
C350 C331 1.368 . S
C350 C344 1.368 1_554 S
C350 C349 1.523 . S
C351 C335 1.429 . S
C351 C347 1.429 . S
C351 C352 1.523 . S
C352 C336 1.368 . S
C352 C348 1.368 1_556 S
C352 C351 1.523 . S
H353 C328 0.950 . S
H354 C330 0.950 1_556 S
H355 C331 0.949 . S
H356 C333 0.950 . S
H357 C335 0.950 . S
C358 C359 1.349 . S
C358 C360 1.327 . S
C358 H383 0.950 . S
C359 C358 1.349 . S
C359 C375 1.349 . S
C360 C358 1.327 . S
C360 C379 1.429 . S
C360 H384 0.950 . S
C361 C378 1.574 . S
C361 C380 1.368 . S
C361 H385 0.949 . S
H362 C366 0.949 . S
C363 C364 1.349 . S
C363 C365 1.327 . S
C363 H386 0.950 . S
C364 C363 1.349 . S
C364 C376 1.349 . S
C365 C363 1.327 . S
C365 C381 1.429 . S
C365 H387 0.950 . S
C366 H362 0.949 . S
C366 C374 1.574 . S
C366 C382 1.368 . S
H367 C375 0.950 . S
H368 C373 0.950 . S
H369 C374 0.949 . S
H370 C376 0.950 . S
H371 C377 0.950 . S
H372 C378 0.949 . S
C373 H368 0.950 . S
C373 C375 1.327 . S
C373 C379 1.429 . S
C374 C366 1.574 . S
C374 H369 0.949 . S
C374 C380 1.368 . S
C375 C359 1.349 . S
C375 H367 0.950 . S
C375 C373 1.327 . S
C376 C364 1.349 . S
C376 H370 0.950 . S
C376 C377 1.327 . S
C377 H371 0.950 . S
C377 C376 1.327 . S
C377 C381 1.429 . S
C378 C361 1.574 . S
C378 H372 0.949 . S
C378 C382 1.368 . S
C379 C360 1.429 . S
C379 C373 1.429 . S
C379 C380 1.523 . S
C380 C361 1.368 . S
C380 C374 1.368 . S
C380 C379 1.523 . S
C381 C365 1.429 . S
C381 C377 1.429 . S
C381 C382 1.523 . S
C382 C366 1.368 . S
C382 C378 1.368 . S
C382 C381 1.523 . S
H383 C358 0.950 . S
H384 C360 0.950 . S
H385 C361 0.949 . S
H386 C363 0.950 . S
H387 C365 0.950 . S
C388 C389 1.349 . S
C388 C390 1.327 . S
C388 H413 0.950 . S
C389 C388 1.349 . S
C389 C405 1.349 . S
C390 C388 1.327 . S
C390 C409 1.429 . S
C390 H414 0.950 . S
C391 C408 1.574 . S
C391 C410 1.368 1_554 S
C391 H415 0.949 . S
H392 C396 0.949 . S
C393 C394 1.349 . S
C393 C395 1.327 . S
C393 H416 0.950 . S
C394 C393 1.349 . S
C394 C406 1.349 . S
C395 C393 1.327 . S
C395 C411 1.429 . S
C395 H417 0.950 . S
C396 H392 0.949 . S
C396 C404 1.574 1_554 S
C396 C412 1.368 . S
H397 C405 0.950 . S
H398 C403 0.950 . S
H399 C404 0.949 . S
H400 C406 0.950 . S
H401 C407 0.950 . S
H402 C408 0.949 . S
C403 H398 0.950 . S
C403 C405 1.327 . S
C403 C409 1.429 . S
C404 C396 1.574 1_556 S
C404 H399 0.949 . S
C404 C410 1.368 . S
C405 C389 1.349 . S
C405 H397 0.950 . S
C405 C403 1.327 . S
C406 C394 1.349 . S
C406 H400 0.950 . S
C406 C407 1.327 . S
C407 H401 0.950 . S
C407 C406 1.327 . S
C407 C411 1.429 . S
C408 C391 1.574 . S
C408 H402 0.949 . S
C408 C412 1.368 . S
C409 C390 1.429 . S
C409 C403 1.429 . S
C409 C410 1.523 . S
C410 C391 1.368 1_556 S
C410 C404 1.368 . S
C410 C409 1.523 . S
C411 C395 1.429 . S
C411 C407 1.429 . S
C411 C412 1.523 . S
C412 C396 1.368 . S
C412 C408 1.368 . S
C412 C411 1.523 . S
H413 C388 0.950 . S
H414 C390 0.950 . S
H415 C391 0.949 . S
H416 C393 0.950 . S
H417 C395 0.950 . S
C418 C419 1.349 . S
C418 C420 1.327 . S
C418 H443 0.950 . S
C419 C418 1.349 . S
C419 C435 1.349 . S
C420 C418 1.327 . S
C420 C439 1.429 . S
C420 H444 0.950 . S
C421 C438 1.574 . S
C421 C440 1.368 . S
C421 H445 0.949 . S
H422 C426 0.949 . S
C423 C424 1.349 . S
C423 C425 1.327 . S
C423 H446 0.950 . S
C424 C423 1.349 . S
C424 C436 1.349 . S
C425 C423 1.327 . S
C425 C441 1.429 . S
C425 H447 0.950 . S
C426 H422 0.949 . S
C426 C434 1.574 . S
C426 C442 1.368 . S
H427 C435 0.950 . S
H428 C433 0.950 . S
H429 C434 0.949 . S
H430 C436 0.950 . S
H431 C437 0.950 . S
H432 C438 0.949 . S
C433 H428 0.950 . S
C433 C435 1.327 . S
C433 C439 1.429 . S
C434 C426 1.574 . S
C434 H429 0.949 . S
C434 C440 1.368 . S
C435 C419 1.349 . S
C435 H427 0.950 . S
C435 C433 1.327 . S
C436 C424 1.349 . S
C436 H430 0.950 . S
C436 C437 1.327 . S
C437 H431 0.950 . S
C437 C436 1.327 . S
C437 C441 1.429 . S
C438 C421 1.574 . S
C438 H432 0.949 . S
C438 C442 1.368 . S
C439 C420 1.429 . S
C439 C433 1.429 . S
C439 C440 1.523 . S
C440 C421 1.368 . S
C440 C434 1.368 . S
C440 C439 1.523 . S
C441 C425 1.429 . S
C441 C437 1.429 . S
C441 C442 1.523 . S
C442 C426 1.368 . S
C442 C438 1.368 . S
C442 C441 1.523 . S
H443 C418 0.950 . S
H444 C420 0.950 . S
H445 C421 0.949 . S
H446 C423 0.950 . S
H447 C425 0.950 . S
C448 C449 1.349 . S
C448 C450 1.327 . S
C448 H473 0.950 . S
C449 C448 1.349 . S
C449 C465 1.349 . S
C450 C448 1.327 . S
C450 C469 1.429 . S
C450 H474 0.950 . S
C451 C468 1.574 1_545 S
C451 C470 1.368 1_556 S
C451 H475 0.949 . S
H452 C456 0.949 . S
C453 C454 1.349 . S
C453 C455 1.327 . S
C453 H476 0.950 . S
C454 C453 1.349 . S
C454 C466 1.349 . S
C455 C453 1.327 . S
C455 C471 1.429 . S
C455 H477 0.950 . S
C456 H452 0.949 . S
C456 C464 1.574 1_565 S
C456 C472 1.368 1_554 S
H457 C465 0.952 . S
H458 C463 0.950 1_556 S
H459 C464 0.949 . S
H460 C466 0.952 . S
H461 C467 0.950 1_554 S
H462 C468 0.949 . S
C463 H458 0.950 1_554 S
C463 C465 1.327 . S
C463 C469 1.429 . S
C464 C456 1.574 1_545 S
C464 H459 0.949 . S
C464 C470 1.368 . S
C465 C449 1.349 . S
C465 H457 0.952 . S
C465 C463 1.327 . S
C466 C454 1.349 . S
C466 H460 0.952 . S
C466 C467 1.327 . S
C467 H461 0.950 1_556 S
C467 C466 1.327 . S
C467 C471 1.429 . S
C468 C451 1.574 1_565 S
C468 H462 0.949 . S
C468 C472 1.368 . S
C469 C450 1.429 . S
C469 C463 1.429 . S
C469 C470 1.523 . S
C470 C451 1.368 1_554 S
C470 C464 1.368 . S
C470 C469 1.523 . S
C471 C455 1.429 . S
C471 C467 1.429 . S
C471 C472 1.523 . S
C472 C456 1.368 1_556 S
C472 C468 1.368 . S
C472 C471 1.523 . S
H473 C448 0.950 . S
H474 C450 0.950 . S
H475 C451 0.949 . S
H476 C453 0.950 . S
H477 C455 0.950 . S
C478 C479 1.349 . S
C478 C480 1.327 . S
C478 H503 0.950 . S
C479 C478 1.349 . S
C479 C495 1.349 . S
C480 C478 1.327 . S
C480 C499 1.429 . S
C480 H504 0.950 . S
C481 C498 1.574 1_565 S
C481 C500 1.368 . S
C481 H505 0.949 . S
H482 C486 0.949 . S
C483 C484 1.349 . S
C483 C485 1.327 . S
C483 H506 0.950 . S
C484 C483 1.349 . S
C484 C496 1.349 . S
C485 C483 1.327 . S
C485 C501 1.429 . S
C485 H507 0.950 . S
C486 H482 0.949 . S
C486 C494 1.574 1_545 S
C486 C502 1.368 . S
H487 C495 0.950 . S
H488 C493 0.950 . S
H489 C494 0.949 . S
H490 C496 0.950 . S
H491 C497 0.950 . S
H492 C498 0.949 . S
C493 H488 0.950 . S
C493 C495 1.327 . S
C493 C499 1.429 . S
C494 C486 1.574 1_565 S
C494 H489 0.949 . S
C494 C500 1.368 . S
C495 C479 1.349 . S
C495 H487 0.950 . S
C495 C493 1.327 . S
C496 C484 1.349 . S
C496 H490 0.950 . S
C496 C497 1.327 . S
C497 H491 0.950 . S
C497 C496 1.327 . S
C497 C501 1.429 . S
C498 C481 1.574 1_545 S
C498 H492 0.949 . S
C498 C502 1.368 . S
C499 C480 1.429 . S
C499 C493 1.429 . S
C499 C500 1.523 . S
C500 C481 1.368 . S
C500 C494 1.368 . S
C500 C499 1.523 . S
C501 C485 1.429 . S
C501 C497 1.429 . S
C501 C502 1.523 . S
C502 C486 1.368 . S
C502 C498 1.368 . S
C502 C501 1.523 . S
H503 C478 0.950 . S
H504 C480 0.950 . S
H505 C481 0.949 . S
H506 C483 0.950 . S
H507 C485 0.950 . S
C508 C509 1.349 . S
C508 C510 1.327 . S
C508 H533 0.950 . S
C509 C508 1.349 . S
C509 C525 1.349 . S
C510 C508 1.327 . S
C510 C529 1.429 . S
C510 H534 0.950 . S
C511 C528 1.574 1_565 S
C511 C530 1.368 1_554 S
C511 H535 0.949 . S
H512 C516 0.949 . S
C513 C514 1.349 . S
C513 C515 1.327 . S
C513 H536 0.950 . S
C514 C513 1.349 . S
C514 C526 1.349 . S
C515 C513 1.327 . S
C515 C531 1.429 . S
C515 H537 0.950 . S
C516 H512 0.949 . S
C516 C524 1.574 1_545 S
C516 C532 1.368 1_556 S
H517 C525 0.950 . S
H518 C523 0.950 . S
H519 C524 0.949 . S
H520 C526 0.950 . S
H521 C527 0.950 . S
H522 C528 0.949 . S
C523 H518 0.950 . S
C523 C525 1.327 . S
C523 C529 1.429 . S
C524 C516 1.574 1_565 S
C524 H519 0.949 . S
C524 C530 1.368 . S
C525 C509 1.349 . S
C525 H517 0.950 . S
C525 C523 1.327 . S
C526 C514 1.349 . S
C526 H520 0.950 . S
C526 C527 1.327 . S
C527 H521 0.950 . S
C527 C526 1.327 . S
C527 C531 1.429 . S
C528 C511 1.574 1_545 S
C528 H522 0.949 . S
C528 C532 1.368 . S
C529 C510 1.429 . S
C529 C523 1.429 . S
C529 C530 1.523 . S
C530 C511 1.368 1_556 S
C530 C524 1.368 . S
C530 C529 1.523 . S
C531 C515 1.429 . S
C531 C527 1.429 . S
C531 C532 1.523 . S
C532 C516 1.368 1_554 S
C532 C528 1.368 . S
C532 C531 1.523 . S
H533 C508 0.950 . S
H534 C510 0.950 . S
H535 C511 0.949 . S
H536 C513 0.950 . S
H537 C515 0.950 . S
C538 C539 1.349 . S
C538 C540 1.327 . S
C538 H563 0.950 . S
C539 C538 1.349 . S
C539 C555 1.349 . S
C540 C538 1.327 . S
C540 C559 1.429 . S
C540 H564 0.950 . S
C541 C558 1.574 1_545 S
C541 C560 1.368 . S
C541 H565 0.949 . S
H542 C546 0.949 . S
C543 C544 1.349 . S
C543 C545 1.327 . S
C543 H566 0.950 . S
C544 C543 1.349 . S
C544 C556 1.349 . S
C545 C543 1.327 . S
C545 C561 1.429 . S
C545 H567 0.950 . S
C546 H542 0.949 . S
C546 C554 1.574 1_565 S
C546 C562 1.368 . S
H547 C555 0.950 . S
H548 C553 0.950 . S
H549 C554 0.949 . S
H550 C556 0.950 . S
H551 C557 0.950 . S
H552 C558 0.949 . S
C553 H548 0.950 . S
C553 C555 1.327 . S
C553 C559 1.429 . S
C554 C546 1.574 1_545 S
C554 H549 0.949 . S
C554 C560 1.368 . S
C555 C539 1.349 . S
C555 H547 0.950 . S
C555 C553 1.327 . S
C556 C544 1.349 . S
C556 H550 0.950 . S
C556 C557 1.327 . S
C557 H551 0.950 . S
C557 C556 1.327 . S
C557 C561 1.429 . S
C558 C541 1.574 1_565 S
C558 H552 0.949 . S
C558 C562 1.368 . S
C559 C540 1.429 . S
C559 C553 1.429 . S
C559 C560 1.523 . S
C560 C541 1.368 . S
C560 C554 1.368 . S
C560 C559 1.523 . S
C561 C545 1.429 . S
C561 C557 1.429 . S
C561 C562 1.523 . S
C562 C546 1.368 . S
C562 C558 1.368 . S
C562 C561 1.523 . S
H563 C538 0.950 . S
H564 C540 0.950 . S
H565 C541 0.949 . S
H566 C543 0.950 . S
H567 C545 0.950 . S
C568 C569 1.349 . S
C568 C570 1.327 . S
C568 H593 0.950 . S
C569 C568 1.349 . S
C569 C585 1.349 . S
C570 C568 1.327 . S
C570 C589 1.429 . S
C570 H594 0.950 1_556 S
C571 C588 1.574 . S
C571 C590 1.368 . S
C571 H595 0.949 . S
H572 C576 0.949 . S
C573 C574 1.349 . S
C573 C575 1.327 . S
C573 H596 0.950 . S
C574 C573 1.349 . S
C574 C586 1.349 . S
C575 C573 1.327 . S
C575 C591 1.429 . S
C575 H597 0.950 1_554 S
C576 H572 0.949 . S
C576 C584 1.574 . S
C576 C592 1.368 . S
H577 C585 0.950 . S
H578 C583 0.950 . S
H579 C584 0.949 . S
H580 C586 0.950 . S
H581 C587 0.950 . S
H582 C588 0.949 . S
C583 H578 0.950 . S
C583 C585 1.327 . S
C583 C589 1.429 . S
C584 C576 1.574 . S
C584 H579 0.949 . S
C584 C590 1.368 1_554 S
C585 C569 1.349 . S
C585 H577 0.950 . S
C585 C583 1.327 . S
C586 C574 1.349 . S
C586 H580 0.950 . S
C586 C587 1.327 . S
C587 H581 0.950 . S
C587 C586 1.327 . S
C587 C591 1.429 . S
C588 C571 1.574 . S
C588 H582 0.949 . S
C588 C592 1.368 1_556 S
C589 C570 1.429 . S
C589 C583 1.429 . S
C589 C590 1.523 . S
C590 C571 1.368 . S
C590 C584 1.368 1_556 S
C590 C589 1.523 . S
C591 C575 1.429 . S
C591 C587 1.429 . S
C591 C592 1.523 . S
C592 C576 1.368 . S
C592 C588 1.368 1_554 S
C592 C591 1.523 . S
H593 C568 0.950 . S
H594 C570 0.950 1_554 S
H595 C571 0.949 . S
H596 C573 0.950 . S
H597 C575 0.950 1_556 S
C598 C599 1.349 . S
C598 C600 1.327 . S
C598 H623 0.950 . S
C599 C598 1.349 . S
C599 C615 1.349 . S
C600 C598 1.327 . S
C600 C619 1.429 . S
C600 H624 0.950 . S
C601 C618 1.574 . S
C601 C620 1.368 . S
C601 H625 0.949 . S
H602 C606 0.949 . S
C603 C604 1.349 . S
C603 C605 1.327 . S
C603 H626 0.950 . S
C604 C603 1.349 . S
C604 C616 1.349 . S
C605 C603 1.327 . S
C605 C621 1.429 . S
C605 H627 0.950 . S
C606 H602 0.949 . S
C606 C614 1.574 . S
C606 C622 1.368 . S
H607 C615 0.950 . S
H608 C613 0.950 . S
H609 C614 0.949 . S
H610 C616 0.950 . S
H611 C617 0.950 . S
H612 C618 0.949 . S
C613 H608 0.950 . S
C613 C615 1.327 . S
C613 C619 1.429 . S
C614 C606 1.574 . S
C614 H609 0.949 . S
C614 C620 1.368 . S
C615 C599 1.349 . S
C615 H607 0.950 . S
C615 C613 1.327 . S
C616 C604 1.349 . S
C616 H610 0.950 . S
C616 C617 1.327 . S
C617 H611 0.950 . S
C617 C616 1.327 . S
C617 C621 1.429 . S
C618 C601 1.574 . S
C618 H612 0.949 . S
C618 C622 1.368 . S
C619 C600 1.429 . S
C619 C613 1.429 . S
C619 C620 1.523 . S
C620 C601 1.368 . S
C620 C614 1.368 . S
C620 C619 1.523 . S
C621 C605 1.429 . S
C621 C617 1.429 . S
C621 C622 1.523 . S
C622 C606 1.368 . S
C622 C618 1.368 . S
C622 C621 1.523 . S
H623 C598 0.950 . S
H624 C600 0.950 . S
H625 C601 0.949 . S
H626 C603 0.950 . S
H627 C605 0.950 . S
C628 C629 1.349 . S
C628 C630 1.327 . S
C628 H653 0.950 . S
C629 C628 1.349 . S
C629 C645 1.349 . S
C630 C628 1.327 . S
C630 C649 1.429 . S
C630 H654 0.950 . S
C631 C648 1.584 . S
C631 C650 1.368 . S
C631 H655 0.949 . S
H632 C636 0.949 . S
C633 C634 1.349 . S
C633 C635 1.327 . S
C633 H656 0.950 . S
C634 C633 1.349 . S
C634 C646 1.349 . S
C635 C633 1.327 . S
C635 C651 1.429 . S
C635 H657 0.950 . S
C636 H632 0.949 . S
C636 C644 1.584 . S
C636 C652 1.368 . S
H637 C645 0.950 . S
H638 C643 0.950 . S
H639 C644 0.949 . S
H640 C646 0.950 . S
H641 C647 0.950 . S
H642 C648 0.949 . S
C643 H638 0.950 . S
C643 C645 1.327 . S
C643 C649 1.429 . S
C644 C636 1.584 . S
C644 H639 0.949 . S
C644 C650 1.359 1_556 S
C645 C629 1.349 . S
C645 H637 0.950 . S
C645 C643 1.327 . S
C646 C634 1.349 . S
C646 H640 0.950 . S
C646 C647 1.327 . S
C647 H641 0.950 . S
C647 C646 1.327 . S
C647 C651 1.429 . S
C648 C631 1.584 . S
C648 H642 0.949 . S
C648 C652 1.359 1_554 S
C649 C630 1.429 . S
C649 C643 1.429 . S
C649 C650 1.523 . S
C650 C631 1.368 . S
C650 C644 1.359 1_554 S
C650 C649 1.523 . S
C651 C635 1.429 . S
C651 C647 1.429 . S
C651 C652 1.523 . S
C652 C636 1.368 . S
C652 C648 1.359 1_556 S
C652 C651 1.523 . S
H653 C628 0.950 . S
H654 C630 0.950 . S
H655 C631 0.949 . S
H656 C633 0.950 . S
H657 C635 0.950 . S
C658 C659 1.349 . S
C658 C660 1.327 . S
C658 H683 0.950 . S
C659 C658 1.349 . S
C659 C675 1.349 . S
C660 C658 1.327 . S
C660 C679 1.429 . S
C660 H684 0.950 . S
C661 C678 1.574 . S
C661 C680 1.368 . S
C661 H685 0.949 . S
H662 C666 0.949 . S
C663 C664 1.349 . S
C663 C665 1.327 . S
C663 H686 0.950 . S
C664 C663 1.349 . S
C664 C676 1.349 . S
C665 C663 1.327 . S
C665 C681 1.429 . S
C665 H687 0.950 . S
C666 H662 0.949 . S
C666 C674 1.574 . S
C666 C682 1.368 . S
H667 C675 0.950 . S
H668 C673 0.950 . S
H669 C674 0.949 . S
H670 C676 0.950 . S
H671 C677 0.950 . S
H672 C678 0.949 . S
C673 H668 0.950 . S
C673 C675 1.327 . S
C673 C679 1.429 . S
C674 C666 1.574 . S
C674 H669 0.949 . S
C674 C680 1.368 . S
C675 C659 1.349 . S
C675 H667 0.950 . S
C675 C673 1.327 . S
C676 C664 1.349 . S
C676 H670 0.950 . S
C676 C677 1.327 . S
C677 H671 0.950 . S
C677 C676 1.327 . S
C677 C681 1.429 . S
C678 C661 1.574 . S
C678 H672 0.949 . S
C678 C682 1.368 . S
C679 C660 1.429 . S
C679 C673 1.429 . S
C679 C680 1.523 . S
C680 C661 1.368 . S
C680 C674 1.368 . S
C680 C679 1.523 . S
C681 C665 1.429 . S
C681 C677 1.429 . S
C681 C682 1.523 . S
C682 C666 1.368 . S
C682 C678 1.368 . S
C682 C681 1.523 . S
H683 C658 0.950 . S
H684 C660 0.950 . S
H685 C661 0.949 . S
H686 C663 0.950 . S
H687 C665 0.950 . S
C688 C689 1.349 . S
C688 C690 1.327 . S
C688 H713 0.950 . S
C689 C688 1.349 . S
C689 C705 1.349 . S
C690 C688 1.327 . S
C690 C709 1.429 . S
C690 H714 0.950 . S
C691 C708 1.574 . S
C691 C710 1.368 . S
C691 H715 0.949 . S
H692 C696 0.949 . S
C693 C694 1.349 . S
C693 C695 1.327 . S
C693 H716 0.950 . S
C694 C693 1.349 . S
C694 C706 1.349 . S
C695 C693 1.327 . S
C695 C711 1.429 . S
C695 H717 0.950 . S
C696 H692 0.949 . S
C696 C704 1.574 . S
C696 C712 1.368 . S
H697 C705 0.950 . S
H698 C703 0.950 . S
H699 C704 0.949 . S
H700 C706 0.950 . S
H701 C707 0.950 . S
H702 C708 0.949 . S
C703 H698 0.950 . S
C703 C705 1.327 . S
C703 C709 1.429 . S
C704 C696 1.574 . S
C704 H699 0.949 . S
C704 C710 1.368 . S
C705 C689 1.349 . S
C705 H697 0.950 . S
C705 C703 1.327 . S
C706 C694 1.349 . S
C706 H700 0.950 . S
C706 C707 1.327 . S
C707 H701 0.950 . S
C707 C706 1.327 . S
C707 C711 1.429 . S
C708 C691 1.574 . S
C708 H702 0.949 . S
C708 C712 1.368 . S
C709 C690 1.429 . S
C709 C703 1.429 . S
C709 C710 1.523 . S
C710 C691 1.368 . S
C710 C704 1.368 . S
C710 C709 1.523 . S
C711 C695 1.429 . S
C711 C707 1.429 . S
C711 C712 1.523 . S
C712 C696 1.368 . S
C712 C708 1.368 . S
C712 C711 1.523 . S
H713 C688 0.950 . S
H714 C690 0.950 . S
H715 C691 0.949 . S
H716 C693 0.950 . S
H717 C695 0.950 . S
C718 C719 1.349 . S
C718 C720 1.327 . S
C718 H743 0.950 . S
C719 C718 1.349 . S
C719 C735 1.349 . S
C720 C718 1.327 . S
C720 C739 1.429 . S
C720 H744 0.950 . S
C721 C738 1.574 . S
C721 C740 1.368 1_455 S
C721 H745 0.949 1_455 S
H722 C726 0.949 . S
C723 C724 1.349 . S
C723 C725 1.327 . S
C723 H746 0.950 . S
C724 C723 1.349 . S
C724 C736 1.349 . S
C725 C723 1.327 . S
C725 C741 1.429 . S
C725 H747 0.950 . S
C726 H722 0.949 . S
C726 C734 1.574 . S
C726 C742 1.368 . S
H727 C735 0.950 . S
H728 C733 0.950 . S
H729 C734 0.949 1_655 S
H730 C736 0.950 . S
H731 C737 0.950 . S
H732 C738 0.949 . S
C733 H728 0.950 . S
C733 C735 1.327 . S
C733 C739 1.429 . S
C734 C726 1.574 . S
C734 H729 0.949 1_455 S
C734 C740 1.368 1_455 S
C735 C719 1.349 . S
C735 H727 0.950 . S
C735 C733 1.327 . S
C736 C724 1.349 . S
C736 H730 0.950 . S
C736 C737 1.327 . S
C737 H731 0.950 . S
C737 C736 1.327 . S
C737 C741 1.429 . S
C738 C721 1.574 . S
C738 H732 0.949 . S
C738 C742 1.368 . S
C739 C720 1.429 . S
C739 C733 1.429 . S
C739 C740 1.523 . S
C740 C721 1.368 1_655 S
C740 C734 1.368 1_655 S
C740 C739 1.523 . S
C741 C725 1.429 . S
C741 C737 1.429 . S
C741 C742 1.523 . S
C742 C726 1.368 . S
C742 C738 1.368 . S
C742 C741 1.523 . S
H743 C718 0.950 . S
H744 C720 0.950 . S
H745 C721 0.949 1_655 S
H746 C723 0.950 . S
H747 C725 0.950 . S
C748 C749 1.349 . S
C748 C750 1.327 . S
C748 H773 0.950 . S
C749 C748 1.349 . S
C749 C765 1.349 . S
C750 C748 1.327 . S
C750 C769 1.429 . S
C750 H774 0.950 . S
C751 C768 1.574 . S
C751 C770 1.368 . S
C751 H775 0.949 . S
H752 C756 0.949 . S
C753 C754 1.349 . S
C753 C755 1.327 . S
C753 H776 0.950 . S
C754 C753 1.349 . S
C754 C766 1.349 . S
C755 C753 1.327 . S
C755 C771 1.429 . S
C755 H777 0.950 . S
C756 H752 0.949 . S
C756 C764 1.574 . S
C756 C772 1.368 . S
H757 C765 0.950 . S
H758 C763 0.950 . S
H759 C764 0.949 . S
H760 C766 0.950 . S
H761 C767 0.950 . S
H762 C768 0.949 . S
C763 H758 0.950 . S
C763 C765 1.327 . S
C763 C769 1.429 . S
C764 C756 1.574 . S
C764 H759 0.949 . S
C764 C770 1.368 . S
C765 C749 1.349 . S
C765 H757 0.950 . S
C765 C763 1.327 . S
C766 C754 1.349 . S
C766 H760 0.950 . S
C766 C767 1.327 . S
C767 H761 0.950 . S
C767 C766 1.327 . S
C767 C771 1.429 . S
C768 C751 1.574 . S
C768 H762 0.949 . S
C768 C772 1.368 . S
C769 C750 1.429 . S
C769 C763 1.429 . S
C769 C770 1.523 . S
C770 C751 1.368 . S
C770 C764 1.368 . S
C770 C769 1.523 . S
C771 C755 1.429 . S
C771 C767 1.429 . S
C771 C772 1.523 . S
C772 C756 1.368 . S
C772 C768 1.368 . S
C772 C771 1.523 . S
H773 C748 0.950 . S
H774 C750 0.950 . S
H775 C751 0.949 . S
H776 C753 0.950 . S
H777 C755 0.950 . S
C778 C779 1.349 . S
C778 C780 1.327 . S
C778 H803 0.950 . S
C779 C778 1.349 . S
C779 C795 1.349 . S
C780 C778 1.327 . S
C780 C799 1.429 . S
C780 H804 0.950 . S
C781 C798 1.574 . S
C781 C800 1.368 . S
C781 H805 0.949 . S
H782 C786 0.949 1_655 S
C783 C784 1.349 . S
C783 C785 1.327 . S
C783 H806 0.950 . S
C784 C783 1.349 . S
C784 C796 1.349 . S
C785 C783 1.327 . S
C785 C801 1.429 . S
C785 H807 0.950 . S
C786 H782 0.949 1_455 S
C786 C794 1.574 . S
C786 C802 1.368 1_455 S
H787 C795 0.950 . S
H788 C793 0.950 . S
H789 C794 0.949 . S
H790 C796 0.950 . S
H791 C797 0.950 . S
H792 C798 0.949 1_655 S
C793 H788 0.950 . S
C793 C795 1.327 . S
C793 C799 1.429 . S
C794 C786 1.574 . S
C794 H789 0.949 . S
C794 C800 1.368 . S
C795 C779 1.349 . S
C795 H787 0.950 . S
C795 C793 1.327 . S
C796 C784 1.349 . S
C796 H790 0.950 . S
C796 C797 1.327 . S
C797 H791 0.950 . S
C797 C796 1.327 . S
C797 C801 1.429 . S
C798 C781 1.574 . S
C798 H792 0.949 1_455 S
C798 C802 1.368 1_455 S
C799 C780 1.429 . S
C799 C793 1.429 . S
C799 C800 1.523 . S
C800 C781 1.368 . S
C800 C794 1.368 . S
C800 C799 1.523 . S
C801 C785 1.429 . S
C801 C797 1.429 . S
C801 C802 1.523 . S
C802 C786 1.368 1_655 S
C802 C798 1.368 1_655 S
C802 C801 1.523 . S
H803 C778 0.950 . S
H804 C780 0.950 . S
H805 C781 0.949 . S
H806 C783 0.950 . S
H807 C785 0.950 . S
C808 C809 1.349 . S
C808 C810 1.327 . S
C808 H833 0.950 . S
C809 C808 1.349 . S
C809 C825 1.349 . S
C810 C808 1.327 . S
C810 C829 1.429 . S
C810 H834 0.950 . S
C811 C828 1.574 . S
C811 C830 1.368 1_655 S
C811 H835 0.949 1_655 S
H812 C816 0.949 . S
C813 C814 1.349 . S
C813 C815 1.327 . S
C813 H836 0.950 . S
C814 C813 1.349 . S
C814 C826 1.349 . S
C815 C813 1.327 . S
C815 C831 1.429 . S
C815 H837 0.950 . S
C816 H812 0.949 . S
C816 C824 1.624 . S
C816 C832 1.368 . S
H817 C825 0.950 . S
H818 C823 0.950 . S
H819 C824 0.921 1_455 S
H820 C826 0.950 . S
H821 C827 0.950 . S
H822 C828 0.949 . S
C823 H818 0.950 . S
C823 C825 1.327 . S
C823 C829 1.429 . S
C824 C816 1.624 . S
C824 H819 0.921 1_655 S
C824 C830 1.351 1_655 S
C825 C809 1.349 . S
C825 H817 0.950 . S
C825 C823 1.327 . S
C826 C814 1.349 . S
C826 H820 0.950 . S
C826 C827 1.327 . S
C827 H821 0.950 . S
C827 C826 1.327 . S
C827 C831 1.429 . S
C828 C811 1.574 . S
C828 H822 0.949 . S
C828 C832 1.368 . S
C829 C810 1.429 . S
C829 C823 1.429 . S
C829 C830 1.523 . S
C830 C811 1.368 1_455 S
C830 C824 1.351 1_455 S
C830 C829 1.523 . S
C831 C815 1.429 . S
C831 C827 1.429 . S
C831 C832 1.523 . S
C832 C816 1.368 . S
C832 C828 1.368 . S
C832 C831 1.523 . S
H833 C808 0.950 . S
H834 C810 0.950 . S
H835 C811 0.949 1_455 S
H836 C813 0.950 . S
H837 C815 0.950 . S
C838 C839 1.349 . S
C838 C840 1.327 . S
C838 H863 0.950 . S
C839 C838 1.349 . S
C839 C855 1.349 . S
C840 C838 1.327 . S
C840 C859 1.429 . S
C840 H864 0.950 . S
C841 C858 1.574 . S
C841 C860 1.368 . S
C841 H865 0.949 . S
H842 C846 0.949 . S
C843 C844 1.349 . S
C843 C845 1.327 . S
C843 H866 0.950 . S
C844 C843 1.349 . S
C844 C856 1.349 . S
C845 C843 1.327 . S
C845 C861 1.429 . S
C845 H867 0.950 . S
C846 H842 0.949 . S
C846 C854 1.574 . S
C846 C862 1.368 . S
H847 C855 0.950 . S
H848 C853 0.950 . S
H849 C854 0.949 . S
H850 C856 0.950 . S
H851 C857 0.950 . S
H852 C858 0.949 . S
C853 H848 0.950 . S
C853 C855 1.327 . S
C853 C859 1.429 . S
C854 C846 1.574 . S
C854 H849 0.949 . S
C854 C860 1.368 . S
C855 C839 1.349 . S
C855 H847 0.950 . S
C855 C853 1.327 . S
C856 C844 1.349 . S
C856 H850 0.950 . S
C856 C857 1.327 . S
C857 H851 0.950 . S
C857 C856 1.327 . S
C857 C861 1.429 . S
C858 C841 1.574 . S
C858 H852 0.949 . S
C858 C862 1.368 . S
C859 C840 1.429 . S
C859 C853 1.429 . S
C859 C860 1.523 . S
C860 C841 1.368 . S
C860 C854 1.368 . S
C860 C859 1.523 . S
C861 C845 1.429 . S
C861 C857 1.429 . S
C861 C862 1.523 . S
C862 C846 1.368 . S
C862 C858 1.368 . S
C862 C861 1.523 . S
H863 C838 0.950 . S
H864 C840 0.950 . S
H865 C841 0.949 . S
H866 C843 0.950 . S
H867 C845 0.950 . S
C868 C869 1.349 . S
C868 C870 1.327 . S
C868 H893 0.950 . S
C869 C868 1.349 . S
C869 C885 1.349 . S
C870 C868 1.327 . S
C870 C889 1.429 . S
C870 H894 0.950 . S
C871 C888 1.574 . S
C871 C890 1.368 1_655 S
C871 H895 0.949 1_655 S
H872 C876 0.949 . S
C873 C874 1.349 . S
C873 C875 1.327 . S
C873 H896 0.950 . S
C874 C873 1.349 . S
C874 C886 1.349 . S
C875 C873 1.327 . S
C875 C891 1.429 . S
C875 H897 0.950 . S
C876 H872 0.949 . S
C876 C884 1.617 . S
C876 C892 1.368 . S
H877 C885 0.950 . S
H878 C883 0.950 . S
H879 C884 0.925 1_455 S
H880 C886 0.950 . S
H881 C887 0.950 . S
H882 C888 0.949 . S
C883 H878 0.950 . S
C883 C885 1.327 . S
C883 C889 1.429 . S
C884 C876 1.617 . S
C884 H879 0.925 1_655 S
C884 C890 1.353 1_655 S
C885 C869 1.349 . S
C885 H877 0.950 . S
C885 C883 1.327 . S
C886 C874 1.349 . S
C886 H880 0.950 . S
C886 C887 1.327 . S
C887 H881 0.950 . S
C887 C886 1.327 . S
C887 C891 1.429 . S
C888 C871 1.574 . S
C888 H882 0.949 . S
C888 C892 1.368 . S
C889 C870 1.429 . S
C889 C883 1.429 . S
C889 C890 1.523 . S
C890 C871 1.368 1_455 S
C890 C884 1.353 1_455 S
C890 C889 1.523 . S
C891 C875 1.429 . S
C891 C887 1.429 . S
C891 C892 1.523 . S
C892 C876 1.368 . S
C892 C888 1.368 . S
C892 C891 1.523 . S
H893 C868 0.950 . S
H894 C870 0.950 . S
H895 C871 0.949 1_455 S
H896 C873 0.950 . S
H897 C875 0.950 . S
C898 C899 1.349 . S
C898 C900 1.327 . S
C898 H923 0.950 . S
C899 C898 1.349 . S
C899 C915 1.349 . S
C900 C898 1.327 . S
C900 C919 1.429 . S
C900 H924 0.950 . S
C901 C918 1.574 . S
C901 C920 1.368 . S
C901 H925 0.949 . S
H902 C906 0.949 . S
C903 C904 1.349 . S
C903 C905 1.327 . S
C903 H926 0.950 . S
C904 C903 1.349 . S
C904 C916 1.349 . S
C905 C903 1.327 . S
C905 C921 1.429 . S
C905 H927 0.950 . S
C906 H902 0.949 . S
C906 C914 1.574 . S
C906 C922 1.368 . S
H907 C915 0.950 . S
H908 C913 0.950 . S
H909 C914 0.949 . S
H910 C916 0.950 . S
H911 C917 0.950 . S
H912 C918 0.949 . S
C913 H908 0.950 . S
C913 C915 1.327 . S
C913 C919 1.429 . S
C914 C906 1.574 . S
C914 H909 0.949 . S
C914 C920 1.368 . S
C915 C899 1.349 . S
C915 H907 0.950 . S
C915 C913 1.327 . S
C916 C904 1.349 . S
C916 H910 0.950 . S
C916 C917 1.327 . S
C917 H911 0.950 . S
C917 C916 1.327 . S
C917 C921 1.429 . S
C918 C901 1.574 . S
C918 H912 0.949 . S
C918 C922 1.368 . S
C919 C900 1.429 . S
C919 C913 1.429 . S
C919 C920 1.523 . S
C920 C901 1.368 . S
C920 C914 1.368 . S
C920 C919 1.523 . S
C921 C905 1.429 . S
C921 C917 1.429 . S
C921 C922 1.523 . S
C922 C906 1.368 . S
C922 C918 1.368 . S
C922 C921 1.523 . S
H923 C898 0.950 . S
H924 C900 0.950 . S
H925 C901 0.949 . S
H926 C903 0.950 . S
H927 C905 0.950 . S
C928 C929 1.349 . S
C928 C930 1.327 . S
C928 H953 0.950 . S
C929 C928 1.349 . S
C929 C945 1.349 . S
C930 C928 1.327 . S
C930 C949 1.429 . S
C930 H954 0.950 . S
C931 C948 1.574 . S
C931 C950 1.368 . S
C931 H955 0.949 . S
H932 C936 0.949 . S
C933 C934 1.349 . S
C933 C935 1.327 . S
C933 H956 0.950 . S
C934 C933 1.349 . S
C934 C946 1.349 . S
C935 C933 1.327 . S
C935 C951 1.429 . S
C935 H957 0.950 . S
C936 H932 0.949 . S
C936 C944 1.574 . S
C936 C952 1.368 . S
H937 C945 0.950 . S
H938 C943 0.950 . S
H939 C944 0.949 . S
H940 C946 0.950 . S
H941 C947 0.950 . S
H942 C948 0.949 . S
C943 H938 0.950 . S
C943 C945 1.327 . S
C943 C949 1.429 . S
C944 C936 1.574 . S
C944 H939 0.949 . S
C944 C950 1.368 . S
C945 C929 1.349 . S
C945 H937 0.950 . S
C945 C943 1.327 . S
C946 C934 1.349 . S
C946 H940 0.950 . S
C946 C947 1.327 . S
C947 H941 0.950 . S
C947 C946 1.327 . S
C947 C951 1.429 . S
C948 C931 1.574 . S
C948 H942 0.949 . S
C948 C952 1.368 . S
C949 C930 1.429 . S
C949 C943 1.429 . S
C949 C950 1.523 . S
C950 C931 1.368 . S
C950 C944 1.368 . S
C950 C949 1.523 . S
C951 C935 1.429 . S
C951 C947 1.429 . S
C951 C952 1.523 . S
C952 C936 1.368 . S
C952 C948 1.368 . S
C952 C951 1.523 . S
H953 C928 0.950 . S
H954 C930 0.950 . S
H955 C931 0.949 . S
H956 C933 0.950 . S
H957 C935 0.950 . S
C958 C959 1.349 . S
C958 C960 1.327 . S
C958 H983 0.950 . S
C959 C958 1.349 . S
C959 C975 1.349 . S
C960 C958 1.327 . S
C960 C979 1.429 . S
C960 H984 0.950 . S
C961 C978 1.574 . S
C961 C980 1.368 . S
C961 H985 0.949 . S
H962 C966 0.949 . S
C963 C964 1.349 . S
C963 C965 1.327 . S
C963 H986 0.950 . S
C964 C963 1.349 . S
C964 C976 1.349 . S
C965 C963 1.327 . S
C965 C981 1.429 . S
C965 H987 0.950 . S
C966 H962 0.949 . S
C966 C974 1.574 . S
C966 C982 1.368 . S
H967 C975 0.950 . S
H968 C973 0.950 . S
H969 C974 0.949 . S
H970 C976 0.950 . S
H971 C977 0.950 . S
H972 C978 0.949 . S
C973 H968 0.950 . S
C973 C975 1.327 . S
C973 C979 1.429 . S
C974 C966 1.574 . S
C974 H969 0.949 . S
C974 C980 1.368 . S
C975 C959 1.349 . S
C975 H967 0.950 . S
C975 C973 1.327 . S
C976 C964 1.349 . S
C976 H970 0.950 . S
C976 C977 1.327 . S
C977 H971 0.950 . S
C977 C976 1.327 . S
C977 C981 1.429 . S
C978 C961 1.574 . S
C978 H972 0.949 . S
C978 C982 1.368 . S
C979 C960 1.429 . S
C979 C973 1.429 . S
C979 C980 1.523 . S
C980 C961 1.368 . S
C980 C974 1.368 . S
C980 C979 1.523 . S
C981 C965 1.429 . S
C981 C977 1.429 . S
C981 C982 1.523 . S
C982 C966 1.368 . S
C982 C978 1.368 . S
C982 C981 1.523 . S
H983 C958 0.950 . S
H984 C960 0.950 . S
H985 C961 0.949 . S
H986 C963 0.950 . S
H987 C965 0.950 . S
C988 C989 1.349 . S
C988 C990 1.327 . S
C988 H1013 0.950 . S
C989 C988 1.349 . S
C989 C1005 1.349 . S
C990 C988 1.327 . S
C990 C1009 1.429 . S
C990 H1014 0.950 . S
C991 C1008 1.574 . S
C991 C1010 1.368 . S
C991 H1015 0.949 . S
H992 C996 0.949 . S
C993 C994 1.349 . S
C993 C995 1.327 . S
C993 H1016 0.950 . S
C994 C993 1.349 . S
C994 C1006 1.349 . S
C995 C993 1.327 . S
C995 C1011 1.429 . S
C995 H1017 0.950 . S
C996 H992 0.949 . S
C996 C1004 1.574 . S
C996 C1012 1.368 . S
H997 C1005 0.950 . S
H998 C1003 0.950 . S
H999 C1004 0.949 . S
H1000 C1006 0.950 . S
H1001 C1007 0.950 . S
H1002 C1008 0.949 . S
C1003 H998 0.950 . S
C1003 C1005 1.327 . S
C1003 C1009 1.429 . S
C1004 C996 1.574 . S
C1004 H999 0.949 . S
C1004 C1010 1.368 . S
C1005 C989 1.349 . S
C1005 H997 0.950 . S
C1005 C1003 1.327 . S
C1006 C994 1.349 . S
C1006 H1000 0.950 . S
C1006 C1007 1.327 . S
C1007 H1001 0.950 . S
C1007 C1006 1.327 . S
C1007 C1011 1.429 . S
C1008 C991 1.574 . S
C1008 H1002 0.949 . S
C1008 C1012 1.368 . S
C1009 C990 1.429 . S
C1009 C1003 1.429 . S
C1009 C1010 1.523 . S
C1010 C991 1.368 . S
C1010 C1004 1.368 . S
C1010 C1009 1.523 . S
C1011 C995 1.429 . S
C1011 C1007 1.429 . S
C1011 C1012 1.523 . S
C1012 C996 1.368 . S
C1012 C1008 1.368 . S
C1012 C1011 1.523 . S
H1013 C988 0.950 . S
H1014 C990 0.950 . S
H1015 C991 0.949 . S
H1016 C993 0.950 . S
H1017 C995 0.950 . S
C1018 C1019 1.349 . S
C1018 C1020 1.327 . S
C1018 H1043 0.950 . S
C1019 C1018 1.349 . S
C1019 C1035 1.349 . S
C1020 C1018 1.327 . S
C1020 C1039 1.429 . S
C1020 H1044 0.950 . S
C1021 C1038 1.574 . S
C1021 C1040 1.368 . S
C1021 H1045 0.949 . S
H1022 C1026 0.949 . S
C1023 C1024 1.349 . S
C1023 C1025 1.327 . S
C1023 H1046 0.950 . S
C1024 C1023 1.349 . S
C1024 C1036 1.349 . S
C1025 C1023 1.327 . S
C1025 C1041 1.429 . S
C1025 H1047 0.950 . S
C1026 H1022 0.949 . S
C1026 C1034 1.574 . S
C1026 C1042 1.368 . S
H1027 C1035 0.950 . S
H1028 C1033 0.950 . S
H1029 C1034 0.949 . S
H1030 C1036 0.950 . S
H1031 C1037 0.950 . S
H1032 C1038 0.949 . S
C1033 H1028 0.950 . S
C1033 C1035 1.327 . S
C1033 C1039 1.429 . S
C1034 C1026 1.574 . S
C1034 H1029 0.949 . S
C1034 C1040 1.368 . S
C1035 C1019 1.349 . S
C1035 H1027 0.950 . S
C1035 C1033 1.327 . S
C1036 C1024 1.349 . S
C1036 H1030 0.950 . S
C1036 C1037 1.327 . S
C1037 H1031 0.950 . S
C1037 C1036 1.327 . S
C1037 C1041 1.429 . S
C1038 C1021 1.574 . S
C1038 H1032 0.949 . S
C1038 C1042 1.368 . S
C1039 C1020 1.429 . S
C1039 C1033 1.429 . S
C1039 C1040 1.523 . S
C1040 C1021 1.368 . S
C1040 C1034 1.368 . S
C1040 C1039 1.523 . S
C1041 C1025 1.429 . S
C1041 C1037 1.429 . S
C1041 C1042 1.523 . S
C1042 C1026 1.368 . S
C1042 C1038 1.368 . S
C1042 C1041 1.523 . S
H1043 C1018 0.950 . S
H1044 C1020 0.950 . S
H1045 C1021 0.949 . S
H1046 C1023 0.950 . S
H1047 C1025 0.950 . S
C1048 C1049 1.349 . S
C1048 C1050 1.327 . S
C1048 H1073 0.950 . S
C1049 C1048 1.349 . S
C1049 C1065 1.349 . S
C1050 C1048 1.327 . S
C1050 C1069 1.429 . S
C1050 H1074 0.950 . S
C1051 C1068 1.574 . S
C1051 C1070 1.368 . S
C1051 H1075 0.949 . S
H1052 C1056 0.949 . S
C1053 C1054 1.349 . S
C1053 C1055 1.327 . S
C1053 H1076 0.950 . S
C1054 C1053 1.349 . S
C1054 C1066 1.349 . S
C1055 C1053 1.327 . S
C1055 C1071 1.429 . S
C1055 H1077 0.950 . S
C1056 H1052 0.949 . S
C1056 C1064 1.574 . S
C1056 C1072 1.368 . S
H1057 C1065 0.950 . S
H1058 C1063 0.950 . S
H1059 C1064 0.949 . S
H1060 C1066 0.950 . S
H1061 C1067 0.950 . S
H1062 C1068 0.949 . S
C1063 H1058 0.950 . S
C1063 C1065 1.327 . S
C1063 C1069 1.429 . S
C1064 C1056 1.574 . S
C1064 H1059 0.949 . S
C1064 C1070 1.368 . S
C1065 C1049 1.349 . S
C1065 H1057 0.950 . S
C1065 C1063 1.327 . S
C1066 C1054 1.349 . S
C1066 H1060 0.950 . S
C1066 C1067 1.327 . S
C1067 H1061 0.950 . S
C1067 C1066 1.327 . S
C1067 C1071 1.429 . S
C1068 C1051 1.574 . S
C1068 H1062 0.949 . S
C1068 C1072 1.368 . S
C1069 C1050 1.429 . S
C1069 C1063 1.429 . S
C1069 C1070 1.523 . S
C1070 C1051 1.368 . S
C1070 C1064 1.368 . S
C1070 C1069 1.523 . S
C1071 C1055 1.429 . S
C1071 C1067 1.429 . S
C1071 C1072 1.523 . S
C1072 C1056 1.368 . S
C1072 C1068 1.368 . S
C1072 C1071 1.523 . S
H1073 C1048 0.950 . S
H1074 C1050 0.950 . S
H1075 C1051 0.949 . S
H1076 C1053 0.950 . S
H1077 C1055 0.950 . S
C1078 C1079 1.349 . S
C1078 C1080 1.327 . S
C1078 H1103 0.950 . S
C1079 C1078 1.349 . S
C1079 C1095 1.349 . S
C1080 C1078 1.327 . S
C1080 C1099 1.429 . S
C1080 H1104 0.950 . S
C1081 C1098 1.574 . S
C1081 C1100 1.368 . S
C1081 H1105 0.949 . S
H1082 C1086 0.949 . S
C1083 C1084 1.349 . S
C1083 C1085 1.327 . S
C1083 H1106 0.950 . S
C1084 C1083 1.349 . S
C1084 C1096 1.349 . S
C1085 C1083 1.327 . S
C1085 C1101 1.429 . S
C1085 H1107 0.950 . S
C1086 H1082 0.949 . S
C1086 C1094 1.574 . S
C1086 C1102 1.368 . S
H1087 C1095 0.950 . S
H1088 C1093 0.950 . S
H1089 C1094 0.949 . S
H1090 C1096 0.950 . S
H1091 C1097 0.950 . S
H1092 C1098 0.949 . S
C1093 H1088 0.950 . S
C1093 C1095 1.327 . S
C1093 C1099 1.429 . S
C1094 C1086 1.574 . S
C1094 H1089 0.949 . S
C1094 C1100 1.368 . S
C1095 C1079 1.349 . S
C1095 H1087 0.950 . S
C1095 C1093 1.327 . S
C1096 C1084 1.349 . S
C1096 H1090 0.950 . S
C1096 C1097 1.327 . S
C1097 H1091 0.950 . S
C1097 C1096 1.327 . S
C1097 C1101 1.429 . S
C1098 C1081 1.574 . S
C1098 H1092 0.949 . S
C1098 C1102 1.368 . S
C1099 C1080 1.429 . S
C1099 C1093 1.429 . S
C1099 C1100 1.523 . S
C1100 C1081 1.368 . S
C1100 C1094 1.368 . S
C1100 C1099 1.523 . S
C1101 C1085 1.429 . S
C1101 C1097 1.429 . S
C1101 C1102 1.523 . S
C1102 C1086 1.368 . S
C1102 C1098 1.368 . S
C1102 C1101 1.523 . S
H1103 C1078 0.950 . S
H1104 C1080 0.950 . S
H1105 C1081 0.949 . S
H1106 C1083 0.950 . S
H1107 C1085 0.950 . S
C1108 C1109 1.349 . S
C1108 C1110 1.327 . S
C1108 H1133 0.950 . S
C1109 C1108 1.349 . S
C1109 C1125 1.349 . S
C1110 C1108 1.327 . S
C1110 C1129 1.429 . S
C1110 H1134 0.950 . S
C1111 C1128 1.574 . S
C1111 C1130 1.368 . S
C1111 H1135 0.949 . S
H1112 C1116 0.949 . S
C1113 C1114 1.349 . S
C1113 C1115 1.327 . S
C1113 H1136 0.950 . S
C1114 C1113 1.349 . S
C1114 C1126 1.349 . S
C1115 C1113 1.327 . S
C1115 C1131 1.429 . S
C1115 H1137 0.950 . S
C1116 H1112 0.949 . S
C1116 C1124 1.574 . S
C1116 C1132 1.368 . S
H1117 C1125 0.950 . S
H1118 C1123 0.950 . S
H1119 C1124 0.949 . S
H1120 C1126 0.950 . S
H1121 C1127 0.950 . S
H1122 C1128 0.949 . S
C1123 H1118 0.950 . S
C1123 C1125 1.327 . S
C1123 C1129 1.429 . S
C1124 C1116 1.574 . S
C1124 H1119 0.949 . S
C1124 C1130 1.368 . S
C1125 C1109 1.349 . S
C1125 H1117 0.950 . S
C1125 C1123 1.327 . S
C1126 C1114 1.349 . S
C1126 H1120 0.950 . S
C1126 C1127 1.327 . S
C1127 H1121 0.950 . S
C1127 C1126 1.327 . S
C1127 C1131 1.429 . S
C1128 C1111 1.574 . S
C1128 H1122 0.949 . S
C1128 C1132 1.368 . S
C1129 C1110 1.429 . S
C1129 C1123 1.429 . S
C1129 C1130 1.523 . S
C1130 C1111 1.368 . S
C1130 C1124 1.368 . S
C1130 C1129 1.523 . S
C1131 C1115 1.429 . S
C1131 C1127 1.429 . S
C1131 C1132 1.523 . S
C1132 C1116 1.368 . S
C1132 C1128 1.368 . S
C1132 C1131 1.523 . S
H1133 C1108 0.950 . S
H1134 C1110 0.950 . S
H1135 C1111 0.949 . S
H1136 C1113 0.950 . S
H1137 C1115 0.950 . S
C1138 C1139 1.349 . S
C1138 C1140 1.327 . S
C1138 H1163 0.950 . S
C1139 C1138 1.349 . S
C1139 C1155 1.349 . S
C1140 C1138 1.327 . S
C1140 C1159 1.429 . S
C1140 H1164 0.950 . S
C1141 C1158 1.574 . S
C1141 C1160 1.368 . S
C1141 H1165 0.949 . S
H1142 C1146 0.949 . S
C1143 C1144 1.349 . S
C1143 C1145 1.327 . S
C1143 H1166 0.950 . S
C1144 C1143 1.349 . S
C1144 C1156 1.349 . S
C1145 C1143 1.327 . S
C1145 C1161 1.429 . S
C1145 H1167 0.950 . S
C1146 H1142 0.949 . S
C1146 C1154 1.574 . S
C1146 C1162 1.368 . S
H1147 C1155 0.950 . S
H1148 C1153 0.950 . S
H1149 C1154 0.949 . S
H1150 C1156 0.950 . S
H1151 C1157 0.950 . S
H1152 C1158 0.949 . S
C1153 H1148 0.950 . S
C1153 C1155 1.327 . S
C1153 C1159 1.429 . S
C1154 C1146 1.574 . S
C1154 H1149 0.949 . S
C1154 C1160 1.368 . S
C1155 C1139 1.349 . S
C1155 H1147 0.950 . S
C1155 C1153 1.327 . S
C1156 C1144 1.349 . S
C1156 H1150 0.950 . S
C1156 C1157 1.327 . S
C1157 H1151 0.950 . S
C1157 C1156 1.327 . S
C1157 C1161 1.429 . S
C1158 C1141 1.574 . S
C1158 H1152 0.949 . S
C1158 C1162 1.368 . S
C1159 C1140 1.429 . S
C1159 C1153 1.429 . S
C1159 C1160 1.523 . S
C1160 C1141 1.368 . S
C1160 C1154 1.368 . S
C1160 C1159 1.523 . S
C1161 C1145 1.429 . S
C1161 C1157 1.429 . S
C1161 C1162 1.523 . S
C1162 C1146 1.368 . S
C1162 C1158 1.368 . S
C1162 C1161 1.523 . S
H1163 C1138 0.950 . S
H1164 C1140 0.950 . S
H1165 C1141 0.949 . S
H1166 C1143 0.950 . S
H1167 C1145 0.950 . S
C209 C4 1.646 . S
C214 C166 1.638 . S
C239 C173 1.638 . S
C244 C23 1.646 . S
C269 C36 1.646 . S
C274 C192 1.638 . S
C299 C199 1.638 . S
C304 C43 1.646 . S
C329 C108 1.646 . S
C334 C62 1.638 . S
C359 C69 1.638 . S
C364 C121 1.646 . S
C389 C140 1.646 . S
C394 C88 1.638 . S
C419 C101 1.638 . S
C424 C153 1.646 . S
C449 C3 1.616 . S
C454 C31 1.616 . S
C479 C18 1.615 . S
C484 C42 1.615 . S
C509 C55 1.669 . S
C514 C81 1.669 . S
C539 C70 1.669 . S
C544 C94 1.669 . S
C569 C135 1.616 . S
C574 C107 1.616 . S
C599 C120 1.615 . S
C604 C148 1.615 . S
C629 C185 1.669 . S
C634 C159 1.669 . S
C659 C174 1.669 . S
C664 C200 1.669 . S
C689 C83 1.477 . S
C694 C5 1.478 . S
C719 C96 1.477 . S
C724 C16 1.478 . S
C749 C29 1.478 . S
C754 C57 1.477 . S
C779 C44 1.478 . S
C784 C68 1.477 . S
C809 C187 1.477 . S
C814 C109 1.478 . S
C839 C122 1.478 . S
C844 C198 1.477 . S
C869 C161 1.477 . S
C874 C133 1.478 . S
C899 C146 1.478 . S
C904 C172 1.477 . S
C929 C10 1.434 . S
C934 C49 1.434 . S
C959 C30 1.434 . S
C964 C17 1.434 . S
C989 C56 1.801 . S
C994 C95 1.801 . S
C1019 C75 1.801 . S
C1024 C82 1.801 . S
C1049 C147 1.434 . S
C1054 C114 1.434 . S
C1079 C127 1.434 . S
C1084 C134 1.434 . S
C1109 C205 1.801 . S
C1114 C160 1.801 . S
C1139 C179 1.801 . S
C1144 C186 1.801 . S
