# Generated by pormake.
# Topology uop, (4)-cn, num edge types: 1
# Building blocks:
#     Node 0, Type 0, BuildingBlock: ICAMEG_clean_sbu_1, # of connection points: 4
#     Node 1, Type 0, BuildingBlock: ICAMEG_clean_sbu_1, # of connection points: 4
#     Node 2, Type 0, BuildingBlock: ICAMEG_clean_sbu_1, # of connection points: 4
#     Node 3, Type 0, BuildingBlock: ICAMEG_clean_sbu_1, # of connection points: 4
#     Node 4, Type 0, BuildingBlock: ICAMEG_clean_sbu_1, # of connection points: 4
#     Node 5, Type 0, BuildingBlock: ICAMEG_clean_sbu_1, # of connection points: 4
#     Node 6, Type 0, BuildingBlock: ICAMEG_clean_sbu_1, # of connection points: 4
#     Node 7, Type 0, BuildingBlock: ICAMEG_clean_sbu_1, # of connection points: 4
#     Node 8, Type 0, BuildingBlock: ICAMEG_clean_sbu_1, # of connection points: 4
#     Node 9, Type 0, BuildingBlock: ICAMEG_clean_sbu_1, # of connection points: 4
#     Node 10, Type 0, BuildingBlock: ICAMEG_clean_sbu_1, # of connection points: 4
#     Node 11, Type 0, BuildingBlock: ICAMEG_clean_sbu_1, # of connection points: 4
#     Edge 12, Type (0, 0), BuildingBlock: EZIPEK_clean_linker_0, # of connection points: 2
#     Edge 13, Type (0, 0), BuildingBlock: EZIPEK_clean_linker_0, # of connection points: 2
#     Edge 14, Type (0, 0), BuildingBlock: EZIPEK_clean_linker_0, # of connection points: 2
#     Edge 15, Type (0, 0), BuildingBlock: EZIPEK_clean_linker_0, # of connection points: 2
#     Edge 16, Type (0, 0), BuildingBlock: EZIPEK_clean_linker_0, # of connection points: 2
#     Edge 17, Type (0, 0), BuildingBlock: EZIPEK_clean_linker_0, # of connection points: 2
#     Edge 18, Type (0, 0), BuildingBlock: EZIPEK_clean_linker_0, # of connection points: 2
#     Edge 19, Type (0, 0), BuildingBlock: EZIPEK_clean_linker_0, # of connection points: 2
#     Edge 20, Type (0, 0), BuildingBlock: EZIPEK_clean_linker_0, # of connection points: 2
#     Edge 21, Type (0, 0), BuildingBlock: EZIPEK_clean_linker_0, # of connection points: 2
#     Edge 22, Type (0, 0), BuildingBlock: EZIPEK_clean_linker_0, # of connection points: 2
#     Edge 23, Type (0, 0), BuildingBlock: EZIPEK_clean_linker_0, # of connection points: 2
#     Edge 24, Type (0, 0), BuildingBlock: EZIPEK_clean_linker_0, # of connection points: 2
#     Edge 25, Type (0, 0), BuildingBlock: EZIPEK_clean_linker_0, # of connection points: 2
#     Edge 26, Type (0, 0), BuildingBlock: EZIPEK_clean_linker_0, # of connection points: 2
#     Edge 27, Type (0, 0), BuildingBlock: EZIPEK_clean_linker_0, # of connection points: 2
#     Edge 28, Type (0, 0), BuildingBlock: EZIPEK_clean_linker_0, # of connection points: 2
#     Edge 29, Type (0, 0), BuildingBlock: EZIPEK_clean_linker_0, # of connection points: 2
#     Edge 30, Type (0, 0), BuildingBlock: EZIPEK_clean_linker_0, # of connection points: 2
#     Edge 31, Type (0, 0), BuildingBlock: EZIPEK_clean_linker_0, # of connection points: 2
#     Edge 32, Type (0, 0), BuildingBlock: EZIPEK_clean_linker_0, # of connection points: 2
#     Edge 33, Type (0, 0), BuildingBlock: EZIPEK_clean_linker_0, # of connection points: 2
#     Edge 34, Type (0, 0), BuildingBlock: EZIPEK_clean_linker_0, # of connection points: 2
#     Edge 35, Type (0, 0), BuildingBlock: EZIPEK_clean_linker_0, # of connection points: 2
# Relax obj value: 0.107
# Max RMSD: 0.101
# Mean RMSD: 0.101
data_MOF--net-uop--node1-ICAMEG_clean_sbu_1--edge1-EZIPEK_clean_linker_0
_symmetry_space_group_name_H-M    P1
_symmetry_Int_Tables_number       1
_symmetry_cell_setting            triclinic
loop_
_symmetry_equiv_pos_as_xyz
'x, y, z'
_cell_length_a     26.451916
_cell_length_b     26.447358
_cell_length_c     32.45105
_cell_angle_alpha  89.876127
_cell_angle_beta   90.059139
_cell_angle_gamma 120.17239
loop_
_atom_site_label
_atom_site_type_symbol
_atom_site_fract_x
_atom_site_fract_y
_atom_site_fract_z
_atom_type_partial_charge
Co0 Co 0.28418 0.46325 0.21326 0.0
Co1 Co 0.26011 0.33589 0.16407 0.0
O2 O 0.24297 0.39842 0.17483 0.0
C3 C 0.31628 0.55525 0.14879 0.0
O4 O 0.36547 0.55663 0.14042 0.0
C5 C 0.13217 0.27636 0.18414 0.0
O6 O 0.14577 0.3108 0.2163 0.0
O7 O 0.26105 0.32206 0.22478 0.0
O8 O 0.28937 0.40941 0.2558 0.0
H9 H 0.37831 0.2335 0.16289 0.0
H10 H 0.17269 0.44679 0.17832 0.0
O11 O 0.27802 0.51628 0.17225 0.0
H12 H 0.14385 0.42929 0.3288 0.0
H13 H 0.31664 0.65335 0.27114 0.0
H14 H 0.39995 0.52553 0.2568 0.0
H15 H 0.23778 0.44998 0.2983 0.0
H16 H 0.25837 0.55536 0.24207 0.0
O17 O 0.17254 0.2792 0.16104 0.0
H18 H 0.35873 0.31156 0.18048 0.0
H19 H 0.19584 0.22319 0.11766 0.0
H20 H 0.46301 0.62637 0.28017 0.0
H21 H 0.07813 0.42662 0.20735 0.0
H22 H 0.42096 0.69109 0.28857 0.0
H23 H 0.06307 0.41718 0.28313 0.0
O24 O 0.36093 0.4788 0.19062 0.0
H25 H 0.17735 0.36168 0.03125 0.0
H26 H 0.33826 0.34614 0.09478 0.0
H27 H 0.33464 0.35339 0.01934 0.0
H28 H 0.25269 0.35891 0.98698 0.0
H29 H 0.18317 0.35493 0.10666 0.0
H30 H 0.21345 0.14343 0.10031 0.0
H31 H 0.30549 0.14823 0.12231 0.0
O32 O 0.34743 0.39299 0.16642 0.0
C33 C 0.27685 0.35552 0.25656 0.0
C34 C 0.33731 0.23011 0.15392 0.0
C35 C 0.24496 0.17973 0.11875 0.0
N36 N 0.27442 0.27142 0.15263 0.0
C37 C 0.32543 0.27425 0.16445 0.0
C38 C 0.23478 0.22494 0.12952 0.0
C39 C 0.29664 0.18247 0.13104 0.0
C40 C 0.16607 0.44172 0.21122 0.0
N41 N 0.20965 0.44664 0.23645 0.0
C42 C 0.11262 0.43079 0.22754 0.0
C43 C 0.10423 0.42563 0.27006 0.0
C44 C 0.14946 0.43227 0.29568 0.0
C45 C 0.20229 0.44327 0.27823 0.0
C46 C 0.33537 0.62536 0.26828 0.0
C47 C 0.38159 0.55284 0.2597 0.0
C48 C 0.30189 0.56864 0.25284 0.0
N49 N 0.32501 0.53265 0.24846 0.0
C50 C 0.41749 0.61041 0.27298 0.0
C51 C 0.39395 0.6467 0.27768 0.0
C52 C 0.38032 0.44685 0.17621 0.0
C53 C 0.21309 0.35873 0.04497 0.0
C54 C 0.30326 0.35024 0.0811 0.0
C55 C 0.30133 0.35406 0.03829 0.0
C56 C 0.25545 0.35753 0.02016 0.0
N57 N 0.26068 0.34972 0.10524 0.0
C58 C 0.21658 0.35497 0.08772 0.0
Co59 Co 0.80434 0.2758 0.58157 0.0
Co60 Co 0.89656 0.25002 0.52144 0.0
O61 O 0.81901 0.22963 0.54186 0.0
C62 C 0.72436 0.28737 0.52191 0.0
O63 O 0.76763 0.33019 0.5016 0.0
C64 C 0.83064 0.12024 0.53585 0.0
O65 O 0.80906 0.13023 0.5692 0.0
O66 O 0.92139 0.24994 0.57993 0.0
O67 O 0.87547 0.28902 0.6156 0.0
H68 H 0.1156 0.37461 0.50754 0.0
H69 H 0.71539 0.15342 0.56052 0.0
O70 O 0.73327 0.25956 0.55014 0.0
H71 H 0.71906 0.16064 0.71236 0.0
H72 H 0.66761 0.32745 0.65222 0.0
H73 H 0.8722 0.39668 0.61497 0.0
H74 H 0.78335 0.24866 0.67139 0.0
H75 H 0.69601 0.25963 0.62343 0.0
O76 O 0.86894 0.16355 0.51507 0.0
H77 H 0.01981 0.34558 0.53773 0.0
H78 H 0.93963 0.19622 0.45989 0.0
H79 H 0.84426 0.46774 0.63744 0.0
H80 H 0.65068 0.06421 0.60013 0.0
H81 H 0.7412 0.43313 0.65744 0.0
H82 H 0.65253 0.06732 0.67668 0.0
O83 O 0.85384 0.34799 0.54896 0.0
H84 H 0.75084 0.18179 0.40532 0.0
H85 H 0.95077 0.32772 0.44819 0.0
H86 H 0.91765 0.33216 0.37808 0.0
H87 H 0.81692 0.2592 0.35625 0.0
H88 H 0.78607 0.17811 0.47493 0.0
H89 H 0.03533 0.22215 0.43072 0.0
H90 H 0.12421 0.31256 0.45379 0.0
O91 O 0.9266 0.3364 0.52559 0.0
C92 C 0.91382 0.27221 0.61292 0.0
C93 C 0.07724 0.33501 0.49723 0.0
C94 C 0.03223 0.24933 0.45432 0.0
N95 N 0.97353 0.26863 0.50117 0.0
C96 C 0.02251 0.31834 0.51411 0.0
C97 C 0.97808 0.23435 0.47155 0.0
C98 C 0.08204 0.30018 0.46715 0.0
C99 C 0.7171 0.15498 0.5938 0.0
N100 N 0.75497 0.20568 0.61365 0.0
C101 C 0.68005 0.10437 0.61608 0.0
C102 C 0.68101 0.10616 0.659 0.0
C103 C 0.7184 0.15844 0.67904 0.0
C104 C 0.75499 0.20805 0.65569 0.0
C105 C 0.71279 0.34308 0.64414 0.0
C106 C 0.82744 0.3813 0.62264 0.0
C107 C 0.72966 0.30443 0.62882 0.0
N108 N 0.78661 0.32362 0.61804 0.0
C109 C 0.81159 0.42184 0.63542 0.0
C110 C 0.75392 0.4024 0.64669 0.0
C111 C 0.90412 0.36804 0.53307 0.0
C112 C 0.79499 0.21368 0.41437 0.0
C113 C 0.9073 0.29484 0.43876 0.0
C114 C 0.88863 0.29792 0.39904 0.0
C115 C 0.83206 0.25703 0.38684 0.0
N116 N 0.87097 0.25175 0.4655 0.0
C117 C 0.81522 0.21187 0.45381 0.0
Co118 Co 0.57574 0.83615 0.87658 0.0
Co119 Co 0.70092 0.92962 0.82537 0.0
O120 O 0.64214 0.85042 0.8422 0.0
C121 C 0.52133 0.74415 0.81138 0.0
O122 O 0.55786 0.78013 0.78374 0.0
C123 C 0.76527 0.86925 0.85022 0.0
O124 O 0.73068 0.85139 0.88241 0.0
O125 O 0.7166 0.95243 0.88453 0.0
O126 O 0.62385 0.91151 0.90713 0.0
H127 H 0.80485 0.1489 0.83418 0.0
H128 H 0.61884 0.75218 0.8732 0.0
O129 O 0.52546 0.75971 0.8488 0.0
H130 H 0.61866 0.79637 0.02057 0.0
H131 H 0.38823 0.70274 0.95005 0.0
H132 H 0.51225 0.9006 0.8931 0.0
H133 H 0.58642 0.84195 0.96826 0.0
H134 H 0.48749 0.73382 0.92543 0.0
O135 O 0.76222 0.90515 0.82558 0.0
H136 H 0.72969 0.04804 0.85225 0.0
H137 H 0.80164 0.98083 0.76617 0.0
H138 H 0.40919 0.86636 0.90885 0.0
H139 H 0.64939 0.70372 0.92447 0.0
H140 H 0.34729 0.76834 0.94025 0.0
H141 H 0.64992 0.72624 0.99882 0.0
O142 O 0.55359 0.87678 0.83462 0.0
H143 H 0.66613 0.79505 0.70622 0.0
H144 H 0.68414 0.98224 0.74796 0.0
H145 H 0.66552 0.95256 0.67522 0.0
H146 H 0.65744 0.8587 0.6539 0.0
H147 H 0.68363 0.82609 0.77885 0.0
H148 H 0.87785 0.08096 0.74732 0.0
H149 H 0.87966 0.16594 0.78131 0.0
O150 O 0.64028 0.95576 0.82348 0.0
C151 C 0.679 0.94571 0.91184 0.0
C152 C 0.80448 0.11227 0.81907 0.0
C153 C 0.84545 0.07413 0.77036 0.0
N154 N 0.76077 0.00845 0.80998 0.0
C155 C 0.76194 0.055 0.82913 0.0
C156 C 0.80224 0.01745 0.78124 0.0
C157 C 0.84643 0.1218 0.78941 0.0
C158 C 0.61656 0.76007 0.90554 0.0
N159 N 0.59887 0.79808 0.91771 0.0
C160 C 0.63494 0.73343 0.93443 0.0
C161 C 0.63552 0.74632 0.97611 0.0
C162 C 0.61803 0.7857 0.98832 0.0
C163 C 0.59989 0.81141 0.95853 0.0
C164 C 0.41515 0.7462 0.93744 0.0
C165 C 0.48529 0.85696 0.90512 0.0
C166 C 0.47218 0.76476 0.92442 0.0
N167 N 0.50655 0.81953 0.90815 0.0
C168 C 0.427 0.83809 0.91462 0.0
C169 C 0.39212 0.78285 0.93176 0.0
C170 C 0.58421 0.92943 0.82198 0.0
C171 C 0.66976 0.83615 0.71519 0.0
C172 C 0.67923 0.94085 0.73923 0.0
C173 C 0.66918 0.92441 0.69783 0.0
C174 C 0.66464 0.87176 0.68584 0.0
N175 N 0.68479 0.90604 0.76789 0.0
C176 C 0.67982 0.85408 0.75628 0.0
Co177 Co 0.7151 0.5513 0.24377 0.0
Co178 Co 0.75459 0.67132 0.18098 0.0
O179 O 0.77052 0.6125 0.20624 0.0
C180 C 0.77216 0.49681 0.19494 0.0
O181 O 0.81165 0.54763 0.18023 0.0
C182 C 0.88442 0.73417 0.19875 0.0
O183 O 0.87244 0.70635 0.23409 0.0
O184 O 0.75295 0.69958 0.23797 0.0
O185 O 0.70264 0.613 0.27223 0.0
H186 H 0.63768 0.77089 0.152 0.0
H187 H 0.84683 0.60148 0.2421 0.0
O188 O 0.73001 0.49139 0.21711 0.0
H189 H 0.78907 0.55246 0.38718 0.0
H190 H 0.61151 0.3471 0.30154 0.0
H191 H 0.60409 0.52783 0.28347 0.0
H192 H 0.71695 0.54174 0.3356 0.0
H193 H 0.69856 0.43801 0.27998 0.0
O194 O 0.84224 0.72747 0.17595 0.0
H195 H 0.65967 0.70261 0.18753 0.0
H196 H 0.81655 0.76627 0.11821 0.0
H197 H 0.51537 0.43755 0.30573 0.0
H198 H 0.92086 0.61624 0.29327 0.0
H199 H 0.51788 0.34561 0.31251 0.0
H200 H 0.89202 0.59021 0.36657 0.0
O201 O 0.65088 0.53065 0.20354 0.0
H202 H 0.83014 0.59416 0.06986 0.0
H203 H 0.6787 0.64279 0.10625 0.0
H204 H 0.67785 0.60373 0.03731 0.0
H205 H 0.75378 0.57886 0.0187 0.0
H206 H 0.82989 0.63445 0.13826 0.0
H207 H 0.79713 0.83701 0.08344 0.0
H208 H 0.70666 0.83929 0.09958 0.0
O209 O 0.66708 0.61787 0.18361 0.0
C210 C 0.7255 0.66923 0.2699 0.0
C211 C 0.67764 0.77084 0.14495 0.0
C212 C 0.7671 0.80801 0.10663 0.0
N213 N 0.74063 0.7309 0.15632 0.0
C214 C 0.69064 0.73209 0.16516 0.0
C215 C 0.7784 0.76822 0.12713 0.0
C216 C 0.71627 0.80915 0.11558 0.0
C217 C 0.83325 0.59026 0.2735 0.0
N218 N 0.77606 0.56785 0.2847 0.0
C219 C 0.87582 0.59879 0.30261 0.0
C220 C 0.85977 0.58425 0.34366 0.0
C221 C 0.80191 0.56262 0.35521 0.0
C222 C 0.76078 0.55552 0.32538 0.0
C223 C 0.60916 0.38645 0.29709 0.0
C224 C 0.60572 0.48843 0.287 0.0
C225 C 0.65862 0.43844 0.28488 0.0
N226 N 0.6558 0.48802 0.27775 0.0
C227 C 0.55524 0.43725 0.29919 0.0
C228 C 0.55668 0.38559 0.30319 0.0
C229 C 0.63358 0.56301 0.18754 0.0
C230 C 0.79671 0.60471 0.07759 0.0
C231 C 0.71225 0.63256 0.09842 0.0
C232 C 0.71141 0.61028 0.05928 0.0
C233 C 0.75397 0.59624 0.04888 0.0
N234 N 0.75447 0.64099 0.12642 0.0
C235 C 0.7961 0.62707 0.11643 0.0
Co236 Co 0.15868 0.71877 0.55215 0.0
Co237 Co 0.05653 0.74048 0.49995 0.0
O238 O 0.13584 0.75569 0.50979 0.0
C239 C 0.20636 0.66411 0.49629 0.0
O240 O 0.15536 0.61722 0.48983 0.0
C241 C 0.13038 0.86954 0.51074 0.0
O242 O 0.15608 0.85805 0.54099 0.0
O243 O 0.04603 0.74886 0.56048 0.0
O244 O 0.10866 0.7288 0.59399 0.0
H245 H 0.83918 0.63799 0.52231 0.0
H246 H 0.24576 0.82124 0.50385 0.0
O247 O 0.21002 0.71016 0.51148 0.0
H248 H 0.2971 0.87565 0.64953 0.0
H249 H 0.29845 0.66105 0.60851 0.0
H250 H 0.09815 0.62759 0.61661 0.0
H251 H 0.21446 0.77868 0.6309 0.0
H252 H 0.27298 0.72874 0.575 0.0
O253 O 0.08812 0.82738 0.49154 0.0
H254 H 0.93963 0.6593 0.53547 0.0
H255 H 1.00438 0.79107 0.443 0.0
H256 H 0.12009 0.55538 0.64759 0.0
H257 H 0.3292 0.91838 0.52093 0.0
H258 H 0.22078 0.57102 0.64181 0.0
H259 H 0.35509 0.94633 0.59425 0.0
O260 O 0.09162 0.64049 0.53813 0.0
H261 H 0.17125 0.7922 0.3678 0.0
H262 H 0.98162 0.65876 0.43317 0.0
H263 H 0.99599 0.64759 0.35931 0.0
H264 H 0.09094 0.71494 0.32608 0.0
H265 H 0.15557 0.80158 0.44145 0.0
H266 H 0.90451 0.77188 0.42938 0.0
H267 H 0.82094 0.69455 0.46891 0.0
O268 O 0.02309 0.65361 0.50706 0.0
C269 C 0.06796 0.74179 0.59375 0.0
C270 C 0.87513 0.67184 0.50484 0.0
C271 C 0.91188 0.74709 0.4528 0.0
N272 N 0.97798 0.72641 0.49008 0.0
C273 C 0.93219 0.68393 0.51204 0.0
C274 C 0.96842 0.75804 0.46088 0.0
C275 C 0.86498 0.70362 0.47495 0.0
C276 C 0.2566 0.83315 0.53583 0.0
N277 N 0.2242 0.79497 0.56645 0.0
C278 C 0.30398 0.88819 0.54531 0.0
C279 C 0.3185 0.90383 0.58645 0.0
C280 C 0.28592 0.86426 0.61747 0.0
C281 C 0.23886 0.80963 0.60679 0.0
C282 C 0.25419 0.65313 0.61034 0.0
C283 C 0.14167 0.63452 0.6145 0.0
C284 C 0.2396 0.69184 0.59199 0.0
N285 N 0.18313 0.68066 0.59243 0.0
C286 C 0.15403 0.59366 0.632 0.0
C287 C 0.21049 0.60252 0.62896 0.0
C288 C 0.04148 0.62091 0.52171 0.0
C289 C 0.12935 0.76296 0.38181 0.0
C290 C 0.02302 0.68868 0.4189 0.0
C291 C 0.03087 0.68194 0.37709 0.0
C292 C 0.08431 0.71961 0.35845 0.0
N293 N 0.06715 0.73194 0.44153 0.0
C294 C 0.12005 0.76819 0.42356 0.0
Co295 Co 0.4771 0.16406 0.88727 0.0
Co296 Co 0.35898 0.08608 0.82193 0.0
O297 O 0.423 0.15974 0.84449 0.0
C298 C 0.55615 0.23416 0.81708 0.0
O299 O 0.52223 0.19577 0.78957 0.0
C300 C 0.30756 0.16256 0.84117 0.0
O301 O 0.3446 0.18477 0.87187 0.0
O302 O 0.33032 0.05636 0.87982 0.0
O303 O 0.40976 0.10475 0.92062 0.0
H304 H 0.23408 0.86748 0.8078 0.0
H305 H 0.46863 0.2667 0.85991 0.0
O306 O 0.54411 0.22622 0.85524 0.0
H307 H 0.46827 0.27286 0.01163 0.0
H308 H 0.67523 0.24913 0.95122 0.0
H309 H 0.47818 0.07594 0.94187 0.0
H310 H 0.47226 0.19318 0.97542 0.0
H311 H 0.59502 0.25678 0.9191 0.0
O312 O 0.30592 0.12116 0.81999 0.0
H313 H 0.31593 0.95936 0.83443 0.0
H314 H 0.26524 0.05777 0.75932 0.0
H315 H 0.55373 0.06855 0.97871 0.0
H316 H 0.46415 0.3471 0.89476 0.0
H317 H 0.65562 0.15422 0.98019 0.0
H318 H 0.46378 0.35044 0.97127 0.0
O319 O 0.48729 0.10278 0.86005 0.0
H320 H 0.44811 0.2432 0.71366 0.0
H321 H 0.37489 0.0351 0.74395 0.0
H322 H 0.41629 0.07438 0.67554 0.0
H323 H 0.45376 0.17934 0.66007 0.0
H324 H 0.40522 0.20188 0.78136 0.0
H325 H 0.18254 0.967 0.73197 0.0
H326 H 0.16618 0.87082 0.75641 0.0
O327 O 0.41064 0.04904 0.82053 0.0
C328 C 0.35551 0.06787 0.91529 0.0
C329 C 0.24009 0.90906 0.7974 0.0
C330 C 0.21129 0.96491 0.7548 0.0
N331 N 0.29468 0.01408 0.79954 0.0
C332 C 0.2862 0.96131 0.8127 0.0
C333 C 0.25804 0.01626 0.77071 0.0
C334 C 0.2022 0.91097 0.76843 0.0
C335 C 0.46868 0.26799 0.8931 0.0
N336 N 0.4706 0.22521 0.91545 0.0
C337 C 0.46602 0.31356 0.91272 0.0
C338 C 0.46586 0.31543 0.95563 0.0
C339 C 0.46842 0.27196 0.97828 0.0
C340 C 0.4709 0.22702 0.95756 0.0
C341 C 0.63171 0.21124 0.94984 0.0
C342 C 0.52031 0.11495 0.94549 0.0
C343 C 0.58602 0.21523 0.93171 0.0
N344 N 0.53189 0.16657 0.92782 0.0
C345 C 0.56406 0.11004 0.96539 0.0
C346 C 0.62068 0.15794 0.9662 0.0
C347 C 0.46082 0.06148 0.83453 0.0
C348 C 0.43161 0.1973 0.71991 0.0
C349 C 0.3903 0.08056 0.73743 0.0
C350 C 0.4139 0.10264 0.69858 0.0
C351 C 0.43491 0.1615 0.68991 0.0
N352 N 0.387 0.11587 0.76673 0.0
C353 C 0.40716 0.17356 0.75824 0.0
Co354 Co 0.52714 0.70936 0.4398 0.0
Co355 Co 0.63916 0.74311 0.51049 0.0
O356 O 0.57982 0.75665 0.48406 0.0
C357 C 0.43334 0.68463 0.50118 0.0
O358 O 0.45392 0.66212 0.52787 0.0
C359 C 0.69717 0.87355 0.49382 0.0
O360 O 0.6597 0.86326 0.46406 0.0
O361 O 0.67031 0.73886 0.45446 0.0
O362 O 0.59411 0.71083 0.41045 0.0
H363 H 0.7455 0.63324 0.54017 0.0
H364 H 0.53546 0.82134 0.46439 0.0
O365 O 0.46099 0.70929 0.46846 0.0
H366 H 0.56683 0.83526 0.3141 0.0
H367 H 0.33005 0.6092 0.37349 0.0
H368 H 0.52147 0.62092 0.37904 0.0
H369 H 0.54983 0.74729 0.35227 0.0
H370 H 0.41493 0.6948 0.40385 0.0
O371 O 0.69608 0.83082 0.51302 0.0
H372 H 0.6717 0.64964 0.50719 0.0
H373 H 0.73295 0.8081 0.57358 0.0
H374 H 0.43766 0.53417 0.34847 0.0
H375 H 0.55185 0.91007 0.42752 0.0
H376 H 0.33981 0.52585 0.34843 0.0
H377 H 0.56805 0.91754 0.35181 0.0
O378 O 0.50977 0.6363 0.46823 0.0
H379 H 0.54116 0.81156 0.6108 0.0
H380 H 0.61908 0.67889 0.59051 0.0
H381 H 0.57356 0.67821 0.6567 0.0
H382 H 0.53315 0.74407 0.66703 0.0
H383 H 0.58933 0.81287 0.54571 0.0
H384 H 0.80838 0.79385 0.60666 0.0
H385 H 0.81516 0.70581 0.59017 0.0
O386 O 0.58448 0.65554 0.51043 0.0
C387 C 0.64665 0.72385 0.41854 0.0
C388 C 0.74383 0.67239 0.54704 0.0
C389 C 0.779 0.76241 0.58434 0.0
N390 N 0.69891 0.7311 0.53673 0.0
C391 C 0.70216 0.68224 0.52804 0.0
C392 C 0.73648 0.77064 0.56494 0.0
C393 C 0.78273 0.71298 0.57517 0.0
C394 C 0.54206 0.8242 0.43145 0.0
N395 N 0.5421 0.77948 0.41056 0.0
C396 C 0.55151 0.87458 0.41074 0.0
C397 C 0.5606 0.87874 0.36827 0.0
C398 C 0.55995 0.83262 0.34709 0.0
C399 C 0.55036 0.78295 0.36887 0.0
C400 C 0.3717 0.61083 0.37537 0.0
C401 C 0.47948 0.618 0.37885 0.0
C402 C 0.42024 0.65938 0.39249 0.0
N403 N 0.47212 0.66023 0.39721 0.0
C404 C 0.432 0.56864 0.36152 0.0
C405 C 0.3772 0.56411 0.36132 0.0
C406 C 0.53548 0.62028 0.49375 0.0
C407 C 0.55842 0.7825 0.60664 0.0
C408 C 0.60336 0.70909 0.59498 0.0
C409 C 0.5769 0.70794 0.63248 0.0
C410 C 0.55399 0.74467 0.63819 0.0
N411 N 0.60762 0.74628 0.56406 0.0
C412 C 0.58574 0.7829 0.56972 0.0
Co413 Co 0.87112 0.54464 0.77385 0.0
Co414 Co 0.93242 0.66153 0.83823 0.0
O415 O 0.86247 0.59816 0.8104 0.0
C416 C 0.77915 0.44137 0.82247 0.0
O417 O 0.81606 0.44635 0.85141 0.0
C418 C 0.85337 0.71113 0.82074 0.0
O419 O 0.82918 0.67457 0.79 0.0
O420 O 0.96304 0.69543 0.78291 0.0
O421 O 0.94596 0.61258 0.75108 0.0
H422 H 0.14673 0.80766 0.85369 0.0
H423 H 0.76443 0.5544 0.7697 0.0
O424 O 0.79401 0.47888 0.79364 0.0
H425 H 0.83308 0.57357 0.62616 0.0
H426 H 0.80956 0.34753 0.71184 0.0
H427 H 0.97498 0.54416 0.7392 0.0
H428 H 0.8879 0.56136 0.68302 0.0
H429 H 0.79179 0.42444 0.73671 0.0
O430 O 0.89294 0.70993 0.84246 0.0
H431 H 0.06057 0.72195 0.8242 0.0
H432 H 0.94946 0.74132 0.90869 0.0
H433 H 0.99321 0.47147 0.70666 0.0
H434 H 0.70889 0.56803 0.71382 0.0
H435 H 0.91016 0.37185 0.69332 0.0
H436 H 0.74313 0.57755 0.64143 0.0
O437 O 0.91171 0.52918 0.81855 0.0
H438 H 0.76941 0.55465 0.94004 0.0
H439 H 0.98089 0.64133 0.91645 0.0
H440 H 0.93867 0.59275 0.98253 0.0
H441 H 0.83208 0.54891 0.99478 0.0
H442 H 0.8136 0.60357 0.87428 0.0
H443 H 0.03433 0.82745 0.93926 0.0
H444 H 0.13374 0.86187 0.91107 0.0
O445 O 0.97805 0.61763 0.83595 0.0
C446 C 0.96767 0.66821 0.75194 0.0
C447 C 0.10361 0.79343 0.86596 0.0
C448 C 0.04053 0.80445 0.91401 0.0
N449 N 1.00005 0.72641 0.86448 0.0
C450 C 0.05467 0.74489 0.84926 0.0
C451 C 0.99262 0.75563 0.89651 0.0
C452 C 0.09632 0.8236 0.89835 0.0
C453 C 0.77981 0.55907 0.7383 0.0
N454 N 0.82946 0.55742 0.72967 0.0
C455 C 0.74809 0.56652 0.70678 0.0
C456 C 0.76725 0.57174 0.66616 0.0
C457 C 0.81767 0.56946 0.65756 0.0
C458 C 0.84845 0.56235 0.68991 0.0
C459 C 0.84604 0.39113 0.7171 0.0
C460 C 0.93805 0.50248 0.73131 0.0
C461 C 0.83636 0.43513 0.7318 0.0
N462 N 0.88224 0.48974 0.7402 0.0
C463 C 0.94895 0.46074 0.71382 0.0
C464 C 0.90255 0.40459 0.70699 0.0
C465 C 0.96125 0.56323 0.83335 0.0
C466 C 0.81595 0.57365 0.93513 0.0
C467 C 0.93462 0.62232 0.9213 0.0
C468 C 0.91088 0.59494 0.95894 0.0
C469 C 0.8511 0.57042 0.96581 0.0
N470 N 0.9 0.62568 0.89139 0.0
C471 C 0.84129 0.60147 0.89791 0.0
Co472 Co 0.30648 0.85831 0.08897 0.0
Co473 Co 0.26131 0.92568 0.16055 0.0
O474 O 0.25409 0.85477 0.13327 0.0
C475 C 0.26553 0.74114 0.12476 0.0
O476 O 0.21316 0.73457 0.12867 0.0
C477 C 0.13038 0.83461 0.1587 0.0
O478 O 0.14011 0.79368 0.14504 0.0
O479 O 0.25959 0.96 0.10492 0.0
O480 O 0.30463 0.92628 0.06405 0.0
H481 H 0.35937 0.14087 0.19344 0.0
H482 H 0.18568 0.83614 0.07646 0.0
O483 O 0.30834 0.78942 0.11239 0.0
H484 H 0.20348 0.69991 0.98259 0.0
H485 H 0.49021 0.86692 0.04014 0.0
H486 H 0.32866 0.89908 0.00053 0.0
H487 H 0.28517 0.76497 0.02772 0.0
H488 H 0.40637 0.83638 0.08626 0.0
O489 O 0.1724 0.88708 0.16395 0.0
H490 H 0.34735 0.05457 0.15721 0.0
H491 H 0.18916 0.94719 0.2224 0.0
H492 H 0.4166 0.93942 0.95732 0.0
H493 H 0.10133 0.76925 0.03351 0.0
H494 H 0.49905 0.92469 0.97756 0.0
H495 H 0.11038 0.70135 0.98543 0.0
O496 O 0.3744 0.90984 0.1234 0.0
H497 H 0.21158 0.76309 0.26359 0.0
H498 H 0.31864 0.97623 0.24231 0.0
H499 H 0.32046 0.93664 0.31008 0.0
H500 H 0.26657 0.82927 0.32147 0.0
H501 H 0.21065 0.80392 0.19633 0.0
H502 H 0.19758 0.03349 0.25676 0.0
H503 H 0.28362 0.13148 0.24292 0.0
O504 O 0.35067 0.96728 0.15884 0.0
C505 C 0.28227 0.95842 0.07036 0.0
C506 C 0.32109 0.09867 0.19917 0.0
C507 C 0.23044 0.03841 0.23471 0.0
N508 N 0.26694 0.99504 0.18667 0.0
C509 C 0.31401 0.04913 0.17872 0.0
C510 C 0.22541 0.98954 0.21441 0.0
C511 C 0.27875 0.09331 0.22706 0.0
C512 C 0.18949 0.80591 0.05636 0.0
N513 N 0.24083 0.8057 0.05422 0.0
C514 C 0.14173 0.76836 0.03185 0.0
C515 C 0.14686 0.73039 0.0048 0.0
C516 C 0.19916 0.7298 0.00304 0.0
C517 C 0.24565 0.76743 0.02842 0.0
C518 C 0.45508 0.87456 0.03146 0.0
C519 C 0.36421 0.89268 0.00992 0.0
C520 C 0.40648 0.85592 0.05701 0.0
N521 N 0.3624 0.86646 0.04672 0.0
C522 C 0.41381 0.91521 0.98499 0.0
C523 C 0.45989 0.90673 0.99623 0.0
C524 C 0.38843 0.95448 0.14552 0.0
C525 C 0.23486 0.81002 0.25915 0.0
C526 C 0.29429 0.92946 0.24644 0.0
C527 C 0.29584 0.90726 0.28522 0.0
C528 C 0.2657 0.8471 0.29159 0.0
N529 N 0.26315 0.89307 0.21461 0.0
C530 C 0.23433 0.83381 0.22077 0.0
Co531 Co 0.43449 0.28374 0.45038 0.0
Co532 Co 0.30641 0.24741 0.50373 0.0
O533 O 0.36939 0.23256 0.48673 0.0
C534 C 0.49098 0.24551 0.51607 0.0
O535 O 0.44245 0.20914 0.5352 0.0
C536 C 0.24832 0.11952 0.48123 0.0
O537 O 0.28601 0.13387 0.45102 0.0
O538 O 0.28939 0.25485 0.44405 0.0
O539 O 0.37836 0.29353 0.41334 0.0
H540 H 0.20442 0.36462 0.52342 0.0
H541 H 0.39886 0.15894 0.46843 0.0
O542 O 0.49179 0.27583 0.48555 0.0
H543 H 0.42979 0.18159 0.3184 0.0
H544 H 0.63843 0.36159 0.3983 0.0
H545 H 0.47369 0.39764 0.40825 0.0
H546 H 0.44166 0.26393 0.3608 0.0
H547 H 0.5411 0.28314 0.41972 0.0
O548 O 0.24891 0.15989 0.50295 0.0
H549 H 0.28274 0.34878 0.5 0.0
H550 H 0.19523 0.17755 0.55173 0.0
H551 H 0.5715 0.47887 0.3889 0.0
H552 H 0.38678 0.07564 0.42739 0.0
H553 H 0.65498 0.46132 0.38524 0.0
H554 H 0.4021 0.08644 0.35164 0.0
O555 O 0.44956 0.35289 0.48333 0.0
H556 H 0.35366 0.15782 0.62378 0.0
H557 H 0.3211 0.31753 0.57944 0.0
H558 H 0.34271 0.31044 0.65233 0.0
H559 H 0.35879 0.23 0.675 0.0
H560 H 0.33189 0.16661 0.55113 0.0
H561 H 0.1153 0.19164 0.57438 0.0
H562 H 0.11889 0.28525 0.56001 0.0
O563 O 0.36186 0.33424 0.50564 0.0
C564 C 0.32378 0.2783 0.41299 0.0
C565 C 0.20148 0.32282 0.52875 0.0
C566 C 0.15154 0.22585 0.5573 0.0
N567 N 0.24286 0.26038 0.52144 0.0
C568 C 0.24579 0.31301 0.515 0.0
C569 C 0.19689 0.21775 0.54344 0.0
C570 C 0.15377 0.27859 0.54957 0.0
C571 C 0.40664 0.16462 0.43577 0.0
N572 N 0.42198 0.2169 0.4174 0.0
C573 C 0.39923 0.11696 0.41253 0.0
C574 C 0.40777 0.12301 0.37006 0.0
C575 C 0.42335 0.17636 0.35141 0.0
C576 C 0.43024 0.22297 0.37568 0.0
C577 C 0.60259 0.37013 0.40065 0.0
C578 C 0.50959 0.38984 0.40621 0.0
C579 C 0.54695 0.32559 0.41216 0.0
N580 N 0.50174 0.33642 0.41666 0.0
C581 C 0.56495 0.43592 0.39559 0.0
C582 C 0.6119 0.42609 0.39346 0.0
C583 C 0.41627 0.36868 0.49988 0.0
C584 C 0.34669 0.1931 0.61432 0.0
C585 C 0.32795 0.28227 0.58896 0.0
C586 C 0.34034 0.27861 0.63033 0.0
C587 C 0.34953 0.23353 0.64303 0.0
N588 N 0.32444 0.24199 0.56102 0.0
C589 C 0.33439 0.19832 0.57319 0.0
Co590 Co 0.17702 0.47225 0.77111 0.0
Co591 Co 0.11989 0.35359 0.83422 0.0
O592 O 0.18554 0.41196 0.80022 0.0
C593 C 0.30455 0.52756 0.79515 0.0
O594 O 0.29772 0.4768 0.80614 0.0
C595 C 0.19534 0.29992 0.81251 0.0
O596 O 0.22729 0.34358 0.78761 0.0
O597 O 0.07594 0.32419 0.78158 0.0
O598 O 0.09273 0.41166 0.75734 0.0
H599 H 0.9067 0.22908 0.86966 0.0
H600 H 0.2605 0.4329 0.74125 0.0
O601 O 0.26141 0.53237 0.78259 0.0
H602 H 0.16103 0.44643 0.6172 0.0
H603 H 0.2503 0.6711 0.70891 0.0
H604 H 0.07924 0.49692 0.76691 0.0
H605 H 0.13532 0.46671 0.68544 0.0
H606 H 0.25401 0.58187 0.72301 0.0
O607 O 0.15083 0.29678 0.83056 0.0
H608 H 0.99175 0.30525 0.8319 0.0
H609 H 0.10602 0.27171 0.90314 0.0
H610 H 0.07263 0.58435 0.75052 0.0
H611 H 0.28682 0.41139 0.6739 0.0
H612 H 0.15866 0.6721 0.72142 0.0
H613 H 0.23734 0.41847 0.61091 0.0
O614 O 0.15617 0.49337 0.82421 0.0
H615 H 0.30275 0.44877 0.92092 0.0
H616 H 0.09222 0.38123 0.9176 0.0
H617 H 0.14957 0.43221 0.979 0.0
H618 H 0.256 0.4674 0.98072 0.0
H619 H 0.24387 0.39886 0.8597 0.0
H620 H 0.02246 0.19492 0.94175 0.0
H621 H 0.92177 0.17329 0.92527 0.0
O622 O 0.08492 0.40596 0.84113 0.0
C623 C 0.06621 0.35542 0.75595 0.0
C624 C 0.95032 0.23812 0.87724 0.0
C625 C 0.01527 0.21896 0.91765 0.0
N626 N 0.05398 0.29353 0.86533 0.0
C627 C 0.99866 0.28129 0.85587 0.0
C628 C 0.06252 0.26248 0.89556 0.0
C629 C 0.9588 0.20684 0.9084 0.0
C630 C 0.23912 0.43697 0.71452 0.0
N631 N 0.19801 0.45355 0.71784 0.0
C632 C 0.25407 0.42435 0.67614 0.0
C633 C 0.22631 0.42827 0.64081 0.0
C634 C 0.18362 0.44406 0.64432 0.0
C635 C 0.16964 0.45604 0.68323 0.0
C636 C 0.21243 0.63287 0.72143 0.0
C637 C 0.11636 0.53419 0.75301 0.0
C638 C 0.21435 0.58208 0.72963 0.0
N639 N 0.16736 0.53407 0.74645 0.0
C640 C 0.11238 0.58379 0.74418 0.0
C641 C 0.16093 0.63346 0.72853 0.0
C642 C 0.10899 0.46149 0.84336 0.0
C643 C 0.25658 0.43452 0.92025 0.0
C644 C 0.1383 0.39599 0.91798 0.0
C645 C 0.17065 0.42501 0.95293 0.0
C646 C 0.23032 0.44481 0.95385 0.0
N647 N 0.16445 0.38695 0.88468 0.0
C648 C 0.22293 0.40601 0.88561 0.0
Co649 Co 0.73037 0.18627 0.10192 0.0
Co650 Co 0.75998 0.0916 0.1549 0.0
O651 O 0.7805 0.17126 0.13813 0.0
C652 C 0.78225 0.28821 0.16171 0.0
O653 O 0.81406 0.27018 0.18082 0.0
C654 C 0.88718 0.15266 0.13375 0.0
O655 O 0.87404 0.17013 0.0996 0.0
O656 O 0.75566 0.06911 0.09531 0.0
O657 O 0.71123 0.11502 0.06867 0.0
H658 H 0.64629 0.87176 0.15107 0.0
H659 H 0.85713 0.27667 0.11069 0.0
O660 O 0.74868 0.25931 0.13214 0.0
H661 H 0.82628 0.23652 0.96213 0.0
H662 H 0.67607 0.31944 0.02867 0.0
H663 H 0.60318 0.11929 0.07958 0.0
H664 H 0.74441 0.1872 0.01088 0.0
H665 H 0.74444 0.28969 0.05467 0.0
O666 O 0.84655 0.11874 0.15835 0.0
H667 H 0.67308 0.97093 0.1281 0.0
H668 H 0.81015 0.04491 0.21619 0.0
H669 H 0.53329 0.14729 0.05454 0.0
H670 H 0.94064 0.32672 0.06347 0.0
H671 H 0.56929 0.24858 0.02958 0.0
H672 H 0.92551 0.30699 0.9883 0.0
O673 O 0.66362 0.14054 0.14058 0.0
H674 H 0.84568 0.21973 0.27989 0.0
H675 H 0.67929 0.03767 0.2263 0.0
H676 H 0.6792 0.06474 0.29881 0.0
H677 H 0.76283 0.15611 0.32614 0.0
H678 H 0.84381 0.1911 0.20743 0.0
H679 H 0.78596 0.94644 0.23938 0.0
H680 H 0.70282 0.85904 0.20744 0.0
O681 O 0.67334 0.06274 0.15329 0.0
C682 C 0.72919 0.07837 0.06554 0.0
C683 C 0.68246 0.90949 0.16546 0.0
C684 C 0.76086 0.95142 0.21498 0.0
N685 N 0.7424 0.01374 0.1712 0.0
C686 C 0.6976 0.96582 0.15268 0.0
C687 C 0.77449 0.00708 0.20157 0.0
C688 C 0.71422 0.90237 0.19698 0.0
C689 C 0.85008 0.26771 0.07838 0.0
N690 N 0.7955 0.22955 0.06391 0.0
C691 C 0.8976 0.29636 0.05157 0.0
C692 C 0.88911 0.28528 0.00945 0.0
C693 C 0.83347 0.24585 0.99476 0.0
C694 C 0.78712 0.21814 0.02257 0.0
C695 C 0.65974 0.27517 0.03951 0.0
C696 C 0.61984 0.16272 0.06774 0.0
C697 C 0.6985 0.25763 0.05364 0.0
N698 N 0.67853 0.20216 0.06826 0.0
C699 C 0.57969 0.17872 0.0541 0.0
C700 C 0.59986 0.23554 0.04022 0.0
C701 C 0.64261 0.0876 0.15209 0.0
C702 C 0.80894 0.17974 0.26832 0.0
C703 C 0.7157 0.07789 0.23773 0.0
C704 C 0.71548 0.09283 0.27894 0.0
C705 C 0.76246 0.14414 0.29425 0.0
N706 N 0.76143 0.11303 0.21238 0.0
C707 C 0.80768 0.16331 0.22727 0.0
C708 C 0.24472 0.63912 0.10859 0.0
C709 C 0.27572 0.6916 0.13181 0.0
C710 C 0.34188 0.6593 0.1579 0.0
C711 C 0.3077 0.60468 0.13778 0.0
N712 N 0.22334 0.53963 0.09732 0.0
N713 N 0.34529 0.74612 0.18519 0.0
C714 C 0.2581 0.59376 0.11414 0.0
C715 C 0.32217 0.70026 0.15814 0.0
N716 N 0.20431 0.6334 0.07989 0.0
N717 N 0.39297 0.67217 0.17715 0.0
H718 H 0.33042 0.77585 0.18737 0.0
H719 H 0.37466 0.7512 0.20843 0.0
H720 H 0.40801 0.64277 0.18005 0.0
H721 H 0.4229 0.71381 0.18785 0.0
H722 H 0.18617 0.59975 0.05834 0.0
H723 H 0.19136 0.66419 0.07556 0.0
H724 H 0.18231 0.52623 0.08467 0.0
H725 H 0.23425 0.5068 0.09784 0.0
C726 C 0.65145 0.31874 0.53588 0.0
C727 C 0.66425 0.27688 0.5189 0.0
C728 C 0.55964 0.20742 0.50951 0.0
C729 C 0.54711 0.24944 0.52616 0.0
N730 N 0.57752 0.33882 0.56279 0.0
N731 N 0.63201 0.17933 0.4943 0.0
C732 C 0.59216 0.3033 0.54166 0.0
C733 C 0.61865 0.22048 0.50722 0.0
N734 N 0.6959 0.37317 0.54651 0.0
N735 N 0.51512 0.15601 0.49442 0.0
H736 H 0.6748 0.18871 0.48909 0.0
H737 H 0.60118 0.13535 0.49023 0.0
H738 H 0.47128 0.14287 0.49919 0.0
H739 H 0.52123 0.1269 0.47654 0.0
H740 H 0.68974 0.4077 0.55471 0.0
H741 H 0.73993 0.38541 0.54537 0.0
H742 H 0.60734 0.37654 0.57833 0.0
H743 H 0.5341 0.32749 0.56792 0.0
C744 C 0.45743 0.63941 0.82989 0.0
C745 C 0.47279 0.68474 0.80059 0.0
C746 C 0.38555 0.61783 0.76141 0.0
C747 C 0.36374 0.58002 0.79612 0.0
N748 N 0.37747 0.56182 0.86719 0.0
N749 N 0.44483 0.71798 0.73933 0.0
C750 C 0.39935 0.59246 0.83145 0.0
C751 C 0.43546 0.6743 0.76619 0.0
N752 N 0.49876 0.64043 0.8555 0.0
N753 N 0.36046 0.5992 0.72362 0.0
H754 H 0.47922 0.76077 0.74186 0.0
H755 H 0.41482 0.71253 0.71641 0.0
H756 H 0.32665 0.55655 0.7185 0.0
H757 H 0.37786 0.62382 0.69685 0.0
H758 H 0.49019 0.60656 0.87594 0.0
H759 H 0.54285 0.67078 0.85143 0.0
H760 H 0.40129 0.57318 0.89459 0.0
H761 H 0.33372 0.52983 0.87063 0.0
C762 C 0.78255 0.41273 0.22058 0.0
C763 C 0.77805 0.4451 0.18714 0.0
C764 C 0.79427 0.38419 0.13926 0.0
C765 C 0.78722 0.34511 0.17185 0.0
N766 N 0.76541 0.3185 0.24371 0.0
N767 N 0.76983 0.45505 0.11384 0.0
C768 C 0.77905 0.35835 0.2127 0.0
C769 C 0.78114 0.42902 0.14619 0.0
N770 N 0.79299 0.43497 0.25954 0.0
N771 N 0.81634 0.38046 0.1022 0.0
H772 H 0.75837 0.48716 0.11765 0.0
H773 H 0.76603 0.44045 0.08356 0.0
H774 H 0.83094 0.35121 0.09716 0.0
H775 H 0.82684 0.41098 0.07862 0.0
H776 H 0.80208 0.41547 0.28421 0.0
H777 H 0.79864 0.47592 0.26623 0.0
H778 H 0.7532 0.3243 0.27307 0.0
H779 H 0.76095 0.27744 0.23929 0.0
C780 C 0.32388 0.62122 0.50953 0.0
C781 C 0.37438 0.6774 0.50509 0.0
C782 C 0.31283 0.71627 0.48216 0.0
C783 C 0.26195 0.66326 0.4933 0.0
N784 N 0.22201 0.5691 0.52822 0.0
N785 N 0.4145 0.78144 0.49805 0.0
C786 C 0.26791 0.61643 0.50982 0.0
C787 C 0.36801 0.72592 0.49484 0.0
N788 N 0.32845 0.57208 0.51176 0.0
N789 N 0.30858 0.75717 0.459 0.0
H790 H 0.45469 0.78999 0.50998 0.0
H791 H 0.41083 0.81854 0.49368 0.0
H792 H 0.26883 0.75009 0.44716 0.0
H793 H 0.34508 0.79473 0.44773 0.0
H794 H 0.29207 0.53004 0.51073 0.0
H795 H 0.36812 0.57275 0.51054 0.0
H796 H 0.227 0.53757 0.54412 0.0
H797 H 0.1808 0.56419 0.53215 0.0
C798 C 0.66153 0.28491 0.7978 0.0
C799 C 0.61073 0.28802 0.80557 0.0
C800 C 0.66994 0.39225 0.82211 0.0
C801 C 0.72107 0.38774 0.81893 0.0
N802 N 0.76646 0.32976 0.80493 0.0
N803 N 0.56482 0.34582 0.81132 0.0
C804 C 0.71718 0.33409 0.80685 0.0
C805 C 0.61453 0.34232 0.81361 0.0
N806 N 0.65625 0.23571 0.78002 0.0
N807 N 0.67437 0.4435 0.83515 0.0
H808 H 0.52506 0.31017 0.80199 0.0
H809 H 0.56359 0.38432 0.81439 0.0
H810 H 0.71425 0.48056 0.84233 0.0
H811 H 0.63869 0.44858 0.84164 0.0
H812 H 0.6914 0.23145 0.77033 0.0
H813 H 0.61591 0.20116 0.77064 0.0
H814 H 0.76618 0.29061 0.80083 0.0
H815 H 0.80815 0.36501 0.80991 0.0
C816 C 0.5349 0.53559 0.2145 0.0
C817 C 0.56946 0.53704 0.18096 0.0
C818 C 0.479 0.48152 0.14053 0.0
C819 C 0.44532 0.47259 0.17677 0.0
N820 N 0.44704 0.47084 0.25105 0.0
N821 N 0.57316 0.50262 0.11288 0.0
C822 C 0.47493 0.49356 0.21467 0.0
C823 C 0.54119 0.50712 0.14407 0.0
N824 N 0.55837 0.575 0.24581 0.0
N825 N 0.45238 0.46768 0.10297 0.0
H826 H 0.61833 0.52054 0.11494 0.0
H827 H 0.55419 0.47725 0.08671 0.0
H828 H 0.40761 0.45124 0.09965 0.0
H829 H 0.47545 0.47762 0.07531 0.0
H830 H 0.53277 0.57688 0.26957 0.0
H831 H 0.60194 0.6085 0.24584 0.0
H832 H 0.46828 0.48395 0.27941 0.0
H833 H 0.4035 0.4375 0.25239 0.0
C834 C 0.98111 0.52223 0.48642 0.0
C835 C 1.00165 0.5563 0.5229 0.0
C836 C 0.96884 0.46713 0.56305 0.0
C837 C 0.94061 0.43251 0.52805 0.0
N838 N 0.91133 0.42801 0.45714 0.0
N839 N 0.99363 0.55756 0.59683 0.0
C840 C 0.94398 0.4603 0.48982 0.0
C841 C 0.98924 0.52771 0.56156 0.0
N842 N 0.9989 0.5483 0.44878 0.0
N843 N 0.97795 0.44292 0.59739 0.0
H844 H 1.00381 0.60118 0.59639 0.0
H845 H 0.98076 0.53703 0.6255 0.0
H846 H 0.96545 0.39877 0.59909 0.0
H847 H 1.00247 0.46808 0.62239 0.0
H848 H 0.9892 0.52483 0.42134 0.0
H849 H 0.02806 0.59295 0.44551 0.0
H850 H 0.90838 0.44671 0.42961 0.0
H851 H 0.88325 0.38292 0.45905 0.0
C852 C 0.46182 0.96879 0.80739 0.0
C853 C 0.49224 0.0285 0.82099 0.0
C854 C 0.58424 0.02571 0.81291 0.0
C855 C 0.55309 0.96371 0.81231 0.0
N856 N 0.4601 0.87673 0.7993 0.0
N857 N 0.58844 0.11446 0.83305 0.0
C858 C 0.49114 0.93538 0.80703 0.0
C859 C 0.55498 0.05677 0.82305 0.0
N860 N 0.40676 0.94468 0.79139 0.0
N861 N 0.64081 0.05612 0.79956 0.0
H862 H 0.57472 0.14464 0.82987 0.0
H863 H 0.63151 0.13259 0.84332 0.0
H864 H 0.66067 0.03614 0.78456 0.0
H865 H 0.66435 0.1015 0.79638 0.0
H866 H 0.38393 0.90282 0.77894 0.0
H867 H 0.38719 0.96879 0.78375 0.0
H868 H 0.41507 0.85136 0.80371 0.0
H869 H 0.47946 0.85365 0.78791 0.0
C870 C 0.49179 0.52166 0.46317 0.0
C871 C 0.50886 0.55588 0.49926 0.0
C872 C 0.46396 0.46467 0.53959 0.0
C873 C 0.43988 0.43256 0.50276 0.0
N874 N 0.41202 0.4364 0.43261 0.0
N875 N 0.50016 0.5587 0.57316 0.0
C876 C 0.44748 0.46296 0.46554 0.0
C877 C 0.49209 0.52719 0.53819 0.0
N878 N 0.5204 0.54406 0.427 0.0
N879 N 0.46021 0.43596 0.5754 0.0
H880 H 0.51715 0.6037 0.57238 0.0
H881 H 0.48463 0.53945 0.6019 0.0
H882 H 0.43881 0.39041 0.57706 0.0
H883 H 0.48144 0.45755 0.60237 0.0
H884 H 0.50996 0.51921 0.40012 0.0
H885 H 0.5585 0.58493 0.42568 0.0
H886 H 0.4149 0.45889 0.40545 0.0
H887 H 0.37686 0.3938 0.43431 0.0
C888 C 0.97813 0.47542 0.84529 0.0
C889 C 1.00001 0.53781 0.84559 0.0
C890 C 0.09825 0.55071 0.8588 0.0
C891 C 0.07424 0.48912 0.8578 0.0
N892 N 0.98876 0.40021 0.87922 0.0
N893 N 0.08023 0.62979 0.87241 0.0
C894 C 0.01339 0.4541 0.86135 0.0
C895 C 0.05996 0.57434 0.85823 0.0
N896 N 0.92672 0.43516 0.82737 0.0
N897 N 0.15729 0.58673 0.86203 0.0
H898 H 0.05351 0.64666 0.87932 0.0
H899 H 0.12226 0.65599 0.88406 0.0
H900 H 0.18522 0.5714 0.87064 0.0
H901 H 0.17805 0.63149 0.85601 0.0
H902 H 0.91381 0.39085 0.82612 0.0
H903 H 0.90174 0.44401 0.80751 0.0
H904 H 0.94377 0.37447 0.88404 0.0
H905 H 0.01393 0.38587 0.89444 0.0
C906 C 0.48828 1.00064 0.1155 0.0
C907 C 0.45335 0.99562 0.14993 0.0
C908 C 0.54532 0.05692 0.18808 0.0
C909 C 0.57758 0.05074 0.15538 0.0
N910 N 0.57159 0.99414 0.09535 0.0
N911 N 0.45117 0.01396 0.22263 0.0
C912 C 0.54655 0.01514 0.12163 0.0
C913 C 0.48247 0.02281 0.18745 0.0
N914 N 0.46708 0.99479 0.07645 0.0
N915 N 0.5743 0.09402 0.21985 0.0
H916 H 0.4061 0.98733 0.22323 0.0
H917 H 0.47039 0.02853 0.25145 0.0
H918 H 0.61987 0.11689 0.2219 0.0
H919 H 0.55314 0.10429 0.24257 0.0
H920 H 0.49384 1.0034 0.05069 0.0
H921 H 0.42589 0.98937 0.07039 0.0
H922 H 0.54796 0.96524 0.07169 0.0
H923 H 0.61408 1.00227 0.09868 0.0
C924 C 0.25202 0.33046 0.33215 0.0
C925 C 0.28292 0.3304 0.29654 0.0
C926 C 0.3175 0.27454 0.33576 0.0
C927 C 0.30055 0.28874 0.37332 0.0
N928 N 0.25363 0.33662 0.40616 0.0
N929 N 0.35552 0.31051 0.26814 0.0
C930 C 0.26789 0.31822 0.37132 0.0
C931 C 0.31837 0.30431 0.29924 0.0
N932 N 0.20533 0.33866 0.32843 0.0
N933 N 0.32993 0.23051 0.33453 0.0
H934 H 0.3622 0.33789 0.24323 0.0
H935 H 0.38479 0.29507 0.27021 0.0
H936 H 0.3229 0.20378 0.36013 0.0
H937 H 0.33909 0.21615 0.30711 0.0
H938 H 0.1787 0.33512 0.35323 0.0
H939 H 0.18891 0.34068 0.29965 0.0
H940 H 0.23487 0.36313 0.4058 0.0
H941 H 0.26538 0.32957 0.43501 0.0
C942 C 0.01258 0.29769 0.64787 0.0
C943 C 0.95203 0.28046 0.65038 0.0
C944 C 0.96574 0.30805 0.72351 0.0
C945 C 0.02576 0.32605 0.72084 0.0
N946 N 0.10022 0.31687 0.68477 0.0
N947 N 0.87123 0.23688 0.69721 0.0
C948 C 0.04742 0.31456 0.68432 0.0
C949 C 0.92842 0.27629 0.69025 0.0
N950 N 0.03796 0.29839 0.61133 0.0
N951 N 0.94408 0.32133 0.75729 0.0
H952 H 0.84719 0.20555 0.6749 0.0
H953 H 0.85199 0.22926 0.72631 0.0
H954 H 0.97104 0.34826 0.78076 0.0
H955 H 0.90048 0.31068 0.75948 0.0
H956 H 0.08299 0.32371 0.60687 0.0
H957 H 0.01496 0.27192 0.58672 0.0
H958 H 0.11558 0.30306 0.66017 0.0
H959 H 0.12626 0.32753 0.71108 0.0
C960 C 0.74047 0.98708 0.97663 0.0
C961 C 0.69831 0.9847 0.94846 0.0
C962 C 0.67284 0.03799 0.99719 0.0
C963 C 0.71871 0.04592 0.02492 0.0
N964 N 0.80979 0.04432 0.02948 0.0
N965 N 0.63587 0.02225 0.92794 0.0
C966 C 0.75651 0.02501 0.01148 0.0
C967 C 0.66919 0.01556 0.95734 0.0
N968 N 0.7642 0.95217 0.97108 0.0
N969 N 0.62938 0.04862 0.00722 0.0
H970 H 0.63455 0.00979 0.89731 0.0
H971 H 0.6134 0.04456 0.93344 0.0
H972 H 0.62278 0.06179 0.03575 0.0
H973 H 0.62278 0.06179 0.03575 0.0
H974 H 0.79046 0.94792 0.9932 0.0
H975 H 0.75334 0.92359 0.94628 0.0
H976 H 0.83998 0.03329 0.01843 0.0
H977 H 0.82765 0.07783 0.05106 0.0
C978 C 0.68385 0.75381 0.34632 0.0
C979 C 0.68141 0.7227 0.38267 0.0
C980 C 0.73586 0.6847 0.3462 0.0
C981 C 0.72151 0.69967 0.30789 0.0
N982 N 0.68824 0.75781 0.27198 0.0
N983 N 0.70185 0.65256 0.41516 0.0
C984 C 0.69787 0.73757 0.30796 0.0
C985 C 0.70741 0.68717 0.38238 0.0
N986 N 0.67534 0.80051 0.34889 0.0
N987 N 0.77929 0.67154 0.34831 0.0
H988 H 0.6765 0.64897 0.44058 0.0
H989 H 0.71693 0.6229 0.41458 0.0
H990 H 0.80409 0.6747 0.32238 0.0
H991 H 0.79494 0.66547 0.37632 0.0
H992 H 0.68116 0.82804 0.32411 0.0
H993 H 0.6689 0.81537 0.3771 0.0
H994 H 0.66331 0.77818 0.26997 0.0
H995 H 0.70531 0.75403 0.24427 0.0
C996 C 0.98342 0.72442 0.64217 0.0
C997 C 0.0438 0.74495 0.63516 0.0
C998 C 0.05662 0.72853 0.7076 0.0
C999 C 0.99555 0.70137 0.71363 0.0
N1000 N 0.90593 0.69655 0.69254 0.0
N1001 N 0.13798 0.79987 0.66671 0.0
C1002 C 0.96035 0.70645 0.68269 0.0
C1003 C 0.08064 0.75786 0.66986 0.0
N1004 N 0.94808 0.72221 0.61083 0.0
N1005 N 0.09142 0.72474 0.73695 0.0
H1006 H 0.15378 0.82522 0.64002 0.0
H1007 H 0.1668 0.81422 0.69158 0.0
H1008 H 0.07427 0.69807 0.76279 0.0
H1009 H 0.13651 0.7438 0.73368 0.0
H1010 H 0.90262 0.69747 0.61219 0.0
H1011 H 0.9643 0.74752 0.58435 0.0
H1012 H 0.88031 0.70533 0.67268 0.0
H1013 H 0.88826 0.68382 0.72197 0.0
C1014 C 0.31632 0.0521 0.02886 0.0
C1015 C 0.28018 0.99089 0.03304 0.0
C1016 C 0.28281 0.97957 0.95841 0.0
C1017 C 0.32075 0.04071 0.95386 0.0
N1018 N 0.34724 0.13468 0.98284 0.0
N1019 N 0.20458 0.90568 -0.00013 0.0
C1020 C 0.32939 0.07708 0.98858 0.0
C1021 C 0.2553 0.95761 0.997 0.0
N1022 N 0.33931 0.08622 0.06281 0.0
N1023 N 0.27551 0.94189 0.92745 0.0
H1024 H 0.18036 0.89441 0.02709 0.0
H1025 H 0.18325 0.87966 0.97443 0.0
H1026 H 0.2985 0.95596 0.90002 0.0
H1027 H 0.2516 0.89657 0.93112 0.0
H1028 H 0.37107 0.13042 0.06116 0.0
H1029 H 0.32739 0.06917 0.09239 0.0
H1030 H 0.35016 0.1622 0.00683 0.0
H1031 H 0.35193 0.15245 0.95339 0.0
C1032 C 0.979 0.15051 0.15459 0.0
C1033 C 0.94949 0.1823 0.14779 0.0
C1034 C 0.04138 0.27408 0.15877 0.0
C1035 C 0.06988 0.24287 0.17006 0.0
N1036 N 0.0647 0.15057 0.1824 0.0
N1037 N 0.95004 0.27322 0.15549 0.0
C1038 C 0.03838 0.18068 0.16891 0.0
C1039 C 0.98001 0.24376 0.15329 0.0
N1040 N 0.95088 0.09197 0.14632 0.0
N1041 N 0.07327 0.33267 0.1512 0.0
H1042 H 0.90463 0.25178 0.15481 0.0
H1043 H 0.96965 0.31735 0.16322 0.0
H1044 H 0.11865 0.35565 0.15256 0.0
H1045 H 0.05528 0.35659 0.13891 0.0
H1046 H 0.97147 0.06722 0.14658 0.0
H1047 H 0.90753 0.06881 0.13635 0.0
H1048 H 0.04264 0.1054 0.18638 0.0
H1049 H 0.1081 0.1714 0.1923 0.0
C1050 C 0.79681 0.03834 0.48131 0.0
C1051 C 0.80925 0.05781 0.52313 0.0
C1052 C 0.75361 0.95548 0.54626 0.0
C1053 C 0.74118 0.93583 0.50464 0.0
N1054 N 0.77073 0.95845 0.43363 0.0
N1055 N 0.82021 0.03182 0.59243 0.0
C1056 C 0.76891 0.97728 0.47251 0.0
C1057 C 0.7943 0.0153 0.5546 0.0
N1058 N 0.80906 0.07687 0.44968 0.0
N1059 N 0.72449 0.91865 0.57819 0.0
H1060 H 0.85288 0.07465 0.59882 0.0
H1061 H 0.81479 1.00192 0.61544 0.0
H1062 H 0.69319 0.87498 0.57447 0.0
H1063 H 0.72766 0.93333 0.60836 0.0
H1064 H 0.79232 0.06368 0.42006 0.0
H1065 H 0.83356 0.12182 0.45272 0.0
H1066 H 0.7952 0.98667 0.40982 0.0
H1067 H 0.7538 0.91438 0.42648 0.0
C1068 C 0.83839 0.79281 0.79504 0.0
C1069 C 0.8382 0.75776 0.8283 0.0
C1070 C 0.81682 0.81722 0.87526 0.0
C1071 C 0.80231 0.84176 0.84146 0.0
N1072 N 0.8045 0.85471 0.76689 0.0
N1073 N 0.82084 0.73364 0.9008 0.0
C1074 C 0.81494 0.83055 0.80068 0.0
C1075 C 0.82622 0.76948 0.86871 0.0
N1076 N 0.86437 0.79299 0.75857 0.0
N1077 N 0.82357 0.84089 0.91365 0.0
H1078 H 0.82493 0.69679 0.8974 0.0
H1079 H 0.80628 0.73718 0.92991 0.0
H1080 H 0.82171 0.87886 0.91886 0.0
H1081 H 0.83858 0.82761 0.93882 0.0
H1082 H 0.87134 0.82207 0.73461 0.0
H1083 H 0.8853 0.76897 0.75394 0.0
H1084 H 0.80168 0.83851 0.7372 0.0
H1085 H 0.7994 0.89101 0.76776 0.0
C1086 C 0.99074 0.80056 0.21688 0.0
C1087 C 0.94773 0.77199 0.18567 0.0
C1088 C 0.0282 0.80242 0.13524 0.0
C1089 C 0.06893 0.81898 0.16786 0.0
N1090 N 0.08829 0.82952 0.2409 0.0
N1091 N 0.92822 0.74824 0.11265 0.0
C1092 C 0.05017 0.81741 0.209 0.0
C1093 C 0.96711 0.77428 0.14405 0.0
N1094 N 0.97522 0.81391 0.25366 0.0
N1095 N 0.04813 0.8155 0.09557 0.0
H1096 H 0.88449 0.73566 0.11433 0.0
H1097 H 0.93979 0.73867 0.08426 0.0
H1098 H 0.09253 0.8371 0.08819 0.0
H1099 H 0.02143 0.8106 0.07049 0.0
H1100 H 0.00548 0.83895 0.27628 0.0
H1101 H 0.93318 0.80645 0.25932 0.0
H1102 H 0.07525 0.82245 0.27167 0.0
H1103 H 0.13207 0.84203 0.23652 0.0
C1104 C 0.16115 0.9559 0.46126 0.0
C1105 C 0.14833 0.93211 0.50184 0.0
C1106 C 0.19062 0.03147 0.53012 0.0
C1107 C 0.20534 0.05566 0.48945 0.0
N1108 N 0.18137 0.03814 0.41729 0.0
N1109 N 0.1301 0.94625 0.5723 0.0
C1110 C 0.18334 0.01691 0.45533 0.0
C1111 C 0.15676 0.96967 0.53543 0.0
N1112 N 0.15469 0.92133 0.42826 0.0
N1113 N 0.2101 0.06624 0.56417 0.0
H1114 H 0.10256 0.9014 0.57673 0.0
H1115 H 0.1295 0.97137 0.59679 0.0
H1116 H 0.2279 0.11105 0.56361 0.0
H1117 H 0.20955 0.05006 0.59359 0.0
H1118 H 0.17108 0.93799 0.39907 0.0
H1119 H 0.13617 0.87638 0.43034 0.0
H1120 H 0.16101 0.01138 0.39194 0.0
H1121 H 0.19341 0.08179 0.41238 0.0
C1122 C 0.22259 0.24066 0.86059 0.0
C1123 C 0.21289 0.2548 0.82005 0.0
C1124 C 0.25774 0.20031 0.79156 0.0
C1125 C 0.26719 0.186 0.83227 0.0
N1126 N 0.23726 0.17404 0.90343 0.0
N1127 N 0.20401 0.23164 0.74778 0.0
C1128 C 0.24274 0.2003 0.86608 0.0
C1129 C 0.22506 0.22936 0.78583 0.0
N1130 N 0.2162 0.26809 0.89404 0.0
N1131 N 0.28193 0.18916 0.7582 0.0
H1132 H 0.1786 0.25106 0.74271 0.0
H1133 H 0.20612 0.20881 0.72234 0.0
H1134 H 0.30329 0.16545 0.75954 0.0
H1135 H 0.28343 0.20643 0.72906 0.0
H1136 H 0.22968 0.26459 0.92358 0.0
H1137 H 0.20234 0.29831 0.89195 0.0
H1138 H 0.21497 0.1788 0.92822 0.0
H1139 H 0.24862 0.14193 0.90803 0.0
loop_
_geom_bond_atom_site_label_1
_geom_bond_atom_site_label_2
_geom_bond_distance
_geom_bond_site_symmetry_2
_ccdc_geom_bond_type
Co0 O2 2.143 . S
Co0 O8 2.074 . S
Co0 O11 2.093 . S
Co0 O24 2.097 . S
Co0 N41 2.151 . S
Co0 N49 2.214 . S
Co1 O2 2.160 . S
Co1 O7 2.058 . S
Co1 O17 2.057 . S
Co1 O32 2.037 . S
Co1 N36 2.145 . S
Co1 N57 2.257 . S
O2 Co0 2.143 . S
O2 Co1 2.160 . S
C3 O4 1.278 . S
C3 O11 1.224 . S
O4 C3 1.278 . S
C5 O6 1.245 . S
C5 O17 1.232 . S
O6 C5 1.245 . S
O7 Co1 2.058 . S
O7 C33 1.269 . S
O8 Co0 2.074 . S
O8 C33 1.257 . S
H9 C34 0.930 . S
H10 C40 0.930 . S
O11 Co0 2.093 . S
O11 C3 1.224 . S
H12 C44 0.929 . S
H13 C46 0.930 . S
H14 C47 0.930 . S
H15 C45 0.929 . S
H16 C48 0.928 . S
O17 Co1 2.057 . S
O17 C5 1.232 . S
H18 C37 0.929 . S
H19 C38 0.929 . S
H20 C50 0.931 . S
H21 C42 0.929 . S
H22 C51 0.930 . S
H23 C43 0.931 . S
O24 Co0 2.097 . S
O24 C52 1.214 . S
H25 C53 0.929 . S
H26 C54 0.929 . S
H27 C55 0.930 . S
H28 C56 0.929 1_556 S
H29 C58 0.930 . S
H30 C35 0.930 . S
H31 C39 0.930 . S
O32 Co1 2.037 . S
O32 C52 1.234 . S
C33 O7 1.269 . S
C33 O8 1.257 . S
C34 H9 0.930 . S
C34 C37 1.388 . S
C34 C39 1.418 . S
C35 H30 0.930 . S
C35 C38 1.404 . S
C35 C39 1.353 . S
N36 Co1 2.145 . S
N36 C37 1.397 . S
N36 C38 1.334 . S
C37 H18 0.929 . S
C37 C34 1.388 . S
C37 N36 1.397 . S
C38 H19 0.929 . S
C38 C35 1.404 . S
C38 N36 1.334 . S
C39 H31 0.930 . S
C39 C34 1.418 . S
C39 C35 1.353 . S
C40 H10 0.930 . S
C40 N41 1.330 . S
C40 C42 1.446 . S
N41 Co0 2.151 . S
N41 C40 1.330 . S
N41 C45 1.418 . S
C42 H21 0.929 . S
C42 C40 1.446 . S
C42 C43 1.332 . S
C43 H23 0.931 . S
C43 C42 1.332 . S
C43 C44 1.267 . S
C44 H12 0.929 . S
C44 C43 1.267 . S
C44 C45 1.251 . S
C45 H15 0.929 . S
C45 N41 1.418 . S
C45 C44 1.251 . S
C46 H13 0.930 . S
C46 C48 1.406 . S
C46 C51 1.261 . S
C47 H14 0.930 . S
C47 N49 1.325 . S
C47 C50 1.357 . S
C48 H16 0.928 . S
C48 C46 1.406 . S
C48 N49 1.261 . S
N49 Co0 2.214 . S
N49 C47 1.325 . S
N49 C48 1.261 . S
C50 H20 0.931 . S
C50 C47 1.357 . S
C50 C51 1.312 . S
C51 H22 0.930 . S
C51 C46 1.261 . S
C51 C50 1.312 . S
C52 O24 1.214 . S
C52 O32 1.234 . S
C53 H25 0.929 . S
C53 C56 1.391 . S
C53 C58 1.391 . S
C54 H26 0.929 . S
C54 C55 1.390 . S
C54 N57 1.391 . S
C55 H27 0.930 . S
C55 C54 1.390 . S
C55 C56 1.392 . S
C56 H28 0.929 1_554 S
C56 C53 1.391 . S
C56 C55 1.392 . S
N57 Co1 2.257 . S
N57 C54 1.391 . S
N57 C58 1.388 . S
C58 H29 0.930 . S
C58 C53 1.391 . S
C58 N57 1.388 . S
Co59 O61 2.143 . S
Co59 O67 2.074 . S
Co59 O70 2.093 . S
Co59 O83 2.097 . S
Co59 N100 2.151 . S
Co59 N108 2.214 . S
Co60 O61 2.160 . S
Co60 O66 2.058 . S
Co60 O76 2.057 . S
Co60 O91 2.037 . S
Co60 N95 2.145 1_655 S
Co60 N116 2.257 . S
O61 Co59 2.143 . S
O61 Co60 2.160 . S
C62 O63 1.278 . S
C62 O70 1.224 . S
O63 C62 1.278 . S
C64 O65 1.245 . S
C64 O76 1.232 . S
O65 C64 1.245 . S
O66 Co60 2.058 . S
O66 C92 1.269 . S
O67 Co59 2.074 . S
O67 C92 1.257 . S
H68 C93 0.930 . S
H69 C99 0.930 . S
O70 Co59 2.093 . S
O70 C62 1.224 . S
H71 C103 0.929 . S
H72 C105 0.930 . S
H73 C106 0.930 . S
H74 C104 0.929 . S
H75 C107 0.928 . S
O76 Co60 2.057 . S
O76 C64 1.232 . S
H77 C96 0.929 . S
H78 C97 0.925 1_655 S
H79 C109 0.931 . S
H80 C101 0.929 . S
H81 C110 0.930 . S
H82 C102 0.931 . S
O83 Co59 2.097 . S
O83 C111 1.214 . S
H84 C112 0.929 . S
H85 C113 0.929 . S
H86 C114 0.930 . S
H87 C115 0.929 . S
H88 C117 0.930 . S
H89 C94 0.930 . S
H90 C98 0.930 . S
O91 Co60 2.037 . S
O91 C111 1.234 . S
C92 O66 1.269 . S
C92 O67 1.257 . S
C93 H68 0.930 . S
C93 C96 1.388 . S
C93 C98 1.418 . S
C94 H89 0.930 . S
C94 C97 1.412 . S
C94 C98 1.353 . S
N95 Co60 2.145 1_455 S
N95 C96 1.397 . S
N95 C97 1.330 . S
C96 H77 0.929 . S
C96 C93 1.388 . S
C96 N95 1.397 . S
C97 H78 0.925 1_455 S
C97 C94 1.412 . S
C97 N95 1.330 . S
C98 H90 0.930 . S
C98 C93 1.418 . S
C98 C94 1.353 . S
C99 H69 0.930 . S
C99 N100 1.330 . S
C99 C101 1.446 . S
N100 Co59 2.151 . S
N100 C99 1.330 . S
N100 C104 1.418 . S
C101 H80 0.929 . S
C101 C99 1.446 . S
C101 C102 1.332 . S
C102 H82 0.931 . S
C102 C101 1.332 . S
C102 C103 1.267 . S
C103 H71 0.929 . S
C103 C102 1.267 . S
C103 C104 1.251 . S
C104 H74 0.929 . S
C104 N100 1.418 . S
C104 C103 1.251 . S
C105 H72 0.930 . S
C105 C107 1.406 . S
C105 C110 1.261 . S
C106 H73 0.930 . S
C106 N108 1.325 . S
C106 C109 1.357 . S
C107 H75 0.928 . S
C107 C105 1.406 . S
C107 N108 1.261 . S
N108 Co59 2.214 . S
N108 C106 1.325 . S
N108 C107 1.261 . S
C109 H79 0.931 . S
C109 C106 1.357 . S
C109 C110 1.312 . S
C110 H81 0.930 . S
C110 C105 1.261 . S
C110 C109 1.312 . S
C111 O83 1.214 . S
C111 O91 1.234 . S
C112 H84 0.929 . S
C112 C115 1.391 . S
C112 C117 1.391 . S
C113 H85 0.929 . S
C113 C114 1.390 . S
C113 N116 1.391 . S
C114 H86 0.930 . S
C114 C113 1.390 . S
C114 C115 1.392 . S
C115 H87 0.929 . S
C115 C112 1.391 . S
C115 C114 1.392 . S
N116 Co60 2.257 . S
N116 C113 1.391 . S
N116 C117 1.388 . S
C117 H88 0.930 . S
C117 C112 1.391 . S
C117 N116 1.388 . S
Co118 O120 2.143 . S
Co118 O126 2.074 . S
Co118 O129 2.093 . S
Co118 O142 2.097 . S
Co118 N159 2.151 . S
Co118 N167 2.214 . S
Co119 O120 2.160 . S
Co119 O125 2.058 . S
Co119 O135 2.057 . S
Co119 O150 2.037 . S
Co119 N154 2.145 1_565 S
Co119 N175 2.257 . S
O120 Co118 2.143 . S
O120 Co119 2.160 . S
C121 O122 1.278 . S
C121 O129 1.224 . S
O122 C121 1.278 . S
C123 O124 1.245 . S
C123 O135 1.232 . S
O124 C123 1.245 . S
O125 Co119 2.058 . S
O125 C151 1.269 . S
O126 Co118 2.074 . S
O126 C151 1.257 . S
H127 C152 0.930 . S
H128 C158 0.930 . S
O129 Co118 2.093 . S
O129 C121 1.224 . S
H130 C162 0.929 . S
H131 C164 0.930 . S
H132 C165 0.930 . S
H133 C163 0.929 . S
H134 C166 0.928 . S
O135 Co119 2.057 . S
O135 C123 1.232 . S
H136 C155 0.929 . S
H137 C156 0.920 1_565 S
H138 C168 0.931 . S
H139 C160 0.929 . S
H140 C169 0.930 . S
H141 C161 0.931 1_554 S
O142 Co118 2.097 . S
O142 C170 1.214 . S
H143 C171 0.929 . S
H144 C172 0.929 . S
H145 C173 0.930 . S
H146 C174 0.929 . S
H147 C176 0.930 . S
H148 C153 0.930 . S
H149 C157 0.930 . S
O150 Co119 2.037 . S
O150 C170 1.234 . S
C151 O125 1.269 . S
C151 O126 1.257 . S
C152 H127 0.930 . S
C152 C155 1.388 . S
C152 C157 1.418 . S
C153 H148 0.930 . S
C153 C156 1.408 . S
C153 C157 1.353 . S
N154 Co119 2.145 1_545 S
N154 C155 1.397 . S
N154 C156 1.339 . S
C155 H136 0.929 . S
C155 C152 1.388 . S
C155 N154 1.397 . S
C156 H137 0.920 1_545 S
C156 C153 1.408 . S
C156 N154 1.339 . S
C157 H149 0.930 . S
C157 C152 1.418 . S
C157 C153 1.353 . S
C158 H128 0.930 . S
C158 N159 1.330 . S
C158 C160 1.446 . S
N159 Co118 2.151 . S
N159 C158 1.330 . S
N159 C163 1.418 . S
C160 H139 0.929 . S
C160 C158 1.446 . S
C160 C161 1.332 . S
C161 H141 0.931 1_556 S
C161 C160 1.332 . S
C161 C162 1.267 1_556 S
C162 H130 0.929 . S
C162 C161 1.267 1_554 S
C162 C163 1.251 1_554 S
C163 H133 0.929 . S
C163 N159 1.418 . S
C163 C162 1.251 1_556 S
C164 H131 0.930 . S
C164 C166 1.406 . S
C164 C169 1.261 . S
C165 H132 0.930 . S
C165 N167 1.325 . S
C165 C168 1.357 . S
C166 H134 0.928 . S
C166 C164 1.406 . S
C166 N167 1.261 . S
N167 Co118 2.214 . S
N167 C165 1.325 . S
N167 C166 1.261 . S
C168 H138 0.931 . S
C168 C165 1.357 . S
C168 C169 1.312 . S
C169 H140 0.930 . S
C169 C164 1.261 . S
C169 C168 1.312 . S
C170 O142 1.214 . S
C170 O150 1.234 . S
C171 H143 0.929 . S
C171 C174 1.391 . S
C171 C176 1.391 . S
C172 H144 0.929 . S
C172 C173 1.390 . S
C172 N175 1.391 . S
C173 H145 0.930 . S
C173 C172 1.390 . S
C173 C174 1.392 . S
C174 H146 0.929 . S
C174 C171 1.391 . S
C174 C173 1.392 . S
N175 Co119 2.257 . S
N175 C172 1.391 . S
N175 C176 1.388 . S
C176 H147 0.930 . S
C176 C171 1.391 . S
C176 N175 1.388 . S
Co177 O179 2.143 . S
Co177 O185 2.074 . S
Co177 O188 2.093 . S
Co177 O201 2.097 . S
Co177 N218 2.151 . S
Co177 N226 2.214 . S
Co178 O179 2.160 . S
Co178 O184 2.058 . S
Co178 O194 2.057 . S
Co178 O209 2.037 . S
Co178 N213 2.145 . S
Co178 N234 2.257 . S
O179 Co177 2.143 . S
O179 Co178 2.160 . S
C180 O181 1.278 . S
C180 O188 1.224 . S
O181 C180 1.278 . S
C182 O183 1.245 . S
C182 O194 1.232 . S
O183 C182 1.245 . S
O184 Co178 2.058 . S
O184 C210 1.269 . S
O185 Co177 2.074 . S
O185 C210 1.257 . S
H186 C211 0.930 . S
H187 C217 0.930 . S
O188 Co177 2.093 . S
O188 C180 1.224 . S
H189 C221 0.929 . S
H190 C223 0.930 . S
H191 C224 0.930 . S
H192 C222 0.929 . S
H193 C225 0.928 . S
O194 Co178 2.057 . S
O194 C182 1.232 . S
H195 C214 0.929 . S
H196 C215 0.929 . S
H197 C227 0.931 . S
H198 C219 0.929 . S
H199 C228 0.930 . S
H200 C220 0.931 . S
O201 Co177 2.097 . S
O201 C229 1.214 . S
H202 C230 0.929 . S
H203 C231 0.929 . S
H204 C232 0.930 . S
H205 C233 0.929 1_556 S
H206 C235 0.930 . S
H207 C212 0.930 . S
H208 C216 0.930 . S
O209 Co178 2.037 . S
O209 C229 1.234 . S
C210 O184 1.269 . S
C210 O185 1.257 . S
C211 H186 0.930 . S
C211 C214 1.388 . S
C211 C216 1.418 . S
C212 H207 0.930 . S
C212 C215 1.404 . S
C212 C216 1.353 . S
N213 Co178 2.145 . S
N213 C214 1.397 . S
N213 C215 1.334 . S
C214 H195 0.929 . S
C214 C211 1.388 . S
C214 N213 1.397 . S
C215 H196 0.929 . S
C215 C212 1.404 . S
C215 N213 1.334 . S
C216 H208 0.930 . S
C216 C211 1.418 . S
C216 C212 1.353 . S
C217 H187 0.930 . S
C217 N218 1.330 . S
C217 C219 1.446 . S
N218 Co177 2.151 . S
N218 C217 1.330 . S
N218 C222 1.418 . S
C219 H198 0.929 . S
C219 C217 1.446 . S
C219 C220 1.332 . S
C220 H200 0.931 . S
C220 C219 1.332 . S
C220 C221 1.267 . S
C221 H189 0.929 . S
C221 C220 1.267 . S
C221 C222 1.251 . S
C222 H192 0.929 . S
C222 N218 1.418 . S
C222 C221 1.251 . S
C223 H190 0.930 . S
C223 C225 1.406 . S
C223 C228 1.261 . S
C224 H191 0.930 . S
C224 N226 1.325 . S
C224 C227 1.357 . S
C225 H193 0.928 . S
C225 C223 1.406 . S
C225 N226 1.261 . S
N226 Co177 2.214 . S
N226 C224 1.325 . S
N226 C225 1.261 . S
C227 H197 0.931 . S
C227 C224 1.357 . S
C227 C228 1.312 . S
C228 H199 0.930 . S
C228 C223 1.261 . S
C228 C227 1.312 . S
C229 O201 1.214 . S
C229 O209 1.234 . S
C230 H202 0.929 . S
C230 C233 1.391 . S
C230 C235 1.391 . S
C231 H203 0.929 . S
C231 C232 1.390 . S
C231 N234 1.391 . S
C232 H204 0.930 . S
C232 C231 1.390 . S
C232 C233 1.392 . S
C233 H205 0.929 1_554 S
C233 C230 1.391 . S
C233 C232 1.392 . S
N234 Co178 2.257 . S
N234 C231 1.391 . S
N234 C235 1.388 . S
C235 H206 0.930 . S
C235 C230 1.391 . S
C235 N234 1.388 . S
Co236 O238 2.143 . S
Co236 O244 2.074 . S
Co236 O247 2.093 . S
Co236 O260 2.097 . S
Co236 N277 2.151 . S
Co236 N285 2.214 . S
Co237 O238 2.160 . S
Co237 O243 2.058 . S
Co237 O253 2.057 . S
Co237 O268 2.037 . S
Co237 N272 2.145 1_455 S
Co237 N293 2.257 . S
O238 Co236 2.143 . S
O238 Co237 2.160 . S
C239 O240 1.278 . S
C239 O247 1.224 . S
O240 C239 1.278 . S
C241 O242 1.245 . S
C241 O253 1.232 . S
O242 C241 1.245 . S
O243 Co237 2.058 . S
O243 C269 1.269 . S
O244 Co236 2.074 . S
O244 C269 1.257 . S
H245 C270 0.930 . S
H246 C276 0.930 . S
O247 Co236 2.093 . S
O247 C239 1.224 . S
H248 C280 0.929 . S
H249 C282 0.930 . S
H250 C283 0.930 . S
H251 C281 0.929 . S
H252 C284 0.928 . S
O253 Co237 2.057 . S
O253 C241 1.232 . S
H254 C273 0.929 . S
H255 C274 0.925 1_455 S
H256 C286 0.931 . S
H257 C278 0.929 . S
H258 C287 0.930 . S
H259 C279 0.931 . S
O260 Co236 2.097 . S
O260 C288 1.214 . S
H261 C289 0.929 . S
H262 C290 0.929 . S
H263 C291 0.930 . S
H264 C292 0.929 . S
H265 C294 0.930 . S
H266 C271 0.930 . S
H267 C275 0.930 . S
O268 Co237 2.037 . S
O268 C288 1.234 . S
C269 O243 1.269 . S
C269 O244 1.257 . S
C270 H245 0.930 . S
C270 C273 1.388 . S
C270 C275 1.418 . S
C271 H266 0.930 . S
C271 C274 1.412 . S
C271 C275 1.353 . S
N272 Co237 2.145 1_655 S
N272 C273 1.397 . S
N272 C274 1.330 . S
C273 H254 0.929 . S
C273 C270 1.388 . S
C273 N272 1.397 . S
C274 H255 0.925 1_655 S
C274 C271 1.412 . S
C274 N272 1.330 . S
C275 H267 0.930 . S
C275 C270 1.418 . S
C275 C271 1.353 . S
C276 H246 0.930 . S
C276 N277 1.330 . S
C276 C278 1.446 . S
N277 Co236 2.151 . S
N277 C276 1.330 . S
N277 C281 1.418 . S
C278 H257 0.929 . S
C278 C276 1.446 . S
C278 C279 1.332 . S
C279 H259 0.931 . S
C279 C278 1.332 . S
C279 C280 1.267 . S
C280 H248 0.929 . S
C280 C279 1.267 . S
C280 C281 1.251 . S
C281 H251 0.929 . S
C281 N277 1.418 . S
C281 C280 1.251 . S
C282 H249 0.930 . S
C282 C284 1.406 . S
C282 C287 1.261 . S
C283 H250 0.930 . S
C283 N285 1.325 . S
C283 C286 1.357 . S
C284 H252 0.928 . S
C284 C282 1.406 . S
C284 N285 1.261 . S
N285 Co236 2.214 . S
N285 C283 1.325 . S
N285 C284 1.261 . S
C286 H256 0.931 . S
C286 C283 1.357 . S
C286 C287 1.312 . S
C287 H258 0.930 . S
C287 C282 1.261 . S
C287 C286 1.312 . S
C288 O260 1.214 . S
C288 O268 1.234 . S
C289 H261 0.929 . S
C289 C292 1.391 . S
C289 C294 1.391 . S
C290 H262 0.929 . S
C290 C291 1.390 . S
C290 N293 1.391 . S
C291 H263 0.930 . S
C291 C290 1.390 . S
C291 C292 1.392 . S
C292 H264 0.929 . S
C292 C289 1.391 . S
C292 C291 1.392 . S
N293 Co237 2.257 . S
N293 C290 1.391 . S
N293 C294 1.388 . S
C294 H265 0.930 . S
C294 C289 1.391 . S
C294 N293 1.388 . S
Co295 O297 2.143 . S
Co295 O303 2.074 . S
Co295 O306 2.093 . S
Co295 O319 2.097 . S
Co295 N336 2.151 . S
Co295 N344 2.214 . S
Co296 O297 2.160 . S
Co296 O302 2.058 . S
Co296 O312 2.057 . S
Co296 O327 2.037 . S
Co296 N331 2.145 1_545 S
Co296 N352 2.257 . S
O297 Co295 2.143 . S
O297 Co296 2.160 . S
C298 O299 1.278 . S
C298 O306 1.224 . S
O299 C298 1.278 . S
C300 O301 1.245 . S
C300 O312 1.232 . S
O301 C300 1.245 . S
O302 Co296 2.058 . S
O302 C328 1.269 . S
O303 Co295 2.074 . S
O303 C328 1.257 . S
H304 C329 0.930 . S
H305 C335 0.930 . S
O306 Co295 2.093 . S
O306 C298 1.224 . S
H307 C339 0.929 . S
H308 C341 0.930 . S
H309 C342 0.930 . S
H310 C340 0.929 . S
H311 C343 0.928 . S
O312 Co296 2.057 . S
O312 C300 1.232 . S
H313 C332 0.929 . S
H314 C333 0.920 1_545 S
H315 C345 0.931 . S
H316 C337 0.929 . S
H317 C346 0.930 . S
H318 C338 0.931 1_554 S
O319 Co295 2.097 . S
O319 C347 1.214 . S
H320 C348 0.929 . S
H321 C349 0.929 . S
H322 C350 0.930 . S
H323 C351 0.929 . S
H324 C353 0.930 . S
H325 C330 0.930 . S
H326 C334 0.930 . S
O327 Co296 2.037 . S
O327 C347 1.234 . S
C328 O302 1.269 . S
C328 O303 1.257 . S
C329 H304 0.930 . S
C329 C332 1.388 . S
C329 C334 1.418 . S
C330 H325 0.930 . S
C330 C333 1.408 . S
C330 C334 1.353 . S
N331 Co296 2.145 1_565 S
N331 C332 1.397 . S
N331 C333 1.339 . S
C332 H313 0.929 . S
C332 C329 1.388 . S
C332 N331 1.397 . S
C333 H314 0.920 1_565 S
C333 C330 1.408 . S
C333 N331 1.339 . S
C334 H326 0.930 . S
C334 C329 1.418 . S
C334 C330 1.353 . S
C335 H305 0.930 . S
C335 N336 1.330 . S
C335 C337 1.446 . S
N336 Co295 2.151 . S
N336 C335 1.330 . S
N336 C340 1.418 . S
C337 H316 0.929 . S
C337 C335 1.446 . S
C337 C338 1.332 . S
C338 H318 0.931 1_556 S
C338 C337 1.332 . S
C338 C339 1.267 1_556 S
C339 H307 0.929 . S
C339 C338 1.267 1_554 S
C339 C340 1.251 1_554 S
C340 H310 0.929 . S
C340 N336 1.418 . S
C340 C339 1.251 1_556 S
C341 H308 0.930 . S
C341 C343 1.406 . S
C341 C346 1.261 . S
C342 H309 0.930 . S
C342 N344 1.325 . S
C342 C345 1.357 . S
C343 H311 0.928 . S
C343 C341 1.406 . S
C343 N344 1.261 . S
N344 Co295 2.214 . S
N344 C342 1.325 . S
N344 C343 1.261 . S
C345 H315 0.931 . S
C345 C342 1.357 . S
C345 C346 1.312 . S
C346 H317 0.930 . S
C346 C341 1.261 . S
C346 C345 1.312 . S
C347 O319 1.214 . S
C347 O327 1.234 . S
C348 H320 0.929 . S
C348 C351 1.391 . S
C348 C353 1.391 . S
C349 H321 0.929 . S
C349 C350 1.390 . S
C349 N352 1.391 . S
C350 H322 0.930 . S
C350 C349 1.390 . S
C350 C351 1.392 . S
C351 H323 0.929 . S
C351 C348 1.391 . S
C351 C350 1.392 . S
N352 Co296 2.257 . S
N352 C349 1.391 . S
N352 C353 1.388 . S
C353 H324 0.930 . S
C353 C348 1.391 . S
C353 N352 1.388 . S
Co354 O356 2.143 . S
Co354 O362 2.074 . S
Co354 O365 2.093 . S
Co354 O378 2.097 . S
Co354 N395 2.151 . S
Co354 N403 2.214 . S
Co355 O356 2.160 . S
Co355 O361 2.058 . S
Co355 O371 2.057 . S
Co355 O386 2.037 . S
Co355 N390 2.145 . S
Co355 N411 2.257 . S
O356 Co354 2.143 . S
O356 Co355 2.160 . S
C357 O358 1.278 . S
C357 O365 1.224 . S
O358 C357 1.278 . S
C359 O360 1.245 . S
C359 O371 1.232 . S
O360 C359 1.245 . S
O361 Co355 2.058 . S
O361 C387 1.269 . S
O362 Co354 2.074 . S
O362 C387 1.257 . S
H363 C388 0.930 . S
H364 C394 0.930 . S
O365 Co354 2.093 . S
O365 C357 1.224 . S
H366 C398 0.929 . S
H367 C400 0.930 . S
H368 C401 0.930 . S
H369 C399 0.929 . S
H370 C402 0.928 . S
O371 Co355 2.057 . S
O371 C359 1.232 . S
H372 C391 0.929 . S
H373 C392 0.929 . S
H374 C404 0.931 . S
H375 C396 0.929 . S
H376 C405 0.930 . S
H377 C397 0.931 . S
O378 Co354 2.097 . S
O378 C406 1.214 . S
H379 C407 0.929 . S
H380 C408 0.929 . S
H381 C409 0.930 . S
H382 C410 0.929 . S
H383 C412 0.930 . S
H384 C389 0.930 . S
H385 C393 0.930 . S
O386 Co355 2.037 . S
O386 C406 1.234 . S
C387 O361 1.269 . S
C387 O362 1.257 . S
C388 H363 0.930 . S
C388 C391 1.388 . S
C388 C393 1.418 . S
C389 H384 0.930 . S
C389 C392 1.404 . S
C389 C393 1.353 . S
N390 Co355 2.145 . S
N390 C391 1.397 . S
N390 C392 1.334 . S
C391 H372 0.929 . S
C391 C388 1.388 . S
C391 N390 1.397 . S
C392 H373 0.929 . S
C392 C389 1.404 . S
C392 N390 1.334 . S
C393 H385 0.930 . S
C393 C388 1.418 . S
C393 C389 1.353 . S
C394 H364 0.930 . S
C394 N395 1.330 . S
C394 C396 1.446 . S
N395 Co354 2.151 . S
N395 C394 1.330 . S
N395 C399 1.418 . S
C396 H375 0.929 . S
C396 C394 1.446 . S
C396 C397 1.332 . S
C397 H377 0.931 . S
C397 C396 1.332 . S
C397 C398 1.267 . S
C398 H366 0.929 . S
C398 C397 1.267 . S
C398 C399 1.251 . S
C399 H369 0.929 . S
C399 N395 1.418 . S
C399 C398 1.251 . S
C400 H367 0.930 . S
C400 C402 1.406 . S
C400 C405 1.261 . S
C401 H368 0.930 . S
C401 N403 1.325 . S
C401 C404 1.357 . S
C402 H370 0.928 . S
C402 C400 1.406 . S
C402 N403 1.261 . S
N403 Co354 2.214 . S
N403 C401 1.325 . S
N403 C402 1.261 . S
C404 H374 0.931 . S
C404 C401 1.357 . S
C404 C405 1.312 . S
C405 H376 0.930 . S
C405 C400 1.261 . S
C405 C404 1.312 . S
C406 O378 1.214 . S
C406 O386 1.234 . S
C407 H379 0.929 . S
C407 C410 1.391 . S
C407 C412 1.391 . S
C408 H380 0.929 . S
C408 C409 1.390 . S
C408 N411 1.391 . S
C409 H381 0.930 . S
C409 C408 1.390 . S
C409 C410 1.392 . S
C410 H382 0.929 . S
C410 C407 1.391 . S
C410 C409 1.392 . S
N411 Co355 2.257 . S
N411 C408 1.391 . S
N411 C412 1.388 . S
C412 H383 0.930 . S
C412 C407 1.391 . S
C412 N411 1.388 . S
Co413 O415 2.143 . S
Co413 O421 2.074 . S
Co413 O424 2.093 . S
Co413 O437 2.097 . S
Co413 N454 2.151 . S
Co413 N462 2.214 . S
Co414 O415 2.160 . S
Co414 O420 2.058 . S
Co414 O430 2.057 . S
Co414 O445 2.037 . S
Co414 N449 2.145 1_655 S
Co414 N470 2.257 . S
O415 Co413 2.143 . S
O415 Co414 2.160 . S
C416 O417 1.278 . S
C416 O424 1.224 . S
O417 C416 1.278 . S
C418 O419 1.245 . S
C418 O430 1.232 . S
O419 C418 1.245 . S
O420 Co414 2.058 . S
O420 C446 1.269 . S
O421 Co413 2.074 . S
O421 C446 1.257 . S
H422 C447 0.930 . S
H423 C453 0.930 . S
O424 Co413 2.093 . S
O424 C416 1.224 . S
H425 C457 0.929 . S
H426 C459 0.930 . S
H427 C460 0.930 . S
H428 C458 0.929 . S
H429 C461 0.928 . S
O430 Co414 2.057 . S
O430 C418 1.232 . S
H431 C450 0.929 . S
H432 C451 0.920 1_655 S
H433 C463 0.931 . S
H434 C455 0.929 . S
H435 C464 0.930 . S
H436 C456 0.931 . S
O437 Co413 2.097 . S
O437 C465 1.214 . S
H438 C466 0.929 . S
H439 C467 0.929 . S
H440 C468 0.930 . S
H441 C469 0.929 1_554 S
H442 C471 0.930 . S
H443 C448 0.930 . S
H444 C452 0.930 . S
O445 Co414 2.037 . S
O445 C465 1.234 . S
C446 O420 1.269 . S
C446 O421 1.257 . S
C447 H422 0.930 . S
C447 C450 1.388 . S
C447 C452 1.418 . S
C448 H443 0.930 . S
C448 C451 1.408 . S
C448 C452 1.353 . S
N449 Co414 2.145 1_455 S
N449 C450 1.397 . S
N449 C451 1.339 . S
C450 H431 0.929 . S
C450 C447 1.388 . S
C450 N449 1.397 . S
C451 H432 0.920 1_455 S
C451 C448 1.408 . S
C451 N449 1.339 . S
C452 H444 0.930 . S
C452 C447 1.418 . S
C452 C448 1.353 . S
C453 H423 0.930 . S
C453 N454 1.330 . S
C453 C455 1.446 . S
N454 Co413 2.151 . S
N454 C453 1.330 . S
N454 C458 1.418 . S
C455 H434 0.929 . S
C455 C453 1.446 . S
C455 C456 1.332 . S
C456 H436 0.931 . S
C456 C455 1.332 . S
C456 C457 1.267 . S
C457 H425 0.929 . S
C457 C456 1.267 . S
C457 C458 1.251 . S
C458 H428 0.929 . S
C458 N454 1.418 . S
C458 C457 1.251 . S
C459 H426 0.930 . S
C459 C461 1.406 . S
C459 C464 1.261 . S
C460 H427 0.930 . S
C460 N462 1.325 . S
C460 C463 1.357 . S
C461 H429 0.928 . S
C461 C459 1.406 . S
C461 N462 1.261 . S
N462 Co413 2.214 . S
N462 C460 1.325 . S
N462 C461 1.261 . S
C463 H433 0.931 . S
C463 C460 1.357 . S
C463 C464 1.312 . S
C464 H435 0.930 . S
C464 C459 1.261 . S
C464 C463 1.312 . S
C465 O437 1.214 . S
C465 O445 1.234 . S
C466 H438 0.929 . S
C466 C469 1.391 . S
C466 C471 1.391 . S
C467 H439 0.929 . S
C467 C468 1.390 . S
C467 N470 1.391 . S
C468 H440 0.930 . S
C468 C467 1.390 . S
C468 C469 1.392 . S
C469 H441 0.929 1_556 S
C469 C466 1.391 . S
C469 C468 1.392 . S
N470 Co414 2.257 . S
N470 C467 1.391 . S
N470 C471 1.388 . S
C471 H442 0.930 . S
C471 C466 1.391 . S
C471 N470 1.388 . S
Co472 O474 2.143 . S
Co472 O480 2.074 . S
Co472 O483 2.093 . S
Co472 O496 2.097 . S
Co472 N513 2.151 . S
Co472 N521 2.214 . S
Co473 O474 2.160 . S
Co473 O479 2.058 . S
Co473 O489 2.057 . S
Co473 O504 2.037 . S
Co473 N508 2.145 1_565 S
Co473 N529 2.257 . S
O474 Co472 2.143 . S
O474 Co473 2.160 . S
C475 O476 1.278 . S
C475 O483 1.224 . S
O476 C475 1.278 . S
C477 O478 1.245 . S
C477 O489 1.232 . S
O478 C477 1.245 . S
O479 Co473 2.058 . S
O479 C505 1.269 . S
O480 Co472 2.074 . S
O480 C505 1.257 . S
H481 C506 0.930 . S
H482 C512 0.930 . S
O483 Co472 2.093 . S
O483 C475 1.224 . S
H484 C516 0.929 . S
H485 C518 0.930 . S
H486 C519 0.930 . S
H487 C517 0.929 . S
H488 C520 0.928 . S
O489 Co473 2.057 . S
O489 C477 1.232 . S
H490 C509 0.929 . S
H491 C510 0.925 1_565 S
H492 C522 0.931 . S
H493 C514 0.929 . S
H494 C523 0.930 . S
H495 C515 0.931 1_556 S
O496 Co472 2.097 . S
O496 C524 1.214 . S
H497 C525 0.929 . S
H498 C526 0.929 . S
H499 C527 0.930 . S
H500 C528 0.929 . S
H501 C530 0.930 . S
H502 C507 0.930 . S
H503 C511 0.930 . S
O504 Co473 2.037 . S
O504 C524 1.234 . S
C505 O479 1.269 . S
C505 O480 1.257 . S
C506 H481 0.930 . S
C506 C509 1.388 . S
C506 C511 1.418 . S
C507 H502 0.930 . S
C507 C510 1.412 . S
C507 C511 1.353 . S
N508 Co473 2.145 1_545 S
N508 C509 1.397 . S
N508 C510 1.330 . S
C509 H490 0.929 . S
C509 C506 1.388 . S
C509 N508 1.397 . S
C510 H491 0.925 1_545 S
C510 C507 1.412 . S
C510 N508 1.330 . S
C511 H503 0.930 . S
C511 C506 1.418 . S
C511 C507 1.353 . S
C512 H482 0.930 . S
C512 N513 1.330 . S
C512 C514 1.446 . S
N513 Co472 2.151 . S
N513 C512 1.330 . S
N513 C517 1.418 . S
C514 H493 0.929 . S
C514 C512 1.446 . S
C514 C515 1.332 . S
C515 H495 0.931 1_554 S
C515 C514 1.332 . S
C515 C516 1.267 1_554 S
C516 H484 0.929 . S
C516 C515 1.267 1_556 S
C516 C517 1.251 1_556 S
C517 H487 0.929 . S
C517 N513 1.418 . S
C517 C516 1.251 1_554 S
C518 H485 0.930 . S
C518 C520 1.406 . S
C518 C523 1.261 . S
C519 H486 0.930 . S
C519 N521 1.325 . S
C519 C522 1.357 . S
C520 H488 0.928 . S
C520 C518 1.406 . S
C520 N521 1.261 . S
N521 Co472 2.214 . S
N521 C519 1.325 . S
N521 C520 1.261 . S
C522 H492 0.931 . S
C522 C519 1.357 . S
C522 C523 1.312 . S
C523 H494 0.930 . S
C523 C518 1.261 . S
C523 C522 1.312 . S
C524 O496 1.214 . S
C524 O504 1.234 . S
C525 H497 0.929 . S
C525 C528 1.391 . S
C525 C530 1.391 . S
C526 H498 0.929 . S
C526 C527 1.390 . S
C526 N529 1.391 . S
C527 H499 0.930 . S
C527 C526 1.390 . S
C527 C528 1.392 . S
C528 H500 0.929 . S
C528 C525 1.391 . S
C528 C527 1.392 . S
N529 Co473 2.257 . S
N529 C526 1.391 . S
N529 C530 1.388 . S
C530 H501 0.930 . S
C530 C525 1.391 . S
C530 N529 1.388 . S
Co531 O533 2.143 . S
Co531 O539 2.074 . S
Co531 O542 2.093 . S
Co531 O555 2.097 . S
Co531 N572 2.151 . S
Co531 N580 2.214 . S
Co532 O533 2.160 . S
Co532 O538 2.058 . S
Co532 O548 2.057 . S
Co532 O563 2.037 . S
Co532 N567 2.145 . S
Co532 N588 2.257 . S
O533 Co531 2.143 . S
O533 Co532 2.160 . S
C534 O535 1.278 . S
C534 O542 1.224 . S
O535 C534 1.278 . S
C536 O537 1.245 . S
C536 O548 1.232 . S
O537 C536 1.245 . S
O538 Co532 2.058 . S
O538 C564 1.269 . S
O539 Co531 2.074 . S
O539 C564 1.257 . S
H540 C565 0.930 . S
H541 C571 0.930 . S
O542 Co531 2.093 . S
O542 C534 1.224 . S
H543 C575 0.929 . S
H544 C577 0.930 . S
H545 C578 0.930 . S
H546 C576 0.929 . S
H547 C579 0.928 . S
O548 Co532 2.057 . S
O548 C536 1.232 . S
H549 C568 0.929 . S
H550 C569 0.929 . S
H551 C581 0.931 . S
H552 C573 0.929 . S
H553 C582 0.930 . S
H554 C574 0.931 . S
O555 Co531 2.097 . S
O555 C583 1.214 . S
H556 C584 0.929 . S
H557 C585 0.929 . S
H558 C586 0.930 . S
H559 C587 0.929 . S
H560 C589 0.930 . S
H561 C566 0.930 . S
H562 C570 0.930 . S
O563 Co532 2.037 . S
O563 C583 1.234 . S
C564 O538 1.269 . S
C564 O539 1.257 . S
C565 H540 0.930 . S
C565 C568 1.388 . S
C565 C570 1.418 . S
C566 H561 0.930 . S
C566 C569 1.404 . S
C566 C570 1.353 . S
N567 Co532 2.145 . S
N567 C568 1.397 . S
N567 C569 1.334 . S
C568 H549 0.929 . S
C568 C565 1.388 . S
C568 N567 1.397 . S
C569 H550 0.929 . S
C569 C566 1.404 . S
C569 N567 1.334 . S
C570 H562 0.930 . S
C570 C565 1.418 . S
C570 C566 1.353 . S
C571 H541 0.930 . S
C571 N572 1.330 . S
C571 C573 1.446 . S
N572 Co531 2.151 . S
N572 C571 1.330 . S
N572 C576 1.418 . S
C573 H552 0.929 . S
C573 C571 1.446 . S
C573 C574 1.332 . S
C574 H554 0.931 . S
C574 C573 1.332 . S
C574 C575 1.267 . S
C575 H543 0.929 . S
C575 C574 1.267 . S
C575 C576 1.251 . S
C576 H546 0.929 . S
C576 N572 1.418 . S
C576 C575 1.251 . S
C577 H544 0.930 . S
C577 C579 1.406 . S
C577 C582 1.261 . S
C578 H545 0.930 . S
C578 N580 1.325 . S
C578 C581 1.357 . S
C579 H547 0.928 . S
C579 C577 1.406 . S
C579 N580 1.261 . S
N580 Co531 2.214 . S
N580 C578 1.325 . S
N580 C579 1.261 . S
C581 H551 0.931 . S
C581 C578 1.357 . S
C581 C582 1.312 . S
C582 H553 0.930 . S
C582 C577 1.261 . S
C582 C581 1.312 . S
C583 O555 1.214 . S
C583 O563 1.234 . S
C584 H556 0.929 . S
C584 C587 1.391 . S
C584 C589 1.391 . S
C585 H557 0.929 . S
C585 C586 1.390 . S
C585 N588 1.391 . S
C586 H558 0.930 . S
C586 C585 1.390 . S
C586 C587 1.392 . S
C587 H559 0.929 . S
C587 C584 1.391 . S
C587 C586 1.392 . S
N588 Co532 2.257 . S
N588 C585 1.391 . S
N588 C589 1.388 . S
C589 H560 0.930 . S
C589 C584 1.391 . S
C589 N588 1.388 . S
Co590 O592 2.143 . S
Co590 O598 2.074 . S
Co590 O601 2.093 . S
Co590 O614 2.097 . S
Co590 N631 2.151 . S
Co590 N639 2.214 . S
Co591 O592 2.160 . S
Co591 O597 2.058 . S
Co591 O607 2.057 . S
Co591 O622 2.037 . S
Co591 N626 2.145 1_455 S
Co591 N647 2.257 . S
O592 Co590 2.143 . S
O592 Co591 2.160 . S
C593 O594 1.278 . S
C593 O601 1.224 . S
O594 C593 1.278 . S
C595 O596 1.245 . S
C595 O607 1.232 . S
O596 C595 1.245 . S
O597 Co591 2.058 . S
O597 C623 1.269 . S
O598 Co590 2.074 . S
O598 C623 1.257 . S
H599 C624 0.930 . S
H600 C630 0.930 . S
O601 Co590 2.093 . S
O601 C593 1.224 . S
H602 C634 0.929 . S
H603 C636 0.930 . S
H604 C637 0.930 . S
H605 C635 0.929 . S
H606 C638 0.928 . S
O607 Co591 2.057 . S
O607 C595 1.232 . S
H608 C627 0.929 . S
H609 C628 0.920 1_455 S
H610 C640 0.931 . S
H611 C632 0.929 . S
H612 C641 0.930 . S
H613 C633 0.931 . S
O614 Co590 2.097 . S
O614 C642 1.214 . S
H615 C643 0.929 . S
H616 C644 0.929 . S
H617 C645 0.930 . S
H618 C646 0.929 1_554 S
H619 C648 0.930 . S
H620 C625 0.930 . S
H621 C629 0.930 . S
O622 Co591 2.037 . S
O622 C642 1.234 . S
C623 O597 1.269 . S
C623 O598 1.257 . S
C624 H599 0.930 . S
C624 C627 1.388 . S
C624 C629 1.418 . S
C625 H620 0.930 . S
C625 C628 1.408 . S
C625 C629 1.353 . S
N626 Co591 2.145 1_655 S
N626 C627 1.397 . S
N626 C628 1.339 . S
C627 H608 0.929 . S
C627 C624 1.388 . S
C627 N626 1.397 . S
C628 H609 0.920 1_655 S
C628 C625 1.408 . S
C628 N626 1.339 . S
C629 H621 0.930 . S
C629 C624 1.418 . S
C629 C625 1.353 . S
C630 H600 0.930 . S
C630 N631 1.330 . S
C630 C632 1.446 . S
N631 Co590 2.151 . S
N631 C630 1.330 . S
N631 C635 1.418 . S
C632 H611 0.929 . S
C632 C630 1.446 . S
C632 C633 1.332 . S
C633 H613 0.931 . S
C633 C632 1.332 . S
C633 C634 1.267 . S
C634 H602 0.929 . S
C634 C633 1.267 . S
C634 C635 1.251 . S
C635 H605 0.929 . S
C635 N631 1.418 . S
C635 C634 1.251 . S
C636 H603 0.930 . S
C636 C638 1.406 . S
C636 C641 1.261 . S
C637 H604 0.930 . S
C637 N639 1.325 . S
C637 C640 1.357 . S
C638 H606 0.928 . S
C638 C636 1.406 . S
C638 N639 1.261 . S
N639 Co590 2.214 . S
N639 C637 1.325 . S
N639 C638 1.261 . S
C640 H610 0.931 . S
C640 C637 1.357 . S
C640 C641 1.312 . S
C641 H612 0.930 . S
C641 C636 1.261 . S
C641 C640 1.312 . S
C642 O614 1.214 . S
C642 O622 1.234 . S
C643 H615 0.929 . S
C643 C646 1.391 . S
C643 C648 1.391 . S
C644 H616 0.929 . S
C644 C645 1.390 . S
C644 N647 1.391 . S
C645 H617 0.930 . S
C645 C644 1.390 . S
C645 C646 1.392 . S
C646 H618 0.929 1_556 S
C646 C643 1.391 . S
C646 C645 1.392 . S
N647 Co591 2.257 . S
N647 C644 1.391 . S
N647 C648 1.388 . S
C648 H619 0.930 . S
C648 C643 1.391 . S
C648 N647 1.388 . S
Co649 O651 2.143 . S
Co649 O657 2.074 . S
Co649 O660 2.093 . S
Co649 O673 2.097 . S
Co649 N690 2.151 . S
Co649 N698 2.214 . S
Co650 O651 2.160 . S
Co650 O656 2.058 . S
Co650 O666 2.057 . S
Co650 O681 2.037 . S
Co650 N685 2.145 1_545 S
Co650 N706 2.257 . S
O651 Co649 2.143 . S
O651 Co650 2.160 . S
C652 O653 1.278 . S
C652 O660 1.224 . S
O653 C652 1.278 . S
C654 O655 1.245 . S
C654 O666 1.232 . S
O655 C654 1.245 . S
O656 Co650 2.058 . S
O656 C682 1.269 . S
O657 Co649 2.074 . S
O657 C682 1.257 . S
H658 C683 0.930 . S
H659 C689 0.930 . S
O660 Co649 2.093 . S
O660 C652 1.224 . S
H661 C693 0.929 . S
H662 C695 0.930 . S
H663 C696 0.930 . S
H664 C694 0.929 . S
H665 C697 0.928 . S
O666 Co650 2.057 . S
O666 C654 1.232 . S
H667 C686 0.929 . S
H668 C687 0.925 1_545 S
H669 C699 0.931 . S
H670 C691 0.929 . S
H671 C700 0.930 . S
H672 C692 0.931 1_556 S
O673 Co649 2.097 . S
O673 C701 1.214 . S
H674 C702 0.929 . S
H675 C703 0.929 . S
H676 C704 0.930 . S
H677 C705 0.929 . S
H678 C707 0.930 . S
H679 C684 0.930 . S
H680 C688 0.930 . S
O681 Co650 2.037 . S
O681 C701 1.234 . S
C682 O656 1.269 . S
C682 O657 1.257 . S
C683 H658 0.930 . S
C683 C686 1.388 . S
C683 C688 1.418 . S
C684 H679 0.930 . S
C684 C687 1.412 . S
C684 C688 1.353 . S
N685 Co650 2.145 1_565 S
N685 C686 1.397 . S
N685 C687 1.330 . S
C686 H667 0.929 . S
C686 C683 1.388 . S
C686 N685 1.397 . S
C687 H668 0.925 1_565 S
C687 C684 1.412 . S
C687 N685 1.330 . S
C688 H680 0.930 . S
C688 C683 1.418 . S
C688 C684 1.353 . S
C689 H659 0.930 . S
C689 N690 1.330 . S
C689 C691 1.446 . S
N690 Co649 2.151 . S
N690 C689 1.330 . S
N690 C694 1.418 . S
C691 H670 0.929 . S
C691 C689 1.446 . S
C691 C692 1.332 . S
C692 H672 0.931 1_554 S
C692 C691 1.332 . S
C692 C693 1.267 1_554 S
C693 H661 0.929 . S
C693 C692 1.267 1_556 S
C693 C694 1.251 1_556 S
C694 H664 0.929 . S
C694 N690 1.418 . S
C694 C693 1.251 1_554 S
C695 H662 0.930 . S
C695 C697 1.406 . S
C695 C700 1.261 . S
C696 H663 0.930 . S
C696 N698 1.325 . S
C696 C699 1.357 . S
C697 H665 0.928 . S
C697 C695 1.406 . S
C697 N698 1.261 . S
N698 Co649 2.214 . S
N698 C696 1.325 . S
N698 C697 1.261 . S
C699 H669 0.931 . S
C699 C696 1.357 . S
C699 C700 1.312 . S
C700 H671 0.930 . S
C700 C695 1.261 . S
C700 C699 1.312 . S
C701 O673 1.214 . S
C701 O681 1.234 . S
C702 H674 0.929 . S
C702 C705 1.391 . S
C702 C707 1.391 . S
C703 H675 0.929 . S
C703 C704 1.390 . S
C703 N706 1.391 . S
C704 H676 0.930 . S
C704 C703 1.390 . S
C704 C705 1.392 . S
C705 H677 0.929 . S
C705 C702 1.391 . S
C705 C704 1.392 . S
N706 Co650 2.257 . S
N706 C703 1.391 . S
N706 C707 1.388 . S
C707 H678 0.930 . S
C707 C702 1.391 . S
C707 N706 1.388 . S
C708 C709 1.363 . S
C708 C714 1.379 . S
C708 N716 1.356 . S
C709 C708 1.363 . S
C709 C715 1.363 . S
C710 C711 1.363 . S
C710 C715 1.379 . S
C710 N717 1.356 . S
C711 C710 1.363 . S
C711 C714 1.363 . S
N712 C714 1.356 . S
N712 H724 0.984 . S
N712 H725 0.985 . S
N713 C715 1.356 . S
N713 H718 0.984 . S
N713 H719 0.985 . S
C714 C708 1.379 . S
C714 C711 1.363 . S
C714 N712 1.356 . S
C715 C709 1.363 . S
C715 C710 1.379 . S
C715 N713 1.356 . S
N716 C708 1.356 . S
N716 H722 0.984 . S
N716 H723 0.984 . S
N717 C710 1.356 . S
N717 H720 0.984 . S
N717 H721 0.985 . S
H718 N713 0.984 . S
H719 N713 0.985 . S
H720 N717 0.984 . S
H721 N717 0.985 . S
H722 N716 0.984 . S
H723 N716 0.984 . S
H724 N712 0.984 . S
H725 N712 0.985 . S
C726 C727 1.363 . S
C726 C732 1.379 . S
C726 N734 1.356 . S
C727 C726 1.363 . S
C727 C733 1.363 . S
C728 C729 1.363 . S
C728 C733 1.379 . S
C728 N735 1.356 . S
C729 C728 1.363 . S
C729 C732 1.363 . S
N730 C732 1.356 . S
N730 H742 0.984 . S
N730 H743 0.985 . S
N731 C733 1.356 . S
N731 H736 0.984 . S
N731 H737 0.985 . S
C732 C726 1.379 . S
C732 C729 1.363 . S
C732 N730 1.356 . S
C733 C727 1.363 . S
C733 C728 1.379 . S
C733 N731 1.356 . S
N734 C726 1.356 . S
N734 H740 0.984 . S
N734 H741 0.984 . S
N735 C728 1.356 . S
N735 H738 0.984 . S
N735 H739 0.985 . S
H736 N731 0.984 . S
H737 N731 0.985 . S
H738 N735 0.984 . S
H739 N735 0.985 . S
H740 N734 0.984 . S
H741 N734 0.984 . S
H742 N730 0.984 . S
H743 N730 0.985 . S
C744 C745 1.363 . S
C744 C750 1.379 . S
C744 N752 1.356 . S
C745 C744 1.363 . S
C745 C751 1.363 . S
C746 C747 1.363 . S
C746 C751 1.379 . S
C746 N753 1.356 . S
C747 C746 1.363 . S
C747 C750 1.363 . S
N748 C750 1.356 . S
N748 H760 0.984 . S
N748 H761 0.985 . S
N749 C751 1.356 . S
N749 H754 0.984 . S
N749 H755 0.985 . S
C750 C744 1.379 . S
C750 C747 1.363 . S
C750 N748 1.356 . S
C751 C745 1.363 . S
C751 C746 1.379 . S
C751 N749 1.356 . S
N752 C744 1.356 . S
N752 H758 0.984 . S
N752 H759 0.984 . S
N753 C746 1.356 . S
N753 H756 0.984 . S
N753 H757 0.985 . S
H754 N749 0.984 . S
H755 N749 0.985 . S
H756 N753 0.984 . S
H757 N753 0.985 . S
H758 N752 0.984 . S
H759 N752 0.984 . S
H760 N748 0.984 . S
H761 N748 0.985 . S
C762 C763 1.363 . S
C762 C768 1.379 . S
C762 N770 1.356 . S
C763 C762 1.363 . S
C763 C769 1.363 . S
C764 C765 1.363 . S
C764 C769 1.379 . S
C764 N771 1.356 . S
C765 C764 1.363 . S
C765 C768 1.363 . S
N766 C768 1.356 . S
N766 H778 0.984 . S
N766 H779 0.985 . S
N767 C769 1.356 . S
N767 H772 0.984 . S
N767 H773 0.985 . S
C768 C762 1.379 . S
C768 C765 1.363 . S
C768 N766 1.356 . S
C769 C763 1.363 . S
C769 C764 1.379 . S
C769 N767 1.356 . S
N770 C762 1.356 . S
N770 H776 0.984 . S
N770 H777 0.984 . S
N771 C764 1.356 . S
N771 H774 0.984 . S
N771 H775 0.985 . S
H772 N767 0.984 . S
H773 N767 0.985 . S
H774 N771 0.984 . S
H775 N771 0.985 . S
H776 N770 0.984 . S
H777 N770 0.984 . S
H778 N766 0.984 . S
H779 N766 0.985 . S
C780 C781 1.363 . S
C780 C786 1.379 . S
C780 N788 1.356 . S
C781 C780 1.363 . S
C781 C787 1.363 . S
C782 C783 1.363 . S
C782 C787 1.379 . S
C782 N789 1.356 . S
C783 C782 1.363 . S
C783 C786 1.363 . S
N784 C786 1.356 . S
N784 H796 0.984 . S
N784 H797 0.985 . S
N785 C787 1.356 . S
N785 H790 0.984 . S
N785 H791 0.985 . S
C786 C780 1.379 . S
C786 C783 1.363 . S
C786 N784 1.356 . S
C787 C781 1.363 . S
C787 C782 1.379 . S
C787 N785 1.356 . S
N788 C780 1.356 . S
N788 H794 0.984 . S
N788 H795 0.984 . S
N789 C782 1.356 . S
N789 H792 0.984 . S
N789 H793 0.985 . S
H790 N785 0.984 . S
H791 N785 0.985 . S
H792 N789 0.984 . S
H793 N789 0.985 . S
H794 N788 0.984 . S
H795 N788 0.984 . S
H796 N784 0.984 . S
H797 N784 0.985 . S
C798 C799 1.363 . S
C798 C804 1.379 . S
C798 N806 1.356 . S
C799 C798 1.363 . S
C799 C805 1.363 . S
C800 C801 1.363 . S
C800 C805 1.379 . S
C800 N807 1.356 . S
C801 C800 1.363 . S
C801 C804 1.363 . S
N802 C804 1.356 . S
N802 H814 0.984 . S
N802 H815 0.985 . S
N803 C805 1.356 . S
N803 H808 0.984 . S
N803 H809 0.985 . S
C804 C798 1.379 . S
C804 C801 1.363 . S
C804 N802 1.356 . S
C805 C799 1.363 . S
C805 C800 1.379 . S
C805 N803 1.356 . S
N806 C798 1.356 . S
N806 H812 0.984 . S
N806 H813 0.984 . S
N807 C800 1.356 . S
N807 H810 0.984 . S
N807 H811 0.985 . S
H808 N803 0.984 . S
H809 N803 0.985 . S
H810 N807 0.984 . S
H811 N807 0.985 . S
H812 N806 0.984 . S
H813 N806 0.984 . S
H814 N802 0.984 . S
H815 N802 0.985 . S
C816 C817 1.363 . S
C816 C822 1.379 . S
C816 N824 1.356 . S
C817 C816 1.363 . S
C817 C823 1.363 . S
C818 C819 1.363 . S
C818 C823 1.379 . S
C818 N825 1.356 . S
C819 C818 1.363 . S
C819 C822 1.363 . S
N820 C822 1.356 . S
N820 H832 0.984 . S
N820 H833 0.985 . S
N821 C823 1.356 . S
N821 H826 0.984 . S
N821 H827 0.985 . S
C822 C816 1.379 . S
C822 C819 1.363 . S
C822 N820 1.356 . S
C823 C817 1.363 . S
C823 C818 1.379 . S
C823 N821 1.356 . S
N824 C816 1.356 . S
N824 H830 0.984 . S
N824 H831 0.984 . S
N825 C818 1.356 . S
N825 H828 0.984 . S
N825 H829 0.985 . S
H826 N821 0.984 . S
H827 N821 0.985 . S
H828 N825 0.984 . S
H829 N825 0.985 . S
H830 N824 0.984 . S
H831 N824 0.984 . S
H832 N820 0.984 . S
H833 N820 0.985 . S
C834 C835 1.363 1_655 S
C834 C840 1.379 . S
C834 N842 1.356 . S
C835 C834 1.363 1_455 S
C835 C841 1.363 . S
C836 C837 1.363 1_455 S
C836 C841 1.379 . S
C836 N843 1.356 . S
C837 C836 1.363 1_655 S
C837 C840 1.363 . S
N838 C840 1.356 . S
N838 H850 0.984 . S
N838 H851 0.985 . S
N839 C841 1.356 . S
N839 H844 0.984 . S
N839 H845 0.985 . S
C840 C834 1.379 . S
C840 C837 1.363 . S
C840 N838 1.356 . S
C841 C835 1.363 . S
C841 C836 1.379 . S
C841 N839 1.356 . S
N842 C834 1.356 . S
N842 H848 0.984 . S
N842 H849 0.984 . S
N843 C836 1.356 . S
N843 H846 0.984 . S
N843 H847 0.985 . S
H844 N839 0.984 . S
H845 N839 0.985 . S
H846 N843 0.984 . S
H847 N843 0.985 . S
H848 N842 0.984 . S
H849 N842 0.984 . S
H850 N838 0.984 . S
H851 N838 0.985 . S
C852 C853 1.363 1_565 S
C852 C858 1.379 . S
C852 N860 1.356 . S
C853 C852 1.363 1_545 S
C853 C859 1.363 . S
C854 C855 1.363 1_545 S
C854 C859 1.379 . S
C854 N861 1.356 . S
C855 C854 1.363 1_565 S
C855 C858 1.363 . S
N856 C858 1.356 . S
N856 H868 0.984 . S
N856 H869 0.985 . S
N857 C859 1.356 . S
N857 H862 0.984 . S
N857 H863 0.985 . S
C858 C852 1.379 . S
C858 C855 1.363 . S
C858 N856 1.356 . S
C859 C853 1.363 . S
C859 C854 1.379 . S
C859 N857 1.356 . S
N860 C852 1.356 . S
N860 H866 0.984 . S
N860 H867 0.984 . S
N861 C854 1.356 . S
N861 H864 0.984 . S
N861 H865 0.985 . S
H862 N857 0.984 . S
H863 N857 0.985 . S
H864 N861 0.984 . S
H865 N861 0.985 . S
H866 N860 0.984 . S
H867 N860 0.984 . S
H868 N856 0.984 . S
H869 N856 0.985 . S
C870 C871 1.363 . S
C870 C876 1.379 . S
C870 N878 1.356 . S
C871 C870 1.363 . S
C871 C877 1.363 . S
C872 C873 1.363 . S
C872 C877 1.379 . S
C872 N879 1.356 . S
C873 C872 1.363 . S
C873 C876 1.363 . S
N874 C876 1.356 . S
N874 H886 0.984 . S
N874 H887 0.985 . S
N875 C877 1.356 . S
N875 H880 0.984 . S
N875 H881 0.985 . S
C876 C870 1.379 . S
C876 C873 1.363 . S
C876 N874 1.356 . S
C877 C871 1.363 . S
C877 C872 1.379 . S
C877 N875 1.356 . S
N878 C870 1.356 . S
N878 H884 0.984 . S
N878 H885 0.984 . S
N879 C872 1.356 . S
N879 H882 0.984 . S
N879 H883 0.985 . S
H880 N875 0.984 . S
H881 N875 0.985 . S
H882 N879 0.984 . S
H883 N879 0.985 . S
H884 N878 0.984 . S
H885 N878 0.984 . S
H886 N874 0.984 . S
H887 N874 0.985 . S
C888 C889 1.363 . S
C888 C894 1.379 . S
C888 N896 1.356 . S
C889 C888 1.363 . S
C889 C895 1.363 1_655 S
C890 C891 1.363 . S
C890 C895 1.379 . S
C890 N897 1.356 . S
C891 C890 1.363 . S
C891 C894 1.363 1_455 S
N892 C894 1.356 . S
N892 H904 0.984 . S
N892 H905 0.985 . S
N893 C895 1.356 . S
N893 H898 0.984 . S
N893 H899 0.985 . S
C894 C888 1.379 . S
C894 C891 1.363 1_655 S
C894 N892 1.356 . S
C895 C889 1.363 1_455 S
C895 C890 1.379 . S
C895 N893 1.356 . S
N896 C888 1.356 . S
N896 H902 0.984 . S
N896 H903 0.984 . S
N897 C890 1.356 . S
N897 H900 0.984 . S
N897 H901 0.985 . S
H898 N893 0.984 . S
H899 N893 0.985 . S
H900 N897 0.984 . S
H901 N897 0.985 . S
H902 N896 0.984 . S
H903 N896 0.984 . S
H904 N892 0.984 . S
H905 N892 0.985 . S
C906 C907 1.363 . S
C906 C912 1.379 . S
C906 N914 1.356 . S
C907 C906 1.363 . S
C907 C913 1.363 1_565 S
C908 C909 1.363 . S
C908 C913 1.379 . S
C908 N915 1.356 . S
C909 C908 1.363 . S
C909 C912 1.363 1_545 S
N910 C912 1.356 . S
N910 H922 0.984 . S
N910 H923 0.985 . S
N911 C913 1.356 . S
N911 H916 0.984 . S
N911 H917 0.985 . S
C912 C906 1.379 . S
C912 C909 1.363 1_565 S
C912 N910 1.356 . S
C913 C907 1.363 1_545 S
C913 C908 1.379 . S
C913 N911 1.356 . S
N914 C906 1.356 . S
N914 H920 0.984 . S
N914 H921 0.984 . S
N915 C908 1.356 . S
N915 H918 0.984 . S
N915 H919 0.985 . S
H916 N911 0.984 . S
H917 N911 0.985 . S
H918 N915 0.984 . S
H919 N915 0.985 . S
H920 N914 0.984 . S
H921 N914 0.984 . S
H922 N910 0.984 . S
H923 N910 0.985 . S
C924 C925 1.363 . S
C924 C930 1.379 . S
C924 N932 1.356 . S
C925 C924 1.363 . S
C925 C931 1.363 . S
C926 C927 1.363 . S
C926 C931 1.379 . S
C926 N933 1.356 . S
C927 C926 1.363 . S
C927 C930 1.363 . S
N928 C930 1.356 . S
N928 H940 0.984 . S
N928 H941 0.985 . S
N929 C931 1.356 . S
N929 H934 0.984 . S
N929 H935 0.985 . S
C930 C924 1.379 . S
C930 C927 1.363 . S
C930 N928 1.356 . S
C931 C925 1.363 . S
C931 C926 1.379 . S
C931 N929 1.356 . S
N932 C924 1.356 . S
N932 H938 0.984 . S
N932 H939 0.984 . S
N933 C926 1.356 . S
N933 H936 0.984 . S
N933 H937 0.985 . S
H934 N929 0.984 . S
H935 N929 0.985 . S
H936 N933 0.984 . S
H937 N933 0.985 . S
H938 N932 0.984 . S
H939 N932 0.984 . S
H940 N928 0.984 . S
H941 N928 0.985 . S
C942 C943 1.363 1_455 S
C942 C948 1.379 . S
C942 N950 1.356 . S
C943 C942 1.363 1_655 S
C943 C949 1.363 . S
C944 C945 1.363 1_655 S
C944 C949 1.379 . S
C944 N951 1.356 . S
C945 C944 1.363 1_455 S
C945 C948 1.363 . S
N946 C948 1.356 . S
N946 H958 0.984 . S
N946 H959 0.985 . S
N947 C949 1.356 . S
N947 H952 0.984 . S
N947 H953 0.985 . S
C948 C942 1.379 . S
C948 C945 1.363 . S
C948 N946 1.356 . S
C949 C943 1.363 . S
C949 C944 1.379 . S
C949 N947 1.356 . S
N950 C942 1.356 . S
N950 H956 0.984 . S
N950 H957 0.984 . S
N951 C944 1.356 . S
N951 H954 0.984 . S
N951 H955 0.985 . S
H952 N947 0.984 . S
H953 N947 0.985 . S
H954 N951 0.984 . S
H955 N951 0.985 . S
H956 N950 0.984 . S
H957 N950 0.984 . S
H958 N946 0.984 . S
H959 N946 0.985 . S
C960 C961 1.363 . S
C960 C966 1.379 1_556 S
C960 N968 1.356 . S
C961 C960 1.363 . S
C961 C967 1.363 1_565 S
C962 C963 1.363 . S
C962 C967 1.379 1_554 S
C962 N969 1.356 . S
C963 C962 1.363 . S
C963 C966 1.363 1_545 S
N964 C966 1.356 . S
N964 H976 0.984 . S
N964 H977 0.985 1_565 S
N965 C967 1.356 . S
N965 H970 0.984 1_545 S
N965 H971 0.985 . S
C966 C960 1.379 1_554 S
C966 C963 1.363 1_565 S
C966 N964 1.356 . S
C967 C961 1.363 1_545 S
C967 C962 1.379 1_556 S
C967 N965 1.356 . S
N968 C960 1.356 . S
N968 H974 0.984 . S
N968 H975 0.984 . S
N969 C962 1.356 . S
N969 H972 0.984 . S
N969 H973 0.985 . S
H970 N965 0.984 1_565 S
H971 N965 0.985 . S
H972 N969 0.984 . S
H973 N969 0.985 . S
H974 N968 0.984 . S
H975 N968 0.984 . S
H976 N964 0.984 . S
H977 N964 0.985 1_545 S
C978 C979 1.363 . S
C978 C984 1.379 . S
C978 N986 1.356 . S
C979 C978 1.363 . S
C979 C985 1.363 . S
C980 C981 1.363 . S
C980 C985 1.379 . S
C980 N987 1.356 . S
C981 C980 1.363 . S
C981 C984 1.363 . S
N982 C984 1.356 . S
N982 H994 0.984 . S
N982 H995 0.985 . S
N983 C985 1.356 . S
N983 H988 0.984 . S
N983 H989 0.985 . S
C984 C978 1.379 . S
C984 C981 1.363 . S
C984 N982 1.356 . S
C985 C979 1.363 . S
C985 C980 1.379 . S
C985 N983 1.356 . S
N986 C978 1.356 . S
N986 H992 0.984 . S
N986 H993 0.984 . S
N987 C980 1.356 . S
N987 H990 0.984 . S
N987 H991 0.985 . S
H988 N983 0.984 . S
H989 N983 0.985 . S
H990 N987 0.984 . S
H991 N987 0.985 . S
H992 N986 0.984 . S
H993 N986 0.984 . S
H994 N982 0.984 . S
H995 N982 0.985 . S
C996 C997 1.363 1_655 S
C996 C1002 1.379 . S
C996 N1004 1.356 . S
C997 C996 1.363 1_455 S
C997 C1003 1.363 . S
C998 C999 1.363 1_455 S
C998 C1003 1.379 . S
C998 N1005 1.356 . S
C999 C998 1.363 1_655 S
C999 C1002 1.363 . S
N1000 C1002 1.356 . S
N1000 H1012 0.984 . S
N1000 H1013 0.985 . S
N1001 C1003 1.356 . S
N1001 H1006 0.984 . S
N1001 H1007 0.985 . S
C1002 C996 1.379 . S
C1002 C999 1.363 . S
C1002 N1000 1.356 . S
C1003 C997 1.363 . S
C1003 C998 1.379 . S
C1003 N1001 1.356 . S
N1004 C996 1.356 . S
N1004 H1010 0.984 . S
N1004 H1011 0.984 . S
N1005 C998 1.356 . S
N1005 H1008 0.984 . S
N1005 H1009 0.985 . S
H1006 N1001 0.984 . S
H1007 N1001 0.985 . S
H1008 N1005 0.984 . S
H1009 N1005 0.985 . S
H1010 N1004 0.984 . S
H1011 N1004 0.984 . S
H1012 N1000 0.984 . S
H1013 N1000 0.985 . S
C1014 C1015 1.363 1_545 S
C1014 C1020 1.379 1_554 S
C1014 N1022 1.356 . S
C1015 C1014 1.363 1_565 S
C1015 C1021 1.363 . S
C1016 C1017 1.363 1_565 S
C1016 C1021 1.379 1_556 S
C1016 N1023 1.356 . S
C1017 C1016 1.363 1_545 S
C1017 C1020 1.363 . S
N1018 C1020 1.356 . S
N1018 H1030 0.984 . S
N1018 H1031 0.985 . S
N1019 C1021 1.356 . S
N1019 H1024 0.984 . S
N1019 H1025 0.985 . S
C1020 C1014 1.379 1_556 S
C1020 C1017 1.363 . S
C1020 N1018 1.356 . S
C1021 C1015 1.363 . S
C1021 C1016 1.379 1_554 S
C1021 N1019 1.356 . S
N1022 C1014 1.356 . S
N1022 H1028 0.984 . S
N1022 H1029 0.984 . S
N1023 C1016 1.356 . S
N1023 H1026 0.984 . S
N1023 H1027 0.985 . S
H1024 N1019 0.984 . S
H1025 N1019 0.985 . S
H1026 N1023 0.984 . S
H1027 N1023 0.985 . S
H1028 N1022 0.984 . S
H1029 N1022 0.984 . S
H1030 N1018 0.984 . S
H1031 N1018 0.985 . S
C1032 C1033 1.363 . S
C1032 C1038 1.379 1_655 S
C1032 N1040 1.356 . S
C1033 C1032 1.363 . S
C1033 C1039 1.363 . S
C1034 C1035 1.363 . S
C1034 C1039 1.379 1_455 S
C1034 N1041 1.356 . S
C1035 C1034 1.363 . S
C1035 C1038 1.363 . S
N1036 C1038 1.356 . S
N1036 H1048 0.984 . S
N1036 H1049 0.985 . S
N1037 C1039 1.356 . S
N1037 H1042 0.984 . S
N1037 H1043 0.985 . S
C1038 C1032 1.379 1_455 S
C1038 C1035 1.363 . S
C1038 N1036 1.356 . S
C1039 C1033 1.363 . S
C1039 C1034 1.379 1_655 S
C1039 N1037 1.356 . S
N1040 C1032 1.356 . S
N1040 H1046 0.984 . S
N1040 H1047 0.984 . S
N1041 C1034 1.356 . S
N1041 H1044 0.984 . S
N1041 H1045 0.985 . S
H1042 N1037 0.984 . S
H1043 N1037 0.985 . S
H1044 N1041 0.984 . S
H1045 N1041 0.985 . S
H1046 N1040 0.984 . S
H1047 N1040 0.984 . S
H1048 N1036 0.984 . S
H1049 N1036 0.985 . S
C1050 C1051 1.363 . S
C1050 C1056 1.379 1_545 S
C1050 N1058 1.356 . S
C1051 C1050 1.363 . S
C1051 C1057 1.363 . S
C1052 C1053 1.363 . S
C1052 C1057 1.379 1_565 S
C1052 N1059 1.356 . S
C1053 C1052 1.363 . S
C1053 C1056 1.363 . S
N1054 C1056 1.356 . S
N1054 H1066 0.984 . S
N1054 H1067 0.985 . S
N1055 C1057 1.356 . S
N1055 H1060 0.984 . S
N1055 H1061 0.985 . S
C1056 C1050 1.379 1_565 S
C1056 C1053 1.363 . S
C1056 N1054 1.356 . S
C1057 C1051 1.363 . S
C1057 C1052 1.379 1_545 S
C1057 N1055 1.356 . S
N1058 C1050 1.356 . S
N1058 H1064 0.984 . S
N1058 H1065 0.984 . S
N1059 C1052 1.356 . S
N1059 H1062 0.984 . S
N1059 H1063 0.985 . S
H1060 N1055 0.984 . S
H1061 N1055 0.985 . S
H1062 N1059 0.984 . S
H1063 N1059 0.985 . S
H1064 N1058 0.984 . S
H1065 N1058 0.984 . S
H1066 N1054 0.984 . S
H1067 N1054 0.985 . S
C1068 C1069 1.363 . S
C1068 C1074 1.379 . S
C1068 N1076 1.356 . S
C1069 C1068 1.363 . S
C1069 C1075 1.363 . S
C1070 C1071 1.363 . S
C1070 C1075 1.379 . S
C1070 N1077 1.356 . S
C1071 C1070 1.363 . S
C1071 C1074 1.363 . S
N1072 C1074 1.356 . S
N1072 H1084 0.984 . S
N1072 H1085 0.985 . S
N1073 C1075 1.356 . S
N1073 H1078 0.984 . S
N1073 H1079 0.985 . S
C1074 C1068 1.379 . S
C1074 C1071 1.363 . S
C1074 N1072 1.356 . S
C1075 C1069 1.363 . S
C1075 C1070 1.379 . S
C1075 N1073 1.356 . S
N1076 C1068 1.356 . S
N1076 H1082 0.984 . S
N1076 H1083 0.984 . S
N1077 C1070 1.356 . S
N1077 H1080 0.984 . S
N1077 H1081 0.985 . S
H1078 N1073 0.984 . S
H1079 N1073 0.985 . S
H1080 N1077 0.984 . S
H1081 N1077 0.985 . S
H1082 N1076 0.984 . S
H1083 N1076 0.984 . S
H1084 N1072 0.984 . S
H1085 N1072 0.985 . S
C1086 C1087 1.363 . S
C1086 C1092 1.379 1_655 S
C1086 N1094 1.356 . S
C1087 C1086 1.363 . S
C1087 C1093 1.363 . S
C1088 C1089 1.363 . S
C1088 C1093 1.379 1_455 S
C1088 N1095 1.356 . S
C1089 C1088 1.363 . S
C1089 C1092 1.363 . S
N1090 C1092 1.356 . S
N1090 H1102 0.984 . S
N1090 H1103 0.985 . S
N1091 C1093 1.356 . S
N1091 H1096 0.984 . S
N1091 H1097 0.985 . S
C1092 C1086 1.379 1_455 S
C1092 C1089 1.363 . S
C1092 N1090 1.356 . S
C1093 C1087 1.363 . S
C1093 C1088 1.379 1_655 S
C1093 N1091 1.356 . S
N1094 C1086 1.356 . S
N1094 H1100 0.984 . S
N1094 H1101 0.984 . S
N1095 C1088 1.356 . S
N1095 H1098 0.984 . S
N1095 H1099 0.985 . S
H1096 N1091 0.984 . S
H1097 N1091 0.985 . S
H1098 N1095 0.984 . S
H1099 N1095 0.985 . S
H1100 N1094 0.984 . S
H1101 N1094 0.984 . S
H1102 N1090 0.984 . S
H1103 N1090 0.985 . S
C1104 C1105 1.363 . S
C1104 C1110 1.379 1_565 S
C1104 N1112 1.356 . S
C1105 C1104 1.363 . S
C1105 C1111 1.363 . S
C1106 C1107 1.363 . S
C1106 C1111 1.379 1_545 S
C1106 N1113 1.356 . S
C1107 C1106 1.363 . S
C1107 C1110 1.363 . S
N1108 C1110 1.356 . S
N1108 H1120 0.984 . S
N1108 H1121 0.985 . S
N1109 C1111 1.356 . S
N1109 H1114 0.984 . S
N1109 H1115 0.985 . S
C1110 C1104 1.379 1_545 S
C1110 C1107 1.363 . S
C1110 N1108 1.356 . S
C1111 C1105 1.363 . S
C1111 C1106 1.379 1_565 S
C1111 N1109 1.356 . S
N1112 C1104 1.356 . S
N1112 H1118 0.984 . S
N1112 H1119 0.984 . S
N1113 C1106 1.356 . S
N1113 H1116 0.984 . S
N1113 H1117 0.985 . S
H1114 N1109 0.984 . S
H1115 N1109 0.985 . S
H1116 N1113 0.984 . S
H1117 N1113 0.985 . S
H1118 N1112 0.984 . S
H1119 N1112 0.984 . S
H1120 N1108 0.984 . S
H1121 N1108 0.985 . S
C1122 C1123 1.363 . S
C1122 C1128 1.379 . S
C1122 N1130 1.356 . S
C1123 C1122 1.363 . S
C1123 C1129 1.363 . S
C1124 C1125 1.363 . S
C1124 C1129 1.379 . S
C1124 N1131 1.356 . S
C1125 C1124 1.363 . S
C1125 C1128 1.363 . S
N1126 C1128 1.356 . S
N1126 H1138 0.984 . S
N1126 H1139 0.985 . S
N1127 C1129 1.356 . S
N1127 H1132 0.984 . S
N1127 H1133 0.985 . S
C1128 C1122 1.379 . S
C1128 C1125 1.363 . S
C1128 N1126 1.356 . S
C1129 C1123 1.363 . S
C1129 C1124 1.379 . S
C1129 N1127 1.356 . S
N1130 C1122 1.356 . S
N1130 H1136 0.984 . S
N1130 H1137 0.984 . S
N1131 C1124 1.356 . S
N1131 H1134 0.984 . S
N1131 H1135 0.985 . S
H1132 N1127 0.984 . S
H1133 N1127 0.985 . S
H1134 N1131 0.984 . S
H1135 N1131 0.985 . S
H1136 N1130 0.984 . S
H1137 N1130 0.984 . S
H1138 N1126 0.984 . S
H1139 N1126 0.985 . S
C709 C475 1.619 . S
C711 C3 1.619 . S
C727 C62 1.619 . S
C729 C534 1.619 . S
C745 C121 1.619 . S
C747 C593 1.619 . S
C763 C180 1.619 . S
C765 C652 1.619 . S
C781 C357 1.619 . S
C783 C239 1.619 . S
C799 C298 1.619 . S
C801 C416 1.619 . S
C817 C229 1.451 . S
C819 C52 1.451 . S
C835 C288 1.451 . S
C837 C111 1.451 . S
C853 C347 1.451 . S
C855 C170 1.451 . S
C871 C406 1.451 . S
C873 C583 1.451 . S
C889 C465 1.451 . S
C891 C642 1.451 . S
C907 C524 1.451 . S
C909 C701 1.451 . S
C925 C33 1.617 . S
C927 C564 1.617 . S
C943 C92 1.617 . S
C945 C623 1.617 . S
C961 C151 1.617 . S
C963 C682 1.617 . S
C979 C387 1.617 . S
C981 C210 1.617 . S
C997 C269 1.617 . S
C999 C446 1.617 . S
C1015 C505 1.617 . S
C1017 C328 1.617 . S
C1033 C654 1.498 . S
C1035 C5 1.498 . S
C1051 C64 1.498 . S
C1053 C359 1.498 . S
C1069 C418 1.499 . S
C1071 C123 1.499 . S
C1087 C182 1.498 . S
C1089 C477 1.498 . S
C1105 C241 1.498 . S
C1107 C536 1.498 . S
C1123 C595 1.499 . S
C1125 C300 1.499 . S
