# Generated by pormake.
# Topology smd, (6)-cn, num edge types: 1
# Building blocks:
#     Node 0, Type 0, BuildingBlock: BETDEL_clean_sbu_0, # of connection points: 6
#     Node 1, Type 0, BuildingBlock: BETDEL_clean_sbu_0, # of connection points: 6
#     Node 2, Type 0, BuildingBlock: BETDEL_clean_sbu_0, # of connection points: 6
#     Node 3, Type 0, BuildingBlock: BETDEL_clean_sbu_0, # of connection points: 6
#     Node 4, Type 0, BuildingBlock: BETDEL_clean_sbu_0, # of connection points: 6
#     Node 5, Type 0, BuildingBlock: BETDEL_clean_sbu_0, # of connection points: 6
#     Node 6, Type 0, BuildingBlock: BETDEL_clean_sbu_0, # of connection points: 6
#     Node 7, Type 0, BuildingBlock: BETDEL_clean_sbu_0, # of connection points: 6
#     Node 8, Type 0, BuildingBlock: BETDEL_clean_sbu_0, # of connection points: 6
#     Node 9, Type 0, BuildingBlock: BETDEL_clean_sbu_0, # of connection points: 6
#     Node 10, Type 0, BuildingBlock: BETDEL_clean_sbu_0, # of connection points: 6
#     Node 11, Type 0, BuildingBlock: BETDEL_clean_sbu_0, # of connection points: 6
#     Node 12, Type 0, BuildingBlock: BETDEL_clean_sbu_0, # of connection points: 6
#     Node 13, Type 0, BuildingBlock: BETDEL_clean_sbu_0, # of connection points: 6
#     Node 14, Type 0, BuildingBlock: BETDEL_clean_sbu_0, # of connection points: 6
#     Node 15, Type 0, BuildingBlock: BETDEL_clean_sbu_0, # of connection points: 6
#     Node 16, Type 0, BuildingBlock: BETDEL_clean_sbu_0, # of connection points: 6
#     Node 17, Type 0, BuildingBlock: BETDEL_clean_sbu_0, # of connection points: 6
#     Edge 18, Type (0, 0), BuildingBlock: ZUJKAS_clean_linker_0, # of connection points: 2
#     Edge 19, Type (0, 0), BuildingBlock: ZUJKAS_clean_linker_0, # of connection points: 2
#     Edge 20, Type (0, 0), BuildingBlock: ZUJKAS_clean_linker_0, # of connection points: 2
#     Edge 21, Type (0, 0), BuildingBlock: ZUJKAS_clean_linker_0, # of connection points: 2
#     Edge 22, Type (0, 0), BuildingBlock: ZUJKAS_clean_linker_0, # of connection points: 2
#     Edge 23, Type (0, 0), BuildingBlock: ZUJKAS_clean_linker_0, # of connection points: 2
#     Edge 24, Type (0, 0), BuildingBlock: ZUJKAS_clean_linker_0, # of connection points: 2
#     Edge 25, Type (0, 0), BuildingBlock: ZUJKAS_clean_linker_0, # of connection points: 2
#     Edge 26, Type (0, 0), BuildingBlock: ZUJKAS_clean_linker_0, # of connection points: 2
#     Edge 27, Type (0, 0), BuildingBlock: ZUJKAS_clean_linker_0, # of connection points: 2
#     Edge 28, Type (0, 0), BuildingBlock: ZUJKAS_clean_linker_0, # of connection points: 2
#     Edge 29, Type (0, 0), BuildingBlock: ZUJKAS_clean_linker_0, # of connection points: 2
#     Edge 30, Type (0, 0), BuildingBlock: ZUJKAS_clean_linker_0, # of connection points: 2
#     Edge 31, Type (0, 0), BuildingBlock: ZUJKAS_clean_linker_0, # of connection points: 2
#     Edge 32, Type (0, 0), BuildingBlock: ZUJKAS_clean_linker_0, # of connection points: 2
#     Edge 33, Type (0, 0), BuildingBlock: ZUJKAS_clean_linker_0, # of connection points: 2
#     Edge 34, Type (0, 0), BuildingBlock: ZUJKAS_clean_linker_0, # of connection points: 2
#     Edge 35, Type (0, 0), BuildingBlock: ZUJKAS_clean_linker_0, # of connection points: 2
#     Edge 36, Type (0, 0), BuildingBlock: ZUJKAS_clean_linker_0, # of connection points: 2
#     Edge 37, Type (0, 0), BuildingBlock: ZUJKAS_clean_linker_0, # of connection points: 2
#     Edge 38, Type (0, 0), BuildingBlock: ZUJKAS_clean_linker_0, # of connection points: 2
#     Edge 39, Type (0, 0), BuildingBlock: ZUJKAS_clean_linker_0, # of connection points: 2
#     Edge 40, Type (0, 0), BuildingBlock: ZUJKAS_clean_linker_0, # of connection points: 2
#     Edge 41, Type (0, 0), BuildingBlock: ZUJKAS_clean_linker_0, # of connection points: 2
#     Edge 42, Type (0, 0), BuildingBlock: ZUJKAS_clean_linker_0, # of connection points: 2
#     Edge 43, Type (0, 0), BuildingBlock: ZUJKAS_clean_linker_0, # of connection points: 2
#     Edge 44, Type (0, 0), BuildingBlock: ZUJKAS_clean_linker_0, # of connection points: 2
#     Edge 45, Type (0, 0), BuildingBlock: ZUJKAS_clean_linker_0, # of connection points: 2
#     Edge 46, Type (0, 0), BuildingBlock: ZUJKAS_clean_linker_0, # of connection points: 2
#     Edge 47, Type (0, 0), BuildingBlock: ZUJKAS_clean_linker_0, # of connection points: 2
#     Edge 48, Type (0, 0), BuildingBlock: ZUJKAS_clean_linker_0, # of connection points: 2
#     Edge 49, Type (0, 0), BuildingBlock: ZUJKAS_clean_linker_0, # of connection points: 2
#     Edge 50, Type (0, 0), BuildingBlock: ZUJKAS_clean_linker_0, # of connection points: 2
#     Edge 51, Type (0, 0), BuildingBlock: ZUJKAS_clean_linker_0, # of connection points: 2
#     Edge 52, Type (0, 0), BuildingBlock: ZUJKAS_clean_linker_0, # of connection points: 2
#     Edge 53, Type (0, 0), BuildingBlock: ZUJKAS_clean_linker_0, # of connection points: 2
#     Edge 54, Type (0, 0), BuildingBlock: ZUJKAS_clean_linker_0, # of connection points: 2
#     Edge 55, Type (0, 0), BuildingBlock: ZUJKAS_clean_linker_0, # of connection points: 2
#     Edge 56, Type (0, 0), BuildingBlock: ZUJKAS_clean_linker_0, # of connection points: 2
#     Edge 57, Type (0, 0), BuildingBlock: ZUJKAS_clean_linker_0, # of connection points: 2
#     Edge 58, Type (0, 0), BuildingBlock: ZUJKAS_clean_linker_0, # of connection points: 2
#     Edge 59, Type (0, 0), BuildingBlock: ZUJKAS_clean_linker_0, # of connection points: 2
#     Edge 60, Type (0, 0), BuildingBlock: ZUJKAS_clean_linker_0, # of connection points: 2
#     Edge 61, Type (0, 0), BuildingBlock: ZUJKAS_clean_linker_0, # of connection points: 2
#     Edge 62, Type (0, 0), BuildingBlock: ZUJKAS_clean_linker_0, # of connection points: 2
#     Edge 63, Type (0, 0), BuildingBlock: ZUJKAS_clean_linker_0, # of connection points: 2
#     Edge 64, Type (0, 0), BuildingBlock: ZUJKAS_clean_linker_0, # of connection points: 2
#     Edge 65, Type (0, 0), BuildingBlock: ZUJKAS_clean_linker_0, # of connection points: 2
#     Edge 66, Type (0, 0), BuildingBlock: ZUJKAS_clean_linker_0, # of connection points: 2
#     Edge 67, Type (0, 0), BuildingBlock: ZUJKAS_clean_linker_0, # of connection points: 2
#     Edge 68, Type (0, 0), BuildingBlock: ZUJKAS_clean_linker_0, # of connection points: 2
#     Edge 69, Type (0, 0), BuildingBlock: ZUJKAS_clean_linker_0, # of connection points: 2
#     Edge 70, Type (0, 0), BuildingBlock: ZUJKAS_clean_linker_0, # of connection points: 2
#     Edge 71, Type (0, 0), BuildingBlock: ZUJKAS_clean_linker_0, # of connection points: 2
# Relax obj value: 0.244
# Max RMSD: 0.292
# Mean RMSD: 0.262
data_MOF--net-smd--node1-BETDEL_clean_sbu_0--edge1-ZUJKAS_clean_linker_0
_symmetry_space_group_name_H-M    P1
_symmetry_Int_Tables_number       1
_symmetry_cell_setting            triclinic
loop_
_symmetry_equiv_pos_as_xyz
'x, y, z'
_cell_length_a     87.326582
_cell_length_b     87.798746
_cell_length_c     22.693622
_cell_angle_alpha  92.960589
_cell_angle_beta   92.915292
_cell_angle_gamma 119.96955
loop_
_atom_site_label
_atom_site_type_symbol
_atom_site_fract_x
_atom_site_fract_y
_atom_site_fract_z
_atom_type_partial_charge
Dy0 Dy 0.02332 0.24073 0.55977 0.0
C1 C 1.00826 0.2258 0.30711 0.0
C2 C 0.02544 0.24477 0.68146 0.0
Dy3 Dy 1.00994 0.22971 0.42873 0.0
O4 O 0.03414 0.2393 0.65053 0.0
O5 O 0.01592 0.24855 0.64582 0.0
O6 O 0.0501 0.2462 0.54005 0.0
O7 O 0.02766 0.22532 0.48934 0.0
C8 C 0.04454 0.23429 0.49543 0.0
C9 C 0.99053 0.23883 0.49496 0.0
O10 O 0.99524 0.20287 0.45931 0.0
O11 O 0.99955 0.21301 0.55869 0.0
O12 O 0.99823 0.22958 0.33755 0.0
O13 O 0.01888 0.22357 0.34323 0.0
O14 O 0.98361 0.22685 0.45028 0.0
O15 O 1.00714 0.24593 0.49848 0.0
O16 O 0.03714 0.26793 0.52679 0.0
O17 O 0.03218 0.25749 0.42732 0.0
C18 C 0.9915 0.20017 0.51495 0.0
C19 C 0.03973 0.27057 0.46997 0.0
Dy20 Dy 0.79964 0.79022 0.45177 0.0
C21 C 0.79919 0.79944 0.70811 0.0
C22 C 0.79126 0.78354 0.33263 0.0
Dy23 Dy 0.79869 0.7982 0.58786 0.0
O24 O 0.7992 0.77704 0.36374 0.0
O25 O 0.78749 0.79332 0.36695 0.0
O26 O 0.82863 0.79905 0.44986 0.0
O27 O 0.81861 0.80066 0.52957 0.0
C28 C 0.83247 0.80324 0.50644 0.0
C29 C 0.76952 0.78994 0.5164 0.0
O30 O 0.81076 0.82559 0.56063 0.0
O31 O 0.80257 0.8174 0.45959 0.0
O32 O 0.78523 0.79028 0.67123 0.0
O33 O 0.81313 0.80821 0.67935 0.0
O34 O 0.77478 0.80094 0.56354 0.0
O35 O 0.77934 0.78335 0.5125 0.0
O36 O 0.78794 0.76292 0.48336 0.0
O37 O 0.79694 0.77184 0.58354 0.0
C38 C 0.80846 0.82937 0.50617 0.0
C39 C 0.7903 0.75947 0.53848 0.0
Dy40 Dy 0.2373 0.01057 0.5787 0.0
C41 C 0.23233 0.01524 0.32307 0.0
C42 C 0.24659 0.01352 0.69693 0.0
Dy43 Dy 0.23643 0.01633 0.44378 0.0
O44 O 0.23906 0.99889 0.66261 0.0
O45 O 0.24951 0.02669 0.66622 0.0
O46 O 0.20845 0.99121 0.58541 0.0
O47 O 0.21698 1.00065 0.50408 0.0
C48 C 0.20358 0.99034 0.5299 0.0
C49 C 0.2672 0.03803 0.51099 0.0
O50 O 0.22189 0.02921 0.4779 0.0
O51 O 0.23499 0.03513 0.57401 0.0
O52 O 0.24081 0.02947 0.35888 0.0
O53 O 0.22571 1.0015 0.35327 0.0
O54 O 0.26192 0.0427 0.4645 0.0
O55 O 0.25677 0.02196 0.51524 0.0
O56 O 0.24834 0.99382 0.5416 0.0
O57 O 0.24153 0.99382 0.44075 0.0
C58 C 0.22651 0.03836 0.53035 0.0
C59 C 0.24704 0.98798 0.48505 0.0
Dy60 Dy 0.02014 0.7992 0.5963 0.0
C61 C 1.00617 0.78419 0.34225 0.0
C62 C 0.02089 0.8011 0.71734 0.0
Dy63 Dy 1.00848 0.79123 0.4622 0.0
O64 O 0.02655 0.79258 0.68519 0.0
O65 O 0.01517 0.80905 0.68336 0.0
O66 O 0.04742 0.8042 0.57683 0.0
O67 O 0.0249 0.78596 0.52211 0.0
C68 C 0.04153 0.79363 0.52841 0.0
C69 C 0.99347 0.8069 0.52345 0.0
O70 O 0.99251 0.7634 0.48984 0.0
O71 O 0.99991 0.77053 0.59189 0.0
O72 O 0.99272 0.7809 0.37262 0.0
O73 O 0.02056 0.79077 0.37774 0.0
O74 O 0.99751 0.80944 0.46919 0.0
O75 O 0.99687 0.79539 0.54101 0.0
O76 O 0.03416 0.82663 0.56772 0.0
O77 O 0.03353 0.81786 0.46913 0.0
C78 C 0.99133 0.75891 0.54542 0.0
C79 C 0.03993 0.83019 0.5144 0.0
Dy80 Dy 0.23182 0.23048 0.42066 0.0
C81 C 0.23214 0.24264 0.66998 0.0
C82 C 0.2309 0.22794 0.29932 0.0
Dy83 Dy 0.23039 0.23945 0.54861 0.0
O84 O 0.24508 0.23615 0.33568 0.0
O85 O 0.21703 0.22075 0.32924 0.0
O86 O 0.25595 0.22819 0.4474 0.0
O87 O 0.25182 0.2469 0.49296 0.0
C88 C 0.26171 0.24036 0.49125 0.0
C89 C 0.20157 0.23325 0.48102 0.0
O90 O 0.24304 0.26692 0.51808 0.0
O91 O 0.23337 0.25668 0.41962 0.0
O92 O 0.24581 0.24925 0.63897 0.0
O93 O 0.21771 0.23467 0.63465 0.0
O94 O 0.20879 0.24494 0.52625 0.0
O95 O 0.20944 0.22441 0.47528 0.0
O96 O 0.22082 0.20329 0.4472 0.0
O97 O 0.22867 0.21268 0.54687 0.0
C98 C 0.24032 0.26969 0.46242 0.0
C99 C 0.22322 0.20019 0.50224 0.0
Dy100 Dy 0.79681 0.01353 0.59001 0.0
C101 C 0.78931 0.01937 0.33815 0.0
C102 C 0.80031 0.01409 0.71048 0.0
Dy103 Dy 0.79788 0.02157 0.45656 0.0
O104 O 0.79037 1.00015 0.67445 0.0
O105 O 0.80864 0.02775 0.68063 0.0
O106 O 0.77146 0.98751 0.56351 0.0
O107 O 0.77758 0.00934 0.51675 0.0
C108 C 0.76689 0.99317 0.51792 0.0
C109 C 0.83101 0.04047 0.51024 0.0
O110 O 0.78787 0.03914 0.49478 0.0
O111 O 0.79073 0.03535 0.59512 0.0
O112 O 0.79762 0.03395 0.37269 0.0
O113 O 0.78529 1.00591 0.36866 0.0
O114 O 0.82701 0.04058 0.45455 0.0
O115 O 0.81713 0.02989 0.53333 0.0
O116 O 0.81106 1.00036 0.55592 0.0
O117 O 0.8001 0.99686 0.45781 0.0
C118 C 0.78704 0.04293 0.55189 0.0
C119 C 0.80749 0.99247 0.50163 0.0
Dy120 Dy 0.67966 0.56373 0.74032 0.0
C121 C 0.69191 0.56652 0.99345 0.0
C122 C 0.67608 0.56609 0.621 0.0
Dy123 Dy 0.68897 0.56928 0.87433 0.0
O124 O 0.66757 0.5518 0.6476 0.0
O125 O 0.68621 0.57921 0.65984 0.0
O126 O 0.66686 0.53462 0.74558 0.0
O127 O 0.66555 0.55019 0.81603 0.0
C128 C 0.66155 0.53466 0.79796 0.0
C129 C 0.70614 0.59811 0.81507 0.0
O130 O 0.70477 0.55675 0.84575 0.0
O131 O 0.70373 0.56069 0.74555 0.0
O132 O 0.70182 0.58048 0.9668 0.0
O133 O 0.6807 0.55388 0.95471 0.0
O134 O 0.70176 0.5987 0.86865 0.0
O135 O 0.7024 0.58265 0.79854 0.0
O136 O 0.66459 0.57726 0.77008 0.0
O137 O 0.66661 0.57441 0.87128 0.0
C138 C 0.71011 0.5564 0.79218 0.0
C139 C 0.6606 0.57899 0.82493 0.0
Dy140 Dy 0.4698 0.12925 0.78917 0.0
C141 C 0.46855 0.14 0.03878 0.0
C142 C 0.46815 0.12631 0.66797 0.0
Dy143 Dy 0.46797 0.13777 0.91772 0.0
O144 O 0.48252 0.13499 0.70333 0.0
O145 O 0.4545 0.11889 0.69883 0.0
O146 O 0.4921 0.12475 0.81109 0.0
O147 O 0.49037 0.14449 0.8631 0.0
C148 C 0.49879 0.13621 0.85701 0.0
C149 C 0.43824 0.128 0.84654 0.0
O150 O 0.47883 0.16495 0.8917 0.0
O151 O 0.47113 0.1558 0.79176 0.0
O152 O 0.45457 0.13076 1.00214 0.0
O153 O 0.48237 0.14837 0.0093 0.0
O154 O 0.44374 0.13983 0.89138 0.0
O155 O 0.44819 0.12152 0.84451 0.0
O156 O 0.45836 0.10188 0.81952 0.0
O157 O 0.46777 0.11228 0.91807 0.0
C158 C 0.47648 0.16816 0.83676 0.0
C159 C 0.46142 0.09935 0.87513 0.0
Dy160 Dy 0.91601 0.35651 0.7675 0.0
C161 C 0.90711 0.34818 0.01222 0.0
C162 C 0.91809 0.35603 0.64759 0.0
Dy163 Dy 0.90911 0.34814 0.89226 0.0
O164 O 0.91707 0.36797 0.68038 0.0
O165 O 0.91815 0.34437 0.68034 0.0
O166 O 0.92353 0.38424 0.79221 0.0
O167 O 0.90284 0.36408 0.83427 0.0
C168 C 0.91238 0.38068 0.83212 0.0
C169 C 0.91569 0.32588 0.8259 0.0
O170 O 0.88112 0.33593 0.85653 0.0
O171 O 0.88734 0.33385 0.75977 0.0
O172 O 0.90542 0.33515 0.97747 0.0
O173 O 0.90971 0.36118 0.9814 0.0
O174 O 0.9044 0.32071 0.8658 0.0
O175 O 0.92333 0.34235 0.82643 0.0
O176 O 0.94439 0.3694 0.80702 0.0
O177 O 0.9373 0.37024 0.90358 0.0
C178 C 0.87588 0.32925 0.801 0.0
C179 C 0.94913 0.37522 0.86395 0.0
Dy180 Dy 0.68881 0.14171 0.89506 0.0
C181 C 0.67425 0.12778 0.64192 0.0
C182 C 0.69136 0.14482 0.01668 0.0
Dy183 Dy 0.67621 0.13162 0.76333 0.0
O184 O 0.69754 0.13694 0.98391 0.0
O185 O 0.68411 0.15145 0.98295 0.0
O186 O 0.71512 0.1446 0.87341 0.0
O187 O 0.69158 0.12554 0.82492 0.0
C188 C 0.70818 0.13256 0.82899 0.0
C189 C 0.65505 0.13846 0.82663 0.0
O190 O 0.66146 0.10451 0.79588 0.0
O191 O 0.66421 0.11531 0.89377 0.0
O192 O 0.66745 0.13539 0.67289 0.0
O193 O 0.68181 0.12181 0.67735 0.0
O194 O 0.64949 0.12693 0.78085 0.0
O195 O 0.6719 0.14694 0.83396 0.0
O196 O 0.70419 0.16864 0.86596 0.0
O197 O 0.70096 0.1587 0.76683 0.0
C198 C 0.65706 0.10217 0.85134 0.0
C199 C 0.70866 0.17141 0.81104 0.0
Dy200 Dy 0.90807 0.56779 0.87697 0.0
C201 C 0.91655 0.57143 0.62775 0.0
C202 C 0.90921 0.5691 0.99687 0.0
Dy203 Dy 0.91172 0.56366 0.74174 0.0
O204 O 0.92133 0.58068 0.96697 0.0
O205 O 0.89638 0.5567 0.96129 0.0
O206 O 0.90563 0.59177 0.85965 0.0
O207 O 0.92124 0.58547 0.80891 0.0
C208 C 0.91521 0.59572 0.81489 0.0
C209 C 0.8994 0.53194 0.78475 0.0
O210 O 0.93984 0.57472 0.78187 0.0
O211 O 0.9325 0.56577 0.8759 0.0
O212 O 0.92414 0.56429 0.65717 0.0
O213 O 0.90639 0.57437 0.66068 0.0
O214 O 0.90195 0.53452 0.72936 0.0
O215 O 0.90309 0.54634 0.81261 0.0
O216 O 0.87974 0.55454 0.84328 0.0
O217 O 0.88467 0.56121 0.74576 0.0
C218 C 0.94407 0.57179 0.83556 0.0
C219 C 0.8741 0.55587 0.78965 0.0
Dy220 Dy 0.46471 0.35542 0.88971 0.0
C221 C 0.46057 0.35892 0.63401 0.0
C222 C 0.47089 0.36037 0.00921 0.0
Dy223 Dy 0.46555 0.35843 0.75255 0.0
O224 O 0.45958 0.36295 0.97856 0.0
O225 O 0.47902 0.355 0.97454 0.0
O226 O 0.4354 0.33363 0.8875 0.0
O227 O 0.44677 0.34376 0.81208 0.0
C228 C 0.43245 0.3329 0.83051 0.0
C229 C 0.49763 0.37575 0.81593 0.0
O230 O 0.45284 0.37434 0.78093 0.0
O231 O 0.46401 0.38012 0.87969 0.0
O232 O 0.4701 0.37283 0.67076 0.0
O233 O 0.45348 0.34478 0.66221 0.0
O234 O 0.49467 0.36808 0.7628 0.0
O235 O 0.48333 0.37434 0.8316 0.0
O236 O 0.47528 0.33789 0.8621 0.0
O237 O 0.46553 0.33302 0.76187 0.0
C238 C 0.45613 0.38306 0.834 0.0
C239 C 0.47176 0.32894 0.8095 0.0
Dy240 Dy 0.3645 0.91015 0.24067 0.0
C241 C 0.34961 0.90023 0.98193 0.0
C242 C 0.36346 0.91671 0.35849 0.0
Dy243 Dy 0.35194 0.90156 0.10244 0.0
O244 O 0.37796 0.92195 0.33209 0.0
O245 O 0.34967 0.90826 0.32027 0.0
O246 O 0.38396 0.9003 0.24262 0.0
O247 O 0.36983 0.89864 0.16396 0.0
C248 C 0.38151 0.89565 0.18603 0.0
C249 C 0.334 0.91174 0.1723 0.0
O250 O 0.33604 0.87458 0.13097 0.0
O251 O 0.3401 0.88288 0.23282 0.0
O252 O 0.34723 0.91087 0.01706 0.0
O253 O 0.35303 0.88998 0.01263 0.0
O254 O 0.3267 0.90097 0.12468 0.0
O255 O 0.35041 0.91735 0.177 0.0
O256 O 0.38123 0.93678 0.20617 0.0
O257 O 0.37835 0.92611 0.10752 0.0
C258 C 0.33208 0.87106 0.18614 0.0
C259 C 0.38603 0.93893 0.151 0.0
Dy260 Dy 0.14774 0.46854 0.14301 0.0
C261 C 0.15131 0.48028 0.40181 0.0
C262 C 0.14052 0.46525 0.0236 0.0
Dy263 Dy 0.14661 0.47398 0.28194 0.0
O264 O 0.1361 0.45196 0.05545 0.0
O265 O 0.14872 0.47998 0.05696 0.0
O266 O 0.17636 0.47573 0.1418 0.0
O267 O 0.16602 0.47638 0.22147 0.0
C268 C 0.17986 0.47891 0.19882 0.0
C269 C 0.11542 0.45791 0.21418 0.0
O270 O 0.15674 0.50165 0.25777 0.0
O271 O 0.14949 0.49498 0.15577 0.0
O272 O 0.13963 0.48159 0.36804 0.0
O273 O 0.1608 0.47606 0.36985 0.0
O274 O 0.11688 0.45442 0.26846 0.0
O275 O 0.13002 0.47027 0.202 0.0
O276 O 0.13479 0.44074 0.17255 0.0
O277 O 0.14626 0.44858 0.27124 0.0
C278 C 0.15473 0.50617 0.20417 0.0
C279 C 0.13815 0.43662 0.22559 0.0
Dy280 Dy 0.57177 0.68195 0.22673 0.0
C281 C 0.57239 0.68821 0.97312 0.0
C282 C 0.58116 0.68391 0.34412 0.0
Dy283 Dy 0.57194 0.68848 0.09294 0.0
O284 O 0.57221 0.66938 0.30968 0.0
O285 O 0.5854 0.69749 0.31401 0.0
O286 O 0.54285 0.66345 0.23276 0.0
O287 O 0.55184 0.67286 0.15151 0.0
C288 C 0.53827 0.66277 0.17704 0.0
C289 C 0.60221 0.70915 0.16309 0.0
O290 O 0.56043 0.70452 0.12461 0.0
O291 O 0.56983 0.70677 0.22422 0.0
O292 O 0.58518 0.69012 0.01001 0.0
O293 O 0.55906 0.68636 1.00159 0.0
O294 O 0.59691 0.71482 0.11934 0.0
O295 O 0.59169 0.69296 0.16484 0.0
O296 O 0.58081 0.66395 0.18671 0.0
O297 O 0.56883 0.66174 0.09092 0.0
C298 C 0.5634 0.71183 0.17955 0.0
C299 C 0.57592 0.65631 0.13159 0.0
Dy300 Dy 0.36102 0.472 0.24656 0.0
C301 C 0.34772 0.45527 0.99001 0.0
C302 C 0.36372 0.47424 0.3674 0.0
Dy303 Dy 0.34709 0.46194 0.10826 0.0
O304 O 0.36716 0.4642 0.33322 0.0
O305 O 0.35917 0.48351 0.33551 0.0
O306 O 0.38603 0.47245 0.22192 0.0
O307 O 0.36176 0.45562 0.17263 0.0
C308 C 0.37814 0.4612 0.17561 0.0
C309 C 0.33078 0.4769 0.16476 0.0
O310 O 0.33089 0.43562 0.14535 0.0
O311 O 0.33505 0.4468 0.24427 0.0
O312 O 0.33332 0.45008 0.01704 0.0
O313 O 0.3616 0.46364 0.02791 0.0
O314 O 0.32749 0.47171 0.10847 0.0
O315 O 0.34275 0.47412 0.1849 0.0
O316 O 0.37601 0.49873 0.21407 0.0
O317 O 0.37162 0.48906 0.11332 0.0
C318 C 0.32688 0.43375 0.20147 0.0
C319 C 0.37968 0.50156 0.15818 0.0
Dy320 Dy 0.5712 0.904 0.08437 0.0
C321 C 0.5806 0.91978 0.33859 0.0
C322 C 0.57171 0.90418 0.9644 0.0
Dy323 Dy 0.57094 0.91306 0.2199 0.0
O324 O 0.58344 0.91641 1.00294 0.0
O325 O 0.5595 0.89149 0.99131 0.0
O326 O 0.59593 0.90259 0.10789 0.0
O327 O 0.59096 0.92 0.15799 0.0
C328 C 0.60119 0.91388 0.15412 0.0
C329 C 0.53763 0.89854 0.16807 0.0
O330 O 0.58061 0.93952 0.18356 0.0
O331 O 0.56811 0.92772 0.0878 0.0
O332 O 0.58368 0.90977 0.30282 0.0
O333 O 0.57271 0.92664 0.30906 0.0
O334 O 0.54192 0.90353 0.2242 0.0
O335 O 0.55137 0.90129 0.14374 0.0
O336 O 0.55933 0.87689 0.1132 0.0
O337 O 0.56835 0.88606 0.21335 0.0
C338 C 0.5757 0.9412 0.1289 0.0
C339 C 0.56205 0.87368 0.16802 0.0
Dy340 Dy 0.13517 0.6884 0.271 0.0
C341 C 0.13445 0.69583 0.02254 0.0
C342 C 0.1358 0.68981 0.39114 0.0
Dy343 Dy 0.13839 0.69408 0.14114 0.0
O344 O 0.12234 0.68681 0.35526 0.0
O345 O 0.14899 0.69197 0.36141 0.0
O346 O 0.11158 0.66098 0.24501 0.0
O347 O 0.11629 0.68171 0.19406 0.0
C348 C 0.1066 0.66547 0.19734 0.0
C349 C 0.16985 0.70969 0.2076 0.0
O350 O 0.12847 0.7126 0.16826 0.0
O351 O 0.13297 0.71256 0.27014 0.0
O352 O 0.14521 0.70909 0.06016 0.0
O353 O 0.12574 0.68169 0.04982 0.0
O354 O 0.16715 0.70231 0.15424 0.0
O355 O 0.15564 0.70872 0.22196 0.0
O356 O 0.14855 0.67344 0.24573 0.0
O357 O 0.1382 0.66839 0.147 0.0
C358 C 0.12891 0.71871 0.22355 0.0
C359 C 0.1452 0.6646 0.1933 0.0
H360 H 0.10769 0.4072 0.17529 0.0
H361 H 0.09223 0.37832 0.21626 0.0
H362 H 0.13593 0.39563 0.3495 0.0
H363 H 0.15139 0.42424 0.30899 0.0
H364 H 0.10442 0.35224 0.24778 0.0
H365 H 0.09056 0.38398 0.44029 0.0
H366 H 0.09631 0.39391 0.37108 0.0
H367 H 0.11315 0.39448 0.42143 0.0
C368 C 0.11422 0.40461 0.21204 0.0
C369 C 0.13072 0.41801 0.23903 0.0
C370 C 0.10532 0.38819 0.23576 0.0
C371 C 0.1128 0.38501 0.28669 0.0
C372 C 0.1298 0.39792 0.31085 0.0
H373 H 0.0694 0.3 0.5271 0.0
H374 H 0.08819 0.32824 0.48478 0.0
C375 C 0.13865 0.41423 0.28735 0.0
C376 C 0.10255 0.36873 0.31704 0.0
H377 H 0.0817 0.35386 0.44282 0.0
C378 C 0.09942 0.35256 0.29032 0.0
C379 C 0.09626 0.36924 0.37299 0.0
C380 C 0.09909 0.38628 0.40322 0.0
C381 C 0.09017 0.33687 0.31813 0.0
C382 C 0.08345 0.33728 0.37347 0.0
C383 C 0.08685 0.35353 0.40057 0.0
C384 C 0.07186 0.32082 0.40157 0.0
C385 C 0.08792 0.32003 0.28819 0.0
C386 C 0.05614 0.30765 0.37009 0.0
C387 C 0.04561 0.29169 0.3938 0.0
C388 C 0.0503 0.28852 0.45021 0.0
C389 C 0.06549 0.30206 0.48354 0.0
C390 C 0.07624 0.31813 0.45926 0.0
H391 H 0.09847 0.32278 0.25802 0.0
H392 H 0.08819 0.31123 0.32112 0.0
H393 H 0.07496 0.31293 0.26113 0.0
H394 H 0.0521 0.30961 0.32654 0.0
H395 H 0.03379 0.28168 0.36735 0.0
H396 H 0.74622 0.80212 0.52135 0.0
H397 H 0.71806 0.791 0.46058 0.0
H398 H 0.72732 0.75307 0.36463 0.0
H399 H 0.75559 0.76437 0.42429 0.0
H400 H 0.71453 0.76845 0.29095 0.0
H401 H 0.6731 0.74499 0.48016 0.0
H402 H 0.68945 0.76807 0.48863 0.0
H403 H 0.6964 0.75193 0.48619 0.0
C404 C 0.74225 0.79146 0.48711 0.0
C405 C 0.75301 0.784 0.47787 0.0
C406 C 0.72611 0.78504 0.45267 0.0
C407 C 0.72036 0.77094 0.4088 0.0
C408 C 0.73139 0.76387 0.39841 0.0
H409 H 0.61529 0.69722 0.24906 0.0
H410 H 0.64392 0.71339 0.30803 0.0
C411 C 0.74754 0.77033 0.4326 0.0
C412 C 0.70281 0.76333 0.37405 0.0
H413 H 0.65814 0.74232 0.38713 0.0
C414 C 0.7022 0.7628 0.31196 0.0
C415 C 0.68669 0.75575 0.40146 0.0
C416 C 0.68634 0.75502 0.46771 0.0
C417 C 0.68597 0.75483 0.27656 0.0
C418 C 0.66987 0.74747 0.30401 0.0
C419 C 0.67048 0.74811 0.36611 0.0
C420 C 0.65223 0.73806 0.26916 0.0
C421 C 0.68623 0.75378 0.21006 0.0
C422 C 0.64714 0.7466 0.22838 0.0
C423 C 0.63076 0.73731 0.19431 0.0
C424 C 0.61913 0.71938 0.20084 0.0
C425 C 0.62401 0.71102 0.24287 0.0
C426 C 0.64037 0.72026 0.27668 0.0
H427 H 0.69921 0.75607 0.19647 0.0
H428 H 0.67563 0.7407 0.18941 0.0
H429 H 0.68388 0.76406 0.1924 0.0
H430 H 0.65587 0.76042 0.22276 0.0
H431 H 0.62726 0.74411 0.16256 0.0
H432 H 0.23406 0.96253 0.39372 0.0
H433 H 0.24834 0.94717 0.35173 0.0
H434 H 0.29064 0.97233 0.49225 0.0
H435 H 0.27595 0.98733 0.53568 0.0
H436 H 0.27951 0.96376 0.30797 0.0
H437 H 0.28347 0.92322 0.48117 0.0
H438 H 0.26934 0.93275 0.48442 0.0
H439 H 0.29273 0.94609 0.5062 0.0
C440 C 0.24614 0.96439 0.41668 0.0
C441 C 0.25386 0.97608 0.4681 0.0
C442 C 0.25435 0.95565 0.39248 0.0
C443 C 0.2706 0.95851 0.41866 0.0
C444 C 0.27795 0.96957 0.47173 0.0
H445 H 0.34838 0.93595 0.26902 0.0
H446 H 0.33317 0.94678 0.33205 0.0
C447 C 0.26955 0.97816 0.4966 0.0
C448 C 0.28051 0.95139 0.38652 0.0
H449 H 0.29988 0.92591 0.39771 0.0
C450 C 0.28385 0.9554 0.32768 0.0
C451 C 0.28636 0.94059 0.41216 0.0
C452 C 0.28267 0.93525 0.47427 0.0
C453 C 0.29274 0.94893 0.29387 0.0
C454 C 0.29844 0.93805 0.31926 0.0
C455 C 0.29544 0.93423 0.37834 0.0
C456 C 0.30735 0.93043 0.28432 0.0
C457 C 0.29611 0.95388 0.23119 0.0
C458 C 0.29782 0.91744 0.2372 0.0
C459 C 0.30643 0.91113 0.20146 0.0
C460 C 0.32476 0.91776 0.21204 0.0
C461 C 0.33422 0.93054 0.25995 0.0
C462 C 0.32557 0.93673 0.29601 0.0
H463 H 0.29389 0.96496 0.22191 0.0
H464 H 0.30991 0.95767 0.22247 0.0
H465 H 0.28697 0.94231 0.19986 0.0
H466 H 0.28373 0.91235 0.22761 0.0
H467 H 0.29878 0.90126 0.16499 0.0
H468 H 0.29227 0.07255 0.50259 0.0
H469 H 0.32124 0.08985 0.56 0.0
H470 H 0.30991 0.04503 0.65766 0.0
H471 H 0.28086 0.02786 0.60133 0.0
H472 H 0.32497 0.07557 0.73002 0.0
H473 H 0.36417 0.08461 0.53654 0.0
H474 H 0.34887 0.09256 0.52929 0.0
H475 H 0.3406 0.06935 0.53278 0.0
C476 C 0.29597 0.06643 0.53643 0.0
C477 C 0.28438 0.04882 0.54715 0.0
C478 C 0.31257 0.07628 0.56895 0.0
C479 C 0.31795 0.06865 0.61242 0.0
C480 C 0.30614 0.0512 0.62417 0.0
H481 H 0.42337 0.09989 0.76329 0.0
H482 H 0.3943 0.08656 0.70725 0.0
C483 C 0.28954 0.04138 0.59187 0.0
C484 C 0.33587 0.07871 0.64556 0.0
H485 H 0.3803 0.0995 0.62812 0.0
C486 C 0.33707 0.08085 0.70773 0.0
C487 C 0.35168 0.08541 0.61657 0.0
C488 C 0.35135 0.08276 0.55018 0.0
C489 C 0.35359 0.08945 0.74162 0.0
C490 C 0.36941 0.09643 0.71258 0.0
C491 C 0.3682 0.09432 0.65041 0.0
C492 C 0.38731 0.10508 0.74584 0.0
C493 C 0.3539 0.09043 0.80829 0.0
C494 C 0.39329 0.12018 0.78554 0.0
C495 C 0.40994 0.12782 0.81788 0.0
C496 C 0.42097 0.12058 0.81071 0.0
C497 C 0.41517 0.10577 0.76985 0.0
C498 C 0.39854 0.09813 0.73775 0.0
H499 H 0.3409 0.08071 0.8233 0.0
H500 H 0.36428 0.088 0.82827 0.0
H501 H 0.35695 0.10381 0.82532 0.0
H502 H 0.38507 0.12606 0.7916 0.0
H503 H 0.41413 0.1393 0.84872 0.0
H504 H 0.94081 0.33659 0.74734 0.0
H505 H 0.95029 0.31883 0.6906 0.0
H506 H 0.9125 0.2724 0.76908 0.0
H507 H 0.90282 0.29022 0.82614 0.0
H508 H 0.94749 0.27725 0.77055 0.0
H509 H 0.92325 0.28266 0.54639 0.0
H510 H 0.93649 0.30351 0.58941 0.0
H511 H 0.91548 0.28752 0.61315 0.0
C512 C 0.93436 0.32256 0.75214 0.0
C513 C 0.92097 0.31477 0.79092 0.0
C514 C 0.93977 0.31241 0.71948 0.0
C515 C 0.93194 0.29423 0.72485 0.0
C516 C 0.91864 0.28639 0.76391 0.0
H517 H 0.95468 0.2262 0.48968 0.0
H518 H 0.93907 0.23792 0.547 0.0
C519 C 0.91311 0.29656 0.79643 0.0
C520 C 0.93823 0.28369 0.69113 0.0
H521 H 0.94399 0.27243 0.55088 0.0
C522 C 0.94654 0.27602 0.72252 0.0
C523 C 0.93686 0.28192 0.62842 0.0
C524 C 0.92739 0.28919 0.59224 0.0
C525 C 0.95416 0.26729 0.69295 0.0
C526 C 0.95355 0.26629 0.63031 0.0
C527 C 0.94458 0.2733 0.59887 0.0
C528 C 0.96283 0.25874 0.59679 0.0
C529 C 0.96288 0.25929 0.72905 0.0
C530 C 0.98137 0.26664 0.6052 0.0
C531 C 0.99027 0.26005 0.57237 0.0
C532 C 0.98084 0.24539 0.5304 0.0
C533 C 0.96228 0.23747 0.52189 0.0
C534 C 0.95336 0.24415 0.55458 0.0
H535 H 0.95802 0.25683 0.77382 0.0
H536 H 0.96046 0.24665 0.70645 0.0
H537 H 0.97743 0.26855 0.7347 0.0
H538 H 0.98901 0.27814 0.63649 0.0
H539 H 1.0046 0.26663 0.57933 0.0
H540 H 0.79973 0.7486 0.63706 0.0
H541 H 0.7856 0.719 0.67006 0.0
H542 H 0.75126 0.6987 0.50781 0.0
H543 H 0.76532 0.72858 0.4744 0.0
H544 H 0.73298 0.68881 0.60881 0.0
H545 H 0.78834 0.67516 0.62226 0.0
H546 H 0.79428 0.69611 0.65979 0.0
H547 H 0.78887 0.69241 0.58083 0.0
C548 C 0.78939 0.73782 0.60771 0.0
C549 C 0.78366 0.741 0.55299 0.0
C550 C 0.78139 0.72084 0.6266 0.0
C551 C 0.76747 0.70655 0.59127 0.0
C552 C 0.76205 0.70952 0.5357 0.0
H553 H 0.72065 0.59969 0.71006 0.0
H554 H 0.73439 0.62492 0.65014 0.0
C555 C 0.77017 0.72657 0.51647 0.0
C556 C 0.75775 0.68897 0.61513 0.0
H557 H 0.76393 0.65787 0.67951 0.0
C558 C 0.73969 0.68191 0.62348 0.0
C559 C 0.76641 0.67983 0.63383 0.0
C560 C 0.7855 0.68617 0.62319 0.0
C561 C 0.7303 0.66645 0.65236 0.0
C562 C 0.73927 0.65793 0.67434 0.0
C563 C 0.7571 0.66452 0.66349 0.0
C564 C 0.73054 0.64248 0.71001 0.0
C565 C 0.71087 0.65942 0.65928 0.0
C566 C 0.72398 0.64398 0.76399 0.0
C567 C 0.71607 0.62956 0.79815 0.0
C568 C 0.71464 0.61338 0.77914 0.0
C569 C 0.72139 0.61194 0.72549 0.0
C570 C 0.7293 0.62636 0.69133 0.0
H571 H 0.70487 0.66416 0.62582 0.0
H572 H 0.70335 0.64476 0.6551 0.0
H573 H 0.70939 0.6641 0.70383 0.0
H574 H 0.72513 0.65637 0.78005 0.0
H575 H 0.71106 0.63108 0.83942 0.0
H576 H 1.00224 0.74388 0.62467 0.0
H577 H 0.98581 0.71453 0.65834 0.0
H578 H 0.94147 0.70214 0.53302 0.0
H579 H 0.95839 0.73177 0.49742 0.0
H580 H 0.95622 0.70219 0.71199 0.0
H581 H 0.94427 0.65748 0.51099 0.0
H582 H 0.95999 0.68086 0.51548 0.0
H583 H 0.93662 0.67291 0.50313 0.0
C584 C 0.98907 0.73484 0.60351 0.0
C585 C 0.98157 0.74015 0.55853 0.0
C586 C 0.97966 0.71803 0.62295 0.0
C587 C 0.96235 0.70602 0.59853 0.0
C588 C 0.95491 0.71103 0.55209 0.0
H589 H 0.90125 0.61758 0.81554 0.0
H590 H 0.90986 0.64329 0.75875 0.0
C591 C 0.96454 0.72795 0.53178 0.0
C592 C 0.95213 0.68889 0.62532 0.0
H593 H 0.93234 0.64407 0.59777 0.0
C594 C 0.95089 0.68948 0.68685 0.0
C595 C 0.94525 0.67227 0.59275 0.0
C596 C 0.94668 0.67073 0.52702 0.0
C597 C 0.94365 0.67411 0.71699 0.0
C598 C 0.93677 0.65745 0.68456 0.0
C599 C 0.9375 0.65679 0.6227 0.0
C600 C 0.93003 0.64079 0.71463 0.0
C601 C 0.94436 0.67605 0.78375 0.0
C602 C 0.9378 0.63024 0.70676 0.0
C603 C 0.93268 0.6154 0.73842 0.0
C604 C 0.91971 0.61081 0.77892 0.0
C605 C 0.91146 0.62096 0.7853 0.0
C606 C 0.91645 0.63571 0.75304 0.0
H607 H 0.95414 0.68971 0.80243 0.0
H608 H 0.93114 0.673 0.79703 0.0
H609 H 0.94792 0.66685 0.80386 0.0
H610 H 0.94823 0.63376 0.67729 0.0
H611 H 0.93919 0.60775 0.73217 0.0
H612 H 0.27877 0.2717 0.55853 0.0
H613 H 0.30785 0.2856 0.61389 0.0
H614 H 0.31292 0.24046 0.56165 0.0
H615 H 0.28399 0.22684 0.50337 0.0
H616 H 0.31995 0.27741 0.70469 0.0
H617 H 0.35962 0.27851 0.52037 0.0
H618 H 0.33667 0.27256 0.50821 0.0
H619 H 0.34245 0.25665 0.53174 0.0
C620 C 0.28611 0.26474 0.5585 0.0
C621 C 0.27916 0.24823 0.52617 0.0
C622 C 0.30277 0.27271 0.59035 0.0
C623 C 0.31287 0.2643 0.59137 0.0
C624 C 0.30573 0.24753 0.56026 0.0
H625 H 0.40321 0.30371 0.86168 0.0
H626 H 0.37447 0.28588 0.80379 0.0
C627 C 0.28911 0.23966 0.52737 0.0
C628 C 0.33062 0.27311 0.62616 0.0
H629 H 0.37464 0.28722 0.61676 0.0
C630 C 0.33189 0.27956 0.6853 0.0
C631 C 0.34634 0.27619 0.60095 0.0
C632 C 0.34629 0.27078 0.53669 0.0
C633 C 0.3483 0.28909 0.71953 0.0
C634 C 0.36395 0.29168 0.69498 0.0
C635 C 0.36268 0.28512 0.63598 0.0
C636 C 0.38181 0.30172 0.72891 0.0
C637 C 0.34867 0.29689 0.78083 0.0
C638 C 0.39592 0.31604 0.70517 0.0
C639 C 0.41252 0.32593 0.73763 0.0
C640 C 0.41529 0.32181 0.79471 0.0
C641 C 0.40135 0.30729 0.81802 0.0
C642 C 0.38487 0.29719 0.78511 0.0
H643 H 0.33693 0.29849 0.78549 0.0
H644 H 0.34839 0.28789 0.81385 0.0
H645 H 0.36082 0.30998 0.79156 0.0
H646 H 0.39401 0.31982 0.66192 0.0
H647 H 0.42302 0.33711 0.71871 0.0
H648 H 0.74382 0.14973 0.81604 0.0
H649 H 0.75981 0.13952 0.75441 0.0
H650 H 0.71054 0.09168 0.69782 0.0
H651 H 0.69456 0.10224 0.75669 0.0
H652 H 0.76494 0.11379 0.76268 0.0
H653 H 0.7297 0.1018 0.54227 0.0
H654 H 0.72648 0.11358 0.60339 0.0
H655 H 0.71393 0.08977 0.59356 0.0
C656 C 0.73644 0.13714 0.78974 0.0
C657 C 0.71797 0.12679 0.79103 0.0
C658 C 0.74556 0.13132 0.75442 0.0
C659 C 0.7364 0.11494 0.72012 0.0
C660 C 0.71792 0.10462 0.7218 0.0
H661 H 0.7719 0.04316 0.65288 0.0
H662 H 0.76143 0.06266 0.68691 0.0
C663 C 0.70879 0.11058 0.75617 0.0
C664 C 0.74625 0.10787 0.68714 0.0
H665 H 0.74434 0.08463 0.55839 0.0
C666 C 0.7606 0.10775 0.71758 0.0
C667 C 0.74105 0.10032 0.6276 0.0
C668 C 0.72709 0.10158 0.58972 0.0
C669 C 0.76903 0.09934 0.69185 0.0
C670 C 0.76256 0.09015 0.63481 0.0
C671 C 0.74907 0.0913 0.60262 0.0
C672 C 0.76849 0.07797 0.61094 0.0
C673 C 0.78469 0.10021 0.7267 0.0
C674 C 0.77512 0.07935 0.55494 0.0
C675 C 0.78094 0.06784 0.53446 0.0
C676 C 0.78026 0.05485 0.56986 0.0
C677 C 0.77307 0.05325 0.62486 0.0
C678 C 0.76712 0.06449 0.64472 0.0
H679 H 0.79197 0.1126 0.75656 0.0
H680 H 0.77987 0.08902 0.75488 0.0
H681 H 0.79409 0.09949 0.69713 0.0
H682 H 0.77607 0.08949 0.52761 0.0
H683 H 0.78629 0.06933 0.49174 0.0
H684 H 0.6149 0.93977 0.24535 0.0
H685 H 0.64294 0.95111 0.30659 0.0
H686 H 0.65254 0.91302 0.21347 0.0
H687 H 0.62464 0.90188 0.15114 0.0
H688 H 0.65511 0.93576 0.38215 0.0
H689 H 0.69795 0.95869 0.19629 0.0
H690 H 0.6747 0.95189 0.18812 0.0
H691 H 0.68152 0.93565 0.1873 0.0
C692 C 0.623 0.93382 0.23792 0.0
C693 C 0.61769 0.92007 0.19306 0.0
C694 C 0.63901 0.94029 0.27303 0.0
C695 C 0.65006 0.93317 0.26398 0.0
C696 C 0.64448 0.91904 0.22035 0.0
H697 H 0.74109 0.95843 0.51814 0.0
H698 H 0.71279 0.94262 0.45607 0.0
C699 C 0.62849 0.91261 0.18501 0.0
C700 C 0.66741 0.94066 0.30007 0.0
H701 H 0.71221 0.96094 0.29041 0.0
C702 C 0.6676 0.94122 0.3621 0.0
C703 C 0.68373 0.948 0.27396 0.0
C704 C 0.68456 0.94871 0.20782 0.0
C705 C 0.68361 0.94895 0.39867 0.0
C706 C 0.69992 0.95601 0.37252 0.0
C707 C 0.69972 0.95537 0.31048 0.0
C708 C 0.71738 0.9651 0.4086 0.0
C709 C 0.68291 0.95004 0.46498 0.0
C710 C 0.72968 0.98278 0.40114 0.0
C711 C 0.74587 0.99173 0.43599 0.0
C712 C 0.75015 0.98319 0.47909 0.0
C713 C 0.73807 0.96537 0.4856 0.0
C714 C 0.72185 0.95637 0.45045 0.0
H715 H 0.66994 0.94811 0.47734 0.0
H716 H 0.68475 0.93954 0.48332 0.0
H717 H 0.69362 0.96299 0.48606 0.0
H718 H 0.72661 0.98979 0.369 0.0
H719 H 0.75494 1.00545 0.42978 0.0
H720 H 0.07761 0.80769 0.53784 0.0
H721 H 0.09485 0.79909 0.4759 0.0
H722 H 0.0468 0.7613 0.3705 0.0
H723 H 0.02955 0.76951 0.43262 0.0
H724 H 0.08757 0.76255 0.45943 0.0
H725 H 0.08258 0.78903 0.24657 0.0
H726 H 0.07955 0.79748 0.31668 0.0
H727 H 0.06221 0.77686 0.28074 0.0
C728 C 0.07079 0.79767 0.50111 0.0
C729 C 0.05227 0.78935 0.48979 0.0
C730 C 0.08063 0.79282 0.46571 0.0
C731 C 0.07212 0.77977 0.41801 0.0
C732 C 0.05367 0.77166 0.40624 0.0
H733 H 0.09906 0.7183 0.17878 0.0
H734 H 0.0862 0.73512 0.22262 0.0
C735 C 0.04383 0.77635 0.44189 0.0
C736 C 0.0822 0.77344 0.38374 0.0
H737 H 0.09418 0.76962 0.24503 0.0
C738 C 0.08922 0.76427 0.41273 0.0
C739 C 0.08401 0.77543 0.32259 0.0
C740 C 0.07682 0.78534 0.28964 0.0
C741 C 0.09765 0.75666 0.38204 0.0
C742 C 0.09972 0.75883 0.32089 0.0
C743 C 0.09275 0.76809 0.29188 0.0
C744 C 0.10872 0.75112 0.28666 0.0
C745 C 0.10359 0.74574 0.41513 0.0
C746 C 0.12603 0.75526 0.30555 0.0
C747 C 0.13322 0.74554 0.28121 0.0
C748 C 0.12347 0.73188 0.23618 0.0
C749 C 0.1069 0.72892 0.213 0.0
C750 C 0.09953 0.73844 0.23829 0.0
H751 H 0.09654 0.74121 0.45568 0.0
H752 H 0.10129 0.73397 0.38679 0.0
H753 H 0.11799 0.75389 0.42907 0.0
H754 H 0.1336 0.76534 0.34154 0.0
H755 H 0.14605 0.74807 0.29975 0.0
H756 H 0.3166 0.40063 0.14923 0.0
H757 H 0.29905 0.37236 0.19212 0.0
H758 H 0.29123 0.39953 0.34095 0.0
H759 H 0.30832 0.42749 0.29838 0.0
H760 H 0.308 0.36441 0.30137 0.0
H761 H 0.24153 0.35788 0.29886 0.0
H762 H 0.25849 0.37287 0.25491 0.0
H763 H 0.2589 0.37888 0.33222 0.0
C764 C 0.31071 0.40047 0.19021 0.0
C765 C 0.31387 0.4163 0.22034 0.0
C766 C 0.30081 0.38435 0.21493 0.0
C767 C 0.29371 0.3838 0.26962 0.0
C768 C 0.29628 0.39952 0.29833 0.0
H769 H 0.26711 0.30166 0.51547 0.0
H770 H 0.27993 0.33029 0.47273 0.0
C771 C 0.30617 0.41555 0.27396 0.0
C772 C 0.28484 0.36717 0.2994 0.0
H773 H 0.24677 0.33959 0.36146 0.0
C774 C 0.29457 0.35891 0.31416 0.0
C775 C 0.2673 0.35998 0.31609 0.0
C776 C 0.25588 0.36775 0.29923 0.0
C777 C 0.28734 0.3438 0.34572 0.0
C778 C 0.27 0.33693 0.36401 0.0
C779 C 0.26018 0.34505 0.3485 0.0
C780 C 0.26126 0.32043 0.39455 0.0
C781 C 0.29818 0.3351 0.35802 0.0
C782 C 0.24599 0.30567 0.36655 0.0
C783 C 0.23861 0.28949 0.39101 0.0
C784 C 0.24627 0.28765 0.44431 0.0
C785 C 0.26089 0.30268 0.47449 0.0
C786 C 0.26835 0.31897 0.44971 0.0
H787 H 0.3095 0.33966 0.33004 0.0
H788 H 0.30364 0.33841 0.40511 0.0
H789 H 0.28984 0.32052 0.35014 0.0
H790 H 0.24018 0.30647 0.32431 0.0
H791 H 0.22724 0.2782 0.36686 0.0
H792 H 0.97868 0.37817 0.81517 0.0
H793 H 1.00921 0.3932 0.86295 0.0
H794 H 0.9923 0.41154 0.01244 0.0
H795 H 0.96216 0.39691 0.96522 0.0
H796 H 0.02477 0.4372 0.97709 0.0
H797 H 0.02291 0.37374 0.00644 0.0
H798 H 0.01856 0.37762 0.93203 0.0
H799 H 1.0032 0.37473 0.98599 0.0
C800 C 0.9816 0.3857 0.85768 0.0
C801 C 0.96801 0.38623 0.88669 0.0
C802 C 0.99897 0.39411 0.88517 0.0
C803 C 1.00293 0.40321 0.94176 0.0
C804 C 0.98954 0.40451 0.96902 0.0
H805 H 0.08232 0.43091 0.23233 0.0
H806 H 0.05562 0.41742 0.16204 0.0
C807 C 0.97229 0.39609 0.94193 0.0
C808 C 0.0207 0.41089 0.97458 0.0
H809 H 0.04841 0.39976 0.04772 0.0
C810 C 0.03007 0.42906 0.99195 0.0
C811 C 0.02738 0.40017 0.99479 0.0
C812 C 0.0175 0.38046 0.97939 0.0
C813 C 0.04579 0.43678 0.02979 0.0
C814 C 0.05249 0.42607 0.05003 0.0
C815 C 0.04327 0.40793 0.03197 0.0
C816 C 0.0688 0.43345 0.09126 0.0
C817 C 0.0547 0.45623 0.04958 0.0
C818 C 0.08508 0.44663 0.07433 0.0
C819 C 0.1002 0.45438 0.11438 0.0
C820 C 0.0994 0.44898 0.17195 0.0
C821 C 0.08325 0.43538 0.18835 0.0
C822 C 0.06805 0.42765 0.14822 0.0
H823 H 0.04563 0.46153 0.04206 0.0
H824 H 0.05946 0.4588 0.09733 0.0
H825 H 0.06633 0.46359 0.02395 0.0
H826 H 0.08606 0.45106 0.03029 0.0
H827 H 0.1125 0.46479 0.1004 0.0
H828 H 0.67289 0.61043 0.88518 0.0
H829 H 0.65538 0.62139 0.93301 0.0
H830 H 0.60731 0.57713 0.84698 0.0
H831 H 0.625 0.56598 0.79947 0.0
H832 H 0.63103 0.63079 0.89549 0.0
H833 H 0.60005 0.57172 0.02324 0.0
H834 H 0.61864 0.57674 0.98055 0.0
H835 H 0.59669 0.56729 0.94403 0.0
C836 C 0.65861 0.60337 0.87504 0.0
C837 C 0.65024 0.58754 0.83821 0.0
C838 C 0.64862 0.60956 0.90267 0.0
C839 C 0.63002 0.5999 0.89458 0.0
C840 C 0.62164 0.58462 0.85468 0.0
H841 H 0.55856 0.63007 0.04319 0.0
H842 H 0.57068 0.61433 0.98863 0.0
C843 C 0.63171 0.57841 0.82679 0.0
C844 C 0.61972 0.60549 0.931 0.0
H845 H 0.59203 0.59338 0.04261 0.0
C846 C 0.62242 0.62256 0.92736 0.0
C847 C 0.60866 0.59481 0.97322 0.0
C848 C 0.6059 0.57667 0.98111 0.0
C849 C 0.61442 0.62924 0.96473 0.0
C850 C 0.60348 0.61861 0.00694 0.0
C851 C 0.60052 0.60147 0.01027 0.0
C852 C 0.59479 0.62523 0.04682 0.0
C853 C 0.61774 0.64769 0.95937 0.0
C854 C 0.60403 0.63593 0.09914 0.0
C855 C 0.59706 0.64485 0.1309 0.0
C856 C 0.58086 0.64329 0.11013 0.0
C857 C 0.57109 0.63152 0.06018 0.0
C858 C 0.57798 0.62254 0.02889 0.0
H859 H 0.62616 0.65409 0.92299 0.0
H860 H 0.60492 0.64734 0.95118 0.0
H861 H 0.62441 0.65593 1.00164 0.0
H862 H 0.61708 0.63816 0.11344 0.0
H863 H 0.60497 0.65399 0.16874 0.0
H864 H 0.47697 0.09267 0.96834 0.0
H865 H 0.46666 0.06482 0.01166 0.0
H866 H 0.42577 0.03821 0.86744 0.0
H867 H 0.43588 0.0665 0.82411 0.0
H868 H 0.41263 0.03111 0.97521 0.0
H869 H 0.47073 0.02189 0.97358 0.0
H870 H 0.47669 0.04331 0.00687 0.0
H871 H 0.46858 0.03741 0.92977 0.0
C872 C 0.46598 0.08085 0.94503 0.0
C873 C 0.45717 0.08178 0.89287 0.0
C874 C 0.46019 0.06487 0.96973 0.0
C875 C 0.44556 0.04935 0.94262 0.0
C876 C 0.43717 0.05003 0.88896 0.0
H877 H 0.40693 0.94561 0.0606 0.0
H878 H 0.4223 0.97307 0.01378 0.0
C879 C 0.44302 0.06614 0.86397 0.0
C880 C 0.43815 0.03299 0.97387 0.0
H881 H 0.4495 1.00584 0.04249 0.0
C882 C 0.42063 0.02546 0.98938 0.0
C883 C 0.44857 0.02559 0.9923 0.0
C884 C 0.46712 0.03237 0.97422 0.0
C885 C 0.41334 0.01096 0.02367 0.0
C886 C 0.42403 1.00408 0.04441 0.0
C887 C 0.44144 0.01138 0.02784 0.0
C888 C 0.41685 0.98828 0.07865 0.0
C889 C 0.39413 1.00293 0.0362 0.0
C890 C 0.40945 0.98787 0.13266 0.0
C891 C 0.40054 0.97204 0.15975 0.0
C892 C 0.39901 0.95648 0.13316 0.0
C893 C 0.40772 0.95735 0.08187 0.0
C894 C 0.41653 0.97306 0.05496 0.0
H895 H 0.38674 0.00696 0.00552 0.0
H896 H 0.3874 0.98829 0.03232 0.0
H897 H 0.39343 0.00744 0.08204 0.0
H898 H 0.40995 0.99961 0.15258 0.0
H899 H 0.39393 0.97176 0.19914 0.0
H900 H 0.64889 0.06938 0.80114 0.0
H901 H 0.63173 0.04099 0.84399 0.0
H902 H 0.62073 0.06724 0.98757 0.0
H903 H 0.63727 0.09519 0.94485 0.0
H904 H 0.63981 0.03342 0.95306 0.0
H905 H 0.57244 0.02452 0.94466 0.0
H906 H 0.58947 0.04006 0.90216 0.0
H907 H 0.58879 0.04584 0.97893 0.0
C908 C 0.64236 0.06894 0.84087 0.0
C909 C 0.64446 0.08451 0.86962 0.0
C910 C 0.63268 0.05277 0.86557 0.0
C911 C 0.62478 0.05194 0.91879 0.0
C912 C 0.62634 0.06741 0.94598 0.0
H913 H 0.60228 0.97404 0.17612 0.0
H914 H 0.61382 1.0017 0.12809 0.0
C915 C 0.63597 0.08345 0.9216 0.0
C916 C 0.61621 0.03542 0.9492 0.0
H917 H 0.57861 0.00806 0.01384 0.0
C918 C 0.62636 0.02775 0.96581 0.0
C919 C 0.59863 0.02798 0.96573 0.0
C920 C 0.58665 0.03493 0.9464 0.0
C921 C 0.61958 0.0131 0.9995 0.0
C922 C 0.60229 0.00618 0.0184 0.0
C923 C 0.59199 0.0136 1.00058 0.0
C924 C 0.59416 0.99037 0.05255 0.0
C925 C 0.63088 1.00498 0.01353 0.0
C926 C 0.57864 0.97517 0.02818 0.0
C927 C 0.57191 0.95954 0.05588 0.0
C928 C 0.58053 0.95871 0.10872 0.0
C929 C 0.59533 0.97426 0.13555 0.0
C930 C 0.60208 0.98999 0.10766 0.0
H931 H 0.64177 0.00903 0.9839 0.0
H932 H 0.63697 0.0094 0.05979 0.0
H933 H 0.62275 0.99035 0.00933 0.0
H934 H 0.57217 0.97515 0.98612 0.0
H935 H 0.56038 0.94785 0.03426 0.0
H936 H 0.08321 0.63005 0.19902 0.0
H937 H 0.05714 0.61131 0.12867 0.0
H938 H 0.06944 0.656 0.0292 0.0
H939 H 0.09519 0.67472 0.09935 0.0
H940 H 0.0285 0.61828 0.10338 0.0
H941 H 0.06083 0.61633 0.90089 0.0
H942 H 0.07223 0.62192 0.97432 0.0
H943 H 0.06906 0.63794 0.93788 0.0
C944 C 0.08039 0.63579 0.16185 0.0
C945 C 0.09125 0.6538 0.15446 0.0
C946 C 0.06556 0.6251 0.12168 0.0
C947 C 0.06154 0.63221 0.07314 0.0
C948 C 0.0725 0.65015 0.06552 0.0
H949 H 0.97427 0.60074 0.80684 0.0
H950 H 1.00371 0.61423 0.86149 0.0
C951 C 0.08718 0.66084 0.10583 0.0
C952 C 0.04514 0.62133 0.03306 0.0
H953 H 0.02978 0.60579 0.88844 0.0
C954 C 0.02875 0.61534 0.05653 0.0
C955 C 0.04556 0.61779 0.9718 0.0
C956 C 0.06285 0.62369 0.94459 0.0
C957 C 0.01274 0.6063 0.02023 0.0
C958 C 0.01308 0.60261 0.95887 0.0
C959 C 0.02951 0.6085 0.93542 0.0
C960 C 0.99646 0.59308 0.91865 0.0
C961 C 0.99566 0.60144 0.04773 0.0
C962 C 0.98296 0.57628 0.93022 0.0
C963 C 0.96616 0.5687 0.89962 0.0
C964 C 0.96267 0.57756 0.85579 0.0
C965 C 0.97664 0.59357 0.84012 0.0
C966 C 0.99343 0.60132 0.87156 0.0
H967 H 0.99808 0.60941 0.09044 0.0
H968 H 0.98646 0.60334 0.01755 0.0
H969 H 0.98903 0.58734 0.05678 0.0
H970 H 0.98514 0.56943 0.96511 0.0
H971 H 0.95565 0.55627 0.91227 0.0
H972 H 0.3622 0.43565 0.08384 0.0
H973 H 0.37636 0.42538 0.01435 0.0
H974 H 0.42777 0.46342 0.1007 0.0
H975 H 0.41364 0.47379 0.17046 0.0
H976 H 0.40305 0.44367 0.93442 0.0
H977 H 0.42519 0.41531 0.11007 0.0
H978 H 0.40876 0.42171 0.12036 0.0
H979 H 0.43191 0.43817 0.12552 0.0
C980 C 0.37654 0.44191 0.08777 0.0
C981 C 0.38684 0.45548 0.13269 0.0
C982 C 0.3846 0.43605 0.04794 0.0
C983 C 0.40309 0.44351 0.0527 0.0
C984 C 0.41345 0.45734 0.09673 0.0
H985 H 0.47397 0.4143 0.90027 0.0
H986 H 0.46134 0.431 0.94472 0.0
C987 C 0.40539 0.46325 0.1365 0.0
C988 C 0.41144 0.43625 0.0134 0.0
H989 H 0.43487 0.41471 0.01543 0.0
C990 C 0.41005 0.43735 0.95197 0.0
C991 C 0.42039 0.42787 0.03641 0.0
C992 C 0.42156 0.42551 0.1016 0.0
C993 C 0.41777 0.43064 0.91307 0.0
C994 C 0.42686 0.4224 0.93626 0.0
C995 C 0.42806 0.42119 0.99765 0.0
C996 C 0.43524 0.41474 0.89857 0.0
C997 C 0.41644 0.43274 0.84781 0.0
C998 C 0.42502 0.40052 0.85553 0.0
C999 C 0.43237 0.39111 0.82912 0.0
C1000 C 0.44992 0.39564 0.84627 0.0
C1001 C 0.46041 0.41059 0.88615 0.0
C1002 C 0.45318 0.42008 0.91179 0.0
H1003 H 0.41336 0.44332 0.83929 0.0
H1004 H 0.42897 0.43584 0.82824 0.0
H1005 H 0.4056 0.42018 0.82484 0.0
H1006 H 0.41106 0.39593 0.84537 0.0
H1007 H 0.42392 0.37944 0.79934 0.0
H1008 H 0.07853 0.25693 0.47837 0.0
H1009 H 0.10111 0.25022 0.4488 0.0
H1010 H 0.06183 0.19484 0.42284 0.0
H1011 H 0.03887 0.20164 0.45212 0.0
H1012 H 0.09338 0.20382 0.49951 0.0
H1013 H 0.11127 0.23438 0.28821 0.0
H1014 H 0.10997 0.24862 0.3449 0.0
H1015 H 0.0903 0.22823 0.31781 0.0
C1016 C 0.07457 0.24335 0.46498 0.0
C1017 C 0.05693 0.22982 0.46729 0.0
C1018 C 0.08751 0.23953 0.44788 0.0
C1019 C 0.08321 0.22205 0.43298 0.0
C1020 C 0.06544 0.20845 0.43362 0.0
H1021 H 0.17287 0.20035 0.44144 0.0
H1022 H 0.14209 0.19363 0.41718 0.0
C1023 C 0.05233 0.21234 0.44998 0.0
C1024 C 0.09779 0.21829 0.42255 0.0
H1025 H 0.13405 0.23169 0.34371 0.0
C1026 C 0.10202 0.20944 0.46445 0.0
C1027 C 0.10909 0.22566 0.37689 0.0
C1028 C 0.10485 0.23461 0.32903 0.0
C1029 C 0.11798 0.20905 0.46481 0.0
C1030 C 0.12989 0.21747 0.42138 0.0
C1031 C 0.125 0.22523 0.37706 0.0
C1032 C 0.14851 0.22092 0.42692 0.0
C1033 C 0.1226 0.20084 0.5144 0.0
C1034 C 0.16246 0.23844 0.43736 0.0
C1035 C 0.17985 0.24223 0.45074 0.0
C1036 C 0.18385 0.22864 0.45353 0.0
C1037 C 0.17017 0.21109 0.43916 0.0
C1038 C 0.15257 0.20725 0.42606 0.0
H1039 H 0.1131 0.19707 0.549 0.0
H1040 H 0.12243 0.18878 0.49616 0.0
H1041 H 0.13615 0.21012 0.53556 0.0
H1042 H 0.15977 0.24924 0.43812 0.0
H1043 H 0.19013 0.25588 0.46157 0.0
H1044 H 0.79865 0.96967 0.40106 0.0
H1045 H 0.80091 0.94292 0.3902 0.0
H1046 H 0.82458 0.95364 0.56986 0.0
H1047 H 0.82278 0.98043 0.58069 0.0
H1048 H 0.84107 0.94223 0.49551 0.0
H1049 H 0.76801 0.89746 0.46134 0.0
H1050 H 0.77712 0.91374 0.40895 0.0
H1051 H 0.77795 0.92058 0.48565 0.0
C1052 C 0.80452 0.96644 0.43805 0.0
C1053 C 0.8104 0.97721 0.4919 0.0
C1054 C 0.80565 0.95103 0.43195 0.0
C1055 C 0.81257 0.94601 0.47965 0.0
C1056 C 0.81909 0.95712 0.53249 0.0
H1057 H 0.82202 0.85812 0.58816 0.0
H1058 H 0.82402 0.88656 0.57665 0.0
C1059 C 0.81801 0.97249 0.53859 0.0
C1060 C 0.81273 0.92906 0.47577 0.0
H1061 H 0.78568 0.88417 0.45863 0.0
C1062 C 0.82896 0.92954 0.48715 0.0
C1063 C 0.79694 0.91244 0.46495 0.0
C1064 C 0.77898 0.91092 0.45502 0.0
C1065 C 0.82981 0.91396 0.48841 0.0
C1066 C 0.81398 0.89738 0.47879 0.0
C1067 C 0.79782 0.89687 0.46594 0.0
C1068 C 0.81377 0.88042 0.48445 0.0
C1069 C 0.84767 0.9154 0.49986 0.0
C1070 C 0.80719 0.86736 0.43664 0.0
C1071 C 0.80601 0.85101 0.44306 0.0
C1072 C 0.8112 0.84727 0.49772 0.0
C1073 C 0.81798 0.86049 0.54532 0.0
C1074 C 0.81922 0.87685 0.53875 0.0
H1075 H 0.85863 0.92843 0.48963 0.0
H1076 H 0.8498 0.91395 0.54738 0.0
H1077 H 0.84837 0.90485 0.47312 0.0
H1078 H 0.8028 0.86975 0.39441 0.0
H1079 H 0.80063 0.84116 0.40547 0.0
H1080 H 0.05302 0.84386 0.41017 0.0
H1081 H 0.07974 0.87194 0.39718 0.0
H1082 H 0.08866 0.8847 0.58619 0.0
H1083 H 0.06187 0.85674 0.5998 0.0
H1084 H 0.08967 0.91025 0.45213 0.0
H1085 H 0.13494 0.88534 0.51742 0.0
H1086 H 0.11223 0.87077 0.48754 0.0
H1087 H 0.11688 0.88055 0.56233 0.0
C1088 C 0.06052 0.85269 0.44906 0.0
C1089 C 0.05522 0.84796 0.50611 0.0
C1090 C 0.07581 0.86876 0.44146 0.0
C1091 C 0.08625 0.88036 0.4907 0.0
C1092 C 0.08082 0.87591 0.54757 0.0
H1093 H 0.17309 0.98416 0.57276 0.0
H1094 H 0.14386 0.95784 0.55058 0.0
C1095 C 0.06544 0.85992 0.55523 0.0
C1096 C 0.10311 0.89687 0.48303 0.0
H1097 H 0.14821 0.91577 0.50442 0.0
C1098 C 0.10247 0.91143 0.46305 0.0
C1099 C 0.11981 0.89833 0.49657 0.0
C1100 C 0.12117 0.88293 0.51686 0.0
C1101 C 0.11812 0.92763 0.45854 0.0
C1102 C 0.13483 0.92931 0.47435 0.0
C1103 C 0.13544 0.9145 0.49204 0.0
C1104 C 0.15168 0.94667 0.47912 0.0
C1105 C 0.1167 0.94293 0.43763 0.0
C1106 C 0.16581 0.94948 0.44525 0.0
C1107 C 0.18256 0.96484 0.45713 0.0
C1108 C 0.18546 0.97737 0.50389 0.0
C1109 C 0.17111 0.97487 0.53571 0.0
C1110 C 0.15439 0.95979 0.52319 0.0
H1111 H 0.10368 0.93843 0.41255 0.0
H1112 H 0.11802 0.9518 0.47664 0.0
H1113 H 0.12746 0.95069 0.40914 0.0
H1114 H 0.16408 0.93945 0.41141 0.0
H1115 H 0.19352 0.96622 0.43304 0.0
H1116 H 0.23322 0.19027 0.60375 0.0
H1117 H 0.23297 0.16257 0.61667 0.0
H1118 H 0.20868 0.14291 0.43849 0.0
H1119 H 0.20913 0.17051 0.42483 0.0
H1120 H 0.20628 0.12708 0.6081 0.0
H1121 H 0.25287 0.13859 0.43637 0.0
H1122 H 0.2489 0.15562 0.46631 0.0
H1123 H 0.23355 0.13923 0.40939 0.0
C1124 C 0.22768 0.17999 0.56745 0.0
C1125 C 0.22136 0.18275 0.513 0.0
C1126 C 0.22757 0.16416 0.57492 0.0
C1127 C 0.22118 0.15078 0.52812 0.0
C1128 C 0.21411 0.15319 0.47478 0.0
H1129 H 0.20935 0.04838 0.45082 0.0
H1130 H 0.20778 0.07535 0.45624 0.0
C1131 C 0.21429 0.16899 0.46716 0.0
C1132 C 0.22225 0.13447 0.53408 0.0
H1133 H 0.23825 0.10978 0.46969 0.0
C1134 C 0.2134 0.12336 0.5782 0.0
C1135 C 0.23168 0.12965 0.49544 0.0
C1136 C 0.24244 0.14148 0.44961 0.0
C1137 C 0.21313 0.10727 0.58306 0.0
C1138 C 0.22208 0.10224 0.54312 0.0
C1139 C 0.23126 0.11355 0.5 0.0
C1140 C 0.22169 0.08507 0.54354 0.0
C1141 C 0.20282 0.0955 0.62958 0.0
C1142 C 0.22986 0.08135 0.59125 0.0
C1143 C 0.23082 0.06583 0.58832 0.0
C1144 C 0.22368 0.05374 0.53749 0.0
C1145 C 0.21504 0.05731 0.4907 0.0
C1146 C 0.21413 0.07279 0.49363 0.0
H1147 H 0.19393 0.09962 0.64938 0.0
H1148 H 0.19471 0.08158 0.61044 0.0
H1149 H 0.21223 0.09607 0.66554 0.0
H1150 H 0.23602 0.09074 0.62991 0.0
H1151 H 0.23767 0.06361 0.62503 0.0
H1152 H 0.83973 0.06354 0.609 0.0
H1153 H 0.86877 0.09059 0.63346 0.0
H1154 H 0.89098 0.07335 0.49786 0.0
H1155 H 0.86213 0.04669 0.47293 0.0
H1156 H 0.91493 0.09273 0.60968 0.0
H1157 H 0.88297 0.12627 0.49859 0.0
H1158 H 0.87231 0.11314 0.55821 0.0
H1159 H 0.87335 0.10261 0.48991 0.0
C1160 C 0.85104 0.0652 0.58646 0.0
C1161 C 0.8488 0.05299 0.53952 0.0
C1162 C 0.86756 0.08072 0.59995 0.0
C1163 C 0.88201 0.08405 0.56706 0.0
C1164 C 0.88008 0.07106 0.52391 0.0
H1165 H 0.96908 0.17201 0.43593 0.0
H1166 H 0.94325 0.14427 0.45624 0.0
C1167 C 0.86361 0.05578 0.5099 0.0
C1168 C 0.89827 0.10181 0.57082 0.0
H1169 H 0.91371 0.14282 0.52243 0.0
C1170 C 0.91466 0.10381 0.59174 0.0
C1171 C 0.89793 0.11615 0.54631 0.0
C1172 C 0.88076 0.11457 0.5216 0.0
C1173 C 0.93071 0.1197 0.58787 0.0
C1174 C 0.93034 0.13385 0.56204 0.0
C1175 C 0.91394 0.13196 0.54235 0.0
C1176 C 0.94684 0.1503 0.55123 0.0
C1177 C 0.94803 0.12105 0.60904 0.0
C1178 C 0.95758 0.16291 0.598 0.0
C1179 C 0.9724 0.17891 0.58654 0.0
C1180 C 0.9768 0.18259 0.52803 0.0
C1181 C 0.96621 0.16969 0.48154 0.0
C1182 C 0.95137 0.1538 0.49302 0.0
H1183 H 0.9462 0.1083 0.62251 0.0
H1184 H 0.95726 0.12548 0.5736 0.0
H1185 H 0.95435 0.13108 0.64762 0.0
H1186 H 0.95425 0.16056 0.64323 0.0
H1187 H 0.98018 0.18852 0.62348 0.0
H1188 H 0.97391 0.79323 0.61838 0.0
H1189 H 0.94788 0.79506 0.64479 0.0
H1190 H 0.95511 0.82879 0.5046 0.0
H1191 H 0.9812 0.82734 0.47913 0.0
H1192 H 0.9452 0.83953 0.60349 0.0
H1193 H 0.90051 0.76736 0.54659 0.0
H1194 H 0.91805 0.77351 0.60385 0.0
H1195 H 0.92332 0.77871 0.52934 0.0
C1196 C 0.97009 0.80126 0.59392 0.0
C1197 C 0.9795 0.80999 0.54623 0.0
C1198 C 0.9551 0.80217 0.60867 0.0
C1199 C 0.94921 0.81172 0.57579 0.0
C1200 C 0.95925 0.82123 0.53045 0.0
H1201 H 0.86385 0.82347 0.46373 0.0
H1202 H 0.8925 0.82694 0.49684 0.0
C1203 C 0.97419 0.82038 0.51587 0.0
C1204 C 0.93221 0.81128 0.5857 0.0
H1205 H 0.88711 0.78401 0.57005 0.0
C1206 C 0.93252 0.82734 0.59708 0.0
C1207 C 0.91557 0.79539 0.57755 0.0
C1208 C 0.91421 0.77775 0.56321 0.0
C1209 C 0.91676 0.828 0.59804 0.0
C1210 C 0.90018 0.81224 0.58686 0.0
C1211 C 0.89982 0.79609 0.57895 0.0
C1212 C 0.88335 0.81242 0.57392 0.0
C1213 C 0.91799 0.84567 0.60926 0.0
C1214 C 0.86859 0.80332 0.60674 0.0
C1215 C 0.8521 0.80157 0.58821 0.0
C1216 C 0.85013 0.80854 0.53587 0.0
C1217 C 0.86506 0.81816 0.50464 0.0
C1218 C 0.88148 0.82016 0.52358 0.0
H1219 H 0.93064 0.85535 0.63527 0.0
H1220 H 0.91758 0.85096 0.5662 0.0
H1221 H 0.90672 0.84448 0.6333 0.0
H1222 H 0.86967 0.79706 0.64538 0.0
H1223 H 0.84069 0.79378 0.61237 0.0
H1224 H 0.85828 0.56256 0.69398 0.0
H1225 H 0.82918 0.56063 0.68676 0.0
H1226 H 0.81943 0.54041 0.85828 0.0
H1227 H 0.84823 0.54224 0.86607 0.0
H1228 H 0.79266 0.53041 0.70047 0.0
H1229 H 0.81648 0.58672 0.87218 0.0
H1230 H 0.83142 0.58226 0.83243 0.0
H1231 H 0.82053 0.56941 0.89209 0.0
C1232 C 0.84984 0.55746 0.72978 0.0
C1233 C 0.85572 0.55273 0.78086 0.0
C1234 C 0.83323 0.55639 0.72559 0.0
C1235 C 0.8223 0.55064 0.77242 0.0
C1236 C 0.82778 0.54513 0.82204 0.0
H1237 H 0.72678 0.54699 0.87626 0.0
H1238 H 0.75317 0.54436 0.86759 0.0
C1239 C 0.84428 0.54617 0.82628 0.0
C1240 C 0.80553 0.55111 0.77134 0.0
H1241 H 0.78566 0.57083 0.84307 0.0
C1242 C 0.79111 0.53931 0.73127 0.0
C1243 C 0.80359 0.56273 0.81167 0.0
C1244 C 0.81885 0.57612 0.85427 0.0
C1245 C 0.77458 0.53847 0.73173 0.0
C1246 C 0.77258 0.54996 0.77265 0.0
C1247 C 0.78714 0.56193 0.81203 0.0
C1248 C 0.75559 0.54995 0.77568 0.0
C1249 C 0.75929 0.52492 0.68967 0.0
C1250 C 0.74804 0.55382 0.72677 0.0
C1251 C 0.73288 0.55526 0.73149 0.0
C1252 C 0.72504 0.55304 0.78547 0.0
C1253 C 0.73243 0.54879 0.83402 0.0
C1254 C 0.74755 0.5473 0.82917 0.0
H1255 H 0.76155 0.51414 0.67315 0.0
H1256 H 0.74668 0.51906 0.71129 0.0
H1257 H 0.75778 0.5314 0.65087 0.0
H1258 H 0.7542 0.5563 0.68542 0.0
H1259 H 0.72766 0.55866 0.69325 0.0
H1260 H 0.48476 0.31694 0.89656 0.0
H1261 H 0.48675 0.29018 0.89183 0.0
H1262 H 0.46584 0.27831 0.70863 0.0
H1263 H 0.46392 0.30525 0.71264 0.0
H1264 H 0.45795 0.2559 0.86542 0.0
H1265 H 0.5092 0.27144 0.70663 0.0
H1266 H 0.50603 0.28824 0.74371 0.0
H1267 H 0.49089 0.2742 0.68218 0.0
C1268 C 0.48075 0.3088 0.85493 0.0
C1269 C 0.47415 0.31331 0.80496 0.0
C1270 C 0.4819 0.29346 0.85238 0.0
C1271 C 0.4766 0.28231 0.79979 0.0
C1272 C 0.4703 0.28687 0.74942 0.0
H1273 H 0.46783 0.17866 0.73424 0.0
H1274 H 0.46793 0.20631 0.72182 0.0
C1275 C 0.46913 0.30225 0.75191 0.0
C1276 C 0.47667 0.26541 0.79935 0.0
H1277 H 0.49551 0.24278 0.73966 0.0
C1278 C 0.46617 0.25304 0.8379 0.0
C1279 C 0.48727 0.26162 0.76301 0.0
C1280 C 0.49911 0.27459 0.72179 0.0
C1281 C 0.46604 0.23707 0.84146 0.0
C1282 C 0.47699 0.23347 0.80636 0.0
C1283 C 0.4872 0.24561 0.76671 0.0
C1284 C 0.47834 0.21737 0.81197 0.0
C1285 C 0.45405 0.22411 0.88254 0.0
C1286 C 0.48469 0.21467 0.86614 0.0
C1287 C 0.48464 0.19894 0.87343 0.0
C1288 C 0.47833 0.18557 0.82652 0.0
C1289 C 0.47274 0.18865 0.77136 0.0
C1290 C 0.47277 0.20443 0.76415 0.0
H1291 H 0.44316 0.22655 0.89358 0.0
H1292 H 0.44813 0.21031 0.86262 0.0
H1293 H 0.46193 0.22552 0.92451 0.0
H1294 H 0.48939 0.22463 0.90328 0.0
H1295 H 0.48922 0.19715 0.91637 0.0
H1296 H 0.72645 0.18056 0.71065 0.0
H1297 H 0.75389 0.20797 0.69768 0.0
H1298 H 0.75301 0.22892 0.87269 0.0
H1299 H 0.72581 0.20157 0.8865 0.0
H1300 H 0.76368 0.24397 0.70376 0.0
H1301 H 0.80099 0.23121 0.88035 0.0
H1302 H 0.77918 0.21454 0.84864 0.0
H1303 H 0.7817 0.23107 0.90477 0.0
C1304 C 0.73197 0.19107 0.74619 0.0
C1305 C 0.72399 0.18875 0.79993 0.0
C1306 C 0.74768 0.20673 0.73865 0.0
C1307 C 0.75572 0.22035 0.78467 0.0
C1308 C 0.74728 0.21843 0.83707 0.0
H1309 H 0.84844 0.3211 0.86895 0.0
H1310 H 0.81896 0.29496 0.85673 0.0
C1311 C 0.73165 0.20279 0.84478 0.0
C1312 C 0.77327 0.23626 0.77929 0.0
H1313 H 0.81545 0.25996 0.84656 0.0
C1314 C 0.77506 0.2474 0.73458 0.0
C1315 C 0.78819 0.24062 0.81906 0.0
C1316 C 0.78753 0.22865 0.86553 0.0
C1317 C 0.79116 0.26319 0.7304 0.0
C1318 C 0.8058 0.26784 0.77174 0.0
C1319 C 0.80414 0.25643 0.8152 0.0
C1320 C 0.82276 0.28485 0.77325 0.0
C1321 C 0.7923 0.27511 0.68327 0.0
C1322 C 0.8346 0.28811 0.72947 0.0
C1323 C 0.85163 0.30317 0.73632 0.0
C1324 C 0.85708 0.3151 0.78729 0.0
C1325 C 0.84479 0.31217 0.82933 0.0
C1326 C 0.82788 0.29721 0.82246 0.0
H1327 H 0.77916 0.27074 0.65937 0.0
H1328 H 0.79788 0.28886 0.70325 0.0
H1329 H 0.80138 0.27521 0.65062 0.0
H1330 H 0.83098 0.27863 0.69144 0.0
H1331 H 0.86079 0.30496 0.70333 0.0
H1332 H 0.87876 0.49942 0.72963 0.0
H1333 H 0.87639 0.47189 0.75711 0.0
H1334 H 0.90913 0.49889 0.91942 0.0
H1335 H 0.91088 0.5265 0.89274 0.0
H1336 H 0.90448 0.46834 0.76449 0.0
H1337 H 0.87385 0.4521 0.97732 0.0
H1338 H 0.87254 0.46784 0.93217 0.0
H1339 H 0.89236 0.47417 0.97924 0.0
C1340 C 0.88494 0.49936 0.77216 0.0
C1341 C 0.89495 0.51505 0.80913 0.0
C1342 C 0.88364 0.48361 0.78779 0.0
C1343 C 0.89257 0.48318 0.84038 0.0
C1344 C 0.90181 0.4987 0.87917 0.0
H1345 H 0.93594 0.41481 0.8642 0.0
H1346 H 0.92999 0.43913 0.8762 0.0
C1347 C 0.90285 0.51451 0.86391 0.0
C1348 C 0.89415 0.46726 0.84937 0.0
H1349 H 0.88799 0.4361 0.94507 0.0
C1350 C 0.90069 0.46125 0.80387 0.0
C1351 C 0.88922 0.45789 0.90061 0.0
C1352 C 0.88144 0.4632 0.94993 0.0
C1353 C 0.9026 0.4464 0.8082 0.0
C1354 C 0.89823 0.43737 0.86008 0.0
C1355 C 0.89142 0.4431 0.90547 0.0
C1356 C 0.90144 0.42241 0.86746 0.0
C1357 C 0.90933 0.44048 0.75696 0.0
C1358 C 0.88735 0.40482 0.86188 0.0
C1359 C 0.89075 0.39077 0.85575 0.0
C1360 C 0.90829 0.39424 0.85463 0.0
C1361 C 0.9223 0.41178 0.86483 0.0
C1362 C 0.91892 0.42569 0.87161 0.0
H1363 H 0.90819 0.4462 0.71556 0.0
H1364 H 0.92354 0.44483 0.76777 0.0
H1365 H 0.90191 0.42587 0.7487 0.0
H1366 H 0.87374 0.402 0.85838 0.0
H1367 H 0.87971 0.37738 0.84736 0.0
H1368 H 0.5063 0.40527 0.89019 0.0
H1369 H 0.53528 0.4327 0.90409 0.0
H1370 H 0.55808 0.4078 0.80037 0.0
H1371 H 0.52928 0.38056 0.78588 0.0
H1372 H 0.57255 0.44199 0.94468 0.0
H1373 H 0.56237 0.4495 0.70685 0.0
H1374 H 0.54454 0.43453 0.74812 0.0
H1375 H 0.56003 0.42856 0.72148 0.0
C1376 C 0.51762 0.40552 0.87173 0.0
C1377 C 0.5155 0.39082 0.8364 0.0
C1378 C 0.53415 0.42121 0.87958 0.0
C1379 C 0.54876 0.42238 0.85236 0.0
C1380 C 0.54694 0.40727 0.82107 0.0
H1381 H 0.65105 0.50077 0.76057 0.0
H1382 H 0.62424 0.47403 0.78183 0.0
C1383 C 0.53048 0.39169 0.81301 0.0
C1384 C 0.56539 0.43966 0.85116 0.0
H1385 H 0.59082 0.46907 0.75537 0.0
C1386 C 0.57653 0.44802 0.90348 0.0
C1387 C 0.57048 0.44758 0.79743 0.0
C1388 C 0.55868 0.43971 0.7403 0.0
C1389 C 0.593 0.46374 0.90287 0.0
C1390 C 0.5983 0.47134 0.84866 0.0
C1391 C 0.58687 0.46318 0.79684 0.0
C1392 C 0.6158 0.48743 0.84339 0.0
C1393 C 0.60485 0.47175 0.95971 0.0
C1394 C 0.62029 0.50391 0.87201 0.0
C1395 C 0.63576 0.5193 0.86008 0.0
C1396 C 0.64688 0.51845 0.81885 0.0
C1397 C 0.64274 0.50187 0.79239 0.0
C1398 C 0.62739 0.48656 0.80446 0.0
H1399 H 0.60071 0.46233 0.99446 0.0
H1400 H 0.61886 0.47614 0.95206 0.0
H1401 H 0.60421 0.48349 0.97659 0.0
H1402 H 0.61144 0.50501 0.90146 0.0
H1403 H 0.63855 0.53191 0.8809 0.0
H1404 H 0.6205 0.11608 0.83663 0.0
H1405 H 0.59846 0.12281 0.87198 0.0
H1406 H 0.63934 0.1769 0.91914 0.0
H1407 H 0.66175 0.17009 0.88381 0.0
H1408 H 0.59654 0.13915 0.9874 0.0
H1409 H 0.60201 0.17798 0.79459 0.0
H1410 H 0.61014 0.16268 0.79406 0.0
H1411 H 0.62178 0.18307 0.84014 0.0
C1412 C 0.62489 0.12937 0.85538 0.0
C1413 C 0.64281 0.1426 0.85711 0.0
C1414 C 0.61226 0.13318 0.87569 0.0
C1415 C 0.61719 0.15038 0.89762 0.0
C1416 C 0.63524 0.16356 0.90196 0.0
H1417 H 0.52676 0.16934 0.89667 0.0
H1418 H 0.55764 0.17676 0.92329 0.0
C1419 C 0.64802 0.15965 0.88216 0.0
C1420 C 0.60294 0.15426 0.9115 0.0
H1421 H 0.57704 0.16902 0.84771 0.0
C1422 C 0.59252 0.14609 0.95783 0.0
C1423 C 0.59773 0.16339 0.87316 0.0
C1424 C 0.60839 0.17229 0.82247 0.0
C1425 C 0.57649 0.14587 0.96454 0.0
C1426 C 0.57047 0.15364 0.92298 0.0
C1427 C 0.58159 0.16302 0.87955 0.0
C1428 C 0.55168 0.14961 0.91729 0.0
C1429 C 0.5658 0.13667 0.01478 0.0
C1430 C 0.53805 0.13196 0.90603 0.0
C1431 C 0.52063 0.12779 0.89076 0.0
C1432 C 0.51634 0.14113 0.88638 0.0
C1433 C 0.5297 0.1588 0.90068 0.0
C1434 C 0.54732 0.16303 0.91545 0.0
H1435 H 0.57461 0.13769 0.05372 0.0
H1436 H 0.55747 0.14227 0.02857 0.0
H1437 H 0.55699 0.12244 1.00038 0.0
H1438 H 0.54102 0.12136 0.9056 0.0
H1439 H 0.5106 0.11407 0.87949 0.0
H1440 H 0.52788 0.90332 0.05565 0.0
H1441 H 0.49854 0.89891 0.02087 0.0
H1442 H 0.4782 0.87705 0.18435 0.0
H1443 H 0.50709 0.8814 0.2187 0.0
H1444 H 0.45388 0.85906 0.08208 0.0
H1445 H 0.48202 0.93198 0.09571 0.0
H1446 H 0.4918 0.92245 0.04954 0.0
H1447 H 0.49412 0.92237 0.12849 0.0
C1448 C 0.51695 0.89712 0.08317 0.0
C1449 C 0.51971 0.8927 0.13985 0.0
C1450 C 0.50028 0.89478 0.06363 0.0
C1451 C 0.48621 0.88786 0.1004 0.0
C1452 C 0.48879 0.88242 0.15519 0.0
H1453 H 0.39714 0.87858 0.2307 0.0
H1454 H 0.42045 0.87474 0.19043 0.0
C1455 C 0.50534 0.88491 0.17479 0.0
C1456 C 0.46915 0.88743 0.0858 0.0
H1457 H 0.45117 0.91421 0.09195 0.0
C1458 C 0.45328 0.87111 0.08253 0.0
C1459 C 0.4683 0.90313 0.08623 0.0
C1460 C 0.4849 0.92103 0.0904 0.0
C1461 C 0.43673 0.87015 0.08391 0.0
C1462 C 0.43602 0.8859 0.08956 0.0
C1463 C 0.45171 0.90214 0.08768 0.0
C1464 C 0.41996 0.886 0.10826 0.0
C1465 C 0.42021 0.85227 0.08226 0.0
C1466 C 0.4117 0.8935 0.07531 0.0
C1467 C 0.39806 0.89551 0.0982 0.0
C1468 C 0.39287 0.89043 0.15491 0.0
C1469 C 0.40078 0.88246 0.18667 0.0
C1470 C 0.41408 0.88021 0.16357 0.0
H1471 H 0.42189 0.84198 0.05773 0.0
H1472 H 0.41757 0.84856 0.12823 0.0
H1473 H 0.4085 0.85236 0.06122 0.0
H1474 H 0.41616 0.89826 0.03283 0.0
H1475 H 0.39236 0.90195 0.07327 0.0
H1476 H 0.15919 0.65335 0.27951 0.0
H1477 H 0.163 0.6277 0.27353 0.0
H1478 H 0.14272 0.61596 0.08966 0.0
H1479 H 0.1385 0.64159 0.09546 0.0
H1480 H 0.12714 0.58695 0.15267 0.0
H1481 H 0.20009 0.62028 0.19894 0.0
H1482 H 0.18987 0.62656 0.25437 0.0
H1483 H 0.18881 0.63208 0.17953 0.0
C1484 C 0.15568 0.64547 0.23747 0.0
C1485 C 0.14856 0.64961 0.18787 0.0
C1486 C 0.15801 0.63083 0.23407 0.0
C1487 C 0.15347 0.62006 0.18088 0.0
C1488 C 0.14646 0.62418 0.13106 0.0
H1489 H 0.14997 0.51963 0.10306 0.0
H1490 H 0.15045 0.54746 0.09446 0.0
C1491 C 0.14409 0.63885 0.13443 0.0
C1492 C 0.15501 0.60392 0.17877 0.0
H1493 H 0.18391 0.58918 0.20928 0.0
C1494 C 0.1396 0.58745 0.16426 0.0
C1495 C 0.17127 0.60456 0.19409 0.0
C1496 C 0.18848 0.62183 0.20703 0.0
C1497 C 0.13987 0.57163 0.16666 0.0
C1498 C 0.15603 0.57227 0.18332 0.0
C1499 C 0.17152 0.58872 0.19682 0.0
C1500 C 0.157 0.55596 0.18799 0.0
C1501 C 0.12272 0.5543 0.15326 0.0
C1502 C 0.16115 0.55177 0.24319 0.0
C1503 C 0.16094 0.53584 0.24839 0.0
C1504 C 0.15668 0.52383 0.19832 0.0
C1505 C 0.15321 0.52845 0.14271 0.0
C1506 C 0.15338 0.54434 0.13764 0.0
H1507 H 0.11094 0.556 0.15364 0.0
H1508 H 0.12258 0.54842 0.10862 0.0
H1509 H 0.12153 0.54484 0.18587 0.0
H1510 H 0.16408 0.56062 0.28256 0.0
H1511 H 0.16373 0.53278 0.29186 0.0
H1512 H 0.50834 0.65184 0.23042 0.0
H1513 H 0.47963 0.6257 0.20177 0.0
H1514 H 0.49826 0.61818 0.03633 0.0
H1515 H 0.52753 0.64453 0.06592 0.0
H1516 H 0.45352 0.6136 0.11192 0.0
H1517 H 0.48614 0.57291 0.11187 0.0
H1518 H 0.49791 0.59597 0.13836 0.0
H1519 H 0.49319 0.58949 0.06019 0.0
C1520 C 0.50621 0.6449 0.18719 0.0
C1521 C 0.52015 0.65014 0.15048 0.0
C1522 C 0.48976 0.62992 0.17085 0.0
C1523 C 0.48684 0.61969 0.11751 0.0
C1524 C 0.50031 0.62566 0.07832 0.0
H1525 H 0.39617 0.51088 0.0556 0.0
H1526 H 0.42106 0.53951 0.03629 0.0
C1527 C 0.51693 0.64084 0.09475 0.0
C1528 C 0.47027 0.60215 0.10713 0.0
H1529 H 0.45512 0.55787 0.10588 0.0
C1530 C 0.45386 0.60141 0.10956 0.0
C1531 C 0.47067 0.58618 0.10443 0.0
C1532 C 0.48789 0.58605 0.10397 0.0
C1533 C 0.43802 0.58529 0.11175 0.0
C1534 C 0.43857 0.56948 0.11183 0.0
C1535 C 0.45477 0.57005 0.10604 0.0
C1536 C 0.42276 0.55239 0.12215 0.0
C1537 C 0.42084 0.58533 0.11536 0.0
C1538 C 0.41548 0.55008 0.17701 0.0
C1539 C 0.40133 0.53368 0.18848 0.0
C1540 C 0.3941 0.51924 0.14518 0.0
C1541 C 0.40129 0.5217 0.08992 0.0
C1542 C 0.41556 0.53806 0.07873 0.0
H1543 H 0.4218 0.59752 0.09952 0.0
H1544 H 0.40975 0.57368 0.08885 0.0
H1545 H 0.41762 0.58469 0.16217 0.0
H1546 H 0.42102 0.56088 0.21152 0.0
H1547 H 0.39618 0.5323 0.23151 0.0
H1548 H 0.54885 0.72445 0.10028 0.0
H1549 H 0.54678 0.75103 0.11258 0.0
H1550 H 0.56913 0.76054 0.29362 0.0
H1551 H 0.57161 0.73394 0.28144 0.0
H1552 H 0.52938 0.76137 0.18916 0.0
H1553 H 0.60247 0.80653 0.22366 0.0
H1554 H 0.59268 0.78356 0.19736 0.0
H1555 H 0.59319 0.78977 0.27443 0.0
C1556 C 0.55329 0.73208 0.14296 0.0
C1557 C 0.56058 0.72709 0.18973 0.0
C1558 C 0.55204 0.7473 0.1499 0.0
C1559 C 0.55807 0.75796 0.20365 0.0
C1560 C 0.56472 0.7527 0.25132 0.0
H1561 H 0.56988 0.86283 0.27077 0.0
H1562 H 0.56754 0.83436 0.28547 0.0
C1563 C 0.56601 0.73742 0.24441 0.0
C1564 C 0.55775 0.77476 0.20831 0.0
H1565 H 0.58466 0.81962 0.22344 0.0
C1566 C 0.54145 0.77411 0.19713 0.0
C1567 C 0.57352 0.79139 0.21868 0.0
C1568 C 0.5915 0.79298 0.22877 0.0
C1569 C 0.54052 0.7896 0.19513 0.0
C1570 C 0.55632 0.80619 0.20371 0.0
C1571 C 0.57255 0.80687 0.21684 0.0
C1572 C 0.55648 0.82298 0.19605 0.0
C1573 C 0.52261 0.78806 0.18361 0.0
C1574 C 0.55103 0.82606 0.14086 0.0
C1575 C 0.55237 0.84233 0.13218 0.0
C1576 C 0.55926 0.85592 0.17852 0.0
C1577 C 0.56444 0.85268 0.2341 0.0
C1578 C 0.56315 0.83641 0.24263 0.0
H1579 H 0.51173 0.77515 0.19507 0.0
H1580 H 0.52197 0.7988 0.20934 0.0
H1581 H 0.5203 0.7891 0.13583 0.0
H1582 H 0.54617 0.81602 0.10392 0.0
H1583 H 0.54832 0.84434 0.08875 0.0
H1584 H 0.30333 0.84973 0.10903 0.0
H1585 H 0.27733 0.82184 0.12623 0.0
H1586 H 0.30102 0.82423 0.30064 0.0
H1587 H 0.32667 0.85283 0.28478 0.0
H1588 H 0.27228 0.79145 0.14258 0.0
H1589 H 0.25408 0.81449 0.34486 0.0
H1590 H 0.27114 0.82948 0.3015 0.0
H1591 H 0.2759 0.81737 0.35404 0.0
C1592 C 0.30302 0.84431 0.15106 0.0
C1593 C 0.31702 0.85349 0.19563 0.0
C1594 C 0.28811 0.82834 0.16095 0.0
C1595 C 0.28694 0.82097 0.21526 0.0
C1596 C 0.30124 0.82985 0.25914 0.0
H1597 H 0.20137 0.71051 0.21107 0.0
H1598 H 0.23104 0.73684 0.22376 0.0
C1599 C 0.316 0.84611 0.24981 0.0
C1600 C 0.27082 0.80391 0.22468 0.0
H1601 H 0.23775 0.78376 0.31646 0.0
C1602 C 0.26474 0.78982 0.18064 0.0
C1603 C 0.2608 0.80173 0.27402 0.0
C1604 C 0.2657 0.81662 0.32095 0.0
C1605 C 0.24879 0.7739 0.18346 0.0
C1606 C 0.23903 0.7715 0.23366 0.0
C1607 C 0.2453 0.78544 0.27841 0.0
C1608 C 0.22158 0.75522 0.23801 0.0
C1609 C 0.2422 0.76027 0.13084 0.0
C1610 C 0.20649 0.75656 0.24755 0.0
C1611 C 0.18963 0.74145 0.24306 0.0
C1612 C 0.18755 0.72476 0.22795 0.0
C1613 C 0.20268 0.72327 0.2225 0.0
C1614 C 0.2196 0.73834 0.22882 0.0
H1615 H 0.24835 0.76622 0.09012 0.0
H1616 H 0.24578 0.7501 0.13994 0.0
H1617 H 0.22757 0.75371 0.12173 0.0
H1618 H 0.2076 0.76937 0.25523 0.0
H1619 H 0.17814 0.74297 0.24705 0.0
H1620 H 0.32411 0.47366 0.28227 0.0
H1621 H 0.30148 0.47779 0.3299 0.0
H1622 H 0.29007 0.4956 0.1687 0.0
H1623 H 0.31228 0.49137 0.12134 0.0
H1624 H 0.292 0.51564 0.28356 0.0
H1625 H 0.24698 0.44264 0.27106 0.0
H1626 H 0.26945 0.4525 0.30419 0.0
H1627 H 0.26541 0.45223 0.22582 0.0
C1628 C 0.31705 0.47887 0.25777 0.0
C1629 C 0.31989 0.48221 0.19819 0.0
C1630 C 0.30408 0.48111 0.28479 0.0
C1631 C 0.29404 0.4869 0.25262 0.0
C1632 C 0.29767 0.49115 0.19434 0.0
H1633 H 0.21125 0.49787 0.15521 0.0
H1634 H 0.23977 0.50182 0.19169 0.0
C1635 C 0.31036 0.48872 0.16731 0.0
C1636 C 0.27866 0.48725 0.27616 0.0
H1637 H 0.23399 0.46033 0.28035 0.0
C1638 C 0.27941 0.50356 0.28486 0.0
C1639 C 0.26225 0.4715 0.27831 0.0
C1640 C 0.26079 0.45365 0.26936 0.0
C1641 C 0.26395 0.50448 0.29066 0.0
C1642 C 0.24728 0.48871 0.28625 0.0
C1643 C 0.24675 0.47243 0.28355 0.0
C1644 C 0.23049 0.4887 0.2714 0.0
C1645 C 0.26549 0.52237 0.29785 0.0
C1646 C 0.21564 0.48005 0.30416 0.0
C1647 C 0.19915 0.4779 0.28332 0.0
C1648 C 0.19734 0.484 0.22884 0.0
C1649 C 0.21233 0.49314 0.19754 0.0
C1650 C 0.2287 0.49552 0.2186 0.0
H1651 H 0.27825 0.53218 0.32298 0.0
H1652 H 0.26526 0.52705 0.25347 0.0
H1653 H 0.25437 0.52188 0.32107 0.0
H1654 H 0.21666 0.47446 0.34459 0.0
H1655 H 0.18769 0.47055 0.30772 0.0
H1656 H 0.03029 0.22042 0.23833 0.0
H1657 H 0.03326 0.22399 0.13215 0.0
H1658 H 0.99123 0.23629 0.12309 0.0
H1659 H 0.98831 0.23287 0.2291 0.0
H1660 H 1.00819 0.20669 0.03289 0.0
H1661 H 0.03191 0.2785 0.05356 0.0
H1662 H 0.03139 0.26657 0.11662 0.0
H1663 H 0.01136 0.26515 0.08518 0.0
C1664 C 0.02161 0.22377 0.21356 0.0
C1665 C 1.00909 0.2264 0.24207 0.0
C1666 C 0.02334 0.22584 0.15293 0.0
C1667 C 0.0127 0.23074 0.11976 0.0
C1668 C 0.99985 0.23288 0.1479 0.0
H1669 H 1.00453 0.25182 0.75069 0.0
H1670 H 1.00154 0.2485 0.85699 0.0
C1671 C 0.99809 0.23078 0.20843 0.0
C1672 C 0.01499 0.23355 0.05579 0.0
H1673 H 0.02555 0.26453 0.95608 0.0
C1674 C 0.01206 0.21935 0.01613 0.0
C1675 C 0.01999 0.25007 0.03381 0.0
C1676 C 0.02401 0.26601 0.07447 0.0
C1677 C 0.01367 0.22112 0.9551 0.0
C1678 C 0.01875 0.23766 0.9331 0.0
C1679 C 0.02165 0.25186 0.97279 0.0
C1680 C 0.02117 0.24048 0.86913 0.0
C1681 C 1.00946 0.20509 0.91456 0.0
C1682 C 0.03354 0.23759 0.84076 0.0
C1683 C 0.03525 0.23946 0.78013 0.0
C1684 C 0.02474 0.24445 0.74661 0.0
C1685 C 0.01282 0.24798 0.77537 0.0
C1686 C 0.01108 0.24605 0.83609 0.0
H1687 H 1.0011 0.19264 0.93511 0.0
H1688 H 1.00247 0.20476 0.87182 0.0
H1689 H 0.02202 0.20554 0.90514 0.0
H1690 H 0.04181 0.23373 0.86545 0.0
H1691 H 0.04461 0.23673 0.75929 0.0
H1692 H 0.80392 0.76842 0.25637 0.0
H1693 H 0.80554 0.771 0.14967 0.0
H1694 H 0.77703 0.79936 0.1553 0.0
H1695 H 0.77574 0.79718 0.26232 0.0
H1696 H 0.78061 0.76047 0.05609 0.0
H1697 H 0.82202 0.83348 0.08263 0.0
H1698 H 0.81778 0.82011 0.14423 0.0
H1699 H 0.80142 0.82522 0.1158 0.0
C1700 C 0.79782 0.77502 0.23468 0.0
C1701 C 0.78983 0.78273 0.26749 0.0
C1702 C 0.7988 0.77653 0.17382 0.0
C1703 C 0.7918 0.78576 0.1449 0.0
C1704 C 0.78294 0.79262 0.1771 0.0
H1705 H 0.77024 0.78354 0.76945 0.0
H1706 H 0.7693 0.78055 0.87569 0.0
C1707 C 0.78206 0.79121 0.23804 0.0
C1708 C 0.79401 0.78841 0.08128 0.0
H1709 H 0.81076 0.82022 0.98424 0.0
C1710 C 0.78726 0.77352 0.04038 0.0
C1711 C 0.80305 0.80548 0.06105 0.0
C1712 C 0.81165 0.82199 0.10324 0.0
C1713 C 0.78884 0.77522 0.97954 0.0
C1714 C 0.79707 0.79227 0.95904 0.0
C1715 C 0.80428 0.80717 1.00006 0.0
C1716 C 0.79783 0.79484 0.89506 0.0
C1717 C 0.78184 0.75874 0.93789 0.0
C1718 C 0.8142 0.80454 0.87105 0.0
C1719 C 0.81477 0.80647 0.81018 0.0
C1720 C 0.79897 0.79875 0.77277 0.0
C1721 C 0.78263 0.78951 0.79725 0.0
C1722 C 0.78207 0.78767 0.85786 0.0
H1723 H 0.78097 0.74755 0.96128 0.0
H1724 H 0.76829 0.75481 0.91883 0.0
H1725 H 0.79039 0.76099 0.90091 0.0
H1726 H 0.82651 0.81031 0.89922 0.0
H1727 H 0.82752 0.81367 0.79229 0.0
H1728 H 0.24558 0.04327 0.25666 0.0
H1729 H 0.24814 0.04296 0.14975 0.0
H1730 H 0.22254 0.98613 0.13632 0.0
H1731 H 0.21963 0.98637 0.24319 0.0
H1732 H 0.26644 0.03066 0.08769 0.0
H1733 H 0.19529 0.99437 1.00362 0.0
H1734 H 0.20271 1.00351 0.07955 0.0
H1735 H 0.20112 0.98291 0.05531 0.0
C1736 C 0.24025 0.0307 0.23072 0.0
C1737 C 0.23232 0.01483 0.25801 0.0
C1738 C 0.24178 0.03054 0.16973 0.0
C1739 C 0.23539 0.01452 0.13493 0.0
C1740 C 0.22724 0.99863 0.16207 0.0
H1741 H 0.23761 0.98626 0.76534 0.0
H1742 H 0.23642 0.98693 0.87291 0.0
C1743 C 0.22563 0.99877 0.22311 0.0
C1744 C 0.23803 0.01456 0.07085 0.0
H1745 H 0.21607 0.99901 0.93304 0.0
C1746 C 0.25542 0.02381 0.05383 0.0
C1747 C 0.22364 1.00562 0.02677 0.0
C1748 C 0.20463 0.99618 0.04206 0.0
C1749 C 0.25883 0.02412 0.99395 0.0
C1750 C 0.24445 0.01508 0.95001 0.0
C1751 C 0.22707 1.00585 0.96696 0.0
C1752 C 0.24704 0.01513 0.88599 0.0
C1753 C 0.27778 0.03383 0.97815 0.0
C1754 C 0.25369 0.03082 0.85789 0.0
C1755 C 0.2544 0.03048 0.79639 0.0
C1756 C 0.24841 0.01442 0.76218 0.0
C1757 C 0.24237 0.99884 0.79067 0.0
C1758 C 0.24162 0.99918 0.85204 0.0
H1759 H 0.28735 0.03659 0.01698 0.0
H1760 H 0.27989 0.02613 0.94238 0.0
H1761 H 0.28071 0.04663 0.9618 0.0
H1762 H 0.2577 0.04323 0.88321 0.0
H1763 H 0.259 0.04266 0.77545 0.0
H1764 H 0.03009 0.78257 0.78911 0.0
H1765 H 0.02596 0.7791 0.8944 0.0
H1766 H 1.00398 0.81349 0.89694 0.0
H1767 H 1.00813 0.81706 0.79114 0.0
H1768 H 0.02947 0.82075 0.99391 0.0
H1769 H 0.97777 0.74983 0.96384 0.0
H1770 H 0.99757 0.75512 0.92847 0.0
H1771 H 0.98389 0.76387 0.90363 0.0
C1772 C 0.02445 0.78946 0.81212 0.0
C1773 C 0.01941 0.80007 0.7819 0.0
C1774 C 0.02197 0.78735 0.87219 0.0
C1775 C 0.01436 0.79576 0.90331 0.0
C1776 C 1.00974 0.80676 0.87365 0.0
H1777 H 0.97826 0.77547 0.26005 0.0
H1778 H 0.97943 0.77793 0.15268 0.0
C1779 C 0.01215 0.80882 0.81333 0.0
C1780 C 0.01152 0.79325 0.96697 0.0
H1781 H 0.99026 0.76176 0.06264 0.0
C1782 C 0.02081 0.80788 0.00891 0.0
C1783 C 1.00005 0.77648 0.98649 0.0
C1784 C 0.9891 0.76043 0.9433 0.0
C1785 C 0.01938 0.8061 0.06992 0.0
C1786 C 1.00849 0.78921 0.08957 0.0
C1787 C 0.99875 0.77466 0.04756 0.0
C1788 C 1.00736 0.78642 0.15365 0.0
C1789 C 0.02951 0.82235 0.1129 0.0
C1790 C 0.0225 0.78978 0.18939 0.0
C1791 C 0.02184 0.78831 0.25037 0.0
C1792 C 1.006 0.78339 0.27689 0.0
C1793 C 0.99064 0.77927 0.24078 0.0
C1794 C 0.9913 0.78072 0.17955 0.0
H1795 H 0.03352 0.83464 0.0908 0.0
H1796 H 0.02146 0.82197 0.14974 0.0
H1797 H 0.04173 0.8229 0.13217 0.0
H1798 H 0.03494 0.79385 0.17021 0.0
H1799 H 0.03389 0.79148 0.277 0.0
H1800 H 0.25946 0.24321 0.23503 0.0
H1801 H 0.25965 0.24588 0.12826 0.0
H1802 H 0.20243 0.21634 0.10951 0.0
H1803 H 0.20217 0.21381 0.21682 0.0
H1804 H 0.24568 0.22002 0.03282 0.0
H1805 H 0.21415 0.26146 0.03041 0.0
H1806 H 0.22304 0.25763 0.09797 0.0
H1807 H 0.20178 0.24099 0.06309 0.0
C1808 C 0.24691 0.23721 0.20814 0.0
C1809 C 0.23079 0.22835 0.23422 0.0
C1810 C 0.24705 0.23876 0.14713 0.0
C1811 C 0.23107 0.23157 0.11098 0.0
C1812 C 0.21492 0.2223 0.13671 0.0
H1813 H 0.20403 0.22816 0.73643 0.0
H1814 H 0.20444 0.22594 0.8434 0.0
C1815 C 0.21478 0.22074 0.19789 0.0
C1816 C 0.23141 0.23384 0.04647 0.0
H1817 H 0.21879 0.25173 0.93725 0.0
C1818 C 0.23986 0.227 0.01191 0.0
C1819 C 0.22387 0.24301 0.01931 0.0
C1820 C 0.21533 0.25135 0.05457 0.0
C1821 C 0.24062 0.22873 0.95071 0.0
C1822 C 0.23302 0.23786 0.92349 0.0
C1823 C 0.22464 0.24476 0.95813 0.0
C1824 C 0.23307 0.23987 0.85878 0.0
C1825 C 0.24912 0.22035 0.91548 0.0
C1826 C 0.24905 0.24878 0.83186 0.0
C1827 C 0.24885 0.25006 0.7705 0.0
C1828 C 0.23266 0.24254 0.73521 0.0
C1829 C 0.21672 0.23407 0.76249 0.0
C1830 C 0.21692 0.23279 0.82363 0.0
H1831 H 0.25031 0.21027 0.93973 0.0
H1832 H 0.24138 0.21403 0.87215 0.0
H1833 H 0.26267 0.2307 0.90684 0.0
H1834 H 0.26168 0.25468 0.85824 0.0
H1835 H 0.26133 0.2567 0.75063 0.0
H1836 H 0.80102 0.04689 0.26952 0.0
H1837 H 0.80175 0.04573 0.16171 0.0
H1838 H 0.77493 0.98888 0.15203 0.0
H1839 H 0.77412 0.98996 0.25996 0.0
H1840 H 0.81891 0.02989 0.09984 0.0
H1841 H 0.74759 0.99951 0.02066 0.0
H1842 H 0.75627 0.00999 0.09478 0.0
H1843 H 0.75265 0.98827 0.07565 0.0
C1844 C 0.79497 0.03414 0.24428 0.0
C1845 C 0.7875 0.01851 0.27294 0.0
C1846 C 0.79546 0.0335 0.1828 0.0
C1847 C 0.78832 0.01723 0.14897 0.0
C1848 C 0.78029 1.00156 0.1773 0.0
H1849 H 0.78401 0.98622 0.77672 0.0
H1850 H 0.78206 0.98709 0.88398 0.0
C1851 C 0.77987 1.00219 0.23888 0.0
C1852 C 0.79044 0.01674 0.08472 0.0
H1853 H 0.76741 1.00284 0.94834 0.0
C1854 C 0.80767 0.02406 0.0666 0.0
C1855 C 0.77574 0.00899 0.04171 0.0
C1856 C 0.757 1.00135 0.05889 0.0
C1857 C 0.8106 0.02362 0.00645 0.0
C1858 C 0.7959 0.016 0.96328 0.0
C1859 C 0.77866 0.00866 0.9815 0.0
C1860 C 0.79807 0.01554 0.89892 0.0
C1861 C 0.82938 0.03091 0.98987 0.0
C1862 C 0.80779 0.03124 0.87175 0.0
C1863 C 0.80906 0.03076 0.81056 0.0
C1864 C 0.80042 0.01458 0.77553 0.0
C1865 C 0.79085 0.99887 0.80279 0.0
C1866 C 0.78967 0.99935 0.86396 0.0
H1867 H 0.83834 0.0315 0.02757 0.0
H1868 H 0.82994 0.0228 0.95177 0.0
H1869 H 0.83448 0.04454 0.97706 0.0
H1870 H 0.81405 0.04391 0.89762 0.0
H1871 H 0.81637 0.04307 0.7905 0.0
H1872 H 0.67042 0.53876 0.05486 0.0
H1873 H 0.66782 0.53898 0.16202 0.0
H1874 H 0.70984 0.59339 0.18546 0.0
H1875 H 0.71244 0.59328 0.07844 0.0
H1876 H 0.6938 0.54722 0.25904 0.0
H1877 H 0.66809 0.59374 0.26265 0.0
H1878 H 0.66861 0.58229 0.19502 0.0
H1879 H 0.68856 0.60122 0.22895 0.0
C1880 C 0.67922 0.55071 0.08298 0.0
C1881 C 0.6916 0.56602 0.05839 0.0
C1882 C 0.67769 0.55083 0.1441 0.0
C1883 C 0.68841 0.5663 0.18152 0.0
C1884 C 0.7012 0.58142 0.15724 0.0
H1885 H 0.69642 0.59438 0.55979 0.0
H1886 H 0.69914 0.59442 0.4527 0.0
C1887 C 0.70277 0.58129 0.09619 0.0
C1888 C 0.68611 0.56665 0.24585 0.0
H1889 H 0.67438 0.58599 0.35549 0.0
C1890 C 0.68949 0.55564 0.28015 0.0
C1891 C 0.68052 0.57768 0.27324 0.0
C1892 C 0.67608 0.58931 0.23813 0.0
C1893 C 0.68773 0.55557 0.34136 0.0
C1894 C 0.68205 0.56654 0.36874 0.0
C1895 C 0.67871 0.57758 0.33443 0.0
C1896 C 0.67957 0.56675 0.43301 0.0
C1897 C 0.69238 0.54406 0.37639 0.0
C1898 C 0.66727 0.55133 0.45722 0.0
C1899 C 0.66569 0.55129 0.51824 0.0
C1900 C 0.67629 0.5667 0.55609 0.0
C1901 C 0.68808 0.58232 0.5316 0.0
C1902 C 0.68967 0.58234 0.4705 0.0
H1903 H 0.70087 0.54019 0.35241 0.0
H1904 H 0.6994 0.5509 0.42019 0.0
H1905 H 0.68 0.53181 0.38398 0.0
H1906 H 0.65905 0.53926 0.42897 0.0
H1907 H 0.65646 0.53909 0.53593 0.0
H1908 H 0.49615 0.14253 0.60201 0.0
H1909 H 0.49556 0.14455 0.49499 0.0
H1910 H 0.43848 0.11223 0.47932 0.0
H1911 H 0.43899 0.11042 0.58703 0.0
H1912 H 0.48292 0.11865 0.40205 0.0
H1913 H 0.4465 0.15546 0.39629 0.0
H1914 H 0.45607 0.15269 0.46442 0.0
H1915 H 0.43538 0.13495 0.42957 0.0
C1916 C 0.48346 0.13581 0.57576 0.0
C1917 C 0.4676 0.12638 0.6028 0.0
C1918 C 0.48315 0.13697 0.5146 0.0
C1919 C 0.46697 0.1288 0.47922 0.0
C1920 C 0.4511 0.11897 0.50592 0.0
H1921 H 0.44012 0.12265 0.10221 0.0
H1922 H 0.44007 0.12018 0.20909 0.0
C1923 C 0.4514 0.11782 0.56731 0.0
C1924 C 0.46688 0.13064 0.41449 0.0
H1925 H 0.45224 0.14646 0.30384 0.0
C1926 C 0.47625 0.12476 0.38058 0.0
C1927 C 0.4582 0.13867 0.38657 0.0
C1928 C 0.4486 0.14596 0.42105 0.0
C1929 C 0.47696 0.12646 0.3194 0.0
C1930 C 0.46832 0.13452 0.29154 0.0
C1931 C 0.45889 0.14034 0.32536 0.0
C1932 C 0.46853 0.13664 0.22703 0.0
C1933 C 0.48665 0.11927 0.28487 0.0
C1934 C 0.48453 0.14702 0.20173 0.0
C1935 C 0.48459 0.14848 0.14052 0.0
C1936 C 0.46864 0.13962 0.1038 0.0
C1937 C 0.45262 0.12961 0.12945 0.0
C1938 C 0.45257 0.12818 0.19049 0.0
H1939 H 0.48887 0.10985 0.30965 0.0
H1940 H 0.47915 0.11248 0.24158 0.0
H1941 H 0.49979 0.13035 0.27612 0.0
H1942 H 0.49697 0.15393 0.22928 0.0
H1943 H 0.49711 0.15631 0.12188 0.0
H1944 H 0.90413 0.3225 0.08093 0.0
H1945 H 0.90565 0.32352 0.1893 0.0
H1946 H 0.9122 0.37566 0.1985 0.0
H1947 H 0.91063 0.3747 0.09003 0.0
H1948 H 0.93452 0.34933 0.2698 0.0
H1949 H 0.87122 0.34785 0.30355 0.0
H1950 H 0.87585 0.3413 0.23299 0.0
H1951 H 0.88558 0.36428 0.25746 0.0
C1952 C 0.90574 0.33412 0.10609 0.0
C1953 C 0.9072 0.3485 0.07726 0.0
C1954 C 0.90665 0.33469 0.16789 0.0
C1955 C 0.90886 0.34958 0.20179 0.0
C1956 C 0.91021 0.36393 0.17305 0.0
H1957 H 0.91848 0.38011 0.57624 0.0
H1958 H 0.917 0.37848 0.46797 0.0
C1959 C 0.90937 0.3634 0.1112 0.0
C1960 C 0.91037 0.35033 0.26729 0.0
H1961 H 0.89041 0.35323 0.38941 0.0
C1962 C 0.92485 0.3501 0.29607 0.0
C1963 C 0.89774 0.35137 0.30122 0.0
C1964 C 0.88162 0.35107 0.2724 0.0
C1965 C 0.92726 0.35126 0.35813 0.0
C1966 C 0.91462 0.3523 0.39215 0.0
C1967 C 0.90009 0.35245 0.36325 0.0
C1968 C 0.91629 0.35348 0.45782 0.0
C1969 C 0.94355 0.35184 0.3867 0.0
C1970 C 0.91638 0.33995 0.48809 0.0
C1971 C 0.91734 0.34092 0.55003 0.0
C1972 C 0.91804 0.35534 0.58254 0.0
C1973 C 0.918 0.36887 0.55223 0.0
C1974 C 0.91711 0.36793 0.49042 0.0
H1975 H 0.9541 0.35567 0.35577 0.0
H1976 H 0.94903 0.36128 0.42698 0.0
H1977 H 0.93992 0.33854 0.39995 0.0
H1978 H 0.91537 0.3285 0.46381 0.0
H1979 H 0.91723 0.33026 0.57238 0.0
H1980 H 0.67577 0.15763 0.09068 0.0
H1981 H 0.67333 0.15474 0.1974 0.0
H1982 H 0.70292 0.12747 0.19551 0.0
H1983 H 0.70555 0.13048 0.08937 0.0
H1984 H 0.65741 0.12331 0.25327 0.0
H1985 H 0.72847 0.16467 0.33556 0.0
H1986 H 0.72011 0.16549 0.26208 0.0
H1987 H 0.72405 0.14783 0.27796 0.0
C1988 C 0.68197 0.15125 0.11328 0.0
C1989 C 0.69095 0.14439 0.0818 0.0
C1990 C 0.68051 0.14954 0.17417 0.0
C1991 C 0.68813 0.14108 0.20473 0.0
C1992 C 0.69724 0.13437 0.1733 0.0
H1993 H 0.69075 0.11517 0.57126 0.0
H1994 H 0.6934 0.11728 0.46429 0.0
C1995 C 0.69867 0.13604 0.11253 0.0
C1996 C 0.68587 0.13853 0.26877 0.0
H1997 H 0.70875 0.14751 0.40483 0.0
C1998 C 0.66863 0.12868 0.28646 0.0
C1999 C 0.70052 0.14539 0.31205 0.0
C2000 C 0.71933 0.15657 0.29621 0.0
C2001 C 0.66564 0.12534 0.34598 0.0
C2002 C 0.68028 0.13233 0.38938 0.0
C2003 C 0.69753 0.14209 0.37163 0.0
C2004 C 0.67797 0.13022 0.45363 0.0
C2005 C 0.64682 0.11404 0.36161 0.0
C2006 C 0.66848 0.13681 0.48334 0.0
C2007 C 0.6669 0.13554 0.54417 0.0
C2008 C 0.67489 0.12778 0.5768 0.0
C2009 C 0.68433 0.12109 0.54715 0.0
C2010 C 0.6859 0.12236 0.48612 0.0
H2011 H 0.63789 0.10552 0.32248 0.0
H2012 H 0.64613 0.10552 0.39706 0.0
H2013 H 0.64177 0.12271 0.37781 0.0
H2014 H 0.66259 0.1433 0.4597 0.0
H2015 H 0.65969 0.14097 0.56589 0.0
H2016 H 0.88321 0.5484 0.06548 0.0
H2017 H 0.88466 0.55047 0.17398 0.0
H2018 H 0.9387 0.59361 0.18222 0.0
H2019 H 0.93713 0.59193 0.07405 0.0
H2020 H 0.90628 0.54625 0.25168 0.0
H2021 H 0.91679 0.61376 0.29109 0.0
H2022 H 0.90998 0.60173 0.21878 0.0
H2023 H 0.93296 0.61301 0.24721 0.0
C2024 C 0.89533 0.55837 0.0906 0.0
C2025 C 0.91002 0.57008 0.06176 0.0
C2026 C 0.89615 0.55956 0.15238 0.0
C2027 C 0.91168 0.57242 0.18599 0.0
C2028 C 0.92644 0.58393 0.15709 0.0
H2029 H 0.93809 0.56704 0.55493 0.0
H2030 H 0.93775 0.56837 0.44737 0.0
C2031 C 0.92557 0.58286 0.09539 0.0
C2032 C 0.91268 0.57333 0.25134 0.0
H2033 H 0.92166 0.60107 0.37545 0.0
C2034 C 0.90955 0.5582 0.27878 0.0
C2035 C 0.91672 0.58889 0.28643 0.0
C2036 C 0.91913 0.60521 0.2594 0.0
C2037 C 0.91059 0.55826 0.34057 0.0
C2038 C 0.91541 0.57404 0.37568 0.0
C2039 C 0.91825 0.58909 0.34828 0.0
C2040 C 0.91695 0.57497 0.44101 0.0
C2041 C 0.90617 0.54132 0.36752 0.0
C2042 C 0.90605 0.57917 0.47312 0.0
C2043 C 0.90644 0.5787 0.5345 0.0
C2044 C 0.91769 0.57397 0.56442 0.0
C2045 C 0.92918 0.57056 0.53262 0.0
C2046 C 0.9289 0.57119 0.4713 0.0
H2047 H 0.89815 0.52959 0.33533 0.0
H2048 H 0.91866 0.54155 0.38138 0.0
H2049 H 0.89873 0.53977 0.40713 0.0
H2050 H 0.89684 0.58226 0.4505 0.0
H2051 H 0.8975 0.58146 0.5582 0.0
H2052 H 0.4874 0.34806 0.08213 0.0
H2053 H 0.48651 0.34729 0.19016 0.0
H2054 H 0.45766 0.37535 0.18934 0.0
H2055 H 0.45819 0.37584 0.08208 0.0
H2056 H 0.49775 0.37398 0.28428 0.0
H2057 H 0.42476 0.32964 0.26305 0.0
H2058 H 0.438 0.33365 0.20093 0.0
H2059 H 0.43167 0.34934 0.22602 0.0
C2060 C 0.48107 0.35422 0.10533 0.0
C2061 C 0.47267 0.36181 0.07412 0.0
C2062 C 0.48054 0.35374 0.16673 0.0
C2063 C 0.47164 0.36089 0.19714 0.0
C2064 C 0.46419 0.36938 0.16628 0.0
H2065 H 0.47483 0.3874 0.5697 0.0
H2066 H 0.47744 0.38728 0.4628 0.0
C2067 C 0.46458 0.36973 0.10518 0.0
C2068 C 0.46955 0.35909 0.26085 0.0
H2069 H 0.43815 0.34347 0.35972 0.0
C2070 C 0.48476 0.3672 0.30093 0.0
C2071 C 0.45256 0.34993 0.28207 0.0
C2072 C 0.43582 0.33999 0.24076 0.0
C2073 C 0.48338 0.36693 0.36218 0.0
C2074 C 0.46634 0.35868 0.38342 0.0
C2075 C 0.45118 0.35003 0.34321 0.0
C2076 C 0.46392 0.35879 0.44726 0.0
C2077 C 0.50016 0.37537 0.40345 0.0
C2078 C 0.45463 0.34281 0.47312 0.0
C2079 C 0.45284 0.34286 0.53382 0.0
C2080 C 0.46034 0.35889 0.56937 0.0
C2081 C 0.46901 0.37487 0.54312 0.0
C2082 C 0.47068 0.37482 0.48233 0.0
H2083 H 0.51157 0.37639 0.38073 0.0
H2084 H 0.50346 0.38892 0.41929 0.0
H2085 H 0.49849 0.36776 0.44259 0.0
H2086 H 0.44916 0.33031 0.44656 0.0
H2087 H 0.4461 0.33036 0.55316 0.0
H2088 H 0.33406 0.90719 0.41715 0.0
H2089 H 0.33175 0.90555 0.52393 0.0
H2090 H 0.38816 0.92608 0.55208 0.0
H2091 H 0.39059 0.92808 0.44531 0.0
H2092 H 0.33971 0.88537 0.59219 0.0
H2093 H 0.38054 0.95588 0.6769 0.0
H2094 H 0.37282 0.94892 0.59966 0.0
H2095 H 0.39189 0.94833 0.63045 0.0
C2096 C 0.34601 0.91165 0.44626 0.0
C2097 C 0.36251 0.9178 0.42313 0.0
C2098 C 0.34467 0.91065 0.50718 0.0
C2099 C 0.35979 0.9158 0.54605 0.0
C2100 C 0.37637 0.92235 0.52309 0.0
H2101 H 0.35913 0.8825 0.90282 0.0
H2102 H 0.36141 0.88573 0.79628 0.0
C2103 C 0.37774 0.92344 0.4621 0.0
C2104 C 0.35799 0.91327 0.61001 0.0
H2105 H 0.37219 0.93488 0.74849 0.0
C2106 C 0.34675 0.8962 0.6264 0.0
C2107 C 0.36708 0.92744 0.65451 0.0
C2108 C 0.37863 0.9462 0.63962 0.0
C2109 C 0.34445 0.89288 0.68611 0.0
C2110 C 0.35393 0.90696 0.73068 0.0
C2111 C 0.36506 0.92406 0.71427 0.0
C2112 C 0.35208 0.90441 0.79461 0.0
C2113 C 0.33159 0.8744 0.70079 0.0
C2114 C 0.34633 0.91399 0.82913 0.0
C2115 C 0.34518 0.91228 0.88978 0.0
C2116 C 0.34977 0.90094 0.91715 0.0
C2117 C 0.35535 0.89119 0.88264 0.0
C2118 C 0.35659 0.89298 0.82182 0.0
H2119 H 0.32208 0.86634 0.66214 0.0
H2120 H 0.3391 0.8678 0.71394 0.0
H2121 H 0.32397 0.87461 0.73822 0.0
H2122 H 0.34281 0.92289 0.80912 0.0
H2123 H 0.34088 0.92 0.91538 0.0
H2124 H 0.13249 0.43743 0.9427 0.0
H2125 H 0.13365 0.43837 0.83466 0.0
H2126 H 0.14476 0.49219 0.85145 0.0
H2127 H 0.14396 0.49144 0.95858 0.0
H2128 H 0.11544 0.44673 0.74505 0.0
H2129 H 0.18757 0.49524 0.77316 0.0
H2130 H 0.17557 0.48271 0.83238 0.0
H2131 H 0.17469 0.50201 0.81462 0.0
C2132 C 0.13492 0.44933 0.92299 0.0
C2133 C 0.13838 0.46443 0.95869 0.0
C2134 C 0.13562 0.44988 0.86155 0.0
C2135 C 0.13973 0.46551 0.83555 0.0
C2136 C 0.14201 0.48017 0.87095 0.0
H2137 H 0.13047 0.48642 0.47294 0.0
H2138 H 0.1279 0.48227 0.5786 0.0
C2139 C 0.14146 0.47968 0.93202 0.0
C2140 C 0.14239 0.46697 0.7719 0.0
H2141 H 0.17289 0.49133 0.6773 0.0
C2142 C 0.12802 0.45635 0.73006 0.0
C2143 C 0.15893 0.47934 0.75264 0.0
C2144 C 0.17513 0.49036 0.7955 0.0
C2145 C 0.12957 0.45828 0.66928 0.0
C2146 C 0.14583 0.47138 0.65035 0.0
C2147 C 0.16038 0.4815 0.69208 0.0
C2148 C 0.14803 0.47481 0.58738 0.0
C2149 C 0.11384 0.44624 0.62591 0.0
C2150 C 0.16081 0.47285 0.55825 0.0
C2151 C 0.16247 0.47544 0.49819 0.0
C2152 C 0.1514 0.4801 0.46656 0.0
C2153 C 0.13913 0.48279 0.49637 0.0
C2154 C 0.13751 0.48023 0.55645 0.0
H2155 H 0.10437 0.43403 0.64558 0.0
H2156 H 0.10669 0.45321 0.61312 0.0
H2157 H 0.11814 0.44248 0.58514 0.0
H2158 H 0.16918 0.46886 0.58161 0.0
H2159 H 0.17201 0.47325 0.47613 0.0
H2160 H 0.54549 0.67922 0.88668 0.0
H2161 H 0.54743 0.6781 0.77896 0.0
H2162 H 0.60346 0.69665 0.8076 0.0
H2163 H 0.60147 0.69721 0.91438 0.0
H2164 H 0.56646 0.70346 0.70755 0.0
H2165 H 0.58711 0.65324 0.69634 0.0
H2166 H 0.5789 0.65817 0.7617 0.0
H2167 H 0.6017 0.67198 0.74701 0.0
C2168 C 0.55817 0.683 0.86973 0.0
C2169 C 0.57329 0.68813 0.90856 0.0
C2170 C 0.55928 0.68236 0.80839 0.0
C2171 C 0.57552 0.68691 0.78531 0.0
C2172 C 0.5907 0.69257 0.82433 0.0
H2173 H 0.59926 0.71311 0.42293 0.0
H2174 H 0.59893 0.71419 0.53108 0.0
C2175 C 0.58956 0.693 0.88534 0.0
C2176 C 0.57678 0.68604 0.7205 0.0
H2177 H 0.59053 0.66891 0.61056 0.0
C2178 C 0.57161 0.69582 0.68621 0.0
C2179 C 0.58329 0.67587 0.69267 0.0
C2180 C 0.58788 0.66407 0.72625 0.0
C2181 C 0.57305 0.69595 0.6249 0.0
C2182 C 0.58034 0.68645 0.59755 0.0
C2183 C 0.58524 0.67644 0.63175 0.0
C2184 C 0.58212 0.68592 0.53298 0.0
C2185 C 0.56632 0.70593 0.58995 0.0
C2186 C 0.57369 0.66963 0.49865 0.0
C2187 C 0.5742 0.66898 0.43728 0.0
C2188 C 0.58308 0.68462 0.40915 0.0
C2189 C 0.59223 0.70088 0.44364 0.0
C2190 C 0.59188 0.70151 0.50524 0.0
H2191 H 0.55683 0.70826 0.61414 0.0
H2192 H 0.57769 0.71899 0.58227 0.0
H2193 H 0.55965 0.69868 0.54626 0.0
H2194 H 0.5662 0.65743 0.51914 0.0
H2195 H 0.56704 0.65626 0.41169 0.0
H2196 H 0.37698 0.46507 0.9302 0.0
H2197 H 0.37918 0.4677 0.82371 0.0
H2198 H 0.32274 0.44708 0.79707 0.0
H2199 H 0.32042 0.44417 0.90372 0.0
H2200 H 0.33536 0.43361 0.71061 0.0
H2201 H 0.376 0.50664 0.74231 0.0
H2202 H 0.38523 0.49567 0.78301 0.0
H2203 H 0.36439 0.4934 0.80076 0.0
C2204 C 0.36501 0.46091 0.90153 0.0
C2205 C 0.34854 0.45454 0.92517 0.0
C2206 C 0.36631 0.46255 0.8408 0.0
C2207 C 0.3512 0.45801 0.80267 0.0
C2208 C 0.3346 0.45082 0.8258 0.0
H2209 H 0.35227 0.49074 0.44431 0.0
H2210 H 0.34871 0.48683 0.55018 0.0
C2211 C 0.33327 0.44911 0.88663 0.0
C2212 C 0.35281 0.46111 0.73898 0.0
H2213 H 0.37319 0.49338 0.64528 0.0
C2214 C 0.34358 0.44668 0.69628 0.0
C2215 C 0.36327 0.47823 0.72031 0.0
C2216 C 0.37266 0.49441 0.76392 0.0
C2217 C 0.34491 0.44882 0.63547 0.0
C2218 C 0.35601 0.46583 0.61694 0.0
C2219 C 0.36485 0.48033 0.65956 0.0
C2220 C 0.35877 0.46877 0.55354 0.0
C2221 C 0.33425 0.43287 0.59161 0.0
C2222 C 0.36607 0.46034 0.52082 0.0
C2223 C 0.36811 0.46256 0.46066 0.0
C2224 C 0.36304 0.47339 0.43212 0.0
C2225 C 0.35631 0.48234 0.46526 0.0
C2226 C 0.35423 0.48007 0.5256 0.0
H2227 H 0.32285 0.42214 0.61147 0.0
H2228 H 0.32914 0.43634 0.55174 0.0
H2229 H 0.34288 0.42769 0.5773 0.0
H2230 H 0.37008 0.45191 0.54175 0.0
H2231 H 0.37341 0.45556 0.43627 0.0
H2232 H 0.55074 0.87857 0.87521 0.0
H2233 H 0.55302 0.88074 0.76798 0.0
H2234 H 0.59619 0.93446 0.80187 0.0
H2235 H 0.5943 0.9322 0.90814 0.0
H2236 H 0.54936 0.90252 0.69546 0.0
H2237 H 0.61754 0.91371 0.69389 0.0
H2238 H 0.60484 0.90642 0.75723 0.0
H2239 H 0.61648 0.92945 0.74452 0.0
C2240 C 0.56075 0.89077 0.85954 0.0
C2241 C 0.57246 0.90515 0.89982 0.0
C2242 C 0.56205 0.89201 0.79844 0.0
C2243 C 0.57506 0.90764 0.77695 0.0
C2244 C 0.58642 0.9221 0.81735 0.0
H2245 H 0.57364 0.93906 0.41996 0.0
H2246 H 0.57292 0.93658 0.52704 0.0
C2247 C 0.58523 0.92083 0.87811 0.0
C2248 C 0.57656 0.90913 0.71237 0.0
H2249 H 0.60614 0.92044 0.60715 0.0
C2250 C 0.56173 0.9063 0.67603 0.0
C2251 C 0.59264 0.91382 0.68686 0.0
C2252 C 0.60872 0.91584 0.72256 0.0
C2253 C 0.56265 0.90845 0.61516 0.0
C2254 C 0.579 0.91406 0.59029 0.0
C2255 C 0.5937 0.91646 0.62639 0.0
C2256 C 0.58095 0.91689 0.52649 0.0
C2257 C 0.54598 0.90436 0.57801 0.0
C2258 C 0.58673 0.90746 0.49119 0.0
C2259 C 0.58751 0.90915 0.43038 0.0
C2260 C 0.58247 0.92026 0.40372 0.0
C2261 C 0.5775 0.93034 0.4394 0.0
C2262 C 0.57689 0.92877 0.50041 0.0
H2263 H 0.53386 0.89553 0.59966 0.0
H2264 H 0.54599 0.91682 0.57205 0.0
H2265 H 0.54524 0.89798 0.53359 0.0
H2266 H 0.59009 0.89835 0.51037 0.0
H2267 H 0.59139 0.90122 0.40391 0.0
H2268 H 0.10868 0.68473 0.45625 0.0
H2269 H 0.10895 0.68693 0.56419 0.0
H2270 H 0.16371 0.70001 0.58043 0.0
H2271 H 0.16342 0.69752 0.47211 0.0
H2272 H 0.1429 0.67464 0.6532 0.0
H2273 H 0.13264 0.73203 0.67594 0.0
H2274 H 0.11616 0.71418 0.6257 0.0
H2275 H 0.13891 0.72567 0.60846 0.0
C2276 C 0.12078 0.68811 0.48287 0.0
C2277 C 0.13605 0.69102 0.45609 0.0
C2278 C 0.12095 0.68948 0.54444 0.0
C2279 C 0.13645 0.69395 0.58018 0.0
C2280 C 0.15167 0.69667 0.55349 0.0
H2281 H 0.1548 0.72347 0.95944 0.0
H2282 H 0.15533 0.72323 0.85154 0.0
C2283 C 0.15149 0.69524 0.4918 0.0
C2284 C 0.13654 0.69524 0.64542 0.0
H2285 H 0.1293 0.7164 0.76169 0.0
C2286 C 0.14003 0.68383 0.67702 0.0
C2287 C 0.13301 0.70741 0.67631 0.0
C2288 C 0.13014 0.72064 0.64498 0.0
C2289 C 0.13969 0.68398 0.73873 0.0
C2290 C 0.1354 0.69562 0.76932 0.0
C2291 C 0.13233 0.70732 0.73791 0.0
C2292 C 0.13431 0.696 0.83412 0.0
C2293 C 0.14413 0.67183 0.77067 0.0
C2294 C 0.12197 0.68093 0.85973 0.0
C2295 C 0.12168 0.68102 0.9212 0.0
C2296 C 0.13362 0.69626 0.95782 0.0
C2297 C 0.14547 0.71156 0.93207 0.0
C2298 C 0.1458 0.71143 0.87059 0.0
H2299 H 0.15158 0.66731 0.74347 0.0
H2300 H 0.15215 0.67844 0.81338 0.0
H2301 H 0.13165 0.65999 0.78024 0.0
H2302 H 0.11272 0.66902 0.8322 0.0
H2303 H 0.11232 0.6691 0.94005 0.0
loop_
_geom_bond_atom_site_label_1
_geom_bond_atom_site_label_2
_geom_bond_distance
_geom_bond_site_symmetry_2
_ccdc_geom_bond_type
Dy0 O4 2.398 . S
Dy0 O5 2.491 . S
Dy0 O6 2.403 . S
Dy0 O7 2.664 . S
Dy0 O11 2.326 . S
Dy0 O15 2.310 1_455 S
Dy0 O16 2.351 . S
C1 O12 1.185 1_455 S
C1 O13 1.355 . S
C2 O4 1.185 . S
C2 O5 1.355 . S
Dy3 O7 2.310 . S
Dy3 O10 2.351 1_455 S
Dy3 O12 2.398 1_455 S
Dy3 O13 2.491 . S
Dy3 O14 2.403 1_455 S
Dy3 O15 2.664 1_455 S
Dy3 O17 2.326 . S
O4 Dy0 2.398 . S
O4 C2 1.185 . S
O5 Dy0 2.491 . S
O5 C2 1.355 . S
O6 Dy0 2.403 . S
O6 C8 1.254 . S
O7 Dy0 2.664 . S
O7 Dy3 2.310 . S
O7 C8 1.268 . S
C8 O6 1.254 . S
C8 O7 1.268 . S
C9 O14 1.254 . S
C9 O15 1.268 . S
O10 Dy3 2.351 1_655 S
O10 C18 1.249 . S
O11 Dy0 2.326 . S
O11 C18 1.267 1_455 S
O12 C1 1.185 1_655 S
O12 Dy3 2.398 1_655 S
O13 C1 1.355 . S
O13 Dy3 2.491 . S
O14 Dy3 2.403 1_655 S
O14 C9 1.254 . S
O15 Dy0 2.310 1_655 S
O15 Dy3 2.664 1_655 S
O15 C9 1.268 . S
O16 Dy0 2.351 . S
O16 C19 1.249 . S
O17 Dy3 2.326 . S
O17 C19 1.267 . S
C18 O10 1.249 . S
C18 O11 1.267 1_655 S
C19 O16 1.249 . S
C19 O17 1.267 . S
Dy20 O24 2.398 . S
Dy20 O25 2.491 . S
Dy20 O26 2.403 . S
Dy20 O27 2.664 . S
Dy20 O31 2.326 . S
Dy20 O35 2.310 . S
Dy20 O36 2.351 . S
C21 O32 1.185 . S
C21 O33 1.355 . S
C22 O24 1.185 . S
C22 O25 1.355 . S
Dy23 O27 2.310 . S
Dy23 O30 2.351 . S
Dy23 O32 2.398 . S
Dy23 O33 2.491 . S
Dy23 O34 2.403 . S
Dy23 O35 2.664 . S
Dy23 O37 2.326 . S
O24 Dy20 2.398 . S
O24 C22 1.185 . S
O25 Dy20 2.491 . S
O25 C22 1.355 . S
O26 Dy20 2.403 . S
O26 C28 1.254 . S
O27 Dy20 2.664 . S
O27 Dy23 2.310 . S
O27 C28 1.268 . S
C28 O26 1.254 . S
C28 O27 1.268 . S
C29 O34 1.254 . S
C29 O35 1.268 . S
O30 Dy23 2.351 . S
O30 C38 1.249 . S
O31 Dy20 2.326 . S
O31 C38 1.267 . S
O32 C21 1.185 . S
O32 Dy23 2.398 . S
O33 C21 1.355 . S
O33 Dy23 2.491 . S
O34 Dy23 2.403 . S
O34 C29 1.254 . S
O35 Dy20 2.310 . S
O35 Dy23 2.664 . S
O35 C29 1.268 . S
O36 Dy20 2.351 . S
O36 C39 1.249 . S
O37 Dy23 2.326 . S
O37 C39 1.267 . S
C38 O30 1.249 . S
C38 O31 1.267 . S
C39 O36 1.249 . S
C39 O37 1.267 . S
Dy40 O44 2.391 . S
Dy40 O45 2.491 . S
Dy40 O46 2.403 1_545 S
Dy40 O47 2.664 1_545 S
Dy40 O51 2.326 . S
Dy40 O55 2.310 . S
Dy40 O56 2.351 1_545 S
C41 O52 1.185 . S
C41 O53 1.355 1_545 S
C42 O44 1.234 . S
C42 O45 1.355 . S
Dy43 O47 2.310 1_545 S
Dy43 O50 2.351 . S
Dy43 O52 2.398 . S
Dy43 O53 2.491 1_545 S
Dy43 O54 2.403 . S
Dy43 O55 2.664 . S
Dy43 O57 2.326 . S
O44 Dy40 2.391 . S
O44 C42 1.234 . S
O45 Dy40 2.491 . S
O45 C42 1.355 . S
O46 Dy40 2.403 1_565 S
O46 C48 1.254 . S
O47 Dy40 2.664 1_565 S
O47 Dy43 2.310 1_565 S
O47 C48 1.268 . S
C48 O46 1.254 . S
C48 O47 1.268 . S
C49 O54 1.254 . S
C49 O55 1.268 . S
O50 Dy43 2.351 . S
O50 C58 1.249 . S
O51 Dy40 2.326 . S
O51 C58 1.267 . S
O52 C41 1.185 . S
O52 Dy43 2.398 . S
O53 C41 1.355 1_565 S
O53 Dy43 2.491 1_565 S
O54 Dy43 2.403 . S
O54 C49 1.254 . S
O55 Dy40 2.310 . S
O55 Dy43 2.664 . S
O55 C49 1.268 . S
O56 Dy40 2.351 1_565 S
O56 C59 1.249 . S
O57 Dy43 2.326 . S
O57 C59 1.267 1_545 S
C58 O50 1.249 . S
C58 O51 1.267 . S
C59 O56 1.249 . S
C59 O57 1.267 1_565 S
Dy60 O64 2.398 . S
Dy60 O65 2.491 . S
Dy60 O66 2.403 . S
Dy60 O67 2.664 . S
Dy60 O71 2.326 . S
Dy60 O75 2.310 1_455 S
Dy60 O76 2.351 . S
C61 O72 1.185 1_455 S
C61 O73 1.355 . S
C62 O64 1.185 . S
C62 O65 1.355 . S
Dy63 O67 2.362 . S
Dy63 O70 2.344 1_455 S
Dy63 O72 2.382 1_455 S
Dy63 O73 2.531 . S
Dy63 O74 2.345 1_455 S
Dy63 O75 2.643 1_455 S
Dy63 O77 2.335 . S
O64 Dy60 2.398 . S
O64 C62 1.185 . S
O65 Dy60 2.491 . S
O65 C62 1.355 . S
O66 Dy60 2.403 . S
O66 C68 1.254 . S
O67 Dy60 2.664 . S
O67 Dy63 2.362 . S
O67 C68 1.268 . S
C68 O66 1.254 . S
C68 O67 1.268 . S
C69 O74 1.254 . S
C69 O75 1.268 . S
O70 Dy63 2.344 1_655 S
O70 C78 1.249 . S
O71 Dy60 2.326 . S
O71 C78 1.267 1_455 S
O72 C61 1.185 1_655 S
O72 Dy63 2.382 1_655 S
O73 C61 1.355 . S
O73 Dy63 2.531 . S
O74 Dy63 2.345 1_655 S
O74 C69 1.254 . S
O75 Dy60 2.310 1_655 S
O75 Dy63 2.643 1_655 S
O75 C69 1.268 . S
O76 Dy60 2.351 . S
O76 C79 1.249 . S
O77 Dy63 2.335 . S
O77 C79 1.267 . S
C78 O70 1.249 . S
C78 O71 1.267 1_655 S
C79 O76 1.249 . S
C79 O77 1.267 . S
Dy80 O84 2.398 . S
Dy80 O85 2.491 . S
Dy80 O86 2.403 . S
Dy80 O87 2.664 . S
Dy80 O91 2.326 . S
Dy80 O95 2.310 . S
Dy80 O96 2.351 . S
C81 O92 1.185 . S
C81 O93 1.355 . S
C82 O84 1.185 . S
C82 O85 1.355 . S
Dy83 O87 2.310 . S
Dy83 O90 2.351 . S
Dy83 O92 2.398 . S
Dy83 O93 2.491 . S
Dy83 O94 2.403 . S
Dy83 O95 2.664 . S
Dy83 O97 2.326 . S
O84 Dy80 2.398 . S
O84 C82 1.185 . S
O85 Dy80 2.491 . S
O85 C82 1.355 . S
O86 Dy80 2.403 . S
O86 C88 1.254 . S
O87 Dy80 2.664 . S
O87 Dy83 2.310 . S
O87 C88 1.268 . S
C88 O86 1.254 . S
C88 O87 1.268 . S
C89 O94 1.254 . S
C89 O95 1.268 . S
O90 Dy83 2.351 . S
O90 C98 1.249 . S
O91 Dy80 2.326 . S
O91 C98 1.267 . S
O92 C81 1.185 . S
O92 Dy83 2.398 . S
O93 C81 1.355 . S
O93 Dy83 2.491 . S
O94 Dy83 2.403 . S
O94 C89 1.254 . S
O95 Dy80 2.310 . S
O95 Dy83 2.664 . S
O95 C89 1.268 . S
O96 Dy80 2.351 . S
O96 C99 1.249 . S
O97 Dy83 2.326 . S
O97 C99 1.267 . S
C98 O90 1.249 . S
C98 O91 1.267 . S
C99 O96 1.249 . S
C99 O97 1.267 . S
Dy100 O104 2.398 . S
Dy100 O105 2.491 . S
Dy100 O106 2.403 1_545 S
Dy100 O107 2.667 1_545 S
Dy100 O111 2.326 . S
Dy100 O115 2.310 . S
Dy100 O116 2.351 1_545 S
C101 O112 1.185 . S
C101 O113 1.355 1_545 S
C102 O104 1.185 . S
C102 O105 1.355 . S
Dy103 O107 2.299 1_545 S
Dy103 O110 2.351 . S
Dy103 O112 2.398 . S
Dy103 O113 2.491 1_545 S
Dy103 O114 2.403 . S
Dy103 O115 2.664 . S
Dy103 O117 2.326 . S
O104 Dy100 2.398 . S
O104 C102 1.185 . S
O105 Dy100 2.491 . S
O105 C102 1.355 . S
O106 Dy100 2.403 1_565 S
O106 C108 1.254 . S
O107 Dy100 2.667 1_565 S
O107 Dy103 2.299 1_565 S
O107 C108 1.274 . S
C108 O106 1.254 . S
C108 O107 1.274 . S
C109 O114 1.254 . S
C109 O115 1.268 . S
O110 Dy103 2.351 . S
O110 C118 1.249 . S
O111 Dy100 2.326 . S
O111 C118 1.267 . S
O112 C101 1.185 . S
O112 Dy103 2.398 . S
O113 C101 1.355 1_565 S
O113 Dy103 2.491 1_565 S
O114 Dy103 2.403 . S
O114 C109 1.254 . S
O115 Dy100 2.310 . S
O115 Dy103 2.664 . S
O115 C109 1.268 . S
O116 Dy100 2.351 1_565 S
O116 C119 1.249 . S
O117 Dy103 2.326 . S
O117 C119 1.267 1_545 S
C118 O110 1.249 . S
C118 O111 1.267 . S
C119 O116 1.249 . S
C119 O117 1.267 1_565 S
Dy120 O124 2.398 . S
Dy120 O125 2.491 . S
Dy120 O126 2.403 . S
Dy120 O127 2.664 . S
Dy120 O131 2.326 . S
Dy120 O135 2.310 . S
Dy120 O136 2.351 . S
C121 O132 1.185 . S
C121 O133 1.355 . S
C122 O124 1.185 . S
C122 O125 1.355 . S
Dy123 O127 2.310 . S
Dy123 O130 2.351 . S
Dy123 O132 2.398 . S
Dy123 O133 2.491 . S
Dy123 O134 2.403 . S
Dy123 O135 2.664 . S
Dy123 O137 2.326 . S
O124 Dy120 2.398 . S
O124 C122 1.185 . S
O125 Dy120 2.491 . S
O125 C122 1.355 . S
O126 Dy120 2.403 . S
O126 C128 1.254 . S
O127 Dy120 2.664 . S
O127 Dy123 2.310 . S
O127 C128 1.268 . S
C128 O126 1.254 . S
C128 O127 1.268 . S
C129 O134 1.254 . S
C129 O135 1.268 . S
O130 Dy123 2.351 . S
O130 C138 1.249 . S
O131 Dy120 2.326 . S
O131 C138 1.267 . S
O132 C121 1.185 . S
O132 Dy123 2.398 . S
O133 C121 1.355 . S
O133 Dy123 2.491 . S
O134 Dy123 2.403 . S
O134 C129 1.254 . S
O135 Dy120 2.310 . S
O135 Dy123 2.664 . S
O135 C129 1.268 . S
O136 Dy120 2.351 . S
O136 C139 1.249 . S
O137 Dy123 2.326 . S
O137 C139 1.267 . S
C138 O130 1.249 . S
C138 O131 1.267 . S
C139 O136 1.249 . S
C139 O137 1.267 . S
Dy140 O144 2.398 . S
Dy140 O145 2.491 . S
Dy140 O146 2.403 . S
Dy140 O147 2.664 . S
Dy140 O151 2.326 . S
Dy140 O155 2.310 . S
Dy140 O156 2.351 . S
C141 O152 1.185 . S
C141 O153 1.355 . S
C142 O144 1.185 . S
C142 O145 1.355 . S
Dy143 O147 2.310 . S
Dy143 O150 2.351 . S
Dy143 O152 2.398 . S
Dy143 O153 2.491 . S
Dy143 O154 2.403 . S
Dy143 O155 2.664 . S
Dy143 O157 2.326 . S
O144 Dy140 2.398 . S
O144 C142 1.185 . S
O145 Dy140 2.491 . S
O145 C142 1.355 . S
O146 Dy140 2.403 . S
O146 C148 1.254 . S
O147 Dy140 2.664 . S
O147 Dy143 2.310 . S
O147 C148 1.268 . S
C148 O146 1.254 . S
C148 O147 1.268 . S
C149 O154 1.254 . S
C149 O155 1.268 . S
O150 Dy143 2.351 . S
O150 C158 1.249 . S
O151 Dy140 2.326 . S
O151 C158 1.267 . S
O152 C141 1.185 . S
O152 Dy143 2.398 . S
O153 C141 1.355 . S
O153 Dy143 2.491 . S
O154 Dy143 2.403 . S
O154 C149 1.254 . S
O155 Dy140 2.310 . S
O155 Dy143 2.664 . S
O155 C149 1.268 . S
O156 Dy140 2.351 . S
O156 C159 1.249 . S
O157 Dy143 2.326 . S
O157 C159 1.267 . S
C158 O150 1.249 . S
C158 O151 1.267 . S
C159 O156 1.249 . S
C159 O157 1.267 . S
Dy160 O164 2.398 . S
Dy160 O165 2.491 . S
Dy160 O166 2.403 . S
Dy160 O167 2.664 . S
Dy160 O171 2.326 . S
Dy160 O175 2.310 . S
Dy160 O176 2.351 . S
C161 O172 1.185 . S
C161 O173 1.355 . S
C162 O164 1.185 . S
C162 O165 1.355 . S
Dy163 O167 2.310 . S
Dy163 O170 2.351 . S
Dy163 O172 2.398 . S
Dy163 O173 2.491 . S
Dy163 O174 2.403 . S
Dy163 O175 2.664 . S
Dy163 O177 2.326 . S
O164 Dy160 2.398 . S
O164 C162 1.185 . S
O165 Dy160 2.491 . S
O165 C162 1.355 . S
O166 Dy160 2.403 . S
O166 C168 1.254 . S
O167 Dy160 2.664 . S
O167 Dy163 2.310 . S
O167 C168 1.268 . S
C168 O166 1.254 . S
C168 O167 1.268 . S
C169 O174 1.254 . S
C169 O175 1.268 . S
O170 Dy163 2.351 . S
O170 C178 1.249 . S
O171 Dy160 2.326 . S
O171 C178 1.267 . S
O172 C161 1.185 . S
O172 Dy163 2.398 . S
O173 C161 1.355 . S
O173 Dy163 2.491 . S
O174 Dy163 2.403 . S
O174 C169 1.254 . S
O175 Dy160 2.310 . S
O175 Dy163 2.664 . S
O175 C169 1.268 . S
O176 Dy160 2.351 . S
O176 C179 1.249 . S
O177 Dy163 2.326 . S
O177 C179 1.267 . S
C178 O170 1.249 . S
C178 O171 1.267 . S
C179 O176 1.249 . S
C179 O177 1.267 . S
Dy180 O184 2.398 . S
Dy180 O185 2.491 . S
Dy180 O186 2.403 . S
Dy180 O187 2.664 . S
Dy180 O191 2.326 . S
Dy180 O195 2.310 . S
Dy180 O196 2.351 . S
C181 O192 1.185 . S
C181 O193 1.355 . S
C182 O184 1.185 . S
C182 O185 1.355 . S
Dy183 O187 2.310 . S
Dy183 O190 2.351 . S
Dy183 O192 2.398 . S
Dy183 O193 2.491 . S
Dy183 O194 2.403 . S
Dy183 O195 2.664 . S
Dy183 O197 2.326 . S
O184 Dy180 2.398 . S
O184 C182 1.185 . S
O185 Dy180 2.491 . S
O185 C182 1.355 . S
O186 Dy180 2.403 . S
O186 C188 1.254 . S
O187 Dy180 2.664 . S
O187 Dy183 2.310 . S
O187 C188 1.268 . S
C188 O186 1.254 . S
C188 O187 1.268 . S
C189 O194 1.254 . S
C189 O195 1.268 . S
O190 Dy183 2.351 . S
O190 C198 1.249 . S
O191 Dy180 2.326 . S
O191 C198 1.267 . S
O192 C181 1.185 . S
O192 Dy183 2.398 . S
O193 C181 1.355 . S
O193 Dy183 2.491 . S
O194 Dy183 2.403 . S
O194 C189 1.254 . S
O195 Dy180 2.310 . S
O195 Dy183 2.664 . S
O195 C189 1.268 . S
O196 Dy180 2.351 . S
O196 C199 1.249 . S
O197 Dy183 2.326 . S
O197 C199 1.267 . S
C198 O190 1.249 . S
C198 O191 1.267 . S
C199 O196 1.249 . S
C199 O197 1.267 . S
Dy200 O204 2.398 . S
Dy200 O205 2.491 . S
Dy200 O206 2.403 . S
Dy200 O207 2.664 . S
Dy200 O211 2.326 . S
Dy200 O215 2.310 . S
Dy200 O216 2.351 . S
C201 O212 1.185 . S
C201 O213 1.355 . S
C202 O204 1.185 1_554 S
C202 O205 1.355 1_554 S
Dy203 O207 2.310 . S
Dy203 O210 2.351 . S
Dy203 O212 2.398 . S
Dy203 O213 2.491 . S
Dy203 O214 2.403 . S
Dy203 O215 2.664 . S
Dy203 O217 2.326 . S
O204 Dy200 2.398 . S
O204 C202 1.185 1_556 S
O205 Dy200 2.491 . S
O205 C202 1.355 1_556 S
O206 Dy200 2.403 . S
O206 C208 1.254 . S
O207 Dy200 2.664 . S
O207 Dy203 2.310 . S
O207 C208 1.268 . S
C208 O206 1.254 . S
C208 O207 1.268 . S
C209 O214 1.254 . S
C209 O215 1.268 . S
O210 Dy203 2.351 . S
O210 C218 1.249 . S
O211 Dy200 2.326 . S
O211 C218 1.267 . S
O212 C201 1.185 . S
O212 Dy203 2.398 . S
O213 C201 1.355 . S
O213 Dy203 2.491 . S
O214 Dy203 2.403 . S
O214 C209 1.254 . S
O215 Dy200 2.310 . S
O215 Dy203 2.664 . S
O215 C209 1.268 . S
O216 Dy200 2.351 . S
O216 C219 1.249 . S
O217 Dy203 2.326 . S
O217 C219 1.267 . S
C218 O210 1.249 . S
C218 O211 1.267 . S
C219 O216 1.249 . S
C219 O217 1.267 . S
Dy220 O224 2.398 . S
Dy220 O225 2.491 . S
Dy220 O226 2.403 . S
Dy220 O227 2.664 . S
Dy220 O231 2.326 . S
Dy220 O235 2.310 . S
Dy220 O236 2.351 . S
C221 O232 1.185 . S
C221 O233 1.355 . S
C222 O224 1.185 . S
C222 O225 1.355 . S
Dy223 O227 2.310 . S
Dy223 O230 2.351 . S
Dy223 O232 2.398 . S
Dy223 O233 2.491 . S
Dy223 O234 2.403 . S
Dy223 O235 2.664 . S
Dy223 O237 2.326 . S
O224 Dy220 2.398 . S
O224 C222 1.185 . S
O225 Dy220 2.491 . S
O225 C222 1.355 . S
O226 Dy220 2.403 . S
O226 C228 1.254 . S
O227 Dy220 2.664 . S
O227 Dy223 2.310 . S
O227 C228 1.268 . S
C228 O226 1.254 . S
C228 O227 1.268 . S
C229 O234 1.254 . S
C229 O235 1.268 . S
O230 Dy223 2.351 . S
O230 C238 1.249 . S
O231 Dy220 2.326 . S
O231 C238 1.267 . S
O232 C221 1.185 . S
O232 Dy223 2.398 . S
O233 C221 1.355 . S
O233 Dy223 2.491 . S
O234 Dy223 2.403 . S
O234 C229 1.254 . S
O235 Dy220 2.310 . S
O235 Dy223 2.664 . S
O235 C229 1.268 . S
O236 Dy220 2.351 . S
O236 C239 1.249 . S
O237 Dy223 2.326 . S
O237 C239 1.267 . S
C238 O230 1.249 . S
C238 O231 1.267 . S
C239 O236 1.249 . S
C239 O237 1.267 . S
Dy240 O244 2.398 . S
Dy240 O245 2.491 . S
Dy240 O246 2.403 . S
Dy240 O247 2.664 . S
Dy240 O251 2.326 . S
Dy240 O255 2.310 . S
Dy240 O256 2.351 . S
C241 O252 1.185 . S
C241 O253 1.355 . S
C242 O244 1.185 . S
C242 O245 1.355 . S
Dy243 O247 2.310 . S
Dy243 O250 2.351 . S
Dy243 O252 2.398 1_554 S
Dy243 O253 2.491 1_554 S
Dy243 O254 2.403 . S
Dy243 O255 2.664 . S
Dy243 O257 2.326 . S
O244 Dy240 2.398 . S
O244 C242 1.185 . S
O245 Dy240 2.491 . S
O245 C242 1.355 . S
O246 Dy240 2.403 . S
O246 C248 1.254 . S
O247 Dy240 2.664 . S
O247 Dy243 2.310 . S
O247 C248 1.268 . S
C248 O246 1.254 . S
C248 O247 1.268 . S
C249 O254 1.254 . S
C249 O255 1.268 . S
O250 Dy243 2.351 . S
O250 C258 1.249 . S
O251 Dy240 2.326 . S
O251 C258 1.267 . S
O252 C241 1.185 . S
O252 Dy243 2.398 1_556 S
O253 C241 1.355 . S
O253 Dy243 2.491 1_556 S
O254 Dy243 2.403 . S
O254 C249 1.254 . S
O255 Dy240 2.310 . S
O255 Dy243 2.664 . S
O255 C249 1.268 . S
O256 Dy240 2.351 . S
O256 C259 1.249 . S
O257 Dy243 2.326 . S
O257 C259 1.267 . S
C258 O250 1.249 . S
C258 O251 1.267 . S
C259 O256 1.249 . S
C259 O257 1.267 . S
Dy260 O264 2.398 1_554 S
Dy260 O265 2.491 1_554 S
Dy260 O266 2.403 . S
Dy260 O267 2.664 . S
Dy260 O271 2.326 . S
Dy260 O275 2.310 . S
Dy260 O276 2.351 . S
C261 O272 1.185 . S
C261 O273 1.355 . S
C262 O264 1.185 . S
C262 O265 1.355 . S
Dy263 O267 2.310 . S
Dy263 O270 2.351 . S
Dy263 O272 2.398 . S
Dy263 O273 2.491 . S
Dy263 O274 2.403 . S
Dy263 O275 2.664 . S
Dy263 O277 2.326 . S
O264 Dy260 2.398 1_556 S
O264 C262 1.185 . S
O265 Dy260 2.491 1_556 S
O265 C262 1.355 . S
O266 Dy260 2.403 . S
O266 C268 1.254 . S
O267 Dy260 2.664 . S
O267 Dy263 2.310 . S
O267 C268 1.268 . S
C268 O266 1.254 . S
C268 O267 1.268 . S
C269 O274 1.254 . S
C269 O275 1.268 . S
O270 Dy263 2.351 . S
O270 C278 1.249 . S
O271 Dy260 2.326 . S
O271 C278 1.267 . S
O272 C261 1.185 . S
O272 Dy263 2.398 . S
O273 C261 1.355 . S
O273 Dy263 2.491 . S
O274 Dy263 2.403 . S
O274 C269 1.254 . S
O275 Dy260 2.310 . S
O275 Dy263 2.664 . S
O275 C269 1.268 . S
O276 Dy260 2.351 . S
O276 C279 1.249 . S
O277 Dy263 2.326 . S
O277 C279 1.267 . S
C278 O270 1.249 . S
C278 O271 1.267 . S
C279 O276 1.249 . S
C279 O277 1.267 . S
Dy280 O284 2.398 . S
Dy280 O285 2.491 . S
Dy280 O286 2.403 . S
Dy280 O287 2.664 . S
Dy280 O291 2.326 . S
Dy280 O295 2.310 . S
Dy280 O296 2.351 . S
C281 O292 1.185 . S
C281 O293 1.355 . S
C282 O284 1.185 . S
C282 O285 1.355 . S
Dy283 O287 2.310 . S
Dy283 O290 2.351 . S
Dy283 O292 2.398 . S
Dy283 O293 2.491 . S
Dy283 O294 2.403 . S
Dy283 O295 2.664 . S
Dy283 O297 2.326 . S
O284 Dy280 2.398 . S
O284 C282 1.185 . S
O285 Dy280 2.491 . S
O285 C282 1.355 . S
O286 Dy280 2.403 . S
O286 C288 1.254 . S
O287 Dy280 2.664 . S
O287 Dy283 2.310 . S
O287 C288 1.268 . S
C288 O286 1.254 . S
C288 O287 1.268 . S
C289 O294 1.254 . S
C289 O295 1.268 . S
O290 Dy283 2.351 . S
O290 C298 1.249 . S
O291 Dy280 2.326 . S
O291 C298 1.267 . S
O292 C281 1.185 . S
O292 Dy283 2.398 . S
O293 C281 1.355 . S
O293 Dy283 2.491 . S
O294 Dy283 2.403 . S
O294 C289 1.254 . S
O295 Dy280 2.310 . S
O295 Dy283 2.664 . S
O295 C289 1.268 . S
O296 Dy280 2.351 . S
O296 C299 1.249 . S
O297 Dy283 2.326 . S
O297 C299 1.267 . S
C298 O290 1.249 . S
C298 O291 1.267 . S
C299 O296 1.249 . S
C299 O297 1.267 . S
Dy300 O304 2.398 . S
Dy300 O305 2.491 . S
Dy300 O306 2.403 . S
Dy300 O307 2.664 . S
Dy300 O311 2.326 . S
Dy300 O315 2.310 . S
Dy300 O316 2.351 . S
C301 O312 1.185 1_556 S
C301 O313 1.355 1_556 S
C302 O304 1.185 . S
C302 O305 1.355 . S
Dy303 O307 2.310 . S
Dy303 O310 2.351 . S
Dy303 O312 2.398 . S
Dy303 O313 2.491 . S
Dy303 O314 2.403 . S
Dy303 O315 2.664 . S
Dy303 O317 2.326 . S
O304 Dy300 2.398 . S
O304 C302 1.185 . S
O305 Dy300 2.491 . S
O305 C302 1.355 . S
O306 Dy300 2.403 . S
O306 C308 1.254 . S
O307 Dy300 2.664 . S
O307 Dy303 2.310 . S
O307 C308 1.268 . S
C308 O306 1.254 . S
C308 O307 1.268 . S
C309 O314 1.254 . S
C309 O315 1.268 . S
O310 Dy303 2.351 . S
O310 C318 1.249 . S
O311 Dy300 2.326 . S
O311 C318 1.267 . S
O312 C301 1.185 1_554 S
O312 Dy303 2.398 . S
O313 C301 1.355 1_554 S
O313 Dy303 2.491 . S
O314 Dy303 2.403 . S
O314 C309 1.254 . S
O315 Dy300 2.310 . S
O315 Dy303 2.664 . S
O315 C309 1.268 . S
O316 Dy300 2.351 . S
O316 C319 1.249 . S
O317 Dy303 2.326 . S
O317 C319 1.267 . S
C318 O310 1.249 . S
C318 O311 1.267 . S
C319 O316 1.249 . S
C319 O317 1.267 . S
Dy320 O324 2.398 . S
Dy320 O325 2.491 . S
Dy320 O326 2.403 . S
Dy320 O327 2.664 . S
Dy320 O331 2.326 . S
Dy320 O335 2.310 . S
Dy320 O336 2.351 . S
C321 O332 1.185 . S
C321 O333 1.355 . S
C322 O324 1.185 . S
C322 O325 1.355 . S
Dy323 O327 2.310 . S
Dy323 O330 2.351 . S
Dy323 O332 2.398 . S
Dy323 O333 2.491 . S
Dy323 O334 2.403 . S
Dy323 O335 2.664 . S
Dy323 O337 2.326 . S
O324 Dy320 2.398 . S
O324 C322 1.185 . S
O325 Dy320 2.491 . S
O325 C322 1.355 . S
O326 Dy320 2.403 . S
O326 C328 1.254 . S
O327 Dy320 2.664 . S
O327 Dy323 2.310 . S
O327 C328 1.268 . S
C328 O326 1.254 . S
C328 O327 1.268 . S
C329 O334 1.254 . S
C329 O335 1.268 . S
O330 Dy323 2.351 . S
O330 C338 1.249 . S
O331 Dy320 2.326 . S
O331 C338 1.267 . S
O332 C321 1.185 . S
O332 Dy323 2.398 . S
O333 C321 1.355 . S
O333 Dy323 2.491 . S
O334 Dy323 2.403 . S
O334 C329 1.254 . S
O335 Dy320 2.310 . S
O335 Dy323 2.664 . S
O335 C329 1.268 . S
O336 Dy320 2.351 . S
O336 C339 1.249 . S
O337 Dy323 2.326 . S
O337 C339 1.267 . S
C338 O330 1.249 . S
C338 O331 1.267 . S
C339 O336 1.249 . S
C339 O337 1.267 . S
Dy340 O344 2.398 . S
Dy340 O345 2.491 . S
Dy340 O346 2.403 . S
Dy340 O347 2.664 . S
Dy340 O351 2.326 . S
Dy340 O355 2.310 . S
Dy340 O356 2.351 . S
C341 O352 1.185 . S
C341 O353 1.355 . S
C342 O344 1.185 . S
C342 O345 1.355 . S
Dy343 O347 2.310 . S
Dy343 O350 2.351 . S
Dy343 O352 2.398 . S
Dy343 O353 2.491 . S
Dy343 O354 2.403 . S
Dy343 O355 2.664 . S
Dy343 O357 2.326 . S
O344 Dy340 2.398 . S
O344 C342 1.185 . S
O345 Dy340 2.491 . S
O345 C342 1.355 . S
O346 Dy340 2.403 . S
O346 C348 1.254 . S
O347 Dy340 2.664 . S
O347 Dy343 2.310 . S
O347 C348 1.268 . S
C348 O346 1.254 . S
C348 O347 1.268 . S
C349 O354 1.254 . S
C349 O355 1.268 . S
O350 Dy343 2.351 . S
O350 C358 1.249 . S
O351 Dy340 2.326 . S
O351 C358 1.267 . S
O352 C341 1.185 . S
O352 Dy343 2.398 . S
O353 C341 1.355 . S
O353 Dy343 2.491 . S
O354 Dy343 2.403 . S
O354 C349 1.254 . S
O355 Dy340 2.310 . S
O355 Dy343 2.664 . S
O355 C349 1.268 . S
O356 Dy340 2.351 . S
O356 C359 1.249 . S
O357 Dy343 2.326 . S
O357 C359 1.267 . S
C358 O350 1.249 . S
C358 O351 1.267 . S
C359 O356 1.249 . S
C359 O357 1.267 . S
H360 C368 0.929 . S
H361 C370 0.930 . S
H362 C372 0.930 . S
H363 C375 0.929 . S
H364 C378 0.930 . S
H365 C380 0.960 . S
H366 C380 0.960 . S
H367 C380 0.960 . S
C368 H360 0.929 . S
C368 C369 1.377 . S
C368 C370 1.384 . S
C369 C368 1.377 . S
C369 C375 1.390 . S
C370 H361 0.930 . S
C370 C368 1.384 . S
C370 C371 1.372 . S
C371 C370 1.372 . S
C371 C372 1.400 . S
C371 C376 1.490 . S
C372 H362 0.930 . S
C372 C371 1.400 . S
C372 C375 1.386 . S
H373 C389 0.930 . S
H374 C390 0.931 . S
C375 H363 0.929 . S
C375 C369 1.390 . S
C375 C372 1.386 . S
C376 C371 1.490 . S
C376 C378 1.395 . S
C376 C379 1.403 . S
H377 C383 0.930 . S
C378 H364 0.930 . S
C378 C376 1.395 . S
C378 C381 1.403 . S
C379 C376 1.403 . S
C379 C380 1.524 . S
C379 C383 1.400 . S
C380 H365 0.960 . S
C380 H366 0.960 . S
C380 H367 0.960 . S
C380 C379 1.524 . S
C381 C378 1.403 . S
C381 C382 1.392 . S
C381 C385 1.495 . S
C382 C381 1.392 . S
C382 C383 1.385 . S
C382 C384 1.478 . S
C383 H377 0.930 . S
C383 C379 1.400 . S
C383 C382 1.385 . S
C384 C382 1.478 . S
C384 C386 1.381 . S
C384 C390 1.383 . S
C385 C381 1.495 . S
C385 H391 0.959 . S
C385 H392 0.961 . S
C385 H393 0.960 . S
C386 C384 1.381 . S
C386 C387 1.394 . S
C386 H394 0.930 . S
C387 C386 1.394 . S
C387 C388 1.383 . S
C387 H395 0.929 . S
C388 C387 1.383 . S
C388 C389 1.377 . S
C389 H373 0.930 . S
C389 C388 1.377 . S
C389 C390 1.379 . S
C390 H374 0.931 . S
C390 C384 1.383 . S
C390 C389 1.379 . S
H391 C385 0.959 . S
H392 C385 0.961 . S
H393 C385 0.960 . S
H394 C386 0.930 . S
H395 C387 0.929 . S
H396 C404 0.929 . S
H397 C406 0.930 . S
H398 C408 0.930 . S
H399 C411 0.929 . S
H400 C414 0.930 . S
H401 C416 0.960 . S
H402 C416 0.960 . S
H403 C416 0.960 . S
C404 H396 0.929 . S
C404 C405 1.377 . S
C404 C406 1.384 . S
C405 C404 1.377 . S
C405 C411 1.390 . S
C406 H397 0.930 . S
C406 C404 1.384 . S
C406 C407 1.372 . S
C407 C406 1.372 . S
C407 C408 1.400 . S
C407 C412 1.490 . S
C408 H398 0.930 . S
C408 C407 1.400 . S
C408 C411 1.386 . S
H409 C425 0.930 . S
H410 C426 0.931 . S
C411 H399 0.929 . S
C411 C405 1.390 . S
C411 C408 1.386 . S
C412 C407 1.490 . S
C412 C414 1.395 . S
C412 C415 1.403 . S
H413 C419 0.930 . S
C414 H400 0.930 . S
C414 C412 1.395 . S
C414 C417 1.403 . S
C415 C412 1.403 . S
C415 C416 1.524 . S
C415 C419 1.400 . S
C416 H401 0.960 . S
C416 H402 0.960 . S
C416 H403 0.960 . S
C416 C415 1.524 . S
C417 C414 1.403 . S
C417 C418 1.392 . S
C417 C421 1.495 . S
C418 C417 1.392 . S
C418 C419 1.385 . S
C418 C420 1.478 . S
C419 H413 0.930 . S
C419 C415 1.400 . S
C419 C418 1.385 . S
C420 C418 1.478 . S
C420 C422 1.381 . S
C420 C426 1.383 . S
C421 C417 1.495 . S
C421 H427 0.959 . S
C421 H428 0.961 . S
C421 H429 0.960 . S
C422 C420 1.381 . S
C422 C423 1.394 . S
C422 H430 0.930 . S
C423 C422 1.394 . S
C423 C424 1.383 . S
C423 H431 0.929 . S
C424 C423 1.383 . S
C424 C425 1.377 . S
C425 H409 0.930 . S
C425 C424 1.377 . S
C425 C426 1.379 . S
C426 H410 0.931 . S
C426 C420 1.383 . S
C426 C425 1.379 . S
H427 C421 0.959 . S
H428 C421 0.961 . S
H429 C421 0.960 . S
H430 C422 0.930 . S
H431 C423 0.929 . S
H432 C440 0.929 . S
H433 C442 0.930 . S
H434 C444 0.930 . S
H435 C447 0.929 . S
H436 C450 0.930 . S
H437 C452 0.960 . S
H438 C452 0.960 . S
H439 C452 0.960 . S
C440 H432 0.929 . S
C440 C441 1.377 . S
C440 C442 1.384 . S
C441 C440 1.377 . S
C441 C447 1.390 . S
C442 H433 0.930 . S
C442 C440 1.384 . S
C442 C443 1.372 . S
C443 C442 1.372 . S
C443 C444 1.400 . S
C443 C448 1.490 . S
C444 H434 0.930 . S
C444 C443 1.400 . S
C444 C447 1.386 . S
H445 C461 0.930 . S
H446 C462 0.931 . S
C447 H435 0.929 . S
C447 C441 1.390 . S
C447 C444 1.386 . S
C448 C443 1.490 . S
C448 C450 1.395 . S
C448 C451 1.403 . S
H449 C455 0.930 . S
C450 H436 0.930 . S
C450 C448 1.395 . S
C450 C453 1.403 . S
C451 C448 1.403 . S
C451 C452 1.524 . S
C451 C455 1.400 . S
C452 H437 0.960 . S
C452 H438 0.960 . S
C452 H439 0.960 . S
C452 C451 1.524 . S
C453 C450 1.403 . S
C453 C454 1.392 . S
C453 C457 1.495 . S
C454 C453 1.392 . S
C454 C455 1.385 . S
C454 C456 1.478 . S
C455 H449 0.930 . S
C455 C451 1.400 . S
C455 C454 1.385 . S
C456 C454 1.478 . S
C456 C458 1.381 . S
C456 C462 1.383 . S
C457 C453 1.495 . S
C457 H463 0.959 . S
C457 H464 0.961 . S
C457 H465 0.960 . S
C458 C456 1.381 . S
C458 C459 1.394 . S
C458 H466 0.930 . S
C459 C458 1.394 . S
C459 C460 1.383 . S
C459 H467 0.929 . S
C460 C459 1.383 . S
C460 C461 1.377 . S
C461 H445 0.930 . S
C461 C460 1.377 . S
C461 C462 1.379 . S
C462 H446 0.931 . S
C462 C456 1.383 . S
C462 C461 1.379 . S
H463 C457 0.959 . S
H464 C457 0.961 . S
H465 C457 0.960 . S
H466 C458 0.930 . S
H467 C459 0.929 . S
H468 C476 0.929 . S
H469 C478 0.930 . S
H470 C480 0.930 . S
H471 C483 0.929 . S
H472 C486 0.930 . S
H473 C488 0.960 . S
H474 C488 0.960 . S
H475 C488 0.960 . S
C476 H468 0.929 . S
C476 C477 1.377 . S
C476 C478 1.384 . S
C477 C476 1.377 . S
C477 C483 1.390 . S
C478 H469 0.930 . S
C478 C476 1.384 . S
C478 C479 1.372 . S
C479 C478 1.372 . S
C479 C480 1.400 . S
C479 C484 1.490 . S
C480 H470 0.930 . S
C480 C479 1.400 . S
C480 C483 1.386 . S
H481 C497 0.930 . S
H482 C498 0.931 . S
C483 H471 0.929 . S
C483 C477 1.390 . S
C483 C480 1.386 . S
C484 C479 1.490 . S
C484 C486 1.395 . S
C484 C487 1.403 . S
H485 C491 0.930 . S
C486 H472 0.930 . S
C486 C484 1.395 . S
C486 C489 1.403 . S
C487 C484 1.403 . S
C487 C488 1.524 . S
C487 C491 1.400 . S
C488 H473 0.960 . S
C488 H474 0.960 . S
C488 H475 0.960 . S
C488 C487 1.524 . S
C489 C486 1.403 . S
C489 C490 1.392 . S
C489 C493 1.495 . S
C490 C489 1.392 . S
C490 C491 1.385 . S
C490 C492 1.478 . S
C491 H485 0.930 . S
C491 C487 1.400 . S
C491 C490 1.385 . S
C492 C490 1.478 . S
C492 C494 1.381 . S
C492 C498 1.383 . S
C493 C489 1.495 . S
C493 H499 0.959 . S
C493 H500 0.961 . S
C493 H501 0.960 . S
C494 C492 1.381 . S
C494 C495 1.394 . S
C494 H502 0.930 . S
C495 C494 1.394 . S
C495 C496 1.383 . S
C495 H503 0.929 . S
C496 C495 1.383 . S
C496 C497 1.377 . S
C497 H481 0.930 . S
C497 C496 1.377 . S
C497 C498 1.379 . S
C498 H482 0.931 . S
C498 C492 1.383 . S
C498 C497 1.379 . S
H499 C493 0.959 . S
H500 C493 0.961 . S
H501 C493 0.960 . S
H502 C494 0.930 . S
H503 C495 0.929 . S
H504 C512 0.929 . S
H505 C514 0.930 . S
H506 C516 0.930 . S
H507 C519 0.929 . S
H508 C522 0.930 . S
H509 C524 0.960 . S
H510 C524 0.960 . S
H511 C524 0.960 . S
C512 H504 0.929 . S
C512 C513 1.377 . S
C512 C514 1.384 . S
C513 C512 1.377 . S
C513 C519 1.390 . S
C514 H505 0.930 . S
C514 C512 1.384 . S
C514 C515 1.372 . S
C515 C514 1.372 . S
C515 C516 1.400 . S
C515 C520 1.490 . S
C516 H506 0.930 . S
C516 C515 1.400 . S
C516 C519 1.386 . S
H517 C533 0.930 . S
H518 C534 0.931 . S
C519 H507 0.929 . S
C519 C513 1.390 . S
C519 C516 1.386 . S
C520 C515 1.490 . S
C520 C522 1.395 . S
C520 C523 1.403 . S
H521 C527 0.930 . S
C522 H508 0.930 . S
C522 C520 1.395 . S
C522 C525 1.403 . S
C523 C520 1.403 . S
C523 C524 1.524 . S
C523 C527 1.400 . S
C524 H509 0.960 . S
C524 H510 0.960 . S
C524 H511 0.960 . S
C524 C523 1.524 . S
C525 C522 1.403 . S
C525 C526 1.392 . S
C525 C529 1.495 . S
C526 C525 1.392 . S
C526 C527 1.385 . S
C526 C528 1.478 . S
C527 H521 0.930 . S
C527 C523 1.400 . S
C527 C526 1.385 . S
C528 C526 1.478 . S
C528 C530 1.381 . S
C528 C534 1.383 . S
C529 C525 1.495 . S
C529 H535 0.959 . S
C529 H536 0.961 . S
C529 H537 0.960 . S
C530 C528 1.381 . S
C530 C531 1.394 . S
C530 H538 0.930 . S
C531 C530 1.394 . S
C531 C532 1.383 . S
C531 H539 0.936 . S
C532 C531 1.383 . S
C532 C533 1.377 . S
C533 H517 0.930 . S
C533 C532 1.377 . S
C533 C534 1.379 . S
C534 H518 0.931 . S
C534 C528 1.383 . S
C534 C533 1.379 . S
H535 C529 0.959 . S
H536 C529 0.961 . S
H537 C529 0.960 . S
H538 C530 0.930 . S
H539 C531 0.936 . S
H540 C548 0.929 . S
H541 C550 0.930 . S
H542 C552 0.930 . S
H543 C555 0.929 . S
H544 C558 0.930 . S
H545 C560 0.960 . S
H546 C560 0.960 . S
H547 C560 0.960 . S
C548 H540 0.929 . S
C548 C549 1.377 . S
C548 C550 1.384 . S
C549 C548 1.377 . S
C549 C555 1.390 . S
C550 H541 0.930 . S
C550 C548 1.384 . S
C550 C551 1.372 . S
C551 C550 1.372 . S
C551 C552 1.400 . S
C551 C556 1.490 . S
C552 H542 0.930 . S
C552 C551 1.400 . S
C552 C555 1.386 . S
H553 C569 0.930 . S
H554 C570 0.931 . S
C555 H543 0.929 . S
C555 C549 1.390 . S
C555 C552 1.386 . S
C556 C551 1.490 . S
C556 C558 1.395 . S
C556 C559 1.403 . S
H557 C563 0.930 . S
C558 H544 0.930 . S
C558 C556 1.395 . S
C558 C561 1.403 . S
C559 C556 1.403 . S
C559 C560 1.524 . S
C559 C563 1.400 . S
C560 H545 0.960 . S
C560 H546 0.960 . S
C560 H547 0.960 . S
C560 C559 1.524 . S
C561 C558 1.403 . S
C561 C562 1.392 . S
C561 C565 1.495 . S
C562 C561 1.392 . S
C562 C563 1.385 . S
C562 C564 1.478 . S
C563 H557 0.930 . S
C563 C559 1.400 . S
C563 C562 1.385 . S
C564 C562 1.478 . S
C564 C566 1.381 . S
C564 C570 1.383 . S
C565 C561 1.495 . S
C565 H571 0.959 . S
C565 H572 0.961 . S
C565 H573 0.960 . S
C566 C564 1.381 . S
C566 C567 1.394 . S
C566 H574 0.930 . S
C567 C566 1.394 . S
C567 C568 1.383 . S
C567 H575 0.929 . S
C568 C567 1.383 . S
C568 C569 1.377 . S
C569 H553 0.930 . S
C569 C568 1.377 . S
C569 C570 1.379 . S
C570 H554 0.931 . S
C570 C564 1.383 . S
C570 C569 1.379 . S
H571 C565 0.959 . S
H572 C565 0.961 . S
H573 C565 0.960 . S
H574 C566 0.930 . S
H575 C567 0.929 . S
H576 C584 0.929 . S
H577 C586 0.930 . S
H578 C588 0.930 . S
H579 C591 0.929 . S
H580 C594 0.930 . S
H581 C596 0.960 . S
H582 C596 0.960 . S
H583 C596 0.960 . S
C584 H576 0.929 . S
C584 C585 1.377 . S
C584 C586 1.384 . S
C585 C584 1.377 . S
C585 C591 1.390 . S
C586 H577 0.930 . S
C586 C584 1.384 . S
C586 C587 1.372 . S
C587 C586 1.372 . S
C587 C588 1.400 . S
C587 C592 1.490 . S
C588 H578 0.930 . S
C588 C587 1.400 . S
C588 C591 1.386 . S
H589 C605 0.930 . S
H590 C606 0.931 . S
C591 H579 0.929 . S
C591 C585 1.390 . S
C591 C588 1.386 . S
C592 C587 1.490 . S
C592 C594 1.395 . S
C592 C595 1.403 . S
H593 C599 0.930 . S
C594 H580 0.930 . S
C594 C592 1.395 . S
C594 C597 1.403 . S
C595 C592 1.403 . S
C595 C596 1.524 . S
C595 C599 1.400 . S
C596 H581 0.960 . S
C596 H582 0.960 . S
C596 H583 0.960 . S
C596 C595 1.524 . S
C597 C594 1.403 . S
C597 C598 1.392 . S
C597 C601 1.495 . S
C598 C597 1.392 . S
C598 C599 1.385 . S
C598 C600 1.478 . S
C599 H593 0.930 . S
C599 C595 1.400 . S
C599 C598 1.385 . S
C600 C598 1.478 . S
C600 C602 1.381 . S
C600 C606 1.383 . S
C601 C597 1.495 . S
C601 H607 0.959 . S
C601 H608 0.961 . S
C601 H609 0.960 . S
C602 C600 1.381 . S
C602 C603 1.394 . S
C602 H610 0.930 . S
C603 C602 1.394 . S
C603 C604 1.383 . S
C603 H611 0.929 . S
C604 C603 1.383 . S
C604 C605 1.377 . S
C605 H589 0.930 . S
C605 C604 1.377 . S
C605 C606 1.379 . S
C606 H590 0.931 . S
C606 C600 1.383 . S
C606 C605 1.379 . S
H607 C601 0.959 . S
H608 C601 0.961 . S
H609 C601 0.960 . S
H610 C602 0.930 . S
H611 C603 0.929 . S
H612 C620 0.929 . S
H613 C622 0.930 . S
H614 C624 0.930 . S
H615 C627 0.929 . S
H616 C630 0.930 . S
H617 C632 0.960 . S
H618 C632 0.960 . S
H619 C632 0.960 . S
C620 H612 0.929 . S
C620 C621 1.377 . S
C620 C622 1.384 . S
C621 C620 1.377 . S
C621 C627 1.390 . S
C622 H613 0.930 . S
C622 C620 1.384 . S
C622 C623 1.372 . S
C623 C622 1.372 . S
C623 C624 1.400 . S
C623 C628 1.490 . S
C624 H614 0.930 . S
C624 C623 1.400 . S
C624 C627 1.386 . S
H625 C641 0.930 . S
H626 C642 0.931 . S
C627 H615 0.929 . S
C627 C621 1.390 . S
C627 C624 1.386 . S
C628 C623 1.490 . S
C628 C630 1.395 . S
C628 C631 1.403 . S
H629 C635 0.930 . S
C630 H616 0.930 . S
C630 C628 1.395 . S
C630 C633 1.403 . S
C631 C628 1.403 . S
C631 C632 1.524 . S
C631 C635 1.400 . S
C632 H617 0.960 . S
C632 H618 0.960 . S
C632 H619 0.960 . S
C632 C631 1.524 . S
C633 C630 1.403 . S
C633 C634 1.392 . S
C633 C637 1.495 . S
C634 C633 1.392 . S
C634 C635 1.385 . S
C634 C636 1.478 . S
C635 H629 0.930 . S
C635 C631 1.400 . S
C635 C634 1.385 . S
C636 C634 1.478 . S
C636 C638 1.381 . S
C636 C642 1.383 . S
C637 C633 1.495 . S
C637 H643 0.959 . S
C637 H644 0.961 . S
C637 H645 0.960 . S
C638 C636 1.381 . S
C638 C639 1.394 . S
C638 H646 0.930 . S
C639 C638 1.394 . S
C639 C640 1.383 . S
C639 H647 0.929 . S
C640 C639 1.383 . S
C640 C641 1.377 . S
C641 H625 0.930 . S
C641 C640 1.377 . S
C641 C642 1.379 . S
C642 H626 0.931 . S
C642 C636 1.383 . S
C642 C641 1.379 . S
H643 C637 0.959 . S
H644 C637 0.961 . S
H645 C637 0.960 . S
H646 C638 0.930 . S
H647 C639 0.929 . S
H648 C656 0.929 . S
H649 C658 0.930 . S
H650 C660 0.930 . S
H651 C663 0.929 . S
H652 C666 0.930 . S
H653 C668 0.960 . S
H654 C668 0.960 . S
H655 C668 0.960 . S
C656 H648 0.929 . S
C656 C657 1.377 . S
C656 C658 1.384 . S
C657 C656 1.377 . S
C657 C663 1.390 . S
C658 H649 0.930 . S
C658 C656 1.384 . S
C658 C659 1.372 . S
C659 C658 1.372 . S
C659 C660 1.400 . S
C659 C664 1.490 . S
C660 H650 0.930 . S
C660 C659 1.400 . S
C660 C663 1.386 . S
H661 C677 0.930 . S
H662 C678 0.931 . S
C663 H651 0.929 . S
C663 C657 1.390 . S
C663 C660 1.386 . S
C664 C659 1.490 . S
C664 C666 1.395 . S
C664 C667 1.403 . S
H665 C671 0.930 . S
C666 H652 0.930 . S
C666 C664 1.395 . S
C666 C669 1.403 . S
C667 C664 1.403 . S
C667 C668 1.524 . S
C667 C671 1.400 . S
C668 H653 0.960 . S
C668 H654 0.960 . S
C668 H655 0.960 . S
C668 C667 1.524 . S
C669 C666 1.403 . S
C669 C670 1.392 . S
C669 C673 1.495 . S
C670 C669 1.392 . S
C670 C671 1.385 . S
C670 C672 1.478 . S
C671 H665 0.930 . S
C671 C667 1.400 . S
C671 C670 1.385 . S
C672 C670 1.478 . S
C672 C674 1.381 . S
C672 C678 1.383 . S
C673 C669 1.495 . S
C673 H679 0.959 . S
C673 H680 0.961 . S
C673 H681 0.960 . S
C674 C672 1.381 . S
C674 C675 1.394 . S
C674 H682 0.930 . S
C675 C674 1.394 . S
C675 C676 1.383 . S
C675 H683 0.929 . S
C676 C675 1.383 . S
C676 C677 1.377 . S
C677 H661 0.930 . S
C677 C676 1.377 . S
C677 C678 1.379 . S
C678 H662 0.931 . S
C678 C672 1.383 . S
C678 C677 1.379 . S
H679 C673 0.959 . S
H680 C673 0.961 . S
H681 C673 0.960 . S
H682 C674 0.930 . S
H683 C675 0.929 . S
H684 C692 0.929 . S
H685 C694 0.930 . S
H686 C696 0.930 . S
H687 C699 0.929 . S
H688 C702 0.930 . S
H689 C704 0.960 . S
H690 C704 0.960 . S
H691 C704 0.960 . S
C692 H684 0.929 . S
C692 C693 1.377 . S
C692 C694 1.384 . S
C693 C692 1.377 . S
C693 C699 1.390 . S
C694 H685 0.930 . S
C694 C692 1.384 . S
C694 C695 1.372 . S
C695 C694 1.372 . S
C695 C696 1.400 . S
C695 C700 1.490 . S
C696 H686 0.930 . S
C696 C695 1.400 . S
C696 C699 1.386 . S
H697 C713 0.930 . S
H698 C714 0.931 . S
C699 H687 0.929 . S
C699 C693 1.390 . S
C699 C696 1.386 . S
C700 C695 1.490 . S
C700 C702 1.395 . S
C700 C703 1.403 . S
H701 C707 0.930 . S
C702 H688 0.930 . S
C702 C700 1.395 . S
C702 C705 1.403 . S
C703 C700 1.403 . S
C703 C704 1.524 . S
C703 C707 1.400 . S
C704 H689 0.960 . S
C704 H690 0.960 . S
C704 H691 0.960 . S
C704 C703 1.524 . S
C705 C702 1.403 . S
C705 C706 1.392 . S
C705 C709 1.495 . S
C706 C705 1.392 . S
C706 C707 1.385 . S
C706 C708 1.478 . S
C707 H701 0.930 . S
C707 C703 1.400 . S
C707 C706 1.385 . S
C708 C706 1.478 . S
C708 C710 1.381 . S
C708 C714 1.383 . S
C709 C705 1.495 . S
C709 H715 0.959 . S
C709 H716 0.961 . S
C709 H717 0.960 . S
C710 C708 1.381 . S
C710 C711 1.394 . S
C710 H718 0.930 . S
C711 C710 1.394 . S
C711 C712 1.383 . S
C711 H719 0.929 1_565 S
C712 C711 1.383 . S
C712 C713 1.377 . S
C713 H697 0.930 . S
C713 C712 1.377 . S
C713 C714 1.379 . S
C714 H698 0.931 . S
C714 C708 1.383 . S
C714 C713 1.379 . S
H715 C709 0.959 . S
H716 C709 0.961 . S
H717 C709 0.960 . S
H718 C710 0.930 . S
H719 C711 0.929 1_545 S
H720 C728 0.929 . S
H721 C730 0.930 . S
H722 C732 0.930 . S
H723 C735 0.929 . S
H724 C738 0.930 . S
H725 C740 0.960 . S
H726 C740 0.960 . S
H727 C740 0.960 . S
C728 H720 0.929 . S
C728 C729 1.377 . S
C728 C730 1.384 . S
C729 C728 1.377 . S
C729 C735 1.390 . S
C730 H721 0.930 . S
C730 C728 1.384 . S
C730 C731 1.372 . S
C731 C730 1.372 . S
C731 C732 1.400 . S
C731 C736 1.490 . S
C732 H722 0.930 . S
C732 C731 1.400 . S
C732 C735 1.386 . S
H733 C749 0.930 . S
H734 C750 0.931 . S
C735 H723 0.929 . S
C735 C729 1.390 . S
C735 C732 1.386 . S
C736 C731 1.490 . S
C736 C738 1.395 . S
C736 C739 1.403 . S
H737 C743 0.930 . S
C738 H724 0.930 . S
C738 C736 1.395 . S
C738 C741 1.403 . S
C739 C736 1.403 . S
C739 C740 1.524 . S
C739 C743 1.400 . S
C740 H725 0.960 . S
C740 H726 0.960 . S
C740 H727 0.960 . S
C740 C739 1.524 . S
C741 C738 1.403 . S
C741 C742 1.392 . S
C741 C745 1.495 . S
C742 C741 1.392 . S
C742 C743 1.385 . S
C742 C744 1.478 . S
C743 H737 0.930 . S
C743 C739 1.400 . S
C743 C742 1.385 . S
C744 C742 1.478 . S
C744 C746 1.381 . S
C744 C750 1.383 . S
C745 C741 1.495 . S
C745 H751 0.959 . S
C745 H752 0.961 . S
C745 H753 0.960 . S
C746 C744 1.381 . S
C746 C747 1.394 . S
C746 H754 0.930 . S
C747 C746 1.394 . S
C747 C748 1.383 . S
C747 H755 0.929 . S
C748 C747 1.383 . S
C748 C749 1.377 . S
C749 H733 0.930 . S
C749 C748 1.377 . S
C749 C750 1.379 . S
C750 H734 0.931 . S
C750 C744 1.383 . S
C750 C749 1.379 . S
H751 C745 0.959 . S
H752 C745 0.961 . S
H753 C745 0.960 . S
H754 C746 0.930 . S
H755 C747 0.929 . S
H756 C764 0.929 . S
H757 C766 0.930 . S
H758 C768 0.930 . S
H759 C771 0.929 . S
H760 C774 0.930 . S
H761 C776 0.960 . S
H762 C776 0.960 . S
H763 C776 0.960 . S
C764 H756 0.929 . S
C764 C765 1.377 . S
C764 C766 1.384 . S
C765 C764 1.377 . S
C765 C771 1.390 . S
C766 H757 0.930 . S
C766 C764 1.384 . S
C766 C767 1.372 . S
C767 C766 1.372 . S
C767 C768 1.400 . S
C767 C772 1.490 . S
C768 H758 0.930 . S
C768 C767 1.400 . S
C768 C771 1.386 . S
H769 C785 0.930 . S
H770 C786 0.931 . S
C771 H759 0.929 . S
C771 C765 1.390 . S
C771 C768 1.386 . S
C772 C767 1.490 . S
C772 C774 1.395 . S
C772 C775 1.403 . S
H773 C779 0.930 . S
C774 H760 0.930 . S
C774 C772 1.395 . S
C774 C777 1.403 . S
C775 C772 1.403 . S
C775 C776 1.524 . S
C775 C779 1.400 . S
C776 H761 0.960 . S
C776 H762 0.960 . S
C776 H763 0.960 . S
C776 C775 1.524 . S
C777 C774 1.403 . S
C777 C778 1.392 . S
C777 C781 1.495 . S
C778 C777 1.392 . S
C778 C779 1.385 . S
C778 C780 1.478 . S
C779 H773 0.930 . S
C779 C775 1.400 . S
C779 C778 1.385 . S
C780 C778 1.478 . S
C780 C782 1.381 . S
C780 C786 1.383 . S
C781 C777 1.495 . S
C781 H787 0.959 . S
C781 H788 0.961 . S
C781 H789 0.960 . S
C782 C780 1.381 . S
C782 C783 1.394 . S
C782 H790 0.930 . S
C783 C782 1.394 . S
C783 C784 1.383 . S
C783 H791 0.929 . S
C784 C783 1.383 . S
C784 C785 1.377 . S
C785 H769 0.930 . S
C785 C784 1.377 . S
C785 C786 1.379 . S
C786 H770 0.931 . S
C786 C780 1.383 . S
C786 C785 1.379 . S
H787 C781 0.959 . S
H788 C781 0.961 . S
H789 C781 0.960 . S
H790 C782 0.930 . S
H791 C783 0.929 . S
H792 C800 0.929 . S
H793 C802 0.930 . S
H794 C804 0.930 . S
H795 C807 0.929 . S
H796 C810 0.930 1_655 S
H797 C812 0.935 1_455 S
H798 C812 0.960 . S
H799 C812 0.960 . S
C800 H792 0.929 . S
C800 C801 1.377 . S
C800 C802 1.384 . S
C801 C800 1.377 . S
C801 C807 1.390 . S
C802 H793 0.930 . S
C802 C800 1.384 . S
C802 C803 1.372 . S
C803 C802 1.372 . S
C803 C804 1.400 . S
C803 C808 1.490 . S
C804 H794 0.930 . S
C804 C803 1.400 . S
C804 C807 1.386 . S
H805 C821 0.930 . S
H806 C822 0.931 . S
C807 H795 0.929 . S
C807 C801 1.390 . S
C807 C804 1.386 . S
C808 C803 1.490 . S
C808 C810 1.395 1_655 S
C808 C811 1.403 1_655 S
H809 C815 0.930 1_554 S
C810 H796 0.930 1_455 S
C810 C808 1.395 1_455 S
C810 C813 1.403 . S
C811 C808 1.403 1_455 S
C811 C812 1.524 1_455 S
C811 C815 1.400 . S
C812 H797 0.935 1_655 S
C812 H798 0.960 . S
C812 H799 0.960 . S
C812 C811 1.524 1_655 S
C813 C810 1.403 . S
C813 C814 1.392 1_556 S
C813 C817 1.494 1_556 S
C814 C813 1.392 1_554 S
C814 C815 1.385 1_554 S
C814 C816 1.478 . S
C815 H809 0.930 1_556 S
C815 C811 1.400 . S
C815 C814 1.385 1_556 S
C816 C814 1.478 . S
C816 C818 1.381 . S
C816 C822 1.383 . S
C817 C813 1.494 1_554 S
C817 H823 0.954 1_554 S
C817 H824 0.973 . S
C817 H825 0.954 1_554 S
C818 C816 1.381 . S
C818 C819 1.394 . S
C818 H826 0.930 1_554 S
C819 C818 1.394 . S
C819 C820 1.383 . S
C819 H827 0.929 . S
C820 C819 1.383 . S
C820 C821 1.377 . S
C821 H805 0.930 . S
C821 C820 1.377 . S
C821 C822 1.379 . S
C822 H806 0.931 . S
C822 C816 1.383 . S
C822 C821 1.379 . S
H823 C817 0.954 1_556 S
H824 C817 0.973 . S
H825 C817 0.954 1_556 S
H826 C818 0.930 1_556 S
H827 C819 0.929 . S
H828 C836 0.929 . S
H829 C838 0.930 . S
H830 C840 0.930 . S
H831 C843 0.929 . S
H832 C846 0.930 . S
H833 C848 0.960 . S
H834 C848 0.960 . S
H835 C848 0.960 . S
C836 H828 0.929 . S
C836 C837 1.377 . S
C836 C838 1.384 . S
C837 C836 1.377 . S
C837 C843 1.390 . S
C838 H829 0.930 . S
C838 C836 1.384 . S
C838 C839 1.372 . S
C839 C838 1.372 . S
C839 C840 1.400 . S
C839 C844 1.490 . S
C840 H830 0.930 . S
C840 C839 1.400 . S
C840 C843 1.386 . S
H841 C857 0.930 . S
H842 C858 0.931 1_556 S
C843 H831 0.929 . S
C843 C837 1.390 . S
C843 C840 1.386 . S
C844 C839 1.490 . S
C844 C846 1.395 . S
C844 C847 1.403 . S
H845 C851 0.930 . S
C846 H832 0.930 . S
C846 C844 1.395 . S
C846 C849 1.403 1_556 S
C847 C844 1.403 . S
C847 C848 1.524 . S
C847 C851 1.400 . S
C848 H833 0.960 . S
C848 H834 0.960 . S
C848 H835 0.960 . S
C848 C847 1.524 . S
C849 C846 1.403 1_554 S
C849 C850 1.392 . S
C849 C853 1.495 . S
C850 C849 1.392 . S
C850 C851 1.385 1_554 S
C850 C852 1.478 . S
C851 H845 0.930 . S
C851 C847 1.400 . S
C851 C850 1.385 1_556 S
C852 C850 1.478 . S
C852 C854 1.381 . S
C852 C858 1.383 . S
C853 C849 1.495 . S
C853 H859 0.959 . S
C853 H860 0.961 . S
C853 H861 0.960 . S
C854 C852 1.381 . S
C854 C855 1.394 . S
C854 H862 0.930 . S
C855 C854 1.394 . S
C855 C856 1.383 . S
C855 H863 0.929 . S
C856 C855 1.383 . S
C856 C857 1.377 . S
C857 H841 0.930 . S
C857 C856 1.377 . S
C857 C858 1.379 . S
C858 H842 0.931 1_554 S
C858 C852 1.383 . S
C858 C857 1.379 . S
H859 C853 0.959 . S
H860 C853 0.961 . S
H861 C853 0.960 . S
H862 C854 0.930 . S
H863 C855 0.929 . S
H864 C872 0.929 . S
H865 C874 0.930 . S
H866 C876 0.930 . S
H867 C879 0.929 . S
H868 C882 0.930 . S
H869 C884 0.991 . S
H870 C884 0.960 . S
H871 C884 0.960 . S
C872 H864 0.929 . S
C872 C873 1.377 . S
C872 C874 1.384 . S
C873 C872 1.377 . S
C873 C879 1.390 . S
C874 H865 0.930 . S
C874 C872 1.384 . S
C874 C875 1.372 . S
C875 C874 1.372 . S
C875 C876 1.400 . S
C875 C880 1.490 . S
C876 H866 0.930 . S
C876 C875 1.400 . S
C876 C879 1.386 . S
H877 C893 0.930 1_556 S
H878 C894 0.931 . S
C879 H867 0.929 . S
C879 C873 1.390 . S
C879 C876 1.386 . S
C880 C875 1.490 . S
C880 C882 1.395 . S
C880 C883 1.403 . S
H881 C887 0.930 . S
C882 H868 0.930 . S
C882 C880 1.395 . S
C882 C885 1.408 . S
C883 C880 1.403 . S
C883 C884 1.524 . S
C883 C887 1.400 1_545 S
C884 H869 0.991 . S
C884 H870 0.960 . S
C884 H871 0.960 . S
C884 C883 1.524 . S
C885 C882 1.408 . S
C885 C886 1.393 1_545 S
C885 C889 1.490 1_556 S
C886 C885 1.393 1_565 S
C886 C887 1.385 . S
C886 C888 1.478 1_556 S
C887 H881 0.930 . S
C887 C883 1.400 1_565 S
C887 C886 1.385 . S
C888 C886 1.478 1_554 S
C888 C890 1.381 . S
C888 C894 1.383 1_554 S
C889 C885 1.490 1_554 S
C889 H895 0.959 . S
C889 H896 0.961 . S
C889 H897 0.960 . S
C890 C888 1.381 . S
C890 C891 1.394 . S
C890 H898 0.930 . S
C891 C890 1.394 . S
C891 C892 1.383 . S
C891 H899 0.929 . S
C892 C891 1.383 . S
C892 C893 1.377 . S
C893 H877 0.930 1_554 S
C893 C892 1.377 . S
C893 C894 1.379 1_554 S
C894 H878 0.931 . S
C894 C888 1.383 1_556 S
C894 C893 1.379 1_556 S
H895 C889 0.959 . S
H896 C889 0.961 . S
H897 C889 0.960 . S
H898 C890 0.930 . S
H899 C891 0.929 . S
H900 C908 0.929 . S
H901 C910 0.930 . S
H902 C912 0.930 . S
H903 C915 0.929 . S
H904 C918 0.930 1_556 S
H905 C920 0.960 . S
H906 C920 0.960 . S
H907 C920 0.960 . S
C908 H900 0.929 . S
C908 C909 1.377 . S
C908 C910 1.384 . S
C909 C908 1.377 . S
C909 C915 1.390 . S
C910 H901 0.930 . S
C910 C908 1.384 . S
C910 C911 1.372 . S
C911 C910 1.372 . S
C911 C912 1.400 . S
C911 C916 1.490 . S
C912 H902 0.930 . S
C912 C911 1.400 . S
C912 C915 1.386 . S
H913 C929 0.930 . S
H914 C930 0.931 . S
C915 H903 0.929 . S
C915 C909 1.390 . S
C915 C912 1.386 . S
C916 C911 1.490 . S
C916 C918 1.395 1_556 S
C916 C919 1.403 . S
H917 C923 0.930 1_565 S
C918 H904 0.930 1_554 S
C918 C916 1.395 1_554 S
C918 C921 1.403 . S
C919 C916 1.403 . S
C919 C920 1.524 . S
C919 C923 1.400 1_556 S
C920 H905 0.960 . S
C920 H906 0.960 . S
C920 H907 0.960 . S
C920 C919 1.524 . S
C921 C918 1.403 . S
C921 C922 1.392 1_545 S
C921 C925 1.495 . S
C922 C921 1.392 1_565 S
C922 C923 1.385 1_565 S
C922 C924 1.478 . S
C923 H917 0.930 1_545 S
C923 C919 1.400 1_554 S
C923 C922 1.385 1_545 S
C924 C922 1.478 . S
C924 C926 1.381 . S
C924 C930 1.383 . S
C925 C921 1.495 . S
C925 H931 0.959 . S
C925 H932 0.961 . S
C925 H933 0.960 1_545 S
C926 C924 1.381 . S
C926 C927 1.394 . S
C926 H934 0.930 . S
C927 C926 1.394 . S
C927 C928 1.383 . S
C927 H935 0.929 . S
C928 C927 1.383 . S
C928 C929 1.377 . S
C929 H913 0.930 . S
C929 C928 1.377 . S
C929 C930 1.379 . S
C930 H914 0.931 . S
C930 C924 1.383 . S
C930 C929 1.379 . S
H931 C925 0.959 . S
H932 C925 0.961 . S
H933 C925 0.960 1_565 S
H934 C926 0.930 . S
H935 C927 0.929 . S
H936 C944 0.929 . S
H937 C946 0.930 . S
H938 C948 0.930 . S
H939 C951 0.929 . S
H940 C954 0.930 . S
H941 C956 0.960 . S
H942 C956 0.960 . S
H943 C956 0.960 . S
C944 H936 0.929 . S
C944 C945 1.377 . S
C944 C946 1.384 . S
C945 C944 1.377 . S
C945 C951 1.390 . S
C946 H937 0.930 . S
C946 C944 1.384 . S
C946 C947 1.372 . S
C947 C946 1.372 . S
C947 C948 1.400 . S
C947 C952 1.490 . S
C948 H938 0.930 . S
C948 C947 1.400 . S
C948 C951 1.386 . S
H949 C965 0.930 . S
H950 C966 0.931 . S
C951 H939 0.929 . S
C951 C945 1.390 . S
C951 C948 1.386 . S
C952 C947 1.490 . S
C952 C954 1.395 . S
C952 C955 1.403 . S
H953 C959 0.930 . S
C954 H940 0.930 . S
C954 C952 1.395 . S
C954 C957 1.403 1_455 S
C955 C952 1.403 . S
C955 C956 1.524 1_554 S
C955 C959 1.400 1_554 S
C956 H941 0.960 . S
C956 H942 0.960 . S
C956 H943 0.960 . S
C956 C955 1.524 1_556 S
C957 C954 1.403 1_655 S
C957 C958 1.392 . S
C957 C961 1.495 . S
C958 C957 1.392 . S
C958 C959 1.385 1_654 S
C958 C960 1.478 1_554 S
C959 H953 0.930 . S
C959 C955 1.400 1_556 S
C959 C958 1.385 1_456 S
C960 C958 1.478 1_556 S
C960 C962 1.381 . S
C960 C966 1.383 . S
C961 C957 1.495 . S
C961 H967 0.959 . S
C961 H968 0.961 . S
C961 H969 0.960 . S
C962 C960 1.381 . S
C962 C963 1.394 . S
C962 H970 0.930 . S
C963 C962 1.394 . S
C963 C964 1.383 . S
C963 H971 0.929 . S
C964 C963 1.383 . S
C964 C965 1.377 . S
C965 H949 0.930 . S
C965 C964 1.377 . S
C965 C966 1.379 . S
C966 H950 0.931 . S
C966 C960 1.383 . S
C966 C965 1.379 . S
H967 C961 0.959 . S
H968 C961 0.961 . S
H969 C961 0.960 . S
H970 C962 0.930 . S
H971 C963 0.929 . S
H972 C980 0.929 . S
H973 C982 0.930 . S
H974 C984 0.930 . S
H975 C987 0.929 . S
H976 C990 0.930 . S
H977 C992 0.960 . S
H978 C992 0.960 . S
H979 C992 0.960 . S
C980 H972 0.929 . S
C980 C981 1.377 . S
C980 C982 1.384 . S
C981 C980 1.377 . S
C981 C987 1.390 . S
C982 H973 0.930 . S
C982 C980 1.384 . S
C982 C983 1.372 . S
C983 C982 1.372 . S
C983 C984 1.400 . S
C983 C988 1.490 . S
C984 H974 0.930 . S
C984 C983 1.400 . S
C984 C987 1.386 . S
H985 C1001 0.930 . S
H986 C1002 0.931 . S
C987 H975 0.929 . S
C987 C981 1.390 . S
C987 C984 1.386 . S
C988 C983 1.490 . S
C988 C990 1.395 . S
C988 C991 1.403 . S
H989 C995 0.930 . S
C990 H976 0.930 . S
C990 C988 1.395 . S
C990 C993 1.403 1_554 S
C991 C988 1.403 . S
C991 C992 1.524 . S
C991 C995 1.400 . S
C992 H977 0.960 . S
C992 H978 0.960 . S
C992 H979 0.960 . S
C992 C991 1.524 . S
C993 C990 1.403 1_556 S
C993 C994 1.392 . S
C993 C997 1.495 . S
C994 C993 1.392 . S
C994 C995 1.385 1_556 S
C994 C996 1.478 . S
C995 H989 0.930 . S
C995 C991 1.400 . S
C995 C994 1.385 1_554 S
C996 C994 1.478 . S
C996 C998 1.381 . S
C996 C1002 1.383 . S
C997 C993 1.495 . S
C997 H1003 0.959 . S
C997 H1004 0.961 . S
C997 H1005 0.960 . S
C998 C996 1.381 . S
C998 C999 1.394 . S
C998 H1006 0.930 . S
C999 C998 1.394 . S
C999 C1000 1.383 . S
C999 H1007 0.929 . S
C1000 C999 1.383 . S
C1000 C1001 1.377 . S
C1001 H985 0.930 . S
C1001 C1000 1.377 . S
C1001 C1002 1.379 . S
C1002 H986 0.931 . S
C1002 C996 1.383 . S
C1002 C1001 1.379 . S
H1003 C997 0.959 . S
H1004 C997 0.961 . S
H1005 C997 0.960 . S
H1006 C998 0.930 . S
H1007 C999 0.929 . S
H1008 C1016 0.929 . S
H1009 C1018 0.930 . S
H1010 C1020 0.930 . S
H1011 C1023 0.929 . S
H1012 C1026 0.930 . S
H1013 C1028 0.960 . S
H1014 C1028 0.960 . S
H1015 C1028 0.960 . S
C1016 H1008 0.929 . S
C1016 C1017 1.377 . S
C1016 C1018 1.384 . S
C1017 C1016 1.377 . S
C1017 C1023 1.390 . S
C1018 H1009 0.930 . S
C1018 C1016 1.384 . S
C1018 C1019 1.372 . S
C1019 C1018 1.372 . S
C1019 C1020 1.400 . S
C1019 C1024 1.490 . S
C1020 H1010 0.930 . S
C1020 C1019 1.400 . S
C1020 C1023 1.386 . S
H1021 C1037 0.930 . S
H1022 C1038 0.931 . S
C1023 H1011 0.929 . S
C1023 C1017 1.390 . S
C1023 C1020 1.386 . S
C1024 C1019 1.490 . S
C1024 C1026 1.395 . S
C1024 C1027 1.403 . S
H1025 C1031 0.930 . S
C1026 H1012 0.930 . S
C1026 C1024 1.395 . S
C1026 C1029 1.403 . S
C1027 C1024 1.403 . S
C1027 C1028 1.524 . S
C1027 C1031 1.400 . S
C1028 H1013 0.960 . S
C1028 H1014 0.960 . S
C1028 H1015 0.960 . S
C1028 C1027 1.524 . S
C1029 C1026 1.403 . S
C1029 C1030 1.392 . S
C1029 C1033 1.495 . S
C1030 C1029 1.392 . S
C1030 C1031 1.385 . S
C1030 C1032 1.478 . S
C1031 H1025 0.930 . S
C1031 C1027 1.400 . S
C1031 C1030 1.385 . S
C1032 C1030 1.478 . S
C1032 C1034 1.381 . S
C1032 C1038 1.383 . S
C1033 C1029 1.495 . S
C1033 H1039 0.959 . S
C1033 H1040 0.961 . S
C1033 H1041 0.960 . S
C1034 C1032 1.381 . S
C1034 C1035 1.394 . S
C1034 H1042 0.930 . S
C1035 C1034 1.394 . S
C1035 C1036 1.383 . S
C1035 H1043 0.929 . S
C1036 C1035 1.383 . S
C1036 C1037 1.377 . S
C1037 H1021 0.930 . S
C1037 C1036 1.377 . S
C1037 C1038 1.379 . S
C1038 H1022 0.931 . S
C1038 C1032 1.383 . S
C1038 C1037 1.379 . S
H1039 C1033 0.959 . S
H1040 C1033 0.961 . S
H1041 C1033 0.960 . S
H1042 C1034 0.930 . S
H1043 C1035 0.929 . S
H1044 C1052 0.929 . S
H1045 C1054 0.930 . S
H1046 C1056 0.930 . S
H1047 C1059 0.929 . S
H1048 C1062 0.930 . S
H1049 C1064 0.960 . S
H1050 C1064 0.960 . S
H1051 C1064 0.960 . S
C1052 H1044 0.929 . S
C1052 C1053 1.377 . S
C1052 C1054 1.384 . S
C1053 C1052 1.377 . S
C1053 C1059 1.390 . S
C1054 H1045 0.930 . S
C1054 C1052 1.384 . S
C1054 C1055 1.372 . S
C1055 C1054 1.372 . S
C1055 C1056 1.400 . S
C1055 C1060 1.490 . S
C1056 H1046 0.930 . S
C1056 C1055 1.400 . S
C1056 C1059 1.386 . S
H1057 C1073 0.930 . S
H1058 C1074 0.931 . S
C1059 H1047 0.929 . S
C1059 C1053 1.390 . S
C1059 C1056 1.386 . S
C1060 C1055 1.490 . S
C1060 C1062 1.395 . S
C1060 C1063 1.403 . S
H1061 C1067 0.930 . S
C1062 H1048 0.930 . S
C1062 C1060 1.395 . S
C1062 C1065 1.403 . S
C1063 C1060 1.403 . S
C1063 C1064 1.524 . S
C1063 C1067 1.400 . S
C1064 H1049 0.960 . S
C1064 H1050 0.960 . S
C1064 H1051 0.960 . S
C1064 C1063 1.524 . S
C1065 C1062 1.403 . S
C1065 C1066 1.392 . S
C1065 C1069 1.495 . S
C1066 C1065 1.392 . S
C1066 C1067 1.385 . S
C1066 C1068 1.478 . S
C1067 H1061 0.930 . S
C1067 C1063 1.400 . S
C1067 C1066 1.385 . S
C1068 C1066 1.478 . S
C1068 C1070 1.381 . S
C1068 C1074 1.383 . S
C1069 C1065 1.495 . S
C1069 H1075 0.959 . S
C1069 H1076 0.961 . S
C1069 H1077 0.960 . S
C1070 C1068 1.381 . S
C1070 C1071 1.394 . S
C1070 H1078 0.930 . S
C1071 C1070 1.394 . S
C1071 C1072 1.383 . S
C1071 H1079 0.929 . S
C1072 C1071 1.383 . S
C1072 C1073 1.377 . S
C1073 H1057 0.930 . S
C1073 C1072 1.377 . S
C1073 C1074 1.379 . S
C1074 H1058 0.931 . S
C1074 C1068 1.383 . S
C1074 C1073 1.379 . S
H1075 C1069 0.959 . S
H1076 C1069 0.961 . S
H1077 C1069 0.960 . S
H1078 C1070 0.930 . S
H1079 C1071 0.929 . S
H1080 C1088 0.929 . S
H1081 C1090 0.930 . S
H1082 C1092 0.930 . S
H1083 C1095 0.929 . S
H1084 C1098 0.930 . S
H1085 C1100 0.960 . S
H1086 C1100 0.960 . S
H1087 C1100 0.960 . S
C1088 H1080 0.929 . S
C1088 C1089 1.377 . S
C1088 C1090 1.384 . S
C1089 C1088 1.377 . S
C1089 C1095 1.390 . S
C1090 H1081 0.930 . S
C1090 C1088 1.384 . S
C1090 C1091 1.372 . S
C1091 C1090 1.372 . S
C1091 C1092 1.400 . S
C1091 C1096 1.490 . S
C1092 H1082 0.930 . S
C1092 C1091 1.400 . S
C1092 C1095 1.386 . S
H1093 C1109 0.930 . S
H1094 C1110 0.931 . S
C1095 H1083 0.929 . S
C1095 C1089 1.390 . S
C1095 C1092 1.386 . S
C1096 C1091 1.490 . S
C1096 C1098 1.395 . S
C1096 C1099 1.403 . S
H1097 C1103 0.930 . S
C1098 H1084 0.930 . S
C1098 C1096 1.395 . S
C1098 C1101 1.403 . S
C1099 C1096 1.403 . S
C1099 C1100 1.524 . S
C1099 C1103 1.400 . S
C1100 H1085 0.960 . S
C1100 H1086 0.960 . S
C1100 H1087 0.960 . S
C1100 C1099 1.524 . S
C1101 C1098 1.403 . S
C1101 C1102 1.392 . S
C1101 C1105 1.495 . S
C1102 C1101 1.392 . S
C1102 C1103 1.385 . S
C1102 C1104 1.478 . S
C1103 H1097 0.930 . S
C1103 C1099 1.400 . S
C1103 C1102 1.385 . S
C1104 C1102 1.478 . S
C1104 C1106 1.381 . S
C1104 C1110 1.383 . S
C1105 C1101 1.495 . S
C1105 H1111 0.959 . S
C1105 H1112 0.961 . S
C1105 H1113 0.960 . S
C1106 C1104 1.381 . S
C1106 C1107 1.394 . S
C1106 H1114 0.930 . S
C1107 C1106 1.394 . S
C1107 C1108 1.383 . S
C1107 H1115 0.929 . S
C1108 C1107 1.383 . S
C1108 C1109 1.377 . S
C1109 H1093 0.930 . S
C1109 C1108 1.377 . S
C1109 C1110 1.379 . S
C1110 H1094 0.931 . S
C1110 C1104 1.383 . S
C1110 C1109 1.379 . S
H1111 C1105 0.959 . S
H1112 C1105 0.961 . S
H1113 C1105 0.960 . S
H1114 C1106 0.930 . S
H1115 C1107 0.929 . S
H1116 C1124 0.929 . S
H1117 C1126 0.930 . S
H1118 C1128 0.930 . S
H1119 C1131 0.929 . S
H1120 C1134 0.930 . S
H1121 C1136 0.960 . S
H1122 C1136 0.960 . S
H1123 C1136 0.960 . S
C1124 H1116 0.929 . S
C1124 C1125 1.377 . S
C1124 C1126 1.384 . S
C1125 C1124 1.377 . S
C1125 C1131 1.390 . S
C1126 H1117 0.930 . S
C1126 C1124 1.384 . S
C1126 C1127 1.372 . S
C1127 C1126 1.372 . S
C1127 C1128 1.400 . S
C1127 C1132 1.490 . S
C1128 H1118 0.930 . S
C1128 C1127 1.400 . S
C1128 C1131 1.386 . S
H1129 C1145 0.930 . S
H1130 C1146 0.931 . S
C1131 H1119 0.929 . S
C1131 C1125 1.390 . S
C1131 C1128 1.386 . S
C1132 C1127 1.490 . S
C1132 C1134 1.395 . S
C1132 C1135 1.403 . S
H1133 C1139 0.930 . S
C1134 H1120 0.930 . S
C1134 C1132 1.395 . S
C1134 C1137 1.403 . S
C1135 C1132 1.403 . S
C1135 C1136 1.524 . S
C1135 C1139 1.400 . S
C1136 H1121 0.960 . S
C1136 H1122 0.960 . S
C1136 H1123 0.960 . S
C1136 C1135 1.524 . S
C1137 C1134 1.403 . S
C1137 C1138 1.392 . S
C1137 C1141 1.495 . S
C1138 C1137 1.392 . S
C1138 C1139 1.385 . S
C1138 C1140 1.478 . S
C1139 H1133 0.930 . S
C1139 C1135 1.400 . S
C1139 C1138 1.385 . S
C1140 C1138 1.478 . S
C1140 C1142 1.381 . S
C1140 C1146 1.383 . S
C1141 C1137 1.495 . S
C1141 H1147 0.959 . S
C1141 H1148 0.961 . S
C1141 H1149 0.960 . S
C1142 C1140 1.381 . S
C1142 C1143 1.394 . S
C1142 H1150 0.930 . S
C1143 C1142 1.394 . S
C1143 C1144 1.383 . S
C1143 H1151 0.929 . S
C1144 C1143 1.383 . S
C1144 C1145 1.377 . S
C1145 H1129 0.930 . S
C1145 C1144 1.377 . S
C1145 C1146 1.379 . S
C1146 H1130 0.931 . S
C1146 C1140 1.383 . S
C1146 C1145 1.379 . S
H1147 C1141 0.959 . S
H1148 C1141 0.961 . S
H1149 C1141 0.960 . S
H1150 C1142 0.930 . S
H1151 C1143 0.929 . S
H1152 C1160 0.929 . S
H1153 C1162 0.930 . S
H1154 C1164 0.930 . S
H1155 C1167 0.929 . S
H1156 C1170 0.930 . S
H1157 C1172 0.960 . S
H1158 C1172 0.960 . S
H1159 C1172 0.960 . S
C1160 H1152 0.929 . S
C1160 C1161 1.377 . S
C1160 C1162 1.384 . S
C1161 C1160 1.377 . S
C1161 C1167 1.390 . S
C1162 H1153 0.930 . S
C1162 C1160 1.384 . S
C1162 C1163 1.372 . S
C1163 C1162 1.372 . S
C1163 C1164 1.400 . S
C1163 C1168 1.490 . S
C1164 H1154 0.930 . S
C1164 C1163 1.400 . S
C1164 C1167 1.386 . S
H1165 C1181 0.930 . S
H1166 C1182 0.931 . S
C1167 H1155 0.929 . S
C1167 C1161 1.390 . S
C1167 C1164 1.386 . S
C1168 C1163 1.490 . S
C1168 C1170 1.395 . S
C1168 C1171 1.403 . S
H1169 C1175 0.930 . S
C1170 H1156 0.930 . S
C1170 C1168 1.395 . S
C1170 C1173 1.403 . S
C1171 C1168 1.403 . S
C1171 C1172 1.524 . S
C1171 C1175 1.400 . S
C1172 H1157 0.960 . S
C1172 H1158 0.960 . S
C1172 H1159 0.960 . S
C1172 C1171 1.524 . S
C1173 C1170 1.403 . S
C1173 C1174 1.392 . S
C1173 C1177 1.495 . S
C1174 C1173 1.392 . S
C1174 C1175 1.385 . S
C1174 C1176 1.478 . S
C1175 H1169 0.930 . S
C1175 C1171 1.400 . S
C1175 C1174 1.385 . S
C1176 C1174 1.478 . S
C1176 C1178 1.381 . S
C1176 C1182 1.383 . S
C1177 C1173 1.495 . S
C1177 H1183 0.959 . S
C1177 H1184 0.961 . S
C1177 H1185 0.960 . S
C1178 C1176 1.381 . S
C1178 C1179 1.394 . S
C1178 H1186 0.930 . S
C1179 C1178 1.394 . S
C1179 C1180 1.383 . S
C1179 H1187 0.929 . S
C1180 C1179 1.383 . S
C1180 C1181 1.377 . S
C1181 H1165 0.930 . S
C1181 C1180 1.377 . S
C1181 C1182 1.379 . S
C1182 H1166 0.931 . S
C1182 C1176 1.383 . S
C1182 C1181 1.379 . S
H1183 C1177 0.959 . S
H1184 C1177 0.961 . S
H1185 C1177 0.960 . S
H1186 C1178 0.930 . S
H1187 C1179 0.929 . S
H1188 C1196 0.929 . S
H1189 C1198 0.930 . S
H1190 C1200 0.930 . S
H1191 C1203 0.929 . S
H1192 C1206 0.930 . S
H1193 C1208 0.960 . S
H1194 C1208 0.960 . S
H1195 C1208 0.960 . S
C1196 H1188 0.929 . S
C1196 C1197 1.377 . S
C1196 C1198 1.384 . S
C1197 C1196 1.377 . S
C1197 C1203 1.390 . S
C1198 H1189 0.930 . S
C1198 C1196 1.384 . S
C1198 C1199 1.372 . S
C1199 C1198 1.372 . S
C1199 C1200 1.400 . S
C1199 C1204 1.490 . S
C1200 H1190 0.930 . S
C1200 C1199 1.400 . S
C1200 C1203 1.386 . S
H1201 C1217 0.930 . S
H1202 C1218 0.931 . S
C1203 H1191 0.929 . S
C1203 C1197 1.390 . S
C1203 C1200 1.386 . S
C1204 C1199 1.490 . S
C1204 C1206 1.395 . S
C1204 C1207 1.403 . S
H1205 C1211 0.930 . S
C1206 H1192 0.930 . S
C1206 C1204 1.395 . S
C1206 C1209 1.403 . S
C1207 C1204 1.403 . S
C1207 C1208 1.524 . S
C1207 C1211 1.400 . S
C1208 H1193 0.960 . S
C1208 H1194 0.960 . S
C1208 H1195 0.960 . S
C1208 C1207 1.524 . S
C1209 C1206 1.403 . S
C1209 C1210 1.392 . S
C1209 C1213 1.495 . S
C1210 C1209 1.392 . S
C1210 C1211 1.385 . S
C1210 C1212 1.478 . S
C1211 H1205 0.930 . S
C1211 C1207 1.400 . S
C1211 C1210 1.385 . S
C1212 C1210 1.478 . S
C1212 C1214 1.381 . S
C1212 C1218 1.383 . S
C1213 C1209 1.495 . S
C1213 H1219 0.959 . S
C1213 H1220 0.961 . S
C1213 H1221 0.960 . S
C1214 C1212 1.381 . S
C1214 C1215 1.394 . S
C1214 H1222 0.930 . S
C1215 C1214 1.394 . S
C1215 C1216 1.383 . S
C1215 H1223 0.929 . S
C1216 C1215 1.383 . S
C1216 C1217 1.377 . S
C1217 H1201 0.930 . S
C1217 C1216 1.377 . S
C1217 C1218 1.379 . S
C1218 H1202 0.931 . S
C1218 C1212 1.383 . S
C1218 C1217 1.379 . S
H1219 C1213 0.959 . S
H1220 C1213 0.961 . S
H1221 C1213 0.960 . S
H1222 C1214 0.930 . S
H1223 C1215 0.929 . S
H1224 C1232 0.929 . S
H1225 C1234 0.930 . S
H1226 C1236 0.930 . S
H1227 C1239 0.929 . S
H1228 C1242 0.930 . S
H1229 C1244 0.960 . S
H1230 C1244 0.960 . S
H1231 C1244 0.960 . S
C1232 H1224 0.929 . S
C1232 C1233 1.377 . S
C1232 C1234 1.384 . S
C1233 C1232 1.377 . S
C1233 C1239 1.390 . S
C1234 H1225 0.930 . S
C1234 C1232 1.384 . S
C1234 C1235 1.372 . S
C1235 C1234 1.372 . S
C1235 C1236 1.400 . S
C1235 C1240 1.490 . S
C1236 H1226 0.930 . S
C1236 C1235 1.400 . S
C1236 C1239 1.386 . S
H1237 C1253 0.930 . S
H1238 C1254 0.931 . S
C1239 H1227 0.929 . S
C1239 C1233 1.390 . S
C1239 C1236 1.386 . S
C1240 C1235 1.490 . S
C1240 C1242 1.395 . S
C1240 C1243 1.403 . S
H1241 C1247 0.930 . S
C1242 H1228 0.930 . S
C1242 C1240 1.395 . S
C1242 C1245 1.403 . S
C1243 C1240 1.403 . S
C1243 C1244 1.524 . S
C1243 C1247 1.400 . S
C1244 H1229 0.960 . S
C1244 H1230 0.960 . S
C1244 H1231 0.960 . S
C1244 C1243 1.524 . S
C1245 C1242 1.403 . S
C1245 C1246 1.392 . S
C1245 C1249 1.495 . S
C1246 C1245 1.392 . S
C1246 C1247 1.385 . S
C1246 C1248 1.478 . S
C1247 H1241 0.930 . S
C1247 C1243 1.400 . S
C1247 C1246 1.385 . S
C1248 C1246 1.478 . S
C1248 C1250 1.381 . S
C1248 C1254 1.383 . S
C1249 C1245 1.495 . S
C1249 H1255 0.959 . S
C1249 H1256 0.961 . S
C1249 H1257 0.960 . S
C1250 C1248 1.381 . S
C1250 C1251 1.394 . S
C1250 H1258 0.930 . S
C1251 C1250 1.394 . S
C1251 C1252 1.383 . S
C1251 H1259 0.929 . S
C1252 C1251 1.383 . S
C1252 C1253 1.377 . S
C1253 H1237 0.930 . S
C1253 C1252 1.377 . S
C1253 C1254 1.379 . S
C1254 H1238 0.931 . S
C1254 C1248 1.383 . S
C1254 C1253 1.379 . S
H1255 C1249 0.959 . S
H1256 C1249 0.961 . S
H1257 C1249 0.960 . S
H1258 C1250 0.930 . S
H1259 C1251 0.929 . S
H1260 C1268 0.929 . S
H1261 C1270 0.930 . S
H1262 C1272 0.930 . S
H1263 C1275 0.929 . S
H1264 C1278 0.930 . S
H1265 C1280 0.960 . S
H1266 C1280 0.960 . S
H1267 C1280 0.960 . S
C1268 H1260 0.929 . S
C1268 C1269 1.377 . S
C1268 C1270 1.384 . S
C1269 C1268 1.377 . S
C1269 C1275 1.390 . S
C1270 H1261 0.930 . S
C1270 C1268 1.384 . S
C1270 C1271 1.372 . S
C1271 C1270 1.372 . S
C1271 C1272 1.400 . S
C1271 C1276 1.490 . S
C1272 H1262 0.930 . S
C1272 C1271 1.400 . S
C1272 C1275 1.386 . S
H1273 C1289 0.930 . S
H1274 C1290 0.931 . S
C1275 H1263 0.929 . S
C1275 C1269 1.390 . S
C1275 C1272 1.386 . S
C1276 C1271 1.490 . S
C1276 C1278 1.395 . S
C1276 C1279 1.403 . S
H1277 C1283 0.930 . S
C1278 H1264 0.930 . S
C1278 C1276 1.395 . S
C1278 C1281 1.403 . S
C1279 C1276 1.403 . S
C1279 C1280 1.524 . S
C1279 C1283 1.400 . S
C1280 H1265 0.960 . S
C1280 H1266 0.960 . S
C1280 H1267 0.960 . S
C1280 C1279 1.524 . S
C1281 C1278 1.403 . S
C1281 C1282 1.392 . S
C1281 C1285 1.495 . S
C1282 C1281 1.392 . S
C1282 C1283 1.385 . S
C1282 C1284 1.478 . S
C1283 H1277 0.930 . S
C1283 C1279 1.400 . S
C1283 C1282 1.385 . S
C1284 C1282 1.478 . S
C1284 C1286 1.381 . S
C1284 C1290 1.383 . S
C1285 C1281 1.495 . S
C1285 H1291 0.959 . S
C1285 H1292 0.961 . S
C1285 H1293 0.960 . S
C1286 C1284 1.381 . S
C1286 C1287 1.394 . S
C1286 H1294 0.930 . S
C1287 C1286 1.394 . S
C1287 C1288 1.383 . S
C1287 H1295 0.929 . S
C1288 C1287 1.383 . S
C1288 C1289 1.377 . S
C1289 H1273 0.930 . S
C1289 C1288 1.377 . S
C1289 C1290 1.379 . S
C1290 H1274 0.931 . S
C1290 C1284 1.383 . S
C1290 C1289 1.379 . S
H1291 C1285 0.959 . S
H1292 C1285 0.961 . S
H1293 C1285 0.960 . S
H1294 C1286 0.930 . S
H1295 C1287 0.929 . S
H1296 C1304 0.929 . S
H1297 C1306 0.930 . S
H1298 C1308 0.930 . S
H1299 C1311 0.929 . S
H1300 C1314 0.930 . S
H1301 C1316 0.960 . S
H1302 C1316 0.960 . S
H1303 C1316 0.960 . S
C1304 H1296 0.929 . S
C1304 C1305 1.377 . S
C1304 C1306 1.384 . S
C1305 C1304 1.377 . S
C1305 C1311 1.390 . S
C1306 H1297 0.930 . S
C1306 C1304 1.384 . S
C1306 C1307 1.372 . S
C1307 C1306 1.372 . S
C1307 C1308 1.400 . S
C1307 C1312 1.490 . S
C1308 H1298 0.930 . S
C1308 C1307 1.400 . S
C1308 C1311 1.386 . S
H1309 C1325 0.930 . S
H1310 C1326 0.931 . S
C1311 H1299 0.929 . S
C1311 C1305 1.390 . S
C1311 C1308 1.386 . S
C1312 C1307 1.490 . S
C1312 C1314 1.395 . S
C1312 C1315 1.403 . S
H1313 C1319 0.930 . S
C1314 H1300 0.930 . S
C1314 C1312 1.395 . S
C1314 C1317 1.403 . S
C1315 C1312 1.403 . S
C1315 C1316 1.524 . S
C1315 C1319 1.400 . S
C1316 H1301 0.960 . S
C1316 H1302 0.960 . S
C1316 H1303 0.960 . S
C1316 C1315 1.524 . S
C1317 C1314 1.403 . S
C1317 C1318 1.392 . S
C1317 C1321 1.495 . S
C1318 C1317 1.392 . S
C1318 C1319 1.385 . S
C1318 C1320 1.478 . S
C1319 H1313 0.930 . S
C1319 C1315 1.400 . S
C1319 C1318 1.385 . S
C1320 C1318 1.478 . S
C1320 C1322 1.381 . S
C1320 C1326 1.383 . S
C1321 C1317 1.495 . S
C1321 H1327 0.959 . S
C1321 H1328 0.961 . S
C1321 H1329 0.960 . S
C1322 C1320 1.381 . S
C1322 C1323 1.394 . S
C1322 H1330 0.930 . S
C1323 C1322 1.394 . S
C1323 C1324 1.383 . S
C1323 H1331 0.929 . S
C1324 C1323 1.383 . S
C1324 C1325 1.377 . S
C1325 H1309 0.930 . S
C1325 C1324 1.377 . S
C1325 C1326 1.379 . S
C1326 H1310 0.931 . S
C1326 C1320 1.383 . S
C1326 C1325 1.379 . S
H1327 C1321 0.959 . S
H1328 C1321 0.961 . S
H1329 C1321 0.960 . S
H1330 C1322 0.930 . S
H1331 C1323 0.929 . S
H1332 C1340 0.929 . S
H1333 C1342 0.930 . S
H1334 C1344 0.930 . S
H1335 C1347 0.929 . S
H1336 C1350 0.930 . S
H1337 C1352 0.960 . S
H1338 C1352 0.960 . S
H1339 C1352 0.960 . S
C1340 H1332 0.929 . S
C1340 C1341 1.377 . S
C1340 C1342 1.384 . S
C1341 C1340 1.377 . S
C1341 C1347 1.390 . S
C1342 H1333 0.930 . S
C1342 C1340 1.384 . S
C1342 C1343 1.372 . S
C1343 C1342 1.372 . S
C1343 C1344 1.400 . S
C1343 C1348 1.490 . S
C1344 H1334 0.930 . S
C1344 C1343 1.400 . S
C1344 C1347 1.386 . S
H1345 C1361 0.930 . S
H1346 C1362 0.931 . S
C1347 H1335 0.929 . S
C1347 C1341 1.390 . S
C1347 C1344 1.386 . S
C1348 C1343 1.490 . S
C1348 C1350 1.395 . S
C1348 C1351 1.403 . S
H1349 C1355 0.930 . S
C1350 H1336 0.930 . S
C1350 C1348 1.395 . S
C1350 C1353 1.403 . S
C1351 C1348 1.403 . S
C1351 C1352 1.524 . S
C1351 C1355 1.400 . S
C1352 H1337 0.960 . S
C1352 H1338 0.960 . S
C1352 H1339 0.960 . S
C1352 C1351 1.524 . S
C1353 C1350 1.403 . S
C1353 C1354 1.392 . S
C1353 C1357 1.495 . S
C1354 C1353 1.392 . S
C1354 C1355 1.385 . S
C1354 C1356 1.478 . S
C1355 H1349 0.930 . S
C1355 C1351 1.400 . S
C1355 C1354 1.385 . S
C1356 C1354 1.478 . S
C1356 C1358 1.381 . S
C1356 C1362 1.383 . S
C1357 C1353 1.495 . S
C1357 H1363 0.959 . S
C1357 H1364 0.961 . S
C1357 H1365 0.960 . S
C1358 C1356 1.381 . S
C1358 C1359 1.394 . S
C1358 H1366 0.930 . S
C1359 C1358 1.394 . S
C1359 C1360 1.383 . S
C1359 H1367 0.929 . S
C1360 C1359 1.383 . S
C1360 C1361 1.377 . S
C1361 H1345 0.930 . S
C1361 C1360 1.377 . S
C1361 C1362 1.379 . S
C1362 H1346 0.931 . S
C1362 C1356 1.383 . S
C1362 C1361 1.379 . S
H1363 C1357 0.959 . S
H1364 C1357 0.961 . S
H1365 C1357 0.960 . S
H1366 C1358 0.930 . S
H1367 C1359 0.929 . S
H1368 C1376 0.929 . S
H1369 C1378 0.930 . S
H1370 C1380 0.930 . S
H1371 C1383 0.929 . S
H1372 C1386 0.930 . S
H1373 C1388 0.960 . S
H1374 C1388 0.960 . S
H1375 C1388 0.960 . S
C1376 H1368 0.929 . S
C1376 C1377 1.377 . S
C1376 C1378 1.384 . S
C1377 C1376 1.377 . S
C1377 C1383 1.390 . S
C1378 H1369 0.930 . S
C1378 C1376 1.384 . S
C1378 C1379 1.372 . S
C1379 C1378 1.372 . S
C1379 C1380 1.400 . S
C1379 C1384 1.490 . S
C1380 H1370 0.930 . S
C1380 C1379 1.400 . S
C1380 C1383 1.386 . S
H1381 C1397 0.930 . S
H1382 C1398 0.931 . S
C1383 H1371 0.929 . S
C1383 C1377 1.390 . S
C1383 C1380 1.386 . S
C1384 C1379 1.490 . S
C1384 C1386 1.395 . S
C1384 C1387 1.403 . S
H1385 C1391 0.930 . S
C1386 H1372 0.930 . S
C1386 C1384 1.395 . S
C1386 C1389 1.403 . S
C1387 C1384 1.403 . S
C1387 C1388 1.524 . S
C1387 C1391 1.400 . S
C1388 H1373 0.960 . S
C1388 H1374 0.960 . S
C1388 H1375 0.960 . S
C1388 C1387 1.524 . S
C1389 C1386 1.403 . S
C1389 C1390 1.392 . S
C1389 C1393 1.495 . S
C1390 C1389 1.392 . S
C1390 C1391 1.385 . S
C1390 C1392 1.478 . S
C1391 H1385 0.930 . S
C1391 C1387 1.400 . S
C1391 C1390 1.385 . S
C1392 C1390 1.478 . S
C1392 C1394 1.381 . S
C1392 C1398 1.383 . S
C1393 C1389 1.495 . S
C1393 H1399 0.959 . S
C1393 H1400 0.961 . S
C1393 H1401 0.960 . S
C1394 C1392 1.381 . S
C1394 C1395 1.394 . S
C1394 H1402 0.930 . S
C1395 C1394 1.394 . S
C1395 C1396 1.383 . S
C1395 H1403 0.929 . S
C1396 C1395 1.383 . S
C1396 C1397 1.377 . S
C1397 H1381 0.930 . S
C1397 C1396 1.377 . S
C1397 C1398 1.379 . S
C1398 H1382 0.931 . S
C1398 C1392 1.383 . S
C1398 C1397 1.379 . S
H1399 C1393 0.959 . S
H1400 C1393 0.961 . S
H1401 C1393 0.960 . S
H1402 C1394 0.930 . S
H1403 C1395 0.929 . S
H1404 C1412 0.929 . S
H1405 C1414 0.930 . S
H1406 C1416 0.930 . S
H1407 C1419 0.929 . S
H1408 C1422 0.930 . S
H1409 C1424 0.960 . S
H1410 C1424 0.960 . S
H1411 C1424 0.960 . S
C1412 H1404 0.929 . S
C1412 C1413 1.377 . S
C1412 C1414 1.384 . S
C1413 C1412 1.377 . S
C1413 C1419 1.390 . S
C1414 H1405 0.930 . S
C1414 C1412 1.384 . S
C1414 C1415 1.372 . S
C1415 C1414 1.372 . S
C1415 C1416 1.400 . S
C1415 C1420 1.490 . S
C1416 H1406 0.930 . S
C1416 C1415 1.400 . S
C1416 C1419 1.386 . S
H1417 C1433 0.930 . S
H1418 C1434 0.931 . S
C1419 H1407 0.929 . S
C1419 C1413 1.390 . S
C1419 C1416 1.386 . S
C1420 C1415 1.490 . S
C1420 C1422 1.395 . S
C1420 C1423 1.403 . S
H1421 C1427 0.930 . S
C1422 H1408 0.930 . S
C1422 C1420 1.395 . S
C1422 C1425 1.403 . S
C1423 C1420 1.403 . S
C1423 C1424 1.524 . S
C1423 C1427 1.400 . S
C1424 H1409 0.960 . S
C1424 H1410 0.960 . S
C1424 H1411 0.960 . S
C1424 C1423 1.524 . S
C1425 C1422 1.403 . S
C1425 C1426 1.392 . S
C1425 C1429 1.495 . S
C1426 C1425 1.392 . S
C1426 C1427 1.385 . S
C1426 C1428 1.478 . S
C1427 H1421 0.930 . S
C1427 C1423 1.400 . S
C1427 C1426 1.385 . S
C1428 C1426 1.478 . S
C1428 C1430 1.381 . S
C1428 C1434 1.383 . S
C1429 C1425 1.495 . S
C1429 H1435 0.959 . S
C1429 H1436 0.961 . S
C1429 H1437 0.960 . S
C1430 C1428 1.381 . S
C1430 C1431 1.394 . S
C1430 H1438 0.930 . S
C1431 C1430 1.394 . S
C1431 C1432 1.383 . S
C1431 H1439 0.929 . S
C1432 C1431 1.383 . S
C1432 C1433 1.377 . S
C1433 H1417 0.930 . S
C1433 C1432 1.377 . S
C1433 C1434 1.379 . S
C1434 H1418 0.931 . S
C1434 C1428 1.383 . S
C1434 C1433 1.379 . S
H1435 C1429 0.959 . S
H1436 C1429 0.961 . S
H1437 C1429 0.960 . S
H1438 C1430 0.930 . S
H1439 C1431 0.929 . S
H1440 C1448 0.929 . S
H1441 C1450 0.930 . S
H1442 C1452 0.930 . S
H1443 C1455 0.929 . S
H1444 C1458 0.930 . S
H1445 C1460 0.960 . S
H1446 C1460 0.960 . S
H1447 C1460 0.960 . S
C1448 H1440 0.929 . S
C1448 C1449 1.377 . S
C1448 C1450 1.384 . S
C1449 C1448 1.377 . S
C1449 C1455 1.390 . S
C1450 H1441 0.930 . S
C1450 C1448 1.384 . S
C1450 C1451 1.372 . S
C1451 C1450 1.372 . S
C1451 C1452 1.400 . S
C1451 C1456 1.490 . S
C1452 H1442 0.930 . S
C1452 C1451 1.400 . S
C1452 C1455 1.386 . S
H1453 C1469 0.930 . S
H1454 C1470 0.931 . S
C1455 H1443 0.929 . S
C1455 C1449 1.390 . S
C1455 C1452 1.386 . S
C1456 C1451 1.490 . S
C1456 C1458 1.395 . S
C1456 C1459 1.403 . S
H1457 C1463 0.930 . S
C1458 H1444 0.930 . S
C1458 C1456 1.395 . S
C1458 C1461 1.403 . S
C1459 C1456 1.403 . S
C1459 C1460 1.524 . S
C1459 C1463 1.400 . S
C1460 H1445 0.960 . S
C1460 H1446 0.960 . S
C1460 H1447 0.960 . S
C1460 C1459 1.524 . S
C1461 C1458 1.403 . S
C1461 C1462 1.392 . S
C1461 C1465 1.495 . S
C1462 C1461 1.392 . S
C1462 C1463 1.385 . S
C1462 C1464 1.478 . S
C1463 H1457 0.930 . S
C1463 C1459 1.400 . S
C1463 C1462 1.385 . S
C1464 C1462 1.478 . S
C1464 C1466 1.381 . S
C1464 C1470 1.383 . S
C1465 C1461 1.495 . S
C1465 H1471 0.959 . S
C1465 H1472 0.961 . S
C1465 H1473 0.960 . S
C1466 C1464 1.381 . S
C1466 C1467 1.394 . S
C1466 H1474 0.930 . S
C1467 C1466 1.394 . S
C1467 C1468 1.383 . S
C1467 H1475 0.929 . S
C1468 C1467 1.383 . S
C1468 C1469 1.377 . S
C1469 H1453 0.930 . S
C1469 C1468 1.377 . S
C1469 C1470 1.379 . S
C1470 H1454 0.931 . S
C1470 C1464 1.383 . S
C1470 C1469 1.379 . S
H1471 C1465 0.959 . S
H1472 C1465 0.961 . S
H1473 C1465 0.960 . S
H1474 C1466 0.930 . S
H1475 C1467 0.929 . S
H1476 C1484 0.929 . S
H1477 C1486 0.930 . S
H1478 C1488 0.930 . S
H1479 C1491 0.929 . S
H1480 C1494 0.930 . S
H1481 C1496 0.960 . S
H1482 C1496 0.960 . S
H1483 C1496 0.960 . S
C1484 H1476 0.929 . S
C1484 C1485 1.377 . S
C1484 C1486 1.384 . S
C1485 C1484 1.377 . S
C1485 C1491 1.390 . S
C1486 H1477 0.930 . S
C1486 C1484 1.384 . S
C1486 C1487 1.372 . S
C1487 C1486 1.372 . S
C1487 C1488 1.400 . S
C1487 C1492 1.490 . S
C1488 H1478 0.930 . S
C1488 C1487 1.400 . S
C1488 C1491 1.386 . S
H1489 C1505 0.930 . S
H1490 C1506 0.931 . S
C1491 H1479 0.929 . S
C1491 C1485 1.390 . S
C1491 C1488 1.386 . S
C1492 C1487 1.490 . S
C1492 C1494 1.395 . S
C1492 C1495 1.403 . S
H1493 C1499 0.930 . S
C1494 H1480 0.930 . S
C1494 C1492 1.395 . S
C1494 C1497 1.403 . S
C1495 C1492 1.403 . S
C1495 C1496 1.524 . S
C1495 C1499 1.400 . S
C1496 H1481 0.960 . S
C1496 H1482 0.960 . S
C1496 H1483 0.960 . S
C1496 C1495 1.524 . S
C1497 C1494 1.403 . S
C1497 C1498 1.392 . S
C1497 C1501 1.495 . S
C1498 C1497 1.392 . S
C1498 C1499 1.385 . S
C1498 C1500 1.478 . S
C1499 H1493 0.930 . S
C1499 C1495 1.400 . S
C1499 C1498 1.385 . S
C1500 C1498 1.478 . S
C1500 C1502 1.381 . S
C1500 C1506 1.383 . S
C1501 C1497 1.495 . S
C1501 H1507 0.959 . S
C1501 H1508 0.961 . S
C1501 H1509 0.960 . S
C1502 C1500 1.381 . S
C1502 C1503 1.394 . S
C1502 H1510 0.930 . S
C1503 C1502 1.394 . S
C1503 C1504 1.383 . S
C1503 H1511 0.929 . S
C1504 C1503 1.383 . S
C1504 C1505 1.377 . S
C1505 H1489 0.930 . S
C1505 C1504 1.377 . S
C1505 C1506 1.379 . S
C1506 H1490 0.931 . S
C1506 C1500 1.383 . S
C1506 C1505 1.379 . S
H1507 C1501 0.959 . S
H1508 C1501 0.961 . S
H1509 C1501 0.960 . S
H1510 C1502 0.930 . S
H1511 C1503 0.929 . S
H1512 C1520 0.929 . S
H1513 C1522 0.930 . S
H1514 C1524 0.930 . S
H1515 C1527 0.929 . S
H1516 C1530 0.930 . S
H1517 C1532 0.960 . S
H1518 C1532 0.960 . S
H1519 C1532 0.960 . S
C1520 H1512 0.929 . S
C1520 C1521 1.377 . S
C1520 C1522 1.384 . S
C1521 C1520 1.377 . S
C1521 C1527 1.390 . S
C1522 H1513 0.930 . S
C1522 C1520 1.384 . S
C1522 C1523 1.372 . S
C1523 C1522 1.372 . S
C1523 C1524 1.400 . S
C1523 C1528 1.490 . S
C1524 H1514 0.930 . S
C1524 C1523 1.400 . S
C1524 C1527 1.386 . S
H1525 C1541 0.930 . S
H1526 C1542 0.931 . S
C1527 H1515 0.929 . S
C1527 C1521 1.390 . S
C1527 C1524 1.386 . S
C1528 C1523 1.490 . S
C1528 C1530 1.395 . S
C1528 C1531 1.403 . S
H1529 C1535 0.930 . S
C1530 H1516 0.930 . S
C1530 C1528 1.395 . S
C1530 C1533 1.403 . S
C1531 C1528 1.403 . S
C1531 C1532 1.524 . S
C1531 C1535 1.400 . S
C1532 H1517 0.960 . S
C1532 H1518 0.960 . S
C1532 H1519 0.960 . S
C1532 C1531 1.524 . S
C1533 C1530 1.403 . S
C1533 C1534 1.392 . S
C1533 C1537 1.495 . S
C1534 C1533 1.392 . S
C1534 C1535 1.385 . S
C1534 C1536 1.478 . S
C1535 H1529 0.930 . S
C1535 C1531 1.400 . S
C1535 C1534 1.385 . S
C1536 C1534 1.478 . S
C1536 C1538 1.381 . S
C1536 C1542 1.383 . S
C1537 C1533 1.495 . S
C1537 H1543 0.959 . S
C1537 H1544 0.961 . S
C1537 H1545 0.960 . S
C1538 C1536 1.381 . S
C1538 C1539 1.394 . S
C1538 H1546 0.930 . S
C1539 C1538 1.394 . S
C1539 C1540 1.383 . S
C1539 H1547 0.929 . S
C1540 C1539 1.383 . S
C1540 C1541 1.377 . S
C1541 H1525 0.930 . S
C1541 C1540 1.377 . S
C1541 C1542 1.379 . S
C1542 H1526 0.931 . S
C1542 C1536 1.383 . S
C1542 C1541 1.379 . S
H1543 C1537 0.959 . S
H1544 C1537 0.961 . S
H1545 C1537 0.960 . S
H1546 C1538 0.930 . S
H1547 C1539 0.929 . S
H1548 C1556 0.929 . S
H1549 C1558 0.930 . S
H1550 C1560 0.930 . S
H1551 C1563 0.929 . S
H1552 C1566 0.930 . S
H1553 C1568 0.960 . S
H1554 C1568 0.960 . S
H1555 C1568 0.960 . S
C1556 H1548 0.929 . S
C1556 C1557 1.377 . S
C1556 C1558 1.384 . S
C1557 C1556 1.377 . S
C1557 C1563 1.390 . S
C1558 H1549 0.930 . S
C1558 C1556 1.384 . S
C1558 C1559 1.372 . S
C1559 C1558 1.372 . S
C1559 C1560 1.400 . S
C1559 C1564 1.490 . S
C1560 H1550 0.930 . S
C1560 C1559 1.400 . S
C1560 C1563 1.386 . S
H1561 C1577 0.930 . S
H1562 C1578 0.931 . S
C1563 H1551 0.929 . S
C1563 C1557 1.390 . S
C1563 C1560 1.386 . S
C1564 C1559 1.490 . S
C1564 C1566 1.395 . S
C1564 C1567 1.403 . S
H1565 C1571 0.930 . S
C1566 H1552 0.930 . S
C1566 C1564 1.395 . S
C1566 C1569 1.403 . S
C1567 C1564 1.403 . S
C1567 C1568 1.524 . S
C1567 C1571 1.400 . S
C1568 H1553 0.960 . S
C1568 H1554 0.960 . S
C1568 H1555 0.960 . S
C1568 C1567 1.524 . S
C1569 C1566 1.403 . S
C1569 C1570 1.392 . S
C1569 C1573 1.495 . S
C1570 C1569 1.392 . S
C1570 C1571 1.385 . S
C1570 C1572 1.478 . S
C1571 H1565 0.930 . S
C1571 C1567 1.400 . S
C1571 C1570 1.385 . S
C1572 C1570 1.478 . S
C1572 C1574 1.381 . S
C1572 C1578 1.383 . S
C1573 C1569 1.495 . S
C1573 H1579 0.959 . S
C1573 H1580 0.961 . S
C1573 H1581 0.960 . S
C1574 C1572 1.381 . S
C1574 C1575 1.394 . S
C1574 H1582 0.930 . S
C1575 C1574 1.394 . S
C1575 C1576 1.383 . S
C1575 H1583 0.929 . S
C1576 C1575 1.383 . S
C1576 C1577 1.377 . S
C1577 H1561 0.930 . S
C1577 C1576 1.377 . S
C1577 C1578 1.379 . S
C1578 H1562 0.931 . S
C1578 C1572 1.383 . S
C1578 C1577 1.379 . S
H1579 C1573 0.959 . S
H1580 C1573 0.961 . S
H1581 C1573 0.960 . S
H1582 C1574 0.930 . S
H1583 C1575 0.929 . S
H1584 C1592 0.929 . S
H1585 C1594 0.930 . S
H1586 C1596 0.930 . S
H1587 C1599 0.929 . S
H1588 C1602 0.930 . S
H1589 C1604 0.960 . S
H1590 C1604 0.960 . S
H1591 C1604 0.960 . S
C1592 H1584 0.929 . S
C1592 C1593 1.377 . S
C1592 C1594 1.384 . S
C1593 C1592 1.377 . S
C1593 C1599 1.390 . S
C1594 H1585 0.930 . S
C1594 C1592 1.384 . S
C1594 C1595 1.372 . S
C1595 C1594 1.372 . S
C1595 C1596 1.400 . S
C1595 C1600 1.490 . S
C1596 H1586 0.930 . S
C1596 C1595 1.400 . S
C1596 C1599 1.386 . S
H1597 C1613 0.930 . S
H1598 C1614 0.931 . S
C1599 H1587 0.929 . S
C1599 C1593 1.390 . S
C1599 C1596 1.386 . S
C1600 C1595 1.490 . S
C1600 C1602 1.395 . S
C1600 C1603 1.403 . S
H1601 C1607 0.930 . S
C1602 H1588 0.930 . S
C1602 C1600 1.395 . S
C1602 C1605 1.403 . S
C1603 C1600 1.403 . S
C1603 C1604 1.524 . S
C1603 C1607 1.400 . S
C1604 H1589 0.960 . S
C1604 H1590 0.960 . S
C1604 H1591 0.960 . S
C1604 C1603 1.524 . S
C1605 C1602 1.403 . S
C1605 C1606 1.392 . S
C1605 C1609 1.495 . S
C1606 C1605 1.392 . S
C1606 C1607 1.385 . S
C1606 C1608 1.478 . S
C1607 H1601 0.930 . S
C1607 C1603 1.400 . S
C1607 C1606 1.385 . S
C1608 C1606 1.478 . S
C1608 C1610 1.381 . S
C1608 C1614 1.383 . S
C1609 C1605 1.495 . S
C1609 H1615 0.959 . S
C1609 H1616 0.961 . S
C1609 H1617 0.960 . S
C1610 C1608 1.381 . S
C1610 C1611 1.394 . S
C1610 H1618 0.930 . S
C1611 C1610 1.394 . S
C1611 C1612 1.383 . S
C1611 H1619 0.929 . S
C1612 C1611 1.383 . S
C1612 C1613 1.377 . S
C1613 H1597 0.930 . S
C1613 C1612 1.377 . S
C1613 C1614 1.379 . S
C1614 H1598 0.931 . S
C1614 C1608 1.383 . S
C1614 C1613 1.379 . S
H1615 C1609 0.959 . S
H1616 C1609 0.961 . S
H1617 C1609 0.960 . S
H1618 C1610 0.930 . S
H1619 C1611 0.929 . S
H1620 C1628 0.929 . S
H1621 C1630 0.930 . S
H1622 C1632 0.930 . S
H1623 C1635 0.929 . S
H1624 C1638 0.930 . S
H1625 C1640 0.960 . S
H1626 C1640 0.960 . S
H1627 C1640 0.960 . S
C1628 H1620 0.929 . S
C1628 C1629 1.377 . S
C1628 C1630 1.384 . S
C1629 C1628 1.377 . S
C1629 C1635 1.390 . S
C1630 H1621 0.930 . S
C1630 C1628 1.384 . S
C1630 C1631 1.372 . S
C1631 C1630 1.372 . S
C1631 C1632 1.400 . S
C1631 C1636 1.490 . S
C1632 H1622 0.930 . S
C1632 C1631 1.400 . S
C1632 C1635 1.386 . S
H1633 C1649 0.930 . S
H1634 C1650 0.931 . S
C1635 H1623 0.929 . S
C1635 C1629 1.390 . S
C1635 C1632 1.386 . S
C1636 C1631 1.490 . S
C1636 C1638 1.395 . S
C1636 C1639 1.403 . S
H1637 C1643 0.930 . S
C1638 H1624 0.930 . S
C1638 C1636 1.395 . S
C1638 C1641 1.403 . S
C1639 C1636 1.403 . S
C1639 C1640 1.524 . S
C1639 C1643 1.400 . S
C1640 H1625 0.960 . S
C1640 H1626 0.960 . S
C1640 H1627 0.960 . S
C1640 C1639 1.524 . S
C1641 C1638 1.403 . S
C1641 C1642 1.392 . S
C1641 C1645 1.495 . S
C1642 C1641 1.392 . S
C1642 C1643 1.385 . S
C1642 C1644 1.478 . S
C1643 H1637 0.930 . S
C1643 C1639 1.400 . S
C1643 C1642 1.385 . S
C1644 C1642 1.478 . S
C1644 C1646 1.381 . S
C1644 C1650 1.383 . S
C1645 C1641 1.495 . S
C1645 H1651 0.959 . S
C1645 H1652 0.961 . S
C1645 H1653 0.960 . S
C1646 C1644 1.381 . S
C1646 C1647 1.394 . S
C1646 H1654 0.930 . S
C1647 C1646 1.394 . S
C1647 C1648 1.383 . S
C1647 H1655 0.929 . S
C1648 C1647 1.383 . S
C1648 C1649 1.377 . S
C1649 H1633 0.930 . S
C1649 C1648 1.377 . S
C1649 C1650 1.379 . S
C1650 H1634 0.931 . S
C1650 C1644 1.383 . S
C1650 C1649 1.379 . S
H1651 C1645 0.959 . S
H1652 C1645 0.961 . S
H1653 C1645 0.960 . S
H1654 C1646 0.930 . S
H1655 C1647 0.929 . S
H1656 C1664 0.929 . S
H1657 C1666 0.930 . S
H1658 C1668 0.930 . S
H1659 C1671 0.929 . S
H1660 C1674 0.930 . S
H1661 C1676 0.960 . S
H1662 C1676 0.955 1_455 S
H1663 C1676 0.960 . S
C1664 H1656 0.929 . S
C1664 C1665 1.377 . S
C1664 C1666 1.384 . S
C1665 C1664 1.377 . S
C1665 C1671 1.390 1_455 S
C1666 H1657 0.930 . S
C1666 C1664 1.384 . S
C1666 C1667 1.372 . S
C1667 C1666 1.372 . S
C1667 C1668 1.400 1_455 S
C1667 C1672 1.490 . S
C1668 H1658 0.930 . S
C1668 C1667 1.400 1_655 S
C1668 C1671 1.386 . S
H1669 C1685 0.930 . S
H1670 C1686 0.931 . S
C1671 H1659 0.929 . S
C1671 C1665 1.390 1_655 S
C1671 C1668 1.386 . S
C1672 C1667 1.490 . S
C1672 C1674 1.395 . S
C1672 C1675 1.403 . S
H1673 C1679 0.930 1_655 S
C1674 H1660 0.930 . S
C1674 C1672 1.395 . S
C1674 C1677 1.403 . S
C1675 C1672 1.403 . S
C1675 C1676 1.524 1_455 S
C1675 C1679 1.400 1_554 S
C1676 H1661 0.960 . S
C1676 H1662 0.955 1_655 S
C1676 H1663 0.960 . S
C1676 C1675 1.524 1_655 S
C1677 C1674 1.403 . S
C1677 C1678 1.392 1_554 S
C1677 C1681 1.495 1_554 S
C1678 C1677 1.392 1_556 S
C1678 C1679 1.385 . S
C1678 C1680 1.478 . S
C1679 H1673 0.930 1_455 S
C1679 C1675 1.400 1_556 S
C1679 C1678 1.385 . S
C1680 C1678 1.478 . S
C1680 C1682 1.381 . S
C1680 C1686 1.383 1_455 S
C1681 C1677 1.495 1_556 S
C1681 H1687 0.959 1_556 S
C1681 H1688 0.961 . S
C1681 H1689 0.960 . S
C1682 C1680 1.381 . S
C1682 C1683 1.394 . S
C1682 H1690 0.930 . S
C1683 C1682 1.394 . S
C1683 C1684 1.383 . S
C1683 H1691 0.929 . S
C1684 C1683 1.383 . S
C1684 C1685 1.377 1_455 S
C1685 H1669 0.930 . S
C1685 C1684 1.377 1_655 S
C1685 C1686 1.379 . S
C1686 H1670 0.931 . S
C1686 C1680 1.383 1_655 S
C1686 C1685 1.379 . S
H1687 C1681 0.959 1_554 S
H1688 C1681 0.961 . S
H1689 C1681 0.960 . S
H1690 C1682 0.930 . S
H1691 C1683 0.929 . S
H1692 C1700 0.929 . S
H1693 C1702 0.930 . S
H1694 C1704 0.930 . S
H1695 C1707 0.929 . S
H1696 C1710 0.930 . S
H1697 C1712 0.960 . S
H1698 C1712 0.960 . S
H1699 C1712 0.960 . S
C1700 H1692 0.929 . S
C1700 C1701 1.377 . S
C1700 C1702 1.384 . S
C1701 C1700 1.377 . S
C1701 C1707 1.390 . S
C1702 H1693 0.930 . S
C1702 C1700 1.384 . S
C1702 C1703 1.372 . S
C1703 C1702 1.372 . S
C1703 C1704 1.400 . S
C1703 C1708 1.490 . S
C1704 H1694 0.930 . S
C1704 C1703 1.400 . S
C1704 C1707 1.386 . S
H1705 C1721 0.930 . S
H1706 C1722 0.931 . S
C1707 H1695 0.929 . S
C1707 C1701 1.390 . S
C1707 C1704 1.386 . S
C1708 C1703 1.490 . S
C1708 C1710 1.395 . S
C1708 C1711 1.403 . S
H1709 C1715 0.930 . S
C1710 H1696 0.930 . S
C1710 C1708 1.395 . S
C1710 C1713 1.403 1_554 S
C1711 C1708 1.403 . S
C1711 C1712 1.524 . S
C1711 C1715 1.400 1_554 S
C1712 H1697 0.960 . S
C1712 H1698 0.960 . S
C1712 H1699 0.960 . S
C1712 C1711 1.524 . S
C1713 C1710 1.403 1_556 S
C1713 C1714 1.392 . S
C1713 C1717 1.495 . S
C1714 C1713 1.392 . S
C1714 C1715 1.385 . S
C1714 C1716 1.478 . S
C1715 H1709 0.930 . S
C1715 C1711 1.400 1_556 S
C1715 C1714 1.385 . S
C1716 C1714 1.478 . S
C1716 C1718 1.381 . S
C1716 C1722 1.383 . S
C1717 C1713 1.495 . S
C1717 H1723 0.959 . S
C1717 H1724 0.961 . S
C1717 H1725 0.960 . S
C1718 C1716 1.381 . S
C1718 C1719 1.394 . S
C1718 H1726 0.930 . S
C1719 C1718 1.394 . S
C1719 C1720 1.383 . S
C1719 H1727 0.929 . S
C1720 C1719 1.383 . S
C1720 C1721 1.377 . S
C1721 H1705 0.930 . S
C1721 C1720 1.377 . S
C1721 C1722 1.379 . S
C1722 H1706 0.931 . S
C1722 C1716 1.383 . S
C1722 C1721 1.379 . S
H1723 C1717 0.959 . S
H1724 C1717 0.961 . S
H1725 C1717 0.960 . S
H1726 C1718 0.930 . S
H1727 C1719 0.929 . S
H1728 C1736 0.929 . S
H1729 C1738 0.930 . S
H1730 C1740 0.930 . S
H1731 C1743 0.929 . S
H1732 C1746 0.930 . S
H1733 C1748 0.960 . S
H1734 C1748 0.960 1_545 S
H1735 C1748 0.960 . S
C1736 H1728 0.929 . S
C1736 C1737 1.377 . S
C1736 C1738 1.384 . S
C1737 C1736 1.377 . S
C1737 C1743 1.390 1_545 S
C1738 H1729 0.930 . S
C1738 C1736 1.384 . S
C1738 C1739 1.372 . S
C1739 C1738 1.372 . S
C1739 C1740 1.400 1_545 S
C1739 C1744 1.490 . S
C1740 H1730 0.930 . S
C1740 C1739 1.400 1_565 S
C1740 C1743 1.386 . S
H1741 C1757 0.930 1_565 S
H1742 C1758 0.931 1_565 S
C1743 H1731 0.929 . S
C1743 C1737 1.390 1_565 S
C1743 C1740 1.386 . S
C1744 C1739 1.490 . S
C1744 C1746 1.395 . S
C1744 C1747 1.403 . S
H1745 C1751 0.930 . S
C1746 H1732 0.930 . S
C1746 C1744 1.395 . S
C1746 C1749 1.403 1_554 S
C1747 C1744 1.403 . S
C1747 C1748 1.524 1_545 S
C1747 C1751 1.400 1_554 S
C1748 H1733 0.960 . S
C1748 H1734 0.960 1_565 S
C1748 H1735 0.960 . S
C1748 C1747 1.524 1_565 S
C1749 C1746 1.403 1_556 S
C1749 C1750 1.392 . S
C1749 C1753 1.495 . S
C1750 C1749 1.392 . S
C1750 C1751 1.385 . S
C1750 C1752 1.478 . S
C1751 H1745 0.930 . S
C1751 C1747 1.400 1_556 S
C1751 C1750 1.385 . S
C1752 C1750 1.478 . S
C1752 C1754 1.381 . S
C1752 C1758 1.383 . S
C1753 C1749 1.495 . S
C1753 H1759 0.959 . S
C1753 H1760 0.961 . S
C1753 H1761 0.960 . S
C1754 C1752 1.381 . S
C1754 C1755 1.394 . S
C1754 H1762 0.930 . S
C1755 C1754 1.394 . S
C1755 C1756 1.383 . S
C1755 H1763 0.929 . S
C1756 C1755 1.383 . S
C1756 C1757 1.377 . S
C1757 H1741 0.930 1_545 S
C1757 C1756 1.377 . S
C1757 C1758 1.379 . S
C1758 H1742 0.931 1_545 S
C1758 C1752 1.383 . S
C1758 C1757 1.379 . S
H1759 C1753 0.959 . S
H1760 C1753 0.961 . S
H1761 C1753 0.960 . S
H1762 C1754 0.930 . S
H1763 C1755 0.929 . S
H1764 C1772 0.929 . S
H1765 C1774 0.930 . S
H1766 C1776 0.930 1_655 S
H1767 C1779 0.929 1_655 S
H1768 C1782 0.930 . S
H1769 C1784 0.960 1_554 S
H1770 C1784 0.960 . S
H1771 C1784 0.960 . S
C1772 H1764 0.929 . S
C1772 C1773 1.377 . S
C1772 C1774 1.384 . S
C1773 C1772 1.377 . S
C1773 C1779 1.390 . S
C1774 H1765 0.930 . S
C1774 C1772 1.384 . S
C1774 C1775 1.372 . S
C1775 C1774 1.372 . S
C1775 C1776 1.400 . S
C1775 C1780 1.505 . S
C1776 H1766 0.930 1_455 S
C1776 C1775 1.400 . S
C1776 C1779 1.386 . S
H1777 C1793 0.930 . S
H1778 C1794 0.931 . S
C1779 H1767 0.929 1_455 S
C1779 C1773 1.390 . S
C1779 C1776 1.386 . S
C1780 C1775 1.505 . S
C1780 C1782 1.388 1_556 S
C1780 C1783 1.395 1_456 S
H1781 C1787 0.979 . S
C1782 H1768 0.930 . S
C1782 C1780 1.388 1_554 S
C1782 C1785 1.403 . S
C1783 C1780 1.395 1_654 S
C1783 C1784 1.524 1_554 S
C1783 C1787 1.400 . S
C1784 H1769 0.960 1_556 S
C1784 H1770 0.960 . S
C1784 H1771 0.960 . S
C1784 C1783 1.524 1_556 S
C1785 C1782 1.403 . S
C1785 C1786 1.392 . S
C1785 C1789 1.495 . S
C1786 C1785 1.392 . S
C1786 C1787 1.341 1_455 S
C1786 C1788 1.478 . S
C1787 H1781 0.979 . S
C1787 C1783 1.400 . S
C1787 C1786 1.341 1_655 S
C1788 C1786 1.478 . S
C1788 C1790 1.381 . S
C1788 C1794 1.383 . S
C1789 C1785 1.495 . S
C1789 H1795 0.959 . S
C1789 H1796 0.961 . S
C1789 H1797 0.960 . S
C1790 C1788 1.381 . S
C1790 C1791 1.394 . S
C1790 H1798 0.930 . S
C1791 C1790 1.394 . S
C1791 C1792 1.383 . S
C1791 H1799 0.929 . S
C1792 C1791 1.383 . S
C1792 C1793 1.377 . S
C1793 H1777 0.930 . S
C1793 C1792 1.377 . S
C1793 C1794 1.379 . S
C1794 H1778 0.931 . S
C1794 C1788 1.383 . S
C1794 C1793 1.379 . S
H1795 C1789 0.959 . S
H1796 C1789 0.961 . S
H1797 C1789 0.960 . S
H1798 C1790 0.930 . S
H1799 C1791 0.929 . S
H1800 C1808 0.929 . S
H1801 C1810 0.930 . S
H1802 C1812 0.930 . S
H1803 C1815 0.929 . S
H1804 C1818 0.930 . S
H1805 C1820 0.960 . S
H1806 C1820 0.960 . S
H1807 C1820 0.960 . S
C1808 H1800 0.929 . S
C1808 C1809 1.377 . S
C1808 C1810 1.384 . S
C1809 C1808 1.377 . S
C1809 C1815 1.390 . S
C1810 H1801 0.930 . S
C1810 C1808 1.384 . S
C1810 C1811 1.372 . S
C1811 C1810 1.372 . S
C1811 C1812 1.400 . S
C1811 C1816 1.490 . S
C1812 H1802 0.930 . S
C1812 C1811 1.400 . S
C1812 C1815 1.386 . S
H1813 C1829 0.930 . S
H1814 C1830 0.931 . S
C1815 H1803 0.929 . S
C1815 C1809 1.390 . S
C1815 C1812 1.386 . S
C1816 C1811 1.490 . S
C1816 C1818 1.395 . S
C1816 C1819 1.403 . S
H1817 C1823 0.930 . S
C1818 H1804 0.930 . S
C1818 C1816 1.395 . S
C1818 C1821 1.403 . S
C1819 C1816 1.403 . S
C1819 C1820 1.524 . S
C1819 C1823 1.400 . S
C1820 H1805 0.960 . S
C1820 H1806 0.960 . S
C1820 H1807 0.960 . S
C1820 C1819 1.524 . S
C1821 C1818 1.403 . S
C1821 C1822 1.392 . S
C1821 C1825 1.495 . S
C1822 C1821 1.392 . S
C1822 C1823 1.385 . S
C1822 C1824 1.478 1_554 S
C1823 H1817 0.930 . S
C1823 C1819 1.400 . S
C1823 C1822 1.385 . S
C1824 C1822 1.478 1_556 S
C1824 C1826 1.381 . S
C1824 C1830 1.383 . S
C1825 C1821 1.495 . S
C1825 H1831 0.959 . S
C1825 H1832 0.961 1_554 S
C1825 H1833 0.960 1_554 S
C1826 C1824 1.381 . S
C1826 C1827 1.394 . S
C1826 H1834 0.930 . S
C1827 C1826 1.394 . S
C1827 C1828 1.383 . S
C1827 H1835 0.929 . S
C1828 C1827 1.383 . S
C1828 C1829 1.377 . S
C1829 H1813 0.930 . S
C1829 C1828 1.377 . S
C1829 C1830 1.379 . S
C1830 H1814 0.931 . S
C1830 C1824 1.383 . S
C1830 C1829 1.379 . S
H1831 C1825 0.959 . S
H1832 C1825 0.961 1_556 S
H1833 C1825 0.960 1_556 S
H1834 C1826 0.930 . S
H1835 C1827 0.929 . S
H1836 C1844 0.929 . S
H1837 C1846 0.930 . S
H1838 C1848 0.930 . S
H1839 C1851 0.929 . S
H1840 C1854 0.930 . S
H1841 C1856 0.960 . S
H1842 C1856 0.960 . S
H1843 C1856 0.960 . S
C1844 H1836 0.929 . S
C1844 C1845 1.377 . S
C1844 C1846 1.384 . S
C1845 C1844 1.377 . S
C1845 C1851 1.390 1_545 S
C1846 H1837 0.930 . S
C1846 C1844 1.384 . S
C1846 C1847 1.372 . S
C1847 C1846 1.372 . S
C1847 C1848 1.400 1_545 S
C1847 C1852 1.490 . S
C1848 H1838 0.930 . S
C1848 C1847 1.400 1_565 S
C1848 C1851 1.386 . S
H1849 C1865 0.930 1_565 S
H1850 C1866 0.931 1_565 S
C1851 H1839 0.929 . S
C1851 C1845 1.390 1_565 S
C1851 C1848 1.386 . S
C1852 C1847 1.490 . S
C1852 C1854 1.395 . S
C1852 C1855 1.403 . S
H1853 C1859 0.932 . S
C1854 H1840 0.930 . S
C1854 C1852 1.395 . S
C1854 C1857 1.403 . S
C1855 C1852 1.403 . S
C1855 C1856 1.524 1_545 S
C1855 C1859 1.400 1_554 S
C1856 H1841 0.960 . S
C1856 H1842 0.960 . S
C1856 H1843 0.960 . S
C1856 C1855 1.524 1_565 S
C1857 C1854 1.403 . S
C1857 C1858 1.393 1_554 S
C1857 C1861 1.496 1_554 S
C1858 C1857 1.393 1_556 S
C1858 C1859 1.385 . S
C1858 C1860 1.478 . S
C1859 H1853 0.932 . S
C1859 C1855 1.400 1_556 S
C1859 C1858 1.385 . S
C1860 C1858 1.478 . S
C1860 C1862 1.381 . S
C1860 C1866 1.383 . S
C1861 C1857 1.496 1_556 S
C1861 H1867 0.959 1_556 S
C1861 H1868 0.961 . S
C1861 H1869 0.960 . S
C1862 C1860 1.381 . S
C1862 C1863 1.394 . S
C1862 H1870 0.930 . S
C1863 C1862 1.394 . S
C1863 C1864 1.383 . S
C1863 H1871 0.929 . S
C1864 C1863 1.383 . S
C1864 C1865 1.377 . S
C1865 H1849 0.930 1_545 S
C1865 C1864 1.377 . S
C1865 C1866 1.379 . S
C1866 H1850 0.931 1_545 S
C1866 C1860 1.383 . S
C1866 C1865 1.379 . S
H1867 C1861 0.959 1_554 S
H1868 C1861 0.961 . S
H1869 C1861 0.960 . S
H1870 C1862 0.930 . S
H1871 C1863 0.929 . S
H1872 C1880 0.929 . S
H1873 C1882 0.930 . S
H1874 C1884 0.930 . S
H1875 C1887 0.929 . S
H1876 C1890 0.930 . S
H1877 C1892 0.960 . S
H1878 C1892 0.960 . S
H1879 C1892 0.960 . S
C1880 H1872 0.929 . S
C1880 C1881 1.377 . S
C1880 C1882 1.384 . S
C1881 C1880 1.377 . S
C1881 C1887 1.390 . S
C1882 H1873 0.930 . S
C1882 C1880 1.384 . S
C1882 C1883 1.372 . S
C1883 C1882 1.372 . S
C1883 C1884 1.400 . S
C1883 C1888 1.490 . S
C1884 H1874 0.930 . S
C1884 C1883 1.400 . S
C1884 C1887 1.386 . S
H1885 C1901 0.930 . S
H1886 C1902 0.931 . S
C1887 H1875 0.929 . S
C1887 C1881 1.390 . S
C1887 C1884 1.386 . S
C1888 C1883 1.490 . S
C1888 C1890 1.395 . S
C1888 C1891 1.403 . S
H1889 C1895 0.930 . S
C1890 H1876 0.930 . S
C1890 C1888 1.395 . S
C1890 C1893 1.403 . S
C1891 C1888 1.403 . S
C1891 C1892 1.524 . S
C1891 C1895 1.400 . S
C1892 H1877 0.960 . S
C1892 H1878 0.960 . S
C1892 H1879 0.960 . S
C1892 C1891 1.524 . S
C1893 C1890 1.403 . S
C1893 C1894 1.392 . S
C1893 C1897 1.495 . S
C1894 C1893 1.392 . S
C1894 C1895 1.385 . S
C1894 C1896 1.478 . S
C1895 H1889 0.930 . S
C1895 C1891 1.400 . S
C1895 C1894 1.385 . S
C1896 C1894 1.478 . S
C1896 C1898 1.381 . S
C1896 C1902 1.383 . S
C1897 C1893 1.495 . S
C1897 H1903 0.959 . S
C1897 H1904 0.961 . S
C1897 H1905 0.960 . S
C1898 C1896 1.381 . S
C1898 C1899 1.394 . S
C1898 H1906 0.930 . S
C1899 C1898 1.394 . S
C1899 C1900 1.383 . S
C1899 H1907 0.929 . S
C1900 C1899 1.383 . S
C1900 C1901 1.377 . S
C1901 H1885 0.930 . S
C1901 C1900 1.377 . S
C1901 C1902 1.379 . S
C1902 H1886 0.931 . S
C1902 C1896 1.383 . S
C1902 C1901 1.379 . S
H1903 C1897 0.959 . S
H1904 C1897 0.961 . S
H1905 C1897 0.960 . S
H1906 C1898 0.930 . S
H1907 C1899 0.929 . S
H1908 C1916 0.929 . S
H1909 C1918 0.930 . S
H1910 C1920 0.930 . S
H1911 C1923 0.929 . S
H1912 C1926 0.930 . S
H1913 C1928 0.960 . S
H1914 C1928 0.960 . S
H1915 C1928 0.960 . S
C1916 H1908 0.929 . S
C1916 C1917 1.377 . S
C1916 C1918 1.384 . S
C1917 C1916 1.377 . S
C1917 C1923 1.390 . S
C1918 H1909 0.930 . S
C1918 C1916 1.384 . S
C1918 C1919 1.372 . S
C1919 C1918 1.372 . S
C1919 C1920 1.400 . S
C1919 C1924 1.490 . S
C1920 H1910 0.930 . S
C1920 C1919 1.400 . S
C1920 C1923 1.386 . S
H1921 C1937 0.930 . S
H1922 C1938 0.931 . S
C1923 H1911 0.929 . S
C1923 C1917 1.390 . S
C1923 C1920 1.386 . S
C1924 C1919 1.490 . S
C1924 C1926 1.395 . S
C1924 C1927 1.403 . S
H1925 C1931 0.930 . S
C1926 H1912 0.930 . S
C1926 C1924 1.395 . S
C1926 C1929 1.403 . S
C1927 C1924 1.403 . S
C1927 C1928 1.524 . S
C1927 C1931 1.400 . S
C1928 H1913 0.960 . S
C1928 H1914 0.960 . S
C1928 H1915 0.960 . S
C1928 C1927 1.524 . S
C1929 C1926 1.403 . S
C1929 C1930 1.392 . S
C1929 C1933 1.495 . S
C1930 C1929 1.392 . S
C1930 C1931 1.385 . S
C1930 C1932 1.478 . S
C1931 H1925 0.930 . S
C1931 C1927 1.400 . S
C1931 C1930 1.385 . S
C1932 C1930 1.478 . S
C1932 C1934 1.381 . S
C1932 C1938 1.383 . S
C1933 C1929 1.495 . S
C1933 H1939 0.959 . S
C1933 H1940 0.961 . S
C1933 H1941 0.960 . S
C1934 C1932 1.381 . S
C1934 C1935 1.394 . S
C1934 H1942 0.930 . S
C1935 C1934 1.394 . S
C1935 C1936 1.383 1_554 S
C1935 H1943 0.929 . S
C1936 C1935 1.383 1_556 S
C1936 C1937 1.377 1_556 S
C1937 H1921 0.930 . S
C1937 C1936 1.377 1_554 S
C1937 C1938 1.379 . S
C1938 H1922 0.931 . S
C1938 C1932 1.383 . S
C1938 C1937 1.379 . S
H1939 C1933 0.959 . S
H1940 C1933 0.961 . S
H1941 C1933 0.960 . S
H1942 C1934 0.930 . S
H1943 C1935 0.929 . S
H1944 C1952 0.929 . S
H1945 C1954 0.930 . S
H1946 C1956 0.930 . S
H1947 C1959 0.929 . S
H1948 C1962 0.930 . S
H1949 C1964 0.960 . S
H1950 C1964 0.960 . S
H1951 C1964 0.960 . S
C1952 H1944 0.929 . S
C1952 C1953 1.377 . S
C1952 C1954 1.384 . S
C1953 C1952 1.377 . S
C1953 C1959 1.390 . S
C1954 H1945 0.930 . S
C1954 C1952 1.384 . S
C1954 C1955 1.372 . S
C1955 C1954 1.372 . S
C1955 C1956 1.400 . S
C1955 C1960 1.490 . S
C1956 H1946 0.930 . S
C1956 C1955 1.400 . S
C1956 C1959 1.386 . S
H1957 C1973 0.930 . S
H1958 C1974 0.931 . S
C1959 H1947 0.929 . S
C1959 C1953 1.390 . S
C1959 C1956 1.386 . S
C1960 C1955 1.490 . S
C1960 C1962 1.395 . S
C1960 C1963 1.403 . S
H1961 C1967 0.930 . S
C1962 H1948 0.930 . S
C1962 C1960 1.395 . S
C1962 C1965 1.403 . S
C1963 C1960 1.403 . S
C1963 C1964 1.524 . S
C1963 C1967 1.400 . S
C1964 H1949 0.960 . S
C1964 H1950 0.960 . S
C1964 H1951 0.960 . S
C1964 C1963 1.524 . S
C1965 C1962 1.403 . S
C1965 C1966 1.392 . S
C1965 C1969 1.495 . S
C1966 C1965 1.392 . S
C1966 C1967 1.385 . S
C1966 C1968 1.478 . S
C1967 H1961 0.930 . S
C1967 C1963 1.400 . S
C1967 C1966 1.385 . S
C1968 C1966 1.478 . S
C1968 C1970 1.381 . S
C1968 C1974 1.383 . S
C1969 C1965 1.495 . S
C1969 H1975 0.959 . S
C1969 H1976 0.961 . S
C1969 H1977 0.960 . S
C1970 C1968 1.381 . S
C1970 C1971 1.394 . S
C1970 H1978 0.930 . S
C1971 C1970 1.394 . S
C1971 C1972 1.383 . S
C1971 H1979 0.929 . S
C1972 C1971 1.383 . S
C1972 C1973 1.377 . S
C1973 H1957 0.930 . S
C1973 C1972 1.377 . S
C1973 C1974 1.379 . S
C1974 H1958 0.931 . S
C1974 C1968 1.383 . S
C1974 C1973 1.379 . S
H1975 C1969 0.959 . S
H1976 C1969 0.961 . S
H1977 C1969 0.960 . S
H1978 C1970 0.930 . S
H1979 C1971 0.929 . S
H1980 C1988 0.929 . S
H1981 C1990 0.930 . S
H1982 C1992 0.930 . S
H1983 C1995 0.929 . S
H1984 C1998 0.930 . S
H1985 C2000 0.960 . S
H1986 C2000 0.960 . S
H1987 C2000 0.960 . S
C1988 H1980 0.929 . S
C1988 C1989 1.377 . S
C1988 C1990 1.384 . S
C1989 C1988 1.377 . S
C1989 C1995 1.390 . S
C1990 H1981 0.930 . S
C1990 C1988 1.384 . S
C1990 C1991 1.372 . S
C1991 C1990 1.372 . S
C1991 C1992 1.400 . S
C1991 C1996 1.490 . S
C1992 H1982 0.930 . S
C1992 C1991 1.400 . S
C1992 C1995 1.386 . S
H1993 C2009 0.930 . S
H1994 C2010 0.931 . S
C1995 H1983 0.929 . S
C1995 C1989 1.390 . S
C1995 C1992 1.386 . S
C1996 C1991 1.490 . S
C1996 C1998 1.395 . S
C1996 C1999 1.403 . S
H1997 C2003 0.930 . S
C1998 H1984 0.930 . S
C1998 C1996 1.395 . S
C1998 C2001 1.403 . S
C1999 C1996 1.403 . S
C1999 C2000 1.524 . S
C1999 C2003 1.400 . S
C2000 H1985 0.960 . S
C2000 H1986 0.960 . S
C2000 H1987 0.960 . S
C2000 C1999 1.524 . S
C2001 C1998 1.403 . S
C2001 C2002 1.392 . S
C2001 C2005 1.495 . S
C2002 C2001 1.392 . S
C2002 C2003 1.385 . S
C2002 C2004 1.478 . S
C2003 H1997 0.930 . S
C2003 C1999 1.400 . S
C2003 C2002 1.385 . S
C2004 C2002 1.478 . S
C2004 C2006 1.381 . S
C2004 C2010 1.383 . S
C2005 C2001 1.495 . S
C2005 H2011 0.959 . S
C2005 H2012 0.961 . S
C2005 H2013 0.960 . S
C2006 C2004 1.381 . S
C2006 C2007 1.394 . S
C2006 H2014 0.930 . S
C2007 C2006 1.394 . S
C2007 C2008 1.383 . S
C2007 H2015 0.929 . S
C2008 C2007 1.383 . S
C2008 C2009 1.377 . S
C2009 H1993 0.930 . S
C2009 C2008 1.377 . S
C2009 C2010 1.379 . S
C2010 H1994 0.931 . S
C2010 C2004 1.383 . S
C2010 C2009 1.379 . S
H2011 C2005 0.959 . S
H2012 C2005 0.961 . S
H2013 C2005 0.960 . S
H2014 C2006 0.930 . S
H2015 C2007 0.929 . S
H2016 C2024 0.929 . S
H2017 C2026 0.930 . S
H2018 C2028 0.930 . S
H2019 C2031 0.929 . S
H2020 C2034 0.930 . S
H2021 C2036 0.960 . S
H2022 C2036 0.960 . S
H2023 C2036 0.960 . S
C2024 H2016 0.929 . S
C2024 C2025 1.377 . S
C2024 C2026 1.384 . S
C2025 C2024 1.377 . S
C2025 C2031 1.390 . S
C2026 H2017 0.930 . S
C2026 C2024 1.384 . S
C2026 C2027 1.372 . S
C2027 C2026 1.372 . S
C2027 C2028 1.400 . S
C2027 C2032 1.490 . S
C2028 H2018 0.930 . S
C2028 C2027 1.400 . S
C2028 C2031 1.386 . S
H2029 C2045 0.930 . S
H2030 C2046 0.931 . S
C2031 H2019 0.929 . S
C2031 C2025 1.390 . S
C2031 C2028 1.386 . S
C2032 C2027 1.490 . S
C2032 C2034 1.395 . S
C2032 C2035 1.403 . S
H2033 C2039 0.930 . S
C2034 H2020 0.930 . S
C2034 C2032 1.395 . S
C2034 C2037 1.403 . S
C2035 C2032 1.403 . S
C2035 C2036 1.524 . S
C2035 C2039 1.400 . S
C2036 H2021 0.960 . S
C2036 H2022 0.960 . S
C2036 H2023 0.960 . S
C2036 C2035 1.524 . S
C2037 C2034 1.403 . S
C2037 C2038 1.392 . S
C2037 C2041 1.495 . S
C2038 C2037 1.392 . S
C2038 C2039 1.385 . S
C2038 C2040 1.478 . S
C2039 H2033 0.930 . S
C2039 C2035 1.400 . S
C2039 C2038 1.385 . S
C2040 C2038 1.478 . S
C2040 C2042 1.381 . S
C2040 C2046 1.383 . S
C2041 C2037 1.495 . S
C2041 H2047 0.959 . S
C2041 H2048 0.961 . S
C2041 H2049 0.960 . S
C2042 C2040 1.381 . S
C2042 C2043 1.394 . S
C2042 H2050 0.930 . S
C2043 C2042 1.394 . S
C2043 C2044 1.383 . S
C2043 H2051 0.929 . S
C2044 C2043 1.383 . S
C2044 C2045 1.377 . S
C2045 H2029 0.930 . S
C2045 C2044 1.377 . S
C2045 C2046 1.379 . S
C2046 H2030 0.931 . S
C2046 C2040 1.383 . S
C2046 C2045 1.379 . S
H2047 C2041 0.959 . S
H2048 C2041 0.961 . S
H2049 C2041 0.960 . S
H2050 C2042 0.930 . S
H2051 C2043 0.929 . S
H2052 C2060 0.929 . S
H2053 C2062 0.930 . S
H2054 C2064 0.930 . S
H2055 C2067 0.929 . S
H2056 C2070 0.930 . S
H2057 C2072 0.960 . S
H2058 C2072 0.960 . S
H2059 C2072 0.960 . S
C2060 H2052 0.929 . S
C2060 C2061 1.377 . S
C2060 C2062 1.384 . S
C2061 C2060 1.377 . S
C2061 C2067 1.390 . S
C2062 H2053 0.930 . S
C2062 C2060 1.384 . S
C2062 C2063 1.372 . S
C2063 C2062 1.372 . S
C2063 C2064 1.400 . S
C2063 C2068 1.490 . S
C2064 H2054 0.930 . S
C2064 C2063 1.400 . S
C2064 C2067 1.386 . S
H2065 C2081 0.930 . S
H2066 C2082 0.931 . S
C2067 H2055 0.929 . S
C2067 C2061 1.390 . S
C2067 C2064 1.386 . S
C2068 C2063 1.490 . S
C2068 C2070 1.395 . S
C2068 C2071 1.403 . S
H2069 C2075 0.930 . S
C2070 H2056 0.930 . S
C2070 C2068 1.395 . S
C2070 C2073 1.403 . S
C2071 C2068 1.403 . S
C2071 C2072 1.524 . S
C2071 C2075 1.400 . S
C2072 H2057 0.960 . S
C2072 H2058 0.960 . S
C2072 H2059 0.960 . S
C2072 C2071 1.524 . S
C2073 C2070 1.403 . S
C2073 C2074 1.392 . S
C2073 C2077 1.495 . S
C2074 C2073 1.392 . S
C2074 C2075 1.385 . S
C2074 C2076 1.478 . S
C2075 H2069 0.930 . S
C2075 C2071 1.400 . S
C2075 C2074 1.385 . S
C2076 C2074 1.478 . S
C2076 C2078 1.381 . S
C2076 C2082 1.383 . S
C2077 C2073 1.495 . S
C2077 H2083 0.959 . S
C2077 H2084 0.961 . S
C2077 H2085 0.960 . S
C2078 C2076 1.381 . S
C2078 C2079 1.394 . S
C2078 H2086 0.930 . S
C2079 C2078 1.394 . S
C2079 C2080 1.383 . S
C2079 H2087 0.929 . S
C2080 C2079 1.383 . S
C2080 C2081 1.377 . S
C2081 H2065 0.930 . S
C2081 C2080 1.377 . S
C2081 C2082 1.379 . S
C2082 H2066 0.931 . S
C2082 C2076 1.383 . S
C2082 C2081 1.379 . S
H2083 C2077 0.959 . S
H2084 C2077 0.961 . S
H2085 C2077 0.960 . S
H2086 C2078 0.930 . S
H2087 C2079 0.929 . S
H2088 C2096 0.929 . S
H2089 C2098 0.930 . S
H2090 C2100 0.930 . S
H2091 C2103 0.929 . S
H2092 C2106 0.930 . S
H2093 C2108 0.960 . S
H2094 C2108 0.960 . S
H2095 C2108 0.960 . S
C2096 H2088 0.929 . S
C2096 C2097 1.377 . S
C2096 C2098 1.384 . S
C2097 C2096 1.377 . S
C2097 C2103 1.390 . S
C2098 H2089 0.930 . S
C2098 C2096 1.384 . S
C2098 C2099 1.372 . S
C2099 C2098 1.372 . S
C2099 C2100 1.400 . S
C2099 C2104 1.490 . S
C2100 H2090 0.930 . S
C2100 C2099 1.400 . S
C2100 C2103 1.386 . S
H2101 C2117 0.930 . S
H2102 C2118 0.931 . S
C2103 H2091 0.929 . S
C2103 C2097 1.390 . S
C2103 C2100 1.386 . S
C2104 C2099 1.490 . S
C2104 C2106 1.395 . S
C2104 C2107 1.403 . S
H2105 C2111 0.930 . S
C2106 H2092 0.930 . S
C2106 C2104 1.395 . S
C2106 C2109 1.403 . S
C2107 C2104 1.403 . S
C2107 C2108 1.524 . S
C2107 C2111 1.400 . S
C2108 H2093 0.960 . S
C2108 H2094 0.960 . S
C2108 H2095 0.960 . S
C2108 C2107 1.524 . S
C2109 C2106 1.403 . S
C2109 C2110 1.392 . S
C2109 C2113 1.495 . S
C2110 C2109 1.392 . S
C2110 C2111 1.385 . S
C2110 C2112 1.478 . S
C2111 H2105 0.930 . S
C2111 C2107 1.400 . S
C2111 C2110 1.385 . S
C2112 C2110 1.478 . S
C2112 C2114 1.381 . S
C2112 C2118 1.383 . S
C2113 C2109 1.495 . S
C2113 H2119 0.959 . S
C2113 H2120 0.961 . S
C2113 H2121 0.960 . S
C2114 C2112 1.381 . S
C2114 C2115 1.394 . S
C2114 H2122 0.930 . S
C2115 C2114 1.394 . S
C2115 C2116 1.383 . S
C2115 H2123 0.929 . S
C2116 C2115 1.383 . S
C2116 C2117 1.377 . S
C2117 H2101 0.930 . S
C2117 C2116 1.377 . S
C2117 C2118 1.379 . S
C2118 H2102 0.931 . S
C2118 C2112 1.383 . S
C2118 C2117 1.379 . S
H2119 C2113 0.959 . S
H2120 C2113 0.961 . S
H2121 C2113 0.960 . S
H2122 C2114 0.930 . S
H2123 C2115 0.929 . S
H2124 C2132 0.929 . S
H2125 C2134 0.930 . S
H2126 C2136 0.930 . S
H2127 C2139 0.929 . S
H2128 C2142 0.930 . S
H2129 C2144 0.960 . S
H2130 C2144 0.960 . S
H2131 C2144 0.960 . S
C2132 H2124 0.929 . S
C2132 C2133 1.377 . S
C2132 C2134 1.384 . S
C2133 C2132 1.377 . S
C2133 C2139 1.390 . S
C2134 H2125 0.930 . S
C2134 C2132 1.384 . S
C2134 C2135 1.372 . S
C2135 C2134 1.372 . S
C2135 C2136 1.400 . S
C2135 C2140 1.490 . S
C2136 H2126 0.930 . S
C2136 C2135 1.400 . S
C2136 C2139 1.386 . S
H2137 C2153 0.930 . S
H2138 C2154 0.931 . S
C2139 H2127 0.929 . S
C2139 C2133 1.390 . S
C2139 C2136 1.386 . S
C2140 C2135 1.490 . S
C2140 C2142 1.395 . S
C2140 C2143 1.403 . S
H2141 C2147 0.930 . S
C2142 H2128 0.930 . S
C2142 C2140 1.395 . S
C2142 C2145 1.403 . S
C2143 C2140 1.403 . S
C2143 C2144 1.524 . S
C2143 C2147 1.400 . S
C2144 H2129 0.960 . S
C2144 H2130 0.960 . S
C2144 H2131 0.960 . S
C2144 C2143 1.524 . S
C2145 C2142 1.403 . S
C2145 C2146 1.392 . S
C2145 C2149 1.495 . S
C2146 C2145 1.392 . S
C2146 C2147 1.385 . S
C2146 C2148 1.478 . S
C2147 H2141 0.930 . S
C2147 C2143 1.400 . S
C2147 C2146 1.385 . S
C2148 C2146 1.478 . S
C2148 C2150 1.381 . S
C2148 C2154 1.383 . S
C2149 C2145 1.495 . S
C2149 H2155 0.959 . S
C2149 H2156 0.961 . S
C2149 H2157 0.960 . S
C2150 C2148 1.381 . S
C2150 C2151 1.394 . S
C2150 H2158 0.930 . S
C2151 C2150 1.394 . S
C2151 C2152 1.383 . S
C2151 H2159 0.929 . S
C2152 C2151 1.383 . S
C2152 C2153 1.377 . S
C2153 H2137 0.930 . S
C2153 C2152 1.377 . S
C2153 C2154 1.379 . S
C2154 H2138 0.931 . S
C2154 C2148 1.383 . S
C2154 C2153 1.379 . S
H2155 C2149 0.959 . S
H2156 C2149 0.961 . S
H2157 C2149 0.960 . S
H2158 C2150 0.930 . S
H2159 C2151 0.929 . S
H2160 C2168 0.929 . S
H2161 C2170 0.930 . S
H2162 C2172 0.930 . S
H2163 C2175 0.929 . S
H2164 C2178 0.930 . S
H2165 C2180 0.960 . S
H2166 C2180 0.960 . S
H2167 C2180 0.960 . S
C2168 H2160 0.929 . S
C2168 C2169 1.377 . S
C2168 C2170 1.384 . S
C2169 C2168 1.377 . S
C2169 C2175 1.390 . S
C2170 H2161 0.930 . S
C2170 C2168 1.384 . S
C2170 C2171 1.372 . S
C2171 C2170 1.372 . S
C2171 C2172 1.400 . S
C2171 C2176 1.490 . S
C2172 H2162 0.930 . S
C2172 C2171 1.400 . S
C2172 C2175 1.386 . S
H2173 C2189 0.930 . S
H2174 C2190 0.931 . S
C2175 H2163 0.929 . S
C2175 C2169 1.390 . S
C2175 C2172 1.386 . S
C2176 C2171 1.490 . S
C2176 C2178 1.395 . S
C2176 C2179 1.403 . S
H2177 C2183 0.930 . S
C2178 H2164 0.930 . S
C2178 C2176 1.395 . S
C2178 C2181 1.403 . S
C2179 C2176 1.403 . S
C2179 C2180 1.524 . S
C2179 C2183 1.400 . S
C2180 H2165 0.960 . S
C2180 H2166 0.960 . S
C2180 H2167 0.960 . S
C2180 C2179 1.524 . S
C2181 C2178 1.403 . S
C2181 C2182 1.392 . S
C2181 C2185 1.495 . S
C2182 C2181 1.392 . S
C2182 C2183 1.385 . S
C2182 C2184 1.478 . S
C2183 H2177 0.930 . S
C2183 C2179 1.400 . S
C2183 C2182 1.385 . S
C2184 C2182 1.478 . S
C2184 C2186 1.381 . S
C2184 C2190 1.383 . S
C2185 C2181 1.495 . S
C2185 H2191 0.959 . S
C2185 H2192 0.961 . S
C2185 H2193 0.960 . S
C2186 C2184 1.381 . S
C2186 C2187 1.394 . S
C2186 H2194 0.930 . S
C2187 C2186 1.394 . S
C2187 C2188 1.383 . S
C2187 H2195 0.929 . S
C2188 C2187 1.383 . S
C2188 C2189 1.377 . S
C2189 H2173 0.930 . S
C2189 C2188 1.377 . S
C2189 C2190 1.379 . S
C2190 H2174 0.931 . S
C2190 C2184 1.383 . S
C2190 C2189 1.379 . S
H2191 C2185 0.959 . S
H2192 C2185 0.961 . S
H2193 C2185 0.960 . S
H2194 C2186 0.930 . S
H2195 C2187 0.929 . S
H2196 C2204 0.929 . S
H2197 C2206 0.930 . S
H2198 C2208 0.930 . S
H2199 C2211 0.929 . S
H2200 C2214 0.930 . S
H2201 C2216 0.960 . S
H2202 C2216 0.960 . S
H2203 C2216 0.960 . S
C2204 H2196 0.929 . S
C2204 C2205 1.377 . S
C2204 C2206 1.384 . S
C2205 C2204 1.377 . S
C2205 C2211 1.390 . S
C2206 H2197 0.930 . S
C2206 C2204 1.384 . S
C2206 C2207 1.372 . S
C2207 C2206 1.372 . S
C2207 C2208 1.400 . S
C2207 C2212 1.490 . S
C2208 H2198 0.930 . S
C2208 C2207 1.400 . S
C2208 C2211 1.386 . S
H2209 C2225 0.930 . S
H2210 C2226 0.931 . S
C2211 H2199 0.929 . S
C2211 C2205 1.390 . S
C2211 C2208 1.386 . S
C2212 C2207 1.490 . S
C2212 C2214 1.395 . S
C2212 C2215 1.403 . S
H2213 C2219 0.930 . S
C2214 H2200 0.930 . S
C2214 C2212 1.395 . S
C2214 C2217 1.403 . S
C2215 C2212 1.403 . S
C2215 C2216 1.524 . S
C2215 C2219 1.400 . S
C2216 H2201 0.960 . S
C2216 H2202 0.960 . S
C2216 H2203 0.960 . S
C2216 C2215 1.524 . S
C2217 C2214 1.403 . S
C2217 C2218 1.392 . S
C2217 C2221 1.495 . S
C2218 C2217 1.392 . S
C2218 C2219 1.385 . S
C2218 C2220 1.478 . S
C2219 H2213 0.930 . S
C2219 C2215 1.400 . S
C2219 C2218 1.385 . S
C2220 C2218 1.478 . S
C2220 C2222 1.381 . S
C2220 C2226 1.383 . S
C2221 C2217 1.495 . S
C2221 H2227 0.959 . S
C2221 H2228 0.961 . S
C2221 H2229 0.960 . S
C2222 C2220 1.381 . S
C2222 C2223 1.394 . S
C2222 H2230 0.930 . S
C2223 C2222 1.394 . S
C2223 C2224 1.383 . S
C2223 H2231 0.929 . S
C2224 C2223 1.383 . S
C2224 C2225 1.377 . S
C2225 H2209 0.930 . S
C2225 C2224 1.377 . S
C2225 C2226 1.379 . S
C2226 H2210 0.931 . S
C2226 C2220 1.383 . S
C2226 C2225 1.379 . S
H2227 C2221 0.959 . S
H2228 C2221 0.961 . S
H2229 C2221 0.960 . S
H2230 C2222 0.930 . S
H2231 C2223 0.929 . S
H2232 C2240 0.929 . S
H2233 C2242 0.930 . S
H2234 C2244 0.930 . S
H2235 C2247 0.929 . S
H2236 C2250 0.930 . S
H2237 C2252 0.960 . S
H2238 C2252 0.960 . S
H2239 C2252 0.960 . S
C2240 H2232 0.929 . S
C2240 C2241 1.377 . S
C2240 C2242 1.384 . S
C2241 C2240 1.377 . S
C2241 C2247 1.390 . S
C2242 H2233 0.930 . S
C2242 C2240 1.384 . S
C2242 C2243 1.372 . S
C2243 C2242 1.372 . S
C2243 C2244 1.400 . S
C2243 C2248 1.490 . S
C2244 H2234 0.930 . S
C2244 C2243 1.400 . S
C2244 C2247 1.386 . S
H2245 C2261 0.930 . S
H2246 C2262 0.931 . S
C2247 H2235 0.929 . S
C2247 C2241 1.390 . S
C2247 C2244 1.386 . S
C2248 C2243 1.490 . S
C2248 C2250 1.395 . S
C2248 C2251 1.403 . S
H2249 C2255 0.930 . S
C2250 H2236 0.930 . S
C2250 C2248 1.395 . S
C2250 C2253 1.403 . S
C2251 C2248 1.403 . S
C2251 C2252 1.524 . S
C2251 C2255 1.400 . S
C2252 H2237 0.960 . S
C2252 H2238 0.960 . S
C2252 H2239 0.960 . S
C2252 C2251 1.524 . S
C2253 C2250 1.403 . S
C2253 C2254 1.392 . S
C2253 C2257 1.495 . S
C2254 C2253 1.392 . S
C2254 C2255 1.385 . S
C2254 C2256 1.478 . S
C2255 H2249 0.930 . S
C2255 C2251 1.400 . S
C2255 C2254 1.385 . S
C2256 C2254 1.478 . S
C2256 C2258 1.381 . S
C2256 C2262 1.383 . S
C2257 C2253 1.495 . S
C2257 H2263 0.959 . S
C2257 H2264 0.961 . S
C2257 H2265 0.960 . S
C2258 C2256 1.381 . S
C2258 C2259 1.394 . S
C2258 H2266 0.930 . S
C2259 C2258 1.394 . S
C2259 C2260 1.383 . S
C2259 H2267 0.929 . S
C2260 C2259 1.383 . S
C2260 C2261 1.377 . S
C2261 H2245 0.930 . S
C2261 C2260 1.377 . S
C2261 C2262 1.379 . S
C2262 H2246 0.931 . S
C2262 C2256 1.383 . S
C2262 C2261 1.379 . S
H2263 C2257 0.959 . S
H2264 C2257 0.961 . S
H2265 C2257 0.960 . S
H2266 C2258 0.930 . S
H2267 C2259 0.929 . S
H2268 C2276 0.929 . S
H2269 C2278 0.930 . S
H2270 C2280 0.930 . S
H2271 C2283 0.929 . S
H2272 C2286 0.930 . S
H2273 C2288 0.960 . S
H2274 C2288 0.960 . S
H2275 C2288 0.960 . S
C2276 H2268 0.929 . S
C2276 C2277 1.377 . S
C2276 C2278 1.384 . S
C2277 C2276 1.377 . S
C2277 C2283 1.390 . S
C2278 H2269 0.930 . S
C2278 C2276 1.384 . S
C2278 C2279 1.372 . S
C2279 C2278 1.372 . S
C2279 C2280 1.400 . S
C2279 C2284 1.490 . S
C2280 H2270 0.930 . S
C2280 C2279 1.400 . S
C2280 C2283 1.386 . S
H2281 C2297 0.930 . S
H2282 C2298 0.931 . S
C2283 H2271 0.929 . S
C2283 C2277 1.390 . S
C2283 C2280 1.386 . S
C2284 C2279 1.490 . S
C2284 C2286 1.395 . S
C2284 C2287 1.403 . S
H2285 C2291 0.930 . S
C2286 H2272 0.930 . S
C2286 C2284 1.395 . S
C2286 C2289 1.403 . S
C2287 C2284 1.403 . S
C2287 C2288 1.524 . S
C2287 C2291 1.400 . S
C2288 H2273 0.960 . S
C2288 H2274 0.960 . S
C2288 H2275 0.960 . S
C2288 C2287 1.524 . S
C2289 C2286 1.403 . S
C2289 C2290 1.392 . S
C2289 C2293 1.495 . S
C2290 C2289 1.392 . S
C2290 C2291 1.385 . S
C2290 C2292 1.478 . S
C2291 H2285 0.930 . S
C2291 C2287 1.400 . S
C2291 C2290 1.385 . S
C2292 C2290 1.478 . S
C2292 C2294 1.381 . S
C2292 C2298 1.383 . S
C2293 C2289 1.495 . S
C2293 H2299 0.959 . S
C2293 H2300 0.961 . S
C2293 H2301 0.960 . S
C2294 C2292 1.381 . S
C2294 C2295 1.394 . S
C2294 H2302 0.930 . S
C2295 C2294 1.394 . S
C2295 C2296 1.383 . S
C2295 H2303 0.929 . S
C2296 C2295 1.383 . S
C2296 C2297 1.377 . S
C2297 H2281 0.930 . S
C2297 C2296 1.377 . S
C2297 C2298 1.379 . S
C2298 H2282 0.931 . S
C2298 C2292 1.383 . S
C2298 C2297 1.379 . S
H2299 C2293 0.959 . S
H2300 C2293 0.961 . S
H2301 C2293 0.960 . S
H2302 C2294 0.930 . S
H2303 C2295 0.929 . S
C369 C279 1.951 . S
C388 C19 1.957 . S
C405 C29 1.404 . S
C424 C289 1.394 . S
C441 C59 1.695 . S
C460 C249 1.734 . S
C477 C49 1.292 . S
C496 C149 1.281 . S
C513 C169 1.539 . S
C532 C9 1.545 . S
C549 C39 1.758 . S
C568 C129 1.799 . S
C585 C78 1.703 . S
C604 C208 1.732 . S
C621 C88 1.206 . S
C640 C228 1.200 . S
C657 C188 1.505 . S
C676 C118 1.478 . S
C693 C328 1.411 . S
C712 C108 1.399 . S
C729 C68 1.735 . S
C748 C358 1.701 . S
C765 C318 1.966 . S
C784 C98 1.934 . S
C801 C179 1.592 . S
C820 C269 1.632 . S
C837 C139 1.876 . S
C856 C299 1.845 . S
C873 C159 2.090 . S
C892 C259 2.082 . S
C909 C198 2.180 . S
C928 C338 2.157 . S
C945 C348 1.743 . S
C964 C218 1.706 . S
C981 C308 1.976 . S
C1000 C238 1.903 . S
C1017 C8 1.358 . S
C1036 C89 1.321 . S
C1053 C119 1.647 . S
C1072 C38 1.634 . S
C1089 C79 1.508 . S
C1108 C48 1.422 . S
C1125 C99 1.672 . S
C1144 C58 1.712 . S
C1161 C109 1.475 . S
C1180 C18 1.567 . S
C1197 C69 1.436 . S
C1216 C28 1.480 . S
C1233 C219 1.734 . S
C1252 C138 1.743 . S
C1269 C239 1.791 . S
C1288 C158 1.755 . S
C1305 C199 1.776 . S
C1324 C178 1.752 . S
C1341 C209 1.406 . S
C1360 C168 1.385 . S
C1377 C229 1.355 . S
C1396 C128 1.404 . S
C1413 C189 1.364 . S
C1432 C148 1.412 . S
C1449 C329 1.461 . S
C1468 C248 1.465 . S
C1485 C359 1.699 . S
C1504 C278 1.685 . S
C1521 C288 1.476 . S
C1540 C319 1.554 . S
C1557 C298 1.816 . S
C1576 C339 1.828 . S
C1593 C258 1.648 . S
C1612 C349 1.489 . S
C1629 C309 1.440 . S
C1648 C268 1.480 . S
C1665 C1 1.350 . S
C1684 C2 1.346 . S
C1701 C22 1.374 . S
C1720 C21 1.394 . S
C1737 C41 1.363 . S
C1756 C42 1.361 . S
C1773 C62 1.367 . S
C1792 C61 1.378 . S
C1809 C82 1.358 . S
C1828 C81 1.352 . S
C1845 C101 1.394 . S
C1864 C102 1.395 . S
C1881 C121 1.410 1_554 S
C1900 C122 1.425 . S
C1917 C142 1.350 . S
C1936 C141 1.355 . S
C1953 C161 1.427 1_554 S
C1972 C162 1.419 . S
C1989 C182 1.331 1_554 S
C2008 C181 1.319 . S
C2025 C202 1.401 . S
C2044 C201 1.398 . S
C2061 C222 1.354 1_554 S
C2080 C221 1.348 . S
C2097 C242 1.336 . S
C2116 C241 1.317 . S
C2133 C262 1.372 . S
C2152 C261 1.393 . S
C2169 C281 1.364 1_556 S
C2188 C282 1.370 . S
C2205 C301 1.376 . S
C2224 C302 1.391 . S
C2241 C322 1.339 1_556 S
C2260 C321 1.325 . S
C2277 C342 1.379 . S
C2296 C341 1.400 1_556 S
