# Generated by pormake.
# Topology tfs, (6)-cn, num edge types: 1
# Building blocks:
#     Node 0, Type 0, BuildingBlock: BETDIP_clean_sbu_0, # of connection points: 6
#     Node 1, Type 0, BuildingBlock: BETDIP_clean_sbu_0, # of connection points: 6
#     Node 2, Type 0, BuildingBlock: BETDIP_clean_sbu_0, # of connection points: 6
#     Node 3, Type 0, BuildingBlock: BETDIP_clean_sbu_0, # of connection points: 6
#     Node 4, Type 0, BuildingBlock: BETDIP_clean_sbu_0, # of connection points: 6
#     Node 5, Type 0, BuildingBlock: BETDIP_clean_sbu_0, # of connection points: 6
#     Edge 6, Type (0, 0), BuildingBlock: OJICUG_clean_linker_0, # of connection points: 2
#     Edge 7, Type (0, 0), BuildingBlock: OJICUG_clean_linker_0, # of connection points: 2
#     Edge 8, Type (0, 0), BuildingBlock: OJICUG_clean_linker_0, # of connection points: 2
#     Edge 9, Type (0, 0), BuildingBlock: OJICUG_clean_linker_0, # of connection points: 2
#     Edge 10, Type (0, 0), BuildingBlock: OJICUG_clean_linker_0, # of connection points: 2
#     Edge 11, Type (0, 0), BuildingBlock: OJICUG_clean_linker_0, # of connection points: 2
#     Edge 12, Type (0, 0), BuildingBlock: OJICUG_clean_linker_0, # of connection points: 2
#     Edge 13, Type (0, 0), BuildingBlock: OJICUG_clean_linker_0, # of connection points: 2
#     Edge 14, Type (0, 0), BuildingBlock: OJICUG_clean_linker_0, # of connection points: 2
#     Edge 15, Type (0, 0), BuildingBlock: OJICUG_clean_linker_0, # of connection points: 2
#     Edge 16, Type (0, 0), BuildingBlock: OJICUG_clean_linker_0, # of connection points: 2
#     Edge 17, Type (0, 0), BuildingBlock: OJICUG_clean_linker_0, # of connection points: 2
#     Edge 18, Type (0, 0), BuildingBlock: OJICUG_clean_linker_0, # of connection points: 2
#     Edge 19, Type (0, 0), BuildingBlock: OJICUG_clean_linker_0, # of connection points: 2
#     Edge 20, Type (0, 0), BuildingBlock: OJICUG_clean_linker_0, # of connection points: 2
#     Edge 21, Type (0, 0), BuildingBlock: OJICUG_clean_linker_0, # of connection points: 2
#     Edge 22, Type (0, 0), BuildingBlock: OJICUG_clean_linker_0, # of connection points: 2
#     Edge 23, Type (0, 0), BuildingBlock: OJICUG_clean_linker_0, # of connection points: 2
# Relax obj value: 0.615
# Max RMSD: 0.306
# Mean RMSD: 0.306
data_MOF--net-tfs--node1-BETDIP_clean_sbu_0--edge1-OJICUG_clean_linker_0
_symmetry_space_group_name_H-M    P1
_symmetry_Int_Tables_number       1
_symmetry_cell_setting            triclinic
loop_
_symmetry_equiv_pos_as_xyz
'x, y, z'
_cell_length_a     44.079965
_cell_length_b     44.085194
_cell_length_c     10.225847
_cell_angle_alpha  89.963022
_cell_angle_beta   90.028041
_cell_angle_gamma 119.99093
loop_
_atom_site_label
_atom_site_type_symbol
_atom_site_fract_x
_atom_site_fract_y
_atom_site_fract_z
_atom_type_partial_charge
Tb0 Tb 0.17464 0.45646 0.04156 0.0
Tb1 Tb 0.19558 0.40197 1.00162 0.0
C2 C 0.1658 0.50511 0.12607 0.0
C3 C 0.17952 0.54299 0.10356 0.0
C4 C 0.20221 0.56771 0.19503 0.0
C5 C 0.2129 0.60323 0.1805 0.0
C6 C 0.20086 0.61478 0.07471 0.0
C7 C 0.17862 0.5901 0.9821 0.0
C8 C 0.16803 0.55464 0.99638 0.0
C9 C 0.17784 0.44116 0.79396 0.0
C10 C 0.25628 0.47919 0.03099 0.0
C11 C 0.20466 0.3526 0.92713 0.0
C12 C 0.23153 0.34213 0.9374 0.0
C13 C 0.26736 0.36701 0.94407 0.0
C14 C 0.29225 0.3562 0.95325 0.0
C15 C 0.28178 0.32031 0.95669 0.0
C16 C 0.24578 0.29558 0.95069 0.0
C17 C 0.22098 0.30642 0.94101 0.0
C18 C 0.19418 0.41963 0.24696 0.0
C19 C 0.11543 0.38059 1.01052 0.0
O20 O 0.18682 0.49589 0.18143 0.0
O21 O 0.14727 0.48375 0.03191 0.0
O22 O 0.19798 0.44308 0.88456 0.0
O23 O 0.15706 0.45152 0.83806 0.0
O24 O 0.232 0.48775 0.05683 0.0
O25 O 0.24812 0.44704 0.99634 0.0
O26 O 0.18874 0.35196 0.03585 0.0
O27 O 0.2124 0.38026 0.85596 0.0
O28 O 0.17265 0.41574 0.15864 0.0
O29 O 0.21639 0.41118 0.20133 0.0
O30 O 0.13925 0.37511 0.9534 0.0
O31 O 0.12506 0.40945 0.07824 0.0
H32 H 0.21113 0.5595 0.27953 0.0
H33 H 0.22973 0.6215 0.2544 0.0
H34 H 0.16924 0.59817 0.89859 0.0
H35 H 0.15034 0.53634 0.92434 0.0
H36 H 0.27611 0.39476 0.94184 0.0
H37 H 0.31973 0.37599 0.95615 0.0
H38 H 0.23668 0.26779 0.95536 0.0
H39 H 0.19342 0.28682 0.93678 0.0
Tb40 Tb 0.72317 0.17097 0.04368 0.0
Tb41 Tb 0.79878 0.19246 1.00229 0.0
C42 C 0.66547 0.16027 0.1337 0.0
C43 C 0.64074 0.17319 0.11831 0.0
C44 C 0.60678 0.15298 0.16794 0.0
C45 C 0.58202 0.16353 0.15024 0.0
C46 C 0.59075 0.1946 0.08234 0.0
C47 C 0.62509 0.21511 0.03393 0.0
C48 C 0.64989 0.20441 0.05136 0.0
C49 C 0.74153 0.17449 0.79558 0.0
C50 C 0.78145 0.25272 0.03381 0.0
C51 C 0.8575 0.20267 0.92571 0.0
C52 C 0.89478 0.22954 0.93914 0.0
C53 C 0.91798 0.23449 0.83692 0.0
C54 C 0.9537 0.25892 0.84875 0.0
C55 C 0.96701 0.2789 0.96356 0.0
C56 C 0.94349 0.27402 0.06558 0.0
C57 C 0.90772 0.24967 0.05333 0.0
C58 C 0.77981 0.19049 0.24828 0.0
C59 C 0.74049 0.11221 1.00875 0.0
O60 O 0.69578 0.18154 0.1877 0.0
O61 O 0.66841 0.14367 0.03301 0.0
O62 O 0.75974 0.19458 0.8863 0.0
O63 O 0.71043 0.15356 0.83993 0.0
O64 O 0.7486 0.2283 0.05874 0.0
O65 O 0.80563 0.24478 0.99964 0.0
O66 O 0.8417 0.18512 0.03145 0.0
O67 O 0.8379 0.21142 0.85752 0.0
O68 O 0.76221 0.16914 0.15949 0.0
O69 O 0.81044 0.21279 0.20271 0.0
O70 O 0.76969 0.13627 0.95182 0.0
O71 O 0.72117 0.12153 0.0775 0.0
H72 H 0.5993 0.12879 0.21981 0.0
H73 H 0.55603 0.14743 0.19059 0.0
H74 H 0.63256 0.23904 0.98039 0.0
H75 H 0.676 0.22022 1.01159 0.0
H76 H 0.90848 0.2193 0.7478 0.0
H77 H 0.97081 0.26236 0.76727 0.0
H78 H 0.95276 0.28859 0.15598 0.0
H79 H 0.89027 0.24632 0.13358 0.0
Tb80 Tb 0.55836 0.71986 0.03826 0.0
Tb81 Tb 0.61236 0.79552 0.99623 0.0
C82 C 0.51159 0.66197 0.12811 0.0
C83 C 0.47403 0.63679 0.11277 0.0
C84 C 0.45135 0.6458 0.04969 0.0
C85 C 0.41589 0.62068 0.03342 0.0
C86 C 0.4027 0.58617 0.07919 0.0
C87 C 0.42568 0.57754 0.1428 0.0
C88 C 0.46095 0.60261 0.15932 0.0
C89 C 0.57306 0.73822 0.78992 0.0
C90 C 0.53478 0.77808 0.02929 0.0
C91 C 0.66076 0.85431 0.91946 0.0
C92 C 0.67127 0.89162 0.93355 0.0
C93 C 0.68938 0.91491 0.83128 0.0
C94 C 0.70069 0.95063 0.84362 0.0
C95 C 0.6942 0.96387 0.95898 0.0
C96 C 0.67575 0.94027 0.06111 0.0
C97 C 0.66431 0.90451 0.04837 0.0
C98 C 0.59549 0.77659 0.24251 0.0
C99 C 0.6345 0.73743 1.00316 0.0
O100 O 0.52023 0.69224 0.18156 0.0
O101 O 0.53134 0.66509 0.02788 0.0
O102 O 0.57117 0.75641 0.88068 0.0
O103 O 0.56301 0.70716 0.83441 0.0
O104 O 0.52642 0.74524 0.05441 0.0
O105 O 0.56683 0.80224 0.99426 0.0
O106 O 0.66269 0.8384 0.0246 0.0
O107 O 0.63229 0.83479 0.85189 0.0
O108 O 0.59923 0.75899 0.15371 0.0
O109 O 0.60379 0.8072 0.19681 0.0
O110 O 0.63935 0.76635 0.94473 0.0
O111 O 0.60604 0.7183 0.07311 0.0
H112 H 0.46109 0.67206 1.01229 0.0
H113 H 0.39895 0.6281 0.98309 0.0
H114 H 0.41633 0.55144 0.18108 0.0
H115 H 0.47812 0.59523 0.20819 0.0
H116 H 0.69491 0.90546 0.74169 0.0
H117 H 0.71423 0.96779 0.76207 0.0
H118 H 0.6706 0.94948 0.15196 0.0
H119 H 0.65034 0.88701 0.12869 0.0
Tb120 Tb 0.84501 0.55566 0.0406 0.0
Tb121 Tb 0.82365 0.60995 0.99926 0.0
C122 C 0.85544 0.50843 0.13052 0.0
C123 C 0.84256 0.47074 0.11606 0.0
C124 C 0.81098 0.44834 0.05181 0.0
C125 C 0.80025 0.41276 0.03613 0.0
C126 C 0.82108 0.39918 0.08362 0.0
C127 C 0.85252 0.42186 0.14876 0.0
C128 C 0.8631 0.45723 0.16469 0.0
C129 C 0.84167 0.57076 0.79259 0.0
C130 C 0.7633 0.53246 0.02935 0.0
C131 C 0.81397 0.65899 0.92448 0.0
C132 C 0.78724 0.66966 0.93626 0.0
C133 C 0.79788 0.70541 0.93547 0.0
C134 C 0.77323 0.71645 0.94592 0.0
C135 C 0.73728 0.69191 0.95716 0.0
C136 C 0.72673 0.65597 0.95821 0.0
C137 C 0.75147 0.64496 0.94822 0.0
C138 C 0.82541 0.59261 0.24509 0.0
C139 C 0.90385 0.63173 1.0069 0.0
O140 O 0.83422 0.51755 0.18437 0.0
O141 O 0.87207 0.52794 0.02971 0.0
O142 O 0.82153 0.56883 0.88319 0.0
O143 O 0.86257 0.56054 0.83701 0.0
O144 O 0.78767 0.52399 0.05525 0.0
O145 O 0.77132 0.56457 0.99469 0.0
O146 O 0.83061 0.66008 0.03189 0.0
O147 O 0.80574 0.63101 0.85468 0.0
O148 O 0.84684 0.59649 0.15647 0.0
O149 O 0.80307 0.60089 0.19938 0.0
O150 O 0.87988 0.63685 0.94899 0.0
O151 O 0.89441 0.60308 0.07585 0.0
H152 H 0.79488 0.45841 1.0129 0.0
H153 H 0.77603 0.39606 0.98468 0.0
H154 H 0.8689 0.41221 0.18844 0.0
H155 H 0.88755 0.47416 0.21458 0.0
H156 H 0.82539 0.72489 0.92705 0.0
H157 H 0.78246 0.74429 0.94703 0.0
H158 H 0.69929 0.63627 0.96515 0.0
H159 H 0.74265 0.61719 0.94937 0.0
Tb160 Tb 0.29622 0.84245 0.04661 0.0
Tb161 Tb 0.22053 0.8207 1.005 0.0
C162 C 0.35397 0.85297 0.13601 0.0
C163 C 0.37861 0.83991 0.12057 0.0
C164 C 0.4127 0.86019 0.16905 0.0
C165 C 0.43734 0.84944 0.15179 0.0
C166 C 0.42838 0.81812 0.08545 0.0
C167 C 0.39391 0.79754 0.03822 0.0
C168 C 0.36923 0.80844 0.05523 0.0
C169 C 0.27781 0.83883 0.79844 0.0
C170 C 0.23799 0.76067 0.03678 0.0
C171 C 0.1618 0.81088 0.92983 0.0
C172 C 0.12441 0.78419 0.94183 0.0
C173 C 0.09934 0.7949 0.94185 0.0
C174 C 0.06365 0.77029 0.95223 0.0
C175 C 0.05219 0.73431 0.96252 0.0
C176 C 0.07753 0.72368 0.96285 0.0
C177 C 0.11329 0.74839 0.95296 0.0
C178 C 0.23959 0.82271 0.25102 0.0
C179 C 0.2787 0.90096 1.01136 0.0
O180 O 0.32368 0.83182 0.19037 0.0
O181 O 0.351 0.86962 0.03539 0.0
O182 O 0.25965 0.8187 0.88919 0.0
O183 O 0.30886 0.85991 0.84285 0.0
O184 O 0.27073 0.78519 0.06274 0.0
O185 O 0.21379 0.76846 1.00119 0.0
O186 O 0.17733 0.82767 0.03696 0.0
O187 O 0.18156 0.80255 0.86053 0.0
O188 O 0.25711 0.84415 0.16227 0.0
O189 O 0.20905 0.80025 0.20532 0.0
O190 O 0.24972 0.87684 0.95348 0.0
O191 O 0.29795 0.89173 0.08116 0.0
H192 H 0.42038 0.88455 0.21976 0.0
H193 H 0.46342 0.86562 0.19127 0.0
H194 H 0.38625 0.77342 0.98588 0.0
H195 H 0.34302 0.79255 1.01641 0.0
H196 H 0.10741 0.82243 0.93407 0.0
H197 H 0.04507 0.77956 0.95392 0.0
H198 H 0.06973 0.69622 0.96908 0.0
H199 H 0.13219 0.73951 0.95346 0.0
Tb200 Tb 0.46092 0.29274 0.03636 0.0
Tb201 Tb 0.4068 0.21717 0.99496 0.0
C202 C 0.5079 0.35045 0.12639 0.0
C203 C 0.54552 0.37537 0.1115 0.0
C204 C 0.56793 0.36631 0.0468 0.0
C205 C 0.60345 0.39125 0.03067 0.0
C206 C 0.61694 0.42563 0.07816 0.0
C207 C 0.59424 0.43429 0.14362 0.0
C208 C 0.55892 0.4094 0.16001 0.0
C209 C 0.44608 0.27439 0.7882 0.0
C210 C 0.48423 0.23432 0.02654 0.0
C211 C 0.35777 0.15854 0.92017 0.0
C212 C 0.34697 0.12117 0.93359 0.0
C213 C 0.31119 0.09617 0.93274 0.0
C214 C 0.30003 0.06051 0.94521 0.0
C215 C 0.3245 0.04905 0.95853 0.0
C216 C 0.36046 0.07433 0.95955 0.0
C217 C 0.37158 0.11005 0.94759 0.0
C218 C 0.4239 0.23617 0.24093 0.0
C219 C 0.3849 0.27541 1.00145 0.0
O220 O 0.49899 0.32013 0.18007 0.0
O221 O 0.48831 0.34751 0.02575 0.0
O222 O 0.44796 0.25617 0.87895 0.0
O223 O 0.45621 0.30548 0.83257 0.0
O224 O 0.49265 0.26715 0.05202 0.0
O225 O 0.45217 0.21021 0.99153 0.0
O226 O 0.35647 0.17427 0.02666 0.0
O227 O 0.38596 0.17808 0.85105 0.0
O228 O 0.42006 0.25373 0.15216 0.0
O229 O 0.41569 0.20559 0.1953 0.0
O230 O 0.37998 0.24644 0.94334 0.0
O231 O 0.41341 0.29455 0.07113 0.0
H232 H 0.55792 0.34016 1.00794 0.0
H233 H 0.62019 0.38382 0.97897 0.0
H234 H 0.60384 0.46029 0.18326 0.0
H235 H 0.54195 0.41682 0.21018 0.0
H236 H 0.29178 0.10426 0.92281 0.0
H237 H 0.27218 0.04197 0.94626 0.0
H238 H 0.38009 0.06652 0.96804 0.0
H239 H 0.39937 0.12893 0.94889 0.0
C240 C 0.36255 0.31601 0.05895 0.0
C241 C 0.35829 0.28651 0.99012 0.0
H242 H 0.34173 0.3494 0.10422 0.0
C243 C 0.32866 0.26815 0.91005 0.0
H244 H 0.38498 0.33073 0.122 0.0
C245 C 0.30393 0.27913 0.89884 0.0
C246 C 0.30819 0.30867 0.9677 0.0
H247 H 0.32463 0.24542 0.85519 0.0
H248 H 0.28169 0.26469 0.8347 0.0
C249 C 0.33782 0.32691 0.04805 0.0
C250 C 0.06636 0.32201 0.93682 0.0
C251 C 0.07761 0.35427 0.9995 0.0
H252 H 0.02289 0.27274 0.8785 0.0
C253 C 0.05226 0.36144 0.05087 0.0
H254 H 0.08517 0.31557 0.89659 0.0
C255 C 0.01655 0.33707 0.0393 0.0
C256 C 1.00518 0.30477 0.97652 0.0
H257 H 0.05992 0.38609 0.09921 0.0
H258 H 0.99783 0.34386 0.07784 0.0
C259 C 0.03059 0.29753 0.92573 0.0
C260 C 0.7501 0.06333 0.93251 0.0
C261 C 0.72913 0.07443 0.99661 0.0
H262 H 0.75596 0.02001 0.87244 0.0
C263 C 0.69676 0.04893 0.0486 0.0
H264 H 0.77523 0.08225 0.89171 0.0
C265 C 0.68553 0.01326 0.03641 0.0
C266 C 0.70641 1.00203 0.97236 0.0
H267 H 0.67979 0.05644 0.09802 0.0
H268 H 0.66013 0.99446 0.07554 0.0
C269 C 0.73891 0.02758 0.92077 0.0
C270 C 0.68192 0.68624 0.05214 0.0
C271 C 0.71101 0.70377 0.96875 0.0
H272 H 0.63529 0.68308 0.12869 0.0
C273 C 0.71485 0.73284 0.89731 0.0
H274 H 0.67834 0.66417 0.11043 0.0
C275 C 0.69024 0.74398 0.90888 0.0
C276 C 0.66112 0.72628 0.99182 0.0
H277 H 0.73663 0.74674 0.83078 0.0
H278 H 0.69391 0.76629 0.85187 0.0
C279 C 0.6573 0.69729 0.06331 0.0
C280 C 0.9889 0.71213 0.90263 0.0
C281 C 0.01405 0.70808 0.97375 0.0
H282 H 0.93457 0.6914 0.85708 0.0
C283 C 1.00241 0.67883 0.05639 0.0
H284 H 0.99686 0.73404 0.83665 0.0
C285 C 0.96672 0.65425 0.06716 0.0
C286 C 0.94163 0.65828 0.99601 0.0
H287 H 0.02084 0.67509 0.11438 0.0
H288 H 0.95885 0.63211 0.13196 0.0
C289 C 0.95314 0.68757 0.91382 0.0
C290 C 0.31875 0.96395 0.07023 0.0
C291 C 0.28987 0.93867 0.99873 0.0
H292 H 0.35186 0.01818 0.11564 0.0
C293 C 0.27232 0.94992 0.91415 0.0
H294 H 0.33281 0.95625 0.13685 0.0
C295 C 0.28355 0.98563 0.90084 0.0
C296 C 0.31252 0.01097 0.9722 0.0
H297 H 0.2501 0.93119 0.85706 0.0
H298 H 0.2698 0.99339 0.83298 0.0
C299 C 0.32987 0.99958 0.05737 0.0
C300 C 0.19429 0.6965 1.01759 0.0
C301 C 0.22858 0.72337 0.04486 0.0
H302 H 0.15862 0.6413 1.00688 0.0
C303 C 0.25381 0.71424 0.0808 0.0
H304 H 0.17415 0.70252 0.99006 0.0
C305 C 0.2449 0.67909 0.08989 0.0
C306 C 0.21059 0.65222 0.06299 0.0
H307 H 0.28052 0.73422 0.10218 0.0
H308 H 0.265 0.67296 0.11688 0.0
C309 C 0.18541 0.66135 0.02647 0.0
C310 C 0.50359 0.18966 1.01621 0.0
C311 C 0.51183 0.22452 0.03591 0.0
H312 H 0.52204 0.15305 1.01354 0.0
C313 C 0.5466 0.24975 0.06683 0.0
H314 H 0.47716 0.16954 0.99172 0.0
C315 C 0.57236 0.24023 0.07962 0.0
C316 C 0.56392 0.20523 0.06244 0.0
H317 H 0.55394 0.27687 0.08251 0.0
H318 H 0.5987 0.26013 0.10609 0.0
C319 C 0.5293 0.18015 0.02943 0.0
C320 C 0.35562 0.5246 0.02698 0.0
C321 C 0.36516 0.55913 0.0617 0.0
H322 H 0.31405 0.47244 0.98962 0.0
C323 C 0.33856 0.5673 0.08294 0.0
H324 H 0.37546 0.51752 1.00805 0.0
C325 C 0.30327 0.54144 0.07205 0.0
C326 C 0.29373 0.50679 0.03911 0.0
H327 H 0.34497 0.59353 0.11104 0.0
H328 H 0.2835 0.54863 0.09073 0.0
C329 C 0.32036 0.49876 1.01575 0.0
C330 C 0.77552 0.33505 0.08493 0.0
C331 C 0.81043 0.36162 0.06559 0.0
H332 H 0.73899 0.27996 0.09092 0.0
C333 C 0.83545 0.35202 0.03215 0.0
H334 H 0.75566 0.34152 0.11182 0.0
C335 C 0.82598 0.31677 0.02057 0.0
C336 C 0.79121 0.29016 0.04224 0.0
H337 H 0.86246 0.37182 1.01454 0.0
H338 H 0.84606 0.31046 0.99555 0.0
C339 C 0.76603 0.29973 0.07369 0.0
C340 C 0.44671 0.77236 0.08375 0.0
C341 C 0.45515 0.80734 0.06568 0.0
H342 H 0.4651 0.73567 0.08725 0.0
C343 C 0.48973 0.83232 0.03174 0.0
H344 H 0.4204 0.75253 0.11092 0.0
C345 C 0.51539 0.82274 1.01851 0.0
C346 C 0.50717 0.78791 0.03902 0.0
H347 H 0.49701 0.85939 1.01507 0.0
H348 H 0.54178 0.8428 0.99324 0.0
C349 C 0.47244 0.76276 0.07089 0.0
C350 C 0.71633 0.47007 0.06882 0.0
C351 C 0.72588 0.50481 0.03729 0.0
H352 H 0.67458 0.41792 0.10686 0.0
C353 C 0.69928 0.51295 1.01522 0.0
H354 H 0.7361 0.4628 0.08635 0.0
C355 C 0.66403 0.48716 0.02658 0.0
C356 C 0.65447 0.45256 0.06015 0.0
H357 H 0.70559 0.53935 0.99013 0.0
H358 H 0.64421 0.49434 1.00879 0.0
C359 C 0.68103 0.44423 0.07983 0.0
C360 C 0.15852 0.43519 0.56104 0.0
C361 C 0.18226 0.4358 0.65417 0.0
H362 H 0.1438 0.42978 0.35882 0.0
C363 C 0.21037 0.43177 0.61209 0.0
H364 H 0.13668 0.43835 0.59075 0.0
C365 C 0.21443 0.42683 0.47938 0.0
C366 C 0.1905 0.42593 0.38643 0.0
H367 H 0.22934 0.43262 0.6815 0.0
H368 H 0.23625 0.42363 0.44962 0.0
C369 C 0.16261 0.43033 0.42838 0.0
C370 C 0.72847 0.15483 0.56267 0.0
C371 C 0.7514 0.1788 0.65567 0.0
H372 H 0.71941 0.13982 0.36064 0.0
C373 C 0.78345 0.207 0.61332 0.0
H374 H 0.70353 0.1329 0.59251 0.0
C375 C 0.79255 0.21094 0.48066 0.0
C376 C 0.76972 0.1868 0.38783 0.0
H377 H 0.80141 0.22616 0.68249 0.0
H378 H 0.81749 0.23285 0.45081 0.0
C379 C 0.73752 0.1588 0.43002 0.0
C380 C 0.57974 0.72521 0.55702 0.0
C381 C 0.57865 0.74811 0.64997 0.0
H382 H 0.58578 0.71618 0.35503 0.0
C383 C 0.58249 0.78016 0.60755 0.0
H384 H 0.57675 0.70027 0.5869 0.0
C385 C 0.58771 0.78929 0.47487 0.0
C386 C 0.58906 0.76648 0.38209 0.0
H387 H 0.58125 0.7981 0.67667 0.0
H388 H 0.59073 0.81423 0.44497 0.0
C389 C 0.58487 0.73429 0.42436 0.0
C390 C 0.80913 0.58013 0.61034 0.0
C391 C 0.83732 0.57624 0.65265 0.0
H392 H 0.7832 0.58822 0.44775 0.0
C393 C 0.8612 0.57712 0.5596 0.0
H394 H 0.79006 0.57909 0.67961 0.0
C395 C 0.85715 0.58209 0.42688 0.0
C396 C 0.82914 0.5863 0.3847 0.0
H397 H 0.88312 0.57409 0.58943 0.0
H398 H 0.87606 0.58284 0.35745 0.0
C399 C 0.8051 0.58516 0.4776 0.0
C400 C 0.28182 0.8545 0.43281 0.0
C401 C 0.24966 0.82643 0.39062 0.0
H402 H 0.31576 0.88047 0.59533 0.0
C403 C 0.22686 0.80228 0.48347 0.0
H404 H 0.29991 0.8735 0.36342 0.0
C405 C 0.23593 0.80625 0.61618 0.0
C406 C 0.26795 0.8345 0.65852 0.0
H407 H 0.20194 0.78032 0.45362 0.0
H408 H 0.21798 0.78709 0.68542 0.0
C409 C 0.29085 0.85849 0.5655 0.0
C410 C 0.4366 0.23245 0.60612 0.0
C411 C 0.44054 0.26454 0.64831 0.0
H412 H 0.42839 0.19839 0.4437 0.0
C413 C 0.4396 0.28751 0.55519 0.0
H414 H 0.43769 0.21444 0.67544 0.0
C415 C 0.43453 0.27846 0.42254 0.0
C416 C 0.43028 0.24624 0.38049 0.0
H417 H 0.44266 0.31247 0.58491 0.0
H418 H 0.43374 0.29661 0.35305 0.0
C419 C 0.43148 0.22336 0.47345 0.0
loop_
_geom_bond_atom_site_label_1
_geom_bond_atom_site_label_2
_geom_bond_distance
_geom_bond_site_symmetry_2
_ccdc_geom_bond_type
Tb0 C2 2.809 1_556 S
Tb0 O20 2.484 1_556 S
Tb0 O21 2.440 . S
Tb0 O22 2.658 . S
Tb0 O23 2.409 . S
Tb0 O24 2.378 . S
Tb0 O28 2.325 1_556 S
Tb0 O31 2.341 . S
Tb1 C11 2.809 1_554 S
Tb1 O22 2.325 1_554 S
Tb1 O25 2.341 . S
Tb1 O26 2.484 1_554 S
Tb1 O27 2.440 . S
Tb1 O28 2.658 . S
Tb1 O29 2.409 . S
Tb1 O30 2.378 . S
C2 Tb0 2.809 1_554 S
C2 C3 1.514 . S
C2 O20 1.248 . S
C2 O21 1.266 1_554 S
C3 C2 1.514 . S
C3 C4 1.359 . S
C3 C8 1.348 1_554 S
C4 C3 1.359 . S
C4 C5 1.380 . S
C4 H32 0.929 . S
C5 C4 1.380 . S
C5 C6 1.347 . S
C5 H33 0.931 . S
C6 C5 1.347 . S
C6 C7 1.369 1_554 S
C7 C6 1.369 1_556 S
C7 C8 1.408 . S
C7 H34 0.930 . S
C8 C3 1.348 1_556 S
C8 C7 1.408 . S
C8 H35 0.930 . S
C9 O22 1.281 . S
C9 O23 1.254 . S
C10 O24 1.236 . S
C10 O25 1.266 1_556 S
C11 Tb1 2.809 1_556 S
C11 C12 1.514 . S
C11 O26 1.248 . S
C11 O27 1.266 1_556 S
C12 C11 1.514 . S
C12 C13 1.359 . S
C12 C17 1.348 1_556 S
C13 C12 1.359 . S
C13 C14 1.380 . S
C13 H36 0.929 . S
C14 C13 1.380 . S
C14 C15 1.347 . S
C14 H37 0.931 . S
C15 C14 1.347 . S
C15 C16 1.369 1_556 S
C16 C15 1.369 1_554 S
C16 C17 1.408 . S
C16 H38 0.930 . S
C17 C12 1.348 1_554 S
C17 C16 1.408 . S
C17 H39 0.930 . S
C18 O28 1.281 . S
C18 O29 1.254 . S
C19 O30 1.236 . S
C19 O31 1.266 1_554 S
O20 Tb0 2.484 1_554 S
O20 C2 1.248 . S
O21 Tb0 2.440 . S
O21 C2 1.266 1_556 S
O22 Tb0 2.658 . S
O22 Tb1 2.325 1_556 S
O22 C9 1.281 . S
O23 Tb0 2.409 . S
O23 C9 1.254 . S
O24 Tb0 2.378 . S
O24 C10 1.236 . S
O25 Tb1 2.341 . S
O25 C10 1.266 1_554 S
O26 Tb1 2.484 1_556 S
O26 C11 1.248 . S
O27 Tb1 2.440 . S
O27 C11 1.266 1_554 S
O28 Tb0 2.325 1_554 S
O28 Tb1 2.658 . S
O28 C18 1.281 . S
O29 Tb1 2.409 . S
O29 C18 1.254 . S
O30 Tb1 2.378 . S
O30 C19 1.236 . S
O31 Tb0 2.341 . S
O31 C19 1.266 1_556 S
H32 C4 0.929 . S
H33 C5 0.931 . S
H34 C7 0.930 . S
H35 C8 0.930 . S
H36 C13 0.929 . S
H37 C14 0.931 . S
H38 C16 0.930 . S
H39 C17 0.930 . S
Tb40 C42 2.809 1_556 S
Tb40 O60 2.484 1_556 S
Tb40 O61 2.440 . S
Tb40 O62 2.658 . S
Tb40 O63 2.409 . S
Tb40 O64 2.378 . S
Tb40 O68 2.325 1_556 S
Tb40 O71 2.341 . S
Tb41 C51 2.809 1_554 S
Tb41 O62 2.325 1_554 S
Tb41 O65 2.341 . S
Tb41 O66 2.484 1_554 S
Tb41 O67 2.440 . S
Tb41 O68 2.658 . S
Tb41 O69 2.409 . S
Tb41 O70 2.378 . S
C42 Tb40 2.809 1_554 S
C42 C43 1.514 . S
C42 O60 1.248 . S
C42 O61 1.266 1_554 S
C43 C42 1.514 . S
C43 C44 1.359 . S
C43 C48 1.348 1_554 S
C44 C43 1.359 . S
C44 C45 1.380 . S
C44 H72 0.929 . S
C45 C44 1.380 . S
C45 C46 1.347 . S
C45 H73 0.931 . S
C46 C45 1.347 . S
C46 C47 1.369 1_554 S
C47 C46 1.369 1_556 S
C47 C48 1.408 . S
C47 H74 0.930 . S
C48 C43 1.348 1_556 S
C48 C47 1.408 . S
C48 H75 0.930 . S
C49 O62 1.281 . S
C49 O63 1.254 . S
C50 O64 1.236 . S
C50 O65 1.266 1_556 S
C51 Tb41 2.809 1_556 S
C51 C52 1.514 . S
C51 O66 1.248 . S
C51 O67 1.266 1_556 S
C52 C51 1.514 . S
C52 C53 1.359 . S
C52 C57 1.348 1_556 S
C53 C52 1.359 . S
C53 C54 1.380 . S
C53 H76 0.929 . S
C54 C53 1.380 . S
C54 C55 1.347 . S
C54 H77 0.931 . S
C55 C54 1.347 . S
C55 C56 1.369 1_556 S
C56 C55 1.369 1_554 S
C56 C57 1.408 . S
C56 H78 0.930 . S
C57 C52 1.348 1_554 S
C57 C56 1.408 . S
C57 H79 0.930 . S
C58 O68 1.281 . S
C58 O69 1.254 . S
C59 O70 1.236 . S
C59 O71 1.266 1_554 S
O60 Tb40 2.484 1_554 S
O60 C42 1.248 . S
O61 Tb40 2.440 . S
O61 C42 1.266 1_556 S
O62 Tb40 2.658 . S
O62 Tb41 2.325 1_556 S
O62 C49 1.281 . S
O63 Tb40 2.409 . S
O63 C49 1.254 . S
O64 Tb40 2.378 . S
O64 C50 1.236 . S
O65 Tb41 2.341 . S
O65 C50 1.266 1_554 S
O66 Tb41 2.484 1_556 S
O66 C51 1.248 . S
O67 Tb41 2.440 . S
O67 C51 1.266 1_554 S
O68 Tb40 2.325 1_554 S
O68 Tb41 2.658 . S
O68 C58 1.281 . S
O69 Tb41 2.409 . S
O69 C58 1.254 . S
O70 Tb41 2.378 . S
O70 C59 1.236 . S
O71 Tb40 2.341 . S
O71 C59 1.266 1_556 S
H72 C44 0.929 . S
H73 C45 0.931 . S
H74 C47 0.930 . S
H75 C48 0.930 . S
H76 C53 0.929 . S
H77 C54 0.931 . S
H78 C56 0.930 . S
H79 C57 0.930 . S
Tb80 C82 2.809 1_556 S
Tb80 O100 2.484 1_556 S
Tb80 O101 2.440 . S
Tb80 O102 2.658 . S
Tb80 O103 2.409 . S
Tb80 O104 2.378 . S
Tb80 O108 2.325 1_556 S
Tb80 O111 2.341 . S
Tb81 C91 2.809 1_554 S
Tb81 O102 2.325 1_554 S
Tb81 O105 2.341 . S
Tb81 O106 2.484 1_554 S
Tb81 O107 2.440 . S
Tb81 O108 2.658 . S
Tb81 O109 2.409 . S
Tb81 O110 2.378 . S
C82 Tb80 2.809 1_554 S
C82 C83 1.514 . S
C82 O100 1.248 . S
C82 O101 1.266 1_554 S
C83 C82 1.514 . S
C83 C84 1.359 . S
C83 C88 1.348 1_554 S
C84 C83 1.359 . S
C84 C85 1.380 . S
C84 H112 0.929 . S
C85 C84 1.380 . S
C85 C86 1.347 . S
C85 H113 0.931 . S
C86 C85 1.347 . S
C86 C87 1.369 1_554 S
C87 C86 1.369 1_556 S
C87 C88 1.408 . S
C87 H114 0.930 . S
C88 C83 1.348 1_556 S
C88 C87 1.408 . S
C88 H115 0.930 . S
C89 O102 1.281 . S
C89 O103 1.254 . S
C90 O104 1.236 . S
C90 O105 1.266 1_556 S
C91 Tb81 2.809 1_556 S
C91 C92 1.514 . S
C91 O106 1.248 . S
C91 O107 1.266 1_556 S
C92 C91 1.514 . S
C92 C93 1.359 . S
C92 C97 1.348 1_556 S
C93 C92 1.359 . S
C93 C94 1.380 . S
C93 H116 0.929 . S
C94 C93 1.380 . S
C94 C95 1.347 . S
C94 H117 0.931 . S
C95 C94 1.347 . S
C95 C96 1.369 1_556 S
C96 C95 1.369 1_554 S
C96 C97 1.408 . S
C96 H118 0.930 . S
C97 C92 1.348 1_554 S
C97 C96 1.408 . S
C97 H119 0.930 . S
C98 O108 1.281 . S
C98 O109 1.254 . S
C99 O110 1.236 . S
C99 O111 1.266 1_554 S
O100 Tb80 2.484 1_554 S
O100 C82 1.248 . S
O101 Tb80 2.440 . S
O101 C82 1.266 1_556 S
O102 Tb80 2.658 . S
O102 Tb81 2.325 1_556 S
O102 C89 1.281 . S
O103 Tb80 2.409 . S
O103 C89 1.254 . S
O104 Tb80 2.378 . S
O104 C90 1.236 . S
O105 Tb81 2.341 . S
O105 C90 1.266 1_554 S
O106 Tb81 2.484 1_556 S
O106 C91 1.248 . S
O107 Tb81 2.440 . S
O107 C91 1.266 1_554 S
O108 Tb80 2.325 1_554 S
O108 Tb81 2.658 . S
O108 C98 1.281 . S
O109 Tb81 2.409 . S
O109 C98 1.254 . S
O110 Tb81 2.378 . S
O110 C99 1.236 . S
O111 Tb80 2.341 . S
O111 C99 1.266 1_556 S
H112 C84 0.929 . S
H113 C85 0.931 . S
H114 C87 0.930 . S
H115 C88 0.930 . S
H116 C93 0.929 . S
H117 C94 0.931 . S
H118 C96 0.930 . S
H119 C97 0.930 . S
Tb120 C122 2.809 1_556 S
Tb120 O140 2.484 1_556 S
Tb120 O141 2.440 . S
Tb120 O142 2.658 . S
Tb120 O143 2.409 . S
Tb120 O144 2.378 . S
Tb120 O148 2.325 1_556 S
Tb120 O151 2.341 . S
Tb121 C131 2.809 1_554 S
Tb121 O142 2.325 1_554 S
Tb121 O145 2.341 . S
Tb121 O146 2.484 1_554 S
Tb121 O147 2.440 . S
Tb121 O148 2.658 . S
Tb121 O149 2.409 . S
Tb121 O150 2.378 . S
C122 Tb120 2.809 1_554 S
C122 C123 1.514 . S
C122 O140 1.248 . S
C122 O141 1.266 1_554 S
C123 C122 1.514 . S
C123 C124 1.359 . S
C123 C128 1.348 1_554 S
C124 C123 1.359 . S
C124 C125 1.380 . S
C124 H152 0.929 . S
C125 C124 1.380 . S
C125 C126 1.347 . S
C125 H153 0.931 . S
C126 C125 1.347 . S
C126 C127 1.369 1_554 S
C127 C126 1.369 1_556 S
C127 C128 1.408 . S
C127 H154 0.930 . S
C128 C123 1.348 1_556 S
C128 C127 1.408 . S
C128 H155 0.930 . S
C129 O142 1.281 . S
C129 O143 1.254 . S
C130 O144 1.236 . S
C130 O145 1.266 1_556 S
C131 Tb121 2.809 1_556 S
C131 C132 1.514 . S
C131 O146 1.248 . S
C131 O147 1.266 1_556 S
C132 C131 1.514 . S
C132 C133 1.359 . S
C132 C137 1.348 1_556 S
C133 C132 1.359 . S
C133 C134 1.380 . S
C133 H156 0.929 . S
C134 C133 1.380 . S
C134 C135 1.347 . S
C134 H157 0.931 . S
C135 C134 1.347 . S
C135 C136 1.369 1_556 S
C136 C135 1.369 1_554 S
C136 C137 1.408 . S
C136 H158 0.930 . S
C137 C132 1.348 1_554 S
C137 C136 1.408 . S
C137 H159 0.930 . S
C138 O148 1.281 . S
C138 O149 1.254 . S
C139 O150 1.236 . S
C139 O151 1.266 1_554 S
O140 Tb120 2.484 1_554 S
O140 C122 1.248 . S
O141 Tb120 2.440 . S
O141 C122 1.266 1_556 S
O142 Tb120 2.658 . S
O142 Tb121 2.325 1_556 S
O142 C129 1.281 . S
O143 Tb120 2.409 . S
O143 C129 1.254 . S
O144 Tb120 2.378 . S
O144 C130 1.236 . S
O145 Tb121 2.341 . S
O145 C130 1.266 1_554 S
O146 Tb121 2.484 1_556 S
O146 C131 1.248 . S
O147 Tb121 2.440 . S
O147 C131 1.266 1_554 S
O148 Tb120 2.325 1_554 S
O148 Tb121 2.658 . S
O148 C138 1.281 . S
O149 Tb121 2.409 . S
O149 C138 1.254 . S
O150 Tb121 2.378 . S
O150 C139 1.236 . S
O151 Tb120 2.341 . S
O151 C139 1.266 1_556 S
H152 C124 0.929 . S
H153 C125 0.931 . S
H154 C127 0.930 . S
H155 C128 0.930 . S
H156 C133 0.929 . S
H157 C134 0.931 . S
H158 C136 0.930 . S
H159 C137 0.930 . S
Tb160 C162 2.809 1_556 S
Tb160 O180 2.484 1_556 S
Tb160 O181 2.440 . S
Tb160 O182 2.658 . S
Tb160 O183 2.409 . S
Tb160 O184 2.378 . S
Tb160 O188 2.325 1_556 S
Tb160 O191 2.341 . S
Tb161 C171 2.809 1_554 S
Tb161 O182 2.325 1_554 S
Tb161 O185 2.341 . S
Tb161 O186 2.484 1_554 S
Tb161 O187 2.440 . S
Tb161 O188 2.658 . S
Tb161 O189 2.409 . S
Tb161 O190 2.378 . S
C162 Tb160 2.809 1_554 S
C162 C163 1.514 . S
C162 O180 1.248 . S
C162 O181 1.266 1_554 S
C163 C162 1.514 . S
C163 C164 1.359 . S
C163 C168 1.348 1_554 S
C164 C163 1.359 . S
C164 C165 1.380 . S
C164 H192 0.929 . S
C165 C164 1.380 . S
C165 C166 1.347 . S
C165 H193 0.931 . S
C166 C165 1.347 . S
C166 C167 1.369 1_554 S
C167 C166 1.369 1_556 S
C167 C168 1.408 . S
C167 H194 0.930 . S
C168 C163 1.348 1_556 S
C168 C167 1.408 . S
C168 H195 0.930 . S
C169 O182 1.281 . S
C169 O183 1.254 . S
C170 O184 1.236 . S
C170 O185 1.266 1_556 S
C171 Tb161 2.809 1_556 S
C171 C172 1.514 . S
C171 O186 1.248 . S
C171 O187 1.266 1_556 S
C172 C171 1.514 . S
C172 C173 1.359 . S
C172 C177 1.348 1_556 S
C173 C172 1.359 . S
C173 C174 1.380 . S
C173 H196 0.929 . S
C174 C173 1.380 . S
C174 C175 1.347 . S
C174 H197 0.931 . S
C175 C174 1.347 . S
C175 C176 1.369 1_556 S
C176 C175 1.369 1_554 S
C176 C177 1.408 . S
C176 H198 0.930 . S
C177 C172 1.348 1_554 S
C177 C176 1.408 . S
C177 H199 0.930 . S
C178 O188 1.281 . S
C178 O189 1.254 . S
C179 O190 1.236 . S
C179 O191 1.266 1_554 S
O180 Tb160 2.484 1_554 S
O180 C162 1.248 . S
O181 Tb160 2.440 . S
O181 C162 1.266 1_556 S
O182 Tb160 2.658 . S
O182 Tb161 2.325 1_556 S
O182 C169 1.281 . S
O183 Tb160 2.409 . S
O183 C169 1.254 . S
O184 Tb160 2.378 . S
O184 C170 1.236 . S
O185 Tb161 2.341 . S
O185 C170 1.266 1_554 S
O186 Tb161 2.484 1_556 S
O186 C171 1.248 . S
O187 Tb161 2.440 . S
O187 C171 1.266 1_554 S
O188 Tb160 2.325 1_554 S
O188 Tb161 2.658 . S
O188 C178 1.281 . S
O189 Tb161 2.409 . S
O189 C178 1.254 . S
O190 Tb161 2.378 . S
O190 C179 1.236 . S
O191 Tb160 2.341 . S
O191 C179 1.266 1_556 S
H192 C164 0.929 . S
H193 C165 0.931 . S
H194 C167 0.930 . S
H195 C168 0.930 . S
H196 C173 0.929 . S
H197 C174 0.931 . S
H198 C176 0.930 . S
H199 C177 0.930 . S
Tb200 C202 2.809 1_556 S
Tb200 O220 2.484 1_556 S
Tb200 O221 2.440 . S
Tb200 O222 2.658 . S
Tb200 O223 2.409 . S
Tb200 O224 2.378 . S
Tb200 O228 2.325 1_556 S
Tb200 O231 2.341 . S
Tb201 C211 2.809 1_554 S
Tb201 O222 2.325 1_554 S
Tb201 O225 2.341 . S
Tb201 O226 2.484 1_554 S
Tb201 O227 2.440 . S
Tb201 O228 2.658 . S
Tb201 O229 2.409 . S
Tb201 O230 2.378 . S
C202 Tb200 2.809 1_554 S
C202 C203 1.514 . S
C202 O220 1.248 . S
C202 O221 1.266 1_554 S
C203 C202 1.514 . S
C203 C204 1.359 . S
C203 C208 1.348 1_554 S
C204 C203 1.359 . S
C204 C205 1.380 . S
C204 H232 0.929 . S
C205 C204 1.380 . S
C205 C206 1.347 . S
C205 H233 0.931 . S
C206 C205 1.347 . S
C206 C207 1.369 1_554 S
C207 C206 1.369 1_556 S
C207 C208 1.408 . S
C207 H234 0.930 . S
C208 C203 1.348 1_556 S
C208 C207 1.408 . S
C208 H235 0.930 . S
C209 O222 1.281 . S
C209 O223 1.254 . S
C210 O224 1.236 . S
C210 O225 1.266 1_556 S
C211 Tb201 2.809 1_556 S
C211 C212 1.514 . S
C211 O226 1.248 . S
C211 O227 1.266 1_556 S
C212 C211 1.514 . S
C212 C213 1.359 . S
C212 C217 1.348 1_556 S
C213 C212 1.359 . S
C213 C214 1.380 . S
C213 H236 0.929 . S
C214 C213 1.380 . S
C214 C215 1.347 . S
C214 H237 0.931 . S
C215 C214 1.347 . S
C215 C216 1.369 1_556 S
C216 C215 1.369 1_554 S
C216 C217 1.408 . S
C216 H238 0.930 . S
C217 C212 1.348 1_554 S
C217 C216 1.408 . S
C217 H239 0.930 . S
C218 O228 1.281 . S
C218 O229 1.254 . S
C219 O230 1.236 . S
C219 O231 1.266 1_554 S
O220 Tb200 2.484 1_554 S
O220 C202 1.248 . S
O221 Tb200 2.440 . S
O221 C202 1.266 1_556 S
O222 Tb200 2.658 . S
O222 Tb201 2.325 1_556 S
O222 C209 1.281 . S
O223 Tb200 2.409 . S
O223 C209 1.254 . S
O224 Tb200 2.378 . S
O224 C210 1.236 . S
O225 Tb201 2.341 . S
O225 C210 1.266 1_554 S
O226 Tb201 2.484 1_556 S
O226 C211 1.248 . S
O227 Tb201 2.440 . S
O227 C211 1.266 1_554 S
O228 Tb200 2.325 1_554 S
O228 Tb201 2.658 . S
O228 C218 1.281 . S
O229 Tb201 2.409 . S
O229 C218 1.254 . S
O230 Tb201 2.378 . S
O230 C219 1.236 . S
O231 Tb200 2.341 . S
O231 C219 1.266 1_556 S
H232 C204 0.929 . S
H233 C205 0.931 . S
H234 C207 0.930 . S
H235 C208 0.930 . S
H236 C213 0.929 . S
H237 C214 0.931 . S
H238 C216 0.930 . S
H239 C217 0.930 . S
C240 C241 1.387 . S
C240 H244 0.950 . S
C240 C249 1.390 . S
C241 C240 1.387 . S
C241 C243 1.387 1_556 S
H242 C249 0.950 . S
C243 C241 1.387 1_554 S
C243 C245 1.390 . S
C243 H247 0.950 . S
H244 C240 0.950 . S
C245 C243 1.390 . S
C245 C246 1.387 1_554 S
C245 H248 0.950 . S
C246 C245 1.387 1_556 S
C246 C249 1.387 . S
H247 C243 0.950 . S
H248 C245 0.950 . S
C249 C240 1.390 . S
C249 H242 0.950 . S
C249 C246 1.387 . S
C250 C251 1.387 . S
C250 H254 0.950 . S
C250 C259 1.390 . S
C251 C250 1.387 . S
C251 C253 1.387 1_556 S
H252 C259 0.950 . S
C253 C251 1.387 1_554 S
C253 C255 1.390 . S
C253 H257 0.950 . S
H254 C250 0.950 . S
C255 C253 1.390 . S
C255 C256 1.387 1_554 S
C255 H258 0.950 . S
C256 C255 1.387 1_556 S
C256 C259 1.387 . S
H257 C253 0.950 . S
H258 C255 0.950 . S
C259 C250 1.390 . S
C259 H252 0.950 . S
C259 C256 1.387 . S
C260 C261 1.387 . S
C260 H264 0.950 . S
C260 C269 1.390 . S
C261 C260 1.387 . S
C261 C263 1.387 1_556 S
H262 C269 0.950 . S
C263 C261 1.387 1_554 S
C263 C265 1.390 . S
C263 H267 0.950 . S
H264 C260 0.950 . S
C265 C263 1.390 . S
C265 C266 1.387 1_554 S
C265 H268 0.950 . S
C266 C265 1.387 1_556 S
C266 C269 1.387 . S
H267 C263 0.950 . S
H268 C265 0.950 . S
C269 C260 1.390 . S
C269 H262 0.950 . S
C269 C266 1.387 . S
C270 C271 1.387 1_554 S
C270 H274 0.950 . S
C270 C279 1.390 . S
C271 C270 1.387 1_556 S
C271 C273 1.387 . S
H272 C279 0.950 . S
C273 C271 1.387 . S
C273 C275 1.390 . S
C273 H277 0.950 . S
H274 C270 0.950 . S
C275 C273 1.390 . S
C275 C276 1.387 . S
C275 H278 0.950 . S
C276 C275 1.387 . S
C276 C279 1.387 1_556 S
H277 C273 0.950 . S
H278 C275 0.950 . S
C279 C270 1.390 . S
C279 H272 0.950 . S
C279 C276 1.387 1_554 S
C280 C281 1.387 . S
C280 H284 0.950 . S
C280 C289 1.390 . S
C281 C280 1.387 . S
C281 C283 1.387 1_556 S
H282 C289 0.950 . S
C283 C281 1.387 1_554 S
C283 C285 1.390 . S
C283 H287 0.950 . S
H284 C280 0.950 . S
C285 C283 1.390 . S
C285 C286 1.387 1_554 S
C285 H288 0.950 . S
C286 C285 1.387 1_556 S
C286 C289 1.387 . S
H287 C283 0.950 . S
H288 C285 0.950 . S
C289 C280 1.390 . S
C289 H282 0.950 . S
C289 C286 1.387 . S
C290 C291 1.387 1_554 S
C290 H294 0.950 . S
C290 C299 1.390 . S
C291 C290 1.387 1_556 S
C291 C293 1.387 . S
H292 C299 0.950 . S
C293 C291 1.387 . S
C293 C295 1.390 . S
C293 H297 0.950 . S
H294 C290 0.950 . S
C295 C293 1.390 . S
C295 C296 1.387 . S
C295 H298 0.950 . S
C296 C295 1.387 . S
C296 C299 1.387 1_556 S
H297 C293 0.950 . S
H298 C295 0.950 . S
C299 C290 1.390 . S
C299 H292 0.950 . S
C299 C296 1.387 1_554 S
C300 C301 1.387 1_556 S
C300 H304 0.950 . S
C300 C309 1.390 . S
C301 C300 1.387 1_554 S
C301 C303 1.387 . S
H302 C309 0.950 . S
C303 C301 1.387 . S
C303 C305 1.390 . S
C303 H307 0.950 . S
H304 C300 0.950 . S
C305 C303 1.390 . S
C305 C306 1.387 . S
C305 H308 0.950 . S
C306 C305 1.387 . S
C306 C309 1.387 1_554 S
H307 C303 0.950 . S
H308 C305 0.950 . S
C309 C300 1.390 . S
C309 H302 0.950 . S
C309 C306 1.387 1_556 S
C310 C311 1.387 . S
C310 H314 0.950 . S
C310 C319 1.390 . S
C311 C310 1.387 . S
C311 C313 1.387 1_554 S
H312 C319 0.950 . S
C313 C311 1.387 1_556 S
C313 C315 1.390 . S
C313 H317 0.950 . S
H314 C310 0.950 . S
C315 C313 1.390 . S
C315 C316 1.387 1_556 S
C315 H318 0.950 . S
C316 C315 1.387 1_554 S
C316 C319 1.387 . S
H317 C313 0.950 . S
H318 C315 0.950 . S
C319 C310 1.390 . S
C319 H312 0.950 . S
C319 C316 1.387 . S
C320 C321 1.387 1_556 S
C320 H324 0.950 . S
C320 C329 1.390 . S
C321 C320 1.387 1_554 S
C321 C323 1.387 . S
H322 C329 0.950 . S
C323 C321 1.387 . S
C323 C325 1.390 . S
C323 H327 0.950 . S
H324 C320 0.950 . S
C325 C323 1.390 . S
C325 C326 1.387 . S
C325 H328 0.950 . S
C326 C325 1.387 . S
C326 C329 1.387 1_554 S
H327 C323 0.950 . S
H328 C325 0.950 . S
C329 C320 1.390 . S
C329 H322 0.950 . S
C329 C326 1.387 1_556 S
C330 C331 1.387 . S
C330 H334 0.950 . S
C330 C339 1.390 . S
C331 C330 1.387 . S
C331 C333 1.387 1_554 S
H332 C339 0.950 . S
C333 C331 1.387 1_556 S
C333 C335 1.390 . S
C333 H337 0.950 . S
H334 C330 0.950 . S
C335 C333 1.390 . S
C335 C336 1.387 1_556 S
C335 H338 0.950 . S
C336 C335 1.387 1_554 S
C336 C339 1.387 . S
H337 C333 0.950 . S
H338 C335 0.950 . S
C339 C330 1.390 . S
C339 H332 0.950 . S
C339 C336 1.387 . S
C340 C341 1.387 1_556 S
C340 H344 0.950 . S
C340 C349 1.390 . S
C341 C340 1.387 1_554 S
C341 C343 1.387 . S
H342 C349 0.950 . S
C343 C341 1.387 . S
C343 C345 1.390 . S
C343 H347 0.950 . S
H344 C340 0.950 . S
C345 C343 1.390 . S
C345 C346 1.387 . S
C345 H348 0.950 . S
C346 C345 1.387 . S
C346 C349 1.387 1_554 S
H347 C343 0.950 . S
H348 C345 0.950 . S
C349 C340 1.390 . S
C349 H342 0.950 . S
C349 C346 1.387 1_556 S
C350 C351 1.387 . S
C350 H354 0.950 . S
C350 C359 1.390 . S
C351 C350 1.387 . S
C351 C353 1.387 1_554 S
H352 C359 0.950 . S
C353 C351 1.387 1_556 S
C353 C355 1.390 . S
C353 H357 0.950 . S
H354 C350 0.950 . S
C355 C353 1.390 . S
C355 C356 1.387 1_556 S
C355 H358 0.950 . S
C356 C355 1.387 1_554 S
C356 C359 1.387 . S
H357 C353 0.950 . S
H358 C355 0.950 . S
C359 C350 1.390 . S
C359 H352 0.950 . S
C359 C356 1.387 . S
C360 C361 1.387 . S
C360 H364 0.950 . S
C360 C369 1.390 . S
C361 C360 1.387 . S
C361 C363 1.387 . S
H362 C369 0.950 . S
C363 C361 1.387 . S
C363 C365 1.390 . S
C363 H367 0.950 . S
H364 C360 0.950 . S
C365 C363 1.390 . S
C365 C366 1.387 . S
C365 H368 0.950 . S
C366 C365 1.387 . S
C366 C369 1.387 . S
H367 C363 0.950 . S
H368 C365 0.950 . S
C369 C360 1.390 . S
C369 H362 0.950 . S
C369 C366 1.387 . S
C370 C371 1.387 . S
C370 H374 0.950 . S
C370 C379 1.390 . S
C371 C370 1.387 . S
C371 C373 1.387 . S
H372 C379 0.950 . S
C373 C371 1.387 . S
C373 C375 1.390 . S
C373 H377 0.950 . S
H374 C370 0.950 . S
C375 C373 1.390 . S
C375 C376 1.387 . S
C375 H378 0.950 . S
C376 C375 1.387 . S
C376 C379 1.387 . S
H377 C373 0.950 . S
H378 C375 0.950 . S
C379 C370 1.390 . S
C379 H372 0.950 . S
C379 C376 1.387 . S
C380 C381 1.387 . S
C380 H384 0.950 . S
C380 C389 1.390 . S
C381 C380 1.387 . S
C381 C383 1.387 . S
H382 C389 0.950 . S
C383 C381 1.387 . S
C383 C385 1.390 . S
C383 H387 0.950 . S
H384 C380 0.950 . S
C385 C383 1.390 . S
C385 C386 1.387 . S
C385 H388 0.950 . S
C386 C385 1.387 . S
C386 C389 1.387 . S
H387 C383 0.950 . S
H388 C385 0.950 . S
C389 C380 1.390 . S
C389 H382 0.950 . S
C389 C386 1.387 . S
C390 C391 1.387 . S
C390 H394 0.950 . S
C390 C399 1.390 . S
C391 C390 1.387 . S
C391 C393 1.387 . S
H392 C399 0.950 . S
C393 C391 1.387 . S
C393 C395 1.390 . S
C393 H397 0.950 . S
H394 C390 0.950 . S
C395 C393 1.390 . S
C395 C396 1.387 . S
C395 H398 0.950 . S
C396 C395 1.387 . S
C396 C399 1.387 . S
H397 C393 0.950 . S
H398 C395 0.950 . S
C399 C390 1.390 . S
C399 H392 0.950 . S
C399 C396 1.387 . S
C400 C401 1.387 . S
C400 H404 0.950 . S
C400 C409 1.390 . S
C401 C400 1.387 . S
C401 C403 1.387 . S
H402 C409 0.950 . S
C403 C401 1.387 . S
C403 C405 1.390 . S
C403 H407 0.950 . S
H404 C400 0.950 . S
C405 C403 1.390 . S
C405 C406 1.387 . S
C405 H408 0.950 . S
C406 C405 1.387 . S
C406 C409 1.387 . S
H407 C403 0.950 . S
H408 C405 0.950 . S
C409 C400 1.390 . S
C409 H402 0.950 . S
C409 C406 1.387 . S
C410 C411 1.387 . S
C410 H414 0.950 . S
C410 C419 1.390 . S
C411 C410 1.387 . S
C411 C413 1.387 . S
H412 C419 0.950 . S
C413 C411 1.387 . S
C413 C415 1.390 . S
C413 H417 0.950 . S
H414 C410 0.950 . S
C415 C413 1.390 . S
C415 C416 1.387 . S
C415 H418 0.950 . S
C416 C415 1.387 . S
C416 C419 1.387 . S
H417 C413 0.950 . S
H418 C415 0.950 . S
C419 C410 1.390 . S
C419 H412 0.950 . S
C419 C416 1.387 . S
C241 C219 2.310 1_556 S
C246 C15 1.946 . S
C251 C19 2.310 1_556 S
C256 C55 1.945 1_455 S
C261 C59 2.310 1_556 S
C266 C95 1.947 1_545 S
C271 C135 1.944 . S
C276 C99 2.311 1_556 S
C281 C175 1.947 1_655 S
C286 C139 2.310 1_556 S
C291 C179 2.311 1_556 S
C296 C215 1.943 1_565 S
C301 C170 1.876 1_554 S
C306 C6 1.864 . S
C311 C210 1.876 1_554 S
C316 C46 1.863 . S
C321 C86 1.864 . S
C326 C10 1.876 1_554 S
C331 C126 1.863 . S
C336 C50 1.876 1_554 S
C341 C166 1.864 . S
C346 C90 1.876 1_554 S
C351 C130 1.876 1_554 S
C356 C206 1.863 . S
C361 C9 1.436 . S
C366 C18 1.436 . S
C371 C49 1.436 . S
C376 C58 1.436 . S
C381 C89 1.435 . S
C386 C98 1.435 . S
C391 C129 1.435 . S
C396 C138 1.435 . S
C401 C178 1.436 . S
C406 C169 1.436 . S
C411 C209 1.432 . S
C416 C218 1.432 . S
