# Generated by pormake.
# Topology smm, (6)-cn, num edge types: 1
# Building blocks:
#     Node 0, Type 0, BuildingBlock: VOLQOD_clean_sbu_1, # of connection points: 6
#     Node 1, Type 0, BuildingBlock: VOLQOD_clean_sbu_1, # of connection points: 6
#     Node 2, Type 0, BuildingBlock: VOLQOD_clean_sbu_1, # of connection points: 6
#     Node 3, Type 0, BuildingBlock: VOLQOD_clean_sbu_1, # of connection points: 6
#     Node 4, Type 0, BuildingBlock: VOLQOD_clean_sbu_1, # of connection points: 6
#     Node 5, Type 0, BuildingBlock: VOLQOD_clean_sbu_1, # of connection points: 6
#     Node 6, Type 0, BuildingBlock: VOLQOD_clean_sbu_1, # of connection points: 6
#     Node 7, Type 0, BuildingBlock: VOLQOD_clean_sbu_1, # of connection points: 6
#     Node 8, Type 0, BuildingBlock: VOLQOD_clean_sbu_1, # of connection points: 6
#     Edge 9, Type (0, 0), BuildingBlock: TEMPAE_clean_linker_10, # of connection points: 2
#     Edge 10, Type (0, 0), BuildingBlock: TEMPAE_clean_linker_10, # of connection points: 2
#     Edge 11, Type (0, 0), BuildingBlock: TEMPAE_clean_linker_10, # of connection points: 2
#     Edge 12, Type (0, 0), BuildingBlock: TEMPAE_clean_linker_10, # of connection points: 2
#     Edge 13, Type (0, 0), BuildingBlock: TEMPAE_clean_linker_10, # of connection points: 2
#     Edge 14, Type (0, 0), BuildingBlock: TEMPAE_clean_linker_10, # of connection points: 2
#     Edge 15, Type (0, 0), BuildingBlock: TEMPAE_clean_linker_10, # of connection points: 2
#     Edge 16, Type (0, 0), BuildingBlock: TEMPAE_clean_linker_10, # of connection points: 2
#     Edge 17, Type (0, 0), BuildingBlock: TEMPAE_clean_linker_10, # of connection points: 2
#     Edge 18, Type (0, 0), BuildingBlock: TEMPAE_clean_linker_10, # of connection points: 2
#     Edge 19, Type (0, 0), BuildingBlock: TEMPAE_clean_linker_10, # of connection points: 2
#     Edge 20, Type (0, 0), BuildingBlock: TEMPAE_clean_linker_10, # of connection points: 2
#     Edge 21, Type (0, 0), BuildingBlock: TEMPAE_clean_linker_10, # of connection points: 2
#     Edge 22, Type (0, 0), BuildingBlock: TEMPAE_clean_linker_10, # of connection points: 2
#     Edge 23, Type (0, 0), BuildingBlock: TEMPAE_clean_linker_10, # of connection points: 2
#     Edge 24, Type (0, 0), BuildingBlock: TEMPAE_clean_linker_10, # of connection points: 2
#     Edge 25, Type (0, 0), BuildingBlock: TEMPAE_clean_linker_10, # of connection points: 2
#     Edge 26, Type (0, 0), BuildingBlock: TEMPAE_clean_linker_10, # of connection points: 2
#     Edge 27, Type (0, 0), BuildingBlock: TEMPAE_clean_linker_10, # of connection points: 2
#     Edge 28, Type (0, 0), BuildingBlock: TEMPAE_clean_linker_10, # of connection points: 2
#     Edge 29, Type (0, 0), BuildingBlock: TEMPAE_clean_linker_10, # of connection points: 2
#     Edge 30, Type (0, 0), BuildingBlock: TEMPAE_clean_linker_10, # of connection points: 2
#     Edge 31, Type (0, 0), BuildingBlock: TEMPAE_clean_linker_10, # of connection points: 2
#     Edge 32, Type (0, 0), BuildingBlock: TEMPAE_clean_linker_10, # of connection points: 2
#     Edge 33, Type (0, 0), BuildingBlock: TEMPAE_clean_linker_10, # of connection points: 2
#     Edge 34, Type (0, 0), BuildingBlock: TEMPAE_clean_linker_10, # of connection points: 2
#     Edge 35, Type (0, 0), BuildingBlock: TEMPAE_clean_linker_10, # of connection points: 2
# Relax obj value: 0.260
# Max RMSD: 0.218
# Mean RMSD: 0.217
data_MOF--net-smm--node1-VOLQOD_clean_sbu_1--edge1-TEMPAE_clean_linker_10
_symmetry_space_group_name_H-M    P1
_symmetry_Int_Tables_number       1
_symmetry_cell_setting            triclinic
loop_
_symmetry_equiv_pos_as_xyz
'x, y, z'
_cell_length_a     53.962319
_cell_length_b     53.785753
_cell_length_c     17.173486
_cell_angle_alpha  90.018015
_cell_angle_beta   90.277898
_cell_angle_gamma 119.69759
loop_
_atom_site_label
_atom_site_type_symbol
_atom_site_fract_x
_atom_site_fract_y
_atom_site_fract_z
_atom_type_partial_charge
O0 O 0.00876 0.17733 0.8837 0.0
Zn1 Zn 0.00122 0.17859 -0.00213 0.0
O2 O 0.03501 0.18518 0.05604 0.0
Zn3 Zn 0.04932 0.21926 0.11997 0.0
Zn4 Zn 0.06495 0.19095 0.98699 0.0
Zn5 Zn 0.02738 0.15237 0.11591 0.0
O6 O 0.05087 0.21012 0.23323 0.0
O7 O 0.02956 0.1626 0.22702 0.0
O8 O 0.99186 0.21027 0.01754 0.0
O9 O 0.02308 0.23512 0.11086 0.0
O10 O 0.08537 0.25231 0.0767 0.0
O11 O 0.08818 0.23235 0.96692 0.0
O12 O 0.08875 0.17423 0.02557 0.0
O13 O 0.96735 0.13999 0.0249 0.0
O14 O 0.05641 0.13961 0.09938 0.0
O15 O 0.98796 0.12052 0.09528 0.0
C16 C 0.02745 0.17374 0.84809 0.0
C17 C 0.04003 0.18571 0.26619 0.0
C18 C 0.09483 0.25449 0.0077 0.0
C19 C 0.00254 0.23098 0.06608 0.0
C20 C 0.08074 0.15188 0.06671 0.0
C21 C 0.96606 0.1188 0.06176 0.0
O22 O 0.04864 0.17473 0.88371 0.0
O23 O 0.8052 0.8534 0.17134 0.0
Zn24 Zn 0.80331 0.8558 0.05269 0.0
O25 O 0.83016 0.84551 0.00282 0.0
Zn26 Zn 0.81138 0.81377 0.93171 0.0
Zn27 Zn 0.8477 0.83338 0.07932 0.0
Zn28 Zn 0.85966 0.87758 0.94683 0.0
O29 O 0.82496 0.82395 0.82249 0.0
O30 O 0.85461 0.87069 0.83211 0.0
O31 O 0.76282 0.83061 0.00964 0.0
O32 O 0.77135 0.80421 0.92629 0.0
O33 O 0.81031 0.77759 0.96706 0.0
O34 O 0.83119 0.79098 0.08249 0.0
O35 O 0.88962 0.85256 0.06759 0.0
O36 O 0.81562 0.89755 0.03117 0.0
O37 O 0.89926 0.88654 0.98044 0.0
O38 O 0.85574 0.9118 0.96509 0.0
C39 C 0.8237 0.85098 0.21223 0.0
C40 C 0.84062 0.8482 0.79122 0.0
C41 C 0.81752 0.77161 0.03197 0.0
C42 C 0.75437 0.81123 0.9571 0.0
C43 C 0.90747 0.87411 0.02886 0.0
C44 C 0.83746 0.91699 -0.00364 0.0
O45 O 0.84122 0.84465 0.18171 0.0
O46 O 0.21717 0.00376 0.97985 0.0
Zn47 Zn 0.218 0.01619 0.09178 0.0
O48 O 0.19354 0.98339 0.15537 0.0
Zn49 Zn 0.21619 0.97084 0.21096 0.0
Zn50 Zn 0.16863 0.95115 0.09242 0.0
Zn51 Zn 0.17122 0.99227 0.22476 0.0
O52 O 0.20328 0.96165 0.32166 0.0
O53 O 0.1791 0.9851 0.33448 0.0
O54 O 0.25853 0.03567 0.13389 0.0
O55 O 0.25598 0.00286 0.21688 0.0
O56 O 0.2167 0.93912 0.14969 0.0
O57 O 0.17128 0.9164 0.1171 0.0
O58 O 0.12863 0.94212 0.09998 0.0
O59 O 0.20327 0.04407 0.09594 0.0
O60 O 0.12894 0.96833 0.19998 0.0
O61 O 0.1798 0.03287 0.20834 0.0
C62 C 0.20003 0.9803 0.94576 0.0
C63 C 0.19072 0.97152 0.36388 0.0
C64 C 0.19558 0.91808 0.11648 0.0
C65 C 0.27005 0.02715 0.18445 0.0
C66 C 0.11563 0.9501 0.14622 0.0
C67 C 0.18998 0.04915 0.14927 0.0
O68 O 0.18031 0.95952 0.98269 0.0
O69 O 0.64261 0.51429 0.36272 0.0
Zn70 Zn 0.65312 0.51431 0.24924 0.0
O71 O 0.61932 0.49877 0.18426 0.0
Zn72 Zn 0.61508 0.52884 0.13529 0.0
Zn73 Zn 0.58585 0.47872 0.24601 0.0
Zn74 Zn 0.62006 0.47233 0.11078 0.0
O75 O 0.60651 0.51986 0.02039 0.0
O76 O 0.61273 0.48217 0.00439 0.0
O77 O 0.67986 0.55491 0.21625 0.0
O78 O 0.65237 0.56555 0.14252 0.0
O79 O 0.58456 0.53348 0.1926 0.0
O80 O 0.55568 0.4876 0.21418 0.0
O81 O 0.5705 0.43688 0.24275 0.0
O82 O 0.67431 0.49247 0.23236 0.0
O83 O 0.59123 0.43148 0.138 0.0
O84 O 0.65811 0.47385 0.11482 0.0
C85 C 0.6183 0.50471 0.39499 0.0
C86 C 0.60744 0.50108 0.97684 0.0
C87 C 0.5607 0.51328 0.21663 0.0
C88 C 0.67628 0.5725 0.17464 0.0
C89 C 0.57401 0.42094 0.1948 0.0
C90 C 0.6757 0.47981 0.17104 0.0
O91 O 0.59526 0.49115 0.35614 0.0
O92 O 0.54008 0.17453 0.5129 0.0
Zn93 Zn 0.53098 0.17477 0.39916 0.0
O94 O 0.55663 0.16724 0.33785 0.0
Zn95 Zn 0.53509 0.13555 0.26873 0.0
Zn96 Zn 0.57977 0.15758 0.40197 0.0
Zn97 Zn 0.58234 0.20084 0.2819 0.0
O98 O 0.55011 0.14485 0.16016 0.0
O99 O 0.57756 0.19211 0.16869 0.0
O100 O 0.48981 0.14725 0.37258 0.0
O101 O 0.49489 0.12745 0.26474 0.0
O102 O 0.53239 0.09936 0.31041 0.0
O103 O 0.56226 0.11538 0.41074 0.0
O104 O 0.62022 0.17508 0.36448 0.0
O105 O 0.53612 0.21355 0.37384 0.0
O106 O 0.62286 0.21321 0.30644 0.0
O107 O 0.57491 0.23303 0.30013 0.0
C108 C 0.56135 0.17481 0.54664 0.0
C109 C 0.56553 0.16918 0.12863 0.0
C110 C 0.54359 0.09478 0.37022 0.0
C111 C 0.4793 0.13173 0.31202 0.0
C112 C 0.63462 0.19945 0.33265 0.0
C113 C 0.55506 0.23453 0.33541 0.0
O114 O 0.57945 0.17092 0.50918 0.0
O115 O 0.88748 0.38776 0.32776 0.0
Zn116 Zn 0.88251 0.37369 0.21845 0.0
O117 O 0.88261 0.40121 0.14756 0.0
Zn118 Zn 0.91755 0.41597 0.08964 0.0
Zn119 Zn 0.88396 0.43328 0.20228 0.0
Zn120 Zn 0.84963 0.38425 0.08135 0.0
O121 O 0.91028 0.42425 0.98043 0.0
O122 O 0.86338 0.39398 0.97173 0.0
O123 O 0.91148 0.36236 0.1912 0.0
O124 O 0.93084 0.38684 0.08348 0.0
O125 O 0.94692 0.44938 0.15291 0.0
O126 O 0.92069 0.46901 0.1815 0.0
O127 O 0.85097 0.43903 0.17587 0.0
O128 O 0.84552 0.3377 0.21057 0.0
O129 O 0.82402 0.40122 0.10159 0.0
O130 O 0.82589 0.34165 0.10067 0.0
C131 C 0.88615 0.40863 0.35835 0.0
C132 C 0.88721 0.41145 0.94064 0.0
C133 C 0.94414 0.46892 0.18694 0.0
C134 C 0.9276 0.3677 0.13249 0.0
C135 C 0.82807 0.42363 0.13778 0.0
C136 C 0.82607 0.32695 0.1588 0.0
O137 O 0.8835 0.42682 0.31701 0.0
O138 O 0.30613 0.84548 0.47587 0.0
Zn139 Zn 0.29839 0.83563 0.58978 0.0
O140 O 0.3339 0.8483 0.64628 0.0
Zn141 Zn 0.34401 0.88428 0.69947 0.0
Zn142 Zn 0.36377 0.85431 0.57595 0.0
Zn143 Zn 0.32925 0.81891 0.71815 0.0
O144 O 0.3465 0.87919 0.81461 0.0
O145 O 0.33189 0.83279 0.82643 0.0
O146 O 0.2777 0.85365 0.6388 0.0
O147 O 0.31199 0.89335 0.69332 0.0
O148 O 0.38156 0.91725 0.66126 0.0
O149 O 0.39645 0.89332 0.58791 0.0
O150 O 0.3795 0.82792 0.59269 0.0
O151 O 0.27163 0.79339 0.60277 0.0
O152 O 0.35817 0.80632 0.70247 0.0
O153 O 0.29144 0.78404 0.70396 0.0
C154 C 0.32817 0.85102 0.43605 0.0
C155 C 0.33948 0.85716 0.85645 0.0
C156 C 0.40064 0.91642 0.61955 0.0
C157 C 0.28582 0.87685 0.67617 0.0
C158 C 0.37596 0.81094 0.64841 0.0
C159 C 0.27125 0.77636 0.65481 0.0
O160 O 0.35044 0.85287 0.46745 0.0
O161 O 0.09396 0.50197 0.87311 0.0
Zn162 Zn 0.0989 0.51268 0.75844 0.0
O163 O 0.11569 0.49359 0.70211 0.0
Zn164 Zn 0.08626 0.45833 0.65347 0.0
Zn165 Zn 0.13693 0.48498 0.77408 0.0
Zn166 Zn 0.14184 0.51906 0.62649 0.0
O167 O 0.0927 0.46 0.53664 0.0
O168 O 0.12991 0.50345 0.5198 0.0
O169 O 0.0618 0.50073 0.70621 0.0
O170 O 0.04825 0.45735 0.65865 0.0
O171 O 0.08689 0.42306 0.69826 0.0
O172 O 0.12937 0.44592 0.7563 0.0
O173 O 0.17887 0.51048 0.76572 0.0
O174 O 0.12162 0.55561 0.74283 0.0
O175 O 0.18216 0.52802 0.64709 0.0
O176 O 0.14286 0.55631 0.63176 0.0
C177 C 0.10607 0.49081 0.91249 0.0
C178 C 0.1103 0.47987 0.4923 0.0
C179 C 0.10801 0.42295 0.73223 0.0
C180 C 0.0438 0.47831 0.66993 0.0
C181 C 0.19377 0.52479 0.70805 0.0
C182 C 0.13604 0.56888 0.68302 0.0
O183 O 0.12363 0.48462 0.88131 0.0
O184 O 0.50657 0.65348 0.53948 0.0
Zn185 Zn 0.50625 0.66745 0.64881 0.0
O186 O 0.48314 0.63562 0.71491 0.0
Zn187 Zn 0.50685 0.62439 0.76939 0.0
Zn188 Zn 0.45715 0.60323 0.65439 0.0
Zn189 Zn 0.46374 0.64663 0.78698 0.0
O190 O 0.49316 0.61294 0.87944 0.0
O191 O 0.47296 0.64005 0.89551 0.0
O192 O 0.54563 0.69026 0.69634 0.0
O193 O 0.54515 0.65888 0.78126 0.0
O194 O 0.509 0.59454 0.70302 0.0
O195 O 0.46302 0.57004 0.67512 0.0
O196 O 0.41668 0.59291 0.67375 0.0
O197 O 0.48911 0.69308 0.64656 0.0
O198 O 0.4215 0.6226 0.77006 0.0
O199 O 0.47245 0.68711 0.76747 0.0
C200 C 0.48775 0.63079 0.50529 0.0
C201 C 0.48261 0.62448 0.92334 0.0
C202 C 0.48795 0.57322 0.67017 0.0
C203 C 0.55751 0.68364 0.75062 0.0
C204 C 0.40592 0.60262 0.72266 0.0
C205 C 0.47879 0.70046 0.7028 0.0
O206 O 0.46658 0.61137 0.54206 0.0
C207 C 0.10602 0.30547 0.00243 0.0
C208 C 0.10594 0.28207 0.96608 0.0
C209 C 0.10779 0.32826 0.95836 0.0
C210 C 0.10931 0.32747 0.87613 0.0
C211 C 0.11127 0.30497 0.83959 0.0
C212 C 0.11 0.28278 0.8851 0.0
C213 C 0.10642 0.35237 -0.00045 0.0
C214 C 0.11272 0.3033 0.75203 0.0
C215 C 0.08199 0.37096 0.76859 0.0
C216 C 0.10759 0.39614 0.75348 0.0
C217 C 0.08222 0.34778 0.80584 0.0
C218 C 0.10863 0.35012 0.82844 0.0
C219 C 0.13448 0.3748 0.80889 0.0
C220 C 0.13363 0.39735 0.77101 0.0
C221 C 0.05421 0.32143 0.82464 0.0
C222 C 0.16303 0.37823 0.83243 0.0
H223 H 0.10291 0.3052 0.0648 0.0
H224 H 0.11009 0.2649 0.85622 0.0
H225 H 0.12392 0.37337 0.9796 0.0
H226 H 0.08597 0.35158 0.98512 0.0
H227 H 0.10793 0.35115 0.06384 0.0
H228 H 0.11596 0.28537 0.73304 0.0
H229 H 0.09256 0.30022 0.72575 0.0
H230 H 0.13029 0.32357 0.72859 0.0
H231 H 0.06185 0.36999 0.75548 0.0
H232 H 0.15354 0.41668 0.75866 0.0
H233 H 0.05084 0.32 0.88854 0.0
H234 H 0.05458 0.30186 0.806 0.0
H235 H 0.03583 0.32172 0.79611 0.0
H236 H 0.16495 0.37918 0.89688 0.0
H237 H 0.18119 0.39797 0.80815 0.0
H238 H 0.16483 0.35954 0.81282 0.0
C239 C 0.7171 0.7762 0.86781 0.0
C240 C 0.7245 0.7962 0.92858 0.0
C241 C 0.6892 0.76071 0.83985 0.0
C242 C 0.6679 0.76526 0.87311 0.0
C243 C 0.67511 0.78592 0.93295 0.0
C244 C 0.70346 0.80121 0.96025 0.0
C245 C 0.68241 0.73875 0.77623 0.0
C246 C 0.65279 0.7913 0.96923 0.0
C247 C 0.60068 0.73272 0.74997 0.0
C248 C 0.58522 0.7055 0.78355 0.0
C249 C 0.62697 0.75333 0.78169 0.0
C250 C 0.63789 0.74648 0.8484 0.0
C251 C 0.62179 0.71951 0.88442 0.0
C252 C 0.59574 0.69935 0.85146 0.0
C253 C 0.64366 0.7819 0.74174 0.0
C254 C 0.63275 0.71133 0.95548 0.0
H255 H 0.73312 0.77221 0.84215 0.0
H256 H 0.70903 0.81673 0.00678 0.0
H257 H 0.6676 0.71702 0.79873 0.0
H258 H 0.67161 0.74274 0.72669 0.0
H259 H 0.70179 0.73889 0.75403 0.0
H260 H 0.66226 0.80981 0.01001 0.0
H261 H 0.64068 0.79533 0.92333 0.0
H262 H 0.63729 0.77202 0.00167 0.0
H263 H 0.59254 0.73778 0.69812 0.0
H264 H 0.58375 0.67857 0.8788 0.0
H265 H 0.66242 0.78298 0.71224 0.0
H266 H 0.65182 0.79958 0.78497 0.0
H267 H 0.63062 0.78542 0.69754 0.0
H268 H 0.65125 0.70879 0.9391 0.0
H269 H 0.61624 0.69095 0.98169 0.0
H270 H 0.64025 0.72842 0.00032 0.0
C271 C 0.18503 0.89533 0.98533 0.0
C272 C 0.20162 0.90304 0.05379 0.0
C273 C 0.19461 0.88879 0.91677 0.0
C274 C 0.22098 0.8892 0.91733 0.0
C275 C 0.2366 0.89449 0.98784 0.0
C276 C 0.2269 0.90173 0.05512 0.0
C277 C 0.17745 0.88327 0.84266 0.0
C278 C 0.26438 0.89408 -0.00874 0.0
C279 C 0.24242 0.85569 0.75687 0.0
C280 C 0.26439 0.88006 0.72104 0.0
C281 C 0.22708 0.85821 0.81894 0.0
C282 C 0.23319 0.88574 0.84363 0.0
C283 C 0.25312 0.91026 0.80197 0.0
C284 C 0.26905 0.90719 0.74214 0.0
C285 C 0.20643 0.83156 0.8625 0.0
C286 C 0.25893 0.93987 0.82386 0.0
H287 H 0.16557 0.89654 0.98342 0.0
H288 H 0.23975 0.90765 0.1078 0.0
H289 H 0.18998 0.90029 0.79971 0.0
H290 H 0.17299 0.86266 0.81611 0.0
H291 H 0.15685 0.88269 0.85267 0.0
H292 H 0.27215 0.89543 0.05198 0.0
H293 H 0.26185 0.87423 0.96402 0.0
H294 H 0.28092 0.91247 0.95801 0.0
H295 H 0.239 0.83465 0.74146 0.0
H296 H 0.28599 0.926 0.71434 0.0
H297 H 0.18669 0.83201 0.87744 0.0
H298 H 0.21648 0.83047 0.91797 0.0
H299 H 0.20051 0.81179 0.82851 0.0
H300 H 0.2386 0.94011 0.83058 0.0
H301 H 0.27215 0.95609 0.7797 0.0
H302 H 0.2703 0.94619 0.88067 0.0
C303 C 0.43666 0.09966 0.23162 0.0
C304 C 0.44848 0.11863 0.29471 0.0
C305 C 0.40759 0.08696 0.21369 0.0
C306 C 0.38987 0.09341 0.25982 0.0
C307 C 0.40164 0.1129 0.32275 0.0
C308 C 0.43087 0.12525 0.33966 0.0
C309 C 0.39573 0.06606 0.14649 0.0
C310 C 0.38328 0.12025 0.37298 0.0
C311 C 0.31739 0.07214 0.17194 0.0
C312 C 0.3004 0.04532 0.20641 0.0
C313 C 0.34647 0.08867 0.19092 0.0
C314 C 0.3587 0.078 0.24524 0.0
C315 C 0.3415 0.05136 0.28174 0.0
C316 C 0.3126 0.0354 0.262 0.0
C317 C 0.36428 0.11713 0.15128 0.0
C318 C 0.35382 0.0392 0.33972 0.0
H319 H 0.45007 0.09443 0.19641 0.0
H320 H 0.43987 0.14005 0.38813 0.0
H321 H 0.38018 0.04449 0.16849 0.0
H322 H 0.38415 0.07261 0.10525 0.0
H323 H 0.41265 0.06443 0.11412 0.0
H324 H 0.39603 0.13723 0.41637 0.0
H325 H 0.37116 0.12754 0.33616 0.0
H326 H 0.36744 0.1009 0.40453 0.0
H327 H 0.3081 0.08004 0.12934 0.0
H328 H 0.29967 0.01479 0.28947 0.0
H329 H 0.3802 0.11598 0.11304 0.0
H330 H 0.37628 0.13411 0.19518 0.0
H331 H 0.35113 0.12344 0.1154 0.0
H332 H 0.36962 0.03493 0.3104 0.0
H333 H 0.33719 0.01895 0.36619 0.0
H334 H 0.36522 0.05489 0.38701 0.0
C335 C 0.95563 0.35188 0.04983 0.0
C336 C 0.94108 0.34983 0.1192 0.0
C337 C 0.96653 0.33341 0.03505 0.0
C338 C 0.96275 0.31249 0.09096 0.0
C339 C 0.94858 0.31071 0.16157 0.0
C340 C 0.93797 0.32938 0.17482 0.0
C341 C 0.98175 0.33603 0.95936 0.0
C342 C 0.94439 0.28887 0.22301 0.0
C343 C 0.96573 0.24544 0.03813 0.0
C344 C -0.00749 0.25207 0.06806 0.0
C345 C 0.9561 0.26536 0.04261 0.0
C346 C 0.97384 0.29254 0.07694 0.0
C347 C 0.00138 0.29974 0.1041 0.0
C348 C 0.01029 0.27938 0.09976 0.0
C349 C 0.92658 0.25698 0.01305 0.0
C350 C 0.02111 0.32863 0.14009 0.0
H351 H 0.95809 0.36757 0.00646 0.0
H352 H 0.92688 0.32765 0.22875 0.0
H353 H 0.00348 0.3395 0.97108 0.0
H354 H 0.9701 0.31582 0.92566 0.0
H355 H 0.98359 0.35392 0.92288 0.0
H356 H 0.93285 0.29026 0.27474 0.0
H357 H 0.93215 0.26697 0.19824 0.0
H358 H 0.96538 0.29197 0.24242 0.0
H359 H 0.95203 0.22447 0.01303 0.0
H360 H 0.03131 0.28492 0.12149 0.0
H361 H 0.92753 0.27341 0.97228 0.0
H362 H 0.91292 0.25583 0.06257 0.0
H363 H 0.91629 0.23592 0.98283 0.0
H364 H 0.02304 0.34604 0.10154 0.0
H365 H 0.0428 0.33183 0.15132 0.0
H366 H 0.01212 0.3307 0.19612 0.0
C367 C 0.80203 0.73376 0.13335 0.0
C368 C 0.80545 0.74127 0.05427 0.0
C369 C 0.78439 0.70534 0.15649 0.0
C370 C 0.77039 0.68392 0.09907 0.0
C371 C 0.77613 0.69092 0.01927 0.0
C372 C 0.79339 0.71962 -0.00228 0.0
C373 C 0.77861 0.69882 0.24215 0.0
C374 C 0.76224 0.66848 0.95642 0.0
C375 C 0.72865 0.60598 0.16081 0.0
C376 C 0.70065 0.60128 0.16005 0.0
C377 C 0.75173 0.63279 0.14095 0.0
C378 C 0.74661 0.65544 0.12168 0.0
C379 C 0.71845 0.65096 0.12306 0.0
C380 C 0.69578 0.62385 0.14139 0.0
C381 C 0.7814 0.63667 0.13852 0.0
C382 C 0.71217 0.67477 0.10444 0.0
H383 H 0.81131 0.75036 0.17751 0.0
H384 H 0.79626 0.72525 0.93652 0.0
H385 H 0.7569 0.69498 0.25566 0.0
H386 H 0.77925 0.67914 0.25775 0.0
H387 H 0.7942 0.71672 0.27935 0.0
H388 H 0.77258 0.67633 0.899 0.0
H389 H 0.76308 0.64887 0.97171 0.0
H390 H 0.73943 0.66242 0.95079 0.0
H391 H 0.73242 0.58845 0.17446 0.0
H392 H 0.67417 0.6203 0.14124 0.0
H393 H 0.7961 0.65494 0.17593 0.0
H394 H 0.78971 0.64179 0.07823 0.0
H395 H 0.78191 0.61723 0.15795 0.0
H396 H 0.72501 0.69349 0.14279 0.0
H397 H 0.68926 0.66807 0.11177 0.0
H398 H 0.71827 0.6819 0.04347 0.0
C399 C 0.02869 0.50798 0.59454 0.0
C400 C 0.02286 0.48066 0.61911 0.0
C401 C 0.0161 0.51148 0.52698 0.0
C402 C -0.00373 0.487 0.48499 0.0
C403 C 0.98769 0.45934 0.51497 0.0
C404 C 0.00149 0.45648 0.58091 0.0
C405 C 0.02683 0.54142 0.49665 0.0
C406 C 0.96576 0.4326 0.47373 0.0
C407 C 0.95061 0.48945 0.32065 0.0
C408 C 0.96223 0.48255 0.25651 0.0
C409 C 0.96243 0.49268 0.3954 0.0
C410 C 0.98688 0.48982 0.40566 0.0
C411 C 0.0007 0.48646 0.33996 0.0
C412 C 0.98805 0.48255 0.26608 0.0
C413 C 0.94768 0.49712 0.46408 0.0
C414 C 0.02784 0.4851 0.34863 0.0
H415 H 0.04531 0.52693 0.62322 0.0
H416 H -0.00328 0.43533 0.59975 0.0
H417 H 0.04591 0.5475 0.46017 0.0
H418 H 0.01081 0.54324 0.46021 0.0
H419 H 0.03335 0.55708 0.5453 0.0
H420 H 0.95586 0.41407 0.51406 0.0
H421 H 0.94877 0.43579 0.44729 0.0
H422 H 0.97623 0.42727 0.42625 0.0
H423 H 0.93081 0.48982 0.31403 0.0
H424 H -0.00261 0.47766 0.21676 0.0
H425 H 0.9621 0.51792 0.49251 0.0
H426 H 0.94265 0.48022 0.50815 0.0
H427 H 0.92771 0.49693 0.44703 0.0
H428 H 0.04361 0.50333 0.38448 0.0
H429 H 0.03749 0.48556 0.29155 0.0
H430 H 0.02331 0.46509 0.37893 0.0
C431 C 0.47527 0.54872 0.5411 0.0
C432 C 0.49378 0.55859 0.60581 0.0
C433 C 0.48311 0.5406 0.47203 0.0
C434 C 0.50976 0.54165 0.46818 0.0
C435 C 0.52791 0.55018 0.53446 0.0
C436 C 0.51984 0.55886 0.60228 0.0
C437 C 0.46343 0.53204 0.40219 0.0
C438 C 0.55637 0.55118 0.53276 0.0
C439 C 0.52331 0.49835 0.31836 0.0
C440 C 0.54278 0.51982 0.26853 0.0
C441 C 0.51161 0.50504 0.3821 0.0
C442 C 0.51878 0.53378 0.39503 0.0
C443 C 0.53631 0.55521 0.34115 0.0
C444 C 0.54834 0.54801 0.2787 0.0
C445 C 0.4933 0.48166 0.43878 0.0
C446 C 0.54345 0.58593 0.35178 0.0
H447 H 0.45528 0.5489 0.54262 0.0
H448 H 0.53429 0.56666 0.65176 0.0
H449 H 0.47455 0.5466 0.35287 0.0
H450 H 0.45757 0.51012 0.38295 0.0
H451 H 0.44355 0.53264 0.41454 0.0
H452 H 0.56634 0.55499 0.59142 0.0
H453 H 0.5539 0.53088 0.50914 0.0
H454 H 0.5711 0.56865 0.49369 0.0
H455 H 0.51869 0.47644 0.31111 0.0
H456 H 0.56312 0.56467 0.24011 0.0
H457 H 0.47258 0.48091 0.44698 0.0
H458 H 0.50405 0.48633 0.49647 0.0
H459 H 0.48911 0.46023 0.4192 0.0
H460 H 0.52354 0.58717 0.35465 0.0
H461 H 0.55688 0.59991 0.30388 0.0
H462 H 0.55501 0.59446 0.40764 0.0
C463 C 0.5063 0.0432 0.36646 0.0
C464 C 0.53027 0.06559 0.40303 0.0
C465 C 0.48846 0.01794 0.40669 0.0
C466 C 0.49487 0.01505 0.48507 0.0
C467 C 0.52045 0.03632 0.51972 0.0
C468 C 0.53797 0.06135 0.47809 0.0
C469 C 0.46157 -0.00464 0.36725 0.0
C470 C 0.5282 0.03376 0.60278 0.0
C471 C 0.4287 0.96954 0.60377 0.0
C472 C 0.42718 0.94283 0.59955 0.0
C473 C 0.45161 0.99374 0.57021 0.0
C474 C 0.47342 0.99102 0.53222 0.0
C475 C 0.47309 0.96462 0.5332 0.0
C476 C 0.44994 0.94081 0.56683 0.0
C477 C 0.45151 0.02176 0.57096 0.0
C478 C 0.49615 0.961 0.49429 0.0
H479 H 0.50035 0.04612 0.30822 0.0
H480 H 0.55661 0.07839 0.50669 0.0
H481 H 0.45946 0.9739 0.37439 0.0
H482 H 0.44272 -0.00527 0.3949 0.0
H483 H 0.46113 -0.00042 0.30407 0.0
H484 H 0.55078 0.04959 0.61655 0.0
H485 H 0.51432 0.03749 0.64293 0.0
H486 H 0.52465 0.01195 0.6144 0.0
H487 H 0.41123 0.97122 0.62913 0.0
H488 H 0.44909 0.92025 0.56446 0.0
H489 H 0.44814 0.02713 0.51086 0.0
H490 H 0.4724 0.03933 0.59165 0.0
H491 H 0.43446 0.02095 0.60871 0.0
H492 H 0.4939 0.96153 0.43014 0.0
H493 H 0.49498 0.94041 0.51005 0.0
H494 H 0.5176 0.97881 0.51027 0.0
C495 C 0.17485 0.08304 0.20025 0.0
C496 C 0.18201 0.07147 0.13683 0.0
C497 C 0.16191 0.09985 0.18874 0.0
C498 C 0.1553 0.10448 0.11211 0.0
C499 C 0.164 0.09426 0.04777 0.0
C500 C 0.1776 0.07815 0.06094 0.0
C501 C 0.15374 0.11113 0.25877 0.0
C502 C 0.15691 0.09829 0.96522 0.0
C503 C 0.08858 0.11063 0.09109 0.0
C504 C 0.09997 0.13994 0.07717 0.0
C505 C 0.10643 0.09883 0.10132 0.0
C506 C 0.13642 0.11694 0.09971 0.0
C507 C 0.14807 0.14663 0.08643 0.0
C508 C 0.12966 0.15774 0.07423 0.0
C509 C 0.09314 0.06694 0.11353 0.0
C510 C 0.17991 0.16665 0.08628 0.0
H511 H 0.17843 0.07808 0.259 0.0
H512 H 0.1829 0.06908 0.01169 0.0
H513 H 0.15965 0.13385 0.25 0.0
H514 H 0.13028 0.09872 0.26671 0.0
H515 H 0.16414 0.10947 0.31299 0.0
H516 H 0.16784 0.09184 0.92167 0.0
H517 H 0.13354 0.08514 0.95566 0.0
H518 H 0.16292 0.12093 0.95477 0.0
H519 H 0.06563 0.09679 0.0928 0.0
H520 H 0.13852 0.18047 0.06412 0.0
H521 H 0.09939 0.06265 0.17144 0.0
H522 H 0.10109 0.05765 0.06909 0.0
H523 H 0.06947 0.05572 0.11001 0.0
H524 H 0.18917 0.1655 0.14311 0.0
H525 H 0.18555 0.18922 0.07558 0.0
H526 H 0.19004 0.16006 0.04082 0.0
C527 C 0.86216 0.96573 0.94047 0.0
C528 C 0.84381 0.947 -0.00288 0.0
C529 C 0.87541 -0.00465 0.95077 0.0
C530 C 0.87001 0.00645 0.01931 0.0
C531 C 0.8485 0.98776 0.0712 0.0
C532 C 0.83564 0.95802 0.05972 0.0
C533 C 0.89779 0.01448 0.893 0.0
C534 C 0.84117 -0.00104 0.14285 0.0
C535 C 0.93919 0.06701 0.09488 0.0
C536 C 0.93927 0.09089 0.06181 0.0
C537 C 0.91574 0.03955 0.08615 0.0
C538 C 0.89143 0.03582 0.04436 0.0
C539 C 0.89027 0.06003 0.01687 0.0
C540 C 0.9144 0.08736 0.02515 0.0
C541 C 0.91799 0.01435 0.11654 0.0
C542 C 0.86438 0.0571 0.97466 0.0
H543 H 0.86787 0.9572 0.89076 0.0
H544 H 0.82108 0.94359 0.10304 0.0
H545 H 0.89516 0.03306 0.87785 0.0
H546 H 0.9193 0.02287 0.91945 0.0
H547 H 0.89689 0.0029 0.83851 0.0
H548 H 0.8197 0.98334 0.16509 0.0
H549 H 0.85703 0.00288 0.18941 0.0
H550 H 0.84184 0.01954 0.13062 0.0
H551 H 0.95808 0.0695 0.12444 0.0
H552 H 0.91405 0.10574 0.00062 0.0
H553 H 0.91818 0.00121 0.06692 0.0
H554 H 0.89929 0.00049 0.15305 0.0
H555 H 0.93764 0.02109 0.15178 0.0
H556 H 0.86613 0.05367 0.9117 0.0
H557 H 0.86279 0.07683 0.98084 0.0
H558 H 0.84443 0.0386 -0.00352 0.0
C559 C 0.95889 0.91028 0.00686 0.0
C560 C 0.9382 0.88579 0.0452 0.0
C561 C 0.98795 0.92202 0.02513 0.0
C562 C -0.00364 0.90893 0.08307 0.0
C563 C 0.9756 0.88435 0.12222 0.0
C564 C 0.94681 0.87303 0.10268 0.0
C565 C 0.00965 0.94823 0.98202 0.0
C566 C 0.98381 0.8698 0.18431 0.0
C567 C 0.07043 0.91831 0.07518 0.0
C568 C 0.08481 0.93901 0.13322 0.0
C569 C 0.04174 0.90864 0.05785 0.0
C570 C 0.02697 0.91982 0.09978 0.0
C571 C 0.04117 0.94053 0.1589 0.0
C572 C 0.07001 0.94992 0.17501 0.0
C573 C 0.02725 0.88644 -0.00546 0.0
C574 C 0.0259 0.95277 0.2049 0.0
H575 H 0.95242 0.92036 0.96275 0.0
H576 H 0.93101 0.85418 0.13305 0.0
H577 H 0.02296 0.9655 0.02396 0.0
H578 H 0.02418 0.94308 0.94906 0.0
H579 H -0.00046 0.95645 0.94063 0.0
H580 H 0.96493 0.85155 0.21151 0.0
H581 H -0.00267 0.86173 0.15867 0.0
H582 H -0.0034 0.88537 0.23059 0.0
H583 H 0.08164 0.90972 0.0425 0.0
H584 H 0.08101 0.96601 0.21961 0.0
H585 H 0.0185 0.89468 0.94916 0.0
H586 H 0.00905 0.86688 0.0192 0.0
H587 H 0.04199 0.88036 0.96636 0.0
H588 H 0.01736 0.96295 0.16494 0.0
H589 H 0.04008 0.96893 0.24842 0.0
H590 H 0.00745 0.93535 0.23575 0.0
C591 C 0.70761 0.46864 0.09148 0.0
C592 C 0.69801 0.47156 0.16484 0.0
C593 C 0.72877 0.46084 0.08443 0.0
C594 C 0.74005 0.45512 0.15232 0.0
C595 C 0.73013 0.45764 0.22652 0.0
C596 C 0.70948 0.4662 0.23193 0.0
C597 C 0.73928 0.45906 0.00441 0.0
C598 C 0.74121 0.45111 0.30016 0.0
C599 C 0.77673 0.41066 0.13129 0.0
C600 C 0.80555 0.43167 0.13774 0.0
C601 C 0.75513 0.41795 0.13631 0.0
C602 C 0.76262 0.44701 0.14585 0.0
C603 C 0.79174 0.46838 0.15019 0.0
C604 C 0.81283 0.4604 0.14714 0.0
C605 C 0.72431 0.3945 0.13317 0.0
C606 C 0.8006 0.49966 0.15836 0.0
H607 H 0.69892 0.47294 0.03946 0.0
H608 H 0.70191 0.46817 0.2887 0.0
H609 H 0.76263 0.47386 0.0008 0.0
H610 H 0.73556 0.43713 -0.00639 0.0
H611 H 0.72857 0.46455 0.95754 0.0
H612 H 0.73049 0.45302 0.35306 0.0
H613 H 0.73797 0.42908 0.29729 0.0
H614 H 0.76448 0.46598 0.30605 0.0
H615 H 0.77104 0.3884 0.12473 0.0
H616 H 0.83512 0.47672 0.15158 0.0
H617 H 0.71314 0.39828 0.08415 0.0
H618 H 0.71336 0.3947 0.18751 0.0
H619 H 0.72207 0.37296 0.12597 0.0
H620 H 0.79107 0.50613 0.11062 0.0
H621 H 0.82414 0.51371 0.15713 0.0
H622 H 0.79254 0.50331 0.21401 0.0
C623 C 0.56149 0.37118 0.15724 0.0
C624 C 0.56133 0.39021 0.21265 0.0
C625 C 0.55507 0.34349 0.17867 0.0
C626 C 0.54903 0.33507 0.25756 0.0
C627 C 0.5466 0.35335 0.31229 0.0
C628 C 0.55247 0.38064 0.28891 0.0
C629 C 0.55695 0.32412 0.11819 0.0
C630 C 0.54054 0.34527 0.3971 0.0
C631 C 0.52634 0.25834 0.3111 0.0
C632 C 0.55289 0.26045 0.32553 0.0
C633 C 0.52454 0.28256 0.28965 0.0
C634 C 0.54984 0.30938 0.28479 0.0
C635 C 0.57652 0.31175 0.30345 0.0
C636 C 0.57775 0.28711 0.32242 0.0
C637 C 0.49585 0.27919 0.26841 0.0
C638 C 0.60391 0.34017 0.30117 0.0
H639 H 0.56791 0.37834 0.09797 0.0
H640 H 0.55217 0.39519 0.3321 0.0
H641 H 0.57691 0.32332 0.1272 0.0
H642 H 0.53883 0.30198 0.12387 0.0
H643 H 0.55701 0.33177 0.05805 0.0
H644 H 0.53502 0.35977 0.42932 0.0
H645 H 0.52283 0.32296 0.40344 0.0
H646 H 0.55975 0.34649 0.42474 0.0
H647 H 0.50717 0.23754 0.31254 0.0
H648 H 0.59823 0.2886 0.3339 0.0
H649 H 0.49519 0.28281 0.205 0.0
H650 H 0.49243 0.29539 0.29902 0.0
H651 H 0.47801 0.25754 0.28263 0.0
H652 H 0.60839 0.34819 0.24047 0.0
H653 H 0.62247 0.3386 0.32327 0.0
H654 H 0.60181 0.35627 0.33662 0.0
C655 C 0.68302 0.24113 0.32796 0.0
C656 C 0.66524 0.21162 0.31958 0.0
C657 C 0.7111 0.25446 0.30153 0.0
C658 C 0.72133 0.23783 0.26421 0.0
C659 C 0.70396 0.20771 0.25971 0.0
C660 C 0.67597 0.19484 0.28819 0.0
C661 C 0.7292 0.2866 0.3095 0.0
C662 C 0.71405 0.18931 0.22004 0.0
C663 C 0.77701 0.28766 0.12546 0.0
C664 C 0.80127 0.29835 0.17328 0.0
C665 C 0.75095 0.26485 0.1504 0.0
C666 C 0.7493 0.25288 0.22493 0.0
C667 C 0.77445 0.26099 0.26842 0.0
C668 C 0.80026 0.28362 0.24181 0.0
C669 C 0.72463 0.25594 0.10109 0.0
C670 C 0.77363 0.24834 0.34744 0.0
H671 H 0.67457 0.25394 0.35274 0.0
H672 H 0.66195 0.17198 0.28114 0.0
H673 H 0.75018 0.2924 0.33602 0.0
H674 H 0.73325 0.29661 0.25105 0.0
H675 H 0.71881 0.29589 0.34583 0.0
H676 H 0.70142 0.1666 0.23844 0.0
H677 H 0.7115 0.19021 0.15613 0.0
H678 H 0.73694 0.1971 0.23219 0.0
H679 H 0.77776 0.29842 0.07145 0.0
H680 H 0.81913 0.29119 0.2782 0.0
H681 H 0.71233 0.26567 0.12516 0.0
H682 H 0.71063 0.23236 0.10197 0.0
H683 H 0.7301 0.26303 0.03973 0.0
H684 H 0.76656 0.25862 0.39134 0.0
H685 H 0.79499 0.25193 0.36525 0.0
H686 H 0.75824 0.22503 0.34811 0.0
C687 C 0.45939 0.72381 0.61638 0.0
C688 C 0.47005 0.72206 0.6895 0.0
C689 C 0.44606 0.74027 0.6059 0.0
C690 C 0.44419 0.75596 0.66957 0.0
C691 C 0.4568 0.75589 0.74201 0.0
C692 C 0.46917 0.7385 0.75153 0.0
C693 C 0.43223 0.73921 0.52836 0.0
C694 C 0.45603 0.77311 0.81047 0.0
C695 C 0.42179 0.81132 0.62791 0.0
C696 C 0.39324 0.79674 0.65154 0.0
C697 C 0.43887 0.79848 0.63436 0.0
C698 C 0.42671 0.77014 0.66261 0.0
C699 C 0.39764 0.75511 0.68467 0.0
C700 C 0.38137 0.76882 0.68013 0.0
C701 C 0.46998 0.81539 0.61254 0.0
C702 C 0.38369 0.72454 0.71291 0.0
H703 H 0.45979 0.71085 0.56857 0.0
H704 H 0.47758 0.73724 0.80796 0.0
H705 H 0.40871 0.72793 0.53524 0.0
H706 H 0.43886 0.76113 0.50751 0.0
H707 H 0.4376 0.72791 0.48311 0.0
H708 H 0.47009 0.77382 0.85891 0.0
H709 H 0.46269 0.79535 0.79238 0.0
H710 H 0.4339 0.76349 0.83261 0.0
H711 H 0.43098 0.83306 0.60655 0.0
H712 H 0.35921 0.75755 0.69787 0.0
H713 H 0.47477 0.80415 0.5659 0.0
H714 H 0.48345 0.81713 0.66357 0.0
H715 H 0.47617 0.83729 0.59211 0.0
H716 H 0.38649 0.71092 0.66925 0.0
H717 H 0.36052 0.71546 0.72383 0.0
H718 H 0.39406 0.7234 0.76767 0.0
C719 C 0.16169 0.61348 0.60561 0.0
C720 C 0.14752 0.6 0.67451 0.0
C721 C 0.17759 0.64327 0.60055 0.0
C722 C 0.179 0.66001 0.66562 0.0
C723 C 0.1624 0.64671 0.73242 0.0
C724 C 0.14689 0.6167 0.73634 0.0
C725 C 0.19508 0.65657 0.52831 0.0
C726 C 0.16282 0.66403 0.80204 0.0
C727 C 0.25126 0.72554 0.6926 0.0
C728 C 0.24712 0.74692 0.65895 0.0
C729 C 0.22894 0.69732 0.69699 0.0
C730 C 0.20162 0.69043 0.66836 0.0
C731 C 0.19699 0.71207 0.63658 0.0
C732 C 0.21999 0.74013 0.63128 0.0
C733 C 0.2349 0.67473 0.72991 0.0
C734 C 0.16796 0.70549 0.60716 0.0
H735 H 0.16175 0.60076 0.55672 0.0
H736 H 0.13562 0.60644 0.7893 0.0
H737 H 0.19288 0.67501 0.50865 0.0
H738 H 0.21797 0.66472 0.54184 0.0
H739 H 0.18882 0.64099 0.47954 0.0
H740 H 0.14466 0.65132 0.8417 0.0
H741 H 0.18295 0.67125 0.83521 0.0
H742 H 0.16208 0.68341 0.78344 0.0
H743 H 0.27224 0.73075 0.7139 0.0
H744 H 0.21669 0.75678 0.60624 0.0
H745 H 0.23105 0.65851 0.68445 0.0
H746 H 0.22024 0.66346 0.7788 0.0
H747 H 0.2572 0.68385 0.75132 0.0
H748 H 0.16239 0.69201 0.55403 0.0
H749 H 0.16715 0.72522 0.59284 0.0
H750 H 0.15143 0.69316 0.65133 0.0
C751 C 0.35666 0.56614 0.6813 0.0
C752 C 0.37479 0.59126 0.72249 0.0
C753 C 0.32716 0.55556 0.67901 0.0
C754 C 0.31564 0.57064 0.71826 0.0
C755 C 0.33379 0.59602 0.75978 0.0
C756 C 0.36317 0.60596 0.76175 0.0
C757 C 0.30832 0.52825 0.63471 0.0
C758 C 0.32218 0.61274 0.80174 0.0
C759 C 0.24247 0.55637 0.65412 0.0
C760 C 0.22505 0.53724 0.71154 0.0
C761 C 0.27212 0.56775 0.65614 0.0
C762 C 0.28448 0.55958 0.71664 0.0
C763 C 0.26707 0.54046 0.77504 0.0
C764 C 0.23755 0.5296 0.77195 0.0
C765 C 0.29018 0.58834 0.59332 0.0
C766 C 0.27958 0.53119 0.8402 0.0
H767 H 0.3655 0.55465 0.65098 0.0
H768 H 0.37709 0.62552 0.79319 0.0
H769 H 0.2923 0.51208 0.67445 0.0
H770 H 0.29644 0.53236 0.58829 0.0
H771 H 0.32067 0.51907 0.60755 0.0
H772 H 0.33926 0.63232 0.83039 0.0
H773 H 0.31056 0.61912 0.7601 0.0
H774 H 0.30668 0.59913 0.84666 0.0
H775 H 0.23297 0.56248 0.6075 0.0
H776 H 0.22423 0.51475 0.81644 0.0
H777 H 0.30151 0.57924 0.5605 0.0
H778 H 0.30667 0.60872 0.6199 0.0
H779 H 0.27731 0.59312 0.5516 0.0
H780 H 0.29071 0.52031 0.81571 0.0
H781 H 0.26308 0.5164 0.88153 0.0
H782 H 0.29566 0.55017 0.87304 0.0
C783 C 0.00595 0.17458 0.71975 0.0
C784 C 0.02661 0.17173 0.76247 0.0
C785 C 0.0073 0.17644 0.63843 0.0
C786 C 0.02983 0.17545 0.5995 0.0
C787 C 0.05016 0.17161 0.64195 0.0
C788 C 0.04824 0.16968 0.72301 0.0
C789 C 0.98507 0.18016 0.59433 0.0
C790 C 0.07438 0.17031 0.60195 0.0
C791 C 0.02216 0.15648 0.38627 0.0
C792 C 0.03804 0.18352 0.35169 0.0
C793 C 0.01899 0.15362 0.46692 0.0
C794 C 0.03222 0.17837 0.51411 0.0
C795 C 0.04835 0.20575 0.48001 0.0
C796 C 0.05101 0.20802 0.39883 0.0
C797 C 0.00154 0.12411 0.50158 0.0
C798 C 0.0629 0.23254 0.52931 0.0
H799 H 0.98917 0.17615 0.74986 0.0
H800 H 0.06424 0.16737 0.75552 0.0
H801 H -0.0046 0.20099 0.56349 0.0
H802 H 0.9747 0.16315 0.54949 0.0
H803 H 0.96833 0.17944 0.6332 0.0
H804 H 0.0881 0.1667 0.64357 0.0
H805 H 0.06584 0.15283 0.55808 0.0
H806 H 0.08784 0.19062 0.57048 0.0
H807 H 0.01188 0.1374 0.35031 0.0
H808 H 0.06326 0.22894 0.37243 0.0
H809 H 0.98406 0.12318 0.53744 0.0
H810 H 0.01511 0.11939 0.54065 0.0
H811 H 0.99207 0.1071 0.45634 0.0
H812 H 0.04694 0.2344 0.56561 0.0
H813 H 0.07439 0.25221 0.4936 0.0
H814 H 0.07839 0.23131 0.5696 0.0
C815 C 0.84647 0.87734 0.67289 0.0
C816 C 0.8393 0.85079 0.70612 0.0
C817 C 0.84236 0.87965 0.59324 0.0
C818 C 0.83131 0.85493 0.54578 0.0
C819 C 0.82422 0.82812 0.57881 0.0
C820 C 0.82815 0.82635 0.6588 0.0
C821 C 0.84997 0.90853 0.5598 0.0
C822 C 0.81291 0.80139 0.52946 0.0
C823 C 0.80256 0.85173 0.34165 0.0
C824 C 0.82582 0.85544 0.29717 0.0
C825 C 0.8043 0.85265 0.42341 0.0
C826 C 0.82984 0.85741 0.46038 0.0
C827 C 0.85377 0.86269 0.41544 0.0
C828 C 0.85149 0.86175 0.33453 0.0
C829 C 0.77853 0.84733 0.47015 0.0
C830 C 0.88142 0.86792 0.45268 0.0
H831 H 0.85463 0.89624 0.70944 0.0
H832 H 0.82246 0.80578 0.68432 0.0
H833 H 0.86779 0.91537 0.51804 0.0
H834 H 0.83154 0.90713 0.52706 0.0
H835 H 0.85644 0.92525 0.60556 0.0
H836 H 0.8073 0.78202 0.56476 0.0
H837 H 0.79369 0.79791 0.49667 0.0
H838 H 0.82919 0.80395 0.48608 0.0
H839 H 0.78277 0.84699 0.31286 0.0
H840 H 0.86979 0.86525 0.30036 0.0
H841 H 0.78463 0.86401 0.51576 0.0
H842 H 0.76973 0.82641 0.50017 0.0
H843 H 0.76148 0.84708 0.43304 0.0
H844 H 0.8891 0.88571 0.4954 0.0
H845 H 0.89849 0.87321 0.40919 0.0
H846 H 0.87781 0.84853 0.48489 0.0
C847 C 0.18085 0.95215 0.82362 0.0
C848 C 0.20188 0.97696 0.86102 0.0
C849 C 0.18031 0.94939 0.74269 0.0
C850 C 0.20149 0.97184 0.69808 0.0
C851 C 0.22371 -0.00376 0.73543 0.0
C852 C 0.2236 -0.00141 0.81676 0.0
C853 C 0.1563 0.92303 0.7047 0.0
C854 C 0.24679 0.02046 0.68926 0.0
C855 C 0.2074 0.95788 0.48456 0.0
C856 C 0.1919 0.96957 0.44953 0.0
C857 C 0.21082 0.95847 0.56569 0.0
C858 C 0.19848 0.97106 0.61238 0.0
C859 C 0.1824 0.9824 0.57759 0.0
C860 C 0.17925 0.98145 0.49663 0.0
C861 C 0.22797 0.94605 0.60138 0.0
C862 C 0.16866 -0.00426 0.62589 0.0
H863 H 0.16411 0.93514 0.85733 0.0
H864 H 0.24009 0.01764 0.84534 0.0
H865 H 0.14359 0.9292 0.66653 0.0
H866 H 0.1651 0.91245 0.6674 0.0
H867 H 0.14175 0.90729 0.74799 0.0
H868 H 0.26412 0.03643 0.7272 0.0
H869 H 0.25618 0.01207 0.64649 0.0
H870 H 0.23741 0.0315 0.65595 0.0
H871 H 0.21734 0.94874 0.4486 0.0
H872 H 0.16723 0.99052 0.47023 0.0
H873 H 0.21499 0.92949 0.64493 0.0
H874 H 0.24678 0.96307 0.63269 0.0
H875 H 0.23552 0.93632 0.55705 0.0
H876 H 0.1535 0.97984 0.6678 0.0
H877 H 0.15693 0.00367 0.58963 0.0
H878 H 0.18517 0.01393 0.6603 0.0
C879 C 0.58955 0.49978 0.51338 0.0
C880 C 0.61628 0.50843 0.47967 0.0
C881 C 0.58663 0.50064 0.59414 0.0
C882 C 0.61102 0.51056 0.64233 0.0
C883 C 0.63825 0.52064 0.60863 0.0
C884 C 0.64056 0.51946 0.52754 0.0
C885 C 0.55728 0.48981 0.62812 0.0
C886 C 0.66475 0.5314 0.65846 0.0
C887 C 0.60804 0.52736 0.85575 0.0
C888 C 0.60495 0.50251 0.89141 0.0
C889 C 0.60951 0.53017 0.77437 0.0
C890 C 0.60771 0.50757 0.72802 0.0
C891 C 0.6034 0.48202 0.76358 0.0
C892 C 0.60207 0.47981 0.84477 0.0
C893 C 0.61405 0.55769 0.73824 0.0
C894 C 0.60104 0.45728 0.71598 0.0
H895 H 0.57067 0.49163 0.47681 0.0
H896 H 0.66129 0.52637 0.50196 0.0
H897 H 0.5517 0.47104 0.66584 0.0
H898 H 0.55704 0.50658 0.66521 0.0
H899 H 0.54055 0.4834 0.58246 0.0
H900 H 0.68453 0.54089 0.62314 0.0
H901 H 0.66613 0.54773 0.70043 0.0
H902 H 0.66367 0.51342 0.69281 0.0
H903 H 0.6104 0.54504 0.89141 0.0
H904 H 0.59943 0.46044 0.87181 0.0
H905 H 0.59818 0.5531 0.69131 0.0
H906 H 0.63549 0.56909 0.71128 0.0
H907 H 0.61244 0.57214 0.78164 0.0
H908 H 0.58369 0.45046 0.67214 0.0
H909 H 0.5967 0.43853 0.75256 0.0
H910 H 0.62118 0.46412 0.68383 0.0
C911 C 0.54318 0.17858 0.67701 0.0
C912 C 0.56437 0.17783 0.63193 0.0
C913 C 0.54466 0.17869 0.75841 0.0
C914 C 0.56787 0.17803 0.79499 0.0
C915 C 0.58986 0.17836 0.74999 0.0
C916 C 0.58787 0.1783 0.66887 0.0
C917 C 0.52098 0.17859 0.8052 0.0
C918 C 0.61498 0.1778 0.78744 0.0
C919 C 0.5817 0.19826 0.00755 0.0
C920 C 0.56798 0.17128 0.04323 0.0
C921 C 0.58206 0.20081 0.92653 0.0
C922 C 0.56855 0.17576 0.88042 0.0
C923 C 0.55539 0.14845 0.91575 0.0
C924 C 0.55521 0.14653 -0.00302 0.0
C925 C 0.59631 0.23025 0.89039 0.0
C926 C 0.54104 0.1213 0.86778 0.0
H927 H 0.52503 0.17833 0.64885 0.0
H928 H 0.60448 0.17795 0.63447 0.0
H929 H 0.50956 0.1583 0.8383 0.0
H930 H 0.52995 0.19634 0.84825 0.0
H931 H 0.50529 0.18076 0.76787 0.0
H932 H 0.63105 0.17974 0.74407 0.0
H933 H 0.62555 0.19548 0.83034 0.0
H934 H 0.60744 0.15744 0.81963 0.0
H935 H 0.59163 0.21752 0.0429 0.0
H936 H 0.54467 0.12562 0.02418 0.0
H937 H 0.58031 0.23342 0.85771 0.0
H938 H 0.61271 0.23235 0.84811 0.0
H939 H 0.60664 0.24756 0.93458 0.0
H940 H 0.5232 0.1206 0.83356 0.0
H941 H 0.53247 0.10176 0.90433 0.0
H942 H 0.55638 0.12094 0.82567 0.0
C943 C 0.8848 0.43364 0.47928 0.0
C944 C 0.88754 0.41166 0.44376 0.0
C945 C 0.88626 0.43681 0.56035 0.0
C946 C 0.89025 0.41734 0.60659 0.0
C947 C 0.89315 0.39519 0.57119 0.0
C948 C 0.89168 0.39256 0.4901 0.0
C949 C 0.88339 0.46085 0.59651 0.0
C950 C 0.89731 0.37394 0.61899 0.0
C951 C 0.91399 0.43234 0.81717 0.0
C952 C 0.88801 0.41568 0.85562 0.0
C953 C 0.91498 0.43408 0.73571 0.0
C954 C 0.88942 0.41875 0.6923 0.0
C955 C 0.86305 0.40292 0.7308 0.0
C956 C 0.86266 0.40165 0.81203 0.0
C957 C 0.94343 0.45122 0.696 0.0
C958 C 0.83536 0.38626 0.68614 0.0
H959 H 0.8815 0.44842 0.44381 0.0
H960 H 0.89387 0.37554 0.46309 0.0
H961 H 0.86432 0.45195 0.63443 0.0
H962 H 0.90223 0.47423 0.63383 0.0
H963 H 0.88142 0.47479 0.55205 0.0
H964 H 0.90006 0.35851 0.58215 0.0
H965 H 0.91634 0.38535 0.65717 0.0
H966 H 0.87861 0.36176 0.65728 0.0
H967 H 0.93365 0.44336 0.85045 0.0
H968 H 0.84244 0.38894 0.84119 0.0
H969 H 0.94247 0.46603 0.65271 0.0
H970 H 0.94859 0.43649 0.66392 0.0
H971 H 0.96099 0.46384 0.73798 0.0
H972 H 0.83265 0.40041 0.64416 0.0
H973 H 0.81652 0.37644 0.72504 0.0
H974 H 0.83583 0.36897 0.65204 0.0
C975 C 0.30346 0.84733 0.30918 0.0
C976 C 0.32871 0.85619 0.35169 0.0
C977 C 0.30416 0.85031 0.22793 0.0
C978 C 0.33072 0.86253 0.18921 0.0
C979 C 0.35633 0.87309 0.23239 0.0
C980 C 0.355 0.86971 0.3131 0.0
C981 C 0.27648 0.83908 0.18325 0.0
C982 C 0.38508 0.88652 0.19307 0.0
C983 C 0.3344 0.83632 -0.01158 0.0
C984 C 0.33799 0.8592 0.94166 0.0
C985 C 0.33128 0.83694 0.06894 0.0
C986 C 0.33176 0.86104 0.10351 0.0
C987 C 0.33509 0.88414 0.05682 0.0
C988 C 0.33832 0.88302 0.97617 0.0
C989 C 0.32786 0.81192 0.11712 0.0
C990 C 0.33572 0.91018 0.09204 0.0
H991 H 0.28312 0.83714 0.33892 0.0
H992 H 0.37468 0.87722 0.34584 0.0
H993 H 0.2779 0.85512 0.14023 0.0
H994 H 0.27228 0.81961 0.15029 0.0
H995 H 0.25811 0.83352 0.22225 0.0
H996 H 0.40302 0.89635 0.23555 0.0
H997 H 0.38701 0.86996 0.1594 0.0
H998 H 0.38723 0.90321 0.15138 0.0
H999 H 0.33405 0.81783 0.96211 0.0
H1000 H 0.34072 0.90062 0.94014 0.0
H1001 H 0.30817 0.80331 0.15249 0.0
H1002 H 0.34612 0.81913 0.1581 0.0
H1003 H 0.32673 0.79431 0.08068 0.0
H1004 H 0.31789 0.90376 0.13353 0.0
H1005 H 0.33435 0.92428 0.04701 0.0
H1006 H 0.35588 0.92272 0.12529 0.0
C1007 C 0.1056 0.46428 0.0313 0.0
C1008 C 0.10006 0.48458 -0.0039 0.0
C1009 C 0.10339 0.46009 0.11186 0.0
C1010 C 0.09573 0.47684 0.15861 0.0
C1011 C 0.08862 0.49633 0.12298 0.0
C1012 C 0.0905 0.49966 0.04176 0.0
C1013 C 0.11119 0.43914 0.1472 0.0
C1014 C 0.07983 0.51454 0.16927 0.0
C1015 C 0.08052 0.45746 0.37272 0.0
C1016 C 0.10678 0.47698 0.40679 0.0
C1017 C 0.07635 0.4572 0.29177 0.0
C1018 C 0.0991 0.47664 0.24431 0.0
C1019 C 0.12576 0.49595 0.27836 0.0
C1020 C 0.12925 0.49589 0.35904 0.0
C1021 C 0.04763 0.43639 0.25717 0.0
C1022 C 0.15048 0.51714 0.22964 0.0
H1023 H 0.11244 0.4521 -0.00405 0.0
H1024 H 0.08583 0.51509 0.01465 0.0
H1025 H 0.13169 0.45108 0.1794 0.0
H1026 H 0.09479 0.42503 0.18954 0.0
H1027 H 0.11355 0.42555 0.10243 0.0
H1028 H 0.09003 0.5366 0.14535 0.0
H1029 H 0.05642 0.50539 0.16319 0.0
H1030 H 0.08523 0.51591 0.23204 0.0
H1031 H 0.06296 0.44301 0.40942 0.0
H1032 H 0.1496 0.51102 0.38491 0.0
H1033 H 0.0494 0.4198 0.22322 0.0
H1034 H 0.04043 0.44756 0.21637 0.0
H1035 H 0.03111 0.42557 0.30258 0.0
H1036 H 0.15563 0.50568 0.18441 0.0
H1037 H 0.16997 0.53036 0.26507 0.0
H1038 H 0.1445 0.53163 0.19923 0.0
C1039 C 0.46837 0.6023 0.38324 0.0
C1040 C 0.48986 0.62675 0.42087 0.0
C1041 C 0.46839 0.59914 0.30237 0.0
C1042 C 0.49055 0.62083 0.25811 0.0
C1043 C 0.51328 0.64465 0.296 0.0
C1044 C 0.51263 0.64739 0.37711 0.0
C1045 C 0.4439 0.57334 0.2639 0.0
C1046 C 0.53744 0.66803 0.25047 0.0
C1047 C 0.49699 0.60802 0.04342 0.0
C1048 C 0.48312 0.62151 0.00887 0.0
C1049 C 0.4994 0.60728 0.12476 0.0
C1050 C 0.48783 0.6205 0.17217 0.0
C1051 C 0.47331 0.63357 0.13767 0.0
C1052 C 0.47108 0.63385 0.0566 0.0
C1053 C 0.51498 0.59311 0.1597 0.0
C1054 C 0.46039 0.64764 0.18641 0.0
H1055 H 0.45091 0.58594 0.4166 0.0
H1056 H 0.52955 0.66611 0.40582 0.0
H1057 H 0.43162 0.58025 0.22642 0.0
H1058 H 0.45215 0.56244 0.22582 0.0
H1059 H 0.42909 0.55767 0.30693 0.0
H1060 H 0.55499 0.68339 0.28894 0.0
H1061 H 0.54623 0.65869 0.20871 0.0
H1062 H 0.52932 0.67999 0.21611 0.0
H1063 H 0.50645 0.59852 0.00699 0.0
H1064 H 0.46022 0.64421 0.03063 0.0
H1065 H 0.5025 0.57862 0.20788 0.0
H1066 H 0.5356 0.60974 0.18455 0.0
H1067 H 0.51939 0.58062 0.11587 0.0
H1068 H 0.44465 0.63189 0.22753 0.0
H1069 H 0.44953 0.65659 0.15039 0.0
H1070 H 0.47727 0.66522 0.22164 0.0
loop_
_geom_bond_atom_site_label_1
_geom_bond_atom_site_label_2
_geom_bond_distance
_geom_bond_site_symmetry_2
_ccdc_geom_bond_type
O0 Zn1 1.953 . S
O0 C16 1.227 1_655 S
Zn1 O0 1.953 . S
Zn1 O2 1.949 1_656 S
Zn1 O8 1.923 . S
Zn1 O13 1.924 . S
O2 Zn1 1.949 1_454 S
O2 Zn3 1.923 . S
O2 Zn4 1.950 1_554 S
O2 Zn5 1.945 . S
Zn3 O2 1.923 . S
Zn3 O6 1.933 . S
Zn3 O9 1.941 1_455 S
Zn3 O10 1.965 . S
Zn4 O2 1.950 1_556 S
Zn4 O11 1.938 . S
Zn4 O12 1.906 . S
Zn4 O22 1.953 . S
Zn5 O2 1.945 . S
Zn5 O7 1.932 . S
Zn5 O14 1.977 . S
Zn5 O15 1.910 1_455 S
O6 Zn3 1.933 . S
O6 C17 1.226 . S
O7 Zn5 1.932 . S
O7 C17 1.307 . S
O8 Zn1 1.923 . S
O8 C19 1.245 1_556 S
O9 Zn3 1.941 1_655 S
O9 C19 1.283 . S
O10 Zn3 1.965 . S
O10 C18 1.303 1_554 S
O11 Zn4 1.938 . S
O11 C18 1.247 . S
O12 Zn4 1.906 . S
O12 C20 1.304 1_556 S
O13 Zn1 1.924 . S
O13 C21 1.311 1_556 S
O14 Zn5 1.977 . S
O14 C20 1.272 . S
O15 Zn5 1.910 1_655 S
O15 C21 1.231 . S
C16 O0 1.227 1_455 S
C16 O22 1.296 . S
C17 O6 1.226 . S
C17 O7 1.307 . S
C18 O10 1.303 1_556 S
C18 O11 1.247 . S
C19 O8 1.245 1_554 S
C19 O9 1.283 . S
C20 O12 1.304 1_554 S
C20 O14 1.272 . S
C21 O13 1.311 1_554 S
C21 O15 1.231 . S
O22 Zn4 1.953 . S
O22 C16 1.296 . S
O23 Zn24 1.953 . S
O23 C39 1.225 . S
Zn24 O23 1.953 . S
Zn24 O25 1.949 . S
Zn24 O31 1.919 . S
Zn24 O36 1.924 . S
O25 Zn24 1.949 . S
O25 Zn26 1.923 1_554 S
O25 Zn27 1.950 . S
O25 Zn28 1.945 1_554 S
Zn26 O25 1.923 1_556 S
Zn26 O29 1.933 . S
Zn26 O32 1.941 . S
Zn26 O33 1.965 . S
Zn27 O25 1.950 . S
Zn27 O34 1.938 . S
Zn27 O35 1.906 . S
Zn27 O45 1.953 . S
Zn28 O25 1.945 1_556 S
Zn28 O30 1.932 . S
Zn28 O37 1.977 . S
Zn28 O38 1.910 . S
O29 Zn26 1.933 . S
O29 C40 1.226 . S
O30 Zn28 1.932 . S
O30 C40 1.307 . S
O31 Zn24 1.919 . S
O31 C42 1.253 1_554 S
O32 Zn26 1.941 . S
O32 C42 1.283 . S
O33 Zn26 1.965 . S
O33 C41 1.303 1_556 S
O34 Zn27 1.938 . S
O34 C41 1.247 . S
O35 Zn27 1.906 . S
O35 C43 1.304 1_554 S
O36 Zn24 1.924 . S
O36 C44 1.311 . S
O37 Zn28 1.977 . S
O37 C43 1.272 . S
O38 Zn28 1.910 . S
O38 C44 1.231 1_556 S
C39 O23 1.225 . S
C39 O45 1.298 . S
C40 O29 1.226 . S
C40 O30 1.307 . S
C41 O33 1.303 1_554 S
C41 O34 1.247 . S
C42 O31 1.253 1_556 S
C42 O32 1.283 . S
C43 O35 1.304 1_556 S
C43 O37 1.272 . S
C44 O36 1.311 . S
C44 O38 1.231 1_554 S
O45 Zn27 1.953 . S
O45 C39 1.298 . S
O46 Zn47 1.953 . S
O46 C62 1.225 . S
Zn47 O46 1.953 . S
Zn47 O48 1.949 1_556 S
Zn47 O54 1.919 . S
Zn47 O59 1.924 . S
O48 Zn47 1.949 1_554 S
O48 Zn49 1.923 . S
O48 Zn50 1.950 1_544 S
O48 Zn51 1.945 . S
Zn49 O48 1.923 . S
Zn49 O52 1.933 1_545 S
Zn49 O55 1.941 . S
Zn49 O56 1.965 1_545 S
Zn50 O48 1.950 1_566 S
Zn50 O57 1.938 . S
Zn50 O58 1.906 . S
Zn50 O68 1.956 . S
Zn51 O48 1.945 . S
Zn51 O53 1.932 . S
Zn51 O60 1.977 1_545 S
Zn51 O61 1.910 . S
O52 Zn49 1.933 1_565 S
O52 C63 1.226 1_565 S
O53 Zn51 1.932 . S
O53 C63 1.307 . S
O54 Zn47 1.919 . S
O54 C65 1.253 1_556 S
O55 Zn49 1.941 . S
O55 C65 1.283 . S
O56 Zn49 1.965 1_565 S
O56 C64 1.303 1_554 S
O57 Zn50 1.938 . S
O57 C64 1.247 . S
O58 Zn50 1.906 . S
O58 C66 1.304 1_556 S
O59 Zn47 1.924 . S
O59 C67 1.311 1_556 S
O60 Zn51 1.977 1_565 S
O60 C66 1.272 . S
O61 Zn51 1.910 . S
O61 C67 1.231 . S
C62 O46 1.225 . S
C62 O68 1.294 1_545 S
C63 O52 1.226 1_545 S
C63 O53 1.307 . S
C64 O56 1.303 1_556 S
C64 O57 1.247 . S
C65 O54 1.253 1_554 S
C65 O55 1.283 . S
C66 O58 1.304 1_554 S
C66 O60 1.272 . S
C67 O59 1.311 1_554 S
C67 O61 1.231 . S
O68 Zn50 1.956 . S
O68 C62 1.294 1_565 S
O69 Zn70 1.953 . S
O69 C85 1.225 . S
Zn70 O69 1.953 . S
Zn70 O71 1.949 . S
Zn70 O77 1.919 . S
Zn70 O82 1.924 . S
O71 Zn70 1.949 . S
O71 Zn72 1.923 . S
O71 Zn73 1.950 . S
O71 Zn74 1.945 . S
Zn72 O71 1.923 . S
Zn72 O75 1.933 . S
Zn72 O78 1.941 . S
Zn72 O79 1.965 . S
Zn73 O71 1.950 . S
Zn73 O80 1.938 . S
Zn73 O81 1.906 . S
Zn73 O91 1.953 . S
Zn74 O71 1.945 . S
Zn74 O76 1.932 . S
Zn74 O83 1.977 . S
Zn74 O84 1.910 . S
O75 Zn72 1.933 . S
O75 C86 1.226 . S
O76 Zn74 1.932 . S
O76 C86 1.307 . S
O77 Zn70 1.919 . S
O77 C88 1.253 . S
O78 Zn72 1.941 . S
O78 C88 1.283 . S
O79 Zn72 1.965 . S
O79 C87 1.303 . S
O80 Zn73 1.938 . S
O80 C87 1.247 . S
O81 Zn73 1.906 . S
O81 C89 1.304 . S
O82 Zn70 1.924 . S
O82 C90 1.311 . S
O83 Zn74 1.977 . S
O83 C89 1.272 . S
O84 Zn74 1.910 . S
O84 C90 1.231 . S
C85 O69 1.225 . S
C85 O91 1.298 . S
C86 O75 1.226 . S
C86 O76 1.307 . S
C87 O79 1.303 . S
C87 O80 1.247 . S
C88 O77 1.253 . S
C88 O78 1.283 . S
C89 O81 1.304 . S
C89 O83 1.272 . S
C90 O82 1.311 . S
C90 O84 1.231 . S
O91 Zn73 1.953 . S
O91 C85 1.298 . S
O92 Zn93 1.953 . S
O92 C108 1.225 . S
Zn93 O92 1.953 . S
Zn93 O94 1.949 . S
Zn93 O100 1.919 . S
Zn93 O105 1.924 . S
O94 Zn93 1.949 . S
O94 Zn95 1.923 . S
O94 Zn96 1.950 . S
O94 Zn97 1.945 . S
Zn95 O94 1.923 . S
Zn95 O98 1.933 . S
Zn95 O101 1.941 . S
Zn95 O102 1.965 . S
Zn96 O94 1.950 . S
Zn96 O103 1.938 . S
Zn96 O104 1.906 . S
Zn96 O114 1.953 . S
Zn97 O94 1.945 . S
Zn97 O99 1.932 . S
Zn97 O106 1.977 . S
Zn97 O107 1.910 . S
O98 Zn95 1.933 . S
O98 C109 1.226 . S
O99 Zn97 1.932 . S
O99 C109 1.307 . S
O100 Zn93 1.919 . S
O100 C111 1.253 . S
O101 Zn95 1.941 . S
O101 C111 1.283 . S
O102 Zn95 1.965 . S
O102 C110 1.303 . S
O103 Zn96 1.938 . S
O103 C110 1.247 . S
O104 Zn96 1.906 . S
O104 C112 1.304 . S
O105 Zn93 1.924 . S
O105 C113 1.311 . S
O106 Zn97 1.977 . S
O106 C112 1.272 . S
O107 Zn97 1.910 . S
O107 C113 1.231 . S
C108 O92 1.225 . S
C108 O114 1.298 . S
C109 O98 1.226 . S
C109 O99 1.307 . S
C110 O102 1.303 . S
C110 O103 1.247 . S
C111 O100 1.253 . S
C111 O101 1.283 . S
C112 O104 1.304 . S
C112 O106 1.272 . S
C113 O105 1.311 . S
C113 O107 1.231 . S
O114 Zn96 1.953 . S
O114 C108 1.298 . S
O115 Zn116 1.953 . S
O115 C131 1.225 . S
Zn116 O115 1.953 . S
Zn116 O117 1.949 . S
Zn116 O123 1.919 . S
Zn116 O128 1.924 . S
O117 Zn116 1.949 . S
O117 Zn118 1.923 . S
O117 Zn119 1.950 . S
O117 Zn120 1.945 . S
Zn118 O117 1.923 . S
Zn118 O121 1.933 . S
Zn118 O124 1.941 . S
Zn118 O125 1.965 . S
Zn119 O117 1.950 . S
Zn119 O126 1.938 . S
Zn119 O127 1.906 . S
Zn119 O137 1.953 . S
Zn120 O117 1.945 . S
Zn120 O122 1.932 . S
Zn120 O129 1.977 . S
Zn120 O130 1.910 . S
O121 Zn118 1.933 . S
O121 C132 1.226 . S
O122 Zn120 1.932 . S
O122 C132 1.307 . S
O123 Zn116 1.919 . S
O123 C134 1.253 . S
O124 Zn118 1.941 . S
O124 C134 1.283 . S
O125 Zn118 1.965 . S
O125 C133 1.303 . S
O126 Zn119 1.938 . S
O126 C133 1.247 . S
O127 Zn119 1.906 . S
O127 C135 1.304 . S
O128 Zn116 1.924 . S
O128 C136 1.311 . S
O129 Zn120 1.977 . S
O129 C135 1.272 . S
O130 Zn120 1.910 . S
O130 C136 1.231 . S
C131 O115 1.225 . S
C131 O137 1.298 . S
C132 O121 1.226 . S
C132 O122 1.307 . S
C133 O125 1.303 . S
C133 O126 1.247 . S
C134 O123 1.253 . S
C134 O124 1.283 . S
C135 O127 1.304 . S
C135 O129 1.272 . S
C136 O128 1.311 . S
C136 O130 1.231 . S
O137 Zn119 1.953 . S
O137 C131 1.298 . S
O138 Zn139 1.953 . S
O138 C154 1.225 . S
Zn139 O138 1.953 . S
Zn139 O140 1.949 . S
Zn139 O146 1.919 . S
Zn139 O151 1.924 . S
O140 Zn139 1.949 . S
O140 Zn141 1.923 . S
O140 Zn142 1.950 . S
O140 Zn143 1.945 . S
Zn141 O140 1.923 . S
Zn141 O144 1.933 . S
Zn141 O147 1.941 . S
Zn141 O148 1.965 . S
Zn142 O140 1.950 . S
Zn142 O149 1.938 . S
Zn142 O150 1.906 . S
Zn142 O160 1.953 . S
Zn143 O140 1.945 . S
Zn143 O145 1.932 . S
Zn143 O152 1.977 . S
Zn143 O153 1.910 . S
O144 Zn141 1.933 . S
O144 C155 1.226 . S
O145 Zn143 1.932 . S
O145 C155 1.307 . S
O146 Zn139 1.919 . S
O146 C157 1.253 . S
O147 Zn141 1.941 . S
O147 C157 1.283 . S
O148 Zn141 1.965 . S
O148 C156 1.303 . S
O149 Zn142 1.938 . S
O149 C156 1.247 . S
O150 Zn142 1.906 . S
O150 C158 1.304 . S
O151 Zn139 1.924 . S
O151 C159 1.311 . S
O152 Zn143 1.977 . S
O152 C158 1.272 . S
O153 Zn143 1.910 . S
O153 C159 1.231 . S
C154 O138 1.225 . S
C154 O160 1.298 . S
C155 O144 1.226 . S
C155 O145 1.307 . S
C156 O148 1.303 . S
C156 O149 1.247 . S
C157 O146 1.253 . S
C157 O147 1.283 . S
C158 O150 1.304 . S
C158 O152 1.272 . S
C159 O151 1.311 . S
C159 O153 1.231 . S
O160 Zn142 1.953 . S
O160 C154 1.298 . S
O161 Zn162 1.953 . S
O161 C177 1.225 . S
Zn162 O161 1.953 . S
Zn162 O163 1.949 . S
Zn162 O169 1.919 . S
Zn162 O174 1.924 . S
O163 Zn162 1.949 . S
O163 Zn164 1.923 . S
O163 Zn165 1.950 . S
O163 Zn166 1.945 . S
Zn164 O163 1.923 . S
Zn164 O167 1.933 . S
Zn164 O170 1.941 . S
Zn164 O171 1.965 . S
Zn165 O163 1.950 . S
Zn165 O172 1.938 . S
Zn165 O173 1.906 . S
Zn165 O183 1.953 . S
Zn166 O163 1.945 . S
Zn166 O168 1.932 . S
Zn166 O175 1.977 . S
Zn166 O176 1.910 . S
O167 Zn164 1.933 . S
O167 C178 1.226 . S
O168 Zn166 1.932 . S
O168 C178 1.307 . S
O169 Zn162 1.919 . S
O169 C180 1.253 . S
O170 Zn164 1.941 . S
O170 C180 1.283 . S
O171 Zn164 1.965 . S
O171 C179 1.303 . S
O172 Zn165 1.938 . S
O172 C179 1.247 . S
O173 Zn165 1.906 . S
O173 C181 1.304 . S
O174 Zn162 1.924 . S
O174 C182 1.311 . S
O175 Zn166 1.977 . S
O175 C181 1.272 . S
O176 Zn166 1.910 . S
O176 C182 1.231 . S
C177 O161 1.225 . S
C177 O183 1.298 . S
C178 O167 1.226 . S
C178 O168 1.307 . S
C179 O171 1.303 . S
C179 O172 1.247 . S
C180 O169 1.253 . S
C180 O170 1.283 . S
C181 O173 1.304 . S
C181 O175 1.272 . S
C182 O174 1.311 . S
C182 O176 1.231 . S
O183 Zn165 1.953 . S
O183 C177 1.298 . S
O184 Zn185 1.953 . S
O184 C200 1.225 . S
Zn185 O184 1.953 . S
Zn185 O186 1.949 . S
Zn185 O192 1.919 . S
Zn185 O197 1.924 . S
O186 Zn185 1.949 . S
O186 Zn187 1.923 . S
O186 Zn188 1.950 . S
O186 Zn189 1.945 . S
Zn187 O186 1.923 . S
Zn187 O190 1.933 . S
Zn187 O193 1.941 . S
Zn187 O194 1.965 . S
Zn188 O186 1.950 . S
Zn188 O195 1.938 . S
Zn188 O196 1.906 . S
Zn188 O206 1.953 . S
Zn189 O186 1.945 . S
Zn189 O191 1.932 . S
Zn189 O198 1.977 . S
Zn189 O199 1.910 . S
O190 Zn187 1.933 . S
O190 C201 1.226 . S
O191 Zn189 1.932 . S
O191 C201 1.307 . S
O192 Zn185 1.919 . S
O192 C203 1.253 . S
O193 Zn187 1.941 . S
O193 C203 1.283 . S
O194 Zn187 1.965 . S
O194 C202 1.303 . S
O195 Zn188 1.938 . S
O195 C202 1.247 . S
O196 Zn188 1.906 . S
O196 C204 1.304 . S
O197 Zn185 1.924 . S
O197 C205 1.311 . S
O198 Zn189 1.977 . S
O198 C204 1.272 . S
O199 Zn189 1.910 . S
O199 C205 1.231 . S
C200 O184 1.225 . S
C200 O206 1.298 . S
C201 O190 1.226 . S
C201 O191 1.307 . S
C202 O194 1.303 . S
C202 O195 1.247 . S
C203 O192 1.253 . S
C203 O193 1.283 . S
C204 O196 1.304 . S
C204 O198 1.272 . S
C205 O197 1.311 . S
C205 O199 1.231 . S
O206 Zn188 1.953 . S
O206 C200 1.298 . S
C207 C208 1.391 . S
C207 C209 1.394 . S
C207 H223 0.931 1_556 S
C208 C207 1.391 . S
C208 C212 1.376 . S
C209 C207 1.394 . S
C209 C210 1.369 . S
C209 C213 1.531 . S
C210 C209 1.369 . S
C210 C211 1.410 . S
C210 C218 1.503 . S
C211 C210 1.410 . S
C211 C212 1.392 . S
C211 C214 1.511 . S
C212 C208 1.376 . S
C212 C211 1.392 . S
C212 H224 0.929 . S
C213 C209 1.531 . S
C213 H225 0.960 . S
C213 H226 0.962 . S
C213 H227 0.960 1_556 S
C214 C211 1.511 . S
C214 H228 0.961 . S
C214 H229 0.961 . S
C214 H230 0.961 . S
C215 C216 1.370 . S
C215 C217 1.363 . S
C215 H231 0.931 . S
C216 C215 1.370 . S
C216 C220 1.408 . S
C217 C215 1.363 . S
C217 C218 1.370 . S
C217 C221 1.524 . S
C218 C210 1.503 . S
C218 C217 1.370 . S
C218 C219 1.403 . S
C219 C218 1.403 . S
C219 C220 1.404 . S
C219 C222 1.539 . S
C220 C216 1.408 . S
C220 C219 1.404 . S
C220 H232 0.930 . S
C221 C217 1.524 . S
C221 H233 0.956 . S
C221 H234 0.961 . S
C221 H235 0.961 . S
C222 C219 1.539 . S
C222 H236 0.958 . S
C222 H237 0.961 . S
C222 H238 0.960 . S
H223 C207 0.931 1_554 S
H224 C212 0.929 . S
H225 C213 0.960 . S
H226 C213 0.962 . S
H227 C213 0.960 1_554 S
H228 C214 0.961 . S
H229 C214 0.961 . S
H230 C214 0.961 . S
H231 C215 0.931 . S
H232 C220 0.930 . S
H233 C221 0.956 . S
H234 C221 0.961 . S
H235 C221 0.961 . S
H236 C222 0.958 . S
H237 C222 0.961 . S
H238 C222 0.960 . S
C239 C240 1.391 . S
C239 C241 1.394 . S
C239 H255 0.931 . S
C240 C239 1.391 . S
C240 C244 1.376 . S
C241 C239 1.394 . S
C241 C242 1.369 . S
C241 C245 1.531 . S
C242 C241 1.369 . S
C242 C243 1.410 . S
C242 C250 1.503 . S
C243 C242 1.410 . S
C243 C244 1.392 . S
C243 C246 1.511 . S
C244 C240 1.376 . S
C244 C243 1.392 . S
C244 H256 0.929 . S
C245 C241 1.531 . S
C245 H257 0.960 . S
C245 H258 0.962 . S
C245 H259 0.960 . S
C246 C243 1.511 . S
C246 H260 0.961 . S
C246 H261 0.961 . S
C246 H262 0.961 . S
C247 C248 1.370 . S
C247 C249 1.363 . S
C247 H263 0.931 . S
C248 C247 1.370 . S
C248 C252 1.408 . S
C249 C247 1.363 . S
C249 C250 1.370 . S
C249 C253 1.524 . S
C250 C242 1.503 . S
C250 C249 1.370 . S
C250 C251 1.403 . S
C251 C250 1.403 . S
C251 C252 1.404 . S
C251 C254 1.539 . S
C252 C248 1.408 . S
C252 C251 1.404 . S
C252 H264 0.930 . S
C253 C249 1.524 . S
C253 H265 0.956 . S
C253 H266 0.961 . S
C253 H267 0.961 . S
C254 C251 1.539 . S
C254 H268 0.958 . S
C254 H269 0.961 . S
C254 H270 0.960 . S
H255 C239 0.931 . S
H256 C244 0.929 . S
H257 C245 0.960 . S
H258 C245 0.962 . S
H259 C245 0.960 . S
H260 C246 0.961 . S
H261 C246 0.961 . S
H262 C246 0.961 . S
H263 C247 0.931 . S
H264 C252 0.930 . S
H265 C253 0.956 . S
H266 C253 0.961 . S
H267 C253 0.961 . S
H268 C254 0.958 . S
H269 C254 0.961 . S
H270 C254 0.960 . S
C271 C272 1.391 . S
C271 C273 1.394 . S
C271 H287 0.931 . S
C272 C271 1.391 . S
C272 C276 1.376 . S
C273 C271 1.394 . S
C273 C274 1.369 . S
C273 C277 1.531 . S
C274 C273 1.369 . S
C274 C275 1.410 . S
C274 C282 1.503 . S
C275 C274 1.410 . S
C275 C276 1.392 . S
C275 C278 1.511 . S
C276 C272 1.376 . S
C276 C275 1.392 . S
C276 H288 0.929 . S
C277 C273 1.531 . S
C277 H289 0.960 . S
C277 H290 0.962 . S
C277 H291 0.960 . S
C278 C275 1.511 . S
C278 H292 0.961 . S
C278 H293 0.961 . S
C278 H294 0.961 . S
C279 C280 1.370 . S
C279 C281 1.363 . S
C279 H295 0.931 . S
C280 C279 1.370 . S
C280 C284 1.408 . S
C281 C279 1.363 . S
C281 C282 1.370 . S
C281 C285 1.524 . S
C282 C274 1.503 . S
C282 C281 1.370 . S
C282 C283 1.403 . S
C283 C282 1.403 . S
C283 C284 1.404 . S
C283 C286 1.539 . S
C284 C280 1.408 . S
C284 C283 1.404 . S
C284 H296 0.930 . S
C285 C281 1.524 . S
C285 H297 0.956 . S
C285 H298 0.961 . S
C285 H299 0.961 . S
C286 C283 1.539 . S
C286 H300 0.958 . S
C286 H301 0.961 . S
C286 H302 0.960 . S
H287 C271 0.931 . S
H288 C276 0.929 . S
H289 C277 0.960 . S
H290 C277 0.962 . S
H291 C277 0.960 . S
H292 C278 0.961 . S
H293 C278 0.961 . S
H294 C278 0.961 . S
H295 C279 0.931 . S
H296 C284 0.930 . S
H297 C285 0.956 . S
H298 C285 0.961 . S
H299 C285 0.961 . S
H300 C286 0.958 . S
H301 C286 0.961 . S
H302 C286 0.960 . S
C303 C304 1.391 . S
C303 C305 1.394 . S
C303 H319 0.931 . S
C304 C303 1.391 . S
C304 C308 1.376 . S
C305 C303 1.394 . S
C305 C306 1.369 . S
C305 C309 1.531 . S
C306 C305 1.369 . S
C306 C307 1.410 . S
C306 C314 1.503 . S
C307 C306 1.410 . S
C307 C308 1.392 . S
C307 C310 1.511 . S
C308 C304 1.376 . S
C308 C307 1.392 . S
C308 H320 0.929 . S
C309 C305 1.531 . S
C309 H321 0.960 . S
C309 H322 0.962 . S
C309 H323 0.960 . S
C310 C307 1.511 . S
C310 H324 0.961 . S
C310 H325 0.961 . S
C310 H326 0.961 . S
C311 C312 1.370 . S
C311 C313 1.363 . S
C311 H327 0.931 . S
C312 C311 1.370 . S
C312 C316 1.408 . S
C313 C311 1.363 . S
C313 C314 1.370 . S
C313 C317 1.524 . S
C314 C306 1.503 . S
C314 C313 1.370 . S
C314 C315 1.403 . S
C315 C314 1.403 . S
C315 C316 1.404 . S
C315 C318 1.539 . S
C316 C312 1.408 . S
C316 C315 1.404 . S
C316 H328 0.930 . S
C317 C313 1.524 . S
C317 H329 0.956 . S
C317 H330 0.961 . S
C317 H331 0.961 . S
C318 C315 1.539 . S
C318 H332 0.958 . S
C318 H333 0.961 . S
C318 H334 0.960 . S
H319 C303 0.931 . S
H320 C308 0.929 . S
H321 C309 0.960 . S
H322 C309 0.962 . S
H323 C309 0.960 . S
H324 C310 0.961 . S
H325 C310 0.961 . S
H326 C310 0.961 . S
H327 C311 0.931 . S
H328 C316 0.930 . S
H329 C317 0.956 . S
H330 C317 0.961 . S
H331 C317 0.961 . S
H332 C318 0.958 . S
H333 C318 0.961 . S
H334 C318 0.960 . S
C335 C336 1.391 . S
C335 C337 1.394 . S
C335 H351 0.931 . S
C336 C335 1.391 . S
C336 C340 1.376 . S
C337 C335 1.394 . S
C337 C338 1.369 . S
C337 C341 1.531 . S
C338 C337 1.369 . S
C338 C339 1.410 . S
C338 C346 1.503 . S
C339 C338 1.410 . S
C339 C340 1.392 . S
C339 C342 1.511 . S
C340 C336 1.376 . S
C340 C339 1.392 . S
C340 H352 0.929 . S
C341 C337 1.531 . S
C341 H353 0.960 . S
C341 H354 0.962 . S
C341 H355 0.960 . S
C342 C339 1.511 . S
C342 H356 0.961 . S
C342 H357 0.961 . S
C342 H358 0.961 . S
C343 C344 1.370 . S
C343 C345 1.363 . S
C343 H359 0.931 . S
C344 C343 1.370 . S
C344 C348 1.408 . S
C345 C343 1.363 . S
C345 C346 1.370 . S
C345 C349 1.524 . S
C346 C338 1.503 . S
C346 C345 1.370 . S
C346 C347 1.403 . S
C347 C346 1.403 . S
C347 C348 1.404 . S
C347 C350 1.539 . S
C348 C344 1.408 . S
C348 C347 1.404 . S
C348 H360 0.930 . S
C349 C345 1.524 . S
C349 H361 0.956 . S
C349 H362 0.961 . S
C349 H363 0.961 . S
C350 C347 1.539 . S
C350 H364 0.958 . S
C350 H365 0.961 . S
C350 H366 0.960 . S
H351 C335 0.931 . S
H352 C340 0.929 . S
H353 C341 0.960 . S
H354 C341 0.962 . S
H355 C341 0.960 . S
H356 C342 0.961 . S
H357 C342 0.961 . S
H358 C342 0.961 . S
H359 C343 0.931 . S
H360 C348 0.930 . S
H361 C349 0.956 . S
H362 C349 0.961 . S
H363 C349 0.961 . S
H364 C350 0.958 . S
H365 C350 0.961 . S
H366 C350 0.960 . S
C367 C368 1.391 . S
C367 C369 1.394 . S
C367 H383 0.931 . S
C368 C367 1.391 . S
C368 C372 1.376 . S
C369 C367 1.394 . S
C369 C370 1.369 . S
C369 C373 1.531 . S
C370 C369 1.369 . S
C370 C371 1.410 . S
C370 C378 1.503 . S
C371 C370 1.410 . S
C371 C372 1.392 . S
C371 C374 1.511 . S
C372 C368 1.376 . S
C372 C371 1.392 . S
C372 H384 0.929 . S
C373 C369 1.531 . S
C373 H385 0.960 . S
C373 H386 0.962 . S
C373 H387 0.960 . S
C374 C371 1.511 . S
C374 H388 0.961 . S
C374 H389 0.961 . S
C374 H390 0.961 . S
C375 C376 1.370 . S
C375 C377 1.363 . S
C375 H391 0.931 . S
C376 C375 1.370 . S
C376 C380 1.408 . S
C377 C375 1.363 . S
C377 C378 1.370 . S
C377 C381 1.524 . S
C378 C370 1.503 . S
C378 C377 1.370 . S
C378 C379 1.403 . S
C379 C378 1.403 . S
C379 C380 1.404 . S
C379 C382 1.539 . S
C380 C376 1.408 . S
C380 C379 1.404 . S
C380 H392 0.930 . S
C381 C377 1.524 . S
C381 H393 0.956 . S
C381 H394 0.961 . S
C381 H395 0.961 . S
C382 C379 1.539 . S
C382 H396 0.958 . S
C382 H397 0.961 . S
C382 H398 0.960 . S
H383 C367 0.931 . S
H384 C372 0.929 . S
H385 C373 0.960 . S
H386 C373 0.962 . S
H387 C373 0.960 . S
H388 C374 0.961 . S
H389 C374 0.961 . S
H390 C374 0.961 . S
H391 C375 0.931 . S
H392 C380 0.930 . S
H393 C381 0.956 . S
H394 C381 0.961 . S
H395 C381 0.961 . S
H396 C382 0.958 . S
H397 C382 0.961 . S
H398 C382 0.960 . S
C399 C400 1.391 . S
C399 C401 1.394 . S
C399 H415 0.931 . S
C400 C399 1.391 . S
C400 C404 1.376 . S
C401 C399 1.394 . S
C401 C402 1.369 . S
C401 C405 1.531 . S
C402 C401 1.369 . S
C402 C403 1.410 . S
C402 C410 1.503 1_455 S
C403 C402 1.410 . S
C403 C404 1.392 . S
C403 C406 1.511 . S
C404 C400 1.376 . S
C404 C403 1.392 . S
C404 H416 0.929 . S
C405 C401 1.531 . S
C405 H417 0.960 1_455 S
C405 H418 0.962 1_455 S
C405 H419 0.960 . S
C406 C403 1.511 . S
C406 H420 0.961 . S
C406 H421 0.961 . S
C406 H422 0.961 . S
C407 C408 1.370 . S
C407 C409 1.363 . S
C407 H423 0.931 . S
C408 C407 1.370 . S
C408 C412 1.408 . S
C409 C407 1.363 . S
C409 C410 1.370 . S
C409 C413 1.524 . S
C410 C402 1.503 1_655 S
C410 C409 1.370 . S
C410 C411 1.403 . S
C411 C410 1.403 . S
C411 C412 1.404 . S
C411 C414 1.539 1_655 S
C412 C408 1.408 . S
C412 C411 1.404 . S
C412 H424 0.930 . S
C413 C409 1.524 . S
C413 H425 0.956 . S
C413 H426 0.961 1_655 S
C413 H427 0.961 . S
C414 C411 1.539 1_455 S
C414 H428 0.958 . S
C414 H429 0.961 . S
C414 H430 0.960 . S
H415 C399 0.931 . S
H416 C404 0.929 . S
H417 C405 0.960 1_655 S
H418 C405 0.962 1_655 S
H419 C405 0.960 . S
H420 C406 0.961 . S
H421 C406 0.961 . S
H422 C406 0.961 . S
H423 C407 0.931 . S
H424 C412 0.930 . S
H425 C413 0.956 . S
H426 C413 0.961 1_455 S
H427 C413 0.961 . S
H428 C414 0.958 . S
H429 C414 0.961 . S
H430 C414 0.960 . S
C431 C432 1.391 . S
C431 C433 1.394 . S
C431 H447 0.931 . S
C432 C431 1.391 . S
C432 C436 1.376 . S
C433 C431 1.394 . S
C433 C434 1.369 . S
C433 C437 1.531 . S
C434 C433 1.369 . S
C434 C435 1.410 . S
C434 C442 1.503 . S
C435 C434 1.410 . S
C435 C436 1.392 . S
C435 C438 1.511 . S
C436 C432 1.376 . S
C436 C435 1.392 . S
C436 H448 0.929 . S
C437 C433 1.531 . S
C437 H449 0.960 . S
C437 H450 0.962 . S
C437 H451 0.960 . S
C438 C435 1.511 . S
C438 H452 0.961 . S
C438 H453 0.961 . S
C438 H454 0.961 . S
C439 C440 1.370 . S
C439 C441 1.363 . S
C439 H455 0.931 . S
C440 C439 1.370 . S
C440 C444 1.408 . S
C441 C439 1.363 . S
C441 C442 1.370 . S
C441 C445 1.524 . S
C442 C434 1.503 . S
C442 C441 1.370 . S
C442 C443 1.403 . S
C443 C442 1.403 . S
C443 C444 1.404 . S
C443 C446 1.539 . S
C444 C440 1.408 . S
C444 C443 1.404 . S
C444 H456 0.930 . S
C445 C441 1.524 . S
C445 H457 0.956 . S
C445 H458 0.961 . S
C445 H459 0.961 . S
C446 C443 1.539 . S
C446 H460 0.958 . S
C446 H461 0.961 . S
C446 H462 0.960 . S
H447 C431 0.931 . S
H448 C436 0.929 . S
H449 C437 0.960 . S
H450 C437 0.962 . S
H451 C437 0.960 . S
H452 C438 0.961 . S
H453 C438 0.961 . S
H454 C438 0.961 . S
H455 C439 0.931 . S
H456 C444 0.930 . S
H457 C445 0.956 . S
H458 C445 0.961 . S
H459 C445 0.961 . S
H460 C446 0.958 . S
H461 C446 0.961 . S
H462 C446 0.960 . S
C463 C464 1.391 . S
C463 C465 1.394 . S
C463 H479 0.931 . S
C464 C463 1.391 . S
C464 C468 1.376 . S
C465 C463 1.394 . S
C465 C466 1.369 . S
C465 C469 1.531 . S
C466 C465 1.369 . S
C466 C467 1.410 . S
C466 C474 1.503 1_545 S
C467 C466 1.410 . S
C467 C468 1.392 . S
C467 C470 1.511 . S
C468 C464 1.376 . S
C468 C467 1.392 . S
C468 H480 0.929 . S
C469 C465 1.531 . S
C469 H481 0.960 1_545 S
C469 H482 0.962 1_545 S
C469 H483 0.960 . S
C470 C467 1.511 . S
C470 H484 0.961 . S
C470 H485 0.961 . S
C470 H486 0.961 . S
C471 C472 1.370 . S
C471 C473 1.363 . S
C471 H487 0.931 . S
C472 C471 1.370 . S
C472 C476 1.408 . S
C473 C471 1.363 . S
C473 C474 1.370 . S
C473 C477 1.524 1_565 S
C474 C466 1.503 1_565 S
C474 C473 1.370 . S
C474 C475 1.403 . S
C475 C474 1.403 . S
C475 C476 1.404 . S
C475 C478 1.539 . S
C476 C472 1.408 . S
C476 C475 1.404 . S
C476 H488 0.930 . S
C477 C473 1.524 1_545 S
C477 H489 0.956 . S
C477 H490 0.961 . S
C477 H491 0.961 1_545 S
C478 C475 1.539 . S
C478 H492 0.958 . S
C478 H493 0.961 . S
C478 H494 0.960 1_565 S
H479 C463 0.931 . S
H480 C468 0.929 . S
H481 C469 0.960 1_565 S
H482 C469 0.962 1_565 S
H483 C469 0.960 . S
H484 C470 0.961 . S
H485 C470 0.961 . S
H486 C470 0.961 . S
H487 C471 0.931 . S
H488 C476 0.930 . S
H489 C477 0.956 . S
H490 C477 0.961 . S
H491 C477 0.961 1_565 S
H492 C478 0.958 . S
H493 C478 0.961 . S
H494 C478 0.960 1_545 S
C495 C496 1.391 . S
C495 C497 1.394 . S
C495 H511 0.931 . S
C496 C495 1.391 . S
C496 C500 1.376 1_556 S
C497 C495 1.394 . S
C497 C498 1.369 . S
C497 C501 1.531 . S
C498 C497 1.369 . S
C498 C499 1.410 1_556 S
C498 C506 1.503 1_556 S
C499 C498 1.410 1_554 S
C499 C500 1.392 . S
C499 C502 1.511 . S
C500 C496 1.376 1_554 S
C500 C499 1.392 . S
C500 H512 0.929 . S
C501 C497 1.531 . S
C501 H513 0.960 . S
C501 H514 0.962 . S
C501 H515 0.960 . S
C502 C499 1.511 . S
C502 H516 0.961 . S
C502 H517 0.961 . S
C502 H518 0.961 . S
C503 C504 1.370 . S
C503 C505 1.363 . S
C503 H519 0.931 . S
C504 C503 1.370 . S
C504 C508 1.408 1_554 S
C505 C503 1.363 . S
C505 C506 1.373 . S
C505 C509 1.524 . S
C506 C498 1.503 1_554 S
C506 C505 1.373 . S
C506 C507 1.401 1_554 S
C507 C506 1.401 1_556 S
C507 C508 1.404 . S
C507 C510 1.539 . S
C508 C504 1.408 1_556 S
C508 C507 1.404 . S
C508 H520 0.930 . S
C509 C505 1.524 . S
C509 H521 0.956 . S
C509 H522 0.961 . S
C509 H523 0.961 . S
C510 C507 1.539 . S
C510 H524 0.958 . S
C510 H525 0.961 . S
C510 H526 0.960 . S
H511 C495 0.931 . S
H512 C500 0.929 . S
H513 C501 0.960 . S
H514 C501 0.962 . S
H515 C501 0.960 . S
H516 C502 0.961 . S
H517 C502 0.961 . S
H518 C502 0.961 . S
H519 C503 0.931 . S
H520 C508 0.930 . S
H521 C509 0.956 . S
H522 C509 0.961 . S
H523 C509 0.961 . S
H524 C510 0.958 . S
H525 C510 0.961 . S
H526 C510 0.960 . S
C527 C528 1.391 1_556 S
C527 C529 1.394 . S
C527 H543 0.931 . S
C528 C527 1.391 1_554 S
C528 C532 1.376 . S
C529 C527 1.394 . S
C529 C530 1.369 . S
C529 C533 1.531 . S
C530 C529 1.369 . S
C530 C531 1.410 1_556 S
C530 C538 1.503 1_565 S
C531 C530 1.410 1_554 S
C531 C532 1.392 . S
C531 C534 1.534 . S
C532 C528 1.376 . S
C532 C531 1.392 . S
C532 H544 0.929 . S
C533 C529 1.531 . S
C533 H545 0.960 1_565 S
C533 H546 0.959 . S
C533 H547 0.960 . S
C534 C531 1.534 . S
C534 H548 0.968 . S
C534 H549 0.944 1_565 S
C534 H550 0.948 1_565 S
C535 C536 1.370 1_554 S
C535 C537 1.363 . S
C535 H551 0.931 . S
C536 C535 1.370 1_556 S
C536 C540 1.408 . S
C537 C535 1.363 . S
C537 C538 1.370 1_554 S
C537 C541 1.524 . S
C538 C530 1.503 1_545 S
C538 C537 1.370 1_556 S
C538 C539 1.403 . S
C539 C538 1.403 . S
C539 C540 1.404 . S
C539 C542 1.539 . S
C540 C536 1.408 . S
C540 C539 1.404 . S
C540 H552 0.930 . S
C541 C537 1.524 . S
C541 H553 0.956 . S
C541 H554 0.961 . S
C541 H555 0.961 . S
C542 C539 1.539 . S
C542 H556 0.958 . S
C542 H557 0.961 . S
C542 H558 0.960 . S
H543 C527 0.931 . S
H544 C532 0.929 . S
H545 C533 0.960 1_545 S
H546 C533 0.959 . S
H547 C533 0.960 . S
H548 C534 0.968 . S
H549 C534 0.944 1_545 S
H550 C534 0.948 1_545 S
H551 C535 0.931 . S
H552 C540 0.930 . S
H553 C541 0.956 . S
H554 C541 0.961 . S
H555 C541 0.961 . S
H556 C542 0.958 . S
H557 C542 0.961 . S
H558 C542 0.960 . S
C559 C560 1.391 . S
C559 C561 1.394 . S
C559 H575 0.931 . S
C560 C559 1.391 . S
C560 C564 1.376 1_556 S
C561 C559 1.394 . S
C561 C562 1.382 . S
C561 C565 1.531 1_655 S
C562 C561 1.382 . S
C562 C563 1.397 1_556 S
C562 C570 1.502 1_656 S
C563 C562 1.397 1_554 S
C563 C564 1.392 . S
C563 C566 1.511 . S
C564 C560 1.376 1_554 S
C564 C563 1.392 . S
C564 H576 0.929 . S
C565 C561 1.531 1_455 S
C565 H577 0.960 . S
C565 H578 0.962 . S
C565 H579 0.960 1_455 S
C566 C563 1.511 . S
C566 H580 0.961 . S
C566 H581 0.961 1_655 S
C566 H582 0.961 . S
C567 C568 1.370 . S
C567 C569 1.363 . S
C567 H583 0.931 . S
C568 C567 1.370 . S
C568 C572 1.408 . S
C569 C567 1.363 . S
C569 C570 1.370 . S
C569 C573 1.524 . S
C570 C562 1.502 1_454 S
C570 C569 1.370 . S
C570 C571 1.403 . S
C571 C570 1.403 . S
C571 C572 1.404 . S
C571 C574 1.539 1_554 S
C572 C568 1.408 . S
C572 C571 1.404 . S
C572 H584 0.930 . S
C573 C569 1.524 . S
C573 H585 0.956 1_554 S
C573 H586 0.961 . S
C573 H587 0.961 . S
C574 C571 1.539 1_556 S
C574 H588 0.958 . S
C574 H589 0.961 1_556 S
C574 H590 0.960 1_556 S
H575 C559 0.931 . S
H576 C564 0.929 . S
H577 C565 0.960 . S
H578 C565 0.962 . S
H579 C565 0.960 1_655 S
H580 C566 0.961 . S
H581 C566 0.961 1_455 S
H582 C566 0.961 . S
H583 C567 0.931 . S
H584 C572 0.930 . S
H585 C573 0.956 1_556 S
H586 C573 0.961 . S
H587 C573 0.961 . S
H588 C574 0.958 . S
H589 C574 0.961 1_554 S
H590 C574 0.960 1_554 S
C591 C592 1.391 . S
C591 C593 1.394 . S
C591 H607 0.931 . S
C592 C591 1.391 . S
C592 C596 1.376 . S
C593 C591 1.394 . S
C593 C594 1.369 . S
C593 C597 1.531 . S
C594 C593 1.369 . S
C594 C595 1.410 . S
C594 C602 1.503 . S
C595 C594 1.410 . S
C595 C596 1.392 . S
C595 C598 1.511 . S
C596 C592 1.376 . S
C596 C595 1.392 . S
C596 H608 0.929 . S
C597 C593 1.531 . S
C597 H609 0.960 . S
C597 H610 0.962 . S
C597 H611 0.960 . S
C598 C595 1.511 . S
C598 H612 0.961 . S
C598 H613 0.961 . S
C598 H614 0.961 . S
C599 C600 1.370 . S
C599 C601 1.363 . S
C599 H615 0.931 . S
C600 C599 1.370 . S
C600 C604 1.408 . S
C601 C599 1.363 . S
C601 C602 1.370 . S
C601 C605 1.524 . S
C602 C594 1.503 . S
C602 C601 1.370 . S
C602 C603 1.403 . S
C603 C602 1.403 . S
C603 C604 1.404 . S
C603 C606 1.539 . S
C604 C600 1.408 . S
C604 C603 1.404 . S
C604 H616 0.930 . S
C605 C601 1.524 . S
C605 H617 0.956 . S
C605 H618 0.961 . S
C605 H619 0.961 . S
C606 C603 1.539 . S
C606 H620 0.958 . S
C606 H621 0.961 . S
C606 H622 0.960 . S
H607 C591 0.931 . S
H608 C596 0.929 . S
H609 C597 0.960 . S
H610 C597 0.962 . S
H611 C597 0.960 . S
H612 C598 0.961 . S
H613 C598 0.961 . S
H614 C598 0.961 . S
H615 C599 0.931 . S
H616 C604 0.930 . S
H617 C605 0.956 . S
H618 C605 0.961 . S
H619 C605 0.961 . S
H620 C606 0.958 . S
H621 C606 0.961 . S
H622 C606 0.960 . S
C623 C624 1.391 . S
C623 C625 1.394 . S
C623 H639 0.931 . S
C624 C623 1.391 . S
C624 C628 1.376 . S
C625 C623 1.394 . S
C625 C626 1.369 . S
C625 C629 1.531 . S
C626 C625 1.369 . S
C626 C627 1.410 . S
C626 C634 1.503 . S
C627 C626 1.410 . S
C627 C628 1.392 . S
C627 C630 1.511 . S
C628 C624 1.376 . S
C628 C627 1.392 . S
C628 H640 0.929 . S
C629 C625 1.531 . S
C629 H641 0.960 . S
C629 H642 0.962 . S
C629 H643 0.960 . S
C630 C627 1.511 . S
C630 H644 0.961 . S
C630 H645 0.961 . S
C630 H646 0.961 . S
C631 C632 1.370 . S
C631 C633 1.363 . S
C631 H647 0.931 . S
C632 C631 1.370 . S
C632 C636 1.408 . S
C633 C631 1.363 . S
C633 C634 1.370 . S
C633 C637 1.524 . S
C634 C626 1.503 . S
C634 C633 1.370 . S
C634 C635 1.403 . S
C635 C634 1.403 . S
C635 C636 1.404 . S
C635 C638 1.539 . S
C636 C632 1.408 . S
C636 C635 1.404 . S
C636 H648 0.930 . S
C637 C633 1.524 . S
C637 H649 0.956 . S
C637 H650 0.961 . S
C637 H651 0.961 . S
C638 C635 1.539 . S
C638 H652 0.958 . S
C638 H653 0.961 . S
C638 H654 0.960 . S
H639 C623 0.931 . S
H640 C628 0.929 . S
H641 C629 0.960 . S
H642 C629 0.962 . S
H643 C629 0.960 . S
H644 C630 0.961 . S
H645 C630 0.961 . S
H646 C630 0.961 . S
H647 C631 0.931 . S
H648 C636 0.930 . S
H649 C637 0.956 . S
H650 C637 0.961 . S
H651 C637 0.961 . S
H652 C638 0.958 . S
H653 C638 0.961 . S
H654 C638 0.960 . S
C655 C656 1.391 . S
C655 C657 1.394 . S
C655 H671 0.931 . S
C656 C655 1.391 . S
C656 C660 1.376 . S
C657 C655 1.394 . S
C657 C658 1.369 . S
C657 C661 1.531 . S
C658 C657 1.369 . S
C658 C659 1.410 . S
C658 C666 1.503 . S
C659 C658 1.410 . S
C659 C660 1.392 . S
C659 C662 1.511 . S
C660 C656 1.376 . S
C660 C659 1.392 . S
C660 H672 0.929 . S
C661 C657 1.531 . S
C661 H673 0.960 . S
C661 H674 0.962 . S
C661 H675 0.960 . S
C662 C659 1.511 . S
C662 H676 0.961 . S
C662 H677 0.961 . S
C662 H678 0.961 . S
C663 C664 1.370 . S
C663 C665 1.363 . S
C663 H679 0.931 . S
C664 C663 1.370 . S
C664 C668 1.408 . S
C665 C663 1.363 . S
C665 C666 1.370 . S
C665 C669 1.524 . S
C666 C658 1.503 . S
C666 C665 1.370 . S
C666 C667 1.403 . S
C667 C666 1.403 . S
C667 C668 1.404 . S
C667 C670 1.539 . S
C668 C664 1.408 . S
C668 C667 1.404 . S
C668 H680 0.930 . S
C669 C665 1.524 . S
C669 H681 0.956 . S
C669 H682 0.961 . S
C669 H683 0.961 . S
C670 C667 1.539 . S
C670 H684 0.958 . S
C670 H685 0.961 . S
C670 H686 0.960 . S
H671 C655 0.931 . S
H672 C660 0.929 . S
H673 C661 0.960 . S
H674 C661 0.962 . S
H675 C661 0.960 . S
H676 C662 0.961 . S
H677 C662 0.961 . S
H678 C662 0.961 . S
H679 C663 0.931 . S
H680 C668 0.930 . S
H681 C669 0.956 . S
H682 C669 0.961 . S
H683 C669 0.961 . S
H684 C670 0.958 . S
H685 C670 0.961 . S
H686 C670 0.960 . S
C687 C688 1.391 . S
C687 C689 1.394 . S
C687 H703 0.931 . S
C688 C687 1.391 . S
C688 C692 1.376 . S
C689 C687 1.394 . S
C689 C690 1.369 . S
C689 C693 1.531 . S
C690 C689 1.369 . S
C690 C691 1.410 . S
C690 C698 1.503 . S
C691 C690 1.410 . S
C691 C692 1.392 . S
C691 C694 1.511 . S
C692 C688 1.376 . S
C692 C691 1.392 . S
C692 H704 0.929 . S
C693 C689 1.531 . S
C693 H705 0.960 . S
C693 H706 0.962 . S
C693 H707 0.960 . S
C694 C691 1.511 . S
C694 H708 0.961 . S
C694 H709 0.961 . S
C694 H710 0.961 . S
C695 C696 1.370 . S
C695 C697 1.363 . S
C695 H711 0.931 . S
C696 C695 1.370 . S
C696 C700 1.408 . S
C697 C695 1.363 . S
C697 C698 1.370 . S
C697 C701 1.524 . S
C698 C690 1.503 . S
C698 C697 1.370 . S
C698 C699 1.403 . S
C699 C698 1.403 . S
C699 C700 1.404 . S
C699 C702 1.539 . S
C700 C696 1.408 . S
C700 C699 1.404 . S
C700 H712 0.930 . S
C701 C697 1.524 . S
C701 H713 0.956 . S
C701 H714 0.961 . S
C701 H715 0.961 . S
C702 C699 1.539 . S
C702 H716 0.958 . S
C702 H717 0.961 . S
C702 H718 0.960 . S
H703 C687 0.931 . S
H704 C692 0.929 . S
H705 C693 0.960 . S
H706 C693 0.962 . S
H707 C693 0.960 . S
H708 C694 0.961 . S
H709 C694 0.961 . S
H710 C694 0.961 . S
H711 C695 0.931 . S
H712 C700 0.930 . S
H713 C701 0.956 . S
H714 C701 0.961 . S
H715 C701 0.961 . S
H716 C702 0.958 . S
H717 C702 0.961 . S
H718 C702 0.960 . S
C719 C720 1.391 . S
C719 C721 1.394 . S
C719 H735 0.931 . S
C720 C719 1.391 . S
C720 C724 1.376 . S
C721 C719 1.394 . S
C721 C722 1.369 . S
C721 C725 1.531 . S
C722 C721 1.369 . S
C722 C723 1.410 . S
C722 C730 1.503 . S
C723 C722 1.410 . S
C723 C724 1.392 . S
C723 C726 1.511 . S
C724 C720 1.376 . S
C724 C723 1.392 . S
C724 H736 0.929 . S
C725 C721 1.531 . S
C725 H737 0.960 . S
C725 H738 0.962 . S
C725 H739 0.960 . S
C726 C723 1.511 . S
C726 H740 0.961 . S
C726 H741 0.961 . S
C726 H742 0.961 . S
C727 C728 1.370 . S
C727 C729 1.363 . S
C727 H743 0.931 . S
C728 C727 1.370 . S
C728 C732 1.408 . S
C729 C727 1.363 . S
C729 C730 1.370 . S
C729 C733 1.524 . S
C730 C722 1.503 . S
C730 C729 1.370 . S
C730 C731 1.403 . S
C731 C730 1.403 . S
C731 C732 1.404 . S
C731 C734 1.539 . S
C732 C728 1.408 . S
C732 C731 1.404 . S
C732 H744 0.930 . S
C733 C729 1.524 . S
C733 H745 0.956 . S
C733 H746 0.961 . S
C733 H747 0.961 . S
C734 C731 1.539 . S
C734 H748 0.958 . S
C734 H749 0.961 . S
C734 H750 0.960 . S
H735 C719 0.931 . S
H736 C724 0.929 . S
H737 C725 0.960 . S
H738 C725 0.962 . S
H739 C725 0.960 . S
H740 C726 0.961 . S
H741 C726 0.961 . S
H742 C726 0.961 . S
H743 C727 0.931 . S
H744 C732 0.930 . S
H745 C733 0.956 . S
H746 C733 0.961 . S
H747 C733 0.961 . S
H748 C734 0.958 . S
H749 C734 0.961 . S
H750 C734 0.960 . S
C751 C752 1.391 . S
C751 C753 1.394 . S
C751 H767 0.931 . S
C752 C751 1.391 . S
C752 C756 1.376 . S
C753 C751 1.394 . S
C753 C754 1.369 . S
C753 C757 1.531 . S
C754 C753 1.369 . S
C754 C755 1.410 . S
C754 C762 1.503 . S
C755 C754 1.410 . S
C755 C756 1.392 . S
C755 C758 1.511 . S
C756 C752 1.376 . S
C756 C755 1.392 . S
C756 H768 0.929 . S
C757 C753 1.531 . S
C757 H769 0.960 . S
C757 H770 0.962 . S
C757 H771 0.960 . S
C758 C755 1.511 . S
C758 H772 0.961 . S
C758 H773 0.961 . S
C758 H774 0.961 . S
C759 C760 1.370 . S
C759 C761 1.363 . S
C759 H775 0.931 . S
C760 C759 1.370 . S
C760 C764 1.408 . S
C761 C759 1.363 . S
C761 C762 1.370 . S
C761 C765 1.524 . S
C762 C754 1.503 . S
C762 C761 1.370 . S
C762 C763 1.403 . S
C763 C762 1.403 . S
C763 C764 1.404 . S
C763 C766 1.539 . S
C764 C760 1.408 . S
C764 C763 1.404 . S
C764 H776 0.930 . S
C765 C761 1.524 . S
C765 H777 0.956 . S
C765 H778 0.961 . S
C765 H779 0.961 . S
C766 C763 1.539 . S
C766 H780 0.958 . S
C766 H781 0.961 . S
C766 H782 0.960 . S
H767 C751 0.931 . S
H768 C756 0.929 . S
H769 C757 0.960 . S
H770 C757 0.962 . S
H771 C757 0.960 . S
H772 C758 0.961 . S
H773 C758 0.961 . S
H774 C758 0.961 . S
H775 C759 0.931 . S
H776 C764 0.930 . S
H777 C765 0.956 . S
H778 C765 0.961 . S
H779 C765 0.961 . S
H780 C766 0.958 . S
H781 C766 0.961 . S
H782 C766 0.960 . S
C783 C784 1.391 1_655 S
C783 C785 1.394 . S
C783 H799 0.931 . S
C784 C783 1.391 1_455 S
C784 C788 1.376 . S
C785 C783 1.394 . S
C785 C786 1.369 1_655 S
C785 C789 1.531 . S
C786 C785 1.369 1_455 S
C786 C787 1.410 . S
C786 C794 1.503 . S
C787 C786 1.410 . S
C787 C788 1.392 . S
C787 C790 1.511 . S
C788 C784 1.376 . S
C788 C787 1.392 . S
C788 H800 0.929 . S
C789 C785 1.531 . S
C789 H801 0.960 . S
C789 H802 0.962 . S
C789 H803 0.960 . S
C790 C787 1.511 . S
C790 H804 0.961 . S
C790 H805 0.961 . S
C790 H806 0.961 . S
C791 C792 1.383 . S
C791 C793 1.361 1_455 S
C791 H807 0.921 1_455 S
C792 C791 1.383 . S
C792 C796 1.408 . S
C793 C791 1.361 1_655 S
C793 C794 1.370 1_655 S
C793 C797 1.524 . S
C794 C786 1.503 . S
C794 C793 1.370 1_455 S
C794 C795 1.403 . S
C795 C794 1.403 . S
C795 C796 1.404 . S
C795 C798 1.539 . S
C796 C792 1.408 . S
C796 C795 1.404 . S
C796 H808 0.930 . S
C797 C793 1.524 . S
C797 H809 0.956 . S
C797 H810 0.961 . S
C797 H811 0.961 . S
C798 C795 1.539 . S
C798 H812 0.958 . S
C798 H813 0.961 . S
C798 H814 0.960 . S
H799 C783 0.931 . S
H800 C788 0.929 . S
H801 C789 0.960 . S
H802 C789 0.962 . S
H803 C789 0.960 . S
H804 C790 0.961 . S
H805 C790 0.961 . S
H806 C790 0.961 . S
H807 C791 0.921 1_655 S
H808 C796 0.930 . S
H809 C797 0.956 . S
H810 C797 0.961 . S
H811 C797 0.961 . S
H812 C798 0.958 . S
H813 C798 0.961 . S
H814 C798 0.960 . S
C815 C816 1.391 . S
C815 C817 1.394 . S
C815 H831 0.931 . S
C816 C815 1.391 . S
C816 C820 1.376 . S
C817 C815 1.394 . S
C817 C818 1.369 . S
C817 C821 1.531 . S
C818 C817 1.369 . S
C818 C819 1.410 . S
C818 C826 1.503 . S
C819 C818 1.410 . S
C819 C820 1.392 . S
C819 C822 1.511 . S
C820 C816 1.376 . S
C820 C819 1.392 . S
C820 H832 0.929 . S
C821 C817 1.531 . S
C821 H833 0.960 . S
C821 H834 0.962 . S
C821 H835 0.960 . S
C822 C819 1.511 . S
C822 H836 0.961 . S
C822 H837 0.961 . S
C822 H838 0.961 . S
C823 C824 1.370 . S
C823 C825 1.363 . S
C823 H839 0.931 . S
C824 C823 1.370 . S
C824 C828 1.408 . S
C825 C823 1.363 . S
C825 C826 1.370 . S
C825 C829 1.524 . S
C826 C818 1.503 . S
C826 C825 1.370 . S
C826 C827 1.403 . S
C827 C826 1.403 . S
C827 C828 1.404 . S
C827 C830 1.539 . S
C828 C824 1.408 . S
C828 C827 1.404 . S
C828 H840 0.930 . S
C829 C825 1.524 . S
C829 H841 0.956 . S
C829 H842 0.961 . S
C829 H843 0.961 . S
C830 C827 1.539 . S
C830 H844 0.958 . S
C830 H845 0.961 . S
C830 H846 0.960 . S
H831 C815 0.931 . S
H832 C820 0.929 . S
H833 C821 0.960 . S
H834 C821 0.962 . S
H835 C821 0.960 . S
H836 C822 0.961 . S
H837 C822 0.961 . S
H838 C822 0.961 . S
H839 C823 0.931 . S
H840 C828 0.930 . S
H841 C829 0.956 . S
H842 C829 0.961 . S
H843 C829 0.961 . S
H844 C830 0.958 . S
H845 C830 0.961 . S
H846 C830 0.960 . S
C847 C848 1.391 . S
C847 C849 1.394 . S
C847 H863 0.931 . S
C848 C847 1.391 . S
C848 C852 1.376 . S
C849 C847 1.394 . S
C849 C850 1.369 . S
C849 C853 1.531 . S
C850 C849 1.369 . S
C850 C851 1.410 . S
C850 C858 1.503 . S
C851 C850 1.410 . S
C851 C852 1.392 . S
C851 C854 1.511 1_545 S
C852 C848 1.376 . S
C852 C851 1.392 . S
C852 H864 0.929 1_545 S
C853 C849 1.531 . S
C853 H865 0.960 . S
C853 H866 0.962 . S
C853 H867 0.960 . S
C854 C851 1.511 1_565 S
C854 H868 0.961 . S
C854 H869 0.961 . S
C854 H870 0.961 . S
C855 C856 1.370 1_565 S
C855 C857 1.363 . S
C855 H871 0.931 . S
C856 C855 1.370 1_545 S
C856 C860 1.408 . S
C857 C855 1.363 . S
C857 C858 1.370 1_565 S
C857 C861 1.524 . S
C858 C850 1.503 . S
C858 C857 1.370 1_545 S
C858 C859 1.403 . S
C859 C858 1.403 . S
C859 C860 1.404 . S
C859 C862 1.539 . S
C860 C856 1.408 . S
C860 C859 1.404 . S
C860 H872 0.930 . S
C861 C857 1.524 . S
C861 H873 0.956 . S
C861 H874 0.961 . S
C861 H875 0.961 . S
C862 C859 1.539 . S
C862 H876 0.958 . S
C862 H877 0.961 . S
C862 H878 0.960 . S
H863 C847 0.931 . S
H864 C852 0.929 1_565 S
H865 C853 0.960 . S
H866 C853 0.962 . S
H867 C853 0.960 . S
H868 C854 0.961 . S
H869 C854 0.961 . S
H870 C854 0.961 . S
H871 C855 0.931 . S
H872 C860 0.930 . S
H873 C861 0.956 . S
H874 C861 0.961 . S
H875 C861 0.961 . S
H876 C862 0.958 . S
H877 C862 0.961 . S
H878 C862 0.960 . S
C879 C880 1.391 . S
C879 C881 1.394 . S
C879 H895 0.931 . S
C880 C879 1.391 . S
C880 C884 1.376 . S
C881 C879 1.394 . S
C881 C882 1.369 . S
C881 C885 1.531 . S
C882 C881 1.369 . S
C882 C883 1.410 . S
C882 C890 1.503 . S
C883 C882 1.410 . S
C883 C884 1.392 . S
C883 C886 1.511 . S
C884 C880 1.376 . S
C884 C883 1.392 . S
C884 H896 0.929 . S
C885 C881 1.531 . S
C885 H897 0.960 . S
C885 H898 0.962 . S
C885 H899 0.960 . S
C886 C883 1.511 . S
C886 H900 0.961 . S
C886 H901 0.961 . S
C886 H902 0.961 . S
C887 C888 1.370 1_556 S
C887 C889 1.363 . S
C887 H903 0.931 1_556 S
C888 C887 1.370 1_554 S
C888 C892 1.408 . S
C889 C887 1.363 . S
C889 C890 1.370 . S
C889 C893 1.524 . S
C890 C882 1.503 . S
C890 C889 1.370 . S
C890 C891 1.403 . S
C891 C890 1.403 . S
C891 C892 1.404 1_556 S
C891 C894 1.539 . S
C892 C888 1.408 . S
C892 C891 1.404 1_554 S
C892 H904 0.930 . S
C893 C889 1.524 . S
C893 H905 0.956 . S
C893 H906 0.961 . S
C893 H907 0.961 . S
C894 C891 1.539 . S
C894 H908 0.958 . S
C894 H909 0.961 . S
C894 H910 0.960 . S
H895 C879 0.931 . S
H896 C884 0.929 . S
H897 C885 0.960 . S
H898 C885 0.962 . S
H899 C885 0.960 . S
H900 C886 0.961 . S
H901 C886 0.961 . S
H902 C886 0.961 . S
H903 C887 0.931 1_554 S
H904 C892 0.930 . S
H905 C893 0.956 . S
H906 C893 0.961 . S
H907 C893 0.961 . S
H908 C894 0.958 . S
H909 C894 0.961 . S
H910 C894 0.960 . S
C911 C912 1.391 . S
C911 C913 1.394 . S
C911 H927 0.931 . S
C912 C911 1.391 . S
C912 C916 1.376 . S
C913 C911 1.394 . S
C913 C914 1.369 . S
C913 C917 1.531 . S
C914 C913 1.369 . S
C914 C915 1.410 . S
C914 C922 1.503 . S
C915 C914 1.410 . S
C915 C916 1.392 . S
C915 C918 1.511 . S
C916 C912 1.376 . S
C916 C915 1.392 . S
C916 H928 0.929 . S
C917 C913 1.531 . S
C917 H929 0.960 . S
C917 H930 0.962 . S
C917 H931 0.960 . S
C918 C915 1.511 . S
C918 H932 0.961 . S
C918 H933 0.961 . S
C918 H934 0.961 . S
C919 C920 1.370 . S
C919 C921 1.363 1_554 S
C919 H935 0.931 . S
C920 C919 1.370 . S
C920 C924 1.408 1_554 S
C921 C919 1.363 1_556 S
C921 C922 1.370 . S
C921 C925 1.524 . S
C922 C914 1.503 . S
C922 C921 1.370 . S
C922 C923 1.403 . S
C923 C922 1.403 . S
C923 C924 1.404 . S
C923 C926 1.539 . S
C924 C920 1.408 1_556 S
C924 C923 1.404 . S
C924 H936 0.930 1_556 S
C925 C921 1.524 . S
C925 H937 0.956 . S
C925 H938 0.961 . S
C925 H939 0.961 . S
C926 C923 1.539 . S
C926 H940 0.958 . S
C926 H941 0.961 . S
C926 H942 0.960 . S
H927 C911 0.931 . S
H928 C916 0.929 . S
H929 C917 0.960 . S
H930 C917 0.962 . S
H931 C917 0.960 . S
H932 C918 0.961 . S
H933 C918 0.961 . S
H934 C918 0.961 . S
H935 C919 0.931 . S
H936 C924 0.930 1_554 S
H937 C925 0.956 . S
H938 C925 0.961 . S
H939 C925 0.961 . S
H940 C926 0.958 . S
H941 C926 0.961 . S
H942 C926 0.960 . S
C943 C944 1.391 . S
C943 C945 1.394 . S
C943 H959 0.931 . S
C944 C943 1.391 . S
C944 C948 1.376 . S
C945 C943 1.394 . S
C945 C946 1.369 . S
C945 C949 1.531 . S
C946 C945 1.369 . S
C946 C947 1.410 . S
C946 C954 1.503 . S
C947 C946 1.410 . S
C947 C948 1.392 . S
C947 C950 1.511 . S
C948 C944 1.376 . S
C948 C947 1.392 . S
C948 H960 0.929 . S
C949 C945 1.531 . S
C949 H961 0.960 . S
C949 H962 0.962 . S
C949 H963 0.960 . S
C950 C947 1.511 . S
C950 H964 0.961 . S
C950 H965 0.961 . S
C950 H966 0.961 . S
C951 C952 1.363 1_556 S
C951 C953 1.377 . S
C951 H967 0.924 1_556 S
C952 C951 1.363 1_554 S
C952 C956 1.408 . S
C953 C951 1.377 . S
C953 C954 1.370 . S
C953 C957 1.524 . S
C954 C946 1.503 . S
C954 C953 1.370 . S
C954 C955 1.403 . S
C955 C954 1.403 . S
C955 C956 1.404 1_556 S
C955 C958 1.539 . S
C956 C952 1.408 . S
C956 C955 1.404 1_554 S
C956 H968 0.930 . S
C957 C953 1.524 . S
C957 H969 0.956 . S
C957 H970 0.961 . S
C957 H971 0.961 . S
C958 C955 1.539 . S
C958 H972 0.958 . S
C958 H973 0.961 . S
C958 H974 0.960 . S
H959 C943 0.931 . S
H960 C948 0.929 . S
H961 C949 0.960 . S
H962 C949 0.962 . S
H963 C949 0.960 . S
H964 C950 0.961 . S
H965 C950 0.961 . S
H966 C950 0.961 . S
H967 C951 0.924 1_554 S
H968 C956 0.930 . S
H969 C957 0.956 . S
H970 C957 0.961 . S
H971 C957 0.961 . S
H972 C958 0.958 . S
H973 C958 0.961 . S
H974 C958 0.960 . S
C975 C976 1.391 . S
C975 C977 1.394 . S
C975 H991 0.931 . S
C976 C975 1.391 . S
C976 C980 1.376 . S
C977 C975 1.394 . S
C977 C978 1.369 . S
C977 C981 1.531 . S
C978 C977 1.369 . S
C978 C979 1.410 . S
C978 C986 1.503 . S
C979 C978 1.410 . S
C979 C980 1.392 . S
C979 C982 1.511 . S
C980 C976 1.376 . S
C980 C979 1.392 . S
C980 H992 0.929 . S
C981 C977 1.531 . S
C981 H993 0.960 . S
C981 H994 0.962 . S
C981 H995 0.960 . S
C982 C979 1.511 . S
C982 H996 0.961 . S
C982 H997 0.961 . S
C982 H998 0.961 . S
C983 C984 1.370 1_554 S
C983 C985 1.363 . S
C983 H999 0.931 1_554 S
C984 C983 1.370 1_556 S
C984 C988 1.408 1_556 S
C985 C983 1.363 . S
C985 C986 1.370 . S
C985 C989 1.524 . S
C986 C978 1.503 . S
C986 C985 1.370 . S
C986 C987 1.403 . S
C987 C986 1.403 . S
C987 C988 1.404 . S
C987 C990 1.539 . S
C988 C984 1.408 1_554 S
C988 C987 1.404 . S
C988 H1000 0.930 1_554 S
C989 C985 1.524 . S
C989 H1001 0.956 . S
C989 H1002 0.961 . S
C989 H1003 0.961 . S
C990 C987 1.539 . S
C990 H1004 0.958 . S
C990 H1005 0.961 . S
C990 H1006 0.960 . S
H991 C975 0.931 . S
H992 C980 0.929 . S
H993 C981 0.960 . S
H994 C981 0.962 . S
H995 C981 0.960 . S
H996 C982 0.961 . S
H997 C982 0.961 . S
H998 C982 0.961 . S
H999 C983 0.931 1_556 S
H1000 C988 0.930 1_556 S
H1001 C989 0.956 . S
H1002 C989 0.961 . S
H1003 C989 0.961 . S
H1004 C990 0.958 . S
H1005 C990 0.961 . S
H1006 C990 0.960 . S
C1007 C1008 1.391 . S
C1007 C1009 1.394 1_556 S
C1007 H1023 0.931 . S
C1008 C1007 1.391 . S
C1008 C1012 1.376 1_556 S
C1009 C1007 1.394 1_554 S
C1009 C1010 1.369 . S
C1009 C1013 1.531 . S
C1010 C1009 1.369 . S
C1010 C1011 1.410 . S
C1010 C1018 1.503 . S
C1011 C1010 1.410 . S
C1011 C1012 1.392 . S
C1011 C1014 1.511 . S
C1012 C1008 1.376 1_554 S
C1012 C1011 1.392 . S
C1012 H1024 0.929 1_554 S
C1013 C1009 1.531 . S
C1013 H1025 0.960 . S
C1013 H1026 0.962 . S
C1013 H1027 0.960 . S
C1014 C1011 1.511 . S
C1014 H1028 0.961 . S
C1014 H1029 0.961 . S
C1014 H1030 0.961 . S
C1015 C1016 1.370 . S
C1015 C1017 1.363 . S
C1015 H1031 0.931 . S
C1016 C1015 1.370 . S
C1016 C1020 1.408 . S
C1017 C1015 1.363 . S
C1017 C1018 1.370 . S
C1017 C1021 1.524 . S
C1018 C1010 1.503 . S
C1018 C1017 1.370 . S
C1018 C1019 1.403 . S
C1019 C1018 1.403 . S
C1019 C1020 1.404 . S
C1019 C1022 1.539 . S
C1020 C1016 1.408 . S
C1020 C1019 1.404 . S
C1020 H1032 0.930 . S
C1021 C1017 1.524 . S
C1021 H1033 0.956 . S
C1021 H1034 0.961 . S
C1021 H1035 0.961 . S
C1022 C1019 1.539 . S
C1022 H1036 0.958 . S
C1022 H1037 0.961 . S
C1022 H1038 0.960 . S
H1023 C1007 0.931 . S
H1024 C1012 0.929 1_556 S
H1025 C1013 0.960 . S
H1026 C1013 0.962 . S
H1027 C1013 0.960 . S
H1028 C1014 0.961 . S
H1029 C1014 0.961 . S
H1030 C1014 0.961 . S
H1031 C1015 0.931 . S
H1032 C1020 0.930 . S
H1033 C1021 0.956 . S
H1034 C1021 0.961 . S
H1035 C1021 0.961 . S
H1036 C1022 0.958 . S
H1037 C1022 0.961 . S
H1038 C1022 0.960 . S
C1039 C1040 1.391 . S
C1039 C1041 1.394 . S
C1039 H1055 0.931 . S
C1040 C1039 1.391 . S
C1040 C1044 1.376 . S
C1041 C1039 1.394 . S
C1041 C1042 1.369 . S
C1041 C1045 1.531 . S
C1042 C1041 1.369 . S
C1042 C1043 1.410 . S
C1042 C1050 1.503 . S
C1043 C1042 1.410 . S
C1043 C1044 1.392 . S
C1043 C1046 1.511 . S
C1044 C1040 1.376 . S
C1044 C1043 1.392 . S
C1044 H1056 0.929 . S
C1045 C1041 1.531 . S
C1045 H1057 0.960 . S
C1045 H1058 0.962 . S
C1045 H1059 0.960 . S
C1046 C1043 1.511 . S
C1046 H1060 0.961 . S
C1046 H1061 0.961 . S
C1046 H1062 0.961 . S
C1047 C1048 1.370 1_554 S
C1047 C1049 1.363 . S
C1047 H1063 0.931 . S
C1048 C1047 1.370 1_556 S
C1048 C1052 1.408 . S
C1049 C1047 1.363 . S
C1049 C1050 1.370 . S
C1049 C1053 1.524 . S
C1050 C1042 1.503 . S
C1050 C1049 1.370 . S
C1050 C1051 1.403 . S
C1051 C1050 1.403 . S
C1051 C1052 1.404 1_554 S
C1051 C1054 1.539 . S
C1052 C1048 1.408 . S
C1052 C1051 1.404 1_556 S
C1052 H1064 0.930 . S
C1053 C1049 1.524 . S
C1053 H1065 0.956 . S
C1053 H1066 0.961 . S
C1053 H1067 0.961 . S
C1054 C1051 1.539 . S
C1054 H1068 0.958 . S
C1054 H1069 0.961 . S
C1054 H1070 0.960 . S
H1055 C1039 0.931 . S
H1056 C1044 0.929 . S
H1057 C1045 0.960 . S
H1058 C1045 0.962 . S
H1059 C1045 0.960 . S
H1060 C1046 0.961 . S
H1061 C1046 0.961 . S
H1062 C1046 0.961 . S
H1063 C1047 0.931 . S
H1064 C1052 0.930 . S
H1065 C1053 0.956 . S
H1066 C1053 0.961 . S
H1067 C1053 0.961 . S
H1068 C1054 0.958 . S
H1069 C1054 0.961 . S
H1070 C1054 0.960 . S
C208 C18 1.186 . S
C216 C179 1.191 . S
C240 C42 1.135 . S
C248 C203 1.160 . S
C272 C64 1.185 . S
C280 C157 1.159 . S
C304 C111 1.110 . S
C312 C65 1.132 . S
C336 C134 1.124 . S
C344 C19 1.136 . S
C368 C41 1.176 . S
C376 C88 1.151 . S
C400 C180 1.199 . S
C408 C133 1.187 . S
C432 C202 1.206 . S
C440 C87 1.208 . S
C464 C110 1.201 . S
C472 C156 1.208 . S
C496 C67 1.046 1_556 S
C504 C20 0.989 . S
C528 C44 1.004 . S
C536 C21 1.040 1_556 S
C560 C43 0.975 . S
C568 C66 0.997 . S
C592 C90 1.054 . S
C600 C135 1.026 . S
C624 C89 1.001 . S
C632 C113 1.052 . S
C656 C112 1.009 . S
C664 C136 1.041 . S
C688 C205 1.056 . S
C696 C158 1.007 . S
C720 C182 1.007 . S
C728 C159 1.051 . S
C752 C204 1.054 . S
C760 C181 1.012 . S
C784 C16 1.354 . S
C792 C17 1.377 . S
C816 C40 1.372 . S
C824 C39 1.365 . S
C848 C62 1.373 . S
C856 C63 1.368 . S
C880 C85 1.367 . S
C888 C86 1.374 . S
C912 C108 1.351 . S
C920 C109 1.378 . S
C944 C131 1.358 . S
C952 C132 1.373 . S
C976 C154 1.353 . S
C984 C155 1.380 . S
C1008 C177 1.362 . S
C1016 C178 1.376 . S
C1040 C200 1.378 . S
C1048 C201 1.368 . S
