# Generated by pormake.
# Topology crr, (4)-cn, num edge types: 1
# Building blocks:
#     Node 0, Type 0, BuildingBlock: ESEHIV_clean_sbu_0, # of connection points: 4
#     Node 1, Type 0, BuildingBlock: ESEHIV_clean_sbu_0, # of connection points: 4
#     Node 2, Type 0, BuildingBlock: ESEHIV_clean_sbu_0, # of connection points: 4
#     Node 3, Type 0, BuildingBlock: ESEHIV_clean_sbu_0, # of connection points: 4
#     Node 4, Type 0, BuildingBlock: ESEHIV_clean_sbu_0, # of connection points: 4
#     Node 5, Type 0, BuildingBlock: ESEHIV_clean_sbu_0, # of connection points: 4
#     Node 6, Type 0, BuildingBlock: ESEHIV_clean_sbu_0, # of connection points: 4
#     Node 7, Type 0, BuildingBlock: ESEHIV_clean_sbu_0, # of connection points: 4
#     Node 8, Type 0, BuildingBlock: ESEHIV_clean_sbu_0, # of connection points: 4
#     Node 9, Type 0, BuildingBlock: ESEHIV_clean_sbu_0, # of connection points: 4
#     Node 10, Type 0, BuildingBlock: ESEHIV_clean_sbu_0, # of connection points: 4
#     Node 11, Type 0, BuildingBlock: ESEHIV_clean_sbu_0, # of connection points: 4
#     Edge 12, Type (0, 0), BuildingBlock: XUDNAN_clean_linker_2, # of connection points: 2
#     Edge 13, Type (0, 0), BuildingBlock: XUDNAN_clean_linker_2, # of connection points: 2
#     Edge 14, Type (0, 0), BuildingBlock: XUDNAN_clean_linker_2, # of connection points: 2
#     Edge 15, Type (0, 0), BuildingBlock: XUDNAN_clean_linker_2, # of connection points: 2
#     Edge 16, Type (0, 0), BuildingBlock: XUDNAN_clean_linker_2, # of connection points: 2
#     Edge 17, Type (0, 0), BuildingBlock: XUDNAN_clean_linker_2, # of connection points: 2
#     Edge 18, Type (0, 0), BuildingBlock: XUDNAN_clean_linker_2, # of connection points: 2
#     Edge 19, Type (0, 0), BuildingBlock: XUDNAN_clean_linker_2, # of connection points: 2
#     Edge 20, Type (0, 0), BuildingBlock: XUDNAN_clean_linker_2, # of connection points: 2
#     Edge 21, Type (0, 0), BuildingBlock: XUDNAN_clean_linker_2, # of connection points: 2
#     Edge 22, Type (0, 0), BuildingBlock: XUDNAN_clean_linker_2, # of connection points: 2
#     Edge 23, Type (0, 0), BuildingBlock: XUDNAN_clean_linker_2, # of connection points: 2
#     Edge 24, Type (0, 0), BuildingBlock: XUDNAN_clean_linker_2, # of connection points: 2
#     Edge 25, Type (0, 0), BuildingBlock: XUDNAN_clean_linker_2, # of connection points: 2
#     Edge 26, Type (0, 0), BuildingBlock: XUDNAN_clean_linker_2, # of connection points: 2
#     Edge 27, Type (0, 0), BuildingBlock: XUDNAN_clean_linker_2, # of connection points: 2
#     Edge 28, Type (0, 0), BuildingBlock: XUDNAN_clean_linker_2, # of connection points: 2
#     Edge 29, Type (0, 0), BuildingBlock: XUDNAN_clean_linker_2, # of connection points: 2
#     Edge 30, Type (0, 0), BuildingBlock: XUDNAN_clean_linker_2, # of connection points: 2
#     Edge 31, Type (0, 0), BuildingBlock: XUDNAN_clean_linker_2, # of connection points: 2
#     Edge 32, Type (0, 0), BuildingBlock: XUDNAN_clean_linker_2, # of connection points: 2
#     Edge 33, Type (0, 0), BuildingBlock: XUDNAN_clean_linker_2, # of connection points: 2
#     Edge 34, Type (0, 0), BuildingBlock: XUDNAN_clean_linker_2, # of connection points: 2
#     Edge 35, Type (0, 0), BuildingBlock: XUDNAN_clean_linker_2, # of connection points: 2
# Relax obj value: 0.030
# Max RMSD: 0.140
# Mean RMSD: 0.117
data_MOF--net-crr--node1-ESEHIV_clean_sbu_0--edge1-XUDNAN_clean_linker_2
_symmetry_space_group_name_H-M    P1
_symmetry_Int_Tables_number       1
_symmetry_cell_setting            triclinic
loop_
_symmetry_equiv_pos_as_xyz
'x, y, z'
_cell_length_a     42.613094
_cell_length_b     47.021435
_cell_length_c     42.501601
_cell_angle_alpha  92.2304114
_cell_angle_beta   85.581666
_cell_angle_gamma 88.125269
loop_
_atom_site_label
_atom_site_type_symbol
_atom_site_fract_x
_atom_site_fract_y
_atom_site_fract_z
_atom_type_partial_charge
Cu0 Cu 0.13802 0.3624 0.38618 0.0
N1 N 0.1155 0.39387 0.40633 0.0
N2 N 0.07793 0.42817 0.41694 0.0
C3 C 0.08706 0.40427 0.39942 0.0
C4 C 0.10173 0.43304 0.43544 0.0
C5 C 0.12484 0.41195 0.42878 0.0
O6 O 0.10925 0.33819 0.3648 0.0
C7 C 0.19461 0.38633 0.3608 0.0
O8 O 0.19997 0.39056 0.39062 0.0
H9 H 0.07379 0.39497 0.38116 0.0
H10 H 0.14718 0.41027 0.43915 0.0
N11 N 0.16002 0.34024 0.41349 0.0
N12 N 0.18589 0.30246 0.43066 0.0
C13 C 0.17448 0.31476 0.40553 0.0
C14 C 0.16277 0.34439 0.44468 0.0
C15 C 0.17854 0.32101 0.45536 0.0
C16 C 0.08158 0.32998 0.37284 0.0
O17 O 0.0671 0.31511 0.3519 0.0
H18 H 0.17545 0.30491 0.382 0.0
H19 H 0.15289 0.36252 0.45892 0.0
O20 O 0.16891 0.3753 0.35401 0.0
H21 H 0.10247 0.45062 0.45254 0.0
H22 H 0.18384 0.31773 0.47949 0.0
Cu23 Cu 0.36935 0.90739 0.66636 0.0
N24 N 0.32901 0.89504 0.65958 0.0
N25 N 0.29193 0.8643 0.64871 0.0
C26 C 0.32302 0.86815 0.65036 0.0
C27 C 0.27781 0.88989 0.65717 0.0
C28 C 0.30075 0.90884 0.66379 0.0
O29 O 0.39045 0.87594 0.68606 0.0
C30 C 0.37414 0.94469 0.61957 0.0
O31 O 0.34826 0.9532 0.6366 0.0
H32 H 0.34115 0.8515 0.64605 0.0
H33 H 0.29699 0.93095 0.67148 0.0
N34 N 0.37035 0.93839 0.69512 0.0
N35 N 0.39294 0.97478 0.71887 0.0
C36 C 0.39705 0.95226 0.69821 0.0
C37 C 0.34824 0.9525 0.71464 0.0
C38 C 0.36215 0.97513 0.72928 0.0
C39 C 0.3762 0.87089 0.71271 0.0
O40 O 0.35073 0.88636 0.72213 0.0
H41 H 0.41889 0.94642 0.68442 0.0
H42 H 0.32379 0.94701 0.71775 0.0
O43 O 0.38839 0.92185 0.62697 0.0
H44 H 0.2527 0.89461 0.65862 0.0
H45 H 0.35048 0.99066 0.74609 0.0
Cu46 Cu 0.88304 0.62538 0.38776 0.0
N47 N 0.87313 0.62195 0.34566 0.0
N48 N 0.84075 0.61805 0.30674 0.0
C49 C 0.84307 0.62247 0.33799 0.0
C50 C 0.87077 0.61438 0.29411 0.0
C51 C 0.89077 0.61687 0.31824 0.0
O52 O 0.84747 0.64787 0.40879 0.0
C53 C 0.92005 0.57733 0.39213 0.0
O54 O 0.93709 0.59189 0.37184 0.0
H55 H 0.82314 0.62523 0.35534 0.0
H56 H 0.91619 0.61473 0.31597 0.0
N57 N 0.91772 0.64712 0.39608 0.0
N58 N 0.94825 0.67054 0.42795 0.0
C59 C 0.92119 0.65693 0.42565 0.0
C60 C 0.94353 0.65491 0.37866 0.0
C61 C 0.96267 0.66921 0.39847 0.0
C62 C 0.84728 0.67317 0.39878 0.0
O63 O 0.8691 0.6796 0.37691 0.0
H64 H 0.90454 0.65309 0.44545 0.0
H65 H 0.94849 0.64989 0.35368 0.0
O66 O 0.89291 0.58742 0.40271 0.0
H67 H 0.87779 0.61028 0.26929 0.0
H68 H 0.98545 0.67766 0.39183 0.0
Cu69 Cu 0.6202 0.13562 0.63739 0.0
N70 N 0.65933 0.15273 0.63728 0.0
N71 N 0.69298 0.18813 0.63132 0.0
C72 C 0.66458 0.1783 0.6251 0.0
C73 C 0.70634 0.16759 0.64781 0.0
C74 C 0.68546 0.14581 0.65156 0.0
O75 O 0.58823 0.16651 0.63884 0.0
C76 C 0.63727 0.09045 0.59295 0.0
O77 O 0.66163 0.08799 0.60994 0.0
H78 H 0.64732 0.18975 0.61259 0.0
H79 H 0.68859 0.12694 0.66487 0.0
N80 N 0.61017 0.11209 0.6709 0.0
N81 N 0.57818 0.08701 0.70238 0.0
C82 C 0.58048 0.10907 0.68313 0.0
C83 C 0.62749 0.09133 0.68298 0.0
C84 C 0.60772 0.07572 0.70241 0.0
C85 C 0.58295 0.18975 0.65553 0.0
O86 O 0.55922 0.20631 0.64864 0.0
H87 H 0.56054 0.12134 0.67587 0.0
H88 H 0.65221 0.08669 0.67653 0.0
O89 O 0.61736 0.11107 0.59951 0.0
H90 H 0.72896 0.16871 0.65767 0.0
H91 H 0.61427 0.05673 0.71432 0.0
Cu92 Cu 0.12893 0.64938 0.65245 0.0
N93 N 0.13806 0.64335 0.69413 0.0
N94 N 0.16806 0.63566 0.73418 0.0
C95 C 0.16726 0.6372 0.70259 0.0
C96 C 0.13801 0.64101 0.74604 0.0
C97 C 0.11955 0.64574 0.72128 0.0
O98 O 0.16323 0.67175 0.63437 0.0
C99 C 0.09385 0.60351 0.64454 0.0
O100 O 0.08099 0.61655 0.67049 0.0
H101 H 0.18772 0.63505 0.68583 0.0
H102 H 0.09458 0.651 0.72303 0.0
N103 N 0.0925 0.67162 0.64805 0.0
N104 N 0.05377 0.68927 0.62105 0.0
C105 C 0.07999 0.67233 0.62005 0.0
C106 C 0.07358 0.68873 0.66792 0.0
C107 C 0.04955 0.69965 0.65127 0.0
C108 C 0.16396 0.69571 0.64951 0.0
O109 O 0.14344 0.70095 0.67389 0.0
H110 H 0.08981 0.65986 0.5995 0.0
H111 H 0.07696 0.69299 0.69259 0.0
O112 O 0.11937 0.61303 0.63186 0.0
H113 H 0.1299 0.64169 0.77082 0.0
H114 H 0.03064 0.71417 0.66073 0.0
Cu115 Cu 0.64359 0.89685 0.38331 0.0
N116 N 0.68405 0.881 0.38578 0.0
N117 N 0.7194 0.84635 0.39413 0.0
C118 C 0.68932 0.8563 0.39979 0.0
C119 C 0.73364 0.86591 0.37596 0.0
C120 C 0.71174 0.88716 0.37069 0.0
O121 O 0.62173 0.86598 0.36294 0.0
C122 C 0.6466 0.92833 0.43895 0.0
O123 O 0.67594 0.92857 0.42698 0.0
H124 H 0.67089 0.84535 0.4128 0.0
H125 H 0.71534 0.90484 0.35548 0.0
N126 N 0.64097 0.92781 0.35742 0.0
N127 N 0.61462 0.9626 0.33513 0.0
C128 C 0.61331 0.93657 0.34727 0.0
C129 C 0.66081 0.94895 0.35146 0.0
C130 C 0.6446 0.97047 0.33758 0.0
C131 C 0.63247 0.8613 0.3342 0.0
O132 O 0.65415 0.87797 0.32238 0.0
H133 H 0.59186 0.92515 0.35161 0.0
H134 H 0.68448 0.94971 0.35888 0.0
O135 O 0.6273 0.91305 0.42481 0.0
H136 H 0.75766 0.86423 0.36558 0.0
H137 H 0.65367 0.99096 0.33158 0.0
Cu138 Cu 0.89147 0.3952 0.6043 0.0
N139 N 0.85442 0.38384 0.58718 0.0
N140 N 0.81212 0.35752 0.58212 0.0
C141 C 0.83999 0.35975 0.59493 0.0
C142 C 0.80901 0.38123 0.56545 0.0
C143 C 0.83516 0.39744 0.56862 0.0
O144 O 0.88315 0.39046 0.64953 0.0
C145 C 0.92772 0.37388 0.553 0.0
O146 O 0.9052 0.38824 0.54047 0.0
H147 H 0.84917 0.34483 0.61099 0.0
H148 H 0.83942 0.41795 0.55877 0.0
N149 N 0.90167 0.43304 0.59755 0.0
N150 N 0.93246 0.4706 0.59299 0.0
C151 C 0.93141 0.44212 0.59553 0.0
C152 C 0.88312 0.45659 0.59603 0.0
C153 C 0.90207 0.47982 0.59335 0.0
C154 C 0.85761 0.40286 0.66148 0.0
O155 O 0.8415 0.41904 0.64352 0.0
H156 H 0.95186 0.42815 0.59724 0.0
H157 H 0.85766 0.45697 0.59755 0.0
O158 O 0.92652 0.37256 0.58299 0.0
H159 H 0.78911 0.38669 0.55224 0.0
H160 H 0.89407 0.50182 0.59217 0.0
Cu161 Cu 0.39093 0.1312 0.39023 0.0
N162 N 0.40619 0.16498 0.37439 0.0
N163 N 0.41424 0.19649 0.33675 0.0
C164 C 0.40968 0.16901 0.3432 0.0
C165 C 0.41366 0.2104 0.36523 0.0
C166 C 0.4086 0.19086 0.38847 0.0
O167 O 0.34557 0.13639 0.38846 0.0
C168 C 0.44197 0.10151 0.36369 0.0
O169 O 0.45382 0.12286 0.37915 0.0
H170 H 0.40634 0.15234 0.3256 0.0
H171 H 0.40494 0.19554 0.41361 0.0
N172 N 0.40086 0.12417 0.43149 0.0
N173 N 0.40901 0.09776 0.47302 0.0
C174 C 0.40716 0.09788 0.44148 0.0
C175 C 0.39886 0.14146 0.45761 0.0
C176 C 0.4038 0.12518 0.48331 0.0
C177 C 0.32585 0.13386 0.41217 0.0
O178 O 0.33456 0.11997 0.43643 0.0
H179 H 0.40829 0.07891 0.42611 0.0
H180 H 0.39259 0.16395 0.45819 0.0
O181 O 0.41208 0.10037 0.36403 0.0
H182 H 0.41547 0.23316 0.36903 0.0
H183 H 0.40263 0.13279 0.50775 0.0
Cu184 Cu 0.37809 0.38044 0.11693 0.0
N185 N 0.37707 0.3411 0.1218 0.0
N186 N 0.38254 0.30036 0.14655 0.0
C187 C 0.38478 0.32888 0.14839 0.0
C188 C 0.37308 0.2943 0.11751 0.0
C189 C 0.36953 0.31955 0.10232 0.0
O190 O 0.36352 0.39665 0.15895 0.0
C191 C 0.42588 0.37725 0.07049 0.0
O192 O 0.40442 0.36106 0.05933 0.0
H193 H 0.39237 0.34078 0.16858 0.0
H194 H 0.36207 0.32195 0.07879 0.0
N195 N 0.3499 0.3945 0.08927 0.0
N196 N 0.32658 0.42771 0.06182 0.0
C197 C 0.34989 0.42165 0.08055 0.0
C198 C 0.32587 0.3826 0.07548 0.0
C199 C 0.31143 0.40308 0.05847 0.0
C200 C 0.33546 0.38937 0.16694 0.0
O201 O 0.32096 0.37394 0.1465 0.0
H202 H 0.36697 0.43654 0.08791 0.0
H203 H 0.31894 0.36086 0.07812 0.0
O204 O 0.42003 0.38916 0.09797 0.0
H205 H 0.36873 0.2732 0.10807 0.0
H206 H 0.29098 0.4001 0.04528 0.0
Cu207 Cu 0.38542 0.65478 0.91333 0.0
N208 N 0.38641 0.69357 0.90551 0.0
N209 N 0.39176 0.73254 0.87724 0.0
C210 C 0.39465 0.70385 0.87702 0.0
C211 C 0.38133 0.74057 0.90722 0.0
C212 C 0.37809 0.71648 0.92461 0.0
O213 O 0.36477 0.63773 0.87806 0.0
C214 C 0.43603 0.62544 0.94065 0.0
O215 O 0.41392 0.61093 0.95524 0.0
H216 H 0.40151 0.69035 0.85626 0.0
H217 H 0.36971 0.71573 0.94921 0.0
N218 N 0.36052 0.64699 0.94992 0.0
N219 N 0.33504 0.61807 0.98285 0.0
C220 C 0.34415 0.62311 0.95256 0.0
C221 C 0.36148 0.65784 0.97958 0.0
C222 C 0.34576 0.63998 1.0 0.0
C223 C 0.33659 0.64766 0.87725 0.0
O224 O 0.32588 0.66681 0.89915 0.0
H225 H 0.34217 0.60805 0.93295 0.0
H226 H 0.37506 0.67586 0.98615 0.0
O227 O 0.42878 0.64226 0.91923 0.0
H228 H 0.37619 0.76228 0.91596 0.0
H229 H 0.34427 0.64192 0.02554 0.0
Cu230 Cu 0.64777 0.63296 0.1247 0.0
N231 N 0.68097 0.61824 0.09683 0.0
N232 N 0.70656 0.58509 0.06447 0.0
C233 C 0.67843 0.59485 0.07807 0.0
C234 C 0.72764 0.60358 0.07448 0.0
C235 C 0.71177 0.62397 0.09465 0.0
O236 O 0.61003 0.6305 0.10122 0.0
C237 C 0.6701 0.59388 0.16782 0.0
O238 O 0.6815 0.57806 0.14321 0.0
H239 H 0.65645 0.58428 0.076 0.0
H240 H 0.72217 0.64064 0.10821 0.0
N241 N 0.65263 0.67091 0.13779 0.0
N242 N 0.64827 0.70964 0.17054 0.0
C243 C 0.63927 0.68269 0.16521 0.0
C244 C 0.67083 0.69101 0.12513 0.0
C245 C 0.66809 0.71496 0.14521 0.0
C246 C 0.6125 0.64418 0.07582 0.0
O247 O 0.63789 0.65886 0.07015 0.0
H248 H 0.62347 0.67141 0.18107 0.0
H249 H 0.6856 0.68824 0.1033 0.0
O250 O 0.64905 0.61314 0.16416 0.0
H251 H 0.7529 0.60146 0.0693 0.0
H252 H 0.68061 0.73439 0.14182 0.0
Cu253 Cu 0.66799 0.36031 0.88763 0.0
N254 N 0.68738 0.36682 0.925 0.0
N255 N 0.70472 0.39631 0.96189 0.0
C256 C 0.70269 0.39085 0.93075 0.0
C257 C 0.69027 0.3747 0.97639 0.0
C258 C 0.67953 0.35654 0.95354 0.0
O259 O 0.62572 0.37747 0.89854 0.0
C260 C 0.72307 0.36546 0.8527 0.0
O261 O 0.72944 0.34611 0.873 0.0
H262 H 0.70867 0.40586 0.91274 0.0
H263 H 0.66417 0.33898 0.95765 0.0
N264 N 0.66599 0.32168 0.87537 0.0
N265 N 0.66041 0.28315 0.84378 0.0
C266 C 0.65891 0.31192 0.84661 0.0
C267 C 0.67234 0.29837 0.89142 0.0
C268 C 0.66883 0.2746 0.87206 0.0
C269 C 0.60417 0.3616 0.90976 0.0
O270 O 0.6089 0.33386 0.90726 0.0
H271 H 0.65346 0.32583 0.82794 0.0
H272 H 0.6792 0.29863 0.91539 0.0
O273 O 0.69518 0.37654 0.85422 0.0
H274 H 0.68562 0.37333 1.00167 0.0
H275 H 0.67204 0.25273 0.87854 0.0
H276 H 0.22764 0.27689 0.38595 0.0
H277 H 0.1782 0.26512 0.47721 0.0
H278 H 0.20426 0.21753 0.47916 0.0
H279 H 0.22785 0.20244 0.35586 0.0
H280 H 0.26715 0.20344 0.33703 0.0
H281 H 0.24243 0.23541 0.34132 0.0
H282 H 0.2853 0.26127 0.37035 0.0
H283 H 0.31019 0.22949 0.36588 0.0
H284 H 0.30026 0.24578 0.40461 0.0
H285 H 0.23751 0.1724 0.47247 0.0
H286 H 0.27919 0.13512 0.46026 0.0
H287 H 0.3082 0.17642 0.37367 0.0
C288 C 0.22198 0.26403 0.40606 0.0
C289 C 0.20078 0.27455 0.43138 0.0
C290 C 0.19448 0.25748 0.45768 0.0
C291 C 0.20896 0.23034 0.45884 0.0
C292 C 0.22984 0.2206 0.43356 0.0
C293 C 0.23659 0.23702 0.40777 0.0
C294 C 0.2619 0.22253 0.38501 0.0
C295 C 0.24905 0.21554 0.3529 0.0
C296 C 0.29114 0.24085 0.38126 0.0
C297 C 0.26867 0.19564 0.40229 0.0
C298 C 0.24955 0.19476 0.42999 0.0
C299 C 0.25245 0.17274 0.45072 0.0
C300 C 0.27618 0.15158 0.44352 0.0
C301 C 0.29697 0.15265 0.41594 0.0
C302 C 0.29245 0.17464 0.39469 0.0
H303 H 0.23375 0.84885 0.67079 0.0
H304 H 0.31657 0.81937 0.61137 0.0
H305 H 0.29205 0.77312 0.60197 0.0
H306 H 0.2206 0.78429 0.70774 0.0
H307 H 0.17827 0.78806 0.70945 0.0
H308 H 0.20165 0.81922 0.70942 0.0
H309 H 0.17506 0.83678 0.66048 0.0
H310 H 0.15153 0.80564 0.6604 0.0
H311 H 0.1757 0.8138 0.62546 0.0
H312 H 0.25814 0.72869 0.60097 0.0
H313 H 0.21927 0.69096 0.61027 0.0
H314 H 0.16003 0.75094 0.67031 0.0
C315 C 0.24653 0.83294 0.65529 0.0
C316 C 0.27705 0.83786 0.64173 0.0
C317 C 0.29324 0.81606 0.62222 0.0
C318 C 0.27942 0.78976 0.61658 0.0
C319 C 0.24936 0.78554 0.63062 0.0
C320 C 0.23319 0.80663 0.64958 0.0
C321 C 0.20194 0.79655 0.6633 0.0
C322 C 0.20056 0.79705 0.69962 0.0
C323 C 0.17444 0.81424 0.6517 0.0
C324 C 0.2031 0.76641 0.6494 0.0
C325 C 0.2304 0.76032 0.63038 0.0
C326 C 0.2366 0.73334 0.61572 0.0
C327 C 0.21443 0.71205 0.62104 0.0
C328 C 0.18668 0.71792 0.64107 0.0
C329 C 0.18103 0.74561 0.65495 0.0
H330 H 0.78137 0.83114 0.3964 0.0
H331 H 0.68721 0.79886 0.40987 0.0
H332 H 0.70975 0.75167 0.42051 0.0
H333 H 0.81437 0.77159 0.35362 0.0
H334 H 0.8521 0.77313 0.36999 0.0
H335 H 0.82825 0.80514 0.36794 0.0
H336 H 0.83044 0.81467 0.42825 0.0
H337 H 0.85415 0.78246 0.43047 0.0
H338 H 0.8179 0.78777 0.45509 0.0
H339 H 0.74326 0.70603 0.42436 0.0
H340 H 0.78445 0.66709 0.41802 0.0
H341 H 0.85562 0.72969 0.40137 0.0
C342 C 0.76538 0.81432 0.40188 0.0
C343 C 0.73243 0.81907 0.40243 0.0
C344 C 0.71251 0.79621 0.40982 0.0
C345 C 0.72511 0.76915 0.41586 0.0
C346 C 0.75772 0.76516 0.41465 0.0
C347 C 0.77753 0.78721 0.40786 0.0
C348 C 0.81168 0.77705 0.40531 0.0
C349 C 0.82751 0.78201 0.37226 0.0
C350 C 0.82959 0.79134 0.43134 0.0
C351 C 0.80799 0.74568 0.41068 0.0
C352 C 0.77679 0.73913 0.41658 0.0
C353 C 0.76781 0.71101 0.42023 0.0
C354 C 0.79129 0.68902 0.4168 0.0
C355 C 0.82312 0.69545 0.40939 0.0
C356 C 0.83144 0.72417 0.40725 0.0
H357 H 0.82437 0.30232 0.59611 0.0
H358 H 0.74852 0.3628 0.58074 0.0
H359 H 0.70982 0.32586 0.59185 0.0
H360 H 0.7902 0.2408 0.56086 0.0
H361 H 0.80405 0.21669 0.58914 0.0
H362 H 0.82581 0.24784 0.57968 0.0
H363 H 0.82224 0.26368 0.63896 0.0
H364 H 0.80037 0.23263 0.6486 0.0
H365 H 0.78418 0.26761 0.66064 0.0
H366 H 0.67924 0.28284 0.60635 0.0
H367 H 0.65893 0.23633 0.62063 0.0
H368 H 0.75462 0.20307 0.62558 0.0
C369 C 0.79963 0.30787 0.59519 0.0
C370 C 0.78956 0.33558 0.5875 0.0
C371 C 0.75692 0.34173 0.58615 0.0
C372 C 0.73472 0.32091 0.59266 0.0
C373 C 0.74546 0.29393 0.60038 0.0
C374 C 0.77715 0.28729 0.60149 0.0
C375 C 0.78247 0.25659 0.61019 0.0
C376 C 0.80177 0.23947 0.58337 0.0
C377 C 0.79824 0.25505 0.64145 0.0
C378 C 0.74878 0.24702 0.61385 0.0
C379 C 0.72784 0.26894 0.6082 0.0
C380 C 0.69545 0.26543 0.61048 0.0
C381 C 0.68414 0.23875 0.61841 0.0
C382 C 0.7051 0.21567 0.62383 0.0
C383 C 0.7379 0.22013 0.6217 0.0
H384 H 0.37437 0.31015 0.21017 0.0
H385 H 0.4065 0.24626 0.13745 0.0
H386 H 0.42023 0.2133 0.17865 0.0
H387 H 0.43357 0.29544 0.26404 0.0
H388 H 0.4069 0.30096 0.29893 0.0
H389 H 0.39989 0.31964 0.26378 0.0
H390 H 0.344 0.29953 0.26404 0.0
H391 H 0.35073 0.28095 0.2993 0.0
H392 H 0.33942 0.26157 0.26478 0.0
H393 H 0.43117 0.18771 0.22768 0.0
H394 H 0.43497 0.16975 0.28104 0.0
H395 H 0.39446 0.24993 0.32207 0.0
C396 C 0.38451 0.2893 0.20292 0.0
C397 C 0.38955 0.28079 0.17056 0.0
C398 C 0.40225 0.25312 0.16206 0.0
C399 C 0.41032 0.23436 0.18529 0.0
C400 C 0.40533 0.24353 0.21694 0.0
C401 C 0.39243 0.27025 0.2258 0.0
C402 C 0.38853 0.27453 0.26147 0.0
C403 C 0.40841 0.2991 0.2727 0.0
C404 C 0.35359 0.27943 0.27307 0.0
C405 C 0.40135 0.24605 0.27131 0.0
C406 C 0.41107 0.22858 0.24524 0.0
C407 C 0.42349 0.20116 0.24826 0.0
C408 C 0.42545 0.19111 0.27869 0.0
C409 C 0.41488 0.20831 0.30584 0.0
C410 C 0.4031 0.23633 0.30193 0.0
H411 H 0.27405 0.66048 0.87696 0.0
H412 H 0.35158 0.61601 0.82138 0.0
H413 H 0.31589 0.60561 0.77914 0.0
H414 H 0.21223 0.61394 0.85474 0.0
H415 H 0.1837 0.64306 0.8543 0.0
H416 H 0.21496 0.64503 0.88044 0.0
H417 H 0.23191 0.69258 0.85655 0.0
H418 H 0.2008 0.69075 0.83032 0.0
H419 H 0.24095 0.69394 0.8145 0.0
H420 H 0.27145 0.60309 0.74163 0.0
H421 H 0.22322 0.60772 0.71316 0.0
H422 H 0.17605 0.65439 0.79434 0.0
C423 C 0.28365 0.6483 0.85607 0.0
C424 C 0.31569 0.63908 0.85246 0.0
C425 C 0.3271 0.62319 0.82471 0.0
C426 C 0.30699 0.61724 0.80063 0.0
C427 C 0.27557 0.62714 0.80486 0.0
C428 C 0.26404 0.64218 0.83208 0.0
C429 C 0.22983 0.65143 0.83079 0.0
C430 C 0.20895 0.63753 0.8566 0.0
C431 C 0.22565 0.68411 0.83317 0.0
C432 C 0.22382 0.6397 0.79829 0.0
C433 C 0.25036 0.62564 0.78367 0.0
C434 C 0.25055 0.61392 0.75302 0.0
C435 C 0.22306 0.61683 0.73694 0.0
C436 C 0.19568 0.63142 0.75145 0.0
C437 C 0.19623 0.64271 0.78268 0.0
H438 H 0.65097 0.76752 0.17498 0.0
H439 H 0.62669 0.69409 0.22944 0.0
H440 H 0.61366 0.72563 0.27666 0.0
H441 H 0.68954 0.80325 0.23429 0.0
H442 H 0.67614 0.8383 0.22438 0.0
H443 H 0.68045 0.81004 0.19447 0.0
H444 H 0.6222 0.81863 0.18253 0.0
H445 H 0.61766 0.84679 0.2127 0.0
H446 H 0.59151 0.81743 0.21407 0.0
H447 H 0.6067 0.76576 0.31958 0.0
H448 H 0.6097 0.80976 0.3534 0.0
H449 H 0.63899 0.85584 0.27038 0.0
C450 C 0.64282 0.75796 0.19672 0.0
C451 C 0.63973 0.72818 0.19814 0.0
C452 C 0.62878 0.7168 0.2273 0.0
C453 C 0.62137 0.73459 0.25442 0.0
C454 C 0.62485 0.76383 0.25214 0.0
C455 C 0.63537 0.77536 0.22396 0.0
C456 C 0.63896 0.80716 0.22797 0.0
C457 C 0.67331 0.81514 0.21981 0.0
C458 C 0.61622 0.82346 0.20814 0.0
C459 C 0.62959 0.81166 0.26294 0.0
C460 C 0.62108 0.78658 0.27656 0.0
C461 C 0.61301 0.78557 0.30904 0.0
C462 C 0.61455 0.81067 0.32808 0.0
C463 C 0.62443 0.83623 0.31454 0.0
C464 C 0.63119 0.83667 0.28146 0.0
H465 H 0.71785 0.39398 0.79718 0.0
H466 H 0.78551 0.35231 0.85314 0.0
H467 H 0.82767 0.35918 0.81168 0.0
H468 H 0.74899 0.36388 0.7232 0.0
H469 H 0.74243 0.39537 0.70141 0.0
H470 H 0.71757 0.38915 0.73648 0.0
H471 H 0.73113 0.43826 0.76067 0.0
H472 H 0.75594 0.44468 0.72556 0.0
H473 H 0.7718 0.44666 0.76367 0.0
H474 H 0.86214 0.36693 0.76244 0.0
H475 H 0.88649 0.37743 0.70951 0.0
H476 H 0.79732 0.41501 0.68597 0.0
C477 C 0.74163 0.38679 0.80091 0.0
C478 C 0.74826 0.3726 0.82848 0.0
C479 C 0.77969 0.36316 0.83223 0.0
C480 C 0.80393 0.36698 0.8088 0.0
C481 C 0.79659 0.38044 0.78164 0.0
C482 C 0.7663 0.39043 0.77761 0.0
C483 C 0.76471 0.40322 0.74556 0.0
C484 C 0.74209 0.38693 0.72549 0.0
C485 C 0.75534 0.4351 0.74909 0.0
C486 C 0.79866 0.39854 0.73226 0.0
C487 C 0.81668 0.38535 0.75341 0.0
C488 C 0.84837 0.37762 0.74578 0.0
C489 C 0.86201 0.38358 0.71568 0.0
C490 C 0.84399 0.39728 0.69371 0.0
C491 C 0.81195 0.40492 0.70236 0.0
H492 H 0.35491 0.86379 0.77355 0.0
H493 H 0.42058 0.82672 0.69887 0.0
H494 H 0.43395 0.78773 0.73396 0.0
H495 H 0.40067 0.84703 0.83926 0.0
H496 H 0.3662 0.83989 0.86462 0.0
H497 H 0.36363 0.86521 0.8341 0.0
H498 H 0.31858 0.83714 0.81126 0.0
H499 H 0.32103 0.81173 0.84162 0.0
H500 H 0.32492 0.79978 0.80065 0.0
H501 H 0.43716 0.75116 0.77734 0.0
H502 H 0.43114 0.72164 0.8242 0.0
H503 H 0.36296 0.78388 0.86913 0.0
C504 C 0.37234 0.84765 0.76445 0.0
C505 C 0.38668 0.84828 0.73337 0.0
C506 C 0.40939 0.82672 0.72262 0.0
C507 C 0.41705 0.80451 0.74239 0.0
C508 C 0.40197 0.80441 0.77282 0.0
C509 C 0.38023 0.82563 0.78374 0.0
C510 C 0.36648 0.8206 0.81685 0.0
C511 C 0.37475 0.84461 0.84008 0.0
C512 C 0.33064 0.8171 0.81762 0.0
C513 C 0.38349 0.79293 0.82298 0.0
C514 C 0.40393 0.78386 0.79743 0.0
C515 C 0.42134 0.75823 0.79746 0.0
C516 C 0.41761 0.74151 0.82415 0.0
C517 C 0.39661 0.75042 0.85051 0.0
C518 C 0.37961 0.77663 0.84976 0.0
H519 H 0.72869 0.57002 0.17444 0.0
H520 H 0.65495 0.62447 0.2237 0.0
H521 H 0.69033 0.63513 0.26573 0.0
H522 H 0.76349 0.54272 0.24479 0.0
H523 H 0.803 0.54356 0.22644 0.0
H524 H 0.77053 0.5375 0.20256 0.0
H525 H 0.78694 0.58008 0.16887 0.0
H526 H 0.81911 0.58661 0.19294 0.0
H527 H 0.79026 0.61465 0.18797 0.0
H528 H 0.73526 0.64303 0.29998 0.0
H529 H 0.78538 0.64618 0.32504 0.0
H530 H 0.83039 0.58751 0.25272 0.0
C531 C 0.71954 0.58352 0.1945 0.0
C532 C 0.68878 0.59612 0.19589 0.0
C533 C 0.67822 0.61428 0.22224 0.0
C534 C 0.69822 0.62056 0.24618 0.0
C535 C 0.72876 0.60857 0.24343 0.0
C536 C 0.73929 0.59025 0.21837 0.0
C537 C 0.77379 0.58171 0.21984 0.0
C538 C 0.77794 0.54946 0.22365 0.0
C539 C 0.79369 0.59135 0.19067 0.0
C540 C 0.78118 0.59834 0.24947 0.0
C541 C 0.75481 0.61355 0.2628 0.0
C542 C 0.75592 0.63093 0.28994 0.0
C543 C 0.78453 0.63253 0.30405 0.0
C544 C 0.81187 0.61693 0.29104 0.0
C545 C 0.81005 0.5998 0.26318 0.0
H546 H 0.58354 0.24314 0.6835 0.0
H547 H 0.62375 0.15809 0.68983 0.0
H548 H 0.65043 0.1734 0.73616 0.0
H549 H 0.65113 0.28143 0.71033 0.0
H550 H 0.62645 0.30828 0.73242 0.0
H551 H 0.61298 0.29106 0.69755 0.0
H552 H 0.56268 0.27618 0.73007 0.0
H553 H 0.57597 0.29322 0.76504 0.0
H554 H 0.56644 0.25615 0.765 0.0
H555 H 0.66985 0.19746 0.7847 0.0
H556 H 0.68098 0.22814 0.83051 0.0
H557 H 0.62648 0.2975 0.79419 0.0
C558 C 0.59827 0.22769 0.69429 0.0
C559 C 0.60168 0.19908 0.68224 0.0
C560 C 0.62098 0.1799 0.69764 0.0
C561 C 0.63625 0.18854 0.72434 0.0
C562 C 0.63193 0.21667 0.73572 0.0
C563 C 0.6135 0.23602 0.7211 0.0
C564 C 0.61139 0.26468 0.73897 0.0
C565 C 0.62639 0.28772 0.71861 0.0
C566 C 0.57708 0.27303 0.75045 0.0
C567 C 0.63087 0.25817 0.7664 0.0
C568 C 0.64275 0.23043 0.7639 0.0
C569 C 0.66076 0.21927 0.78682 0.0
C570 C 0.66674 0.23687 0.81298 0.0
C571 C 0.65462 0.26539 0.81631 0.0
C572 C 0.63655 0.27604 0.79241 0.0
H573 H 0.27474 0.3788 0.18541 0.0
H574 H 0.35917 0.41309 0.22079 0.0
H575 H 0.33139 0.41874 0.27444 0.0
H576 H 0.21747 0.42314 0.23412 0.0
H577 H 0.1905 0.3946 0.23899 0.0
H578 H 0.21653 0.39552 0.20361 0.0
H579 H 0.23821 0.34472 0.2133 0.0
H580 H 0.21239 0.34365 0.24874 0.0
H581 H 0.25422 0.33767 0.25038 0.0
H582 H 0.29412 0.41756 0.32519 0.0
H583 H 0.25206 0.41005 0.3672 0.0
H584 H 0.19319 0.37603 0.2969 0.0
C585 C 0.2875 0.38785 0.20423 0.0
C586 C 0.31921 0.39559 0.1988 0.0
C587 C 0.33483 0.4072 0.2243 0.0
C588 C 0.31923 0.41041 0.25484 0.0
C589 C 0.28804 0.40201 0.25933 0.0
C590 C 0.27243 0.39107 0.23454 0.0
C591 C 0.23958 0.38235 0.24529 0.0
C592 C 0.21455 0.39996 0.22957 0.0
C593 C 0.2359 0.3502 0.23906 0.0
C594 C 0.23895 0.38981 0.28023 0.0
C595 C 0.267 0.40123 0.288 0.0
C596 C 0.27205 0.40883 0.3192 0.0
C597 C 0.24798 0.40446 0.34293 0.0
C598 C 0.21918 0.39252 0.33542 0.0
C599 C 0.21473 0.38539 0.30352 0.0
H600 H 0.92925 0.3634 0.48977 0.0
H601 H 0.98804 0.36011 0.56851 0.0
H602 H 0.0347 0.34838 0.53099 0.0
H603 H 0.97114 0.30558 0.44067 0.0
H604 H 0.96481 0.32358 0.40489 0.0
H605 H 0.9366 0.3284 0.43863 0.0
H606 H 0.94216 0.38225 0.43547 0.0
H607 H 0.97267 0.37893 0.4037 0.0
H608 H 0.9796 0.39766 0.44033 0.0
H609 H 0.07519 0.33833 0.48345 0.0
H610 H 0.1046 0.32934 0.43139 0.0
H611 H 0.0192 0.34331 0.38486 0.0
C612 C 0.95183 0.35973 0.49928 0.0
C613 C 0.95505 0.36262 0.53206 0.0
C614 C 0.98502 0.35771 0.54349 0.0
C615 C 0.01162 0.3512 0.52233 0.0
C616 C 1.00768 0.34947 0.48997 0.0
C617 C 0.97836 0.35316 0.47866 0.0
C618 C 0.98016 0.35127 0.44297 0.0
C619 C 0.96212 0.32568 0.4311 0.0
C620 C 0.96796 0.37918 0.42979 0.0
C621 C 0.01529 0.34662 0.43568 0.0
C622 C 0.03081 0.34529 0.46302 0.0
C623 C 0.06326 0.33991 0.46197 0.0
C624 C 0.08007 0.33549 0.43229 0.0
C625 C 0.06468 0.33706 0.4041 0.0
C626 C 0.03181 0.3426 0.40601 0.0
H627 H 0.38094 0.09059 0.53157 0.0
H628 H 0.44173 0.04817 0.45647 0.0
H629 H 0.44254 1.00427 0.48687 0.0
H630 H 0.41523 0.05666 0.59785 0.0
H631 H 0.37745 0.05436 0.6196 0.0
H632 H 0.38428 0.08283 0.59303 0.0
H633 H 0.3359 0.06834 0.56341 0.0
H634 H 0.32902 0.03979 0.58977 0.0
H635 H 0.33396 0.03231 0.54773 0.0
H636 H 0.43468 0.96388 0.52589 0.0
H637 H 0.41685 0.93135 0.56798 0.0
H638 H 0.36016 1.00092 0.61534 0.0
C639 C 0.39502 0.0723 0.52182 0.0
C640 C 0.4115 0.07291 0.49176 0.0
C641 C 0.42889 0.04817 0.47946 0.0
C642 C 0.4296 0.02318 0.49662 0.0
C643 C 0.41266 0.02318 0.52605 0.0
C644 C 0.39568 0.04718 0.53845 0.0
C645 C 0.3778 0.04137 0.56952 0.0
C646 C 0.3894 0.05991 0.5966 0.0
C647 C 0.34206 0.0457 0.56746 0.0
C648 C 0.38696 1.0103 0.57253 0.0
C649 C 0.40741 1.0001 0.54757 0.0
C650 C 0.41869 0.97173 0.54555 0.0
C651 C 0.40851 0.9534 0.56951 0.0
C652 C 0.38691 0.96347 0.59477 0.0
C653 C 0.37642 0.99237 0.5962 0.0
H654 H 0.07048 0.6804 0.55802 0.0
H655 H 0.99217 0.70784 0.62497 0.0
H656 H 0.95788 0.71154 0.58098 0.0
H657 H 0.04919 0.72294 0.49201 0.0
H658 H 0.06123 0.69486 0.46309 0.0
H659 H 0.08055 0.69795 0.49927 0.0
H660 H 0.06754 0.64581 0.51126 0.0
H661 H 0.04831 0.64253 0.47515 0.0
H662 H 0.02723 0.63517 0.51219 0.0
H663 H 0.93099 0.70774 0.53042 0.0
H664 H 0.91329 0.69563 0.47773 0.0
H665 H 1.00874 0.669 0.44421 0.0
C666 C 0.0462 0.68732 0.56368 0.0
C667 C 0.03416 0.69376 0.59525 0.0
C668 C 1.00221 0.7031 0.60112 0.0
C669 C 0.98249 0.7052 0.57623 0.0
C670 C 0.99507 0.69802 0.54556 0.0
C671 C 0.02622 0.68929 0.53923 0.0
C672 C 0.03344 0.68063 0.50463 0.0
C673 C 0.05753 0.70027 0.48882 0.0
C674 C 0.04479 0.64917 0.50059 0.0
C675 C 1.00126 0.68521 0.49252 0.0
C676 C 0.97954 0.69558 0.51644 0.0
C677 C 0.94786 0.6999 0.51147 0.0
C678 C 0.93801 0.69286 0.48153 0.0
C679 C 0.95967 0.68145 0.45691 0.0
C680 C 0.99183 0.67823 0.46237 0.0
H681 H 0.67906 0.04859 0.5678 0.0
H682 H 0.58276 0.08031 0.56398 0.0
H683 H 0.57288 0.04003 0.52711 0.0
H684 H 0.69145 0.02632 0.48591 0.0
H685 H 0.71568 0.99559 0.49354 0.0
H686 H 0.7143 0.02657 0.5199 0.0
H687 H 0.69796 0.99522 0.56684 0.0
H688 H 0.6988 0.96421 0.5405 0.0
H689 H 0.66356 0.97405 0.56525 0.0
H690 H 0.57385 0.99489 0.49048 0.0
H691 H 0.58739 0.95322 0.45369 0.0
H692 H 0.68313 0.95251 0.48163 0.0
C693 C 0.65587 0.04717 0.5592 0.0
C694 C 0.63168 0.06767 0.56889 0.0
C695 C 0.60174 0.06499 0.55683 0.0
C696 C 0.59585 0.04204 0.53603 0.0
C697 C 0.62016 0.02196 0.52735 0.0
C698 C 0.64969 0.0246 0.53832 0.0
C699 C 0.67226 1.00095 0.52468 0.0
C700 C 0.70005 1.01309 0.50482 0.0
C701 C 0.68381 0.98252 0.55089 0.0
C702 C 0.65095 0.98456 0.50418 0.0
C703 C 0.62085 0.99669 0.50621 0.0
C704 C 0.59736 0.98525 0.48882 0.0
C705 C 0.60515 0.9614 0.46818 0.0
C706 C 0.63625 0.94948 0.46488 0.0
C707 C 0.65909 0.96101 0.4837 0.0
H708 H 0.50585 0.10088 0.35984 0.0
H709 H 0.42733 0.04959 0.33671 0.0
H710 H 0.46482 1.00953 0.31943 0.0
H711 H 0.56394 0.07191 0.29644 0.0
H712 H 0.59559 0.0734 0.32219 0.0
H713 H 0.56303 0.09901 0.32772 0.0
H714 H 0.55307 0.08494 0.38594 0.0
H715 H 0.58547 0.05935 0.38061 0.0
H716 H 0.54694 0.04816 0.3944 0.0
H717 H 0.51086 0.97354 0.3108 0.0
H718 H 0.56015 0.94477 0.31308 0.0
H719 H 0.60741 0.02011 0.34353 0.0
C720 C 0.49641 0.08148 0.35048 0.0
C721 C 0.46362 0.07841 0.34948 0.0
C722 C 0.45237 0.0525 0.33743 0.0
C723 C 0.47352 0.02968 0.32754 0.0
C724 C 0.50573 0.03327 0.32968 0.0
C725 C 0.51704 0.05865 0.34075 0.0
C726 C 0.55217 0.05651 0.34381 0.0
C727 C 0.56972 0.07639 0.32118 0.0
C728 C 0.55984 0.06258 0.37822 0.0
C729 C 0.55892 0.02562 0.33369 0.0
C730 C 0.53198 1.01264 0.32514 0.0
C731 C 0.5321 0.98363 0.31708 0.0
C732 C 0.56018 0.96743 0.3186 0.0
C733 C 0.58772 0.98016 0.32844 0.0
C734 C 0.5871 1.0098 0.33523 0.0
H735 H 0.03061 0.60019 0.64911 0.0
H736 H 0.11531 0.55732 0.60501 0.0
H737 H 0.08264 0.51918 0.58367 0.0
H738 H 0.99129 0.54019 0.67357 0.0
H739 H 0.95279 0.55379 0.66563 0.0
H740 H 0.98279 0.57805 0.67504 0.0
H741 H 0.97616 0.60371 0.62293 0.0
H742 H 0.946 0.57956 0.61336 0.0
H743 H 0.97985 0.58339 0.5859 0.0
H744 H 0.03974 0.48345 0.57188 0.0
H745 H 0.99171 0.45554 0.5682 0.0
H746 H 0.93614 0.52387 0.61903 0.0
C747 C 0.04242 0.58288 0.63479 0.0
C748 C 0.07555 0.5815 0.62896 0.0
C749 C 0.08996 0.55874 0.60973 0.0
C750 C 0.07156 0.53704 0.5976 0.0
C751 C 0.03886 0.53884 0.60447 0.0
C752 C 0.02452 0.56151 0.62229 0.0
C753 C 0.98924 0.55863 0.62709 0.0
C754 C 0.97841 0.55759 0.66242 0.0
C755 C 0.97179 0.58275 0.61138 0.0
C756 C 0.98575 0.53028 0.61 0.0
C757 C 0.01453 0.51911 0.59699 0.0
C758 C 0.01713 0.49225 0.58166 0.0
C759 C 0.98976 0.47648 0.57984 0.0
C760 C 0.9601 0.4876 0.59314 0.0
C761 C 0.95826 0.51502 0.60804 0.0
H762 H 0.56566 0.03099 0.70567 0.0
H763 H 0.52469 0.11603 0.72453 0.0
H764 H 0.47262 0.0958 0.73749 0.0
H765 H 0.50472 1.005 0.66612 0.0
H766 H 0.50648 0.96959 0.68082 0.0
H767 H 0.54124 0.9903 0.67832 0.0
H768 H 0.54745 0.98428 0.73791 0.0
H769 H 0.51277 0.96328 0.74056 0.0
H770 H 0.51506 0.99435 0.76639 0.0
H771 H 0.42401 0.06651 0.74198 0.0
H772 H 0.38317 0.03081 0.73683 0.0
H773 H 0.45627 0.96501 0.71552 0.0
C774 C 0.54598 0.04526 0.71368 0.0
C775 C 0.54921 0.07505 0.71447 0.0
C776 C 0.52263 0.09313 0.72389 0.0
C777 C 0.49305 0.08182 0.73141 0.0
C778 C 0.49043 0.05235 0.72946 0.0
C779 C 0.51626 0.03431 0.721 0.0
C780 C 0.50668 1.0037 0.71751 0.0
C781 C 0.51528 0.99145 0.68369 0.0
C782 C 0.52136 0.98532 0.74207 0.0
C783 C 0.47138 1.00744 0.72441 0.0
C784 C 0.46243 0.03556 0.73168 0.0
C785 C 0.43079 0.04434 0.73685 0.0
C786 C 0.40772 0.02389 0.73398 0.0
C787 C 0.41643 0.99508 0.72571 0.0
C788 C 0.44875 0.98685 0.72164 0.0
H789 H 0.97564 0.57222 0.41794 0.0
H790 H 0.89805 0.52316 0.38851 0.0
H791 H 0.92922 0.47843 0.39494 0.0
H792 H 0.03558 0.53211 0.3787 0.0
H793 H 0.06304 0.53476 0.4088 0.0
H794 H 0.03322 0.56235 0.40631 0.0
H795 H 0.01288 0.55581 0.46449 0.0
H796 H 0.04307 0.5285 0.46745 0.0
H797 H 1.00232 0.52095 0.477 0.0
H798 H 0.97285 0.43992 0.39595 0.0
H799 H 0.02171 0.41055 0.39883 0.0
H800 H 0.06944 0.48517 0.43046 0.0
C801 C 0.96483 0.55198 0.41402 0.0
C802 C 0.93435 0.55094 0.40325 0.0
C803 C 0.92109 0.52425 0.39751 0.0
C804 C 0.93876 0.49883 0.40085 0.0
C805 C 0.96932 0.50061 0.41049 0.0
C806 C 0.98188 0.52657 0.4178 0.0
C807 C 0.01565 0.52301 0.42626 0.0
C808 C 0.03818 0.539 0.40366 0.0
C809 C 0.01864 0.53263 0.46086 0.0
C810 C 0.02069 0.49107 0.42144 0.0
C811 C 0.99378 0.47848 0.41228 0.0
C812 C 0.99374 0.44951 0.40389 0.0
C813 C 0.02169 0.43301 0.40539 0.0
C814 C 0.04931 0.44534 0.41548 0.0
C815 C 0.04857 0.47483 0.42358 0.0
H816 H 0.34582 0.47991 0.08141 0.0
H817 H 0.29206 0.43774 1.0116 0.0
H818 H 0.28296 0.48384 0.98743 0.0
H819 H 0.3005 0.54736 0.08892 0.0
H820 H 0.33509 0.56801 0.09221 0.0
H821 H 0.33431 0.53233 0.10619 0.0
H822 H 0.38496 0.51846 0.0704 0.0
H823 H 0.38601 0.55409 0.05652 0.0
H824 H 0.3858 0.52422 0.02866 0.0
H825 H 0.28371 0.5339 0.96805 0.0
H826 H 0.29582 0.58314 0.95413 0.0
H827 H 0.3504 0.59176 0.03569 0.0
C828 C 0.33206 0.48012 0.0611 0.0
C829 C 0.31972 0.45488 0.04852 0.0
C830 C 0.3015 0.45664 0.02206 0.0
C831 C 0.29623 0.48279 1.00809 0.0
C832 C 0.30921 0.50707 0.02088 0.0
C833 C 0.32677 0.50592 0.0468 0.0
C834 C 0.3401 0.53457 0.0547 0.0
C835 C 0.32669 0.54625 0.08745 0.0
C836 C 0.37636 0.53271 0.05241 0.0
C837 C 0.32788 0.55196 0.02872 0.0
C838 C 0.3098 0.53581 1.00966 0.0
C839 C 0.29755 0.5468 0.98302 0.0
C840 C 0.30459 0.57473 0.97525 0.0
C841 C 0.32385 0.59136 0.99393 0.0
C842 C 0.33498 0.57991 0.0214 0.0
H843 H 0.45488 0.60216 0.99494 0.0
H844 H 0.48772 0.65296 0.91661 0.0
H845 H 0.53679 0.66139 0.94223 0.0
H846 H 0.48246 0.64545 0.05491 0.0
H847 H 0.49428 0.61689 0.07903 0.0
H848 H 0.46307 0.61197 0.05331 0.0
H849 H 0.4929 0.56762 0.02627 0.0
H850 H 0.52406 0.57213 0.05221 0.0
H851 H 0.53295 0.57054 1.01001 0.0
H852 H 0.57963 0.66798 0.97789 0.0
H853 H 0.61593 0.6702 0.01983 0.0
H854 H 0.55635 0.61507 0.07622 0.0
C855 C 0.4727 0.61448 0.98275 0.0
C856 C 0.46743 0.62677 0.95355 0.0
C857 C 0.49119 0.64318 0.9388 0.0
C858 C 0.51914 0.64814 0.95323 0.0
C859 C 0.52311 0.63647 0.98239 0.0
C860 C 0.50076 0.61972 0.99689 0.0
C861 C 0.51038 0.61086 0.02894 0.0
C862 C 0.4861 0.62196 0.05561 0.0
C863 C 0.51537 0.57835 0.02937 0.0
C864 C 0.54134 0.62578 0.03046 0.0
C865 C 0.54813 0.6403 1.00322 0.0
C866 C 0.57475 0.65645 0.99916 0.0
C867 C 0.59521 0.65762 0.02334 0.0
C868 C 0.58918 0.64275 0.05149 0.0
C869 C 0.56173 0.62662 0.05504 0.0
H870 H 0.67424 0.42522 1.01241 0.0
H871 H 0.75286 0.42879 0.94191 0.0
H872 H 0.76373 0.47739 0.96202 0.0
H873 H 0.64681 0.49585 1.0061 0.0
H874 H 0.63483 0.50179 0.0475 0.0
H875 H 0.63531 0.46637 0.02977 0.0
H876 H 0.67219 0.4484 0.07107 0.0
H877 H 0.67155 0.48374 0.08915 0.0
H878 H 0.70861 0.46591 0.07604 0.0
H879 H 0.76426 0.5267 0.98864 0.0
H880 H 0.75378 0.57264 0.01885 0.0
H881 H 0.67399 0.53658 0.07072 0.0
C882 C 0.69427 0.43592 1.00181 0.0
C883 C 0.71307 0.42313 0.97593 0.0
C884 C 0.73838 0.43823 0.96192 0.0
C885 C 0.7447 0.46577 0.97319 0.0
C886 C 0.72532 0.47801 0.99838 0.0
C887 C 0.70062 0.46353 1.01252 0.0
C888 C 0.68206 0.48204 0.03785 0.0
C889 C 0.64773 0.48679 0.02981 0.0
C890 C 0.68372 0.46926 0.07046 0.0
C891 C 0.70001 0.50925 0.03562 0.0
C892 C 0.72504 0.5065 1.01293 0.0
C893 C 0.74478 0.52903 1.00656 0.0
C894 C 0.73872 0.55501 0.02383 0.0
C895 C 0.71295 0.55834 0.04694 0.0
C896 C 0.69355 0.53499 0.05285 0.0
H897 H 0.4494 0.34286 0.02111 0.0
H898 H 0.46856 0.42064 0.07323 0.0
H899 H 0.51467 0.42782 0.03505 0.0
H900 H 0.52967 0.31932 1.00334 0.0
H901 H 0.52232 0.30419 0.96509 0.0
H902 H 0.49138 0.30624 0.99647 0.0
H903 H 0.45565 0.33397 0.9606 0.0
H904 H 0.48672 0.33246 0.9293 0.0
H905 H 0.46916 0.36637 0.94364 0.0
H906 H 0.55911 0.42587 0.989 0.0
H907 H 0.59934 0.41241 0.94508 0.0
H908 H 0.54927 0.33584 0.92506 0.0
C909 C 0.46322 0.36148 0.02466 0.0
C910 C 0.45525 0.38128 0.05013 0.0
C911 C 0.47429 0.40512 0.05398 0.0
C912 C 0.50035 0.40944 0.03225 0.0
C913 C 0.50709 0.38964 1.00696 0.0
C914 C 0.48913 0.36594 1.0035 0.0
C915 C 0.50138 0.34709 0.97529 0.0
C916 C 0.51182 0.31747 0.98568 0.0
C917 C 0.47676 0.34486 0.95077 0.0
C918 C 0.52921 0.36373 0.96314 0.0
C919 C 0.53216 0.38837 0.98137 0.0
C920 C 0.55681 0.40665 0.97463 0.0
C921 C 0.57941 0.399 0.94941 0.0
C922 C 0.57733 0.37318 0.93143 0.0
C923 C 0.55143 0.35583 0.93814 0.0
loop_
_geom_bond_atom_site_label_1
_geom_bond_atom_site_label_2
_geom_bond_distance
_geom_bond_site_symmetry_2
_ccdc_geom_bond_type
Cu0 N1 1.999 . S
Cu0 O6 1.974 . S
Cu0 N11 1.985 . S
Cu0 O20 1.959 . S
N1 Cu0 1.999 . S
N1 C3 1.263 . S
N1 C5 1.389 . S
N2 C3 1.358 . S
N2 C4 1.400 . S
C3 N1 1.263 . S
C3 N2 1.358 . S
C3 H9 0.930 . S
C4 N2 1.400 . S
C4 C5 1.351 . S
C4 H21 0.930 . S
C5 N1 1.389 . S
C5 C4 1.351 . S
C5 H10 0.930 . S
O6 Cu0 1.974 . S
O6 C16 1.282 . S
C7 O8 1.261 . S
C7 O20 1.251 . S
O8 C7 1.261 . S
H9 C3 0.930 . S
H10 C5 0.930 . S
N11 Cu0 1.985 . S
N11 C13 1.335 . S
N11 C14 1.390 . S
N12 C13 1.345 . S
N12 C15 1.336 . S
C13 N11 1.335 . S
C13 N12 1.345 . S
C13 H18 0.930 . S
C14 N11 1.390 . S
C14 C15 1.346 . S
C14 H19 0.930 . S
C15 N12 1.336 . S
C15 C14 1.346 . S
C15 H22 0.929 . S
C16 O6 1.282 . S
C16 O17 1.216 . S
O17 C16 1.216 . S
H18 C13 0.930 . S
H19 C14 0.930 . S
O20 Cu0 1.959 . S
O20 C7 1.251 . S
H21 C4 0.930 . S
H22 C15 0.929 . S
Cu23 N24 1.999 . S
Cu23 O29 1.974 . S
Cu23 N34 1.985 . S
Cu23 O43 1.959 . S
N24 Cu23 1.999 . S
N24 C26 1.263 . S
N24 C28 1.389 . S
N25 C26 1.358 . S
N25 C27 1.400 . S
C26 N24 1.263 . S
C26 N25 1.358 . S
C26 H32 0.930 . S
C27 N25 1.400 . S
C27 C28 1.351 . S
C27 H44 0.930 . S
C28 N24 1.389 . S
C28 C27 1.351 . S
C28 H33 0.930 . S
O29 Cu23 1.974 . S
O29 C39 1.282 . S
C30 O31 1.261 . S
C30 O43 1.251 . S
O31 C30 1.261 . S
H32 C26 0.930 . S
H33 C28 0.930 . S
N34 Cu23 1.985 . S
N34 C36 1.335 . S
N34 C37 1.390 . S
N35 C36 1.345 . S
N35 C38 1.336 . S
C36 N34 1.335 . S
C36 N35 1.345 . S
C36 H41 0.930 . S
C37 N34 1.390 . S
C37 C38 1.346 . S
C37 H42 0.930 . S
C38 N35 1.336 . S
C38 C37 1.346 . S
C38 H45 0.929 . S
C39 O29 1.282 . S
C39 O40 1.216 . S
O40 C39 1.216 . S
H41 C36 0.930 . S
H42 C37 0.930 . S
O43 Cu23 1.959 . S
O43 C30 1.251 . S
H44 C27 0.930 . S
H45 C38 0.929 . S
Cu46 N47 1.999 . S
Cu46 O52 1.974 . S
Cu46 N57 1.985 . S
Cu46 O66 1.959 . S
N47 Cu46 1.999 . S
N47 C49 1.263 . S
N47 C51 1.389 . S
N48 C49 1.358 . S
N48 C50 1.400 . S
C49 N47 1.263 . S
C49 N48 1.358 . S
C49 H55 0.930 . S
C50 N48 1.400 . S
C50 C51 1.351 . S
C50 H67 0.930 . S
C51 N47 1.389 . S
C51 C50 1.351 . S
C51 H56 0.930 . S
O52 Cu46 1.974 . S
O52 C62 1.282 . S
C53 O54 1.261 . S
C53 O66 1.251 . S
O54 C53 1.261 . S
H55 C49 0.930 . S
H56 C51 0.930 . S
N57 Cu46 1.985 . S
N57 C59 1.335 . S
N57 C60 1.390 . S
N58 C59 1.345 . S
N58 C61 1.336 . S
C59 N57 1.335 . S
C59 N58 1.345 . S
C59 H64 0.930 . S
C60 N57 1.390 . S
C60 C61 1.346 . S
C60 H65 0.930 . S
C61 N58 1.336 . S
C61 C60 1.346 . S
C61 H68 0.929 . S
C62 O52 1.282 . S
C62 O63 1.216 . S
O63 C62 1.216 . S
H64 C59 0.930 . S
H65 C60 0.930 . S
O66 Cu46 1.959 . S
O66 C53 1.251 . S
H67 C50 0.930 . S
H68 C61 0.929 . S
Cu69 N70 1.999 . S
Cu69 O75 1.974 . S
Cu69 N80 1.985 . S
Cu69 O89 1.959 . S
N70 Cu69 1.999 . S
N70 C72 1.263 . S
N70 C74 1.389 . S
N71 C72 1.358 . S
N71 C73 1.400 . S
C72 N70 1.263 . S
C72 N71 1.358 . S
C72 H78 0.930 . S
C73 N71 1.400 . S
C73 C74 1.351 . S
C73 H90 0.930 . S
C74 N70 1.389 . S
C74 C73 1.351 . S
C74 H79 0.930 . S
O75 Cu69 1.974 . S
O75 C85 1.282 . S
C76 O77 1.261 . S
C76 O89 1.251 . S
O77 C76 1.261 . S
H78 C72 0.930 . S
H79 C74 0.930 . S
N80 Cu69 1.985 . S
N80 C82 1.335 . S
N80 C83 1.390 . S
N81 C82 1.345 . S
N81 C84 1.336 . S
C82 N80 1.335 . S
C82 N81 1.345 . S
C82 H87 0.930 . S
C83 N80 1.390 . S
C83 C84 1.346 . S
C83 H88 0.930 . S
C84 N81 1.336 . S
C84 C83 1.346 . S
C84 H91 0.929 . S
C85 O75 1.282 . S
C85 O86 1.216 . S
O86 C85 1.216 . S
H87 C82 0.930 . S
H88 C83 0.930 . S
O89 Cu69 1.959 . S
O89 C76 1.251 . S
H90 C73 0.930 . S
H91 C84 0.929 . S
Cu92 N93 1.999 . S
Cu92 O98 1.974 . S
Cu92 N103 1.985 . S
Cu92 O112 1.959 . S
N93 Cu92 1.999 . S
N93 C95 1.263 . S
N93 C97 1.389 . S
N94 C95 1.358 . S
N94 C96 1.400 . S
C95 N93 1.263 . S
C95 N94 1.358 . S
C95 H101 0.930 . S
C96 N94 1.400 . S
C96 C97 1.351 . S
C96 H113 0.930 . S
C97 N93 1.389 . S
C97 C96 1.351 . S
C97 H102 0.930 . S
O98 Cu92 1.974 . S
O98 C108 1.282 . S
C99 O100 1.261 . S
C99 O112 1.251 . S
O100 C99 1.261 . S
H101 C95 0.930 . S
H102 C97 0.930 . S
N103 Cu92 1.985 . S
N103 C105 1.335 . S
N103 C106 1.390 . S
N104 C105 1.345 . S
N104 C107 1.336 . S
C105 N103 1.335 . S
C105 N104 1.345 . S
C105 H110 0.930 . S
C106 N103 1.390 . S
C106 C107 1.346 . S
C106 H111 0.930 . S
C107 N104 1.336 . S
C107 C106 1.346 . S
C107 H114 0.929 . S
C108 O98 1.282 . S
C108 O109 1.216 . S
O109 C108 1.216 . S
H110 C105 0.930 . S
H111 C106 0.930 . S
O112 Cu92 1.959 . S
O112 C99 1.251 . S
H113 C96 0.930 . S
H114 C107 0.929 . S
Cu115 N116 1.999 . S
Cu115 O121 1.974 . S
Cu115 N126 1.985 . S
Cu115 O135 1.959 . S
N116 Cu115 1.999 . S
N116 C118 1.263 . S
N116 C120 1.389 . S
N117 C118 1.358 . S
N117 C119 1.400 . S
C118 N116 1.263 . S
C118 N117 1.358 . S
C118 H124 0.930 . S
C119 N117 1.400 . S
C119 C120 1.351 . S
C119 H136 0.930 . S
C120 N116 1.389 . S
C120 C119 1.351 . S
C120 H125 0.930 . S
O121 Cu115 1.974 . S
O121 C131 1.282 . S
C122 O123 1.261 . S
C122 O135 1.251 . S
O123 C122 1.261 . S
H124 C118 0.930 . S
H125 C120 0.930 . S
N126 Cu115 1.985 . S
N126 C128 1.335 . S
N126 C129 1.390 . S
N127 C128 1.345 . S
N127 C130 1.336 . S
C128 N126 1.335 . S
C128 N127 1.345 . S
C128 H133 0.930 . S
C129 N126 1.390 . S
C129 C130 1.346 . S
C129 H134 0.930 . S
C130 N127 1.336 . S
C130 C129 1.346 . S
C130 H137 0.929 . S
C131 O121 1.282 . S
C131 O132 1.216 . S
O132 C131 1.216 . S
H133 C128 0.930 . S
H134 C129 0.930 . S
O135 Cu115 1.959 . S
O135 C122 1.251 . S
H136 C119 0.930 . S
H137 C130 0.929 . S
Cu138 N139 1.999 . S
Cu138 O144 1.974 . S
Cu138 N149 1.985 . S
Cu138 O158 1.959 . S
N139 Cu138 1.999 . S
N139 C141 1.263 . S
N139 C143 1.389 . S
N140 C141 1.358 . S
N140 C142 1.400 . S
C141 N139 1.263 . S
C141 N140 1.358 . S
C141 H147 0.930 . S
C142 N140 1.400 . S
C142 C143 1.351 . S
C142 H159 0.930 . S
C143 N139 1.389 . S
C143 C142 1.351 . S
C143 H148 0.930 . S
O144 Cu138 1.974 . S
O144 C154 1.282 . S
C145 O146 1.261 . S
C145 O158 1.251 . S
O146 C145 1.261 . S
H147 C141 0.930 . S
H148 C143 0.930 . S
N149 Cu138 1.985 . S
N149 C151 1.335 . S
N149 C152 1.390 . S
N150 C151 1.345 . S
N150 C153 1.336 . S
C151 N149 1.335 . S
C151 N150 1.345 . S
C151 H156 0.930 . S
C152 N149 1.390 . S
C152 C153 1.346 . S
C152 H157 0.930 . S
C153 N150 1.336 . S
C153 C152 1.346 . S
C153 H160 0.929 . S
C154 O144 1.282 . S
C154 O155 1.216 . S
O155 C154 1.216 . S
H156 C151 0.930 . S
H157 C152 0.930 . S
O158 Cu138 1.959 . S
O158 C145 1.251 . S
H159 C142 0.930 . S
H160 C153 0.929 . S
Cu161 N162 1.999 . S
Cu161 O167 1.974 . S
Cu161 N172 1.985 . S
Cu161 O181 1.959 . S
N162 Cu161 1.999 . S
N162 C164 1.263 . S
N162 C166 1.389 . S
N163 C164 1.358 . S
N163 C165 1.400 . S
C164 N162 1.263 . S
C164 N163 1.358 . S
C164 H170 0.930 . S
C165 N163 1.400 . S
C165 C166 1.351 . S
C165 H182 0.930 . S
C166 N162 1.389 . S
C166 C165 1.351 . S
C166 H171 0.930 . S
O167 Cu161 1.974 . S
O167 C177 1.282 . S
C168 O169 1.261 . S
C168 O181 1.251 . S
O169 C168 1.261 . S
H170 C164 0.930 . S
H171 C166 0.930 . S
N172 Cu161 1.985 . S
N172 C174 1.335 . S
N172 C175 1.390 . S
N173 C174 1.345 . S
N173 C176 1.336 . S
C174 N172 1.335 . S
C174 N173 1.345 . S
C174 H179 0.930 . S
C175 N172 1.390 . S
C175 C176 1.346 . S
C175 H180 0.930 . S
C176 N173 1.336 . S
C176 C175 1.346 . S
C176 H183 0.929 . S
C177 O167 1.282 . S
C177 O178 1.216 . S
O178 C177 1.216 . S
H179 C174 0.930 . S
H180 C175 0.930 . S
O181 Cu161 1.959 . S
O181 C168 1.251 . S
H182 C165 0.930 . S
H183 C176 0.929 . S
Cu184 N185 1.999 . S
Cu184 O190 1.974 . S
Cu184 N195 1.985 . S
Cu184 O204 1.959 . S
N185 Cu184 1.999 . S
N185 C187 1.263 . S
N185 C189 1.389 . S
N186 C187 1.358 . S
N186 C188 1.400 . S
C187 N185 1.263 . S
C187 N186 1.358 . S
C187 H193 0.930 . S
C188 N186 1.400 . S
C188 C189 1.351 . S
C188 H205 0.930 . S
C189 N185 1.389 . S
C189 C188 1.351 . S
C189 H194 0.930 . S
O190 Cu184 1.974 . S
O190 C200 1.282 . S
C191 O192 1.261 . S
C191 O204 1.251 . S
O192 C191 1.261 . S
H193 C187 0.930 . S
H194 C189 0.930 . S
N195 Cu184 1.985 . S
N195 C197 1.335 . S
N195 C198 1.390 . S
N196 C197 1.345 . S
N196 C199 1.336 . S
C197 N195 1.335 . S
C197 N196 1.345 . S
C197 H202 0.930 . S
C198 N195 1.390 . S
C198 C199 1.346 . S
C198 H203 0.930 . S
C199 N196 1.336 . S
C199 C198 1.346 . S
C199 H206 0.929 . S
C200 O190 1.282 . S
C200 O201 1.216 . S
O201 C200 1.216 . S
H202 C197 0.930 . S
H203 C198 0.930 . S
O204 Cu184 1.959 . S
O204 C191 1.251 . S
H205 C188 0.930 . S
H206 C199 0.929 . S
Cu207 N208 1.999 . S
Cu207 O213 1.974 . S
Cu207 N218 1.985 . S
Cu207 O227 1.959 . S
N208 Cu207 1.999 . S
N208 C210 1.263 . S
N208 C212 1.389 . S
N209 C210 1.358 . S
N209 C211 1.400 . S
C210 N208 1.263 . S
C210 N209 1.358 . S
C210 H216 0.930 . S
C211 N209 1.400 . S
C211 C212 1.351 . S
C211 H228 0.930 . S
C212 N208 1.389 . S
C212 C211 1.351 . S
C212 H217 0.930 . S
O213 Cu207 1.974 . S
O213 C223 1.282 . S
C214 O215 1.261 . S
C214 O227 1.251 . S
O215 C214 1.261 . S
H216 C210 0.930 . S
H217 C212 0.930 . S
N218 Cu207 1.985 . S
N218 C220 1.335 . S
N218 C221 1.390 . S
N219 C220 1.345 . S
N219 C222 1.336 . S
C220 N218 1.335 . S
C220 N219 1.345 . S
C220 H225 0.930 . S
C221 N218 1.390 . S
C221 C222 1.346 . S
C221 H226 0.930 . S
C222 N219 1.336 . S
C222 C221 1.346 . S
C222 H229 0.929 . S
C223 O213 1.282 . S
C223 O224 1.216 . S
O224 C223 1.216 . S
H225 C220 0.930 . S
H226 C221 0.930 . S
O227 Cu207 1.959 . S
O227 C214 1.251 . S
H228 C211 0.930 . S
H229 C222 0.929 . S
Cu230 N231 1.999 . S
Cu230 O236 1.974 . S
Cu230 N241 1.985 . S
Cu230 O250 1.959 . S
N231 Cu230 1.999 . S
N231 C233 1.263 . S
N231 C235 1.389 . S
N232 C233 1.358 . S
N232 C234 1.400 . S
C233 N231 1.263 . S
C233 N232 1.358 . S
C233 H239 0.930 . S
C234 N232 1.400 . S
C234 C235 1.351 . S
C234 H251 0.930 . S
C235 N231 1.389 . S
C235 C234 1.351 . S
C235 H240 0.930 . S
O236 Cu230 1.974 . S
O236 C246 1.282 . S
C237 O238 1.261 . S
C237 O250 1.251 . S
O238 C237 1.261 . S
H239 C233 0.930 . S
H240 C235 0.930 . S
N241 Cu230 1.985 . S
N241 C243 1.335 . S
N241 C244 1.390 . S
N242 C243 1.345 . S
N242 C245 1.336 . S
C243 N241 1.335 . S
C243 N242 1.345 . S
C243 H248 0.930 . S
C244 N241 1.390 . S
C244 C245 1.346 . S
C244 H249 0.930 . S
C245 N242 1.336 . S
C245 C244 1.346 . S
C245 H252 0.929 . S
C246 O236 1.282 . S
C246 O247 1.216 . S
O247 C246 1.216 . S
H248 C243 0.930 . S
H249 C244 0.930 . S
O250 Cu230 1.959 . S
O250 C237 1.251 . S
H251 C234 0.930 . S
H252 C245 0.929 . S
Cu253 N254 1.999 . S
Cu253 O259 1.974 . S
Cu253 N264 1.985 . S
Cu253 O273 1.959 . S
N254 Cu253 1.999 . S
N254 C256 1.263 . S
N254 C258 1.389 . S
N255 C256 1.358 . S
N255 C257 1.400 . S
C256 N254 1.263 . S
C256 N255 1.358 . S
C256 H262 0.930 . S
C257 N255 1.400 . S
C257 C258 1.351 . S
C257 H274 0.930 . S
C258 N254 1.389 . S
C258 C257 1.351 . S
C258 H263 0.930 . S
O259 Cu253 1.974 . S
O259 C269 1.282 . S
C260 O261 1.261 . S
C260 O273 1.251 . S
O261 C260 1.261 . S
H262 C256 0.930 . S
H263 C258 0.930 . S
N264 Cu253 1.985 . S
N264 C266 1.335 . S
N264 C267 1.390 . S
N265 C266 1.345 . S
N265 C268 1.336 . S
C266 N264 1.335 . S
C266 N265 1.345 . S
C266 H271 0.930 . S
C267 N264 1.390 . S
C267 C268 1.346 . S
C267 H272 0.930 . S
C268 N265 1.336 . S
C268 C267 1.346 . S
C268 H275 0.929 . S
C269 O259 1.282 . S
C269 O270 1.216 . S
O270 C269 1.216 . S
H271 C266 0.930 . S
H272 C267 0.930 . S
O273 Cu253 1.959 . S
O273 C260 1.251 . S
H274 C257 0.930 . S
H275 C268 0.929 . S
H276 C288 0.930 . S
H277 C290 0.930 . S
H278 C291 0.930 . S
H279 C295 0.959 . S
H280 C295 0.959 . S
H281 C295 0.961 . S
H282 C296 0.960 . S
H283 C296 0.961 . S
H284 C296 0.959 . S
H285 C299 0.929 . S
H286 C300 0.931 . S
H287 C302 0.930 . S
C288 H276 0.930 . S
C288 C289 1.399 . S
C288 C293 1.399 . S
C289 C288 1.399 . S
C289 C290 1.376 . S
C290 H277 0.930 . S
C290 C289 1.376 . S
C290 C291 1.388 . S
C291 H278 0.930 . S
C291 C290 1.388 . S
C291 C292 1.390 . S
C292 C291 1.390 . S
C292 C293 1.394 . S
C292 C298 1.465 . S
C293 C288 1.399 . S
C293 C292 1.394 . S
C293 C294 1.516 . S
C294 C293 1.516 . S
C294 C295 1.502 . S
C294 C296 1.561 . S
C294 C297 1.526 . S
C295 H279 0.959 . S
C295 H280 0.959 . S
C295 H281 0.961 . S
C295 C294 1.502 . S
C296 H282 0.960 . S
C296 H283 0.961 . S
C296 H284 0.959 . S
C296 C294 1.561 . S
C297 C294 1.526 . S
C297 C298 1.396 . S
C297 C302 1.390 . S
C298 C292 1.465 . S
C298 C297 1.396 . S
C298 C299 1.399 . S
C299 H285 0.929 . S
C299 C298 1.399 . S
C299 C300 1.385 . S
C300 H286 0.931 . S
C300 C299 1.385 . S
C300 C301 1.389 . S
C301 C300 1.389 . S
C301 C302 1.387 . S
C302 H287 0.930 . S
C302 C297 1.390 . S
C302 C301 1.387 . S
H303 C315 0.930 . S
H304 C317 0.930 . S
H305 C318 0.930 . S
H306 C322 0.959 . S
H307 C322 0.959 . S
H308 C322 0.961 . S
H309 C323 0.960 . S
H310 C323 0.961 . S
H311 C323 0.959 . S
H312 C326 0.929 . S
H313 C327 0.931 . S
H314 C329 0.930 . S
C315 H303 0.930 . S
C315 C316 1.399 . S
C315 C320 1.399 . S
C316 C315 1.399 . S
C316 C317 1.376 . S
C317 H304 0.930 . S
C317 C316 1.376 . S
C317 C318 1.388 . S
C318 H305 0.930 . S
C318 C317 1.388 . S
C318 C319 1.390 . S
C319 C318 1.390 . S
C319 C320 1.394 . S
C319 C325 1.465 . S
C320 C315 1.399 . S
C320 C319 1.394 . S
C320 C321 1.516 . S
C321 C320 1.516 . S
C321 C322 1.502 . S
C321 C323 1.561 . S
C321 C324 1.526 . S
C322 H306 0.959 . S
C322 H307 0.959 . S
C322 H308 0.961 . S
C322 C321 1.502 . S
C323 H309 0.960 . S
C323 H310 0.961 . S
C323 H311 0.959 . S
C323 C321 1.561 . S
C324 C321 1.526 . S
C324 C325 1.396 . S
C324 C329 1.390 . S
C325 C319 1.465 . S
C325 C324 1.396 . S
C325 C326 1.399 . S
C326 H312 0.929 . S
C326 C325 1.399 . S
C326 C327 1.385 . S
C327 H313 0.931 . S
C327 C326 1.385 . S
C327 C328 1.389 . S
C328 C327 1.389 . S
C328 C329 1.387 . S
C329 H314 0.930 . S
C329 C324 1.390 . S
C329 C328 1.387 . S
H330 C342 0.930 . S
H331 C344 0.930 . S
H332 C345 0.930 . S
H333 C349 0.959 . S
H334 C349 0.959 . S
H335 C349 0.961 . S
H336 C350 0.960 . S
H337 C350 0.961 . S
H338 C350 0.959 . S
H339 C353 0.929 . S
H340 C354 0.931 . S
H341 C356 0.930 . S
C342 H330 0.930 . S
C342 C343 1.399 . S
C342 C347 1.399 . S
C343 C342 1.399 . S
C343 C344 1.376 . S
C344 H331 0.930 . S
C344 C343 1.376 . S
C344 C345 1.388 . S
C345 H332 0.930 . S
C345 C344 1.388 . S
C345 C346 1.390 . S
C346 C345 1.390 . S
C346 C347 1.394 . S
C346 C352 1.465 . S
C347 C342 1.399 . S
C347 C346 1.394 . S
C347 C348 1.516 . S
C348 C347 1.516 . S
C348 C349 1.502 . S
C348 C350 1.561 . S
C348 C351 1.526 . S
C349 H333 0.959 . S
C349 H334 0.959 . S
C349 H335 0.961 . S
C349 C348 1.502 . S
C350 H336 0.960 . S
C350 H337 0.961 . S
C350 H338 0.959 . S
C350 C348 1.561 . S
C351 C348 1.526 . S
C351 C352 1.396 . S
C351 C356 1.390 . S
C352 C346 1.465 . S
C352 C351 1.396 . S
C352 C353 1.399 . S
C353 H339 0.929 . S
C353 C352 1.399 . S
C353 C354 1.385 . S
C354 H340 0.931 . S
C354 C353 1.385 . S
C354 C355 1.389 . S
C355 C354 1.389 . S
C355 C356 1.387 . S
C356 H341 0.930 . S
C356 C351 1.390 . S
C356 C355 1.387 . S
H357 C369 0.930 . S
H358 C371 0.930 . S
H359 C372 0.930 . S
H360 C376 0.959 . S
H361 C376 0.959 . S
H362 C376 0.961 . S
H363 C377 0.960 . S
H364 C377 0.961 . S
H365 C377 0.959 . S
H366 C380 0.929 . S
H367 C381 0.931 . S
H368 C383 0.930 . S
C369 H357 0.930 . S
C369 C370 1.399 . S
C369 C374 1.399 . S
C370 C369 1.399 . S
C370 C371 1.376 . S
C371 H358 0.930 . S
C371 C370 1.376 . S
C371 C372 1.388 . S
C372 H359 0.930 . S
C372 C371 1.388 . S
C372 C373 1.390 . S
C373 C372 1.390 . S
C373 C374 1.394 . S
C373 C379 1.465 . S
C374 C369 1.399 . S
C374 C373 1.394 . S
C374 C375 1.516 . S
C375 C374 1.516 . S
C375 C376 1.502 . S
C375 C377 1.561 . S
C375 C378 1.526 . S
C376 H360 0.959 . S
C376 H361 0.959 . S
C376 H362 0.961 . S
C376 C375 1.502 . S
C377 H363 0.960 . S
C377 H364 0.961 . S
C377 H365 0.959 . S
C377 C375 1.561 . S
C378 C375 1.526 . S
C378 C379 1.396 . S
C378 C383 1.390 . S
C379 C373 1.465 . S
C379 C378 1.396 . S
C379 C380 1.399 . S
C380 H366 0.929 . S
C380 C379 1.399 . S
C380 C381 1.385 . S
C381 H367 0.931 . S
C381 C380 1.385 . S
C381 C382 1.389 . S
C382 C381 1.389 . S
C382 C383 1.387 . S
C383 H368 0.930 . S
C383 C378 1.390 . S
C383 C382 1.387 . S
H384 C396 0.930 . S
H385 C398 0.930 . S
H386 C399 0.930 . S
H387 C403 0.959 . S
H388 C403 0.959 . S
H389 C403 0.961 . S
H390 C404 0.960 . S
H391 C404 0.961 . S
H392 C404 0.959 . S
H393 C407 0.929 . S
H394 C408 0.931 . S
H395 C410 0.930 . S
C396 H384 0.930 . S
C396 C397 1.399 . S
C396 C401 1.399 . S
C397 C396 1.399 . S
C397 C398 1.376 . S
C398 H385 0.930 . S
C398 C397 1.376 . S
C398 C399 1.388 . S
C399 H386 0.930 . S
C399 C398 1.388 . S
C399 C400 1.390 . S
C400 C399 1.390 . S
C400 C401 1.394 . S
C400 C406 1.465 . S
C401 C396 1.399 . S
C401 C400 1.394 . S
C401 C402 1.516 . S
C402 C401 1.516 . S
C402 C403 1.502 . S
C402 C404 1.561 . S
C402 C405 1.526 . S
C403 H387 0.959 . S
C403 H388 0.959 . S
C403 H389 0.961 . S
C403 C402 1.502 . S
C404 H390 0.960 . S
C404 H391 0.961 . S
C404 H392 0.959 . S
C404 C402 1.561 . S
C405 C402 1.526 . S
C405 C406 1.396 . S
C405 C410 1.390 . S
C406 C400 1.465 . S
C406 C405 1.396 . S
C406 C407 1.399 . S
C407 H393 0.929 . S
C407 C406 1.399 . S
C407 C408 1.385 . S
C408 H394 0.931 . S
C408 C407 1.385 . S
C408 C409 1.389 . S
C409 C408 1.389 . S
C409 C410 1.387 . S
C410 H395 0.930 . S
C410 C405 1.390 . S
C410 C409 1.387 . S
H411 C423 0.930 . S
H412 C425 0.930 . S
H413 C426 0.930 . S
H414 C430 0.959 . S
H415 C430 0.959 . S
H416 C430 0.961 . S
H417 C431 0.960 . S
H418 C431 0.961 . S
H419 C431 0.959 . S
H420 C434 0.929 . S
H421 C435 0.931 . S
H422 C437 0.930 . S
C423 H411 0.930 . S
C423 C424 1.399 . S
C423 C428 1.399 . S
C424 C423 1.399 . S
C424 C425 1.376 . S
C425 H412 0.930 . S
C425 C424 1.376 . S
C425 C426 1.388 . S
C426 H413 0.930 . S
C426 C425 1.388 . S
C426 C427 1.390 . S
C427 C426 1.390 . S
C427 C428 1.394 . S
C427 C433 1.465 . S
C428 C423 1.399 . S
C428 C427 1.394 . S
C428 C429 1.516 . S
C429 C428 1.516 . S
C429 C430 1.502 . S
C429 C431 1.561 . S
C429 C432 1.526 . S
C430 H414 0.959 . S
C430 H415 0.959 . S
C430 H416 0.961 . S
C430 C429 1.502 . S
C431 H417 0.960 . S
C431 H418 0.961 . S
C431 H419 0.959 . S
C431 C429 1.561 . S
C432 C429 1.526 . S
C432 C433 1.396 . S
C432 C437 1.390 . S
C433 C427 1.465 . S
C433 C432 1.396 . S
C433 C434 1.399 . S
C434 H420 0.929 . S
C434 C433 1.399 . S
C434 C435 1.385 . S
C435 H421 0.931 . S
C435 C434 1.385 . S
C435 C436 1.389 . S
C436 C435 1.389 . S
C436 C437 1.387 . S
C437 H422 0.930 . S
C437 C432 1.390 . S
C437 C436 1.387 . S
H438 C450 0.930 . S
H439 C452 0.930 . S
H440 C453 0.930 . S
H441 C457 0.959 . S
H442 C457 0.959 . S
H443 C457 0.961 . S
H444 C458 0.960 . S
H445 C458 0.961 . S
H446 C458 0.959 . S
H447 C461 0.929 . S
H448 C462 0.931 . S
H449 C464 0.930 . S
C450 H438 0.930 . S
C450 C451 1.399 . S
C450 C455 1.399 . S
C451 C450 1.399 . S
C451 C452 1.376 . S
C452 H439 0.930 . S
C452 C451 1.376 . S
C452 C453 1.388 . S
C453 H440 0.930 . S
C453 C452 1.388 . S
C453 C454 1.390 . S
C454 C453 1.390 . S
C454 C455 1.394 . S
C454 C460 1.465 . S
C455 C450 1.399 . S
C455 C454 1.394 . S
C455 C456 1.516 . S
C456 C455 1.516 . S
C456 C457 1.502 . S
C456 C458 1.561 . S
C456 C459 1.526 . S
C457 H441 0.959 . S
C457 H442 0.959 . S
C457 H443 0.961 . S
C457 C456 1.502 . S
C458 H444 0.960 . S
C458 H445 0.961 . S
C458 H446 0.959 . S
C458 C456 1.561 . S
C459 C456 1.526 . S
C459 C460 1.396 . S
C459 C464 1.390 . S
C460 C454 1.465 . S
C460 C459 1.396 . S
C460 C461 1.399 . S
C461 H447 0.929 . S
C461 C460 1.399 . S
C461 C462 1.385 . S
C462 H448 0.931 . S
C462 C461 1.385 . S
C462 C463 1.389 . S
C463 C462 1.389 . S
C463 C464 1.387 . S
C464 H449 0.930 . S
C464 C459 1.390 . S
C464 C463 1.387 . S
H465 C477 0.930 . S
H466 C479 0.930 . S
H467 C480 0.930 . S
H468 C484 0.959 . S
H469 C484 0.959 . S
H470 C484 0.961 . S
H471 C485 0.960 . S
H472 C485 0.961 . S
H473 C485 0.959 . S
H474 C488 0.929 . S
H475 C489 0.931 . S
H476 C491 0.930 . S
C477 H465 0.930 . S
C477 C478 1.399 . S
C477 C482 1.399 . S
C478 C477 1.399 . S
C478 C479 1.376 . S
C479 H466 0.930 . S
C479 C478 1.376 . S
C479 C480 1.388 . S
C480 H467 0.930 . S
C480 C479 1.388 . S
C480 C481 1.390 . S
C481 C480 1.390 . S
C481 C482 1.394 . S
C481 C487 1.465 . S
C482 C477 1.399 . S
C482 C481 1.394 . S
C482 C483 1.516 . S
C483 C482 1.516 . S
C483 C484 1.502 . S
C483 C485 1.561 . S
C483 C486 1.526 . S
C484 H468 0.959 . S
C484 H469 0.959 . S
C484 H470 0.961 . S
C484 C483 1.502 . S
C485 H471 0.960 . S
C485 H472 0.961 . S
C485 H473 0.959 . S
C485 C483 1.561 . S
C486 C483 1.526 . S
C486 C487 1.396 . S
C486 C491 1.390 . S
C487 C481 1.465 . S
C487 C486 1.396 . S
C487 C488 1.399 . S
C488 H474 0.929 . S
C488 C487 1.399 . S
C488 C489 1.385 . S
C489 H475 0.931 . S
C489 C488 1.385 . S
C489 C490 1.389 . S
C490 C489 1.389 . S
C490 C491 1.387 . S
C491 H476 0.930 . S
C491 C486 1.390 . S
C491 C490 1.387 . S
H492 C504 0.930 . S
H493 C506 0.930 . S
H494 C507 0.930 . S
H495 C511 0.959 . S
H496 C511 0.959 . S
H497 C511 0.961 . S
H498 C512 0.960 . S
H499 C512 0.961 . S
H500 C512 0.959 . S
H501 C515 0.929 . S
H502 C516 0.931 . S
H503 C518 0.930 . S
C504 H492 0.930 . S
C504 C505 1.399 . S
C504 C509 1.399 . S
C505 C504 1.399 . S
C505 C506 1.376 . S
C506 H493 0.930 . S
C506 C505 1.376 . S
C506 C507 1.388 . S
C507 H494 0.930 . S
C507 C506 1.388 . S
C507 C508 1.390 . S
C508 C507 1.390 . S
C508 C509 1.394 . S
C508 C514 1.465 . S
C509 C504 1.399 . S
C509 C508 1.394 . S
C509 C510 1.516 . S
C510 C509 1.516 . S
C510 C511 1.502 . S
C510 C512 1.561 . S
C510 C513 1.526 . S
C511 H495 0.959 . S
C511 H496 0.959 . S
C511 H497 0.961 . S
C511 C510 1.502 . S
C512 H498 0.960 . S
C512 H499 0.961 . S
C512 H500 0.959 . S
C512 C510 1.561 . S
C513 C510 1.526 . S
C513 C514 1.396 . S
C513 C518 1.390 . S
C514 C508 1.465 . S
C514 C513 1.396 . S
C514 C515 1.399 . S
C515 H501 0.929 . S
C515 C514 1.399 . S
C515 C516 1.385 . S
C516 H502 0.931 . S
C516 C515 1.385 . S
C516 C517 1.389 . S
C517 C516 1.389 . S
C517 C518 1.387 . S
C518 H503 0.930 . S
C518 C513 1.390 . S
C518 C517 1.387 . S
H519 C531 0.930 . S
H520 C533 0.930 . S
H521 C534 0.930 . S
H522 C538 0.959 . S
H523 C538 0.959 . S
H524 C538 0.961 . S
H525 C539 0.960 . S
H526 C539 0.961 . S
H527 C539 0.959 . S
H528 C542 0.929 . S
H529 C543 0.931 . S
H530 C545 0.930 . S
C531 H519 0.930 . S
C531 C532 1.399 . S
C531 C536 1.399 . S
C532 C531 1.399 . S
C532 C533 1.376 . S
C533 H520 0.930 . S
C533 C532 1.376 . S
C533 C534 1.388 . S
C534 H521 0.930 . S
C534 C533 1.388 . S
C534 C535 1.390 . S
C535 C534 1.390 . S
C535 C536 1.394 . S
C535 C541 1.465 . S
C536 C531 1.399 . S
C536 C535 1.394 . S
C536 C537 1.516 . S
C537 C536 1.516 . S
C537 C538 1.502 . S
C537 C539 1.561 . S
C537 C540 1.526 . S
C538 H522 0.959 . S
C538 H523 0.959 . S
C538 H524 0.961 . S
C538 C537 1.502 . S
C539 H525 0.960 . S
C539 H526 0.961 . S
C539 H527 0.959 . S
C539 C537 1.561 . S
C540 C537 1.526 . S
C540 C541 1.396 . S
C540 C545 1.390 . S
C541 C535 1.465 . S
C541 C540 1.396 . S
C541 C542 1.399 . S
C542 H528 0.929 . S
C542 C541 1.399 . S
C542 C543 1.385 . S
C543 H529 0.931 . S
C543 C542 1.385 . S
C543 C544 1.389 . S
C544 C543 1.389 . S
C544 C545 1.387 . S
C545 H530 0.930 . S
C545 C540 1.390 . S
C545 C544 1.387 . S
H546 C558 0.930 . S
H547 C560 0.930 . S
H548 C561 0.930 . S
H549 C565 0.959 . S
H550 C565 0.959 . S
H551 C565 0.961 . S
H552 C566 0.960 . S
H553 C566 0.961 . S
H554 C566 0.959 . S
H555 C569 0.929 . S
H556 C570 0.931 . S
H557 C572 0.930 . S
C558 H546 0.930 . S
C558 C559 1.399 . S
C558 C563 1.399 . S
C559 C558 1.399 . S
C559 C560 1.376 . S
C560 H547 0.930 . S
C560 C559 1.376 . S
C560 C561 1.388 . S
C561 H548 0.930 . S
C561 C560 1.388 . S
C561 C562 1.390 . S
C562 C561 1.390 . S
C562 C563 1.394 . S
C562 C568 1.465 . S
C563 C558 1.399 . S
C563 C562 1.394 . S
C563 C564 1.516 . S
C564 C563 1.516 . S
C564 C565 1.502 . S
C564 C566 1.561 . S
C564 C567 1.526 . S
C565 H549 0.959 . S
C565 H550 0.959 . S
C565 H551 0.961 . S
C565 C564 1.502 . S
C566 H552 0.960 . S
C566 H553 0.961 . S
C566 H554 0.959 . S
C566 C564 1.561 . S
C567 C564 1.526 . S
C567 C568 1.396 . S
C567 C572 1.390 . S
C568 C562 1.465 . S
C568 C567 1.396 . S
C568 C569 1.399 . S
C569 H555 0.929 . S
C569 C568 1.399 . S
C569 C570 1.385 . S
C570 H556 0.931 . S
C570 C569 1.385 . S
C570 C571 1.389 . S
C571 C570 1.389 . S
C571 C572 1.387 . S
C572 H557 0.930 . S
C572 C567 1.390 . S
C572 C571 1.387 . S
H573 C585 0.930 . S
H574 C587 0.930 . S
H575 C588 0.930 . S
H576 C592 0.959 . S
H577 C592 0.959 . S
H578 C592 0.961 . S
H579 C593 0.960 . S
H580 C593 0.961 . S
H581 C593 0.959 . S
H582 C596 0.929 . S
H583 C597 0.931 . S
H584 C599 0.930 . S
C585 H573 0.930 . S
C585 C586 1.399 . S
C585 C590 1.399 . S
C586 C585 1.399 . S
C586 C587 1.376 . S
C587 H574 0.930 . S
C587 C586 1.376 . S
C587 C588 1.388 . S
C588 H575 0.930 . S
C588 C587 1.388 . S
C588 C589 1.390 . S
C589 C588 1.390 . S
C589 C590 1.394 . S
C589 C595 1.465 . S
C590 C585 1.399 . S
C590 C589 1.394 . S
C590 C591 1.516 . S
C591 C590 1.516 . S
C591 C592 1.502 . S
C591 C593 1.561 . S
C591 C594 1.526 . S
C592 H576 0.959 . S
C592 H577 0.959 . S
C592 H578 0.961 . S
C592 C591 1.502 . S
C593 H579 0.960 . S
C593 H580 0.961 . S
C593 H581 0.959 . S
C593 C591 1.561 . S
C594 C591 1.526 . S
C594 C595 1.396 . S
C594 C599 1.390 . S
C595 C589 1.465 . S
C595 C594 1.396 . S
C595 C596 1.399 . S
C596 H582 0.929 . S
C596 C595 1.399 . S
C596 C597 1.385 . S
C597 H583 0.931 . S
C597 C596 1.385 . S
C597 C598 1.389 . S
C598 C597 1.389 . S
C598 C599 1.387 . S
C599 H584 0.930 . S
C599 C594 1.390 . S
C599 C598 1.387 . S
H600 C612 0.930 . S
H601 C614 0.930 . S
H602 C615 0.930 . S
H603 C619 0.959 . S
H604 C619 0.959 . S
H605 C619 0.961 . S
H606 C620 0.960 . S
H607 C620 0.961 . S
H608 C620 0.959 . S
H609 C623 0.929 . S
H610 C624 0.931 . S
H611 C626 0.930 . S
C612 H600 0.930 . S
C612 C613 1.399 . S
C612 C617 1.399 . S
C613 C612 1.399 . S
C613 C614 1.376 . S
C614 H601 0.930 . S
C614 C613 1.376 . S
C614 C615 1.388 . S
C615 H602 0.930 . S
C615 C614 1.388 . S
C615 C616 1.390 . S
C616 C615 1.390 . S
C616 C617 1.394 . S
C616 C622 1.465 1_655 S
C617 C612 1.399 . S
C617 C616 1.394 . S
C617 C618 1.516 . S
C618 C617 1.516 . S
C618 C619 1.502 1_655 S
C618 C620 1.561 . S
C618 C621 1.526 1_655 S
C619 H603 0.959 . S
C619 H604 0.959 . S
C619 H605 0.961 . S
C619 C618 1.502 1_455 S
C620 H606 0.960 . S
C620 H607 0.961 . S
C620 H608 0.959 . S
C620 C618 1.561 . S
C621 C618 1.526 1_455 S
C621 C622 1.396 . S
C621 C626 1.390 . S
C622 C616 1.465 1_455 S
C622 C621 1.396 . S
C622 C623 1.399 . S
C623 H609 0.929 . S
C623 C622 1.399 . S
C623 C624 1.385 . S
C624 H610 0.931 . S
C624 C623 1.385 . S
C624 C625 1.389 . S
C625 C624 1.389 . S
C625 C626 1.387 . S
C626 H611 0.930 . S
C626 C621 1.390 . S
C626 C625 1.387 . S
H627 C639 0.930 . S
H628 C641 0.930 . S
H629 C642 0.930 . S
H630 C646 0.959 . S
H631 C646 0.959 . S
H632 C646 0.961 . S
H633 C647 0.960 . S
H634 C647 0.961 . S
H635 C647 0.959 . S
H636 C650 0.929 . S
H637 C651 0.931 . S
H638 C653 0.931 . S
C639 H627 0.930 . S
C639 C640 1.399 . S
C639 C644 1.399 . S
C640 C639 1.399 . S
C640 C641 1.376 1_545 S
C641 H628 0.930 . S
C641 C640 1.376 1_565 S
C641 C642 1.388 . S
C642 H629 0.930 . S
C642 C641 1.388 . S
C642 C643 1.390 . S
C643 C642 1.390 . S
C643 C644 1.394 1_565 S
C643 C649 1.465 . S
C644 C639 1.399 . S
C644 C643 1.394 1_545 S
C644 C645 1.516 . S
C645 C644 1.516 . S
C645 C646 1.502 . S
C645 C647 1.561 . S
C645 C648 1.526 1_545 S
C646 H630 0.959 . S
C646 H631 0.959 . S
C646 H632 0.961 . S
C646 C645 1.502 . S
C647 H633 0.960 . S
C647 H634 0.961 . S
C647 H635 0.959 . S
C647 C645 1.561 . S
C648 C645 1.526 1_565 S
C648 C649 1.396 . S
C648 C653 1.390 . S
C649 C643 1.465 . S
C649 C648 1.396 . S
C649 C650 1.399 . S
C650 H636 0.929 . S
C650 C649 1.399 . S
C650 C651 1.385 . S
C651 H637 0.931 . S
C651 C650 1.385 . S
C651 C652 1.389 . S
C652 C651 1.389 . S
C652 C653 1.387 . S
C653 H638 0.931 . S
C653 C648 1.390 . S
C653 C652 1.387 . S
H654 C666 0.930 . S
H655 C668 0.930 . S
H656 C669 0.930 . S
H657 C673 0.959 1_655 S
H658 C673 0.959 . S
H659 C673 0.961 . S
H660 C674 0.960 . S
H661 C674 0.961 . S
H662 C674 0.959 . S
H663 C677 0.929 . S
H664 C678 0.931 . S
H665 C680 0.930 1_455 S
C666 H654 0.930 . S
C666 C667 1.399 . S
C666 C671 1.399 . S
C667 C666 1.399 . S
C667 C668 1.379 1_455 S
C668 H655 0.930 . S
C668 C667 1.379 1_655 S
C668 C669 1.387 . S
C669 H656 0.930 . S
C669 C668 1.387 . S
C669 C670 1.390 . S
C670 C669 1.390 . S
C670 C671 1.394 1_655 S
C670 C676 1.465 . S
C671 C666 1.399 . S
C671 C670 1.394 1_455 S
C671 C672 1.516 . S
C672 C671 1.516 . S
C672 C673 1.502 . S
C672 C674 1.561 . S
C672 C675 1.526 1_455 S
C673 H657 0.959 1_455 S
C673 H658 0.959 . S
C673 H659 0.961 . S
C673 C672 1.502 . S
C674 H660 0.960 . S
C674 H661 0.961 . S
C674 H662 0.959 . S
C674 C672 1.561 . S
C675 C672 1.526 1_655 S
C675 C676 1.396 . S
C675 C680 1.390 . S
C676 C670 1.465 . S
C676 C675 1.396 . S
C676 C677 1.399 . S
C677 H663 0.929 . S
C677 C676 1.399 . S
C677 C678 1.385 . S
C678 H664 0.931 . S
C678 C677 1.385 . S
C678 C679 1.389 . S
C679 C678 1.389 . S
C679 C680 1.387 . S
C680 H665 0.930 1_655 S
C680 C675 1.390 . S
C680 C679 1.387 . S
H681 C693 0.930 . S
H682 C695 0.930 . S
H683 C696 0.930 . S
H684 C700 0.959 . S
H685 C700 0.959 . S
H686 C700 0.961 . S
H687 C701 0.960 . S
H688 C701 0.961 . S
H689 C701 0.959 . S
H690 C704 0.929 . S
H691 C705 0.931 . S
H692 C707 0.916 1_545 S
C693 H681 0.930 . S
C693 C694 1.399 . S
C693 C698 1.399 . S
C694 C693 1.399 . S
C694 C695 1.376 1_545 S
C695 H682 0.930 . S
C695 C694 1.376 1_565 S
C695 C696 1.388 . S
C696 H683 0.930 . S
C696 C695 1.388 . S
C696 C697 1.390 . S
C697 C696 1.390 . S
C697 C698 1.394 1_565 S
C697 C703 1.465 . S
C698 C693 1.399 . S
C698 C697 1.394 1_545 S
C698 C699 1.516 . S
C699 C698 1.516 . S
C699 C700 1.502 . S
C699 C701 1.561 . S
C699 C702 1.526 . S
C700 H684 0.959 . S
C700 H685 0.959 . S
C700 H686 0.961 . S
C700 C699 1.502 . S
C701 H687 0.960 . S
C701 H688 0.961 . S
C701 H689 0.959 . S
C701 C699 1.561 . S
C702 C699 1.526 . S
C702 C703 1.396 1_545 S
C702 C707 1.388 1_545 S
C703 C697 1.465 . S
C703 C702 1.396 1_565 S
C703 C704 1.399 . S
C704 H690 0.929 . S
C704 C703 1.399 . S
C704 C705 1.385 . S
C705 H691 0.931 . S
C705 C704 1.385 . S
C705 C706 1.389 . S
C706 C705 1.389 . S
C706 C707 1.402 . S
C707 H692 0.916 1_565 S
C707 C702 1.388 1_565 S
C707 C706 1.402 . S
H708 C720 0.930 . S
H709 C722 0.930 . S
H710 C723 0.930 . S
H711 C727 0.959 1_565 S
H712 C727 0.959 . S
H713 C727 0.961 . S
H714 C728 0.960 . S
H715 C728 0.961 . S
H716 C728 0.959 . S
H717 C731 0.929 . S
H718 C732 0.931 . S
H719 C734 0.934 . S
C720 H708 0.930 . S
C720 C721 1.399 . S
C720 C725 1.399 . S
C721 C720 1.399 . S
C721 C722 1.376 . S
C722 H709 0.930 . S
C722 C721 1.376 . S
C722 C723 1.388 . S
C723 H710 0.930 . S
C723 C722 1.388 . S
C723 C724 1.390 . S
C724 C723 1.390 . S
C724 C725 1.394 . S
C724 C730 1.465 . S
C725 C720 1.399 . S
C725 C724 1.394 . S
C725 C726 1.516 . S
C726 C725 1.516 . S
C726 C727 1.502 . S
C726 C728 1.561 . S
C726 C729 1.526 . S
C727 H711 0.959 1_545 S
C727 H712 0.959 . S
C727 H713 0.961 . S
C727 C726 1.502 . S
C728 H714 0.960 . S
C728 H715 0.961 . S
C728 H716 0.959 . S
C728 C726 1.561 . S
C729 C726 1.526 . S
C729 C730 1.396 . S
C729 C734 1.390 1_545 S
C730 C724 1.465 . S
C730 C729 1.396 . S
C730 C731 1.399 1_545 S
C731 H717 0.929 . S
C731 C730 1.399 1_565 S
C731 C732 1.385 . S
C732 H718 0.931 . S
C732 C731 1.385 . S
C732 C733 1.389 . S
C733 C732 1.389 . S
C733 C734 1.387 . S
C734 H719 0.934 . S
C734 C729 1.390 1_565 S
C734 C733 1.387 . S
H735 C747 0.930 . S
H736 C749 0.930 . S
H737 C750 0.930 . S
H738 C754 0.959 . S
H739 C754 0.959 . S
H740 C754 0.961 . S
H741 C755 0.960 . S
H742 C755 0.963 1_655 S
H743 C755 0.959 . S
H744 C758 0.929 . S
H745 C759 0.931 . S
H746 C761 0.930 . S
C747 H735 0.930 . S
C747 C748 1.399 . S
C747 C752 1.399 . S
C748 C747 1.399 . S
C748 C749 1.376 . S
C749 H736 0.930 . S
C749 C748 1.376 . S
C749 C750 1.388 . S
C750 H737 0.930 . S
C750 C749 1.388 . S
C750 C751 1.390 . S
C751 C750 1.390 . S
C751 C752 1.394 . S
C751 C757 1.465 . S
C752 C747 1.399 . S
C752 C751 1.394 . S
C752 C753 1.516 1_455 S
C753 C752 1.516 1_655 S
C753 C754 1.502 . S
C753 C755 1.561 1_655 S
C753 C756 1.526 . S
C754 H738 0.959 . S
C754 H739 0.959 . S
C754 H740 0.961 . S
C754 C753 1.502 . S
C755 H741 0.960 . S
C755 H742 0.963 1_455 S
C755 H743 0.959 . S
C755 C753 1.561 1_455 S
C756 C753 1.526 . S
C756 C757 1.396 1_655 S
C756 C761 1.390 . S
C757 C751 1.465 . S
C757 C756 1.396 1_455 S
C757 C758 1.399 . S
C758 H744 0.929 . S
C758 C757 1.399 . S
C758 C759 1.385 . S
C759 H745 0.931 . S
C759 C758 1.385 . S
C759 C760 1.389 1_455 S
C760 C759 1.389 1_655 S
C760 C761 1.387 . S
C761 H746 0.930 . S
C761 C756 1.390 . S
C761 C760 1.387 . S
H762 C774 0.930 1_565 S
H763 C776 0.930 . S
H764 C777 0.930 . S
H765 C781 0.959 . S
H766 C781 0.959 . S
H767 C781 0.961 . S
H768 C782 0.960 . S
H769 C782 0.961 1_565 S
H770 C782 0.959 . S
H771 C785 0.911 1_545 S
H772 C786 0.931 . S
H773 C788 0.930 . S
C774 H762 0.930 1_545 S
C774 C775 1.399 . S
C774 C779 1.399 1_545 S
C775 C774 1.399 . S
C775 C776 1.376 . S
C776 H763 0.930 . S
C776 C775 1.376 . S
C776 C777 1.388 . S
C777 H764 0.930 . S
C777 C776 1.388 . S
C777 C778 1.390 . S
C778 C777 1.390 . S
C778 C779 1.394 1_545 S
C778 C784 1.465 1_545 S
C779 C774 1.399 1_565 S
C779 C778 1.394 1_565 S
C779 C780 1.516 . S
C780 C779 1.516 . S
C780 C781 1.502 . S
C780 C782 1.561 1_565 S
C780 C783 1.526 . S
C781 H765 0.959 . S
C781 H766 0.959 . S
C781 H767 0.961 . S
C781 C780 1.502 . S
C782 H768 0.960 . S
C782 H769 0.961 1_545 S
C782 H770 0.959 . S
C782 C780 1.561 1_545 S
C783 C780 1.526 . S
C783 C784 1.396 . S
C783 C788 1.390 . S
C784 C778 1.465 1_565 S
C784 C783 1.396 . S
C784 C785 1.402 . S
C785 H771 0.911 1_565 S
C785 C784 1.402 . S
C785 C786 1.402 . S
C786 H772 0.931 . S
C786 C785 1.402 . S
C786 C787 1.389 . S
C787 C786 1.389 . S
C787 C788 1.387 . S
C788 H773 0.930 . S
C788 C783 1.390 . S
C788 C787 1.387 . S
H789 C801 0.930 . S
H790 C803 0.930 . S
H791 C804 0.930 . S
H792 C808 0.959 . S
H793 C808 0.959 . S
H794 C808 0.961 . S
H795 C809 0.960 . S
H796 C809 0.961 . S
H797 C809 0.959 . S
H798 C812 0.929 . S
H799 C813 0.931 . S
H800 C815 0.930 . S
C801 H789 0.930 . S
C801 C802 1.399 . S
C801 C806 1.399 . S
C802 C801 1.399 . S
C802 C803 1.376 . S
C803 H790 0.930 . S
C803 C802 1.376 . S
C803 C804 1.388 . S
C804 H791 0.930 . S
C804 C803 1.388 . S
C804 C805 1.390 . S
C805 C804 1.390 . S
C805 C806 1.394 . S
C805 C811 1.465 . S
C806 C801 1.399 . S
C806 C805 1.394 . S
C806 C807 1.516 . S
C807 C806 1.516 . S
C807 C808 1.502 1_655 S
C807 C809 1.561 . S
C807 C810 1.526 . S
C808 H792 0.959 . S
C808 H793 0.959 . S
C808 H794 0.961 . S
C808 C807 1.502 1_455 S
C809 H795 0.960 . S
C809 H796 0.961 . S
C809 H797 0.959 . S
C809 C807 1.561 . S
C810 C807 1.526 . S
C810 C811 1.396 . S
C810 C815 1.390 1_655 S
C811 C805 1.465 . S
C811 C810 1.396 . S
C811 C812 1.399 . S
C812 H798 0.929 . S
C812 C811 1.399 . S
C812 C813 1.385 1_655 S
C813 H799 0.931 . S
C813 C812 1.385 1_455 S
C813 C814 1.389 . S
C814 C813 1.389 . S
C814 C815 1.387 . S
C815 H800 0.930 . S
C815 C810 1.390 1_455 S
C815 C814 1.387 . S
H816 C828 0.930 . S
H817 C830 0.935 . S
H818 C831 0.930 . S
H819 C835 0.959 . S
H820 C835 0.959 . S
H821 C835 0.961 . S
H822 C836 0.960 . S
H823 C836 0.961 . S
H824 C836 0.959 . S
H825 C839 0.929 . S
H826 C840 0.931 . S
H827 C842 0.930 . S
C828 H816 0.930 . S
C828 C829 1.399 . S
C828 C833 1.399 . S
C829 C828 1.399 . S
C829 C830 1.367 1_554 S
C830 H817 0.935 . S
C830 C829 1.367 1_556 S
C830 C831 1.394 . S
C831 H818 0.930 . S
C831 C830 1.394 . S
C831 C832 1.390 . S
C832 C831 1.390 . S
C832 C833 1.394 1_556 S
C832 C838 1.465 . S
C833 C828 1.399 . S
C833 C832 1.394 1_554 S
C833 C834 1.516 . S
C834 C833 1.516 . S
C834 C835 1.502 . S
C834 C836 1.561 . S
C834 C837 1.526 . S
C835 H819 0.959 . S
C835 H820 0.959 . S
C835 H821 0.961 . S
C835 C834 1.502 . S
C836 H822 0.960 . S
C836 H823 0.961 . S
C836 H824 0.959 . S
C836 C834 1.561 . S
C837 C834 1.526 . S
C837 C838 1.396 1_554 S
C837 C842 1.390 . S
C838 C832 1.465 . S
C838 C837 1.396 1_556 S
C838 C839 1.399 . S
C839 H825 0.929 . S
C839 C838 1.399 . S
C839 C840 1.385 . S
C840 H826 0.931 . S
C840 C839 1.385 . S
C840 C841 1.389 . S
C841 C840 1.389 . S
C841 C842 1.387 1_556 S
C842 H827 0.930 . S
C842 C837 1.390 . S
C842 C841 1.387 1_554 S
H843 C855 0.930 . S
H844 C857 0.930 . S
H845 C858 0.930 . S
H846 C862 0.959 . S
H847 C862 0.959 . S
H848 C862 0.961 . S
H849 C863 0.960 . S
H850 C863 0.961 . S
H851 C863 0.959 . S
H852 C866 0.929 1_556 S
H853 C867 0.931 . S
H854 C869 0.930 . S
C855 H843 0.930 . S
C855 C856 1.399 . S
C855 C860 1.399 . S
C856 C855 1.399 . S
C856 C857 1.376 . S
C857 H844 0.930 . S
C857 C856 1.376 . S
C857 C858 1.388 . S
C858 H845 0.930 . S
C858 C857 1.388 . S
C858 C859 1.390 . S
C859 C858 1.390 . S
C859 C860 1.394 . S
C859 C865 1.466 1_556 S
C860 C855 1.399 . S
C860 C859 1.394 . S
C860 C861 1.516 1_556 S
C861 C860 1.516 1_554 S
C861 C862 1.502 . S
C861 C863 1.561 1_554 S
C861 C864 1.526 . S
C862 H846 0.959 . S
C862 H847 0.959 . S
C862 H848 0.961 . S
C862 C861 1.502 . S
C863 H849 0.960 . S
C863 H850 0.961 . S
C863 H851 0.959 . S
C863 C861 1.561 1_556 S
C864 C861 1.526 . S
C864 C865 1.395 . S
C864 C869 1.390 . S
C865 C859 1.466 1_554 S
C865 C864 1.395 . S
C865 C866 1.399 . S
C866 H852 0.929 1_554 S
C866 C865 1.399 . S
C866 C867 1.385 . S
C867 H853 0.931 . S
C867 C866 1.385 . S
C867 C868 1.389 . S
C868 C867 1.389 . S
C868 C869 1.387 . S
C869 H854 0.930 . S
C869 C864 1.390 . S
C869 C868 1.387 . S
H870 C882 0.930 1_554 S
H871 C884 0.930 . S
H872 C885 0.930 . S
H873 C889 0.959 . S
H874 C889 0.959 . S
H875 C889 0.961 . S
H876 C890 0.960 . S
H877 C890 0.961 . S
H878 C890 0.959 . S
H879 C893 0.929 . S
H880 C894 0.931 . S
H881 C896 0.930 . S
C882 H870 0.930 1_556 S
C882 C883 1.399 . S
C882 C887 1.399 . S
C883 C882 1.399 . S
C883 C884 1.376 . S
C884 H871 0.930 . S
C884 C883 1.376 . S
C884 C885 1.388 . S
C885 H872 0.930 . S
C885 C884 1.388 . S
C885 C886 1.390 . S
C886 C885 1.390 . S
C886 C887 1.394 . S
C886 C892 1.465 . S
C887 C882 1.399 . S
C887 C886 1.394 . S
C887 C888 1.516 1_556 S
C888 C887 1.516 1_554 S
C888 C889 1.502 . S
C888 C890 1.561 . S
C888 C891 1.526 . S
C889 H873 0.959 . S
C889 H874 0.959 . S
C889 H875 0.961 . S
C889 C888 1.502 . S
C890 H876 0.960 . S
C890 H877 0.961 . S
C890 H878 0.959 . S
C890 C888 1.561 . S
C891 C888 1.526 . S
C891 C892 1.396 1_554 S
C891 C896 1.390 . S
C892 C886 1.465 . S
C892 C891 1.396 1_556 S
C892 C893 1.399 . S
C893 H879 0.929 . S
C893 C892 1.399 . S
C893 C894 1.385 . S
C894 H880 0.931 . S
C894 C893 1.385 . S
C894 C895 1.389 1_556 S
C895 C894 1.389 1_554 S
C895 C896 1.387 . S
C896 H881 0.930 . S
C896 C891 1.390 . S
C896 C895 1.387 . S
H897 C909 0.930 . S
H898 C911 0.930 . S
H899 C912 0.930 . S
H900 C916 0.959 . S
H901 C916 0.971 . S
H902 C916 0.961 . S
H903 C917 0.960 . S
H904 C917 0.961 . S
H905 C917 0.959 . S
H906 C920 0.929 . S
H907 C921 0.931 . S
H908 C923 0.930 . S
C909 H897 0.930 . S
C909 C910 1.399 . S
C909 C914 1.399 . S
C910 C909 1.399 . S
C910 C911 1.376 . S
C911 H898 0.930 . S
C911 C910 1.376 . S
C911 C912 1.388 . S
C912 H899 0.930 . S
C912 C911 1.388 . S
C912 C913 1.390 . S
C913 C912 1.390 . S
C913 C914 1.394 . S
C913 C919 1.465 1_554 S
C914 C909 1.399 . S
C914 C913 1.394 . S
C914 C915 1.516 1_554 S
C915 C914 1.516 1_556 S
C915 C916 1.502 1_556 S
C915 C917 1.561 . S
C915 C918 1.526 . S
C916 H900 0.959 . S
C916 H901 0.971 . S
C916 H902 0.961 . S
C916 C915 1.502 1_554 S
C917 H903 0.960 . S
C917 H904 0.961 . S
C917 H905 0.959 . S
C917 C915 1.561 . S
C918 C915 1.526 . S
C918 C919 1.396 . S
C918 C923 1.390 . S
C919 C913 1.465 1_556 S
C919 C918 1.396 . S
C919 C920 1.399 . S
C920 H906 0.929 . S
C920 C919 1.399 . S
C920 C921 1.385 . S
C921 H907 0.931 . S
C921 C920 1.385 . S
C921 C922 1.389 . S
C922 C921 1.389 . S
C922 C923 1.387 . S
C923 H908 0.930 . S
C923 C918 1.390 . S
C923 C922 1.387 . S
C289 N12 1.363 . S
C301 C177 1.432 . S
C316 N25 1.313 . S
C328 C108 1.387 . S
C343 N117 1.387 . S
C355 C62 1.419 . S
C370 N140 1.273 . S
C382 N71 1.298 . S
C397 N186 1.273 . S
C409 N163 1.256 . S
C424 C223 1.408 . S
C436 N94 1.347 . S
C451 N242 1.460 . S
C463 C131 1.455 . S
C478 C260 1.636 . S
C490 C154 1.630 . S
C505 C39 1.454 . S
C517 N209 1.451 . S
C532 C237 1.424 . S
C544 N48 1.413 . S
C559 C85 1.408 . S
C571 N265 1.385 . S
C586 C200 1.603 . S
C598 C7 1.597 . S
C613 C145 1.566 . S
C625 C16 1.545 . S
C640 N173 1.752 . S
C652 C30 1.792 . S
C667 N104 1.364 . S
C679 N58 1.339 . S
C694 C76 1.954 . S
C706 C122 1.912 . S
C721 C168 1.583 . S
C733 N127 1.566 . S
C748 C99 1.766 . S
C760 N150 1.718 . S
C775 N81 1.429 . S
C787 N35 1.480 . S
C802 C53 1.789 . S
C814 N2 1.742 . S
C829 N196 1.443 . S
C841 N219 1.392 . S
C856 C214 1.804 . S
C868 C246 1.825 . S
C883 N255 1.366 . S
C895 N232 1.463 . S
C910 C191 1.779 . S
C922 C269 1.787 . S
