# Generated by pormake.
# Topology rob, (6)-cn, num edge types: 1
# Building blocks:
#     Node 0, Type 0, BuildingBlock: CIFDUS_clean_sbu_1, # of connection points: 6
#     Node 1, Type 0, BuildingBlock: CIFDUS_clean_sbu_1, # of connection points: 6
#     Node 2, Type 0, BuildingBlock: CIFDUS_clean_sbu_1, # of connection points: 6
#     Node 3, Type 0, BuildingBlock: CIFDUS_clean_sbu_1, # of connection points: 6
#     Edge 4, Type (0, 0), BuildingBlock: TEMPAE_clean_linker_10, # of connection points: 2
#     Edge 5, Type (0, 0), BuildingBlock: TEMPAE_clean_linker_10, # of connection points: 2
#     Edge 6, Type (0, 0), BuildingBlock: TEMPAE_clean_linker_10, # of connection points: 2
#     Edge 7, Type (0, 0), BuildingBlock: TEMPAE_clean_linker_10, # of connection points: 2
#     Edge 8, Type (0, 0), BuildingBlock: TEMPAE_clean_linker_10, # of connection points: 2
#     Edge 9, Type (0, 0), BuildingBlock: TEMPAE_clean_linker_10, # of connection points: 2
#     Edge 10, Type (0, 0), BuildingBlock: TEMPAE_clean_linker_10, # of connection points: 2
#     Edge 11, Type (0, 0), BuildingBlock: TEMPAE_clean_linker_10, # of connection points: 2
#     Edge 12, Type (0, 0), BuildingBlock: TEMPAE_clean_linker_10, # of connection points: 2
#     Edge 13, Type (0, 0), BuildingBlock: TEMPAE_clean_linker_10, # of connection points: 2
#     Edge 14, Type (0, 0), BuildingBlock: TEMPAE_clean_linker_10, # of connection points: 2
#     Edge 15, Type (0, 0), BuildingBlock: TEMPAE_clean_linker_10, # of connection points: 2
# Relax obj value: 0.213
# Max RMSD: 0.230
# Mean RMSD: 0.230
data_MOF--net-rob--node1-CIFDUS_clean_sbu_1--edge1-TEMPAE_clean_linker_10
_symmetry_space_group_name_H-M    P1
_symmetry_Int_Tables_number       1
_symmetry_cell_setting            triclinic
loop_
_symmetry_equiv_pos_as_xyz
'x, y, z'
_cell_length_a     15.558131
_cell_length_b     27.382143
_cell_length_c     27.016489
_cell_angle_alpha  106.96187
_cell_angle_beta   90.267903
_cell_angle_gamma 90.159892
loop_
_atom_site_label
_atom_site_type_symbol
_atom_site_fract_x
_atom_site_fract_y
_atom_site_fract_z
_atom_type_partial_charge
O0 O 0.16787 0.27162 0.9283 0.0
Mn1 Mn 0.23854 0.25062 -0.01401 0.0
O2 O 0.11962 0.19771 0.87596 0.0
Mn3 Mn 0.20222 0.16068 0.89653 0.0
O4 O 0.31226 0.22921 0.04247 0.0
O5 O 0.28695 0.32537 0.00903 0.0
Mn6 Mn 0.28989 0.3319 0.0769 0.0
O7 O 0.13392 0.26463 0.03537 0.0
O8 O 0.38634 0.29785 0.08605 0.0
O9 O 0.34211 0.2366 0.9352 0.0
O10 O 0.31053 0.16527 0.87259 0.0
O11 O 0.27951 0.39604 0.07494 0.0
O12 O 0.19444 0.31357 0.10746 0.0
C13 C 0.16838 0.12689 0.95008 0.0
C14 C 0.12488 0.24587 0.88842 0.0
C15 C 0.37284 0.25021 0.07431 0.0
C16 C 0.27507 0.37509 0.02535 0.0
C17 C 0.13223 0.28712 0.08381 0.0
C18 C 0.3597 0.20256 0.89279 0.0
O19 O 0.1955 0.17481 0.96406 0.0
O20 O 0.17049 0.10047 0.90163 0.0
O21 O 0.65373 0.75254 0.92576 0.0
Mn22 Mn 0.73366 0.74381 -0.01517 0.0
O23 O 0.6916 0.68102 0.8629 0.0
Mn24 Mn 0.74855 0.64508 0.90188 0.0
O25 O 0.8175 0.73199 0.04024 0.0
O26 O 0.77076 0.82333 0.00498 0.0
Mn27 Mn 0.71339 0.82827 0.06348 0.0
O28 O 0.63184 0.746 0.03826 0.0
O29 O 0.77546 0.79787 0.10536 0.0
O30 O 0.83456 0.73702 0.93085 0.0
O31 O 0.8649 0.65545 0.90664 0.0
O32 O 0.74291 0.89143 0.07541 0.0
O33 O 0.59602 0.82448 0.06061 0.0
C34 C 0.67204 0.6204 0.95311 0.0
C35 C 0.65461 0.72465 0.87802 0.0
C36 C 0.82038 0.75809 0.08791 0.0
C37 C 0.78078 0.87255 0.03139 0.0
C38 C 0.57858 0.78038 0.06125 0.0
C39 C 0.88256 0.70011 0.90572 0.0
O40 O 0.70036 0.66741 0.96296 0.0
O41 O 0.701 0.58824 0.91134 0.0
O42 O 0.15274 0.73884 0.54454 0.0
Mn43 Mn 0.23251 0.75348 0.48827 0.0
O44 O 0.18489 0.80635 0.61354 0.0
Mn45 Mn 0.24319 0.84683 0.57981 0.0
O46 O 0.3136 0.76854 0.4334 0.0
O47 O 0.26908 0.67425 0.46253 0.0
Mn48 Mn 0.20483 0.67269 0.4071 0.0
O49 O 0.1289 0.75519 0.43737 0.0
O50 O 0.25936 0.70781 0.36654 0.0
O51 O 0.33559 0.75687 0.54003 0.0
O52 O 0.36001 0.83875 0.57696 0.0
O53 O 0.23652 0.60928 0.39017 0.0
O54 O 0.08851 0.67761 0.41698 0.0
C55 C 0.17642 0.87715 0.52845 0.0
C56 C 0.14925 0.76285 0.59327 0.0
C57 C 0.30921 0.74572 0.38474 0.0
C58 C 0.27793 0.6259 0.43362 0.0
C59 C 0.07309 0.72172 0.41557 0.0
C60 C 0.38223 0.79286 0.56884 0.0
O61 O 0.20187 0.82964 0.51615 0.0
O62 O 0.1972 0.90563 0.57429 0.0
O63 O 0.66041 0.23586 0.5452 0.0
Mn64 Mn 0.73354 0.25002 0.48572 0.0
O65 O 0.64668 0.31369 0.60249 0.0
Mn66 Mn 0.72009 0.34756 0.5712 0.0
O67 O 0.80545 0.27173 0.42857 0.0
O68 O 0.77047 0.16974 0.46749 0.0
Mn69 Mn 0.7873 0.17888 0.40507 0.0
O70 O 0.62635 0.23585 0.43717 0.0
O71 O 0.89039 0.20845 0.39923 0.0
O72 O 0.83891 0.26298 0.53715 0.0
O73 O 0.83388 0.34361 0.58654 0.0
O74 O 0.79819 0.11374 0.38791 0.0
O75 O 0.69454 0.19066 0.36777 0.0
C76 C 0.67229 0.37436 0.51405 0.0
C77 C 0.63363 0.26575 0.58842 0.0
C78 C 0.87314 0.2538 0.40341 0.0
C79 C 0.78888 0.12261 0.43732 0.0
C80 C 0.62757 0.21271 0.38892 0.0
C81 C 0.86992 0.30057 0.57315 0.0
O82 O 0.69706 0.32648 0.50461 0.0
O83 O 0.68314 0.40498 0.56039 0.0
C84 C 0.59213 0.58618 0.01595 0.0
C85 C 0.59134 0.60546 0.97336 0.0
C86 C 0.52725 0.55219 0.02191 0.0
C87 C 0.46297 0.53533 0.98299 0.0
C88 C 0.45894 0.55763 0.94199 0.0
C89 C 0.52198 0.5932 0.93842 0.0
C90 C 0.53137 0.53156 0.06787 0.0
C91 C 0.39283 0.54049 0.89925 0.0
C92 C 0.38222 0.40007 0.96884 0.0
C93 C 0.30447 0.40977 -0.00414 0.0
C94 C 0.43236 0.44052 0.96187 0.0
C95 C 0.40438 0.49176 0.98289 0.0
C96 C 0.32196 0.50103 0.00558 0.0
C97 C 0.27272 0.45989 0.0111 0.0
C98 C 0.51833 0.42855 0.93554 0.0
C99 C 0.28909 0.55457 0.02929 0.0
H100 H 0.64643 0.59464 0.04243 0.0
H101 H 0.52226 0.60734 0.90484 0.0
H102 H 0.46604 0.52823 0.08295 0.0
H103 H 0.56005 0.49286 0.05587 0.0
H104 H 0.5714 0.55623 0.09963 0.0
H105 H 0.39667 0.56269 0.87085 0.0
H106 H 0.40262 0.4995 0.87844 0.0
H107 H 0.3271 0.54428 0.91559 0.0
H108 H 0.40793 0.36164 0.95763 0.0
H109 H 0.21313 0.46763 0.03263 0.0
H110 H 0.57035 0.43896 0.96502 0.0
H111 H 0.52815 0.45126 0.90804 0.0
H112 H 0.52451 0.38736 0.91422 0.0
H113 H 0.31787 0.57014 0.06843 0.0
H114 H 0.21804 0.55508 0.03337 0.0
H115 H 0.30738 0.58042 0.00622 0.0
C116 C 0.36276 0.54611 0.40371 0.0
C117 C 0.34148 0.58964 0.44463 0.0
C118 C 0.42028 0.5094 0.41014 0.0
C119 C 0.45801 0.51533 0.45904 0.0
C120 C 0.43886 0.55952 0.50071 0.0
C121 C 0.38116 0.59657 0.49289 0.0
C122 C 0.43895 0.46347 0.36445 0.0
C123 C 0.47857 0.56738 0.55351 0.0
C124 C 0.53205 0.39152 0.48276 0.0
C125 C 0.62142 0.39496 0.47907 0.0
C126 C 0.47838 0.43083 0.47721 0.0
C127 C 0.51483 0.47384 0.46591 0.0
C128 C 0.60448 0.47515 0.45742 0.0
C129 C 0.65677 0.43593 0.46466 0.0
C130 C 0.38333 0.42799 0.48705 0.0
C131 C 0.64567 0.51915 0.44318 0.0
H132 H 0.33439 0.54026 0.36571 0.0
H133 H 0.36613 0.63017 0.52449 0.0
H134 H 0.50922 0.45704 0.35987 0.0
H135 H 0.41009 0.42894 0.37123 0.0
H136 H 0.41237 0.4675 0.32762 0.0
H137 H 0.45219 0.60142 0.58271 0.0
H138 H 0.4676 0.53321 0.56687 0.0
H139 H 0.54908 0.57239 0.55132 0.0
H140 H 0.50492 0.36091 0.49582 0.0
H141 H 0.72613 0.43958 0.46354 0.0
H142 H 0.34593 0.4302 0.45273 0.0
H143 H 0.36438 0.46107 0.51997 0.0
H144 H 0.3652 0.39228 0.4961 0.0
H145 H 0.61431 0.52433 0.40808 0.0
H146 H 0.71563 0.51335 0.43575 0.0
H147 H 0.63655 0.555 0.47492 0.0
C148 C 0.03166 0.1068 0.98199 0.0
C149 C 0.12126 0.10277 0.98329 0.0
C150 C 0.97849 0.06633 -0.0149 0.0
C151 C 0.01581 0.0217 -0.00787 0.0
C152 C 0.10615 0.01895 -0.00286 0.0
C153 C 0.15787 0.05937 -0.00784 0.0
C154 C 0.88272 0.06999 0.9777 0.0
C155 C 0.14817 0.97207 0.00481 0.0
C156 C 0.87267 0.94974 0.05859 0.0
C157 C 0.84433 0.9074 0.01806 0.0
C158 C 0.92916 0.98605 0.05032 0.0
C159 C 0.95959 0.98054 1e-05 0.0
C160 C 0.93437 0.93711 0.95871 0.0
C161 C 0.87671 0.90083 0.96827 0.0
C162 C 0.9556 0.03083 0.09578 0.0
C163 C 0.96585 0.92874 0.90419 0.0
H164 H 0.0035 0.13924 0.9726 0.0
H165 H 0.22721 0.05518 -0.0093 0.0
H166 H 0.86037 0.03703 0.94539 0.0
H167 H 0.84853 0.06822 0.01307 0.0
H168 H 0.86432 0.10584 0.96907 0.0
H169 H 0.21909 0.97628 0.00906 0.0
H170 H 0.12188 0.96407 0.03978 0.0
H171 H 0.13331 0.9385 0.97121 0.0
H172 H 0.8506 0.95502 0.09778 0.0
H173 H 0.85601 0.86826 0.93682 0.0
H174 H 0.93233 0.06699 0.08984 0.0
H175 H 0.02672 0.03341 0.0989 0.0
H176 H 0.92968 0.028 0.13308 0.0
H177 H 0.91206 0.93547 0.87986 0.0
H178 H 0.9863 0.88845 0.88773 0.0
H179 H 0.0203 0.95402 0.90149 0.0
C180 C 0.84686 0.08483 0.50652 0.0
C181 C 0.81529 0.07883 0.45643 0.0
C182 C 0.89539 0.04547 0.51751 0.0
C183 C 0.91727 0.00105 0.47681 0.0
C184 C 0.88121 0.9939 0.42724 0.0
C185 C 0.827 0.03126 0.41871 0.0
C186 C 0.92707 0.05263 0.57198 0.0
C187 C 0.9066 0.94932 0.38166 0.0
C188 C 0.13631 0.94375 0.48843 0.0
C189 C 0.11446 0.89815 0.49891 0.0
C190 C 0.0728 0.97678 0.47995 0.0
C191 C 0.98483 0.96478 0.48377 0.0
C192 C 0.96241 0.91725 0.49154 0.0
C193 C 0.02771 0.88433 0.4987 0.0
C194 C 0.10025 0.02544 0.46876 0.0
C195 C 0.86987 0.90281 0.49657 0.0
H196 H 0.83769 0.12081 0.53618 0.0
H197 H 0.80072 0.02497 0.3801 0.0
H198 H 0.92188 0.0163 0.58223 0.0
H199 H -0.00424 0.06407 0.57503 0.0
H200 H 0.89029 0.08266 0.6005 0.0
H201 H 0.87224 0.94913 0.34547 0.0
H202 H 0.97674 0.95102 0.37488 0.0
H203 H 0.89361 0.91266 0.38982 0.0
H204 H 0.20338 0.95508 0.49002 0.0
H205 H 0.01069 0.84998 0.50873 0.0
H206 H 0.08428 0.05877 0.50208 0.0
H207 H 0.0652 0.02986 0.43446 0.0
H208 H 0.17041 0.02634 0.46157 0.0
H209 H 0.8459 0.92514 0.53513 0.0
H210 H 0.86271 0.86152 0.49295 0.0
H211 H 0.82827 0.912 0.46713 0.0
C212 C 0.53405 0.16617 0.31737 0.0
C213 C 0.55435 0.21236 0.35459 0.0
C214 C 0.49179 0.16559 0.27141 0.0
C215 C 0.46942 0.21239 0.26281 0.0
C216 C 0.48049 0.25874 0.30304 0.0
C217 C 0.52346 0.25825 0.34876 0.0
C218 C 0.47878 0.11538 0.23013 0.0
C219 C 0.45317 0.30914 0.29609 0.0
C220 C 0.48677 0.22997 0.12931 0.0
C221 C 0.40096 0.22593 0.11326 0.0
C222 C 0.51007 0.22253 0.17674 0.0
C223 C 0.44542 0.21344 0.20986 0.0
C224 C 0.35905 0.20693 0.19255 0.0
C225 C 0.33824 0.21213 0.14381 0.0
C226 C 0.60351 0.22658 0.19234 0.0
C227 C 0.2869 0.19708 0.22556 0.0
H228 H 0.55821 0.13071 0.32223 0.0
H229 H 0.53989 0.29394 0.37748 0.0
H230 H 0.4114 0.11193 0.21586 0.0
H231 H 0.52113 0.11389 0.19676 0.0
H232 H 0.49356 0.08218 0.24444 0.0
H233 H 0.45611 0.3404 0.33306 0.0
H234 H 0.49602 0.31927 0.26784 0.0
H235 H 0.38665 0.30622 0.2804 0.0
H236 H 0.53493 0.2413 0.10587 0.0
H237 H 0.27141 0.21004 0.13182 0.0
H238 H 0.62162 0.19362 0.20615 0.0
H239 H 0.61449 0.26186 0.22468 0.0
H240 H 0.64625 0.2275 0.15978 0.0
H241 H 0.26169 0.15783 0.20804 0.0
H242 H 0.23339 0.22383 0.22577 0.0
H243 H 0.30599 0.20118 0.26615 0.0
C244 C 0.58781 0.79789 0.15628 0.0
C245 C 0.54094 0.77692 0.11035 0.0
C246 C 0.55698 0.79662 0.20439 0.0
C247 C 0.47427 0.77653 0.2074 0.0
C248 C 0.42441 0.75727 0.16152 0.0
C249 C 0.45901 0.75689 0.11317 0.0
C250 C 0.61404 0.81571 0.25166 0.0
C251 C 0.33461 0.73707 0.1637 0.0
C252 C 0.41686 0.72075 0.31568 0.0
C253 C 0.36613 0.75933 0.34755 0.0
C254 C 0.45587 0.72697 0.27133 0.0
C255 C 0.4422 0.77258 0.25794 0.0
C256 C 0.39556 0.81311 0.29192 0.0
C257 C 0.35803 0.80601 0.33669 0.0
C258 C 0.50807 0.68365 0.23743 0.0
C259 C 0.38149 0.8628 0.27956 0.0
H260 H 0.64898 0.81591 0.15493 0.0
H261 H 0.42174 0.74191 0.07798 0.0
H262 H 0.58008 0.84472 0.28263 0.0
H263 H 0.6302 0.78359 0.26727 0.0
H264 H 0.67507 0.83266 0.24297 0.0
H265 H 0.30252 0.72588 0.12519 0.0
H266 H 0.33673 0.70334 0.17854 0.0
H267 H 0.29505 0.76653 0.19098 0.0
H268 H 0.42279 0.68461 0.32432 0.0
H269 H 0.31797 0.83555 0.36123 0.0
H270 H 0.57159 0.69781 0.22895 0.0
H271 H 0.47441 0.66735 0.1999 0.0
H272 H 0.51859 0.65262 0.25563 0.0
H273 H 0.444 0.87967 0.27346 0.0
H274 H 0.34647 0.89108 0.31081 0.0
H275 H 0.34412 0.85562 0.24303 0.0
C276 C 0.55236 0.77908 0.84376 0.0
C277 C 0.61973 0.74386 0.8362 0.0
C278 C 0.51697 0.79263 0.80142 0.0
C279 C 0.55006 0.77026 0.75099 0.0
C280 C 0.62102 0.73706 0.74404 0.0
C281 C 0.65527 0.72474 0.78659 0.0
C282 C 0.44213 0.82898 0.81019 0.0
C283 C 0.65929 0.71307 0.6912 0.0
C284 C 0.41072 0.7434 0.6308 0.0
C285 C 0.43585 0.78229 0.60971 0.0
C286 C 0.44437 0.74087 0.67817 0.0
C287 C 0.50694 0.77702 0.70429 0.0
C288 C 0.53497 0.8153 0.68231 0.0
C289 C 0.49817 0.81788 0.63558 0.0
C290 C 0.41284 0.69941 0.70031 0.0
C291 C 0.60208 0.85428 0.70868 0.0
H292 H 0.52562 0.79458 0.8821 0.0
H293 H 0.70967 0.69902 0.78061 0.0
H294 H 0.45303 0.8587 0.79041 0.0
H295 H 0.38297 0.80775 0.79331 0.0
H296 H 0.43111 0.84795 0.852 0.0
H297 H 0.7119 0.68609 0.69227 0.0
H298 H 0.6092 0.69186 0.6639 0.0
H299 H 0.68487 0.74333 0.67547 0.0
H300 H 0.36087 0.71661 0.61186 0.0
H301 H 0.51624 0.84869 0.61996 0.0
H302 H 0.39301 0.71609 0.74115 0.0
H303 H 0.4658 0.67227 0.70001 0.0
H304 H 0.35762 0.67775 0.6781 0.0
H305 H 0.57467 0.8805 0.74442 0.0
H306 H 0.62436 0.87734 0.68348 0.0
H307 H 0.65855 0.83543 0.72031 0.0
C308 C 0.63579 0.26951 0.67961 0.0
C309 C 0.60358 0.24545 0.62988 0.0
C310 C 0.60213 0.25929 0.72297 0.0
C311 C 0.53595 0.22272 0.7165 0.0
C312 C 0.50722 0.19502 0.6661 0.0
C313 C 0.54145 0.20696 0.62279 0.0
C314 C 0.63377 0.29032 0.77586 0.0
C315 C 0.43756 0.15499 0.65826 0.0
C316 C 0.48636 0.1824 0.8359 0.0
C317 C 0.41848 0.2151 0.85667 0.0
C318 C 0.52543 0.18418 0.78981 0.0
C319 C 0.49263 0.21775 0.76325 0.0
C320 C 0.42391 0.25091 0.78435 0.0
C321 C 0.38878 0.24984 0.83149 0.0
C322 C 0.60018 0.1494 0.76887 0.0
C323 C 0.38614 0.28659 0.75663 0.0
H324 H 0.68581 0.29832 0.68493 0.0
H325 H 0.51723 0.1881 0.58423 0.0
H326 H 0.58174 0.31595 0.79622 0.0
H327 H 0.65102 0.26497 0.79971 0.0
H328 H 0.69069 0.31419 0.77366 0.0
H329 H 0.43319 0.13104 0.61731 0.0
H330 H 0.44915 0.12988 0.68325 0.0
H331 H 0.37466 0.17389 0.66947 0.0
H332 H 0.50655 0.15433 0.8547 0.0
H333 H 0.33347 0.27345 0.84672 0.0
H334 H 0.65652 0.17213 0.76326 0.0
H335 H 0.58297 0.12298 0.73044 0.0
H336 H 0.61927 0.12656 0.79499 0.0
H337 H 0.43557 0.31456 0.75287 0.0
H338 H 0.32972 0.30784 0.77713 0.0
H339 H 0.36567 0.2647 0.71694 0.0
C340 C 0.94374 0.77344 0.14827 0.0
C341 C 0.87398 0.7426 0.12531 0.0
C342 C 0.98163 0.76871 0.19387 0.0
C343 C 0.94685 0.73332 0.21759 0.0
C344 C 0.87907 0.70029 0.19287 0.0
C345 C 0.84352 0.70527 0.14676 0.0
C346 C 0.0563 0.80301 0.21775 0.0
C347 C 0.84042 0.66195 0.21681 0.0
C348 C 0.07074 0.69313 0.31985 0.0
C349 C 0.03699 0.72534 0.36607 0.0
C350 C 0.04453 0.69676 0.27151 0.0
C351 C 0.97943 0.73171 0.26893 0.0
C352 C 0.94413 0.76411 0.31536 0.0
C353 C 0.97504 0.76145 0.36366 0.0
C354 C 0.08689 0.6633 0.22327 0.0
C355 C 0.87346 0.8013 0.3139 0.0
H356 H 0.96602 0.80287 0.13179 0.0
H357 H 0.78812 0.68241 0.1294 0.0
H358 H 0.03701 0.82939 0.2556 0.0
H359 H 0.11071 0.77994 0.22517 0.0
H360 H 0.07914 0.82605 0.19265 0.0
H361 H 0.79201 0.63695 0.19105 0.0
H362 H 0.8913 0.63757 0.22593 0.0
H363 H 0.80889 0.68242 0.25378 0.0
H364 H 0.11943 0.66541 0.32145 0.0
H365 H 0.9499 0.78676 0.39928 0.0
H366 H 0.11331 0.68715 0.19999 0.0
H367 H 0.03873 0.63709 0.19875 0.0
H368 H 0.13994 0.64012 0.23228 0.0
H369 H 0.89804 0.83072 0.29667 0.0
H370 H 0.84811 0.82067 0.35306 0.0
H371 H 0.81961 0.78118 0.28906 0.0
C372 C 0.97664 0.29131 0.35424 0.0
C373 C 0.89614 0.27003 0.35807 0.0
C374 C 0.00656 0.29409 0.30606 0.0
C375 C 0.95618 0.27286 0.26087 0.0
C376 C 0.87507 0.25132 0.2649 0.0
C377 C 0.84499 0.25165 0.31364 0.0
C378 C 0.09349 0.31758 0.30309 0.0
C379 C 0.82083 0.22653 0.21775 0.0
C380 C 0.01256 0.31618 0.14416 0.0
C381 C 0.06498 0.27625 0.11653 0.0
C382 C 0.97258 0.31421 0.18992 0.0
C383 C -0.0112 0.27231 0.20922 0.0
C384 C 0.03747 0.23035 0.17958 0.0
C385 C 0.07402 0.23258 0.13296 0.0
C386 C 0.91732 0.35829 0.21918 0.0
C387 C 0.05423 0.18428 0.19819 0.0
H388 H 0.01705 0.3041 0.38842 0.0
H389 H 0.7835 0.23416 0.3164 0.0
H390 H 0.13676 0.28849 0.27842 0.0
H391 H 0.08723 0.34879 0.28477 0.0
H392 H 0.12388 0.33323 0.34181 0.0
H393 H 0.77038 0.20156 0.22642 0.0
H394 H 0.78981 0.2567 0.20411 0.0
H395 H 0.86025 0.20303 0.18552 0.0
H396 H 0.00741 0.35033 0.13175 0.0
H397 H 0.11597 0.20215 0.11173 0.0
H398 H 0.94925 0.37878 0.25627 0.0
H399 H 0.85456 0.344 0.22871 0.0
H400 H 0.90534 0.38583 0.19682 0.0
H401 H 0.08164 0.19632 0.23793 0.0
H402 H 0.09899 0.15685 0.17247 0.0
H403 H -0.00714 0.16416 0.19993 0.0
C404 C 0.00062 0.31775 0.62898 0.0
C405 C 0.92455 0.29018 0.61322 0.0
C406 C 0.04086 0.3184 0.67586 0.0
C407 C 0.00178 0.29262 0.70844 0.0
C408 C 0.92429 0.26506 0.69273 0.0
C409 C 0.88739 0.26355 0.64491 0.0
C410 C 0.12456 0.34699 0.6908 0.0
C411 C 0.8796 0.23783 0.72677 0.0
C412 C 0.13314 0.23829 0.79635 0.0
C413 C 0.10568 0.26721 0.84555 0.0
C414 C 0.10267 0.2477 0.7516 0.0
C415 C 0.0463 0.28895 0.75592 0.0
C416 C 0.02576 0.32213 0.80563 0.0
C417 C 0.05515 0.3105 0.85043 0.0
C418 C 0.12471 0.21034 0.69991 0.0
C419 C 0.96921 0.36804 0.81128 0.0
H420 H 0.0273 0.33976 0.6052 0.0
H421 H 0.82635 0.2441 0.63368 0.0
H422 H 0.11867 0.37542 0.72943 0.0
H423 H 0.17622 0.32011 0.69376 0.0
H424 H 0.14447 0.36697 0.66232 0.0
H425 H 0.81862 0.21919 0.70936 0.0
H426 H 0.92258 0.20832 0.73399 0.0
H427 H 0.86481 0.26533 0.76489 0.0
H428 H 0.17481 0.2057 0.79268 0.0
H429 H 0.03532 0.33341 0.88852 0.0
H430 H 0.14496 0.23068 0.67193 0.0
H431 H 0.06678 0.18736 0.68367 0.0
H432 H 0.17675 0.18372 0.70319 0.0
H433 H -0.00834 0.39032 0.78544 0.0
H434 H 0.96833 0.39341 0.85174 0.0
H435 H 0.90248 0.35533 0.79948 0.0
C436 C 0.02606 0.72134 0.62615 0.0
C437 C 0.11136 0.73846 0.63014 0.0
C438 C -0.01289 0.70817 0.66761 0.0
C439 C 0.03476 0.71279 0.71383 0.0
C440 C 0.12285 0.72632 0.71591 0.0
C441 C 0.15983 0.73879 0.67406 0.0
C442 C 0.8937 0.6927 0.66294 0.0
C443 C 0.17815 0.72931 0.76288 0.0
C444 C 0.92605 0.75045 0.8454 0.0
C445 C 0.92976 0.705 0.8594 0.0
C446 C 0.95642 0.75273 0.79714 0.0
C447 C -0.00781 0.70865 0.7619 0.0
C448 C -0.00444 0.66257 0.77545 0.0
C449 C 0.96528 0.66141 0.82406 0.0
C450 C 0.95121 0.80265 0.78416 0.0
C451 C 0.0296 0.61422 0.73814 0.0
H452 H -0.01143 0.72101 0.59212 0.0
H453 H 0.2265 0.75103 0.67657 0.0
H454 H 0.87932 0.66509 0.6848 0.0
H455 H 0.85385 0.72715 0.67904 0.0
H456 H 0.87449 0.67556 0.62184 0.0
H457 H 0.23869 0.75086 0.76275 0.0
H458 H 0.14355 0.74774 0.79933 0.0
H459 H 0.19544 0.6901 0.76311 0.0
H460 H 0.89732 0.78409 0.87159 0.0
H461 H 0.96705 0.62566 0.83367 0.0
H462 H 0.92338 0.7967 0.74497 0.0
H463 H 0.01697 0.81846 0.78407 0.0
H464 H 0.91138 0.83122 0.81226 0.0
H465 H -0.00414 0.60657 0.70032 0.0
H466 H 0.02151 0.58054 0.75275 0.0
H467 H 0.09888 0.61881 0.73107 0.0
loop_
_geom_bond_atom_site_label_1
_geom_bond_atom_site_label_2
_geom_bond_distance
_geom_bond_site_symmetry_2
_ccdc_geom_bond_type
O0 Mn1 2.154 1_556 S
O0 C14 1.244 . S
Mn1 O0 2.154 1_554 S
Mn1 O4 2.168 . S
Mn1 O5 2.222 . S
Mn1 O7 2.171 . S
Mn1 O9 2.152 1_554 S
Mn1 O19 2.220 1_554 S
O2 Mn3 2.087 . S
O2 C14 1.256 . S
Mn3 O2 2.087 . S
Mn3 O10 2.089 . S
Mn3 O19 2.290 . S
Mn3 O20 2.251 . S
O4 Mn1 2.168 . S
O4 C15 1.239 . S
O5 Mn1 2.222 . S
O5 Mn6 2.290 . S
O5 C16 1.278 . S
Mn6 O5 2.290 . S
Mn6 O8 2.089 . S
Mn6 O11 2.251 . S
Mn6 O12 2.087 . S
O7 Mn1 2.171 . S
O7 C17 1.244 . S
O8 Mn6 2.089 . S
O8 C15 1.256 . S
O9 Mn1 2.152 1_556 S
O9 C18 1.239 . S
O10 Mn3 2.089 . S
O10 C18 1.256 . S
O11 Mn6 2.251 . S
O11 C16 1.241 . S
O12 Mn6 2.087 . S
O12 C17 1.256 . S
C13 O19 1.278 . S
C13 O20 1.241 . S
C14 O0 1.244 . S
C14 O2 1.256 . S
C15 O4 1.239 . S
C15 O8 1.256 . S
C16 O5 1.278 . S
C16 O11 1.241 . S
C17 O7 1.244 . S
C17 O12 1.256 . S
C18 O9 1.239 . S
C18 O10 1.256 . S
O19 Mn1 2.220 1_556 S
O19 Mn3 2.290 . S
O19 C13 1.278 . S
O20 Mn3 2.251 . S
O20 C13 1.241 . S
O21 Mn22 2.154 1_556 S
O21 C35 1.244 . S
Mn22 O21 2.154 1_554 S
Mn22 O25 2.168 . S
Mn22 O26 2.222 . S
Mn22 O28 2.171 . S
Mn22 O30 2.152 1_554 S
Mn22 O40 2.220 1_554 S
O23 Mn24 2.087 . S
O23 C35 1.256 . S
Mn24 O23 2.087 . S
Mn24 O31 2.089 . S
Mn24 O40 2.290 . S
Mn24 O41 2.251 . S
O25 Mn22 2.168 . S
O25 C36 1.239 . S
O26 Mn22 2.222 . S
O26 Mn27 2.290 . S
O26 C37 1.278 . S
Mn27 O26 2.290 . S
Mn27 O29 2.089 . S
Mn27 O32 2.251 . S
Mn27 O33 2.087 . S
O28 Mn22 2.171 . S
O28 C38 1.244 . S
O29 Mn27 2.089 . S
O29 C36 1.256 . S
O30 Mn22 2.152 1_556 S
O30 C39 1.239 . S
O31 Mn24 2.089 . S
O31 C39 1.256 . S
O32 Mn27 2.251 . S
O32 C37 1.241 . S
O33 Mn27 2.087 . S
O33 C38 1.256 . S
C34 O40 1.278 . S
C34 O41 1.241 . S
C35 O21 1.244 . S
C35 O23 1.256 . S
C36 O25 1.239 . S
C36 O29 1.256 . S
C37 O26 1.278 . S
C37 O32 1.241 . S
C38 O28 1.244 . S
C38 O33 1.256 . S
C39 O30 1.239 . S
C39 O31 1.256 . S
O40 Mn22 2.220 1_556 S
O40 Mn24 2.290 . S
O40 C34 1.278 . S
O41 Mn24 2.251 . S
O41 C34 1.241 . S
O42 Mn43 2.163 . S
O42 C56 1.244 . S
Mn43 O42 2.163 . S
Mn43 O46 2.160 . S
Mn43 O47 2.221 . S
Mn43 O49 2.163 . S
Mn43 O51 2.160 . S
Mn43 O61 2.221 . S
O44 Mn45 2.087 . S
O44 C56 1.256 . S
Mn45 O44 2.087 . S
Mn45 O52 2.089 . S
Mn45 O61 2.290 . S
Mn45 O62 2.251 . S
O46 Mn43 2.160 . S
O46 C57 1.239 . S
O47 Mn43 2.221 . S
O47 Mn48 2.290 . S
O47 C58 1.278 . S
Mn48 O47 2.290 . S
Mn48 O50 2.089 . S
Mn48 O53 2.251 . S
Mn48 O54 2.087 . S
O49 Mn43 2.163 . S
O49 C59 1.244 . S
O50 Mn48 2.089 . S
O50 C57 1.256 . S
O51 Mn43 2.160 . S
O51 C60 1.239 . S
O52 Mn45 2.089 . S
O52 C60 1.256 . S
O53 Mn48 2.251 . S
O53 C58 1.241 . S
O54 Mn48 2.087 . S
O54 C59 1.256 . S
C55 O61 1.278 . S
C55 O62 1.241 . S
C56 O42 1.244 . S
C56 O44 1.256 . S
C57 O46 1.239 . S
C57 O50 1.256 . S
C58 O47 1.278 . S
C58 O53 1.241 . S
C59 O49 1.244 . S
C59 O54 1.256 . S
C60 O51 1.239 . S
C60 O52 1.256 . S
O61 Mn43 2.221 . S
O61 Mn45 2.290 . S
O61 C55 1.278 . S
O62 Mn45 2.251 . S
O62 C55 1.241 . S
O63 Mn64 2.163 . S
O63 C77 1.244 . S
Mn64 O63 2.163 . S
Mn64 O67 2.160 . S
Mn64 O68 2.221 . S
Mn64 O70 2.163 . S
Mn64 O72 2.160 . S
Mn64 O82 2.221 . S
O65 Mn66 2.087 . S
O65 C77 1.256 . S
Mn66 O65 2.087 . S
Mn66 O73 2.089 . S
Mn66 O82 2.290 . S
Mn66 O83 2.251 . S
O67 Mn64 2.160 . S
O67 C78 1.239 . S
O68 Mn64 2.221 . S
O68 Mn69 2.290 . S
O68 C79 1.278 . S
Mn69 O68 2.290 . S
Mn69 O71 2.089 . S
Mn69 O74 2.251 . S
Mn69 O75 2.087 . S
O70 Mn64 2.163 . S
O70 C80 1.244 . S
O71 Mn69 2.089 . S
O71 C78 1.256 . S
O72 Mn64 2.160 . S
O72 C81 1.239 . S
O73 Mn66 2.089 . S
O73 C81 1.256 . S
O74 Mn69 2.251 . S
O74 C79 1.241 . S
O75 Mn69 2.087 . S
O75 C80 1.256 . S
C76 O82 1.278 . S
C76 O83 1.241 . S
C77 O63 1.244 . S
C77 O65 1.256 . S
C78 O67 1.239 . S
C78 O71 1.256 . S
C79 O68 1.278 . S
C79 O74 1.241 . S
C80 O70 1.244 . S
C80 O75 1.256 . S
C81 O72 1.239 . S
C81 O73 1.256 . S
O82 Mn64 2.221 . S
O82 Mn66 2.290 . S
O82 C76 1.278 . S
O83 Mn66 2.251 . S
O83 C76 1.241 . S
C84 C85 1.391 . S
C84 C86 1.394 . S
C84 H100 0.931 . S
C85 C84 1.391 . S
C85 C89 1.376 1_554 S
C86 C84 1.394 . S
C86 C87 1.369 . S
C86 C90 1.531 . S
C87 C86 1.369 . S
C87 C88 1.410 1_554 S
C87 C95 1.503 . S
C88 C87 1.410 1_556 S
C88 C89 1.392 . S
C88 C91 1.511 . S
C89 C85 1.376 1_556 S
C89 C88 1.392 . S
C89 H101 0.929 . S
C90 C86 1.531 . S
C90 H102 0.960 . S
C90 H103 0.962 . S
C90 H104 0.960 . S
C91 C88 1.511 . S
C91 H105 0.961 . S
C91 H106 0.961 . S
C91 H107 0.961 . S
C92 C93 1.370 1_556 S
C92 C94 1.363 . S
C92 H108 0.931 . S
C93 C92 1.370 1_554 S
C93 C97 1.408 . S
C94 C92 1.363 . S
C94 C95 1.370 1_556 S
C94 C98 1.524 . S
C95 C87 1.503 . S
C95 C94 1.370 1_554 S
C95 C96 1.403 . S
C96 C95 1.403 . S
C96 C97 1.404 . S
C96 C99 1.539 . S
C97 C93 1.408 . S
C97 C96 1.404 . S
C97 H109 0.930 . S
C98 C94 1.524 . S
C98 H110 0.951 1_556 S
C98 H111 0.961 . S
C98 H112 0.961 . S
C99 C96 1.539 . S
C99 H113 0.958 . S
C99 H114 0.961 . S
C99 H115 0.960 . S
H100 C84 0.931 . S
H101 C89 0.929 . S
H102 C90 0.960 . S
H103 C90 0.962 . S
H104 C90 0.960 . S
H105 C91 0.961 . S
H106 C91 0.961 . S
H107 C91 0.961 . S
H108 C92 0.931 . S
H109 C97 0.930 . S
H110 C98 0.951 1_554 S
H111 C98 0.961 . S
H112 C98 0.961 . S
H113 C99 0.958 . S
H114 C99 0.961 . S
H115 C99 0.960 . S
C116 C117 1.391 . S
C116 C118 1.394 . S
C116 H132 0.931 . S
C117 C116 1.391 . S
C117 C121 1.376 . S
C118 C116 1.394 . S
C118 C119 1.369 . S
C118 C122 1.531 . S
C119 C118 1.369 . S
C119 C120 1.410 . S
C119 C127 1.503 . S
C120 C119 1.410 . S
C120 C121 1.392 . S
C120 C123 1.511 . S
C121 C117 1.376 . S
C121 C120 1.392 . S
C121 H133 0.929 . S
C122 C118 1.531 . S
C122 H134 0.960 . S
C122 H135 0.962 . S
C122 H136 0.960 . S
C123 C120 1.511 . S
C123 H137 0.961 . S
C123 H138 0.961 . S
C123 H139 0.961 . S
C124 C125 1.370 . S
C124 C126 1.363 . S
C124 H140 0.931 . S
C125 C124 1.370 . S
C125 C129 1.408 . S
C126 C124 1.363 . S
C126 C127 1.370 . S
C126 C130 1.524 . S
C127 C119 1.503 . S
C127 C126 1.370 . S
C127 C128 1.403 . S
C128 C127 1.403 . S
C128 C129 1.404 . S
C128 C131 1.539 . S
C129 C125 1.408 . S
C129 C128 1.404 . S
C129 H141 0.930 . S
C130 C126 1.524 . S
C130 H142 0.956 . S
C130 H143 0.961 . S
C130 H144 0.961 . S
C131 C128 1.539 . S
C131 H145 0.958 . S
C131 H146 0.961 . S
C131 H147 0.960 . S
H132 C116 0.931 . S
H133 C121 0.929 . S
H134 C122 0.960 . S
H135 C122 0.962 . S
H136 C122 0.960 . S
H137 C123 0.961 . S
H138 C123 0.961 . S
H139 C123 0.961 . S
H140 C124 0.931 . S
H141 C129 0.930 . S
H142 C130 0.956 . S
H143 C130 0.961 . S
H144 C130 0.961 . S
H145 C131 0.958 . S
H146 C131 0.961 . S
H147 C131 0.960 . S
C148 C149 1.391 . S
C148 C150 1.394 1_455 S
C148 H164 0.931 . S
C149 C148 1.391 . S
C149 C153 1.376 1_556 S
C150 C148 1.394 1_655 S
C150 C151 1.369 1_655 S
C150 C154 1.531 . S
C151 C150 1.369 1_455 S
C151 C152 1.410 1_556 S
C151 C159 1.503 1_445 S
C152 C151 1.410 1_554 S
C152 C153 1.392 . S
C152 C155 1.511 1_545 S
C153 C149 1.376 1_554 S
C153 C152 1.392 . S
C153 H165 0.929 . S
C154 C150 1.531 . S
C154 H166 0.960 . S
C154 H167 0.962 . S
C154 H168 0.960 . S
C155 C152 1.511 1_565 S
C155 H169 0.961 . S
C155 H170 0.961 . S
C155 H171 0.961 1_554 S
C156 C157 1.370 . S
C156 C158 1.363 . S
C156 H172 0.931 . S
C157 C156 1.370 . S
C157 C161 1.408 1_554 S
C158 C156 1.363 . S
C158 C159 1.370 1_554 S
C158 C162 1.524 1_565 S
C159 C151 1.503 1_665 S
C159 C158 1.370 1_556 S
C159 C160 1.403 . S
C160 C159 1.403 . S
C160 C161 1.404 . S
C160 C163 1.539 . S
C161 C157 1.408 1_556 S
C161 C160 1.404 . S
C161 H173 0.930 . S
C162 C158 1.524 1_545 S
C162 H174 0.956 . S
C162 H175 0.961 . S
C162 H176 0.961 . S
C163 C160 1.539 . S
C163 H177 0.958 . S
C163 H178 0.961 . S
C163 H179 0.960 1_655 S
H164 C148 0.931 . S
H165 C153 0.929 . S
H166 C154 0.960 . S
H167 C154 0.962 . S
H168 C154 0.960 . S
H169 C155 0.961 . S
H170 C155 0.961 . S
H171 C155 0.961 1_556 S
H172 C156 0.931 . S
H173 C161 0.930 . S
H174 C162 0.956 . S
H175 C162 0.961 . S
H176 C162 0.961 . S
H177 C163 0.958 . S
H178 C163 0.961 . S
H179 C163 0.960 1_455 S
C180 C181 1.391 . S
C180 C182 1.394 . S
C180 H196 0.931 . S
C181 C180 1.391 . S
C181 C185 1.376 . S
C182 C180 1.394 . S
C182 C183 1.369 . S
C182 C186 1.531 . S
C183 C182 1.369 . S
C183 C184 1.410 . S
C183 C191 1.503 1_545 S
C184 C183 1.410 . S
C184 C185 1.392 . S
C184 C187 1.511 1_545 S
C185 C181 1.376 . S
C185 C184 1.392 . S
C185 H197 0.929 . S
C186 C182 1.531 . S
C186 H198 0.958 1_545 S
C186 H199 0.962 . S
C186 H200 0.960 . S
C187 C184 1.511 1_565 S
C187 H201 0.972 . S
C187 H202 0.961 . S
C187 H203 0.961 . S
C188 C189 1.370 . S
C188 C190 1.363 . S
C188 H204 0.931 . S
C189 C188 1.370 . S
C189 C193 1.408 . S
C190 C188 1.363 . S
C190 C191 1.370 1_455 S
C190 C194 1.524 1_565 S
C191 C183 1.503 1_565 S
C191 C190 1.370 1_655 S
C191 C192 1.403 . S
C192 C191 1.403 . S
C192 C193 1.404 1_655 S
C192 C195 1.539 . S
C193 C189 1.408 . S
C193 C192 1.404 1_455 S
C193 H205 0.930 . S
C194 C190 1.524 1_545 S
C194 H206 0.956 . S
C194 H207 0.961 . S
C194 H208 0.961 . S
C195 C192 1.539 . S
C195 H209 0.958 . S
C195 H210 0.961 . S
C195 H211 0.960 . S
H196 C180 0.931 . S
H197 C185 0.929 . S
H198 C186 0.958 1_565 S
H199 C186 0.962 . S
H200 C186 0.960 . S
H201 C187 0.972 . S
H202 C187 0.961 . S
H203 C187 0.961 . S
H204 C188 0.931 . S
H205 C193 0.930 . S
H206 C194 0.956 . S
H207 C194 0.961 . S
H208 C194 0.961 . S
H209 C195 0.958 . S
H210 C195 0.961 . S
H211 C195 0.960 . S
C212 C213 1.391 . S
C212 C214 1.394 . S
C212 H228 0.931 . S
C213 C212 1.391 . S
C213 C217 1.376 . S
C214 C212 1.394 . S
C214 C215 1.369 . S
C214 C218 1.531 . S
C215 C214 1.369 . S
C215 C216 1.410 . S
C215 C223 1.503 . S
C216 C215 1.410 . S
C216 C217 1.392 . S
C216 C219 1.511 . S
C217 C213 1.376 . S
C217 C216 1.392 . S
C217 H229 0.929 . S
C218 C214 1.531 . S
C218 H230 0.960 . S
C218 H231 0.962 . S
C218 H232 0.960 . S
C219 C216 1.511 . S
C219 H233 0.961 . S
C219 H234 0.961 . S
C219 H235 0.961 . S
C220 C221 1.370 . S
C220 C222 1.363 . S
C220 H236 0.931 . S
C221 C220 1.370 . S
C221 C225 1.408 . S
C222 C220 1.363 . S
C222 C223 1.370 . S
C222 C226 1.524 . S
C223 C215 1.503 . S
C223 C222 1.370 . S
C223 C224 1.403 . S
C224 C223 1.403 . S
C224 C225 1.404 . S
C224 C227 1.539 . S
C225 C221 1.408 . S
C225 C224 1.404 . S
C225 H237 0.930 . S
C226 C222 1.524 . S
C226 H238 0.956 . S
C226 H239 0.961 . S
C226 H240 0.961 . S
C227 C224 1.539 . S
C227 H241 0.958 . S
C227 H242 0.961 . S
C227 H243 0.960 . S
H228 C212 0.931 . S
H229 C217 0.929 . S
H230 C218 0.960 . S
H231 C218 0.962 . S
H232 C218 0.960 . S
H233 C219 0.961 . S
H234 C219 0.961 . S
H235 C219 0.961 . S
H236 C220 0.931 . S
H237 C225 0.930 . S
H238 C226 0.956 . S
H239 C226 0.961 . S
H240 C226 0.961 . S
H241 C227 0.958 . S
H242 C227 0.961 . S
H243 C227 0.960 . S
C244 C245 1.391 . S
C244 C246 1.394 . S
C244 H260 0.931 . S
C245 C244 1.391 . S
C245 C249 1.376 . S
C246 C244 1.394 . S
C246 C247 1.369 . S
C246 C250 1.531 . S
C247 C246 1.369 . S
C247 C248 1.410 . S
C247 C255 1.503 . S
C248 C247 1.410 . S
C248 C249 1.392 . S
C248 C251 1.511 . S
C249 C245 1.376 . S
C249 C248 1.392 . S
C249 H261 0.929 . S
C250 C246 1.531 . S
C250 H262 0.960 . S
C250 H263 0.962 . S
C250 H264 0.960 . S
C251 C248 1.511 . S
C251 H265 0.961 . S
C251 H266 0.961 . S
C251 H267 0.961 . S
C252 C253 1.370 . S
C252 C254 1.363 . S
C252 H268 0.931 . S
C253 C252 1.370 . S
C253 C257 1.408 . S
C254 C252 1.363 . S
C254 C255 1.370 . S
C254 C258 1.524 . S
C255 C247 1.503 . S
C255 C254 1.370 . S
C255 C256 1.403 . S
C256 C255 1.403 . S
C256 C257 1.404 . S
C256 C259 1.539 . S
C257 C253 1.408 . S
C257 C256 1.404 . S
C257 H269 0.930 . S
C258 C254 1.524 . S
C258 H270 0.956 . S
C258 H271 0.961 . S
C258 H272 0.961 . S
C259 C256 1.539 . S
C259 H273 0.958 . S
C259 H274 0.961 . S
C259 H275 0.960 . S
H260 C244 0.931 . S
H261 C249 0.929 . S
H262 C250 0.960 . S
H263 C250 0.962 . S
H264 C250 0.960 . S
H265 C251 0.961 . S
H266 C251 0.961 . S
H267 C251 0.961 . S
H268 C252 0.931 . S
H269 C257 0.930 . S
H270 C258 0.956 . S
H271 C258 0.961 . S
H272 C258 0.961 . S
H273 C259 0.958 . S
H274 C259 0.961 . S
H275 C259 0.960 . S
C276 C277 1.391 . S
C276 C278 1.394 . S
C276 H292 0.931 . S
C277 C276 1.391 . S
C277 C281 1.376 . S
C278 C276 1.394 . S
C278 C279 1.369 . S
C278 C282 1.531 . S
C279 C278 1.369 . S
C279 C280 1.410 . S
C279 C287 1.503 . S
C280 C279 1.410 . S
C280 C281 1.392 . S
C280 C283 1.511 . S
C281 C277 1.376 . S
C281 C280 1.392 . S
C281 H293 0.929 . S
C282 C278 1.531 . S
C282 H294 0.960 . S
C282 H295 0.962 . S
C282 H296 0.960 . S
C283 C280 1.511 . S
C283 H297 0.961 . S
C283 H298 0.961 . S
C283 H299 0.961 . S
C284 C285 1.370 . S
C284 C286 1.363 . S
C284 H300 0.931 . S
C285 C284 1.370 . S
C285 C289 1.408 . S
C286 C284 1.363 . S
C286 C287 1.370 . S
C286 C290 1.524 . S
C287 C279 1.503 . S
C287 C286 1.370 . S
C287 C288 1.403 . S
C288 C287 1.403 . S
C288 C289 1.404 . S
C288 C291 1.539 . S
C289 C285 1.408 . S
C289 C288 1.404 . S
C289 H301 0.930 . S
C290 C286 1.524 . S
C290 H302 0.956 . S
C290 H303 0.961 . S
C290 H304 0.961 . S
C291 C288 1.539 . S
C291 H305 0.958 . S
C291 H306 0.961 . S
C291 H307 0.960 . S
H292 C276 0.931 . S
H293 C281 0.929 . S
H294 C282 0.960 . S
H295 C282 0.962 . S
H296 C282 0.960 . S
H297 C283 0.961 . S
H298 C283 0.961 . S
H299 C283 0.961 . S
H300 C284 0.931 . S
H301 C289 0.930 . S
H302 C290 0.956 . S
H303 C290 0.961 . S
H304 C290 0.961 . S
H305 C291 0.958 . S
H306 C291 0.961 . S
H307 C291 0.960 . S
C308 C309 1.391 . S
C308 C310 1.394 . S
C308 H324 0.931 . S
C309 C308 1.391 . S
C309 C313 1.376 . S
C310 C308 1.394 . S
C310 C311 1.369 . S
C310 C314 1.531 . S
C311 C310 1.369 . S
C311 C312 1.410 . S
C311 C319 1.503 . S
C312 C311 1.410 . S
C312 C313 1.392 . S
C312 C315 1.511 . S
C313 C309 1.376 . S
C313 C312 1.392 . S
C313 H325 0.929 . S
C314 C310 1.531 . S
C314 H326 0.960 . S
C314 H327 0.962 . S
C314 H328 0.960 . S
C315 C312 1.511 . S
C315 H329 0.961 . S
C315 H330 0.961 . S
C315 H331 0.961 . S
C316 C317 1.370 . S
C316 C318 1.363 . S
C316 H332 0.931 . S
C317 C316 1.370 . S
C317 C321 1.408 . S
C318 C316 1.363 . S
C318 C319 1.370 . S
C318 C322 1.524 . S
C319 C311 1.503 . S
C319 C318 1.370 . S
C319 C320 1.403 . S
C320 C319 1.403 . S
C320 C321 1.404 . S
C320 C323 1.539 . S
C321 C317 1.408 . S
C321 C320 1.404 . S
C321 H333 0.930 . S
C322 C318 1.524 . S
C322 H334 0.956 . S
C322 H335 0.961 . S
C322 H336 0.961 . S
C323 C320 1.539 . S
C323 H337 0.958 . S
C323 H338 0.961 . S
C323 H339 0.960 . S
H324 C308 0.931 . S
H325 C313 0.929 . S
H326 C314 0.960 . S
H327 C314 0.962 . S
H328 C314 0.960 . S
H329 C315 0.961 . S
H330 C315 0.961 . S
H331 C315 0.961 . S
H332 C316 0.931 . S
H333 C321 0.930 . S
H334 C322 0.956 . S
H335 C322 0.961 . S
H336 C322 0.961 . S
H337 C323 0.958 . S
H338 C323 0.961 . S
H339 C323 0.960 . S
C340 C341 1.391 . S
C340 C342 1.394 1_655 S
C340 H356 0.931 . S
C341 C340 1.391 . S
C341 C345 1.376 . S
C342 C340 1.394 1_455 S
C342 C343 1.369 1_455 S
C342 C346 1.531 . S
C343 C342 1.369 1_655 S
C343 C344 1.410 . S
C343 C351 1.503 1_655 S
C344 C343 1.410 . S
C344 C345 1.392 . S
C344 C347 1.511 . S
C345 C341 1.376 . S
C345 C344 1.392 . S
C345 H357 0.929 . S
C346 C342 1.531 . S
C346 H358 0.960 . S
C346 H359 0.962 . S
C346 H360 0.960 . S
C347 C344 1.511 . S
C347 H361 0.961 . S
C347 H362 0.961 . S
C347 H363 0.961 . S
C348 C349 1.370 . S
C348 C350 1.363 . S
C348 H364 0.931 . S
C349 C348 1.370 . S
C349 C353 1.408 . S
C350 C348 1.363 . S
C350 C351 1.370 . S
C350 C354 1.524 . S
C351 C343 1.503 1_455 S
C351 C350 1.370 . S
C351 C352 1.403 1_455 S
C352 C351 1.403 1_655 S
C352 C353 1.404 1_655 S
C352 C355 1.539 . S
C353 C349 1.408 . S
C353 C352 1.404 1_455 S
C353 H365 0.930 1_455 S
C354 C350 1.524 . S
C354 H366 0.956 . S
C354 H367 0.961 . S
C354 H368 0.961 . S
C355 C352 1.539 . S
C355 H369 0.958 . S
C355 H370 0.961 . S
C355 H371 0.960 . S
H356 C340 0.931 . S
H357 C345 0.929 . S
H358 C346 0.960 . S
H359 C346 0.962 . S
H360 C346 0.960 . S
H361 C347 0.961 . S
H362 C347 0.961 . S
H363 C347 0.961 . S
H364 C348 0.931 . S
H365 C353 0.930 1_655 S
H366 C354 0.956 . S
H367 C354 0.961 . S
H368 C354 0.961 . S
H369 C355 0.958 . S
H370 C355 0.961 . S
H371 C355 0.960 . S
C372 C373 1.391 . S
C372 C374 1.394 1_655 S
C372 H388 0.931 1_655 S
C373 C372 1.391 . S
C373 C377 1.376 . S
C374 C372 1.394 1_455 S
C374 C375 1.372 . S
C374 C378 1.531 . S
C375 C374 1.372 . S
C375 C376 1.402 1_455 S
C375 C383 1.507 . S
C376 C375 1.402 1_655 S
C376 C377 1.392 . S
C376 C379 1.511 . S
C377 C373 1.376 . S
C377 C376 1.392 . S
C377 H389 0.929 . S
C378 C374 1.531 . S
C378 H390 0.960 . S
C378 H391 0.962 . S
C378 H392 0.960 . S
C379 C376 1.511 . S
C379 H393 0.961 . S
C379 H394 0.961 . S
C379 H395 0.961 . S
C380 C381 1.370 . S
C380 C382 1.363 . S
C380 H396 0.931 . S
C381 C380 1.370 . S
C381 C385 1.408 . S
C382 C380 1.363 . S
C382 C383 1.370 . S
C382 C386 1.524 1_455 S
C383 C375 1.507 . S
C383 C382 1.370 . S
C383 C384 1.403 . S
C384 C383 1.403 . S
C384 C385 1.404 . S
C384 C387 1.539 . S
C385 C381 1.408 . S
C385 C384 1.404 . S
C385 H397 0.930 . S
C386 C382 1.524 1_655 S
C386 H398 0.956 . S
C386 H399 0.961 . S
C386 H400 0.961 . S
C387 C384 1.539 . S
C387 H401 0.958 . S
C387 H402 0.961 . S
C387 H403 0.960 . S
H388 C372 0.931 1_455 S
H389 C377 0.929 . S
H390 C378 0.960 . S
H391 C378 0.962 . S
H392 C378 0.960 . S
H393 C379 0.961 . S
H394 C379 0.961 . S
H395 C379 0.961 . S
H396 C380 0.931 . S
H397 C385 0.930 . S
H398 C386 0.956 . S
H399 C386 0.961 . S
H400 C386 0.961 . S
H401 C387 0.958 . S
H402 C387 0.961 . S
H403 C387 0.960 . S
C404 C405 1.391 1_455 S
C404 C406 1.394 . S
C404 H420 0.931 . S
C405 C404 1.391 1_655 S
C405 C409 1.376 . S
C406 C404 1.394 . S
C406 C407 1.369 1_455 S
C406 C410 1.531 . S
C407 C406 1.369 1_655 S
C407 C408 1.410 . S
C407 C415 1.503 1_655 S
C408 C407 1.410 . S
C408 C409 1.392 . S
C408 C411 1.511 . S
C409 C405 1.376 . S
C409 C408 1.392 . S
C409 H421 0.929 . S
C410 C406 1.531 . S
C410 H422 0.960 . S
C410 H423 0.962 . S
C410 H424 0.960 . S
C411 C408 1.511 . S
C411 H425 0.961 . S
C411 H426 0.961 . S
C411 H427 0.961 . S
C412 C413 1.370 . S
C412 C414 1.363 . S
C412 H428 0.931 . S
C413 C412 1.370 . S
C413 C417 1.408 . S
C414 C412 1.363 . S
C414 C415 1.370 . S
C414 C418 1.524 . S
C415 C407 1.503 1_455 S
C415 C414 1.370 . S
C415 C416 1.403 . S
C416 C415 1.403 . S
C416 C417 1.404 . S
C416 C419 1.539 1_455 S
C417 C413 1.408 . S
C417 C416 1.404 . S
C417 H429 0.930 . S
C418 C414 1.524 . S
C418 H430 0.956 . S
C418 H431 0.961 . S
C418 H432 0.961 . S
C419 C416 1.539 1_655 S
C419 H433 0.958 1_655 S
C419 H434 0.961 . S
C419 H435 0.960 . S
H420 C404 0.931 . S
H421 C409 0.929 . S
H422 C410 0.960 . S
H423 C410 0.962 . S
H424 C410 0.960 . S
H425 C411 0.961 . S
H426 C411 0.961 . S
H427 C411 0.961 . S
H428 C412 0.931 . S
H429 C417 0.930 . S
H430 C418 0.956 . S
H431 C418 0.961 . S
H432 C418 0.961 . S
H433 C419 0.958 1_455 S
H434 C419 0.961 . S
H435 C419 0.960 . S
C436 C437 1.391 . S
C436 C438 1.394 1_455 S
C436 H452 0.931 1_455 S
C437 C436 1.391 . S
C437 C441 1.376 . S
C438 C436 1.394 1_655 S
C438 C439 1.369 1_655 S
C438 C442 1.531 . S
C439 C438 1.369 1_455 S
C439 C440 1.410 . S
C439 C447 1.503 1_455 S
C440 C439 1.410 . S
C440 C441 1.392 . S
C440 C443 1.511 . S
C441 C437 1.376 . S
C441 C440 1.392 . S
C441 H453 0.929 . S
C442 C438 1.531 . S
C442 H454 0.960 . S
C442 H455 0.962 . S
C442 H456 0.960 . S
C443 C440 1.511 . S
C443 H457 0.961 . S
C443 H458 0.961 . S
C443 H459 0.961 . S
C444 C445 1.370 . S
C444 C446 1.363 . S
C444 H460 0.931 . S
C445 C444 1.370 . S
C445 C449 1.408 . S
C446 C444 1.363 . S
C446 C447 1.370 . S
C446 C450 1.524 . S
C447 C439 1.503 1_655 S
C447 C446 1.370 . S
C447 C448 1.403 . S
C448 C447 1.403 . S
C448 C449 1.404 . S
C448 C451 1.539 1_655 S
C449 C445 1.408 . S
C449 C448 1.404 . S
C449 H461 0.930 . S
C450 C446 1.524 . S
C450 H462 0.956 . S
C450 H463 0.961 1_655 S
C450 H464 0.961 . S
C451 C448 1.539 1_455 S
C451 H465 0.958 1_455 S
C451 H466 0.961 . S
C451 H467 0.960 . S
H452 C436 0.931 1_655 S
H453 C441 0.929 . S
H454 C442 0.960 . S
H455 C442 0.962 . S
H456 C442 0.960 . S
H457 C443 0.961 . S
H458 C443 0.961 . S
H459 C443 0.961 . S
H460 C444 0.931 . S
H461 C449 0.930 . S
H462 C450 0.956 . S
H463 C450 0.961 1_455 S
H464 C450 0.961 . S
H465 C451 0.958 1_655 S
H466 C451 0.961 . S
H467 C451 0.960 . S
C85 C34 1.406 1_554 S
C93 C16 1.403 . S
C117 C58 1.364 . S
C125 C76 1.414 . S
C149 C13 1.352 . S
C157 C37 1.418 . S
C181 C79 1.416 . S
C189 C55 1.400 . S
C213 C80 1.018 . S
C221 C15 0.943 . S
C245 C38 0.970 . S
C253 C57 0.972 . S
C277 C35 1.003 . S
C285 C60 1.003 . S
C309 C77 0.959 . S
C317 C18 0.969 . S
C341 C36 0.893 . S
C349 C59 1.003 . S
C373 C78 0.932 . S
C381 C17 0.982 . S
C405 C81 0.954 . S
C413 C14 1.003 . S
C437 C56 1.032 . S
C445 C39 0.989 . S
