# Generated by pormake.
# Topology wkp, (6)-cn, num edge types: 1
# Building blocks:
#     Node 0, Type 0, BuildingBlock: OJICUG_clean_sbu_0, # of connection points: 6
#     Node 1, Type 0, BuildingBlock: OJICUG_clean_sbu_0, # of connection points: 6
#     Node 2, Type 0, BuildingBlock: OJICUG_clean_sbu_0, # of connection points: 6
#     Node 3, Type 0, BuildingBlock: OJICUG_clean_sbu_0, # of connection points: 6
#     Node 4, Type 0, BuildingBlock: OJICUG_clean_sbu_0, # of connection points: 6
#     Node 5, Type 0, BuildingBlock: OJICUG_clean_sbu_0, # of connection points: 6
#     Node 6, Type 0, BuildingBlock: OJICUG_clean_sbu_0, # of connection points: 6
#     Node 7, Type 0, BuildingBlock: OJICUG_clean_sbu_0, # of connection points: 6
#     Node 8, Type 0, BuildingBlock: OJICUG_clean_sbu_0, # of connection points: 6
#     Node 9, Type 0, BuildingBlock: OJICUG_clean_sbu_0, # of connection points: 6
#     Node 10, Type 0, BuildingBlock: OJICUG_clean_sbu_0, # of connection points: 6
#     Node 11, Type 0, BuildingBlock: OJICUG_clean_sbu_0, # of connection points: 6
#     Edge 12, Type (0, 0), BuildingBlock: XUDNAN_clean_linker_2, # of connection points: 2
#     Edge 13, Type (0, 0), BuildingBlock: XUDNAN_clean_linker_2, # of connection points: 2
#     Edge 14, Type (0, 0), BuildingBlock: XUDNAN_clean_linker_2, # of connection points: 2
#     Edge 15, Type (0, 0), BuildingBlock: XUDNAN_clean_linker_2, # of connection points: 2
#     Edge 16, Type (0, 0), BuildingBlock: XUDNAN_clean_linker_2, # of connection points: 2
#     Edge 17, Type (0, 0), BuildingBlock: XUDNAN_clean_linker_2, # of connection points: 2
#     Edge 18, Type (0, 0), BuildingBlock: XUDNAN_clean_linker_2, # of connection points: 2
#     Edge 19, Type (0, 0), BuildingBlock: XUDNAN_clean_linker_2, # of connection points: 2
#     Edge 20, Type (0, 0), BuildingBlock: XUDNAN_clean_linker_2, # of connection points: 2
#     Edge 21, Type (0, 0), BuildingBlock: XUDNAN_clean_linker_2, # of connection points: 2
#     Edge 22, Type (0, 0), BuildingBlock: XUDNAN_clean_linker_2, # of connection points: 2
#     Edge 23, Type (0, 0), BuildingBlock: XUDNAN_clean_linker_2, # of connection points: 2
#     Edge 24, Type (0, 0), BuildingBlock: XUDNAN_clean_linker_2, # of connection points: 2
#     Edge 25, Type (0, 0), BuildingBlock: XUDNAN_clean_linker_2, # of connection points: 2
#     Edge 26, Type (0, 0), BuildingBlock: XUDNAN_clean_linker_2, # of connection points: 2
#     Edge 27, Type (0, 0), BuildingBlock: XUDNAN_clean_linker_2, # of connection points: 2
#     Edge 28, Type (0, 0), BuildingBlock: XUDNAN_clean_linker_2, # of connection points: 2
#     Edge 29, Type (0, 0), BuildingBlock: XUDNAN_clean_linker_2, # of connection points: 2
#     Edge 30, Type (0, 0), BuildingBlock: XUDNAN_clean_linker_2, # of connection points: 2
#     Edge 31, Type (0, 0), BuildingBlock: XUDNAN_clean_linker_2, # of connection points: 2
#     Edge 32, Type (0, 0), BuildingBlock: XUDNAN_clean_linker_2, # of connection points: 2
#     Edge 33, Type (0, 0), BuildingBlock: XUDNAN_clean_linker_2, # of connection points: 2
#     Edge 34, Type (0, 0), BuildingBlock: XUDNAN_clean_linker_2, # of connection points: 2
#     Edge 35, Type (0, 0), BuildingBlock: XUDNAN_clean_linker_2, # of connection points: 2
#     Edge 36, Type (0, 0), BuildingBlock: XUDNAN_clean_linker_2, # of connection points: 2
#     Edge 37, Type (0, 0), BuildingBlock: XUDNAN_clean_linker_2, # of connection points: 2
#     Edge 38, Type (0, 0), BuildingBlock: XUDNAN_clean_linker_2, # of connection points: 2
#     Edge 39, Type (0, 0), BuildingBlock: XUDNAN_clean_linker_2, # of connection points: 2
#     Edge 40, Type (0, 0), BuildingBlock: XUDNAN_clean_linker_2, # of connection points: 2
#     Edge 41, Type (0, 0), BuildingBlock: XUDNAN_clean_linker_2, # of connection points: 2
#     Edge 42, Type (0, 0), BuildingBlock: XUDNAN_clean_linker_2, # of connection points: 2
#     Edge 43, Type (0, 0), BuildingBlock: XUDNAN_clean_linker_2, # of connection points: 2
#     Edge 44, Type (0, 0), BuildingBlock: XUDNAN_clean_linker_2, # of connection points: 2
#     Edge 45, Type (0, 0), BuildingBlock: XUDNAN_clean_linker_2, # of connection points: 2
#     Edge 46, Type (0, 0), BuildingBlock: XUDNAN_clean_linker_2, # of connection points: 2
#     Edge 47, Type (0, 0), BuildingBlock: XUDNAN_clean_linker_2, # of connection points: 2
# Relax obj value: 0.288
# Max RMSD: 0.309
# Mean RMSD: 0.309
data_MOF--net-wkp--node1-OJICUG_clean_sbu_0--edge1-XUDNAN_clean_linker_2
_symmetry_space_group_name_H-M    P1
_symmetry_Int_Tables_number       1
_symmetry_cell_setting            triclinic
loop_
_symmetry_equiv_pos_as_xyz
'x, y, z'
_cell_length_a     43.246804
_cell_length_b     43.187818
_cell_length_c     30.470078
_cell_angle_alpha  89.917281
_cell_angle_beta   89.989055
_cell_angle_gamma 120.15906
loop_
_atom_site_label
_atom_site_type_symbol
_atom_site_fract_x
_atom_site_fract_y
_atom_site_fract_z
_atom_type_partial_charge
Sc0 Sc 0.23645 0.45088 0.01103 0.0
Sc1 Sc 0.19503 0.35684 0.00273 0.0
Sc2 Sc 0.2838 0.40722 0.0391 0.0
O3 O 0.23837 0.40492 0.01771 0.0
C4 C 0.31654 0.47775 0.9811 0.0
C5 C 0.19654 0.40854 0.92535 0.0
C6 C 0.25892 0.35076 0.96075 0.0
C7 C 0.15792 0.39567 0.04645 0.0
C8 C 0.27285 0.45885 0.10465 0.0
C9 C 0.22569 0.33482 0.08495 0.0
O10 O 0.28965 0.48189 0.9848 0.0
O11 O 0.18439 0.3783 0.94427 0.0
O12 O 0.28299 0.37344 0.98627 0.0
O13 O 0.18249 0.42686 0.03564 0.0
O14 O 0.28674 0.43987 0.09443 0.0
O15 O 0.20025 0.32815 0.05861 0.0
O16 O 0.25447 0.46585 0.07793 0.0
O17 O 0.15978 0.3676 0.04011 0.0
O18 O 0.25629 0.36254 0.08184 0.0
O19 O 0.21807 0.43813 0.94376 0.0
O20 O 0.31788 0.45182 0.99843 0.0
O21 O 0.22631 0.34231 0.9631 0.0
Sc22 Sc 0.86096 0.27022 0.23407 0.0
Sc23 Sc 0.85793 0.21087 0.1532 0.0
Sc24 Sc 0.78141 0.21614 0.17643 0.0
O25 O 0.83347 0.23232 0.18819 0.0
C26 C 0.78439 0.22087 0.27937 0.0
C27 C 0.89453 0.22051 0.24747 0.0
C28 C 0.7828 0.14293 0.16966 0.0
C29 C 0.91767 0.29263 0.15607 0.0
C30 C 0.81369 0.2996 0.19325 0.0
C31 C 0.80992 0.22035 0.08075 0.0
O32 O 0.81704 0.24577 0.28016 0.0
O33 O 0.88856 0.20916 0.20816 0.0
O34 O 0.767 0.16102 0.16942 0.0
O35 O 0.90761 0.29852 0.19282 0.0
O36 O 0.7885 0.26875 0.18272 0.0
O37 O 0.8322 0.21105 0.09287 0.0
O38 O 0.84313 0.30518 0.20923 0.0
O39 O 0.90087 0.26283 0.13614 0.0
O40 O 0.79096 0.22621 0.1075 0.0
O41 O 0.88283 0.23993 0.26326 0.0
O42 O 0.76806 0.2055 0.24432 0.0
O43 O 0.81659 0.15709 0.16763 0.0
Sc44 Sc 0.53468 0.78335 0.35478 0.0
Sc45 Sc 0.62774 0.8382 0.33723 0.0
Sc46 Sc 0.57683 0.87619 0.37282 0.0
O47 O 0.57983 0.83257 0.35495 0.0
C48 C 0.50584 0.83321 0.31766 0.0
C49 C 0.57305 0.78317 0.26581 0.0
C50 C 0.63294 0.90748 0.29379 0.0
C51 C 0.59279 0.76444 0.38925 0.0
C52 C 0.52704 0.81714 0.44361 0.0
C53 C 0.64934 0.8916 0.41878 0.0
O54 O 0.50189 0.80261 0.32592 0.0
O55 O 0.60443 0.80552 0.27929 0.0
O56 O 0.61012 0.90858 0.31912 0.0
O57 O 0.56069 0.75681 0.38333 0.0
O58 O 0.54412 0.84926 0.4296 0.0
O59 O 0.65626 0.87271 0.39284 0.0
O60 O 0.52167 0.79048 0.42039 0.0
O61 O 0.61945 0.79321 0.37545 0.0
O62 O 0.62176 0.89463 0.41524 0.0
O63 O 0.5452 0.77273 0.2893 0.0
O64 O 0.53207 0.86219 0.33136 0.0
O65 O 0.6416 0.88356 0.29666 0.0
Sc66 Sc 0.70983 0.58751 0.59623 0.0
Sc67 Sc 0.77439 0.64247 0.51835 0.0
Sc68 Sc 0.75509 0.55417 0.53393 0.0
O69 O 0.74658 0.59486 0.54986 0.0
C70 C 0.74982 0.54876 0.63795 0.0
C71 C 0.76638 0.66863 0.61445 0.0
C72 C 0.83415 0.62263 0.53098 0.0
C73 C 0.69625 0.63105 0.52109 0.0
C74 C 0.67072 0.51246 0.54748 0.0
C75 C 0.75863 0.58677 0.44029 0.0
O76 O 0.72908 0.56169 0.6404 0.0
O77 O 0.77903 0.67405 0.57568 0.0
O78 O 0.81179 0.5893 0.52841 0.0
O79 O 0.6874 0.6128 0.55643 0.0
O80 O 0.69953 0.51386 0.53573 0.0
O81 O 0.77218 0.61845 0.45517 0.0
O82 O 0.67024 0.53754 0.56847 0.0
O83 O 0.726 0.64172 0.50172 0.0
O84 O 0.74786 0.55956 0.46506 0.0
O85 O 0.74419 0.63755 0.62872 0.0
O86 O 0.76278 0.54554 0.60185 0.0
O87 O 0.82487 0.64629 0.53295 0.0
Sc88 Sc 0.20013 0.74779 0.6867 0.0
Sc89 Sc 0.13844 0.77864 0.67732 0.0
Sc90 Sc 0.10948 0.69056 0.71162 0.0
O91 O 0.14938 0.73912 0.69191 0.0
C92 C 0.15599 0.66693 0.65567 0.0
C93 C 0.19242 0.78466 0.60009 0.0
C94 C 0.07316 0.70929 0.63397 0.0
C95 C 0.21432 0.82328 0.72226 0.0
C96 C 0.17241 0.70912 0.78005 0.0
C97 C 0.08441 0.74146 0.75646 0.0
O98 O 0.18501 0.69641 0.65866 0.0
O99 O 0.17003 0.79183 0.61783 0.0
O100 O 0.07707 0.68664 0.65636 0.0
O101 O 0.22395 0.80075 0.71317 0.0
O102 O 0.13956 0.69203 0.7689 0.0
O103 O 0.10486 0.76973 0.7348 0.0
O104 O 0.19752 0.72953 0.75377 0.0
O105 O 0.18357 0.81853 0.71322 0.0
O106 O 0.08393 0.71216 0.75067 0.0
O107 O 0.20525 0.76747 0.61971 0.0
O108 O 0.12724 0.66132 0.67341 0.0
O109 O 0.09212 0.74299 0.63929 0.0
Sc110 Sc 0.39899 0.12958 0.8898 0.0
Sc111 Sc 0.33844 0.13061 0.81358 0.0
Sc112 Sc 0.42157 0.20865 0.83049 0.0
O113 O 0.38627 0.1563 0.84489 0.0
C114 C 0.42912 0.20674 0.93462 0.0
C115 C 0.31565 0.09604 0.9093 0.0
C116 C 0.34699 0.20688 0.82932 0.0
C117 C 0.3597 0.07015 0.81607 0.0
C118 C 0.47362 0.17711 0.84178 0.0
C119 C 0.39182 0.17653 0.7357 0.0
O120 O 0.4192 0.17354 0.93565 0.0
O121 O 0.30855 0.10342 0.87156 0.0
O122 O 0.38088 0.22296 0.83015 0.0
O123 O 0.37998 0.0825 0.84939 0.0
O124 O 0.46663 0.20104 0.82978 0.0
O125 O 0.3622 0.15224 0.75113 0.0
O126 O 0.45147 0.14884 0.8621 0.0
O127 O 0.34434 0.08563 0.79876 0.0
O128 O 0.417 0.19929 0.7599 0.0
O129 O 0.34737 0.10592 0.92189 0.0
O130 O 0.43018 0.22309 0.89929 0.0
O131 O 0.32749 0.17317 0.82532 0.0
Sc132 Sc 0.58874 0.7272 0.78697 0.0
Sc133 Sc 0.63677 0.78653 0.87114 0.0
Sc134 Sc 0.54887 0.76477 0.85085 0.0
O135 O 0.59135 0.75947 0.83613 0.0
C136 C 0.54604 0.76376 0.74742 0.0
C137 C 0.6678 0.78456 0.77595 0.0
C138 C 0.61554 0.84477 0.85832 0.0
C139 C 0.63141 0.71268 0.86297 0.0
C140 C 0.51295 0.68114 0.83088 0.0
C141 C 0.57749 0.76648 0.94532 0.0
O142 O 0.55932 0.74337 0.74441 0.0
O143 O 0.67133 0.79095 0.81691 0.0
O144 O 0.58238 0.82162 0.86165 0.0
O145 O 0.61823 0.70777 0.82444 0.0
O146 O 0.51111 0.70847 0.84244 0.0
O147 O 0.60976 0.78375 0.93217 0.0
O148 O 0.54045 0.68338 0.81275 0.0
O149 O 0.63495 0.73776 0.8881 0.0
O150 O 0.55124 0.75332 0.91895 0.0
O151 O 0.63736 0.76849 0.75764 0.0
O152 O 0.54294 0.77644 0.78372 0.0
O153 O 0.63981 0.83638 0.85506 0.0
Sc154 Sc 0.77617 0.54845 0.03068 0.0
Sc155 Sc 0.83989 0.63909 0.04929 0.0
Sc156 Sc 0.86739 0.57815 0.01588 0.0
O157 O 0.82795 0.58869 0.03201 0.0
C158 C 0.81457 0.50769 0.06893 0.0
C159 C 0.77989 0.58907 0.11947 0.0
C160 C 0.90278 0.63277 0.09533 0.0
C161 C 0.76894 0.6132 0.99347 0.0
C162 C 0.80767 0.53542 0.94283 0.0
C163 C 0.8946 0.65463 0.97063 0.0
O164 O 0.7875 0.51086 0.06137 0.0
O165 O 0.80577 0.61924 0.10701 0.0
O166 O 0.90016 0.60739 0.07146 0.0
O167 O 0.7577 0.58025 0.99947 0.0
O168 O 0.83958 0.54936 0.95712 0.0
O169 O 0.87662 0.66423 0.99441 0.0
O170 O 0.78205 0.53283 0.96598 0.0
O171 O 0.79808 0.63783 0.0095 0.0
O172 O 0.89354 0.62488 0.9754 0.0
O173 O 0.76629 0.56142 0.09519 0.0
O174 O 0.84566 0.53006 0.05507 0.0
O175 O 0.88299 0.64644 0.0905 0.0
Sc176 Sc 0.26904 0.87054 0.12139 0.0
Sc177 Sc 0.21064 0.86995 0.20138 0.0
Sc178 Sc 0.21996 0.79386 0.18789 0.0
O179 O 0.23305 0.8446 0.17009 0.0
C180 C 0.2257 0.79109 0.08295 0.0
C181 C 0.21677 0.89989 0.10316 0.0
C182 C 0.14474 0.79166 0.18849 0.0
C183 C 0.29122 0.93116 0.19437 0.0
C184 C 0.30412 0.83145 0.17255 0.0
C185 C 0.21963 0.82658 0.28155 0.0
O186 O 0.24619 0.8247 0.07908 0.0
O187 O 0.20695 0.89694 0.14303 0.0
O188 O 0.16388 0.77689 0.18873 0.0
O189 O 0.29654 0.91991 0.1582 0.0
O190 O 0.27505 0.80659 0.1888 0.0
O191 O 0.21276 0.8493 0.26462 0.0
O192 O 0.30565 0.85612 0.14835 0.0
O193 O 0.26211 0.91512 0.21575 0.0
O194 O 0.22459 0.80494 0.25834 0.0
O195 O 0.23642 0.88805 0.08899 0.0
O196 O 0.21339 0.77595 0.1199 0.0
O197 O 0.15756 0.82544 0.19044 0.0
Sc198 Sc 0.45632 0.25087 0.33351 0.0
Sc199 Sc 0.36393 0.21014 0.34105 0.0
Sc200 Sc 0.41387 0.29838 0.30443 0.0
O201 O 0.41125 0.25328 0.32617 0.0
C202 C 0.48295 0.33071 0.3629 0.0
C203 C 0.41567 0.21178 0.41769 0.0
C204 C 0.35748 0.27277 0.38355 0.0
C205 C 0.40073 0.17267 0.29871 0.0
C206 C 0.46444 0.28546 0.23968 0.0
C207 C 0.34093 0.24325 0.2616 0.0
O208 O 0.48965 0.30608 0.3534 0.0
O209 O 0.38668 0.19575 0.3957 0.0
O210 O 0.37677 0.29521 0.35406 0.0
O211 O 0.43016 0.19466 0.31685 0.0
O212 O 0.45061 0.30404 0.2523 0.0
O213 O 0.33371 0.21922 0.29045 0.0
O214 O 0.46753 0.26345 0.26471 0.0
O215 O 0.37418 0.17765 0.29684 0.0
O216 O 0.37135 0.27134 0.25849 0.0
O217 O 0.44447 0.23744 0.402 0.0
O218 O 0.4551 0.33043 0.34973 0.0
O219 O 0.35217 0.24102 0.38573 0.0
Sc220 Sc 0.12141 0.39709 0.45147 0.0
Sc221 Sc 0.12912 0.33921 0.52583 0.0
Sc222 Sc 0.20128 0.42721 0.51234 0.0
O223 O 0.15075 0.38782 0.49622 0.0
C224 C 0.19939 0.43581 0.40815 0.0
C225 C 0.09638 0.31603 0.42949 0.0
C226 C 0.20835 0.35692 0.50968 0.0
C227 C 0.06443 0.35409 0.52667 0.0
C228 C 0.16086 0.47147 0.50247 0.0
C229 C 0.17042 0.39225 0.60587 0.0
O230 O 0.16556 0.42147 0.40605 0.0
O231 O 0.10379 0.30892 0.46717 0.0
O232 O 0.22153 0.39071 0.50996 0.0
O233 O 0.07391 0.37398 0.4927 0.0
O234 O 0.18667 0.46809 0.51656 0.0
O235 O 0.14885 0.3621 0.58907 0.0
O236 O 0.13578 0.4479 0.47921 0.0
O237 O 0.08208 0.34047 0.5423 0.0
O238 O 0.19136 0.4194 0.58278 0.0
O239 O 0.10285 0.34703 0.41839 0.0
O240 O 0.21635 0.43959 0.44378 0.0
O241 O 0.17514 0.33457 0.51304 0.0
Sc242 Sc 0.75479 0.20569 0.67057 0.0
Sc243 Sc 0.77669 0.13995 0.69785 0.0
Sc244 Sc 0.6904 0.11454 0.66173 0.0
O245 O 0.74077 0.15354 0.67641 0.0
C246 C 0.67523 0.17263 0.70506 0.0
C247 C 0.78713 0.2016 0.76312 0.0
C248 C 0.7045 0.08071 0.74406 0.0
C249 C 0.82781 0.21157 0.6447 0.0
C250 C 0.71049 0.16984 0.5833 0.0
C251 C 0.73865 0.08243 0.62501 0.0
O252 O 0.70712 0.19805 0.70105 0.0
O253 O 0.7865 0.17232 0.75524 0.0
O254 O 0.68374 0.08857 0.72376 0.0
O255 O 0.80492 0.2213 0.63968 0.0
O256 O 0.69372 0.13802 0.59835 0.0
O257 O 0.76825 0.10603 0.64158 0.0
O258 O 0.73189 0.19685 0.60617 0.0
O259 O 0.82176 0.18391 0.66618 0.0
O260 O 0.70918 0.0815 0.63235 0.0
O261 O 0.77856 0.21783 0.73498 0.0
O262 O 0.66479 0.1414 0.69056 0.0
O263 O 0.73744 0.09451 0.7346 0.0
H264 H 0.2232 0.43696 0.66529 0.0
H265 H 0.1114 0.35426 0.65562 0.0
H266 H 0.10516 0.35507 0.73547 0.0
H267 H 0.24133 0.40254 0.7609 0.0
H268 H 0.27092 0.44528 0.78574 0.0
H269 H 0.26633 0.44166 0.72698 0.0
H270 H 0.24896 0.49098 0.72622 0.0
H271 H 0.25344 0.49466 0.7851 0.0
H272 H 0.21213 0.48562 0.75955 0.0
H273 H 0.11123 0.35942 0.81528 0.0
H274 H 0.13004 0.36715 0.89272 0.0
H275 H 0.23763 0.44766 0.85463 0.0
C276 C 0.19735 0.41955 0.68006 0.0
C277 C 0.16783 0.39547 0.65406 0.0
C278 C 0.13452 0.37271 0.6747 0.0
C279 C 0.13056 0.37311 0.72013 0.0
C280 C 0.16012 0.39647 0.74492 0.0
C281 C 0.19292 0.41935 0.72593 0.0
C282 C 0.22078 0.43977 0.76115 0.0
C283 C 0.25166 0.43182 0.75853 0.0
C284 C 0.23464 0.48016 0.7578 0.0
C285 C 0.19861 0.42397 0.80256 0.0
C286 C 0.1636 0.39931 0.79211 0.0
C287 C 0.13839 0.37908 0.82404 0.0
C288 C 0.14931 0.3836 0.8679 0.0
C289 C 0.18506 0.4083 0.87962 0.0
C290 C 0.2099 0.42928 0.84659 0.0
H291 H 0.83 0.19288 0.01329 0.0
H292 H 0.78216 0.25823 0.04145 0.0
H293 H 0.77742 0.26632 0.96188 0.0
H294 H 0.88045 0.24142 0.916 0.0
H295 H 0.87169 0.20105 0.88805 0.0
H296 H 0.87429 0.20318 0.94709 0.0
H297 H 0.81109 0.14686 0.95248 0.0
H298 H 0.80846 0.1444 0.89359 0.0
H299 H 0.77415 0.14658 0.9247 0.0
H300 H 0.77563 0.26499 0.8795 0.0
H301 H 0.77132 0.24952 0.80096 0.0
H302 H 0.81922 0.18396 0.82786 0.0
C303 C 0.81891 0.20927 0.0028 0.0
C304 C 0.8066 0.22508 0.03345 0.0
C305 C 0.79167 0.2458 0.01842 0.0
C306 C 0.78916 0.25079 0.97337 0.0
C307 C 0.80163 0.23483 0.94403 0.0
C308 C 0.81593 0.21424 0.95817 0.0
C309 C 0.82478 0.19761 0.92017 0.0
C310 C 0.86521 0.21167 0.91769 0.0
C311 C 0.80333 0.15644 0.92291 0.0
C312 C 0.81249 0.21141 0.8824 0.0
C313 C 0.79985 0.23337 0.89671 0.0
C314 C 0.78571 0.24807 0.86784 0.0
C315 C 0.78351 0.23922 0.82328 0.0
C316 C 0.79492 0.2155 0.80834 0.0
C317 C 0.81035 0.20221 0.83826 0.0
H318 H 0.62499 0.8002 0.01262 0.0
H319 H 0.51379 0.72186 0.98637 0.0
H320 H 0.50187 0.71406 0.06599 0.0
H321 H 0.635 0.75735 0.11043 0.0
H322 H 0.66285 0.79927 0.13804 0.0
H323 H 0.66327 0.79716 0.07899 0.0
H324 H 0.64733 0.84745 0.07382 0.0
H325 H 0.64707 0.84984 0.13276 0.0
H326 H 0.60824 0.84207 0.10195 0.0
H327 H 0.5014 0.71657 0.14812 0.0
H328 H 0.51157 0.73139 0.22677 0.0
H329 H 0.62307 0.80842 0.19948 0.0
C330 C 0.59818 0.78113 0.02353 0.0
C331 C 0.57035 0.76157 0.99314 0.0
C332 C 0.53556 0.73722 0.00893 0.0
C333 C 0.52855 0.73245 0.05412 0.0
C334 C 0.55658 0.75221 0.08311 0.0
C335 C 0.59067 0.77617 0.06847 0.0
C336 C 0.61561 0.79546 0.10642 0.0
C337 C 0.64597 0.78677 0.10859 0.0
C338 C 0.63042 0.8361 0.10356 0.0
C339 C 0.59008 0.77897 0.14468 0.0
C340 C 0.55626 0.75383 0.13053 0.0
C341 C 0.52783 0.73603 0.15964 0.0
C342 C 0.53392 0.74466 0.20431 0.0
C343 C 0.56817 0.77103 0.21952 0.0
C344 C 0.59669 0.78784 0.18917 0.0
H345 H 0.79638 0.63551 0.3752 0.0
H346 H 0.71199 0.52561 0.39657 0.0
H347 H 0.70481 0.51635 0.31647 0.0
H348 H 0.75886 0.65288 0.27733 0.0
H349 H 0.80171 0.67874 0.25085 0.0
H350 H 0.7987 0.67774 0.30988 0.0
H351 H 0.84468 0.65608 0.31458 0.0
H352 H 0.848 0.65726 0.25565 0.0
H353 H 0.83636 0.61653 0.28493 0.0
H354 H 0.70765 0.5184 0.23463 0.0
H355 H 0.72371 0.52957 0.15649 0.0
H356 H 0.80781 0.63774 0.18757 0.0
C357 C 0.77615 0.6096 0.36301 0.0
C358 C 0.75461 0.58132 0.39217 0.0
C359 C 0.72886 0.54763 0.37491 0.0
C360 C 0.72442 0.54219 0.32946 0.0
C361 C 0.74607 0.5706 0.30166 0.0
C362 C 0.77167 0.60354 0.31769 0.0
C363 C 0.79301 0.62884 0.28065 0.0
C364 C 0.78774 0.66148 0.27963 0.0
C365 C 0.83287 0.64034 0.28417 0.0
C366 C 0.77566 0.60481 0.24131 0.0
C367 C 0.74832 0.57152 0.25423 0.0
C368 C 0.72893 0.54439 0.22409 0.0
C369 C 0.7383 0.55109 0.17965 0.0
C370 C 0.76708 0.58459 0.16559 0.0
C371 C 0.78547 0.61198 0.19698 0.0
H372 H 0.19616 0.74808 0.52752 0.0
H373 H 0.21374 0.85135 0.57063 0.0
H374 H 0.22805 0.87401 0.4947 0.0
H375 H 0.26492 0.78163 0.43867 0.0
H376 H 0.23712 0.74562 0.40187 0.0
H377 H 0.23269 0.73837 0.46038 0.0
H378 H 0.16517 0.71697 0.45498 0.0
H379 H 0.16938 0.72425 0.39656 0.0
H380 H 0.15116 0.74574 0.42985 0.0
H381 H 0.23603 0.88462 0.41532 0.0
H382 H 0.23538 0.88267 0.33496 0.0
H383 H 0.21068 0.77196 0.33897 0.0
C384 C 0.20397 0.77571 0.52091 0.0
C385 C 0.20443 0.79825 0.55498 0.0
C386 C 0.21354 0.83384 0.54505 0.0
C387 C 0.22179 0.84695 0.50205 0.0
C388 C 0.22048 0.82404 0.46904 0.0
C389 C 0.21172 0.78914 0.47766 0.0
C390 C 0.20931 0.76953 0.43509 0.0
C391 C 0.23771 0.75812 0.43395 0.0
C392 C 0.1715 0.73721 0.42876 0.0
C393 C 0.21743 0.79873 0.40136 0.0
C394 C 0.22419 0.82997 0.42209 0.0
C395 C 0.23099 0.8604 0.39868 0.0
C396 C 0.23037 0.85889 0.35286 0.0
C397 C 0.22284 0.82712 0.33032 0.0
C398 C 0.21686 0.79674 0.35509 0.0
H399 H 0.44906 0.25284 0.49055 0.0
H400 H 0.37907 0.14353 0.4476 0.0
H401 H 0.37088 0.12284 0.52436 0.0
H402 H 0.48959 0.23138 0.5861 0.0
H403 H 0.4896 0.26554 0.62004 0.0
H404 H 0.49446 0.27155 0.56136 0.0
H405 H 0.44025 0.28151 0.55921 0.0
H406 H 0.43502 0.27528 0.61772 0.0
H407 H 0.39806 0.24787 0.58192 0.0
H408 H 0.36482 0.11436 0.60397 0.0
H409 H 0.36091 0.1179 0.68391 0.0
H410 H 0.434 0.23279 0.6788 0.0
C411 C 0.43292 0.22446 0.49741 0.0
C412 C 0.41499 0.19964 0.46321 0.0
C413 C 0.39313 0.16287 0.47334 0.0
C414 C 0.38842 0.15087 0.5168 0.0
C415 C 0.40561 0.176 0.54988 0.0
C416 C 0.42751 0.21201 0.54096 0.0
C417 C 0.44004 0.23352 0.58327 0.0
C418 C 0.48085 0.25156 0.58796 0.0
C419 C 0.42759 0.26117 0.58565 0.0
C420 C 0.42098 0.204 0.61717 0.0
C421 C 0.40165 0.17108 0.59686 0.0
C422 C 0.38014 0.13989 0.62034 0.0
C423 C 0.37793 0.14228 0.6658 0.0
C424 C 0.39707 0.17565 0.68771 0.0
C425 C 0.41939 0.20689 0.66305 0.0
H426 H 0.32417 0.35584 0.9483 0.0
H427 H 0.21474 0.30159 0.90035 0.0
H428 H 0.22802 0.26362 0.85327 0.0
H429 H 0.36627 0.3504 0.8426 0.0
H430 H 0.39822 0.34288 0.87166 0.0
H431 H 0.38192 0.37001 0.896 0.0
H432 H 0.36194 0.32922 0.96496 0.0
H433 H 0.37785 0.30189 0.94079 0.0
H434 H 0.33201 0.28173 0.9587 0.0
H435 H 0.24942 0.2248 0.82204 0.0
H436 H 0.27947 0.19042 0.80483 0.0
H437 H 0.37532 0.27118 0.87048 0.0
C438 C 0.30326 0.33666 0.92704 0.0
C439 C 0.26843 0.33162 0.92827 0.0
C440 C 0.24168 0.30593 0.9002 0.0
C441 C 0.24895 0.28429 0.87309 0.0
C442 C 0.28319 0.28905 0.87388 0.0
C443 C 0.3101 0.31494 0.89959 0.0
C444 C 0.34366 0.3124 0.89737 0.0
C445 C 0.37433 0.34592 0.87559 0.0
C446 C 0.35446 0.3059 0.94316 0.0
C447 C 0.33073 0.27991 0.86825 0.0
C448 C 0.29592 0.26705 0.85464 0.0
C449 C 0.27701 0.23509 0.83143 0.0
C450 C 0.29414 0.21563 0.82211 0.0
C451 C 0.32975 0.22841 0.83593 0.0
C452 C 0.34835 0.26123 0.85858 0.0
H453 H 0.95068 0.28606 0.08375 0.0
H454 H 0.96419 0.36005 0.1883 0.0
H455 H 0.02678 0.39981 0.16487 0.0
H456 H 0.02853 0.28858 0.10041 0.0
H457 H 0.03811 0.28505 0.04366 0.0
H458 H -0.00737 0.26702 0.06127 0.0
H459 H 0.98312 0.30565 0.00359 0.0
H460 H 0.02854 0.32343 0.98506 0.0
H461 H 0.01321 0.35339 0.00219 0.0
H462 H 0.09031 0.42704 0.13607 0.0
H463 H 0.14829 0.43804 0.10555 0.0
H464 H 0.09191 0.34313 0.02486 0.0
C465 C 0.96628 0.31115 0.10099 0.0
C466 C 0.95249 0.31992 0.13783 0.0
C467 C 0.97415 0.35281 0.15981 0.0
C468 C 0.0097 0.37561 0.14668 0.0
C469 C 0.02295 0.36513 0.1115 0.0
C470 C 0.00168 0.33373 0.08881 0.0
C471 C 0.02296 0.32571 0.05621 0.0
C472 C 0.0204 0.28947 0.06602 0.0
C473 C 0.01126 0.32715 0.00896 0.0
C474 C 0.05986 0.35662 0.06541 0.0
C475 C 0.05942 0.3797 0.09647 0.0
C476 C 0.09089 0.40937 0.11135 0.0
C477 C 0.12358 0.41534 0.09409 0.0
C478 C 0.12421 0.3911 0.06345 0.0
C479 C 0.09199 0.36178 0.04868 0.0
H480 H 0.7183 0.10697 0.21036 0.0
H481 H 0.79817 0.09132 0.14397 0.0
H482 H 0.7624 0.02632 0.15926 0.0
H483 H 0.70581 0.05068 0.2966 0.0
H484 H 0.65856 0.0339 0.30286 0.0
H485 H 0.68679 0.07761 0.2798 0.0
H486 H 0.64673 0.05954 0.21045 0.0
H487 H 0.61828 0.01562 0.23335 0.0
H488 H 0.63819 0.02026 0.18001 0.0
H489 H 0.72143 0.96492 0.18771 0.0
H490 H 0.68155 0.91245 0.23256 0.0
H491 H 0.62981 0.96905 0.28339 0.0
C492 C 0.72776 0.08972 0.1979 0.0
C493 C 0.76068 0.10393 0.17547 0.0
C494 C 0.77286 0.08079 0.16101 0.0
C495 C 0.75262 0.0439 0.16924 0.0
C496 C 0.72048 0.03082 0.19209 0.0
C497 C 0.70822 0.05308 0.20642 0.0
C498 C 0.67537 0.03328 0.23508 0.0
C499 C 0.68206 0.04985 0.2813 0.0
C500 C 0.64271 0.0321 0.21341 0.0
C501 C 0.67175 -0.00339 0.23591 0.0
C502 C 0.69748 -0.00444 0.21004 0.0
C503 C 0.70093 0.96528 0.20771 0.0
C504 C 0.67816 0.93563 0.23349 0.0
C505 C 0.65263 0.93668 0.26178 0.0
C506 C 0.64882 0.96727 0.26192 0.0
H507 H 0.71375 0.68465 0.46234 0.0
H508 H 0.62516 0.60545 0.54052 0.0
H509 H 0.58734 0.62955 0.51356 0.0
H510 H 0.69835 0.75559 0.48391 0.0
H511 H 0.71179 0.7751 0.43 0.0
H512 H 0.73049 0.74966 0.45287 0.0
H513 H 0.70938 0.70791 0.38488 0.0
H514 H 0.69085 0.7334 0.36158 0.0
H515 H 0.66293 0.68574 0.36913 0.0
H516 H 0.56022 0.66452 0.47902 0.0
H517 H 0.54682 0.70724 0.44107 0.0
H518 H 0.65491 0.76318 0.38881 0.0
C519 C 0.68622 0.67182 0.47334 0.0
C520 C 0.67229 0.64298 0.50322 0.0
C521 C 0.63632 0.62755 0.51746 0.0
C522 C 0.61467 0.64102 0.50233 0.0
C523 C 0.62959 0.66993 0.47331 0.0
C524 C 0.66458 0.68507 0.4591 0.0
C525 C 0.67519 0.71703 0.42985 0.0
C526 C 0.70575 0.75136 0.45041 0.0
C527 C 0.68516 0.71061 0.38362 0.0
C528 C 0.64066 0.71759 0.42958 0.0
C529 C 0.61451 0.69024 0.45458 0.0
C530 C 0.58048 0.68594 0.45922 0.0
C531 C 0.57312 0.71026 0.43756 0.0
C532 C 0.59985 0.73853 0.41206 0.0
C533 C 0.63393 0.74201 0.40822 0.0
H534 H 0.03273 0.73935 0.61452 0.0
H535 H 0.04457 0.64736 0.58688 0.0
H536 H 0.9879 0.61963 0.5454 0.0
H537 H 0.94538 0.69183 0.64026 0.0
H538 H 0.93221 0.72196 0.6173 0.0
H539 H 0.97753 0.7389 0.63489 0.0
H540 H 0.00078 0.76561 0.55759 0.0
H541 H 0.95539 0.7491 0.53975 0.0
H542 H 0.9839 0.73714 0.51001 0.0
H543 H 0.92668 0.59771 0.51893 0.0
H544 H 0.86408 0.58215 0.50955 0.0
H545 H 0.89047 0.68755 0.55656 0.0
C546 C 0.02409 0.71406 0.59811 0.0
C547 C 0.04302 0.69558 0.60324 0.0
C548 C 0.03038 0.66193 0.58294 0.0
C549 C -0.00159 0.64613 0.55915 0.0
C550 C 0.97954 0.66438 0.55618 0.0
C551 C -0.00806 0.6977 0.57493 0.0
C552 C 0.96411 0.70913 0.57282 0.0
C553 C 0.95423 0.71581 0.61905 0.0
C554 C 0.97681 0.74221 0.54327 0.0
C555 C 0.93351 0.67625 0.55197 0.0
C556 C 0.94331 0.65117 0.54172 0.0
C557 C 0.91884 0.61737 0.52595 0.0
C558 C 0.88326 0.60871 0.52111 0.0
C559 C 0.8724 0.63367 0.53241 0.0
C560 C 0.89808 0.66813 0.54709 0.0
H561 H 0.31054 0.03256 0.753 0.0
H562 H 0.38325 0.02492 0.84487 0.0
H563 H 0.35591 0.96043 0.8278 0.0
H564 H 0.23631 0.95505 0.78486 0.0
H565 H 0.21656 0.94246 0.73106 0.0
H566 H 0.24589 0.9889 0.74393 0.0
H567 H 0.28686 -0.00435 0.6781 0.0
H568 H 0.25715 0.94938 0.6642 0.0
H569 H 0.30401 0.96544 0.67299 0.0
H570 H 0.31623 0.89539 0.80549 0.0
H571 H 0.26897 0.83623 0.77837 0.0
H572 H 0.22073 0.88797 0.70646 0.0
C573 C 0.32159 0.01777 0.76877 0.0
C574 C 0.34913 0.03387 0.80023 0.0
C575 C 0.36229 0.0132 0.82044 0.0
C576 C 0.34688 0.97656 0.81103 0.0
C577 C 0.31847 0.96124 0.78145 0.0
C578 C 0.30623 0.98137 0.7604 0.0
C579 C 0.27333 0.95841 0.73325 0.0
C580 C 0.24115 0.96139 0.74926 0.0
C581 C 0.2808 0.96777 0.68423 0.0
C582 C 0.26837 0.92199 0.74301 0.0
C583 C 0.29489 0.92405 0.7703 0.0
C584 C 0.2955 0.89353 0.7839 0.0
C585 C 0.26857 0.86015 0.76854 0.0
C586 C 0.24121 0.85778 0.74075 0.0
C587 C 0.24107 0.88906 0.72821 0.0
H588 H 0.68425 0.73132 0.92299 0.0
H589 H 0.61489 0.64595 0.83407 0.0
H590 H 0.64441 0.6118 0.85575 0.0
H591 H 0.76322 0.72598 0.90141 0.0
H592 H 0.77887 0.7362 0.95723 0.0
H593 H 0.75202 0.75346 0.93467 0.0
H594 H 0.70661 0.72433 0.99859 0.0
H595 H 0.7334 0.70713 0.02132 0.0
H596 H 0.68692 0.67701 0.00893 0.0
H597 H 0.68021 0.58657 0.88928 0.0
H598 H 0.71999 0.57205 0.93148 0.0
H599 H 0.76735 0.67567 0.99558 0.0
C600 C 0.6749 0.70523 0.90842 0.0
C601 C 0.64698 0.69095 0.87735 0.0
C602 C 0.63609 0.65715 0.85824 0.0
C603 C 0.65275 0.6377 0.87021 0.0
C604 C 0.68041 0.65276 0.9008 0.0
C605 C 0.69148 0.68581 0.91946 0.0
C606 C 0.72199 0.69632 0.95116 0.0
C607 C 0.75604 0.72998 0.93514 0.0
C608 C 0.71159 0.70148 0.99775 0.0
C609 C 0.72586 0.66356 0.94833 0.0
C610 C 0.70173 0.63878 0.91901 0.0
C611 C 0.69935 0.60583 0.91212 0.0
C612 C 0.72196 0.59783 0.93632 0.0
C613 C 0.74671 0.62282 0.96672 0.0
C614 C 0.74896 0.65626 0.97224 0.0
H615 H 0.96502 0.63059 0.0962 0.0
H616 H 0.90945 0.67743 0.16255 0.0
H617 H 0.96501 0.7194 0.20082 0.0
H618 H 0.02918 0.64432 0.18996 0.0
H619 H 0.06478 0.65444 0.15161 0.0
H620 H 0.01911 0.62311 0.13686 0.0
H621 H 0.02638 0.6607 0.06725 0.0
H622 H 0.07164 0.69255 0.08217 0.0
H623 H 0.03997 0.70739 0.0729 0.0
H624 H 0.0279 0.76415 0.21858 0.0
H625 H 0.09347 0.80378 0.22305 0.0
H626 H 0.10818 0.72689 0.14788 0.0
C627 C 0.96415 0.64858 0.12024 0.0
C628 C 0.93297 0.65082 0.12625 0.0
C629 C 0.9331 0.67533 0.15727 0.0
C630 C 0.96452 0.69927 0.17927 0.0
C631 C -0.0046 0.69794 0.17048 0.0
C632 C -0.00467 0.67266 0.14257 0.0
C633 C 0.03283 0.67927 0.13547 0.0
C634 C 0.0367 0.64845 0.15463 0.0
C635 C 0.04329 0.68535 0.08656 0.0
C636 C 0.05402 0.71325 0.16177 0.0
C637 C 0.03193 0.72345 0.18196 0.0
C638 C 0.0455 0.75596 0.20407 0.0
C639 C 0.08268 0.77844 0.20602 0.0
C640 C 0.1057 0.76813 0.18619 0.0
C641 C 0.09112 0.73501 0.16414 0.0
H642 H 0.31075 0.9953 0.15875 0.0
H643 H 0.33071 0.94441 0.26862 0.0
H644 H 0.3706 0.0039 0.30176 0.0
H645 H 0.40145 0.08386 0.15882 0.0
H646 H 0.37779 0.10676 0.14391 0.0
H647 H 0.36187 0.06155 0.12576 0.0
H648 H 0.29928 0.04495 0.16345 0.0
H649 H 0.31877 0.09071 0.18073 0.0
H650 H 0.29939 0.055 0.22063 0.0
H651 H 0.40229 0.06781 0.32642 0.0
H652 H 0.41786 0.12976 0.34482 0.0
H653 H 0.37152 0.13762 0.22218 0.0
C654 C 0.32485 -0.00289 0.1888 0.0
C655 C 0.31885 0.96594 0.21076 0.0
C656 C 0.33591 0.96843 0.25115 0.0
C657 C 0.35862 0.00199 0.26997 0.0
C658 C 0.36341 0.03249 0.24803 0.0
C659 C 0.34686 0.03032 0.20837 0.0
C660 C 0.35146 0.06617 0.19508 0.0
C661 C 0.37447 0.08043 0.15342 0.0
C662 C 0.31509 0.06411 0.18966 0.0
C663 C 0.3714 0.08835 0.23443 0.0
C664 C 0.37934 0.06888 0.2638 0.0
C665 C 0.39658 0.0834 0.30343 0.0
C666 C 0.40529 0.11849 0.31357 0.0
C667 C 0.39571 0.13802 0.28478 0.0
C668 C 0.37906 0.12302 0.24454 0.0
H669 H 0.26798 0.38469 0.45871 0.0
H670 H 0.20194 0.29646 0.54615 0.0
H671 H 0.23945 0.26947 0.531 0.0
H672 H 0.27427 0.3322 0.37829 0.0
H673 H 0.31952 0.36378 0.36216 0.0
H674 H 0.29196 0.37953 0.38608 0.0
H675 H 0.33971 0.41285 0.44633 0.0
H676 H 0.36749 0.39714 0.42253 0.0
H677 H 0.35479 0.38841 0.47952 0.0
H678 H 0.27916 0.24892 0.50052 0.0
H679 H 0.31638 0.23418 0.45369 0.0
H680 H 0.35512 0.3349 0.38391 0.0
C681 C 0.2622 0.36028 0.47564 0.0
C682 C 0.23256 0.34275 0.50395 0.0
C683 C 0.22478 0.31022 0.52446 0.0
C684 C 0.24602 0.29489 0.51632 0.0
C685 C 0.27466 0.3124 0.48742 0.0
C686 C 0.28272 0.34431 0.46724 0.0
C687 C 0.31191 0.35523 0.43331 0.0
C688 C 0.2986 0.35781 0.38726 0.0
C689 C 0.34547 0.3905 0.44622 0.0
C690 C 0.31825 0.32395 0.43674 0.0
C691 C 0.29701 0.29991 0.46869 0.0
C692 C 0.29634 0.26774 0.4758 0.0
C693 C 0.31748 0.25957 0.4489 0.0
C694 C 0.33865 0.28337 0.41507 0.0
C695 C 0.33954 0.31629 0.40972 0.0
H696 H 0.85555 0.24187 0.56446 0.0
H697 H 0.88276 0.23973 0.70094 0.0
H698 H 0.94504 0.28664 0.68612 0.0
H699 H 0.93347 0.24648 0.52344 0.0
H700 H 0.9377 0.27454 0.47737 0.0
H701 H 0.8945 0.24558 0.50068 0.0
H702 H 0.8866 0.30083 0.51085 0.0
H703 H 0.93063 0.32984 0.48867 0.0
H704 H 0.91908 0.33857 0.54227 0.0
H705 H 0.00356 0.32946 0.65737 0.0
H706 H 0.0589 0.35775 0.61382 0.0
H707 H -0.00315 0.32997 0.49374 0.0
C708 C 0.87476 0.25173 0.59105 0.0
C709 C 0.86486 0.23754 0.63374 0.0
C710 C 0.89032 0.2503 0.66794 0.0
C711 C 0.92547 0.27727 0.65999 0.0
C712 C 0.93466 0.29085 0.61758 0.0
C713 C 0.91038 0.27811 0.5834 0.0
C714 C 0.92873 0.29337 0.53986 0.0
C715 C 0.92329 0.26316 0.50855 0.0
C716 C 0.91546 0.31707 0.51921 0.0
C717 C 0.96733 0.31557 0.55482 0.0
C718 C 0.96966 0.31466 0.60006 0.0
C719 C 0.00221 0.33078 0.622 0.0
C720 C 0.03344 0.34677 0.59704 0.0
C721 C 0.03188 0.34611 0.55068 0.0
C722 C -0.00146 0.33154 0.52919 0.0
H723 H 0.68141 0.90229 0.83943 0.0
H724 H 0.5722 0.87323 0.87134 0.0
H725 H 0.58706 0.93544 0.85856 0.0
H726 H 0.72544 -0.00306 0.8839 0.0
H727 H 0.75728 0.01322 0.83944 0.0
H728 H 0.74033 0.96843 0.86022 0.0
H729 H 0.71974 0.94301 0.78182 0.0
H730 H 0.73652 0.98751 0.76095 0.0
H731 H 0.69039 0.95393 0.75212 0.0
H732 H 0.60983 -0.00351 0.82896 0.0
H733 H 0.63933 0.05207 0.7851 0.0
H734 H 0.73407 0.04212 0.77435 0.0
C735 C 0.6609 0.90922 0.84509 0.0
C736 C 0.62568 0.88287 0.85631 0.0
C737 C 0.59942 0.89292 0.86264 0.0
C738 C 0.60765 0.92829 0.85582 0.0
C739 C 0.64232 0.95337 0.84326 0.0
C740 C 0.66867 0.94439 0.83841 0.0
C741 C 0.70247 0.9751 0.81932 0.0
C742 C 0.73319 0.98926 0.85273 0.0
C743 C 0.71284 0.96423 0.776 0.0
C744 C 0.69025 0.00189 0.81171 0.0
C745 C 0.65574 0.98918 0.82656 0.0
C746 C 0.6372 0.00724 0.81824 0.0
C747 C 0.65408 0.03866 0.79311 0.0
C748 C 0.68903 0.05147 0.77656 0.0
C749 C 0.70763 0.03343 0.78734 0.0
H750 H 0.33501 0.54637 0.95823 0.0
H751 H 0.36664 0.4662 0.94205 0.0
H752 H 0.41695 0.50789 0.89513 0.0
H753 H 0.35913 0.58498 0.84816 0.0
H754 H 0.37593 0.63011 0.86735 0.0
H755 H 0.34053 0.59303 0.89684 0.0
H756 H 0.37825 0.61368 0.9682 0.0
H757 H 0.41355 0.65093 0.93904 0.0
H758 H 0.42278 0.62008 0.96806 0.0
H759 H 0.4648 0.55851 0.85248 0.0
H760 H 0.51047 0.61675 0.82251 0.0
H761 H 0.44855 0.66451 0.86792 0.0
C762 C 0.35233 0.53749 0.94447 0.0
C763 C 0.3469 0.50307 0.95368 0.0
C764 C 0.37043 0.49257 0.93561 0.0
C765 C 0.39889 0.5159 0.90861 0.0
C766 C 0.40349 0.54964 0.90017 0.0
C767 C 0.38111 0.56058 0.91785 0.0
C768 C 0.39354 0.59916 0.90627 0.0
C769 C 0.36562 0.60197 0.87797 0.0
C770 C 0.40257 0.62232 0.94786 0.0
C771 C 0.42676 0.60834 0.88001 0.0
C772 C 0.43167 0.57923 0.87627 0.0
C773 C 0.46119 0.58149 0.85492 0.0
C774 C 0.48695 0.61472 0.83793 0.0
C775 C 0.48317 0.64529 0.84287 0.0
C776 C 0.45221 0.64169 0.86337 0.0
H777 H 0.86437 0.48836 0.09134 0.0
H778 H 0.752 0.45591 0.1052 0.0
H779 H 0.7414 0.40221 0.14549 0.0
H780 H 0.85135 0.40302 0.07129 0.0
H781 H 0.8897 0.4092 0.10191 0.0
H782 H 0.88961 0.44723 0.07789 0.0
H783 H 0.90261 0.47782 0.15413 0.0
H784 H 0.90268 0.43977 0.17842 0.0
H785 H 0.87333 0.45454 0.1996 0.0
H786 H 0.74094 0.34934 0.17651 0.0
H787 H 0.75137 0.30028 0.1982 0.0
H788 H 0.86411 0.36706 0.16746 0.0
C789 C 0.83765 0.47023 0.10337 0.0
C790 C 0.80906 0.47641 0.09494 0.0
C791 C 0.77441 0.45184 0.11105 0.0
C792 C 0.76807 0.42128 0.13422 0.0
C793 C 0.79667 0.41577 0.14145 0.0
C794 C 0.83082 0.43956 0.12681 0.0
C795 C 0.85628 0.42603 0.13685 0.0
C796 C 0.87268 0.42107 0.09446 0.0
C797 C 0.88545 0.45103 0.16918 0.0
C798 C 0.83076 0.39042 0.15806 0.0
C799 C 0.79657 0.38523 0.16063 0.0
C800 C 0.76769 0.35326 0.17551 0.0
C801 C 0.77382 0.32556 0.18755 0.0
C802 C 0.80855 0.3302 0.18486 0.0
C803 C 0.83748 0.36324 0.17075 0.0
H804 H 0.43335 0.78749 0.31231 0.0
H805 H 0.52101 0.8851 0.25761 0.0
H806 H 0.47893 0.89116 0.20882 0.0
H807 H 0.3794 0.75461 0.2113 0.0
H808 H 0.33766 0.73871 0.24005 0.0
H809 H 0.37498 0.73937 0.26729 0.0
H810 H 0.37098 0.77777 0.32992 0.0
H811 H 0.33364 0.77713 0.30297 0.0
H812 H 0.37263 0.81928 0.31667 0.0
H813 H 0.42838 0.88881 0.16926 0.0
H814 H 0.37099 0.88125 0.14466 0.0
H815 H 0.31468 0.7865 0.22699 0.0
C816 C 0.44358 0.80975 0.28952 0.0
C817 C 0.48027 0.83576 0.28839 0.0
C818 C 0.49287 0.86501 0.25895 0.0
C819 C 0.46928 0.86852 0.2309 0.0
C820 C 0.43321 0.84269 0.23303 0.0
C821 C 0.42024 0.81404 0.26176 0.0
C822 C 0.37978 0.79207 0.26012 0.0
C823 C 0.36723 0.75392 0.2437 0.0
C824 C 0.3633 0.79156 0.30509 0.0
C825 C 0.37217 0.81335 0.22666 0.0
C826 C 0.40348 0.842 0.21095 0.0
C827 C 0.40361 0.86637 0.18103 0.0
C828 C 0.37078 0.86181 0.16734 0.0
C829 C 0.33821 0.83331 0.18397 0.0
C830 C 0.33904 0.80844 0.21347 0.0
H831 H 0.66068 0.45508 0.49798 0.0
H832 H 0.60361 0.50314 0.55796 0.0
H833 H 0.54882 0.46002 0.51907 0.0
H834 H 0.62329 0.44296 0.39503 0.0
H835 H 0.62006 0.40043 0.38401 0.0
H836 H 0.65388 0.43168 0.42079 0.0
H837 H 0.63086 0.38381 0.48249 0.0
H838 H 0.59739 0.35208 0.44561 0.0
H839 H 0.58429 0.36145 0.49784 0.0
H840 H 0.50305 0.41776 0.46686 0.0
H841 H 0.46623 0.37345 0.41096 0.0
H842 H 0.55236 0.35162 0.38572 0.0
C843 C 0.63647 0.456 0.50394 0.0
C844 C 0.63654 0.4826 0.53105 0.0
C845 C 0.60429 0.483 0.53751 0.0
C846 C 0.57301 0.45867 0.51546 0.0
C847 C 0.57436 0.4339 0.48752 0.0
C848 C 0.605 0.43187 0.48232 0.0
C849 C 0.59974 0.40387 0.44863 0.0
C850 C 0.62579 0.42076 0.40983 0.0
C851 C 0.60327 0.3735 0.46993 0.0
C852 C 0.56159 0.39115 0.4349 0.0
C853 C 0.54754 0.40889 0.45774 0.0
C854 C 0.51351 0.40326 0.44923 0.0
C855 C 0.49297 0.37827 0.41707 0.0
C856 C 0.50643 0.35904 0.39395 0.0
C857 C 0.54127 0.36572 0.40302 0.0
H858 H 0.20607 0.52711 0.55667 0.0
H859 H 0.10949 0.48708 0.47813 0.0
H860 H 0.10097 0.53568 0.50531 0.0
H861 H 0.17428 0.54955 0.64887 0.0
H862 H 0.21528 0.59011 0.66178 0.0
H863 H 0.21669 0.55458 0.63276 0.0
H864 H 0.25266 0.59837 0.56976 0.0
H865 H 0.25169 0.63421 0.59881 0.0
H866 H 0.23521 0.62377 0.54332 0.0
H867 H 0.09787 0.58232 0.54712 0.0
H868 H 0.10344 0.62933 0.59762 0.0
H869 H 0.20348 0.64252 0.64701 0.0
C870 C 0.18355 0.52899 0.5445 0.0
C871 C 0.15842 0.50313 0.51536 0.0
C872 C 0.12912 0.50642 0.50051 0.0
C873 C 0.12403 0.53401 0.51566 0.0
C874 C 0.14867 0.55839 0.5452 0.0
C875 C 0.17815 0.55662 0.55907 0.0
C876 C 0.1995 0.58544 0.59268 0.0
C877 C 0.20153 0.56892 0.63661 0.0
C878 C 0.23699 0.61203 0.57508 0.0
C879 C 0.17663 0.60277 0.59649 0.0
C880 C 0.14749 0.58663 0.56867 0.0
C881 C 0.12088 0.59571 0.56847 0.0
C882 C 0.12412 0.62215 0.59746 0.0
C883 C 0.15392 0.63938 0.62585 0.0
C884 C 0.18075 0.62995 0.62506 0.0
H885 H 0.49025 0.12611 0.81799 0.0
H886 H 0.5358 0.24045 0.8369 0.0
H887 H 0.59359 0.25108 0.80804 0.0
H888 H 0.57257 0.12246 0.8427 0.0
H889 H 0.56336 0.08983 0.80038 0.0
H890 H 0.52698 0.09067 0.82814 0.0
H891 H 0.50214 0.09651 0.75312 0.0
H892 H 0.53862 0.09617 0.72517 0.0
H893 H 0.53052 0.13281 0.71678 0.0
H894 H 0.64413 0.25011 0.77201 0.0
H895 H 0.68574 0.23769 0.73122 0.0
H896 H 0.6072 0.12393 0.73289 0.0
C897 C 0.51274 0.15322 0.81717 0.0
C898 C 0.50887 0.18248 0.82992 0.0
C899 C 0.53843 0.21774 0.8273 0.0
C900 C 0.57131 0.22402 0.8111 0.0
C901 C 0.57404 0.19476 0.79752 0.0
C902 C 0.5457 0.16003 0.80046 0.0
C903 C 0.55505 0.13378 0.78018 0.0
C904 C 0.55446 0.10764 0.81493 0.0
C905 C 0.5301 0.11365 0.74152 0.0
C906 C 0.59275 0.15933 0.76461 0.0
C907 C 0.60323 0.19428 0.77545 0.0
C908 C 0.63645 0.22283 0.76365 0.0
C909 C 0.65983 0.21546 0.74033 0.0
C910 C 0.64974 0.17982 0.72876 0.0
C911 C 0.61569 0.15145 0.74112 0.0
H912 H 0.25255 0.34836 0.16686 0.0
H913 H 0.19562 0.26228 0.07409 0.0
H914 H 0.21102 0.22352 0.11788 0.0
H915 H 0.32358 0.34073 0.17442 0.0
H916 H 0.3331 0.3509 0.2319 0.0
H917 H 0.30846 0.36745 0.2025 0.0
H918 H 0.25649 0.33717 0.2582 0.0
H919 H 0.28108 0.32073 0.28846 0.0
H920 H 0.23646 0.28997 0.26948 0.0
H921 H 0.24456 0.19942 0.16296 0.0
H922 H 0.28986 0.19253 0.20583 0.0
H923 H 0.32607 0.29612 0.2653 0.0
C924 C 0.24161 0.32066 0.15723 0.0
C925 C 0.2225 0.30806 0.1176 0.0
C926 C 0.20953 0.27209 0.105 0.0
C927 C 0.21844 0.25001 0.12955 0.0
C928 C 0.23977 0.26421 0.16689 0.0
C929 C 0.25041 0.29859 0.1812 0.0
C930 C 0.27748 0.30995 0.21789 0.0
C931 C 0.31271 0.34424 0.2059 0.0
C932 C 0.26192 0.31471 0.26106 0.0
C933 C 0.28231 0.27772 0.22006 0.0
C934 C 0.25978 0.25105 0.19147 0.0
C935 C 0.26177 0.21988 0.18605 0.0
C936 C 0.28757 0.21618 0.21024 0.0
C937 C 0.31144 0.24398 0.23832 0.0
C938 C 0.30815 0.27459 0.24373 0.0
H939 H 0.0268 0.28369 0.44417 0.0
H940 H 0.10502 0.28623 0.35373 0.0
H941 H 0.05622 0.24711 0.30236 0.0
H942 H 0.94679 0.1935 0.41677 0.0
H943 H 0.91832 0.21274 0.42096 0.0
H944 H 0.95802 0.22978 0.45433 0.0
H945 H 0.98034 0.29492 0.42159 0.0
H946 H 0.93945 0.27573 0.39072 0.0
H947 H 0.98193 0.29986 0.363 0.0
H948 H 0.0001 0.21715 0.25628 0.0
H949 H 0.94578 0.20636 0.21688 0.0
H950 H 0.90567 0.22873 0.336 0.0
C951 C 0.03331 0.27427 0.41454 0.0
C952 C 0.06916 0.28639 0.4034 0.0
C953 C 0.07741 0.27588 0.36327 0.0
C954 C 0.04985 0.25376 0.33406 0.0
C955 C 0.01452 0.24321 0.34535 0.0
C956 C 0.0064 0.2535 0.38465 0.0
C957 C 0.96833 0.24609 0.38542 0.0
C958 C 0.94655 0.2189 0.42151 0.0
C959 C 0.96743 0.28117 0.39051 0.0
C960 C 0.95608 0.23033 0.34028 0.0
C961 C 0.98275 0.22809 0.31789 0.0
C962 C 0.97886 0.21814 0.27384 0.0
C963 C 0.94776 0.21193 0.25173 0.0
C964 C 0.92134 0.21657 0.27343 0.0
C965 C 0.92507 0.22442 0.31869 0.0
H966 H 0.68299 0.01483 0.61839 0.0
H967 H 0.7904 0.08454 0.56967 0.0
H968 H 0.78342 0.03653 0.51877 0.0
H969 H 0.68372 0.92875 0.60822 0.0
H970 H 0.63732 0.90507 0.59223 0.0
H971 H 0.65356 0.94254 0.6293 0.0
H972 H 0.6296 0.9734 0.57735 0.0
H973 H 0.61314 0.936 0.54066 0.0
H974 H 0.6434 0.98053 0.52062 0.0
H975 H 0.75999 0.98389 0.46491 0.0
H976 H 0.72247 0.93444 0.41361 0.0
H977 H 0.63195 0.89971 0.50088 0.0
C978 C 0.70535 0.01984 0.59758 0.0
C979 C 0.73714 0.05342 0.59765 0.0
C980 C 0.76585 0.05889 0.57016 0.0
C981 C 0.76211 0.03173 0.54132 0.0
C982 C 0.72988 -0.00092 0.54132 0.0
C983 C 0.7022 0.99306 0.56931 0.0
C984 C 0.66904 0.9574 0.56068 0.0
C985 C 0.66042 0.93194 0.59994 0.0
C986 C 0.63695 0.96215 0.54911 0.0
C987 C 0.68147 0.94501 0.52165 0.0
C988 C 0.71684 0.96885 0.51132 0.0
C989 C 0.7326 0.96463 0.47341 0.0
C990 C 0.71124 0.93634 0.44458 0.0
C991 C 0.67455 0.91317 0.45375 0.0
C992 C 0.66015 0.91674 0.49363 0.0
H993 H 0.75176 0.6709 0.70186 0.0
H994 H 0.78818 0.73616 0.58403 0.0
H995 H 0.77655 0.78062 0.61883 0.0
H996 H 0.68129 0.67923 0.7215 0.0
H997 H 0.68409 0.6824 0.78047 0.0
H998 H 0.70352 0.6601 0.75176 0.0
H999 H 0.76502 0.70203 0.78724 0.0
H1000 H 0.74544 0.72398 0.81706 0.0
H1001 H 0.78432 0.74989 0.78315 0.0
H1002 H 0.74435 0.80769 0.65681 0.0
H1003 H 0.70359 0.82024 0.70096 0.0
H1004 H 0.69422 0.74233 0.79737 0.0
C1005 C 0.75899 0.6954 0.6842 0.0
C1006 C 0.7709 0.69988 0.64017 0.0
C1007 C 0.7794 0.73209 0.61791 0.0
C1008 C 0.77272 0.75757 0.63739 0.0
C1009 C 0.75863 0.75114 0.67972 0.0
C1010 C 0.75308 0.72144 0.70354 0.0
C1011 C 0.73429 0.71879 0.74658 0.0
C1012 C 0.69871 0.68303 0.75021 0.0
C1013 C 0.75875 0.72401 0.78582 0.0
C1014 C 0.72808 0.75018 0.74184 0.0
C1015 C 0.74235 0.76865 0.70313 0.0
C1016 C 0.73453 0.79463 0.68821 0.0
C1017 C 0.71138 0.80162 0.7133 0.0
C1018 C 0.69712 0.78326 0.75319 0.0
C1019 C 0.70628 0.75792 0.76796 0.0
H1020 H 0.01884 0.68477 0.76984 0.0
H1021 H 0.08749 0.79473 0.81083 0.0
H1022 H 0.0413 0.78764 0.86522 0.0
H1023 H 0.9327 0.68204 0.78355 0.0
H1024 H 0.91104 0.63626 0.80234 0.0
H1025 H 0.94744 0.65229 0.76365 0.0
H1026 H 0.98139 0.63216 0.81602 0.0
H1027 H 0.94512 0.61602 0.85456 0.0
H1028 H 0.98983 0.64827 0.87177 0.0
H1029 H 0.989 0.76439 0.92165 0.0
H1030 H 0.93906 0.72805 0.97327 0.0
H1031 H 0.9067 0.63467 0.89177 0.0
C1032 C 0.02415 0.70763 0.78987 0.0
C1033 C 0.05687 0.7402 0.78652 0.0
C1034 C 0.06254 0.76954 0.81292 0.0
C1035 C 0.03641 0.7657 0.84376 0.0
C1036 C 0.00465 0.73265 0.84687 0.0
C1037 C -0.00147 0.70433 0.82006 0.0
C1038 C 0.96389 0.67073 0.8311 0.0
C1039 C 0.93719 0.6597 0.79289 0.0
C1040 C 0.97048 0.64002 0.84416 0.0
C1041 C 0.9519 0.68383 0.86974 0.0
C1042 C 0.97517 0.71971 0.87821 0.0
C1043 C 0.97038 0.73649 0.9147 0.0
C1044 C 0.94186 0.71576 0.94373 0.0
C1045 C 0.91902 0.67867 0.93625 0.0
C1046 C 0.92361 0.66306 0.89807 0.0
H1047 H 0.31156 0.08861 0.99887 0.0
H1048 H 0.25348 0.04006 0.87903 0.0
H1049 H 0.2119 0.98564 0.92012 0.0
H1050 H 0.31228 0.0193 0.0378 0.0
H1051 H 0.30461 0.02241 0.09504 0.0
H1052 H 0.32434 0.0621 0.06175 0.0
H1053 H 0.27625 0.07665 0.08252 0.0
H1054 H 0.25329 0.03755 0.11712 0.0
H1055 H 0.2297 0.04456 0.07333 0.0
H1056 H 0.18886 0.93172 0.96924 0.0
H1057 H 0.18134 0.88631 0.02467 0.0
H1058 H 0.24842 0.97082 0.11489 0.0
C1059 C 0.28902 0.06719 0.98177 0.0
C1060 C 0.28563 0.06871 0.93591 0.0
C1061 C 0.25628 0.03981 0.91434 0.0
C1062 C 0.23251 0.00864 0.93742 0.0
C1063 C 0.23764 0.00721 0.98236 0.0
C1064 C 0.26443 0.03627 0.00456 0.0
C1065 C 0.26664 0.02676 0.05177 0.0
C1066 C 0.3042 0.03306 0.06217 0.0
C1067 C 0.2559 0.04766 0.08304 0.0
C1068 C 0.23891 0.98726 0.05194 0.0
C1069 C 0.22218 0.97639 0.01164 0.0
C1070 C 0.20039 0.94011 0.00159 0.0
C1071 C 0.19619 0.91446 0.03316 0.0
C1072 C 0.21305 0.92529 0.07449 0.0
C1073 C 0.23375 0.96207 0.0843 0.0
H1074 H 0.22812 0.40574 0.35503 0.0
H1075 H 0.21337 0.4973 0.36812 0.0
H1076 H 0.23958 0.5185 0.29433 0.0
H1077 H 0.31225 0.44984 0.28838 0.0
H1078 H 0.298 0.41082 0.25445 0.0
H1079 H 0.28354 0.40577 0.31079 0.0
H1080 H 0.21782 0.36929 0.2858 0.0
H1081 H 0.23139 0.37442 0.22921 0.0
H1082 H 0.20073 0.38858 0.24701 0.0
H1083 H 0.25869 0.52483 0.21593 0.0
H1084 H 0.26957 0.51591 0.13853 0.0
H1085 H 0.27341 0.421 0.1761 0.0
C1086 C 0.23167 0.43088 0.34276 0.0
C1087 C 0.21963 0.45049 0.36724 0.0
C1088 C 0.22316 0.48245 0.34986 0.0
C1089 C 0.23802 0.49465 0.3081 0.0
C1090 C 0.24914 0.47447 0.28418 0.0
C1091 C 0.24631 0.44331 0.30091 0.0
C1092 C 0.25646 0.42455 0.26661 0.0
C1093 C 0.28955 0.42266 0.28092 0.0
C1094 C 0.22471 0.387 0.25659 0.0
C1095 C 0.26483 0.44968 0.22789 0.0
C1096 C 0.26059 0.47838 0.23876 0.0
C1097 C 0.26299 0.50299 0.20725 0.0
C1098 C 0.26917 0.49775 0.16337 0.0
C1099 C 0.27316 0.46829 0.15143 0.0
C1100 C 0.27179 0.44452 0.18443 0.0
H1101 H 0.75855 0.22696 0.53532 0.0
H1102 H 0.66113 0.12385 0.52365 0.0
H1103 H 0.66637 0.12872 0.44284 0.0
H1104 H 0.74751 0.26949 0.43474 0.0
H1105 H 0.7947 0.29125 0.42293 0.0
H1106 H 0.77932 0.28269 0.47899 0.0
H1107 H 0.8138 0.24869 0.49137 0.0
H1108 H 0.82877 0.25653 0.43532 0.0
H1109 H 0.80469 0.21143 0.45637 0.0
H1110 H 0.68643 0.14134 0.36439 0.0
H1111 H 0.71908 0.16103 0.29416 0.0
H1112 H 0.80456 0.25455 0.35883 0.0
C1113 C 0.73751 0.20595 0.5159 0.0
C1114 C 0.7092 0.17519 0.53573 0.0
C1115 C 0.6829 0.14779 0.50906 0.0
C1116 C 0.68564 0.15034 0.4632 0.0
C1117 C 0.71481 0.18039 0.4448 0.0
C1118 C 0.74016 0.20781 0.47037 0.0
C1119 C 0.7711 0.23522 0.44318 0.0
C1120 C 0.77326 0.27183 0.44507 0.0
C1121 C 0.80665 0.2381 0.45741 0.0
C1122 C 0.75967 0.21846 0.39837 0.0
C1123 C 0.72693 0.18715 0.39981 0.0
C1124 C 0.71181 0.1661 0.36271 0.0
C1125 C 0.73062 0.17748 0.32303 0.0
C1126 C 0.76437 0.20939 0.32102 0.0
C1127 C 0.77884 0.23009 0.35924 0.0
H1128 H 0.53041 0.72942 0.6683 0.0
H1129 H 0.53774 0.82201 0.73388 0.0
H1130 H 0.52521 0.84223 0.66361 0.0
H1131 H 0.57439 0.77245 0.57308 0.0
H1132 H 0.54676 0.73594 0.53679 0.0
H1133 H 0.55205 0.72697 0.59304 0.0
H1134 H 0.48316 0.69311 0.60326 0.0
H1135 H 0.47774 0.70223 0.5469 0.0
H1136 H 0.45849 0.71541 0.59038 0.0
H1137 H 0.52086 0.85667 0.58424 0.0
H1138 H 0.52302 0.86279 0.5034 0.0
H1139 H 0.51477 0.75876 0.49141 0.0
C1140 C 0.52877 0.75363 0.66809 0.0
C1141 C 0.53506 0.77414 0.70655 0.0
C1142 C 0.53275 0.80571 0.70486 0.0
C1143 C 0.52563 0.8174 0.66511 0.0
C1144 C 0.52019 0.79684 0.62759 0.0
C1145 C 0.52122 0.76537 0.62894 0.0
C1146 C 0.51668 0.74923 0.58375 0.0
C1147 C 0.54941 0.74599 0.57093 0.0
C1148 C 0.48194 0.71284 0.58092 0.0
C1149 C 0.51432 0.77724 0.55648 0.0
C1150 C 0.51618 0.80443 0.58225 0.0
C1151 C 0.51844 0.83509 0.56379 0.0
C1152 C 0.51964 0.83835 0.51784 0.0
C1153 C 0.51843 0.81101 0.49097 0.0
C1154 C 0.51466 0.7797 0.51082 0.0
H1155 H 0.7502 0.52648 0.89577 0.0
H1156 H 0.85085 0.52794 0.88216 0.0
H1157 H 0.84336 0.52439 0.80146 0.0
H1158 H 0.70295 0.46831 0.80049 0.0
H1159 H 0.68232 0.49444 0.78695 0.0
H1160 H 0.69254 0.49043 0.84328 0.0
H1161 H 0.7291 0.55953 0.84944 0.0
H1162 H 0.71953 0.56392 0.79315 0.0
H1163 H 0.76526 0.58477 0.81155 0.0
H1164 H 0.82765 0.52709 0.72189 0.0
H1165 H 0.80655 0.53793 0.65127 0.0
H1166 H 0.71802 0.53781 0.71862 0.0
C1167 C 0.77013 0.52474 0.8761 0.0
C1168 C 0.80086 0.52687 0.89547 0.0
C1169 C 0.82686 0.52585 0.86816 0.0
C1170 C 0.82281 0.52383 0.82229 0.0
C1171 C 0.7927 0.52297 0.80431 0.0
C1172 C 0.7668 0.52333 0.8305 0.0
C1173 C 0.73913 0.52644 0.80348 0.0
C1174 C 0.70204 0.4929 0.80887 0.0
C1175 C 0.73825 0.5607 0.8151 0.0
C1176 C 0.75389 0.52861 0.75791 0.0
C1177 C 0.78443 0.52594 0.75887 0.0
C1178 C 0.80353 0.52879 0.72075 0.0
C1179 C 0.79131 0.53493 0.68077 0.0
C1180 C 0.7606 0.53871 0.67934 0.0
C1181 C 0.74153 0.53499 0.71849 0.0
H1182 H 0.22769 0.76317 0.82522 0.0
H1183 H 0.13409 0.65801 0.84238 0.0
H1184 H 0.14101 0.66495 0.92293 0.0
H1185 H 0.27849 0.76172 0.92365 0.0
H1186 H 0.29447 0.80833 0.93482 0.0
H1187 H 0.28585 0.79221 0.87911 0.0
H1188 H 0.24341 0.81771 0.86932 0.0
H1189 H 0.25137 0.83343 0.92505 0.0
H1190 H 0.2063 0.80389 0.90652 0.0
H1191 H 0.1542 0.68654 0.0019 0.0
H1192 H 0.17255 0.72072 0.07145 0.0
H1193 H 0.2559 0.81239 0.00142 0.0
C1194 C 0.2095 0.74096 0.84584 0.0
C1195 C 0.18073 0.70974 0.82741 0.0
C1196 C 0.15662 0.68196 0.85572 0.0
C1197 C 0.16032 0.68569 0.90154 0.0
C1198 C 0.18818 0.71744 0.91865 0.0
C1199 C 0.21249 0.7445 0.89157 0.0
C1200 C 0.23768 0.77744 0.91775 0.0
C1201 C 0.27642 0.78538 0.91359 0.0
C1202 C 0.23447 0.81002 0.90383 0.0
C1203 C 0.22327 0.76504 0.96366 0.0
C1204 C 0.19505 0.73021 0.96372 0.0
C1205 C 0.17658 0.71368 0.00226 0.0
C1206 C 0.18717 0.73332 0.04165 0.0
C1207 C 0.21569 0.76928 0.04212 0.0
C1208 C 0.23402 0.78497 0.00245 0.0
H1209 H 0.43572 0.18261 0.01563 0.0
H1210 H 0.44733 0.27687 0.94897 0.0
H1211 H 0.4648 0.30995 0.01911 0.0
H1212 H 0.39691 0.19247 0.11248 0.0
H1213 H 0.41915 0.17653 0.14823 0.0
H1214 H 0.41002 0.16156 0.09218 0.0
H1215 H 0.47731 0.18344 0.08048 0.0
H1216 H 0.48661 0.19896 0.13641 0.0
H1217 H 0.51011 0.22943 0.09195 0.0
H1218 H 0.47624 0.33115 0.09791 0.0
H1219 H 0.47869 0.33782 0.17863 0.0
H1220 H 0.46173 0.23039 0.19268 0.0
C1221 C 0.44222 0.21031 0.01551 0.0
C1222 C 0.4402 0.22709 0.97653 0.0
C1223 C 0.44878 0.26337 0.97821 0.0
C1224 C 0.45886 0.28245 0.01792 0.0
C1225 C 0.46056 0.26504 0.05564 0.0
C1226 C 0.45247 0.22976 0.0547 0.0
C1227 C 0.45449 0.21656 0.1001 0.0
C1228 C 0.41798 0.18493 0.11406 0.0
C1229 C 0.48389 0.20651 0.10235 0.0
C1230 C 0.46437 0.24972 0.12695 0.0
C1231 C 0.46794 0.27749 0.10074 0.0
C1232 C 0.47411 0.3098 0.11866 0.0
C1233 C 0.47557 0.3134 0.16454 0.0
C1234 C 0.47106 0.28491 0.19202 0.0
C1235 C 0.46641 0.2531 0.17268 0.0
loop_
_geom_bond_atom_site_label_1
_geom_bond_atom_site_label_2
_geom_bond_distance
_geom_bond_site_symmetry_2
_ccdc_geom_bond_type
Sc0 O3 2.025 . S
Sc0 O10 2.105 1_554 S
Sc0 O13 2.105 . S
Sc0 O16 2.105 . S
Sc0 O19 2.105 1_554 S
Sc1 O3 2.025 1_556 S
Sc1 O11 2.105 . S
Sc1 O15 2.105 1_556 S
Sc1 O17 2.105 1_556 S
Sc1 O21 2.105 . S
Sc2 O3 2.025 . S
Sc2 O12 2.105 1_554 S
Sc2 O14 2.105 . S
Sc2 O18 2.105 . S
Sc2 O20 2.105 . S
O3 Sc0 2.025 . S
O3 Sc1 2.025 1_554 S
O3 Sc2 2.025 . S
C4 O10 1.268 . S
C4 O20 1.268 1_556 S
C5 O11 1.268 . S
C5 O19 1.268 . S
C6 O12 1.268 . S
C6 O21 1.268 . S
C7 O13 1.268 . S
C7 O17 1.268 . S
C8 O14 1.268 . S
C8 O16 1.268 . S
C9 O15 1.268 . S
C9 O18 1.268 . S
O10 Sc0 2.105 1_556 S
O10 C4 1.268 . S
O11 Sc1 2.105 . S
O11 C5 1.268 . S
O12 Sc2 2.105 1_556 S
O12 C6 1.268 . S
O13 Sc0 2.105 . S
O13 C7 1.268 . S
O14 Sc2 2.105 . S
O14 C8 1.268 . S
O15 Sc1 2.105 1_554 S
O15 C9 1.268 . S
O16 Sc0 2.105 . S
O16 C8 1.268 . S
O17 Sc1 2.105 1_554 S
O17 C7 1.268 . S
O18 Sc2 2.105 . S
O18 C9 1.268 . S
O19 Sc0 2.105 1_556 S
O19 C5 1.268 . S
O20 Sc2 2.105 . S
O20 C4 1.268 1_554 S
O21 Sc1 2.105 . S
O21 C6 1.268 . S
Sc22 O25 2.025 . S
Sc22 O32 2.105 . S
Sc22 O35 2.105 . S
Sc22 O38 2.105 . S
Sc22 O41 2.105 . S
Sc23 O25 2.025 . S
Sc23 O33 2.105 . S
Sc23 O37 2.105 . S
Sc23 O39 2.105 . S
Sc23 O43 2.105 . S
Sc24 O25 2.025 . S
Sc24 O34 2.105 . S
Sc24 O36 2.105 . S
Sc24 O40 2.105 . S
Sc24 O42 2.105 . S
O25 Sc22 2.025 . S
O25 Sc23 2.025 . S
O25 Sc24 2.025 . S
C26 O32 1.268 . S
C26 O42 1.268 . S
C27 O33 1.268 . S
C27 O41 1.268 . S
C28 O34 1.268 . S
C28 O43 1.268 . S
C29 O35 1.268 . S
C29 O39 1.268 . S
C30 O36 1.268 . S
C30 O38 1.268 . S
C31 O37 1.268 . S
C31 O40 1.268 . S
O32 Sc22 2.105 . S
O32 C26 1.268 . S
O33 Sc23 2.105 . S
O33 C27 1.268 . S
O34 Sc24 2.105 . S
O34 C28 1.268 . S
O35 Sc22 2.105 . S
O35 C29 1.268 . S
O36 Sc24 2.105 . S
O36 C30 1.268 . S
O37 Sc23 2.105 . S
O37 C31 1.268 . S
O38 Sc22 2.105 . S
O38 C30 1.268 . S
O39 Sc23 2.105 . S
O39 C29 1.268 . S
O40 Sc24 2.105 . S
O40 C31 1.268 . S
O41 Sc22 2.105 . S
O41 C27 1.268 . S
O42 Sc24 2.105 . S
O42 C26 1.268 . S
O43 Sc23 2.105 . S
O43 C28 1.268 . S
Sc44 O47 2.025 . S
Sc44 O54 2.105 . S
Sc44 O57 2.105 . S
Sc44 O60 2.105 . S
Sc44 O63 2.105 . S
Sc45 O47 2.025 . S
Sc45 O55 2.105 . S
Sc45 O59 2.105 . S
Sc45 O61 2.105 . S
Sc45 O65 2.105 . S
Sc46 O47 2.025 . S
Sc46 O56 2.105 . S
Sc46 O58 2.105 . S
Sc46 O62 2.105 . S
Sc46 O64 2.105 . S
O47 Sc44 2.025 . S
O47 Sc45 2.025 . S
O47 Sc46 2.025 . S
C48 O54 1.268 . S
C48 O64 1.268 . S
C49 O55 1.268 . S
C49 O63 1.268 . S
C50 O56 1.268 . S
C50 O65 1.268 . S
C51 O57 1.268 . S
C51 O61 1.268 . S
C52 O58 1.268 . S
C52 O60 1.268 . S
C53 O59 1.268 . S
C53 O62 1.268 . S
O54 Sc44 2.105 . S
O54 C48 1.268 . S
O55 Sc45 2.105 . S
O55 C49 1.268 . S
O56 Sc46 2.105 . S
O56 C50 1.268 . S
O57 Sc44 2.105 . S
O57 C51 1.268 . S
O58 Sc46 2.105 . S
O58 C52 1.268 . S
O59 Sc45 2.105 . S
O59 C53 1.268 . S
O60 Sc44 2.105 . S
O60 C52 1.268 . S
O61 Sc45 2.105 . S
O61 C51 1.268 . S
O62 Sc46 2.105 . S
O62 C53 1.268 . S
O63 Sc44 2.105 . S
O63 C49 1.268 . S
O64 Sc46 2.105 . S
O64 C48 1.268 . S
O65 Sc45 2.105 . S
O65 C50 1.268 . S
Sc66 O69 2.025 . S
Sc66 O76 2.105 . S
Sc66 O79 2.105 . S
Sc66 O82 2.105 . S
Sc66 O85 2.105 . S
Sc67 O69 2.025 . S
Sc67 O77 2.105 . S
Sc67 O81 2.105 . S
Sc67 O83 2.105 . S
Sc67 O87 2.105 . S
Sc68 O69 2.025 . S
Sc68 O78 2.105 . S
Sc68 O80 2.105 . S
Sc68 O84 2.105 . S
Sc68 O86 2.105 . S
O69 Sc66 2.025 . S
O69 Sc67 2.025 . S
O69 Sc68 2.025 . S
C70 O76 1.268 . S
C70 O86 1.268 . S
C71 O77 1.268 . S
C71 O85 1.268 . S
C72 O78 1.268 . S
C72 O87 1.268 . S
C73 O79 1.268 . S
C73 O83 1.268 . S
C74 O80 1.268 . S
C74 O82 1.268 . S
C75 O81 1.268 . S
C75 O84 1.268 . S
O76 Sc66 2.105 . S
O76 C70 1.268 . S
O77 Sc67 2.105 . S
O77 C71 1.268 . S
O78 Sc68 2.105 . S
O78 C72 1.268 . S
O79 Sc66 2.105 . S
O79 C73 1.268 . S
O80 Sc68 2.105 . S
O80 C74 1.268 . S
O81 Sc67 2.105 . S
O81 C75 1.268 . S
O82 Sc66 2.105 . S
O82 C74 1.268 . S
O83 Sc67 2.105 . S
O83 C73 1.268 . S
O84 Sc68 2.105 . S
O84 C75 1.268 . S
O85 Sc66 2.105 . S
O85 C71 1.268 . S
O86 Sc68 2.105 . S
O86 C70 1.268 . S
O87 Sc67 2.105 . S
O87 C72 1.268 . S
Sc88 O91 2.025 . S
Sc88 O98 2.105 . S
Sc88 O101 2.105 . S
Sc88 O104 2.105 . S
Sc88 O107 2.105 . S
Sc89 O91 2.025 . S
Sc89 O99 2.105 . S
Sc89 O103 2.105 . S
Sc89 O105 2.105 . S
Sc89 O109 2.105 . S
Sc90 O91 2.025 . S
Sc90 O100 2.105 . S
Sc90 O102 2.105 . S
Sc90 O106 2.105 . S
Sc90 O108 2.105 . S
O91 Sc88 2.025 . S
O91 Sc89 2.025 . S
O91 Sc90 2.025 . S
C92 O98 1.268 . S
C92 O108 1.268 . S
C93 O99 1.268 . S
C93 O107 1.268 . S
C94 O100 1.268 . S
C94 O109 1.268 . S
C95 O101 1.268 . S
C95 O105 1.268 . S
C96 O102 1.268 . S
C96 O104 1.268 . S
C97 O103 1.268 . S
C97 O106 1.268 . S
O98 Sc88 2.105 . S
O98 C92 1.268 . S
O99 Sc89 2.105 . S
O99 C93 1.268 . S
O100 Sc90 2.105 . S
O100 C94 1.268 . S
O101 Sc88 2.105 . S
O101 C95 1.268 . S
O102 Sc90 2.105 . S
O102 C96 1.268 . S
O103 Sc89 2.105 . S
O103 C97 1.268 . S
O104 Sc88 2.105 . S
O104 C96 1.268 . S
O105 Sc89 2.105 . S
O105 C95 1.268 . S
O106 Sc90 2.105 . S
O106 C97 1.268 . S
O107 Sc88 2.105 . S
O107 C93 1.268 . S
O108 Sc90 2.105 . S
O108 C92 1.268 . S
O109 Sc89 2.105 . S
O109 C94 1.268 . S
Sc110 O113 2.025 . S
Sc110 O120 2.105 . S
Sc110 O123 2.105 . S
Sc110 O126 2.105 . S
Sc110 O129 2.105 . S
Sc111 O113 2.025 . S
Sc111 O121 2.105 . S
Sc111 O125 2.105 . S
Sc111 O127 2.105 . S
Sc111 O131 2.105 . S
Sc112 O113 2.025 . S
Sc112 O122 2.105 . S
Sc112 O124 2.105 . S
Sc112 O128 2.105 . S
Sc112 O130 2.105 . S
O113 Sc110 2.025 . S
O113 Sc111 2.025 . S
O113 Sc112 2.025 . S
C114 O120 1.268 . S
C114 O130 1.268 . S
C115 O121 1.268 . S
C115 O129 1.268 . S
C116 O122 1.268 . S
C116 O131 1.268 . S
C117 O123 1.268 . S
C117 O127 1.268 . S
C118 O124 1.268 . S
C118 O126 1.268 . S
C119 O125 1.268 . S
C119 O128 1.268 . S
O120 Sc110 2.105 . S
O120 C114 1.268 . S
O121 Sc111 2.105 . S
O121 C115 1.268 . S
O122 Sc112 2.105 . S
O122 C116 1.268 . S
O123 Sc110 2.105 . S
O123 C117 1.268 . S
O124 Sc112 2.105 . S
O124 C118 1.268 . S
O125 Sc111 2.105 . S
O125 C119 1.268 . S
O126 Sc110 2.105 . S
O126 C118 1.268 . S
O127 Sc111 2.105 . S
O127 C117 1.268 . S
O128 Sc112 2.105 . S
O128 C119 1.268 . S
O129 Sc110 2.105 . S
O129 C115 1.268 . S
O130 Sc112 2.105 . S
O130 C114 1.268 . S
O131 Sc111 2.105 . S
O131 C116 1.268 . S
Sc132 O135 2.025 . S
Sc132 O142 2.105 . S
Sc132 O145 2.105 . S
Sc132 O148 2.105 . S
Sc132 O151 2.105 . S
Sc133 O135 2.025 . S
Sc133 O143 2.105 . S
Sc133 O147 2.105 . S
Sc133 O149 2.105 . S
Sc133 O153 2.105 . S
Sc134 O135 2.025 . S
Sc134 O144 2.105 . S
Sc134 O146 2.105 . S
Sc134 O150 2.105 . S
Sc134 O152 2.105 . S
O135 Sc132 2.025 . S
O135 Sc133 2.025 . S
O135 Sc134 2.025 . S
C136 O142 1.268 . S
C136 O152 1.268 . S
C137 O143 1.268 . S
C137 O151 1.268 . S
C138 O144 1.268 . S
C138 O153 1.268 . S
C139 O145 1.268 . S
C139 O149 1.268 . S
C140 O146 1.268 . S
C140 O148 1.268 . S
C141 O147 1.268 . S
C141 O150 1.268 . S
O142 Sc132 2.105 . S
O142 C136 1.268 . S
O143 Sc133 2.105 . S
O143 C137 1.268 . S
O144 Sc134 2.105 . S
O144 C138 1.268 . S
O145 Sc132 2.105 . S
O145 C139 1.268 . S
O146 Sc134 2.105 . S
O146 C140 1.268 . S
O147 Sc133 2.105 . S
O147 C141 1.268 . S
O148 Sc132 2.105 . S
O148 C140 1.268 . S
O149 Sc133 2.105 . S
O149 C139 1.268 . S
O150 Sc134 2.105 . S
O150 C141 1.268 . S
O151 Sc132 2.105 . S
O151 C137 1.268 . S
O152 Sc134 2.105 . S
O152 C136 1.268 . S
O153 Sc133 2.105 . S
O153 C138 1.268 . S
Sc154 O157 2.025 . S
Sc154 O164 2.105 . S
Sc154 O167 2.105 . S
Sc154 O170 2.105 1_554 S
Sc154 O173 2.105 . S
Sc155 O157 2.025 . S
Sc155 O165 2.105 . S
Sc155 O169 2.105 1_554 S
Sc155 O171 2.105 . S
Sc155 O175 2.105 . S
Sc156 O157 2.025 1_556 S
Sc156 O166 2.105 1_556 S
Sc156 O168 2.105 . S
Sc156 O172 2.105 . S
Sc156 O174 2.105 1_556 S
O157 Sc154 2.025 . S
O157 Sc155 2.025 . S
O157 Sc156 2.025 1_554 S
C158 O164 1.268 . S
C158 O174 1.268 . S
C159 O165 1.268 . S
C159 O173 1.268 . S
C160 O166 1.268 . S
C160 O175 1.268 . S
C161 O167 1.268 1_556 S
C161 O171 1.268 1_556 S
C162 O168 1.268 . S
C162 O170 1.268 . S
C163 O169 1.268 . S
C163 O172 1.268 . S
O164 Sc154 2.105 . S
O164 C158 1.268 . S
O165 Sc155 2.105 . S
O165 C159 1.268 . S
O166 Sc156 2.105 1_554 S
O166 C160 1.268 . S
O167 Sc154 2.105 . S
O167 C161 1.268 1_554 S
O168 Sc156 2.105 . S
O168 C162 1.268 . S
O169 Sc155 2.105 1_556 S
O169 C163 1.268 . S
O170 Sc154 2.105 1_556 S
O170 C162 1.268 . S
O171 Sc155 2.105 . S
O171 C161 1.268 1_554 S
O172 Sc156 2.105 . S
O172 C163 1.268 . S
O173 Sc154 2.105 . S
O173 C159 1.268 . S
O174 Sc156 2.105 1_554 S
O174 C158 1.268 . S
O175 Sc155 2.105 . S
O175 C160 1.268 . S
Sc176 O179 2.025 . S
Sc176 O186 2.105 . S
Sc176 O189 2.105 . S
Sc176 O192 2.105 . S
Sc176 O195 2.105 . S
Sc177 O179 2.025 . S
Sc177 O187 2.105 . S
Sc177 O191 2.105 . S
Sc177 O193 2.105 . S
Sc177 O197 2.105 . S
Sc178 O179 2.025 . S
Sc178 O188 2.105 . S
Sc178 O190 2.105 . S
Sc178 O194 2.105 . S
Sc178 O196 2.105 . S
O179 Sc176 2.025 . S
O179 Sc177 2.025 . S
O179 Sc178 2.025 . S
C180 O186 1.268 . S
C180 O196 1.268 . S
C181 O187 1.268 . S
C181 O195 1.268 . S
C182 O188 1.268 . S
C182 O197 1.268 . S
C183 O189 1.268 . S
C183 O193 1.268 . S
C184 O190 1.268 . S
C184 O192 1.268 . S
C185 O191 1.268 . S
C185 O194 1.268 . S
O186 Sc176 2.105 . S
O186 C180 1.268 . S
O187 Sc177 2.105 . S
O187 C181 1.268 . S
O188 Sc178 2.105 . S
O188 C182 1.268 . S
O189 Sc176 2.105 . S
O189 C183 1.268 . S
O190 Sc178 2.105 . S
O190 C184 1.268 . S
O191 Sc177 2.105 . S
O191 C185 1.268 . S
O192 Sc176 2.105 . S
O192 C184 1.268 . S
O193 Sc177 2.105 . S
O193 C183 1.268 . S
O194 Sc178 2.105 . S
O194 C185 1.268 . S
O195 Sc176 2.105 . S
O195 C181 1.268 . S
O196 Sc178 2.105 . S
O196 C180 1.268 . S
O197 Sc177 2.105 . S
O197 C182 1.268 . S
Sc198 O201 2.025 . S
Sc198 O208 2.105 . S
Sc198 O211 2.105 . S
Sc198 O214 2.105 . S
Sc198 O217 2.105 . S
Sc199 O201 2.025 . S
Sc199 O209 2.105 . S
Sc199 O213 2.105 . S
Sc199 O215 2.105 . S
Sc199 O219 2.105 . S
Sc200 O201 2.025 . S
Sc200 O210 2.105 . S
Sc200 O212 2.105 . S
Sc200 O216 2.105 . S
Sc200 O218 2.105 . S
O201 Sc198 2.025 . S
O201 Sc199 2.025 . S
O201 Sc200 2.025 . S
C202 O208 1.268 . S
C202 O218 1.268 . S
C203 O209 1.268 . S
C203 O217 1.268 . S
C204 O210 1.268 . S
C204 O219 1.268 . S
C205 O211 1.268 . S
C205 O215 1.268 . S
C206 O212 1.268 . S
C206 O214 1.268 . S
C207 O213 1.268 . S
C207 O216 1.268 . S
O208 Sc198 2.105 . S
O208 C202 1.268 . S
O209 Sc199 2.105 . S
O209 C203 1.268 . S
O210 Sc200 2.105 . S
O210 C204 1.268 . S
O211 Sc198 2.105 . S
O211 C205 1.268 . S
O212 Sc200 2.105 . S
O212 C206 1.268 . S
O213 Sc199 2.105 . S
O213 C207 1.268 . S
O214 Sc198 2.105 . S
O214 C206 1.268 . S
O215 Sc199 2.105 . S
O215 C205 1.268 . S
O216 Sc200 2.105 . S
O216 C207 1.268 . S
O217 Sc198 2.105 . S
O217 C203 1.268 . S
O218 Sc200 2.105 . S
O218 C202 1.268 . S
O219 Sc199 2.105 . S
O219 C204 1.268 . S
Sc220 O223 2.025 . S
Sc220 O230 2.105 . S
Sc220 O233 2.105 . S
Sc220 O236 2.105 . S
Sc220 O239 2.105 . S
Sc221 O223 2.025 . S
Sc221 O231 2.105 . S
Sc221 O235 2.105 . S
Sc221 O237 2.105 . S
Sc221 O241 2.105 . S
Sc222 O223 2.025 . S
Sc222 O232 2.105 . S
Sc222 O234 2.105 . S
Sc222 O238 2.105 . S
Sc222 O240 2.105 . S
O223 Sc220 2.025 . S
O223 Sc221 2.025 . S
O223 Sc222 2.025 . S
C224 O230 1.268 . S
C224 O240 1.268 . S
C225 O231 1.268 . S
C225 O239 1.268 . S
C226 O232 1.268 . S
C226 O241 1.268 . S
C227 O233 1.268 . S
C227 O237 1.268 . S
C228 O234 1.268 . S
C228 O236 1.268 . S
C229 O235 1.268 . S
C229 O238 1.268 . S
O230 Sc220 2.105 . S
O230 C224 1.268 . S
O231 Sc221 2.105 . S
O231 C225 1.268 . S
O232 Sc222 2.105 . S
O232 C226 1.268 . S
O233 Sc220 2.105 . S
O233 C227 1.268 . S
O234 Sc222 2.105 . S
O234 C228 1.268 . S
O235 Sc221 2.105 . S
O235 C229 1.268 . S
O236 Sc220 2.105 . S
O236 C228 1.268 . S
O237 Sc221 2.105 . S
O237 C227 1.268 . S
O238 Sc222 2.105 . S
O238 C229 1.268 . S
O239 Sc220 2.105 . S
O239 C225 1.268 . S
O240 Sc222 2.105 . S
O240 C224 1.268 . S
O241 Sc221 2.105 . S
O241 C226 1.268 . S
Sc242 O245 2.025 . S
Sc242 O252 2.105 . S
Sc242 O255 2.105 . S
Sc242 O258 2.105 . S
Sc242 O261 2.105 . S
Sc243 O245 2.025 . S
Sc243 O253 2.105 . S
Sc243 O257 2.105 . S
Sc243 O259 2.105 . S
Sc243 O263 2.105 . S
Sc244 O245 2.025 . S
Sc244 O254 2.105 . S
Sc244 O256 2.105 . S
Sc244 O260 2.105 . S
Sc244 O262 2.105 . S
O245 Sc242 2.025 . S
O245 Sc243 2.025 . S
O245 Sc244 2.025 . S
C246 O252 1.268 . S
C246 O262 1.268 . S
C247 O253 1.268 . S
C247 O261 1.268 . S
C248 O254 1.268 . S
C248 O263 1.268 . S
C249 O255 1.268 . S
C249 O259 1.268 . S
C250 O256 1.268 . S
C250 O258 1.268 . S
C251 O257 1.268 . S
C251 O260 1.268 . S
O252 Sc242 2.105 . S
O252 C246 1.268 . S
O253 Sc243 2.105 . S
O253 C247 1.268 . S
O254 Sc244 2.105 . S
O254 C248 1.268 . S
O255 Sc242 2.105 . S
O255 C249 1.268 . S
O256 Sc244 2.105 . S
O256 C250 1.268 . S
O257 Sc243 2.105 . S
O257 C251 1.268 . S
O258 Sc242 2.105 . S
O258 C250 1.268 . S
O259 Sc243 2.105 . S
O259 C249 1.268 . S
O260 Sc244 2.105 . S
O260 C251 1.268 . S
O261 Sc242 2.105 . S
O261 C247 1.268 . S
O262 Sc244 2.105 . S
O262 C246 1.268 . S
O263 Sc243 2.105 . S
O263 C248 1.268 . S
H264 C276 0.930 . S
H265 C278 0.930 . S
H266 C279 0.930 . S
H267 C283 0.959 . S
H268 C283 0.959 . S
H269 C283 0.961 . S
H270 C284 0.960 . S
H271 C284 0.961 . S
H272 C284 0.959 . S
H273 C287 0.929 . S
H274 C288 0.931 . S
H275 C290 0.930 . S
C276 H264 0.930 . S
C276 C277 1.399 . S
C276 C281 1.399 . S
C277 C276 1.399 . S
C277 C278 1.376 . S
C278 H265 0.930 . S
C278 C277 1.376 . S
C278 C279 1.388 . S
C279 H266 0.930 . S
C279 C278 1.388 . S
C279 C280 1.390 . S
C280 C279 1.390 . S
C280 C281 1.394 . S
C280 C286 1.465 . S
C281 C276 1.399 . S
C281 C280 1.394 . S
C281 C282 1.516 . S
C282 C281 1.516 . S
C282 C283 1.502 . S
C282 C284 1.561 . S
C282 C285 1.526 . S
C283 H267 0.959 . S
C283 H268 0.959 . S
C283 H269 0.961 . S
C283 C282 1.502 . S
C284 H270 0.960 . S
C284 H271 0.961 . S
C284 H272 0.959 . S
C284 C282 1.561 . S
C285 C282 1.526 . S
C285 C286 1.396 . S
C285 C290 1.390 . S
C286 C280 1.465 . S
C286 C285 1.396 . S
C286 C287 1.399 . S
C287 H273 0.929 . S
C287 C286 1.399 . S
C287 C288 1.385 . S
C288 H274 0.931 . S
C288 C287 1.385 . S
C288 C289 1.389 . S
C289 C288 1.389 . S
C289 C290 1.387 . S
C290 H275 0.930 . S
C290 C285 1.390 . S
C290 C289 1.387 . S
H291 C303 0.930 . S
H292 C305 0.930 . S
H293 C306 0.930 . S
H294 C310 0.959 . S
H295 C310 0.959 . S
H296 C310 0.961 . S
H297 C311 0.960 . S
H298 C311 0.961 . S
H299 C311 0.959 . S
H300 C314 0.929 . S
H301 C315 0.931 . S
H302 C317 0.930 . S
C303 H291 0.930 . S
C303 C304 1.399 . S
C303 C308 1.399 1_554 S
C304 C303 1.399 . S
C304 C305 1.376 . S
C305 H292 0.930 . S
C305 C304 1.376 . S
C305 C306 1.388 1_554 S
C306 H293 0.930 . S
C306 C305 1.388 1_556 S
C306 C307 1.390 . S
C307 C306 1.390 . S
C307 C308 1.394 . S
C307 C313 1.465 . S
C308 C303 1.399 1_556 S
C308 C307 1.394 . S
C308 C309 1.516 . S
C309 C308 1.516 . S
C309 C310 1.502 . S
C309 C311 1.561 . S
C309 C312 1.526 . S
C310 H294 0.959 . S
C310 H295 0.959 . S
C310 H296 0.961 . S
C310 C309 1.502 . S
C311 H297 0.960 . S
C311 H298 0.961 . S
C311 H299 0.959 . S
C311 C309 1.561 . S
C312 C309 1.526 . S
C312 C313 1.396 . S
C312 C317 1.390 . S
C313 C307 1.465 . S
C313 C312 1.396 . S
C313 C314 1.399 . S
C314 H300 0.929 . S
C314 C313 1.399 . S
C314 C315 1.385 . S
C315 H301 0.931 . S
C315 C314 1.385 . S
C315 C316 1.389 . S
C316 C315 1.389 . S
C316 C317 1.387 . S
C317 H302 0.930 . S
C317 C312 1.390 . S
C317 C316 1.387 . S
H318 C330 0.930 1_556 S
H319 C332 0.930 1_556 S
H320 C333 0.930 . S
H321 C337 0.959 . S
H322 C337 0.959 . S
H323 C337 0.961 . S
H324 C338 0.960 . S
H325 C338 0.961 . S
H326 C338 0.959 . S
H327 C341 0.929 . S
H328 C342 0.931 . S
H329 C344 0.930 . S
C330 H318 0.930 1_554 S
C330 C331 1.399 1_554 S
C330 C335 1.399 . S
C331 C330 1.399 1_556 S
C331 C332 1.376 1_556 S
C332 H319 0.930 1_554 S
C332 C331 1.376 1_554 S
C332 C333 1.388 . S
C333 H320 0.930 . S
C333 C332 1.388 . S
C333 C334 1.390 . S
C334 C333 1.390 . S
C334 C335 1.394 . S
C334 C340 1.465 . S
C335 C330 1.399 . S
C335 C334 1.394 . S
C335 C336 1.516 . S
C336 C335 1.516 . S
C336 C337 1.502 . S
C336 C338 1.561 . S
C336 C339 1.526 . S
C337 H321 0.959 . S
C337 H322 0.959 . S
C337 H323 0.961 . S
C337 C336 1.502 . S
C338 H324 0.960 . S
C338 H325 0.961 . S
C338 H326 0.959 . S
C338 C336 1.561 . S
C339 C336 1.526 . S
C339 C340 1.396 . S
C339 C344 1.390 . S
C340 C334 1.465 . S
C340 C339 1.396 . S
C340 C341 1.399 . S
C341 H327 0.929 . S
C341 C340 1.399 . S
C341 C342 1.385 . S
C342 H328 0.931 . S
C342 C341 1.385 . S
C342 C343 1.389 . S
C343 C342 1.389 . S
C343 C344 1.387 . S
C344 H329 0.930 . S
C344 C339 1.390 . S
C344 C343 1.387 . S
H345 C357 0.930 . S
H346 C359 0.930 . S
H347 C360 0.930 . S
H348 C364 0.959 . S
H349 C364 0.959 . S
H350 C364 0.961 . S
H351 C365 0.960 . S
H352 C365 0.961 . S
H353 C365 0.959 . S
H354 C368 0.929 . S
H355 C369 0.931 . S
H356 C371 0.930 . S
C357 H345 0.930 . S
C357 C358 1.399 . S
C357 C362 1.399 . S
C358 C357 1.399 . S
C358 C359 1.376 . S
C359 H346 0.930 . S
C359 C358 1.376 . S
C359 C360 1.388 . S
C360 H347 0.930 . S
C360 C359 1.388 . S
C360 C361 1.390 . S
C361 C360 1.390 . S
C361 C362 1.394 . S
C361 C367 1.465 . S
C362 C357 1.399 . S
C362 C361 1.394 . S
C362 C363 1.516 . S
C363 C362 1.516 . S
C363 C364 1.502 . S
C363 C365 1.561 . S
C363 C366 1.526 . S
C364 H348 0.959 . S
C364 H349 0.959 . S
C364 H350 0.961 . S
C364 C363 1.502 . S
C365 H351 0.960 . S
C365 H352 0.961 . S
C365 H353 0.959 . S
C365 C363 1.561 . S
C366 C363 1.526 . S
C366 C367 1.396 . S
C366 C371 1.390 . S
C367 C361 1.465 . S
C367 C366 1.396 . S
C367 C368 1.399 . S
C368 H354 0.929 . S
C368 C367 1.399 . S
C368 C369 1.385 . S
C369 H355 0.931 . S
C369 C368 1.385 . S
C369 C370 1.389 . S
C370 C369 1.389 . S
C370 C371 1.387 . S
C371 H356 0.930 . S
C371 C366 1.390 . S
C371 C370 1.387 . S
H372 C384 0.930 . S
H373 C386 0.930 . S
H374 C387 0.930 . S
H375 C391 0.959 . S
H376 C391 0.959 . S
H377 C391 0.961 . S
H378 C392 0.960 . S
H379 C392 0.961 . S
H380 C392 0.959 . S
H381 C395 0.929 . S
H382 C396 0.931 . S
H383 C398 0.930 . S
C384 H372 0.930 . S
C384 C385 1.399 . S
C384 C389 1.399 . S
C385 C384 1.399 . S
C385 C386 1.376 . S
C386 H373 0.930 . S
C386 C385 1.376 . S
C386 C387 1.388 . S
C387 H374 0.930 . S
C387 C386 1.388 . S
C387 C388 1.390 . S
C388 C387 1.390 . S
C388 C389 1.394 . S
C388 C394 1.465 . S
C389 C384 1.399 . S
C389 C388 1.394 . S
C389 C390 1.516 . S
C390 C389 1.516 . S
C390 C391 1.502 . S
C390 C392 1.561 . S
C390 C393 1.526 . S
C391 H375 0.959 . S
C391 H376 0.959 . S
C391 H377 0.961 . S
C391 C390 1.502 . S
C392 H378 0.960 . S
C392 H379 0.961 . S
C392 H380 0.959 . S
C392 C390 1.561 . S
C393 C390 1.526 . S
C393 C394 1.396 . S
C393 C398 1.390 . S
C394 C388 1.465 . S
C394 C393 1.396 . S
C394 C395 1.399 . S
C395 H381 0.929 . S
C395 C394 1.399 . S
C395 C396 1.385 . S
C396 H382 0.931 . S
C396 C395 1.385 . S
C396 C397 1.389 . S
C397 C396 1.389 . S
C397 C398 1.387 . S
C398 H383 0.930 . S
C398 C393 1.390 . S
C398 C397 1.387 . S
H399 C411 0.930 . S
H400 C413 0.930 . S
H401 C414 0.930 . S
H402 C418 0.959 . S
H403 C418 0.959 . S
H404 C418 0.961 . S
H405 C419 0.960 . S
H406 C419 0.961 . S
H407 C419 0.959 . S
H408 C422 0.929 . S
H409 C423 0.931 . S
H410 C425 0.930 . S
C411 H399 0.930 . S
C411 C412 1.399 . S
C411 C416 1.399 . S
C412 C411 1.399 . S
C412 C413 1.376 . S
C413 H400 0.930 . S
C413 C412 1.376 . S
C413 C414 1.388 . S
C414 H401 0.930 . S
C414 C413 1.388 . S
C414 C415 1.390 . S
C415 C414 1.390 . S
C415 C416 1.394 . S
C415 C421 1.465 . S
C416 C411 1.399 . S
C416 C415 1.394 . S
C416 C417 1.516 . S
C417 C416 1.516 . S
C417 C418 1.502 . S
C417 C419 1.561 . S
C417 C420 1.526 . S
C418 H402 0.959 . S
C418 H403 0.959 . S
C418 H404 0.961 . S
C418 C417 1.502 . S
C419 H405 0.960 . S
C419 H406 0.961 . S
C419 H407 0.959 . S
C419 C417 1.561 . S
C420 C417 1.526 . S
C420 C421 1.396 . S
C420 C425 1.390 . S
C421 C415 1.465 . S
C421 C420 1.396 . S
C421 C422 1.399 . S
C422 H408 0.929 . S
C422 C421 1.399 . S
C422 C423 1.385 . S
C423 H409 0.931 . S
C423 C422 1.385 . S
C423 C424 1.389 . S
C424 C423 1.389 . S
C424 C425 1.387 . S
C425 H410 0.930 . S
C425 C420 1.390 . S
C425 C424 1.387 . S
H426 C438 0.930 . S
H427 C440 0.930 . S
H428 C441 0.930 . S
H429 C445 0.959 . S
H430 C445 0.959 1_554 S
H431 C445 0.961 1_554 S
H432 C446 0.960 1_554 S
H433 C446 0.961 . S
H434 C446 0.959 . S
H435 C449 0.929 . S
H436 C450 0.931 . S
H437 C452 0.930 . S
C438 H426 0.930 . S
C438 C439 1.399 . S
C438 C443 1.399 . S
C439 C438 1.399 . S
C439 C440 1.376 . S
C440 H427 0.930 . S
C440 C439 1.376 . S
C440 C441 1.388 . S
C441 H428 0.930 . S
C441 C440 1.388 . S
C441 C442 1.390 . S
C442 C441 1.390 . S
C442 C443 1.394 . S
C442 C448 1.465 . S
C443 C438 1.399 . S
C443 C442 1.394 . S
C443 C444 1.516 . S
C444 C443 1.516 . S
C444 C445 1.502 . S
C444 C446 1.561 . S
C444 C447 1.526 . S
C445 H429 0.959 . S
C445 H430 0.959 1_556 S
C445 H431 0.961 1_556 S
C445 C444 1.502 . S
C446 H432 0.960 1_556 S
C446 H433 0.961 . S
C446 H434 0.959 . S
C446 C444 1.561 . S
C447 C444 1.526 . S
C447 C448 1.396 . S
C447 C452 1.390 . S
C448 C442 1.465 . S
C448 C447 1.396 . S
C448 C449 1.399 . S
C449 H435 0.929 . S
C449 C448 1.399 . S
C449 C450 1.385 . S
C450 H436 0.931 . S
C450 C449 1.385 . S
C450 C451 1.389 . S
C451 C450 1.389 . S
C451 C452 1.387 . S
C452 H437 0.930 . S
C452 C447 1.390 . S
C452 C451 1.387 . S
H453 C465 0.930 . S
H454 C467 0.930 . S
H455 C468 0.930 . S
H456 C472 0.959 . S
H457 C472 0.959 . S
H458 C472 0.961 1_655 S
H459 C473 0.960 1_655 S
H460 C473 0.961 . S
H461 C473 0.959 . S
H462 C476 0.929 . S
H463 C477 0.931 . S
H464 C479 0.930 . S
C465 H453 0.930 . S
C465 C466 1.399 . S
C465 C470 1.399 1_655 S
C466 C465 1.399 . S
C466 C467 1.376 . S
C467 H454 0.930 . S
C467 C466 1.376 . S
C467 C468 1.388 1_655 S
C468 H455 0.930 . S
C468 C467 1.388 1_455 S
C468 C469 1.390 . S
C469 C468 1.390 . S
C469 C470 1.394 . S
C469 C475 1.465 . S
C470 C465 1.399 1_455 S
C470 C469 1.394 . S
C470 C471 1.516 . S
C471 C470 1.516 . S
C471 C472 1.502 . S
C471 C473 1.561 1_554 S
C471 C474 1.526 . S
C472 H456 0.959 . S
C472 H457 0.959 . S
C472 H458 0.961 1_455 S
C472 C471 1.502 . S
C473 H459 0.960 1_455 S
C473 H460 0.961 . S
C473 H461 0.959 . S
C473 C471 1.561 1_556 S
C474 C471 1.526 . S
C474 C475 1.396 . S
C474 C479 1.390 . S
C475 C469 1.465 . S
C475 C474 1.396 . S
C475 C476 1.399 . S
C476 H462 0.929 . S
C476 C475 1.399 . S
C476 C477 1.385 . S
C477 H463 0.931 . S
C477 C476 1.385 . S
C477 C478 1.389 . S
C478 C477 1.389 . S
C478 C479 1.387 . S
C479 H464 0.930 . S
C479 C474 1.390 . S
C479 C478 1.387 . S
H480 C492 0.930 . S
H481 C494 0.930 . S
H482 C495 0.930 . S
H483 C499 0.959 . S
H484 C499 0.959 1_565 S
H485 C499 0.961 . S
H486 C500 0.960 . S
H487 C500 0.961 1_565 S
H488 C500 0.959 . S
H489 C503 0.929 . S
H490 C504 0.931 . S
H491 C506 0.930 . S
C492 H480 0.930 . S
C492 C493 1.399 . S
C492 C497 1.399 . S
C493 C492 1.399 . S
C493 C494 1.376 . S
C494 H481 0.930 . S
C494 C493 1.376 . S
C494 C495 1.388 . S
C495 H482 0.930 . S
C495 C494 1.388 . S
C495 C496 1.390 . S
C496 C495 1.390 . S
C496 C497 1.394 . S
C496 C502 1.465 . S
C497 C492 1.399 . S
C497 C496 1.394 . S
C497 C498 1.516 . S
C498 C497 1.516 . S
C498 C499 1.502 . S
C498 C500 1.561 . S
C498 C501 1.526 . S
C499 H483 0.959 . S
C499 H484 0.959 1_545 S
C499 H485 0.961 . S
C499 C498 1.502 . S
C500 H486 0.960 . S
C500 H487 0.961 1_545 S
C500 H488 0.959 . S
C500 C498 1.561 . S
C501 C498 1.526 . S
C501 C502 1.396 . S
C501 C506 1.390 1_545 S
C502 C496 1.465 . S
C502 C501 1.396 . S
C502 C503 1.399 . S
C503 H489 0.929 . S
C503 C502 1.399 . S
C503 C504 1.385 1_545 S
C504 H490 0.931 . S
C504 C503 1.385 1_565 S
C504 C505 1.389 . S
C505 C504 1.389 . S
C505 C506 1.387 . S
C506 H491 0.930 . S
C506 C501 1.390 1_565 S
C506 C505 1.387 . S
H507 C519 0.930 . S
H508 C521 0.930 . S
H509 C522 0.930 . S
H510 C526 0.959 . S
H511 C526 0.959 . S
H512 C526 0.961 . S
H513 C527 0.960 . S
H514 C527 0.961 . S
H515 C527 0.959 . S
H516 C530 0.929 . S
H517 C531 0.931 . S
H518 C533 0.930 . S
C519 H507 0.930 . S
C519 C520 1.399 . S
C519 C524 1.399 . S
C520 C519 1.399 . S
C520 C521 1.376 . S
C521 H508 0.930 . S
C521 C520 1.376 . S
C521 C522 1.388 . S
C522 H509 0.930 . S
C522 C521 1.388 . S
C522 C523 1.390 . S
C523 C522 1.390 . S
C523 C524 1.394 . S
C523 C529 1.465 . S
C524 C519 1.399 . S
C524 C523 1.394 . S
C524 C525 1.516 . S
C525 C524 1.516 . S
C525 C526 1.502 . S
C525 C527 1.561 . S
C525 C528 1.526 . S
C526 H510 0.959 . S
C526 H511 0.959 . S
C526 H512 0.961 . S
C526 C525 1.502 . S
C527 H513 0.960 . S
C527 H514 0.961 . S
C527 H515 0.959 . S
C527 C525 1.561 . S
C528 C525 1.526 . S
C528 C529 1.396 . S
C528 C533 1.390 . S
C529 C523 1.465 . S
C529 C528 1.396 . S
C529 C530 1.399 . S
C530 H516 0.929 . S
C530 C529 1.399 . S
C530 C531 1.385 . S
C531 H517 0.931 . S
C531 C530 1.385 . S
C531 C532 1.389 . S
C532 C531 1.389 . S
C532 C533 1.387 . S
C533 H518 0.930 . S
C533 C528 1.390 . S
C533 C532 1.387 . S
H534 C546 0.930 . S
H535 C548 0.930 . S
H536 C549 0.930 . S
H537 C553 0.959 . S
H538 C553 0.959 . S
H539 C553 0.961 1_455 S
H540 C554 0.960 1_455 S
H541 C554 0.961 . S
H542 C554 0.959 . S
H543 C557 0.929 . S
H544 C558 0.931 . S
H545 C560 0.930 . S
C546 H534 0.930 . S
C546 C547 1.399 . S
C546 C551 1.399 1_455 S
C547 C546 1.399 . S
C547 C548 1.376 . S
C548 H535 0.930 . S
C548 C547 1.376 . S
C548 C549 1.388 1_455 S
C549 H536 0.930 . S
C549 C548 1.388 1_655 S
C549 C550 1.390 . S
C550 C549 1.390 . S
C550 C551 1.394 . S
C550 C556 1.465 . S
C551 C546 1.399 1_655 S
C551 C550 1.394 . S
C551 C552 1.516 . S
C552 C551 1.516 . S
C552 C553 1.502 . S
C552 C554 1.561 . S
C552 C555 1.526 . S
C553 H537 0.959 . S
C553 H538 0.959 . S
C553 H539 0.961 1_655 S
C553 C552 1.502 . S
C554 H540 0.960 1_655 S
C554 H541 0.961 . S
C554 H542 0.959 . S
C554 C552 1.561 . S
C555 C552 1.526 . S
C555 C556 1.396 . S
C555 C560 1.390 . S
C556 C550 1.465 . S
C556 C555 1.396 . S
C556 C557 1.399 . S
C557 H543 0.929 . S
C557 C556 1.399 . S
C557 C558 1.385 . S
C558 H544 0.931 . S
C558 C557 1.385 . S
C558 C559 1.389 . S
C559 C558 1.389 . S
C559 C560 1.387 . S
C560 H545 0.930 . S
C560 C555 1.390 . S
C560 C559 1.387 . S
H561 C573 0.930 . S
H562 C575 0.930 . S
H563 C576 0.930 . S
H564 C580 0.959 . S
H565 C580 0.959 . S
H566 C580 0.961 1_545 S
H567 C581 0.960 1_545 S
H568 C581 0.961 . S
H569 C581 0.959 . S
H570 C584 0.929 . S
H571 C585 0.931 . S
H572 C587 0.930 . S
C573 H561 0.930 . S
C573 C574 1.399 . S
C573 C578 1.399 1_545 S
C574 C573 1.399 . S
C574 C575 1.376 . S
C575 H562 0.930 . S
C575 C574 1.376 . S
C575 C576 1.388 1_545 S
C576 H563 0.930 . S
C576 C575 1.388 1_565 S
C576 C577 1.390 . S
C577 C576 1.390 . S
C577 C578 1.394 . S
C577 C583 1.465 . S
C578 C573 1.399 1_565 S
C578 C577 1.394 . S
C578 C579 1.516 . S
C579 C578 1.516 . S
C579 C580 1.502 . S
C579 C581 1.561 . S
C579 C582 1.526 . S
C580 H564 0.959 . S
C580 H565 0.959 . S
C580 H566 0.961 1_565 S
C580 C579 1.502 . S
C581 H567 0.960 1_565 S
C581 H568 0.961 . S
C581 H569 0.959 . S
C581 C579 1.561 . S
C582 C579 1.526 . S
C582 C583 1.396 . S
C582 C587 1.390 . S
C583 C577 1.465 . S
C583 C582 1.396 . S
C583 C584 1.399 . S
C584 H570 0.929 . S
C584 C583 1.399 . S
C584 C585 1.385 . S
C585 H571 0.931 . S
C585 C584 1.385 . S
C585 C586 1.389 . S
C586 C585 1.389 . S
C586 C587 1.387 . S
C587 H572 0.930 . S
C587 C582 1.390 . S
C587 C586 1.387 . S
H588 C600 0.930 . S
H589 C602 0.930 . S
H590 C603 0.930 . S
H591 C607 0.959 . S
H592 C607 0.959 . S
H593 C607 0.961 . S
H594 C608 0.960 . S
H595 C608 0.961 . S
H596 C608 0.959 . S
H597 C611 0.929 . S
H598 C612 0.931 . S
H599 C614 0.930 . S
C600 H588 0.930 . S
C600 C601 1.399 . S
C600 C605 1.399 . S
C601 C600 1.399 . S
C601 C602 1.376 . S
C602 H589 0.930 . S
C602 C601 1.376 . S
C602 C603 1.388 . S
C603 H590 0.930 . S
C603 C602 1.388 . S
C603 C604 1.390 . S
C604 C603 1.390 . S
C604 C605 1.394 . S
C604 C610 1.465 . S
C605 C600 1.399 . S
C605 C604 1.394 . S
C605 C606 1.516 . S
C606 C605 1.516 . S
C606 C607 1.502 . S
C606 C608 1.561 1_556 S
C606 C609 1.526 . S
C607 H591 0.959 . S
C607 H592 0.959 . S
C607 H593 0.961 . S
C607 C606 1.502 . S
C608 H594 0.960 . S
C608 H595 0.961 . S
C608 H596 0.959 . S
C608 C606 1.561 1_554 S
C609 C606 1.526 . S
C609 C610 1.396 . S
C609 C614 1.390 . S
C610 C604 1.465 . S
C610 C609 1.396 . S
C610 C611 1.399 . S
C611 H597 0.929 . S
C611 C610 1.399 . S
C611 C612 1.385 . S
C612 H598 0.931 . S
C612 C611 1.385 . S
C612 C613 1.389 . S
C613 C612 1.389 . S
C613 C614 1.387 . S
C614 H599 0.930 . S
C614 C609 1.390 . S
C614 C613 1.387 . S
H615 C627 0.930 . S
H616 C629 0.930 . S
H617 C630 0.930 . S
H618 C634 0.959 . S
H619 C634 0.959 . S
H620 C634 0.961 . S
H621 C635 0.960 . S
H622 C635 0.961 . S
H623 C635 0.959 . S
H624 C638 0.929 . S
H625 C639 0.931 . S
H626 C641 0.930 . S
C627 H615 0.930 . S
C627 C628 1.399 . S
C627 C632 1.399 1_655 S
C628 C627 1.399 . S
C628 C629 1.376 . S
C629 H616 0.930 . S
C629 C628 1.376 . S
C629 C630 1.388 . S
C630 H617 0.930 . S
C630 C629 1.388 . S
C630 C631 1.390 1_655 S
C631 C630 1.390 1_455 S
C631 C632 1.394 . S
C631 C637 1.465 . S
C632 C627 1.399 1_455 S
C632 C631 1.394 . S
C632 C633 1.516 . S
C633 C632 1.516 . S
C633 C634 1.502 . S
C633 C635 1.561 . S
C633 C636 1.526 . S
C634 H618 0.959 . S
C634 H619 0.959 . S
C634 H620 0.961 . S
C634 C633 1.502 . S
C635 H621 0.960 . S
C635 H622 0.961 . S
C635 H623 0.959 . S
C635 C633 1.561 . S
C636 C633 1.526 . S
C636 C637 1.396 . S
C636 C641 1.390 . S
C637 C631 1.465 . S
C637 C636 1.396 . S
C637 C638 1.399 . S
C638 H624 0.929 . S
C638 C637 1.399 . S
C638 C639 1.385 . S
C639 H625 0.931 . S
C639 C638 1.385 . S
C639 C640 1.389 . S
C640 C639 1.389 . S
C640 C641 1.387 . S
C641 H626 0.930 . S
C641 C636 1.390 . S
C641 C640 1.387 . S
H642 C654 0.930 . S
H643 C656 0.930 . S
H644 C657 0.930 . S
H645 C661 0.959 . S
H646 C661 0.959 . S
H647 C661 0.961 . S
H648 C662 0.960 . S
H649 C662 0.961 . S
H650 C662 0.959 . S
H651 C665 0.929 . S
H652 C666 0.931 . S
H653 C668 0.930 . S
C654 H642 0.930 . S
C654 C655 1.399 . S
C654 C659 1.399 1_565 S
C655 C654 1.399 . S
C655 C656 1.376 . S
C656 H643 0.930 . S
C656 C655 1.376 . S
C656 C657 1.388 . S
C657 H644 0.930 . S
C657 C656 1.388 . S
C657 C658 1.390 1_565 S
C658 C657 1.390 1_545 S
C658 C659 1.394 . S
C658 C664 1.465 . S
C659 C654 1.399 1_545 S
C659 C658 1.394 . S
C659 C660 1.516 . S
C660 C659 1.516 . S
C660 C661 1.502 . S
C660 C662 1.561 . S
C660 C663 1.526 . S
C661 H645 0.959 . S
C661 H646 0.959 . S
C661 H647 0.961 . S
C661 C660 1.502 . S
C662 H648 0.960 . S
C662 H649 0.961 . S
C662 H650 0.959 . S
C662 C660 1.561 . S
C663 C660 1.526 . S
C663 C664 1.396 . S
C663 C668 1.390 . S
C664 C658 1.465 . S
C664 C663 1.396 . S
C664 C665 1.399 . S
C665 H651 0.929 . S
C665 C664 1.399 . S
C665 C666 1.385 . S
C666 H652 0.931 . S
C666 C665 1.385 . S
C666 C667 1.389 . S
C667 C666 1.389 . S
C667 C668 1.387 . S
C668 H653 0.930 . S
C668 C663 1.390 . S
C668 C667 1.387 . S
H669 C681 0.930 . S
H670 C683 0.930 . S
H671 C684 0.930 . S
H672 C688 0.959 . S
H673 C688 0.959 . S
H674 C688 0.961 . S
H675 C689 0.960 . S
H676 C689 0.961 . S
H677 C689 0.959 . S
H678 C692 0.929 . S
H679 C693 0.931 . S
H680 C695 0.930 . S
C681 H669 0.930 . S
C681 C682 1.399 . S
C681 C686 1.399 . S
C682 C681 1.399 . S
C682 C683 1.376 . S
C683 H670 0.930 . S
C683 C682 1.376 . S
C683 C684 1.388 . S
C684 H671 0.930 . S
C684 C683 1.388 . S
C684 C685 1.390 . S
C685 C684 1.390 . S
C685 C686 1.394 . S
C685 C691 1.465 . S
C686 C681 1.399 . S
C686 C685 1.394 . S
C686 C687 1.516 . S
C687 C686 1.516 . S
C687 C688 1.502 . S
C687 C689 1.561 . S
C687 C690 1.526 . S
C688 H672 0.959 . S
C688 H673 0.959 . S
C688 H674 0.961 . S
C688 C687 1.502 . S
C689 H675 0.960 . S
C689 H676 0.961 . S
C689 H677 0.959 . S
C689 C687 1.561 . S
C690 C687 1.526 . S
C690 C691 1.396 . S
C690 C695 1.390 . S
C691 C685 1.465 . S
C691 C690 1.396 . S
C691 C692 1.399 . S
C692 H678 0.929 . S
C692 C691 1.399 . S
C692 C693 1.385 . S
C693 H679 0.931 . S
C693 C692 1.385 . S
C693 C694 1.389 . S
C694 C693 1.389 . S
C694 C695 1.387 . S
C695 H680 0.930 . S
C695 C690 1.390 . S
C695 C694 1.387 . S
H696 C708 0.930 . S
H697 C710 0.930 . S
H698 C711 0.930 . S
H699 C715 0.959 . S
H700 C715 0.959 . S
H701 C715 0.961 . S
H702 C716 0.960 . S
H703 C716 0.961 . S
H704 C716 0.959 . S
H705 C719 0.929 . S
H706 C720 0.931 . S
H707 C722 0.930 . S
C708 H696 0.930 . S
C708 C709 1.399 . S
C708 C713 1.399 . S
C709 C708 1.399 . S
C709 C710 1.376 . S
C710 H697 0.930 . S
C710 C709 1.376 . S
C710 C711 1.388 . S
C711 H698 0.930 . S
C711 C710 1.388 . S
C711 C712 1.390 . S
C712 C711 1.390 . S
C712 C713 1.394 . S
C712 C718 1.465 . S
C713 C708 1.399 . S
C713 C712 1.394 . S
C713 C714 1.516 . S
C714 C713 1.516 . S
C714 C715 1.502 . S
C714 C716 1.561 . S
C714 C717 1.526 . S
C715 H699 0.959 . S
C715 H700 0.959 . S
C715 H701 0.961 . S
C715 C714 1.502 . S
C716 H702 0.960 . S
C716 H703 0.961 . S
C716 H704 0.959 . S
C716 C714 1.561 . S
C717 C714 1.526 . S
C717 C718 1.396 . S
C717 C722 1.390 1_655 S
C718 C712 1.465 . S
C718 C717 1.396 . S
C718 C719 1.399 1_655 S
C719 H705 0.929 . S
C719 C718 1.399 1_455 S
C719 C720 1.385 . S
C720 H706 0.931 . S
C720 C719 1.385 . S
C720 C721 1.389 . S
C721 C720 1.389 . S
C721 C722 1.387 . S
C722 H707 0.930 . S
C722 C717 1.390 1_455 S
C722 C721 1.387 . S
H723 C735 0.930 . S
H724 C737 0.930 . S
H725 C738 0.930 . S
H726 C742 0.959 . S
H727 C742 0.959 . S
H728 C742 0.961 . S
H729 C743 0.960 . S
H730 C743 0.961 1_545 S
H731 C743 0.959 . S
H732 C746 0.929 . S
H733 C747 0.931 . S
H734 C749 0.930 . S
C735 H723 0.930 . S
C735 C736 1.399 . S
C735 C740 1.399 . S
C736 C735 1.399 . S
C736 C737 1.376 . S
C737 H724 0.930 . S
C737 C736 1.376 . S
C737 C738 1.388 . S
C738 H725 0.930 . S
C738 C737 1.388 . S
C738 C739 1.390 . S
C739 C738 1.390 . S
C739 C740 1.394 . S
C739 C745 1.465 . S
C740 C735 1.399 . S
C740 C739 1.394 . S
C740 C741 1.516 . S
C741 C740 1.516 . S
C741 C742 1.502 . S
C741 C743 1.561 . S
C741 C744 1.526 . S
C742 H726 0.959 . S
C742 H727 0.959 . S
C742 H728 0.961 . S
C742 C741 1.502 . S
C743 H729 0.960 . S
C743 H730 0.961 1_565 S
C743 H731 0.959 . S
C743 C741 1.561 . S
C744 C741 1.526 . S
C744 C745 1.396 . S
C744 C749 1.390 1_565 S
C745 C739 1.465 . S
C745 C744 1.396 . S
C745 C746 1.399 . S
C746 H732 0.929 . S
C746 C745 1.399 . S
C746 C747 1.385 1_565 S
C747 H733 0.931 . S
C747 C746 1.385 1_545 S
C747 C748 1.389 . S
C748 C747 1.389 . S
C748 C749 1.387 . S
C749 H734 0.930 . S
C749 C744 1.390 1_545 S
C749 C748 1.387 . S
H750 C762 0.930 1_554 S
H751 C764 0.930 . S
H752 C765 0.930 . S
H753 C769 0.954 1_556 S
H754 C769 0.959 . S
H755 C769 0.961 . S
H756 C770 0.960 . S
H757 C770 0.961 . S
H758 C770 0.959 1_556 S
H759 C773 0.929 . S
H760 C774 0.931 . S
H761 C776 0.930 . S
C762 H750 0.930 1_556 S
C762 C763 1.399 . S
C762 C767 1.399 . S
C763 C762 1.399 . S
C763 C764 1.376 . S
C764 H751 0.930 . S
C764 C763 1.376 . S
C764 C765 1.388 . S
C765 H752 0.930 . S
C765 C764 1.388 . S
C765 C766 1.390 . S
C766 C765 1.390 . S
C766 C767 1.394 . S
C766 C772 1.465 . S
C767 C762 1.399 . S
C767 C766 1.394 . S
C767 C768 1.516 . S
C768 C767 1.516 . S
C768 C769 1.502 1_556 S
C768 C770 1.561 1_556 S
C768 C771 1.526 . S
C769 H753 0.954 1_554 S
C769 H754 0.959 . S
C769 H755 0.961 . S
C769 C768 1.502 1_554 S
C770 H756 0.960 . S
C770 H757 0.961 . S
C770 H758 0.959 1_554 S
C770 C768 1.561 1_554 S
C771 C768 1.526 . S
C771 C772 1.396 . S
C771 C776 1.390 . S
C772 C766 1.465 . S
C772 C771 1.396 . S
C772 C773 1.399 . S
C773 H759 0.929 . S
C773 C772 1.399 . S
C773 C774 1.385 . S
C774 H760 0.931 . S
C774 C773 1.385 . S
C774 C775 1.389 . S
C775 C774 1.389 . S
C775 C776 1.387 . S
C776 H761 0.930 . S
C776 C771 1.390 . S
C776 C775 1.387 . S
H777 C789 0.930 . S
H778 C791 0.930 . S
H779 C792 0.930 . S
H780 C796 0.959 . S
H781 C796 0.959 . S
H782 C796 0.961 . S
H783 C797 0.960 . S
H784 C797 0.961 . S
H785 C797 0.959 . S
H786 C800 0.929 . S
H787 C801 0.931 . S
H788 C803 0.930 . S
C789 H777 0.930 . S
C789 C790 1.399 . S
C789 C794 1.399 . S
C790 C789 1.399 . S
C790 C791 1.376 . S
C791 H778 0.930 . S
C791 C790 1.376 . S
C791 C792 1.388 . S
C792 H779 0.930 . S
C792 C791 1.388 . S
C792 C793 1.390 . S
C793 C792 1.390 . S
C793 C794 1.394 . S
C793 C799 1.465 . S
C794 C789 1.399 . S
C794 C793 1.394 . S
C794 C795 1.516 . S
C795 C794 1.516 . S
C795 C796 1.502 . S
C795 C797 1.561 . S
C795 C798 1.526 . S
C796 H780 0.959 . S
C796 H781 0.959 . S
C796 H782 0.961 . S
C796 C795 1.502 . S
C797 H783 0.960 . S
C797 H784 0.961 . S
C797 H785 0.959 . S
C797 C795 1.561 . S
C798 C795 1.526 . S
C798 C799 1.396 . S
C798 C803 1.390 . S
C799 C793 1.465 . S
C799 C798 1.396 . S
C799 C800 1.399 . S
C800 H786 0.929 . S
C800 C799 1.399 . S
C800 C801 1.385 . S
C801 H787 0.931 . S
C801 C800 1.385 . S
C801 C802 1.389 . S
C802 C801 1.389 . S
C802 C803 1.387 . S
C803 H788 0.930 . S
C803 C798 1.390 . S
C803 C802 1.387 . S
H804 C816 0.930 . S
H805 C818 0.930 . S
H806 C819 0.930 . S
H807 C823 0.959 . S
H808 C823 0.959 . S
H809 C823 0.961 . S
H810 C824 0.960 . S
H811 C824 0.961 . S
H812 C824 0.959 . S
H813 C827 0.929 . S
H814 C828 0.931 . S
H815 C830 0.930 . S
C816 H804 0.930 . S
C816 C817 1.399 . S
C816 C821 1.399 . S
C817 C816 1.399 . S
C817 C818 1.376 . S
C818 H805 0.930 . S
C818 C817 1.376 . S
C818 C819 1.388 . S
C819 H806 0.930 . S
C819 C818 1.388 . S
C819 C820 1.390 . S
C820 C819 1.390 . S
C820 C821 1.394 . S
C820 C826 1.465 . S
C821 C816 1.399 . S
C821 C820 1.394 . S
C821 C822 1.516 . S
C822 C821 1.516 . S
C822 C823 1.502 . S
C822 C824 1.561 . S
C822 C825 1.526 . S
C823 H807 0.959 . S
C823 H808 0.959 . S
C823 H809 0.961 . S
C823 C822 1.502 . S
C824 H810 0.960 . S
C824 H811 0.961 . S
C824 H812 0.959 . S
C824 C822 1.561 . S
C825 C822 1.526 . S
C825 C826 1.396 . S
C825 C830 1.390 . S
C826 C820 1.465 . S
C826 C825 1.396 . S
C826 C827 1.399 . S
C827 H813 0.929 . S
C827 C826 1.399 . S
C827 C828 1.385 . S
C828 H814 0.931 . S
C828 C827 1.385 . S
C828 C829 1.389 . S
C829 C828 1.389 . S
C829 C830 1.387 . S
C830 H815 0.930 . S
C830 C825 1.390 . S
C830 C829 1.387 . S
H831 C843 0.930 . S
H832 C845 0.930 . S
H833 C846 0.930 . S
H834 C850 0.959 . S
H835 C850 0.959 . S
H836 C850 0.961 . S
H837 C851 0.960 . S
H838 C851 0.961 . S
H839 C851 0.959 . S
H840 C854 0.929 . S
H841 C855 0.931 . S
H842 C857 0.930 . S
C843 H831 0.930 . S
C843 C844 1.399 . S
C843 C848 1.399 . S
C844 C843 1.399 . S
C844 C845 1.376 . S
C845 H832 0.930 . S
C845 C844 1.376 . S
C845 C846 1.388 . S
C846 H833 0.930 . S
C846 C845 1.388 . S
C846 C847 1.390 . S
C847 C846 1.390 . S
C847 C848 1.394 . S
C847 C853 1.465 . S
C848 C843 1.399 . S
C848 C847 1.394 . S
C848 C849 1.516 . S
C849 C848 1.516 . S
C849 C850 1.502 . S
C849 C851 1.561 . S
C849 C852 1.526 . S
C850 H834 0.959 . S
C850 H835 0.959 . S
C850 H836 0.961 . S
C850 C849 1.502 . S
C851 H837 0.960 . S
C851 H838 0.961 . S
C851 H839 0.959 . S
C851 C849 1.561 . S
C852 C849 1.526 . S
C852 C853 1.396 . S
C852 C857 1.390 . S
C853 C847 1.465 . S
C853 C852 1.396 . S
C853 C854 1.399 . S
C854 H840 0.929 . S
C854 C853 1.399 . S
C854 C855 1.385 . S
C855 H841 0.931 . S
C855 C854 1.385 . S
C855 C856 1.389 . S
C856 C855 1.389 . S
C856 C857 1.387 . S
C857 H842 0.930 . S
C857 C852 1.390 . S
C857 C856 1.387 . S
H858 C870 0.930 . S
H859 C872 0.930 . S
H860 C873 0.930 . S
H861 C877 0.959 . S
H862 C877 0.959 . S
H863 C877 0.961 . S
H864 C878 0.960 . S
H865 C878 0.961 . S
H866 C878 0.959 . S
H867 C881 0.929 . S
H868 C882 0.931 . S
H869 C884 0.930 . S
C870 H858 0.930 . S
C870 C871 1.399 . S
C870 C875 1.399 . S
C871 C870 1.399 . S
C871 C872 1.376 . S
C872 H859 0.930 . S
C872 C871 1.376 . S
C872 C873 1.388 . S
C873 H860 0.930 . S
C873 C872 1.388 . S
C873 C874 1.390 . S
C874 C873 1.390 . S
C874 C875 1.394 . S
C874 C880 1.465 . S
C875 C870 1.399 . S
C875 C874 1.394 . S
C875 C876 1.516 . S
C876 C875 1.516 . S
C876 C877 1.502 . S
C876 C878 1.561 . S
C876 C879 1.526 . S
C877 H861 0.959 . S
C877 H862 0.959 . S
C877 H863 0.961 . S
C877 C876 1.502 . S
C878 H864 0.960 . S
C878 H865 0.961 . S
C878 H866 0.959 . S
C878 C876 1.561 . S
C879 C876 1.526 . S
C879 C880 1.396 . S
C879 C884 1.390 . S
C880 C874 1.465 . S
C880 C879 1.396 . S
C880 C881 1.399 . S
C881 H867 0.929 . S
C881 C880 1.399 . S
C881 C882 1.385 . S
C882 H868 0.931 . S
C882 C881 1.385 . S
C882 C883 1.389 . S
C883 C882 1.389 . S
C883 C884 1.387 . S
C884 H869 0.930 . S
C884 C879 1.390 . S
C884 C883 1.387 . S
H885 C897 0.930 . S
H886 C899 0.930 . S
H887 C900 0.930 . S
H888 C904 0.959 . S
H889 C904 0.959 . S
H890 C904 0.961 . S
H891 C905 0.960 . S
H892 C905 0.961 . S
H893 C905 0.959 . S
H894 C908 0.929 . S
H895 C909 0.931 . S
H896 C911 0.930 . S
C897 H885 0.930 . S
C897 C898 1.399 . S
C897 C902 1.399 . S
C898 C897 1.399 . S
C898 C899 1.376 . S
C899 H886 0.930 . S
C899 C898 1.376 . S
C899 C900 1.388 . S
C900 H887 0.930 . S
C900 C899 1.388 . S
C900 C901 1.390 . S
C901 C900 1.390 . S
C901 C902 1.394 . S
C901 C907 1.465 . S
C902 C897 1.399 . S
C902 C901 1.394 . S
C902 C903 1.516 . S
C903 C902 1.516 . S
C903 C904 1.502 . S
C903 C905 1.561 . S
C903 C906 1.526 . S
C904 H888 0.959 . S
C904 H889 0.959 . S
C904 H890 0.961 . S
C904 C903 1.502 . S
C905 H891 0.960 . S
C905 H892 0.961 . S
C905 H893 0.959 . S
C905 C903 1.561 . S
C906 C903 1.526 . S
C906 C907 1.396 . S
C906 C911 1.390 . S
C907 C901 1.465 . S
C907 C906 1.396 . S
C907 C908 1.399 . S
C908 H894 0.929 . S
C908 C907 1.399 . S
C908 C909 1.385 . S
C909 H895 0.931 . S
C909 C908 1.385 . S
C909 C910 1.389 . S
C910 C909 1.389 . S
C910 C911 1.387 . S
C911 H896 0.930 . S
C911 C906 1.390 . S
C911 C910 1.387 . S
H912 C924 0.930 . S
H913 C926 0.930 . S
H914 C927 0.930 . S
H915 C931 0.959 . S
H916 C931 0.959 . S
H917 C931 0.961 . S
H918 C932 0.960 . S
H919 C932 0.961 . S
H920 C932 0.959 . S
H921 C935 0.929 . S
H922 C936 0.931 . S
H923 C938 0.930 . S
C924 H912 0.930 . S
C924 C925 1.399 . S
C924 C929 1.399 . S
C925 C924 1.399 . S
C925 C926 1.376 . S
C926 H913 0.930 . S
C926 C925 1.376 . S
C926 C927 1.388 . S
C927 H914 0.930 . S
C927 C926 1.388 . S
C927 C928 1.390 . S
C928 C927 1.390 . S
C928 C929 1.394 . S
C928 C934 1.465 . S
C929 C924 1.399 . S
C929 C928 1.394 . S
C929 C930 1.516 . S
C930 C929 1.516 . S
C930 C931 1.502 . S
C930 C932 1.561 . S
C930 C933 1.526 . S
C931 H915 0.959 . S
C931 H916 0.959 . S
C931 H917 0.961 . S
C931 C930 1.502 . S
C932 H918 0.960 . S
C932 H919 0.961 . S
C932 H920 0.959 . S
C932 C930 1.561 . S
C933 C930 1.526 . S
C933 C934 1.396 . S
C933 C938 1.390 . S
C934 C928 1.465 . S
C934 C933 1.396 . S
C934 C935 1.399 . S
C935 H921 0.929 . S
C935 C934 1.399 . S
C935 C936 1.385 . S
C936 H922 0.931 . S
C936 C935 1.385 . S
C936 C937 1.389 . S
C937 C936 1.389 . S
C937 C938 1.387 . S
C938 H923 0.930 . S
C938 C933 1.390 . S
C938 C937 1.387 . S
H939 C951 0.930 . S
H940 C953 0.930 . S
H941 C954 0.930 . S
H942 C958 0.959 1_455 S
H943 C958 0.959 . S
H944 C958 0.985 . S
H945 C959 0.960 . S
H946 C959 0.961 . S
H947 C959 0.959 . S
H948 C962 0.929 . S
H949 C963 0.931 . S
H950 C965 0.930 . S
C951 H939 0.930 . S
C951 C952 1.399 . S
C951 C956 1.399 . S
C952 C951 1.399 . S
C952 C953 1.376 . S
C953 H940 0.930 . S
C953 C952 1.376 . S
C953 C954 1.388 . S
C954 H941 0.930 . S
C954 C953 1.388 . S
C954 C955 1.390 . S
C955 C954 1.390 . S
C955 C956 1.394 . S
C955 C961 1.465 1_455 S
C956 C951 1.399 . S
C956 C955 1.394 . S
C956 C957 1.516 1_455 S
C957 C956 1.516 1_655 S
C957 C958 1.502 . S
C957 C959 1.561 . S
C957 C960 1.526 . S
C958 H942 0.959 1_655 S
C958 H943 0.959 . S
C958 H944 0.985 . S
C958 C957 1.502 . S
C959 H945 0.960 . S
C959 H946 0.961 . S
C959 H947 0.959 . S
C959 C957 1.561 . S
C960 C957 1.526 . S
C960 C961 1.396 . S
C960 C965 1.390 . S
C961 C955 1.465 1_655 S
C961 C960 1.396 . S
C961 C962 1.399 . S
C962 H948 0.929 . S
C962 C961 1.399 . S
C962 C963 1.385 . S
C963 H949 0.931 . S
C963 C962 1.385 . S
C963 C964 1.389 . S
C964 C963 1.389 . S
C964 C965 1.387 . S
C965 H950 0.930 . S
C965 C960 1.390 . S
C965 C964 1.387 . S
H966 C978 0.930 . S
H967 C980 0.930 . S
H968 C981 0.930 . S
H969 C985 0.959 . S
H970 C985 0.959 . S
H971 C985 0.961 . S
H972 C986 0.960 . S
H973 C986 0.961 . S
H974 C986 0.959 . S
H975 C989 0.929 1_545 S
H976 C990 0.931 . S
H977 C992 0.930 . S
C978 H966 0.930 . S
C978 C979 1.399 . S
C978 C983 1.399 . S
C979 C978 1.399 . S
C979 C980 1.376 . S
C980 H967 0.930 . S
C980 C979 1.376 . S
C980 C981 1.388 . S
C981 H968 0.930 . S
C981 C980 1.388 . S
C981 C982 1.390 . S
C982 C981 1.390 . S
C982 C983 1.394 . S
C982 C988 1.465 1_545 S
C983 C978 1.399 . S
C983 C982 1.394 . S
C983 C984 1.516 1_545 S
C984 C983 1.516 1_565 S
C984 C985 1.502 . S
C984 C986 1.561 . S
C984 C987 1.526 . S
C985 H969 0.959 . S
C985 H970 0.959 . S
C985 H971 0.961 . S
C985 C984 1.502 . S
C986 H972 0.960 . S
C986 H973 0.961 . S
C986 H974 0.959 . S
C986 C984 1.561 . S
C987 C984 1.526 . S
C987 C988 1.396 . S
C987 C992 1.390 . S
C988 C982 1.465 1_565 S
C988 C987 1.396 . S
C988 C989 1.399 . S
C989 H975 0.929 1_565 S
C989 C988 1.399 . S
C989 C990 1.385 . S
C990 H976 0.931 . S
C990 C989 1.385 . S
C990 C991 1.389 . S
C991 C990 1.389 . S
C991 C992 1.387 . S
C992 H977 0.930 . S
C992 C987 1.390 . S
C992 C991 1.387 . S
H993 C1005 0.930 . S
H994 C1007 0.930 . S
H995 C1008 0.930 . S
H996 C1012 0.959 . S
H997 C1012 0.959 . S
H998 C1012 0.961 . S
H999 C1013 0.960 . S
H1000 C1013 0.961 . S
H1001 C1013 0.959 . S
H1002 C1016 0.929 . S
H1003 C1017 0.931 . S
H1004 C1019 0.930 . S
C1005 H993 0.930 . S
C1005 C1006 1.399 . S
C1005 C1010 1.399 . S
C1006 C1005 1.399 . S
C1006 C1007 1.376 . S
C1007 H994 0.930 . S
C1007 C1006 1.376 . S
C1007 C1008 1.388 . S
C1008 H995 0.930 . S
C1008 C1007 1.388 . S
C1008 C1009 1.390 . S
C1009 C1008 1.390 . S
C1009 C1010 1.394 . S
C1009 C1015 1.465 . S
C1010 C1005 1.399 . S
C1010 C1009 1.394 . S
C1010 C1011 1.516 . S
C1011 C1010 1.516 . S
C1011 C1012 1.502 . S
C1011 C1013 1.561 . S
C1011 C1014 1.526 . S
C1012 H996 0.959 . S
C1012 H997 0.959 . S
C1012 H998 0.961 . S
C1012 C1011 1.502 . S
C1013 H999 0.960 . S
C1013 H1000 0.961 . S
C1013 H1001 0.959 . S
C1013 C1011 1.561 . S
C1014 C1011 1.526 . S
C1014 C1015 1.396 . S
C1014 C1019 1.390 . S
C1015 C1009 1.465 . S
C1015 C1014 1.396 . S
C1015 C1016 1.399 . S
C1016 H1002 0.929 . S
C1016 C1015 1.399 . S
C1016 C1017 1.385 . S
C1017 H1003 0.931 . S
C1017 C1016 1.385 . S
C1017 C1018 1.389 . S
C1018 C1017 1.389 . S
C1018 C1019 1.387 . S
C1019 H1004 0.930 . S
C1019 C1014 1.390 . S
C1019 C1018 1.387 . S
H1020 C1032 0.930 . S
H1021 C1034 0.930 . S
H1022 C1035 0.930 . S
H1023 C1039 0.959 1_455 S
H1024 C1039 0.959 . S
H1025 C1039 0.961 1_455 S
H1026 C1040 0.960 . S
H1027 C1040 0.961 . S
H1028 C1040 0.959 . S
H1029 C1043 0.929 . S
H1030 C1044 0.931 . S
H1031 C1046 0.930 . S
C1032 H1020 0.930 . S
C1032 C1033 1.399 . S
C1032 C1037 1.399 . S
C1033 C1032 1.399 . S
C1033 C1034 1.376 . S
C1034 H1021 0.930 . S
C1034 C1033 1.376 . S
C1034 C1035 1.388 . S
C1035 H1022 0.930 . S
C1035 C1034 1.388 . S
C1035 C1036 1.390 . S
C1036 C1035 1.390 . S
C1036 C1037 1.394 . S
C1036 C1042 1.465 1_455 S
C1037 C1032 1.399 . S
C1037 C1036 1.394 . S
C1037 C1038 1.516 1_455 S
C1038 C1037 1.516 1_655 S
C1038 C1039 1.502 . S
C1038 C1040 1.561 . S
C1038 C1041 1.526 . S
C1039 H1023 0.959 1_655 S
C1039 H1024 0.959 . S
C1039 H1025 0.961 1_655 S
C1039 C1038 1.502 . S
C1040 H1026 0.960 . S
C1040 H1027 0.961 . S
C1040 H1028 0.959 . S
C1040 C1038 1.561 . S
C1041 C1038 1.526 . S
C1041 C1042 1.396 . S
C1041 C1046 1.390 . S
C1042 C1036 1.465 1_655 S
C1042 C1041 1.396 . S
C1042 C1043 1.399 . S
C1043 H1029 0.929 . S
C1043 C1042 1.399 . S
C1043 C1044 1.385 . S
C1044 H1030 0.931 . S
C1044 C1043 1.385 . S
C1044 C1045 1.389 . S
C1045 C1044 1.389 . S
C1045 C1046 1.387 . S
C1046 H1031 0.930 . S
C1046 C1041 1.390 . S
C1046 C1045 1.387 . S
H1047 C1059 0.930 1_554 S
H1048 C1061 0.930 . S
H1049 C1062 0.930 1_565 S
H1050 C1066 0.959 . S
H1051 C1066 0.959 . S
H1052 C1066 0.961 . S
H1053 C1067 0.960 . S
H1054 C1067 0.961 . S
H1055 C1067 0.959 . S
H1056 C1070 0.929 1_556 S
H1057 C1071 0.931 . S
H1058 C1073 0.930 . S
C1059 H1047 0.930 1_556 S
C1059 C1060 1.399 . S
C1059 C1064 1.399 1_556 S
C1060 C1059 1.399 . S
C1060 C1061 1.376 . S
C1061 H1048 0.930 . S
C1061 C1060 1.376 . S
C1061 C1062 1.388 . S
C1062 H1049 0.930 1_545 S
C1062 C1061 1.388 . S
C1062 C1063 1.390 . S
C1063 C1062 1.390 . S
C1063 C1064 1.394 1_556 S
C1063 C1069 1.465 1_546 S
C1064 C1059 1.399 1_554 S
C1064 C1063 1.394 1_554 S
C1064 C1065 1.516 . S
C1065 C1064 1.516 . S
C1065 C1066 1.502 . S
C1065 C1067 1.561 . S
C1065 C1068 1.526 1_545 S
C1066 H1050 0.959 . S
C1066 H1051 0.959 . S
C1066 H1052 0.961 . S
C1066 C1065 1.502 . S
C1067 H1053 0.960 . S
C1067 H1054 0.961 . S
C1067 H1055 0.959 . S
C1067 C1065 1.561 . S
C1068 C1065 1.526 1_565 S
C1068 C1069 1.396 . S
C1068 C1073 1.390 . S
C1069 C1063 1.465 1_564 S
C1069 C1068 1.396 . S
C1069 C1070 1.399 . S
C1070 H1056 0.929 1_554 S
C1070 C1069 1.399 . S
C1070 C1071 1.385 . S
C1071 H1057 0.931 . S
C1071 C1070 1.385 . S
C1071 C1072 1.389 . S
C1072 C1071 1.389 . S
C1072 C1073 1.387 . S
C1073 H1058 0.930 . S
C1073 C1068 1.390 . S
C1073 C1072 1.387 . S
H1074 C1086 0.930 . S
H1075 C1088 0.930 . S
H1076 C1089 0.930 . S
H1077 C1093 0.959 . S
H1078 C1093 0.959 . S
H1079 C1093 0.961 . S
H1080 C1094 0.960 . S
H1081 C1094 0.961 . S
H1082 C1094 0.959 . S
H1083 C1097 0.929 . S
H1084 C1098 0.931 . S
H1085 C1100 0.930 . S
C1086 H1074 0.930 . S
C1086 C1087 1.399 . S
C1086 C1091 1.399 . S
C1087 C1086 1.399 . S
C1087 C1088 1.376 . S
C1088 H1075 0.930 . S
C1088 C1087 1.376 . S
C1088 C1089 1.388 . S
C1089 H1076 0.930 . S
C1089 C1088 1.388 . S
C1089 C1090 1.390 . S
C1090 C1089 1.390 . S
C1090 C1091 1.394 . S
C1090 C1096 1.465 . S
C1091 C1086 1.399 . S
C1091 C1090 1.394 . S
C1091 C1092 1.516 . S
C1092 C1091 1.516 . S
C1092 C1093 1.502 . S
C1092 C1094 1.561 . S
C1092 C1095 1.526 . S
C1093 H1077 0.959 . S
C1093 H1078 0.959 . S
C1093 H1079 0.961 . S
C1093 C1092 1.502 . S
C1094 H1080 0.960 . S
C1094 H1081 0.961 . S
C1094 H1082 0.959 . S
C1094 C1092 1.561 . S
C1095 C1092 1.526 . S
C1095 C1096 1.396 . S
C1095 C1100 1.390 . S
C1096 C1090 1.465 . S
C1096 C1095 1.396 . S
C1096 C1097 1.399 . S
C1097 H1083 0.929 . S
C1097 C1096 1.399 . S
C1097 C1098 1.385 . S
C1098 H1084 0.931 . S
C1098 C1097 1.385 . S
C1098 C1099 1.389 . S
C1099 C1098 1.389 . S
C1099 C1100 1.387 . S
C1100 H1085 0.930 . S
C1100 C1095 1.390 . S
C1100 C1099 1.387 . S
H1101 C1113 0.930 . S
H1102 C1115 0.930 . S
H1103 C1116 0.930 . S
H1104 C1120 0.959 . S
H1105 C1120 0.959 . S
H1106 C1120 0.961 . S
H1107 C1121 0.960 . S
H1108 C1121 0.961 . S
H1109 C1121 0.959 . S
H1110 C1124 0.929 . S
H1111 C1125 0.931 . S
H1112 C1127 0.930 . S
C1113 H1101 0.930 . S
C1113 C1114 1.399 . S
C1113 C1118 1.399 . S
C1114 C1113 1.399 . S
C1114 C1115 1.376 . S
C1115 H1102 0.930 . S
C1115 C1114 1.376 . S
C1115 C1116 1.388 . S
C1116 H1103 0.930 . S
C1116 C1115 1.388 . S
C1116 C1117 1.390 . S
C1117 C1116 1.390 . S
C1117 C1118 1.394 . S
C1117 C1123 1.465 . S
C1118 C1113 1.399 . S
C1118 C1117 1.394 . S
C1118 C1119 1.516 . S
C1119 C1118 1.516 . S
C1119 C1120 1.502 . S
C1119 C1121 1.561 . S
C1119 C1122 1.526 . S
C1120 H1104 0.959 . S
C1120 H1105 0.959 . S
C1120 H1106 0.961 . S
C1120 C1119 1.502 . S
C1121 H1107 0.960 . S
C1121 H1108 0.961 . S
C1121 H1109 0.959 . S
C1121 C1119 1.561 . S
C1122 C1119 1.526 . S
C1122 C1123 1.396 . S
C1122 C1127 1.390 . S
C1123 C1117 1.465 . S
C1123 C1122 1.396 . S
C1123 C1124 1.399 . S
C1124 H1110 0.929 . S
C1124 C1123 1.399 . S
C1124 C1125 1.385 . S
C1125 H1111 0.931 . S
C1125 C1124 1.385 . S
C1125 C1126 1.389 . S
C1126 C1125 1.389 . S
C1126 C1127 1.387 . S
C1127 H1112 0.930 . S
C1127 C1122 1.390 . S
C1127 C1126 1.387 . S
H1128 C1140 0.930 . S
H1129 C1142 0.930 . S
H1130 C1143 0.930 . S
H1131 C1147 0.959 . S
H1132 C1147 0.959 . S
H1133 C1147 0.961 . S
H1134 C1148 0.960 . S
H1135 C1148 0.961 . S
H1136 C1148 0.959 . S
H1137 C1151 0.929 . S
H1138 C1152 0.931 . S
H1139 C1154 0.930 . S
C1140 H1128 0.930 . S
C1140 C1141 1.399 . S
C1140 C1145 1.399 . S
C1141 C1140 1.399 . S
C1141 C1142 1.376 . S
C1142 H1129 0.930 . S
C1142 C1141 1.376 . S
C1142 C1143 1.388 . S
C1143 H1130 0.930 . S
C1143 C1142 1.388 . S
C1143 C1144 1.390 . S
C1144 C1143 1.390 . S
C1144 C1145 1.394 . S
C1144 C1150 1.465 . S
C1145 C1140 1.399 . S
C1145 C1144 1.394 . S
C1145 C1146 1.516 . S
C1146 C1145 1.516 . S
C1146 C1147 1.502 . S
C1146 C1148 1.561 . S
C1146 C1149 1.526 . S
C1147 H1131 0.959 . S
C1147 H1132 0.959 . S
C1147 H1133 0.961 . S
C1147 C1146 1.502 . S
C1148 H1134 0.960 . S
C1148 H1135 0.961 . S
C1148 H1136 0.959 . S
C1148 C1146 1.561 . S
C1149 C1146 1.526 . S
C1149 C1150 1.396 . S
C1149 C1154 1.390 . S
C1150 C1144 1.465 . S
C1150 C1149 1.396 . S
C1150 C1151 1.399 . S
C1151 H1137 0.929 . S
C1151 C1150 1.399 . S
C1151 C1152 1.385 . S
C1152 H1138 0.931 . S
C1152 C1151 1.385 . S
C1152 C1153 1.389 . S
C1153 C1152 1.389 . S
C1153 C1154 1.387 . S
C1154 H1139 0.930 . S
C1154 C1149 1.390 . S
C1154 C1153 1.387 . S
H1155 C1167 0.930 . S
H1156 C1169 0.930 . S
H1157 C1170 0.930 . S
H1158 C1174 0.959 . S
H1159 C1174 0.959 . S
H1160 C1174 0.961 . S
H1161 C1175 0.960 . S
H1162 C1175 0.961 . S
H1163 C1175 0.959 . S
H1164 C1178 0.929 . S
H1165 C1179 0.931 . S
H1166 C1181 0.930 . S
C1167 H1155 0.930 . S
C1167 C1168 1.399 . S
C1167 C1172 1.399 . S
C1168 C1167 1.399 . S
C1168 C1169 1.376 . S
C1169 H1156 0.930 . S
C1169 C1168 1.376 . S
C1169 C1170 1.388 . S
C1170 H1157 0.930 . S
C1170 C1169 1.388 . S
C1170 C1171 1.390 . S
C1171 C1170 1.390 . S
C1171 C1172 1.394 . S
C1171 C1177 1.465 . S
C1172 C1167 1.399 . S
C1172 C1171 1.394 . S
C1172 C1173 1.516 . S
C1173 C1172 1.516 . S
C1173 C1174 1.502 . S
C1173 C1175 1.561 . S
C1173 C1176 1.526 . S
C1174 H1158 0.959 . S
C1174 H1159 0.959 . S
C1174 H1160 0.961 . S
C1174 C1173 1.502 . S
C1175 H1161 0.960 . S
C1175 H1162 0.961 . S
C1175 H1163 0.959 . S
C1175 C1173 1.561 . S
C1176 C1173 1.526 . S
C1176 C1177 1.396 . S
C1176 C1181 1.390 . S
C1177 C1171 1.465 . S
C1177 C1176 1.396 . S
C1177 C1178 1.399 . S
C1178 H1164 0.929 . S
C1178 C1177 1.399 . S
C1178 C1179 1.385 . S
C1179 H1165 0.931 . S
C1179 C1178 1.385 . S
C1179 C1180 1.389 . S
C1180 C1179 1.389 . S
C1180 C1181 1.387 . S
C1181 H1166 0.930 . S
C1181 C1176 1.390 . S
C1181 C1180 1.387 . S
H1182 C1194 0.930 . S
H1183 C1196 0.930 . S
H1184 C1197 0.930 . S
H1185 C1201 0.959 . S
H1186 C1201 0.959 . S
H1187 C1201 0.961 . S
H1188 C1202 0.960 . S
H1189 C1202 0.961 . S
H1190 C1202 0.959 . S
H1191 C1205 0.929 . S
H1192 C1206 0.931 . S
H1193 C1208 0.930 . S
C1194 H1182 0.930 . S
C1194 C1195 1.399 . S
C1194 C1199 1.399 . S
C1195 C1194 1.399 . S
C1195 C1196 1.376 . S
C1196 H1183 0.930 . S
C1196 C1195 1.376 . S
C1196 C1197 1.388 . S
C1197 H1184 0.930 . S
C1197 C1196 1.388 . S
C1197 C1198 1.390 . S
C1198 C1197 1.390 . S
C1198 C1199 1.394 . S
C1198 C1204 1.465 . S
C1199 C1194 1.399 . S
C1199 C1198 1.394 . S
C1199 C1200 1.516 . S
C1200 C1199 1.516 . S
C1200 C1201 1.502 . S
C1200 C1202 1.561 . S
C1200 C1203 1.526 . S
C1201 H1185 0.959 . S
C1201 H1186 0.959 . S
C1201 H1187 0.961 . S
C1201 C1200 1.502 . S
C1202 H1188 0.960 . S
C1202 H1189 0.961 . S
C1202 H1190 0.959 . S
C1202 C1200 1.561 . S
C1203 C1200 1.526 . S
C1203 C1204 1.396 . S
C1203 C1208 1.390 1_556 S
C1204 C1198 1.465 . S
C1204 C1203 1.396 . S
C1204 C1205 1.410 . S
C1205 H1191 0.929 . S
C1205 C1204 1.410 . S
C1205 C1206 1.373 1_556 S
C1206 H1192 0.931 . S
C1206 C1205 1.373 1_554 S
C1206 C1207 1.389 . S
C1207 C1206 1.389 . S
C1207 C1208 1.387 . S
C1208 H1193 0.930 . S
C1208 C1203 1.390 1_554 S
C1208 C1207 1.387 . S
H1209 C1221 0.930 . S
H1210 C1223 0.930 . S
H1211 C1224 0.930 . S
H1212 C1228 0.959 . S
H1213 C1228 0.959 . S
H1214 C1228 0.961 . S
H1215 C1229 0.960 . S
H1216 C1229 0.961 . S
H1217 C1229 0.959 . S
H1218 C1232 0.929 . S
H1219 C1233 0.931 . S
H1220 C1235 0.930 . S
C1221 H1209 0.930 . S
C1221 C1222 1.399 1_554 S
C1221 C1226 1.399 . S
C1222 C1221 1.399 1_556 S
C1222 C1223 1.376 . S
C1223 H1210 0.930 . S
C1223 C1222 1.376 . S
C1223 C1224 1.388 1_556 S
C1224 H1211 0.930 . S
C1224 C1223 1.388 1_554 S
C1224 C1225 1.390 . S
C1225 C1224 1.390 . S
C1225 C1226 1.394 . S
C1225 C1231 1.465 . S
C1226 C1221 1.399 . S
C1226 C1225 1.394 . S
C1226 C1227 1.516 . S
C1227 C1226 1.516 . S
C1227 C1228 1.502 . S
C1227 C1229 1.561 . S
C1227 C1230 1.526 . S
C1228 H1212 0.959 . S
C1228 H1213 0.959 . S
C1228 H1214 0.961 . S
C1228 C1227 1.502 . S
C1229 H1215 0.960 . S
C1229 H1216 0.961 . S
C1229 H1217 0.959 . S
C1229 C1227 1.561 . S
C1230 C1227 1.526 . S
C1230 C1231 1.396 . S
C1230 C1235 1.390 . S
C1231 C1225 1.465 . S
C1231 C1230 1.396 . S
C1231 C1232 1.399 . S
C1232 H1218 0.929 . S
C1232 C1231 1.399 . S
C1232 C1233 1.385 . S
C1233 H1219 0.931 . S
C1233 C1232 1.385 . S
C1233 C1234 1.389 . S
C1234 C1233 1.389 . S
C1234 C1235 1.387 . S
C1235 H1220 0.930 . S
C1235 C1230 1.390 . S
C1235 C1234 1.387 . S
C277 C229 1.215 . S
C289 C5 1.201 . S
C304 C31 1.224 . S
C316 C247 1.218 . S
C331 C141 1.225 . S
C343 C49 1.215 . S
C358 C75 1.217 . S
C370 C159 1.224 . S
C385 C93 1.202 . S
C397 C185 1.207 . S
C412 C203 1.201 . S
C424 C119 1.210 . S
C439 C6 1.264 . S
C451 C116 1.291 . S
C466 C29 1.257 . S
C478 C7 1.314 . S
C493 C28 1.339 . S
C505 C50 1.201 . S
C520 C73 1.229 . S
C532 C51 1.305 . S
C547 C94 1.263 . S
C559 C72 1.311 . S
C574 C117 1.254 . S
C586 C95 1.315 . S
C601 C139 1.277 . S
C613 C161 1.302 . S
C628 C160 1.257 . S
C640 C182 1.293 . S
C655 C183 1.239 . S
C667 C205 1.301 . S
C682 C226 1.308 . S
C694 C204 1.223 . S
C709 C249 1.282 . S
C721 C227 1.289 . S
C736 C138 1.345 . S
C748 C248 1.171 . S
C763 C4 1.305 . S
C775 C140 1.254 . S
C790 C158 1.267 . S
C802 C30 1.305 . S
C817 C48 1.260 . S
C829 C184 1.291 . S
C844 C74 1.293 . S
C856 C202 1.260 . S
C871 C228 1.259 . S
C883 C92 1.293 . S
C898 C118 1.296 . S
C910 C246 1.281 . S
C925 C9 1.203 . S
C937 C207 1.206 . S
C952 C225 1.117 . S
C964 C27 1.097 . S
C979 C251 1.137 . S
C991 C53 1.095 . S
C1006 C71 1.122 . S
C1018 C137 1.189 . S
C1033 C97 1.114 . S
C1045 C163 1.098 . S
C1060 C115 1.149 . S
C1072 C181 1.207 . S
C1087 C224 1.808 . S
C1099 C8 1.810 . S
C1114 C250 1.808 . S
C1126 C26 1.809 . S
C1141 C136 1.823 . S
C1153 C52 1.820 . S
C1168 C162 1.827 . S
C1180 C70 1.829 . S
C1195 C96 1.817 . S
C1207 C180 1.820 . S
C1222 C114 1.832 . S
C1234 C206 1.831 . S
