# Generated by pormake.
# Topology snk, (6)-cn, num edge types: 1
# Building blocks:
#     Node 0, Type 0, BuildingBlock: BETFAJ_clean_sbu_0, # of connection points: 6
#     Node 1, Type 0, BuildingBlock: BETFAJ_clean_sbu_0, # of connection points: 6
#     Node 2, Type 0, BuildingBlock: BETFAJ_clean_sbu_0, # of connection points: 6
#     Node 3, Type 0, BuildingBlock: BETFAJ_clean_sbu_0, # of connection points: 6
#     Node 4, Type 0, BuildingBlock: BETFAJ_clean_sbu_0, # of connection points: 6
#     Node 5, Type 0, BuildingBlock: BETFAJ_clean_sbu_0, # of connection points: 6
#     Node 6, Type 0, BuildingBlock: BETFAJ_clean_sbu_0, # of connection points: 6
#     Node 7, Type 0, BuildingBlock: BETFAJ_clean_sbu_0, # of connection points: 6
#     Edge 8, Type (0, 0), BuildingBlock: EZIPEK_clean_linker_0, # of connection points: 2
#     Edge 9, Type (0, 0), BuildingBlock: EZIPEK_clean_linker_0, # of connection points: 2
#     Edge 10, Type (0, 0), BuildingBlock: EZIPEK_clean_linker_0, # of connection points: 2
#     Edge 11, Type (0, 0), BuildingBlock: EZIPEK_clean_linker_0, # of connection points: 2
#     Edge 12, Type (0, 0), BuildingBlock: EZIPEK_clean_linker_0, # of connection points: 2
#     Edge 13, Type (0, 0), BuildingBlock: EZIPEK_clean_linker_0, # of connection points: 2
#     Edge 14, Type (0, 0), BuildingBlock: EZIPEK_clean_linker_0, # of connection points: 2
#     Edge 15, Type (0, 0), BuildingBlock: EZIPEK_clean_linker_0, # of connection points: 2
#     Edge 16, Type (0, 0), BuildingBlock: EZIPEK_clean_linker_0, # of connection points: 2
#     Edge 17, Type (0, 0), BuildingBlock: EZIPEK_clean_linker_0, # of connection points: 2
#     Edge 18, Type (0, 0), BuildingBlock: EZIPEK_clean_linker_0, # of connection points: 2
#     Edge 19, Type (0, 0), BuildingBlock: EZIPEK_clean_linker_0, # of connection points: 2
#     Edge 20, Type (0, 0), BuildingBlock: EZIPEK_clean_linker_0, # of connection points: 2
#     Edge 21, Type (0, 0), BuildingBlock: EZIPEK_clean_linker_0, # of connection points: 2
#     Edge 22, Type (0, 0), BuildingBlock: EZIPEK_clean_linker_0, # of connection points: 2
#     Edge 23, Type (0, 0), BuildingBlock: EZIPEK_clean_linker_0, # of connection points: 2
#     Edge 24, Type (0, 0), BuildingBlock: EZIPEK_clean_linker_0, # of connection points: 2
#     Edge 25, Type (0, 0), BuildingBlock: EZIPEK_clean_linker_0, # of connection points: 2
#     Edge 26, Type (0, 0), BuildingBlock: EZIPEK_clean_linker_0, # of connection points: 2
#     Edge 27, Type (0, 0), BuildingBlock: EZIPEK_clean_linker_0, # of connection points: 2
#     Edge 28, Type (0, 0), BuildingBlock: EZIPEK_clean_linker_0, # of connection points: 2
#     Edge 29, Type (0, 0), BuildingBlock: EZIPEK_clean_linker_0, # of connection points: 2
#     Edge 30, Type (0, 0), BuildingBlock: EZIPEK_clean_linker_0, # of connection points: 2
#     Edge 31, Type (0, 0), BuildingBlock: EZIPEK_clean_linker_0, # of connection points: 2
# Relax obj value: 0.121
# Max RMSD: 0.192
# Mean RMSD: 0.151
data_MOF--net-snk--node1-BETFAJ_clean_sbu_0--edge1-EZIPEK_clean_linker_0
_symmetry_space_group_name_H-M    P1
_symmetry_Int_Tables_number       1
_symmetry_cell_setting            triclinic
loop_
_symmetry_equiv_pos_as_xyz
'x, y, z'
_cell_length_a     26.823397
_cell_length_b     26.748174
_cell_length_c     21.275449
_cell_angle_alpha  81.799377
_cell_angle_beta   98.040144
_cell_angle_gamma 89.564022
loop_
_atom_site_label
_atom_site_type_symbol
_atom_site_fract_x
_atom_site_fract_y
_atom_site_fract_z
_atom_type_partial_charge
Sm0 Sm 0.98302 0.97103 0.45643 0.0
Sm1 Sm 0.01305 0.01569 0.58541 0.0
C2 C 0.94257 0.94707 0.34451 0.0
C3 C 0.95456 0.95702 0.27846 0.0
C4 C 0.91551 0.96597 0.22664 0.0
C5 C 0.92651 0.97553 0.16373 0.0
C6 C 0.97674 0.97601 0.15193 0.0
C7 C 0.01583 0.96738 0.20375 0.0
C8 C 0.00486 0.95826 0.26661 0.0
C9 C 0.05498 0.91904 0.54478 0.0
C10 C 0.07607 0.04748 0.46252 0.0
C11 C 0.0548 0.03905 0.69718 0.0
C12 C 0.04402 0.03055 0.76423 0.0
C13 C 0.07447 0.99654 0.81069 0.0
C14 C 0.06415 0.98762 0.87393 0.0
C15 C 0.02342 0.01279 0.89172 0.0
C16 C 0.99326 0.04712 0.8458 0.0
C17 C 0.00343 0.05598 0.78259 0.0
C18 C 0.94039 0.06794 0.49797 0.0
C19 C 0.91933 0.93988 0.57955 0.0
O20 O 0.92685 0.98607 0.36798 0.0
O21 O 0.9744 0.91733 0.38586 0.0
O22 O 0.01571 0.93945 0.55584 0.0
O23 O 0.05684 0.922 0.48361 0.0
O24 O 0.03981 0.02926 0.42423 0.0
O25 O 0.07798 0.03988 0.52591 0.0
O26 O 0.06901 0.99935 0.67376 0.0
O27 O 0.02395 0.06969 0.65561 0.0
O28 O 0.97947 0.04759 0.48593 0.0
O29 O 0.94012 0.06539 0.55942 0.0
O30 O 0.95483 0.95932 0.61764 0.0
O31 O 0.9186 0.94508 0.51633 0.0
H32 H 0.87654 0.96555 0.23488 0.0
H33 H 0.89594 0.98233 0.12422 0.0
H34 H 0.05477 0.9678 0.19546 0.0
H35 H 0.03567 0.9521 0.30589 0.0
H36 H 0.10612 0.97665 0.79802 0.0
H37 H 0.08782 0.96105 0.90898 0.0
H38 H 0.96171 0.06687 0.85891 0.0
H39 H 0.9793 0.08257 0.74818 0.0
Sm40 Sm 0.23375 0.73783 0.83568 0.0
Sm41 Sm 0.26752 0.7931 0.70828 0.0
C42 C 0.23175 0.69452 0.9554 0.0
C43 C 0.23798 0.7097 1.02028 0.0
C44 C 0.27832 0.73929 0.04167 0.0
C45 C 0.28292 0.75343 0.10318 0.0
C46 C 0.24707 0.73862 0.14391 0.0
C47 C 0.2067 0.70939 0.12246 0.0
C48 C 0.2023 0.69494 0.06127 0.0
C49 C 0.16879 0.8129 0.76905 0.0
C50 C 0.30393 0.84093 0.83667 0.0
C51 C 0.27038 0.83697 0.58892 0.0
C52 C 0.26661 0.82212 0.52412 0.0
C53 C 0.23479 0.78344 0.50614 0.0
C54 C 0.23176 0.77006 0.44441 0.0
C55 C 0.26056 0.79498 0.39982 0.0
C56 C 0.29242 0.83348 0.41783 0.0
C57 C 0.29538 0.84693 0.47949 0.0
C58 C 0.33307 0.72064 0.7783 0.0
C59 C 0.19478 0.69205 0.70462 0.0
O60 O 0.27184 0.69403 0.92658 0.0
O61 O 0.19135 0.71225 0.91657 0.0
O62 O 0.21613 0.81357 0.77605 0.0
O63 O 0.15426 0.77166 0.8005 0.0
O64 O 0.28858 0.79892 0.86855 0.0
O65 O 0.29317 0.85206 0.77363 0.0
O66 O 0.22935 0.83425 0.61604 0.0
O67 O 0.31087 0.82132 0.62903 0.0
O68 O 0.28591 0.71762 0.76914 0.0
O69 O 0.34803 0.76113 0.74564 0.0
O70 O 0.21422 0.73199 0.67354 0.0
O71 O 0.2013 0.68211 0.76816 0.0
H72 H 0.30615 0.75164 1.01092 0.0
H73 H 0.31423 0.77613 0.1189 0.0
H74 H 0.17869 0.69766 0.15322 0.0
H75 H 0.17084 0.6723 0.04579 0.0
H76 H 0.21229 0.7636 0.53971 0.0
H77 H 0.20699 0.74025 0.43138 0.0
H78 H 0.31496 0.85307 0.38412 0.0
H79 H 0.32018 0.87677 0.49236 0.0
Sm80 Sm 0.52316 0.96287 0.09618 0.0
Sm81 Sm 0.48866 0.02831 0.96043 0.0
C82 C 0.55595 0.93923 0.22086 0.0
C83 C 0.54311 0.9498 0.28375 0.0
C84 C 0.57781 0.9748 0.32354 0.0
C85 C 0.56732 0.98456 0.38347 0.0
C86 C 0.52195 0.96935 0.40517 0.0
C87 C 0.48702 0.94453 0.36556 0.0
C88 C 0.49744 0.93487 0.30541 0.0
C89 C 0.44714 0.92475 1.0183 0.0
C90 C 0.43878 0.05955 0.08307 0.0
C91 C 0.45274 0.05151 0.83679 0.0
C92 C 0.46296 0.03608 0.77544 0.0
C93 C 0.42334 0.03558 0.72485 0.0
C94 C 0.43258 0.02276 0.66576 0.0
C95 C 0.48169 0.0103 0.65612 0.0
C96 C 0.52123 0.00984 0.70713 0.0
C97 C 0.51194 0.02245 0.76631 0.0
C98 C 0.5633 0.0694 0.0367 0.0
C99 C 0.57734 0.93608 0.97583 0.0
O100 O 0.5727 0.97713 0.1843 0.0
O101 O 0.52636 0.91033 0.18811 0.0
O102 O 0.45241 0.97065 0.02484 0.0
O103 O 0.48067 0.89594 0.05788 0.0
O104 O 0.46559 0.02093 0.1179 0.0
O105 O 0.43938 0.06974 1.02005 0.0
O106 O 0.4325 0.01784 0.87586 0.0
O107 O 0.48756 0.07718 0.86668 0.0
O108 O 0.55835 0.02278 0.03342 0.0
O109 O 0.53278 0.09587 0.99068 0.0
O110 O 0.54274 0.9667 0.93847 0.0
O111 O 0.58152 0.93126 0.03949 0.0
H112 H 0.6133 0.9867 0.3083 0.0
H113 H 0.59474 0.00383 0.41312 0.0
H114 H 0.45172 0.9326 0.38128 0.0
H115 H 0.4698 0.91563 0.27605 0.0
H116 H 0.38527 0.04571 0.73081 0.0
H117 H 0.40154 0.02329 0.62715 0.0
H118 H 0.55937 0.00028 0.70085 0.0
H119 H 0.5431 0.02217 0.80466 0.0
Sm120 Sm 0.21612 0.26104 0.21058 0.0
Sm121 Sm 0.2856 0.23233 0.34358 0.0
C122 C 0.18517 0.28869 0.08573 0.0
C123 C 0.19721 0.27839 1.02219 0.0
C124 C 0.24405 0.29063 1.00197 0.0
C125 C 0.25419 0.28182 0.9414 0.0
C126 C 0.21759 0.26121 0.89927 0.0
C127 C 0.17069 0.24937 0.91897 0.0
C128 C 0.16065 0.25781 0.97975 0.0
C129 C 0.17843 0.19021 0.29746 0.0
C130 C 0.31439 0.17837 0.22345 0.0
C131 C 0.31496 0.20528 0.46848 0.0
C132 C 0.29788 0.21331 0.53027 0.0
C133 C 0.25144 0.19572 0.54723 0.0
C134 C 0.2368 0.20323 0.60623 0.0
C135 C 0.2681 0.22864 0.64932 0.0
C136 C 0.31418 0.24646 0.63232 0.0
C137 C 0.32895 0.23874 0.57363 0.0
C138 C 0.32452 0.30224 0.257 0.0
C139 C 0.19264 0.31942 0.32866 0.0
O140 O 0.21795 0.31355 0.12005 0.0
O141 O 0.16435 0.25275 0.1209 0.0
O142 O 0.22403 0.19314 0.28836 0.0
O143 O 0.15015 0.22299 0.25611 0.0
O144 O 0.27568 0.20494 0.18853 0.0
O145 O 0.32502 0.17972 0.28623 0.0
O146 O 0.28813 0.17647 0.43241 0.0
O147 O 0.33206 0.24471 0.43498 0.0
O148 O 0.27869 0.29897 0.26489 0.0
O149 O 0.35211 0.27242 0.30266 0.0
O150 O 0.22317 0.28485 0.36595 0.0
O151 O 0.18684 0.32245 0.26508 0.0
H152 H 0.27297 0.3071 0.03285 0.0
H153 H 0.29058 0.29136 0.92722 0.0
H154 H 0.14184 0.23355 0.88725 0.0
H155 H 0.12405 0.24853 0.99347 0.0
H156 H 0.22642 0.17609 0.51509 0.0
H157 H 0.20107 0.18917 0.61833 0.0
H158 H 0.33893 0.26609 0.66477 0.0
H159 H 0.36492 0.25261 0.56214 0.0
Sm160 Sm 0.73807 0.22343 0.337 0.0
Sm161 Sm 0.78087 0.27425 0.20784 0.0
C162 C 0.73556 0.17814 0.4556 0.0
C163 C 0.74067 0.19318 0.5203 0.0
C164 C 0.76652 0.23678 0.53387 0.0
C165 C 0.77049 0.25093 0.59524 0.0
C166 C 0.7484 0.22189 0.64384 0.0
C167 C 0.72244 0.17842 0.63022 0.0
C168 C 0.71865 0.16417 0.5689 0.0
C169 C 0.68073 0.30044 0.26427 0.0
C170 C 0.81881 0.31824 0.34289 0.0
C171 C 0.78433 0.32018 0.08977 0.0
C172 C 0.77693 0.30708 0.02376 0.0
C173 C 0.73322 0.28335 0.99938 0.0
C174 C 0.72775 0.27024 0.93737 0.0
C175 C 0.7659 0.28051 0.89879 0.0
C176 C 0.80935 0.3045 0.92279 0.0
C177 C 0.81476 0.31775 0.98469 0.0
C178 C 0.83829 0.198 0.2813 0.0
C179 C 0.70054 0.17854 0.20301 0.0
O180 O 0.77631 0.17985 0.42776 0.0
O181 O 0.69504 0.19516 0.41629 0.0
O182 O 0.7282 0.29706 0.27212 0.0
O183 O 0.66253 0.26703 0.30504 0.0
O184 O 0.79003 0.28507 0.3719 0.0
O185 O 0.82 0.32389 0.27997 0.0
O186 O 0.7444 0.32173 0.11885 0.0
O187 O 0.82415 0.29985 0.12787 0.0
O188 O 0.79083 0.20101 0.27261 0.0
O189 O 0.85683 0.23148 0.24096 0.0
O190 O 0.72722 0.21337 0.17285 0.0
O191 O 0.70128 0.17175 0.26626 0.0
H192 H 0.78347 0.25996 0.49707 0.0
H193 H 0.79068 0.28457 0.60483 0.0
H194 H 0.70514 0.15557 0.6671 0.0
H195 H 0.69838 0.13055 0.55935 0.0
H196 H 0.70344 0.27457 0.02826 0.0
H197 H 0.69398 0.25169 0.91964 0.0
H198 H 0.83917 0.3127 0.89369 0.0
H199 H 0.84875 0.33602 1.0023 0.0
Sm200 Sm 0.71469 0.76462 0.7037 0.0
Sm201 Sm 0.78506 0.72821 0.83664 0.0
C202 C 0.69265 0.7992 0.57912 0.0
C203 C 0.70594 0.78659 0.51694 0.0
C204 C 0.73255 0.82117 0.47869 0.0
C205 C 0.74408 0.81082 0.41926 0.0
C206 C 0.72923 0.76563 0.39639 0.0
C207 C 0.7031 0.73075 0.4347 0.0
C208 C 0.69158 0.74105 0.49419 0.0
C209 C 0.67559 0.69069 0.78341 0.0
C210 C 0.80771 0.67752 0.71064 0.0
C211 C 0.80863 0.69347 0.96109 0.0
C212 C 0.79578 0.70511 0.02401 0.0
C213 C 0.75023 0.68966 0.04588 0.0
C214 C 0.73921 0.69961 0.10573 0.0
C215 C 0.77349 0.72498 0.14553 0.0
C216 C 0.81899 0.7403 0.124 0.0
C217 C 0.83004 0.73039 0.06418 0.0
C218 C 0.82343 0.80241 0.75653 0.0
C219 C 0.69289 0.81638 0.8293 0.0
O220 O 0.7283 0.81762 0.61723 0.0
O221 O 0.66405 0.76816 0.6106 0.0
O222 O 0.72181 0.69457 0.77678 0.0
O223 O 0.64768 0.72243 0.74006 0.0
O224 O 0.76835 0.70456 0.67858 0.0
O225 O 0.82124 0.67738 0.77351 0.0
O226 O 0.77352 0.67427 0.92296 0.0
O227 O 0.83603 0.7258 0.92957 0.0
O228 O 0.77748 0.79807 0.76391 0.0
O229 O 0.85179 0.77074 0.79945 0.0
O230 O 0.73159 0.78845 0.86168 0.0
O231 O 0.67939 0.81658 0.7664 0.0
H232 H 0.74418 0.85655 0.4946 0.0
H233 H 0.76436 0.8383 0.39083 0.0
H234 H 0.69127 0.69561 0.41827 0.0
H235 H 0.67115 0.7134 0.52211 0.0
H236 H 0.72296 0.66977 1.01684 0.0
H237 H 0.7039 0.68733 0.12112 0.0
H238 H 0.84612 0.7598 0.15374 0.0
H239 H 0.86567 0.74234 0.04947 0.0
Sm240 Sm 0.49256 0.46504 0.95805 0.0
Sm241 Sm 0.51025 0.52365 0.07282 0.0
C242 C 0.46318 0.42384 0.85256 0.0
C243 C 0.47134 0.4354 0.78414 0.0
C244 C 0.43594 0.46445 0.73845 0.0
C245 C 0.4461 0.47938 0.6757 0.0
C246 C 0.49306 0.46783 0.65684 0.0
C247 C 0.52411 0.43146 0.70037 0.0
C248 C 0.51435 0.41693 0.76331 0.0
C249 C 0.57197 0.43082 0.05066 0.0
C250 C 0.57748 0.55121 0.95793 0.0
C251 C 0.53069 0.55348 0.18714 0.0
C252 C 0.5266 0.53799 0.25568 0.0
C253 C 0.49348 0.50051 0.27608 0.0
C254 C 0.48898 0.4885 0.34154 0.0
C255 C 0.51754 0.51386 0.38719 0.0
C256 C 0.5511 0.55064 0.36662 0.0
C257 C 0.55559 0.56255 0.30152 0.0
C258 C 0.45785 0.57834 0.96414 0.0
C259 C 0.42681 0.43505 0.07779 0.0
O260 O 0.43479 0.45552 0.87417 0.0
O261 O 0.50238 0.40769 0.89438 0.0
O262 O 0.52927 0.44489 0.06005 0.0
O263 O 0.57359 0.43227 0.98982 0.0
O264 O 0.54267 0.52945 0.92158 0.0
O265 O 0.57917 0.54565 1.02106 0.0
O266 O 0.56317 0.52823 0.16217 0.0
O267 O 0.48866 0.56545 0.14821 0.0
O268 O 0.45127 0.5322 0.98318 0.0
O269 O 0.49074 0.59697 1.00443 0.0
O270 O 0.44587 0.47404 0.10324 0.0
O271 O 0.44066 0.42172 0.02491 0.0
H272 H 0.40041 0.47617 0.75127 0.0
H273 H 0.41628 0.49982 0.6424 0.0
H274 H 0.55594 0.41287 0.68697 0.0
H275 H 0.54075 0.39109 0.79568 0.0
H276 H 0.47081 0.48101 0.24145 0.0
H277 H 0.46291 0.45999 0.35649 0.0
H278 H 0.57346 0.57057 0.40105 0.0
H279 H 0.58134 0.59151 0.28684 0.0
Sm280 Sm 0.01952 0.47049 0.59248 0.0
Sm281 Sm 0.99746 0.53495 0.45638 0.0
C282 C 0.05025 0.43513 0.71531 0.0
C283 C 0.04104 0.44912 0.77875 0.0
C284 C 0.08007 0.46834 0.81927 0.0
C285 C 0.07191 0.48133 0.87897 0.0
C286 C 0.02459 0.47509 0.9001 0.0
C287 C 0.98559 0.45573 0.85985 0.0
C288 C 0.99361 0.44305 0.80002 0.0
C289 C 0.94131 0.43845 0.51 0.0
C290 C 0.93435 0.5622 0.57259 0.0
C291 C 0.96831 0.57247 0.33376 0.0
C292 C 0.9752 0.55725 0.27029 0.0
C293 C 0.96089 0.50958 0.25392 0.0
C294 C 0.96835 0.49595 0.19428 0.0
C295 C 0.99055 0.52941 0.14958 0.0
C296 C 0.00484 0.57694 0.16593 0.0
C297 C 0.99714 0.59069 0.22534 0.0
C298 C 0.07473 0.56735 0.54116 0.0
C299 C 0.07777 0.43922 0.47354 0.0
O300 O 0.07688 0.46589 0.68041 0.0
O301 O 0.01269 0.41651 0.68048 0.0
O302 O 0.98253 0.45493 0.49516 0.0
O303 O 0.94193 0.43433 0.57171 0.0
O304 O 0.96806 0.5334 0.6134 0.0
O305 O 0.9344 0.56569 0.50932 0.0
O306 O 0.93961 0.5448 0.3691 0.0
O307 O 0.00833 0.58738 0.36802 0.0
O308 O 0.0331 0.55087 0.55418 0.0
O309 O 0.07512 0.57125 0.4797 0.0
O310 O 0.04556 0.47041 0.43388 0.0
O311 O 0.07899 0.43523 0.53717 0.0
H312 H 0.11705 0.47336 0.80475 0.0
H313 H 0.10267 0.49616 0.90888 0.0
H314 H 0.94875 0.45051 0.87475 0.0
H315 H 0.96249 0.42843 0.77049 0.0
H316 H 0.94408 0.48266 0.28724 0.0
H317 H 0.95694 0.45911 0.18306 0.0
H318 H 0.02201 0.6035 0.13256 0.0
H319 H 0.00858 0.6276 0.23631 0.0
C320 C 0.14089 0.0644 0.38766 0.0
C321 C 0.11195 0.0819 0.43164 0.0
C322 C 0.12894 0.16949 0.39033 0.0
C323 C 0.15849 0.1525 0.34642 0.0
N324 N 0.19887 0.08298 0.30991 0.0
N325 N 0.08989 0.1504 0.48633 0.0
C326 C 0.16693 0.09967 0.34772 0.0
C327 C 0.11002 0.13409 0.43696 0.0
N328 N 0.14215 0.01399 0.3828 0.0
N329 N 0.11695 0.21961 0.38619 0.0
H330 H 0.07352 0.1268 0.52038 0.0
H331 H 0.09353 0.18705 0.49728 0.0
H332 H 0.13135 0.24716 0.35506 0.0
H333 H 0.08963 0.23363 0.40991 0.0
H334 H 0.15645 0.99899 0.34624 0.0
H335 H 0.1268 0.98692 0.4144 0.0
H336 H 0.21151 0.04558 0.31446 0.0
H337 H 0.21512 0.10672 0.27574 0.0
C338 C 0.13432 0.90793 0.62102 0.0
C339 C 0.08808 0.88825 0.59654 0.0
C340 C 0.08678 0.83181 0.6968 0.0
C341 C 0.13587 0.84675 0.71853 0.0
N342 N 0.19485 0.91397 0.71541 0.0
N343 N 0.02509 0.82522 0.60446 0.0
C344 C 0.15667 0.8892 0.68459 0.0
C345 C 0.06568 0.84838 0.63266 0.0
N346 N 0.157 0.94373 0.58306 0.0
N347 N 0.05893 0.80507 0.73836 0.0
H348 H 0.01072 0.83515 0.55604 0.0
H349 H 0.0101 0.79258 0.62653 0.0
H350 H 0.07049 0.79887 0.78775 0.0
H351 H 0.02146 0.79622 0.72549 0.0
H352 H 0.19295 0.95668 0.59594 0.0
H353 H 0.14152 0.95702 0.53583 0.0
H354 H 0.20988 0.94717 0.69509 0.0
H355 H 0.20689 0.90472 0.76455 0.0
C356 C 0.321 0.89193 0.92751 0.0
C357 C 0.33729 0.87365 0.87405 0.0
C358 C 0.42482 0.8862 0.91705 0.0
C359 C 0.40903 0.90669 0.96926 0.0
N360 N 0.34127 0.93684 1.01895 0.0
N361 N 0.40344 0.86954 0.8082 0.0
C362 C 0.35675 0.91244 0.97252 0.0
C363 C 0.38864 0.87668 0.86527 0.0
N364 N 0.27145 0.88872 0.93576 0.0
N365 N 0.47419 0.87318 0.91799 0.0
H366 H 0.37878 0.86146 0.76896 0.0
H367 H 0.43972 0.8768 0.79765 0.0
H368 H 0.50141 0.87669 0.95656 0.0
H369 H 0.48697 0.85331 0.88436 0.0
H370 H 0.258 0.89506 0.97762 0.0
H371 H 0.24386 0.87771 0.90113 0.0
H372 H 0.30385 0.9471 1.01962 0.0
H373 H 0.36619 0.94951 0.05509 0.0
C374 C 0.41814 0.08952 0.18648 0.0
C375 C 0.40787 0.0919 0.11818 0.0
C376 C 0.34752 0.16102 0.12051 0.0
C377 C 0.34787 0.14869 0.18833 0.0
N378 N 0.37851 0.08722 0.28173 0.0
N379 N 0.34818 0.12425 0.0238 0.0
C380 C 0.38149 0.10862 0.2203 0.0
C381 C 0.3681 0.12575 0.08604 0.0
N382 N 0.46393 0.07286 0.21949 0.0
N383 N 0.33141 0.20752 0.08876 0.0
H384 H 0.35645 0.09555 0.99835 0.0
H385 H 0.31774 0.14766 1.00109 0.0
H386 H 0.32431 0.2378 0.11237 0.0
H387 H 0.33366 0.21792 0.04008 0.0
H388 H 0.47275 0.07321 0.26867 0.0
H389 H 0.49527 0.06739 0.19707 0.0
H390 H 0.4013 0.05617 0.30423 0.0
H391 H 0.34927 0.09524 0.30645 0.0
C392 C 0.85247 0.92508 0.6516 0.0
C393 C 0.88365 0.90597 0.61137 0.0
C394 C 0.87659 0.82039 0.66701 0.0
C395 C 0.84315 0.8384 0.7058 0.0
N396 N 0.79524 0.90833 0.73053 0.0
N397 N 0.90992 0.83406 0.56647 0.0
C398 C 0.82919 0.89082 0.69599 0.0
C399 C 0.89053 0.85325 0.61433 0.0
N400 N 0.84652 0.9762 0.64861 0.0
N401 N 0.89692 0.77242 0.681 0.0
H402 H 0.91967 0.8565 0.52616 0.0
H403 H 0.91133 0.79556 0.56346 0.0
H404 H 0.88651 0.74493 0.71591 0.0
H405 H 0.92671 0.76053 0.65957 0.0
H406 H 0.82984 0.99335 0.68169 0.0
H407 H 0.86023 0.00177 0.6137 0.0
H408 H 0.77876 0.94446 0.71993 0.0
H409 H 0.78195 0.88633 0.76877 0.0
C410 C 0.86872 0.08719 0.41164 0.0
C411 C 0.91061 0.10447 0.44929 0.0
C412 C 0.90983 0.18284 0.37399 0.0
C413 C 0.86784 0.16478 0.33539 0.0
N414 N 0.82054 0.09329 0.3063 0.0
N415 N 0.96779 0.16984 0.47405 0.0
C416 C 0.85071 0.11521 0.35128 0.0
C417 C 0.93069 0.15246 0.43225 0.0
N418 N 0.84549 0.04445 0.43436 0.0
N419 N 0.93006 0.22849 0.35542 0.0
H420 H 0.98245 0.14884 0.51797 0.0
H421 H 0.98167 0.20615 0.46849 0.0
H422 H 0.91308 0.25571 0.31894 0.0
H423 H 0.96489 0.23988 0.37574 0.0
H424 H 0.81174 0.03246 0.41145 0.0
H425 H 0.85719 0.02417 0.47974 0.0
H426 H 0.81108 0.05539 0.31295 0.0
H427 H 0.81039 0.11119 0.25929 0.0
C428 C 0.67097 0.09467 0.16882 0.0
C429 C 0.66604 0.14823 0.16274 0.0
C430 C 0.58766 0.14427 0.09097 0.0
C431 C 0.59767 0.09312 0.08536 0.0
N432 N 0.65832 0.02262 0.11209 0.0
N433 N 0.62622 0.22384 0.0973 0.0
C434 C 0.64187 0.06869 0.12261 0.0
C435 C 0.62684 0.17308 0.11713 0.0
N436 N 0.7037 0.06851 0.21734 0.0
N437 N 0.5402 0.16527 0.07519 0.0
H438 H 0.65308 0.24804 0.11479 0.0
H439 H 0.60059 0.24084 0.05855 0.0
H440 H 0.50846 0.14399 0.0652 0.0
H441 H 0.53189 0.20208 0.08211 0.0
H442 H 0.70514 0.02914 0.22688 0.0
H443 H 0.72575 0.08611 0.25146 0.0
H444 H 0.69265 0.00595 0.13469 0.0
H445 H 0.64119 0.00363 0.07593 0.0
C446 C 0.65451 0.90026 0.84834 0.0
C447 C 0.66379 0.84734 0.86752 0.0
C448 C 0.61773 0.85241 0.96024 0.0
C449 C 0.611 0.90562 0.94294 0.0
N450 N 0.63545 0.98122 0.88013 0.0
N451 N 0.66247 0.77569 0.95195 0.0
C452 C 0.63269 0.92972 0.88942 0.0
C453 C 0.64827 0.82445 0.92667 0.0
N454 N 0.66742 0.92312 0.79149 0.0
N455 N 0.5925 0.82735 1.00628 0.0
H456 H 0.67908 0.7504 0.92783 0.0
H457 H 0.65965 0.76064 0.99923 0.0
H458 H 0.5701 0.84513 0.03305 0.0
H459 H 0.58998 0.78816 1.01413 0.0
H460 H 0.65516 0.95957 0.77075 0.0
H461 H 0.68812 0.90507 0.76301 0.0
H462 H 0.65512 0.00117 0.84623 0.0
H463 H 0.62289 0.00388 0.91112 0.0
C464 C 0.60504 0.6387 0.92214 0.0
C465 C 0.61219 0.58594 0.92495 0.0
C466 C 0.66845 0.60179 0.84227 0.0
C467 C 0.6548 0.65428 0.83291 0.0
N468 N 0.60046 0.72014 0.85682 0.0
N469 N 0.65035 0.51619 0.88774 0.0
C470 C 0.62024 0.67194 0.87056 0.0
C471 C 0.64422 0.56723 0.88532 0.0
N472 N 0.58482 0.65765 0.96959 0.0
N473 N 0.70323 0.58452 0.80868 0.0
H474 H 0.63636 0.49028 0.92199 0.0
H475 H 0.6675 0.4994 0.85474 0.0
H476 H 0.7173 0.60673 0.77122 0.0
H477 H 0.71964 0.54837 0.81934 0.0
H478 H 0.58289 0.69615 0.97264 0.0
H479 H 0.57634 0.63508 1.01046 0.0
H480 H 0.5698 0.73185 0.87682 0.0
H481 H 0.61249 0.7481 0.82369 0.0
C482 C 0.66711 0.38398 0.19442 0.0
C483 C 0.6505 0.33412 0.2109 0.0
C484 C 0.58504 0.34658 0.11671 0.0
C485 C 0.6032 0.39543 0.09978 0.0
N486 N 0.66671 0.4573 0.11289 0.0
N487 N 0.58709 0.27094 0.19417 0.0
C488 C 0.64586 0.41313 0.13575 0.0
C489 C 0.60731 0.31631 0.1743 0.0
N490 N 0.7 0.40503 0.23761 0.0
N491 N 0.5477 0.32851 0.07578 0.0
H492 H 0.60503 0.2431 0.22907 0.0
H493 H 0.55147 0.26008 0.17587 0.0
H494 H 0.53172 0.34916 0.03221 0.0
H495 H 0.53386 0.29228 0.08241 0.0
H496 H 0.70977 0.44282 0.23116 0.0
H497 H 0.71285 0.38643 0.2836 0.0
H498 H 0.70093 0.46989 0.13361 0.0
H499 H 0.65229 0.47875 0.06917 0.0
C500 C 0.87264 0.43187 0.41857 0.0
C501 C 0.90873 0.40778 0.46891 0.0
C502 C 0.88321 0.32527 0.44028 0.0
C503 C 0.8512 0.3495 0.3846 0.0
N504 N 0.82105 0.42757 0.31693 0.0
N505 N 0.95502 0.33202 0.52096 0.0
C506 C 0.84791 0.40332 0.37229 0.0
C507 C 0.91577 0.35463 0.47799 0.0
N508 N 0.86 0.48165 0.41685 0.0
N509 N 0.88254 0.27418 0.45834 0.0
H510 H 0.97978 0.35187 0.54993 0.0
H511 H 0.96602 0.29425 0.52352 0.0
H512 H 0.86285 0.24955 0.43115 0.0
H513 H 0.89925 0.25624 0.50312 0.0
H514 H 0.83015 0.5003 0.38546 0.0
H515 H 0.87627 0.50305 0.45122 0.0
H516 H 0.82264 0.46632 0.30229 0.0
H517 H 0.80007 0.40897 0.283 0.0
C518 C 0.85336 0.67044 0.61349 0.0
C519 C 0.83771 0.64735 0.67252 0.0
C520 C 0.8739 0.56628 0.65362 0.0
C521 C 0.89664 0.59122 0.60142 0.0
N522 N 0.91325 0.67004 0.53829 0.0
N523 N 0.83509 0.57162 0.74889 0.0
C524 C 0.88728 0.64393 0.58267 0.0
C525 C 0.84903 0.5949 0.69282 0.0
N526 N 0.83634 0.71792 0.58581 0.0
N527 N 0.87337 0.51466 0.66352 0.0
H528 H 0.81179 0.58867 0.77537 0.0
H529 H 0.84867 0.53585 0.77081 0.0
H530 H 0.88793 0.49251 0.63347 0.0
H531 H 0.85342 0.49393 0.6965 0.0
H532 H 0.83988 0.73238 0.53854 0.0
H533 H 0.81681 0.74256 0.60773 0.0
H534 H 0.91302 0.70936 0.529 0.0
H535 H 0.93871 0.65311 0.51468 0.0
C536 C 0.32282 0.3817 0.17192 0.0
C537 C 0.34598 0.33483 0.2041 0.0
C538 C 0.4221 0.35706 0.15633 0.0
C539 C 0.39729 0.39979 0.11782 0.0
N540 N 0.32064 0.44888 0.08122 0.0
N541 N 0.41222 0.27201 0.20466 0.0
C542 C 0.34633 0.41064 0.12274 0.0
C543 C 0.39378 0.32059 0.18931 0.0
N544 N 0.28082 0.40082 0.19065 0.0
N545 N 0.47331 0.35246 0.16525 0.0
H546 H 0.39155 0.24237 0.2237 0.0
H547 H 0.44543 0.26021 0.19012 0.0
H548 H 0.49584 0.38046 0.14603 0.0
H549 H 0.49294 0.32425 0.19864 0.0
H550 H 0.26575 0.43684 0.17252 0.0
H551 H 0.26396 0.38367 0.22894 0.0
H552 H 0.28196 0.45538 0.07826 0.0
H553 H 0.33738 0.47115 0.04596 0.0
C554 C 0.41026 0.60221 0.85195 0.0
C555 C 0.42205 0.61146 0.91646 0.0
C556 C 0.38546 0.69615 0.88486 0.0
C557 C 0.36647 0.6841 0.82364 0.0
N558 N 0.35477 0.62209 0.75124 0.0
N559 N 0.40543 0.66265 0.99673 0.0
C560 C 0.3764 0.63572 0.80811 0.0
C561 C 0.40474 0.65698 0.93382 0.0
N562 N 0.43433 0.56435 0.83079 0.0
N563 N 0.38745 0.74502 0.89573 0.0
H564 H 0.4156 0.63321 0.03424 0.0
H565 H 0.38977 0.69443 1.01067 0.0
H566 H 0.3797 0.77454 0.85822 0.0
H567 H 0.40384 0.75568 0.93906 0.0
H568 H 0.43154 0.56031 0.78244 0.0
H569 H 0.46142 0.54104 0.86057 0.0
H570 H 0.35724 0.58529 0.74082 0.0
H571 H 0.33167 0.64667 0.71651 0.0
C572 C 0.17627 0.60668 0.66879 0.0
C573 C 0.16315 0.65881 0.66516 0.0
C574 C 0.09185 0.65023 0.58091 0.0
C575 C 0.1061 0.59885 0.58274 0.0
N576 N 0.16293 0.52816 0.62374 0.0
N577 N 0.11096 0.73142 0.61419 0.0
C578 C 0.1485 0.57699 0.62572 0.0
C579 C 0.12166 0.6808 0.62017 0.0
N580 N 0.21572 0.58581 0.71276 0.0
N581 N 0.04853 0.66948 0.54309 0.0
H582 H 0.12693 0.75426 0.64684 0.0
H583 H 0.08799 0.75141 0.57507 0.0
H584 H 0.02727 0.64953 0.51064 0.0
H585 H 0.03176 0.70409 0.54621 0.0
H586 H 0.22428 0.54729 0.72328 0.0
H587 H 0.23958 0.60694 0.741 0.0
H588 H 0.19588 0.51047 0.64891 0.0
H589 H 0.14268 0.50544 0.5939 0.0
C590 C 0.18946 0.38001 0.41034 0.0
C591 C 0.16336 0.35376 0.36213 0.0
C592 C 0.08315 0.37572 0.39757 0.0
C593 C 0.1087 0.40496 0.44237 0.0
N594 N 0.18596 0.44041 0.48531 0.0
N595 N 0.08355 0.33568 0.3025 0.0
C596 C 0.16191 0.4082 0.4475 0.0
C597 C 0.10972 0.35464 0.35331 0.0
N598 N 0.24096 0.37869 0.42009 0.0
N599 N 0.03333 0.36609 0.39923 0.0
H600 H 0.10047 0.31778 0.27035 0.0
H601 H 0.04482 0.34122 0.28912 0.0
H602 H 0.01297 0.37971 0.43178 0.0
H603 H 0.01362 0.34039 0.37346 0.0
H604 H 0.26237 0.39022 0.4599 0.0
H605 H 0.26256 0.36448 0.38917 0.0
H606 H 0.22364 0.44954 0.48573 0.0
H607 H 0.16725 0.46082 0.51354 0.0
C608 C 0.98647 0.95874 0.97918 0.0
C609 C 0.01197 0.00305 0.9586 0.0
C610 C 0.01004 0.03182 0.06264 0.0
C611 C 0.98858 0.98547 0.08511 0.0
N612 N 0.96408 0.90111 0.06888 0.0
N613 N 0.05534 0.07808 0.98296 0.0
C614 C 0.97886 0.94786 0.04448 0.0
C615 C 0.02588 0.03858 1.00102 0.0
N616 N 0.96827 0.92779 0.93589 0.0
N617 N 0.01364 0.07004 0.09928 0.0
H618 H 0.06732 0.08448 0.93798 0.0
H619 H 0.07138 0.10205 1.01422 0.0
H620 H 1.00211 0.06665 0.1445 0.0
H621 H 0.02395 0.10649 0.08278 0.0
H622 H 0.94444 0.89812 0.94628 0.0
H623 H 0.9736 0.93419 0.88778 0.0
H624 H 0.96165 0.87047 0.04352 0.0
H625 H 0.95832 0.89156 0.11655 0.0
C626 C 0.22981 0.8122 0.28107 0.0
C627 C 0.25747 0.78071 0.3341 0.0
C628 C 0.27633 0.72044 0.2629 0.0
C629 C 0.2516 0.75362 0.20933 0.0
N630 N 0.21047 0.83391 0.16533 0.0
N631 N 0.3133 0.70884 0.37508 0.0
C632 C 0.23005 0.80041 0.21785 0.0
C633 C 0.28241 0.73583 0.3249 0.0
N634 N 0.20177 0.85237 0.29148 0.0
N635 N 0.29321 0.67378 0.25459 0.0
H636 H 0.31844 0.71874 0.42118 0.0
H637 H 0.33687 0.67895 0.37026 0.0
H638 H 0.29127 0.66196 0.20968 0.0
H639 H 0.30608 0.64546 0.29236 0.0
H640 H 0.17639 0.87358 0.256 0.0
H641 H 0.20082 0.8623 0.33698 0.0
H642 H 0.19946 0.87093 0.16764 0.0
H643 H 0.20849 0.82595 0.11847 0.0
C644 C 0.4893 0.03955 0.5397 0.0
C645 C 0.49194 0.99952 0.59183 0.0
C646 C 0.51813 0.94045 0.52294 0.0
C647 C 0.51117 0.97956 0.46951 0.0
N648 N 0.48326 0.06465 0.42472 0.0
N649 N 0.50154 0.91039 0.63109 0.0
C650 C 0.49476 0.02864 0.47731 0.0
C651 C 0.50442 0.94951 0.5829 0.0
N652 N 0.48356 0.08837 0.55031 0.0
N653 N 0.5393 0.89504 0.51688 0.0
H654 H 0.49164 0.91553 0.67549 0.0
H655 H 0.50487 0.87254 0.62545 0.0
H656 H 0.54923 0.88683 0.47369 0.0
H657 H 0.55076 0.867 0.55556 0.0
H658 H 0.48689 0.11962 0.51603 0.0
H659 H 0.47978 0.09803 0.59523 0.0
H660 H 0.46529 0.0991 0.42579 0.0
H661 H 0.48814 0.05847 0.37873 0.0
C662 C 0.24969 0.20491 0.8268 0.0
C663 C 0.2285 0.25216 0.83442 0.0
C664 C 0.22785 0.28175 0.71902 0.0
C665 C 0.25313 0.23619 0.71278 0.0
N666 N 0.29335 0.15652 0.76167 0.0
N667 N 0.20103 0.33738 0.78974 0.0
C668 C 0.26539 0.1983 0.76698 0.0
C669 C 0.2185 0.29108 0.78094 0.0
N670 N 0.2537 0.1659 0.87647 0.0
N671 N 0.21186 0.31564 0.66536 0.0
H672 H 0.19211 0.34501 0.83367 0.0
H673 H 0.19822 0.36919 0.75488 0.0
H674 H 0.21894 0.31053 0.61968 0.0
H675 H 0.18854 0.34698 0.66502 0.0
H676 H 0.26378 0.12898 0.87238 0.0
H677 H 0.24306 0.16952 0.92096 0.0
H678 H 0.30875 0.13036 0.80069 0.0
H679 H 0.3043 0.14967 0.71844 0.0
C680 C 0.73094 0.29539 0.78117 0.0
C681 C 0.76085 0.2653 0.8335 0.0
C682 C 0.7857 0.20922 0.76061 0.0
C683 C 0.75265 0.23691 0.70925 0.0
N684 N 0.68784 0.30154 0.67203 0.0
N685 N 0.81038 0.18927 0.87571 0.0
C686 C 0.7236 0.27875 0.71991 0.0
C687 C 0.78646 0.22094 0.82395 0.0
N688 N 0.71067 0.34059 0.78967 0.0
N689 N 0.81768 0.17283 0.74847 0.0
H690 H 0.81218 0.19682 0.92273 0.0
H691 H 0.82488 0.1536 0.87273 0.0
H692 H 0.81825 0.16313 0.70279 0.0
H693 H 0.84649 0.15517 0.78245 0.0
H694 H 0.69326 0.36696 0.75211 0.0
H695 H 0.71464 0.35365 0.83398 0.0
H696 H 0.66172 0.3286 0.6787 0.0
H697 H 0.68145 0.29049 0.62657 0.0
C698 C 0.7122 0.78048 0.2746 0.0
C699 C 0.74053 0.75511 0.332 0.0
C700 C 0.78735 0.70692 0.26731 0.0
C701 C 0.76192 0.73526 0.20991 0.0
N702 N 0.70526 0.80417 0.15895 0.0
N703 N 0.81018 0.69957 0.38302 0.0
C704 C 0.72569 0.77345 0.21363 0.0
C705 C 0.77952 0.71977 0.32829 0.0
N706 N 0.67129 0.81018 0.27829 0.0
N707 N 0.81778 0.66651 0.26359 0.0
H708 H 0.80539 0.70764 0.42837 0.0
H709 H 0.84273 0.67807 0.38317 0.0
H710 H 0.82449 0.65598 0.2201 0.0
H711 H 0.83307 0.6409 0.30327 0.0
H712 H 0.64571 0.82531 0.2386 0.0
H713 H 0.66044 0.8165 0.32177 0.0
H714 H 0.68294 0.8362 0.15884 0.0
H715 H 0.71387 0.80006 0.11361 0.0
C716 C 0.5502 0.47303 0.56735 0.0
C717 C 0.50643 0.48927 0.59048 0.0
C718 C 0.4748 0.5302 0.48084 0.0
C719 C 0.5122 0.50354 0.45675 0.0
N720 N 0.58561 0.44773 0.47796 0.0
N721 N 0.45455 0.56524 0.57285 0.0
C722 C 0.54986 0.47428 0.50028 0.0
C723 C 0.47564 0.52702 0.54838 0.0
N724 N 0.59493 0.46651 0.60721 0.0
N725 N 0.43846 0.55878 0.43949 0.0
H726 H 0.46287 0.56929 0.62127 0.0
H727 H 0.43559 0.59647 0.54441 0.0
H728 H 0.43738 0.56345 0.38979 0.0
H729 H 0.4074 0.57465 0.45466 0.0
H730 H 0.62892 0.4587 0.59159 0.0
H731 H 0.59903 0.4775 0.65277 0.0
H732 H 0.61106 0.42233 0.50827 0.0
H733 H 0.58697 0.44795 0.42913 0.0
C734 C 0.98299 0.5303 0.96717 0.0
C735 C 0.01577 0.48885 0.96423 0.0
C736 C 0.03509 0.47648 0.08256 0.0
C737 C 0.99886 0.51489 0.08566 0.0
N738 N 0.93156 0.57196 0.0307 0.0
N739 N 0.06599 0.41666 1.02018 0.0
C740 C 0.97093 0.54 0.02781 0.0
C741 C 0.03988 0.46033 1.02231 0.0
N742 N 0.96471 0.56166 0.91212 0.0
N743 N 0.06631 0.45655 0.1369 0.0
H744 H 0.06996 0.40329 0.97738 0.0
H745 H 0.0798 0.39132 0.06086 0.0
H746 H 0.06432 0.46747 0.18165 0.0
H747 H 0.09703 0.43255 0.13675 0.0
H748 H 0.94514 0.59552 0.91168 0.0
H749 H 0.973 0.55629 0.86705 0.0
H750 H 0.90633 0.58719 0.99068 0.0
H751 H 0.92119 0.57965 0.07388 0.0
loop_
_geom_bond_atom_site_label_1
_geom_bond_atom_site_label_2
_geom_bond_distance
_geom_bond_site_symmetry_2
_ccdc_geom_bond_type
Sm0 C2 2.846 1_655 S
Sm0 O20 2.543 1_565 S
Sm0 O21 2.450 1_655 S
Sm0 O22 2.681 1_655 S
Sm0 O23 2.464 1_655 S
Sm0 O24 2.396 1_665 S
Sm0 O28 2.386 1_565 S
Sm0 O31 2.408 . S
Sm1 C11 2.846 1_455 S
Sm1 O22 2.386 1_545 S
Sm1 O25 2.408 . S
Sm1 O26 2.543 1_545 S
Sm1 O27 2.450 1_455 S
Sm1 O28 2.681 1_455 S
Sm1 O29 2.464 1_455 S
Sm1 O30 2.396 1_445 S
C2 Sm0 2.846 1_455 S
C2 C3 1.506 . S
C2 O20 1.261 1_465 S
C2 O21 1.242 . S
C3 C2 1.506 . S
C3 C4 1.358 1_565 S
C3 C8 1.382 . S
C4 C3 1.358 1_545 S
C4 C5 1.385 . S
C4 H32 0.930 1_455 S
C5 C4 1.385 . S
C5 C6 1.395 1_545 S
C5 H33 0.929 . S
C6 C5 1.395 1_565 S
C6 C7 1.335 . S
C7 C6 1.335 . S
C7 C8 1.398 . S
C7 H34 0.930 . S
C8 C3 1.382 . S
C8 C7 1.398 . S
C8 H35 0.929 . S
C9 O22 1.271 . S
C9 O23 1.251 . S
C10 O24 1.252 . S
C10 O25 1.272 . S
C11 Sm1 2.846 1_655 S
C11 C12 1.506 . S
C11 O26 1.261 1_645 S
C11 O27 1.242 . S
C12 C11 1.506 . S
C12 C13 1.358 1_545 S
C12 C17 1.382 . S
C13 C12 1.358 1_565 S
C13 C14 1.385 . S
C13 H36 0.930 1_655 S
C14 C13 1.385 . S
C14 C15 1.395 1_565 S
C14 H37 0.929 . S
C15 C14 1.395 1_545 S
C15 C16 1.335 . S
C16 C15 1.335 . S
C16 C17 1.398 . S
C16 H38 0.930 . S
C17 C12 1.382 . S
C17 C16 1.398 . S
C17 H39 0.929 . S
C18 O28 1.271 . S
C18 O29 1.251 . S
C19 O30 1.252 . S
C19 O31 1.272 . S
O20 Sm0 2.543 1_545 S
O20 C2 1.261 1_645 S
O21 Sm0 2.450 1_455 S
O21 C2 1.242 . S
O22 Sm0 2.681 1_455 S
O22 Sm1 2.386 1_565 S
O22 C9 1.271 . S
O23 Sm0 2.464 1_455 S
O23 C9 1.251 . S
O24 Sm0 2.396 1_445 S
O24 C10 1.252 . S
O25 Sm1 2.408 . S
O25 C10 1.272 . S
O26 Sm1 2.543 1_565 S
O26 C11 1.261 1_465 S
O27 Sm1 2.450 1_655 S
O27 C11 1.242 . S
O28 Sm0 2.386 1_545 S
O28 Sm1 2.681 1_655 S
O28 C18 1.271 . S
O29 Sm1 2.464 1_655 S
O29 C18 1.251 . S
O30 Sm1 2.396 1_665 S
O30 C19 1.252 . S
O31 Sm0 2.408 . S
O31 C19 1.272 . S
H32 C4 0.930 1_655 S
H33 C5 0.929 . S
H34 C7 0.930 . S
H35 C8 0.929 . S
H36 C13 0.930 1_455 S
H37 C14 0.929 . S
H38 C16 0.930 . S
H39 C17 0.929 . S
Sm40 C42 2.846 . S
Sm40 O60 2.543 . S
Sm40 O61 2.450 . S
Sm40 O62 2.681 . S
Sm40 O63 2.464 . S
Sm40 O64 2.396 . S
Sm40 O68 2.386 . S
Sm40 O71 2.408 . S
Sm41 C51 2.846 . S
Sm41 O62 2.386 . S
Sm41 O65 2.408 . S
Sm41 O66 2.543 . S
Sm41 O67 2.450 . S
Sm41 O68 2.681 . S
Sm41 O69 2.464 . S
Sm41 O70 2.396 . S
C42 Sm40 2.846 . S
C42 C43 1.506 1_556 S
C42 O60 1.261 . S
C42 O61 1.242 . S
C43 C42 1.506 1_554 S
C43 C44 1.358 . S
C43 C48 1.382 . S
C44 C43 1.358 . S
C44 C45 1.385 . S
C44 H72 0.930 . S
C45 C44 1.385 . S
C45 C46 1.395 . S
C45 H73 0.929 . S
C46 C45 1.395 . S
C46 C47 1.335 . S
C47 C46 1.335 . S
C47 C48 1.398 . S
C47 H74 0.930 . S
C48 C43 1.382 . S
C48 C47 1.398 . S
C48 H75 0.929 1_554 S
C49 O62 1.271 . S
C49 O63 1.251 . S
C50 O64 1.252 . S
C50 O65 1.272 . S
C51 Sm41 2.846 . S
C51 C52 1.506 . S
C51 O66 1.261 . S
C51 O67 1.242 . S
C52 C51 1.506 . S
C52 C53 1.358 . S
C52 C57 1.382 . S
C53 C52 1.358 . S
C53 C54 1.385 . S
C53 H76 0.930 . S
C54 C53 1.385 . S
C54 C55 1.395 . S
C54 H77 0.929 . S
C55 C54 1.395 . S
C55 C56 1.335 . S
C56 C55 1.335 . S
C56 C57 1.398 . S
C56 H78 0.930 . S
C57 C52 1.382 . S
C57 C56 1.398 . S
C57 H79 0.929 . S
C58 O68 1.271 . S
C58 O69 1.251 . S
C59 O70 1.252 . S
C59 O71 1.272 . S
O60 Sm40 2.543 . S
O60 C42 1.261 . S
O61 Sm40 2.450 . S
O61 C42 1.242 . S
O62 Sm40 2.681 . S
O62 Sm41 2.386 . S
O62 C49 1.271 . S
O63 Sm40 2.464 . S
O63 C49 1.251 . S
O64 Sm40 2.396 . S
O64 C50 1.252 . S
O65 Sm41 2.408 . S
O65 C50 1.272 . S
O66 Sm41 2.543 . S
O66 C51 1.261 . S
O67 Sm41 2.450 . S
O67 C51 1.242 . S
O68 Sm40 2.386 . S
O68 Sm41 2.681 . S
O68 C58 1.271 . S
O69 Sm41 2.464 . S
O69 C58 1.251 . S
O70 Sm41 2.396 . S
O70 C59 1.252 . S
O71 Sm40 2.408 . S
O71 C59 1.272 . S
H72 C44 0.930 . S
H73 C45 0.929 . S
H74 C47 0.930 . S
H75 C48 0.929 1_556 S
H76 C53 0.930 . S
H77 C54 0.929 . S
H78 C56 0.930 . S
H79 C57 0.929 . S
Sm80 C82 2.846 . S
Sm80 O100 2.543 . S
Sm80 O101 2.450 . S
Sm80 O102 2.681 1_554 S
Sm80 O103 2.464 . S
Sm80 O104 2.396 1_565 S
Sm80 O108 2.386 1_565 S
Sm80 O111 2.408 . S
Sm81 C91 2.846 . S
Sm81 O102 2.386 1_545 S
Sm81 O105 2.408 . S
Sm81 O106 2.543 . S
Sm81 O107 2.450 . S
Sm81 O108 2.681 1_556 S
Sm81 O109 2.464 . S
Sm81 O110 2.396 1_545 S
C82 Sm80 2.846 . S
C82 C83 1.506 . S
C82 O100 1.261 . S
C82 O101 1.242 . S
C83 C82 1.506 . S
C83 C84 1.358 . S
C83 C88 1.382 . S
C84 C83 1.358 . S
C84 C85 1.385 . S
C84 H112 0.930 1_565 S
C85 C84 1.385 . S
C85 C86 1.395 . S
C85 H113 0.929 1_565 S
C86 C85 1.395 . S
C86 C87 1.335 . S
C87 C86 1.335 . S
C87 C88 1.398 . S
C87 H114 0.930 . S
C88 C83 1.382 . S
C88 C87 1.398 . S
C88 H115 0.929 . S
C89 O102 1.271 . S
C89 O103 1.251 1_556 S
C90 O104 1.252 . S
C90 O105 1.272 1_554 S
C91 Sm81 2.846 . S
C91 C92 1.506 . S
C91 O106 1.261 . S
C91 O107 1.242 . S
C92 C91 1.506 . S
C92 C93 1.358 . S
C92 C97 1.382 . S
C93 C92 1.358 . S
C93 C94 1.385 . S
C93 H116 0.930 1_545 S
C94 C93 1.385 . S
C94 C95 1.395 . S
C94 H117 0.929 1_545 S
C95 C94 1.395 . S
C95 C96 1.335 . S
C96 C95 1.335 . S
C96 C97 1.398 . S
C96 H118 0.930 . S
C97 C92 1.382 . S
C97 C96 1.398 . S
C97 H119 0.929 . S
C98 O108 1.271 . S
C98 O109 1.251 1_554 S
C99 O110 1.252 . S
C99 O111 1.272 1_556 S
O100 Sm80 2.543 . S
O100 C82 1.261 . S
O101 Sm80 2.450 . S
O101 C82 1.242 . S
O102 Sm80 2.681 1_556 S
O102 Sm81 2.386 1_565 S
O102 C89 1.271 . S
O103 Sm80 2.464 . S
O103 C89 1.251 1_554 S
O104 Sm80 2.396 1_545 S
O104 C90 1.252 . S
O105 Sm81 2.408 . S
O105 C90 1.272 1_556 S
O106 Sm81 2.543 . S
O106 C91 1.261 . S
O107 Sm81 2.450 . S
O107 C91 1.242 . S
O108 Sm80 2.386 1_545 S
O108 Sm81 2.681 1_554 S
O108 C98 1.271 . S
O109 Sm81 2.464 . S
O109 C98 1.251 1_556 S
O110 Sm81 2.396 1_565 S
O110 C99 1.252 . S
O111 Sm80 2.408 . S
O111 C99 1.272 1_554 S
H112 C84 0.930 1_545 S
H113 C85 0.929 1_545 S
H114 C87 0.930 . S
H115 C88 0.929 . S
H116 C93 0.930 1_565 S
H117 C94 0.929 1_565 S
H118 C96 0.930 . S
H119 C97 0.929 . S
Sm120 C122 2.846 . S
Sm120 O140 2.543 . S
Sm120 O141 2.450 . S
Sm120 O142 2.681 . S
Sm120 O143 2.464 . S
Sm120 O144 2.396 . S
Sm120 O148 2.386 . S
Sm120 O151 2.408 . S
Sm121 C131 2.846 . S
Sm121 O142 2.386 . S
Sm121 O145 2.408 . S
Sm121 O146 2.543 . S
Sm121 O147 2.450 . S
Sm121 O148 2.681 . S
Sm121 O149 2.464 . S
Sm121 O150 2.396 . S
C122 Sm120 2.846 . S
C122 C123 1.506 1_554 S
C122 O140 1.261 . S
C122 O141 1.242 . S
C123 C122 1.506 1_556 S
C123 C124 1.358 . S
C123 C128 1.382 . S
C124 C123 1.358 . S
C124 C125 1.385 . S
C124 H152 0.930 . S
C125 C124 1.385 . S
C125 C126 1.395 . S
C125 H153 0.929 . S
C126 C125 1.395 . S
C126 C127 1.335 . S
C127 C126 1.335 . S
C127 C128 1.398 . S
C127 H154 0.930 . S
C128 C123 1.382 . S
C128 C127 1.398 . S
C128 H155 0.929 . S
C129 O142 1.271 . S
C129 O143 1.251 . S
C130 O144 1.252 . S
C130 O145 1.272 . S
C131 Sm121 2.846 . S
C131 C132 1.506 . S
C131 O146 1.261 . S
C131 O147 1.242 . S
C132 C131 1.506 . S
C132 C133 1.358 . S
C132 C137 1.382 . S
C133 C132 1.358 . S
C133 C134 1.385 . S
C133 H156 0.930 . S
C134 C133 1.385 . S
C134 C135 1.395 . S
C134 H157 0.929 . S
C135 C134 1.395 . S
C135 C136 1.335 . S
C136 C135 1.335 . S
C136 C137 1.398 . S
C136 H158 0.930 . S
C137 C132 1.382 . S
C137 C136 1.398 . S
C137 H159 0.929 . S
C138 O148 1.271 . S
C138 O149 1.251 . S
C139 O150 1.252 . S
C139 O151 1.272 . S
O140 Sm120 2.543 . S
O140 C122 1.261 . S
O141 Sm120 2.450 . S
O141 C122 1.242 . S
O142 Sm120 2.681 . S
O142 Sm121 2.386 . S
O142 C129 1.271 . S
O143 Sm120 2.464 . S
O143 C129 1.251 . S
O144 Sm120 2.396 . S
O144 C130 1.252 . S
O145 Sm121 2.408 . S
O145 C130 1.272 . S
O146 Sm121 2.543 . S
O146 C131 1.261 . S
O147 Sm121 2.450 . S
O147 C131 1.242 . S
O148 Sm120 2.386 . S
O148 Sm121 2.681 . S
O148 C138 1.271 . S
O149 Sm121 2.464 . S
O149 C138 1.251 . S
O150 Sm121 2.396 . S
O150 C139 1.252 . S
O151 Sm120 2.408 . S
O151 C139 1.272 . S
H152 C124 0.930 . S
H153 C125 0.929 . S
H154 C127 0.930 . S
H155 C128 0.929 . S
H156 C133 0.930 . S
H157 C134 0.929 . S
H158 C136 0.930 . S
H159 C137 0.929 . S
Sm160 C162 2.846 . S
Sm160 O180 2.543 . S
Sm160 O181 2.450 . S
Sm160 O182 2.681 . S
Sm160 O183 2.464 . S
Sm160 O184 2.396 . S
Sm160 O188 2.386 . S
Sm160 O191 2.408 . S
Sm161 C171 2.846 . S
Sm161 O182 2.386 . S
Sm161 O185 2.408 . S
Sm161 O186 2.543 . S
Sm161 O187 2.450 . S
Sm161 O188 2.681 . S
Sm161 O189 2.464 . S
Sm161 O190 2.396 . S
C162 Sm160 2.846 . S
C162 C163 1.506 . S
C162 O180 1.261 . S
C162 O181 1.242 . S
C163 C162 1.506 . S
C163 C164 1.358 . S
C163 C168 1.382 . S
C164 C163 1.358 . S
C164 C165 1.385 . S
C164 H192 0.930 . S
C165 C164 1.385 . S
C165 C166 1.395 . S
C165 H193 0.929 . S
C166 C165 1.395 . S
C166 C167 1.335 . S
C167 C166 1.335 . S
C167 C168 1.398 . S
C167 H194 0.930 . S
C168 C163 1.382 . S
C168 C167 1.398 . S
C168 H195 0.929 . S
C169 O182 1.271 . S
C169 O183 1.251 . S
C170 O184 1.252 . S
C170 O185 1.272 . S
C171 Sm161 2.846 . S
C171 C172 1.506 1_554 S
C171 O186 1.261 . S
C171 O187 1.242 . S
C172 C171 1.506 1_556 S
C172 C173 1.358 . S
C172 C177 1.382 . S
C173 C172 1.358 . S
C173 C174 1.385 . S
C173 H196 0.930 . S
C174 C173 1.385 . S
C174 C175 1.395 . S
C174 H197 0.929 . S
C175 C174 1.395 . S
C175 C176 1.335 . S
C176 C175 1.335 . S
C176 C177 1.398 . S
C176 H198 0.930 . S
C177 C172 1.382 . S
C177 C176 1.398 . S
C177 H199 0.929 1_556 S
C178 O188 1.271 . S
C178 O189 1.251 . S
C179 O190 1.252 . S
C179 O191 1.272 . S
O180 Sm160 2.543 . S
O180 C162 1.261 . S
O181 Sm160 2.450 . S
O181 C162 1.242 . S
O182 Sm160 2.681 . S
O182 Sm161 2.386 . S
O182 C169 1.271 . S
O183 Sm160 2.464 . S
O183 C169 1.251 . S
O184 Sm160 2.396 . S
O184 C170 1.252 . S
O185 Sm161 2.408 . S
O185 C170 1.272 . S
O186 Sm161 2.543 . S
O186 C171 1.261 . S
O187 Sm161 2.450 . S
O187 C171 1.242 . S
O188 Sm160 2.386 . S
O188 Sm161 2.681 . S
O188 C178 1.271 . S
O189 Sm161 2.464 . S
O189 C178 1.251 . S
O190 Sm161 2.396 . S
O190 C179 1.252 . S
O191 Sm160 2.408 . S
O191 C179 1.272 . S
H192 C164 0.930 . S
H193 C165 0.929 . S
H194 C167 0.930 . S
H195 C168 0.929 . S
H196 C173 0.930 . S
H197 C174 0.929 . S
H198 C176 0.930 . S
H199 C177 0.929 1_554 S
Sm200 C202 2.846 . S
Sm200 O220 2.543 . S
Sm200 O221 2.450 . S
Sm200 O222 2.681 . S
Sm200 O223 2.464 . S
Sm200 O224 2.396 . S
Sm200 O228 2.386 . S
Sm200 O231 2.408 . S
Sm201 C211 2.846 . S
Sm201 O222 2.386 . S
Sm201 O225 2.408 . S
Sm201 O226 2.543 . S
Sm201 O227 2.450 . S
Sm201 O228 2.681 . S
Sm201 O229 2.464 . S
Sm201 O230 2.396 . S
C202 Sm200 2.846 . S
C202 C203 1.506 . S
C202 O220 1.261 . S
C202 O221 1.242 . S
C203 C202 1.506 . S
C203 C204 1.358 . S
C203 C208 1.382 . S
C204 C203 1.358 . S
C204 C205 1.385 . S
C204 H232 0.930 . S
C205 C204 1.385 . S
C205 C206 1.395 . S
C205 H233 0.929 . S
C206 C205 1.395 . S
C206 C207 1.335 . S
C207 C206 1.335 . S
C207 C208 1.398 . S
C207 H234 0.930 . S
C208 C203 1.382 . S
C208 C207 1.398 . S
C208 H235 0.929 . S
C209 O222 1.271 . S
C209 O223 1.251 . S
C210 O224 1.252 . S
C210 O225 1.272 . S
C211 Sm201 2.846 . S
C211 C212 1.506 1_556 S
C211 O226 1.261 . S
C211 O227 1.242 . S
C212 C211 1.506 1_554 S
C212 C213 1.358 . S
C212 C217 1.382 . S
C213 C212 1.358 . S
C213 C214 1.385 . S
C213 H236 0.930 . S
C214 C213 1.385 . S
C214 C215 1.395 . S
C214 H237 0.929 . S
C215 C214 1.395 . S
C215 C216 1.335 . S
C216 C215 1.335 . S
C216 C217 1.398 . S
C216 H238 0.930 . S
C217 C212 1.382 . S
C217 C216 1.398 . S
C217 H239 0.929 . S
C218 O228 1.271 . S
C218 O229 1.251 . S
C219 O230 1.252 . S
C219 O231 1.272 . S
O220 Sm200 2.543 . S
O220 C202 1.261 . S
O221 Sm200 2.450 . S
O221 C202 1.242 . S
O222 Sm200 2.681 . S
O222 Sm201 2.386 . S
O222 C209 1.271 . S
O223 Sm200 2.464 . S
O223 C209 1.251 . S
O224 Sm200 2.396 . S
O224 C210 1.252 . S
O225 Sm201 2.408 . S
O225 C210 1.272 . S
O226 Sm201 2.543 . S
O226 C211 1.261 . S
O227 Sm201 2.450 . S
O227 C211 1.242 . S
O228 Sm200 2.386 . S
O228 Sm201 2.681 . S
O228 C218 1.271 . S
O229 Sm201 2.464 . S
O229 C218 1.251 . S
O230 Sm201 2.396 . S
O230 C219 1.252 . S
O231 Sm200 2.408 . S
O231 C219 1.272 . S
H232 C204 0.930 . S
H233 C205 0.929 . S
H234 C207 0.930 . S
H235 C208 0.929 . S
H236 C213 0.930 . S
H237 C214 0.929 . S
H238 C216 0.930 . S
H239 C217 0.929 . S
Sm240 C242 2.846 . S
Sm240 O260 2.543 . S
Sm240 O261 2.450 . S
Sm240 O262 2.681 1_556 S
Sm240 O263 2.464 . S
Sm240 O264 2.396 . S
Sm240 O268 2.386 . S
Sm240 O271 2.408 1_556 S
Sm241 C251 2.846 . S
Sm241 O262 2.386 . S
Sm241 O265 2.408 1_554 S
Sm241 O266 2.543 . S
Sm241 O267 2.450 . S
Sm241 O268 2.681 1_554 S
Sm241 O269 2.464 . S
Sm241 O270 2.396 . S
C242 Sm240 2.846 . S
C242 C243 1.506 . S
C242 O260 1.261 . S
C242 O261 1.242 . S
C243 C242 1.506 . S
C243 C244 1.358 . S
C243 C248 1.382 . S
C244 C243 1.358 . S
C244 C245 1.385 . S
C244 H272 0.930 . S
C245 C244 1.385 . S
C245 C246 1.395 . S
C245 H273 0.929 . S
C246 C245 1.395 . S
C246 C247 1.335 . S
C247 C246 1.335 . S
C247 C248 1.398 . S
C247 H274 0.930 . S
C248 C243 1.382 . S
C248 C247 1.398 . S
C248 H275 0.929 . S
C249 O262 1.271 . S
C249 O263 1.251 1_554 S
C250 O264 1.252 . S
C250 O265 1.272 . S
C251 Sm241 2.846 . S
C251 C252 1.506 . S
C251 O266 1.261 . S
C251 O267 1.242 . S
C252 C251 1.506 . S
C252 C253 1.358 . S
C252 C257 1.382 . S
C253 C252 1.358 . S
C253 C254 1.385 . S
C253 H276 0.930 . S
C254 C253 1.385 . S
C254 C255 1.395 . S
C254 H277 0.929 . S
C255 C254 1.395 . S
C255 C256 1.335 . S
C256 C255 1.335 . S
C256 C257 1.398 . S
C256 H278 0.930 . S
C257 C252 1.382 . S
C257 C256 1.398 . S
C257 H279 0.929 . S
C258 O268 1.271 . S
C258 O269 1.251 1_556 S
C259 O270 1.252 . S
C259 O271 1.272 . S
O260 Sm240 2.543 . S
O260 C242 1.261 . S
O261 Sm240 2.450 . S
O261 C242 1.242 . S
O262 Sm240 2.681 1_554 S
O262 Sm241 2.386 . S
O262 C249 1.271 . S
O263 Sm240 2.464 . S
O263 C249 1.251 1_556 S
O264 Sm240 2.396 . S
O264 C250 1.252 . S
O265 Sm241 2.408 1_556 S
O265 C250 1.272 . S
O266 Sm241 2.543 . S
O266 C251 1.261 . S
O267 Sm241 2.450 . S
O267 C251 1.242 . S
O268 Sm240 2.386 . S
O268 Sm241 2.681 1_556 S
O268 C258 1.271 . S
O269 Sm241 2.464 . S
O269 C258 1.251 1_554 S
O270 Sm241 2.396 . S
O270 C259 1.252 . S
O271 Sm240 2.408 1_554 S
O271 C259 1.272 . S
H272 C244 0.930 . S
H273 C245 0.929 . S
H274 C247 0.930 . S
H275 C248 0.929 . S
H276 C253 0.930 . S
H277 C254 0.929 . S
H278 C256 0.930 . S
H279 C257 0.929 . S
Sm280 C282 2.846 1_455 S
Sm280 O300 2.543 . S
Sm280 O301 2.450 1_455 S
Sm280 O302 2.681 1_455 S
Sm280 O303 2.464 1_455 S
Sm280 O304 2.396 1_455 S
Sm280 O308 2.386 . S
Sm280 O311 2.408 . S
Sm281 C291 2.846 1_655 S
Sm281 O302 2.386 . S
Sm281 O305 2.408 . S
Sm281 O306 2.543 . S
Sm281 O307 2.450 1_655 S
Sm281 O308 2.681 1_655 S
Sm281 O309 2.464 1_655 S
Sm281 O310 2.396 1_655 S
C282 Sm280 2.846 1_655 S
C282 C283 1.506 . S
C282 O300 1.261 1_655 S
C282 O301 1.242 . S
C283 C282 1.506 . S
C283 C284 1.358 . S
C283 C288 1.382 . S
C284 C283 1.358 . S
C284 C285 1.385 . S
C284 H312 0.930 1_655 S
C285 C284 1.385 . S
C285 C286 1.395 . S
C285 H313 0.929 . S
C286 C285 1.395 . S
C286 C287 1.335 . S
C287 C286 1.335 . S
C287 C288 1.398 . S
C287 H314 0.930 . S
C288 C283 1.382 . S
C288 C287 1.398 . S
C288 H315 0.929 . S
C289 O302 1.271 . S
C289 O303 1.251 . S
C290 O304 1.252 . S
C290 O305 1.272 . S
C291 Sm281 2.846 1_455 S
C291 C292 1.506 . S
C291 O306 1.261 1_455 S
C291 O307 1.242 . S
C292 C291 1.506 . S
C292 C293 1.358 . S
C292 C297 1.382 . S
C293 C292 1.358 . S
C293 C294 1.385 . S
C293 H316 0.930 1_455 S
C294 C293 1.385 . S
C294 C295 1.395 . S
C294 H317 0.929 . S
C295 C294 1.395 . S
C295 C296 1.335 . S
C296 C295 1.335 . S
C296 C297 1.398 . S
C296 H318 0.930 . S
C297 C292 1.382 . S
C297 C296 1.398 . S
C297 H319 0.929 . S
C298 O308 1.271 . S
C298 O309 1.251 . S
C299 O310 1.252 . S
C299 O311 1.272 . S
O300 Sm280 2.543 . S
O300 C282 1.261 1_455 S
O301 Sm280 2.450 1_655 S
O301 C282 1.242 . S
O302 Sm280 2.681 1_655 S
O302 Sm281 2.386 . S
O302 C289 1.271 . S
O303 Sm280 2.464 1_655 S
O303 C289 1.251 . S
O304 Sm280 2.396 1_655 S
O304 C290 1.252 . S
O305 Sm281 2.408 . S
O305 C290 1.272 . S
O306 Sm281 2.543 . S
O306 C291 1.261 1_655 S
O307 Sm281 2.450 1_455 S
O307 C291 1.242 . S
O308 Sm280 2.386 . S
O308 Sm281 2.681 1_455 S
O308 C298 1.271 . S
O309 Sm281 2.464 1_455 S
O309 C298 1.251 . S
O310 Sm281 2.396 1_455 S
O310 C299 1.252 . S
O311 Sm280 2.408 . S
O311 C299 1.272 . S
H312 C284 0.930 1_455 S
H313 C285 0.929 . S
H314 C287 0.930 . S
H315 C288 0.929 . S
H316 C293 0.930 1_655 S
H317 C294 0.929 . S
H318 C296 0.930 . S
H319 C297 0.929 . S
C320 C321 1.363 . S
C320 C326 1.379 . S
C320 N328 1.356 . S
C321 C320 1.363 . S
C321 C327 1.363 . S
C322 C323 1.363 . S
C322 C327 1.379 . S
C322 N329 1.356 . S
C323 C322 1.363 . S
C323 C326 1.363 . S
N324 C326 1.356 . S
N324 H336 0.984 . S
N324 H337 0.985 . S
N325 C327 1.356 . S
N325 H330 0.984 . S
N325 H331 0.985 . S
C326 C320 1.379 . S
C326 C323 1.363 . S
C326 N324 1.356 . S
C327 C321 1.363 . S
C327 C322 1.379 . S
C327 N325 1.356 . S
N328 C320 1.356 . S
N328 H334 0.984 1_545 S
N328 H335 0.984 . S
N329 C322 1.356 . S
N329 H332 0.984 . S
N329 H333 0.985 . S
H330 N325 0.984 . S
H331 N325 0.985 . S
H332 N329 0.984 . S
H333 N329 0.985 . S
H334 N328 0.984 1_565 S
H335 N328 0.984 . S
H336 N324 0.984 . S
H337 N324 0.985 . S
C338 C339 1.363 . S
C338 C344 1.379 . S
C338 N346 1.356 . S
C339 C338 1.363 . S
C339 C345 1.363 . S
C340 C341 1.363 . S
C340 C345 1.379 . S
C340 N347 1.356 . S
C341 C340 1.363 . S
C341 C344 1.363 . S
N342 C344 1.356 . S
N342 H354 0.984 . S
N342 H355 0.985 . S
N343 C345 1.356 . S
N343 H348 0.984 . S
N343 H349 0.985 . S
C344 C338 1.379 . S
C344 C341 1.363 . S
C344 N342 1.356 . S
C345 C339 1.363 . S
C345 C340 1.379 . S
C345 N343 1.356 . S
N346 C338 1.356 . S
N346 H352 0.980 1_565 S
N346 H353 0.984 . S
N347 C340 1.356 . S
N347 H350 0.984 . S
N347 H351 0.985 . S
H348 N343 0.984 . S
H349 N343 0.985 . S
H350 N347 0.984 . S
H351 N347 0.985 . S
H352 N346 0.980 1_545 S
H353 N346 0.984 . S
H354 N342 0.984 . S
H355 N342 0.985 . S
C356 C357 1.363 . S
C356 C362 1.379 . S
C356 N364 1.356 . S
C357 C356 1.363 . S
C357 C363 1.363 . S
C358 C359 1.363 . S
C358 C363 1.379 . S
C358 N365 1.356 . S
C359 C358 1.363 . S
C359 C362 1.363 . S
N360 C362 1.356 1_554 S
N360 H372 0.984 . S
N360 H373 0.985 . S
N361 C363 1.356 . S
N361 H366 0.984 . S
N361 H367 0.985 . S
C362 C356 1.379 . S
C362 C359 1.363 . S
C362 N360 1.356 1_556 S
C363 C357 1.363 . S
C363 C358 1.379 . S
C363 N361 1.356 . S
N364 C356 1.356 . S
N364 H370 0.984 . S
N364 H371 0.984 . S
N365 C358 1.356 . S
N365 H368 0.984 . S
N365 H369 0.985 . S
H366 N361 0.984 . S
H367 N361 0.985 . S
H368 N365 0.984 . S
H369 N365 0.985 . S
H370 N364 0.984 . S
H371 N364 0.984 . S
H372 N360 0.984 . S
H373 N360 0.985 . S
C374 C375 1.363 . S
C374 C380 1.379 . S
C374 N382 1.356 . S
C375 C374 1.363 . S
C375 C381 1.363 . S
C376 C377 1.363 . S
C376 C381 1.379 . S
C376 N383 1.356 . S
C377 C376 1.363 . S
C377 C380 1.363 . S
N378 C380 1.356 . S
N378 H390 0.984 . S
N378 H391 0.985 . S
N379 C381 1.356 . S
N379 H384 0.984 1_554 S
N379 H385 0.985 1_554 S
C380 C374 1.379 . S
C380 C377 1.363 . S
C380 N378 1.356 . S
C381 C375 1.363 . S
C381 C376 1.379 . S
C381 N379 1.356 . S
N382 C374 1.356 . S
N382 H388 0.984 . S
N382 H389 0.984 . S
N383 C376 1.356 . S
N383 H386 0.984 . S
N383 H387 0.985 . S
H384 N379 0.984 1_556 S
H385 N379 0.985 1_556 S
H386 N383 0.984 . S
H387 N383 0.985 . S
H388 N382 0.984 . S
H389 N382 0.984 . S
H390 N378 0.984 . S
H391 N378 0.985 . S
C392 C393 1.363 . S
C392 C398 1.379 . S
C392 N400 1.356 . S
C393 C392 1.363 . S
C393 C399 1.363 . S
C394 C395 1.363 . S
C394 C399 1.379 . S
C394 N401 1.356 . S
C395 C394 1.363 . S
C395 C398 1.363 . S
N396 C398 1.356 . S
N396 H408 0.984 . S
N396 H409 0.985 . S
N397 C399 1.356 . S
N397 H402 0.984 . S
N397 H403 0.985 . S
C398 C392 1.379 . S
C398 C395 1.363 . S
C398 N396 1.356 . S
C399 C393 1.363 . S
C399 C394 1.379 . S
C399 N397 1.356 . S
N400 C392 1.356 . S
N400 H406 0.984 1_565 S
N400 H407 0.984 . S
N401 C394 1.356 . S
N401 H404 0.984 . S
N401 H405 0.985 . S
H402 N397 0.984 . S
H403 N397 0.985 . S
H404 N401 0.984 . S
H405 N401 0.985 . S
H406 N400 0.984 1_545 S
H407 N400 0.984 . S
H408 N396 0.984 . S
H409 N396 0.985 . S
C410 C411 1.363 . S
C410 C416 1.379 . S
C410 N418 1.356 . S
C411 C410 1.363 . S
C411 C417 1.363 . S
C412 C413 1.363 . S
C412 C417 1.379 . S
C412 N419 1.356 . S
C413 C412 1.363 . S
C413 C416 1.363 . S
N414 C416 1.356 . S
N414 H426 0.984 . S
N414 H427 0.985 . S
N415 C417 1.356 . S
N415 H420 0.984 . S
N415 H421 0.985 . S
C416 C410 1.379 . S
C416 C413 1.363 . S
C416 N414 1.356 . S
C417 C411 1.363 . S
C417 C412 1.379 . S
C417 N415 1.356 . S
N418 C410 1.356 . S
N418 H424 0.984 . S
N418 H425 0.984 . S
N419 C412 1.356 . S
N419 H422 0.984 . S
N419 H423 0.985 . S
H420 N415 0.984 . S
H421 N415 0.985 . S
H422 N419 0.984 . S
H423 N419 0.985 . S
H424 N418 0.984 . S
H425 N418 0.984 . S
H426 N414 0.984 . S
H427 N414 0.985 . S
C428 C429 1.363 . S
C428 C434 1.379 . S
C428 N436 1.356 . S
C429 C428 1.363 . S
C429 C435 1.363 . S
C430 C431 1.363 . S
C430 C435 1.379 . S
C430 N437 1.356 . S
C431 C430 1.363 . S
C431 C434 1.363 . S
N432 C434 1.356 . S
N432 H444 0.984 . S
N432 H445 0.985 . S
N433 C435 1.356 . S
N433 H438 0.984 . S
N433 H439 0.985 . S
C434 C428 1.379 . S
C434 C431 1.363 . S
C434 N432 1.356 . S
C435 C429 1.363 . S
C435 C430 1.379 . S
C435 N433 1.356 . S
N436 C428 1.356 . S
N436 H442 0.984 . S
N436 H443 0.984 . S
N437 C430 1.356 . S
N437 H440 0.984 . S
N437 H441 0.985 . S
H438 N433 0.984 . S
H439 N433 0.985 . S
H440 N437 0.984 . S
H441 N437 0.985 . S
H442 N436 0.984 . S
H443 N436 0.984 . S
H444 N432 0.984 . S
H445 N432 0.985 . S
C446 C447 1.363 . S
C446 C452 1.379 . S
C446 N454 1.356 . S
C447 C446 1.363 . S
C447 C453 1.363 . S
C448 C449 1.363 . S
C448 C453 1.379 . S
C448 N455 1.356 . S
C449 C448 1.363 . S
C449 C452 1.363 . S
N450 C452 1.356 . S
N450 H462 0.973 1_565 S
N450 H463 0.985 . S
N451 C453 1.356 . S
N451 H456 0.984 . S
N451 H457 0.985 . S
C452 C446 1.379 . S
C452 C449 1.363 . S
C452 N450 1.356 . S
C453 C447 1.363 . S
C453 C448 1.379 . S
C453 N451 1.356 . S
N454 C446 1.356 . S
N454 H460 0.984 . S
N454 H461 0.984 . S
N455 C448 1.356 . S
N455 H458 0.984 . S
N455 H459 0.985 . S
H456 N451 0.984 . S
H457 N451 0.985 . S
H458 N455 0.984 . S
H459 N455 0.985 . S
H460 N454 0.984 . S
H461 N454 0.984 . S
H462 N450 0.973 1_545 S
H463 N450 0.985 . S
C464 C465 1.363 . S
C464 C470 1.379 . S
C464 N472 1.356 . S
C465 C464 1.363 . S
C465 C471 1.363 . S
C466 C467 1.363 . S
C466 C471 1.379 . S
C466 N473 1.356 . S
C467 C466 1.363 . S
C467 C470 1.363 . S
N468 C470 1.356 . S
N468 H480 0.984 . S
N468 H481 0.985 . S
N469 C471 1.356 . S
N469 H474 0.984 . S
N469 H475 0.985 . S
C470 C464 1.379 . S
C470 C467 1.363 . S
C470 N468 1.356 . S
C471 C465 1.363 . S
C471 C466 1.379 . S
C471 N469 1.356 . S
N472 C464 1.356 . S
N472 H478 0.984 . S
N472 H479 0.984 . S
N473 C466 1.356 . S
N473 H476 0.984 . S
N473 H477 0.985 . S
H474 N469 0.984 . S
H475 N469 0.985 . S
H476 N473 0.984 . S
H477 N473 0.985 . S
H478 N472 0.984 . S
H479 N472 0.984 . S
H480 N468 0.984 . S
H481 N468 0.985 . S
C482 C483 1.363 . S
C482 C488 1.379 . S
C482 N490 1.356 . S
C483 C482 1.363 . S
C483 C489 1.363 . S
C484 C485 1.363 . S
C484 C489 1.379 . S
C484 N491 1.356 . S
C485 C484 1.363 . S
C485 C488 1.363 . S
N486 C488 1.356 . S
N486 H498 0.984 . S
N486 H499 0.985 . S
N487 C489 1.356 . S
N487 H492 0.984 . S
N487 H493 0.985 . S
C488 C482 1.379 . S
C488 C485 1.363 . S
C488 N486 1.356 . S
C489 C483 1.363 . S
C489 C484 1.379 . S
C489 N487 1.356 . S
N490 C482 1.356 . S
N490 H496 0.984 . S
N490 H497 0.984 . S
N491 C484 1.356 . S
N491 H494 0.984 . S
N491 H495 0.985 . S
H492 N487 0.984 . S
H493 N487 0.985 . S
H494 N491 0.984 . S
H495 N491 0.985 . S
H496 N490 0.984 . S
H497 N490 0.984 . S
H498 N486 0.984 . S
H499 N486 0.985 . S
C500 C501 1.363 . S
C500 C506 1.379 . S
C500 N508 1.356 . S
C501 C500 1.363 . S
C501 C507 1.363 . S
C502 C503 1.363 . S
C502 C507 1.379 . S
C502 N509 1.356 . S
C503 C502 1.363 . S
C503 C506 1.363 . S
N504 C506 1.356 . S
N504 H516 0.984 . S
N504 H517 0.985 . S
N505 C507 1.356 . S
N505 H510 0.984 . S
N505 H511 0.985 . S
C506 C500 1.379 . S
C506 C503 1.363 . S
C506 N504 1.356 . S
C507 C501 1.363 . S
C507 C502 1.379 . S
C507 N505 1.356 . S
N508 C500 1.356 . S
N508 H514 0.984 . S
N508 H515 0.984 . S
N509 C502 1.356 . S
N509 H512 0.984 . S
N509 H513 0.985 . S
H510 N505 0.984 . S
H511 N505 0.985 . S
H512 N509 0.984 . S
H513 N509 0.985 . S
H514 N508 0.984 . S
H515 N508 0.984 . S
H516 N504 0.984 . S
H517 N504 0.985 . S
C518 C519 1.363 . S
C518 C524 1.379 . S
C518 N526 1.356 . S
C519 C518 1.363 . S
C519 C525 1.363 . S
C520 C521 1.363 . S
C520 C525 1.379 . S
C520 N527 1.356 . S
C521 C520 1.363 . S
C521 C524 1.363 . S
N522 C524 1.356 . S
N522 H534 0.984 . S
N522 H535 0.985 . S
N523 C525 1.356 . S
N523 H528 0.984 . S
N523 H529 0.985 . S
C524 C518 1.379 . S
C524 C521 1.363 . S
C524 N522 1.356 . S
C525 C519 1.363 . S
C525 C520 1.379 . S
C525 N523 1.356 . S
N526 C518 1.356 . S
N526 H532 0.984 . S
N526 H533 0.984 . S
N527 C520 1.356 . S
N527 H530 0.984 . S
N527 H531 0.985 . S
H528 N523 0.984 . S
H529 N523 0.985 . S
H530 N527 0.984 . S
H531 N527 0.985 . S
H532 N526 0.984 . S
H533 N526 0.984 . S
H534 N522 0.984 . S
H535 N522 0.985 . S
C536 C537 1.363 . S
C536 C542 1.379 . S
C536 N544 1.356 . S
C537 C536 1.363 . S
C537 C543 1.363 . S
C538 C539 1.363 . S
C538 C543 1.379 . S
C538 N545 1.356 . S
C539 C538 1.363 . S
C539 C542 1.363 . S
N540 C542 1.356 . S
N540 H552 0.984 . S
N540 H553 0.985 . S
N541 C543 1.356 . S
N541 H546 0.984 . S
N541 H547 0.985 . S
C542 C536 1.379 . S
C542 C539 1.363 . S
C542 N540 1.356 . S
C543 C537 1.363 . S
C543 C538 1.379 . S
C543 N541 1.356 . S
N544 C536 1.356 . S
N544 H550 0.984 . S
N544 H551 0.984 . S
N545 C538 1.356 . S
N545 H548 0.984 . S
N545 H549 0.985 . S
H546 N541 0.984 . S
H547 N541 0.985 . S
H548 N545 0.984 . S
H549 N545 0.985 . S
H550 N544 0.984 . S
H551 N544 0.984 . S
H552 N540 0.984 . S
H553 N540 0.985 . S
C554 C555 1.363 . S
C554 C560 1.379 . S
C554 N562 1.356 . S
C555 C554 1.363 . S
C555 C561 1.363 . S
C556 C557 1.363 . S
C556 C561 1.379 . S
C556 N563 1.356 . S
C557 C556 1.363 . S
C557 C560 1.363 . S
N558 C560 1.356 . S
N558 H570 0.984 . S
N558 H571 0.985 . S
N559 C561 1.356 . S
N559 H564 0.984 1_556 S
N559 H565 0.985 1_556 S
C560 C554 1.379 . S
C560 C557 1.363 . S
C560 N558 1.356 . S
C561 C555 1.363 . S
C561 C556 1.379 . S
C561 N559 1.356 . S
N562 C554 1.356 . S
N562 H568 0.984 . S
N562 H569 0.984 . S
N563 C556 1.356 . S
N563 H566 0.984 . S
N563 H567 0.985 . S
H564 N559 0.984 1_554 S
H565 N559 0.985 1_554 S
H566 N563 0.984 . S
H567 N563 0.985 . S
H568 N562 0.984 . S
H569 N562 0.984 . S
H570 N558 0.984 . S
H571 N558 0.985 . S
C572 C573 1.363 . S
C572 C578 1.379 . S
C572 N580 1.356 . S
C573 C572 1.363 . S
C573 C579 1.363 . S
C574 C575 1.363 . S
C574 C579 1.379 . S
C574 N581 1.356 . S
C575 C574 1.363 . S
C575 C578 1.363 . S
N576 C578 1.356 . S
N576 H588 0.984 . S
N576 H589 0.985 . S
N577 C579 1.356 . S
N577 H582 0.984 . S
N577 H583 0.985 . S
C578 C572 1.379 . S
C578 C575 1.363 . S
C578 N576 1.356 . S
C579 C573 1.363 . S
C579 C574 1.379 . S
C579 N577 1.356 . S
N580 C572 1.356 . S
N580 H586 0.984 . S
N580 H587 0.984 . S
N581 C574 1.356 . S
N581 H584 0.984 . S
N581 H585 0.985 . S
H582 N577 0.984 . S
H583 N577 0.985 . S
H584 N581 0.984 . S
H585 N581 0.985 . S
H586 N580 0.984 . S
H587 N580 0.984 . S
H588 N576 0.984 . S
H589 N576 0.985 . S
C590 C591 1.363 . S
C590 C596 1.379 . S
C590 N598 1.356 . S
C591 C590 1.363 . S
C591 C597 1.363 . S
C592 C593 1.363 . S
C592 C597 1.379 . S
C592 N599 1.356 . S
C593 C592 1.363 . S
C593 C596 1.363 . S
N594 C596 1.356 . S
N594 H606 0.984 . S
N594 H607 0.985 . S
N595 C597 1.356 . S
N595 H600 0.984 . S
N595 H601 0.985 . S
C596 C590 1.379 . S
C596 C593 1.363 . S
C596 N594 1.356 . S
C597 C591 1.363 . S
C597 C592 1.379 . S
C597 N595 1.356 . S
N598 C590 1.356 . S
N598 H604 0.984 . S
N598 H605 0.984 . S
N599 C592 1.356 . S
N599 H602 0.984 . S
N599 H603 0.985 . S
H600 N595 0.984 . S
H601 N595 0.985 . S
H602 N599 0.984 . S
H603 N599 0.985 . S
H604 N598 0.984 . S
H605 N598 0.984 . S
H606 N594 0.984 . S
H607 N594 0.985 . S
C608 C609 1.363 1_565 S
C608 C614 1.379 1_556 S
C608 N616 1.356 . S
C609 C608 1.363 1_545 S
C609 C615 1.363 1_655 S
C610 C611 1.363 1_545 S
C610 C615 1.379 1_554 S
C610 N617 1.356 . S
C611 C610 1.363 1_565 S
C611 C614 1.363 1_455 S
N612 C614 1.356 . S
N612 H624 0.984 . S
N612 H625 0.985 1_655 S
N613 C615 1.356 . S
N613 H618 0.984 1_455 S
N613 H619 0.985 . S
C614 C608 1.379 1_554 S
C614 C611 1.363 1_655 S
C614 N612 1.356 . S
C615 C609 1.363 1_455 S
C615 C610 1.379 1_556 S
C615 N613 1.356 . S
N616 C608 1.356 . S
N616 H622 0.984 . S
N616 H623 0.984 . S
N617 C610 1.356 . S
N617 H620 0.984 . S
N617 H621 0.985 . S
H618 N613 0.984 1_655 S
H619 N613 0.985 . S
H620 N617 0.984 . S
H621 N617 0.985 . S
H622 N616 0.984 . S
H623 N616 0.984 . S
H624 N612 0.984 . S
H625 N612 0.985 1_455 S
C626 C627 1.363 . S
C626 C632 1.379 . S
C626 N634 1.356 . S
C627 C626 1.363 . S
C627 C633 1.363 . S
C628 C629 1.363 . S
C628 C633 1.379 . S
C628 N635 1.356 . S
C629 C628 1.363 . S
C629 C632 1.363 . S
N630 C632 1.356 . S
N630 H642 0.984 . S
N630 H643 0.985 . S
N631 C633 1.356 . S
N631 H636 0.984 . S
N631 H637 0.985 . S
C632 C626 1.379 . S
C632 C629 1.363 . S
C632 N630 1.356 . S
C633 C627 1.363 . S
C633 C628 1.379 . S
C633 N631 1.356 . S
N634 C626 1.356 . S
N634 H640 0.984 . S
N634 H641 0.984 . S
N635 C628 1.356 . S
N635 H638 0.984 . S
N635 H639 0.985 . S
H636 N631 0.984 . S
H637 N631 0.985 . S
H638 N635 0.984 . S
H639 N635 0.985 . S
H640 N634 0.984 . S
H641 N634 0.984 . S
H642 N630 0.984 . S
H643 N630 0.985 . S
C644 C645 1.363 . S
C644 C650 1.379 . S
C644 N652 1.356 . S
C645 C644 1.363 . S
C645 C651 1.363 1_545 S
C646 C647 1.363 . S
C646 C651 1.379 . S
C646 N653 1.356 . S
C647 C646 1.363 . S
C647 C650 1.363 1_565 S
N648 C650 1.356 . S
N648 H660 0.984 . S
N648 H661 0.985 . S
N649 C651 1.356 . S
N649 H654 0.984 . S
N649 H655 0.985 . S
C650 C644 1.379 . S
C650 C647 1.363 1_545 S
C650 N648 1.356 . S
C651 C645 1.363 1_565 S
C651 C646 1.379 . S
C651 N649 1.356 . S
N652 C644 1.356 . S
N652 H658 0.984 . S
N652 H659 0.984 . S
N653 C646 1.356 . S
N653 H656 0.984 . S
N653 H657 0.985 . S
H654 N649 0.984 . S
H655 N649 0.985 . S
H656 N653 0.984 . S
H657 N653 0.985 . S
H658 N652 0.984 . S
H659 N652 0.984 . S
H660 N648 0.984 . S
H661 N648 0.985 . S
C662 C663 1.363 . S
C662 C668 1.379 . S
C662 N670 1.356 . S
C663 C662 1.363 . S
C663 C669 1.363 . S
C664 C665 1.363 . S
C664 C669 1.379 . S
C664 N671 1.356 . S
C665 C664 1.363 . S
C665 C668 1.363 . S
N666 C668 1.356 . S
N666 H678 0.984 . S
N666 H679 0.985 . S
N667 C669 1.356 . S
N667 H672 0.984 . S
N667 H673 0.985 . S
C668 C662 1.379 . S
C668 C665 1.363 . S
C668 N666 1.356 . S
C669 C663 1.363 . S
C669 C664 1.379 . S
C669 N667 1.356 . S
N670 C662 1.356 . S
N670 H676 0.984 . S
N670 H677 0.984 . S
N671 C664 1.356 . S
N671 H674 0.984 . S
N671 H675 0.985 . S
H672 N667 0.984 . S
H673 N667 0.985 . S
H674 N671 0.984 . S
H675 N671 0.985 . S
H676 N670 0.984 . S
H677 N670 0.984 . S
H678 N666 0.984 . S
H679 N666 0.985 . S
C680 C681 1.363 . S
C680 C686 1.379 . S
C680 N688 1.356 . S
C681 C680 1.363 . S
C681 C687 1.363 . S
C682 C683 1.363 . S
C682 C687 1.379 . S
C682 N689 1.356 . S
C683 C682 1.363 . S
C683 C686 1.363 . S
N684 C686 1.356 . S
N684 H696 0.984 . S
N684 H697 0.985 . S
N685 C687 1.356 . S
N685 H690 0.984 . S
N685 H691 0.985 . S
C686 C680 1.379 . S
C686 C683 1.363 . S
C686 N684 1.356 . S
C687 C681 1.363 . S
C687 C682 1.379 . S
C687 N685 1.356 . S
N688 C680 1.356 . S
N688 H694 0.984 . S
N688 H695 0.984 . S
N689 C682 1.356 . S
N689 H692 0.984 . S
N689 H693 0.985 . S
H690 N685 0.984 . S
H691 N685 0.985 . S
H692 N689 0.984 . S
H693 N689 0.985 . S
H694 N688 0.984 . S
H695 N688 0.984 . S
H696 N684 0.984 . S
H697 N684 0.985 . S
C698 C699 1.363 . S
C698 C704 1.379 . S
C698 N706 1.356 . S
C699 C698 1.363 . S
C699 C705 1.363 . S
C700 C701 1.363 . S
C700 C705 1.379 . S
C700 N707 1.356 . S
C701 C700 1.363 . S
C701 C704 1.363 . S
N702 C704 1.356 . S
N702 H714 0.984 . S
N702 H715 0.985 . S
N703 C705 1.356 . S
N703 H708 0.984 . S
N703 H709 0.985 . S
C704 C698 1.379 . S
C704 C701 1.363 . S
C704 N702 1.356 . S
C705 C699 1.363 . S
C705 C700 1.379 . S
C705 N703 1.356 . S
N706 C698 1.356 . S
N706 H712 0.984 . S
N706 H713 0.984 . S
N707 C700 1.356 . S
N707 H710 0.984 . S
N707 H711 0.985 . S
H708 N703 0.984 . S
H709 N703 0.985 . S
H710 N707 0.984 . S
H711 N707 0.985 . S
H712 N706 0.984 . S
H713 N706 0.984 . S
H714 N702 0.984 . S
H715 N702 0.985 . S
C716 C717 1.363 . S
C716 C722 1.379 . S
C716 N724 1.356 . S
C717 C716 1.363 . S
C717 C723 1.363 . S
C718 C719 1.363 . S
C718 C723 1.379 . S
C718 N725 1.356 . S
C719 C718 1.363 . S
C719 C722 1.363 . S
N720 C722 1.356 . S
N720 H732 0.984 . S
N720 H733 0.985 . S
N721 C723 1.356 . S
N721 H726 0.984 . S
N721 H727 0.985 . S
C722 C716 1.379 . S
C722 C719 1.363 . S
C722 N720 1.356 . S
C723 C717 1.363 . S
C723 C718 1.379 . S
C723 N721 1.356 . S
N724 C716 1.356 . S
N724 H730 0.984 . S
N724 H731 0.984 . S
N725 C718 1.356 . S
N725 H728 0.984 . S
N725 H729 0.985 . S
H726 N721 0.984 . S
H727 N721 0.985 . S
H728 N725 0.984 . S
H729 N725 0.985 . S
H730 N724 0.984 . S
H731 N724 0.984 . S
H732 N720 0.984 . S
H733 N720 0.985 . S
C734 C735 1.363 . S
C734 C740 1.379 . S
C734 N742 1.356 . S
C735 C734 1.363 . S
C735 C741 1.363 1_656 S
C736 C737 1.363 . S
C736 C741 1.379 . S
C736 N743 1.356 . S
C737 C736 1.363 . S
C737 C740 1.363 1_454 S
N738 C740 1.356 . S
N738 H750 0.984 . S
N738 H751 0.985 1_656 S
N739 C741 1.356 . S
N739 H744 0.984 1_454 S
N739 H745 0.985 . S
C740 C734 1.379 . S
C740 C737 1.363 1_656 S
C740 N738 1.356 . S
C741 C735 1.363 1_454 S
C741 C736 1.379 . S
C741 N739 1.356 . S
N742 C734 1.356 . S
N742 H748 0.984 . S
N742 H749 0.984 . S
N743 C736 1.356 . S
N743 H746 0.984 . S
N743 H747 0.985 . S
H744 N739 0.984 1_656 S
H745 N739 0.985 . S
H746 N743 0.984 . S
H747 N743 0.985 . S
H748 N742 0.984 . S
H749 N742 0.984 . S
H750 N738 0.984 . S
H751 N738 0.985 1_454 S
C321 C10 1.569 . S
C323 C129 1.549 . S
C339 C9 1.044 . S
C341 C49 1.045 . S
C357 C50 1.569 . S
C359 C89 1.553 . S
C375 C90 1.980 . S
C377 C130 1.978 . S
C393 C19 1.569 . S
C395 C218 1.553 . S
C411 C18 1.044 . S
C413 C178 1.044 . S
C429 C179 1.569 . S
C431 C98 1.549 . S
C447 C219 1.980 . S
C449 C99 1.982 . S
C465 C250 1.569 . S
C467 C209 1.552 . S
C483 C169 1.044 . S
C485 C249 1.044 . S
C501 C289 1.551 . S
C503 C170 1.570 . S
C519 C210 1.980 . S
C521 C290 1.981 . S
C537 C138 1.551 . S
C539 C259 1.569 . S
C555 C258 1.044 . S
C557 C58 1.045 . S
C573 C59 1.569 . S
C575 C298 1.550 . S
C591 C139 1.980 . S
C593 C299 1.979 . S
C609 C15 1.513 . S
C611 C6 1.513 . S
C627 C55 1.513 . S
C629 C46 1.513 . S
C645 C95 1.921 . S
C647 C86 1.921 . S
C663 C126 1.921 . S
C665 C135 1.921 . S
C681 C175 1.513 . S
C683 C166 1.513 . S
C699 C206 1.921 . S
C701 C215 1.921 . S
C717 C246 1.513 . S
C719 C255 1.513 . S
C735 C286 1.921 . S
C737 C295 1.921 . S
