# Generated by pormake.
# Topology ukr, (4)-cn, num edge types: 1
# Building blocks:
#     Node 0, Type 0, BuildingBlock: CEKHIL_clean_sbu_0, # of connection points: 4
#     Node 1, Type 0, BuildingBlock: CEKHIL_clean_sbu_0, # of connection points: 4
#     Node 2, Type 0, BuildingBlock: CEKHIL_clean_sbu_0, # of connection points: 4
#     Node 3, Type 0, BuildingBlock: CEKHIL_clean_sbu_0, # of connection points: 4
#     Node 4, Type 0, BuildingBlock: CEKHIL_clean_sbu_0, # of connection points: 4
#     Node 5, Type 0, BuildingBlock: CEKHIL_clean_sbu_0, # of connection points: 4
#     Node 6, Type 0, BuildingBlock: CEKHIL_clean_sbu_0, # of connection points: 4
#     Node 7, Type 0, BuildingBlock: CEKHIL_clean_sbu_0, # of connection points: 4
#     Node 8, Type 0, BuildingBlock: CEKHIL_clean_sbu_0, # of connection points: 4
#     Node 9, Type 0, BuildingBlock: CEKHIL_clean_sbu_0, # of connection points: 4
#     Node 10, Type 0, BuildingBlock: CEKHIL_clean_sbu_0, # of connection points: 4
#     Node 11, Type 0, BuildingBlock: CEKHIL_clean_sbu_0, # of connection points: 4
#     Node 12, Type 0, BuildingBlock: CEKHIL_clean_sbu_0, # of connection points: 4
#     Node 13, Type 0, BuildingBlock: CEKHIL_clean_sbu_0, # of connection points: 4
#     Node 14, Type 0, BuildingBlock: CEKHIL_clean_sbu_0, # of connection points: 4
#     Node 15, Type 0, BuildingBlock: CEKHIL_clean_sbu_0, # of connection points: 4
#     Node 16, Type 0, BuildingBlock: CEKHIL_clean_sbu_0, # of connection points: 4
#     Node 17, Type 0, BuildingBlock: CEKHIL_clean_sbu_0, # of connection points: 4
#     Node 18, Type 0, BuildingBlock: CEKHIL_clean_sbu_0, # of connection points: 4
#     Node 19, Type 0, BuildingBlock: CEKHIL_clean_sbu_0, # of connection points: 4
#     Node 20, Type 0, BuildingBlock: CEKHIL_clean_sbu_0, # of connection points: 4
#     Node 21, Type 0, BuildingBlock: CEKHIL_clean_sbu_0, # of connection points: 4
#     Node 22, Type 0, BuildingBlock: CEKHIL_clean_sbu_0, # of connection points: 4
#     Node 23, Type 0, BuildingBlock: CEKHIL_clean_sbu_0, # of connection points: 4
#     Node 24, Type 0, BuildingBlock: CEKHIL_clean_sbu_0, # of connection points: 4
#     Node 25, Type 0, BuildingBlock: CEKHIL_clean_sbu_0, # of connection points: 4
#     Node 26, Type 0, BuildingBlock: CEKHIL_clean_sbu_0, # of connection points: 4
#     Node 27, Type 0, BuildingBlock: CEKHIL_clean_sbu_0, # of connection points: 4
#     Node 28, Type 0, BuildingBlock: CEKHIL_clean_sbu_0, # of connection points: 4
#     Node 29, Type 0, BuildingBlock: CEKHIL_clean_sbu_0, # of connection points: 4
#     Node 30, Type 0, BuildingBlock: CEKHIL_clean_sbu_0, # of connection points: 4
#     Node 31, Type 0, BuildingBlock: CEKHIL_clean_sbu_0, # of connection points: 4
#     Node 32, Type 0, BuildingBlock: CEKHIL_clean_sbu_0, # of connection points: 4
#     Node 33, Type 0, BuildingBlock: CEKHIL_clean_sbu_0, # of connection points: 4
#     Node 34, Type 0, BuildingBlock: CEKHIL_clean_sbu_0, # of connection points: 4
#     Node 35, Type 0, BuildingBlock: CEKHIL_clean_sbu_0, # of connection points: 4
#     Node 36, Type 0, BuildingBlock: CEKHIL_clean_sbu_0, # of connection points: 4
#     Node 37, Type 0, BuildingBlock: CEKHIL_clean_sbu_0, # of connection points: 4
#     Node 38, Type 0, BuildingBlock: CEKHIL_clean_sbu_0, # of connection points: 4
#     Node 39, Type 0, BuildingBlock: CEKHIL_clean_sbu_0, # of connection points: 4
#     Node 40, Type 0, BuildingBlock: CEKHIL_clean_sbu_0, # of connection points: 4
#     Node 41, Type 0, BuildingBlock: CEKHIL_clean_sbu_0, # of connection points: 4
#     Node 42, Type 0, BuildingBlock: CEKHIL_clean_sbu_0, # of connection points: 4
#     Node 43, Type 0, BuildingBlock: CEKHIL_clean_sbu_0, # of connection points: 4
#     Node 44, Type 0, BuildingBlock: CEKHIL_clean_sbu_0, # of connection points: 4
#     Node 45, Type 0, BuildingBlock: CEKHIL_clean_sbu_0, # of connection points: 4
#     Node 46, Type 0, BuildingBlock: CEKHIL_clean_sbu_0, # of connection points: 4
#     Node 47, Type 0, BuildingBlock: CEKHIL_clean_sbu_0, # of connection points: 4
#     Edge 48, Type (0, 0), BuildingBlock: TEMPAE_clean_linker_10, # of connection points: 2
#     Edge 49, Type (0, 0), BuildingBlock: TEMPAE_clean_linker_10, # of connection points: 2
#     Edge 50, Type (0, 0), BuildingBlock: TEMPAE_clean_linker_10, # of connection points: 2
#     Edge 51, Type (0, 0), BuildingBlock: TEMPAE_clean_linker_10, # of connection points: 2
#     Edge 52, Type (0, 0), BuildingBlock: TEMPAE_clean_linker_10, # of connection points: 2
#     Edge 53, Type (0, 0), BuildingBlock: TEMPAE_clean_linker_10, # of connection points: 2
#     Edge 54, Type (0, 0), BuildingBlock: TEMPAE_clean_linker_10, # of connection points: 2
#     Edge 55, Type (0, 0), BuildingBlock: TEMPAE_clean_linker_10, # of connection points: 2
#     Edge 56, Type (0, 0), BuildingBlock: TEMPAE_clean_linker_10, # of connection points: 2
#     Edge 57, Type (0, 0), BuildingBlock: TEMPAE_clean_linker_10, # of connection points: 2
#     Edge 58, Type (0, 0), BuildingBlock: TEMPAE_clean_linker_10, # of connection points: 2
#     Edge 59, Type (0, 0), BuildingBlock: TEMPAE_clean_linker_10, # of connection points: 2
#     Edge 60, Type (0, 0), BuildingBlock: TEMPAE_clean_linker_10, # of connection points: 2
#     Edge 61, Type (0, 0), BuildingBlock: TEMPAE_clean_linker_10, # of connection points: 2
#     Edge 62, Type (0, 0), BuildingBlock: TEMPAE_clean_linker_10, # of connection points: 2
#     Edge 63, Type (0, 0), BuildingBlock: TEMPAE_clean_linker_10, # of connection points: 2
#     Edge 64, Type (0, 0), BuildingBlock: TEMPAE_clean_linker_10, # of connection points: 2
#     Edge 65, Type (0, 0), BuildingBlock: TEMPAE_clean_linker_10, # of connection points: 2
#     Edge 66, Type (0, 0), BuildingBlock: TEMPAE_clean_linker_10, # of connection points: 2
#     Edge 67, Type (0, 0), BuildingBlock: TEMPAE_clean_linker_10, # of connection points: 2
#     Edge 68, Type (0, 0), BuildingBlock: TEMPAE_clean_linker_10, # of connection points: 2
#     Edge 69, Type (0, 0), BuildingBlock: TEMPAE_clean_linker_10, # of connection points: 2
#     Edge 70, Type (0, 0), BuildingBlock: TEMPAE_clean_linker_10, # of connection points: 2
#     Edge 71, Type (0, 0), BuildingBlock: TEMPAE_clean_linker_10, # of connection points: 2
#     Edge 72, Type (0, 0), BuildingBlock: TEMPAE_clean_linker_10, # of connection points: 2
#     Edge 73, Type (0, 0), BuildingBlock: TEMPAE_clean_linker_10, # of connection points: 2
#     Edge 74, Type (0, 0), BuildingBlock: TEMPAE_clean_linker_10, # of connection points: 2
#     Edge 75, Type (0, 0), BuildingBlock: TEMPAE_clean_linker_10, # of connection points: 2
#     Edge 76, Type (0, 0), BuildingBlock: TEMPAE_clean_linker_10, # of connection points: 2
#     Edge 77, Type (0, 0), BuildingBlock: TEMPAE_clean_linker_10, # of connection points: 2
#     Edge 78, Type (0, 0), BuildingBlock: TEMPAE_clean_linker_10, # of connection points: 2
#     Edge 79, Type (0, 0), BuildingBlock: TEMPAE_clean_linker_10, # of connection points: 2
#     Edge 80, Type (0, 0), BuildingBlock: TEMPAE_clean_linker_10, # of connection points: 2
#     Edge 81, Type (0, 0), BuildingBlock: TEMPAE_clean_linker_10, # of connection points: 2
#     Edge 82, Type (0, 0), BuildingBlock: TEMPAE_clean_linker_10, # of connection points: 2
#     Edge 83, Type (0, 0), BuildingBlock: TEMPAE_clean_linker_10, # of connection points: 2
#     Edge 84, Type (0, 0), BuildingBlock: TEMPAE_clean_linker_10, # of connection points: 2
#     Edge 85, Type (0, 0), BuildingBlock: TEMPAE_clean_linker_10, # of connection points: 2
#     Edge 86, Type (0, 0), BuildingBlock: TEMPAE_clean_linker_10, # of connection points: 2
#     Edge 87, Type (0, 0), BuildingBlock: TEMPAE_clean_linker_10, # of connection points: 2
#     Edge 88, Type (0, 0), BuildingBlock: TEMPAE_clean_linker_10, # of connection points: 2
#     Edge 89, Type (0, 0), BuildingBlock: TEMPAE_clean_linker_10, # of connection points: 2
#     Edge 90, Type (0, 0), BuildingBlock: TEMPAE_clean_linker_10, # of connection points: 2
#     Edge 91, Type (0, 0), BuildingBlock: TEMPAE_clean_linker_10, # of connection points: 2
#     Edge 92, Type (0, 0), BuildingBlock: TEMPAE_clean_linker_10, # of connection points: 2
#     Edge 93, Type (0, 0), BuildingBlock: TEMPAE_clean_linker_10, # of connection points: 2
#     Edge 94, Type (0, 0), BuildingBlock: TEMPAE_clean_linker_10, # of connection points: 2
#     Edge 95, Type (0, 0), BuildingBlock: TEMPAE_clean_linker_10, # of connection points: 2
#     Edge 96, Type (0, 0), BuildingBlock: TEMPAE_clean_linker_10, # of connection points: 2
#     Edge 97, Type (0, 0), BuildingBlock: TEMPAE_clean_linker_10, # of connection points: 2
#     Edge 98, Type (0, 0), BuildingBlock: TEMPAE_clean_linker_10, # of connection points: 2
#     Edge 99, Type (0, 0), BuildingBlock: TEMPAE_clean_linker_10, # of connection points: 2
#     Edge 100, Type (0, 0), BuildingBlock: TEMPAE_clean_linker_10, # of connection points: 2
#     Edge 101, Type (0, 0), BuildingBlock: TEMPAE_clean_linker_10, # of connection points: 2
#     Edge 102, Type (0, 0), BuildingBlock: TEMPAE_clean_linker_10, # of connection points: 2
#     Edge 103, Type (0, 0), BuildingBlock: TEMPAE_clean_linker_10, # of connection points: 2
#     Edge 104, Type (0, 0), BuildingBlock: TEMPAE_clean_linker_10, # of connection points: 2
#     Edge 105, Type (0, 0), BuildingBlock: TEMPAE_clean_linker_10, # of connection points: 2
#     Edge 106, Type (0, 0), BuildingBlock: TEMPAE_clean_linker_10, # of connection points: 2
#     Edge 107, Type (0, 0), BuildingBlock: TEMPAE_clean_linker_10, # of connection points: 2
#     Edge 108, Type (0, 0), BuildingBlock: TEMPAE_clean_linker_10, # of connection points: 2
#     Edge 109, Type (0, 0), BuildingBlock: TEMPAE_clean_linker_10, # of connection points: 2
#     Edge 110, Type (0, 0), BuildingBlock: TEMPAE_clean_linker_10, # of connection points: 2
#     Edge 111, Type (0, 0), BuildingBlock: TEMPAE_clean_linker_10, # of connection points: 2
#     Edge 112, Type (0, 0), BuildingBlock: TEMPAE_clean_linker_10, # of connection points: 2
#     Edge 113, Type (0, 0), BuildingBlock: TEMPAE_clean_linker_10, # of connection points: 2
#     Edge 114, Type (0, 0), BuildingBlock: TEMPAE_clean_linker_10, # of connection points: 2
#     Edge 115, Type (0, 0), BuildingBlock: TEMPAE_clean_linker_10, # of connection points: 2
#     Edge 116, Type (0, 0), BuildingBlock: TEMPAE_clean_linker_10, # of connection points: 2
#     Edge 117, Type (0, 0), BuildingBlock: TEMPAE_clean_linker_10, # of connection points: 2
#     Edge 118, Type (0, 0), BuildingBlock: TEMPAE_clean_linker_10, # of connection points: 2
#     Edge 119, Type (0, 0), BuildingBlock: TEMPAE_clean_linker_10, # of connection points: 2
#     Edge 120, Type (0, 0), BuildingBlock: TEMPAE_clean_linker_10, # of connection points: 2
#     Edge 121, Type (0, 0), BuildingBlock: TEMPAE_clean_linker_10, # of connection points: 2
#     Edge 122, Type (0, 0), BuildingBlock: TEMPAE_clean_linker_10, # of connection points: 2
#     Edge 123, Type (0, 0), BuildingBlock: TEMPAE_clean_linker_10, # of connection points: 2
#     Edge 124, Type (0, 0), BuildingBlock: TEMPAE_clean_linker_10, # of connection points: 2
#     Edge 125, Type (0, 0), BuildingBlock: TEMPAE_clean_linker_10, # of connection points: 2
#     Edge 126, Type (0, 0), BuildingBlock: TEMPAE_clean_linker_10, # of connection points: 2
#     Edge 127, Type (0, 0), BuildingBlock: TEMPAE_clean_linker_10, # of connection points: 2
#     Edge 128, Type (0, 0), BuildingBlock: TEMPAE_clean_linker_10, # of connection points: 2
#     Edge 129, Type (0, 0), BuildingBlock: TEMPAE_clean_linker_10, # of connection points: 2
#     Edge 130, Type (0, 0), BuildingBlock: TEMPAE_clean_linker_10, # of connection points: 2
#     Edge 131, Type (0, 0), BuildingBlock: TEMPAE_clean_linker_10, # of connection points: 2
#     Edge 132, Type (0, 0), BuildingBlock: TEMPAE_clean_linker_10, # of connection points: 2
#     Edge 133, Type (0, 0), BuildingBlock: TEMPAE_clean_linker_10, # of connection points: 2
#     Edge 134, Type (0, 0), BuildingBlock: TEMPAE_clean_linker_10, # of connection points: 2
#     Edge 135, Type (0, 0), BuildingBlock: TEMPAE_clean_linker_10, # of connection points: 2
#     Edge 136, Type (0, 0), BuildingBlock: TEMPAE_clean_linker_10, # of connection points: 2
#     Edge 137, Type (0, 0), BuildingBlock: TEMPAE_clean_linker_10, # of connection points: 2
#     Edge 138, Type (0, 0), BuildingBlock: TEMPAE_clean_linker_10, # of connection points: 2
#     Edge 139, Type (0, 0), BuildingBlock: TEMPAE_clean_linker_10, # of connection points: 2
#     Edge 140, Type (0, 0), BuildingBlock: TEMPAE_clean_linker_10, # of connection points: 2
#     Edge 141, Type (0, 0), BuildingBlock: TEMPAE_clean_linker_10, # of connection points: 2
#     Edge 142, Type (0, 0), BuildingBlock: TEMPAE_clean_linker_10, # of connection points: 2
#     Edge 143, Type (0, 0), BuildingBlock: TEMPAE_clean_linker_10, # of connection points: 2
# Relax obj value: 0.467
# Max RMSD: 0.181
# Mean RMSD: 0.181
data_MOF--net-ukr--node1-CEKHIL_clean_sbu_0--edge1-TEMPAE_clean_linker_10
_symmetry_space_group_name_H-M    P1
_symmetry_Int_Tables_number       1
_symmetry_cell_setting            triclinic
loop_
_symmetry_equiv_pos_as_xyz
'x, y, z'
_cell_length_a     68.61464
_cell_length_b     68.590697
_cell_length_c     68.625063
_cell_angle_alpha  89.998782
_cell_angle_beta   89.996802
_cell_angle_gamma 89.95248
loop_
_atom_site_label
_atom_site_type_symbol
_atom_site_fract_x
_atom_site_fract_y
_atom_site_fract_z
_atom_type_partial_charge
Co0 Co 0.0846 0.27201 0.19004 0.0
O1 O 0.05846 0.2798 0.19561 0.0
O2 O 0.07461 0.2872 0.16851 0.0
C3 C 0.08181 0.24047 0.19869 0.0
O4 O 0.11133 0.2658 0.17891 0.0
Co5 Co 0.11163 0.25696 0.22315 0.0
O6 O 0.12896 0.24938 0.20114 0.0
C7 C 0.09983 0.29815 0.2216 0.0
C8 C 0.05868 0.28829 0.17871 0.0
C9 C 0.12639 0.25576 0.18386 0.0
O10 O 0.09455 0.29611 0.20371 0.0
O11 O 0.10469 0.28378 0.23246 0.0
O12 O 0.07602 0.24608 0.18154 0.0
O13 O 0.08672 0.25427 0.21041 0.0
Co14 Co 0.23804 0.60217 0.70572 0.0
O15 O 0.23246 0.57732 0.717 0.0
O16 O 0.22298 0.58687 0.68754 0.0
C17 C 0.26978 0.60325 0.7138 0.0
O18 O 0.24229 0.62598 0.68862 0.0
Co19 Co 0.25217 0.637 0.73106 0.0
O20 O 0.25948 0.64825 0.70542 0.0
C21 C 0.21066 0.6256 0.73149 0.0
C22 C 0.22364 0.5733 0.70075 0.0
C23 C 0.2525 0.64168 0.6895 0.0
O24 O 0.21341 0.61353 0.71736 0.0
O25 O 0.22456 0.63477 0.73991 0.0
O26 O 0.26431 0.59353 0.69848 0.0
O27 O 0.25591 0.60987 0.72457 0.0
Co28 Co 0.90222 0.73255 0.22164 0.0
O29 O 0.92465 0.72084 0.23361 0.0
O30 O 0.91695 0.71859 0.20225 0.0
C31 C 0.90479 0.7626 0.23465 0.0
O32 O 0.88129 0.74333 0.20368 0.0
Co33 Co 0.86737 0.74818 0.24611 0.0
O34 O 0.85904 0.76001 0.22107 0.0
C35 C 0.87259 0.70579 0.24066 0.0
C36 C 0.92897 0.71451 0.2163 0.0
C37 C 0.86656 0.75487 0.20488 0.0
O38 O 0.88616 0.70861 0.22798 0.0
O39 O 0.86486 0.71957 0.25059 0.0
O40 O 0.91538 0.75781 0.21969 0.0
O41 O 0.89528 0.74848 0.24258 0.0
Co42 Co 0.74443 0.40178 0.71393 0.0
O43 O 0.75092 0.42744 0.72271 0.0
O44 O 0.75878 0.41502 0.69381 0.0
C45 C 0.71314 0.40144 0.72361 0.0
O46 O 0.73921 0.37678 0.6991 0.0
Co47 Co 0.73194 0.36906 0.74258 0.0
O48 O 0.72303 0.35583 0.71839 0.0
C49 C 0.77334 0.38003 0.73964 0.0
C50 C 0.75929 0.42962 0.70586 0.0
C51 C 0.72907 0.36124 0.70167 0.0
O52 O 0.76954 0.39124 0.72509 0.0
O53 O 0.76017 0.37116 0.74943 0.0
O54 O 0.71791 0.41004 0.7074 0.0
O55 O 0.72752 0.39567 0.73425 0.0
Co56 Co 0.09316 0.73633 0.79334 0.0
O57 O 0.06665 0.7331 0.78568 0.0
O58 O 0.07939 0.72247 0.81354 0.0
C59 C 0.09579 0.76796 0.78521 0.0
O60 O 0.11937 0.73826 0.8068 0.0
Co61 Co 0.12509 0.74735 0.76324 0.0
O62 O 0.14023 0.75401 0.78709 0.0
C63 C 0.10875 0.70759 0.7637 0.0
C64 C 0.0642 0.72457 0.8024 0.0
C65 C 0.13542 0.74746 0.80381 0.0
O66 O 0.10053 0.71097 0.78022 0.0
O67 O 0.11739 0.72082 0.75376 0.0
O68 O 0.08788 0.7631 0.80172 0.0
O69 O 0.09969 0.75371 0.77359 0.0
Co70 Co 0.75107 0.58971 0.29086 0.0
O71 O 0.75575 0.56343 0.28281 0.0
O72 O 0.76499 0.57617 0.31114 0.0
C73 C 0.71967 0.5918 0.28173 0.0
O74 O 0.74767 0.61545 0.30491 0.0
Co75 Co 0.74027 0.62212 0.26123 0.0
O76 O 0.73253 0.63672 0.28512 0.0
C77 C 0.78034 0.6069 0.26257 0.0
C78 C 0.76433 0.56121 0.29954 0.0
C79 C 0.73832 0.63143 0.30197 0.0
O80 O 0.77656 0.59826 0.27879 0.0
O81 O 0.76726 0.61542 0.25233 0.0
O82 O 0.72418 0.58343 0.29815 0.0
O83 O 0.73419 0.59624 0.27068 0.0
Co84 Co 0.91061 0.27574 0.77878 0.0
O85 O 0.93488 0.28701 0.7708 0.0
O86 O 0.92228 0.28898 0.80057 0.0
C87 C 0.91431 0.24584 0.76582 0.0
O88 O 0.8869 0.26525 0.79286 0.0
Co89 Co 0.87962 0.26212 0.74877 0.0
O90 O 0.86734 0.24949 0.77181 0.0
C91 C 0.88669 0.304 0.75497 0.0
C92 C 0.93649 0.29296 0.78872 0.0
C93 C 0.87247 0.25392 0.78911 0.0
O94 O 0.89643 0.30019 0.77054 0.0
O95 O 0.88072 0.29075 0.74326 0.0
O96 O 0.92269 0.25014 0.78226 0.0
O97 O 0.90661 0.26037 0.7567 0.0
Co98 Co 0.23555 0.38916 0.29277 0.0
O99 O 0.22512 0.41293 0.2825 0.0
O100 O 0.22366 0.40385 0.31357 0.0
C101 C 0.26479 0.39042 0.27802 0.0
O102 O 0.24542 0.36634 0.309 0.0
Co103 Co 0.24718 0.35452 0.26585 0.0
O104 O 0.26065 0.34484 0.2895 0.0
C105 C 0.20565 0.36327 0.27334 0.0
C106 C 0.21968 0.4167 0.30024 0.0
C107 C 0.25645 0.35137 0.30637 0.0
O108 O 0.21012 0.37573 0.28662 0.0
O109 O 0.21825 0.35448 0.26274 0.0
O110 O 0.26181 0.40023 0.29396 0.0
O111 O 0.24962 0.38218 0.27063 0.0
Co112 Co 0.18945 0.10279 0.25735 0.0
O113 O 0.19874 0.07878 0.26796 0.0
O114 O 0.16842 0.08992 0.27092 0.0
C115 C 0.20237 0.09968 0.22737 0.0
O116 O 0.17436 0.12643 0.24766 0.0
Co117 Co 0.2185 0.13478 0.2434 0.0
O118 O 0.19481 0.14657 0.23183 0.0
C119 C 0.21248 0.12787 0.2854 0.0
C120 C 0.18121 0.07643 0.27465 0.0
C121 C 0.17769 0.14129 0.23669 0.0
O122 O 0.19792 0.11655 0.28196 0.0
O123 O 0.22327 0.13515 0.27205 0.0
O124 O 0.18596 0.09114 0.23149 0.0
O125 O 0.21118 0.10764 0.2419 0.0
Co126 Co 0.40462 0.721 0.74867 0.0
O127 O 0.4311 0.72816 0.75373 0.0
O128 O 0.41649 0.70138 0.76466 0.0
C129 C 0.40388 0.72695 0.71653 0.0
O130 O 0.37852 0.70774 0.74555 0.0
Co131 Co 0.37373 0.75053 0.73413 0.0
O132 O 0.35857 0.72662 0.72771 0.0
C133 C 0.38657 0.75176 0.77502 0.0
C134 C 0.43215 0.71194 0.76352 0.0
C135 C 0.36314 0.71023 0.73518 0.0
O136 O 0.39576 0.73558 0.7726 0.0
O137 O 0.37832 0.76092 0.76101 0.0
O138 O 0.41162 0.7109 0.72303 0.0
O139 O 0.39951 0.73974 0.72964 0.0
Co140 Co 0.79056 0.90417 0.26471 0.0
O141 O 0.78096 0.92944 0.27152 0.0
O142 O 0.80977 0.91738 0.2804 0.0
C143 C 0.78284 0.90468 0.23285 0.0
O144 O 0.80585 0.87932 0.2598 0.0
Co145 Co 0.76283 0.87183 0.24944 0.0
O146 O 0.78756 0.85831 0.24258 0.0
C147 C 0.76132 0.884 0.29062 0.0
C148 C 0.7973 0.93163 0.28081 0.0
C149 C 0.80388 0.86367 0.24967 0.0
O150 O 0.77766 0.89301 0.28869 0.0
O151 O 0.75218 0.87645 0.27621 0.0
O152 O 0.79869 0.91318 0.23885 0.0
O153 O 0.77142 0.89847 0.24638 0.0
Co154 Co 0.58292 0.28301 0.7742 0.0
O155 O 0.55857 0.27411 0.7847 0.0
O156 O 0.57088 0.30377 0.78873 0.0
C157 C 0.57955 0.27186 0.74349 0.0
O158 O 0.60656 0.29806 0.76495 0.0
Co159 Co 0.6144 0.25438 0.75869 0.0
O160 O 0.62676 0.27843 0.7482 0.0
C161 C 0.60711 0.25763 0.80088 0.0
C162 C 0.55672 0.29159 0.7918 0.0
C163 C 0.62135 0.29531 0.75379 0.0
O164 O 0.59705 0.27327 0.79818 0.0
O165 O 0.61327 0.24697 0.78685 0.0
O166 O 0.57106 0.288 0.7487 0.0
O167 O 0.58731 0.26201 0.75748 0.0
Co168 Co 0.21337 0.90141 0.73712 0.0
O169 O 0.22309 0.92576 0.72767 0.0
O170 O 0.19314 0.91437 0.72255 0.0
C171 C 0.22396 0.90334 0.76806 0.0
O172 O 0.19789 0.87755 0.74518 0.0
Co173 Co 0.2417 0.86904 0.75149 0.0
O174 O 0.21742 0.85638 0.76088 0.0
C175 C 0.23805 0.87719 0.70957 0.0
C176 C 0.20597 0.92802 0.71989 0.0
C177 C 0.2006 0.86209 0.75543 0.0
O178 O 0.22322 0.88821 0.71278 0.0
O179 O 0.24841 0.86975 0.72318 0.0
O180 O 0.20808 0.91235 0.76292 0.0
O181 O 0.23402 0.89607 0.75394 0.0
Co182 Co 0.59632 0.7162 0.22716 0.0
O183 O 0.57279 0.72655 0.21611 0.0
O184 O 0.58359 0.69628 0.21203 0.0
C185 C 0.59263 0.72708 0.25792 0.0
O186 O 0.61896 0.69984 0.23696 0.0
Co187 Co 0.62868 0.74312 0.24382 0.0
O188 O 0.63943 0.71844 0.25454 0.0
C189 C 0.62287 0.74027 0.20134 0.0
C190 C 0.57025 0.70931 0.20869 0.0
C191 C 0.63347 0.70186 0.24865 0.0
O192 O 0.61152 0.7255 0.20366 0.0
O193 O 0.62945 0.75032 0.21562 0.0
O194 O 0.58349 0.7115 0.25221 0.0
O195 O 0.60124 0.73676 0.2443 0.0
Co196 Co 0.81255 0.09623 0.72616 0.0
O197 O 0.80571 0.06985 0.72047 0.0
O198 O 0.83384 0.08385 0.71245 0.0
C199 C 0.80285 0.09671 0.75748 0.0
O200 O 0.825 0.12274 0.73047 0.0
Co201 Co 0.7807 0.12635 0.73778 0.0
O202 O 0.80352 0.14259 0.7453 0.0
C203 C 0.78237 0.1104 0.69802 0.0
C204 C 0.82272 0.06851 0.7123 0.0
C205 C 0.82077 0.13858 0.73961 0.0
O206 O 0.80003 0.10471 0.70087 0.0
O207 O 0.77155 0.11721 0.7116 0.0
O208 O 0.81983 0.08953 0.75301 0.0
O209 O 0.79184 0.10103 0.74292 0.0
Co210 Co 0.41254 0.28691 0.24 0.0
O211 O 0.43957 0.28055 0.23835 0.0
O212 O 0.42617 0.30788 0.22713 0.0
C213 C 0.408 0.27828 0.27125 0.0
O214 O 0.38563 0.29905 0.24035 0.0
Co215 Co 0.38155 0.25499 0.24852 0.0
O216 O 0.3649 0.27804 0.25452 0.0
C217 C 0.40007 0.25709 0.20989 0.0
C218 C 0.4417 0.29737 0.22993 0.0
C219 C 0.36924 0.2951 0.24852 0.0
O220 O 0.40734 0.27387 0.2141 0.0
O221 O 0.3913 0.24638 0.22241 0.0
O222 O 0.41556 0.29518 0.26716 0.0
O223 O 0.40582 0.26665 0.25668 0.0
Co224 Co 0.26811 0.2128 0.10049 0.0
O225 O 0.28016 0.22195 0.07698 0.0
O226 O 0.28096 0.19141 0.08775 0.0
C227 C 0.23882 0.22718 0.09699 0.0
O228 O 0.25677 0.19739 0.12299 0.0
Co229 Co 0.25453 0.24069 0.13344 0.0
O230 O 0.24003 0.21742 0.14276 0.0
C231 C 0.29645 0.23268 0.12795 0.0
C232 C 0.2858 0.20401 0.07448 0.0
C233 C 0.24455 0.20038 0.13687 0.0
O234 O 0.29256 0.21928 0.11544 0.0
O235 O 0.28345 0.24365 0.13564 0.0
O236 O 0.24268 0.21107 0.08775 0.0
O237 O 0.25342 0.23512 0.10578 0.0
Co238 Co 0.26713 0.78521 0.90126 0.0
O239 O 0.27735 0.77528 0.92529 0.0
O240 O 0.27994 0.80593 0.91512 0.0
C241 C 0.23719 0.77192 0.90299 0.0
O242 O 0.25784 0.80119 0.87822 0.0
Co243 Co 0.25414 0.75789 0.86755 0.0
O244 O 0.24252 0.78205 0.85652 0.0
C245 C 0.296 0.7637 0.87583 0.0
C246 C 0.28333 0.79297 0.92851 0.0
C247 C 0.24727 0.79883 0.86294 0.0
O248 O 0.29207 0.77789 0.88747 0.0
O249 O 0.28284 0.75288 0.86821 0.0
O250 O 0.24102 0.78786 0.91251 0.0
O251 O 0.25198 0.76354 0.89502 0.0
Co252 Co 0.70194 0.76 0.40289 0.0
O253 O 0.7113 0.76822 0.42787 0.0
O254 O 0.68201 0.77514 0.41583 0.0
C255 C 0.71127 0.72854 0.40454 0.0
O256 O 0.68685 0.75342 0.37824 0.0
Co257 Co 0.73042 0.74448 0.37114 0.0
O258 O 0.70606 0.73664 0.35763 0.0
C259 C 0.72925 0.78645 0.38056 0.0
C260 C 0.69448 0.77663 0.43001 0.0
C261 C 0.68942 0.7432 0.36271 0.0
O262 O 0.71357 0.78416 0.39064 0.0
O263 O 0.73902 0.77217 0.37357 0.0
O264 O 0.69515 0.73406 0.41287 0.0
O265 O 0.72197 0.7424 0.39784 0.0
Co266 Co 0.74997 0.20856 0.89397 0.0
O267 O 0.74404 0.21623 0.92009 0.0
O268 O 0.73565 0.18797 0.90662 0.0
C269 C 0.78135 0.2178 0.89361 0.0
O270 O 0.75476 0.19487 0.86819 0.0
Co271 Co 0.76222 0.23869 0.86253 0.0
O272 O 0.77115 0.21508 0.84828 0.0
C273 C 0.72104 0.23594 0.8743 0.0
C274 C 0.73568 0.19931 0.92178 0.0
C275 C 0.76511 0.19813 0.85291 0.0
O276 O 0.7248 0.22059 0.88443 0.0
O277 O 0.73422 0.24604 0.86581 0.0
O278 O 0.77648 0.20126 0.9015 0.0
O279 O 0.76705 0.22893 0.88858 0.0
Co280 Co 0.29491 0.22429 0.40523 0.0
O281 O 0.28856 0.2158 0.43094 0.0
O282 O 0.31591 0.20841 0.4151 0.0
C283 C 0.28691 0.25599 0.40818 0.0
O284 O 0.30703 0.23113 0.37924 0.0
Co285 Co 0.26307 0.24025 0.37732 0.0
O286 O 0.28577 0.24839 0.36119 0.0
C287 C 0.26333 0.19903 0.38875 0.0
C288 C 0.30528 0.20689 0.43069 0.0
C289 C 0.30288 0.24198 0.36455 0.0
O290 O 0.28116 0.20069 0.39431 0.0
O291 O 0.25288 0.21365 0.38373 0.0
O292 O 0.30362 0.2498 0.41469 0.0
O293 O 0.27495 0.24253 0.4028 0.0
Co294 Co 0.75192 0.79027 0.09131 0.0
O295 O 0.74728 0.78131 0.06534 0.0
O296 O 0.73626 0.80921 0.07762 0.0
C297 C 0.78399 0.78348 0.09268 0.0
O298 O 0.7549 0.80501 0.11678 0.0
Co299 Co 0.76579 0.7618 0.12368 0.0
O300 O 0.77123 0.78629 0.13818 0.0
C301 C 0.72494 0.7608 0.11062 0.0
C302 C 0.73753 0.79737 0.06288 0.0
C303 C 0.7642 0.80268 0.13288 0.0
O304 O 0.72756 0.77659 0.10079 0.0
O305 O 0.73888 0.7517 0.11905 0.0
O306 O 0.77807 0.79939 0.08422 0.0
O307 O 0.77043 0.77148 0.09764 0.0
Co308 Co 0.69299 0.23174 0.60343 0.0
O309 O 0.70318 0.22313 0.57894 0.0
O310 O 0.67341 0.21669 0.58996 0.0
C311 C 0.70276 0.26301 0.60133 0.0
O312 O 0.67698 0.23888 0.62741 0.0
Co313 Co 0.7201 0.2478 0.6361 0.0
O314 O 0.69528 0.25681 0.64782 0.0
C315 C 0.71866 0.20549 0.62794 0.0
C316 C 0.68631 0.21502 0.57619 0.0
C317 C 0.67888 0.24995 0.64244 0.0
O318 O 0.70409 0.20763 0.61629 0.0
O319 O 0.72768 0.21973 0.63592 0.0
O320 O 0.6868 0.25751 0.59272 0.0
O321 O 0.71301 0.24922 0.60892 0.0
Co322 Co 0.28485 0.76461 0.58327 0.0
O323 O 0.27641 0.77373 0.55833 0.0
O324 O 0.3058 0.77875 0.57117 0.0
C325 C 0.27412 0.73368 0.5816 0.0
O326 O 0.29921 0.7569 0.6078 0.0
Co327 Co 0.25527 0.75128 0.61474 0.0
O328 O 0.27892 0.74223 0.62892 0.0
C329 C 0.2582 0.79264 0.60409 0.0
C330 C 0.2937 0.78133 0.55686 0.0
C331 C 0.29597 0.74717 0.62344 0.0
O332 O 0.27451 0.78925 0.5955 0.0
O333 O 0.24725 0.77905 0.61067 0.0
O334 O 0.29039 0.73851 0.57313 0.0
O335 O 0.26387 0.74806 0.58807 0.0
Co336 Co 0.90118 0.73336 0.79906 0.0
O337 O 0.92712 0.72592 0.79211 0.0
O338 O 0.91296 0.71986 0.82068 0.0
C339 C 0.9017 0.76429 0.7882 0.0
O340 O 0.87531 0.73935 0.8119 0.0
Co341 Co 0.87065 0.74494 0.76776 0.0
O342 O 0.85536 0.75426 0.79063 0.0
C343 C 0.88486 0.70456 0.77061 0.0
C344 C 0.92806 0.71819 0.80939 0.0
C345 C 0.8598 0.74907 0.80793 0.0
O346 O 0.89138 0.70806 0.78782 0.0
O347 O 0.87802 0.71788 0.75947 0.0
O348 O 0.90923 0.76011 0.8051 0.0
O349 O 0.89659 0.74952 0.7778 0.0
Co350 Co 0.77744 0.40154 0.28972 0.0
O351 O 0.78636 0.42677 0.28182 0.0
O352 O 0.79258 0.41295 0.31044 0.0
C353 C 0.74609 0.4044 0.28052 0.0
O354 O 0.76987 0.37653 0.30357 0.0
Co355 Co 0.76186 0.37149 0.2597 0.0
O356 O 0.75253 0.35746 0.28331 0.0
C357 C 0.80359 0.38132 0.26082 0.0
C358 C 0.79431 0.42791 0.29897 0.0
C359 C 0.75873 0.36182 0.30028 0.0
O360 O 0.80139 0.38929 0.27768 0.0
O361 O 0.78925 0.37542 0.25047 0.0
O362 O 0.75187 0.41199 0.29689 0.0
O363 O 0.75979 0.39788 0.26941 0.0
Co364 Co 0.09708 0.247 0.78032 0.0
O365 O 0.07126 0.25233 0.77121 0.0
O366 O 0.08359 0.26243 0.79944 0.0
C367 C 0.09837 0.21508 0.77302 0.0
O368 O 0.12218 0.2434 0.79541 0.0
Co369 Co 0.13006 0.23351 0.75247 0.0
O370 O 0.14396 0.22715 0.7771 0.0
C371 C 0.11766 0.27458 0.75228 0.0
C372 C 0.06896 0.26186 0.78744 0.0
C373 C 0.1382 0.2339 0.79342 0.0
O374 O 0.10697 0.27153 0.76738 0.0
O375 O 0.12665 0.26094 0.74325 0.0
O376 O 0.0895 0.22084 0.78878 0.0
O377 O 0.10364 0.22878 0.76127 0.0
Co378 Co 0.24213 0.58368 0.27642 0.0
O379 O 0.23796 0.55754 0.26759 0.0
O380 O 0.22937 0.56902 0.29666 0.0
C381 C 0.27324 0.58691 0.26653 0.0
O382 O 0.24506 0.60902 0.29122 0.0
Co383 Co 0.25139 0.61739 0.24768 0.0
O384 O 0.25848 0.63176 0.27188 0.0
C385 C 0.21114 0.60266 0.25099 0.0
C386 C 0.23027 0.55442 0.28462 0.0
C387 C 0.25305 0.62575 0.28862 0.0
O388 O 0.21602 0.59217 0.26576 0.0
O389 O 0.22355 0.61209 0.24072 0.0
O390 O 0.26934 0.57779 0.28268 0.0
O391 O 0.25833 0.59138 0.25601 0.0
Co392 Co 0.89869 0.24564 0.1952 0.0
O393 O 0.92466 0.25187 0.20327 0.0
O394 O 0.91139 0.2604 0.17498 0.0
C395 C 0.89874 0.21408 0.20429 0.0
O396 O 0.87323 0.24088 0.18098 0.0
Co397 Co 0.86689 0.23199 0.22443 0.0
O398 O 0.8525 0.22464 0.20041 0.0
C399 C 0.87815 0.27346 0.22287 0.0
C400 C 0.92641 0.26053 0.18651 0.0
C401 C 0.85751 0.2311 0.18374 0.0
O402 O 0.88853 0.27048 0.20751 0.0
O403 O 0.87 0.25974 0.23252 0.0
O404 O 0.90663 0.21914 0.1878 0.0
O405 O 0.89327 0.22826 0.21529 0.0
Co406 Co 0.22334 0.40831 0.70756 0.0
O407 O 0.21382 0.43291 0.71679 0.0
O408 O 0.2098 0.42145 0.68676 0.0
C409 C 0.25389 0.41018 0.71948 0.0
O410 O 0.23171 0.38434 0.69239 0.0
Co411 Co 0.2368 0.37583 0.73616 0.0
O412 O 0.24692 0.36309 0.71217 0.0
C413 C 0.19506 0.38521 0.73209 0.0
C414 C 0.20705 0.4354 0.69928 0.0
C415 C 0.24186 0.36884 0.69523 0.0
O416 O 0.19855 0.39523 0.71661 0.0
O417 O 0.20856 0.37833 0.74299 0.0
O418 O 0.24948 0.41901 0.7033 0.0
O419 O 0.23934 0.40288 0.72884 0.0
Co420 Co 0.09769 0.73582 0.231 0.0
O421 O 0.07356 0.72928 0.24337 0.0
O422 O 0.08117 0.7224 0.21266 0.0
C423 C 0.0998 0.76683 0.24138 0.0
O424 O 0.12037 0.74151 0.21282 0.0
Co425 Co 0.13425 0.74717 0.25518 0.0
O426 O 0.14392 0.75687 0.22965 0.0
C427 C 0.12278 0.70585 0.2521 0.0
C428 C 0.06847 0.72189 0.22671 0.0
C429 C 0.13624 0.75146 0.21361 0.0
O430 O 0.10963 0.71023 0.23945 0.0
O431 O 0.13281 0.71869 0.26119 0.0
O432 O 0.08874 0.76253 0.2266 0.0
O433 O 0.10689 0.75212 0.2507 0.0
Co434 Co 0.76591 0.58773 0.70713 0.0
O435 O 0.77714 0.5638 0.71612 0.0
O436 O 0.7815 0.57651 0.68665 0.0
C437 C 0.73511 0.58283 0.71742 0.0
O438 O 0.75614 0.61128 0.69215 0.0
Co439 Co 0.74788 0.61798 0.73581 0.0
O440 O 0.73797 0.63039 0.71163 0.0
C441 C 0.79059 0.61403 0.73254 0.0
C442 C 0.78484 0.56243 0.69887 0.0
C443 C 0.74444 0.62566 0.69487 0.0
O444 O 0.78896 0.60263 0.71772 0.0
O445 O 0.77605 0.62004 0.74257 0.0
O446 O 0.74107 0.57491 0.70127 0.0
O447 O 0.74848 0.59103 0.72773 0.0
Co448 Co 0.79266 0.90494 0.7379 0.0
O449 O 0.78525 0.9311 0.73167 0.0
O450 O 0.81379 0.91766 0.72438 0.0
C451 C 0.78229 0.9049 0.76901 0.0
O452 O 0.80607 0.87908 0.74322 0.0
Co453 Co 0.76192 0.87383 0.74951 0.0
O454 O 0.7852 0.85919 0.75878 0.0
C455 C 0.76523 0.88648 0.70859 0.0
C456 C 0.80255 0.93293 0.72419 0.0
C457 C 0.80237 0.86366 0.75323 0.0
O458 O 0.78141 0.89521 0.7124 0.0
O459 O 0.75441 0.87895 0.7218 0.0
O460 O 0.79904 0.91261 0.76465 0.0
O461 O 0.77173 0.89977 0.75436 0.0
Co462 Co 0.60569 0.29474 0.23564 0.0
O463 O 0.5811 0.28598 0.22581 0.0
O464 O 0.59262 0.31611 0.22288 0.0
C465 C 0.60371 0.28149 0.26556 0.0
O466 O 0.62976 0.30951 0.24454 0.0
Co467 Co 0.63824 0.26568 0.2481 0.0
O468 O 0.65022 0.28914 0.26004 0.0
C469 C 0.62979 0.27217 0.20638 0.0
C470 C 0.57872 0.3037 0.21953 0.0
C471 C 0.64481 0.30626 0.25524 0.0
O472 O 0.61844 0.28655 0.21045 0.0
O473 O 0.63772 0.26131 0.21933 0.0
O474 O 0.59503 0.29796 0.26191 0.0
O475 O 0.61109 0.27276 0.25066 0.0
Co476 Co 0.22879 0.09257 0.73563 0.0
O477 O 0.24071 0.06883 0.72703 0.0
O478 O 0.20985 0.07721 0.72186 0.0
C479 C 0.24031 0.0926 0.76631 0.0
O480 O 0.21087 0.11477 0.7433 0.0
Co481 Co 0.25311 0.12839 0.74883 0.0
O482 O 0.22778 0.13773 0.75939 0.0
C483 C 0.24914 0.11946 0.70692 0.0
C484 C 0.2237 0.06442 0.71996 0.0
C485 C 0.21172 0.13016 0.75393 0.0
O486 O 0.2365 0.10612 0.71067 0.0
O487 O 0.25854 0.12858 0.72021 0.0
O488 O 0.22529 0.08195 0.76186 0.0
O489 O 0.24908 0.10065 0.75179 0.0
Co490 Co 0.4027 0.71512 0.23324 0.0
O491 O 0.42728 0.7271 0.22805 0.0
O492 O 0.41859 0.69756 0.21799 0.0
C493 C 0.40118 0.72259 0.26513 0.0
O494 O 0.37918 0.69752 0.23701 0.0
Co495 Co 0.36739 0.73983 0.24737 0.0
O496 O 0.35618 0.71389 0.25368 0.0
C497 C 0.37921 0.74104 0.20603 0.0
C498 C 0.43182 0.7111 0.21901 0.0
C499 C 0.36311 0.69813 0.24666 0.0
O500 O 0.39122 0.72684 0.20872 0.0
O501 O 0.37004 0.74937 0.21999 0.0
O502 O 0.41132 0.70761 0.25943 0.0
O503 O 0.39448 0.7335 0.2514 0.0
Co504 Co 0.77187 0.09597 0.2612 0.0
O505 O 0.76019 0.07241 0.2706 0.0
O506 O 0.79116 0.0809 0.27485 0.0
C507 C 0.7596 0.09528 0.23083 0.0
O508 O 0.78963 0.11794 0.25248 0.0
Co509 Co 0.74731 0.13159 0.2479 0.0
O510 O 0.77214 0.13981 0.23547 0.0
C511 C 0.75229 0.12356 0.28987 0.0
C512 C 0.77738 0.06816 0.27736 0.0
C513 C 0.78839 0.13249 0.24074 0.0
O514 O 0.76466 0.10996 0.28609 0.0
O515 O 0.74285 0.13276 0.27666 0.0
O516 O 0.77475 0.08473 0.23518 0.0
O517 O 0.75118 0.10374 0.24535 0.0
Co518 Co 0.391 0.29302 0.76009 0.0
O519 O 0.41594 0.28214 0.76587 0.0
O520 O 0.4063 0.31193 0.77429 0.0
C521 C 0.38981 0.28352 0.72878 0.0
O522 O 0.36685 0.30959 0.7553 0.0
Co523 Co 0.3565 0.26643 0.74751 0.0
O524 O 0.34499 0.29155 0.73886 0.0
C525 C 0.36827 0.26819 0.78887 0.0
C526 C 0.41991 0.29872 0.77404 0.0
C527 C 0.35117 0.30792 0.74513 0.0
O528 O 0.38006 0.28234 0.78528 0.0
O529 O 0.35903 0.25898 0.77553 0.0
O530 O 0.39935 0.2992 0.73349 0.0
O531 O 0.38341 0.2733 0.74315 0.0
Co532 Co 0.21307 0.91142 0.2606 0.0
O533 O 0.22063 0.93809 0.26383 0.0
O534 O 0.1924 0.92541 0.27338 0.0
C535 C 0.22237 0.90763 0.2294 0.0
O536 O 0.19951 0.88532 0.25873 0.0
Co537 Co 0.2432 0.87883 0.25156 0.0
O538 O 0.21956 0.8631 0.24544 0.0
C539 C 0.24065 0.89528 0.29114 0.0
C540 C 0.20361 0.94058 0.27178 0.0
C541 C 0.20268 0.86853 0.25106 0.0
O542 O 0.22481 0.90426 0.28661 0.0
O543 O 0.25119 0.88631 0.27861 0.0
O544 O 0.20591 0.91616 0.2334 0.0
O545 O 0.23346 0.9042 0.24417 0.0
Co546 Co 0.59242 0.69146 0.75796 0.0
O547 O 0.56707 0.7002 0.76529 0.0
O548 O 0.5785 0.6701 0.76976 0.0
C549 C 0.59339 0.70455 0.7279 0.0
O550 O 0.61732 0.67696 0.75164 0.0
Co551 Co 0.62547 0.72114 0.74938 0.0
O552 O 0.63936 0.69774 0.7392 0.0
C553 C 0.60935 0.71688 0.78883 0.0
C554 C 0.56448 0.68266 0.77192 0.0
C555 C 0.6335 0.68048 0.74291 0.0
O556 O 0.60245 0.70011 0.78418 0.0
O557 O 0.61711 0.72848 0.77646 0.0
O558 O 0.58455 0.68799 0.73067 0.0
O559 O 0.59906 0.71334 0.74347 0.0
Co560 Co 0.7268 0.78962 0.90138 0.0
O561 O 0.71616 0.78029 0.92548 0.0
O562 O 0.71294 0.81045 0.91416 0.0
C563 C 0.75708 0.77734 0.90467 0.0
O564 O 0.73648 0.80504 0.87799 0.0
Co565 Co 0.74222 0.76147 0.8692 0.0
O566 O 0.75372 0.78552 0.85808 0.0
C567 C 0.69983 0.76724 0.87458 0.0
C568 C 0.70967 0.79792 0.92799 0.0
C569 C 0.74804 0.80237 0.86346 0.0
O570 O 0.70253 0.78093 0.88712 0.0
O571 O 0.71359 0.75712 0.86707 0.0
O572 O 0.7524 0.79351 0.91337 0.0
O573 O 0.74286 0.76819 0.89651 0.0
Co574 Co 0.72641 0.20027 0.08236 0.0
O575 O 0.71979 0.2074 0.05627 0.0
O576 O 0.71117 0.17969 0.07074 0.0
C577 C 0.75825 0.20811 0.08163 0.0
O578 O 0.73124 0.18752 0.10859 0.0
Co579 Co 0.74091 0.23135 0.11194 0.0
O580 O 0.74745 0.20819 0.12818 0.0
C581 C 0.70014 0.2313 0.09875 0.0
C582 C 0.71086 0.19074 0.05536 0.0
C583 C 0.74082 0.19127 0.12426 0.0
O584 O 0.70221 0.21387 0.09211 0.0
O585 O 0.71443 0.24153 0.10499 0.0
O586 O 0.75244 0.19157 0.07441 0.0
O587 O 0.74454 0.22002 0.08645 0.0
Co588 Co 0.2789 0.24267 0.58893 0.0
O589 O 0.27243 0.23671 0.56246 0.0
O590 O 0.30029 0.22896 0.57716 0.0
C591 C 0.26904 0.2739 0.5896 0.0
O592 O 0.29156 0.24733 0.61507 0.0
Co593 Co 0.24767 0.25364 0.61964 0.0
O594 O 0.2706 0.26259 0.63506 0.0
C595 C 0.25168 0.21278 0.60716 0.0
C596 C 0.2896 0.22869 0.56155 0.0
C597 C 0.28777 0.25703 0.63061 0.0
O598 O 0.2674 0.21715 0.59793 0.0
O599 O 0.24076 0.22561 0.61521 0.0
O600 O 0.28578 0.26939 0.58191 0.0
O601 O 0.25799 0.25932 0.59396 0.0
Co602 Co 0.25264 0.78365 0.09567 0.0
O603 O 0.25554 0.77432 0.06956 0.0
O604 O 0.26593 0.80306 0.08038 0.0
C605 C 0.22127 0.77516 0.09999 0.0
O606 O 0.25112 0.79891 0.12089 0.0
Co607 Co 0.24323 0.75585 0.13007 0.0
O608 O 0.23682 0.78055 0.14391 0.0
C609 C 0.28275 0.75631 0.11319 0.0
C610 C 0.26411 0.79083 0.06604 0.0
C611 C 0.24281 0.79697 0.13757 0.0
O612 O 0.27846 0.77165 0.10325 0.0
O613 O 0.27013 0.74687 0.12318 0.0
O614 O 0.22552 0.79111 0.09064 0.0
O615 O 0.23588 0.76409 0.10414 0.0
Co616 Co 0.71313 0.75715 0.59653 0.0
O617 O 0.72422 0.76437 0.57204 0.0
O618 O 0.69457 0.77264 0.58197 0.0
C619 C 0.72177 0.72549 0.59545 0.0
O620 O 0.69632 0.75104 0.62025 0.0
Co621 Co 0.73932 0.74134 0.63004 0.0
O622 O 0.71397 0.73279 0.64102 0.0
C623 C 0.73846 0.78358 0.62159 0.0
C624 C 0.70769 0.77276 0.56828 0.0
C625 C 0.69776 0.73987 0.63529 0.0
O626 O 0.7244 0.78128 0.60934 0.0
O627 O 0.74728 0.76932 0.62981 0.0
O628 O 0.70629 0.73139 0.58626 0.0
O629 O 0.73237 0.73907 0.60292 0.0
Co630 Co 0.26118 0.20854 0.90825 0.0
O631 O 0.26308 0.21725 0.93459 0.0
O632 O 0.2758 0.18969 0.92312 0.0
C633 C 0.2293 0.21471 0.90399 0.0
O634 O 0.26098 0.19417 0.88247 0.0
Co635 Co 0.24984 0.23707 0.87499 0.0
O636 O 0.24541 0.21247 0.8602 0.0
C637 C 0.28891 0.23913 0.89262 0.0
C638 C 0.27276 0.20129 0.93779 0.0
C639 C 0.25254 0.19625 0.86587 0.0
O640 O 0.28601 0.22275 0.90129 0.0
O641 O 0.27553 0.24818 0.88326 0.0
O642 O 0.23474 0.19881 0.9128 0.0
O643 O 0.24299 0.22704 0.90039 0.0
Co644 Co 0.27564 0.75678 0.39313 0.0
O645 O 0.26471 0.76391 0.41776 0.0
O646 O 0.29495 0.77047 0.40804 0.0
C647 C 0.26513 0.72583 0.39211 0.0
O648 O 0.2926 0.75072 0.36975 0.0
Co649 Co 0.24999 0.74504 0.35786 0.0
O650 O 0.27496 0.73485 0.34721 0.0
C651 C 0.25331 0.78645 0.36887 0.0
C652 C 0.28167 0.77151 0.42149 0.0
C653 C 0.29126 0.74038 0.3542 0.0
O654 O 0.26652 0.78215 0.38144 0.0
O655 O 0.24399 0.77359 0.35907 0.0
O656 O 0.28048 0.73029 0.40231 0.0
O657 O 0.25545 0.74042 0.38519 0.0
Co658 Co 0.71058 0.23957 0.40998 0.0
O659 O 0.71781 0.23614 0.4367 0.0
O660 O 0.68936 0.22745 0.42385 0.0
C661 C 0.72114 0.2704 0.4064 0.0
O662 O 0.69735 0.24199 0.38371 0.0
Co663 Co 0.7415 0.24742 0.37786 0.0
O664 O 0.71824 0.25543 0.3624 0.0
C665 C 0.73755 0.20807 0.39456 0.0
C666 C 0.70058 0.22866 0.43906 0.0
C667 C 0.70105 0.25038 0.36738 0.0
O668 O 0.72158 0.2131 0.40304 0.0
O669 O 0.7486 0.22021 0.38569 0.0
O670 O 0.70434 0.26709 0.41455 0.0
O671 O 0.73163 0.25518 0.40306 0.0
C672 C 0.9456 0.2847 0.16703 0.0
C673 C 0.94496 0.26951 0.1807 0.0
C674 C 0.96343 0.29337 0.16185 0.0
C675 C 0.98087 0.28634 0.17034 0.0
C676 C 0.9802 0.27067 0.18384 0.0
C677 C 0.96223 0.26267 0.189 0.0
C678 C 0.96337 0.3104 0.14794 0.0
C679 C -0.00156 0.26237 0.19306 0.0
C680 C 0.03246 0.28677 0.15434 0.0
C681 C 0.04045 0.2959 0.17071 0.0
C682 C 0.01219 0.28617 0.15184 0.0
C683 C 9e-05 0.29518 0.16594 0.0
C684 C 0.00843 0.30776 0.17996 0.0
C685 C 0.02867 0.30759 0.18254 0.0
C686 C 0.00384 0.27313 0.13625 0.0
C687 C 0.99596 0.31874 0.19435 0.0
H688 H 0.93215 0.2901 0.16072 0.0
H689 H 0.96174 0.2508 0.19944 0.0
H690 H 0.96302 0.32414 0.15647 0.0
H691 H 0.97663 0.31068 0.1387 0.0
H692 H 0.95031 0.31017 0.13836 0.0
H693 H 0.99538 0.24933 0.20216 0.0
H694 H 0.0091 0.25818 0.18165 0.0
H695 H 0.0054 0.27354 0.20245 0.0
H696 H 0.04171 0.27784 0.14512 0.0
H697 H 0.03501 0.31491 0.19503 0.0
H698 H 0.98997 0.27912 0.13047 0.0
H699 H 0.00071 0.25859 0.14263 0.0
H700 H 0.01425 0.27115 0.12401 0.0
H701 H 0.98244 0.32416 0.1873 0.0
H702 H 0.00398 0.33127 0.20073 0.0
H703 H 0.99171 0.30881 0.20639 0.0
C704 C 0.19989 0.55021 0.68539 0.0
C705 C 0.21629 0.55355 0.69709 0.0
C706 C 0.19302 0.53113 0.68231 0.0
C707 C 0.20319 0.51525 0.69073 0.0
C708 C 0.22008 0.5187 0.70211 0.0
C709 C 0.22619 0.53781 0.70539 0.0
C710 C 0.17458 0.52815 0.67071 0.0
C711 C 0.23177 0.50222 0.71098 0.0
C712 C 0.18877 0.46564 0.70674 0.0
C713 C 0.19937 0.45446 0.69338 0.0
C714 C 0.18679 0.48579 0.70411 0.0
C715 C 0.19652 0.49484 0.68835 0.0
C716 C 0.20485 0.48322 0.67346 0.0
C717 C 0.20597 0.46297 0.67607 0.0
C718 C 0.17666 0.49763 0.71962 0.0
C719 C 0.21517 0.49226 0.65628 0.0
H720 H 0.19219 0.56249 0.67909 0.0
H721 H 0.23903 0.54044 0.71423 0.0
H722 H 0.17537 0.51483 0.66158 0.0
H723 H 0.16219 0.52632 0.68094 0.0
H724 H 0.1714 0.54087 0.66119 0.0
H725 H 0.24536 0.50742 0.71808 0.0
H726 H 0.22289 0.49458 0.72211 0.0
H727 H 0.23578 0.49142 0.69963 0.0
H728 H 0.18329 0.45889 0.71994 0.0
H729 H 0.21402 0.45421 0.66565 0.0
H730 H 0.16895 0.51027 0.7131 0.0
H731 H 0.18764 0.50332 0.73004 0.0
H732 H 0.16602 0.48865 0.7279 0.0
H733 H 0.20716 0.50519 0.65081 0.0
H734 H 0.21697 0.48166 0.64417 0.0
H735 H 0.22987 0.49717 0.66094 0.0
C736 C 0.04422 0.69995 0.21054 0.0
C737 C 0.04842 0.71519 0.22347 0.0
C738 C 0.02484 0.69426 0.20707 0.0
C739 C 0.00947 0.70481 0.216 0.0
C740 C 0.01381 0.7203 0.22898 0.0
C741 C 0.03323 0.72496 0.23287 0.0
C742 C 0.02107 0.67727 0.19364 0.0
C743 C -0.00204 0.7324 0.23841 0.0
C744 C 0.95915 0.71327 0.1967 0.0
C745 C 0.94827 0.70616 0.21242 0.0
C746 C 0.97944 0.7109 0.19627 0.0
C747 C 0.98871 0.70066 0.2116 0.0
C748 C 0.97732 0.69074 0.22562 0.0
C749 C 0.95717 0.6941 0.22625 0.0
C750 C 0.99105 0.72144 0.18087 0.0
C751 C 0.98663 0.67834 0.2412 0.0
H752 H 0.05606 0.69236 0.20332 0.0
H753 H 0.03653 0.73689 0.24271 0.0
H754 H 0.00683 0.67019 0.19655 0.0
H755 H 0.02119 0.68248 0.17834 0.0
H756 H 0.03278 0.66616 0.19505 0.0
H757 H 0.0039 0.74483 0.24691 0.0
H758 H 0.98795 0.73827 0.22713 0.0
H759 H 0.98921 0.7232 0.2484 0.0
H760 H 0.95215 0.72248 0.18593 0.0
H761 H 0.94861 0.68826 0.23817 0.0
H762 H 0.00224 0.71164 0.17456 0.0
H763 H -0.00126 0.73399 0.18759 0.0
H764 H 0.98166 0.727 0.1689 0.0
H765 H -0.0009 0.66997 0.23515 0.0
H766 H 0.97598 0.66801 0.24769 0.0
H767 H 0.99227 0.68784 0.253 0.0
C768 C 0.78506 0.44891 0.68882 0.0
C769 C 0.76836 0.44821 0.70056 0.0
C770 C 0.79402 0.46682 0.68449 0.0
C771 C 0.78568 0.48425 0.69175 0.0
C772 C 0.76842 0.48348 0.70314 0.0
C773 C 0.76021 0.46544 0.70765 0.0
C774 C 0.81274 0.46683 0.67295 0.0
C775 C 0.75863 0.5017 0.71085 0.0
C776 C 0.80379 0.53264 0.70611 0.0
C777 C 0.79353 0.54395 0.69261 0.0
C778 C 0.80496 0.51239 0.7038 0.0
C779 C 0.7947 0.50355 0.68827 0.0
C780 C 0.78749 0.51523 0.67287 0.0
C781 C 0.78716 0.53553 0.67515 0.0
C782 C 0.81425 0.50036 0.71966 0.0
C783 C 0.77705 0.50635 0.65569 0.0
H784 H 0.79143 0.43544 0.68352 0.0
H785 H 0.74718 0.46482 0.71658 0.0
H786 H 0.81439 0.48023 0.66406 0.0
H787 H 0.82521 0.46615 0.68323 0.0
H788 H 0.81364 0.45392 0.66321 0.0
H789 H 0.74446 0.49853 0.718 0.0
H790 H 0.76822 0.50889 0.7217 0.0
H791 H 0.756 0.5122 0.69885 0.0
H792 H 0.80919 0.53932 0.71938 0.0
H793 H 0.77949 0.5444 0.66454 0.0
H794 H 0.8209 0.48693 0.71356 0.0
H795 H 0.80293 0.49595 0.73034 0.0
H796 H 0.82561 0.50879 0.72754 0.0
H797 H 0.78418 0.49261 0.651 0.0
H798 H 0.77654 0.51658 0.64315 0.0
H799 H 0.76185 0.50285 0.65998 0.0
C800 C 0.95469 0.71506 0.83353 0.0
C801 C 0.94614 0.70908 0.81602 0.0
C802 C 0.97467 0.71208 0.83668 0.0
C803 C 0.98585 0.70284 0.822 0.0
C804 C 0.97635 0.6935 0.80628 0.0
C805 C 0.95655 0.69719 0.80317 0.0
C806 C 0.98421 0.72157 0.85404 0.0
C807 C 0.98761 0.68238 0.79103 0.0
C808 C 0.0289 0.73037 0.80234 0.0
C809 C 0.04458 0.71915 0.80883 0.0
C810 C 0.00985 0.72566 0.80751 0.0
C811 C 0.00634 0.70892 0.8191 0.0
C812 C 0.02219 0.69776 0.82622 0.0
C813 C 0.04129 0.70316 0.82111 0.0
C814 C 0.99348 0.73839 0.79994 0.0
C815 C 0.01913 0.67969 0.83836 0.0
H816 H 0.94641 0.72398 0.84362 0.0
H817 H 0.94964 0.69211 0.78989 0.0
H818 H 0.99681 0.71287 0.85923 0.0
H819 H 0.98966 0.73619 0.84976 0.0
H820 H 0.9737 0.72347 0.86622 0.0
H821 H 0.978 0.67235 0.78272 0.0
H822 H 0.99423 0.69284 0.78061 0.0
H823 H -0.00044 0.67383 0.7978 0.0
H824 H 0.03155 0.74297 0.79316 0.0
H825 H 0.05354 0.69453 0.82614 0.0
H826 H 0.98386 0.74302 0.81208 0.0
H827 H 0.9845 0.73006 0.7894 0.0
H828 H -0.00106 0.75169 0.79249 0.0
H829 H 0.00571 0.68062 0.84733 0.0
H830 H 0.03179 0.677 0.8481 0.0
H831 H 0.01769 0.66693 0.82853 0.0
C832 C 0.76406 0.52533 0.29813 0.0
C833 C 0.77283 0.54235 0.30495 0.0
C834 C 0.77238 0.50712 0.30176 0.0
C835 C 0.79031 0.50599 0.31201 0.0
C836 C 0.79899 0.52315 0.31948 0.0
C837 C 0.78998 0.54124 0.316 0.0
C838 C 0.76224 0.48917 0.29397 0.0
C839 C 0.8182 0.5227 0.33015 0.0
C840 C 0.79539 0.45348 0.32429 0.0
C841 C 0.80151 0.44674 0.30603 0.0
C842 C 0.79446 0.47356 0.32805 0.0
C843 C 0.80012 0.48677 0.31327 0.0
C844 C 0.80991 0.47976 0.29653 0.0
C845 C 0.8101 0.4597 0.29286 0.0
C846 C 0.78452 0.48048 0.34639 0.0
C847 C 0.81734 0.49347 0.28105 0.0
H848 H 0.75065 0.52627 0.2898 0.0
H849 H 0.79678 0.55452 0.32118 0.0
H850 H 0.77116 0.4825 0.28225 0.0
H851 H 0.76047 0.47816 0.30568 0.0
H852 H 0.74761 0.49253 0.28789 0.0
H853 H 0.81957 0.53528 0.34025 0.0
H854 H 0.82017 0.50901 0.33852 0.0
H855 H 0.83021 0.52368 0.31936 0.0
H856 H 0.78897 0.44336 0.3346 0.0
H857 H 0.81526 0.45435 0.27891 0.0
H858 H 0.76886 0.48312 0.34326 0.0
H859 H 0.79093 0.49436 0.35163 0.0
H860 H 0.78552 0.46941 0.35817 0.0
H861 H 0.80499 0.49821 0.27172 0.0
H862 H 0.82837 0.48629 0.2716 0.0
H863 H 0.82389 0.50666 0.28772 0.0
C864 C 0.03325 0.26399 0.78392 0.0
C865 C 0.05038 0.27143 0.79197 0.0
C866 C 0.0153 0.27279 0.78768 0.0
C867 C 0.01454 0.2899 0.7993 0.0
C868 C 0.03187 0.29757 0.80744 0.0
C869 C 0.04963 0.28796 0.80397 0.0
C870 C 0.99717 0.26376 0.77896 0.0
C871 C 0.03187 0.31578 0.81978 0.0
C872 C 0.9676 0.31031 0.7831 0.0
C873 C 0.95524 0.3003 0.79585 0.0
C874 C 0.98774 0.31046 0.78632 0.0
C875 C 0.9954 0.29952 0.80202 0.0
C876 C 0.98275 0.29253 0.81671 0.0
C877 C 0.96258 0.29317 0.81351 0.0
C878 C 0.00088 0.31957 0.77126 0.0
C879 C 0.99043 0.28156 0.83413 0.0
H880 H 0.03386 0.25108 0.77482 0.0
H881 H 0.06297 0.29368 0.8102 0.0
H882 H 0.98608 0.26121 0.79044 0.0
H883 H 0.99075 0.27382 0.76805 0.0
H884 H 0.00022 0.24965 0.77163 0.0
H885 H 0.04594 0.32367 0.81847 0.0
H886 H 0.01987 0.32587 0.8158 0.0
H887 H 0.03005 0.31162 0.83529 0.0
H888 H 0.96178 0.31637 0.76971 0.0
H889 H 0.95292 0.28577 0.82358 0.0
H890 H 0.00535 0.3083 0.76055 0.0
H891 H 0.01426 0.32551 0.77815 0.0
H892 H 0.99331 0.33145 0.76327 0.0
H893 H 0.99462 0.2666 0.82959 0.0
H894 H 0.97932 0.28042 0.84585 0.0
H895 H 0.0036 0.28879 0.84006 0.0
C896 C 0.19946 0.44535 0.29185 0.0
C897 C 0.21181 0.43596 0.30507 0.0
C898 C 0.19694 0.46558 0.29262 0.0
C899 C 0.20783 0.4765 0.30629 0.0
C900 C 0.21808 0.46676 0.32133 0.0
C901 C 0.21978 0.4464 0.32065 0.0
C902 C 0.18483 0.47543 0.27714 0.0
C903 C 0.22965 0.47785 0.33637 0.0
C904 C 0.23375 0.51871 0.28247 0.0
C905 C 0.22405 0.53477 0.29036 0.0
C906 C 0.22879 0.49977 0.28799 0.0
C907 C 0.21326 0.4968 0.3013 0.0
C908 C 0.20322 0.51301 0.30923 0.0
C909 C 0.20895 0.53193 0.30382 0.0
C910 C 0.24026 0.48294 0.27951 0.0
C911 C 0.18613 0.51047 0.32282 0.0
H912 H 0.19296 0.43709 0.28004 0.0
H913 H 0.2292 0.43901 0.33098 0.0
H914 H 0.17725 0.48841 0.28313 0.0
H915 H 0.19448 0.48039 0.26514 0.0
H916 H 0.17383 0.46531 0.27091 0.0
H917 H 0.23316 0.4686 0.3492 0.0
H918 H 0.24355 0.48282 0.32975 0.0
H919 H 0.22162 0.49096 0.3414 0.0
H920 H 0.24558 0.52097 0.27224 0.0
H921 H 0.20137 0.54446 0.30979 0.0
H922 H 0.23065 0.47391 0.27018 0.0
H923 H 0.24592 0.47348 0.29134 0.0
H924 H 0.25279 0.48792 0.27054 0.0
H925 H 0.17295 0.50706 0.3141 0.0
H926 H 0.18318 0.52395 0.33131 0.0
H927 H 0.18847 0.49821 0.3331 0.0
C928 C 0.20468 0.97634 0.26794 0.0
C929 C 0.19686 0.96012 0.27742 0.0
C930 C 0.19788 0.99509 0.272 0.0
C931 C 0.18324 0.99774 0.28636 0.0
C932 C 0.17551 0.98141 0.2963 0.0
C933 C 0.1823 0.96266 0.29153 0.0
C934 C 0.20634 0.01204 0.2607 0.0
C935 C 0.16053 0.98366 0.31225 0.0
C936 C 0.18847 0.05017 0.29806 0.0
C937 C 0.17598 0.05801 0.284 0.0
C938 C 0.18849 0.03012 0.30183 0.0
C939 C 0.17646 0.01783 0.29047 0.0
C940 C 0.16182 0.0261 0.27848 0.0
C941 C 0.16164 0.04632 0.2755 0.0
C942 C 0.2034 0.02189 0.31572 0.0
C943 C 0.14845 0.01352 0.26639 0.0
H944 H 0.21582 0.97434 0.25691 0.0
H945 H 0.17639 0.95004 0.29898 0.0
H946 H 0.1945 0.02057 0.2537 0.0
H947 H 0.21423 0.02194 0.27074 0.0
H948 H 0.21666 0.00724 0.24919 0.0
H949 H 0.1527 0.96978 0.3151 0.0
H950 H 0.16801 0.9881 0.32588 0.0
H951 H 0.14972 0.99514 0.30868 0.0
H952 H 0.19935 0.05941 0.30485 0.0
H953 H 0.15193 0.05255 0.26468 0.0
H954 H 0.21653 0.01734 0.30743 0.0
H955 H 0.19759 0.00888 0.32338 0.0
H956 H 0.20793 0.0329 0.3267 0.0
H957 H 0.15648 0.00827 0.25335 0.0
H958 H 0.13545 0.02178 0.26137 0.0
H959 H 0.14355 0.00056 0.27471 0.0
C960 C 0.53874 0.68862 0.7961 0.0
C961 C 0.54583 0.67744 0.78061 0.0
C962 C 0.51872 0.68956 0.79978 0.0
C963 C 0.50583 0.67995 0.78692 0.0
C964 C 0.51319 0.66612 0.77346 0.0
C965 C 0.53336 0.66497 0.77048 0.0
C966 C 0.51131 0.70319 0.81534 0.0
C967 C 0.49983 0.65499 0.76004 0.0
C968 C 0.45136 0.68945 0.7848 0.0
C969 C 0.45075 0.70498 0.77151 0.0
C970 C 0.46924 0.68157 0.79088 0.0
C971 C 0.4867 0.68906 0.78291 0.0
C972 C 0.48608 0.70516 0.76992 0.0
C973 C 0.46811 0.71306 0.76463 0.0
C974 C 0.46918 0.66492 0.80525 0.0
C975 C 0.50434 0.71368 0.76097 0.0
H976 H 0.54862 0.69798 0.80414 0.0
H977 H 0.53906 0.65619 0.75863 0.0
H978 H 0.50825 0.71767 0.80879 0.0
H979 H 0.49757 0.69763 0.82182 0.0
H980 H 0.52229 0.70519 0.82708 0.0
H981 H 0.50745 0.64257 0.75295 0.0
H982 H 0.48704 0.64935 0.76813 0.0
H983 H 0.49439 0.66493 0.74848 0.0
H984 H 0.43789 0.68328 0.79027 0.0
H985 H 0.46765 0.72507 0.75436 0.0
H986 H 0.48293 0.66408 0.81371 0.0
H987 H 0.46729 0.651 0.79723 0.0
H988 H 0.45678 0.66631 0.81557 0.0
H989 H 0.51395 0.71957 0.77256 0.0
H990 H 0.50112 0.72566 0.75055 0.0
H991 H 0.51258 0.7022 0.7531 0.0
C992 C 0.77123 0.03278 0.27785 0.0
C993 C 0.78164 0.04869 0.28512 0.0
C994 C 0.77692 0.01373 0.28222 0.0
C995 C 0.79298 0.01056 0.29484 0.0
C996 C 0.80266 0.02661 0.30342 0.0
C997 C 0.79709 0.04561 0.29813 0.0
C998 C 0.76637 0.99706 0.27236 0.0
C999 C 0.81893 0.02372 0.31794 0.0
C1000 C 0.79048 0.95735 0.30503 0.0
C1001 C 0.8019 0.9504 0.28966 0.0
C1002 C 0.79001 0.97731 0.30935 0.0
C1003 C 0.80033 0.99039 0.29721 0.0
C1004 C 0.81374 0.98306 0.28328 0.0
C1005 C 0.81449 0.96296 0.27982 0.0
C1006 C 0.77657 0.98451 0.32517 0.0
C1007 C 0.82501 0.99646 0.26995 0.0
H1008 H 0.75934 0.0352 0.26772 0.0
H1009 H 0.80493 0.05803 0.30396 0.0
H1010 H 0.77682 0.98817 0.26379 0.0
H1011 H 0.75969 0.9874 0.28345 0.0
H1012 H 0.75467 0.00218 0.26241 0.0
H1013 H 0.82589 0.03771 0.32217 0.0
H1014 H 0.81303 0.01668 0.33124 0.0
H1015 H 0.83027 0.01385 0.31199 0.0
H1016 H 0.78087 0.94742 0.31271 0.0
H1017 H 0.82327 0.95738 0.2679 0.0
H1018 H 0.76224 0.98835 0.31874 0.0
H1019 H 0.78254 0.99776 0.33227 0.0
H1020 H 0.77413 0.97312 0.33642 0.0
H1021 H 0.815 0.0024 0.2587 0.0
H1022 H 0.83708 0.98869 0.26245 0.0
H1023 H 0.83116 0.00896 0.27811 0.0
C1024 C 0.53114 0.31682 0.79578 0.0
C1025 C 0.53801 0.29804 0.79997 0.0
C1026 C 0.51118 0.32103 0.79699 0.0
C1027 C 0.49814 0.30617 0.80284 0.0
C1028 C 0.50558 0.2885 0.81047 0.0
C1029 C 0.52549 0.28443 0.80853 0.0
C1030 C 0.50388 0.34025 0.78917 0.0
C1031 C 0.49221 0.27277 0.818 0.0
C1032 C 0.44304 0.312 0.79895 0.0
C1033 C 0.43966 0.30252 0.7812 0.0
C1034 C 0.46212 0.31381 0.80627 0.0
C1035 C 0.47791 0.30633 0.79525 0.0
C1036 C 0.47443 0.29767 0.77682 0.0
C1037 C 0.45533 0.29562 0.77021 0.0
C1038 C 0.46511 0.32275 0.82613 0.0
C1039 C 0.49081 0.28997 0.76421 0.0
H1040 H 0.54091 0.32749 0.78942 0.0
H1041 H 0.53094 0.27006 0.81227 0.0
H1042 H 0.49942 0.33833 0.77374 0.0
H1043 H 0.49098 0.34541 0.79744 0.0
H1044 H 0.51538 0.35163 0.78973 0.0
H1045 H 0.50014 0.26226 0.82744 0.0
H1046 H 0.47994 0.27918 0.82637 0.0
H1047 H 0.48598 0.26461 0.80549 0.0
H1048 H 0.43078 0.31723 0.80744 0.0
H1049 H 0.4526 0.2885 0.75636 0.0
H1050 H 0.47914 0.33071 0.82708 0.0
H1051 H 0.46537 0.31095 0.83719 0.0
H1052 H 0.45304 0.33288 0.8299 0.0
H1053 H 0.50214 0.30132 0.76217 0.0
H1054 H 0.48565 0.28525 0.74961 0.0
H1055 H 0.49778 0.27728 0.77143 0.0
C1056 C 0.23041 0.02912 0.71979 0.0
C1057 C 0.21968 0.04479 0.71245 0.0
C1058 C 0.22493 0.00994 0.71576 0.0
C1059 C 0.20879 0.00639 0.70332 0.0
C1060 C 0.19887 0.02223 0.69457 0.0
C1061 C 0.20415 0.04135 0.69964 0.0
C1062 C 0.23579 0.99356 0.7258 0.0
C1063 C 0.18225 0.01926 0.68049 0.0
C1064 C 0.21238 0.95305 0.69482 0.0
C1065 C 0.20105 0.9464 0.71039 0.0
C1066 C 0.2123 0.97283 0.68975 0.0
C1067 C 0.20168 0.98609 0.70142 0.0
C1068 C 0.18826 0.97896 0.7154 0.0
C1069 C 0.18795 0.95898 0.71958 0.0
C1070 C 0.22536 0.97982 0.67352 0.0
C1071 C 0.17628 0.9926 0.72783 0.0
H1072 H 0.24237 0.03181 0.72975 0.0
H1073 H 0.19597 0.05355 0.6938 0.0
H1074 H 0.22549 0.98446 0.73433 0.0
H1075 H 0.24283 0.98402 0.71482 0.0
H1076 H 0.24727 -0.00101 0.73583 0.0
H1077 H 0.18267 0.0305 0.66883 0.0
H1078 H 0.18253 0.00462 0.67361 0.0
H1079 H 0.16823 0.02105 0.68833 0.0
H1080 H 0.22225 0.94308 0.68752 0.0
H1081 H 0.17912 0.9536 0.73154 0.0
H1082 H 0.23955 0.98453 0.67965 0.0
H1083 H 0.21875 0.99249 0.6659 0.0
H1084 H 0.22819 0.96803 0.66278 0.0
H1085 H 0.18604 0.00065 0.73793 0.0
H1086 H 0.16521 0.9847 0.7366 0.0
H1087 H 0.16874 0.00349 0.71858 0.0
C1088 C 0.45584 0.69675 0.19549 0.0
C1089 C 0.45181 0.70801 0.21204 0.0
C1090 C 0.47516 0.69422 0.18906 0.0
C1091 C 0.49061 0.70239 0.20006 0.0
C1092 C 0.48643 0.71339 0.21705 0.0
C1093 C 0.46709 0.71636 0.22256 0.0
C1094 C 0.47878 0.68272 0.17067 0.0
C1095 C 0.50238 0.72199 0.22962 0.0
C1096 C 0.5424 0.6867 0.20516 0.0
C1097 C 0.55153 0.70412 0.19975 0.0
C1098 C 0.52222 0.68448 0.20279 0.0
C1099 C 0.51133 0.69987 0.19441 0.0
C1100 C 0.52115 0.7158 0.18577 0.0
C1101 C 0.54118 0.71806 0.18904 0.0
C1102 C 0.51232 0.66702 0.21175 0.0
C1103 C 0.51015 0.73171 0.17534 0.0
H1104 H 0.44393 0.69029 0.18738 0.0
H1105 H 0.46393 0.72487 0.23551 0.0
H1106 H 0.49245 0.68718 0.16327 0.0
H1107 H 0.47989 0.66702 0.17436 0.0
H1108 H 0.46647 0.68443 0.16029 0.0
H1109 H 0.49661 0.72865 0.24321 0.0
H1110 H 0.51309 0.71057 0.23371 0.0
H1111 H 0.51028 0.73343 0.22138 0.0
H1112 H 0.55053 0.67581 0.21325 0.0
H1113 H 0.54842 0.73133 0.18443 0.0
H1114 H 0.50087 0.66133 0.20189 0.0
H1115 H 0.50517 0.67145 0.22557 0.0
H1116 H 0.52283 0.65512 0.21499 0.0
H1117 H 0.49789 0.72553 0.16677 0.0
H1118 H 0.51984 0.74008 0.16543 0.0
H1119 H 0.50395 0.74198 0.1862 0.0
C1120 C 0.81818 0.04046 0.69041 0.0
C1121 C 0.82924 0.04968 0.70481 0.0
C1122 C 0.81884 0.02017 0.68828 0.0
C1123 C 0.83003 0.00906 0.70157 0.0
C1124 C 0.84336 0.0186 0.71414 0.0
C1125 C 0.84287 0.03899 0.71554 0.0
C1126 C 0.80531 0.01055 0.67389 0.0
C1127 C 0.85582 0.00731 0.72831 0.0
C1128 C 0.80071 0.96886 0.72492 0.0
C1129 C 0.80951 0.95206 0.71745 0.0
C1130 C 0.80752 0.98736 0.71995 0.0
C1131 C 0.82326 0.98918 0.70668 0.0
C1132 C 0.83205 0.97226 0.69875 0.0
C1133 C 0.82516 0.95379 0.70443 0.0
C1134 C 0.79787 0.00497 0.72912 0.0
C1135 C 0.84831 0.97359 0.68401 0.0
H1136 H 0.80776 0.0489 0.68202 0.0
H1137 H 0.85139 0.04627 0.72668 0.0
H1138 H 0.81196 0.99712 0.66782 0.0
H1139 H 0.7916 0.00639 0.68139 0.0
H1140 H 0.80155 0.02057 0.66172 0.0
H1141 H 0.8682 0.01623 0.73372 0.0
H1142 H 0.84678 0.00298 0.74101 0.0
H1143 H 0.86163 0.99383 0.72154 0.0
H1144 H 0.78874 0.96754 0.73515 0.0
H1145 H 0.83188 0.94075 0.69854 0.0
H1146 H 0.7908 0.01396 0.7177 0.0
H1147 H 0.80892 0.01419 0.73649 0.0
H1148 H 0.78661 0.00087 0.74001 0.0
H1149 H 0.84201 0.97711 0.66954 0.0
H1150 H 0.85641 0.95962 0.68274 0.0
H1151 H 0.85873 0.98536 0.68775 0.0
C1152 C 0.5488 0.29598 0.20102 0.0
C1153 C 0.56 0.30968 0.21112 0.0
C1154 C 0.52879 0.29889 0.19843 0.0
C1155 C 0.5199 0.31549 0.20685 0.0
C1156 C 0.53167 0.33073 0.21424 0.0
C1157 C 0.55179 0.32766 0.21624 0.0
C1158 C 0.51684 0.28282 0.18936 0.0
C1159 C 0.52277 0.34897 0.22269 0.0
C1160 C 0.46448 0.31528 0.20776 0.0
C1161 C 0.46122 0.30427 0.22464 0.0
C1162 C 0.48357 0.31996 0.20194 0.0
C1163 C 0.49946 0.3137 0.21355 0.0
C1164 C 0.49595 0.30368 0.23128 0.0
C1165 C 0.4769 0.29889 0.23643 0.0
C1166 C 0.4866 0.33055 0.18292 0.0
C1167 C 0.51237 0.29716 0.24448 0.0
H1168 H 0.55536 0.28229 0.19655 0.0
H1169 H 0.56058 0.33842 0.22375 0.0
H1170 H 0.51042 0.27369 0.20107 0.0
H1171 H 0.50471 0.28896 0.18061 0.0
H1172 H 0.52588 0.27329 0.17988 0.0
H1173 H 0.53347 0.36111 0.22309 0.0
H1174 H 0.50982 0.35363 0.21419 0.0
H1175 H 0.51795 0.34599 0.23784 0.0
H1176 H 0.45224 0.31944 0.19867 0.0
H1177 H 0.47425 0.29066 0.24967 0.0
H1178 H 0.48812 0.31968 0.17104 0.0
H1179 H 0.49998 0.33962 0.18312 0.0
H1180 H 0.47391 0.33999 0.17941 0.0
H1181 H 0.52118 0.2858 0.23706 0.0
H1182 H 0.50697 0.29102 0.25846 0.0
H1183 H 0.52216 0.30958 0.24783 0.0
C1184 C 0.30389 0.21165 0.04414 0.0
C1185 C 0.29471 0.19786 0.05602 0.0
C1186 C 0.30666 0.20795 0.02429 0.0
C1187 C 0.29936 0.19041 0.01626 0.0
C1188 C 0.29316 0.17526 0.02878 0.0
C1189 C 0.29098 0.17915 0.04871 0.0
C1190 C 0.31458 0.22396 0.01149 0.0
C1191 C 0.28596 0.15607 0.02084 0.0
C1192 C 0.26763 0.20234 0.9732 0.0
C1193 C 0.27923 0.1965 0.95756 0.0
C1194 C 0.27371 0.19937 0.99235 0.0
C1195 C 0.29218 0.1908 0.99593 0.0
C1196 C 0.30374 0.18422 0.98014 0.0
C1197 C 0.29699 0.187 0.96099 0.0
C1198 C 0.26055 0.20612 0.00872 0.0
C1199 C 0.32357 0.17523 0.98323 0.0
H1200 H 0.30741 0.22591 0.04998 0.0
H1201 H 0.28429 0.16827 0.05802 0.0
H1202 H 0.3235 0.21782 -0.00052 0.0
H1203 H 0.30226 0.23213 0.0049 0.0
H1204 H 0.32361 0.2344 0.01996 0.0
H1205 H 0.28647 0.14445 0.03212 0.0
H1206 H 0.27061 0.15777 0.01602 0.0
H1207 H 0.2947 0.15139 0.00807 0.0
H1208 H 0.25375 0.20939 0.97044 0.0
H1209 H 0.30594 0.18253 0.94876 0.0
H1210 H 0.26745 0.21845 0.01657 0.0
H1211 H 0.25824 0.19416 0.01935 0.0
H1212 H 0.24607 0.21103 0.00337 0.0
H1213 H 0.33465 0.187 0.98357 0.0
H1214 H 0.32739 0.16518 0.97112 0.0
H1215 H 0.32446 0.16716 0.99721 0.0
C1216 C 0.28818 0.80612 0.04343 0.0
C1217 C 0.271 0.79549 0.04638 0.0
C1218 C 0.29532 0.80933 0.0245 0.0
C1219 C 0.28467 0.8021 0.00838 0.0
C1220 C 0.26683 0.79214 0.01142 0.0
C1221 C 0.26041 0.78869 0.03041 0.0
C1222 C 0.31461 0.81957 0.02194 0.0
C1223 C 0.25465 0.78465 0.99464 0.0
C1224 C 0.28504 0.81636 0.95594 0.0
C1225 C 0.29065 0.79849 0.94782 0.0
C1226 C 0.28555 0.8191 0.97618 0.0
C1227 C 0.29216 0.80369 0.9882 0.0
C1228 C 0.30101 0.78711 0.97969 0.0
C1229 C 0.29978 0.78449 0.9595 0.0
C1230 C 0.27635 0.83719 0.98466 0.0
C1231 C 0.30927 0.7709 0.99204 0.0
H1232 H 0.2964 0.81126 0.05591 0.0
H1233 H 0.24699 0.78068 0.03278 0.0
H1234 H 0.32627 0.80847 0.0203 0.0
H1235 H 0.31475 0.82882 0.00869 0.0
H1236 H 0.31819 0.82876 0.03478 0.0
H1237 H 0.24041 0.77873 -0.00046 0.0
H1238 H 0.25185 0.79652 0.98401 0.0
H1239 H 0.26264 0.7729 0.98691 0.0
H1240 H 0.2782 0.82732 0.94682 0.0
H1241 H 0.30457 0.77086 0.95309 0.0
H1242 H 0.28395 0.84184 -0.00185 0.0
H1243 H 0.26097 0.83399 0.9885 0.0
H1244 H 0.27648 0.84943 0.97406 0.0
H1245 H 0.31714 0.77687 0.00483 0.0
H1246 H 0.31938 0.76151 0.98354 0.0
H1247 H 0.29718 0.76165 0.99751 0.0
C1248 C 0.68897 0.79349 0.54453 0.0
C1249 C 0.70334 0.77947 0.54836 0.0
C1250 C 0.68429 0.79866 0.52522 0.0
C1251 C 0.69358 0.78883 0.5096 0.0
C1252 C 0.70812 0.77468 0.51356 0.0
C1253 C 0.71306 0.77052 0.53284 0.0
C1254 C 0.66919 0.81428 0.5218 0.0
C1255 C 0.71817 0.76341 0.49747 0.0
C1256 C 0.67456 0.77713 0.45994 0.0
C1257 C 0.68938 0.78548 0.44874 0.0
C1258 C 0.6739 0.78026 0.48014 0.0
C1259 C 0.68815 0.79233 0.48894 0.0
C1260 C 0.70092 0.80332 0.47707 0.0
C1261 C 0.70182 0.7993 0.45706 0.0
C1262 C 0.65977 0.76857 0.49224 0.0
C1263 C 0.71527 0.81748 0.4858 0.0
H1264 H 0.68145 0.80045 0.55656 0.0
H1265 H 0.72404 0.75951 0.53576 0.0
H1266 H 0.67119 0.82168 0.50756 0.0
H1267 H 0.65448 0.80759 0.52206 0.0
H1268 H 0.66967 0.82541 0.53356 0.0
H1269 H 0.72806 0.75192 0.50319 0.0
H1270 H 0.70722 0.75637 0.48789 0.0
H1271 H 0.72692 0.77347 0.48834 0.0
H1272 H 0.66491 0.7665 0.45334 0.0
H1273 H 0.71309 0.80597 0.44821 0.0
H1274 H 0.65299 0.77788 0.50358 0.0
H1275 H 0.66775 0.75666 0.49977 0.0
H1276 H 0.64806 0.76199 0.48321 0.0
H1277 H 0.70865 0.8254 0.49826 0.0
H1278 H 0.72038 0.82823 0.47482 0.0
H1279 H 0.72815 0.80938 0.4913 0.0
C1280 C 0.69251 0.19691 0.02512 0.0
C1281 C 0.7032 0.18397 0.03667 0.0
C1282 C 0.69176 0.19444 0.0049 0.0
C1283 C 0.70283 0.17932 0.99628 0.0
C1284 C 0.7108 0.16445 0.00817 0.0
C1285 C 0.71077 0.16691 0.02846 0.0
C1286 C 0.68188 0.20982 0.99268 0.0
C1287 C 0.72219 0.14775 -0.00047 0.0
C1288 C 0.71138 0.18054 0.94147 0.0
C1289 C 0.72743 0.19314 0.94051 0.0
C1290 C 0.70315 0.17549 0.95955 0.0
C1291 C 0.71154 0.18296 0.97686 0.0
C1292 C 0.72824 0.19511 0.97582 0.0
C1293 C 0.73576 0.20024 0.95765 0.0
C1294 C 0.68509 0.16297 0.95992 0.0
C1295 C 0.73804 0.2031 0.99388 0.0
H1296 H 0.68633 0.20993 0.03165 0.0
H1297 H 0.71888 0.15681 0.03754 0.0
H1298 H 0.69281 0.22084 0.98811 0.0
H1299 H 0.67547 0.20331 0.97934 0.0
H1300 H 0.67023 0.2174 0.001 0.0
H1301 H 0.72317 0.1353 0.00985 0.0
H1302 H 0.71548 0.14264 0.98574 0.0
H1303 H 0.73721 0.15274 0.9962 0.0
H1304 H 0.7049 0.17515 0.92811 0.0
H1305 H 0.74833 0.20978 0.95686 0.0
H1306 H 0.67207 0.17256 0.95996 0.0
H1307 H 0.68444 0.15368 0.97313 0.0
H1308 H 0.68425 0.1535 0.94681 0.0
H1309 H 0.72809 0.21338 0.00142 0.0
H1310 H 0.75177 0.21098 0.99047 0.0
H1311 H 0.74151 0.19112 0.00417 0.0
C1312 C 0.28992 0.22766 0.52566 0.0
C1313 C 0.29685 0.22029 0.54329 0.0
C1314 C 0.29657 0.22023 0.50796 0.0
C1315 C 0.31014 0.20457 0.50791 0.0
C1316 C 0.31728 0.19706 0.52573 0.0
C1317 C 0.31064 0.20519 0.54332 0.0
C1318 C 0.28881 0.22912 0.48932 0.0
C1319 C 0.33123 0.18006 0.52645 0.0
C1320 C 0.30039 0.18555 0.45905 0.0
C1321 C 0.31263 0.19797 0.44854 0.0
C1322 C 0.30225 0.18405 0.47929 0.0
C1323 C 0.31587 0.19615 0.48889 0.0
C1324 C 0.33058 0.20562 0.47796 0.0
C1325 C 0.32883 0.20633 0.45763 0.0
C1326 C 0.28737 0.17244 0.49051 0.0
C1327 C 0.34592 0.21796 0.4877 0.0
H1328 H 0.27943 0.23949 0.52571 0.0
H1329 H 0.31589 0.19943 0.55707 0.0
H1330 H 0.30101 0.23354 0.47968 0.0
H1331 H 0.2799 0.21823 0.48136 0.0
H1332 H 0.27956 0.24213 0.49206 0.0
H1333 H 0.34037 0.18057 0.5398 0.0
H1334 H 0.32272 0.16632 0.52683 0.0
H1335 H 0.3409 0.17954 0.51351 0.0
H1336 H 0.2881 0.17874 0.4518 0.0
H1337 H 0.33844 0.21573 0.44931 0.0
H1338 H 0.27506 0.18212 0.49464 0.0
H1339 H 0.29381 0.16642 0.50407 0.0
H1340 H 0.28147 0.16029 0.48159 0.0
H1341 H 0.33965 0.23251 0.49105 0.0
H1342 H 0.35875 0.22008 0.47806 0.0
H1343 H 0.3508 0.2113 0.5016 0.0
C1344 C 0.73802 0.79505 0.02705 0.0
C1345 C 0.72884 0.80192 0.04386 0.0
C1346 C 0.72994 0.79829 0.00867 0.0
C1347 C 0.71186 0.80821 0.0071 0.0
C1348 C 0.70261 0.8155 0.02405 0.0
C1349 C 0.71138 0.81242 0.04233 0.0
C1350 C 0.74066 0.79066 0.99097 0.0
C1351 C 0.68314 0.82569 0.02313 0.0
C1352 C 0.70826 0.82206 0.95478 0.0
C1353 C 0.70245 0.80402 0.9472 0.0
C1354 C 0.70866 0.8251 0.97499 0.0
C1355 C 0.70279 0.80982 0.98754 0.0
C1356 C 0.69346 0.7932 0.97969 0.0
C1357 C 0.69377 0.79027 0.9595 0.0
C1358 C 0.71819 0.84331 0.98279 0.0
C1359 C 0.68583 0.77718 0.99265 0.0
H1360 H 0.75165 0.78712 0.02827 0.0
H1361 H 0.70423 0.81761 0.05544 0.0
H1362 H 0.73202 0.77892 0.98398 0.0
H1363 H 0.74263 0.80246 0.9801 0.0
H1364 H 0.75524 0.78467 0.99469 0.0
H1365 H 0.68095 0.8354 0.03591 0.0
H1366 H 0.68152 0.8344 0.00961 0.0
H1367 H 0.67141 0.81457 0.02326 0.0
H1368 H 0.71472 0.83285 0.94521 0.0
H1369 H 0.6888 0.7765 0.95354 0.0
H1370 H 0.73372 0.84014 0.98608 0.0
H1371 H 0.71112 0.84818 0.99649 0.0
H1372 H 0.71764 0.85538 0.972 0.0
H1373 H 0.69815 0.76783 0.99742 0.0
H1374 H 0.67512 0.76786 0.98486 0.0
H1375 H 0.67883 0.78334 0.00587 0.0
C1376 C 0.6648 0.21348 0.54733 0.0
C1377 C 0.68151 0.20693 0.55703 0.0
C1378 C 0.66364 0.21238 0.52695 0.0
C1379 C 0.67941 0.20422 0.51642 0.0
C1380 C 0.69455 0.19453 0.52655 0.0
C1381 C 0.69568 0.19642 0.54683 0.0
C1382 C 0.64704 0.22253 0.51671 0.0
C1383 C 0.71102 0.18464 0.51586 0.0
C1384 C 0.68183 0.2064 0.46103 0.0
C1385 C 0.69395 0.22264 0.45848 0.0
C1386 C 0.67654 0.20019 0.47983 0.0
C1387 C 0.6832 0.21084 0.4962 0.0
C1388 C 0.69475 0.22776 0.49348 0.0
C1389 C 0.70022 0.23323 0.47467 0.0
C1390 C 0.6647 0.1818 0.48207 0.0
C1391 C 0.70176 0.23995 0.51046 0.0
H1392 H 0.65378 0.22152 0.55534 0.0
H1393 H 0.70843 0.19106 0.55449 0.0
H1394 H 0.65179 0.23738 0.51237 0.0
H1395 H 0.64275 0.2146 0.5033 0.0
H1396 H 0.63411 0.22397 0.52635 0.0
H1397 H 0.71888 0.17418 0.52542 0.0
H1398 H 0.70551 0.17676 0.50286 0.0
H1399 H 0.72158 0.1958 0.51081 0.0
H1400 H 0.67708 0.19818 0.4484 0.0
H1401 H 0.70939 0.24594 0.4726 0.0
H1402 H 0.65452 0.18273 0.49459 0.0
H1403 H 0.67472 0.16939 0.48479 0.0
H1404 H 0.65623 0.17854 0.46866 0.0
H1405 H 0.68934 0.24395 0.52002 0.0
H1406 H 0.70909 0.25356 0.50566 0.0
H1407 H 0.71225 0.23141 0.51934 0.0
C1408 C 0.27661 0.77155 0.45698 0.0
C1409 C 0.2861 0.77941 0.44081 0.0
C1410 C 0.28175 0.77721 0.4758 0.0
C1411 C 0.2963 0.79167 0.47846 0.0
C1412 C 0.30539 0.80031 0.46209 0.0
C1413 C 0.30034 0.79382 0.44334 0.0
C1414 C 0.27186 0.76725 0.49282 0.0
C1415 C 0.32006 0.81655 0.46423 0.0
C1416 C 0.2878 0.8044 0.5299 0.0
C1417 C 0.29977 0.7904 0.53863 0.0
C1418 C 0.28931 0.80815 0.50992 0.0
C1419 C 0.30212 0.79664 0.4986 0.0
C1420 C 0.31626 0.78482 0.50792 0.0
C1421 C 0.31503 0.78199 0.52809 0.0
C1422 C 0.2752 0.82215 0.50056 0.0
C1423 C 0.33047 0.7726 0.4964 0.0
H1424 H 0.26568 0.76032 0.45495 0.0
H1425 H 0.30745 0.80007 0.43069 0.0
H1426 H 0.2829 0.76094 0.50282 0.0
H1427 H 0.26317 0.778 0.5012 0.0
H1428 H 0.26193 0.75536 0.4881 0.0
H1429 H 0.32933 0.81798 0.45104 0.0
H1430 H 0.31213 0.83049 0.46633 0.0
H1431 H 0.32959 0.81439 0.47711 0.0
H1432 H 0.27629 0.81122 0.53833 0.0
H1433 H 0.32439 0.77133 0.53507 0.0
H1434 H 0.26216 0.81405 0.49548 0.0
H1435 H 0.28191 0.82937 0.48773 0.0
H1436 H 0.27032 0.83347 0.51107 0.0
H1437 H 0.32277 0.75964 0.49052 0.0
H1438 H 0.34276 0.76745 0.50561 0.0
H1439 H 0.33644 0.78089 0.48388 0.0
C1440 C 0.17051 0.37298 0.27019 0.0
C1441 C 0.18505 0.35861 0.2696 0.0
C1442 C 0.15151 0.36889 0.26359 0.0
C1443 C 0.14717 0.35003 0.25638 0.0
C1444 C 0.16166 0.33526 0.25685 0.0
C1445 C 0.18035 0.33978 0.26339 0.0
C1446 C 0.13658 0.38504 0.26348 0.0
C1447 C 0.15773 0.31473 0.24977 0.0
C1448 C 0.10267 0.32074 0.24957 0.0
C1449 C 0.1041 0.31768 0.22942 0.0
C1450 C 0.11444 0.33463 0.2588 0.0
C1451 C 0.12803 0.3452 0.24752 0.0
C1452 C 0.12651 0.34495 0.22693 0.0
C1453 C 0.11446 0.33103 0.218 0.0
C1454 C 0.11473 0.3354 0.28075 0.0
C1455 C 0.14002 0.35689 0.21439 0.0
H1456 H 0.17419 0.38761 0.2749 0.0
H1457 H 0.19155 0.32861 0.26321 0.0
H1458 H 0.13742 0.39289 0.24937 0.0
H1459 H 0.12153 0.3794 0.26518 0.0
H1460 H 0.13952 0.39576 0.27526 0.0
H1461 H 0.17055 0.30499 0.25155 0.0
H1462 H 0.14537 0.30829 0.25795 0.0
H1463 H 0.15372 0.31496 0.23411 0.0
H1464 H 0.09411 0.31078 0.25837 0.0
H1465 H 0.11525 0.32898 0.20236 0.0
H1466 H 0.11821 0.3503 0.286 0.0
H1467 H 0.12615 0.32534 0.28627 0.0
H1468 H 0.10052 0.33079 0.28698 0.0
H1469 H 0.14232 0.37155 0.2208 0.0
H1470 H 0.13423 0.35854 0.19936 0.0
H1471 H 0.15439 0.34949 0.21352 0.0
C1472 C 0.11679 0.68389 0.73758 0.0
C1473 C 0.11156 0.68727 0.75705 0.0
C1474 C 0.12761 0.66737 0.73245 0.0
C1475 C 0.13313 0.65404 0.74718 0.0
C1476 C 0.12416 0.65523 0.76572 0.0
C1477 C 0.11358 0.6721 0.77061 0.0
C1478 C 0.13602 0.66619 0.71216 0.0
C1479 C 0.12832 0.64029 0.78126 0.0
C1480 C 0.17425 0.61992 0.73175 0.0
C1481 C 0.19055 0.63096 0.73731 0.0
C1482 C 0.15521 0.62648 0.73589 0.0
C1483 C 0.15257 0.6446 0.74545 0.0
C1484 C 0.16907 0.65533 0.75174 0.0
C1485 C 0.18771 0.64827 0.7478 0.0
C1486 C 0.13808 0.61395 0.73016 0.0
C1487 C 0.16721 0.6749 0.76182 0.0
H1488 H 0.11447 0.69523 0.72681 0.0
H1489 H 0.10896 0.67427 0.78557 0.0
H1490 H 0.15118 0.67183 0.71235 0.0
H1491 H 0.13649 0.6509 0.70694 0.0
H1492 H 0.12745 0.67504 0.70163 0.0
H1493 H 0.11654 0.63998 0.79236 0.0
H1494 H 0.12995 0.62555 0.77479 0.0
H1495 H 0.14217 0.64402 0.78873 0.0
H1496 H 0.17636 0.6063 0.72401 0.0
H1497 H 0.20014 0.65693 0.75225 0.0
H1498 H 0.1257 0.62283 0.72473 0.0
H1499 H 0.13291 0.60593 0.74322 0.0
H1500 H 0.14212 0.60308 0.71885 0.0
H1501 H 0.15913 0.68528 0.75241 0.0
H1502 H 0.18159 0.68146 0.76533 0.0
H1503 H 0.15897 0.67329 0.77562 0.0
C1504 C 0.80493 0.61604 0.23757 0.0
C1505 C 0.80084 0.61012 0.2567 0.0
C1506 C 0.82204 0.62628 0.23327 0.0
C1507 C 0.83518 0.63067 0.24853 0.0
C1508 C 0.83293 0.62137 0.26681 0.0
C1509 C 0.8156 0.61124 0.2708 0.0
C1510 C 0.82429 0.63515 0.21328 0.0
C1511 C 0.84735 0.62466 0.28304 0.0
C1512 C 0.87392 0.66909 0.23745 0.0
C1513 C 0.86412 0.6861 0.24324 0.0
C1514 C 0.86511 0.65064 0.2396 0.0
C1515 C 0.84606 0.64937 0.2475 0.0
C1516 C 0.83629 0.66656 0.25351 0.0
C1517 C 0.84547 0.68455 0.25142 0.0
C1518 C 0.87633 0.63264 0.23375 0.0
C1519 C 0.81582 0.66614 0.26177 0.0
H1520 H 0.79388 0.61449 0.22638 0.0
H1521 H 0.81282 0.60615 0.2855 0.0
H1522 H 0.81897 0.65044 0.21362 0.0
H1523 H 0.8398 0.63538 0.20874 0.0
H1524 H 0.81571 0.62705 0.20219 0.0
H1525 H 0.8465 0.6129 0.29415 0.0
H1526 H 0.86244 0.62541 0.27726 0.0
H1527 H 0.84407 0.63874 0.29032 0.0
H1528 H 0.88846 0.67017 0.23135 0.0
H1529 H 0.83766 0.69758 0.25581 0.0
H1530 H 0.86674 0.62163 0.22682 0.0
H1531 H 0.8827 0.6259 0.247 0.0
H1532 H 0.88843 0.63619 0.22359 0.0
H1533 H 0.80566 0.65954 0.25107 0.0
H1534 H 0.81031 0.68091 0.26549 0.0
H1535 H 0.81543 0.65711 0.27517 0.0
C1536 C 0.87671 0.33698 0.76712 0.0
C1537 C 0.87927 0.32396 0.75157 0.0
C1538 C 0.86364 0.35268 0.76543 0.0
C1539 C 0.85277 0.35487 0.74804 0.0
C1540 C 0.85792 0.34385 0.73138 0.0
C1541 C 0.87127 0.32857 0.73334 0.0
C1542 C 0.85959 0.36521 0.78301 0.0
C1543 C 0.84714 0.34602 0.71232 0.0
C1544 C 0.79818 0.35741 0.75288 0.0
C1545 C 0.79387 0.37535 0.74414 0.0
C1546 C 0.8174 0.35112 0.75507 0.0
C1547 C 0.83286 0.36333 0.74885 0.0
C1548 C 0.82872 0.38208 0.74126 0.0
C1549 C 0.80917 0.3878 0.73874 0.0
C1550 C 0.82099 0.33082 0.76295 0.0
C1551 C 0.84482 0.39599 0.73574 0.0
H1552 H 0.88335 0.33391 0.78112 0.0
H1553 H 0.87386 0.31901 0.72102 0.0
H1554 H 0.8559 0.38033 0.77859 0.0
H1555 H 0.84697 0.35917 0.79112 0.0
H1556 H 0.87231 0.36554 0.79302 0.0
H1557 H 0.85498 0.33883 0.70011 0.0
H1558 H 0.83252 0.33922 0.71367 0.0
H1559 H 0.84498 0.3616 0.70861 0.0
H1560 H 0.78645 0.34771 0.75708 0.0
H1561 H 0.80586 0.40188 0.73235 0.0
H1562 H 0.83037 0.33151 0.77608 0.0
H1563 H 0.82869 0.32186 0.75189 0.0
H1564 H 0.80727 0.32321 0.76695 0.0
H1565 H 0.85183 0.40152 0.74922 0.0
H1566 H 0.83928 0.40866 0.7273 0.0
H1567 H 0.8563 0.38856 0.72711 0.0
C1568 C 0.23475 0.1773 0.38498 0.0
C1569 C 0.25505 0.17961 0.38478 0.0
C1570 C 0.22588 0.16268 0.37387 0.0
C1571 C 0.2377 0.1505 0.3622 0.0
C1572 C 0.25812 0.15025 0.36523 0.0
C1573 C 0.26669 0.16501 0.37652 0.0
C1574 C 0.20399 0.16267 0.37194 0.0
C1575 C 0.27112 0.13657 0.35396 0.0
C1576 C 0.21514 0.12048 0.32118 0.0
C1577 C 0.21707 0.13353 0.30557 0.0
C1578 C 0.22163 0.12564 0.33996 0.0
C1579 C 0.23003 0.14427 0.34297 0.0
C1580 C 0.23128 0.15766 0.32727 0.0
C1581 C 0.22486 0.15206 0.30884 0.0
C1582 C 0.22019 0.11085 0.35616 0.0
C1583 C 0.23972 0.1779 0.32972 0.0
H1584 H 0.22572 0.1882 0.39204 0.0
H1585 H 0.28242 0.16642 0.37679 0.0
H1586 H 0.19978 0.17163 0.35913 0.0
H1587 H 0.19837 0.14769 0.36962 0.0
H1588 H 0.19691 0.16902 0.38505 0.0
H1589 H 0.28549 0.13478 0.3612 0.0
H1590 H 0.26416 0.12207 0.35234 0.0
H1591 H 0.27361 0.14261 0.33916 0.0
H1592 H 0.20925 0.10604 0.31858 0.0
H1593 H 0.22611 0.16225 0.29681 0.0
H1594 H 0.21791 0.11787 0.37054 0.0
H1595 H 0.23402 0.10248 0.35686 0.0
H1596 H 0.20817 0.10036 0.35346 0.0
H1597 H 0.23155 0.18602 0.34106 0.0
H1598 H 0.23923 0.18652 0.31602 0.0
H1599 H 0.25514 0.17691 0.33447 0.0
C1600 C 0.33118 0.77403 0.87355 0.0
C1601 C 0.31622 0.76091 0.86876 0.0
C1602 C 0.34892 0.77384 0.86327 0.0
C1603 C 0.35134 0.76069 0.84754 0.0
C1604 C 0.33711 0.74611 0.84415 0.0
C1605 C 0.31995 0.74621 0.85506 0.0
C1606 C 0.36431 0.78862 0.86849 0.0
C1607 C 0.33894 0.73161 0.82762 0.0
C1608 C 0.36927 0.77378 0.79813 0.0
C1609 C 0.38274 0.75867 0.79512 0.0
C1610 C 0.36063 0.77658 0.81637 0.0
C1611 C 0.36599 0.76426 0.83204 0.0
C1612 C 0.3821 0.75157 0.82996 0.0
C1613 C 0.39011 0.74859 0.81135 0.0
C1614 C 0.34398 0.7909 0.81808 0.0
C1615 C 0.38955 0.73968 0.84687 0.0
H1616 H 0.32872 0.7851 0.88455 0.0
H1617 H 0.3088 0.73555 0.85169 0.0
H1618 H 0.37884 0.7847 0.86256 0.0
H1619 H 0.36003 0.80311 0.86273 0.0
H1620 H 0.36543 0.79002 0.88458 0.0
H1621 H 0.32658 0.72118 0.82713 0.0
H1622 H 0.33951 0.73944 0.81347 0.0
H1623 H 0.3526 0.72312 0.82909 0.0
H1624 H 0.36402 0.78223 0.78586 0.0
H1625 H 0.40115 0.73744 0.80937 0.0
H1626 H 0.34607 0.8004 0.83097 0.0
H1627 H 0.33008 0.78287 0.82008 0.0
H1628 H 0.3426 0.80031 0.80498 0.0
H1629 H 0.40531 0.7364 0.84512 0.0
H1630 H 0.38165 0.72559 0.84749 0.0
H1631 H 0.38726 0.7474 0.8609 0.0
C1632 C 0.74975 0.80822 0.3602 0.0
C1633 C 0.73546 0.8063 0.37468 0.0
C1634 C 0.75351 0.82615 0.3514 0.0
C1635 C 0.74323 0.84292 0.35772 0.0
C1636 C 0.73038 0.84156 0.37383 0.0
C1637 C 0.72634 0.82314 0.38194 0.0
C1638 C 0.76728 0.82664 0.33416 0.0
C1639 C 0.72004 0.85916 0.38199 0.0
C1640 C 0.76542 0.88178 0.32698 0.0
C1641 C 0.75368 0.87975 0.31035 0.0
C1642 C 0.76031 0.87241 0.34447 0.0
C1643 C 0.74358 0.86036 0.3449 0.0
C1644 C 0.73017 0.86106 0.32926 0.0
C1645 C 0.73533 0.87092 0.31221 0.0
C1646 C 0.77388 0.8736 0.36169 0.0
C1647 C 0.71165 0.84918 0.32941 0.0
H1648 H 0.75721 0.79542 0.35469 0.0
H1649 H 0.71563 0.82191 0.39349 0.0
H1650 H 0.75939 0.83156 0.32092 0.0
H1651 H 0.77928 0.83708 0.33689 0.0
H1652 H 0.77385 0.81216 0.33103 0.0
H1653 H 0.72004 0.85856 0.39817 0.0
H1654 H 0.72683 0.87307 0.3773 0.0
H1655 H 0.70459 0.859 0.37724 0.0
H1656 H 0.77928 0.88929 0.32598 0.0
H1657 H 0.72568 0.87014 0.29972 0.0
H1658 H 0.78458 0.8615 0.36101 0.0
H1659 H 0.7657 0.8723 0.3756 0.0
H1660 H 0.7821 0.88755 0.36165 0.0
H1661 H 0.71531 0.83341 0.32889 0.0
H1662 H 0.70207 0.85262 0.31682 0.0
H1663 H 0.70338 0.85188 0.34302 0.0
C1664 C 0.68524 0.23464 0.88238 0.0
C1665 C 0.70049 0.24127 0.87047 0.0
C1666 C 0.66567 0.23808 0.87726 0.0
C1667 C 0.66139 0.24765 0.85947 0.0
C1668 C 0.6768 0.2552 0.84796 0.0
C1669 C 0.69607 0.25218 0.85378 0.0
C1670 C 0.64985 0.23068 0.89059 0.0
C1671 C 0.67312 0.26528 0.82869 0.0
C1672 C 0.623 0.23446 0.82366 0.0
C1673 C 0.6147 0.25289 0.8205 0.0
C1674 C 0.63654 0.23152 0.83861 0.0
C1675 C 0.64151 0.24733 0.85086 0.0
C1676 C 0.63035 0.26468 0.85011 0.0
C1677 C 0.61717 0.26744 0.83465 0.0
C1678 C 0.64746 0.21242 0.83941 0.0
C1679 C 0.63398 0.28114 0.8642 0.0
H1680 H 0.68855 0.22651 0.89552 0.0
H1681 H 0.70773 0.25744 0.84452 0.0
H1682 H 0.63555 0.23766 0.88771 0.0
H1683 H 0.64834 0.21468 0.88872 0.0
H1684 H 0.6539 0.23329 0.90605 0.0
H1685 H 0.68681 0.27003 0.82146 0.0
H1686 H 0.6653 0.25531 0.81864 0.0
H1687 H 0.66383 0.27832 0.83089 0.0
H1688 H 0.62045 0.22284 0.81326 0.0
H1689 H 0.6103 0.28155 0.83272 0.0
H1690 H 0.64808 0.20694 0.85459 0.0
H1691 H 0.66267 0.21466 0.83436 0.0
H1692 H 0.64062 0.20107 0.83012 0.0
H1693 H 0.63791 0.27542 0.87882 0.0
H1694 H 0.62096 0.29068 0.86554 0.0
H1695 H 0.64628 0.29018 0.85889 0.0
C1696 C 0.26719 0.82753 0.6101 0.0
C1697 C 0.25297 0.81285 0.60946 0.0
C1698 C 0.26416 0.84435 0.62137 0.0
C1699 C 0.24684 0.84603 0.63243 0.0
C1700 C 0.23123 0.83304 0.6289 0.0
C1701 C 0.23447 0.81661 0.6173 0.0
C1702 C 0.2805 0.85885 0.62358 0.0
C1703 C 0.2122 0.8346 0.63987 0.0
C1704 C 0.25263 0.85369 0.68637 0.0
C1705 C 0.24241 0.87109 0.6894 0.0
C1706 C 0.255 0.846 0.66771 0.0
C1707 C 0.24734 0.85623 0.65147 0.0
C1708 C 0.23818 0.87453 0.65422 0.0
C1709 C 0.23562 0.88169 0.67326 0.0
C1710 C 0.2647 0.82627 0.66563 0.0
C1711 C 0.23106 0.88646 0.63716 0.0
H1712 H 0.28131 0.82511 0.60344 0.0
H1713 H 0.22308 0.80572 0.61609 0.0
H1714 H 0.27469 0.87378 0.62588 0.0
H1715 H 0.28945 0.85493 0.63647 0.0
H1716 H 0.29015 0.85883 0.61058 0.0
H1717 H 0.20058 0.82564 0.63303 0.0
H1718 H 0.21437 0.82938 0.65503 0.0
H1719 H 0.20716 0.84993 0.6406 0.0
H1720 H 0.25798 0.84544 0.69874 0.0
H1721 H 0.22811 0.89542 0.67554 0.0
H1722 H 0.27752 0.82736 0.65587 0.0
H1723 H 0.25439 0.8157 0.65905 0.0
H1724 H 0.26969 0.82028 0.67983 0.0
H1725 H 0.24381 0.89274 0.62947 0.0
H1726 H 0.22143 0.89862 0.64185 0.0
H1727 H 0.22309 0.8773 0.6265 0.0
C1728 C 0.70213 0.73834 0.1277 0.0
C1729 C 0.70483 0.75414 0.11498 0.0
C1730 C 0.68417 0.7351 0.13674 0.0
C1731 C 0.6683 0.74758 0.13247 0.0
C1732 C 0.67006 0.76144 0.11729 0.0
C1733 C 0.68846 0.76486 0.10891 0.0
C1734 C 0.68297 0.71984 0.15259 0.0
C1735 C 0.65301 0.77383 0.11105 0.0
C1736 C 0.62659 0.73318 0.16544 0.0
C1737 C 0.63065 0.74492 0.1817 0.0
C1738 C 0.63716 0.73543 0.148 0.0
C1739 C 0.65245 0.74927 0.14715 0.0
C1740 C 0.65514 0.76243 0.16281 0.0
C1741 C 0.644 0.76028 0.17971 0.0
C1742 C 0.63274 0.72208 0.13111 0.0
C1743 C 0.67116 0.77758 0.16265 0.0
H1744 H 0.71448 0.72946 0.13198 0.0
H1745 H 0.69018 0.77667 0.09856 0.0
H1746 H 0.6809 0.72704 0.16693 0.0
H1747 H 0.6703 0.71016 0.1501 0.0
H1748 H 0.69631 0.71067 0.15336 0.0
H1749 H 0.65422 0.77777 0.09539 0.0
H1750 H 0.63895 0.76622 0.1135 0.0
H1751 H 0.65291 0.78758 0.11955 0.0
H1752 H 0.61588 0.72162 0.16657 0.0
H1753 H 0.64684 0.76989 0.19191 0.0
H1754 H 0.64007 0.70785 0.13343 0.0
H1755 H 0.63778 0.72825 0.11704 0.0
H1756 H 0.61683 0.71923 0.13019 0.0
H1757 H 0.68559 0.77028 0.16185 0.0
H1758 H 0.67094 0.78696 0.17584 0.0
H1759 H 0.66975 0.78709 0.14968 0.0
C1760 C 0.78505 0.12305 0.66432 0.0
C1761 C 0.77462 0.1123 0.67814 0.0
C1762 C 0.77507 0.13323 0.64962 0.0
C1763 C 0.75443 0.13253 0.64911 0.0
C1764 C 0.74455 0.11839 0.66037 0.0
C1765 C 0.7548 0.10854 0.67502 0.0
C1766 C 0.78624 0.14732 0.63701 0.0
C1767 C 0.7227 0.1163 0.65947 0.0
C1768 C 0.73244 0.18283 0.65211 0.0
C1769 C 0.72545 0.18581 0.63322 0.0
C1770 C 0.74143 0.16538 0.65739 0.0
C1771 C 0.7436 0.15038 0.64332 0.0
C1772 C 0.73581 0.15292 0.62435 0.0
C1773 C 0.72673 0.17072 0.6195 0.0
C1774 C 0.74905 0.16334 0.67799 0.0
C1775 C 0.73779 0.13742 0.60891 0.0
H1776 H 0.80048 0.12569 0.66652 0.0
H1777 H 0.74683 0.09976 0.68548 0.0
H1778 H 0.77971 0.14825 0.62225 0.0
H1779 H 0.78563 0.16206 0.64367 0.0
H1780 H 0.80179 0.14298 0.63567 0.0
H1781 H 0.71797 0.1018 0.66489 0.0
H1782 H 0.71588 0.12765 0.66879 0.0
H1783 H 0.71728 0.11833 0.64437 0.0
H1784 H 0.7312 0.19443 0.66279 0.0
H1785 H 0.72142 0.1731 0.60481 0.0
H1786 H 0.76507 0.16116 0.67779 0.0
H1787 H 0.74239 0.15047 0.68515 0.0
H1788 H 0.74586 0.17636 0.68709 0.0
H1789 H 0.75182 0.13947 0.60115 0.0
H1790 H 0.72589 0.13853 0.59798 0.0
H1791 H 0.73773 0.12253 0.61523 0.0
C1792 C 0.32006 0.24271 0.15329 0.0
C1793 C 0.31674 0.23523 0.13463 0.0
C1794 C 0.33893 0.24525 0.16039 0.0
C1795 C 0.35509 0.24051 0.14838 0.0
C1796 C 0.35191 0.23321 0.12934 0.0
C1797 C 0.33268 0.23051 0.12271 0.0
C1798 C 0.34144 0.25282 0.18097 0.0
C1799 C 0.36861 0.22874 0.11575 0.0
C1800 C 0.39448 0.26564 0.17508 0.0
C1801 C 0.39781 0.25132 0.18928 0.0
C1802 C 0.38314 0.2613 0.1586 0.0
C1803 C 0.37495 0.24246 0.15678 0.0
C1804 C 0.38195 0.22719 0.16872 0.0
C1805 C 0.39342 0.23183 0.18493 0.0
C1806 C 0.37722 0.2776 0.14512 0.0
C1807 C 0.37446 0.20663 0.16663 0.0
H1808 H 0.30779 0.24625 0.1626 0.0
H1809 H 0.33013 0.225 0.10812 0.0
H1810 H 0.35005 0.24231 0.18975 0.0
H1811 H 0.34946 0.26685 0.18077 0.0
H1812 H 0.32729 0.25524 0.18845 0.0
H1813 H 0.36429 0.21806 0.10437 0.0
H1814 H 0.37306 0.24241 0.10832 0.0
H1815 H 0.3815 0.22303 0.12365 0.0
H1816 H 0.3984 0.28067 0.17799 0.0
H1817 H 0.39672 0.22055 0.19551 0.0
H1818 H 0.36317 0.28387 0.15015 0.0
H1819 H 0.37514 0.27211 0.13005 0.0
H1820 H 0.38827 0.28943 0.145 0.0
H1821 H 0.35994 0.20555 0.17369 0.0
H1822 H 0.38435 0.19596 0.17374 0.0
H1823 H 0.37273 0.20262 0.15107 0.0
C1824 C 0.82723 0.61225 0.73421 0.0
C1825 C 0.80975 0.62232 0.73755 0.0
C1826 C 0.84526 0.62071 0.73921 0.0
C1827 C 0.84559 0.63968 0.74739 0.0
C1828 C 0.82787 0.64981 0.75066 0.0
C1829 C 0.81028 0.64094 0.74584 0.0
C1830 C 0.86372 0.60914 0.73615 0.0
C1831 C 0.82733 0.67026 0.75896 0.0
C1832 C 0.87906 0.66924 0.77743 0.0
C1833 C 0.88252 0.68423 0.76399 0.0
C1834 C 0.86994 0.65194 0.7714 0.0
C1835 C 0.86404 0.65005 0.75173 0.0
C1836 C 0.8711 0.66337 0.73769 0.0
C1837 C 0.88023 0.68045 0.74404 0.0
C1838 C 0.86384 0.63725 0.78654 0.0
C1839 C 0.86601 0.6614 0.7164 0.0
H1840 H 0.8268 0.59773 0.72797 0.0
H1841 H 0.79682 0.64888 0.74821 0.0
H1842 H 0.87609 0.61859 0.73183 0.0
H1843 H 0.8677 0.60191 0.75006 0.0
H1844 H 0.86173 0.59764 0.72493 0.0
H1845 H 0.81227 0.67609 0.76017 0.0
H1846 H 0.83395 0.67043 0.7737 0.0
H1847 H 0.83584 0.68031 0.74958 0.0
H1848 H 0.88144 0.67179 0.79284 0.0
H1849 H 0.88374 0.69169 0.73349 0.0
H1850 H 0.86407 0.62227 0.78043 0.0
H1851 H 0.84872 0.64049 0.79131 0.0
H1852 H 0.87347 0.63784 0.79954 0.0
H1853 H 0.8664 0.64592 0.71173 0.0
H1854 H 0.87611 0.66995 0.70708 0.0
H1855 H 0.851 0.66696 0.714 0.0
C1856 C 0.88544 0.30952 0.22411 0.0
C1857 C 0.87353 0.29363 0.22897 0.0
C1858 C 0.88 0.32867 0.22926 0.0
C1859 C 0.8621 0.33183 0.23908 0.0
C1860 C 0.85033 0.3157 0.24435 0.0
C1861 C 0.8563 0.29691 0.23942 0.0
C1862 C 0.89349 0.34534 0.22441 0.0
C1863 C 0.8309 0.31819 0.25452 0.0
C1864 C 0.83818 0.37145 0.26712 0.0
C1865 C 0.82326 0.3759 0.25388 0.0
C1866 C 0.85383 0.35951 0.26138 0.0
C1867 C 0.85405 0.35169 0.24229 0.0
C1868 C 0.8411 0.35922 0.22812 0.0
C1869 C 0.82584 0.37134 0.23412 0.0
C1870 C 0.86841 0.35299 0.27645 0.0
C1871 C 0.84119 0.35188 0.20738 0.0
H1872 H 0.89896 0.307 0.21633 0.0
H1873 H 0.84694 0.28474 0.24317 0.0
H1874 H 0.88533 0.35833 0.21932 0.0
H1875 H 0.9015 0.34962 0.23779 0.0
H1876 H 0.90434 0.34119 0.21313 0.0
H1877 H 0.82342 0.30407 0.25715 0.0
H1878 H 0.83298 0.32547 0.26879 0.0
H1879 H 0.8211 0.32749 0.24563 0.0
H1880 H 0.83664 0.37546 0.28232 0.0
H1881 H 0.81475 0.37549 0.22365 0.0
H1882 H 0.88293 0.35055 0.26973 0.0
H1883 H 0.86352 0.33901 0.28296 0.0
H1884 H 0.8698 0.36388 0.28835 0.0
H1885 H 0.85629 0.35034 0.20183 0.0
H1886 H 0.83299 0.36177 0.19752 0.0
H1887 H 0.83423 0.33729 0.20688 0.0
C1888 C 0.11017 0.31053 0.75266 0.0
C1889 C 0.12173 0.29489 0.74626 0.0
C1890 C 0.11588 0.32992 0.74922 0.0
C1891 C 0.1339 0.33362 0.73984 0.0
C1892 C 0.14491 0.31785 0.73225 0.0
C1893 C 0.1385 0.29877 0.73528 0.0
C1894 C 0.103 0.34617 0.75654 0.0
C1895 C 0.16437 0.3209 0.72232 0.0
C1896 C 0.16104 0.37701 0.72145 0.0
C1897 C 0.17501 0.37851 0.73631 0.0
C1898 C 0.14493 0.36454 0.72365 0.0
C1899 C 0.14334 0.35308 0.74074 0.0
C1900 C 0.15548 0.35719 0.75688 0.0
C1901 C 0.17108 0.37006 0.75451 0.0
C1902 C 0.13098 0.36193 0.7069 0.0
C1903 C 0.15381 0.34596 0.77573 0.0
H1904 H 0.09693 0.30766 0.76081 0.0
H1905 H 0.14746 0.28682 0.73011 0.0
H1906 H 0.10466 0.3475 0.77257 0.0
H1907 H 0.1065 0.36041 0.74972 0.0
H1908 H 0.08746 0.34269 0.75365 0.0
H1909 H 0.17108 0.307 0.71741 0.0
H1910 H 0.16262 0.33047 0.70943 0.0
H1911 H 0.17466 0.32817 0.73247 0.0
H1912 H 0.16356 0.38405 0.70754 0.0
H1913 H 0.18136 0.37191 0.76637 0.0
H1914 H 0.11612 0.3584 0.71226 0.0
H1915 H 0.13598 0.34971 0.69756 0.0
H1916 H 0.13029 0.37528 0.69775 0.0
H1917 H 0.13854 0.34608 0.78098 0.0
H1918 H 0.16328 0.35207 0.78735 0.0
H1919 H 0.15807 0.33053 0.77326 0.0
C1920 C 0.17645 0.6042 0.26246 0.0
C1921 C 0.19028 0.60727 0.24769 0.0
C1922 C 0.15904 0.61501 0.26279 0.0
C1923 C 0.15587 0.62942 0.24837 0.0
C1924 C 0.1681 0.62996 0.23175 0.0
C1925 C 0.18507 0.61863 0.23152 0.0
C1926 C 0.14542 0.61283 0.27988 0.0
C1927 C 0.16514 0.64475 0.21571 0.0
C1928 C 0.11826 0.66991 0.24565 0.0
C1929 C 0.12858 0.68515 0.25463 0.0
C1930 C 0.126 0.65089 0.24508 0.0
C1931 C 0.14461 0.64729 0.25325 0.0
C1932 C 0.15426 0.66229 0.26367 0.0
C1933 C 0.14597 0.68087 0.26447 0.0
C1934 C 0.11458 0.63482 0.23533 0.0
C1935 C 0.1742 0.65929 0.27263 0.0
H1936 H 0.17998 0.59489 0.27474 0.0
H1937 H 0.1953 0.62045 0.21961 0.0
H1938 H 0.14978 0.62308 0.29159 0.0
H1939 H 0.13017 0.61623 0.27567 0.0
H1940 H 0.14605 0.59781 0.28591 0.0
H1941 H 0.17406 0.64135 0.20263 0.0
H1942 H 0.14962 0.64549 0.2113 0.0
H1943 H 0.16941 0.6594 0.2211 0.0
H1944 H 0.10452 0.67297 0.23848 0.0
H1945 H 0.15393 0.69239 0.27178 0.0
H1946 H 0.11058 0.62371 0.24637 0.0
H1947 H 0.12353 0.62735 0.22414 0.0
H1948 H 0.10103 0.64032 0.22838 0.0
H1949 H 0.17379 0.64715 0.28328 0.0
H1950 H 0.1796 0.67251 0.28028 0.0
H1951 H 0.18489 0.65538 0.26114 0.0
C1952 C 0.74083 0.87591 0.68402 0.0
C1953 C 0.7599 0.88201 0.68815 0.0
C1954 C 0.73682 0.86466 0.66749 0.0
C1955 C 0.75225 0.85965 0.65475 0.0
C1956 C 0.77054 0.86897 0.65687 0.0
C1957 C 0.77429 0.87995 0.67378 0.0
C1958 C 0.71687 0.8556 0.66553 0.0
C1959 C 0.7869 0.86516 0.64273 0.0
C1960 C 0.75341 0.8054 0.64622 0.0
C1961 C 0.74373 0.80343 0.62834 0.0
C1962 C 0.75693 0.82368 0.65441 0.0
C1963 C 0.75105 0.84069 0.64429 0.0
C1964 C 0.74226 0.83898 0.62567 0.0
C1965 C 0.7385 0.82029 0.61796 0.0
C1966 C 0.76609 0.82459 0.67447 0.0
C1967 C 0.73692 0.85677 0.61389 0.0
H1968 H 0.72942 0.87815 0.69473 0.0
H1969 H 0.78895 0.88513 0.67656 0.0
H1970 H 0.71213 0.85528 0.65009 0.0
H1971 H 0.71744 0.84032 0.67084 0.0
H1972 H 0.70576 0.86359 0.67421 0.0
H1973 H 0.79785 0.87708 0.64309 0.0
H1974 H 0.79435 0.85136 0.64671 0.0
H1975 H 0.78124 0.8636 0.62766 0.0
H1976 H 0.75755 0.79253 0.65441 0.0
H1977 H 0.73135 0.81887 0.60395 0.0
H1978 H 0.75607 0.83198 0.6848 0.0
H1979 H 0.77979 0.83312 0.67395 0.0
H1980 H 0.76954 0.80991 0.6804 0.0
H1981 H 0.72982 0.86803 0.62308 0.0
H1982 H 0.7271 0.85313 0.60155 0.0
H1983 H 0.75043 0.86332 0.60788 0.0
C1984 C 0.6529 0.25967 0.18179 0.0
C1985 C 0.6348 0.26809 0.1859 0.0
C1986 C 0.65817 0.25483 0.16278 0.0
C1987 C 0.64486 0.25827 0.14733 0.0
C1988 C 0.62651 0.26688 0.1513 0.0
C1989 C 0.62171 0.27182 0.17064 0.0
C1990 C 0.67812 0.24601 0.15937 0.0
C1991 C 0.61169 0.27031 0.13543 0.0
C1992 C 0.67798 0.2591 0.10518 0.0
C1993 C 0.68048 0.23893 0.10293 0.0
C1994 C 0.66329 0.26644 0.11728 0.0
C1995 C 0.6511 0.25317 0.12726 0.0
C1996 C 0.65091 0.23333 0.12158 0.0
C1997 C 0.66582 0.22631 0.10945 0.0
C1998 C 0.66327 0.28789 0.1221 0.0
C1999 C 0.63714 0.219 0.13091 0.0
H2000 H 0.66312 0.25696 0.19353 0.0
H2001 H 0.60758 0.27813 0.17386 0.0
H2002 H 0.67664 0.23122 0.15303 0.0
H2003 H 0.68649 0.25506 0.14892 0.0
H2004 H 0.68677 0.24477 0.173 0.0
H2005 H 0.60131 0.28207 0.13949 0.0
H2006 H 0.61868 0.27412 0.12137 0.0
H2007 H 0.60321 0.25673 0.1332 0.0
H2008 H 0.6889 0.269 0.09945 0.0
H2009 H 0.66733 0.21072 0.10724 0.0
H2010 H 0.67199 0.29031 0.13551 0.0
H2011 H 0.64826 0.29323 0.12489 0.0
H2012 H 0.66984 0.29663 0.11016 0.0
H2013 H 0.64314 0.21437 0.1452 0.0
H2014 H 0.63526 0.2058 0.12171 0.0
H2015 H 0.62268 0.22578 0.1335 0.0
C2016 C 0.26172 0.1776 0.6082 0.0
C2017 C 0.2476 0.19203 0.61165 0.0
C2018 C 0.26104 0.15977 0.61827 0.0
C2019 C 0.24625 0.15675 0.63231 0.0
C2020 C 0.23026 0.16977 0.63317 0.0
C2021 C 0.23106 0.18723 0.62266 0.0
C2022 C 0.27749 0.14541 0.61578 0.0
C2023 C 0.21379 0.16688 0.64749 0.0
C2024 C 0.24208 0.11729 0.6709 0.0
C2025 C 0.25145 0.12648 0.68661 0.0
C2026 C 0.24161 0.12609 0.65236 0.0
C2027 C 0.25038 0.14459 0.64973 0.0
C2028 C 0.26103 0.15316 0.66521 0.0
C2029 C 0.26166 0.14386 0.68328 0.0
C2030 C 0.23147 0.11582 0.63577 0.0
C2031 C 0.27059 0.17295 0.66325 0.0
H2032 H 0.27422 0.18081 0.5991 0.0
H2033 H 0.21962 0.19794 0.62474 0.0
H2034 H 0.28892 0.14834 0.62683 0.0
H2035 H 0.2723 0.13023 0.6179 0.0
H2036 H 0.28423 0.14672 0.60112 0.0
H2037 H 0.20113 0.17641 0.64412 0.0
H2038 H 0.20882 0.15151 0.64755 0.0
H2039 H 0.219 0.17044 0.66239 0.0
H2040 H 0.23459 0.10358 0.67322 0.0
H2041 H 0.26923 0.15098 0.69517 0.0
H2042 H 0.24252 0.11105 0.62497 0.0
H2043 H 0.2213 0.12578 0.6281 0.0
H2044 H 0.22326 0.1028 0.64077 0.0
H2045 H 0.2813 0.17281 0.65116 0.0
H2046 H 0.2783 0.17747 0.67674 0.0
H2047 H 0.25944 0.18416 0.65981 0.0
C2048 C 0.31858 0.76378 0.1111 0.0
C2049 C 0.30348 0.75084 0.11595 0.0
C2050 C 0.33716 0.76167 0.11951 0.0
C2051 C 0.34027 0.74679 0.13346 0.0
C2052 C 0.3261 0.73195 0.13576 0.0
C2053 C 0.30796 0.73404 0.12672 0.0
C2054 C 0.35259 0.77669 0.1152 0.0
C2055 C 0.3288 0.71546 0.15013 0.0
C2056 C 0.38065 0.73662 0.16952 0.0
C2057 C 0.37327 0.74641 0.18593 0.0
C2058 C 0.37149 0.7385 0.15124 0.0
C2059 C 0.35432 0.74985 0.14966 0.0
C2060 C 0.34817 0.76134 0.16568 0.0
C2061 C 0.35799 0.75978 0.18342 0.0
C2062 C 0.37962 0.72775 0.13386 0.0
C2063 C 0.32996 0.77379 0.16486 0.0
H2064 H 0.31554 0.77644 0.10214 0.0
H2065 H 0.29664 0.72347 0.12981 0.0
H2066 H 0.35061 0.78944 0.12493 0.0
H2067 H 0.36745 0.77073 0.11756 0.0
H2068 H 0.35134 0.78195 0.09993 0.0
H2069 H 0.3174 0.70407 0.14855 0.0
H2070 H 0.34324 0.70849 0.14826 0.0
H2071 H 0.32808 0.7213 0.1652 0.0
H2072 H 0.39292 0.72679 0.17114 0.0
H2073 H 0.35253 0.76794 0.1958 0.0
H2074 H 0.38364 0.73844 0.12241 0.0
H2075 H 0.36849 0.71795 0.12744 0.0
H2076 H 0.39272 0.719 0.13764 0.0
H2077 H 0.33108 0.78459 0.15292 0.0
H2078 H 0.32729 0.78182 0.17866 0.0
H2079 H 0.31706 0.76449 0.16188 0.0
C2080 C 0.72647 0.17379 0.38939 0.0
C2081 C 0.74179 0.18718 0.39129 0.0
C2082 C 0.72887 0.15694 0.378 0.0
C2083 C 0.74678 0.1539 0.36822 0.0
C2084 C 0.76321 0.16515 0.37352 0.0
C2085 C 0.76051 0.18173 0.38511 0.0
C2086 C 0.71145 0.14422 0.37393 0.0
C2087 C 0.78286 0.16187 0.3642 0.0
C2088 C 0.75479 0.11838 0.32618 0.0
C2089 C 0.74972 0.13018 0.31024 0.0
C2090 C 0.75317 0.12543 0.3454 0.0
C2091 C 0.74662 0.14476 0.34858 0.0
C2092 C 0.74114 0.15651 0.33248 0.0
C2093 C 0.74259 0.14901 0.31364 0.0
C2094 C 0.75819 0.11208 0.36215 0.0
C2095 C 0.7343 0.17736 0.33496 0.0
H2096 H 0.71206 0.17755 0.39469 0.0
H2097 H 0.77262 0.19165 0.38727 0.0
H2098 H 0.70417 0.14929 0.36041 0.0
H2099 H 0.71596 0.12883 0.37173 0.0
H2100 H 0.7007 0.14495 0.38602 0.0
H2101 H 0.79472 0.16884 0.37274 0.0
H2102 H 0.78605 0.14609 0.36275 0.0
H2103 H 0.78283 0.16833 0.34936 0.0
H2104 H 0.76001 0.10367 0.32364 0.0
H2105 H 0.73871 0.15827 0.30144 0.0
H2106 H 0.74452 0.10582 0.36809 0.0
H2107 H 0.76551 0.12002 0.37417 0.0
H2108 H 0.76768 0.09984 0.3574 0.0
H2109 H 0.72092 0.17777 0.34401 0.0
H2110 H 0.73102 0.18455 0.32083 0.0
H2111 H 0.74564 0.18606 0.34252 0.0
C2112 C 0.31184 0.26563 0.88376 0.0
C2113 C 0.30903 0.24633 0.88989 0.0
C2114 C 0.32813 0.27066 0.87257 0.0
C2115 C 0.34176 0.25598 0.86762 0.0
C2116 C 0.34121 0.23792 0.87757 0.0
C2117 C 0.32459 0.23312 0.88852 0.0
C2118 C 0.32868 0.29053 0.86317 0.0
C2119 C 0.35652 0.22257 0.87402 0.0
C2120 C 0.34645 0.25255 0.81305 0.0
C2121 C 0.36342 0.26326 0.80932 0.0
C2122 C 0.33986 0.24945 0.83202 0.0
C2123 C 0.35075 0.25687 0.84794 0.0
C2124 C 0.36858 0.26667 0.84444 0.0
C2125 C 0.37466 0.26991 0.82508 0.0
C2126 C 0.32061 0.23901 0.8348 0.0
C2127 C 0.3813 0.2736 0.86097 0.0
H2128 H 0.30019 0.27617 0.88558 0.0
H2129 H 0.32287 0.21834 0.89385 0.0
H2130 H 0.34383 0.29605 0.86217 0.0
H2131 H 0.32278 0.28947 0.84814 0.0
H2132 H 0.31974 0.30127 0.87137 0.0
H2133 H 0.3573 0.21213 0.88638 0.0
H2134 H 0.3528 0.21427 0.86066 0.0
H2135 H 0.37105 0.22934 0.87183 0.0
H2136 H 0.33767 0.24725 0.80104 0.0
H2137 H 0.38804 0.27783 0.82231 0.0
H2138 H 0.31013 0.24861 0.84253 0.0
H2139 H 0.32273 0.22573 0.84376 0.0
H2140 H 0.31388 0.23454 0.82077 0.0
H2141 H 0.37255 0.27939 0.87327 0.0
H2142 H 0.39172 0.28501 0.85613 0.0
H2143 H 0.38983 0.26105 0.86658 0.0
C2144 C 0.25579 0.82222 0.37667 0.0
C2145 C 0.24986 0.8072 0.36409 0.0
C2146 C 0.25436 0.84189 0.37098 0.0
C2147 C 0.24717 0.84646 0.35219 0.0
C2148 C 0.24038 0.83132 0.33985 0.0
C2149 C 0.24161 0.81198 0.34606 0.0
C2150 C 0.26048 0.85763 0.38507 0.0
C2151 C 0.2327 0.83534 0.31955 0.0
C2152 C 0.22974 0.88997 0.32541 0.0
C2153 C 0.245 0.89128 0.31186 0.0
C2154 C 0.23149 0.87769 0.34171 0.0
C2155 C 0.24863 0.86644 0.34396 0.0
C2156 C 0.26529 0.87102 0.33272 0.0
C2157 C 0.26329 0.88359 0.31678 0.0
C2158 C 0.21401 0.87443 0.35458 0.0
C2159 C 0.28422 0.86007 0.33519 0.0
H2160 H 0.26177 0.8186 0.39084 0.0
H2161 H 0.23694 0.80049 0.33627 0.0
H2162 H 0.26857 0.86948 0.37763 0.0
H2163 H 0.24724 0.86422 0.39162 0.0
H2164 H 0.26966 0.85174 0.39704 0.0
H2165 H 0.22828 0.82183 0.31181 0.0
H2166 H 0.21986 0.84513 0.3203 0.0
H2167 H 0.24403 0.84274 0.3107 0.0
H2168 H 0.21571 0.89646 0.32213 0.0
H2169 H 0.27541 0.88529 0.30678 0.0
H2170 H 0.21857 0.87102 0.36972 0.0
H2171 H 0.20549 0.86188 0.34897 0.0
H2172 H 0.20434 0.88743 0.35472 0.0
H2173 H 0.2877 0.85796 0.35082 0.0
H2174 H 0.29656 0.86779 0.32809 0.0
H2175 H 0.28283 0.84543 0.32841 0.0
C2176 C 0.6066 0.74173 0.81477 0.0
C2177 C 0.6109 0.7225 0.8094 0.0
C2178 C 0.61489 0.7499 0.83153 0.0
C2179 C 0.62837 0.73874 0.8424 0.0
C2180 C 0.62979 0.7184 0.83901 0.0
C2181 C 0.62092 0.71042 0.8224 0.0
C2182 C 0.61185 0.77128 0.83559 0.0
C2183 C 0.64331 0.70578 0.85088 0.0
C2184 C 0.67836 0.76079 0.84682 0.0
C2185 C 0.68025 0.7634 0.86691 0.0
C2186 C 0.66119 0.7536 0.83875 0.0
C2187 C 0.64535 0.74887 0.85116 0.0
C2188 C 0.64666 0.75274 0.87142 0.0
C2189 C 0.66425 0.76001 0.87913 0.0
C2190 C 0.6605 0.75022 0.81696 0.0
C2191 C 0.63008 0.74833 0.88514 0.0
H2192 H 0.59834 0.75092 0.80489 0.0
H2193 H 0.62394 0.69543 0.81837 0.0
H2194 H 0.61268 0.77434 0.85145 0.0
H2195 H 0.62345 0.77982 0.82823 0.0
H2196 H 0.59753 0.77633 0.82995 0.0
H2197 H 0.63985 0.69006 0.84918 0.0
H2198 H 0.65854 0.70818 0.84595 0.0
H2199 H 0.64248 0.70969 0.86654 0.0
H2200 H 0.69072 0.76373 0.83741 0.0
H2201 H 0.6658 0.76203 0.89473 0.0
H2202 H 0.64827 0.75853 0.81043 0.0
H2203 H 0.65807 0.73454 0.81385 0.0
H2204 H 0.67416 0.75475 0.80955 0.0
H2205 H 0.61571 0.74912 0.87777 0.0
H2206 H 0.6301 0.75857 0.89768 0.0
H2207 H 0.63195 0.73338 0.89103 0.0
C2208 C 0.09199 0.21508 0.22206 0.0
C2209 C 0.08868 0.22051 0.20267 0.0
C2210 C 0.10395 0.19919 0.22661 0.0
C2211 C 0.1127 0.18843 0.21134 0.0
C2212 C 0.1077 0.19256 0.19173 0.0
C2213 C 0.0957 0.20866 0.18759 0.0
C2214 C 0.10887 0.19534 0.24772 0.0
C2215 C 0.11649 0.18124 0.17505 0.0
C2216 C 0.16394 0.17221 0.22352 0.0
C2217 C 0.16104 0.15287 0.22941 0.0
C2218 C 0.14841 0.18361 0.21682 0.0
C2219 C 0.12946 0.17549 0.21593 0.0
C2220 C 0.12651 0.15577 0.2212 0.0
C2221 C 0.14234 0.1447 0.22804 0.0
C2222 C 0.15222 0.2046 0.21135 0.0
C2223 C 0.1066 0.14652 0.21997 0.0
H2224 H 0.08644 0.22419 0.23373 0.0
H2225 H 0.09322 0.21288 0.17256 0.0
H2226 H 0.10813 0.17954 0.25099 0.0
H2227 H 0.12401 0.20022 0.25065 0.0
H2228 H 0.09893 0.20321 0.2578 0.0
H2229 H 0.10777 0.18291 0.16151 0.0
H2230 H 0.13141 0.18676 0.17212 0.0
H2231 H 0.11768 0.16552 0.17864 0.0
H2232 H 0.17832 0.17865 0.22462 0.0
H2233 H 0.14009 0.12965 0.23228 0.0
H2234 H 0.1445 0.21439 0.22166 0.0
H2235 H 0.14648 0.20763 0.19656 0.0
H2236 H 0.16799 0.20826 0.21159 0.0
H2237 H 0.09679 0.15321 0.23093 0.0
H2238 H 0.10713 0.13055 0.22258 0.0
H2239 H 0.10008 0.14923 0.20542 0.0
C2240 C 0.36052 0.67461 0.72909 0.0
C2241 C 0.35139 0.69287 0.73052 0.0
C2242 C 0.34987 0.65786 0.72434 0.0
C2243 C 0.32958 0.6594 0.72124 0.0
C2244 C 0.32037 0.67789 0.72213 0.0
C2245 C 0.33142 0.69445 0.72676 0.0
C2246 C 0.36025 0.63849 0.72301 0.0
C2247 C 0.29875 0.6801 0.71873 0.0
C2248 C 0.29822 0.61988 0.69866 0.0
C2249 C 0.28902 0.61248 0.71532 0.0
C2250 C 0.31247 0.63449 0.7003 0.0
C2251 C 0.31759 0.64154 0.71903 0.0
C2252 C 0.30966 0.63269 0.73587 0.0
C2253 C 0.29544 0.61826 0.73378 0.0
C2254 C 0.32065 0.64351 0.68198 0.0
C2255 C 0.31481 0.63968 0.7561 0.0
H2256 H 0.37609 0.67343 0.73153 0.0
H2257 H 0.32438 0.70856 0.7278 0.0
H2258 H 0.35514 0.62873 0.73485 0.0
H2259 H 0.35675 0.63126 0.70898 0.0
H2260 H 0.37632 0.64004 0.7242 0.0
H2261 H 0.29404 0.6956 0.7188 0.0
H2262 H 0.29472 0.67356 0.70452 0.0
H2263 H 0.29058 0.67215 0.73021 0.0
H2264 H 0.29302 0.61565 0.68435 0.0
H2265 H 0.28823 0.61253 0.74663 0.0
H2266 H 0.3363 0.64718 0.68375 0.0
H2267 H 0.3127 0.65723 0.67878 0.0
H2268 H 0.31898 0.63365 0.66925 0.0
H2269 H 0.33085 0.64044 0.75792 0.0
H2270 H 0.30876 0.63005 0.76763 0.0
H2271 H 0.30895 0.6546 0.7583 0.0
C2272 C 0.8401 0.85885 0.24959 0.0
C2273 C 0.82133 0.85145 0.24612 0.0
C2274 C 0.85672 0.84725 0.24672 0.0
C2275 C 0.8545 0.82774 0.24045 0.0
C2276 C 0.83565 0.82044 0.23627 0.0
C2277 C 0.81932 0.83236 0.23915 0.0
C2278 C 0.87662 0.85569 0.25082 0.0
C2279 C 0.83264 0.79978 0.22933 0.0
C2280 C 0.89466 0.79487 0.22132 0.0
C2281 C 0.89746 0.78261 0.23742 0.0
C2282 C 0.88168 0.8107 0.22239 0.0
C2283 C 0.87149 0.81428 0.24 0.0
C2284 C 0.87586 0.8031 0.25678 0.0
C2285 C 0.8888 0.78739 0.25527 0.0
C2286 C 0.87753 0.8223 0.20417 0.0
C2287 C 0.86544 0.80646 0.27588 0.0
H2288 H 0.84184 0.87372 0.25465 0.0
H2289 H 0.80491 0.82653 0.23639 0.0
H2290 H 0.88317 0.84825 0.26359 0.0
H2291 H 0.88645 0.85314 0.23823 0.0
H2292 H 0.87601 0.87158 0.25384 0.0
H2293 H 0.81722 0.79677 0.2254 0.0
H2294 H 0.84188 0.79693 0.2164 0.0
H2295 H 0.83714 0.78944 0.24093 0.0
H2296 H 0.90113 0.79108 0.20741 0.0
H2297 H 0.89097 0.77787 0.26771 0.0
H2298 H 0.87489 0.83789 0.20759 0.0
H2299 H 0.86423 0.81647 0.19706 0.0
H2300 H 0.88973 0.82123 0.19357 0.0
H2301 H 0.8656 0.82215 0.27978 0.0
H2302 H 0.87207 0.79803 0.28801 0.0
H2303 H 0.84997 0.80198 0.2744 0.0
C2304 C 0.62299 0.33081 0.74595 0.0
C2305 C 0.63225 0.31258 0.747 0.0
C2306 C 0.63323 0.3475 0.74007 0.0
C2307 C 0.65323 0.34593 0.73541 0.0
C2308 C 0.66245 0.32744 0.73574 0.0
C2309 C 0.65183 0.31097 0.74152 0.0
C2310 C 0.6228 0.36687 0.73935 0.0
C2311 C 0.68374 0.32514 0.73071 0.0
C2312 C 0.68357 0.38488 0.71054 0.0
C2313 C 0.69401 0.39221 0.72649 0.0
C2314 C 0.66914 0.3706 0.71323 0.0
C2315 C 0.66514 0.36373 0.73229 0.0
C2316 C 0.67439 0.3725 0.74851 0.0
C2317 C 0.68872 0.38665 0.74538 0.0
C2318 C 0.65957 0.3617 0.69555 0.0
C2319 C 0.67053 0.36567 0.76908 0.0
H2320 H 0.60771 0.33206 0.7498 0.0
H2321 H 0.65903 0.29692 0.74228 0.0
H2322 H 0.62855 0.37658 0.75092 0.0
H2323 H 0.62553 0.37416 0.72516 0.0
H2324 H 0.60682 0.36531 0.74142 0.0
H2325 H 0.68828 0.30961 0.73001 0.0
H2326 H 0.68681 0.33206 0.71645 0.0
H2327 H 0.69277 0.33267 0.74181 0.0
H2328 H 0.68784 0.38896 0.69588 0.0
H2329 H 0.69684 0.39234 0.75769 0.0
H2330 H 0.64408 0.35807 0.69847 0.0
H2331 H 0.66723 0.34799 0.69167 0.0
H2332 H 0.66032 0.37163 0.68278 0.0
H2333 H 0.65465 0.36512 0.77199 0.0
H2334 H 0.67747 0.37528 0.78011 0.0
H2335 H 0.67636 0.35069 0.77095 0.0
C2336 C 0.11046 0.79235 0.76324 0.0
C2337 C 0.1055 0.78682 0.78223 0.0
C2338 C 0.12416 0.80704 0.75986 0.0
C2339 C 0.13314 0.81635 0.77592 0.0
C2340 C 0.12698 0.81196 0.79513 0.0
C2341 C 0.11312 0.79719 0.79808 0.0
C2342 C 0.13026 0.81133 0.73915 0.0
C2343 C 0.13619 0.82159 0.81263 0.0
C2344 C 0.18536 0.83081 0.76592 0.0
C2345 C 0.18341 0.85062 0.7614 0.0
C2346 C 0.16919 0.81971 0.77155 0.0
C2347 C 0.15059 0.82863 0.77249 0.0
C2348 C 0.14859 0.84874 0.76843 0.0
C2349 C 0.16504 0.85951 0.76284 0.0
C2350 C 0.17194 0.79831 0.77594 0.0
C2351 C 0.12903 0.85876 0.76962 0.0
H2352 H 0.1045 0.78431 0.751 0.0
H2353 H 0.10946 0.79277 0.8128 0.0
H2354 H 0.13053 0.82727 0.73648 0.0
H2355 H 0.14524 0.80572 0.73669 0.0
H2356 H 0.12038 0.80444 0.72832 0.0
H2357 H 0.12703 0.81992 0.82587 0.0
H2358 H 0.15055 0.81473 0.81555 0.0
H2359 H 0.13871 0.83734 0.80995 0.0
H2360 H 0.1995 0.82386 0.76471 0.0
H2361 H 0.16352 0.87491 0.75963 0.0
H2362 H 0.16398 0.78943 0.76501 0.0
H2363 H 0.16576 0.79479 0.79044 0.0
H2364 H 0.18753 0.79392 0.77579 0.0
H2365 H 0.11918 0.85285 0.75825 0.0
H2366 H 0.1302 0.87478 0.7676 0.0
H2367 H 0.12213 0.85581 0.78395 0.0
C2368 C 0.6332 0.66648 0.25726 0.0
C2369 C 0.64341 0.68414 0.25578 0.0
C2370 C 0.64252 0.64945 0.26372 0.0
C2371 C 0.66257 0.65006 0.26845 0.0
C2372 C 0.67275 0.66801 0.26762 0.0
C2373 C 0.66302 0.68485 0.26135 0.0
C2374 C 0.63107 0.63072 0.26505 0.0
C2375 C 0.69413 0.66929 0.27263 0.0
C2376 C 0.6911 0.6104 0.29445 0.0
C2377 C 0.70104 0.60201 0.2787 0.0
C2378 C 0.67735 0.62529 0.29136 0.0
C2379 C 0.67355 0.63173 0.2721 0.0
C2380 C 0.68228 0.62199 0.25614 0.0
C2381 C 0.69589 0.60722 0.25966 0.0
C2382 C 0.6683 0.6352 0.30879 0.0
C2383 C 0.67868 0.62837 0.23538 0.0
H2384 H 0.6179 0.66598 0.25337 0.0
H2385 H 0.67093 0.69848 0.26029 0.0
H2386 H 0.63629 0.62032 0.25381 0.0
H2387 H 0.6334 0.62376 0.27947 0.0
H2388 H 0.6152 0.6331 0.26289 0.0
H2389 H 0.69952 0.68456 0.27275 0.0
H2390 H 0.69682 0.66277 0.28716 0.0
H2391 H 0.70276 0.66084 0.26186 0.0
H2392 H 0.69527 0.60659 0.30921 0.0
H2393 H 0.70362 0.60071 0.2475 0.0
H2394 H 0.65306 0.63969 0.30576 0.0
H2395 H 0.67676 0.64851 0.31235 0.0
H2396 H 0.66846 0.62557 0.3218 0.0
H2397 H 0.66283 0.6296 0.23247 0.0
H2398 H 0.68514 0.61812 0.22463 0.0
H2399 H 0.68519 0.643 0.23305 0.0
C2400 C 0.90002 0.22181 0.74305 0.0
C2401 C 0.90705 0.22603 0.76173 0.0
C2402 C 0.88791 0.20572 0.73977 0.0
C2403 C 0.88272 0.19355 0.75559 0.0
C2404 C 0.89107 0.19681 0.7742 0.0
C2405 C 0.90323 0.21304 0.77704 0.0
C2406 C 0.87939 0.20274 0.7197 0.0
C2407 C 0.88591 0.1842 0.79147 0.0
C2408 C 0.8324 0.17117 0.75122 0.0
C2409 C 0.83669 0.15247 0.74414 0.0
C2410 C 0.84731 0.18441 0.75567 0.0
C2411 C 0.86701 0.17886 0.75294 0.0
C2412 C 0.87148 0.15985 0.74634 0.0
C2413 C 0.85627 0.1469 0.74193 0.0
C2414 C 0.84193 0.20451 0.76287 0.0
C2415 C 0.89233 0.15331 0.74369 0.0
H2416 H 0.90295 0.23187 0.73121 0.0
H2417 H 0.90842 0.21638 0.79159 0.0
H2418 H 0.88106 0.18733 0.71507 0.0
H2419 H 0.86356 0.20603 0.72003 0.0
H2420 H 0.88637 0.21226 0.70862 0.0
H2421 H 0.8966 0.1859 0.80352 0.0
H2422 H 0.87134 0.18849 0.79704 0.0
H2423 H 0.88519 0.1686 0.78728 0.0
H2424 H 0.81735 0.17561 0.75302 0.0
H2425 H 0.85977 0.13237 0.73679 0.0
H2426 H 0.8465 0.21559 0.75202 0.0
H2427 H 0.84974 0.20773 0.77664 0.0
H2428 H 0.82603 0.2061 0.76549 0.0
H2429 H 0.89938 0.16209 0.7321 0.0
H2430 H 0.8934 0.13765 0.73969 0.0
H2431 H 0.90068 0.15576 0.75732 0.0
C2432 C 0.36096 0.33067 0.24845 0.0
C2433 C 0.3554 0.3113 0.25209 0.0
C2434 C 0.34842 0.34625 0.25275 0.0
C2435 C 0.32988 0.34236 0.26081 0.0
C2436 C 0.32422 0.32289 0.26469 0.0
C2437 C 0.33702 0.3076 0.26021 0.0
C2438 C 0.35498 0.36685 0.24864 0.0
C2439 C 0.30455 0.31817 0.2734 0.0
C2440 C 0.29838 0.37964 0.28671 0.0
C2441 C 0.28416 0.38311 0.27247 0.0
C2442 C 0.31424 0.36729 0.28276 0.0
C2443 C 0.3158 0.35844 0.26417 0.0
C2444 C 0.30241 0.36338 0.24929 0.0
C2445 C 0.28673 0.37567 0.25365 0.0
C2446 C 0.32831 0.36245 0.29896 0.0
C2447 C 0.3036 0.35434 0.22926 0.0
H2448 H 0.37521 0.33374 0.24238 0.0
H2449 H 0.33259 0.29272 0.26307 0.0
H2450 H 0.3452 0.37368 0.23772 0.0
H2451 H 0.35404 0.37575 0.26211 0.0
H2452 H 0.37017 0.36746 0.24306 0.0
H2453 H 0.30263 0.30231 0.27607 0.0
H2454 H 0.30267 0.32599 0.28742 0.0
H2455 H 0.29281 0.3232 0.26348 0.0
H2456 H 0.29629 0.38521 0.30135 0.0
H2457 H 0.27571 0.3784 0.24266 0.0
H2458 H 0.34353 0.36225 0.2935 0.0
H2459 H 0.32501 0.3477 0.30471 0.0
H2460 H 0.32726 0.37302 0.31119 0.0
H2461 H 0.31864 0.35535 0.22342 0.0
H2462 H 0.29347 0.3614 0.21877 0.0
H2463 H 0.29983 0.33863 0.23022 0.0
C2464 C 0.2355 0.16505 0.13719 0.0
C2465 C 0.23559 0.18331 0.14646 0.0
C2466 C 0.2279 0.14853 0.14657 0.0
C2467 C 0.22061 0.1503 0.16575 0.0
C2468 C 0.21978 0.16888 0.17474 0.0
C2469 C 0.22721 0.18517 0.16495 0.0
C2470 C 0.2283 0.12911 0.13624 0.0
C2471 C 0.2119 0.17145 0.1951 0.0
C2472 C 0.19252 0.11293 0.19506 0.0
C2473 C 0.20724 0.10647 0.20766 0.0
C2474 C 0.19685 0.12604 0.17991 0.0
C2475 C 0.21627 0.13266 0.17752 0.0
C2476 C 0.23138 0.12435 0.18885 0.0
C2477 C 0.22665 0.11129 0.20376 0.0
C2478 C 0.18033 0.13422 0.16792 0.0
C2479 C 0.2523 0.13091 0.1868 0.0
H2480 H 0.24153 0.1636 0.12267 0.0
H2481 H 0.22708 0.19925 0.17212 0.0
H2482 H 0.23949 0.11958 0.14299 0.0
H2483 H 0.21404 0.12164 0.13778 0.0
H2484 H 0.23173 0.13067 0.1205 0.0
H2485 H 0.21095 0.18703 0.19945 0.0
H2486 H 0.19717 0.16494 0.19614 0.0
H2487 H 0.22147 0.16373 0.20561 0.0
H2488 H 0.17745 0.10936 0.19817 0.0
H2489 H 0.238 0.10622 0.21354 0.0
H2490 H 0.18511 0.13779 0.15289 0.0
H2491 H 0.17495 0.14783 0.17483 0.0
H2492 H 0.16795 0.12383 0.16718 0.0
H2493 H 0.2568 0.13088 0.17129 0.0
H2494 H 0.2625 0.12148 0.19514 0.0
H2495 H 0.25371 0.14607 0.19228 0.0
C2496 C 0.31132 0.73887 0.65537 0.0
C2497 C 0.31293 0.74119 0.63518 0.0
C2498 C 0.3277 0.73424 0.66666 0.0
C2499 C 0.34605 0.73179 0.6575 0.0
C2500 C 0.34754 0.73313 0.637 0.0
C2501 C 0.33097 0.73796 0.62608 0.0
C2502 C 0.32552 0.7328 0.68848 0.0
C2503 C 0.36674 0.73008 0.6267 0.0
C2504 C 0.38809 0.74563 0.69013 0.0
C2505 C 0.39355 0.72752 0.69775 0.0
C2506 C 0.37342 0.74707 0.67605 0.0
C2507 C 0.3639 0.72995 0.66957 0.0
C2508 C 0.37041 0.71146 0.6761 0.0
C2509 C 0.38535 0.71046 0.69005 0.0
C2510 C 0.36703 0.76706 0.66934 0.0
C2511 C 0.36052 0.69286 0.66974 0.0
H2512 H 0.29738 0.74129 0.6624 0.0
H2513 H 0.33215 0.73933 0.61039 0.0
H2514 H 0.33265 0.71936 0.69387 0.0
H2515 H 0.3329 0.74537 0.69549 0.0
H2516 H 0.31 0.73268 0.69311 0.0
H2517 H 0.36505 0.7297 0.61061 0.0
H2518 H 0.37691 0.74205 0.63053 0.0
H2519 H 0.37355 0.71622 0.63155 0.0
H2520 H 0.39442 0.75881 0.69615 0.0
H2521 H 0.38932 0.69642 0.69615 0.0
H2522 H 0.3522 0.77019 0.67503 0.0
H2523 H 0.36625 0.76762 0.65321 0.0
H2524 H 0.37703 0.77872 0.67444 0.0
H2525 H 0.34675 0.69104 0.67803 0.0
H2526 H 0.36979 0.67988 0.67255 0.0
H2527 H 0.35677 0.69332 0.65402 0.0
C2528 C 0.79748 0.8902 0.20285 0.0
C2529 C 0.78095 0.89633 0.21317 0.0
C2530 C 0.79573 0.87693 0.18733 0.0
C2531 C 0.77705 0.86981 0.18215 0.0
C2532 C 0.76026 0.87743 0.19139 0.0
C2533 C 0.76244 0.89061 0.2068 0.0
C2534 C 0.81398 0.86926 0.17774 0.0
C2535 C 0.74006 0.87029 0.18631 0.0
C2536 C 0.76763 0.8387 0.13736 0.0
C2537 C 0.76758 0.81988 0.14541 0.0
C2538 C 0.77142 0.85512 0.14897 0.0
C2539 C 0.77503 0.85264 0.16911 0.0
C2540 C 0.77529 0.83365 0.17724 0.0
C2541 C 0.77152 0.81752 0.16529 0.0
C2542 C 0.7714 0.8751 0.13977 0.0
C2543 C 0.77914 0.83037 0.19866 0.0
H2544 H 0.81184 0.89443 0.20789 0.0
H2545 H 0.74966 0.89539 0.2148 0.0
H2546 H 0.81755 0.85472 0.18387 0.0
H2547 H 0.81186 0.86747 0.16181 0.0
H2548 H 0.82663 0.87904 0.18028 0.0
H2549 H 0.72849 0.8793 0.19319 0.0
H2550 H 0.73785 0.87038 0.1703 0.0
H2551 H 0.73835 0.85502 0.19137 0.0
H2552 H 0.76491 0.84059 0.12191 0.0
H2553 H 0.77139 0.80304 0.1716 0.0
H2554 H 0.78526 0.88274 0.1431 0.0
H2555 H 0.75941 0.884 0.14598 0.0
H2556 H 0.76954 0.87445 0.1237 0.0
H2557 H 0.79306 0.83738 0.2029 0.0
H2558 H 0.77994 0.81465 0.20246 0.0
H2559 H 0.7674 0.83724 0.20742 0.0
C2560 C 0.59037 0.28452 0.71108 0.0
C2561 C 0.58668 0.26867 0.72345 0.0
C2562 C 0.60276 0.28244 0.69489 0.0
C2563 C 0.61157 0.26412 0.69112 0.0
C2564 C 0.60626 0.24772 0.70246 0.0
C2565 C 0.59383 0.25021 0.71845 0.0
C2566 C 0.60787 0.30026 0.68306 0.0
C2567 C 0.61526 0.22792 0.699 0.0
C2568 C 0.64259 0.25224 0.64675 0.0
C2569 C 0.66146 0.25468 0.65429 0.0
C2570 C 0.62607 0.25625 0.65821 0.0
C2571 C 0.62853 0.26255 0.67769 0.0
C2572 C 0.64754 0.26563 0.68511 0.0
C2573 C 0.66372 0.26168 0.67333 0.0
C2574 C 0.60603 0.25335 0.64965 0.0
C2575 C 0.65087 0.27235 0.70579 0.0
H2576 H 0.58499 0.29887 0.71496 0.0
H2577 H 0.59092 0.23792 0.72797 0.0
H2578 H 0.62189 0.30633 0.68835 0.0
H2579 H 0.60966 0.29657 0.66742 0.0
H2580 H 0.59656 0.31178 0.68449 0.0
H2581 H 0.60783 0.21628 0.70746 0.0
H2582 H 0.61471 0.22405 0.68332 0.0
H2583 H 0.63083 0.22826 0.70338 0.0
H2584 H 0.64072 0.24714 0.63192 0.0
H2585 H 0.67822 0.26357 0.67932 0.0
H2586 H 0.59687 0.26643 0.65228 0.0
H2587 H 0.59877 0.24085 0.65689 0.0
H2588 H 0.60656 0.25046 0.63372 0.0
H2589 H 0.64204 0.28554 0.70885 0.0
H2590 H 0.66642 0.27578 0.70873 0.0
H2591 H 0.64613 0.26079 0.71604 0.0
C2592 C 0.21009 0.88995 0.79886 0.0
C2593 C 0.22642 0.89503 0.78769 0.0
C2594 C 0.21171 0.87632 0.81407 0.0
C2595 C 0.23008 0.86777 0.8181 0.0
C2596 C 0.24686 0.8744 0.80811 0.0
C2597 C 0.24481 0.88798 0.79303 0.0
C2598 C 0.19346 0.86976 0.82444 0.0
C2599 C 0.26675 0.86576 0.81197 0.0
C2600 C 0.24165 0.83486 0.86094 0.0
C2601 C 0.24088 0.81638 0.85215 0.0
C2602 C 0.23695 0.85176 0.8504 0.0
C2603 C 0.23162 0.85012 0.83057 0.0
C2604 C 0.22988 0.83144 0.82194 0.0
C2605 C 0.23449 0.8148 0.83284 0.0
C2606 C 0.23837 0.87138 0.86024 0.0
C2607 C 0.22408 0.82903 0.80089 0.0
H2608 H 0.19579 0.8952 0.79464 0.0
H2609 H 0.25743 0.89195 0.78438 0.0
H2610 H 0.18796 0.85623 0.81749 0.0
H2611 H 0.19639 0.8665 0.84 0.0
H2612 H 0.18178 0.88096 0.82352 0.0
H2613 H 0.27853 0.87397 0.80449 0.0
H2614 H 0.26988 0.86553 0.82782 0.0
H2615 H 0.26707 0.85045 0.80672 0.0
H2616 H 0.24622 0.83617 0.876 0.0
H2617 H 0.2338 0.8006 0.82595 0.0
H2618 H 0.22509 0.88014 0.85729 0.0
H2619 H 0.25096 0.87955 0.85424 0.0
H2620 H 0.2403 0.87003 0.87626 0.0
H2621 H 0.21085 0.83774 0.79777 0.0
H2622 H 0.22115 0.81357 0.79703 0.0
H2623 H 0.23594 0.83455 0.79138 0.0
C2624 C 0.60252 0.71303 0.28999 0.0
C2625 C 0.59947 0.72941 0.27815 0.0
C2626 C 0.61467 0.71416 0.30645 0.0
C2627 C 0.6238 0.7321 0.31108 0.0
C2628 C 0.61915 0.74904 0.30024 0.0
C2629 C 0.60704 0.74747 0.2839 0.0
C2630 C 0.61916 0.69576 0.31764 0.0
C2631 C 0.62848 0.76848 0.30469 0.0
C2632 C 0.65333 0.74151 0.35697 0.0
C2633 C 0.67244 0.73911 0.35003 0.0
C2634 C 0.6372 0.7383 0.34476 0.0
C2635 C 0.64029 0.7328 0.32514 0.0
C2636 C 0.65952 0.72968 0.31829 0.0
C2637 C 0.67532 0.73288 0.3308 0.0
C2638 C 0.6169 0.74125 0.35269 0.0
C2639 C 0.66349 0.72368 0.2975 0.0
H2640 H 0.59687 0.69898 0.2855 0.0
H2641 H 0.60465 0.76014 0.27475 0.0
H2642 H 0.63312 0.68955 0.31233 0.0
H2643 H 0.62077 0.69877 0.33344 0.0
H2644 H 0.60762 0.6846 0.31557 0.0
H2645 H 0.62157 0.78059 0.29644 0.0
H2646 H 0.62752 0.77178 0.32048 0.0
H2647 H 0.64416 0.7679 0.30078 0.0
H2648 H 0.65095 0.74601 0.37193 0.0
H2649 H 0.69 0.73105 0.32526 0.0
H2650 H 0.60766 0.72842 0.34928 0.0
H2651 H 0.61009 0.7541 0.34561 0.0
H2652 H 0.61687 0.74359 0.36871 0.0
H2653 H 0.65457 0.71078 0.29366 0.0
H2654 H 0.67908 0.72008 0.29498 0.0
H2655 H 0.65927 0.73569 0.28752 0.0
C2656 C 0.81349 0.11381 0.7878 0.0
C2657 C 0.79858 0.10558 0.77654 0.0
C2658 C 0.80909 0.12728 0.80261 0.0
C2659 C 0.7894 0.13248 0.80608 0.0
C2660 C 0.77431 0.12287 0.79584 0.0
C2661 C 0.77911 0.1095 0.78123 0.0
C2662 C 0.82559 0.13708 0.81336 0.0
C2663 C 0.75312 0.12798 0.79906 0.0
C2664 C 0.77272 0.16271 0.84927 0.0
C2665 C 0.77126 0.18134 0.84091 0.0
C2666 C 0.77938 0.14675 0.83835 0.0
C2667 C 0.78446 0.14947 0.81856 0.0
C2668 C 0.78331 0.1683 0.81015 0.0
C2669 C 0.77671 0.184 0.82143 0.0
C2670 C 0.78085 0.12698 0.8479 0.0
C2671 C 0.78865 0.1718 0.78908 0.0
H2672 H 0.82857 0.11098 0.78403 0.0
H2673 H 0.76759 0.10311 0.7725 0.0
H2674 H 0.82807 0.15178 0.80709 0.0
H2675 H 0.82199 0.13899 0.82901 0.0
H2676 H 0.83937 0.12866 0.81213 0.0
H2677 H 0.74315 0.11781 0.79136 0.0
H2678 H 0.74955 0.12777 0.81482 0.0
H2679 H 0.75032 0.14297 0.79365 0.0
H2680 H 0.7689 0.16065 0.86446 0.0
H2681 H 0.77557 0.19835 0.81492 0.0
H2682 H 0.79571 0.12091 0.84585 0.0
H2683 H 0.77049 0.11673 0.84091 0.0
H2684 H 0.77761 0.12758 0.86375 0.0
H2685 H 0.80364 0.16647 0.78622 0.0
H2686 H 0.78789 0.18746 0.78505 0.0
H2687 H 0.77866 0.16348 0.77946 0.0
C2688 C 0.38694 0.29008 0.29848 0.0
C2689 C 0.39663 0.27475 0.28907 0.0
C2690 C 0.37214 0.28625 0.31212 0.0
C2691 C 0.36714 0.26666 0.31636 0.0
C2692 C 0.37775 0.25122 0.30774 0.0
C2693 C 0.39236 0.25547 0.29419 0.0
C2694 C 0.36111 0.30313 0.32095 0.0
C2695 C 0.37287 0.23014 0.31187 0.0
C2696 C 0.33752 0.25162 0.36036 0.0
C2697 C 0.31909 0.24853 0.35208 0.0
C2698 C 0.35309 0.25844 0.34908 0.0
C2699 C 0.35022 0.262 0.329 0.0
C2700 C 0.33152 0.25931 0.32064 0.0
C2701 C 0.31614 0.2526 0.33232 0.0
C2702 C 0.37269 0.26159 0.35857 0.0
C2703 C 0.32785 0.26327 0.29932 0.0
H2704 H 0.38995 0.305 0.29423 0.0
H2705 H 0.39981 0.24363 0.2868 0.0
H2706 H 0.34694 0.30483 0.31334 0.0
H2707 H 0.35798 0.30049 0.3366 0.0
H2708 H 0.36927 0.31704 0.31951 0.0
H2709 H 0.38319 0.2199 0.30471 0.0
H2710 H 0.37306 0.22735 0.32778 0.0
H2711 H 0.35793 0.22691 0.30656 0.0
H2712 H 0.33971 0.24891 0.37577 0.0
H2713 H 0.30185 0.25035 0.32597 0.0
H2714 H 0.37802 0.27654 0.35544 0.0
H2715 H 0.38348 0.25124 0.3524 0.0
H2716 H 0.37215 0.25952 0.37461 0.0
H2717 H 0.33137 0.27867 0.29599 0.0
H2718 H 0.31247 0.26048 0.29509 0.0
H2719 H 0.33751 0.254 0.29023 0.0
C2720 C 0.21525 0.25078 0.11079 0.0
C2721 C 0.21888 0.23213 0.10332 0.0
C2722 C 0.19846 0.25463 0.12174 0.0
C2723 C 0.18505 0.23939 0.12541 0.0
C2724 C 0.1879 0.2209 0.11664 0.0
C2725 C 0.20481 0.2175 0.10559 0.0
C2726 C 0.19591 0.27459 0.13069 0.0
C2727 C 0.17399 0.20425 0.12023 0.0
C2728 C 0.15929 0.24328 0.17413 0.0
C2729 C 0.1412 0.25117 0.16879 0.0
C2730 C 0.17339 0.23874 0.16005 0.0
C2731 C 0.16941 0.24234 0.14012 0.0
C2732 C 0.15108 0.24996 0.13456 0.0
C2733 C 0.13719 0.25431 0.14896 0.0
C2734 C 0.19272 0.23043 0.16657 0.0
C2735 C 0.14624 0.25373 0.11344 0.0
H2736 H 0.22614 0.2621 0.10904 0.0
H2737 H 0.20769 0.20298 0.10005 0.0
H2738 H 0.18091 0.28007 0.12816 0.0
H2739 H 0.19809 0.27363 0.14668 0.0
H2740 H 0.20643 0.28534 0.12471 0.0
H2741 H 0.17611 0.19224 0.10957 0.0
H2742 H 0.17646 0.19832 0.13507 0.0
H2743 H 0.15864 0.20928 0.11947 0.0
H2744 H 0.16259 0.24089 0.18938 0.0
H2745 H 0.12317 0.26018 0.14464 0.0
H2746 H 0.2046 0.2408 0.16299 0.0
H2747 H 0.1958 0.21666 0.15867 0.0
H2748 H 0.1931 0.22742 0.18247 0.0
H2749 H 0.15609 0.2651 0.10752 0.0
H2750 H 0.13093 0.25861 0.11141 0.0
H2751 H 0.14863 0.24032 0.10472 0.0
C2752 C 0.20455 0.78285 0.89127 0.0
C2753 C 0.21763 0.76767 0.89525 0.0
C2754 C 0.18889 0.77998 0.87838 0.0
C2755 C 0.18637 0.76151 0.86948 0.0
C2756 C 0.1985 0.74574 0.87493 0.0
C2757 C 0.21399 0.74903 0.88778 0.0
C2758 C 0.17618 0.79713 0.87304 0.0
C2759 C 0.19627 0.7258 0.86586 0.0
C2760 C 0.14169 0.74819 0.83975 0.0
C2761 C 0.14841 0.75117 0.82064 0.0
C2762 C 0.15363 0.75215 0.85588 0.0
C2763 C 0.17277 0.75909 0.85281 0.0
C2764 C 0.17952 0.76247 0.83359 0.0
C2765 C 0.16727 0.75845 0.81775 0.0
C2766 C 0.14584 0.74872 0.87617 0.0
C2767 C 0.19983 0.77 0.82972 0.0
H2768 H 0.20746 0.79734 0.89685 0.0
H2769 H 0.22413 0.73729 0.89089 0.0
H2770 H 0.1808 0.80293 0.85867 0.0
H2771 H 0.16069 0.79269 0.87177 0.0
H2772 H 0.17733 0.80907 0.88392 0.0
H2773 H 0.20542 0.71466 0.87325 0.0
H2774 H 0.18085 0.72101 0.86638 0.0
H2775 H 0.20062 0.72647 0.85029 0.0
H2776 H 0.12702 0.74287 0.84217 0.0
H2777 H 0.17258 0.76082 0.80307 0.0
H2778 H 0.14753 0.76211 0.88509 0.0
H2779 H 0.15436 0.73703 0.8834 0.0
H2780 H 0.13023 0.74445 0.87611 0.0
H2781 H 0.20231 0.78369 0.83794 0.0
H2782 H 0.20247 0.77288 0.81401 0.0
H2783 H 0.21073 0.7592 0.83489 0.0
C2784 C 0.69799 0.6984 0.38921 0.0
C2785 C 0.71397 0.70888 0.3964 0.0
C2786 C 0.70072 0.68336 0.37554 0.0
C2787 C 0.71984 0.67884 0.36912 0.0
C2788 C 0.73603 0.68815 0.37784 0.0
C2789 C 0.73287 0.70304 0.39141 0.0
C2790 C 0.68307 0.67365 0.36673 0.0
C2791 C 0.75665 0.68376 0.37148 0.0
C2792 C 0.73234 0.63509 0.33769 0.0
C2793 C 0.73326 0.64354 0.31906 0.0
C2794 C 0.72714 0.64619 0.35406 0.0
C2795 C 0.72302 0.66625 0.35178 0.0
C2796 C 0.72351 0.67476 0.33296 0.0
C2797 C 0.7286 0.66329 0.31682 0.0
C2798 C 0.72629 0.63653 0.3738 0.0
C2799 C 0.71911 0.69611 0.32991 0.0
H2800 H 0.68333 0.70306 0.39284 0.0
H2801 H 0.74521 0.71121 0.39697 0.0
H2802 H 0.67981 0.68046 0.35243 0.0
H2803 H 0.68575 0.65789 0.36419 0.0
H2804 H 0.67003 0.67531 0.37618 0.0
H2805 H 0.76763 0.69074 0.38112 0.0
H2806 H 0.75931 0.66781 0.37133 0.0
H2807 H 0.75889 0.68919 0.35641 0.0
H2808 H 0.73553 0.61971 0.33947 0.0
H2809 H 0.72928 0.66988 0.30248 0.0
H2810 H 0.71201 0.63947 0.3808 0.0
H2811 H 0.73771 0.64273 0.38342 0.0
H2812 H 0.72846 0.6205 0.3729 0.0
H2813 H 0.70471 0.69972 0.33628 0.0
H2814 H 0.71899 0.70022 0.31425 0.0
H2815 H 0.73018 0.70509 0.33755 0.0
C2816 C 0.80607 0.2398 0.87972 0.0
C2817 C 0.8004 0.22075 0.88425 0.0
C2818 C 0.8203 0.24337 0.86559 0.0
C2819 C 0.82902 0.22746 0.85575 0.0
C2820 C 0.8246 0.20812 0.86152 0.0
C2821 C 0.81032 0.20498 0.87586 0.0
C2822 C 0.82465 0.26422 0.85996 0.0
C2823 C 0.83355 0.19072 0.85144 0.0
C2824 C 0.84215 0.24012 0.80373 0.0
C2825 C 0.86172 0.24549 0.8057 0.0
C2826 C 0.83159 0.23315 0.81976 0.0
C2827 C 0.8409 0.23136 0.8381 0.0
C2828 C 0.86097 0.23562 0.83987 0.0
C2829 C 0.87112 0.24282 0.82367 0.0
C2830 C 0.81023 0.22857 0.81726 0.0
C2831 C 0.87152 0.2332 0.85902 0.0
H2832 H 0.79833 0.25196 0.88623 0.0
H2833 H 0.80574 0.19021 0.87914 0.0
H2834 H 0.8406 0.26678 0.85963 0.0
H2835 H 0.81895 0.2671 0.8451 0.0
H2836 H 0.81792 0.27486 0.87016 0.0
H2837 H 0.83293 0.17751 0.86078 0.0
H2838 H 0.82529 0.1876 0.83789 0.0
H2839 H 0.84894 0.19353 0.84735 0.0
H2840 H 0.8349 0.24201 0.78982 0.0
H2841 H 0.88642 0.24649 0.82512 0.0
H2842 H 0.80138 0.23936 0.82545 0.0
H2843 H 0.80698 0.21398 0.82335 0.0
H2844 H 0.80565 0.22884 0.80173 0.0
H2845 H 0.86625 0.24427 0.86956 0.0
H2846 H 0.88755 0.23486 0.8574 0.0
H2847 H 0.8684 0.21864 0.86534 0.0
C2848 C 0.30039 0.28668 0.39387 0.0
C2849 C 0.28432 0.27584 0.40032 0.0
C2850 C 0.29788 0.30231 0.38083 0.0
C2851 C 0.27889 0.30697 0.37412 0.0
C2852 C 0.26257 0.29726 0.38216 0.0
C2853 C 0.2655 0.2819 0.39526 0.0
C2854 C 0.31569 0.31244 0.37286 0.0
C2855 C 0.24207 0.30163 0.37539 0.0
C2856 C 0.26461 0.34972 0.342 0.0
C2857 C 0.26401 0.3408 0.32359 0.0
C2858 C 0.27082 0.33931 0.35852 0.0
C2859 C 0.27605 0.31944 0.35661 0.0
C2860 C 0.27629 0.3107 0.33791 0.0
C2861 C 0.27042 0.32151 0.32165 0.0
C2862 C 0.2712 0.34935 0.37808 0.0
C2863 C 0.28168 0.28956 0.33515 0.0
H2864 H 0.315 0.28198 0.39764 0.0
H2865 H 0.25306 0.27357 0.40033 0.0
H2866 H 0.32006 0.30543 0.35896 0.0
H2867 H 0.31271 0.32806 0.36987 0.0
H2868 H 0.32817 0.31132 0.38311 0.0
H2869 H 0.23092 0.29425 0.38451 0.0
H2870 H 0.23922 0.31754 0.37566 0.0
H2871 H 0.2403 0.29662 0.36011 0.0
H2872 H 0.26009 0.36479 0.34353 0.0
H2873 H 0.27013 0.31453 0.30747 0.0
H2874 H 0.28511 0.3462 0.38572 0.0
H2875 H 0.25922 0.34369 0.38734 0.0
H2876 H 0.26947 0.36539 0.37671 0.0
H2877 H 0.28359 0.28568 0.31954 0.0
H2878 H 0.27005 0.28023 0.34138 0.0
H2879 H 0.29539 0.28622 0.34298 0.0
C2880 C 0.80977 0.7634 0.10753 0.0
C2881 C 0.803 0.78197 0.1025 0.0
C2882 C 0.82343 0.7609 0.12244 0.0
C2883 C 0.83055 0.77745 0.1325 0.0
C2884 C 0.82539 0.79639 0.126 0.0
C2885 C 0.81159 0.79845 0.11099 0.0
C2886 C 0.82851 0.74044 0.12883 0.0
C2887 C 0.8328 0.81445 0.13612 0.0
C2888 C 0.83799 0.76698 0.18608 0.0
C2889 C 0.85784 0.76233 0.18669 0.0
C2890 C 0.82918 0.77298 0.16869 0.0
C2891 C 0.84053 0.77456 0.15151 0.0
C2892 C 0.86083 0.77101 0.15231 0.0
C2893 C 0.86923 0.76469 0.16987 0.0
C2894 C 0.80751 0.77668 0.16852 0.0
C2895 C 0.87351 0.77332 0.13449 0.0
H2896 H 0.80311 0.75068 0.10091 0.0
H2897 H 0.80622 0.81285 0.10726 0.0
H2898 H 0.84446 0.73886 0.13085 0.0
H2899 H 0.82146 0.73738 0.14307 0.0
H2900 H 0.82353 0.72931 0.11818 0.0
H2901 H 0.83246 0.82727 0.12622 0.0
H2902 H 0.8233 0.81776 0.14878 0.0
H2903 H 0.84789 0.81241 0.14157 0.0
H2904 H 0.82916 0.76522 0.19906 0.0
H2905 H 0.8847 0.76151 0.17043 0.0
H2906 H 0.80017 0.76534 0.15964 0.0
H2907 H 0.80442 0.791 0.16173 0.0
H2908 H 0.8011 0.77655 0.18339 0.0
H2909 H 0.87018 0.76159 0.12389 0.0
H2910 H 0.88927 0.77263 0.13812 0.0
H2911 H 0.87041 0.78744 0.12721 0.0
C2912 C 0.724 0.35789 0.66574 0.0
C2913 C 0.72385 0.34949 0.6844 0.0
C2914 C 0.71906 0.34691 0.64922 0.0
C2915 C 0.71408 0.32704 0.65143 0.0
C2916 C 0.7134 0.31864 0.67028 0.0
C2917 C 0.7183 0.32997 0.68653 0.0
C2918 C 0.7195 0.35644 0.62939 0.0
C2919 C 0.70804 0.29751 0.67327 0.0
C2920 C 0.68982 0.29443 0.61416 0.0
C2921 C 0.70575 0.28301 0.6084 0.0
C2922 C 0.69244 0.31015 0.62703 0.0
C2923 C 0.71138 0.31436 0.63411 0.0
C2924 C 0.72765 0.30415 0.62658 0.0
C2925 C 0.72461 0.28859 0.61378 0.0
C2926 C 0.67474 0.32087 0.6345 0.0
C2927 C 0.7481 0.3082 0.63364 0.0
H2928 H 0.72793 0.3731 0.66404 0.0
H2929 H 0.71823 0.32339 0.70089 0.0
H2930 H 0.73138 0.35 0.62052 0.0
H2931 H 0.70562 0.35367 0.62156 0.0
H2932 H 0.72185 0.37243 0.63033 0.0
H2933 H 0.70707 0.29353 0.68894 0.0
H2934 H 0.6938 0.29441 0.66631 0.0
H2935 H 0.71909 0.28802 0.66621 0.0
H2936 H 0.67519 0.29003 0.61014 0.0
H2937 H 0.73691 0.27974 0.60924 0.0
H2938 H 0.67789 0.33658 0.63667 0.0
H2939 H 0.67041 0.31468 0.6488 0.0
H2940 H 0.6622 0.31938 0.62438 0.0
H2941 H 0.75113 0.32408 0.63361 0.0
H2942 H 0.75927 0.30078 0.62455 0.0
H2943 H 0.74964 0.30297 0.64887 0.0
C2944 C 0.2552 0.64305 0.6531 0.0
C2945 C 0.25664 0.65239 0.67126 0.0
C2946 C 0.25926 0.65311 0.63574 0.0
C2947 C 0.26459 0.67301 0.63658 0.0
C2948 C 0.26652 0.68232 0.65491 0.0
C2949 C 0.26258 0.6719 0.67199 0.0
C2950 C 0.25762 0.64257 0.61651 0.0
C2951 C 0.27218 0.70351 0.6565 0.0
C2952 C 0.28728 0.70303 0.59615 0.0
C2953 C 0.27122 0.71428 0.59038 0.0
C2954 C 0.28516 0.68824 0.61018 0.0
C2955 C 0.26656 0.68474 0.61846 0.0
C2956 C 0.25006 0.69476 0.61116 0.0
C2957 C 0.25261 0.70938 0.59716 0.0
C2958 C 0.30311 0.6778 0.61743 0.0
C2959 C 0.22997 0.6915 0.61954 0.0
H2960 H 0.25099 0.62784 0.65245 0.0
H2961 H 0.26372 0.67921 0.68594 0.0
H2962 H 0.24552 0.64888 0.60783 0.0
H2963 H 0.2712 0.64451 0.60793 0.0
H2964 H 0.2549 0.62672 0.61842 0.0
H2965 H 0.27463 0.70813 0.67182 0.0
H2966 H 0.28569 0.70625 0.64809 0.0
H2967 H 0.26049 0.71272 0.65015 0.0
H2968 H 0.30174 0.70689 0.59109 0.0
H2969 H 0.24019 0.71807 0.59267 0.0
H2970 H 0.29993 0.6623 0.62079 0.0
H2971 H 0.30824 0.68485 0.63105 0.0
H2972 H 0.31514 0.67846 0.60662 0.0
H2973 H 0.22669 0.67571 0.62053 0.0
H2974 H 0.21844 0.69866 0.6107 0.0
H2975 H 0.22938 0.69754 0.63453 0.0
C2976 C 0.83797 0.85823 0.75906 0.0
C2977 C 0.81883 0.851 0.75913 0.0
C2978 C 0.85368 0.84658 0.76508 0.0
C2979 C 0.85019 0.82718 0.77111 0.0
C2980 C 0.83087 0.81991 0.77157 0.0
C2981 C 0.81544 0.8319 0.76556 0.0
C2982 C 0.87403 0.85493 0.76478 0.0
C2983 C 0.82654 0.7993 0.77798 0.0
C2984 C 0.88785 0.78755 0.76447 0.0
C2985 C 0.89307 0.78347 0.78378 0.0
C2986 C 0.87474 0.80255 0.76006 0.0
C2987 C 0.86675 0.81384 0.77535 0.0
C2988 C 0.87323 0.81087 0.79474 0.0
C2989 C 0.88637 0.79564 0.79876 0.0
C2990 C 0.86824 0.8052 0.73919 0.0
C2991 C 0.86517 0.82272 0.81144 0.0
H2992 H 0.84069 0.87309 0.75444 0.0
H2993 H 0.80071 0.8262 0.76565 0.0
H2994 H 0.88106 0.85294 0.77921 0.0
H2995 H 0.88304 0.84701 0.75393 0.0
H2996 H 0.87413 0.87069 0.76106 0.0
H2997 H 0.81065 0.79622 0.77847 0.0
H2998 H 0.83353 0.78883 0.76783 0.0
H2999 H 0.83274 0.79664 0.79266 0.0
H3000 H 0.89303 0.77813 0.75288 0.0
H3001 H 0.89019 0.79238 0.81374 0.0
H3002 H 0.86907 0.82076 0.73491 0.0
H3003 H 0.8528 0.80061 0.73775 0.0
H3004 H 0.87716 0.79649 0.72885 0.0
H3005 H 0.86392 0.83833 0.8074 0.0
H3006 H 0.8744 0.82145 0.82468 0.0
H3007 H 0.85034 0.81742 0.8151 0.0
C3008 C 0.67576 0.32011 0.2684 0.0
C3009 C 0.65667 0.32305 0.26176 0.0
C3010 C 0.68768 0.33591 0.27336 0.0
C3011 C 0.68032 0.35515 0.27173 0.0
C3012 C 0.66072 0.35817 0.26613 0.0
C3013 C 0.64914 0.34208 0.26105 0.0
C3014 C 0.70846 0.33202 0.27941 0.0
C3015 C 0.6522 0.37843 0.26489 0.0
C3016 C 0.71457 0.39225 0.2941 0.0
C3017 C 0.72614 0.39689 0.27791 0.0
C3018 C 0.69845 0.37978 0.29216 0.0
C3019 C 0.69395 0.37187 0.27363 0.0
C3020 C 0.70451 0.37805 0.25702 0.0
C3021 C 0.72044 0.39055 0.25938 0.0
C3022 C 0.68744 0.37374 0.31022 0.0
C3023 C 0.70022 0.37 0.23698 0.0
H3024 H 0.68169 0.30548 0.26907 0.0
H3025 H 0.63426 0.34444 0.2563 0.0
H3026 H 0.7185 0.33724 0.26786 0.0
H3027 H 0.71193 0.34013 0.29292 0.0
H3028 H 0.71131 0.31627 0.28196 0.0
H3029 H 0.63614 0.37817 0.26283 0.0
H3030 H 0.6556 0.38679 0.27831 0.0
H3031 H 0.65883 0.38635 0.25246 0.0
H3032 H 0.71901 0.39701 0.3085 0.0
H3033 H 0.72934 0.39422 0.24684 0.0
H3034 H 0.69338 0.3597 0.31564 0.0
H3035 H 0.67172 0.37162 0.30709 0.0
H3036 H 0.68901 0.38471 0.32204 0.0
H3037 H 0.70429 0.35435 0.2365 0.0
H3038 H 0.70842 0.37778 0.22539 0.0
H3039 H 0.68443 0.37104 0.2337 0.0
C3040 C 0.19284 0.15927 0.7648 0.0
C3041 C 0.19324 0.1395 0.75982 0.0
C3042 C 0.17521 0.16863 0.76909 0.0
C3043 C 0.15756 0.15792 0.76856 0.0
C3044 C 0.15801 0.13768 0.76469 0.0
C3045 C 0.17584 0.12872 0.76017 0.0
C3046 C 0.17541 0.19022 0.77318 0.0
C3047 C 0.13959 0.12567 0.76469 0.0
C3048 C 0.11523 0.18703 0.78891 0.0
C3049 C 0.10853 0.19619 0.77192 0.0
C3050 C 0.1303 0.17316 0.78803 0.0
C3051 C 0.13869 0.1685 0.76974 0.0
C3052 C 0.13054 0.17629 0.75246 0.0
C3053 C 0.1155 0.18999 0.75378 0.0
C3054 C 0.13841 0.16506 0.8068 0.0
C3055 C 0.13901 0.17172 0.73265 0.0
H3056 H 0.20623 0.16765 0.76462 0.0
H3057 H 0.17614 0.1133 0.75674 0.0
H3058 H 0.16869 0.19811 0.76076 0.0
H3059 H 0.16664 0.19342 0.78634 0.0
H3060 H 0.19039 0.19592 0.77543 0.0
H3061 H 0.14269 0.10978 0.76392 0.0
H3062 H 0.13094 0.12867 0.77802 0.0
H3063 H 0.13045 0.12973 0.752 0.0
H3064 H 0.11 0.19192 0.803 0.0
H3065 H 0.11026 0.19706 0.74065 0.0
H3066 H 0.15115 0.17391 0.81136 0.0
H3067 H 0.14337 0.14977 0.80496 0.0
H3068 H 0.12743 0.16564 0.81869 0.0
H3069 H 0.15366 0.17845 0.73139 0.0
H3070 H 0.12975 0.17736 0.72061 0.0
H3071 H 0.14081 0.15577 0.73075 0.0
C3072 C 0.3617 0.66164 0.2481 0.0
C3073 C 0.35235 0.67975 0.25008 0.0
C3074 C 0.35165 0.64415 0.2516 0.0
C3075 C 0.33179 0.64482 0.25709 0.0
C3076 C 0.3224 0.66307 0.25948 0.0
C3077 C 0.33277 0.68027 0.25587 0.0
C3078 C 0.36218 0.62497 0.24922 0.0
C3079 C 0.30126 0.66442 0.26546 0.0
C3080 C 0.29577 0.60508 0.24505 0.0
C3081 C 0.29169 0.5975 0.26355 0.0
C3082 C 0.30991 0.61956 0.24252 0.0
C3083 C 0.3202 0.62662 0.25893 0.0
C3084 C 0.31735 0.61781 0.27739 0.0
C3085 C 0.30308 0.60327 0.27949 0.0
C3086 C 0.31253 0.6285 0.22257 0.0
C3087 C 0.3281 0.62486 0.29523 0.0
H3088 H 0.37691 0.66111 0.24389 0.0
H3089 H 0.32538 0.69417 0.25728 0.0
H3090 H 0.36059 0.61605 0.26262 0.0
H3091 H 0.35557 0.61657 0.23708 0.0
H3092 H 0.37794 0.62696 0.24613 0.0
H3093 H 0.29646 0.67972 0.26779 0.0
H3094 H 0.29192 0.65776 0.25407 0.0
H3095 H 0.29886 0.65616 0.27913 0.0
H3096 H 0.287 0.60058 0.2327 0.0
H3097 H 0.29985 0.59755 0.29386 0.0
H3098 H 0.32823 0.62976 0.21892 0.0
H3099 H 0.3063 0.64343 0.22252 0.0
H3100 H 0.3052 0.61986 0.21101 0.0
H3101 H 0.34363 0.6278 0.29184 0.0
H3102 H 0.32732 0.61412 0.30733 0.0
H3103 H 0.32149 0.63872 0.30033 0.0
C3104 C 0.80688 0.16024 0.22638 0.0
C3105 C 0.80656 0.14093 0.23291 0.0
C3106 C 0.82418 0.16869 0.21963 0.0
C3107 C 0.84153 0.15747 0.21908 0.0
C3108 C 0.84103 0.13761 0.22457 0.0
C3109 C 0.82359 0.12961 0.23167 0.0
C3110 C 0.82401 0.18991 0.21389 0.0
C3111 C 0.85902 0.12498 0.22338 0.0
C3112 C 0.88124 0.18466 0.19204 0.0
C3113 C 0.8898 0.19485 0.20752 0.0
C3114 C 0.86655 0.17081 0.19559 0.0
C3115 C 0.86038 0.16734 0.21501 0.0
C3116 C 0.87059 0.17604 0.23067 0.0
C3117 C 0.88529 0.18958 0.2267 0.0
C3118 C 0.85639 0.1615 0.17846 0.0
C3119 C 0.86453 0.17287 0.2516 0.0
H3120 H 0.79373 0.16898 0.22715 0.0
H3121 H 0.82328 0.11449 0.23624 0.0
H3122 H 0.83316 0.19836 0.22422 0.0
H3123 H 0.83034 0.19161 0.19915 0.0
H3124 H 0.80909 0.19622 0.21386 0.0
H3125 H 0.85562 0.10931 0.22566 0.0
H3126 H 0.86615 0.12674 0.20897 0.0
H3127 H 0.86967 0.12959 0.23463 0.0
H3128 H 0.88459 0.18882 0.17716 0.0
H3129 H 0.89198 0.19746 0.23866 0.0
H3130 H 0.84351 0.17041 0.17441 0.0
H3131 H 0.85126 0.14658 0.18202 0.0
H3132 H 0.86616 0.16076 0.16557 0.0
H3133 H 0.85026 0.18006 0.25418 0.0
H3134 H 0.87527 0.17896 0.26206 0.0
H3135 H 0.86269 0.15712 0.25471 0.0
C3136 C 0.28628 0.39812 0.70799 0.0
C3137 C 0.27357 0.40248 0.72338 0.0
C3138 C 0.302 0.38525 0.71077 0.0
C3139 C 0.30491 0.37665 0.72933 0.0
C3140 C 0.29327 0.38263 0.74528 0.0
C3141 C 0.27776 0.39551 0.74209 0.0
C3142 C 0.31422 0.37945 0.69343 0.0
C3143 C 0.29585 0.37389 0.76531 0.0
C3144 C 0.32083 0.32394 0.73297 0.0
C3145 C 0.33979 0.32567 0.74037 0.0
C3146 C 0.30969 0.34047 0.72855 0.0
C3147 C 0.31767 0.35926 0.73157 0.0
C3148 C 0.33705 0.36116 0.73834 0.0
C3149 C 0.34787 0.34432 0.74278 0.0
C3150 C 0.28909 0.33776 0.72129 0.0
C3151 C 0.3462 0.38095 0.74121 0.0
H3152 H 0.28302 0.40338 0.69345 0.0
H3153 H 0.26797 0.39895 0.75401 0.0
H3154 H 0.32969 0.37734 0.69763 0.0
H3155 H 0.30877 0.36542 0.6875 0.0
H3156 H 0.31343 0.39053 0.68164 0.0
H3157 H 0.28735 0.38185 0.77656 0.0
H3158 H 0.29089 0.35849 0.76512 0.0
H3159 H 0.31143 0.37392 0.76961 0.0
H3160 H 0.31446 0.30963 0.73101 0.0
H3161 H 0.36265 0.34579 0.74816 0.0
H3162 H 0.28682 0.3462 0.7077 0.0
H3163 H 0.27867 0.34338 0.73231 0.0
H3164 H 0.28559 0.32222 0.71833 0.0
H3165 H 0.34432 0.38997 0.72792 0.0
H3166 H 0.36199 0.37993 0.74465 0.0
H3167 H 0.33879 0.38868 0.75333 0.0
C3168 C 0.16682 0.86206 0.25171 0.0
C3169 C 0.18587 0.85524 0.24849 0.0
C3170 C 0.1507 0.8497 0.24961 0.0
C3171 C 0.15369 0.83005 0.2442 0.0
C3172 C 0.17279 0.8232 0.24035 0.0
C3173 C 0.18867 0.83586 0.24263 0.0
C3174 C 0.13052 0.85755 0.25357 0.0
C3175 C 0.17649 0.80237 0.23425 0.0
C3176 C 0.11896 0.79058 0.2605 0.0
C3177 C 0.10954 0.78586 0.24304 0.0
C3178 C 0.13266 0.80565 0.26128 0.0
C3179 C 0.13709 0.81619 0.24411 0.0
C3180 C 0.12664 0.81239 0.22672 0.0
C3181 C 0.11286 0.79726 0.22641 0.0
C3182 C 0.14338 0.80937 0.28014 0.0
C3183 C 0.13098 0.82326 0.2081 0.0
H3184 H 0.16444 0.87708 0.25599 0.0
H3185 H 0.2033 0.83047 0.24011 0.0
H3186 H 0.12079 0.85448 0.24102 0.0
H3187 H 0.12422 0.85012 0.26647 0.0
H3188 H 0.13055 0.87351 0.25632 0.0
H3189 H 0.19206 0.79964 0.23073 0.0
H3190 H 0.17203 0.79232 0.24611 0.0
H3191 H 0.16758 0.79877 0.22127 0.0
H3192 H 0.11641 0.78171 0.27334 0.0
H3193 H 0.10582 0.79344 0.21279 0.0
H3194 H 0.14304 0.82511 0.28381 0.0
H3195 H 0.15889 0.8051 0.27848 0.0
H3196 H 0.13707 0.80104 0.29251 0.0
H3197 H 0.13281 0.83908 0.21092 0.0
H3198 H 0.1193 0.82123 0.19708 0.0
H3199 H 0.14485 0.81777 0.20183 0.0
C3200 C 0.70345 0.59459 0.70398 0.0
C3201 C 0.71485 0.5894 0.72012 0.0
C3202 C 0.68745 0.60723 0.70616 0.0
C3203 C 0.68291 0.61469 0.72487 0.0
C3204 C 0.69317 0.6078 0.74139 0.0
C3205 C 0.70899 0.59517 0.73879 0.0
C3206 C 0.67673 0.614 0.68819 0.0
C3207 C 0.68881 0.61531 0.76162 0.0
C3208 C 0.66503 0.6666 0.731 0.0
C3209 C 0.64573 0.66371 0.73696 0.0
C3210 C 0.67698 0.65076 0.72614 0.0
C3211 C 0.66946 0.63155 0.72714 0.0
C3212 C 0.64972 0.62859 0.73221 0.0
C3213 C 0.63811 0.64469 0.73718 0.0
C3214 C 0.69791 0.65459 0.72064 0.0
C3215 C 0.64104 0.60838 0.73287 0.0
H3216 H 0.70805 0.59032 0.68948 0.0
H3217 H 0.71782 0.59113 0.75126 0.0
H3218 H 0.661 0.61619 0.6912 0.0
H3219 H 0.68286 0.62816 0.68333 0.0
H3220 H 0.67834 0.60343 0.67603 0.0
H3221 H 0.69664 0.60693 0.77305 0.0
H3222 H 0.69329 0.63082 0.76267 0.0
H3223 H 0.67295 0.61463 0.76466 0.0
H3224 H 0.67099 0.68122 0.73061 0.0
H3225 H 0.62307 0.64233 0.74139 0.0
H3226 H 0.7014 0.64707 0.70679 0.0
H3227 H 0.70767 0.64862 0.73208 0.0
H3228 H 0.70104 0.67038 0.71888 0.0
H3229 H 0.64436 0.60041 0.71918 0.0
H3230 H 0.62499 0.60871 0.73497 0.0
H3231 H 0.64765 0.6 0.74502 0.0
C3232 C 0.75493 0.83814 0.86105 0.0
C3233 C 0.75496 0.81956 0.85247 0.0
C3234 C 0.76108 0.85458 0.85054 0.0
C3235 C 0.76714 0.85238 0.83096 0.0
C3236 C 0.76782 0.83357 0.82248 0.0
C3237 C 0.76171 0.8174 0.83333 0.0
C3238 C 0.76067 0.87435 0.86019 0.0
C3239 C 0.77429 0.83057 0.80165 0.0
C3240 C 0.75911 0.8909 0.79268 0.0
C3241 C 0.77828 0.89629 0.78824 0.0
C3242 C 0.75515 0.87768 0.80768 0.0
C3243 C 0.77078 0.86972 0.81853 0.0
C3244 C 0.79001 0.87654 0.81534 0.0
C3245 C 0.79356 0.88982 0.80016 0.0
C3246 C 0.73443 0.87085 0.81059 0.0
C3247 C 0.80707 0.86853 0.8267 0.0
H3248 H 0.75004 0.83984 0.87598 0.0
H3249 H 0.7617 0.80312 0.82659 0.0
H3250 H 0.77482 0.88189 0.85808 0.0
H3251 H 0.74926 0.88354 0.85333 0.0
H3252 H 0.75761 0.87334 0.87606 0.0
H3253 H 0.77545 0.81489 0.79775 0.0
H3254 H 0.76373 0.83763 0.79162 0.0
H3255 H 0.78866 0.83753 0.79925 0.0
H3256 H 0.74729 0.89598 0.78348 0.0
H3257 H 0.80843 0.89383 0.79665 0.0
H3258 H 0.73053 0.87098 0.82626 0.0
H3259 H 0.73303 0.8556 0.80535 0.0
H3260 H 0.72378 0.88002 0.80253 0.0
H3261 H 0.80314 0.86607 0.84219 0.0
H3262 H 0.81983 0.87847 0.82603 0.0
H3263 H 0.81149 0.8543 0.8204 0.0
C3264 C 0.61758 0.25746 0.28844 0.0
C3265 C 0.6112 0.27655 0.28504 0.0
C3266 C 0.63019 0.25321 0.30389 0.0
C3267 C 0.63652 0.26847 0.31623 0.0
C3268 C 0.62868 0.28745 0.31395 0.0
C3269 C 0.61602 0.29129 0.29832 0.0
C3270 C 0.63811 0.23274 0.30586 0.0
C3271 C 0.63497 0.30408 0.32691 0.0
C3272 C 0.66524 0.25304 0.36088 0.0
C3273 C 0.68453 0.25503 0.35429 0.0
C3274 C 0.64942 0.25794 0.34889 0.0
C3275 C 0.65296 0.2649 0.32983 0.0
C3276 C 0.67237 0.26725 0.32319 0.0
C3277 C 0.68791 0.26225 0.33548 0.0
C3278 C 0.62892 0.25553 0.35653 0.0
C3279 C 0.67674 0.27475 0.30296 0.0
H3280 H 0.61382 0.24606 0.27815 0.0
H3281 H 0.61127 0.30612 0.29559 0.0
H3282 H 0.65368 0.23256 0.30149 0.0
H3283 H 0.63732 0.22778 0.32122 0.0
H3284 H 0.63007 0.22218 0.29659 0.0
H3285 H 0.62489 0.31672 0.32578 0.0
H3286 H 0.63577 0.29937 0.34235 0.0
H3287 H 0.64974 0.30898 0.32252 0.0
H3288 H 0.66244 0.24773 0.37549 0.0
H3289 H 0.70272 0.26385 0.33026 0.0
H3290 H 0.6211 0.2444 0.3478 0.0
H3291 H 0.62076 0.26942 0.35502 0.0
H3292 H 0.62865 0.251 0.37207 0.0
H3293 H 0.67096 0.26442 0.29195 0.0
H3294 H 0.69261 0.2767 0.3004 0.0
H3295 H 0.66937 0.28895 0.30061 0.0
C3296 C 0.26059 0.10994 0.79041 0.0
C3297 C 0.24273 0.10125 0.78579 0.0
C3298 C 0.26203 0.12351 0.80557 0.0
C3299 C 0.24514 0.12848 0.81632 0.0
C3300 C 0.22743 0.11846 0.81284 0.0
C3301 C 0.22644 0.10484 0.79758 0.0
C3302 C 0.28122 0.13377 0.80887 0.0
C3303 C 0.20911 0.12331 0.82402 0.0
C3304 C 0.25375 0.16013 0.86079 0.0
C3305 C 0.2504 0.17888 0.85324 0.0
C3306 C 0.2514 0.14349 0.84916 0.0
C3307 C 0.24569 0.14565 0.82949 0.0
C3308 C 0.24188 0.16447 0.82189 0.0
C3309 C 0.24432 0.18086 0.83385 0.0
C3310 C 0.25523 0.12362 0.85783 0.0
C3311 C 0.23559 0.16736 0.801 0.0
H3312 H 0.27318 0.10715 0.78125 0.0
H3313 H 0.21253 0.09834 0.79387 0.0
H3314 H 0.27999 0.14915 0.80398 0.0
H3315 H 0.28493 0.13395 0.82459 0.0
H3316 H 0.29336 0.12676 0.80076 0.0
H3317 H 0.19796 0.11167 0.82256 0.0
H3318 H 0.2123 0.12558 0.8397 0.0
H3319 H 0.20282 0.13706 0.81826 0.0
H3320 H 0.25815 0.15841 0.87587 0.0
H3321 H 0.2417 0.19525 0.8279 0.0
H3322 H 0.26785 0.11674 0.85041 0.0
H3323 H 0.24246 0.11398 0.85547 0.0
H3324 H 0.25834 0.12434 0.8737 0.0
H3325 H 0.24736 0.16245 0.79104 0.0
H3326 H 0.23209 0.18282 0.79768 0.0
H3327 H 0.22255 0.15836 0.79785 0.0
C3328 C 0.32722 0.73466 0.35425 0.0
C3329 C 0.30943 0.73475 0.34414 0.0
C3330 C 0.34474 0.73024 0.34469 0.0
C3331 C 0.34445 0.72613 0.32452 0.0
C3332 C 0.32642 0.72525 0.31448 0.0
C3333 C 0.30912 0.72953 0.32442 0.0
C3334 C 0.3636 0.73063 0.356 0.0
C3335 C 0.32548 0.72074 0.29298 0.0
C3336 C 0.38473 0.74161 0.29071 0.0
C3337 C 0.39189 0.72358 0.2844 0.0
C3338 C 0.37028 0.7427 0.30502 0.0
C3339 C 0.3629 0.72529 0.31325 0.0
C3340 C 0.37155 0.70715 0.30842 0.0
C3341 C 0.38605 0.7065 0.29395 0.0
C3342 C 0.36154 0.76236 0.30979 0.0
C3343 C 0.36431 0.68827 0.31704 0.0
H3344 H 0.32749 0.73824 0.36964 0.0
H3345 H 0.29541 0.72945 0.31657 0.0
H3346 H 0.37244 0.71748 0.35269 0.0
H3347 H 0.3723 0.74353 0.35158 0.0
H3348 H 0.3611 0.73138 0.37198 0.0
H3349 H 0.31028 0.71869 0.28778 0.0
H3350 H 0.3322 0.73284 0.28461 0.0
H3351 H 0.33389 0.70733 0.28976 0.0
H3352 H 0.38932 0.7548 0.2833 0.0
H3353 H 0.39143 0.6925 0.28895 0.0
H3354 H 0.36038 0.76435 0.32578 0.0
H3355 H 0.34658 0.76322 0.30368 0.0
H3356 H 0.37025 0.77457 0.30369 0.0
H3357 H 0.35981 0.69017 0.33246 0.0
H3358 H 0.37562 0.6767 0.31625 0.0
H3359 H 0.35142 0.6832 0.30869 0.0
C3360 C 0.7419 0.15566 0.1322 0.0
C3361 C 0.74458 0.1751 0.13806 0.0
C3362 C 0.7453 0.14017 0.14511 0.0
C3363 C 0.75143 0.14422 0.16436 0.0
C3364 C 0.75471 0.16375 0.17021 0.0
C3365 C 0.75115 0.17895 0.15702 0.0
C3366 C 0.74196 0.11951 0.13831 0.0
C3367 C 0.76151 0.16862 0.19057 0.0
C3368 C 0.73846 0.11134 0.20652 0.0
C3369 C 0.75656 0.10315 0.21111 0.0
C3370 C 0.73634 0.12382 0.19053 0.0
C3371 C 0.75282 0.12829 0.17895 0.0
C3372 C 0.77084 0.1189 0.18265 0.0
C3373 C 0.77248 0.10628 0.1987 0.0
C3374 C 0.71684 0.13341 0.18699 0.0
C3375 C 0.78878 0.12336 0.17074 0.0
H3376 H 0.73711 0.15251 0.11748 0.0
H3377 H 0.7532 0.1939 0.1617 0.0
H3378 H 0.75507 0.11049 0.14123 0.0
H3379 H 0.7297 0.11297 0.14656 0.0
H3380 H 0.73854 0.11874 0.1225 0.0
H3381 H 0.76455 0.18442 0.19243 0.0
H3382 H 0.75021 0.16425 0.20128 0.0
H3383 H 0.77494 0.16034 0.19408 0.0
H3384 H 0.72618 0.10894 0.21618 0.0
H3385 H 0.78659 0.10021 0.20241 0.0
H3386 H 0.71264 0.13213 0.17144 0.0
H3387 H 0.71786 0.14918 0.19046 0.0
H3388 H 0.7051 0.12693 0.19607 0.0
H3389 H 0.7852 0.12443 0.15501 0.0
H3390 H 0.80027 0.11211 0.17275 0.0
H3391 H 0.79484 0.13762 0.17536 0.0
C3392 C 0.37499 0.26206 0.70419 0.0
C3393 C 0.38085 0.28084 0.70955 0.0
C3394 C 0.36129 0.25922 0.6894 0.0
C3395 C 0.35325 0.27562 0.67981 0.0
C3396 C 0.36031 0.29455 0.68406 0.0
C3397 C 0.37418 0.29695 0.69893 0.0
C3398 C 0.35426 0.23877 0.68519 0.0
C3399 C 0.35211 0.31239 0.67412 0.0
C3400 C 0.32319 0.26336 0.6353 0.0
C3401 C 0.30432 0.26258 0.64317 0.0
C3402 C 0.33921 0.2685 0.64685 0.0
C3403 C 0.33628 0.27284 0.66675 0.0
C3404 C 0.31719 0.27269 0.67465 0.0
C3405 C 0.30141 0.2675 0.66275 0.0
C3406 C 0.3593 0.26885 0.63787 0.0
C3407 C 0.31351 0.27745 0.69581 0.0
H3408 H 0.38017 0.24963 0.7125 0.0
H3409 H 0.37847 0.31152 0.7033 0.0
H3410 H 0.33894 0.23723 0.69015 0.0
H3411 H 0.35453 0.23584 0.6693 0.0
H3412 H 0.36323 0.22754 0.69267 0.0
H3413 H 0.36178 0.32524 0.67595 0.0
H3414 H 0.34987 0.30973 0.65833 0.0
H3415 H 0.33772 0.31597 0.68058 0.0
H3416 H 0.32549 0.25993 0.62005 0.0
H3417 H 0.28686 0.26693 0.66886 0.0
H3418 H 0.36838 0.25714 0.64437 0.0
H3419 H 0.36659 0.28292 0.64108 0.0
H3420 H 0.3589 0.26672 0.62183 0.0
H3421 H 0.32052 0.26628 0.70519 0.0
H3422 H 0.29771 0.27802 0.69934 0.0
H3423 H 0.32012 0.29171 0.69952 0.0
C3424 C 0.24382 0.88873 0.20742 0.0
C3425 C 0.22526 0.89627 0.21139 0.0
C3426 C 0.2464 0.87381 0.19375 0.0
C3427 C 0.23001 0.86636 0.18372 0.0
C3428 C 0.21144 0.87493 0.18658 0.0
C3429 C 0.20927 0.88986 0.20043 0.0
C3430 C 0.26646 0.86509 0.19112 0.0
C3431 C 0.19364 0.86746 0.17604 0.0
C3432 C 0.24109 0.83323 0.14088 0.0
C3433 C 0.23947 0.81469 0.14942 0.0
C3434 C 0.23747 0.8502 0.1517 0.0
C3435 C 0.23222 0.84859 0.17155 0.0
C3436 C 0.23028 0.82993 0.18019 0.0
C3437 C 0.23398 0.81321 0.16903 0.0
C3438 C 0.23943 0.86984 0.14195 0.0
C3439 C 0.22454 0.82764 0.20131 0.0
H3440 H 0.25621 0.8937 0.21588 0.0
H3441 H 0.19485 0.89552 0.20361 0.0
H3442 H 0.26658 0.84999 0.19692 0.0
H3443 H 0.27026 0.86426 0.17543 0.0
H3444 H 0.27789 0.87361 0.19877 0.0
H3445 H 0.18112 0.87767 0.17733 0.0
H3446 H 0.19683 0.86506 0.16037 0.0
H3447 H 0.18925 0.85323 0.18234 0.0
H3448 H 0.24506 0.83454 0.12565 0.0
H3449 H 0.23276 0.79897 0.17575 0.0
H3450 H 0.25133 0.87826 0.14894 0.0
H3451 H 0.2258 0.87835 0.14384 0.0
H3452 H 0.24261 0.86856 0.12613 0.0
H3453 H 0.23554 0.83474 0.2108 0.0
H3454 H 0.22317 0.8121 0.20568 0.0
H3455 H 0.2104 0.83501 0.20397 0.0
C3456 C 0.66136 0.73705 0.63806 0.0
C3457 C 0.67993 0.73465 0.64631 0.0
C3458 C 0.64449 0.7316 0.64833 0.0
C3459 C 0.64626 0.7237 0.6673 0.0
C3460 C 0.66498 0.72099 0.67556 0.0
C3461 C 0.68153 0.72656 0.66501 0.0
C3462 C 0.62477 0.73444 0.63899 0.0
C3463 C 0.66755 0.71259 0.69577 0.0
C3464 C 0.60836 0.72943 0.70664 0.0
C3465 C 0.60208 0.71016 0.70907 0.0
C3466 C 0.62162 0.73438 0.69196 0.0
C3467 C 0.62872 0.71967 0.67937 0.0
C3468 C 0.62097 0.70054 0.68056 0.0
C3469 C 0.60768 0.69598 0.69548 0.0
C3470 C 0.62945 0.75494 0.69124 0.0
C3471 C 0.62803 0.6845 0.66727 0.0
H3472 H 0.66 0.74306 0.62352 0.0
H3473 H 0.69578 0.7248 0.67158 0.0
H3474 H 0.61646 0.72057 0.63927 0.0
H3475 H 0.61624 0.7453 0.64739 0.0
H3476 H 0.62593 0.73953 0.62366 0.0
H3477 H 0.68314 0.71049 0.69965 0.0
H3478 H 0.66081 0.72245 0.70667 0.0
H3479 H 0.66006 0.69831 0.69687 0.0
H3480 H 0.60396 0.74042 0.71712 0.0
H3481 H 0.60296 0.68102 0.69742 0.0
H3482 H 0.6298 0.76042 0.67604 0.0
H3483 H 0.64464 0.75507 0.69681 0.0
H3484 H 0.62063 0.76514 0.70022 0.0
H3485 H 0.62974 0.68988 0.65212 0.0
H3486 H 0.6179 0.67186 0.66725 0.0
H3487 H 0.64251 0.67934 0.67231 0.0
C3488 C 0.82803 0.76165 0.82077 0.0
C3489 C 0.84692 0.75474 0.82428 0.0
C3490 C 0.81567 0.7667 0.83624 0.0
C3491 C 0.82237 0.76482 0.85569 0.0
C3492 C 0.84167 0.75861 0.85931 0.0
C3493 C 0.85369 0.75355 0.84358 0.0
C3494 C 0.79522 0.77347 0.83178 0.0
C3495 C 0.84946 0.75691 0.87982 0.0
C3496 C 0.78932 0.78911 0.8928 0.0
C3497 C 0.77696 0.77357 0.89754 0.0
C3498 C 0.80513 0.78632 0.88006 0.0
C3499 C 0.80852 0.76756 0.87209 0.0
C3500 C 0.79714 0.75154 0.87836 0.0
C3501 C 0.78151 0.75476 0.89105 0.0
C3502 C 0.81699 0.80376 0.87386 0.0
C3503 C 0.80031 0.73129 0.8703 0.0
H3504 H 0.82272 0.76272 0.80593 0.0
H3505 H 0.86842 0.7486 0.84644 0.0
H3506 H 0.78459 0.76256 0.83722 0.0
H3507 H 0.79222 0.78738 0.83942 0.0
H3508 H 0.79275 0.77564 0.81593 0.0
H3509 H 0.8653 0.75357 0.8801 0.0
H3510 H 0.84688 0.77068 0.88792 0.0
H3511 H 0.84161 0.74517 0.88767 0.0
H3512 H 0.78568 0.80373 0.89758 0.0
H3513 H 0.77191 0.74276 0.89473 0.0
H3514 H 0.81162 0.80905 0.85955 0.0
H3515 H 0.8326 0.79989 0.87215 0.0
H3516 H 0.81572 0.81591 0.88448 0.0
H3517 H 0.79621 0.73104 0.85466 0.0
H3518 H 0.79149 0.72016 0.87808 0.0
H3519 H 0.81589 0.72713 0.8713 0.0
C3520 C 0.85303 0.22653 0.14788 0.0
C3521 C 0.84507 0.2267 0.16672 0.0
C3522 C 0.84146 0.22214 0.1316 0.0
C3523 C 0.82145 0.21803 0.13423 0.0
C3524 C 0.81343 0.21782 0.15326 0.0
C3525 C 0.82534 0.22218 0.16926 0.0
C3526 C 0.85057 0.22212 0.11157 0.0
C3527 C 0.79215 0.21343 0.15669 0.0
C3528 C 0.78356 0.22929 0.09601 0.0
C3529 C 0.77768 0.21056 0.09043 0.0
C3530 C 0.79877 0.23198 0.10933 0.0
C3531 C 0.80839 0.21549 0.11715 0.0
C3532 C 0.8037 0.19661 0.11022 0.0
C3533 C 0.78833 0.19435 0.09687 0.0
C3534 C 0.8033 0.25237 0.1163 0.0
C3535 C 0.81374 0.17868 0.11809 0.0
H3536 H 0.86837 0.22972 0.14585 0.0
H3537 H 0.81907 0.22242 0.18376 0.0
H3538 H 0.84743 0.20816 0.10404 0.0
H3539 H 0.84413 0.23396 0.10263 0.0
H3540 H 0.86662 0.22423 0.11213 0.0
H3541 H 0.78303 0.22488 0.1498 0.0
H3542 H 0.78826 0.19934 0.14982 0.0
H3543 H 0.78846 0.21267 0.17244 0.0
H3544 H 0.77535 0.24184 0.09098 0.0
H3545 H 0.78372 0.17982 0.09271 0.0
H3546 H 0.81924 0.25503 0.11609 0.0
H3547 H 0.7983 0.25405 0.13159 0.0
H3548 H 0.79604 0.26368 0.10727 0.0
H3549 H 0.82962 0.1812 0.11979 0.0
H3550 H 0.81148 0.16584 0.10848 0.0
H3551 H 0.80775 0.17517 0.13269 0.0
C3552 C 0.24751 0.36551 0.65935 0.0
C3553 C 0.24783 0.35722 0.67806 0.0
C3554 C 0.25251 0.35449 0.64286 0.0
C3555 C 0.25775 0.33468 0.64512 0.0
C3556 C 0.25875 0.32643 0.66402 0.0
C3557 C 0.25377 0.33779 0.68025 0.0
C3558 C 0.25175 0.36388 0.62298 0.0
C3559 C 0.26449 0.30541 0.66705 0.0
C3560 C 0.24713 0.29734 0.6061 0.0
C3561 C 0.26589 0.29269 0.59956 0.0
C3562 C 0.24418 0.31184 0.62014 0.0
C3563 C 0.26044 0.32199 0.62777 0.0
C3564 C 0.27927 0.31846 0.62007 0.0
C3565 C 0.28179 0.30381 0.60598 0.0
C3566 C 0.22386 0.31516 0.62793 0.0
C3567 C 0.29699 0.32897 0.62778 0.0
H3568 H 0.24325 0.38062 0.65755 0.0
H3569 H 0.25405 0.33127 0.69464 0.0
H3570 H 0.26565 0.36135 0.61509 0.0
H3571 H 0.23996 0.35715 0.61421 0.0
H3572 H 0.24906 0.37984 0.62383 0.0
H3573 H 0.26592 0.30159 0.68273 0.0
H3574 H 0.25342 0.29571 0.66035 0.0
H3575 H 0.27858 0.30245 0.65974 0.0
H3576 H 0.23483 0.28874 0.60114 0.0
H3577 H 0.29637 0.30012 0.60114 0.0
H3578 H 0.2203 0.33094 0.62798 0.0
H3579 H 0.22304 0.30995 0.64322 0.0
H3580 H 0.21263 0.30737 0.61925 0.0
H3581 H 0.29374 0.34456 0.63064 0.0
H3582 H 0.30944 0.32801 0.61747 0.0
H3583 H 0.30154 0.32222 0.64175 0.0
C3584 C 0.19843 0.75426 0.11827 0.0
C3585 C 0.20303 0.77278 0.11104 0.0
C3586 C 0.18492 0.75195 0.13335 0.0
C3587 C 0.17568 0.76859 0.1413 0.0
C3588 C 0.17892 0.78716 0.13285 0.0
C3589 C 0.19265 0.78906 0.11775 0.0
C3590 C 0.18194 0.73188 0.14192 0.0
C3591 C 0.16921 0.80526 0.14075 0.0
C3592 C 0.1357 0.75636 0.17743 0.0
C3593 C 0.14592 0.757 0.19514 0.0
C3594 C 0.14486 0.76124 0.1598 0.0
C3595 C 0.16475 0.7666 0.15989 0.0
C3596 C 0.17492 0.768 0.1778 0.0
C3597 C 0.16538 0.7632 0.1952 0.0
C3598 C 0.13342 0.76019 0.14105 0.0
C3599 C 0.19611 0.77386 0.17853 0.0
H3600 H 0.20644 0.74167 0.11303 0.0
H3601 H 0.19632 0.80344 0.11232 0.0
H3602 H 0.18843 0.73133 0.15672 0.0
H3603 H 0.16618 0.72863 0.1434 0.0
H3604 H 0.18877 0.72028 0.13291 0.0
H3605 H 0.16913 0.8172 0.12981 0.0
H3606 H 0.154 0.80224 0.14532 0.0
H3607 H 0.17734 0.81044 0.15372 0.0
H3608 H 0.12052 0.75197 0.17731 0.0
H3609 H 0.17336 0.76383 0.20881 0.0
H3610 H 0.13896 0.74799 0.13198 0.0
H3611 H 0.13538 0.7738 0.13253 0.0
H3612 H 0.11761 0.7579 0.14365 0.0
H3613 H 0.20512 0.76267 0.17107 0.0
H3614 H 0.20152 0.77557 0.1937 0.0
H3615 H 0.19825 0.78782 0.17071 0.0
C3616 C 0.73856 0.62914 0.65909 0.0
C3617 C 0.73842 0.63732 0.67783 0.0
C3618 C 0.73374 0.64039 0.64269 0.0
C3619 C 0.72897 0.66029 0.64516 0.0
C3620 C 0.72799 0.66836 0.66413 0.0
C3621 C 0.73275 0.65678 0.68023 0.0
C3622 C 0.73438 0.63119 0.62273 0.0
C3623 C 0.72279 0.6895 0.6674 0.0
C3624 C 0.74224 0.69925 0.60898 0.0
C3625 C 0.72382 0.70548 0.60283 0.0
C3626 C 0.74424 0.68331 0.62152 0.0
C3627 C 0.72735 0.67344 0.62806 0.0
C3628 C 0.70887 0.67844 0.62031 0.0
C3629 C 0.70732 0.69449 0.60767 0.0
C3630 C 0.76424 0.6784 0.62932 0.0
C3631 C 0.69053 0.66819 0.62678 0.0
H3632 H 0.7426 0.61397 0.65721 0.0
H3633 H 0.7327 0.66319 0.69467 0.0
H3634 H 0.72099 0.63485 0.61443 0.0
H3635 H 0.74695 0.63707 0.61444 0.0
H3636 H 0.73584 0.61507 0.62349 0.0
H3637 H 0.73446 0.69895 0.66139 0.0
H3638 H 0.70911 0.69313 0.65961 0.0
H3639 H 0.72086 0.69303 0.68309 0.0
H3640 H 0.75499 0.70776 0.60514 0.0
H3641 H 0.69302 0.69941 0.60306 0.0
H3642 H 0.76684 0.66245 0.62876 0.0
H3643 H 0.76521 0.68297 0.64481 0.0
H3644 H 0.776 0.68585 0.62105 0.0
H3645 H 0.69315 0.65241 0.62915 0.0
H3646 H 0.67863 0.66999 0.61594 0.0
H3647 H 0.68552 0.67456 0.64077 0.0
C3648 C 0.16993 0.22687 0.80982 0.0
C3649 C 0.14979 0.22982 0.81106 0.0
C3650 C 0.18093 0.22266 0.82651 0.0
C3651 C 0.17153 0.22151 0.84486 0.0
C3652 C 0.15112 0.22404 0.84613 0.0
C3653 C 0.14049 0.22826 0.8292 0.0
C3654 C 0.20267 0.21985 0.82457 0.0
C3655 C 0.14059 0.22256 0.86538 0.0
C3656 C 0.20251 0.19924 0.88491 0.0
C3657 C 0.21103 0.21601 0.89285 0.0
C3658 C 0.1887 0.20074 0.86986 0.0
C3659 C 0.18337 0.21942 0.86283 0.0
C3660 C 0.19084 0.23635 0.87192 0.0
C3661 C 0.20459 0.23442 0.88683 0.0
C3662 C 0.18104 0.18234 0.86054 0.0
C3663 C 0.1855 0.25654 0.8649 0.0
H3664 H 0.17714 0.22813 0.79582 0.0
H3665 H 0.12483 0.23019 0.83016 0.0
H3666 H 0.21042 0.23148 0.8327 0.0
H3667 H 0.207 0.2057 0.83107 0.0
H3668 H 0.20757 0.22014 0.80914 0.0
H3669 H 0.12452 0.22355 0.86368 0.0
H3670 H 0.14421 0.20855 0.87262 0.0
H3671 H 0.14546 0.23444 0.87521 0.0
H3672 H 0.2077 0.18498 0.88934 0.0
H3673 H 0.21124 0.24737 0.89299 0.0
H3674 H 0.18893 0.17968 0.84668 0.0
H3675 H 0.16531 0.18371 0.85705 0.0
H3676 H 0.18319 0.16944 0.8701 0.0
H3677 H 0.19152 0.25884 0.85007 0.0
H3678 H 0.19125 0.26813 0.87463 0.0
H3679 H 0.16944 0.25813 0.86391 0.0
C3680 C 0.27946 0.69498 0.37934 0.0
C3681 C 0.26302 0.70659 0.38286 0.0
C3682 C 0.27872 0.67971 0.36574 0.0
C3683 C 0.26108 0.676 0.35568 0.0
C3684 C 0.24406 0.68662 0.3605 0.0
C3685 C 0.24526 0.70183 0.37403 0.0
C3686 C 0.29718 0.66871 0.361 0.0
C3687 C 0.22493 0.68301 0.35022 0.0
C3688 C 0.26183 0.65785 0.30358 0.0
C3689 C 0.25603 0.6384 0.30584 0.0
C3690 C 0.26431 0.67002 0.31979 0.0
C3691 C 0.26072 0.6626 0.33872 0.0
C3692 C 0.25538 0.64286 0.34117 0.0
C3693 C 0.25308 0.63099 0.3247 0.0
C3694 C 0.27029 0.69097 0.31663 0.0
C3695 C 0.25169 0.63442 0.36116 0.0
H3696 H 0.29328 0.69876 0.38598 0.0
H3697 H 0.23255 0.71083 0.37679 0.0
H3698 H 0.29422 0.65294 0.35904 0.0
H3699 H 0.3033 0.6743 0.34711 0.0
H3700 H 0.30839 0.67053 0.37254 0.0
H3701 H 0.21268 0.69108 0.35709 0.0
H3702 H 0.22614 0.68771 0.3348 0.0
H3703 H 0.2214 0.66723 0.35023 0.0
H3704 H 0.26408 0.66372 0.2891 0.0
H3705 H 0.24883 0.6159 0.32665 0.0
H3706 H 0.28316 0.69449 0.32574 0.0
H3707 H 0.25829 0.70081 0.32119 0.0
H3708 H 0.27392 0.69407 0.30116 0.0
H3709 H 0.26432 0.63728 0.37084 0.0
H3710 H 0.24902 0.61845 0.36068 0.0
H3711 H 0.23882 0.64161 0.36781 0.0
C3712 C 0.74626 0.33072 0.31462 0.0
C3713 C 0.75204 0.35014 0.31708 0.0
C3714 C 0.73958 0.31968 0.33048 0.0
C3715 C 0.73865 0.3283 0.34922 0.0
C3716 C 0.74392 0.34807 0.35167 0.0
C3717 C 0.75068 0.35873 0.33559 0.0
C3718 C 0.73386 0.29868 0.32725 0.0
C3719 C 0.74265 0.35787 0.37133 0.0
C3720 C 0.71034 0.29929 0.387 0.0
C3721 C 0.72539 0.28845 0.39558 0.0
C3722 C 0.71443 0.3131 0.37242 0.0
C3723 C 0.73399 0.31606 0.36647 0.0
C3724 C 0.74926 0.30609 0.37612 0.0
C3725 C 0.74475 0.29242 0.39055 0.0
C3726 C 0.69771 0.32342 0.3625 0.0
C3727 C 0.77031 0.3088 0.37024 0.0
H3728 H 0.74722 0.32406 0.30033 0.0
H3729 H 0.75473 0.37389 0.33749 0.0
H3730 H 0.74343 0.28896 0.33595 0.0
H3731 H 0.7187 0.29631 0.33228 0.0
H3732 H 0.73485 0.29434 0.31168 0.0
H3733 H 0.74587 0.37372 0.37051 0.0
H3734 H 0.72787 0.35589 0.37758 0.0
H3735 H 0.75315 0.351 0.38153 0.0
H3736 H 0.69531 0.29599 0.39062 0.0
H3737 H 0.75637 0.28396 0.39715 0.0
H3738 H 0.69459 0.31617 0.34839 0.0
H3739 H 0.7014 0.33886 0.35938 0.0
H3740 H 0.68424 0.32297 0.37146 0.0
H3741 H 0.77247 0.30326 0.3552 0.0
H3742 H 0.7805 0.30098 0.3801 0.0
H3743 H 0.77416 0.3245 0.37022 0.0
loop_
_geom_bond_atom_site_label_1
_geom_bond_atom_site_label_2
_geom_bond_distance
_geom_bond_site_symmetry_2
_ccdc_geom_bond_type
Co0 O1 2.216 . S
Co0 O2 2.091 . S
Co0 O4 2.004 . S
Co0 O10 2.021 . S
Co0 O12 2.137 . S
Co0 O13 2.244 . S
O1 Co0 2.216 . S
O1 C8 1.247 . S
O2 Co0 2.091 . S
O2 C8 1.261 . S
C3 O12 1.247 . S
C3 O13 1.272 . S
O4 Co0 2.004 . S
O4 C9 1.259 . S
Co5 O6 2.061 . S
Co5 O11 2.052 . S
Co5 O13 2.135 . S
O6 Co5 2.061 . S
O6 C9 1.235 . S
C7 O10 1.238 . S
C7 O11 1.241 . S
C8 O1 1.247 . S
C8 O2 1.261 . S
C9 O4 1.259 . S
C9 O6 1.235 . S
O10 Co0 2.021 . S
O10 C7 1.238 . S
O11 Co5 2.052 . S
O11 C7 1.241 . S
O12 Co0 2.137 . S
O12 C3 1.247 . S
O13 Co0 2.244 . S
O13 C3 1.272 . S
O13 Co5 2.135 . S
Co14 O15 2.216 . S
Co14 O16 2.091 . S
Co14 O18 2.004 . S
Co14 O24 2.021 . S
Co14 O26 2.137 . S
Co14 O27 2.244 . S
O15 Co14 2.216 . S
O15 C22 1.247 . S
O16 Co14 2.091 . S
O16 C22 1.261 . S
C17 O26 1.247 . S
C17 O27 1.272 . S
O18 Co14 2.004 . S
O18 C23 1.259 . S
Co19 O20 2.061 . S
Co19 O25 2.052 . S
Co19 O27 2.135 . S
O20 Co19 2.061 . S
O20 C23 1.235 . S
C21 O24 1.238 . S
C21 O25 1.241 . S
C22 O15 1.247 . S
C22 O16 1.261 . S
C23 O18 1.259 . S
C23 O20 1.235 . S
O24 Co14 2.021 . S
O24 C21 1.238 . S
O25 Co19 2.052 . S
O25 C21 1.241 . S
O26 Co14 2.137 . S
O26 C17 1.247 . S
O27 Co14 2.244 . S
O27 C17 1.272 . S
O27 Co19 2.135 . S
Co28 O29 2.216 . S
Co28 O30 2.091 . S
Co28 O32 2.004 . S
Co28 O38 2.021 . S
Co28 O40 2.137 . S
Co28 O41 2.244 . S
O29 Co28 2.216 . S
O29 C36 1.247 . S
O30 Co28 2.091 . S
O30 C36 1.261 . S
C31 O40 1.247 . S
C31 O41 1.272 . S
O32 Co28 2.004 . S
O32 C37 1.259 . S
Co33 O34 2.061 . S
Co33 O39 2.052 . S
Co33 O41 2.135 . S
O34 Co33 2.061 . S
O34 C37 1.235 . S
C35 O38 1.238 . S
C35 O39 1.241 . S
C36 O29 1.247 . S
C36 O30 1.261 . S
C37 O32 1.259 . S
C37 O34 1.235 . S
O38 Co28 2.021 . S
O38 C35 1.238 . S
O39 Co33 2.052 . S
O39 C35 1.241 . S
O40 Co28 2.137 . S
O40 C31 1.247 . S
O41 Co28 2.244 . S
O41 C31 1.272 . S
O41 Co33 2.135 . S
Co42 O43 2.216 . S
Co42 O44 2.091 . S
Co42 O46 2.004 . S
Co42 O52 2.021 . S
Co42 O54 2.137 . S
Co42 O55 2.244 . S
O43 Co42 2.216 . S
O43 C50 1.247 . S
O44 Co42 2.091 . S
O44 C50 1.261 . S
C45 O54 1.247 . S
C45 O55 1.272 . S
O46 Co42 2.004 . S
O46 C51 1.259 . S
Co47 O48 2.061 . S
Co47 O53 2.052 . S
Co47 O55 2.135 . S
O48 Co47 2.061 . S
O48 C51 1.235 . S
C49 O52 1.238 . S
C49 O53 1.241 . S
C50 O43 1.247 . S
C50 O44 1.261 . S
C51 O46 1.259 . S
C51 O48 1.235 . S
O52 Co42 2.021 . S
O52 C49 1.238 . S
O53 Co47 2.052 . S
O53 C49 1.241 . S
O54 Co42 2.137 . S
O54 C45 1.247 . S
O55 Co42 2.244 . S
O55 C45 1.272 . S
O55 Co47 2.135 . S
Co56 O57 2.216 . S
Co56 O58 2.091 . S
Co56 O60 2.004 . S
Co56 O66 2.021 . S
Co56 O68 2.137 . S
Co56 O69 2.244 . S
O57 Co56 2.216 . S
O57 C64 1.247 . S
O58 Co56 2.091 . S
O58 C64 1.261 . S
C59 O68 1.247 . S
C59 O69 1.272 . S
O60 Co56 2.004 . S
O60 C65 1.259 . S
Co61 O62 2.061 . S
Co61 O67 2.052 . S
Co61 O69 2.135 . S
O62 Co61 2.061 . S
O62 C65 1.235 . S
C63 O66 1.238 . S
C63 O67 1.241 . S
C64 O57 1.247 . S
C64 O58 1.261 . S
C65 O60 1.259 . S
C65 O62 1.235 . S
O66 Co56 2.021 . S
O66 C63 1.238 . S
O67 Co61 2.052 . S
O67 C63 1.241 . S
O68 Co56 2.137 . S
O68 C59 1.247 . S
O69 Co56 2.244 . S
O69 C59 1.272 . S
O69 Co61 2.135 . S
Co70 O71 2.216 . S
Co70 O72 2.091 . S
Co70 O74 2.004 . S
Co70 O80 2.021 . S
Co70 O82 2.137 . S
Co70 O83 2.244 . S
O71 Co70 2.216 . S
O71 C78 1.247 . S
O72 Co70 2.091 . S
O72 C78 1.261 . S
C73 O82 1.247 . S
C73 O83 1.272 . S
O74 Co70 2.004 . S
O74 C79 1.259 . S
Co75 O76 2.061 . S
Co75 O81 2.052 . S
Co75 O83 2.135 . S
O76 Co75 2.061 . S
O76 C79 1.235 . S
C77 O80 1.238 . S
C77 O81 1.241 . S
C78 O71 1.247 . S
C78 O72 1.261 . S
C79 O74 1.259 . S
C79 O76 1.235 . S
O80 Co70 2.021 . S
O80 C77 1.238 . S
O81 Co75 2.052 . S
O81 C77 1.241 . S
O82 Co70 2.137 . S
O82 C73 1.247 . S
O83 Co70 2.244 . S
O83 C73 1.272 . S
O83 Co75 2.135 . S
Co84 O85 2.216 . S
Co84 O86 2.091 . S
Co84 O88 2.004 . S
Co84 O94 2.021 . S
Co84 O96 2.137 . S
Co84 O97 2.244 . S
O85 Co84 2.216 . S
O85 C92 1.247 . S
O86 Co84 2.091 . S
O86 C92 1.261 . S
C87 O96 1.247 . S
C87 O97 1.272 . S
O88 Co84 2.004 . S
O88 C93 1.259 . S
Co89 O90 2.061 . S
Co89 O95 2.052 . S
Co89 O97 2.135 . S
O90 Co89 2.061 . S
O90 C93 1.235 . S
C91 O94 1.238 . S
C91 O95 1.241 . S
C92 O85 1.247 . S
C92 O86 1.261 . S
C93 O88 1.259 . S
C93 O90 1.235 . S
O94 Co84 2.021 . S
O94 C91 1.238 . S
O95 Co89 2.052 . S
O95 C91 1.241 . S
O96 Co84 2.137 . S
O96 C87 1.247 . S
O97 Co84 2.244 . S
O97 C87 1.272 . S
O97 Co89 2.135 . S
Co98 O99 2.216 . S
Co98 O100 2.091 . S
Co98 O102 2.004 . S
Co98 O108 2.021 . S
Co98 O110 2.137 . S
Co98 O111 2.244 . S
O99 Co98 2.216 . S
O99 C106 1.247 . S
O100 Co98 2.091 . S
O100 C106 1.261 . S
C101 O110 1.247 . S
C101 O111 1.272 . S
O102 Co98 2.004 . S
O102 C107 1.259 . S
Co103 O104 2.061 . S
Co103 O109 2.052 . S
Co103 O111 2.135 . S
O104 Co103 2.061 . S
O104 C107 1.235 . S
C105 O108 1.238 . S
C105 O109 1.241 . S
C106 O99 1.247 . S
C106 O100 1.261 . S
C107 O102 1.259 . S
C107 O104 1.235 . S
O108 Co98 2.021 . S
O108 C105 1.238 . S
O109 Co103 2.052 . S
O109 C105 1.241 . S
O110 Co98 2.137 . S
O110 C101 1.247 . S
O111 Co98 2.244 . S
O111 C101 1.272 . S
O111 Co103 2.135 . S
Co112 O113 2.216 . S
Co112 O114 2.091 . S
Co112 O116 2.004 . S
Co112 O122 2.021 . S
Co112 O124 2.137 . S
Co112 O125 2.244 . S
O113 Co112 2.216 . S
O113 C120 1.247 . S
O114 Co112 2.091 . S
O114 C120 1.261 . S
C115 O124 1.247 . S
C115 O125 1.272 . S
O116 Co112 2.004 . S
O116 C121 1.259 . S
Co117 O118 2.061 . S
Co117 O123 2.052 . S
Co117 O125 2.135 . S
O118 Co117 2.061 . S
O118 C121 1.235 . S
C119 O122 1.238 . S
C119 O123 1.241 . S
C120 O113 1.247 . S
C120 O114 1.261 . S
C121 O116 1.259 . S
C121 O118 1.235 . S
O122 Co112 2.021 . S
O122 C119 1.238 . S
O123 Co117 2.052 . S
O123 C119 1.241 . S
O124 Co112 2.137 . S
O124 C115 1.247 . S
O125 Co112 2.244 . S
O125 C115 1.272 . S
O125 Co117 2.135 . S
Co126 O127 2.216 . S
Co126 O128 2.091 . S
Co126 O130 2.004 . S
Co126 O136 2.021 . S
Co126 O138 2.137 . S
Co126 O139 2.244 . S
O127 Co126 2.216 . S
O127 C134 1.247 . S
O128 Co126 2.091 . S
O128 C134 1.261 . S
C129 O138 1.247 . S
C129 O139 1.272 . S
O130 Co126 2.004 . S
O130 C135 1.259 . S
Co131 O132 2.061 . S
Co131 O137 2.052 . S
Co131 O139 2.135 . S
O132 Co131 2.061 . S
O132 C135 1.235 . S
C133 O136 1.238 . S
C133 O137 1.241 . S
C134 O127 1.247 . S
C134 O128 1.261 . S
C135 O130 1.259 . S
C135 O132 1.235 . S
O136 Co126 2.021 . S
O136 C133 1.238 . S
O137 Co131 2.052 . S
O137 C133 1.241 . S
O138 Co126 2.137 . S
O138 C129 1.247 . S
O139 Co126 2.244 . S
O139 C129 1.272 . S
O139 Co131 2.135 . S
Co140 O141 2.216 . S
Co140 O142 2.091 . S
Co140 O144 2.004 . S
Co140 O150 2.021 . S
Co140 O152 2.137 . S
Co140 O153 2.244 . S
O141 Co140 2.216 . S
O141 C148 1.247 . S
O142 Co140 2.091 . S
O142 C148 1.261 . S
C143 O152 1.247 . S
C143 O153 1.272 . S
O144 Co140 2.004 . S
O144 C149 1.259 . S
Co145 O146 2.061 . S
Co145 O151 2.052 . S
Co145 O153 2.135 . S
O146 Co145 2.061 . S
O146 C149 1.235 . S
C147 O150 1.238 . S
C147 O151 1.241 . S
C148 O141 1.247 . S
C148 O142 1.261 . S
C149 O144 1.259 . S
C149 O146 1.235 . S
O150 Co140 2.021 . S
O150 C147 1.238 . S
O151 Co145 2.052 . S
O151 C147 1.241 . S
O152 Co140 2.137 . S
O152 C143 1.247 . S
O153 Co140 2.244 . S
O153 C143 1.272 . S
O153 Co145 2.135 . S
Co154 O155 2.216 . S
Co154 O156 2.091 . S
Co154 O158 2.004 . S
Co154 O164 2.021 . S
Co154 O166 2.137 . S
Co154 O167 2.244 . S
O155 Co154 2.216 . S
O155 C162 1.247 . S
O156 Co154 2.091 . S
O156 C162 1.261 . S
C157 O166 1.247 . S
C157 O167 1.272 . S
O158 Co154 2.004 . S
O158 C163 1.259 . S
Co159 O160 2.061 . S
Co159 O165 2.052 . S
Co159 O167 2.135 . S
O160 Co159 2.061 . S
O160 C163 1.235 . S
C161 O164 1.238 . S
C161 O165 1.241 . S
C162 O155 1.247 . S
C162 O156 1.261 . S
C163 O158 1.259 . S
C163 O160 1.235 . S
O164 Co154 2.021 . S
O164 C161 1.238 . S
O165 Co159 2.052 . S
O165 C161 1.241 . S
O166 Co154 2.137 . S
O166 C157 1.247 . S
O167 Co154 2.244 . S
O167 C157 1.272 . S
O167 Co159 2.135 . S
Co168 O169 2.216 . S
Co168 O170 2.091 . S
Co168 O172 2.004 . S
Co168 O178 2.021 . S
Co168 O180 2.137 . S
Co168 O181 2.244 . S
O169 Co168 2.216 . S
O169 C176 1.247 . S
O170 Co168 2.091 . S
O170 C176 1.261 . S
C171 O180 1.247 . S
C171 O181 1.272 . S
O172 Co168 2.004 . S
O172 C177 1.259 . S
Co173 O174 2.061 . S
Co173 O179 2.052 . S
Co173 O181 2.135 . S
O174 Co173 2.061 . S
O174 C177 1.235 . S
C175 O178 1.238 . S
C175 O179 1.241 . S
C176 O169 1.247 . S
C176 O170 1.261 . S
C177 O172 1.259 . S
C177 O174 1.235 . S
O178 Co168 2.021 . S
O178 C175 1.238 . S
O179 Co173 2.052 . S
O179 C175 1.241 . S
O180 Co168 2.137 . S
O180 C171 1.247 . S
O181 Co168 2.244 . S
O181 C171 1.272 . S
O181 Co173 2.135 . S
Co182 O183 2.216 . S
Co182 O184 2.091 . S
Co182 O186 2.004 . S
Co182 O192 2.021 . S
Co182 O194 2.137 . S
Co182 O195 2.244 . S
O183 Co182 2.216 . S
O183 C190 1.247 . S
O184 Co182 2.091 . S
O184 C190 1.261 . S
C185 O194 1.247 . S
C185 O195 1.272 . S
O186 Co182 2.004 . S
O186 C191 1.259 . S
Co187 O188 2.061 . S
Co187 O193 2.052 . S
Co187 O195 2.135 . S
O188 Co187 2.061 . S
O188 C191 1.235 . S
C189 O192 1.238 . S
C189 O193 1.241 . S
C190 O183 1.247 . S
C190 O184 1.261 . S
C191 O186 1.259 . S
C191 O188 1.235 . S
O192 Co182 2.021 . S
O192 C189 1.238 . S
O193 Co187 2.052 . S
O193 C189 1.241 . S
O194 Co182 2.137 . S
O194 C185 1.247 . S
O195 Co182 2.244 . S
O195 C185 1.272 . S
O195 Co187 2.135 . S
Co196 O197 2.216 . S
Co196 O198 2.091 . S
Co196 O200 2.004 . S
Co196 O206 2.021 . S
Co196 O208 2.137 . S
Co196 O209 2.244 . S
O197 Co196 2.216 . S
O197 C204 1.247 . S
O198 Co196 2.091 . S
O198 C204 1.261 . S
C199 O208 1.247 . S
C199 O209 1.272 . S
O200 Co196 2.004 . S
O200 C205 1.259 . S
Co201 O202 2.061 . S
Co201 O207 2.052 . S
Co201 O209 2.135 . S
O202 Co201 2.061 . S
O202 C205 1.235 . S
C203 O206 1.238 . S
C203 O207 1.241 . S
C204 O197 1.247 . S
C204 O198 1.261 . S
C205 O200 1.259 . S
C205 O202 1.235 . S
O206 Co196 2.021 . S
O206 C203 1.238 . S
O207 Co201 2.052 . S
O207 C203 1.241 . S
O208 Co196 2.137 . S
O208 C199 1.247 . S
O209 Co196 2.244 . S
O209 C199 1.272 . S
O209 Co201 2.135 . S
Co210 O211 2.216 . S
Co210 O212 2.091 . S
Co210 O214 2.004 . S
Co210 O220 2.021 . S
Co210 O222 2.137 . S
Co210 O223 2.244 . S
O211 Co210 2.216 . S
O211 C218 1.247 . S
O212 Co210 2.091 . S
O212 C218 1.261 . S
C213 O222 1.247 . S
C213 O223 1.272 . S
O214 Co210 2.004 . S
O214 C219 1.259 . S
Co215 O216 2.061 . S
Co215 O221 2.052 . S
Co215 O223 2.135 . S
O216 Co215 2.061 . S
O216 C219 1.235 . S
C217 O220 1.238 . S
C217 O221 1.241 . S
C218 O211 1.247 . S
C218 O212 1.261 . S
C219 O214 1.259 . S
C219 O216 1.235 . S
O220 Co210 2.021 . S
O220 C217 1.238 . S
O221 Co215 2.052 . S
O221 C217 1.241 . S
O222 Co210 2.137 . S
O222 C213 1.247 . S
O223 Co210 2.244 . S
O223 C213 1.272 . S
O223 Co215 2.135 . S
Co224 O225 2.216 . S
Co224 O226 2.091 . S
Co224 O228 2.004 . S
Co224 O234 2.021 . S
Co224 O236 2.137 . S
Co224 O237 2.244 . S
O225 Co224 2.216 . S
O225 C232 1.247 . S
O226 Co224 2.091 . S
O226 C232 1.261 . S
C227 O236 1.247 . S
C227 O237 1.272 . S
O228 Co224 2.004 . S
O228 C233 1.259 . S
Co229 O230 2.061 . S
Co229 O235 2.052 . S
Co229 O237 2.135 . S
O230 Co229 2.061 . S
O230 C233 1.235 . S
C231 O234 1.238 . S
C231 O235 1.241 . S
C232 O225 1.247 . S
C232 O226 1.261 . S
C233 O228 1.259 . S
C233 O230 1.235 . S
O234 Co224 2.021 . S
O234 C231 1.238 . S
O235 Co229 2.052 . S
O235 C231 1.241 . S
O236 Co224 2.137 . S
O236 C227 1.247 . S
O237 Co224 2.244 . S
O237 C227 1.272 . S
O237 Co229 2.135 . S
Co238 O239 2.216 . S
Co238 O240 2.091 . S
Co238 O242 2.004 . S
Co238 O248 2.021 . S
Co238 O250 2.137 . S
Co238 O251 2.244 . S
O239 Co238 2.216 . S
O239 C246 1.247 . S
O240 Co238 2.091 . S
O240 C246 1.261 . S
C241 O250 1.247 . S
C241 O251 1.272 . S
O242 Co238 2.004 . S
O242 C247 1.259 . S
Co243 O244 2.061 . S
Co243 O249 2.052 . S
Co243 O251 2.135 . S
O244 Co243 2.061 . S
O244 C247 1.235 . S
C245 O248 1.238 . S
C245 O249 1.241 . S
C246 O239 1.247 . S
C246 O240 1.261 . S
C247 O242 1.259 . S
C247 O244 1.235 . S
O248 Co238 2.021 . S
O248 C245 1.238 . S
O249 Co243 2.052 . S
O249 C245 1.241 . S
O250 Co238 2.137 . S
O250 C241 1.247 . S
O251 Co238 2.244 . S
O251 C241 1.272 . S
O251 Co243 2.135 . S
Co252 O253 2.216 . S
Co252 O254 2.091 . S
Co252 O256 2.004 . S
Co252 O262 2.021 . S
Co252 O264 2.137 . S
Co252 O265 2.244 . S
O253 Co252 2.216 . S
O253 C260 1.247 . S
O254 Co252 2.091 . S
O254 C260 1.261 . S
C255 O264 1.247 . S
C255 O265 1.272 . S
O256 Co252 2.004 . S
O256 C261 1.259 . S
Co257 O258 2.061 . S
Co257 O263 2.052 . S
Co257 O265 2.135 . S
O258 Co257 2.061 . S
O258 C261 1.235 . S
C259 O262 1.238 . S
C259 O263 1.241 . S
C260 O253 1.247 . S
C260 O254 1.261 . S
C261 O256 1.259 . S
C261 O258 1.235 . S
O262 Co252 2.021 . S
O262 C259 1.238 . S
O263 Co257 2.052 . S
O263 C259 1.241 . S
O264 Co252 2.137 . S
O264 C255 1.247 . S
O265 Co252 2.244 . S
O265 C255 1.272 . S
O265 Co257 2.135 . S
Co266 O267 2.216 . S
Co266 O268 2.091 . S
Co266 O270 2.004 . S
Co266 O276 2.021 . S
Co266 O278 2.137 . S
Co266 O279 2.244 . S
O267 Co266 2.216 . S
O267 C274 1.247 . S
O268 Co266 2.091 . S
O268 C274 1.261 . S
C269 O278 1.247 . S
C269 O279 1.272 . S
O270 Co266 2.004 . S
O270 C275 1.259 . S
Co271 O272 2.061 . S
Co271 O277 2.052 . S
Co271 O279 2.135 . S
O272 Co271 2.061 . S
O272 C275 1.235 . S
C273 O276 1.238 . S
C273 O277 1.241 . S
C274 O267 1.247 . S
C274 O268 1.261 . S
C275 O270 1.259 . S
C275 O272 1.235 . S
O276 Co266 2.021 . S
O276 C273 1.238 . S
O277 Co271 2.052 . S
O277 C273 1.241 . S
O278 Co266 2.137 . S
O278 C269 1.247 . S
O279 Co266 2.244 . S
O279 C269 1.272 . S
O279 Co271 2.135 . S
Co280 O281 2.216 . S
Co280 O282 2.091 . S
Co280 O284 2.004 . S
Co280 O290 2.021 . S
Co280 O292 2.137 . S
Co280 O293 2.244 . S
O281 Co280 2.216 . S
O281 C288 1.247 . S
O282 Co280 2.091 . S
O282 C288 1.261 . S
C283 O292 1.247 . S
C283 O293 1.272 . S
O284 Co280 2.004 . S
O284 C289 1.259 . S
Co285 O286 2.061 . S
Co285 O291 2.052 . S
Co285 O293 2.135 . S
O286 Co285 2.061 . S
O286 C289 1.235 . S
C287 O290 1.238 . S
C287 O291 1.241 . S
C288 O281 1.247 . S
C288 O282 1.261 . S
C289 O284 1.259 . S
C289 O286 1.235 . S
O290 Co280 2.021 . S
O290 C287 1.238 . S
O291 Co285 2.052 . S
O291 C287 1.241 . S
O292 Co280 2.137 . S
O292 C283 1.247 . S
O293 Co280 2.244 . S
O293 C283 1.272 . S
O293 Co285 2.135 . S
Co294 O295 2.216 . S
Co294 O296 2.091 . S
Co294 O298 2.004 . S
Co294 O304 2.021 . S
Co294 O306 2.137 . S
Co294 O307 2.244 . S
O295 Co294 2.216 . S
O295 C302 1.247 . S
O296 Co294 2.091 . S
O296 C302 1.261 . S
C297 O306 1.247 . S
C297 O307 1.272 . S
O298 Co294 2.004 . S
O298 C303 1.259 . S
Co299 O300 2.061 . S
Co299 O305 2.052 . S
Co299 O307 2.135 . S
O300 Co299 2.061 . S
O300 C303 1.235 . S
C301 O304 1.238 . S
C301 O305 1.241 . S
C302 O295 1.247 . S
C302 O296 1.261 . S
C303 O298 1.259 . S
C303 O300 1.235 . S
O304 Co294 2.021 . S
O304 C301 1.238 . S
O305 Co299 2.052 . S
O305 C301 1.241 . S
O306 Co294 2.137 . S
O306 C297 1.247 . S
O307 Co294 2.244 . S
O307 C297 1.272 . S
O307 Co299 2.135 . S
Co308 O309 2.216 . S
Co308 O310 2.091 . S
Co308 O312 2.004 . S
Co308 O318 2.021 . S
Co308 O320 2.137 . S
Co308 O321 2.244 . S
O309 Co308 2.216 . S
O309 C316 1.247 . S
O310 Co308 2.091 . S
O310 C316 1.261 . S
C311 O320 1.247 . S
C311 O321 1.272 . S
O312 Co308 2.004 . S
O312 C317 1.259 . S
Co313 O314 2.061 . S
Co313 O319 2.052 . S
Co313 O321 2.135 . S
O314 Co313 2.061 . S
O314 C317 1.235 . S
C315 O318 1.238 . S
C315 O319 1.241 . S
C316 O309 1.247 . S
C316 O310 1.261 . S
C317 O312 1.259 . S
C317 O314 1.235 . S
O318 Co308 2.021 . S
O318 C315 1.238 . S
O319 Co313 2.052 . S
O319 C315 1.241 . S
O320 Co308 2.137 . S
O320 C311 1.247 . S
O321 Co308 2.244 . S
O321 C311 1.272 . S
O321 Co313 2.135 . S
Co322 O323 2.216 . S
Co322 O324 2.091 . S
Co322 O326 2.004 . S
Co322 O332 2.021 . S
Co322 O334 2.137 . S
Co322 O335 2.244 . S
O323 Co322 2.216 . S
O323 C330 1.247 . S
O324 Co322 2.091 . S
O324 C330 1.261 . S
C325 O334 1.247 . S
C325 O335 1.272 . S
O326 Co322 2.004 . S
O326 C331 1.259 . S
Co327 O328 2.061 . S
Co327 O333 2.052 . S
Co327 O335 2.135 . S
O328 Co327 2.061 . S
O328 C331 1.235 . S
C329 O332 1.238 . S
C329 O333 1.241 . S
C330 O323 1.247 . S
C330 O324 1.261 . S
C331 O326 1.259 . S
C331 O328 1.235 . S
O332 Co322 2.021 . S
O332 C329 1.238 . S
O333 Co327 2.052 . S
O333 C329 1.241 . S
O334 Co322 2.137 . S
O334 C325 1.247 . S
O335 Co322 2.244 . S
O335 C325 1.272 . S
O335 Co327 2.135 . S
Co336 O337 2.216 . S
Co336 O338 2.091 . S
Co336 O340 2.004 . S
Co336 O346 2.021 . S
Co336 O348 2.137 . S
Co336 O349 2.244 . S
O337 Co336 2.216 . S
O337 C344 1.247 . S
O338 Co336 2.091 . S
O338 C344 1.261 . S
C339 O348 1.247 . S
C339 O349 1.272 . S
O340 Co336 2.004 . S
O340 C345 1.259 . S
Co341 O342 2.061 . S
Co341 O347 2.052 . S
Co341 O349 2.135 . S
O342 Co341 2.061 . S
O342 C345 1.235 . S
C343 O346 1.238 . S
C343 O347 1.241 . S
C344 O337 1.247 . S
C344 O338 1.261 . S
C345 O340 1.259 . S
C345 O342 1.235 . S
O346 Co336 2.021 . S
O346 C343 1.238 . S
O347 Co341 2.052 . S
O347 C343 1.241 . S
O348 Co336 2.137 . S
O348 C339 1.247 . S
O349 Co336 2.244 . S
O349 C339 1.272 . S
O349 Co341 2.135 . S
Co350 O351 2.216 . S
Co350 O352 2.091 . S
Co350 O354 2.004 . S
Co350 O360 2.021 . S
Co350 O362 2.137 . S
Co350 O363 2.244 . S
O351 Co350 2.216 . S
O351 C358 1.247 . S
O352 Co350 2.091 . S
O352 C358 1.261 . S
C353 O362 1.247 . S
C353 O363 1.272 . S
O354 Co350 2.004 . S
O354 C359 1.259 . S
Co355 O356 2.061 . S
Co355 O361 2.052 . S
Co355 O363 2.135 . S
O356 Co355 2.061 . S
O356 C359 1.235 . S
C357 O360 1.238 . S
C357 O361 1.241 . S
C358 O351 1.247 . S
C358 O352 1.261 . S
C359 O354 1.259 . S
C359 O356 1.235 . S
O360 Co350 2.021 . S
O360 C357 1.238 . S
O361 Co355 2.052 . S
O361 C357 1.241 . S
O362 Co350 2.137 . S
O362 C353 1.247 . S
O363 Co350 2.244 . S
O363 C353 1.272 . S
O363 Co355 2.135 . S
Co364 O365 2.216 . S
Co364 O366 2.091 . S
Co364 O368 2.004 . S
Co364 O374 2.021 . S
Co364 O376 2.137 . S
Co364 O377 2.244 . S
O365 Co364 2.216 . S
O365 C372 1.247 . S
O366 Co364 2.091 . S
O366 C372 1.261 . S
C367 O376 1.247 . S
C367 O377 1.272 . S
O368 Co364 2.004 . S
O368 C373 1.259 . S
Co369 O370 2.061 . S
Co369 O375 2.052 . S
Co369 O377 2.135 . S
O370 Co369 2.061 . S
O370 C373 1.235 . S
C371 O374 1.238 . S
C371 O375 1.241 . S
C372 O365 1.247 . S
C372 O366 1.261 . S
C373 O368 1.259 . S
C373 O370 1.235 . S
O374 Co364 2.021 . S
O374 C371 1.238 . S
O375 Co369 2.052 . S
O375 C371 1.241 . S
O376 Co364 2.137 . S
O376 C367 1.247 . S
O377 Co364 2.244 . S
O377 C367 1.272 . S
O377 Co369 2.135 . S
Co378 O379 2.216 . S
Co378 O380 2.091 . S
Co378 O382 2.004 . S
Co378 O388 2.021 . S
Co378 O390 2.137 . S
Co378 O391 2.244 . S
O379 Co378 2.216 . S
O379 C386 1.247 . S
O380 Co378 2.091 . S
O380 C386 1.261 . S
C381 O390 1.247 . S
C381 O391 1.272 . S
O382 Co378 2.004 . S
O382 C387 1.259 . S
Co383 O384 2.061 . S
Co383 O389 2.052 . S
Co383 O391 2.135 . S
O384 Co383 2.061 . S
O384 C387 1.235 . S
C385 O388 1.238 . S
C385 O389 1.241 . S
C386 O379 1.247 . S
C386 O380 1.261 . S
C387 O382 1.259 . S
C387 O384 1.235 . S
O388 Co378 2.021 . S
O388 C385 1.238 . S
O389 Co383 2.052 . S
O389 C385 1.241 . S
O390 Co378 2.137 . S
O390 C381 1.247 . S
O391 Co378 2.244 . S
O391 C381 1.272 . S
O391 Co383 2.135 . S
Co392 O393 2.216 . S
Co392 O394 2.091 . S
Co392 O396 2.004 . S
Co392 O402 2.021 . S
Co392 O404 2.137 . S
Co392 O405 2.244 . S
O393 Co392 2.216 . S
O393 C400 1.247 . S
O394 Co392 2.091 . S
O394 C400 1.261 . S
C395 O404 1.247 . S
C395 O405 1.272 . S
O396 Co392 2.004 . S
O396 C401 1.259 . S
Co397 O398 2.061 . S
Co397 O403 2.052 . S
Co397 O405 2.135 . S
O398 Co397 2.061 . S
O398 C401 1.235 . S
C399 O402 1.238 . S
C399 O403 1.241 . S
C400 O393 1.247 . S
C400 O394 1.261 . S
C401 O396 1.259 . S
C401 O398 1.235 . S
O402 Co392 2.021 . S
O402 C399 1.238 . S
O403 Co397 2.052 . S
O403 C399 1.241 . S
O404 Co392 2.137 . S
O404 C395 1.247 . S
O405 Co392 2.244 . S
O405 C395 1.272 . S
O405 Co397 2.135 . S
Co406 O407 2.216 . S
Co406 O408 2.091 . S
Co406 O410 2.004 . S
Co406 O416 2.021 . S
Co406 O418 2.137 . S
Co406 O419 2.244 . S
O407 Co406 2.216 . S
O407 C414 1.247 . S
O408 Co406 2.091 . S
O408 C414 1.261 . S
C409 O418 1.247 . S
C409 O419 1.272 . S
O410 Co406 2.004 . S
O410 C415 1.259 . S
Co411 O412 2.061 . S
Co411 O417 2.052 . S
Co411 O419 2.135 . S
O412 Co411 2.061 . S
O412 C415 1.235 . S
C413 O416 1.238 . S
C413 O417 1.241 . S
C414 O407 1.247 . S
C414 O408 1.261 . S
C415 O410 1.259 . S
C415 O412 1.235 . S
O416 Co406 2.021 . S
O416 C413 1.238 . S
O417 Co411 2.052 . S
O417 C413 1.241 . S
O418 Co406 2.137 . S
O418 C409 1.247 . S
O419 Co406 2.244 . S
O419 C409 1.272 . S
O419 Co411 2.135 . S
Co420 O421 2.216 . S
Co420 O422 2.091 . S
Co420 O424 2.004 . S
Co420 O430 2.021 . S
Co420 O432 2.137 . S
Co420 O433 2.244 . S
O421 Co420 2.216 . S
O421 C428 1.247 . S
O422 Co420 2.091 . S
O422 C428 1.261 . S
C423 O432 1.247 . S
C423 O433 1.272 . S
O424 Co420 2.004 . S
O424 C429 1.259 . S
Co425 O426 2.061 . S
Co425 O431 2.052 . S
Co425 O433 2.135 . S
O426 Co425 2.061 . S
O426 C429 1.235 . S
C427 O430 1.238 . S
C427 O431 1.241 . S
C428 O421 1.247 . S
C428 O422 1.261 . S
C429 O424 1.259 . S
C429 O426 1.235 . S
O430 Co420 2.021 . S
O430 C427 1.238 . S
O431 Co425 2.052 . S
O431 C427 1.241 . S
O432 Co420 2.137 . S
O432 C423 1.247 . S
O433 Co420 2.244 . S
O433 C423 1.272 . S
O433 Co425 2.135 . S
Co434 O435 2.216 . S
Co434 O436 2.091 . S
Co434 O438 2.004 . S
Co434 O444 2.021 . S
Co434 O446 2.137 . S
Co434 O447 2.244 . S
O435 Co434 2.216 . S
O435 C442 1.247 . S
O436 Co434 2.091 . S
O436 C442 1.261 . S
C437 O446 1.247 . S
C437 O447 1.272 . S
O438 Co434 2.004 . S
O438 C443 1.259 . S
Co439 O440 2.061 . S
Co439 O445 2.052 . S
Co439 O447 2.135 . S
O440 Co439 2.061 . S
O440 C443 1.235 . S
C441 O444 1.238 . S
C441 O445 1.241 . S
C442 O435 1.247 . S
C442 O436 1.261 . S
C443 O438 1.259 . S
C443 O440 1.235 . S
O444 Co434 2.021 . S
O444 C441 1.238 . S
O445 Co439 2.052 . S
O445 C441 1.241 . S
O446 Co434 2.137 . S
O446 C437 1.247 . S
O447 Co434 2.244 . S
O447 C437 1.272 . S
O447 Co439 2.135 . S
Co448 O449 2.216 . S
Co448 O450 2.091 . S
Co448 O452 2.004 . S
Co448 O458 2.021 . S
Co448 O460 2.137 . S
Co448 O461 2.244 . S
O449 Co448 2.216 . S
O449 C456 1.247 . S
O450 Co448 2.091 . S
O450 C456 1.261 . S
C451 O460 1.247 . S
C451 O461 1.272 . S
O452 Co448 2.004 . S
O452 C457 1.259 . S
Co453 O454 2.061 . S
Co453 O459 2.052 . S
Co453 O461 2.135 . S
O454 Co453 2.061 . S
O454 C457 1.235 . S
C455 O458 1.238 . S
C455 O459 1.241 . S
C456 O449 1.247 . S
C456 O450 1.261 . S
C457 O452 1.259 . S
C457 O454 1.235 . S
O458 Co448 2.021 . S
O458 C455 1.238 . S
O459 Co453 2.052 . S
O459 C455 1.241 . S
O460 Co448 2.137 . S
O460 C451 1.247 . S
O461 Co448 2.244 . S
O461 C451 1.272 . S
O461 Co453 2.135 . S
Co462 O463 2.216 . S
Co462 O464 2.091 . S
Co462 O466 2.004 . S
Co462 O472 2.021 . S
Co462 O474 2.137 . S
Co462 O475 2.244 . S
O463 Co462 2.216 . S
O463 C470 1.247 . S
O464 Co462 2.091 . S
O464 C470 1.261 . S
C465 O474 1.247 . S
C465 O475 1.272 . S
O466 Co462 2.004 . S
O466 C471 1.259 . S
Co467 O468 2.061 . S
Co467 O473 2.052 . S
Co467 O475 2.135 . S
O468 Co467 2.061 . S
O468 C471 1.235 . S
C469 O472 1.238 . S
C469 O473 1.241 . S
C470 O463 1.247 . S
C470 O464 1.261 . S
C471 O466 1.259 . S
C471 O468 1.235 . S
O472 Co462 2.021 . S
O472 C469 1.238 . S
O473 Co467 2.052 . S
O473 C469 1.241 . S
O474 Co462 2.137 . S
O474 C465 1.247 . S
O475 Co462 2.244 . S
O475 C465 1.272 . S
O475 Co467 2.135 . S
Co476 O477 2.216 . S
Co476 O478 2.091 . S
Co476 O480 2.004 . S
Co476 O486 2.021 . S
Co476 O488 2.137 . S
Co476 O489 2.244 . S
O477 Co476 2.216 . S
O477 C484 1.247 . S
O478 Co476 2.091 . S
O478 C484 1.261 . S
C479 O488 1.247 . S
C479 O489 1.272 . S
O480 Co476 2.004 . S
O480 C485 1.259 . S
Co481 O482 2.061 . S
Co481 O487 2.052 . S
Co481 O489 2.135 . S
O482 Co481 2.061 . S
O482 C485 1.235 . S
C483 O486 1.238 . S
C483 O487 1.241 . S
C484 O477 1.247 . S
C484 O478 1.261 . S
C485 O480 1.259 . S
C485 O482 1.235 . S
O486 Co476 2.021 . S
O486 C483 1.238 . S
O487 Co481 2.052 . S
O487 C483 1.241 . S
O488 Co476 2.137 . S
O488 C479 1.247 . S
O489 Co476 2.244 . S
O489 C479 1.272 . S
O489 Co481 2.135 . S
Co490 O491 2.216 . S
Co490 O492 2.091 . S
Co490 O494 2.004 . S
Co490 O500 2.021 . S
Co490 O502 2.137 . S
Co490 O503 2.244 . S
O491 Co490 2.216 . S
O491 C498 1.247 . S
O492 Co490 2.091 . S
O492 C498 1.261 . S
C493 O502 1.247 . S
C493 O503 1.272 . S
O494 Co490 2.004 . S
O494 C499 1.259 . S
Co495 O496 2.061 . S
Co495 O501 2.052 . S
Co495 O503 2.135 . S
O496 Co495 2.061 . S
O496 C499 1.235 . S
C497 O500 1.238 . S
C497 O501 1.241 . S
C498 O491 1.247 . S
C498 O492 1.261 . S
C499 O494 1.259 . S
C499 O496 1.235 . S
O500 Co490 2.021 . S
O500 C497 1.238 . S
O501 Co495 2.052 . S
O501 C497 1.241 . S
O502 Co490 2.137 . S
O502 C493 1.247 . S
O503 Co490 2.244 . S
O503 C493 1.272 . S
O503 Co495 2.135 . S
Co504 O505 2.216 . S
Co504 O506 2.091 . S
Co504 O508 2.004 . S
Co504 O514 2.021 . S
Co504 O516 2.137 . S
Co504 O517 2.244 . S
O505 Co504 2.216 . S
O505 C512 1.247 . S
O506 Co504 2.091 . S
O506 C512 1.261 . S
C507 O516 1.247 . S
C507 O517 1.272 . S
O508 Co504 2.004 . S
O508 C513 1.259 . S
Co509 O510 2.061 . S
Co509 O515 2.052 . S
Co509 O517 2.135 . S
O510 Co509 2.061 . S
O510 C513 1.235 . S
C511 O514 1.238 . S
C511 O515 1.241 . S
C512 O505 1.247 . S
C512 O506 1.261 . S
C513 O508 1.259 . S
C513 O510 1.235 . S
O514 Co504 2.021 . S
O514 C511 1.238 . S
O515 Co509 2.052 . S
O515 C511 1.241 . S
O516 Co504 2.137 . S
O516 C507 1.247 . S
O517 Co504 2.244 . S
O517 C507 1.272 . S
O517 Co509 2.135 . S
Co518 O519 2.216 . S
Co518 O520 2.091 . S
Co518 O522 2.004 . S
Co518 O528 2.021 . S
Co518 O530 2.137 . S
Co518 O531 2.244 . S
O519 Co518 2.216 . S
O519 C526 1.247 . S
O520 Co518 2.091 . S
O520 C526 1.261 . S
C521 O530 1.247 . S
C521 O531 1.272 . S
O522 Co518 2.004 . S
O522 C527 1.259 . S
Co523 O524 2.061 . S
Co523 O529 2.052 . S
Co523 O531 2.135 . S
O524 Co523 2.061 . S
O524 C527 1.235 . S
C525 O528 1.238 . S
C525 O529 1.241 . S
C526 O519 1.247 . S
C526 O520 1.261 . S
C527 O522 1.259 . S
C527 O524 1.235 . S
O528 Co518 2.021 . S
O528 C525 1.238 . S
O529 Co523 2.052 . S
O529 C525 1.241 . S
O530 Co518 2.137 . S
O530 C521 1.247 . S
O531 Co518 2.244 . S
O531 C521 1.272 . S
O531 Co523 2.135 . S
Co532 O533 2.216 . S
Co532 O534 2.091 . S
Co532 O536 2.004 . S
Co532 O542 2.021 . S
Co532 O544 2.137 . S
Co532 O545 2.244 . S
O533 Co532 2.216 . S
O533 C540 1.247 . S
O534 Co532 2.091 . S
O534 C540 1.261 . S
C535 O544 1.247 . S
C535 O545 1.272 . S
O536 Co532 2.004 . S
O536 C541 1.259 . S
Co537 O538 2.061 . S
Co537 O543 2.052 . S
Co537 O545 2.135 . S
O538 Co537 2.061 . S
O538 C541 1.235 . S
C539 O542 1.238 . S
C539 O543 1.241 . S
C540 O533 1.247 . S
C540 O534 1.261 . S
C541 O536 1.259 . S
C541 O538 1.235 . S
O542 Co532 2.021 . S
O542 C539 1.238 . S
O543 Co537 2.052 . S
O543 C539 1.241 . S
O544 Co532 2.137 . S
O544 C535 1.247 . S
O545 Co532 2.244 . S
O545 C535 1.272 . S
O545 Co537 2.135 . S
Co546 O547 2.216 . S
Co546 O548 2.091 . S
Co546 O550 2.004 . S
Co546 O556 2.021 . S
Co546 O558 2.137 . S
Co546 O559 2.244 . S
O547 Co546 2.216 . S
O547 C554 1.247 . S
O548 Co546 2.091 . S
O548 C554 1.261 . S
C549 O558 1.247 . S
C549 O559 1.272 . S
O550 Co546 2.004 . S
O550 C555 1.259 . S
Co551 O552 2.061 . S
Co551 O557 2.052 . S
Co551 O559 2.135 . S
O552 Co551 2.061 . S
O552 C555 1.235 . S
C553 O556 1.238 . S
C553 O557 1.241 . S
C554 O547 1.247 . S
C554 O548 1.261 . S
C555 O550 1.259 . S
C555 O552 1.235 . S
O556 Co546 2.021 . S
O556 C553 1.238 . S
O557 Co551 2.052 . S
O557 C553 1.241 . S
O558 Co546 2.137 . S
O558 C549 1.247 . S
O559 Co546 2.244 . S
O559 C549 1.272 . S
O559 Co551 2.135 . S
Co560 O561 2.216 . S
Co560 O562 2.091 . S
Co560 O564 2.004 . S
Co560 O570 2.021 . S
Co560 O572 2.137 . S
Co560 O573 2.244 . S
O561 Co560 2.216 . S
O561 C568 1.247 . S
O562 Co560 2.091 . S
O562 C568 1.261 . S
C563 O572 1.247 . S
C563 O573 1.272 . S
O564 Co560 2.004 . S
O564 C569 1.259 . S
Co565 O566 2.061 . S
Co565 O571 2.052 . S
Co565 O573 2.135 . S
O566 Co565 2.061 . S
O566 C569 1.235 . S
C567 O570 1.238 . S
C567 O571 1.241 . S
C568 O561 1.247 . S
C568 O562 1.261 . S
C569 O564 1.259 . S
C569 O566 1.235 . S
O570 Co560 2.021 . S
O570 C567 1.238 . S
O571 Co565 2.052 . S
O571 C567 1.241 . S
O572 Co560 2.137 . S
O572 C563 1.247 . S
O573 Co560 2.244 . S
O573 C563 1.272 . S
O573 Co565 2.135 . S
Co574 O575 2.216 . S
Co574 O576 2.091 . S
Co574 O578 2.004 . S
Co574 O584 2.021 . S
Co574 O586 2.137 . S
Co574 O587 2.244 . S
O575 Co574 2.216 . S
O575 C582 1.247 . S
O576 Co574 2.091 . S
O576 C582 1.261 . S
C577 O586 1.247 . S
C577 O587 1.272 . S
O578 Co574 2.004 . S
O578 C583 1.259 . S
Co579 O580 2.061 . S
Co579 O585 2.052 . S
Co579 O587 2.135 . S
O580 Co579 2.061 . S
O580 C583 1.235 . S
C581 O584 1.238 . S
C581 O585 1.241 . S
C582 O575 1.247 . S
C582 O576 1.261 . S
C583 O578 1.259 . S
C583 O580 1.235 . S
O584 Co574 2.021 . S
O584 C581 1.238 . S
O585 Co579 2.052 . S
O585 C581 1.241 . S
O586 Co574 2.137 . S
O586 C577 1.247 . S
O587 Co574 2.244 . S
O587 C577 1.272 . S
O587 Co579 2.135 . S
Co588 O589 2.216 . S
Co588 O590 2.091 . S
Co588 O592 2.004 . S
Co588 O598 2.021 . S
Co588 O600 2.137 . S
Co588 O601 2.244 . S
O589 Co588 2.216 . S
O589 C596 1.247 . S
O590 Co588 2.091 . S
O590 C596 1.261 . S
C591 O600 1.247 . S
C591 O601 1.272 . S
O592 Co588 2.004 . S
O592 C597 1.259 . S
Co593 O594 2.061 . S
Co593 O599 2.052 . S
Co593 O601 2.135 . S
O594 Co593 2.061 . S
O594 C597 1.235 . S
C595 O598 1.238 . S
C595 O599 1.241 . S
C596 O589 1.247 . S
C596 O590 1.261 . S
C597 O592 1.259 . S
C597 O594 1.235 . S
O598 Co588 2.021 . S
O598 C595 1.238 . S
O599 Co593 2.052 . S
O599 C595 1.241 . S
O600 Co588 2.137 . S
O600 C591 1.247 . S
O601 Co588 2.244 . S
O601 C591 1.272 . S
O601 Co593 2.135 . S
Co602 O603 2.216 . S
Co602 O604 2.091 . S
Co602 O606 2.004 . S
Co602 O612 2.021 . S
Co602 O614 2.137 . S
Co602 O615 2.244 . S
O603 Co602 2.216 . S
O603 C610 1.247 . S
O604 Co602 2.091 . S
O604 C610 1.261 . S
C605 O614 1.247 . S
C605 O615 1.272 . S
O606 Co602 2.004 . S
O606 C611 1.259 . S
Co607 O608 2.061 . S
Co607 O613 2.052 . S
Co607 O615 2.135 . S
O608 Co607 2.061 . S
O608 C611 1.235 . S
C609 O612 1.238 . S
C609 O613 1.241 . S
C610 O603 1.247 . S
C610 O604 1.261 . S
C611 O606 1.259 . S
C611 O608 1.235 . S
O612 Co602 2.021 . S
O612 C609 1.238 . S
O613 Co607 2.052 . S
O613 C609 1.241 . S
O614 Co602 2.137 . S
O614 C605 1.247 . S
O615 Co602 2.244 . S
O615 C605 1.272 . S
O615 Co607 2.135 . S
Co616 O617 2.216 . S
Co616 O618 2.091 . S
Co616 O620 2.004 . S
Co616 O626 2.021 . S
Co616 O628 2.137 . S
Co616 O629 2.244 . S
O617 Co616 2.216 . S
O617 C624 1.247 . S
O618 Co616 2.091 . S
O618 C624 1.261 . S
C619 O628 1.247 . S
C619 O629 1.272 . S
O620 Co616 2.004 . S
O620 C625 1.259 . S
Co621 O622 2.061 . S
Co621 O627 2.052 . S
Co621 O629 2.135 . S
O622 Co621 2.061 . S
O622 C625 1.235 . S
C623 O626 1.238 . S
C623 O627 1.241 . S
C624 O617 1.247 . S
C624 O618 1.261 . S
C625 O620 1.259 . S
C625 O622 1.235 . S
O626 Co616 2.021 . S
O626 C623 1.238 . S
O627 Co621 2.052 . S
O627 C623 1.241 . S
O628 Co616 2.137 . S
O628 C619 1.247 . S
O629 Co616 2.244 . S
O629 C619 1.272 . S
O629 Co621 2.135 . S
Co630 O631 2.216 . S
Co630 O632 2.091 . S
Co630 O634 2.004 . S
Co630 O640 2.021 . S
Co630 O642 2.137 . S
Co630 O643 2.244 . S
O631 Co630 2.216 . S
O631 C638 1.247 . S
O632 Co630 2.091 . S
O632 C638 1.261 . S
C633 O642 1.247 . S
C633 O643 1.272 . S
O634 Co630 2.004 . S
O634 C639 1.259 . S
Co635 O636 2.061 . S
Co635 O641 2.052 . S
Co635 O643 2.135 . S
O636 Co635 2.061 . S
O636 C639 1.235 . S
C637 O640 1.238 . S
C637 O641 1.241 . S
C638 O631 1.247 . S
C638 O632 1.261 . S
C639 O634 1.259 . S
C639 O636 1.235 . S
O640 Co630 2.021 . S
O640 C637 1.238 . S
O641 Co635 2.052 . S
O641 C637 1.241 . S
O642 Co630 2.137 . S
O642 C633 1.247 . S
O643 Co630 2.244 . S
O643 C633 1.272 . S
O643 Co635 2.135 . S
Co644 O645 2.216 . S
Co644 O646 2.091 . S
Co644 O648 2.004 . S
Co644 O654 2.021 . S
Co644 O656 2.137 . S
Co644 O657 2.244 . S
O645 Co644 2.216 . S
O645 C652 1.247 . S
O646 Co644 2.091 . S
O646 C652 1.261 . S
C647 O656 1.247 . S
C647 O657 1.272 . S
O648 Co644 2.004 . S
O648 C653 1.259 . S
Co649 O650 2.061 . S
Co649 O655 2.052 . S
Co649 O657 2.135 . S
O650 Co649 2.061 . S
O650 C653 1.235 . S
C651 O654 1.238 . S
C651 O655 1.241 . S
C652 O645 1.247 . S
C652 O646 1.261 . S
C653 O648 1.259 . S
C653 O650 1.235 . S
O654 Co644 2.021 . S
O654 C651 1.238 . S
O655 Co649 2.052 . S
O655 C651 1.241 . S
O656 Co644 2.137 . S
O656 C647 1.247 . S
O657 Co644 2.244 . S
O657 C647 1.272 . S
O657 Co649 2.135 . S
Co658 O659 2.216 . S
Co658 O660 2.091 . S
Co658 O662 2.004 . S
Co658 O668 2.021 . S
Co658 O670 2.137 . S
Co658 O671 2.244 . S
O659 Co658 2.216 . S
O659 C666 1.247 . S
O660 Co658 2.091 . S
O660 C666 1.261 . S
C661 O670 1.247 . S
C661 O671 1.272 . S
O662 Co658 2.004 . S
O662 C667 1.259 . S
Co663 O664 2.061 . S
Co663 O669 2.052 . S
Co663 O671 2.135 . S
O664 Co663 2.061 . S
O664 C667 1.235 . S
C665 O668 1.238 . S
C665 O669 1.241 . S
C666 O659 1.247 . S
C666 O660 1.261 . S
C667 O662 1.259 . S
C667 O664 1.235 . S
O668 Co658 2.021 . S
O668 C665 1.238 . S
O669 Co663 2.052 . S
O669 C665 1.241 . S
O670 Co658 2.137 . S
O670 C661 1.247 . S
O671 Co658 2.244 . S
O671 C661 1.272 . S
O671 Co663 2.135 . S
C672 C673 1.391 . S
C672 C674 1.394 . S
C672 H688 0.931 . S
C673 C672 1.391 . S
C673 C677 1.376 . S
C674 C672 1.394 . S
C674 C675 1.369 . S
C674 C678 1.531 . S
C675 C674 1.369 . S
C675 C676 1.410 . S
C675 C683 1.503 1_655 S
C676 C675 1.410 . S
C676 C677 1.392 . S
C676 C679 1.511 . S
C677 C673 1.376 . S
C677 C676 1.392 . S
C677 H689 0.929 . S
C678 C674 1.531 . S
C678 H690 0.960 1_655 S
C678 H691 0.962 . S
C678 H692 0.960 . S
C679 C676 1.511 . S
C679 H693 0.961 . S
C679 H694 0.961 1_655 S
C679 H695 0.961 . S
C680 C681 1.370 . S
C680 C682 1.363 . S
C680 H696 0.931 . S
C681 C680 1.370 . S
C681 C685 1.408 . S
C682 C680 1.363 . S
C682 C683 1.370 . S
C682 C686 1.524 . S
C683 C675 1.503 1_455 S
C683 C682 1.370 . S
C683 C684 1.403 . S
C684 C683 1.403 . S
C684 C685 1.404 . S
C684 C687 1.539 . S
C685 C681 1.408 . S
C685 C684 1.404 . S
C685 H697 0.930 . S
C686 C682 1.524 . S
C686 H698 0.983 . S
C686 H699 0.961 1_455 S
C686 H700 0.961 . S
C687 C684 1.539 . S
C687 H701 0.958 . S
C687 H702 0.961 . S
C687 H703 0.969 . S
H688 C672 0.931 . S
H689 C677 0.929 . S
H690 C678 0.960 1_455 S
H691 C678 0.962 . S
H692 C678 0.960 . S
H693 C679 0.961 . S
H694 C679 0.961 1_455 S
H695 C679 0.961 . S
H696 C680 0.931 . S
H697 C685 0.930 . S
H698 C686 0.983 . S
H699 C686 0.961 1_655 S
H700 C686 0.961 . S
H701 C687 0.958 . S
H702 C687 0.961 . S
H703 C687 0.969 . S
C704 C705 1.391 . S
C704 C706 1.394 . S
C704 H720 0.931 . S
C705 C704 1.391 . S
C705 C709 1.376 . S
C706 C704 1.394 . S
C706 C707 1.369 . S
C706 C710 1.531 . S
C707 C706 1.369 . S
C707 C708 1.410 . S
C707 C715 1.503 . S
C708 C707 1.410 . S
C708 C709 1.392 . S
C708 C711 1.511 . S
C709 C705 1.376 . S
C709 C708 1.392 . S
C709 H721 0.929 . S
C710 C706 1.531 . S
C710 H722 0.960 . S
C710 H723 0.962 . S
C710 H724 0.960 . S
C711 C708 1.511 . S
C711 H725 0.961 . S
C711 H726 0.961 . S
C711 H727 0.961 . S
C712 C713 1.370 . S
C712 C714 1.363 . S
C712 H728 0.931 . S
C713 C712 1.370 . S
C713 C717 1.408 . S
C714 C712 1.363 . S
C714 C715 1.370 . S
C714 C718 1.524 . S
C715 C707 1.503 . S
C715 C714 1.370 . S
C715 C716 1.403 . S
C716 C715 1.403 . S
C716 C717 1.404 . S
C716 C719 1.539 . S
C717 C713 1.408 . S
C717 C716 1.404 . S
C717 H729 0.930 . S
C718 C714 1.524 . S
C718 H730 0.956 . S
C718 H731 0.961 . S
C718 H732 0.961 . S
C719 C716 1.539 . S
C719 H733 0.958 . S
C719 H734 0.961 . S
C719 H735 0.960 . S
H720 C704 0.931 . S
H721 C709 0.929 . S
H722 C710 0.960 . S
H723 C710 0.962 . S
H724 C710 0.960 . S
H725 C711 0.961 . S
H726 C711 0.961 . S
H727 C711 0.961 . S
H728 C712 0.931 . S
H729 C717 0.930 . S
H730 C718 0.956 . S
H731 C718 0.961 . S
H732 C718 0.961 . S
H733 C719 0.958 . S
H734 C719 0.961 . S
H735 C719 0.960 . S
C736 C737 1.391 . S
C736 C738 1.394 . S
C736 H752 0.931 . S
C737 C736 1.391 . S
C737 C741 1.376 . S
C738 C736 1.394 . S
C738 C739 1.369 . S
C738 C742 1.531 . S
C739 C738 1.369 . S
C739 C740 1.410 . S
C739 C747 1.503 1_455 S
C740 C739 1.410 . S
C740 C741 1.392 . S
C740 C743 1.511 . S
C741 C737 1.376 . S
C741 C740 1.392 . S
C741 H753 0.929 . S
C742 C738 1.531 . S
C742 H754 0.960 1_455 S
C742 H755 0.962 . S
C742 H756 0.960 . S
C743 C740 1.511 . S
C743 H757 0.961 . S
C743 H758 0.961 1_455 S
C743 H759 0.961 . S
C744 C745 1.370 . S
C744 C746 1.363 . S
C744 H760 0.931 . S
C745 C744 1.370 . S
C745 C749 1.408 . S
C746 C744 1.363 . S
C746 C747 1.370 . S
C746 C750 1.524 . S
C747 C739 1.503 1_655 S
C747 C746 1.370 . S
C747 C748 1.403 . S
C748 C747 1.403 . S
C748 C749 1.404 . S
C748 C751 1.539 . S
C749 C745 1.408 . S
C749 C748 1.404 . S
C749 H761 0.930 . S
C750 C746 1.524 . S
C750 H762 0.983 . S
C750 H763 0.961 1_655 S
C750 H764 0.961 . S
C751 C748 1.539 . S
C751 H765 0.958 . S
C751 H766 0.961 . S
C751 H767 0.969 . S
H752 C736 0.931 . S
H753 C741 0.929 . S
H754 C742 0.960 1_655 S
H755 C742 0.962 . S
H756 C742 0.960 . S
H757 C743 0.961 . S
H758 C743 0.961 1_655 S
H759 C743 0.961 . S
H760 C744 0.931 . S
H761 C749 0.930 . S
H762 C750 0.983 . S
H763 C750 0.961 1_455 S
H764 C750 0.961 . S
H765 C751 0.958 . S
H766 C751 0.961 . S
H767 C751 0.969 . S
C768 C769 1.391 . S
C768 C770 1.394 . S
C768 H784 0.931 . S
C769 C768 1.391 . S
C769 C773 1.376 . S
C770 C768 1.394 . S
C770 C771 1.369 . S
C770 C774 1.531 . S
C771 C770 1.369 . S
C771 C772 1.410 . S
C771 C779 1.503 . S
C772 C771 1.410 . S
C772 C773 1.392 . S
C772 C775 1.511 . S
C773 C769 1.376 . S
C773 C772 1.392 . S
C773 H785 0.929 . S
C774 C770 1.531 . S
C774 H786 0.960 . S
C774 H787 0.962 . S
C774 H788 0.960 . S
C775 C772 1.511 . S
C775 H789 0.961 . S
C775 H790 0.961 . S
C775 H791 0.961 . S
C776 C777 1.370 . S
C776 C778 1.363 . S
C776 H792 0.931 . S
C777 C776 1.370 . S
C777 C781 1.408 . S
C778 C776 1.363 . S
C778 C779 1.370 . S
C778 C782 1.524 . S
C779 C771 1.503 . S
C779 C778 1.370 . S
C779 C780 1.403 . S
C780 C779 1.403 . S
C780 C781 1.404 . S
C780 C783 1.539 . S
C781 C777 1.408 . S
C781 C780 1.404 . S
C781 H793 0.930 . S
C782 C778 1.524 . S
C782 H794 0.956 . S
C782 H795 0.961 . S
C782 H796 0.961 . S
C783 C780 1.539 . S
C783 H797 0.958 . S
C783 H798 0.961 . S
C783 H799 0.960 . S
H784 C768 0.931 . S
H785 C773 0.929 . S
H786 C774 0.960 . S
H787 C774 0.962 . S
H788 C774 0.960 . S
H789 C775 0.961 . S
H790 C775 0.961 . S
H791 C775 0.961 . S
H792 C776 0.931 . S
H793 C781 0.930 . S
H794 C782 0.956 . S
H795 C782 0.961 . S
H796 C782 0.961 . S
H797 C783 0.958 . S
H798 C783 0.961 . S
H799 C783 0.960 . S
C800 C801 1.391 . S
C800 C802 1.394 . S
C800 H816 0.931 . S
C801 C800 1.391 . S
C801 C805 1.376 . S
C802 C800 1.394 . S
C802 C803 1.369 . S
C802 C806 1.531 . S
C803 C802 1.369 . S
C803 C804 1.410 . S
C803 C811 1.503 1_655 S
C804 C803 1.410 . S
C804 C805 1.392 . S
C804 C807 1.511 . S
C805 C801 1.376 . S
C805 C804 1.392 . S
C805 H817 0.929 . S
C806 C802 1.531 . S
C806 H818 0.960 1_655 S
C806 H819 0.962 . S
C806 H820 0.960 . S
C807 C804 1.511 . S
C807 H821 0.961 . S
C807 H822 0.961 1_655 S
C807 H823 0.961 . S
C808 C809 1.370 . S
C808 C810 1.363 . S
C808 H824 0.931 . S
C809 C808 1.370 . S
C809 C813 1.408 . S
C810 C808 1.363 . S
C810 C811 1.370 . S
C810 C814 1.524 . S
C811 C803 1.503 1_455 S
C811 C810 1.370 . S
C811 C812 1.403 . S
C812 C811 1.403 . S
C812 C813 1.404 . S
C812 C815 1.539 . S
C813 C809 1.408 . S
C813 C812 1.404 . S
C813 H825 0.930 . S
C814 C810 1.524 . S
C814 H826 0.983 . S
C814 H827 0.961 1_455 S
C814 H828 0.961 . S
C815 C812 1.539 . S
C815 H829 0.958 . S
C815 H830 0.961 . S
C815 H831 0.969 . S
H816 C800 0.931 . S
H817 C805 0.929 . S
H818 C806 0.960 1_455 S
H819 C806 0.962 . S
H820 C806 0.960 . S
H821 C807 0.961 . S
H822 C807 0.961 1_455 S
H823 C807 0.961 . S
H824 C808 0.931 . S
H825 C813 0.930 . S
H826 C814 0.983 . S
H827 C814 0.961 1_655 S
H828 C814 0.961 . S
H829 C815 0.958 . S
H830 C815 0.961 . S
H831 C815 0.969 . S
C832 C833 1.391 . S
C832 C834 1.394 . S
C832 H848 0.931 . S
C833 C832 1.391 . S
C833 C837 1.376 . S
C834 C832 1.394 . S
C834 C835 1.369 . S
C834 C838 1.531 . S
C835 C834 1.369 . S
C835 C836 1.410 . S
C835 C843 1.503 . S
C836 C835 1.410 . S
C836 C837 1.392 . S
C836 C839 1.511 . S
C837 C833 1.376 . S
C837 C836 1.392 . S
C837 H849 0.929 . S
C838 C834 1.531 . S
C838 H850 0.960 . S
C838 H851 0.962 . S
C838 H852 0.960 . S
C839 C836 1.511 . S
C839 H853 0.961 . S
C839 H854 0.961 . S
C839 H855 0.961 . S
C840 C841 1.370 . S
C840 C842 1.363 . S
C840 H856 0.931 . S
C841 C840 1.370 . S
C841 C845 1.408 . S
C842 C840 1.363 . S
C842 C843 1.370 . S
C842 C846 1.524 . S
C843 C835 1.503 . S
C843 C842 1.370 . S
C843 C844 1.403 . S
C844 C843 1.403 . S
C844 C845 1.404 . S
C844 C847 1.539 . S
C845 C841 1.408 . S
C845 C844 1.404 . S
C845 H857 0.930 . S
C846 C842 1.524 . S
C846 H858 0.956 . S
C846 H859 0.961 . S
C846 H860 0.961 . S
C847 C844 1.539 . S
C847 H861 0.958 . S
C847 H862 0.961 . S
C847 H863 0.960 . S
H848 C832 0.931 . S
H849 C837 0.929 . S
H850 C838 0.960 . S
H851 C838 0.962 . S
H852 C838 0.960 . S
H853 C839 0.961 . S
H854 C839 0.961 . S
H855 C839 0.961 . S
H856 C840 0.931 . S
H857 C845 0.930 . S
H858 C846 0.956 . S
H859 C846 0.961 . S
H860 C846 0.961 . S
H861 C847 0.958 . S
H862 C847 0.961 . S
H863 C847 0.960 . S
C864 C865 1.391 . S
C864 C866 1.394 . S
C864 H880 0.931 . S
C865 C864 1.391 . S
C865 C869 1.376 . S
C866 C864 1.394 . S
C866 C867 1.369 . S
C866 C870 1.531 . S
C867 C866 1.369 . S
C867 C868 1.410 . S
C867 C875 1.503 1_455 S
C868 C867 1.410 . S
C868 C869 1.392 . S
C868 C871 1.511 . S
C869 C865 1.376 . S
C869 C868 1.392 . S
C869 H881 0.929 . S
C870 C866 1.531 . S
C870 H882 0.960 1_455 S
C870 H883 0.962 . S
C870 H884 0.960 . S
C871 C868 1.511 . S
C871 H885 0.961 . S
C871 H886 0.961 1_455 S
C871 H887 0.961 . S
C872 C873 1.370 . S
C872 C874 1.363 . S
C872 H888 0.931 . S
C873 C872 1.370 . S
C873 C877 1.408 . S
C874 C872 1.363 . S
C874 C875 1.370 . S
C874 C878 1.524 . S
C875 C867 1.503 1_655 S
C875 C874 1.370 . S
C875 C876 1.403 . S
C876 C875 1.403 . S
C876 C877 1.404 . S
C876 C879 1.539 . S
C877 C873 1.408 . S
C877 C876 1.404 . S
C877 H889 0.930 . S
C878 C874 1.524 . S
C878 H890 0.983 . S
C878 H891 0.961 1_655 S
C878 H892 0.961 . S
C879 C876 1.539 . S
C879 H893 0.958 . S
C879 H894 0.961 . S
C879 H895 0.969 . S
H880 C864 0.931 . S
H881 C869 0.929 . S
H882 C870 0.960 1_655 S
H883 C870 0.962 . S
H884 C870 0.960 . S
H885 C871 0.961 . S
H886 C871 0.961 1_655 S
H887 C871 0.961 . S
H888 C872 0.931 . S
H889 C877 0.930 . S
H890 C878 0.983 . S
H891 C878 0.961 1_455 S
H892 C878 0.961 . S
H893 C879 0.958 . S
H894 C879 0.961 . S
H895 C879 0.969 . S
C896 C897 1.391 . S
C896 C898 1.394 . S
C896 H912 0.931 . S
C897 C896 1.391 . S
C897 C901 1.376 . S
C898 C896 1.394 . S
C898 C899 1.369 . S
C898 C902 1.531 . S
C899 C898 1.369 . S
C899 C900 1.410 . S
C899 C907 1.503 . S
C900 C899 1.410 . S
C900 C901 1.392 . S
C900 C903 1.511 . S
C901 C897 1.376 . S
C901 C900 1.392 . S
C901 H913 0.929 . S
C902 C898 1.531 . S
C902 H914 0.960 . S
C902 H915 0.962 . S
C902 H916 0.960 . S
C903 C900 1.511 . S
C903 H917 0.961 . S
C903 H918 0.961 . S
C903 H919 0.961 . S
C904 C905 1.370 . S
C904 C906 1.363 . S
C904 H920 0.931 . S
C905 C904 1.370 . S
C905 C909 1.408 . S
C906 C904 1.363 . S
C906 C907 1.370 . S
C906 C910 1.524 . S
C907 C899 1.503 . S
C907 C906 1.370 . S
C907 C908 1.403 . S
C908 C907 1.403 . S
C908 C909 1.404 . S
C908 C911 1.539 . S
C909 C905 1.408 . S
C909 C908 1.404 . S
C909 H921 0.930 . S
C910 C906 1.524 . S
C910 H922 0.956 . S
C910 H923 0.961 . S
C910 H924 0.961 . S
C911 C908 1.539 . S
C911 H925 0.958 . S
C911 H926 0.961 . S
C911 H927 0.960 . S
H912 C896 0.931 . S
H913 C901 0.929 . S
H914 C902 0.960 . S
H915 C902 0.962 . S
H916 C902 0.960 . S
H917 C903 0.961 . S
H918 C903 0.961 . S
H919 C903 0.961 . S
H920 C904 0.931 . S
H921 C909 0.930 . S
H922 C910 0.956 . S
H923 C910 0.961 . S
H924 C910 0.961 . S
H925 C911 0.958 . S
H926 C911 0.961 . S
H927 C911 0.960 . S
C928 C929 1.391 . S
C928 C930 1.394 . S
C928 H944 0.931 . S
C929 C928 1.391 . S
C929 C933 1.376 . S
C930 C928 1.394 . S
C930 C931 1.369 . S
C930 C934 1.531 . S
C931 C930 1.369 . S
C931 C932 1.410 . S
C931 C939 1.503 1_565 S
C932 C931 1.410 . S
C932 C933 1.392 . S
C932 C935 1.511 . S
C933 C929 1.376 . S
C933 C932 1.392 . S
C933 H945 0.929 . S
C934 C930 1.531 . S
C934 H946 0.960 1_565 S
C934 H947 0.962 . S
C934 H948 0.960 . S
C935 C932 1.511 . S
C935 H949 0.961 . S
C935 H950 0.961 1_565 S
C935 H951 0.961 . S
C936 C937 1.370 . S
C936 C938 1.363 . S
C936 H952 0.931 . S
C937 C936 1.370 . S
C937 C941 1.408 . S
C938 C936 1.363 . S
C938 C939 1.370 . S
C938 C942 1.524 . S
C939 C931 1.503 1_545 S
C939 C938 1.370 . S
C939 C940 1.403 . S
C940 C939 1.403 . S
C940 C941 1.404 . S
C940 C943 1.539 . S
C941 C937 1.408 . S
C941 C940 1.404 . S
C941 H953 0.930 . S
C942 C938 1.524 . S
C942 H954 0.983 . S
C942 H955 0.961 1_545 S
C942 H956 0.961 . S
C943 C940 1.539 . S
C943 H957 0.958 . S
C943 H958 0.961 . S
C943 H959 0.969 . S
H944 C928 0.931 . S
H945 C933 0.929 . S
H946 C934 0.960 1_545 S
H947 C934 0.962 . S
H948 C934 0.960 . S
H949 C935 0.961 . S
H950 C935 0.961 1_545 S
H951 C935 0.961 . S
H952 C936 0.931 . S
H953 C941 0.930 . S
H954 C942 0.983 . S
H955 C942 0.961 1_565 S
H956 C942 0.961 . S
H957 C943 0.958 . S
H958 C943 0.961 . S
H959 C943 0.969 . S
C960 C961 1.391 . S
C960 C962 1.394 . S
C960 H976 0.931 . S
C961 C960 1.391 . S
C961 C965 1.376 . S
C962 C960 1.394 . S
C962 C963 1.369 . S
C962 C966 1.531 . S
C963 C962 1.369 . S
C963 C964 1.410 . S
C963 C971 1.503 . S
C964 C963 1.410 . S
C964 C965 1.392 . S
C964 C967 1.511 . S
C965 C961 1.376 . S
C965 C964 1.392 . S
C965 H977 0.929 . S
C966 C962 1.531 . S
C966 H978 0.960 . S
C966 H979 0.962 . S
C966 H980 0.960 . S
C967 C964 1.511 . S
C967 H981 0.961 . S
C967 H982 0.961 . S
C967 H983 0.961 . S
C968 C969 1.370 . S
C968 C970 1.363 . S
C968 H984 0.931 . S
C969 C968 1.370 . S
C969 C973 1.408 . S
C970 C968 1.363 . S
C970 C971 1.370 . S
C970 C974 1.524 . S
C971 C963 1.503 . S
C971 C970 1.370 . S
C971 C972 1.403 . S
C972 C971 1.403 . S
C972 C973 1.404 . S
C972 C975 1.539 . S
C973 C969 1.408 . S
C973 C972 1.404 . S
C973 H985 0.930 . S
C974 C970 1.524 . S
C974 H986 0.956 . S
C974 H987 0.961 . S
C974 H988 0.961 . S
C975 C972 1.539 . S
C975 H989 0.958 . S
C975 H990 0.961 . S
C975 H991 0.960 . S
H976 C960 0.931 . S
H977 C965 0.929 . S
H978 C966 0.960 . S
H979 C966 0.962 . S
H980 C966 0.960 . S
H981 C967 0.961 . S
H982 C967 0.961 . S
H983 C967 0.961 . S
H984 C968 0.931 . S
H985 C973 0.930 . S
H986 C974 0.956 . S
H987 C974 0.961 . S
H988 C974 0.961 . S
H989 C975 0.958 . S
H990 C975 0.961 . S
H991 C975 0.960 . S
C992 C993 1.391 . S
C992 C994 1.394 . S
C992 H1008 0.931 . S
C993 C992 1.391 . S
C993 C997 1.376 . S
C994 C992 1.394 . S
C994 C995 1.369 . S
C994 C998 1.531 . S
C995 C994 1.369 . S
C995 C996 1.410 . S
C995 C1003 1.503 1_545 S
C996 C995 1.410 . S
C996 C997 1.392 . S
C996 C999 1.511 . S
C997 C993 1.376 . S
C997 C996 1.392 . S
C997 H1009 0.929 . S
C998 C994 1.531 . S
C998 H1010 0.960 1_545 S
C998 H1011 0.962 . S
C998 H1012 0.960 . S
C999 C996 1.511 . S
C999 H1013 0.961 . S
C999 H1014 0.961 1_545 S
C999 H1015 0.961 . S
C1000 C1001 1.370 . S
C1000 C1002 1.363 . S
C1000 H1016 0.931 . S
C1001 C1000 1.370 . S
C1001 C1005 1.408 . S
C1002 C1000 1.363 . S
C1002 C1003 1.370 . S
C1002 C1006 1.524 . S
C1003 C995 1.503 1_565 S
C1003 C1002 1.370 . S
C1003 C1004 1.403 . S
C1004 C1003 1.403 . S
C1004 C1005 1.404 . S
C1004 C1007 1.539 . S
C1005 C1001 1.408 . S
C1005 C1004 1.404 . S
C1005 H1017 0.930 . S
C1006 C1002 1.524 . S
C1006 H1018 0.983 . S
C1006 H1019 0.961 1_565 S
C1006 H1020 0.961 . S
C1007 C1004 1.539 . S
C1007 H1021 0.958 . S
C1007 H1022 0.961 . S
C1007 H1023 0.969 . S
H1008 C992 0.931 . S
H1009 C997 0.929 . S
H1010 C998 0.960 1_565 S
H1011 C998 0.962 . S
H1012 C998 0.960 . S
H1013 C999 0.961 . S
H1014 C999 0.961 1_565 S
H1015 C999 0.961 . S
H1016 C1000 0.931 . S
H1017 C1005 0.930 . S
H1018 C1006 0.983 . S
H1019 C1006 0.961 1_545 S
H1020 C1006 0.961 . S
H1021 C1007 0.958 . S
H1022 C1007 0.961 . S
H1023 C1007 0.969 . S
C1024 C1025 1.391 . S
C1024 C1026 1.394 . S
C1024 H1040 0.931 . S
C1025 C1024 1.391 . S
C1025 C1029 1.376 . S
C1026 C1024 1.394 . S
C1026 C1027 1.369 . S
C1026 C1030 1.531 . S
C1027 C1026 1.369 . S
C1027 C1028 1.410 . S
C1027 C1035 1.503 . S
C1028 C1027 1.410 . S
C1028 C1029 1.392 . S
C1028 C1031 1.511 . S
C1029 C1025 1.376 . S
C1029 C1028 1.392 . S
C1029 H1041 0.929 . S
C1030 C1026 1.531 . S
C1030 H1042 0.960 . S
C1030 H1043 0.962 . S
C1030 H1044 0.960 . S
C1031 C1028 1.511 . S
C1031 H1045 0.961 . S
C1031 H1046 0.961 . S
C1031 H1047 0.961 . S
C1032 C1033 1.370 . S
C1032 C1034 1.363 . S
C1032 H1048 0.931 . S
C1033 C1032 1.370 . S
C1033 C1037 1.408 . S
C1034 C1032 1.363 . S
C1034 C1035 1.370 . S
C1034 C1038 1.524 . S
C1035 C1027 1.503 . S
C1035 C1034 1.370 . S
C1035 C1036 1.403 . S
C1036 C1035 1.403 . S
C1036 C1037 1.404 . S
C1036 C1039 1.539 . S
C1037 C1033 1.408 . S
C1037 C1036 1.404 . S
C1037 H1049 0.930 . S
C1038 C1034 1.524 . S
C1038 H1050 0.956 . S
C1038 H1051 0.961 . S
C1038 H1052 0.961 . S
C1039 C1036 1.539 . S
C1039 H1053 0.958 . S
C1039 H1054 0.961 . S
C1039 H1055 0.960 . S
H1040 C1024 0.931 . S
H1041 C1029 0.929 . S
H1042 C1030 0.960 . S
H1043 C1030 0.962 . S
H1044 C1030 0.960 . S
H1045 C1031 0.961 . S
H1046 C1031 0.961 . S
H1047 C1031 0.961 . S
H1048 C1032 0.931 . S
H1049 C1037 0.930 . S
H1050 C1038 0.956 . S
H1051 C1038 0.961 . S
H1052 C1038 0.961 . S
H1053 C1039 0.958 . S
H1054 C1039 0.961 . S
H1055 C1039 0.960 . S
C1056 C1057 1.391 . S
C1056 C1058 1.394 . S
C1056 H1072 0.931 . S
C1057 C1056 1.391 . S
C1057 C1061 1.376 . S
C1058 C1056 1.394 . S
C1058 C1059 1.369 . S
C1058 C1062 1.531 . S
C1059 C1058 1.369 . S
C1059 C1060 1.410 . S
C1059 C1067 1.503 1_545 S
C1060 C1059 1.410 . S
C1060 C1061 1.392 . S
C1060 C1063 1.511 . S
C1061 C1057 1.376 . S
C1061 C1060 1.392 . S
C1061 H1073 0.929 . S
C1062 C1058 1.531 . S
C1062 H1074 0.960 1_545 S
C1062 H1075 0.962 . S
C1062 H1076 0.960 . S
C1063 C1060 1.511 . S
C1063 H1077 0.961 . S
C1063 H1078 0.961 1_545 S
C1063 H1079 0.961 . S
C1064 C1065 1.370 . S
C1064 C1066 1.363 . S
C1064 H1080 0.931 . S
C1065 C1064 1.370 . S
C1065 C1069 1.408 . S
C1066 C1064 1.363 . S
C1066 C1067 1.370 . S
C1066 C1070 1.524 . S
C1067 C1059 1.503 1_565 S
C1067 C1066 1.370 . S
C1067 C1068 1.403 . S
C1068 C1067 1.403 . S
C1068 C1069 1.404 . S
C1068 C1071 1.539 . S
C1069 C1065 1.408 . S
C1069 C1068 1.404 . S
C1069 H1081 0.930 . S
C1070 C1066 1.524 . S
C1070 H1082 0.983 . S
C1070 H1083 0.961 1_565 S
C1070 H1084 0.961 . S
C1071 C1068 1.539 . S
C1071 H1085 0.958 . S
C1071 H1086 0.961 . S
C1071 H1087 0.969 . S
H1072 C1056 0.931 . S
H1073 C1061 0.929 . S
H1074 C1062 0.960 1_565 S
H1075 C1062 0.962 . S
H1076 C1062 0.960 . S
H1077 C1063 0.961 . S
H1078 C1063 0.961 1_565 S
H1079 C1063 0.961 . S
H1080 C1064 0.931 . S
H1081 C1069 0.930 . S
H1082 C1070 0.983 . S
H1083 C1070 0.961 1_545 S
H1084 C1070 0.961 . S
H1085 C1071 0.958 . S
H1086 C1071 0.961 . S
H1087 C1071 0.969 . S
C1088 C1089 1.391 . S
C1088 C1090 1.394 . S
C1088 H1104 0.931 . S
C1089 C1088 1.391 . S
C1089 C1093 1.376 . S
C1090 C1088 1.394 . S
C1090 C1091 1.369 . S
C1090 C1094 1.531 . S
C1091 C1090 1.369 . S
C1091 C1092 1.410 . S
C1091 C1099 1.503 . S
C1092 C1091 1.410 . S
C1092 C1093 1.392 . S
C1092 C1095 1.511 . S
C1093 C1089 1.376 . S
C1093 C1092 1.392 . S
C1093 H1105 0.929 . S
C1094 C1090 1.531 . S
C1094 H1106 0.960 . S
C1094 H1107 0.962 . S
C1094 H1108 0.960 . S
C1095 C1092 1.511 . S
C1095 H1109 0.961 . S
C1095 H1110 0.961 . S
C1095 H1111 0.961 . S
C1096 C1097 1.370 . S
C1096 C1098 1.363 . S
C1096 H1112 0.931 . S
C1097 C1096 1.370 . S
C1097 C1101 1.408 . S
C1098 C1096 1.363 . S
C1098 C1099 1.370 . S
C1098 C1102 1.524 . S
C1099 C1091 1.503 . S
C1099 C1098 1.370 . S
C1099 C1100 1.403 . S
C1100 C1099 1.403 . S
C1100 C1101 1.404 . S
C1100 C1103 1.539 . S
C1101 C1097 1.408 . S
C1101 C1100 1.404 . S
C1101 H1113 0.930 . S
C1102 C1098 1.524 . S
C1102 H1114 0.956 . S
C1102 H1115 0.961 . S
C1102 H1116 0.961 . S
C1103 C1100 1.539 . S
C1103 H1117 0.958 . S
C1103 H1118 0.961 . S
C1103 H1119 0.960 . S
H1104 C1088 0.931 . S
H1105 C1093 0.929 . S
H1106 C1094 0.960 . S
H1107 C1094 0.962 . S
H1108 C1094 0.960 . S
H1109 C1095 0.961 . S
H1110 C1095 0.961 . S
H1111 C1095 0.961 . S
H1112 C1096 0.931 . S
H1113 C1101 0.930 . S
H1114 C1102 0.956 . S
H1115 C1102 0.961 . S
H1116 C1102 0.961 . S
H1117 C1103 0.958 . S
H1118 C1103 0.961 . S
H1119 C1103 0.960 . S
C1120 C1121 1.391 . S
C1120 C1122 1.394 . S
C1120 H1136 0.931 . S
C1121 C1120 1.391 . S
C1121 C1125 1.376 . S
C1122 C1120 1.394 . S
C1122 C1123 1.369 . S
C1122 C1126 1.531 . S
C1123 C1122 1.369 . S
C1123 C1124 1.410 . S
C1123 C1131 1.503 1_545 S
C1124 C1123 1.410 . S
C1124 C1125 1.392 . S
C1124 C1127 1.511 . S
C1125 C1121 1.376 . S
C1125 C1124 1.392 . S
C1125 H1137 0.929 . S
C1126 C1122 1.531 . S
C1126 H1138 0.960 1_545 S
C1126 H1139 0.962 . S
C1126 H1140 0.960 . S
C1127 C1124 1.511 . S
C1127 H1141 0.961 . S
C1127 H1142 0.961 1_545 S
C1127 H1143 0.961 . S
C1128 C1129 1.370 . S
C1128 C1130 1.363 . S
C1128 H1144 0.931 . S
C1129 C1128 1.370 . S
C1129 C1133 1.408 . S
C1130 C1128 1.363 . S
C1130 C1131 1.370 . S
C1130 C1134 1.524 . S
C1131 C1123 1.503 1_565 S
C1131 C1130 1.370 . S
C1131 C1132 1.403 . S
C1132 C1131 1.403 . S
C1132 C1133 1.404 . S
C1132 C1135 1.539 . S
C1133 C1129 1.408 . S
C1133 C1132 1.404 . S
C1133 H1145 0.930 . S
C1134 C1130 1.524 . S
C1134 H1146 0.983 . S
C1134 H1147 0.961 1_565 S
C1134 H1148 0.961 . S
C1135 C1132 1.539 . S
C1135 H1149 0.958 . S
C1135 H1150 0.961 . S
C1135 H1151 0.969 . S
H1136 C1120 0.931 . S
H1137 C1125 0.929 . S
H1138 C1126 0.960 1_565 S
H1139 C1126 0.962 . S
H1140 C1126 0.960 . S
H1141 C1127 0.961 . S
H1142 C1127 0.961 1_565 S
H1143 C1127 0.961 . S
H1144 C1128 0.931 . S
H1145 C1133 0.930 . S
H1146 C1134 0.983 . S
H1147 C1134 0.961 1_545 S
H1148 C1134 0.961 . S
H1149 C1135 0.958 . S
H1150 C1135 0.961 . S
H1151 C1135 0.969 . S
C1152 C1153 1.391 . S
C1152 C1154 1.394 . S
C1152 H1168 0.931 . S
C1153 C1152 1.391 . S
C1153 C1157 1.376 . S
C1154 C1152 1.394 . S
C1154 C1155 1.369 . S
C1154 C1158 1.531 . S
C1155 C1154 1.369 . S
C1155 C1156 1.410 . S
C1155 C1163 1.503 . S
C1156 C1155 1.410 . S
C1156 C1157 1.392 . S
C1156 C1159 1.511 . S
C1157 C1153 1.376 . S
C1157 C1156 1.392 . S
C1157 H1169 0.929 . S
C1158 C1154 1.531 . S
C1158 H1170 0.960 . S
C1158 H1171 0.962 . S
C1158 H1172 0.960 . S
C1159 C1156 1.511 . S
C1159 H1173 0.961 . S
C1159 H1174 0.961 . S
C1159 H1175 0.961 . S
C1160 C1161 1.370 . S
C1160 C1162 1.363 . S
C1160 H1176 0.931 . S
C1161 C1160 1.370 . S
C1161 C1165 1.408 . S
C1162 C1160 1.363 . S
C1162 C1163 1.370 . S
C1162 C1166 1.524 . S
C1163 C1155 1.503 . S
C1163 C1162 1.370 . S
C1163 C1164 1.403 . S
C1164 C1163 1.403 . S
C1164 C1165 1.404 . S
C1164 C1167 1.539 . S
C1165 C1161 1.408 . S
C1165 C1164 1.404 . S
C1165 H1177 0.930 . S
C1166 C1162 1.524 . S
C1166 H1178 0.956 . S
C1166 H1179 0.961 . S
C1166 H1180 0.961 . S
C1167 C1164 1.539 . S
C1167 H1181 0.958 . S
C1167 H1182 0.961 . S
C1167 H1183 0.960 . S
H1168 C1152 0.931 . S
H1169 C1157 0.929 . S
H1170 C1158 0.960 . S
H1171 C1158 0.962 . S
H1172 C1158 0.960 . S
H1173 C1159 0.961 . S
H1174 C1159 0.961 . S
H1175 C1159 0.961 . S
H1176 C1160 0.931 . S
H1177 C1165 0.930 . S
H1178 C1166 0.956 . S
H1179 C1166 0.961 . S
H1180 C1166 0.961 . S
H1181 C1167 0.958 . S
H1182 C1167 0.961 . S
H1183 C1167 0.960 . S
C1184 C1185 1.391 . S
C1184 C1186 1.394 . S
C1184 H1200 0.931 . S
C1185 C1184 1.391 . S
C1185 C1189 1.376 . S
C1186 C1184 1.394 . S
C1186 C1187 1.369 . S
C1186 C1190 1.531 . S
C1187 C1186 1.369 . S
C1187 C1188 1.410 . S
C1187 C1195 1.503 1_554 S
C1188 C1187 1.410 . S
C1188 C1189 1.392 . S
C1188 C1191 1.511 . S
C1189 C1185 1.376 . S
C1189 C1188 1.392 . S
C1189 H1201 0.929 . S
C1190 C1186 1.531 . S
C1190 H1202 0.960 1_554 S
C1190 H1203 0.962 . S
C1190 H1204 0.960 . S
C1191 C1188 1.511 . S
C1191 H1205 0.961 . S
C1191 H1206 0.961 1_554 S
C1191 H1207 0.961 . S
C1192 C1193 1.370 . S
C1192 C1194 1.363 . S
C1192 H1208 0.931 . S
C1193 C1192 1.370 . S
C1193 C1197 1.408 . S
C1194 C1192 1.363 . S
C1194 C1195 1.370 . S
C1194 C1198 1.524 . S
C1195 C1187 1.503 1_556 S
C1195 C1194 1.370 . S
C1195 C1196 1.403 . S
C1196 C1195 1.403 . S
C1196 C1197 1.404 . S
C1196 C1199 1.539 . S
C1197 C1193 1.408 . S
C1197 C1196 1.404 . S
C1197 H1209 0.930 . S
C1198 C1194 1.524 . S
C1198 H1210 0.983 . S
C1198 H1211 0.961 1_556 S
C1198 H1212 0.961 . S
C1199 C1196 1.539 . S
C1199 H1213 0.958 . S
C1199 H1214 0.961 . S
C1199 H1215 0.969 . S
H1200 C1184 0.931 . S
H1201 C1189 0.929 . S
H1202 C1190 0.960 1_556 S
H1203 C1190 0.962 . S
H1204 C1190 0.960 . S
H1205 C1191 0.961 . S
H1206 C1191 0.961 1_556 S
H1207 C1191 0.961 . S
H1208 C1192 0.931 . S
H1209 C1197 0.930 . S
H1210 C1198 0.983 . S
H1211 C1198 0.961 1_554 S
H1212 C1198 0.961 . S
H1213 C1199 0.958 . S
H1214 C1199 0.961 . S
H1215 C1199 0.969 . S
C1216 C1217 1.391 . S
C1216 C1218 1.394 . S
C1216 H1232 0.931 . S
C1217 C1216 1.391 . S
C1217 C1221 1.376 . S
C1218 C1216 1.394 . S
C1218 C1219 1.369 . S
C1218 C1222 1.531 . S
C1219 C1218 1.369 . S
C1219 C1220 1.410 . S
C1219 C1227 1.503 1_554 S
C1220 C1219 1.410 . S
C1220 C1221 1.392 . S
C1220 C1223 1.511 . S
C1221 C1217 1.376 . S
C1221 C1220 1.392 . S
C1221 H1233 0.929 . S
C1222 C1218 1.531 . S
C1222 H1234 0.960 1_554 S
C1222 H1235 0.962 . S
C1222 H1236 0.960 . S
C1223 C1220 1.511 . S
C1223 H1237 0.961 . S
C1223 H1238 0.961 1_554 S
C1223 H1239 0.961 . S
C1224 C1225 1.370 . S
C1224 C1226 1.363 . S
C1224 H1240 0.931 . S
C1225 C1224 1.370 . S
C1225 C1229 1.408 . S
C1226 C1224 1.363 . S
C1226 C1227 1.370 . S
C1226 C1230 1.524 . S
C1227 C1219 1.503 1_556 S
C1227 C1226 1.370 . S
C1227 C1228 1.403 . S
C1228 C1227 1.403 . S
C1228 C1229 1.404 . S
C1228 C1231 1.539 . S
C1229 C1225 1.408 . S
C1229 C1228 1.404 . S
C1229 H1241 0.930 . S
C1230 C1226 1.524 . S
C1230 H1242 0.983 . S
C1230 H1243 0.961 1_556 S
C1230 H1244 0.961 . S
C1231 C1228 1.539 . S
C1231 H1245 0.958 . S
C1231 H1246 0.961 . S
C1231 H1247 0.969 . S
H1232 C1216 0.931 . S
H1233 C1221 0.929 . S
H1234 C1222 0.960 1_556 S
H1235 C1222 0.962 . S
H1236 C1222 0.960 . S
H1237 C1223 0.961 . S
H1238 C1223 0.961 1_556 S
H1239 C1223 0.961 . S
H1240 C1224 0.931 . S
H1241 C1229 0.930 . S
H1242 C1230 0.983 . S
H1243 C1230 0.961 1_554 S
H1244 C1230 0.961 . S
H1245 C1231 0.958 . S
H1246 C1231 0.961 . S
H1247 C1231 0.969 . S
C1248 C1249 1.391 . S
C1248 C1250 1.394 . S
C1248 H1264 0.931 . S
C1249 C1248 1.391 . S
C1249 C1253 1.376 . S
C1250 C1248 1.394 . S
C1250 C1251 1.369 . S
C1250 C1254 1.531 . S
C1251 C1250 1.369 . S
C1251 C1252 1.410 . S
C1251 C1259 1.503 . S
C1252 C1251 1.410 . S
C1252 C1253 1.392 . S
C1252 C1255 1.511 . S
C1253 C1249 1.376 . S
C1253 C1252 1.392 . S
C1253 H1265 0.929 . S
C1254 C1250 1.531 . S
C1254 H1266 0.960 . S
C1254 H1267 0.962 . S
C1254 H1268 0.960 . S
C1255 C1252 1.511 . S
C1255 H1269 0.961 . S
C1255 H1270 0.961 . S
C1255 H1271 0.961 . S
C1256 C1257 1.370 . S
C1256 C1258 1.363 . S
C1256 H1272 0.931 . S
C1257 C1256 1.370 . S
C1257 C1261 1.408 . S
C1258 C1256 1.363 . S
C1258 C1259 1.370 . S
C1258 C1262 1.524 . S
C1259 C1251 1.503 . S
C1259 C1258 1.370 . S
C1259 C1260 1.403 . S
C1260 C1259 1.403 . S
C1260 C1261 1.404 . S
C1260 C1263 1.539 . S
C1261 C1257 1.408 . S
C1261 C1260 1.404 . S
C1261 H1273 0.930 . S
C1262 C1258 1.524 . S
C1262 H1274 0.956 . S
C1262 H1275 0.961 . S
C1262 H1276 0.961 . S
C1263 C1260 1.539 . S
C1263 H1277 0.958 . S
C1263 H1278 0.961 . S
C1263 H1279 0.960 . S
H1264 C1248 0.931 . S
H1265 C1253 0.929 . S
H1266 C1254 0.960 . S
H1267 C1254 0.962 . S
H1268 C1254 0.960 . S
H1269 C1255 0.961 . S
H1270 C1255 0.961 . S
H1271 C1255 0.961 . S
H1272 C1256 0.931 . S
H1273 C1261 0.930 . S
H1274 C1262 0.956 . S
H1275 C1262 0.961 . S
H1276 C1262 0.961 . S
H1277 C1263 0.958 . S
H1278 C1263 0.961 . S
H1279 C1263 0.960 . S
C1280 C1281 1.391 . S
C1280 C1282 1.394 . S
C1280 H1296 0.931 . S
C1281 C1280 1.391 . S
C1281 C1285 1.376 . S
C1282 C1280 1.394 . S
C1282 C1283 1.369 . S
C1282 C1286 1.531 . S
C1283 C1282 1.369 . S
C1283 C1284 1.410 . S
C1283 C1291 1.503 1_554 S
C1284 C1283 1.410 . S
C1284 C1285 1.392 . S
C1284 C1287 1.511 . S
C1285 C1281 1.376 . S
C1285 C1284 1.392 . S
C1285 H1297 0.929 . S
C1286 C1282 1.531 . S
C1286 H1298 0.960 1_554 S
C1286 H1299 0.962 . S
C1286 H1300 0.960 . S
C1287 C1284 1.511 . S
C1287 H1301 0.961 . S
C1287 H1302 0.961 1_554 S
C1287 H1303 0.961 . S
C1288 C1289 1.370 . S
C1288 C1290 1.363 . S
C1288 H1304 0.931 . S
C1289 C1288 1.370 . S
C1289 C1293 1.408 . S
C1290 C1288 1.363 . S
C1290 C1291 1.370 . S
C1290 C1294 1.524 . S
C1291 C1283 1.503 1_556 S
C1291 C1290 1.370 . S
C1291 C1292 1.403 . S
C1292 C1291 1.403 . S
C1292 C1293 1.404 . S
C1292 C1295 1.539 . S
C1293 C1289 1.408 . S
C1293 C1292 1.404 . S
C1293 H1305 0.930 . S
C1294 C1290 1.524 . S
C1294 H1306 0.983 . S
C1294 H1307 0.961 1_556 S
C1294 H1308 0.961 . S
C1295 C1292 1.539 . S
C1295 H1309 0.958 . S
C1295 H1310 0.961 . S
C1295 H1311 0.969 . S
H1296 C1280 0.931 . S
H1297 C1285 0.929 . S
H1298 C1286 0.960 1_556 S
H1299 C1286 0.962 . S
H1300 C1286 0.960 . S
H1301 C1287 0.961 . S
H1302 C1287 0.961 1_556 S
H1303 C1287 0.961 . S
H1304 C1288 0.931 . S
H1305 C1293 0.930 . S
H1306 C1294 0.983 . S
H1307 C1294 0.961 1_554 S
H1308 C1294 0.961 . S
H1309 C1295 0.958 . S
H1310 C1295 0.961 . S
H1311 C1295 0.969 . S
C1312 C1313 1.391 . S
C1312 C1314 1.394 . S
C1312 H1328 0.931 . S
C1313 C1312 1.391 . S
C1313 C1317 1.376 . S
C1314 C1312 1.394 . S
C1314 C1315 1.369 . S
C1314 C1318 1.531 . S
C1315 C1314 1.369 . S
C1315 C1316 1.410 . S
C1315 C1323 1.503 . S
C1316 C1315 1.410 . S
C1316 C1317 1.392 . S
C1316 C1319 1.511 . S
C1317 C1313 1.376 . S
C1317 C1316 1.392 . S
C1317 H1329 0.929 . S
C1318 C1314 1.531 . S
C1318 H1330 0.960 . S
C1318 H1331 0.962 . S
C1318 H1332 0.960 . S
C1319 C1316 1.511 . S
C1319 H1333 0.961 . S
C1319 H1334 0.961 . S
C1319 H1335 0.961 . S
C1320 C1321 1.370 . S
C1320 C1322 1.363 . S
C1320 H1336 0.931 . S
C1321 C1320 1.370 . S
C1321 C1325 1.408 . S
C1322 C1320 1.363 . S
C1322 C1323 1.370 . S
C1322 C1326 1.524 . S
C1323 C1315 1.503 . S
C1323 C1322 1.370 . S
C1323 C1324 1.403 . S
C1324 C1323 1.403 . S
C1324 C1325 1.404 . S
C1324 C1327 1.539 . S
C1325 C1321 1.408 . S
C1325 C1324 1.404 . S
C1325 H1337 0.930 . S
C1326 C1322 1.524 . S
C1326 H1338 0.956 . S
C1326 H1339 0.961 . S
C1326 H1340 0.961 . S
C1327 C1324 1.539 . S
C1327 H1341 0.958 . S
C1327 H1342 0.961 . S
C1327 H1343 0.960 . S
H1328 C1312 0.931 . S
H1329 C1317 0.929 . S
H1330 C1318 0.960 . S
H1331 C1318 0.962 . S
H1332 C1318 0.960 . S
H1333 C1319 0.961 . S
H1334 C1319 0.961 . S
H1335 C1319 0.961 . S
H1336 C1320 0.931 . S
H1337 C1325 0.930 . S
H1338 C1326 0.956 . S
H1339 C1326 0.961 . S
H1340 C1326 0.961 . S
H1341 C1327 0.958 . S
H1342 C1327 0.961 . S
H1343 C1327 0.960 . S
C1344 C1345 1.391 . S
C1344 C1346 1.394 . S
C1344 H1360 0.931 . S
C1345 C1344 1.391 . S
C1345 C1349 1.376 . S
C1346 C1344 1.394 . S
C1346 C1347 1.369 . S
C1346 C1350 1.531 . S
C1347 C1346 1.369 . S
C1347 C1348 1.410 . S
C1347 C1355 1.503 1_554 S
C1348 C1347 1.410 . S
C1348 C1349 1.392 . S
C1348 C1351 1.511 . S
C1349 C1345 1.376 . S
C1349 C1348 1.392 . S
C1349 H1361 0.929 . S
C1350 C1346 1.531 . S
C1350 H1362 0.960 1_554 S
C1350 H1363 0.962 . S
C1350 H1364 0.960 . S
C1351 C1348 1.511 . S
C1351 H1365 0.961 . S
C1351 H1366 0.961 1_554 S
C1351 H1367 0.961 . S
C1352 C1353 1.370 . S
C1352 C1354 1.363 . S
C1352 H1368 0.931 . S
C1353 C1352 1.370 . S
C1353 C1357 1.408 . S
C1354 C1352 1.363 . S
C1354 C1355 1.370 . S
C1354 C1358 1.524 . S
C1355 C1347 1.503 1_556 S
C1355 C1354 1.370 . S
C1355 C1356 1.403 . S
C1356 C1355 1.403 . S
C1356 C1357 1.404 . S
C1356 C1359 1.539 . S
C1357 C1353 1.408 . S
C1357 C1356 1.404 . S
C1357 H1369 0.930 . S
C1358 C1354 1.524 . S
C1358 H1370 0.983 . S
C1358 H1371 0.961 1_556 S
C1358 H1372 0.961 . S
C1359 C1356 1.539 . S
C1359 H1373 0.958 . S
C1359 H1374 0.961 . S
C1359 H1375 0.969 . S
H1360 C1344 0.931 . S
H1361 C1349 0.929 . S
H1362 C1350 0.960 1_556 S
H1363 C1350 0.962 . S
H1364 C1350 0.960 . S
H1365 C1351 0.961 . S
H1366 C1351 0.961 1_556 S
H1367 C1351 0.961 . S
H1368 C1352 0.931 . S
H1369 C1357 0.930 . S
H1370 C1358 0.983 . S
H1371 C1358 0.961 1_554 S
H1372 C1358 0.961 . S
H1373 C1359 0.958 . S
H1374 C1359 0.961 . S
H1375 C1359 0.969 . S
C1376 C1377 1.391 . S
C1376 C1378 1.394 . S
C1376 H1392 0.931 . S
C1377 C1376 1.391 . S
C1377 C1381 1.376 . S
C1378 C1376 1.394 . S
C1378 C1379 1.369 . S
C1378 C1382 1.531 . S
C1379 C1378 1.369 . S
C1379 C1380 1.410 . S
C1379 C1387 1.503 . S
C1380 C1379 1.410 . S
C1380 C1381 1.392 . S
C1380 C1383 1.511 . S
C1381 C1377 1.376 . S
C1381 C1380 1.392 . S
C1381 H1393 0.929 . S
C1382 C1378 1.531 . S
C1382 H1394 0.960 . S
C1382 H1395 0.962 . S
C1382 H1396 0.960 . S
C1383 C1380 1.511 . S
C1383 H1397 0.961 . S
C1383 H1398 0.961 . S
C1383 H1399 0.961 . S
C1384 C1385 1.370 . S
C1384 C1386 1.363 . S
C1384 H1400 0.931 . S
C1385 C1384 1.370 . S
C1385 C1389 1.408 . S
C1386 C1384 1.363 . S
C1386 C1387 1.370 . S
C1386 C1390 1.524 . S
C1387 C1379 1.503 . S
C1387 C1386 1.370 . S
C1387 C1388 1.403 . S
C1388 C1387 1.403 . S
C1388 C1389 1.404 . S
C1388 C1391 1.539 . S
C1389 C1385 1.408 . S
C1389 C1388 1.404 . S
C1389 H1401 0.930 . S
C1390 C1386 1.524 . S
C1390 H1402 0.956 . S
C1390 H1403 0.961 . S
C1390 H1404 0.961 . S
C1391 C1388 1.539 . S
C1391 H1405 0.958 . S
C1391 H1406 0.961 . S
C1391 H1407 0.960 . S
H1392 C1376 0.931 . S
H1393 C1381 0.929 . S
H1394 C1382 0.960 . S
H1395 C1382 0.962 . S
H1396 C1382 0.960 . S
H1397 C1383 0.961 . S
H1398 C1383 0.961 . S
H1399 C1383 0.961 . S
H1400 C1384 0.931 . S
H1401 C1389 0.930 . S
H1402 C1390 0.956 . S
H1403 C1390 0.961 . S
H1404 C1390 0.961 . S
H1405 C1391 0.958 . S
H1406 C1391 0.961 . S
H1407 C1391 0.960 . S
C1408 C1409 1.391 . S
C1408 C1410 1.394 . S
C1408 H1424 0.931 . S
C1409 C1408 1.391 . S
C1409 C1413 1.376 . S
C1410 C1408 1.394 . S
C1410 C1411 1.369 . S
C1410 C1414 1.531 . S
C1411 C1410 1.369 . S
C1411 C1412 1.410 . S
C1411 C1419 1.503 . S
C1412 C1411 1.410 . S
C1412 C1413 1.392 . S
C1412 C1415 1.511 . S
C1413 C1409 1.376 . S
C1413 C1412 1.392 . S
C1413 H1425 0.929 . S
C1414 C1410 1.531 . S
C1414 H1426 0.960 . S
C1414 H1427 0.962 . S
C1414 H1428 0.960 . S
C1415 C1412 1.511 . S
C1415 H1429 0.961 . S
C1415 H1430 0.961 . S
C1415 H1431 0.961 . S
C1416 C1417 1.370 . S
C1416 C1418 1.363 . S
C1416 H1432 0.931 . S
C1417 C1416 1.370 . S
C1417 C1421 1.408 . S
C1418 C1416 1.363 . S
C1418 C1419 1.370 . S
C1418 C1422 1.524 . S
C1419 C1411 1.503 . S
C1419 C1418 1.370 . S
C1419 C1420 1.403 . S
C1420 C1419 1.403 . S
C1420 C1421 1.404 . S
C1420 C1423 1.539 . S
C1421 C1417 1.408 . S
C1421 C1420 1.404 . S
C1421 H1433 0.930 . S
C1422 C1418 1.524 . S
C1422 H1434 0.956 . S
C1422 H1435 0.961 . S
C1422 H1436 0.961 . S
C1423 C1420 1.539 . S
C1423 H1437 0.958 . S
C1423 H1438 0.961 . S
C1423 H1439 0.960 . S
H1424 C1408 0.931 . S
H1425 C1413 0.929 . S
H1426 C1414 0.960 . S
H1427 C1414 0.962 . S
H1428 C1414 0.960 . S
H1429 C1415 0.961 . S
H1430 C1415 0.961 . S
H1431 C1415 0.961 . S
H1432 C1416 0.931 . S
H1433 C1421 0.930 . S
H1434 C1422 0.956 . S
H1435 C1422 0.961 . S
H1436 C1422 0.961 . S
H1437 C1423 0.958 . S
H1438 C1423 0.961 . S
H1439 C1423 0.960 . S
C1440 C1441 1.391 . S
C1440 C1442 1.394 . S
C1440 H1456 0.931 . S
C1441 C1440 1.391 . S
C1441 C1445 1.376 . S
C1442 C1440 1.394 . S
C1442 C1443 1.369 . S
C1442 C1446 1.531 . S
C1443 C1442 1.369 . S
C1443 C1444 1.410 . S
C1443 C1451 1.503 . S
C1444 C1443 1.410 . S
C1444 C1445 1.392 . S
C1444 C1447 1.511 . S
C1445 C1441 1.376 . S
C1445 C1444 1.392 . S
C1445 H1457 0.929 . S
C1446 C1442 1.531 . S
C1446 H1458 0.960 . S
C1446 H1459 0.962 . S
C1446 H1460 0.960 . S
C1447 C1444 1.511 . S
C1447 H1461 0.961 . S
C1447 H1462 0.961 . S
C1447 H1463 0.961 . S
C1448 C1449 1.370 . S
C1448 C1450 1.363 . S
C1448 H1464 0.931 . S
C1449 C1448 1.370 . S
C1449 C1453 1.408 . S
C1450 C1448 1.363 . S
C1450 C1451 1.370 . S
C1450 C1454 1.524 . S
C1451 C1443 1.503 . S
C1451 C1450 1.370 . S
C1451 C1452 1.403 . S
C1452 C1451 1.403 . S
C1452 C1453 1.404 . S
C1452 C1455 1.539 . S
C1453 C1449 1.408 . S
C1453 C1452 1.404 . S
C1453 H1465 0.930 . S
C1454 C1450 1.524 . S
C1454 H1466 0.956 . S
C1454 H1467 0.961 . S
C1454 H1468 0.961 . S
C1455 C1452 1.539 . S
C1455 H1469 0.958 . S
C1455 H1470 0.961 . S
C1455 H1471 0.960 . S
H1456 C1440 0.931 . S
H1457 C1445 0.929 . S
H1458 C1446 0.960 . S
H1459 C1446 0.962 . S
H1460 C1446 0.960 . S
H1461 C1447 0.961 . S
H1462 C1447 0.961 . S
H1463 C1447 0.961 . S
H1464 C1448 0.931 . S
H1465 C1453 0.930 . S
H1466 C1454 0.956 . S
H1467 C1454 0.961 . S
H1468 C1454 0.961 . S
H1469 C1455 0.958 . S
H1470 C1455 0.961 . S
H1471 C1455 0.960 . S
C1472 C1473 1.391 . S
C1472 C1474 1.394 . S
C1472 H1488 0.931 . S
C1473 C1472 1.391 . S
C1473 C1477 1.376 . S
C1474 C1472 1.394 . S
C1474 C1475 1.369 . S
C1474 C1478 1.531 . S
C1475 C1474 1.369 . S
C1475 C1476 1.410 . S
C1475 C1483 1.503 . S
C1476 C1475 1.410 . S
C1476 C1477 1.392 . S
C1476 C1479 1.511 . S
C1477 C1473 1.376 . S
C1477 C1476 1.392 . S
C1477 H1489 0.929 . S
C1478 C1474 1.531 . S
C1478 H1490 0.960 . S
C1478 H1491 0.962 . S
C1478 H1492 0.960 . S
C1479 C1476 1.511 . S
C1479 H1493 0.961 . S
C1479 H1494 0.961 . S
C1479 H1495 0.961 . S
C1480 C1481 1.370 . S
C1480 C1482 1.363 . S
C1480 H1496 0.931 . S
C1481 C1480 1.370 . S
C1481 C1485 1.408 . S
C1482 C1480 1.363 . S
C1482 C1483 1.370 . S
C1482 C1486 1.524 . S
C1483 C1475 1.503 . S
C1483 C1482 1.370 . S
C1483 C1484 1.403 . S
C1484 C1483 1.403 . S
C1484 C1485 1.404 . S
C1484 C1487 1.539 . S
C1485 C1481 1.408 . S
C1485 C1484 1.404 . S
C1485 H1497 0.930 . S
C1486 C1482 1.524 . S
C1486 H1498 0.956 . S
C1486 H1499 0.961 . S
C1486 H1500 0.961 . S
C1487 C1484 1.539 . S
C1487 H1501 0.958 . S
C1487 H1502 0.961 . S
C1487 H1503 0.960 . S
H1488 C1472 0.931 . S
H1489 C1477 0.929 . S
H1490 C1478 0.960 . S
H1491 C1478 0.962 . S
H1492 C1478 0.960 . S
H1493 C1479 0.961 . S
H1494 C1479 0.961 . S
H1495 C1479 0.961 . S
H1496 C1480 0.931 . S
H1497 C1485 0.930 . S
H1498 C1486 0.956 . S
H1499 C1486 0.961 . S
H1500 C1486 0.961 . S
H1501 C1487 0.958 . S
H1502 C1487 0.961 . S
H1503 C1487 0.960 . S
C1504 C1505 1.391 . S
C1504 C1506 1.394 . S
C1504 H1520 0.931 . S
C1505 C1504 1.391 . S
C1505 C1509 1.376 . S
C1506 C1504 1.394 . S
C1506 C1507 1.369 . S
C1506 C1510 1.531 . S
C1507 C1506 1.369 . S
C1507 C1508 1.410 . S
C1507 C1515 1.503 . S
C1508 C1507 1.410 . S
C1508 C1509 1.392 . S
C1508 C1511 1.511 . S
C1509 C1505 1.376 . S
C1509 C1508 1.392 . S
C1509 H1521 0.929 . S
C1510 C1506 1.531 . S
C1510 H1522 0.960 . S
C1510 H1523 0.962 . S
C1510 H1524 0.960 . S
C1511 C1508 1.511 . S
C1511 H1525 0.961 . S
C1511 H1526 0.961 . S
C1511 H1527 0.961 . S
C1512 C1513 1.370 . S
C1512 C1514 1.363 . S
C1512 H1528 0.931 . S
C1513 C1512 1.370 . S
C1513 C1517 1.408 . S
C1514 C1512 1.363 . S
C1514 C1515 1.370 . S
C1514 C1518 1.524 . S
C1515 C1507 1.503 . S
C1515 C1514 1.370 . S
C1515 C1516 1.403 . S
C1516 C1515 1.403 . S
C1516 C1517 1.404 . S
C1516 C1519 1.539 . S
C1517 C1513 1.408 . S
C1517 C1516 1.404 . S
C1517 H1529 0.930 . S
C1518 C1514 1.524 . S
C1518 H1530 0.956 . S
C1518 H1531 0.961 . S
C1518 H1532 0.961 . S
C1519 C1516 1.539 . S
C1519 H1533 0.958 . S
C1519 H1534 0.961 . S
C1519 H1535 0.960 . S
H1520 C1504 0.931 . S
H1521 C1509 0.929 . S
H1522 C1510 0.960 . S
H1523 C1510 0.962 . S
H1524 C1510 0.960 . S
H1525 C1511 0.961 . S
H1526 C1511 0.961 . S
H1527 C1511 0.961 . S
H1528 C1512 0.931 . S
H1529 C1517 0.930 . S
H1530 C1518 0.956 . S
H1531 C1518 0.961 . S
H1532 C1518 0.961 . S
H1533 C1519 0.958 . S
H1534 C1519 0.961 . S
H1535 C1519 0.960 . S
C1536 C1537 1.391 . S
C1536 C1538 1.394 . S
C1536 H1552 0.931 . S
C1537 C1536 1.391 . S
C1537 C1541 1.376 . S
C1538 C1536 1.394 . S
C1538 C1539 1.369 . S
C1538 C1542 1.531 . S
C1539 C1538 1.369 . S
C1539 C1540 1.410 . S
C1539 C1547 1.503 . S
C1540 C1539 1.410 . S
C1540 C1541 1.392 . S
C1540 C1543 1.511 . S
C1541 C1537 1.376 . S
C1541 C1540 1.392 . S
C1541 H1553 0.929 . S
C1542 C1538 1.531 . S
C1542 H1554 0.960 . S
C1542 H1555 0.962 . S
C1542 H1556 0.960 . S
C1543 C1540 1.511 . S
C1543 H1557 0.961 . S
C1543 H1558 0.961 . S
C1543 H1559 0.961 . S
C1544 C1545 1.370 . S
C1544 C1546 1.363 . S
C1544 H1560 0.931 . S
C1545 C1544 1.370 . S
C1545 C1549 1.408 . S
C1546 C1544 1.363 . S
C1546 C1547 1.370 . S
C1546 C1550 1.524 . S
C1547 C1539 1.503 . S
C1547 C1546 1.370 . S
C1547 C1548 1.403 . S
C1548 C1547 1.403 . S
C1548 C1549 1.404 . S
C1548 C1551 1.539 . S
C1549 C1545 1.408 . S
C1549 C1548 1.404 . S
C1549 H1561 0.930 . S
C1550 C1546 1.524 . S
C1550 H1562 0.956 . S
C1550 H1563 0.961 . S
C1550 H1564 0.961 . S
C1551 C1548 1.539 . S
C1551 H1565 0.958 . S
C1551 H1566 0.961 . S
C1551 H1567 0.960 . S
H1552 C1536 0.931 . S
H1553 C1541 0.929 . S
H1554 C1542 0.960 . S
H1555 C1542 0.962 . S
H1556 C1542 0.960 . S
H1557 C1543 0.961 . S
H1558 C1543 0.961 . S
H1559 C1543 0.961 . S
H1560 C1544 0.931 . S
H1561 C1549 0.930 . S
H1562 C1550 0.956 . S
H1563 C1550 0.961 . S
H1564 C1550 0.961 . S
H1565 C1551 0.958 . S
H1566 C1551 0.961 . S
H1567 C1551 0.960 . S
C1568 C1569 1.391 . S
C1568 C1570 1.394 . S
C1568 H1584 0.931 . S
C1569 C1568 1.391 . S
C1569 C1573 1.376 . S
C1570 C1568 1.394 . S
C1570 C1571 1.369 . S
C1570 C1574 1.531 . S
C1571 C1570 1.369 . S
C1571 C1572 1.410 . S
C1571 C1579 1.503 . S
C1572 C1571 1.410 . S
C1572 C1573 1.392 . S
C1572 C1575 1.511 . S
C1573 C1569 1.376 . S
C1573 C1572 1.392 . S
C1573 H1585 0.929 . S
C1574 C1570 1.531 . S
C1574 H1586 0.960 . S
C1574 H1587 0.962 . S
C1574 H1588 0.960 . S
C1575 C1572 1.511 . S
C1575 H1589 0.961 . S
C1575 H1590 0.961 . S
C1575 H1591 0.961 . S
C1576 C1577 1.370 . S
C1576 C1578 1.363 . S
C1576 H1592 0.931 . S
C1577 C1576 1.370 . S
C1577 C1581 1.408 . S
C1578 C1576 1.363 . S
C1578 C1579 1.370 . S
C1578 C1582 1.524 . S
C1579 C1571 1.503 . S
C1579 C1578 1.370 . S
C1579 C1580 1.403 . S
C1580 C1579 1.403 . S
C1580 C1581 1.404 . S
C1580 C1583 1.539 . S
C1581 C1577 1.408 . S
C1581 C1580 1.404 . S
C1581 H1593 0.930 . S
C1582 C1578 1.524 . S
C1582 H1594 0.956 . S
C1582 H1595 0.961 . S
C1582 H1596 0.961 . S
C1583 C1580 1.539 . S
C1583 H1597 0.958 . S
C1583 H1598 0.961 . S
C1583 H1599 0.960 . S
H1584 C1568 0.931 . S
H1585 C1573 0.929 . S
H1586 C1574 0.960 . S
H1587 C1574 0.962 . S
H1588 C1574 0.960 . S
H1589 C1575 0.961 . S
H1590 C1575 0.961 . S
H1591 C1575 0.961 . S
H1592 C1576 0.931 . S
H1593 C1581 0.930 . S
H1594 C1582 0.956 . S
H1595 C1582 0.961 . S
H1596 C1582 0.961 . S
H1597 C1583 0.958 . S
H1598 C1583 0.961 . S
H1599 C1583 0.960 . S
C1600 C1601 1.391 . S
C1600 C1602 1.394 . S
C1600 H1616 0.931 . S
C1601 C1600 1.391 . S
C1601 C1605 1.376 . S
C1602 C1600 1.394 . S
C1602 C1603 1.369 . S
C1602 C1606 1.531 . S
C1603 C1602 1.369 . S
C1603 C1604 1.410 . S
C1603 C1611 1.503 . S
C1604 C1603 1.410 . S
C1604 C1605 1.392 . S
C1604 C1607 1.511 . S
C1605 C1601 1.376 . S
C1605 C1604 1.392 . S
C1605 H1617 0.929 . S
C1606 C1602 1.531 . S
C1606 H1618 0.960 . S
C1606 H1619 0.962 . S
C1606 H1620 0.960 . S
C1607 C1604 1.511 . S
C1607 H1621 0.961 . S
C1607 H1622 0.961 . S
C1607 H1623 0.961 . S
C1608 C1609 1.370 . S
C1608 C1610 1.363 . S
C1608 H1624 0.931 . S
C1609 C1608 1.370 . S
C1609 C1613 1.408 . S
C1610 C1608 1.363 . S
C1610 C1611 1.370 . S
C1610 C1614 1.524 . S
C1611 C1603 1.503 . S
C1611 C1610 1.370 . S
C1611 C1612 1.403 . S
C1612 C1611 1.403 . S
C1612 C1613 1.404 . S
C1612 C1615 1.539 . S
C1613 C1609 1.408 . S
C1613 C1612 1.404 . S
C1613 H1625 0.930 . S
C1614 C1610 1.524 . S
C1614 H1626 0.956 . S
C1614 H1627 0.961 . S
C1614 H1628 0.961 . S
C1615 C1612 1.539 . S
C1615 H1629 0.958 . S
C1615 H1630 0.961 . S
C1615 H1631 0.960 . S
H1616 C1600 0.931 . S
H1617 C1605 0.929 . S
H1618 C1606 0.960 . S
H1619 C1606 0.962 . S
H1620 C1606 0.960 . S
H1621 C1607 0.961 . S
H1622 C1607 0.961 . S
H1623 C1607 0.961 . S
H1624 C1608 0.931 . S
H1625 C1613 0.930 . S
H1626 C1614 0.956 . S
H1627 C1614 0.961 . S
H1628 C1614 0.961 . S
H1629 C1615 0.958 . S
H1630 C1615 0.961 . S
H1631 C1615 0.960 . S
C1632 C1633 1.391 . S
C1632 C1634 1.394 . S
C1632 H1648 0.931 . S
C1633 C1632 1.391 . S
C1633 C1637 1.376 . S
C1634 C1632 1.394 . S
C1634 C1635 1.369 . S
C1634 C1638 1.531 . S
C1635 C1634 1.369 . S
C1635 C1636 1.410 . S
C1635 C1643 1.503 . S
C1636 C1635 1.410 . S
C1636 C1637 1.392 . S
C1636 C1639 1.511 . S
C1637 C1633 1.376 . S
C1637 C1636 1.392 . S
C1637 H1649 0.929 . S
C1638 C1634 1.531 . S
C1638 H1650 0.960 . S
C1638 H1651 0.962 . S
C1638 H1652 0.960 . S
C1639 C1636 1.511 . S
C1639 H1653 0.961 . S
C1639 H1654 0.961 . S
C1639 H1655 0.961 . S
C1640 C1641 1.370 . S
C1640 C1642 1.363 . S
C1640 H1656 0.931 . S
C1641 C1640 1.370 . S
C1641 C1645 1.408 . S
C1642 C1640 1.363 . S
C1642 C1643 1.370 . S
C1642 C1646 1.524 . S
C1643 C1635 1.503 . S
C1643 C1642 1.370 . S
C1643 C1644 1.403 . S
C1644 C1643 1.403 . S
C1644 C1645 1.404 . S
C1644 C1647 1.539 . S
C1645 C1641 1.408 . S
C1645 C1644 1.404 . S
C1645 H1657 0.930 . S
C1646 C1642 1.524 . S
C1646 H1658 0.956 . S
C1646 H1659 0.961 . S
C1646 H1660 0.961 . S
C1647 C1644 1.539 . S
C1647 H1661 0.958 . S
C1647 H1662 0.961 . S
C1647 H1663 0.960 . S
H1648 C1632 0.931 . S
H1649 C1637 0.929 . S
H1650 C1638 0.960 . S
H1651 C1638 0.962 . S
H1652 C1638 0.960 . S
H1653 C1639 0.961 . S
H1654 C1639 0.961 . S
H1655 C1639 0.961 . S
H1656 C1640 0.931 . S
H1657 C1645 0.930 . S
H1658 C1646 0.956 . S
H1659 C1646 0.961 . S
H1660 C1646 0.961 . S
H1661 C1647 0.958 . S
H1662 C1647 0.961 . S
H1663 C1647 0.960 . S
C1664 C1665 1.391 . S
C1664 C1666 1.394 . S
C1664 H1680 0.931 . S
C1665 C1664 1.391 . S
C1665 C1669 1.376 . S
C1666 C1664 1.394 . S
C1666 C1667 1.369 . S
C1666 C1670 1.531 . S
C1667 C1666 1.369 . S
C1667 C1668 1.410 . S
C1667 C1675 1.503 . S
C1668 C1667 1.410 . S
C1668 C1669 1.392 . S
C1668 C1671 1.511 . S
C1669 C1665 1.376 . S
C1669 C1668 1.392 . S
C1669 H1681 0.929 . S
C1670 C1666 1.531 . S
C1670 H1682 0.960 . S
C1670 H1683 0.962 . S
C1670 H1684 0.960 . S
C1671 C1668 1.511 . S
C1671 H1685 0.961 . S
C1671 H1686 0.961 . S
C1671 H1687 0.961 . S
C1672 C1673 1.370 . S
C1672 C1674 1.363 . S
C1672 H1688 0.931 . S
C1673 C1672 1.370 . S
C1673 C1677 1.408 . S
C1674 C1672 1.363 . S
C1674 C1675 1.370 . S
C1674 C1678 1.524 . S
C1675 C1667 1.503 . S
C1675 C1674 1.370 . S
C1675 C1676 1.403 . S
C1676 C1675 1.403 . S
C1676 C1677 1.404 . S
C1676 C1679 1.539 . S
C1677 C1673 1.408 . S
C1677 C1676 1.404 . S
C1677 H1689 0.930 . S
C1678 C1674 1.524 . S
C1678 H1690 0.956 . S
C1678 H1691 0.961 . S
C1678 H1692 0.961 . S
C1679 C1676 1.539 . S
C1679 H1693 0.958 . S
C1679 H1694 0.961 . S
C1679 H1695 0.960 . S
H1680 C1664 0.931 . S
H1681 C1669 0.929 . S
H1682 C1670 0.960 . S
H1683 C1670 0.962 . S
H1684 C1670 0.960 . S
H1685 C1671 0.961 . S
H1686 C1671 0.961 . S
H1687 C1671 0.961 . S
H1688 C1672 0.931 . S
H1689 C1677 0.930 . S
H1690 C1678 0.956 . S
H1691 C1678 0.961 . S
H1692 C1678 0.961 . S
H1693 C1679 0.958 . S
H1694 C1679 0.961 . S
H1695 C1679 0.960 . S
C1696 C1697 1.391 . S
C1696 C1698 1.394 . S
C1696 H1712 0.931 . S
C1697 C1696 1.391 . S
C1697 C1701 1.376 . S
C1698 C1696 1.394 . S
C1698 C1699 1.369 . S
C1698 C1702 1.531 . S
C1699 C1698 1.369 . S
C1699 C1700 1.410 . S
C1699 C1707 1.503 . S
C1700 C1699 1.410 . S
C1700 C1701 1.392 . S
C1700 C1703 1.511 . S
C1701 C1697 1.376 . S
C1701 C1700 1.392 . S
C1701 H1713 0.929 . S
C1702 C1698 1.531 . S
C1702 H1714 0.960 . S
C1702 H1715 0.962 . S
C1702 H1716 0.960 . S
C1703 C1700 1.511 . S
C1703 H1717 0.961 . S
C1703 H1718 0.961 . S
C1703 H1719 0.961 . S
C1704 C1705 1.370 . S
C1704 C1706 1.363 . S
C1704 H1720 0.931 . S
C1705 C1704 1.370 . S
C1705 C1709 1.408 . S
C1706 C1704 1.363 . S
C1706 C1707 1.370 . S
C1706 C1710 1.524 . S
C1707 C1699 1.503 . S
C1707 C1706 1.370 . S
C1707 C1708 1.403 . S
C1708 C1707 1.403 . S
C1708 C1709 1.404 . S
C1708 C1711 1.539 . S
C1709 C1705 1.408 . S
C1709 C1708 1.404 . S
C1709 H1721 0.930 . S
C1710 C1706 1.524 . S
C1710 H1722 0.956 . S
C1710 H1723 0.961 . S
C1710 H1724 0.961 . S
C1711 C1708 1.539 . S
C1711 H1725 0.958 . S
C1711 H1726 0.961 . S
C1711 H1727 0.960 . S
H1712 C1696 0.931 . S
H1713 C1701 0.929 . S
H1714 C1702 0.960 . S
H1715 C1702 0.962 . S
H1716 C1702 0.960 . S
H1717 C1703 0.961 . S
H1718 C1703 0.961 . S
H1719 C1703 0.961 . S
H1720 C1704 0.931 . S
H1721 C1709 0.930 . S
H1722 C1710 0.956 . S
H1723 C1710 0.961 . S
H1724 C1710 0.961 . S
H1725 C1711 0.958 . S
H1726 C1711 0.961 . S
H1727 C1711 0.960 . S
C1728 C1729 1.391 . S
C1728 C1730 1.394 . S
C1728 H1744 0.931 . S
C1729 C1728 1.391 . S
C1729 C1733 1.376 . S
C1730 C1728 1.394 . S
C1730 C1731 1.369 . S
C1730 C1734 1.531 . S
C1731 C1730 1.369 . S
C1731 C1732 1.410 . S
C1731 C1739 1.503 . S
C1732 C1731 1.410 . S
C1732 C1733 1.392 . S
C1732 C1735 1.511 . S
C1733 C1729 1.376 . S
C1733 C1732 1.392 . S
C1733 H1745 0.929 . S
C1734 C1730 1.531 . S
C1734 H1746 0.960 . S
C1734 H1747 0.962 . S
C1734 H1748 0.960 . S
C1735 C1732 1.511 . S
C1735 H1749 0.961 . S
C1735 H1750 0.961 . S
C1735 H1751 0.961 . S
C1736 C1737 1.370 . S
C1736 C1738 1.363 . S
C1736 H1752 0.931 . S
C1737 C1736 1.370 . S
C1737 C1741 1.408 . S
C1738 C1736 1.363 . S
C1738 C1739 1.370 . S
C1738 C1742 1.524 . S
C1739 C1731 1.503 . S
C1739 C1738 1.370 . S
C1739 C1740 1.403 . S
C1740 C1739 1.403 . S
C1740 C1741 1.404 . S
C1740 C1743 1.539 . S
C1741 C1737 1.408 . S
C1741 C1740 1.404 . S
C1741 H1753 0.930 . S
C1742 C1738 1.524 . S
C1742 H1754 0.956 . S
C1742 H1755 0.961 . S
C1742 H1756 0.961 . S
C1743 C1740 1.539 . S
C1743 H1757 0.958 . S
C1743 H1758 0.961 . S
C1743 H1759 0.960 . S
H1744 C1728 0.931 . S
H1745 C1733 0.929 . S
H1746 C1734 0.960 . S
H1747 C1734 0.962 . S
H1748 C1734 0.960 . S
H1749 C1735 0.961 . S
H1750 C1735 0.961 . S
H1751 C1735 0.961 . S
H1752 C1736 0.931 . S
H1753 C1741 0.930 . S
H1754 C1742 0.956 . S
H1755 C1742 0.961 . S
H1756 C1742 0.961 . S
H1757 C1743 0.958 . S
H1758 C1743 0.961 . S
H1759 C1743 0.960 . S
C1760 C1761 1.391 . S
C1760 C1762 1.394 . S
C1760 H1776 0.931 . S
C1761 C1760 1.391 . S
C1761 C1765 1.376 . S
C1762 C1760 1.394 . S
C1762 C1763 1.369 . S
C1762 C1766 1.531 . S
C1763 C1762 1.369 . S
C1763 C1764 1.410 . S
C1763 C1771 1.503 . S
C1764 C1763 1.410 . S
C1764 C1765 1.392 . S
C1764 C1767 1.511 . S
C1765 C1761 1.376 . S
C1765 C1764 1.392 . S
C1765 H1777 0.929 . S
C1766 C1762 1.531 . S
C1766 H1778 0.960 . S
C1766 H1779 0.962 . S
C1766 H1780 0.960 . S
C1767 C1764 1.511 . S
C1767 H1781 0.961 . S
C1767 H1782 0.961 . S
C1767 H1783 0.961 . S
C1768 C1769 1.370 . S
C1768 C1770 1.363 . S
C1768 H1784 0.931 . S
C1769 C1768 1.370 . S
C1769 C1773 1.408 . S
C1770 C1768 1.363 . S
C1770 C1771 1.370 . S
C1770 C1774 1.524 . S
C1771 C1763 1.503 . S
C1771 C1770 1.370 . S
C1771 C1772 1.403 . S
C1772 C1771 1.403 . S
C1772 C1773 1.404 . S
C1772 C1775 1.539 . S
C1773 C1769 1.408 . S
C1773 C1772 1.404 . S
C1773 H1785 0.930 . S
C1774 C1770 1.524 . S
C1774 H1786 0.956 . S
C1774 H1787 0.961 . S
C1774 H1788 0.961 . S
C1775 C1772 1.539 . S
C1775 H1789 0.958 . S
C1775 H1790 0.961 . S
C1775 H1791 0.960 . S
H1776 C1760 0.931 . S
H1777 C1765 0.929 . S
H1778 C1766 0.960 . S
H1779 C1766 0.962 . S
H1780 C1766 0.960 . S
H1781 C1767 0.961 . S
H1782 C1767 0.961 . S
H1783 C1767 0.961 . S
H1784 C1768 0.931 . S
H1785 C1773 0.930 . S
H1786 C1774 0.956 . S
H1787 C1774 0.961 . S
H1788 C1774 0.961 . S
H1789 C1775 0.958 . S
H1790 C1775 0.961 . S
H1791 C1775 0.960 . S
C1792 C1793 1.391 . S
C1792 C1794 1.394 . S
C1792 H1808 0.931 . S
C1793 C1792 1.391 . S
C1793 C1797 1.376 . S
C1794 C1792 1.394 . S
C1794 C1795 1.369 . S
C1794 C1798 1.531 . S
C1795 C1794 1.369 . S
C1795 C1796 1.410 . S
C1795 C1803 1.503 . S
C1796 C1795 1.410 . S
C1796 C1797 1.392 . S
C1796 C1799 1.511 . S
C1797 C1793 1.376 . S
C1797 C1796 1.392 . S
C1797 H1809 0.929 . S
C1798 C1794 1.531 . S
C1798 H1810 0.960 . S
C1798 H1811 0.962 . S
C1798 H1812 0.960 . S
C1799 C1796 1.511 . S
C1799 H1813 0.961 . S
C1799 H1814 0.961 . S
C1799 H1815 0.961 . S
C1800 C1801 1.370 . S
C1800 C1802 1.363 . S
C1800 H1816 0.931 . S
C1801 C1800 1.370 . S
C1801 C1805 1.408 . S
C1802 C1800 1.363 . S
C1802 C1803 1.370 . S
C1802 C1806 1.524 . S
C1803 C1795 1.503 . S
C1803 C1802 1.370 . S
C1803 C1804 1.403 . S
C1804 C1803 1.403 . S
C1804 C1805 1.404 . S
C1804 C1807 1.539 . S
C1805 C1801 1.408 . S
C1805 C1804 1.404 . S
C1805 H1817 0.930 . S
C1806 C1802 1.524 . S
C1806 H1818 0.956 . S
C1806 H1819 0.961 . S
C1806 H1820 0.961 . S
C1807 C1804 1.539 . S
C1807 H1821 0.958 . S
C1807 H1822 0.961 . S
C1807 H1823 0.960 . S
H1808 C1792 0.931 . S
H1809 C1797 0.929 . S
H1810 C1798 0.960 . S
H1811 C1798 0.962 . S
H1812 C1798 0.960 . S
H1813 C1799 0.961 . S
H1814 C1799 0.961 . S
H1815 C1799 0.961 . S
H1816 C1800 0.931 . S
H1817 C1805 0.930 . S
H1818 C1806 0.956 . S
H1819 C1806 0.961 . S
H1820 C1806 0.961 . S
H1821 C1807 0.958 . S
H1822 C1807 0.961 . S
H1823 C1807 0.960 . S
C1824 C1825 1.391 . S
C1824 C1826 1.394 . S
C1824 H1840 0.931 . S
C1825 C1824 1.391 . S
C1825 C1829 1.376 . S
C1826 C1824 1.394 . S
C1826 C1827 1.369 . S
C1826 C1830 1.531 . S
C1827 C1826 1.369 . S
C1827 C1828 1.410 . S
C1827 C1835 1.503 . S
C1828 C1827 1.410 . S
C1828 C1829 1.392 . S
C1828 C1831 1.511 . S
C1829 C1825 1.376 . S
C1829 C1828 1.392 . S
C1829 H1841 0.929 . S
C1830 C1826 1.531 . S
C1830 H1842 0.960 . S
C1830 H1843 0.962 . S
C1830 H1844 0.960 . S
C1831 C1828 1.511 . S
C1831 H1845 0.961 . S
C1831 H1846 0.961 . S
C1831 H1847 0.961 . S
C1832 C1833 1.370 . S
C1832 C1834 1.363 . S
C1832 H1848 0.931 . S
C1833 C1832 1.370 . S
C1833 C1837 1.408 . S
C1834 C1832 1.363 . S
C1834 C1835 1.370 . S
C1834 C1838 1.524 . S
C1835 C1827 1.503 . S
C1835 C1834 1.370 . S
C1835 C1836 1.403 . S
C1836 C1835 1.403 . S
C1836 C1837 1.404 . S
C1836 C1839 1.539 . S
C1837 C1833 1.408 . S
C1837 C1836 1.404 . S
C1837 H1849 0.930 . S
C1838 C1834 1.524 . S
C1838 H1850 0.956 . S
C1838 H1851 0.961 . S
C1838 H1852 0.961 . S
C1839 C1836 1.539 . S
C1839 H1853 0.958 . S
C1839 H1854 0.961 . S
C1839 H1855 0.960 . S
H1840 C1824 0.931 . S
H1841 C1829 0.929 . S
H1842 C1830 0.960 . S
H1843 C1830 0.962 . S
H1844 C1830 0.960 . S
H1845 C1831 0.961 . S
H1846 C1831 0.961 . S
H1847 C1831 0.961 . S
H1848 C1832 0.931 . S
H1849 C1837 0.930 . S
H1850 C1838 0.956 . S
H1851 C1838 0.961 . S
H1852 C1838 0.961 . S
H1853 C1839 0.958 . S
H1854 C1839 0.961 . S
H1855 C1839 0.960 . S
C1856 C1857 1.391 . S
C1856 C1858 1.394 . S
C1856 H1872 0.931 . S
C1857 C1856 1.391 . S
C1857 C1861 1.376 . S
C1858 C1856 1.394 . S
C1858 C1859 1.369 . S
C1858 C1862 1.531 . S
C1859 C1858 1.369 . S
C1859 C1860 1.410 . S
C1859 C1867 1.503 . S
C1860 C1859 1.410 . S
C1860 C1861 1.392 . S
C1860 C1863 1.511 . S
C1861 C1857 1.376 . S
C1861 C1860 1.392 . S
C1861 H1873 0.929 . S
C1862 C1858 1.531 . S
C1862 H1874 0.960 . S
C1862 H1875 0.962 . S
C1862 H1876 0.960 . S
C1863 C1860 1.511 . S
C1863 H1877 0.961 . S
C1863 H1878 0.961 . S
C1863 H1879 0.961 . S
C1864 C1865 1.370 . S
C1864 C1866 1.363 . S
C1864 H1880 0.931 . S
C1865 C1864 1.370 . S
C1865 C1869 1.408 . S
C1866 C1864 1.363 . S
C1866 C1867 1.370 . S
C1866 C1870 1.524 . S
C1867 C1859 1.503 . S
C1867 C1866 1.370 . S
C1867 C1868 1.403 . S
C1868 C1867 1.403 . S
C1868 C1869 1.404 . S
C1868 C1871 1.539 . S
C1869 C1865 1.408 . S
C1869 C1868 1.404 . S
C1869 H1881 0.930 . S
C1870 C1866 1.524 . S
C1870 H1882 0.956 . S
C1870 H1883 0.961 . S
C1870 H1884 0.961 . S
C1871 C1868 1.539 . S
C1871 H1885 0.958 . S
C1871 H1886 0.961 . S
C1871 H1887 0.960 . S
H1872 C1856 0.931 . S
H1873 C1861 0.929 . S
H1874 C1862 0.960 . S
H1875 C1862 0.962 . S
H1876 C1862 0.960 . S
H1877 C1863 0.961 . S
H1878 C1863 0.961 . S
H1879 C1863 0.961 . S
H1880 C1864 0.931 . S
H1881 C1869 0.930 . S
H1882 C1870 0.956 . S
H1883 C1870 0.961 . S
H1884 C1870 0.961 . S
H1885 C1871 0.958 . S
H1886 C1871 0.961 . S
H1887 C1871 0.960 . S
C1888 C1889 1.391 . S
C1888 C1890 1.394 . S
C1888 H1904 0.931 . S
C1889 C1888 1.391 . S
C1889 C1893 1.376 . S
C1890 C1888 1.394 . S
C1890 C1891 1.369 . S
C1890 C1894 1.531 . S
C1891 C1890 1.369 . S
C1891 C1892 1.410 . S
C1891 C1899 1.503 . S
C1892 C1891 1.410 . S
C1892 C1893 1.392 . S
C1892 C1895 1.511 . S
C1893 C1889 1.376 . S
C1893 C1892 1.392 . S
C1893 H1905 0.929 . S
C1894 C1890 1.531 . S
C1894 H1906 0.960 . S
C1894 H1907 0.962 . S
C1894 H1908 0.960 . S
C1895 C1892 1.511 . S
C1895 H1909 0.961 . S
C1895 H1910 0.961 . S
C1895 H1911 0.961 . S
C1896 C1897 1.370 . S
C1896 C1898 1.363 . S
C1896 H1912 0.931 . S
C1897 C1896 1.370 . S
C1897 C1901 1.408 . S
C1898 C1896 1.363 . S
C1898 C1899 1.370 . S
C1898 C1902 1.524 . S
C1899 C1891 1.503 . S
C1899 C1898 1.370 . S
C1899 C1900 1.403 . S
C1900 C1899 1.403 . S
C1900 C1901 1.404 . S
C1900 C1903 1.539 . S
C1901 C1897 1.408 . S
C1901 C1900 1.404 . S
C1901 H1913 0.930 . S
C1902 C1898 1.524 . S
C1902 H1914 0.956 . S
C1902 H1915 0.961 . S
C1902 H1916 0.961 . S
C1903 C1900 1.539 . S
C1903 H1917 0.958 . S
C1903 H1918 0.961 . S
C1903 H1919 0.960 . S
H1904 C1888 0.931 . S
H1905 C1893 0.929 . S
H1906 C1894 0.960 . S
H1907 C1894 0.962 . S
H1908 C1894 0.960 . S
H1909 C1895 0.961 . S
H1910 C1895 0.961 . S
H1911 C1895 0.961 . S
H1912 C1896 0.931 . S
H1913 C1901 0.930 . S
H1914 C1902 0.956 . S
H1915 C1902 0.961 . S
H1916 C1902 0.961 . S
H1917 C1903 0.958 . S
H1918 C1903 0.961 . S
H1919 C1903 0.960 . S
C1920 C1921 1.391 . S
C1920 C1922 1.394 . S
C1920 H1936 0.931 . S
C1921 C1920 1.391 . S
C1921 C1925 1.376 . S
C1922 C1920 1.394 . S
C1922 C1923 1.369 . S
C1922 C1926 1.531 . S
C1923 C1922 1.369 . S
C1923 C1924 1.410 . S
C1923 C1931 1.503 . S
C1924 C1923 1.410 . S
C1924 C1925 1.392 . S
C1924 C1927 1.511 . S
C1925 C1921 1.376 . S
C1925 C1924 1.392 . S
C1925 H1937 0.929 . S
C1926 C1922 1.531 . S
C1926 H1938 0.960 . S
C1926 H1939 0.962 . S
C1926 H1940 0.960 . S
C1927 C1924 1.511 . S
C1927 H1941 0.961 . S
C1927 H1942 0.961 . S
C1927 H1943 0.961 . S
C1928 C1929 1.370 . S
C1928 C1930 1.363 . S
C1928 H1944 0.931 . S
C1929 C1928 1.370 . S
C1929 C1933 1.408 . S
C1930 C1928 1.363 . S
C1930 C1931 1.370 . S
C1930 C1934 1.524 . S
C1931 C1923 1.503 . S
C1931 C1930 1.370 . S
C1931 C1932 1.403 . S
C1932 C1931 1.403 . S
C1932 C1933 1.404 . S
C1932 C1935 1.539 . S
C1933 C1929 1.408 . S
C1933 C1932 1.404 . S
C1933 H1945 0.930 . S
C1934 C1930 1.524 . S
C1934 H1946 0.956 . S
C1934 H1947 0.961 . S
C1934 H1948 0.961 . S
C1935 C1932 1.539 . S
C1935 H1949 0.958 . S
C1935 H1950 0.961 . S
C1935 H1951 0.960 . S
H1936 C1920 0.931 . S
H1937 C1925 0.929 . S
H1938 C1926 0.960 . S
H1939 C1926 0.962 . S
H1940 C1926 0.960 . S
H1941 C1927 0.961 . S
H1942 C1927 0.961 . S
H1943 C1927 0.961 . S
H1944 C1928 0.931 . S
H1945 C1933 0.930 . S
H1946 C1934 0.956 . S
H1947 C1934 0.961 . S
H1948 C1934 0.961 . S
H1949 C1935 0.958 . S
H1950 C1935 0.961 . S
H1951 C1935 0.960 . S
C1952 C1953 1.391 . S
C1952 C1954 1.394 . S
C1952 H1968 0.931 . S
C1953 C1952 1.391 . S
C1953 C1957 1.376 . S
C1954 C1952 1.394 . S
C1954 C1955 1.369 . S
C1954 C1958 1.531 . S
C1955 C1954 1.369 . S
C1955 C1956 1.410 . S
C1955 C1963 1.503 . S
C1956 C1955 1.410 . S
C1956 C1957 1.392 . S
C1956 C1959 1.511 . S
C1957 C1953 1.376 . S
C1957 C1956 1.392 . S
C1957 H1969 0.929 . S
C1958 C1954 1.531 . S
C1958 H1970 0.960 . S
C1958 H1971 0.962 . S
C1958 H1972 0.960 . S
C1959 C1956 1.511 . S
C1959 H1973 0.961 . S
C1959 H1974 0.961 . S
C1959 H1975 0.961 . S
C1960 C1961 1.370 . S
C1960 C1962 1.363 . S
C1960 H1976 0.931 . S
C1961 C1960 1.370 . S
C1961 C1965 1.408 . S
C1962 C1960 1.363 . S
C1962 C1963 1.370 . S
C1962 C1966 1.524 . S
C1963 C1955 1.503 . S
C1963 C1962 1.370 . S
C1963 C1964 1.403 . S
C1964 C1963 1.403 . S
C1964 C1965 1.404 . S
C1964 C1967 1.539 . S
C1965 C1961 1.408 . S
C1965 C1964 1.404 . S
C1965 H1977 0.930 . S
C1966 C1962 1.524 . S
C1966 H1978 0.956 . S
C1966 H1979 0.961 . S
C1966 H1980 0.961 . S
C1967 C1964 1.539 . S
C1967 H1981 0.958 . S
C1967 H1982 0.961 . S
C1967 H1983 0.960 . S
H1968 C1952 0.931 . S
H1969 C1957 0.929 . S
H1970 C1958 0.960 . S
H1971 C1958 0.962 . S
H1972 C1958 0.960 . S
H1973 C1959 0.961 . S
H1974 C1959 0.961 . S
H1975 C1959 0.961 . S
H1976 C1960 0.931 . S
H1977 C1965 0.930 . S
H1978 C1966 0.956 . S
H1979 C1966 0.961 . S
H1980 C1966 0.961 . S
H1981 C1967 0.958 . S
H1982 C1967 0.961 . S
H1983 C1967 0.960 . S
C1984 C1985 1.391 . S
C1984 C1986 1.394 . S
C1984 H2000 0.931 . S
C1985 C1984 1.391 . S
C1985 C1989 1.376 . S
C1986 C1984 1.394 . S
C1986 C1987 1.369 . S
C1986 C1990 1.531 . S
C1987 C1986 1.369 . S
C1987 C1988 1.410 . S
C1987 C1995 1.503 . S
C1988 C1987 1.410 . S
C1988 C1989 1.392 . S
C1988 C1991 1.511 . S
C1989 C1985 1.376 . S
C1989 C1988 1.392 . S
C1989 H2001 0.929 . S
C1990 C1986 1.531 . S
C1990 H2002 0.960 . S
C1990 H2003 0.962 . S
C1990 H2004 0.960 . S
C1991 C1988 1.511 . S
C1991 H2005 0.961 . S
C1991 H2006 0.961 . S
C1991 H2007 0.961 . S
C1992 C1993 1.370 . S
C1992 C1994 1.363 . S
C1992 H2008 0.931 . S
C1993 C1992 1.370 . S
C1993 C1997 1.408 . S
C1994 C1992 1.363 . S
C1994 C1995 1.370 . S
C1994 C1998 1.524 . S
C1995 C1987 1.503 . S
C1995 C1994 1.370 . S
C1995 C1996 1.403 . S
C1996 C1995 1.403 . S
C1996 C1997 1.404 . S
C1996 C1999 1.539 . S
C1997 C1993 1.408 . S
C1997 C1996 1.404 . S
C1997 H2009 0.930 . S
C1998 C1994 1.524 . S
C1998 H2010 0.956 . S
C1998 H2011 0.961 . S
C1998 H2012 0.961 . S
C1999 C1996 1.539 . S
C1999 H2013 0.958 . S
C1999 H2014 0.961 . S
C1999 H2015 0.960 . S
H2000 C1984 0.931 . S
H2001 C1989 0.929 . S
H2002 C1990 0.960 . S
H2003 C1990 0.962 . S
H2004 C1990 0.960 . S
H2005 C1991 0.961 . S
H2006 C1991 0.961 . S
H2007 C1991 0.961 . S
H2008 C1992 0.931 . S
H2009 C1997 0.930 . S
H2010 C1998 0.956 . S
H2011 C1998 0.961 . S
H2012 C1998 0.961 . S
H2013 C1999 0.958 . S
H2014 C1999 0.961 . S
H2015 C1999 0.960 . S
C2016 C2017 1.391 . S
C2016 C2018 1.394 . S
C2016 H2032 0.931 . S
C2017 C2016 1.391 . S
C2017 C2021 1.376 . S
C2018 C2016 1.394 . S
C2018 C2019 1.369 . S
C2018 C2022 1.531 . S
C2019 C2018 1.369 . S
C2019 C2020 1.410 . S
C2019 C2027 1.503 . S
C2020 C2019 1.410 . S
C2020 C2021 1.392 . S
C2020 C2023 1.511 . S
C2021 C2017 1.376 . S
C2021 C2020 1.392 . S
C2021 H2033 0.929 . S
C2022 C2018 1.531 . S
C2022 H2034 0.960 . S
C2022 H2035 0.962 . S
C2022 H2036 0.960 . S
C2023 C2020 1.511 . S
C2023 H2037 0.961 . S
C2023 H2038 0.961 . S
C2023 H2039 0.961 . S
C2024 C2025 1.370 . S
C2024 C2026 1.363 . S
C2024 H2040 0.931 . S
C2025 C2024 1.370 . S
C2025 C2029 1.408 . S
C2026 C2024 1.363 . S
C2026 C2027 1.370 . S
C2026 C2030 1.524 . S
C2027 C2019 1.503 . S
C2027 C2026 1.370 . S
C2027 C2028 1.403 . S
C2028 C2027 1.403 . S
C2028 C2029 1.404 . S
C2028 C2031 1.539 . S
C2029 C2025 1.408 . S
C2029 C2028 1.404 . S
C2029 H2041 0.930 . S
C2030 C2026 1.524 . S
C2030 H2042 0.956 . S
C2030 H2043 0.961 . S
C2030 H2044 0.961 . S
C2031 C2028 1.539 . S
C2031 H2045 0.958 . S
C2031 H2046 0.961 . S
C2031 H2047 0.960 . S
H2032 C2016 0.931 . S
H2033 C2021 0.929 . S
H2034 C2022 0.960 . S
H2035 C2022 0.962 . S
H2036 C2022 0.960 . S
H2037 C2023 0.961 . S
H2038 C2023 0.961 . S
H2039 C2023 0.961 . S
H2040 C2024 0.931 . S
H2041 C2029 0.930 . S
H2042 C2030 0.956 . S
H2043 C2030 0.961 . S
H2044 C2030 0.961 . S
H2045 C2031 0.958 . S
H2046 C2031 0.961 . S
H2047 C2031 0.960 . S
C2048 C2049 1.391 . S
C2048 C2050 1.394 . S
C2048 H2064 0.931 . S
C2049 C2048 1.391 . S
C2049 C2053 1.376 . S
C2050 C2048 1.394 . S
C2050 C2051 1.369 . S
C2050 C2054 1.531 . S
C2051 C2050 1.369 . S
C2051 C2052 1.410 . S
C2051 C2059 1.503 . S
C2052 C2051 1.410 . S
C2052 C2053 1.392 . S
C2052 C2055 1.511 . S
C2053 C2049 1.376 . S
C2053 C2052 1.392 . S
C2053 H2065 0.929 . S
C2054 C2050 1.531 . S
C2054 H2066 0.960 . S
C2054 H2067 0.962 . S
C2054 H2068 0.960 . S
C2055 C2052 1.511 . S
C2055 H2069 0.961 . S
C2055 H2070 0.961 . S
C2055 H2071 0.961 . S
C2056 C2057 1.370 . S
C2056 C2058 1.363 . S
C2056 H2072 0.931 . S
C2057 C2056 1.370 . S
C2057 C2061 1.408 . S
C2058 C2056 1.363 . S
C2058 C2059 1.370 . S
C2058 C2062 1.524 . S
C2059 C2051 1.503 . S
C2059 C2058 1.370 . S
C2059 C2060 1.403 . S
C2060 C2059 1.403 . S
C2060 C2061 1.404 . S
C2060 C2063 1.539 . S
C2061 C2057 1.408 . S
C2061 C2060 1.404 . S
C2061 H2073 0.930 . S
C2062 C2058 1.524 . S
C2062 H2074 0.956 . S
C2062 H2075 0.961 . S
C2062 H2076 0.961 . S
C2063 C2060 1.539 . S
C2063 H2077 0.958 . S
C2063 H2078 0.961 . S
C2063 H2079 0.960 . S
H2064 C2048 0.931 . S
H2065 C2053 0.929 . S
H2066 C2054 0.960 . S
H2067 C2054 0.962 . S
H2068 C2054 0.960 . S
H2069 C2055 0.961 . S
H2070 C2055 0.961 . S
H2071 C2055 0.961 . S
H2072 C2056 0.931 . S
H2073 C2061 0.930 . S
H2074 C2062 0.956 . S
H2075 C2062 0.961 . S
H2076 C2062 0.961 . S
H2077 C2063 0.958 . S
H2078 C2063 0.961 . S
H2079 C2063 0.960 . S
C2080 C2081 1.391 . S
C2080 C2082 1.394 . S
C2080 H2096 0.931 . S
C2081 C2080 1.391 . S
C2081 C2085 1.376 . S
C2082 C2080 1.394 . S
C2082 C2083 1.369 . S
C2082 C2086 1.531 . S
C2083 C2082 1.369 . S
C2083 C2084 1.410 . S
C2083 C2091 1.503 . S
C2084 C2083 1.410 . S
C2084 C2085 1.392 . S
C2084 C2087 1.511 . S
C2085 C2081 1.376 . S
C2085 C2084 1.392 . S
C2085 H2097 0.929 . S
C2086 C2082 1.531 . S
C2086 H2098 0.960 . S
C2086 H2099 0.962 . S
C2086 H2100 0.960 . S
C2087 C2084 1.511 . S
C2087 H2101 0.961 . S
C2087 H2102 0.961 . S
C2087 H2103 0.961 . S
C2088 C2089 1.370 . S
C2088 C2090 1.363 . S
C2088 H2104 0.931 . S
C2089 C2088 1.370 . S
C2089 C2093 1.408 . S
C2090 C2088 1.363 . S
C2090 C2091 1.370 . S
C2090 C2094 1.524 . S
C2091 C2083 1.503 . S
C2091 C2090 1.370 . S
C2091 C2092 1.403 . S
C2092 C2091 1.403 . S
C2092 C2093 1.404 . S
C2092 C2095 1.539 . S
C2093 C2089 1.408 . S
C2093 C2092 1.404 . S
C2093 H2105 0.930 . S
C2094 C2090 1.524 . S
C2094 H2106 0.956 . S
C2094 H2107 0.961 . S
C2094 H2108 0.961 . S
C2095 C2092 1.539 . S
C2095 H2109 0.958 . S
C2095 H2110 0.961 . S
C2095 H2111 0.960 . S
H2096 C2080 0.931 . S
H2097 C2085 0.929 . S
H2098 C2086 0.960 . S
H2099 C2086 0.962 . S
H2100 C2086 0.960 . S
H2101 C2087 0.961 . S
H2102 C2087 0.961 . S
H2103 C2087 0.961 . S
H2104 C2088 0.931 . S
H2105 C2093 0.930 . S
H2106 C2094 0.956 . S
H2107 C2094 0.961 . S
H2108 C2094 0.961 . S
H2109 C2095 0.958 . S
H2110 C2095 0.961 . S
H2111 C2095 0.960 . S
C2112 C2113 1.391 . S
C2112 C2114 1.394 . S
C2112 H2128 0.931 . S
C2113 C2112 1.391 . S
C2113 C2117 1.376 . S
C2114 C2112 1.394 . S
C2114 C2115 1.369 . S
C2114 C2118 1.531 . S
C2115 C2114 1.369 . S
C2115 C2116 1.410 . S
C2115 C2123 1.503 . S
C2116 C2115 1.410 . S
C2116 C2117 1.392 . S
C2116 C2119 1.511 . S
C2117 C2113 1.376 . S
C2117 C2116 1.392 . S
C2117 H2129 0.929 . S
C2118 C2114 1.531 . S
C2118 H2130 0.960 . S
C2118 H2131 0.962 . S
C2118 H2132 0.960 . S
C2119 C2116 1.511 . S
C2119 H2133 0.961 . S
C2119 H2134 0.961 . S
C2119 H2135 0.961 . S
C2120 C2121 1.370 . S
C2120 C2122 1.363 . S
C2120 H2136 0.931 . S
C2121 C2120 1.370 . S
C2121 C2125 1.408 . S
C2122 C2120 1.363 . S
C2122 C2123 1.370 . S
C2122 C2126 1.524 . S
C2123 C2115 1.503 . S
C2123 C2122 1.370 . S
C2123 C2124 1.403 . S
C2124 C2123 1.403 . S
C2124 C2125 1.404 . S
C2124 C2127 1.539 . S
C2125 C2121 1.408 . S
C2125 C2124 1.404 . S
C2125 H2137 0.930 . S
C2126 C2122 1.524 . S
C2126 H2138 0.956 . S
C2126 H2139 0.961 . S
C2126 H2140 0.961 . S
C2127 C2124 1.539 . S
C2127 H2141 0.958 . S
C2127 H2142 0.961 . S
C2127 H2143 0.960 . S
H2128 C2112 0.931 . S
H2129 C2117 0.929 . S
H2130 C2118 0.960 . S
H2131 C2118 0.962 . S
H2132 C2118 0.960 . S
H2133 C2119 0.961 . S
H2134 C2119 0.961 . S
H2135 C2119 0.961 . S
H2136 C2120 0.931 . S
H2137 C2125 0.930 . S
H2138 C2126 0.956 . S
H2139 C2126 0.961 . S
H2140 C2126 0.961 . S
H2141 C2127 0.958 . S
H2142 C2127 0.961 . S
H2143 C2127 0.960 . S
C2144 C2145 1.391 . S
C2144 C2146 1.394 . S
C2144 H2160 0.931 . S
C2145 C2144 1.391 . S
C2145 C2149 1.376 . S
C2146 C2144 1.394 . S
C2146 C2147 1.369 . S
C2146 C2150 1.531 . S
C2147 C2146 1.369 . S
C2147 C2148 1.410 . S
C2147 C2155 1.503 . S
C2148 C2147 1.410 . S
C2148 C2149 1.392 . S
C2148 C2151 1.511 . S
C2149 C2145 1.376 . S
C2149 C2148 1.392 . S
C2149 H2161 0.929 . S
C2150 C2146 1.531 . S
C2150 H2162 0.960 . S
C2150 H2163 0.962 . S
C2150 H2164 0.960 . S
C2151 C2148 1.511 . S
C2151 H2165 0.961 . S
C2151 H2166 0.961 . S
C2151 H2167 0.961 . S
C2152 C2153 1.370 . S
C2152 C2154 1.363 . S
C2152 H2168 0.931 . S
C2153 C2152 1.370 . S
C2153 C2157 1.408 . S
C2154 C2152 1.363 . S
C2154 C2155 1.370 . S
C2154 C2158 1.524 . S
C2155 C2147 1.503 . S
C2155 C2154 1.370 . S
C2155 C2156 1.403 . S
C2156 C2155 1.403 . S
C2156 C2157 1.404 . S
C2156 C2159 1.539 . S
C2157 C2153 1.408 . S
C2157 C2156 1.404 . S
C2157 H2169 0.930 . S
C2158 C2154 1.524 . S
C2158 H2170 0.956 . S
C2158 H2171 0.961 . S
C2158 H2172 0.961 . S
C2159 C2156 1.539 . S
C2159 H2173 0.958 . S
C2159 H2174 0.961 . S
C2159 H2175 0.960 . S
H2160 C2144 0.931 . S
H2161 C2149 0.929 . S
H2162 C2150 0.960 . S
H2163 C2150 0.962 . S
H2164 C2150 0.960 . S
H2165 C2151 0.961 . S
H2166 C2151 0.961 . S
H2167 C2151 0.961 . S
H2168 C2152 0.931 . S
H2169 C2157 0.930 . S
H2170 C2158 0.956 . S
H2171 C2158 0.961 . S
H2172 C2158 0.961 . S
H2173 C2159 0.958 . S
H2174 C2159 0.961 . S
H2175 C2159 0.960 . S
C2176 C2177 1.391 . S
C2176 C2178 1.394 . S
C2176 H2192 0.931 . S
C2177 C2176 1.391 . S
C2177 C2181 1.376 . S
C2178 C2176 1.394 . S
C2178 C2179 1.369 . S
C2178 C2182 1.531 . S
C2179 C2178 1.369 . S
C2179 C2180 1.410 . S
C2179 C2187 1.503 . S
C2180 C2179 1.410 . S
C2180 C2181 1.392 . S
C2180 C2183 1.511 . S
C2181 C2177 1.376 . S
C2181 C2180 1.392 . S
C2181 H2193 0.929 . S
C2182 C2178 1.531 . S
C2182 H2194 0.960 . S
C2182 H2195 0.962 . S
C2182 H2196 0.960 . S
C2183 C2180 1.511 . S
C2183 H2197 0.961 . S
C2183 H2198 0.961 . S
C2183 H2199 0.961 . S
C2184 C2185 1.370 . S
C2184 C2186 1.363 . S
C2184 H2200 0.931 . S
C2185 C2184 1.370 . S
C2185 C2189 1.408 . S
C2186 C2184 1.363 . S
C2186 C2187 1.370 . S
C2186 C2190 1.524 . S
C2187 C2179 1.503 . S
C2187 C2186 1.370 . S
C2187 C2188 1.403 . S
C2188 C2187 1.403 . S
C2188 C2189 1.404 . S
C2188 C2191 1.539 . S
C2189 C2185 1.408 . S
C2189 C2188 1.404 . S
C2189 H2201 0.930 . S
C2190 C2186 1.524 . S
C2190 H2202 0.956 . S
C2190 H2203 0.961 . S
C2190 H2204 0.961 . S
C2191 C2188 1.539 . S
C2191 H2205 0.958 . S
C2191 H2206 0.961 . S
C2191 H2207 0.960 . S
H2192 C2176 0.931 . S
H2193 C2181 0.929 . S
H2194 C2182 0.960 . S
H2195 C2182 0.962 . S
H2196 C2182 0.960 . S
H2197 C2183 0.961 . S
H2198 C2183 0.961 . S
H2199 C2183 0.961 . S
H2200 C2184 0.931 . S
H2201 C2189 0.930 . S
H2202 C2190 0.956 . S
H2203 C2190 0.961 . S
H2204 C2190 0.961 . S
H2205 C2191 0.958 . S
H2206 C2191 0.961 . S
H2207 C2191 0.960 . S
C2208 C2209 1.391 . S
C2208 C2210 1.394 . S
C2208 H2224 0.931 . S
C2209 C2208 1.391 . S
C2209 C2213 1.376 . S
C2210 C2208 1.394 . S
C2210 C2211 1.369 . S
C2210 C2214 1.531 . S
C2211 C2210 1.369 . S
C2211 C2212 1.410 . S
C2211 C2219 1.503 . S
C2212 C2211 1.410 . S
C2212 C2213 1.392 . S
C2212 C2215 1.511 . S
C2213 C2209 1.376 . S
C2213 C2212 1.392 . S
C2213 H2225 0.929 . S
C2214 C2210 1.531 . S
C2214 H2226 0.960 . S
C2214 H2227 0.962 . S
C2214 H2228 0.960 . S
C2215 C2212 1.511 . S
C2215 H2229 0.961 . S
C2215 H2230 0.961 . S
C2215 H2231 0.961 . S
C2216 C2217 1.370 . S
C2216 C2218 1.363 . S
C2216 H2232 0.931 . S
C2217 C2216 1.370 . S
C2217 C2221 1.408 . S
C2218 C2216 1.363 . S
C2218 C2219 1.370 . S
C2218 C2222 1.524 . S
C2219 C2211 1.503 . S
C2219 C2218 1.370 . S
C2219 C2220 1.403 . S
C2220 C2219 1.403 . S
C2220 C2221 1.404 . S
C2220 C2223 1.539 . S
C2221 C2217 1.408 . S
C2221 C2220 1.404 . S
C2221 H2233 0.930 . S
C2222 C2218 1.524 . S
C2222 H2234 0.956 . S
C2222 H2235 0.961 . S
C2222 H2236 0.961 . S
C2223 C2220 1.539 . S
C2223 H2237 0.958 . S
C2223 H2238 0.961 . S
C2223 H2239 0.960 . S
H2224 C2208 0.931 . S
H2225 C2213 0.929 . S
H2226 C2214 0.960 . S
H2227 C2214 0.962 . S
H2228 C2214 0.960 . S
H2229 C2215 0.961 . S
H2230 C2215 0.961 . S
H2231 C2215 0.961 . S
H2232 C2216 0.931 . S
H2233 C2221 0.930 . S
H2234 C2222 0.956 . S
H2235 C2222 0.961 . S
H2236 C2222 0.961 . S
H2237 C2223 0.958 . S
H2238 C2223 0.961 . S
H2239 C2223 0.960 . S
C2240 C2241 1.391 . S
C2240 C2242 1.394 . S
C2240 H2256 0.931 . S
C2241 C2240 1.391 . S
C2241 C2245 1.376 . S
C2242 C2240 1.394 . S
C2242 C2243 1.369 . S
C2242 C2246 1.531 . S
C2243 C2242 1.369 . S
C2243 C2244 1.410 . S
C2243 C2251 1.503 . S
C2244 C2243 1.410 . S
C2244 C2245 1.392 . S
C2244 C2247 1.511 . S
C2245 C2241 1.376 . S
C2245 C2244 1.392 . S
C2245 H2257 0.929 . S
C2246 C2242 1.531 . S
C2246 H2258 0.960 . S
C2246 H2259 0.962 . S
C2246 H2260 0.960 . S
C2247 C2244 1.511 . S
C2247 H2261 0.961 . S
C2247 H2262 0.961 . S
C2247 H2263 0.961 . S
C2248 C2249 1.370 . S
C2248 C2250 1.363 . S
C2248 H2264 0.931 . S
C2249 C2248 1.370 . S
C2249 C2253 1.408 . S
C2250 C2248 1.363 . S
C2250 C2251 1.370 . S
C2250 C2254 1.524 . S
C2251 C2243 1.503 . S
C2251 C2250 1.370 . S
C2251 C2252 1.403 . S
C2252 C2251 1.403 . S
C2252 C2253 1.404 . S
C2252 C2255 1.539 . S
C2253 C2249 1.408 . S
C2253 C2252 1.404 . S
C2253 H2265 0.930 . S
C2254 C2250 1.524 . S
C2254 H2266 0.956 . S
C2254 H2267 0.961 . S
C2254 H2268 0.961 . S
C2255 C2252 1.539 . S
C2255 H2269 0.958 . S
C2255 H2270 0.961 . S
C2255 H2271 0.960 . S
H2256 C2240 0.931 . S
H2257 C2245 0.929 . S
H2258 C2246 0.960 . S
H2259 C2246 0.962 . S
H2260 C2246 0.960 . S
H2261 C2247 0.961 . S
H2262 C2247 0.961 . S
H2263 C2247 0.961 . S
H2264 C2248 0.931 . S
H2265 C2253 0.930 . S
H2266 C2254 0.956 . S
H2267 C2254 0.961 . S
H2268 C2254 0.961 . S
H2269 C2255 0.958 . S
H2270 C2255 0.961 . S
H2271 C2255 0.960 . S
C2272 C2273 1.391 . S
C2272 C2274 1.394 . S
C2272 H2288 0.931 . S
C2273 C2272 1.391 . S
C2273 C2277 1.376 . S
C2274 C2272 1.394 . S
C2274 C2275 1.369 . S
C2274 C2278 1.531 . S
C2275 C2274 1.369 . S
C2275 C2276 1.410 . S
C2275 C2283 1.503 . S
C2276 C2275 1.410 . S
C2276 C2277 1.392 . S
C2276 C2279 1.511 . S
C2277 C2273 1.376 . S
C2277 C2276 1.392 . S
C2277 H2289 0.929 . S
C2278 C2274 1.531 . S
C2278 H2290 0.960 . S
C2278 H2291 0.962 . S
C2278 H2292 0.960 . S
C2279 C2276 1.511 . S
C2279 H2293 0.961 . S
C2279 H2294 0.961 . S
C2279 H2295 0.961 . S
C2280 C2281 1.370 . S
C2280 C2282 1.363 . S
C2280 H2296 0.931 . S
C2281 C2280 1.370 . S
C2281 C2285 1.408 . S
C2282 C2280 1.363 . S
C2282 C2283 1.370 . S
C2282 C2286 1.524 . S
C2283 C2275 1.503 . S
C2283 C2282 1.370 . S
C2283 C2284 1.403 . S
C2284 C2283 1.403 . S
C2284 C2285 1.404 . S
C2284 C2287 1.539 . S
C2285 C2281 1.408 . S
C2285 C2284 1.404 . S
C2285 H2297 0.930 . S
C2286 C2282 1.524 . S
C2286 H2298 0.956 . S
C2286 H2299 0.961 . S
C2286 H2300 0.961 . S
C2287 C2284 1.539 . S
C2287 H2301 0.958 . S
C2287 H2302 0.961 . S
C2287 H2303 0.960 . S
H2288 C2272 0.931 . S
H2289 C2277 0.929 . S
H2290 C2278 0.960 . S
H2291 C2278 0.962 . S
H2292 C2278 0.960 . S
H2293 C2279 0.961 . S
H2294 C2279 0.961 . S
H2295 C2279 0.961 . S
H2296 C2280 0.931 . S
H2297 C2285 0.930 . S
H2298 C2286 0.956 . S
H2299 C2286 0.961 . S
H2300 C2286 0.961 . S
H2301 C2287 0.958 . S
H2302 C2287 0.961 . S
H2303 C2287 0.960 . S
C2304 C2305 1.391 . S
C2304 C2306 1.394 . S
C2304 H2320 0.931 . S
C2305 C2304 1.391 . S
C2305 C2309 1.376 . S
C2306 C2304 1.394 . S
C2306 C2307 1.369 . S
C2306 C2310 1.531 . S
C2307 C2306 1.369 . S
C2307 C2308 1.410 . S
C2307 C2315 1.503 . S
C2308 C2307 1.410 . S
C2308 C2309 1.392 . S
C2308 C2311 1.511 . S
C2309 C2305 1.376 . S
C2309 C2308 1.392 . S
C2309 H2321 0.929 . S
C2310 C2306 1.531 . S
C2310 H2322 0.960 . S
C2310 H2323 0.962 . S
C2310 H2324 0.960 . S
C2311 C2308 1.511 . S
C2311 H2325 0.961 . S
C2311 H2326 0.961 . S
C2311 H2327 0.961 . S
C2312 C2313 1.370 . S
C2312 C2314 1.363 . S
C2312 H2328 0.931 . S
C2313 C2312 1.370 . S
C2313 C2317 1.408 . S
C2314 C2312 1.363 . S
C2314 C2315 1.370 . S
C2314 C2318 1.524 . S
C2315 C2307 1.503 . S
C2315 C2314 1.370 . S
C2315 C2316 1.403 . S
C2316 C2315 1.403 . S
C2316 C2317 1.404 . S
C2316 C2319 1.539 . S
C2317 C2313 1.408 . S
C2317 C2316 1.404 . S
C2317 H2329 0.930 . S
C2318 C2314 1.524 . S
C2318 H2330 0.956 . S
C2318 H2331 0.961 . S
C2318 H2332 0.961 . S
C2319 C2316 1.539 . S
C2319 H2333 0.958 . S
C2319 H2334 0.961 . S
C2319 H2335 0.960 . S
H2320 C2304 0.931 . S
H2321 C2309 0.929 . S
H2322 C2310 0.960 . S
H2323 C2310 0.962 . S
H2324 C2310 0.960 . S
H2325 C2311 0.961 . S
H2326 C2311 0.961 . S
H2327 C2311 0.961 . S
H2328 C2312 0.931 . S
H2329 C2317 0.930 . S
H2330 C2318 0.956 . S
H2331 C2318 0.961 . S
H2332 C2318 0.961 . S
H2333 C2319 0.958 . S
H2334 C2319 0.961 . S
H2335 C2319 0.960 . S
C2336 C2337 1.391 . S
C2336 C2338 1.394 . S
C2336 H2352 0.931 . S
C2337 C2336 1.391 . S
C2337 C2341 1.376 . S
C2338 C2336 1.394 . S
C2338 C2339 1.369 . S
C2338 C2342 1.531 . S
C2339 C2338 1.369 . S
C2339 C2340 1.410 . S
C2339 C2347 1.503 . S
C2340 C2339 1.410 . S
C2340 C2341 1.392 . S
C2340 C2343 1.511 . S
C2341 C2337 1.376 . S
C2341 C2340 1.392 . S
C2341 H2353 0.929 . S
C2342 C2338 1.531 . S
C2342 H2354 0.960 . S
C2342 H2355 0.962 . S
C2342 H2356 0.960 . S
C2343 C2340 1.511 . S
C2343 H2357 0.961 . S
C2343 H2358 0.961 . S
C2343 H2359 0.961 . S
C2344 C2345 1.370 . S
C2344 C2346 1.363 . S
C2344 H2360 0.931 . S
C2345 C2344 1.370 . S
C2345 C2349 1.408 . S
C2346 C2344 1.363 . S
C2346 C2347 1.370 . S
C2346 C2350 1.524 . S
C2347 C2339 1.503 . S
C2347 C2346 1.370 . S
C2347 C2348 1.403 . S
C2348 C2347 1.403 . S
C2348 C2349 1.404 . S
C2348 C2351 1.539 . S
C2349 C2345 1.408 . S
C2349 C2348 1.404 . S
C2349 H2361 0.930 . S
C2350 C2346 1.524 . S
C2350 H2362 0.956 . S
C2350 H2363 0.961 . S
C2350 H2364 0.961 . S
C2351 C2348 1.539 . S
C2351 H2365 0.958 . S
C2351 H2366 0.961 . S
C2351 H2367 0.960 . S
H2352 C2336 0.931 . S
H2353 C2341 0.929 . S
H2354 C2342 0.960 . S
H2355 C2342 0.962 . S
H2356 C2342 0.960 . S
H2357 C2343 0.961 . S
H2358 C2343 0.961 . S
H2359 C2343 0.961 . S
H2360 C2344 0.931 . S
H2361 C2349 0.930 . S
H2362 C2350 0.956 . S
H2363 C2350 0.961 . S
H2364 C2350 0.961 . S
H2365 C2351 0.958 . S
H2366 C2351 0.961 . S
H2367 C2351 0.960 . S
C2368 C2369 1.391 . S
C2368 C2370 1.394 . S
C2368 H2384 0.931 . S
C2369 C2368 1.391 . S
C2369 C2373 1.376 . S
C2370 C2368 1.394 . S
C2370 C2371 1.369 . S
C2370 C2374 1.531 . S
C2371 C2370 1.369 . S
C2371 C2372 1.410 . S
C2371 C2379 1.503 . S
C2372 C2371 1.410 . S
C2372 C2373 1.392 . S
C2372 C2375 1.511 . S
C2373 C2369 1.376 . S
C2373 C2372 1.392 . S
C2373 H2385 0.929 . S
C2374 C2370 1.531 . S
C2374 H2386 0.960 . S
C2374 H2387 0.962 . S
C2374 H2388 0.960 . S
C2375 C2372 1.511 . S
C2375 H2389 0.961 . S
C2375 H2390 0.961 . S
C2375 H2391 0.961 . S
C2376 C2377 1.370 . S
C2376 C2378 1.363 . S
C2376 H2392 0.931 . S
C2377 C2376 1.370 . S
C2377 C2381 1.408 . S
C2378 C2376 1.363 . S
C2378 C2379 1.370 . S
C2378 C2382 1.524 . S
C2379 C2371 1.503 . S
C2379 C2378 1.370 . S
C2379 C2380 1.403 . S
C2380 C2379 1.403 . S
C2380 C2381 1.404 . S
C2380 C2383 1.539 . S
C2381 C2377 1.408 . S
C2381 C2380 1.404 . S
C2381 H2393 0.930 . S
C2382 C2378 1.524 . S
C2382 H2394 0.956 . S
C2382 H2395 0.961 . S
C2382 H2396 0.961 . S
C2383 C2380 1.539 . S
C2383 H2397 0.958 . S
C2383 H2398 0.961 . S
C2383 H2399 0.960 . S
H2384 C2368 0.931 . S
H2385 C2373 0.929 . S
H2386 C2374 0.960 . S
H2387 C2374 0.962 . S
H2388 C2374 0.960 . S
H2389 C2375 0.961 . S
H2390 C2375 0.961 . S
H2391 C2375 0.961 . S
H2392 C2376 0.931 . S
H2393 C2381 0.930 . S
H2394 C2382 0.956 . S
H2395 C2382 0.961 . S
H2396 C2382 0.961 . S
H2397 C2383 0.958 . S
H2398 C2383 0.961 . S
H2399 C2383 0.960 . S
C2400 C2401 1.391 . S
C2400 C2402 1.394 . S
C2400 H2416 0.931 . S
C2401 C2400 1.391 . S
C2401 C2405 1.376 . S
C2402 C2400 1.394 . S
C2402 C2403 1.369 . S
C2402 C2406 1.531 . S
C2403 C2402 1.369 . S
C2403 C2404 1.410 . S
C2403 C2411 1.503 . S
C2404 C2403 1.410 . S
C2404 C2405 1.392 . S
C2404 C2407 1.511 . S
C2405 C2401 1.376 . S
C2405 C2404 1.392 . S
C2405 H2417 0.929 . S
C2406 C2402 1.531 . S
C2406 H2418 0.960 . S
C2406 H2419 0.962 . S
C2406 H2420 0.960 . S
C2407 C2404 1.511 . S
C2407 H2421 0.961 . S
C2407 H2422 0.961 . S
C2407 H2423 0.961 . S
C2408 C2409 1.370 . S
C2408 C2410 1.363 . S
C2408 H2424 0.931 . S
C2409 C2408 1.370 . S
C2409 C2413 1.408 . S
C2410 C2408 1.363 . S
C2410 C2411 1.370 . S
C2410 C2414 1.524 . S
C2411 C2403 1.503 . S
C2411 C2410 1.370 . S
C2411 C2412 1.403 . S
C2412 C2411 1.403 . S
C2412 C2413 1.404 . S
C2412 C2415 1.539 . S
C2413 C2409 1.408 . S
C2413 C2412 1.404 . S
C2413 H2425 0.930 . S
C2414 C2410 1.524 . S
C2414 H2426 0.956 . S
C2414 H2427 0.961 . S
C2414 H2428 0.961 . S
C2415 C2412 1.539 . S
C2415 H2429 0.958 . S
C2415 H2430 0.961 . S
C2415 H2431 0.960 . S
H2416 C2400 0.931 . S
H2417 C2405 0.929 . S
H2418 C2406 0.960 . S
H2419 C2406 0.962 . S
H2420 C2406 0.960 . S
H2421 C2407 0.961 . S
H2422 C2407 0.961 . S
H2423 C2407 0.961 . S
H2424 C2408 0.931 . S
H2425 C2413 0.930 . S
H2426 C2414 0.956 . S
H2427 C2414 0.961 . S
H2428 C2414 0.961 . S
H2429 C2415 0.958 . S
H2430 C2415 0.961 . S
H2431 C2415 0.960 . S
C2432 C2433 1.391 . S
C2432 C2434 1.394 . S
C2432 H2448 0.931 . S
C2433 C2432 1.391 . S
C2433 C2437 1.376 . S
C2434 C2432 1.394 . S
C2434 C2435 1.369 . S
C2434 C2438 1.531 . S
C2435 C2434 1.369 . S
C2435 C2436 1.410 . S
C2435 C2443 1.503 . S
C2436 C2435 1.410 . S
C2436 C2437 1.392 . S
C2436 C2439 1.511 . S
C2437 C2433 1.376 . S
C2437 C2436 1.392 . S
C2437 H2449 0.929 . S
C2438 C2434 1.531 . S
C2438 H2450 0.960 . S
C2438 H2451 0.962 . S
C2438 H2452 0.960 . S
C2439 C2436 1.511 . S
C2439 H2453 0.961 . S
C2439 H2454 0.961 . S
C2439 H2455 0.961 . S
C2440 C2441 1.370 . S
C2440 C2442 1.363 . S
C2440 H2456 0.931 . S
C2441 C2440 1.370 . S
C2441 C2445 1.408 . S
C2442 C2440 1.363 . S
C2442 C2443 1.370 . S
C2442 C2446 1.524 . S
C2443 C2435 1.503 . S
C2443 C2442 1.370 . S
C2443 C2444 1.403 . S
C2444 C2443 1.403 . S
C2444 C2445 1.404 . S
C2444 C2447 1.539 . S
C2445 C2441 1.408 . S
C2445 C2444 1.404 . S
C2445 H2457 0.930 . S
C2446 C2442 1.524 . S
C2446 H2458 0.956 . S
C2446 H2459 0.961 . S
C2446 H2460 0.961 . S
C2447 C2444 1.539 . S
C2447 H2461 0.958 . S
C2447 H2462 0.961 . S
C2447 H2463 0.960 . S
H2448 C2432 0.931 . S
H2449 C2437 0.929 . S
H2450 C2438 0.960 . S
H2451 C2438 0.962 . S
H2452 C2438 0.960 . S
H2453 C2439 0.961 . S
H2454 C2439 0.961 . S
H2455 C2439 0.961 . S
H2456 C2440 0.931 . S
H2457 C2445 0.930 . S
H2458 C2446 0.956 . S
H2459 C2446 0.961 . S
H2460 C2446 0.961 . S
H2461 C2447 0.958 . S
H2462 C2447 0.961 . S
H2463 C2447 0.960 . S
C2464 C2465 1.391 . S
C2464 C2466 1.394 . S
C2464 H2480 0.931 . S
C2465 C2464 1.391 . S
C2465 C2469 1.376 . S
C2466 C2464 1.394 . S
C2466 C2467 1.369 . S
C2466 C2470 1.531 . S
C2467 C2466 1.369 . S
C2467 C2468 1.410 . S
C2467 C2475 1.503 . S
C2468 C2467 1.410 . S
C2468 C2469 1.392 . S
C2468 C2471 1.511 . S
C2469 C2465 1.376 . S
C2469 C2468 1.392 . S
C2469 H2481 0.929 . S
C2470 C2466 1.531 . S
C2470 H2482 0.960 . S
C2470 H2483 0.962 . S
C2470 H2484 0.960 . S
C2471 C2468 1.511 . S
C2471 H2485 0.961 . S
C2471 H2486 0.961 . S
C2471 H2487 0.961 . S
C2472 C2473 1.370 . S
C2472 C2474 1.363 . S
C2472 H2488 0.931 . S
C2473 C2472 1.370 . S
C2473 C2477 1.408 . S
C2474 C2472 1.363 . S
C2474 C2475 1.370 . S
C2474 C2478 1.524 . S
C2475 C2467 1.503 . S
C2475 C2474 1.370 . S
C2475 C2476 1.403 . S
C2476 C2475 1.403 . S
C2476 C2477 1.404 . S
C2476 C2479 1.539 . S
C2477 C2473 1.408 . S
C2477 C2476 1.404 . S
C2477 H2489 0.930 . S
C2478 C2474 1.524 . S
C2478 H2490 0.956 . S
C2478 H2491 0.961 . S
C2478 H2492 0.961 . S
C2479 C2476 1.539 . S
C2479 H2493 0.958 . S
C2479 H2494 0.961 . S
C2479 H2495 0.960 . S
H2480 C2464 0.931 . S
H2481 C2469 0.929 . S
H2482 C2470 0.960 . S
H2483 C2470 0.962 . S
H2484 C2470 0.960 . S
H2485 C2471 0.961 . S
H2486 C2471 0.961 . S
H2487 C2471 0.961 . S
H2488 C2472 0.931 . S
H2489 C2477 0.930 . S
H2490 C2478 0.956 . S
H2491 C2478 0.961 . S
H2492 C2478 0.961 . S
H2493 C2479 0.958 . S
H2494 C2479 0.961 . S
H2495 C2479 0.960 . S
C2496 C2497 1.391 . S
C2496 C2498 1.394 . S
C2496 H2512 0.931 . S
C2497 C2496 1.391 . S
C2497 C2501 1.376 . S
C2498 C2496 1.394 . S
C2498 C2499 1.369 . S
C2498 C2502 1.531 . S
C2499 C2498 1.369 . S
C2499 C2500 1.410 . S
C2499 C2507 1.503 . S
C2500 C2499 1.410 . S
C2500 C2501 1.392 . S
C2500 C2503 1.511 . S
C2501 C2497 1.376 . S
C2501 C2500 1.392 . S
C2501 H2513 0.929 . S
C2502 C2498 1.531 . S
C2502 H2514 0.960 . S
C2502 H2515 0.962 . S
C2502 H2516 0.960 . S
C2503 C2500 1.511 . S
C2503 H2517 0.961 . S
C2503 H2518 0.961 . S
C2503 H2519 0.961 . S
C2504 C2505 1.370 . S
C2504 C2506 1.363 . S
C2504 H2520 0.931 . S
C2505 C2504 1.370 . S
C2505 C2509 1.408 . S
C2506 C2504 1.363 . S
C2506 C2507 1.370 . S
C2506 C2510 1.524 . S
C2507 C2499 1.503 . S
C2507 C2506 1.370 . S
C2507 C2508 1.403 . S
C2508 C2507 1.403 . S
C2508 C2509 1.404 . S
C2508 C2511 1.539 . S
C2509 C2505 1.408 . S
C2509 C2508 1.404 . S
C2509 H2521 0.930 . S
C2510 C2506 1.524 . S
C2510 H2522 0.956 . S
C2510 H2523 0.961 . S
C2510 H2524 0.961 . S
C2511 C2508 1.539 . S
C2511 H2525 0.958 . S
C2511 H2526 0.961 . S
C2511 H2527 0.960 . S
H2512 C2496 0.931 . S
H2513 C2501 0.929 . S
H2514 C2502 0.960 . S
H2515 C2502 0.962 . S
H2516 C2502 0.960 . S
H2517 C2503 0.961 . S
H2518 C2503 0.961 . S
H2519 C2503 0.961 . S
H2520 C2504 0.931 . S
H2521 C2509 0.930 . S
H2522 C2510 0.956 . S
H2523 C2510 0.961 . S
H2524 C2510 0.961 . S
H2525 C2511 0.958 . S
H2526 C2511 0.961 . S
H2527 C2511 0.960 . S
C2528 C2529 1.391 . S
C2528 C2530 1.394 . S
C2528 H2544 0.931 . S
C2529 C2528 1.391 . S
C2529 C2533 1.376 . S
C2530 C2528 1.394 . S
C2530 C2531 1.369 . S
C2530 C2534 1.531 . S
C2531 C2530 1.369 . S
C2531 C2532 1.410 . S
C2531 C2539 1.503 . S
C2532 C2531 1.410 . S
C2532 C2533 1.392 . S
C2532 C2535 1.511 . S
C2533 C2529 1.376 . S
C2533 C2532 1.392 . S
C2533 H2545 0.929 . S
C2534 C2530 1.531 . S
C2534 H2546 0.960 . S
C2534 H2547 0.962 . S
C2534 H2548 0.960 . S
C2535 C2532 1.511 . S
C2535 H2549 0.961 . S
C2535 H2550 0.961 . S
C2535 H2551 0.961 . S
C2536 C2537 1.370 . S
C2536 C2538 1.363 . S
C2536 H2552 0.931 . S
C2537 C2536 1.370 . S
C2537 C2541 1.408 . S
C2538 C2536 1.363 . S
C2538 C2539 1.370 . S
C2538 C2542 1.524 . S
C2539 C2531 1.503 . S
C2539 C2538 1.370 . S
C2539 C2540 1.403 . S
C2540 C2539 1.403 . S
C2540 C2541 1.404 . S
C2540 C2543 1.539 . S
C2541 C2537 1.408 . S
C2541 C2540 1.404 . S
C2541 H2553 0.930 . S
C2542 C2538 1.524 . S
C2542 H2554 0.956 . S
C2542 H2555 0.961 . S
C2542 H2556 0.961 . S
C2543 C2540 1.539 . S
C2543 H2557 0.958 . S
C2543 H2558 0.961 . S
C2543 H2559 0.960 . S
H2544 C2528 0.931 . S
H2545 C2533 0.929 . S
H2546 C2534 0.960 . S
H2547 C2534 0.962 . S
H2548 C2534 0.960 . S
H2549 C2535 0.961 . S
H2550 C2535 0.961 . S
H2551 C2535 0.961 . S
H2552 C2536 0.931 . S
H2553 C2541 0.930 . S
H2554 C2542 0.956 . S
H2555 C2542 0.961 . S
H2556 C2542 0.961 . S
H2557 C2543 0.958 . S
H2558 C2543 0.961 . S
H2559 C2543 0.960 . S
C2560 C2561 1.391 . S
C2560 C2562 1.394 . S
C2560 H2576 0.931 . S
C2561 C2560 1.391 . S
C2561 C2565 1.376 . S
C2562 C2560 1.394 . S
C2562 C2563 1.369 . S
C2562 C2566 1.531 . S
C2563 C2562 1.369 . S
C2563 C2564 1.410 . S
C2563 C2571 1.503 . S
C2564 C2563 1.410 . S
C2564 C2565 1.392 . S
C2564 C2567 1.511 . S
C2565 C2561 1.376 . S
C2565 C2564 1.392 . S
C2565 H2577 0.929 . S
C2566 C2562 1.531 . S
C2566 H2578 0.960 . S
C2566 H2579 0.962 . S
C2566 H2580 0.960 . S
C2567 C2564 1.511 . S
C2567 H2581 0.961 . S
C2567 H2582 0.961 . S
C2567 H2583 0.961 . S
C2568 C2569 1.370 . S
C2568 C2570 1.363 . S
C2568 H2584 0.931 . S
C2569 C2568 1.370 . S
C2569 C2573 1.408 . S
C2570 C2568 1.363 . S
C2570 C2571 1.370 . S
C2570 C2574 1.524 . S
C2571 C2563 1.503 . S
C2571 C2570 1.370 . S
C2571 C2572 1.403 . S
C2572 C2571 1.403 . S
C2572 C2573 1.404 . S
C2572 C2575 1.539 . S
C2573 C2569 1.408 . S
C2573 C2572 1.404 . S
C2573 H2585 0.930 . S
C2574 C2570 1.524 . S
C2574 H2586 0.956 . S
C2574 H2587 0.961 . S
C2574 H2588 0.961 . S
C2575 C2572 1.539 . S
C2575 H2589 0.958 . S
C2575 H2590 0.961 . S
C2575 H2591 0.960 . S
H2576 C2560 0.931 . S
H2577 C2565 0.929 . S
H2578 C2566 0.960 . S
H2579 C2566 0.962 . S
H2580 C2566 0.960 . S
H2581 C2567 0.961 . S
H2582 C2567 0.961 . S
H2583 C2567 0.961 . S
H2584 C2568 0.931 . S
H2585 C2573 0.930 . S
H2586 C2574 0.956 . S
H2587 C2574 0.961 . S
H2588 C2574 0.961 . S
H2589 C2575 0.958 . S
H2590 C2575 0.961 . S
H2591 C2575 0.960 . S
C2592 C2593 1.391 . S
C2592 C2594 1.394 . S
C2592 H2608 0.931 . S
C2593 C2592 1.391 . S
C2593 C2597 1.376 . S
C2594 C2592 1.394 . S
C2594 C2595 1.369 . S
C2594 C2598 1.531 . S
C2595 C2594 1.369 . S
C2595 C2596 1.410 . S
C2595 C2603 1.503 . S
C2596 C2595 1.410 . S
C2596 C2597 1.392 . S
C2596 C2599 1.511 . S
C2597 C2593 1.376 . S
C2597 C2596 1.392 . S
C2597 H2609 0.929 . S
C2598 C2594 1.531 . S
C2598 H2610 0.960 . S
C2598 H2611 0.962 . S
C2598 H2612 0.960 . S
C2599 C2596 1.511 . S
C2599 H2613 0.961 . S
C2599 H2614 0.961 . S
C2599 H2615 0.961 . S
C2600 C2601 1.370 . S
C2600 C2602 1.363 . S
C2600 H2616 0.931 . S
C2601 C2600 1.370 . S
C2601 C2605 1.408 . S
C2602 C2600 1.363 . S
C2602 C2603 1.370 . S
C2602 C2606 1.524 . S
C2603 C2595 1.503 . S
C2603 C2602 1.370 . S
C2603 C2604 1.403 . S
C2604 C2603 1.403 . S
C2604 C2605 1.404 . S
C2604 C2607 1.539 . S
C2605 C2601 1.408 . S
C2605 C2604 1.404 . S
C2605 H2617 0.930 . S
C2606 C2602 1.524 . S
C2606 H2618 0.956 . S
C2606 H2619 0.961 . S
C2606 H2620 0.961 . S
C2607 C2604 1.539 . S
C2607 H2621 0.958 . S
C2607 H2622 0.961 . S
C2607 H2623 0.960 . S
H2608 C2592 0.931 . S
H2609 C2597 0.929 . S
H2610 C2598 0.960 . S
H2611 C2598 0.962 . S
H2612 C2598 0.960 . S
H2613 C2599 0.961 . S
H2614 C2599 0.961 . S
H2615 C2599 0.961 . S
H2616 C2600 0.931 . S
H2617 C2605 0.930 . S
H2618 C2606 0.956 . S
H2619 C2606 0.961 . S
H2620 C2606 0.961 . S
H2621 C2607 0.958 . S
H2622 C2607 0.961 . S
H2623 C2607 0.960 . S
C2624 C2625 1.391 . S
C2624 C2626 1.394 . S
C2624 H2640 0.931 . S
C2625 C2624 1.391 . S
C2625 C2629 1.376 . S
C2626 C2624 1.394 . S
C2626 C2627 1.369 . S
C2626 C2630 1.531 . S
C2627 C2626 1.369 . S
C2627 C2628 1.410 . S
C2627 C2635 1.503 . S
C2628 C2627 1.410 . S
C2628 C2629 1.392 . S
C2628 C2631 1.511 . S
C2629 C2625 1.376 . S
C2629 C2628 1.392 . S
C2629 H2641 0.929 . S
C2630 C2626 1.531 . S
C2630 H2642 0.960 . S
C2630 H2643 0.962 . S
C2630 H2644 0.960 . S
C2631 C2628 1.511 . S
C2631 H2645 0.961 . S
C2631 H2646 0.961 . S
C2631 H2647 0.961 . S
C2632 C2633 1.370 . S
C2632 C2634 1.363 . S
C2632 H2648 0.931 . S
C2633 C2632 1.370 . S
C2633 C2637 1.408 . S
C2634 C2632 1.363 . S
C2634 C2635 1.370 . S
C2634 C2638 1.524 . S
C2635 C2627 1.503 . S
C2635 C2634 1.370 . S
C2635 C2636 1.403 . S
C2636 C2635 1.403 . S
C2636 C2637 1.404 . S
C2636 C2639 1.539 . S
C2637 C2633 1.408 . S
C2637 C2636 1.404 . S
C2637 H2649 0.930 . S
C2638 C2634 1.524 . S
C2638 H2650 0.956 . S
C2638 H2651 0.961 . S
C2638 H2652 0.961 . S
C2639 C2636 1.539 . S
C2639 H2653 0.958 . S
C2639 H2654 0.961 . S
C2639 H2655 0.960 . S
H2640 C2624 0.931 . S
H2641 C2629 0.929 . S
H2642 C2630 0.960 . S
H2643 C2630 0.962 . S
H2644 C2630 0.960 . S
H2645 C2631 0.961 . S
H2646 C2631 0.961 . S
H2647 C2631 0.961 . S
H2648 C2632 0.931 . S
H2649 C2637 0.930 . S
H2650 C2638 0.956 . S
H2651 C2638 0.961 . S
H2652 C2638 0.961 . S
H2653 C2639 0.958 . S
H2654 C2639 0.961 . S
H2655 C2639 0.960 . S
C2656 C2657 1.391 . S
C2656 C2658 1.394 . S
C2656 H2672 0.931 . S
C2657 C2656 1.391 . S
C2657 C2661 1.376 . S
C2658 C2656 1.394 . S
C2658 C2659 1.369 . S
C2658 C2662 1.531 . S
C2659 C2658 1.369 . S
C2659 C2660 1.410 . S
C2659 C2667 1.503 . S
C2660 C2659 1.410 . S
C2660 C2661 1.392 . S
C2660 C2663 1.511 . S
C2661 C2657 1.376 . S
C2661 C2660 1.392 . S
C2661 H2673 0.929 . S
C2662 C2658 1.531 . S
C2662 H2674 0.960 . S
C2662 H2675 0.962 . S
C2662 H2676 0.960 . S
C2663 C2660 1.511 . S
C2663 H2677 0.961 . S
C2663 H2678 0.961 . S
C2663 H2679 0.961 . S
C2664 C2665 1.370 . S
C2664 C2666 1.363 . S
C2664 H2680 0.931 . S
C2665 C2664 1.370 . S
C2665 C2669 1.408 . S
C2666 C2664 1.363 . S
C2666 C2667 1.370 . S
C2666 C2670 1.524 . S
C2667 C2659 1.503 . S
C2667 C2666 1.370 . S
C2667 C2668 1.403 . S
C2668 C2667 1.403 . S
C2668 C2669 1.404 . S
C2668 C2671 1.539 . S
C2669 C2665 1.408 . S
C2669 C2668 1.404 . S
C2669 H2681 0.930 . S
C2670 C2666 1.524 . S
C2670 H2682 0.956 . S
C2670 H2683 0.961 . S
C2670 H2684 0.961 . S
C2671 C2668 1.539 . S
C2671 H2685 0.958 . S
C2671 H2686 0.961 . S
C2671 H2687 0.960 . S
H2672 C2656 0.931 . S
H2673 C2661 0.929 . S
H2674 C2662 0.960 . S
H2675 C2662 0.962 . S
H2676 C2662 0.960 . S
H2677 C2663 0.961 . S
H2678 C2663 0.961 . S
H2679 C2663 0.961 . S
H2680 C2664 0.931 . S
H2681 C2669 0.930 . S
H2682 C2670 0.956 . S
H2683 C2670 0.961 . S
H2684 C2670 0.961 . S
H2685 C2671 0.958 . S
H2686 C2671 0.961 . S
H2687 C2671 0.960 . S
C2688 C2689 1.391 . S
C2688 C2690 1.394 . S
C2688 H2704 0.931 . S
C2689 C2688 1.391 . S
C2689 C2693 1.376 . S
C2690 C2688 1.394 . S
C2690 C2691 1.369 . S
C2690 C2694 1.531 . S
C2691 C2690 1.369 . S
C2691 C2692 1.410 . S
C2691 C2699 1.503 . S
C2692 C2691 1.410 . S
C2692 C2693 1.392 . S
C2692 C2695 1.511 . S
C2693 C2689 1.376 . S
C2693 C2692 1.392 . S
C2693 H2705 0.929 . S
C2694 C2690 1.531 . S
C2694 H2706 0.960 . S
C2694 H2707 0.962 . S
C2694 H2708 0.960 . S
C2695 C2692 1.511 . S
C2695 H2709 0.961 . S
C2695 H2710 0.961 . S
C2695 H2711 0.961 . S
C2696 C2697 1.370 . S
C2696 C2698 1.363 . S
C2696 H2712 0.931 . S
C2697 C2696 1.370 . S
C2697 C2701 1.408 . S
C2698 C2696 1.363 . S
C2698 C2699 1.370 . S
C2698 C2702 1.524 . S
C2699 C2691 1.503 . S
C2699 C2698 1.370 . S
C2699 C2700 1.403 . S
C2700 C2699 1.403 . S
C2700 C2701 1.404 . S
C2700 C2703 1.539 . S
C2701 C2697 1.408 . S
C2701 C2700 1.404 . S
C2701 H2713 0.930 . S
C2702 C2698 1.524 . S
C2702 H2714 0.956 . S
C2702 H2715 0.961 . S
C2702 H2716 0.961 . S
C2703 C2700 1.539 . S
C2703 H2717 0.958 . S
C2703 H2718 0.961 . S
C2703 H2719 0.960 . S
H2704 C2688 0.931 . S
H2705 C2693 0.929 . S
H2706 C2694 0.960 . S
H2707 C2694 0.962 . S
H2708 C2694 0.960 . S
H2709 C2695 0.961 . S
H2710 C2695 0.961 . S
H2711 C2695 0.961 . S
H2712 C2696 0.931 . S
H2713 C2701 0.930 . S
H2714 C2702 0.956 . S
H2715 C2702 0.961 . S
H2716 C2702 0.961 . S
H2717 C2703 0.958 . S
H2718 C2703 0.961 . S
H2719 C2703 0.960 . S
C2720 C2721 1.391 . S
C2720 C2722 1.394 . S
C2720 H2736 0.931 . S
C2721 C2720 1.391 . S
C2721 C2725 1.376 . S
C2722 C2720 1.394 . S
C2722 C2723 1.369 . S
C2722 C2726 1.531 . S
C2723 C2722 1.369 . S
C2723 C2724 1.410 . S
C2723 C2731 1.503 . S
C2724 C2723 1.410 . S
C2724 C2725 1.392 . S
C2724 C2727 1.511 . S
C2725 C2721 1.376 . S
C2725 C2724 1.392 . S
C2725 H2737 0.929 . S
C2726 C2722 1.531 . S
C2726 H2738 0.960 . S
C2726 H2739 0.962 . S
C2726 H2740 0.960 . S
C2727 C2724 1.511 . S
C2727 H2741 0.961 . S
C2727 H2742 0.961 . S
C2727 H2743 0.961 . S
C2728 C2729 1.370 . S
C2728 C2730 1.363 . S
C2728 H2744 0.931 . S
C2729 C2728 1.370 . S
C2729 C2733 1.408 . S
C2730 C2728 1.363 . S
C2730 C2731 1.370 . S
C2730 C2734 1.524 . S
C2731 C2723 1.503 . S
C2731 C2730 1.370 . S
C2731 C2732 1.403 . S
C2732 C2731 1.403 . S
C2732 C2733 1.404 . S
C2732 C2735 1.539 . S
C2733 C2729 1.408 . S
C2733 C2732 1.404 . S
C2733 H2745 0.930 . S
C2734 C2730 1.524 . S
C2734 H2746 0.956 . S
C2734 H2747 0.961 . S
C2734 H2748 0.961 . S
C2735 C2732 1.539 . S
C2735 H2749 0.958 . S
C2735 H2750 0.961 . S
C2735 H2751 0.960 . S
H2736 C2720 0.931 . S
H2737 C2725 0.929 . S
H2738 C2726 0.960 . S
H2739 C2726 0.962 . S
H2740 C2726 0.960 . S
H2741 C2727 0.961 . S
H2742 C2727 0.961 . S
H2743 C2727 0.961 . S
H2744 C2728 0.931 . S
H2745 C2733 0.930 . S
H2746 C2734 0.956 . S
H2747 C2734 0.961 . S
H2748 C2734 0.961 . S
H2749 C2735 0.958 . S
H2750 C2735 0.961 . S
H2751 C2735 0.960 . S
C2752 C2753 1.391 . S
C2752 C2754 1.394 . S
C2752 H2768 0.931 . S
C2753 C2752 1.391 . S
C2753 C2757 1.376 . S
C2754 C2752 1.394 . S
C2754 C2755 1.369 . S
C2754 C2758 1.531 . S
C2755 C2754 1.369 . S
C2755 C2756 1.410 . S
C2755 C2763 1.503 . S
C2756 C2755 1.410 . S
C2756 C2757 1.392 . S
C2756 C2759 1.511 . S
C2757 C2753 1.376 . S
C2757 C2756 1.392 . S
C2757 H2769 0.929 . S
C2758 C2754 1.531 . S
C2758 H2770 0.960 . S
C2758 H2771 0.962 . S
C2758 H2772 0.960 . S
C2759 C2756 1.511 . S
C2759 H2773 0.961 . S
C2759 H2774 0.961 . S
C2759 H2775 0.961 . S
C2760 C2761 1.370 . S
C2760 C2762 1.363 . S
C2760 H2776 0.931 . S
C2761 C2760 1.370 . S
C2761 C2765 1.408 . S
C2762 C2760 1.363 . S
C2762 C2763 1.370 . S
C2762 C2766 1.524 . S
C2763 C2755 1.503 . S
C2763 C2762 1.370 . S
C2763 C2764 1.403 . S
C2764 C2763 1.403 . S
C2764 C2765 1.404 . S
C2764 C2767 1.539 . S
C2765 C2761 1.408 . S
C2765 C2764 1.404 . S
C2765 H2777 0.930 . S
C2766 C2762 1.524 . S
C2766 H2778 0.956 . S
C2766 H2779 0.961 . S
C2766 H2780 0.961 . S
C2767 C2764 1.539 . S
C2767 H2781 0.958 . S
C2767 H2782 0.961 . S
C2767 H2783 0.960 . S
H2768 C2752 0.931 . S
H2769 C2757 0.929 . S
H2770 C2758 0.960 . S
H2771 C2758 0.962 . S
H2772 C2758 0.960 . S
H2773 C2759 0.961 . S
H2774 C2759 0.961 . S
H2775 C2759 0.961 . S
H2776 C2760 0.931 . S
H2777 C2765 0.930 . S
H2778 C2766 0.956 . S
H2779 C2766 0.961 . S
H2780 C2766 0.961 . S
H2781 C2767 0.958 . S
H2782 C2767 0.961 . S
H2783 C2767 0.960 . S
C2784 C2785 1.391 . S
C2784 C2786 1.394 . S
C2784 H2800 0.931 . S
C2785 C2784 1.391 . S
C2785 C2789 1.376 . S
C2786 C2784 1.394 . S
C2786 C2787 1.369 . S
C2786 C2790 1.531 . S
C2787 C2786 1.369 . S
C2787 C2788 1.410 . S
C2787 C2795 1.503 . S
C2788 C2787 1.410 . S
C2788 C2789 1.392 . S
C2788 C2791 1.511 . S
C2789 C2785 1.376 . S
C2789 C2788 1.392 . S
C2789 H2801 0.929 . S
C2790 C2786 1.531 . S
C2790 H2802 0.960 . S
C2790 H2803 0.962 . S
C2790 H2804 0.960 . S
C2791 C2788 1.511 . S
C2791 H2805 0.961 . S
C2791 H2806 0.961 . S
C2791 H2807 0.961 . S
C2792 C2793 1.370 . S
C2792 C2794 1.363 . S
C2792 H2808 0.931 . S
C2793 C2792 1.370 . S
C2793 C2797 1.408 . S
C2794 C2792 1.363 . S
C2794 C2795 1.370 . S
C2794 C2798 1.524 . S
C2795 C2787 1.503 . S
C2795 C2794 1.370 . S
C2795 C2796 1.403 . S
C2796 C2795 1.403 . S
C2796 C2797 1.404 . S
C2796 C2799 1.539 . S
C2797 C2793 1.408 . S
C2797 C2796 1.404 . S
C2797 H2809 0.930 . S
C2798 C2794 1.524 . S
C2798 H2810 0.956 . S
C2798 H2811 0.961 . S
C2798 H2812 0.961 . S
C2799 C2796 1.539 . S
C2799 H2813 0.958 . S
C2799 H2814 0.961 . S
C2799 H2815 0.960 . S
H2800 C2784 0.931 . S
H2801 C2789 0.929 . S
H2802 C2790 0.960 . S
H2803 C2790 0.962 . S
H2804 C2790 0.960 . S
H2805 C2791 0.961 . S
H2806 C2791 0.961 . S
H2807 C2791 0.961 . S
H2808 C2792 0.931 . S
H2809 C2797 0.930 . S
H2810 C2798 0.956 . S
H2811 C2798 0.961 . S
H2812 C2798 0.961 . S
H2813 C2799 0.958 . S
H2814 C2799 0.961 . S
H2815 C2799 0.960 . S
C2816 C2817 1.391 . S
C2816 C2818 1.394 . S
C2816 H2832 0.931 . S
C2817 C2816 1.391 . S
C2817 C2821 1.376 . S
C2818 C2816 1.394 . S
C2818 C2819 1.369 . S
C2818 C2822 1.531 . S
C2819 C2818 1.369 . S
C2819 C2820 1.410 . S
C2819 C2827 1.503 . S
C2820 C2819 1.410 . S
C2820 C2821 1.392 . S
C2820 C2823 1.511 . S
C2821 C2817 1.376 . S
C2821 C2820 1.392 . S
C2821 H2833 0.929 . S
C2822 C2818 1.531 . S
C2822 H2834 0.960 . S
C2822 H2835 0.962 . S
C2822 H2836 0.960 . S
C2823 C2820 1.511 . S
C2823 H2837 0.961 . S
C2823 H2838 0.961 . S
C2823 H2839 0.961 . S
C2824 C2825 1.370 . S
C2824 C2826 1.363 . S
C2824 H2840 0.931 . S
C2825 C2824 1.370 . S
C2825 C2829 1.408 . S
C2826 C2824 1.363 . S
C2826 C2827 1.370 . S
C2826 C2830 1.524 . S
C2827 C2819 1.503 . S
C2827 C2826 1.370 . S
C2827 C2828 1.403 . S
C2828 C2827 1.403 . S
C2828 C2829 1.404 . S
C2828 C2831 1.539 . S
C2829 C2825 1.408 . S
C2829 C2828 1.404 . S
C2829 H2841 0.930 . S
C2830 C2826 1.524 . S
C2830 H2842 0.956 . S
C2830 H2843 0.961 . S
C2830 H2844 0.961 . S
C2831 C2828 1.539 . S
C2831 H2845 0.958 . S
C2831 H2846 0.961 . S
C2831 H2847 0.960 . S
H2832 C2816 0.931 . S
H2833 C2821 0.929 . S
H2834 C2822 0.960 . S
H2835 C2822 0.962 . S
H2836 C2822 0.960 . S
H2837 C2823 0.961 . S
H2838 C2823 0.961 . S
H2839 C2823 0.961 . S
H2840 C2824 0.931 . S
H2841 C2829 0.930 . S
H2842 C2830 0.956 . S
H2843 C2830 0.961 . S
H2844 C2830 0.961 . S
H2845 C2831 0.958 . S
H2846 C2831 0.961 . S
H2847 C2831 0.960 . S
C2848 C2849 1.391 . S
C2848 C2850 1.394 . S
C2848 H2864 0.931 . S
C2849 C2848 1.391 . S
C2849 C2853 1.376 . S
C2850 C2848 1.394 . S
C2850 C2851 1.369 . S
C2850 C2854 1.531 . S
C2851 C2850 1.369 . S
C2851 C2852 1.410 . S
C2851 C2859 1.503 . S
C2852 C2851 1.410 . S
C2852 C2853 1.392 . S
C2852 C2855 1.511 . S
C2853 C2849 1.376 . S
C2853 C2852 1.392 . S
C2853 H2865 0.929 . S
C2854 C2850 1.531 . S
C2854 H2866 0.960 . S
C2854 H2867 0.962 . S
C2854 H2868 0.960 . S
C2855 C2852 1.511 . S
C2855 H2869 0.961 . S
C2855 H2870 0.961 . S
C2855 H2871 0.961 . S
C2856 C2857 1.370 . S
C2856 C2858 1.363 . S
C2856 H2872 0.931 . S
C2857 C2856 1.370 . S
C2857 C2861 1.408 . S
C2858 C2856 1.363 . S
C2858 C2859 1.370 . S
C2858 C2862 1.524 . S
C2859 C2851 1.503 . S
C2859 C2858 1.370 . S
C2859 C2860 1.403 . S
C2860 C2859 1.403 . S
C2860 C2861 1.404 . S
C2860 C2863 1.539 . S
C2861 C2857 1.408 . S
C2861 C2860 1.404 . S
C2861 H2873 0.930 . S
C2862 C2858 1.524 . S
C2862 H2874 0.956 . S
C2862 H2875 0.961 . S
C2862 H2876 0.961 . S
C2863 C2860 1.539 . S
C2863 H2877 0.958 . S
C2863 H2878 0.961 . S
C2863 H2879 0.960 . S
H2864 C2848 0.931 . S
H2865 C2853 0.929 . S
H2866 C2854 0.960 . S
H2867 C2854 0.962 . S
H2868 C2854 0.960 . S
H2869 C2855 0.961 . S
H2870 C2855 0.961 . S
H2871 C2855 0.961 . S
H2872 C2856 0.931 . S
H2873 C2861 0.930 . S
H2874 C2862 0.956 . S
H2875 C2862 0.961 . S
H2876 C2862 0.961 . S
H2877 C2863 0.958 . S
H2878 C2863 0.961 . S
H2879 C2863 0.960 . S
C2880 C2881 1.391 . S
C2880 C2882 1.394 . S
C2880 H2896 0.931 . S
C2881 C2880 1.391 . S
C2881 C2885 1.376 . S
C2882 C2880 1.394 . S
C2882 C2883 1.369 . S
C2882 C2886 1.531 . S
C2883 C2882 1.369 . S
C2883 C2884 1.410 . S
C2883 C2891 1.503 . S
C2884 C2883 1.410 . S
C2884 C2885 1.392 . S
C2884 C2887 1.511 . S
C2885 C2881 1.376 . S
C2885 C2884 1.392 . S
C2885 H2897 0.929 . S
C2886 C2882 1.531 . S
C2886 H2898 0.960 . S
C2886 H2899 0.962 . S
C2886 H2900 0.960 . S
C2887 C2884 1.511 . S
C2887 H2901 0.961 . S
C2887 H2902 0.961 . S
C2887 H2903 0.961 . S
C2888 C2889 1.370 . S
C2888 C2890 1.363 . S
C2888 H2904 0.931 . S
C2889 C2888 1.370 . S
C2889 C2893 1.408 . S
C2890 C2888 1.363 . S
C2890 C2891 1.370 . S
C2890 C2894 1.524 . S
C2891 C2883 1.503 . S
C2891 C2890 1.370 . S
C2891 C2892 1.403 . S
C2892 C2891 1.403 . S
C2892 C2893 1.404 . S
C2892 C2895 1.539 . S
C2893 C2889 1.408 . S
C2893 C2892 1.404 . S
C2893 H2905 0.930 . S
C2894 C2890 1.524 . S
C2894 H2906 0.956 . S
C2894 H2907 0.961 . S
C2894 H2908 0.961 . S
C2895 C2892 1.539 . S
C2895 H2909 0.958 . S
C2895 H2910 0.961 . S
C2895 H2911 0.960 . S
H2896 C2880 0.931 . S
H2897 C2885 0.929 . S
H2898 C2886 0.960 . S
H2899 C2886 0.962 . S
H2900 C2886 0.960 . S
H2901 C2887 0.961 . S
H2902 C2887 0.961 . S
H2903 C2887 0.961 . S
H2904 C2888 0.931 . S
H2905 C2893 0.930 . S
H2906 C2894 0.956 . S
H2907 C2894 0.961 . S
H2908 C2894 0.961 . S
H2909 C2895 0.958 . S
H2910 C2895 0.961 . S
H2911 C2895 0.960 . S
C2912 C2913 1.391 . S
C2912 C2914 1.394 . S
C2912 H2928 0.931 . S
C2913 C2912 1.391 . S
C2913 C2917 1.376 . S
C2914 C2912 1.394 . S
C2914 C2915 1.369 . S
C2914 C2918 1.531 . S
C2915 C2914 1.369 . S
C2915 C2916 1.410 . S
C2915 C2923 1.503 . S
C2916 C2915 1.410 . S
C2916 C2917 1.392 . S
C2916 C2919 1.511 . S
C2917 C2913 1.376 . S
C2917 C2916 1.392 . S
C2917 H2929 0.929 . S
C2918 C2914 1.531 . S
C2918 H2930 0.960 . S
C2918 H2931 0.962 . S
C2918 H2932 0.960 . S
C2919 C2916 1.511 . S
C2919 H2933 0.961 . S
C2919 H2934 0.961 . S
C2919 H2935 0.961 . S
C2920 C2921 1.370 . S
C2920 C2922 1.363 . S
C2920 H2936 0.931 . S
C2921 C2920 1.370 . S
C2921 C2925 1.408 . S
C2922 C2920 1.363 . S
C2922 C2923 1.370 . S
C2922 C2926 1.524 . S
C2923 C2915 1.503 . S
C2923 C2922 1.370 . S
C2923 C2924 1.403 . S
C2924 C2923 1.403 . S
C2924 C2925 1.404 . S
C2924 C2927 1.539 . S
C2925 C2921 1.408 . S
C2925 C2924 1.404 . S
C2925 H2937 0.930 . S
C2926 C2922 1.524 . S
C2926 H2938 0.956 . S
C2926 H2939 0.961 . S
C2926 H2940 0.961 . S
C2927 C2924 1.539 . S
C2927 H2941 0.958 . S
C2927 H2942 0.961 . S
C2927 H2943 0.960 . S
H2928 C2912 0.931 . S
H2929 C2917 0.929 . S
H2930 C2918 0.960 . S
H2931 C2918 0.962 . S
H2932 C2918 0.960 . S
H2933 C2919 0.961 . S
H2934 C2919 0.961 . S
H2935 C2919 0.961 . S
H2936 C2920 0.931 . S
H2937 C2925 0.930 . S
H2938 C2926 0.956 . S
H2939 C2926 0.961 . S
H2940 C2926 0.961 . S
H2941 C2927 0.958 . S
H2942 C2927 0.961 . S
H2943 C2927 0.960 . S
C2944 C2945 1.391 . S
C2944 C2946 1.394 . S
C2944 H2960 0.931 . S
C2945 C2944 1.391 . S
C2945 C2949 1.376 . S
C2946 C2944 1.394 . S
C2946 C2947 1.369 . S
C2946 C2950 1.531 . S
C2947 C2946 1.369 . S
C2947 C2948 1.410 . S
C2947 C2955 1.503 . S
C2948 C2947 1.410 . S
C2948 C2949 1.392 . S
C2948 C2951 1.511 . S
C2949 C2945 1.376 . S
C2949 C2948 1.392 . S
C2949 H2961 0.929 . S
C2950 C2946 1.531 . S
C2950 H2962 0.960 . S
C2950 H2963 0.962 . S
C2950 H2964 0.960 . S
C2951 C2948 1.511 . S
C2951 H2965 0.961 . S
C2951 H2966 0.961 . S
C2951 H2967 0.961 . S
C2952 C2953 1.370 . S
C2952 C2954 1.363 . S
C2952 H2968 0.931 . S
C2953 C2952 1.370 . S
C2953 C2957 1.408 . S
C2954 C2952 1.363 . S
C2954 C2955 1.370 . S
C2954 C2958 1.524 . S
C2955 C2947 1.503 . S
C2955 C2954 1.370 . S
C2955 C2956 1.403 . S
C2956 C2955 1.403 . S
C2956 C2957 1.404 . S
C2956 C2959 1.539 . S
C2957 C2953 1.408 . S
C2957 C2956 1.404 . S
C2957 H2969 0.930 . S
C2958 C2954 1.524 . S
C2958 H2970 0.956 . S
C2958 H2971 0.961 . S
C2958 H2972 0.961 . S
C2959 C2956 1.539 . S
C2959 H2973 0.958 . S
C2959 H2974 0.961 . S
C2959 H2975 0.960 . S
H2960 C2944 0.931 . S
H2961 C2949 0.929 . S
H2962 C2950 0.960 . S
H2963 C2950 0.962 . S
H2964 C2950 0.960 . S
H2965 C2951 0.961 . S
H2966 C2951 0.961 . S
H2967 C2951 0.961 . S
H2968 C2952 0.931 . S
H2969 C2957 0.930 . S
H2970 C2958 0.956 . S
H2971 C2958 0.961 . S
H2972 C2958 0.961 . S
H2973 C2959 0.958 . S
H2974 C2959 0.961 . S
H2975 C2959 0.960 . S
C2976 C2977 1.391 . S
C2976 C2978 1.394 . S
C2976 H2992 0.931 . S
C2977 C2976 1.391 . S
C2977 C2981 1.376 . S
C2978 C2976 1.394 . S
C2978 C2979 1.369 . S
C2978 C2982 1.531 . S
C2979 C2978 1.369 . S
C2979 C2980 1.410 . S
C2979 C2987 1.503 . S
C2980 C2979 1.410 . S
C2980 C2981 1.392 . S
C2980 C2983 1.511 . S
C2981 C2977 1.376 . S
C2981 C2980 1.392 . S
C2981 H2993 0.929 . S
C2982 C2978 1.531 . S
C2982 H2994 0.960 . S
C2982 H2995 0.962 . S
C2982 H2996 0.960 . S
C2983 C2980 1.511 . S
C2983 H2997 0.961 . S
C2983 H2998 0.961 . S
C2983 H2999 0.961 . S
C2984 C2985 1.370 . S
C2984 C2986 1.363 . S
C2984 H3000 0.931 . S
C2985 C2984 1.370 . S
C2985 C2989 1.408 . S
C2986 C2984 1.363 . S
C2986 C2987 1.370 . S
C2986 C2990 1.524 . S
C2987 C2979 1.503 . S
C2987 C2986 1.370 . S
C2987 C2988 1.403 . S
C2988 C2987 1.403 . S
C2988 C2989 1.404 . S
C2988 C2991 1.539 . S
C2989 C2985 1.408 . S
C2989 C2988 1.404 . S
C2989 H3001 0.930 . S
C2990 C2986 1.524 . S
C2990 H3002 0.956 . S
C2990 H3003 0.961 . S
C2990 H3004 0.961 . S
C2991 C2988 1.539 . S
C2991 H3005 0.958 . S
C2991 H3006 0.961 . S
C2991 H3007 0.960 . S
H2992 C2976 0.931 . S
H2993 C2981 0.929 . S
H2994 C2982 0.960 . S
H2995 C2982 0.962 . S
H2996 C2982 0.960 . S
H2997 C2983 0.961 . S
H2998 C2983 0.961 . S
H2999 C2983 0.961 . S
H3000 C2984 0.931 . S
H3001 C2989 0.930 . S
H3002 C2990 0.956 . S
H3003 C2990 0.961 . S
H3004 C2990 0.961 . S
H3005 C2991 0.958 . S
H3006 C2991 0.961 . S
H3007 C2991 0.960 . S
C3008 C3009 1.391 . S
C3008 C3010 1.394 . S
C3008 H3024 0.931 . S
C3009 C3008 1.391 . S
C3009 C3013 1.376 . S
C3010 C3008 1.394 . S
C3010 C3011 1.369 . S
C3010 C3014 1.531 . S
C3011 C3010 1.369 . S
C3011 C3012 1.410 . S
C3011 C3019 1.503 . S
C3012 C3011 1.410 . S
C3012 C3013 1.392 . S
C3012 C3015 1.511 . S
C3013 C3009 1.376 . S
C3013 C3012 1.392 . S
C3013 H3025 0.929 . S
C3014 C3010 1.531 . S
C3014 H3026 0.960 . S
C3014 H3027 0.962 . S
C3014 H3028 0.960 . S
C3015 C3012 1.511 . S
C3015 H3029 0.961 . S
C3015 H3030 0.961 . S
C3015 H3031 0.961 . S
C3016 C3017 1.370 . S
C3016 C3018 1.363 . S
C3016 H3032 0.931 . S
C3017 C3016 1.370 . S
C3017 C3021 1.408 . S
C3018 C3016 1.363 . S
C3018 C3019 1.370 . S
C3018 C3022 1.524 . S
C3019 C3011 1.503 . S
C3019 C3018 1.370 . S
C3019 C3020 1.403 . S
C3020 C3019 1.403 . S
C3020 C3021 1.404 . S
C3020 C3023 1.539 . S
C3021 C3017 1.408 . S
C3021 C3020 1.404 . S
C3021 H3033 0.930 . S
C3022 C3018 1.524 . S
C3022 H3034 0.956 . S
C3022 H3035 0.961 . S
C3022 H3036 0.961 . S
C3023 C3020 1.539 . S
C3023 H3037 0.958 . S
C3023 H3038 0.961 . S
C3023 H3039 0.960 . S
H3024 C3008 0.931 . S
H3025 C3013 0.929 . S
H3026 C3014 0.960 . S
H3027 C3014 0.962 . S
H3028 C3014 0.960 . S
H3029 C3015 0.961 . S
H3030 C3015 0.961 . S
H3031 C3015 0.961 . S
H3032 C3016 0.931 . S
H3033 C3021 0.930 . S
H3034 C3022 0.956 . S
H3035 C3022 0.961 . S
H3036 C3022 0.961 . S
H3037 C3023 0.958 . S
H3038 C3023 0.961 . S
H3039 C3023 0.960 . S
C3040 C3041 1.391 . S
C3040 C3042 1.394 . S
C3040 H3056 0.931 . S
C3041 C3040 1.391 . S
C3041 C3045 1.376 . S
C3042 C3040 1.394 . S
C3042 C3043 1.369 . S
C3042 C3046 1.531 . S
C3043 C3042 1.369 . S
C3043 C3044 1.410 . S
C3043 C3051 1.503 . S
C3044 C3043 1.410 . S
C3044 C3045 1.392 . S
C3044 C3047 1.511 . S
C3045 C3041 1.376 . S
C3045 C3044 1.392 . S
C3045 H3057 0.929 . S
C3046 C3042 1.531 . S
C3046 H3058 0.960 . S
C3046 H3059 0.962 . S
C3046 H3060 0.960 . S
C3047 C3044 1.511 . S
C3047 H3061 0.961 . S
C3047 H3062 0.961 . S
C3047 H3063 0.961 . S
C3048 C3049 1.370 . S
C3048 C3050 1.363 . S
C3048 H3064 0.931 . S
C3049 C3048 1.370 . S
C3049 C3053 1.408 . S
C3050 C3048 1.363 . S
C3050 C3051 1.370 . S
C3050 C3054 1.524 . S
C3051 C3043 1.503 . S
C3051 C3050 1.370 . S
C3051 C3052 1.403 . S
C3052 C3051 1.403 . S
C3052 C3053 1.404 . S
C3052 C3055 1.539 . S
C3053 C3049 1.408 . S
C3053 C3052 1.404 . S
C3053 H3065 0.930 . S
C3054 C3050 1.524 . S
C3054 H3066 0.956 . S
C3054 H3067 0.961 . S
C3054 H3068 0.961 . S
C3055 C3052 1.539 . S
C3055 H3069 0.958 . S
C3055 H3070 0.961 . S
C3055 H3071 0.960 . S
H3056 C3040 0.931 . S
H3057 C3045 0.929 . S
H3058 C3046 0.960 . S
H3059 C3046 0.962 . S
H3060 C3046 0.960 . S
H3061 C3047 0.961 . S
H3062 C3047 0.961 . S
H3063 C3047 0.961 . S
H3064 C3048 0.931 . S
H3065 C3053 0.930 . S
H3066 C3054 0.956 . S
H3067 C3054 0.961 . S
H3068 C3054 0.961 . S
H3069 C3055 0.958 . S
H3070 C3055 0.961 . S
H3071 C3055 0.960 . S
C3072 C3073 1.391 . S
C3072 C3074 1.394 . S
C3072 H3088 0.931 . S
C3073 C3072 1.391 . S
C3073 C3077 1.376 . S
C3074 C3072 1.394 . S
C3074 C3075 1.369 . S
C3074 C3078 1.531 . S
C3075 C3074 1.369 . S
C3075 C3076 1.410 . S
C3075 C3083 1.503 . S
C3076 C3075 1.410 . S
C3076 C3077 1.392 . S
C3076 C3079 1.511 . S
C3077 C3073 1.376 . S
C3077 C3076 1.392 . S
C3077 H3089 0.929 . S
C3078 C3074 1.531 . S
C3078 H3090 0.960 . S
C3078 H3091 0.962 . S
C3078 H3092 0.960 . S
C3079 C3076 1.511 . S
C3079 H3093 0.961 . S
C3079 H3094 0.961 . S
C3079 H3095 0.961 . S
C3080 C3081 1.370 . S
C3080 C3082 1.363 . S
C3080 H3096 0.931 . S
C3081 C3080 1.370 . S
C3081 C3085 1.408 . S
C3082 C3080 1.363 . S
C3082 C3083 1.370 . S
C3082 C3086 1.524 . S
C3083 C3075 1.503 . S
C3083 C3082 1.370 . S
C3083 C3084 1.403 . S
C3084 C3083 1.403 . S
C3084 C3085 1.404 . S
C3084 C3087 1.539 . S
C3085 C3081 1.408 . S
C3085 C3084 1.404 . S
C3085 H3097 0.930 . S
C3086 C3082 1.524 . S
C3086 H3098 0.956 . S
C3086 H3099 0.961 . S
C3086 H3100 0.961 . S
C3087 C3084 1.539 . S
C3087 H3101 0.958 . S
C3087 H3102 0.961 . S
C3087 H3103 0.960 . S
H3088 C3072 0.931 . S
H3089 C3077 0.929 . S
H3090 C3078 0.960 . S
H3091 C3078 0.962 . S
H3092 C3078 0.960 . S
H3093 C3079 0.961 . S
H3094 C3079 0.961 . S
H3095 C3079 0.961 . S
H3096 C3080 0.931 . S
H3097 C3085 0.930 . S
H3098 C3086 0.956 . S
H3099 C3086 0.961 . S
H3100 C3086 0.961 . S
H3101 C3087 0.958 . S
H3102 C3087 0.961 . S
H3103 C3087 0.960 . S
C3104 C3105 1.391 . S
C3104 C3106 1.394 . S
C3104 H3120 0.931 . S
C3105 C3104 1.391 . S
C3105 C3109 1.376 . S
C3106 C3104 1.394 . S
C3106 C3107 1.369 . S
C3106 C3110 1.531 . S
C3107 C3106 1.369 . S
C3107 C3108 1.410 . S
C3107 C3115 1.503 . S
C3108 C3107 1.410 . S
C3108 C3109 1.392 . S
C3108 C3111 1.511 . S
C3109 C3105 1.376 . S
C3109 C3108 1.392 . S
C3109 H3121 0.929 . S
C3110 C3106 1.531 . S
C3110 H3122 0.960 . S
C3110 H3123 0.962 . S
C3110 H3124 0.960 . S
C3111 C3108 1.511 . S
C3111 H3125 0.961 . S
C3111 H3126 0.961 . S
C3111 H3127 0.961 . S
C3112 C3113 1.370 . S
C3112 C3114 1.363 . S
C3112 H3128 0.931 . S
C3113 C3112 1.370 . S
C3113 C3117 1.408 . S
C3114 C3112 1.363 . S
C3114 C3115 1.370 . S
C3114 C3118 1.524 . S
C3115 C3107 1.503 . S
C3115 C3114 1.370 . S
C3115 C3116 1.403 . S
C3116 C3115 1.403 . S
C3116 C3117 1.404 . S
C3116 C3119 1.539 . S
C3117 C3113 1.408 . S
C3117 C3116 1.404 . S
C3117 H3129 0.930 . S
C3118 C3114 1.524 . S
C3118 H3130 0.956 . S
C3118 H3131 0.961 . S
C3118 H3132 0.961 . S
C3119 C3116 1.539 . S
C3119 H3133 0.958 . S
C3119 H3134 0.961 . S
C3119 H3135 0.960 . S
H3120 C3104 0.931 . S
H3121 C3109 0.929 . S
H3122 C3110 0.960 . S
H3123 C3110 0.962 . S
H3124 C3110 0.960 . S
H3125 C3111 0.961 . S
H3126 C3111 0.961 . S
H3127 C3111 0.961 . S
H3128 C3112 0.931 . S
H3129 C3117 0.930 . S
H3130 C3118 0.956 . S
H3131 C3118 0.961 . S
H3132 C3118 0.961 . S
H3133 C3119 0.958 . S
H3134 C3119 0.961 . S
H3135 C3119 0.960 . S
C3136 C3137 1.391 . S
C3136 C3138 1.394 . S
C3136 H3152 0.931 . S
C3137 C3136 1.391 . S
C3137 C3141 1.376 . S
C3138 C3136 1.394 . S
C3138 C3139 1.369 . S
C3138 C3142 1.531 . S
C3139 C3138 1.369 . S
C3139 C3140 1.410 . S
C3139 C3147 1.503 . S
C3140 C3139 1.410 . S
C3140 C3141 1.392 . S
C3140 C3143 1.511 . S
C3141 C3137 1.376 . S
C3141 C3140 1.392 . S
C3141 H3153 0.929 . S
C3142 C3138 1.531 . S
C3142 H3154 0.960 . S
C3142 H3155 0.962 . S
C3142 H3156 0.960 . S
C3143 C3140 1.511 . S
C3143 H3157 0.961 . S
C3143 H3158 0.961 . S
C3143 H3159 0.961 . S
C3144 C3145 1.370 . S
C3144 C3146 1.363 . S
C3144 H3160 0.931 . S
C3145 C3144 1.370 . S
C3145 C3149 1.408 . S
C3146 C3144 1.363 . S
C3146 C3147 1.370 . S
C3146 C3150 1.524 . S
C3147 C3139 1.503 . S
C3147 C3146 1.370 . S
C3147 C3148 1.403 . S
C3148 C3147 1.403 . S
C3148 C3149 1.404 . S
C3148 C3151 1.539 . S
C3149 C3145 1.408 . S
C3149 C3148 1.404 . S
C3149 H3161 0.930 . S
C3150 C3146 1.524 . S
C3150 H3162 0.956 . S
C3150 H3163 0.961 . S
C3150 H3164 0.961 . S
C3151 C3148 1.539 . S
C3151 H3165 0.958 . S
C3151 H3166 0.961 . S
C3151 H3167 0.960 . S
H3152 C3136 0.931 . S
H3153 C3141 0.929 . S
H3154 C3142 0.960 . S
H3155 C3142 0.962 . S
H3156 C3142 0.960 . S
H3157 C3143 0.961 . S
H3158 C3143 0.961 . S
H3159 C3143 0.961 . S
H3160 C3144 0.931 . S
H3161 C3149 0.930 . S
H3162 C3150 0.956 . S
H3163 C3150 0.961 . S
H3164 C3150 0.961 . S
H3165 C3151 0.958 . S
H3166 C3151 0.961 . S
H3167 C3151 0.960 . S
C3168 C3169 1.391 . S
C3168 C3170 1.394 . S
C3168 H3184 0.931 . S
C3169 C3168 1.391 . S
C3169 C3173 1.376 . S
C3170 C3168 1.394 . S
C3170 C3171 1.369 . S
C3170 C3174 1.531 . S
C3171 C3170 1.369 . S
C3171 C3172 1.410 . S
C3171 C3179 1.503 . S
C3172 C3171 1.410 . S
C3172 C3173 1.392 . S
C3172 C3175 1.511 . S
C3173 C3169 1.376 . S
C3173 C3172 1.392 . S
C3173 H3185 0.929 . S
C3174 C3170 1.531 . S
C3174 H3186 0.960 . S
C3174 H3187 0.962 . S
C3174 H3188 0.960 . S
C3175 C3172 1.511 . S
C3175 H3189 0.961 . S
C3175 H3190 0.961 . S
C3175 H3191 0.961 . S
C3176 C3177 1.370 . S
C3176 C3178 1.363 . S
C3176 H3192 0.931 . S
C3177 C3176 1.370 . S
C3177 C3181 1.408 . S
C3178 C3176 1.363 . S
C3178 C3179 1.370 . S
C3178 C3182 1.524 . S
C3179 C3171 1.503 . S
C3179 C3178 1.370 . S
C3179 C3180 1.403 . S
C3180 C3179 1.403 . S
C3180 C3181 1.404 . S
C3180 C3183 1.539 . S
C3181 C3177 1.408 . S
C3181 C3180 1.404 . S
C3181 H3193 0.930 . S
C3182 C3178 1.524 . S
C3182 H3194 0.956 . S
C3182 H3195 0.961 . S
C3182 H3196 0.961 . S
C3183 C3180 1.539 . S
C3183 H3197 0.958 . S
C3183 H3198 0.961 . S
C3183 H3199 0.960 . S
H3184 C3168 0.931 . S
H3185 C3173 0.929 . S
H3186 C3174 0.960 . S
H3187 C3174 0.962 . S
H3188 C3174 0.960 . S
H3189 C3175 0.961 . S
H3190 C3175 0.961 . S
H3191 C3175 0.961 . S
H3192 C3176 0.931 . S
H3193 C3181 0.930 . S
H3194 C3182 0.956 . S
H3195 C3182 0.961 . S
H3196 C3182 0.961 . S
H3197 C3183 0.958 . S
H3198 C3183 0.961 . S
H3199 C3183 0.960 . S
C3200 C3201 1.391 . S
C3200 C3202 1.394 . S
C3200 H3216 0.931 . S
C3201 C3200 1.391 . S
C3201 C3205 1.376 . S
C3202 C3200 1.394 . S
C3202 C3203 1.369 . S
C3202 C3206 1.531 . S
C3203 C3202 1.369 . S
C3203 C3204 1.410 . S
C3203 C3211 1.503 . S
C3204 C3203 1.410 . S
C3204 C3205 1.392 . S
C3204 C3207 1.511 . S
C3205 C3201 1.376 . S
C3205 C3204 1.392 . S
C3205 H3217 0.929 . S
C3206 C3202 1.531 . S
C3206 H3218 0.960 . S
C3206 H3219 0.962 . S
C3206 H3220 0.960 . S
C3207 C3204 1.511 . S
C3207 H3221 0.961 . S
C3207 H3222 0.961 . S
C3207 H3223 0.961 . S
C3208 C3209 1.370 . S
C3208 C3210 1.363 . S
C3208 H3224 0.931 . S
C3209 C3208 1.370 . S
C3209 C3213 1.408 . S
C3210 C3208 1.363 . S
C3210 C3211 1.370 . S
C3210 C3214 1.524 . S
C3211 C3203 1.503 . S
C3211 C3210 1.370 . S
C3211 C3212 1.403 . S
C3212 C3211 1.403 . S
C3212 C3213 1.404 . S
C3212 C3215 1.539 . S
C3213 C3209 1.408 . S
C3213 C3212 1.404 . S
C3213 H3225 0.930 . S
C3214 C3210 1.524 . S
C3214 H3226 0.956 . S
C3214 H3227 0.961 . S
C3214 H3228 0.961 . S
C3215 C3212 1.539 . S
C3215 H3229 0.958 . S
C3215 H3230 0.961 . S
C3215 H3231 0.960 . S
H3216 C3200 0.931 . S
H3217 C3205 0.929 . S
H3218 C3206 0.960 . S
H3219 C3206 0.962 . S
H3220 C3206 0.960 . S
H3221 C3207 0.961 . S
H3222 C3207 0.961 . S
H3223 C3207 0.961 . S
H3224 C3208 0.931 . S
H3225 C3213 0.930 . S
H3226 C3214 0.956 . S
H3227 C3214 0.961 . S
H3228 C3214 0.961 . S
H3229 C3215 0.958 . S
H3230 C3215 0.961 . S
H3231 C3215 0.960 . S
C3232 C3233 1.391 . S
C3232 C3234 1.394 . S
C3232 H3248 0.931 . S
C3233 C3232 1.391 . S
C3233 C3237 1.376 . S
C3234 C3232 1.394 . S
C3234 C3235 1.369 . S
C3234 C3238 1.531 . S
C3235 C3234 1.369 . S
C3235 C3236 1.410 . S
C3235 C3243 1.503 . S
C3236 C3235 1.410 . S
C3236 C3237 1.392 . S
C3236 C3239 1.511 . S
C3237 C3233 1.376 . S
C3237 C3236 1.392 . S
C3237 H3249 0.929 . S
C3238 C3234 1.531 . S
C3238 H3250 0.960 . S
C3238 H3251 0.962 . S
C3238 H3252 0.960 . S
C3239 C3236 1.511 . S
C3239 H3253 0.961 . S
C3239 H3254 0.961 . S
C3239 H3255 0.961 . S
C3240 C3241 1.370 . S
C3240 C3242 1.363 . S
C3240 H3256 0.931 . S
C3241 C3240 1.370 . S
C3241 C3245 1.408 . S
C3242 C3240 1.363 . S
C3242 C3243 1.370 . S
C3242 C3246 1.524 . S
C3243 C3235 1.503 . S
C3243 C3242 1.370 . S
C3243 C3244 1.403 . S
C3244 C3243 1.403 . S
C3244 C3245 1.404 . S
C3244 C3247 1.539 . S
C3245 C3241 1.408 . S
C3245 C3244 1.404 . S
C3245 H3257 0.930 . S
C3246 C3242 1.524 . S
C3246 H3258 0.956 . S
C3246 H3259 0.961 . S
C3246 H3260 0.961 . S
C3247 C3244 1.539 . S
C3247 H3261 0.958 . S
C3247 H3262 0.961 . S
C3247 H3263 0.960 . S
H3248 C3232 0.931 . S
H3249 C3237 0.929 . S
H3250 C3238 0.960 . S
H3251 C3238 0.962 . S
H3252 C3238 0.960 . S
H3253 C3239 0.961 . S
H3254 C3239 0.961 . S
H3255 C3239 0.961 . S
H3256 C3240 0.931 . S
H3257 C3245 0.930 . S
H3258 C3246 0.956 . S
H3259 C3246 0.961 . S
H3260 C3246 0.961 . S
H3261 C3247 0.958 . S
H3262 C3247 0.961 . S
H3263 C3247 0.960 . S
C3264 C3265 1.391 . S
C3264 C3266 1.394 . S
C3264 H3280 0.931 . S
C3265 C3264 1.391 . S
C3265 C3269 1.376 . S
C3266 C3264 1.394 . S
C3266 C3267 1.369 . S
C3266 C3270 1.531 . S
C3267 C3266 1.369 . S
C3267 C3268 1.410 . S
C3267 C3275 1.503 . S
C3268 C3267 1.410 . S
C3268 C3269 1.392 . S
C3268 C3271 1.511 . S
C3269 C3265 1.376 . S
C3269 C3268 1.392 . S
C3269 H3281 0.929 . S
C3270 C3266 1.531 . S
C3270 H3282 0.960 . S
C3270 H3283 0.962 . S
C3270 H3284 0.960 . S
C3271 C3268 1.511 . S
C3271 H3285 0.961 . S
C3271 H3286 0.961 . S
C3271 H3287 0.961 . S
C3272 C3273 1.370 . S
C3272 C3274 1.363 . S
C3272 H3288 0.931 . S
C3273 C3272 1.370 . S
C3273 C3277 1.408 . S
C3274 C3272 1.363 . S
C3274 C3275 1.370 . S
C3274 C3278 1.524 . S
C3275 C3267 1.503 . S
C3275 C3274 1.370 . S
C3275 C3276 1.403 . S
C3276 C3275 1.403 . S
C3276 C3277 1.404 . S
C3276 C3279 1.539 . S
C3277 C3273 1.408 . S
C3277 C3276 1.404 . S
C3277 H3289 0.930 . S
C3278 C3274 1.524 . S
C3278 H3290 0.956 . S
C3278 H3291 0.961 . S
C3278 H3292 0.961 . S
C3279 C3276 1.539 . S
C3279 H3293 0.958 . S
C3279 H3294 0.961 . S
C3279 H3295 0.960 . S
H3280 C3264 0.931 . S
H3281 C3269 0.929 . S
H3282 C3270 0.960 . S
H3283 C3270 0.962 . S
H3284 C3270 0.960 . S
H3285 C3271 0.961 . S
H3286 C3271 0.961 . S
H3287 C3271 0.961 . S
H3288 C3272 0.931 . S
H3289 C3277 0.930 . S
H3290 C3278 0.956 . S
H3291 C3278 0.961 . S
H3292 C3278 0.961 . S
H3293 C3279 0.958 . S
H3294 C3279 0.961 . S
H3295 C3279 0.960 . S
C3296 C3297 1.391 . S
C3296 C3298 1.394 . S
C3296 H3312 0.931 . S
C3297 C3296 1.391 . S
C3297 C3301 1.376 . S
C3298 C3296 1.394 . S
C3298 C3299 1.369 . S
C3298 C3302 1.531 . S
C3299 C3298 1.369 . S
C3299 C3300 1.410 . S
C3299 C3307 1.503 . S
C3300 C3299 1.410 . S
C3300 C3301 1.392 . S
C3300 C3303 1.511 . S
C3301 C3297 1.376 . S
C3301 C3300 1.392 . S
C3301 H3313 0.929 . S
C3302 C3298 1.531 . S
C3302 H3314 0.960 . S
C3302 H3315 0.962 . S
C3302 H3316 0.960 . S
C3303 C3300 1.511 . S
C3303 H3317 0.961 . S
C3303 H3318 0.961 . S
C3303 H3319 0.961 . S
C3304 C3305 1.370 . S
C3304 C3306 1.363 . S
C3304 H3320 0.931 . S
C3305 C3304 1.370 . S
C3305 C3309 1.408 . S
C3306 C3304 1.363 . S
C3306 C3307 1.370 . S
C3306 C3310 1.524 . S
C3307 C3299 1.503 . S
C3307 C3306 1.370 . S
C3307 C3308 1.403 . S
C3308 C3307 1.403 . S
C3308 C3309 1.404 . S
C3308 C3311 1.539 . S
C3309 C3305 1.408 . S
C3309 C3308 1.404 . S
C3309 H3321 0.930 . S
C3310 C3306 1.524 . S
C3310 H3322 0.956 . S
C3310 H3323 0.961 . S
C3310 H3324 0.961 . S
C3311 C3308 1.539 . S
C3311 H3325 0.958 . S
C3311 H3326 0.961 . S
C3311 H3327 0.960 . S
H3312 C3296 0.931 . S
H3313 C3301 0.929 . S
H3314 C3302 0.960 . S
H3315 C3302 0.962 . S
H3316 C3302 0.960 . S
H3317 C3303 0.961 . S
H3318 C3303 0.961 . S
H3319 C3303 0.961 . S
H3320 C3304 0.931 . S
H3321 C3309 0.930 . S
H3322 C3310 0.956 . S
H3323 C3310 0.961 . S
H3324 C3310 0.961 . S
H3325 C3311 0.958 . S
H3326 C3311 0.961 . S
H3327 C3311 0.960 . S
C3328 C3329 1.391 . S
C3328 C3330 1.394 . S
C3328 H3344 0.931 . S
C3329 C3328 1.391 . S
C3329 C3333 1.376 . S
C3330 C3328 1.394 . S
C3330 C3331 1.369 . S
C3330 C3334 1.531 . S
C3331 C3330 1.369 . S
C3331 C3332 1.410 . S
C3331 C3339 1.503 . S
C3332 C3331 1.410 . S
C3332 C3333 1.392 . S
C3332 C3335 1.511 . S
C3333 C3329 1.376 . S
C3333 C3332 1.392 . S
C3333 H3345 0.929 . S
C3334 C3330 1.531 . S
C3334 H3346 0.960 . S
C3334 H3347 0.962 . S
C3334 H3348 0.960 . S
C3335 C3332 1.511 . S
C3335 H3349 0.961 . S
C3335 H3350 0.961 . S
C3335 H3351 0.961 . S
C3336 C3337 1.370 . S
C3336 C3338 1.363 . S
C3336 H3352 0.931 . S
C3337 C3336 1.370 . S
C3337 C3341 1.408 . S
C3338 C3336 1.363 . S
C3338 C3339 1.370 . S
C3338 C3342 1.524 . S
C3339 C3331 1.503 . S
C3339 C3338 1.370 . S
C3339 C3340 1.403 . S
C3340 C3339 1.403 . S
C3340 C3341 1.404 . S
C3340 C3343 1.539 . S
C3341 C3337 1.408 . S
C3341 C3340 1.404 . S
C3341 H3353 0.930 . S
C3342 C3338 1.524 . S
C3342 H3354 0.956 . S
C3342 H3355 0.961 . S
C3342 H3356 0.961 . S
C3343 C3340 1.539 . S
C3343 H3357 0.958 . S
C3343 H3358 0.961 . S
C3343 H3359 0.960 . S
H3344 C3328 0.931 . S
H3345 C3333 0.929 . S
H3346 C3334 0.960 . S
H3347 C3334 0.962 . S
H3348 C3334 0.960 . S
H3349 C3335 0.961 . S
H3350 C3335 0.961 . S
H3351 C3335 0.961 . S
H3352 C3336 0.931 . S
H3353 C3341 0.930 . S
H3354 C3342 0.956 . S
H3355 C3342 0.961 . S
H3356 C3342 0.961 . S
H3357 C3343 0.958 . S
H3358 C3343 0.961 . S
H3359 C3343 0.960 . S
C3360 C3361 1.391 . S
C3360 C3362 1.394 . S
C3360 H3376 0.931 . S
C3361 C3360 1.391 . S
C3361 C3365 1.376 . S
C3362 C3360 1.394 . S
C3362 C3363 1.369 . S
C3362 C3366 1.531 . S
C3363 C3362 1.369 . S
C3363 C3364 1.410 . S
C3363 C3371 1.503 . S
C3364 C3363 1.410 . S
C3364 C3365 1.392 . S
C3364 C3367 1.511 . S
C3365 C3361 1.376 . S
C3365 C3364 1.392 . S
C3365 H3377 0.929 . S
C3366 C3362 1.531 . S
C3366 H3378 0.960 . S
C3366 H3379 0.962 . S
C3366 H3380 0.960 . S
C3367 C3364 1.511 . S
C3367 H3381 0.961 . S
C3367 H3382 0.961 . S
C3367 H3383 0.961 . S
C3368 C3369 1.370 . S
C3368 C3370 1.363 . S
C3368 H3384 0.931 . S
C3369 C3368 1.370 . S
C3369 C3373 1.408 . S
C3370 C3368 1.363 . S
C3370 C3371 1.370 . S
C3370 C3374 1.524 . S
C3371 C3363 1.503 . S
C3371 C3370 1.370 . S
C3371 C3372 1.403 . S
C3372 C3371 1.403 . S
C3372 C3373 1.404 . S
C3372 C3375 1.539 . S
C3373 C3369 1.408 . S
C3373 C3372 1.404 . S
C3373 H3385 0.930 . S
C3374 C3370 1.524 . S
C3374 H3386 0.956 . S
C3374 H3387 0.961 . S
C3374 H3388 0.961 . S
C3375 C3372 1.539 . S
C3375 H3389 0.958 . S
C3375 H3390 0.961 . S
C3375 H3391 0.960 . S
H3376 C3360 0.931 . S
H3377 C3365 0.929 . S
H3378 C3366 0.960 . S
H3379 C3366 0.962 . S
H3380 C3366 0.960 . S
H3381 C3367 0.961 . S
H3382 C3367 0.961 . S
H3383 C3367 0.961 . S
H3384 C3368 0.931 . S
H3385 C3373 0.930 . S
H3386 C3374 0.956 . S
H3387 C3374 0.961 . S
H3388 C3374 0.961 . S
H3389 C3375 0.958 . S
H3390 C3375 0.961 . S
H3391 C3375 0.960 . S
C3392 C3393 1.391 . S
C3392 C3394 1.394 . S
C3392 H3408 0.931 . S
C3393 C3392 1.391 . S
C3393 C3397 1.376 . S
C3394 C3392 1.394 . S
C3394 C3395 1.369 . S
C3394 C3398 1.531 . S
C3395 C3394 1.369 . S
C3395 C3396 1.410 . S
C3395 C3403 1.503 . S
C3396 C3395 1.410 . S
C3396 C3397 1.392 . S
C3396 C3399 1.511 . S
C3397 C3393 1.376 . S
C3397 C3396 1.392 . S
C3397 H3409 0.929 . S
C3398 C3394 1.531 . S
C3398 H3410 0.960 . S
C3398 H3411 0.962 . S
C3398 H3412 0.960 . S
C3399 C3396 1.511 . S
C3399 H3413 0.961 . S
C3399 H3414 0.961 . S
C3399 H3415 0.961 . S
C3400 C3401 1.370 . S
C3400 C3402 1.363 . S
C3400 H3416 0.931 . S
C3401 C3400 1.370 . S
C3401 C3405 1.408 . S
C3402 C3400 1.363 . S
C3402 C3403 1.370 . S
C3402 C3406 1.524 . S
C3403 C3395 1.503 . S
C3403 C3402 1.370 . S
C3403 C3404 1.403 . S
C3404 C3403 1.403 . S
C3404 C3405 1.404 . S
C3404 C3407 1.539 . S
C3405 C3401 1.408 . S
C3405 C3404 1.404 . S
C3405 H3417 0.930 . S
C3406 C3402 1.524 . S
C3406 H3418 0.956 . S
C3406 H3419 0.961 . S
C3406 H3420 0.961 . S
C3407 C3404 1.539 . S
C3407 H3421 0.958 . S
C3407 H3422 0.961 . S
C3407 H3423 0.960 . S
H3408 C3392 0.931 . S
H3409 C3397 0.929 . S
H3410 C3398 0.960 . S
H3411 C3398 0.962 . S
H3412 C3398 0.960 . S
H3413 C3399 0.961 . S
H3414 C3399 0.961 . S
H3415 C3399 0.961 . S
H3416 C3400 0.931 . S
H3417 C3405 0.930 . S
H3418 C3406 0.956 . S
H3419 C3406 0.961 . S
H3420 C3406 0.961 . S
H3421 C3407 0.958 . S
H3422 C3407 0.961 . S
H3423 C3407 0.960 . S
C3424 C3425 1.391 . S
C3424 C3426 1.394 . S
C3424 H3440 0.931 . S
C3425 C3424 1.391 . S
C3425 C3429 1.376 . S
C3426 C3424 1.394 . S
C3426 C3427 1.369 . S
C3426 C3430 1.531 . S
C3427 C3426 1.369 . S
C3427 C3428 1.410 . S
C3427 C3435 1.503 . S
C3428 C3427 1.410 . S
C3428 C3429 1.392 . S
C3428 C3431 1.511 . S
C3429 C3425 1.376 . S
C3429 C3428 1.392 . S
C3429 H3441 0.929 . S
C3430 C3426 1.531 . S
C3430 H3442 0.960 . S
C3430 H3443 0.962 . S
C3430 H3444 0.960 . S
C3431 C3428 1.511 . S
C3431 H3445 0.961 . S
C3431 H3446 0.961 . S
C3431 H3447 0.961 . S
C3432 C3433 1.370 . S
C3432 C3434 1.363 . S
C3432 H3448 0.931 . S
C3433 C3432 1.370 . S
C3433 C3437 1.408 . S
C3434 C3432 1.363 . S
C3434 C3435 1.370 . S
C3434 C3438 1.524 . S
C3435 C3427 1.503 . S
C3435 C3434 1.370 . S
C3435 C3436 1.403 . S
C3436 C3435 1.403 . S
C3436 C3437 1.404 . S
C3436 C3439 1.539 . S
C3437 C3433 1.408 . S
C3437 C3436 1.404 . S
C3437 H3449 0.930 . S
C3438 C3434 1.524 . S
C3438 H3450 0.956 . S
C3438 H3451 0.961 . S
C3438 H3452 0.961 . S
C3439 C3436 1.539 . S
C3439 H3453 0.958 . S
C3439 H3454 0.961 . S
C3439 H3455 0.960 . S
H3440 C3424 0.931 . S
H3441 C3429 0.929 . S
H3442 C3430 0.960 . S
H3443 C3430 0.962 . S
H3444 C3430 0.960 . S
H3445 C3431 0.961 . S
H3446 C3431 0.961 . S
H3447 C3431 0.961 . S
H3448 C3432 0.931 . S
H3449 C3437 0.930 . S
H3450 C3438 0.956 . S
H3451 C3438 0.961 . S
H3452 C3438 0.961 . S
H3453 C3439 0.958 . S
H3454 C3439 0.961 . S
H3455 C3439 0.960 . S
C3456 C3457 1.391 . S
C3456 C3458 1.394 . S
C3456 H3472 0.931 . S
C3457 C3456 1.391 . S
C3457 C3461 1.376 . S
C3458 C3456 1.394 . S
C3458 C3459 1.369 . S
C3458 C3462 1.531 . S
C3459 C3458 1.369 . S
C3459 C3460 1.410 . S
C3459 C3467 1.503 . S
C3460 C3459 1.410 . S
C3460 C3461 1.392 . S
C3460 C3463 1.511 . S
C3461 C3457 1.376 . S
C3461 C3460 1.392 . S
C3461 H3473 0.929 . S
C3462 C3458 1.531 . S
C3462 H3474 0.960 . S
C3462 H3475 0.962 . S
C3462 H3476 0.960 . S
C3463 C3460 1.511 . S
C3463 H3477 0.961 . S
C3463 H3478 0.961 . S
C3463 H3479 0.961 . S
C3464 C3465 1.370 . S
C3464 C3466 1.363 . S
C3464 H3480 0.931 . S
C3465 C3464 1.370 . S
C3465 C3469 1.408 . S
C3466 C3464 1.363 . S
C3466 C3467 1.370 . S
C3466 C3470 1.524 . S
C3467 C3459 1.503 . S
C3467 C3466 1.370 . S
C3467 C3468 1.403 . S
C3468 C3467 1.403 . S
C3468 C3469 1.404 . S
C3468 C3471 1.539 . S
C3469 C3465 1.408 . S
C3469 C3468 1.404 . S
C3469 H3481 0.930 . S
C3470 C3466 1.524 . S
C3470 H3482 0.956 . S
C3470 H3483 0.961 . S
C3470 H3484 0.961 . S
C3471 C3468 1.539 . S
C3471 H3485 0.958 . S
C3471 H3486 0.961 . S
C3471 H3487 0.960 . S
H3472 C3456 0.931 . S
H3473 C3461 0.929 . S
H3474 C3462 0.960 . S
H3475 C3462 0.962 . S
H3476 C3462 0.960 . S
H3477 C3463 0.961 . S
H3478 C3463 0.961 . S
H3479 C3463 0.961 . S
H3480 C3464 0.931 . S
H3481 C3469 0.930 . S
H3482 C3470 0.956 . S
H3483 C3470 0.961 . S
H3484 C3470 0.961 . S
H3485 C3471 0.958 . S
H3486 C3471 0.961 . S
H3487 C3471 0.960 . S
C3488 C3489 1.391 . S
C3488 C3490 1.394 . S
C3488 H3504 0.931 . S
C3489 C3488 1.391 . S
C3489 C3493 1.376 . S
C3490 C3488 1.394 . S
C3490 C3491 1.369 . S
C3490 C3494 1.531 . S
C3491 C3490 1.369 . S
C3491 C3492 1.410 . S
C3491 C3499 1.503 . S
C3492 C3491 1.410 . S
C3492 C3493 1.392 . S
C3492 C3495 1.511 . S
C3493 C3489 1.376 . S
C3493 C3492 1.392 . S
C3493 H3505 0.929 . S
C3494 C3490 1.531 . S
C3494 H3506 0.960 . S
C3494 H3507 0.962 . S
C3494 H3508 0.960 . S
C3495 C3492 1.511 . S
C3495 H3509 0.961 . S
C3495 H3510 0.961 . S
C3495 H3511 0.961 . S
C3496 C3497 1.370 . S
C3496 C3498 1.363 . S
C3496 H3512 0.931 . S
C3497 C3496 1.370 . S
C3497 C3501 1.408 . S
C3498 C3496 1.363 . S
C3498 C3499 1.370 . S
C3498 C3502 1.524 . S
C3499 C3491 1.503 . S
C3499 C3498 1.370 . S
C3499 C3500 1.403 . S
C3500 C3499 1.403 . S
C3500 C3501 1.404 . S
C3500 C3503 1.539 . S
C3501 C3497 1.408 . S
C3501 C3500 1.404 . S
C3501 H3513 0.930 . S
C3502 C3498 1.524 . S
C3502 H3514 0.956 . S
C3502 H3515 0.961 . S
C3502 H3516 0.961 . S
C3503 C3500 1.539 . S
C3503 H3517 0.958 . S
C3503 H3518 0.961 . S
C3503 H3519 0.960 . S
H3504 C3488 0.931 . S
H3505 C3493 0.929 . S
H3506 C3494 0.960 . S
H3507 C3494 0.962 . S
H3508 C3494 0.960 . S
H3509 C3495 0.961 . S
H3510 C3495 0.961 . S
H3511 C3495 0.961 . S
H3512 C3496 0.931 . S
H3513 C3501 0.930 . S
H3514 C3502 0.956 . S
H3515 C3502 0.961 . S
H3516 C3502 0.961 . S
H3517 C3503 0.958 . S
H3518 C3503 0.961 . S
H3519 C3503 0.960 . S
C3520 C3521 1.391 . S
C3520 C3522 1.394 . S
C3520 H3536 0.931 . S
C3521 C3520 1.391 . S
C3521 C3525 1.376 . S
C3522 C3520 1.394 . S
C3522 C3523 1.369 . S
C3522 C3526 1.531 . S
C3523 C3522 1.369 . S
C3523 C3524 1.410 . S
C3523 C3531 1.503 . S
C3524 C3523 1.410 . S
C3524 C3525 1.392 . S
C3524 C3527 1.511 . S
C3525 C3521 1.376 . S
C3525 C3524 1.392 . S
C3525 H3537 0.929 . S
C3526 C3522 1.531 . S
C3526 H3538 0.960 . S
C3526 H3539 0.962 . S
C3526 H3540 0.960 . S
C3527 C3524 1.511 . S
C3527 H3541 0.961 . S
C3527 H3542 0.961 . S
C3527 H3543 0.961 . S
C3528 C3529 1.370 . S
C3528 C3530 1.363 . S
C3528 H3544 0.931 . S
C3529 C3528 1.370 . S
C3529 C3533 1.408 . S
C3530 C3528 1.363 . S
C3530 C3531 1.370 . S
C3530 C3534 1.524 . S
C3531 C3523 1.503 . S
C3531 C3530 1.370 . S
C3531 C3532 1.403 . S
C3532 C3531 1.403 . S
C3532 C3533 1.404 . S
C3532 C3535 1.539 . S
C3533 C3529 1.408 . S
C3533 C3532 1.404 . S
C3533 H3545 0.930 . S
C3534 C3530 1.524 . S
C3534 H3546 0.956 . S
C3534 H3547 0.961 . S
C3534 H3548 0.961 . S
C3535 C3532 1.539 . S
C3535 H3549 0.958 . S
C3535 H3550 0.961 . S
C3535 H3551 0.960 . S
H3536 C3520 0.931 . S
H3537 C3525 0.929 . S
H3538 C3526 0.960 . S
H3539 C3526 0.962 . S
H3540 C3526 0.960 . S
H3541 C3527 0.961 . S
H3542 C3527 0.961 . S
H3543 C3527 0.961 . S
H3544 C3528 0.931 . S
H3545 C3533 0.930 . S
H3546 C3534 0.956 . S
H3547 C3534 0.961 . S
H3548 C3534 0.961 . S
H3549 C3535 0.958 . S
H3550 C3535 0.961 . S
H3551 C3535 0.960 . S
C3552 C3553 1.391 . S
C3552 C3554 1.394 . S
C3552 H3568 0.931 . S
C3553 C3552 1.391 . S
C3553 C3557 1.376 . S
C3554 C3552 1.394 . S
C3554 C3555 1.369 . S
C3554 C3558 1.531 . S
C3555 C3554 1.369 . S
C3555 C3556 1.410 . S
C3555 C3563 1.503 . S
C3556 C3555 1.410 . S
C3556 C3557 1.392 . S
C3556 C3559 1.511 . S
C3557 C3553 1.376 . S
C3557 C3556 1.392 . S
C3557 H3569 0.929 . S
C3558 C3554 1.531 . S
C3558 H3570 0.960 . S
C3558 H3571 0.962 . S
C3558 H3572 0.960 . S
C3559 C3556 1.511 . S
C3559 H3573 0.961 . S
C3559 H3574 0.961 . S
C3559 H3575 0.961 . S
C3560 C3561 1.370 . S
C3560 C3562 1.363 . S
C3560 H3576 0.931 . S
C3561 C3560 1.370 . S
C3561 C3565 1.408 . S
C3562 C3560 1.363 . S
C3562 C3563 1.370 . S
C3562 C3566 1.524 . S
C3563 C3555 1.503 . S
C3563 C3562 1.370 . S
C3563 C3564 1.403 . S
C3564 C3563 1.403 . S
C3564 C3565 1.404 . S
C3564 C3567 1.539 . S
C3565 C3561 1.408 . S
C3565 C3564 1.404 . S
C3565 H3577 0.930 . S
C3566 C3562 1.524 . S
C3566 H3578 0.956 . S
C3566 H3579 0.961 . S
C3566 H3580 0.961 . S
C3567 C3564 1.539 . S
C3567 H3581 0.958 . S
C3567 H3582 0.961 . S
C3567 H3583 0.960 . S
H3568 C3552 0.931 . S
H3569 C3557 0.929 . S
H3570 C3558 0.960 . S
H3571 C3558 0.962 . S
H3572 C3558 0.960 . S
H3573 C3559 0.961 . S
H3574 C3559 0.961 . S
H3575 C3559 0.961 . S
H3576 C3560 0.931 . S
H3577 C3565 0.930 . S
H3578 C3566 0.956 . S
H3579 C3566 0.961 . S
H3580 C3566 0.961 . S
H3581 C3567 0.958 . S
H3582 C3567 0.961 . S
H3583 C3567 0.960 . S
C3584 C3585 1.391 . S
C3584 C3586 1.394 . S
C3584 H3600 0.931 . S
C3585 C3584 1.391 . S
C3585 C3589 1.376 . S
C3586 C3584 1.394 . S
C3586 C3587 1.369 . S
C3586 C3590 1.531 . S
C3587 C3586 1.369 . S
C3587 C3588 1.410 . S
C3587 C3595 1.503 . S
C3588 C3587 1.410 . S
C3588 C3589 1.392 . S
C3588 C3591 1.511 . S
C3589 C3585 1.376 . S
C3589 C3588 1.392 . S
C3589 H3601 0.929 . S
C3590 C3586 1.531 . S
C3590 H3602 0.960 . S
C3590 H3603 0.962 . S
C3590 H3604 0.960 . S
C3591 C3588 1.511 . S
C3591 H3605 0.961 . S
C3591 H3606 0.961 . S
C3591 H3607 0.961 . S
C3592 C3593 1.370 . S
C3592 C3594 1.363 . S
C3592 H3608 0.931 . S
C3593 C3592 1.370 . S
C3593 C3597 1.408 . S
C3594 C3592 1.363 . S
C3594 C3595 1.370 . S
C3594 C3598 1.524 . S
C3595 C3587 1.503 . S
C3595 C3594 1.370 . S
C3595 C3596 1.403 . S
C3596 C3595 1.403 . S
C3596 C3597 1.404 . S
C3596 C3599 1.539 . S
C3597 C3593 1.408 . S
C3597 C3596 1.404 . S
C3597 H3609 0.930 . S
C3598 C3594 1.524 . S
C3598 H3610 0.956 . S
C3598 H3611 0.961 . S
C3598 H3612 0.961 . S
C3599 C3596 1.539 . S
C3599 H3613 0.958 . S
C3599 H3614 0.961 . S
C3599 H3615 0.960 . S
H3600 C3584 0.931 . S
H3601 C3589 0.929 . S
H3602 C3590 0.960 . S
H3603 C3590 0.962 . S
H3604 C3590 0.960 . S
H3605 C3591 0.961 . S
H3606 C3591 0.961 . S
H3607 C3591 0.961 . S
H3608 C3592 0.931 . S
H3609 C3597 0.930 . S
H3610 C3598 0.956 . S
H3611 C3598 0.961 . S
H3612 C3598 0.961 . S
H3613 C3599 0.958 . S
H3614 C3599 0.961 . S
H3615 C3599 0.960 . S
C3616 C3617 1.391 . S
C3616 C3618 1.394 . S
C3616 H3632 0.931 . S
C3617 C3616 1.391 . S
C3617 C3621 1.376 . S
C3618 C3616 1.394 . S
C3618 C3619 1.369 . S
C3618 C3622 1.531 . S
C3619 C3618 1.369 . S
C3619 C3620 1.410 . S
C3619 C3627 1.503 . S
C3620 C3619 1.410 . S
C3620 C3621 1.392 . S
C3620 C3623 1.511 . S
C3621 C3617 1.376 . S
C3621 C3620 1.392 . S
C3621 H3633 0.929 . S
C3622 C3618 1.531 . S
C3622 H3634 0.960 . S
C3622 H3635 0.962 . S
C3622 H3636 0.960 . S
C3623 C3620 1.511 . S
C3623 H3637 0.961 . S
C3623 H3638 0.961 . S
C3623 H3639 0.961 . S
C3624 C3625 1.370 . S
C3624 C3626 1.363 . S
C3624 H3640 0.931 . S
C3625 C3624 1.370 . S
C3625 C3629 1.408 . S
C3626 C3624 1.363 . S
C3626 C3627 1.370 . S
C3626 C3630 1.524 . S
C3627 C3619 1.503 . S
C3627 C3626 1.370 . S
C3627 C3628 1.403 . S
C3628 C3627 1.403 . S
C3628 C3629 1.404 . S
C3628 C3631 1.539 . S
C3629 C3625 1.408 . S
C3629 C3628 1.404 . S
C3629 H3641 0.930 . S
C3630 C3626 1.524 . S
C3630 H3642 0.956 . S
C3630 H3643 0.961 . S
C3630 H3644 0.961 . S
C3631 C3628 1.539 . S
C3631 H3645 0.958 . S
C3631 H3646 0.961 . S
C3631 H3647 0.960 . S
H3632 C3616 0.931 . S
H3633 C3621 0.929 . S
H3634 C3622 0.960 . S
H3635 C3622 0.962 . S
H3636 C3622 0.960 . S
H3637 C3623 0.961 . S
H3638 C3623 0.961 . S
H3639 C3623 0.961 . S
H3640 C3624 0.931 . S
H3641 C3629 0.930 . S
H3642 C3630 0.956 . S
H3643 C3630 0.961 . S
H3644 C3630 0.961 . S
H3645 C3631 0.958 . S
H3646 C3631 0.961 . S
H3647 C3631 0.960 . S
C3648 C3649 1.391 . S
C3648 C3650 1.394 . S
C3648 H3664 0.931 . S
C3649 C3648 1.391 . S
C3649 C3653 1.376 . S
C3650 C3648 1.394 . S
C3650 C3651 1.369 . S
C3650 C3654 1.531 . S
C3651 C3650 1.369 . S
C3651 C3652 1.410 . S
C3651 C3659 1.503 . S
C3652 C3651 1.410 . S
C3652 C3653 1.392 . S
C3652 C3655 1.511 . S
C3653 C3649 1.376 . S
C3653 C3652 1.392 . S
C3653 H3665 0.929 . S
C3654 C3650 1.531 . S
C3654 H3666 0.960 . S
C3654 H3667 0.962 . S
C3654 H3668 0.960 . S
C3655 C3652 1.511 . S
C3655 H3669 0.961 . S
C3655 H3670 0.961 . S
C3655 H3671 0.961 . S
C3656 C3657 1.370 . S
C3656 C3658 1.363 . S
C3656 H3672 0.931 . S
C3657 C3656 1.370 . S
C3657 C3661 1.408 . S
C3658 C3656 1.363 . S
C3658 C3659 1.370 . S
C3658 C3662 1.524 . S
C3659 C3651 1.503 . S
C3659 C3658 1.370 . S
C3659 C3660 1.403 . S
C3660 C3659 1.403 . S
C3660 C3661 1.404 . S
C3660 C3663 1.539 . S
C3661 C3657 1.408 . S
C3661 C3660 1.404 . S
C3661 H3673 0.930 . S
C3662 C3658 1.524 . S
C3662 H3674 0.956 . S
C3662 H3675 0.961 . S
C3662 H3676 0.961 . S
C3663 C3660 1.539 . S
C3663 H3677 0.958 . S
C3663 H3678 0.961 . S
C3663 H3679 0.960 . S
H3664 C3648 0.931 . S
H3665 C3653 0.929 . S
H3666 C3654 0.960 . S
H3667 C3654 0.962 . S
H3668 C3654 0.960 . S
H3669 C3655 0.961 . S
H3670 C3655 0.961 . S
H3671 C3655 0.961 . S
H3672 C3656 0.931 . S
H3673 C3661 0.930 . S
H3674 C3662 0.956 . S
H3675 C3662 0.961 . S
H3676 C3662 0.961 . S
H3677 C3663 0.958 . S
H3678 C3663 0.961 . S
H3679 C3663 0.960 . S
C3680 C3681 1.391 . S
C3680 C3682 1.394 . S
C3680 H3696 0.931 . S
C3681 C3680 1.391 . S
C3681 C3685 1.376 . S
C3682 C3680 1.394 . S
C3682 C3683 1.369 . S
C3682 C3686 1.531 . S
C3683 C3682 1.369 . S
C3683 C3684 1.410 . S
C3683 C3691 1.503 . S
C3684 C3683 1.410 . S
C3684 C3685 1.392 . S
C3684 C3687 1.511 . S
C3685 C3681 1.376 . S
C3685 C3684 1.392 . S
C3685 H3697 0.929 . S
C3686 C3682 1.531 . S
C3686 H3698 0.960 . S
C3686 H3699 0.962 . S
C3686 H3700 0.960 . S
C3687 C3684 1.511 . S
C3687 H3701 0.961 . S
C3687 H3702 0.961 . S
C3687 H3703 0.961 . S
C3688 C3689 1.370 . S
C3688 C3690 1.363 . S
C3688 H3704 0.931 . S
C3689 C3688 1.370 . S
C3689 C3693 1.408 . S
C3690 C3688 1.363 . S
C3690 C3691 1.370 . S
C3690 C3694 1.524 . S
C3691 C3683 1.503 . S
C3691 C3690 1.370 . S
C3691 C3692 1.403 . S
C3692 C3691 1.403 . S
C3692 C3693 1.404 . S
C3692 C3695 1.539 . S
C3693 C3689 1.408 . S
C3693 C3692 1.404 . S
C3693 H3705 0.930 . S
C3694 C3690 1.524 . S
C3694 H3706 0.956 . S
C3694 H3707 0.961 . S
C3694 H3708 0.961 . S
C3695 C3692 1.539 . S
C3695 H3709 0.958 . S
C3695 H3710 0.961 . S
C3695 H3711 0.960 . S
H3696 C3680 0.931 . S
H3697 C3685 0.929 . S
H3698 C3686 0.960 . S
H3699 C3686 0.962 . S
H3700 C3686 0.960 . S
H3701 C3687 0.961 . S
H3702 C3687 0.961 . S
H3703 C3687 0.961 . S
H3704 C3688 0.931 . S
H3705 C3693 0.930 . S
H3706 C3694 0.956 . S
H3707 C3694 0.961 . S
H3708 C3694 0.961 . S
H3709 C3695 0.958 . S
H3710 C3695 0.961 . S
H3711 C3695 0.960 . S
C3712 C3713 1.391 . S
C3712 C3714 1.394 . S
C3712 H3728 0.931 . S
C3713 C3712 1.391 . S
C3713 C3717 1.376 . S
C3714 C3712 1.394 . S
C3714 C3715 1.369 . S
C3714 C3718 1.531 . S
C3715 C3714 1.369 . S
C3715 C3716 1.410 . S
C3715 C3723 1.503 . S
C3716 C3715 1.410 . S
C3716 C3717 1.392 . S
C3716 C3719 1.511 . S
C3717 C3713 1.376 . S
C3717 C3716 1.392 . S
C3717 H3729 0.929 . S
C3718 C3714 1.531 . S
C3718 H3730 0.960 . S
C3718 H3731 0.962 . S
C3718 H3732 0.960 . S
C3719 C3716 1.511 . S
C3719 H3733 0.961 . S
C3719 H3734 0.961 . S
C3719 H3735 0.961 . S
C3720 C3721 1.370 . S
C3720 C3722 1.363 . S
C3720 H3736 0.931 . S
C3721 C3720 1.370 . S
C3721 C3725 1.408 . S
C3722 C3720 1.363 . S
C3722 C3723 1.370 . S
C3722 C3726 1.524 . S
C3723 C3715 1.503 . S
C3723 C3722 1.370 . S
C3723 C3724 1.403 . S
C3724 C3723 1.403 . S
C3724 C3725 1.404 . S
C3724 C3727 1.539 . S
C3725 C3721 1.408 . S
C3725 C3724 1.404 . S
C3725 H3737 0.930 . S
C3726 C3722 1.524 . S
C3726 H3738 0.956 . S
C3726 H3739 0.961 . S
C3726 H3740 0.961 . S
C3727 C3724 1.539 . S
C3727 H3741 0.958 . S
C3727 H3742 0.961 . S
C3727 H3743 0.960 . S
H3728 C3712 0.931 . S
H3729 C3717 0.929 . S
H3730 C3718 0.960 . S
H3731 C3718 0.962 . S
H3732 C3718 0.960 . S
H3733 C3719 0.961 . S
H3734 C3719 0.961 . S
H3735 C3719 0.961 . S
H3736 C3720 0.931 . S
H3737 C3725 0.930 . S
H3738 C3726 0.956 . S
H3739 C3726 0.961 . S
H3740 C3726 0.961 . S
H3741 C3727 0.958 . S
H3742 C3727 0.961 . S
H3743 C3727 0.960 . S
C673 C400 1.059 . S
C681 C8 1.054 . S
C705 C22 1.045 . S
C713 C414 1.048 . S
C737 C428 1.067 . S
C745 C36 1.058 . S
C769 C50 1.035 . S
C777 C442 1.044 . S
C801 C344 1.064 . S
C809 C64 1.058 . S
C833 C78 1.057 . S
C841 C358 1.056 . S
C865 C372 1.031 . S
C873 C92 1.044 . S
C897 C106 1.067 . S
C905 C386 1.058 . S
C929 C540 1.033 . S
C937 C120 1.045 . S
C961 C554 1.036 . S
C969 C134 1.045 . S
C993 C512 1.049 . S
C1001 C148 1.052 . S
C1025 C162 1.031 . S
C1033 C526 1.044 . S
C1057 C484 1.031 . S
C1065 C176 1.044 . S
C1089 C498 1.055 . S
C1097 C190 1.052 . S
C1121 C204 1.061 . S
C1129 C456 1.055 . S
C1153 C470 1.035 . S
C1161 C218 1.044 . S
C1185 C232 1.067 . S
C1193 C638 1.059 . S
C1217 C610 1.052 . S
C1225 C246 1.051 . S
C1249 C624 1.060 . S
C1257 C260 1.055 . S
C1281 C582 1.033 . S
C1289 C274 1.044 . S
C1313 C596 1.033 . S
C1321 C288 1.045 . S
C1345 C302 1.051 . S
C1353 C568 1.053 . S
C1377 C316 1.033 . S
C1385 C666 1.045 . S
C1409 C652 1.034 . S
C1417 C330 1.045 . S
C1441 C105 1.301 . S
C1449 C7 1.326 . S
C1473 C63 1.276 . S
C1481 C21 1.304 . S
C1505 C77 1.274 . S
C1513 C35 1.304 . S
C1537 C91 1.373 . S
C1545 C49 1.345 . S
C1569 C287 1.277 . S
C1577 C119 1.304 . S
C1601 C245 1.341 . S
C1609 C133 1.341 . S
C1633 C259 1.300 . S
C1641 C147 1.308 . S
C1665 C273 1.342 . S
C1673 C161 1.341 . S
C1697 C329 1.367 . S
C1705 C175 1.346 . S
C1729 C301 1.295 . S
C1737 C189 1.307 . S
C1761 C203 1.373 . S
C1769 C315 1.344 . S
C1793 C231 1.325 . S
C1801 C217 1.317 . S
C1825 C441 1.360 . S
C1833 C343 1.326 . S
C1857 C399 1.335 . S
C1865 C357 1.314 . S
C1889 C371 1.314 . S
C1897 C413 1.308 . S
C1921 C385 1.280 . S
C1929 C427 1.304 . S
C1953 C455 1.369 . S
C1961 C623 1.345 . S
C1985 C469 1.325 . S
C1993 C581 1.341 . S
C2017 C595 1.273 . S
C2025 C483 1.315 . S
C2049 C609 1.270 . S
C2057 C497 1.309 . S
C2081 C665 1.275 . S
C2089 C511 1.305 . S
C2113 C637 1.373 . S
C2121 C525 1.339 . S
C2145 C651 1.364 . S
C2153 C539 1.329 . S
C2177 C553 1.372 . S
C2185 C567 1.342 . S
C2209 C3 1.149 . S
C2217 C121 1.108 . S
C2241 C135 1.141 . S
C2249 C17 1.163 . S
C2273 C149 1.137 . S
C2281 C31 1.157 . S
C2305 C163 1.100 . S
C2313 C45 1.149 . S
C2337 C59 1.156 . S
C2345 C177 1.112 . S
C2369 C191 1.094 . S
C2377 C73 1.148 . S
C2401 C87 1.172 . S
C2409 C205 1.115 . S
C2433 C219 1.099 . S
C2441 C101 1.149 . S
C2465 C233 1.145 . S
C2473 C115 1.160 . S
C2497 C331 1.035 . S
C2505 C129 1.149 . S
C2529 C143 1.144 . S
C2537 C303 1.103 . S
C2561 C157 1.135 . S
C2569 C317 1.070 . S
C2593 C171 1.131 . S
C2601 C247 1.083 . S
C2625 C185 1.139 . S
C2633 C261 1.097 . S
C2657 C199 1.132 . S
C2665 C275 1.085 . S
C2689 C213 1.149 . S
C2697 C289 1.074 . S
C2721 C227 1.173 . S
C2729 C9 1.114 . S
C2753 C241 1.135 . S
C2761 C65 1.070 . S
C2785 C255 1.136 . S
C2793 C79 1.093 . S
C2817 C269 1.171 . S
C2825 C93 1.097 . S
C2849 C283 1.131 . S
C2857 C107 1.084 . S
C2881 C297 1.164 . S
C2889 C37 1.086 . S
C2913 C51 1.145 . S
C2921 C311 1.162 . S
C2945 C23 1.143 . S
C2953 C325 1.159 . S
C2977 C457 1.041 . S
C2985 C339 1.150 . S
C3009 C471 1.145 . S
C3017 C353 1.164 . S
C3041 C485 1.145 . S
C3049 C367 1.162 . S
C3073 C499 1.136 . S
C3081 C381 1.164 . S
C3105 C513 1.136 . S
C3113 C395 1.159 . S
C3137 C409 1.163 . S
C3145 C527 1.093 . S
C3169 C541 1.050 . S
C3177 C423 1.152 . S
C3201 C437 1.170 . S
C3209 C555 1.116 . S
C3233 C569 1.096 . S
C3241 C451 1.160 . S
C3265 C465 1.131 . S
C3273 C667 1.075 . S
C3297 C479 1.133 . S
C3305 C639 1.081 . S
C3329 C653 1.039 . S
C3337 C493 1.149 . S
C3361 C583 1.133 . S
C3369 C507 1.164 . S
C3393 C521 1.132 . S
C3401 C597 1.078 . S
C3425 C535 1.140 . S
C3433 C611 1.073 . S
C3457 C625 1.143 . S
C3465 C549 1.164 . S
C3489 C345 1.115 . S
C3497 C563 1.155 . S
C3521 C401 1.095 . S
C3529 C577 1.160 . S
C3553 C415 1.109 . S
C3561 C591 1.162 . S
C3585 C605 1.133 . S
C3593 C429 1.081 . S
C3617 C443 1.039 . S
C3625 C619 1.149 . S
C3649 C373 1.100 . S
C3657 C633 1.152 . S
C3681 C647 1.172 . S
C3689 C387 1.116 . S
C3713 C359 1.112 . S
C3721 C661 1.154 . S
