# Generated by pormake.
# Topology uop, (4)-cn, num edge types: 1
# Building blocks:
#     Node 0, Type 0, BuildingBlock: KOZSID_clean_sbu_0, # of connection points: 4
#     Node 1, Type 0, BuildingBlock: KOZSID_clean_sbu_0, # of connection points: 4
#     Node 2, Type 0, BuildingBlock: KOZSID_clean_sbu_0, # of connection points: 4
#     Node 3, Type 0, BuildingBlock: KOZSID_clean_sbu_0, # of connection points: 4
#     Node 4, Type 0, BuildingBlock: KOZSID_clean_sbu_0, # of connection points: 4
#     Node 5, Type 0, BuildingBlock: KOZSID_clean_sbu_0, # of connection points: 4
#     Node 6, Type 0, BuildingBlock: KOZSID_clean_sbu_0, # of connection points: 4
#     Node 7, Type 0, BuildingBlock: KOZSID_clean_sbu_0, # of connection points: 4
#     Node 8, Type 0, BuildingBlock: KOZSID_clean_sbu_0, # of connection points: 4
#     Node 9, Type 0, BuildingBlock: KOZSID_clean_sbu_0, # of connection points: 4
#     Node 10, Type 0, BuildingBlock: KOZSID_clean_sbu_0, # of connection points: 4
#     Node 11, Type 0, BuildingBlock: KOZSID_clean_sbu_0, # of connection points: 4
#     Edge 12, Type (0, 0), BuildingBlock: CIFDUS_clean_linker_0, # of connection points: 2
#     Edge 13, Type (0, 0), BuildingBlock: CIFDUS_clean_linker_0, # of connection points: 2
#     Edge 14, Type (0, 0), BuildingBlock: CIFDUS_clean_linker_0, # of connection points: 2
#     Edge 15, Type (0, 0), BuildingBlock: CIFDUS_clean_linker_0, # of connection points: 2
#     Edge 16, Type (0, 0), BuildingBlock: CIFDUS_clean_linker_0, # of connection points: 2
#     Edge 17, Type (0, 0), BuildingBlock: CIFDUS_clean_linker_0, # of connection points: 2
#     Edge 18, Type (0, 0), BuildingBlock: CIFDUS_clean_linker_0, # of connection points: 2
#     Edge 19, Type (0, 0), BuildingBlock: CIFDUS_clean_linker_0, # of connection points: 2
#     Edge 20, Type (0, 0), BuildingBlock: CIFDUS_clean_linker_0, # of connection points: 2
#     Edge 21, Type (0, 0), BuildingBlock: CIFDUS_clean_linker_0, # of connection points: 2
#     Edge 22, Type (0, 0), BuildingBlock: CIFDUS_clean_linker_0, # of connection points: 2
#     Edge 23, Type (0, 0), BuildingBlock: CIFDUS_clean_linker_0, # of connection points: 2
#     Edge 24, Type (0, 0), BuildingBlock: CIFDUS_clean_linker_0, # of connection points: 2
#     Edge 25, Type (0, 0), BuildingBlock: CIFDUS_clean_linker_0, # of connection points: 2
#     Edge 26, Type (0, 0), BuildingBlock: CIFDUS_clean_linker_0, # of connection points: 2
#     Edge 27, Type (0, 0), BuildingBlock: CIFDUS_clean_linker_0, # of connection points: 2
#     Edge 28, Type (0, 0), BuildingBlock: CIFDUS_clean_linker_0, # of connection points: 2
#     Edge 29, Type (0, 0), BuildingBlock: CIFDUS_clean_linker_0, # of connection points: 2
#     Edge 30, Type (0, 0), BuildingBlock: CIFDUS_clean_linker_0, # of connection points: 2
#     Edge 31, Type (0, 0), BuildingBlock: CIFDUS_clean_linker_0, # of connection points: 2
#     Edge 32, Type (0, 0), BuildingBlock: CIFDUS_clean_linker_0, # of connection points: 2
#     Edge 33, Type (0, 0), BuildingBlock: CIFDUS_clean_linker_0, # of connection points: 2
#     Edge 34, Type (0, 0), BuildingBlock: CIFDUS_clean_linker_0, # of connection points: 2
#     Edge 35, Type (0, 0), BuildingBlock: CIFDUS_clean_linker_0, # of connection points: 2
# Relax obj value: 0.075
# Max RMSD: 0.270
# Mean RMSD: 0.246
data_MOF--net-uop--node1-KOZSID_clean_sbu_0--edge1-CIFDUS_clean_linker_0
_symmetry_space_group_name_H-M    P1
_symmetry_Int_Tables_number       1
_symmetry_cell_setting            triclinic
loop_
_symmetry_equiv_pos_as_xyz
'x, y, z'
_cell_length_a     35.600015
_cell_length_b     34.01227
_cell_length_c     59.230931
_cell_angle_alpha  90.009166
_cell_angle_beta   90.024235
_cell_angle_gamma 121.60585
loop_
_atom_site_label
_atom_site_type_symbol
_atom_site_fract_x
_atom_site_fract_y
_atom_site_fract_z
_atom_type_partial_charge
C0 C 0.37995 0.4543 0.21384 0.0
C1 C 0.40577 0.44675 0.19899 0.0
C2 C 0.37852 0.41941 0.18207 0.0
C3 C 0.33799 0.41248 0.18731 0.0
N4 N 0.33784 0.43407 0.20633 0.0
Co5 Co 0.28668 0.43638 0.21835 0.0
N6 N 0.24392 0.38361 0.19876 0.0
C7 C 0.25464 0.36273 0.18289 0.0
C8 C 0.21897 0.32511 0.1732 0.0
C9 C 0.18313 0.32254 0.18304 0.0
C10 C 0.19903 0.35971 0.1978 0.0
N11 N 0.23502 0.43976 0.22922 0.0
C12 C 0.19121 0.41449 0.22345 0.0
C13 C 0.1689 0.43425 0.23247 0.0
C14 C 0.19937 0.4731 0.24388 0.0
C15 C 0.23874 0.47544 0.24115 0.0
N16 N 0.32993 0.48767 0.23833 0.0
C17 C 0.32198 0.51642 0.24998 0.0
C18 C 0.35667 0.54613 0.26362 0.0
C19 C 0.38851 0.53539 0.26032 0.0
C20 C 0.37163 0.49984 0.24467 0.0
N21 N 0.29579 0.48198 0.19465 0.0
C22 C 0.30347 0.55939 0.17229 0.0
C23 C 0.34055 0.56101 0.18159 0.0
C24 C 0.33606 0.52207 0.19257 0.0
C25 C 0.26353 0.51676 0.17249 0.0
C26 C 0.26066 0.47851 0.18325 0.0
N27 N 0.2787 0.39334 0.24332 0.0
C28 C 0.271 0.37978 0.28377 0.0
C29 C 0.28612 0.34924 0.28251 0.0
C30 C 0.29487 0.33912 0.26071 0.0
C31 C 0.29079 0.36126 0.24143 0.0
C32 C 0.26762 0.40113 0.26431 0.0
H33 H 0.29917 0.35372 0.22516 0.0
H34 H 0.25799 0.42586 0.26676 0.0
H35 H 0.36486 0.52547 0.20053 0.0
H36 H 0.22917 0.44697 0.18326 0.0
C37 C 0.29845 0.37924 0.17749 0.0
C38 C 0.39653 0.47999 0.23506 0.0
C39 C 0.17081 0.37546 0.20717 0.0
C40 C 0.27962 0.50973 0.25001 0.0
H41 H 0.44048 0.45882 0.20045 0.0
H42 H 0.38679 0.40441 0.16828 0.0
H43 H 0.219 0.30271 0.16023 0.0
H44 H 0.1491 0.29764 0.17884 0.0
H45 H 0.13458 0.4231 0.23026 0.0
H46 H 0.19362 0.49735 0.25269 0.0
H47 H 0.35804 0.57137 0.27527 0.0
H48 H 0.42033 0.55179 0.26856 0.0
H49 H 0.37244 0.59285 0.18147 0.0
H50 H 0.23429 0.51311 0.16474 0.0
H51 H 0.26231 0.388 0.29986 0.0
H52 H 0.3064 0.31557 0.25854 0.0
C53 C 0.9518 0.36158 0.55881 0.0
C54 C 0.9863 0.39057 0.54446 0.0
C55 C 0.98635 0.36378 0.52736 0.0
C56 C 0.95158 0.3203 0.53189 0.0
N57 N 0.92914 0.31758 0.55072 0.0
Co58 Co 0.87363 0.26095 0.56134 0.0
N59 N 0.88098 0.21948 0.5399 0.0
C60 C 0.91328 0.23383 0.5244 0.0
C61 C 0.91317 0.19873 0.51303 0.0
C62 C 0.87786 0.15929 0.52136 0.0
C63 C 0.85749 0.1726 0.53697 0.0
N64 N 0.81674 0.20385 0.57075 0.0
C65 C 0.79627 0.15871 0.56359 0.0
C66 C 0.75391 0.13309 0.57239 0.0
C67 C 0.74739 0.16254 0.58518 0.0
C68 C 0.78572 0.20471 0.58343 0.0
N69 N 0.86757 0.30255 0.58306 0.0
C70 C 0.83122 0.29058 0.59519 0.0
C71 C 0.83653 0.32493 0.60949 0.0
C72 C 0.87892 0.3611 0.60608 0.0
C73 C 0.89717 0.34704 0.58966 0.0
N74 N 0.8395 0.27241 0.53865 0.0
C75 C 0.77209 0.28319 0.52028 0.0
C76 C 0.81028 0.3206 0.52984 0.0
C77 C 0.84368 0.31476 0.53835 0.0
C78 C 0.77134 0.24163 0.51775 0.0
C79 C 0.80538 0.2371 0.52686 0.0
N80 N 0.90688 0.25129 0.58556 0.0
C81 C 0.91158 0.24229 0.62593 0.0
C82 C 0.95763 0.26471 0.62515 0.0
C83 C 0.97727 0.27646 0.60357 0.0
C84 C 0.9514 0.26908 0.58407 0.0
C85 C 0.88717 0.23593 0.60624 0.0
H86 H 0.968 0.28021 0.56803 0.0
H87 H 0.85244 0.22115 0.60838 0.0
H88 H 0.87117 0.34403 0.54641 0.0
H89 H 0.80245 0.20412 0.52546 0.0
C90 C 0.94319 0.28051 0.52086 0.0
C91 C 0.94136 0.37779 0.57957 0.0
C92 C 0.81347 0.13992 0.54646 0.0
C93 C 0.79446 0.24557 0.59401 0.0
H94 H 1.00929 0.42733 0.54608 0.0
H95 H 1.0098 0.37448 0.51364 0.0
H96 H 0.93586 0.2015 0.50006 0.0
H97 H 0.86761 0.12471 0.51593 0.0
H98 H 0.72932 0.09729 0.56918 0.0
H99 H 0.7178 0.15431 0.5943 0.0
H100 H 0.81275 0.32357 0.62135 0.0
H101 H 0.89437 0.39411 0.61459 0.0
H102 H 0.81361 0.35382 0.5322 0.0
H103 H 0.74399 0.21212 0.50946 0.0
H104 H 0.89416 0.23064 0.64184 0.0
H105 H 1.01266 0.29331 0.60172 0.0
C106 C 0.67282 0.87691 0.9683 0.0
C107 C 0.67744 0.86346 0.98974 0.0
C108 C 0.65164 0.81615 0.99029 0.0
C109 C 0.63247 0.80327 0.96933 0.0
N110 N 0.64493 0.83957 0.95562 0.0
Co111 Co 0.62274 0.83692 0.92462 0.0
N112 N 0.56885 0.7758 0.93015 0.0
C113 C 0.5638 0.74641 0.94677 0.0
C114 C 0.52322 0.7063 0.94643 0.0
C115 C 0.5016 0.7105 0.92832 0.0
C116 C 0.53039 0.75308 0.91848 0.0
N117 N 0.60084 0.83415 0.89358 0.0
C118 C 0.56007 0.80593 0.88458 0.0
C119 C 0.56015 0.81467 0.86171 0.0
C120 C 0.60249 0.84919 0.85632 0.0
C121 C 0.62604 0.85967 0.87612 0.0
N122 N 0.67649 0.89832 0.91987 0.0
C123 C 0.69376 0.91763 0.89978 0.0
C124 C 0.72899 0.96225 0.90206 0.0
C125 C 0.73364 0.97116 0.92497 0.0
C126 C 0.70088 0.93151 0.93546 0.0
N127 N 0.65381 0.80612 0.9132 0.0
C128 C 0.70078 0.77226 0.88937 0.0
C129 C 0.72211 0.80933 0.90472 0.0
C130 C 0.69813 0.82517 0.91663 0.0
C131 C 0.65489 0.75111 0.88732 0.0
C132 C 0.63231 0.76856 0.89912 0.0
N133 N 0.59254 0.86861 0.9348 0.0
C134 C 0.58108 0.93188 0.92917 0.0
C135 C 0.55627 0.92095 0.94893 0.0
C136 C 0.54902 0.88233 0.96138 0.0
C137 C 0.56795 0.85688 0.95416 0.0
C138 C 0.59816 0.90517 0.92229 0.0
H139 H 0.56301 0.82805 0.96421 0.0
H140 H 0.61659 0.91483 0.90681 0.0
H141 H 0.71587 0.85418 0.92794 0.0
H142 H 0.59754 0.75268 0.89589 0.0
C143 C 0.59515 0.76036 0.96406 0.0
C144 C 0.69496 0.92491 0.96019 0.0
C145 C 0.52196 0.76835 0.89685 0.0
C146 C 0.66942 0.89725 0.87986 0.0
H147 H 0.6963 0.88514 1.00378 0.0
H148 H 0.64507 0.79417 1.00483 0.0
H149 H 0.5104 0.67789 0.95827 0.0
H150 H 0.46872 0.68472 0.92275 0.0
H151 H 0.53265 0.7975 0.85011 0.0
H152 H 0.6143 0.86548 0.84003 0.0
H153 H 0.74731 0.98651 0.88868 0.0
H154 H 0.75789 1.00314 0.93302 0.0
H155 H 0.75739 0.82657 0.9073 0.0
H156 H 0.63665 0.72259 0.87573 0.0
H157 H 0.58668 0.96066 0.91874 0.0
H158 H 0.52951 0.87235 0.97669 0.0
C159 C 0.66337 0.57828 0.2111 0.0
C160 C 0.63653 0.58363 0.19596 0.0
C161 C 0.66273 0.60887 0.17828 0.0
C162 C 0.7037 0.61683 0.18341 0.0
N163 N 0.70506 0.59781 0.20308 0.0
Co164 Co 0.75717 0.59776 0.21541 0.0
N165 N 0.79866 0.6486 0.19462 0.0
C166 C 0.78683 0.66705 0.17799 0.0
C167 C 0.82179 0.70388 0.16745 0.0
C168 C 0.85832 0.70847 0.17755 0.0
C169 C 0.84354 0.67317 0.19334 0.0
N170 N 0.80968 0.59636 0.22662 0.0
C171 C 0.85331 0.62188 0.22061 0.0
C172 C 0.87648 0.60364 0.23027 0.0
C173 C 0.84673 0.56554 0.24237 0.0
C174 C 0.80692 0.56209 0.23939 0.0
N175 N 0.71519 0.54843 0.23657 0.0
C176 C 0.72407 0.52128 0.24902 0.0
C177 C 0.69027 0.49312 0.26346 0.0
C178 C 0.65806 0.50323 0.25986 0.0
C179 C 0.67383 0.53685 0.24323 0.0
N180 N 0.7478 0.55006 0.19292 0.0
C181 C 0.73992 0.4716 0.17165 0.0
C182 C 0.70304 0.47019 0.18107 0.0
C183 C 0.70764 0.50964 0.19153 0.0
C184 C 0.77976 0.51432 0.17131 0.0
C185 C 0.78273 0.55305 0.18156 0.0
N186 N 0.7655 0.64312 0.23917 0.0
C187 C 0.77521 0.66109 0.27918 0.0
C188 C 0.75748 0.68926 0.27729 0.0
C189 C 0.74676 0.69634 0.25531 0.0
C190 C 0.75136 0.67339 0.23655 0.0
C191 C 0.77866 0.63853 0.26026 0.0
H192 H 0.74155 0.67865 0.22015 0.0
H193 H 0.78994 0.61534 0.2633 0.0
H194 H 0.67904 0.50653 0.19958 0.0
H195 H 0.81415 0.58469 0.18115 0.0
C196 C 0.74264 0.64922 0.1728 0.0
C197 C 0.64825 0.55544 0.23308 0.0
C198 C 0.87279 0.6596 0.20363 0.0
C199 C 0.7666 0.52846 0.249 0.0
H200 H 0.60188 0.57157 0.19774 0.0
H201 H 0.65354 0.62202 0.16404 0.0
H202 H 0.82085 0.72452 0.15381 0.0
H203 H 0.89206 0.73348 0.17293 0.0
H204 H 0.91093 0.61528 0.2281 0.0
H205 H 0.85328 0.54259 0.25187 0.0
H206 H 0.68979 0.46945 0.27584 0.0
H207 H 0.62681 0.48777 0.26858 0.0
H208 H 0.67127 0.43823 0.18138 0.0
H209 H 0.80882 0.51769 0.16351 0.0
H210 H 0.7857 0.65544 0.29538 0.0
H211 H 0.73323 0.71798 0.25262 0.0
C212 C 0.09261 0.66631 0.55639 0.0
C213 C 0.06159 0.63513 0.5411 0.0
C214 C 0.06442 0.65969 0.52232 0.0
C215 C 0.09725 0.70408 0.527 0.0
N216 N 0.1157 0.70957 0.54749 0.0
Co217 Co 0.16799 0.76827 0.55902 0.0
N218 N 0.16291 0.80681 0.5347 0.0
C219 C 0.13611 0.7893 0.51657 0.0
C220 C 0.14112 0.82158 0.50118 0.0
C221 C 0.17384 0.86253 0.50961 0.0
C222 C 0.187 0.85325 0.53006 0.0
N223 N 0.22207 0.82722 0.56928 0.0
C224 C 0.24105 0.87213 0.56206 0.0
C225 C 0.2789 0.90087 0.57444 0.0
C226 C 0.28516 0.87333 0.58887 0.0
C227 C 0.25064 0.82928 0.5849 0.0
N228 N 0.17179 0.72957 0.58339 0.0
C229 C 0.20577 0.74401 0.59775 0.0
C230 C 0.19881 0.7113 0.61357 0.0
C231 C 0.15781 0.67368 0.60886 0.0
C232 C 0.14197 0.68534 0.59028 0.0
N233 N 0.20683 0.75711 0.53963 0.0
C234 C 0.27591 0.74658 0.5235 0.0
C235 C 0.23806 0.70975 0.53358 0.0
C236 C 0.20392 0.71543 0.54103 0.0
C237 C 0.27612 0.78757 0.51983 0.0
C238 C 0.24148 0.79209 0.52797 0.0
N239 N 0.12974 0.77771 0.58033 0.0
C240 C 0.12147 0.79115 0.61982 0.0
C241 C 0.07578 0.7608 0.61901 0.0
C242 C 0.05719 0.74328 0.59759 0.0
C243 C 0.08458 0.75261 0.5785 0.0
C244 C 0.14742 0.79937 0.60057 0.0
H245 H 0.06894 0.737 0.56266 0.0
H246 H 0.18219 0.82104 0.60307 0.0
H247 H 0.17647 0.68655 0.54932 0.0
H248 H 0.24418 0.82479 0.52573 0.0
C249 C 0.10811 0.74209 0.51376 0.0
C250 C 0.09975 0.65281 0.57879 0.0
C251 C 0.22663 0.88868 0.54247 0.0
C252 C 0.24119 0.78985 0.59718 0.0
H253 H 0.03929 0.59834 0.54313 0.0
H254 H 0.0443 0.64687 0.50725 0.0
H255 H 0.12438 0.81577 0.48514 0.0
H256 H 0.18795 0.89478 0.50061 0.0
H257 H 0.30027 0.93793 0.57302 0.0
H258 H 0.31144 0.8843 0.60109 0.0
H259 H 0.22045 0.71476 0.62728 0.0
H260 H 0.14156 0.64138 0.61802 0.0
H261 H 0.23536 0.67712 0.53696 0.0
H262 H 0.30335 0.81665 0.51127 0.0
H263 H 0.13765 0.80764 0.63553 0.0
H264 H 1.02188 0.72055 0.59569 0.0
C265 C 0.37277 0.1566 0.96831 0.0
C266 C 0.36824 0.1701 0.98975 0.0
C267 C 0.39518 0.2173 0.99053 0.0
C268 C 0.41486 0.23005 0.96967 0.0
N269 N 0.40158 0.19378 0.95582 0.0
Co270 Co 0.42398 0.19599 0.92495 0.0
N271 N 0.47911 0.25588 0.93092 0.0
C272 C 0.48496 0.28531 0.94769 0.0
C273 C 0.52625 0.32446 0.94766 0.0
C274 C 0.5475 0.31964 0.92957 0.0
C275 C 0.5178 0.27769 0.91943 0.0
N276 N 0.44605 0.19834 0.894 0.0
C277 C 0.48707 0.22584 0.88514 0.0
C278 C 0.48694 0.2173 0.86224 0.0
C279 C 0.44434 0.18372 0.85667 0.0
C280 C 0.42069 0.17356 0.87641 0.0
N281 N 0.36908 0.13576 0.91984 0.0
C282 C 0.35178 0.11697 0.89967 0.0
C283 C 0.3158 0.07275 0.90175 0.0
C284 C 0.31071 0.06351 0.92462 0.0
C285 C 0.34397 0.10258 0.93528 0.0
N286 N 0.39525 0.22925 0.91344 0.0
C287 C 0.35398 0.27118 0.89114 0.0
C288 C 0.3297 0.2319 0.90487 0.0
C289 C 0.35097 0.21199 0.91611 0.0
C290 C 0.39945 0.2893 0.88938 0.0
C291 C 0.4191 0.26784 0.90029 0.0
N292 N 0.45205 0.16217 0.93521 0.0
C293 C 0.46176 0.09773 0.92948 0.0
C294 C 0.48678 0.10826 0.94918 0.0
C295 C 0.49478 0.14708 0.9617 0.0
C296 C 0.47662 0.17329 0.95457 0.0
C297 C 0.44544 0.12522 0.92268 0.0
H298 H 0.48228 0.20236 0.96466 0.0
H299 H 0.427 0.11602 0.90719 0.0
H300 H 0.33132 0.18196 0.92656 0.0
H301 H 0.45371 0.28212 0.89736 0.0
C302 C 0.4533 0.27224 0.96475 0.0
C303 C 0.34991 0.10871 0.96003 0.0
C304 C 0.52557 0.26267 0.89754 0.0
C305 C 0.37676 0.13698 0.8799 0.0
H306 H 0.34874 0.14846 1.00365 0.0
H307 H 0.40218 0.23916 1.00516 0.0
H308 H 0.53968 0.35269 0.95963 0.0
H309 H 0.5807 0.34473 0.92415 0.0
H310 H 0.51459 0.23403 0.85072 0.0
H311 H 0.43238 0.16788 0.8403 0.0
H312 H 0.29729 0.04884 0.88826 0.0
H313 H 0.2859 0.03166 0.93254 0.0
H314 H 0.29458 0.21688 0.90709 0.0
H315 H 0.41979 0.31945 0.87904 0.0
H316 H 0.45557 0.0688 0.919 0.0
H317 H 0.51442 0.15674 0.97697 0.0
C318 C 0.60078 0.67063 0.46539 0.0
C319 C 0.60536 0.64133 0.47997 0.0
C320 C 0.63354 0.66817 0.49666 0.0
C321 C 0.64405 0.71208 0.49171 0.0
N322 N 0.62426 0.71511 0.47296 0.0
Co323 Co 0.62853 0.77308 0.46177 0.0
N324 N 0.67803 0.81371 0.48318 0.0
C325 C 0.69518 0.79856 0.49871 0.0
C326 C 0.73043 0.83311 0.51024 0.0
C327 C 0.73559 0.87307 0.50198 0.0
C328 C 0.70237 0.8606 0.48618 0.0
N329 N 0.63157 0.83137 0.45181 0.0
C330 C 0.65657 0.87623 0.45933 0.0
C331 C 0.64134 0.90295 0.45019 0.0
C332 C 0.60609 0.87459 0.43676 0.0
C333 C 0.60107 0.83193 0.43852 0.0
N334 N 0.58053 0.73249 0.4399 0.0
C335 C 0.55843 0.74613 0.42692 0.0
C336 C 0.52919 0.71244 0.41243 0.0
C337 C 0.53268 0.67484 0.41662 0.0
C338 C 0.56353 0.68736 0.43376 0.0
N339 N 0.58346 0.76464 0.48417 0.0
C340 C 0.50949 0.76426 0.50207 0.0
C341 C 0.50511 0.72516 0.49128 0.0
C342 C 0.54234 0.72557 0.48326 0.0
C343 C 0.55294 0.80075 0.50649 0.0
C344 C 0.5891 0.80043 0.49731 0.0
N345 N 0.67115 0.78008 0.43797 0.0
C346 C 0.68453 0.78504 0.39757 0.0
C347 C 0.70665 0.76113 0.39939 0.0
C348 C 0.71443 0.75124 0.42142 0.0
C349 C 0.69689 0.76135 0.44038 0.0
C350 C 0.66756 0.79436 0.41685 0.0
H351 H 0.70216 0.75146 0.45679 0.0
H352 H 0.64853 0.81002 0.41408 0.0
H353 H 0.53703 0.69513 0.47474 0.0
H354 H 0.62115 0.83049 0.49991 0.0
C355 C 0.67678 0.75165 0.50242 0.0
C356 C 0.57286 0.6543 0.445 0.0
C357 C 0.69187 0.89401 0.47681 0.0
C358 C 0.56856 0.79175 0.42771 0.0
H359 H 0.59008 0.60431 0.47886 0.0
H360 H 0.64587 0.65712 0.51043 0.0
H361 H 0.74961 0.82964 0.5234 0.0
H362 H 0.76007 0.90741 0.50766 0.0
H363 H 0.65302 0.93879 0.45355 0.0
H364 H 0.58577 0.88377 0.42729 0.0
H365 H 0.50833 0.71508 0.39999 0.0
H366 H 0.51416 0.64183 0.40817 0.0
H367 H 0.47329 0.69489 0.48772 0.0
H368 H 0.55959 0.83058 0.51625 0.0
H369 H 0.67754 0.79392 0.38121 0.0
H370 H 0.73273 0.73435 0.42406 0.0
C371 C 0.94133 0.57453 0.81032 0.0
C372 C 0.97341 0.57968 0.82549 0.0
C373 C 0.97313 0.60571 0.84296 0.0
C374 C 0.94067 0.61439 0.83764 0.0
N375 N 0.92003 0.59518 0.81805 0.0
Co376 Co 0.86875 0.5965 0.80548 0.0
N377 N 0.88001 0.64921 0.82562 0.0
C378 C 0.90962 0.66638 0.84262 0.0
C379 C 0.91068 0.70185 0.85406 0.0
C380 C 0.8789 0.70694 0.84423 0.0
C381 C 0.85975 0.6739 0.82722 0.0
N382 N 0.81564 0.59624 0.79413 0.0
C383 C 0.79844 0.62263 0.79995 0.0
C384 C 0.758 0.60637 0.78952 0.0
C385 C 0.74864 0.56772 0.7776 0.0
C386 C 0.78383 0.56245 0.78122 0.0
N387 N 0.85996 0.54582 0.7848 0.0
C388 C 0.8237 0.519 0.77239 0.0
C389 C 0.82836 0.48956 0.75838 0.0
C390 C 0.87028 0.49853 0.7622 0.0
C391 C 0.88893 0.53288 0.77846 0.0
N392 N 0.82924 0.55029 0.82842 0.0
C393 C 0.75181 0.4765 0.84823 0.0
C394 C 0.78281 0.4689 0.83767 0.0
C395 C 0.82158 0.50629 0.82825 0.0
C396 C 0.76369 0.52252 0.85119 0.0
C397 C 0.80221 0.5585 0.84139 0.0
N398 N 0.90628 0.64022 0.78127 0.0
C399 C 0.91469 0.65528 0.74095 0.0
C400 C 0.96055 0.68411 0.74281 0.0
C401 C 0.97826 0.69258 0.7649 0.0
C402 C 0.9507 0.67058 0.7838 0.0
C403 C 0.88861 0.6343 0.76006 0.0
H404 H 0.96567 0.67677 0.8003 0.0
H405 H 0.85418 0.61082 0.75707 0.0
H406 H 0.84375 0.49884 0.81953 0.0
H407 H 0.80794 0.59246 0.84329 0.0
C408 C 0.93482 0.64737 0.84802 0.0
C409 C 0.93309 0.55096 0.78855 0.0
C410 C 0.81679 0.6604 0.81691 0.0
C411 C 0.78927 0.52766 0.77199 0.0
H412 H 0.9955 0.56697 0.82383 0.0
H413 H 0.99555 0.61886 0.85718 0.0
H414 H 0.93092 0.72055 0.86847 0.0
H415 H 0.8693 0.73035 0.85027 0.0
H416 H 0.73677 0.62017 0.79101 0.0
H417 H 0.71938 0.54578 0.76768 0.0
H418 H 0.80483 0.46576 0.74614 0.0
H419 H 0.88535 0.48185 0.75392 0.0
H420 H 0.77611 0.4342 0.83547 0.0
H421 H 0.74229 0.53083 0.86024 0.0
H422 H 0.89865 0.64649 0.72463 0.0
H423 H 1.01332 0.71536 0.76765 0.0
C424 C 0.23254 0.87142 0.0526 0.0
C425 C 0.21472 0.85754 0.03114 0.0
C426 C 0.19539 0.81047 0.03042 0.0
C427 C 0.20225 0.79823 0.05144 0.0
N428 N 0.22436 0.8346 0.06532 0.0
Co429 Co 0.24228 0.83262 0.09678 0.0
N430 N 0.23793 0.77266 0.09164 0.0
C431 C 0.21534 0.74318 0.07465 0.0
C432 C 0.21619 0.70339 0.07552 0.0
C433 C 0.24021 0.70766 0.09441 0.0
C434 C 0.2528 0.75008 0.10413 0.0
N435 N 0.26044 0.83077 0.12826 0.0
C436 C 0.27293 0.80307 0.138 0.0
C437 C 0.28091 0.81279 0.16087 0.0
C438 C 0.27218 0.84682 0.16558 0.0
C439 C 0.25949 0.85624 0.1454 0.0
N440 N 0.24629 0.89253 0.10118 0.0
C441 C 0.24656 0.91121 0.12121 0.0
C442 C 0.25369 0.95487 0.11896 0.0
C443 C 0.25829 0.96399 0.09613 0.0
C444 C 0.2534 0.92518 0.08555 0.0
N445 N 0.17963 0.79913 0.10713 0.0
C446 C 0.09521 0.75975 0.12777 0.0
C447 C 0.10894 0.79341 0.11069 0.0
C448 C 0.15124 0.81294 0.10081 0.0
C449 C 0.1242 0.74522 0.13354 0.0
C450 C 0.16544 0.76449 0.12284 0.0
N451 N 0.30483 0.86683 0.08759 0.0
C452 C 0.37837 0.93212 0.09396 0.0
C453 C 0.39434 0.92115 0.07498 0.0
C454 C 0.36452 0.88166 0.0625 0.0
C455 C 0.31972 0.85524 0.06894 0.0
C456 C 0.33415 0.90447 0.10009 0.0
H457 H 0.29713 0.82565 0.05887 0.0
H458 H 0.32377 0.91407 0.11504 0.0
H459 H 0.1614 0.84001 0.08844 0.0
H460 H 0.18627 0.75187 0.12789 0.0
C461 C 0.19805 0.75614 0.05692 0.0
C462 C 0.25487 0.9193 0.06077 0.0
C463 C 0.27306 0.76425 0.12669 0.0
C464 C 0.25153 0.89205 0.14123 0.0
H465 H 0.21595 0.87919 0.01742 0.0
H466 H 0.18055 0.7883 0.01588 0.0
H467 H 0.2015 0.67485 0.06372 0.0
H468 H 0.24631 0.68163 0.10067 0.0
H469 H 0.29105 0.79632 0.17299 0.0
H470 H 0.27541 0.86319 0.18173 0.0
H471 H 0.25837 0.97868 0.13235 0.0
H472 H 0.26564 0.99603 0.08838 0.0
H473 H 0.08758 0.80549 0.10541 0.0
H474 H 0.1149 0.71865 0.14617 0.0
H475 H 0.40026 0.96157 0.1044 0.0
H476 H 0.3756 0.87166 0.04778 0.0
C477 C 0.45135 0.36764 0.46764 0.0
C478 C 0.45397 0.40015 0.48288 0.0
C479 C 0.43051 0.37656 0.50148 0.0
C480 C 0.41554 0.3313 0.49683 0.0
N481 N 0.42791 0.3243 0.47649 0.0
Co482 Co 0.41661 0.26338 0.46524 0.0
N483 N 0.37112 0.22764 0.48928 0.0
C484 C 0.36328 0.24682 0.50718 0.0
C485 C 0.3334 0.21563 0.52221 0.0
C486 C 0.32179 0.17359 0.51371 0.0
C487 C 0.34509 0.18131 0.49367 0.0
N488 N 0.40671 0.20201 0.45526 0.0
C489 C 0.37865 0.15777 0.46289 0.0
C490 C 0.38633 0.12683 0.45171 0.0
C491 C 0.42098 0.15217 0.43731 0.0
C492 C 0.43256 0.19719 0.44029 0.0
N493 N 0.46088 0.29939 0.44106 0.0
C494 C 0.4784 0.28214 0.42704 0.0
C495 C 0.50588 0.31347 0.41116 0.0
C496 C 0.50597 0.35317 0.41552 0.0
C497 C 0.47883 0.3442 0.43406 0.0
N498 N 0.46451 0.26986 0.48503 0.0
C499 C 0.53914 0.26823 0.50053 0.0
C500 C 0.54346 0.30721 0.48962 0.0
C501 C 0.50609 0.3078 0.48273 0.0
C502 C 0.49578 0.23259 0.50585 0.0
C503 C 0.45932 0.2338 0.49778 0.0
N504 N 0.37107 0.2582 0.44369 0.0
C505 C 0.35119 0.24953 0.40396 0.0
C506 C 0.33582 0.27981 0.40575 0.0
C507 C 0.33425 0.29502 0.42774 0.0
C508 C 0.35149 0.28349 0.4464 0.0
C509 C 0.36797 0.23896 0.42287 0.0
H510 H 0.35133 0.29752 0.46271 0.0
H511 H 0.38182 0.21815 0.41974 0.0
H512 H 0.51138 0.33809 0.47406 0.0
H513 H 0.42718 0.20419 0.50094 0.0
C514 C 0.38586 0.29429 0.50999 0.0
C515 C 0.47343 0.37992 0.44552 0.0
C516 C 0.34634 0.14386 0.48163 0.0
C517 C 0.46484 0.23534 0.42805 0.0
H518 H 0.47141 0.43725 0.48109 0.0
H519 H 0.42445 0.39067 0.51646 0.0
H520 H 0.32273 0.22268 0.538 0.0
H521 H 0.30072 0.14128 0.52232 0.0
H522 H 0.36918 0.08981 0.45396 0.0
H523 H 0.43578 0.13922 0.42591 0.0
H524 H 0.52303 0.30786 0.39766 0.0
H525 H 0.52417 0.3851 0.40616 0.0
H526 H 0.57522 0.33669 0.4852 0.0
H527 H 0.48926 0.20278 0.51555 0.0
H528 H 0.35335 0.23628 0.38772 0.0
H529 H 0.32112 0.317 0.43053 0.0
C530 C 0.1038 0.45747 0.81278 0.0
C531 C 0.07331 0.4554 0.82812 0.0
C532 C 0.07451 0.43175 0.84649 0.0
C533 C 0.10586 0.42125 0.84144 0.0
N534 N 0.12487 0.4371 0.82117 0.0
Co535 Co 0.17402 0.43224 0.80842 0.0
N536 N 0.16226 0.38124 0.82976 0.0
C537 C 0.13497 0.36781 0.84772 0.0
C538 C 0.13332 0.33267 0.85984 0.0
C539 C 0.1622 0.32383 0.84932 0.0
C540 C 0.18024 0.35443 0.83131 0.0
N541 N 0.22518 0.42907 0.79685 0.0
C542 C 0.24061 0.40116 0.80279 0.0
C543 C 0.28079 0.41564 0.79249 0.0
C544 C 0.29148 0.45439 0.78024 0.0
C545 C 0.25739 0.46158 0.78366 0.0
N546 N 0.18328 0.48142 0.78669 0.0
C547 C 0.21924 0.50644 0.77383 0.0
C548 C 0.2147 0.53495 0.75909 0.0
C549 C 0.17317 0.52719 0.7629 0.0
C550 C 0.15462 0.49445 0.77989 0.0
N551 N 0.21583 0.4798 0.83018 0.0
C552 C 0.29438 0.55419 0.84887 0.0
C553 C 0.26289 0.56149 0.83864 0.0
C554 C 0.22365 0.52384 0.82971 0.0
C555 C 0.28276 0.50825 0.8519 0.0
C556 C 0.24372 0.47197 0.84263 0.0
N557 N 0.13411 0.38696 0.78533 0.0
C558 C 0.12313 0.36818 0.74541 0.0
C559 C 0.07723 0.34234 0.74786 0.0
C560 C 0.06062 0.33695 0.77004 0.0
C561 C 0.0895 0.35909 0.78849 0.0
C562 C 0.15053 0.38975 0.76405 0.0
H563 H 0.07549 0.35532 0.80509 0.0
H564 H 0.18507 0.41136 0.76058 0.0
H565 H 0.20113 0.53098 0.82112 0.0
H566 H 0.23819 0.43801 0.8444 0.0
C567 C 0.11163 0.3891 0.85287 0.0
C568 C 0.11097 0.47801 0.79027 0.0
C569 C 0.22025 0.36309 0.81945 0.0
C570 C 0.25292 0.49654 0.77375 0.0
H571 H 0.05167 0.46858 0.82604 0.0
H572 H 0.05326 0.42119 0.86116 0.0
H573 H 0.1144 0.31638 0.87495 0.0
H574 H 0.17103 0.29966 0.85527 0.0
H575 H 0.30082 0.40045 0.79418 0.0
H576 H 0.32078 0.47498 0.77014 0.0
H577 H 0.23798 0.55723 0.74637 0.0
H578 H 0.15831 0.54358 0.75414 0.0
H579 H 0.26953 0.59614 0.83631 0.0
H580 H 0.30472 0.50024 0.86059 0.0
H581 H 0.13823 0.37434 0.7289 0.0
H582 H 0.02546 0.31659 0.77315 0.0
C583 C 0.81403 0.16145 0.05338 0.0
C584 C 0.83205 0.17552 0.03199 0.0
C585 C 0.8514 0.22261 0.03139 0.0
C586 C 0.84434 0.23466 0.05241 0.0
N587 N 0.82211 0.19815 0.06618 0.0
Co588 Co 0.80361 0.19969 0.09754 0.0
N589 N 0.80759 0.25944 0.09242 0.0
C590 C 0.83037 0.28916 0.07556 0.0
C591 C 0.82912 0.32872 0.07642 0.0
C592 C 0.80463 0.32403 0.09515 0.0
C593 C 0.79217 0.2816 0.10481 0.0
N594 N 0.78486 0.20106 0.12892 0.0
C595 C 0.77191 0.22841 0.13859 0.0
C596 C 0.76369 0.21852 0.16144 0.0
C597 C 0.77271 0.18471 0.16619 0.0
C598 C 0.78582 0.17559 0.14606 0.0
N599 N 0.79993 0.13995 0.10188 0.0
C600 C 0.79956 0.12116 0.12189 0.0
C601 C 0.79257 0.07757 0.11955 0.0
C602 C 0.78814 0.06861 0.0967 0.0
C603 C 0.79296 0.10744 0.08619 0.0
N604 N 0.8661 0.23353 0.10824 0.0
C605 C 0.95017 0.2735 0.12946 0.0
C606 C 0.93696 0.23981 0.11241 0.0
C607 C 0.89485 0.22001 0.10223 0.0
C608 C 0.92081 0.28773 0.13489 0.0
C609 C 0.87977 0.26817 0.12393 0.0
N610 N 0.74119 0.1652 0.08805 0.0
C611 C 0.66768 0.09967 0.09416 0.0
C612 C 0.6518 0.11078 0.07518 0.0
C613 C 0.68166 0.15041 0.06283 0.0
C614 C 0.7264 0.17687 0.06939 0.0
C615 C 0.71185 0.12738 0.10042 0.0
H616 H 0.74902 0.2066 0.05942 0.0
H617 H 0.72214 0.1177 0.11538 0.0
H618 H 0.88511 0.19296 0.08987 0.0
H619 H 0.85865 0.28055 0.12876 0.0
C620 C 0.84819 0.27659 0.05791 0.0
C621 C 0.79148 0.11349 0.06143 0.0
C622 C 0.77156 0.26707 0.12727 0.0
C623 C 0.79417 0.14004 0.14191 0.0
H624 H 0.83087 0.15398 0.01822 0.0
H625 H 0.86629 0.2449 0.0169 0.0
H626 H 0.84385 0.35738 0.0647 0.0
H627 H 0.79811 0.34979 0.10137 0.0
H628 H 0.7532 0.23474 0.17351 0.0
H629 H 0.7694 0.16828 0.18233 0.0
H630 H 0.78782 0.05366 0.13291 0.0
H631 H 0.78092 0.03666 0.08888 0.0
H632 H 0.95856 0.22787 0.10738 0.0
H633 H 0.92964 0.3143 0.14748 0.0
H634 H 0.64577 0.07011 0.10452 0.0
H635 H 0.67065 0.16051 0.04811 0.0
H636 H 0.33616 0.74143 0.12285 0.0
H637 H 0.21805 0.70659 0.15933 0.0
H638 H 0.21693 0.64061 0.17667 0.0
H639 H 0.24716 0.58997 0.1799 0.0
H640 H 0.36586 0.62486 0.14385 0.0
H641 H 0.36923 0.6932 0.12801 0.0
C642 C 0.31085 0.71994 0.13501 0.0
C643 C 0.27767 0.72946 0.14013 0.0
C644 C 0.31014 0.68152 0.14474 0.0
C645 C 0.24446 0.70067 0.15551 0.0
C646 C 0.24356 0.66259 0.16523 0.0
C647 C 0.27374 0.61247 0.16853 0.0
C648 C 0.30598 0.6018 0.16294 0.0
C649 C 0.27576 0.65215 0.15969 0.0
C650 C 0.34061 0.63203 0.1485 0.0
C651 C 0.34252 0.67117 0.1394 0.0
H652 H 0.68356 0.21517 0.52048 0.0
H653 H 0.77122 0.3605 0.50649 0.0
H654 H 0.70828 0.36917 0.50146 0.0
H655 H 0.62884 0.33668 0.50186 0.0
H656 H 0.54111 0.1888 0.50934 0.0
H657 H 0.60364 0.18103 0.51645 0.0
C658 C 0.68931 0.24871 0.51586 0.0
C659 C 0.73294 0.28717 0.51437 0.0
C660 C 0.65266 0.25346 0.51216 0.0
C661 C 0.73863 0.33023 0.50859 0.0
C662 C 0.70239 0.3353 0.50549 0.0
C663 C 0.62254 0.30232 0.50457 0.0
C664 C 0.57872 0.26372 0.50526 0.0
C665 C 0.65918 0.29724 0.50743 0.0
C666 C 0.57329 0.22004 0.50939 0.0
C667 C 0.6095 0.21516 0.51315 0.0
H668 H 0.49748 0.69165 0.87178 0.0
H669 H 0.44841 0.77437 0.89777 0.0
H670 H 0.37374 0.71691 0.88459 0.0
H671 H 0.32114 0.63975 0.86791 0.0
H672 H 0.3718 0.55729 0.84278 0.0
H673 H 0.4462 0.61719 0.85346 0.0
C674 C 0.47052 0.69744 0.87407 0.0
C675 C 0.4785 0.73751 0.88539 0.0
C676 C 0.42753 0.66364 0.86697 0.0
C677 C 0.44316 0.74417 0.88876 0.0
C678 C 0.4004 0.71106 0.8814 0.0
C679 C 0.34846 0.63503 0.86459 0.0
C680 C 0.34016 0.59319 0.85487 0.0
C681 C 0.3919 0.67011 0.87082 0.0
C682 C 0.37646 0.58819 0.85076 0.0
C683 C 0.41937 0.62277 0.8567 0.0
H684 H 0.79637 0.44146 0.17977 0.0
H685 H 0.67732 0.40519 0.14363 0.0
H686 H 0.67421 0.33667 0.12821 0.0
H687 H 0.70781 0.28889 0.1233 0.0
H688 H 0.82622 0.32509 0.15991 0.0
H689 H 0.8269 0.39105 0.17697 0.0
C690 C 0.76975 0.41859 0.16849 0.0
C691 C 0.73736 0.42893 0.16271 0.0
C692 C 0.76788 0.37883 0.15989 0.0
C693 C 0.70268 0.39826 0.1484 0.0
C694 C 0.70093 0.35902 0.13954 0.0
C695 C 0.73306 0.31065 0.13545 0.0
C696 C 0.76648 0.30157 0.14066 0.0
C697 C 0.73351 0.34905 0.14501 0.0
C698 C 0.79963 0.3307 0.15602 0.0
C699 C 0.80029 0.36876 0.16557 0.0
H700 H 0.42054 0.69467 0.50567 0.0
H701 H 0.50667 0.84333 0.51002 0.0
H702 H 0.44385 0.85032 0.51762 0.0
H703 H 0.36413 0.81536 0.52261 0.0
H704 H 0.27744 0.66866 0.5117 0.0
H705 H 0.34086 0.66082 0.50659 0.0
C706 C 0.42634 0.72898 0.50782 0.0
C707 C 0.46984 0.76814 0.50744 0.0
C708 C 0.38943 0.73347 0.51095 0.0
C709 C 0.47478 0.81178 0.5109 0.0
C710 C 0.43839 0.81617 0.51493 0.0
C711 C 0.35865 0.78165 0.51867 0.0
C712 C 0.31522 0.74266 0.51799 0.0
C713 C 0.3955 0.77732 0.51488 0.0
C714 C 0.30991 0.6994 0.51313 0.0
C715 C 0.34641 0.69479 0.50998 0.0
H716 H 0.54955 0.33972 0.87296 0.0
H717 H 0.59907 0.25643 0.89758 0.0
H718 H 0.67334 0.31381 0.88393 0.0
H719 H 0.72551 0.39093 0.86713 0.0
H720 H 0.67436 0.47385 0.84329 0.0
H721 H 0.60034 0.4142 0.85459 0.0
C722 C 0.57652 0.33381 0.87486 0.0
C723 C 0.56878 0.29361 0.88593 0.0
C724 C 0.61928 0.36754 0.86748 0.0
C725 C 0.60412 0.28676 0.88879 0.0
C726 C 0.64666 0.31982 0.88115 0.0
C727 C 0.69816 0.39582 0.86423 0.0
C728 C 0.70625 0.43771 0.85469 0.0
C729 C 0.65493 0.36087 0.87079 0.0
C730 C 0.6699 0.44291 0.85113 0.0
C731 C 0.62719 0.40848 0.85742 0.0
H732 H 0.56931 0.47386 0.2426 0.0
H733 H 0.62997 0.62167 0.24246 0.0
H734 H 0.5575 0.613 0.24532 0.0
H735 H 0.47606 0.56281 0.24141 0.0
H736 H 0.41572 0.41544 0.24682 0.0
H737 H 0.48844 0.42451 0.24888 0.0
C738 C 0.56701 0.50424 0.24436 0.0
C739 C 0.6055 0.54848 0.24226 0.0
C740 C 0.52491 0.49906 0.24656 0.0
C741 C 0.60112 0.58723 0.24403 0.0
C742 C 0.55951 0.5823 0.24548 0.0
C743 C 0.47863 0.53281 0.2442 0.0
C744 C 0.44004 0.48838 0.2439 0.0
C745 C 0.52093 0.53832 0.24589 0.0
C746 C 0.44465 0.45002 0.24702 0.0
C747 C 0.48639 0.45516 0.24799 0.0
H748 H 0.11042 0.57892 0.58826 0.0
H749 H 1.01238 0.61672 0.58651 0.0
H750 H 0.95361 0.53532 0.58822 0.0
H751 H 0.93 0.45252 0.58436 0.0
H752 H 0.02743 0.4146 0.59137 0.0
H753 H 0.08588 0.49608 0.59377 0.0
C754 C 0.07632 0.56959 0.58925 0.0
C755 C 0.06619 0.60448 0.5871 0.0
C756 C 0.04222 0.52219 0.59074 0.0
C757 C 1.0214 0.59096 0.58812 0.0
C758 C 0.9876 0.54417 0.58889 0.0
C759 C 0.96371 0.46182 0.58739 0.0
C760 C 0.97395 0.42684 0.58749 0.0
C761 C 0.99748 0.50923 0.58939 0.0
C762 C 1.01832 0.44041 0.59112 0.0
C763 C 0.05197 0.48724 0.59235 0.0
H764 H 0.44373 1.01489 0.95497 0.0
H765 H 0.57341 0.13779 0.95621 0.0
H766 H 0.6067 0.0905 0.95856 0.0
H767 H 0.59902 1.01395 0.95559 0.0
H768 H 0.46938 0.891 0.95537 0.0
H769 H 0.43595 0.93821 0.95763 0.0
C770 C 0.47926 0.03125 0.95621 0.0
C771 C 0.50611 0.07986 0.95527 0.0
C772 C 0.49814 1.00373 0.95757 0.0
C773 C 0.55204 0.10058 0.95703 0.0
C774 C 0.57108 0.07348 0.95819 0.0
C775 C 0.56345 0.99755 0.95652 0.0
C776 C 0.53666 0.94898 0.9552 0.0
C777 C 0.54452 0.02502 0.9578 0.0
C778 C 0.49068 0.92818 0.95651 0.0
C779 C 0.47159 0.95525 0.9576 0.0
H780 H 0.60511 0.59759 0.43578 0.0
H781 H 0.48294 0.59382 0.44358 0.0
H782 H 0.4416 0.50972 0.44 0.0
H783 H 0.43994 0.43591 0.43905 0.0
H784 H 0.56262 0.43939 0.43825 0.0
H785 H 0.60335 0.52348 0.43434 0.0
C786 C 0.56936 0.5784 0.43631 0.0
C787 C 0.54742 0.6028 0.43953 0.0
C788 C 0.54566 0.52932 0.43561 0.0
C789 C 0.50101 0.57678 0.44053 0.0
C790 C 0.47724 0.52833 0.43876 0.0
C791 C 0.47557 0.455 0.43748 0.0
C792 C 0.49783 0.43055 0.43846 0.0
C793 C 0.49916 0.50403 0.43682 0.0
C794 C 0.54418 0.45642 0.43689 0.0
C795 C 0.56765 0.50491 0.43503 0.0
H796 H 0.93047 0.46874 0.78144 0.0
H797 H 1.01686 0.61635 0.77725 0.0
H798 H 0.08091 0.60803 0.77477 0.0
H799 H 0.11321 0.55913 0.78026 0.0
H800 H 0.02668 0.41127 0.78086 0.0
H801 H 0.96249 0.41922 0.7778 0.0
C802 C 0.96303 0.49897 0.77889 0.0
C803 C 0.9685 0.54321 0.7795 0.0
C804 C 1.00014 0.49391 0.77722 0.0
C805 C 1.01146 0.5819 0.77672 0.0
C806 C 0.0483 0.57718 0.77552 0.0
C807 C 0.08053 0.52862 0.77862 0.0
C808 C 0.07512 0.48455 0.78075 0.0
C809 C 0.04331 0.53343 0.77663 0.0
C810 C 0.03203 0.44557 0.77915 0.0
C811 C 0.99512 0.45011 0.77762 0.0
H812 H 0.44455 1.01467 0.06953 0.0
H813 H 0.45237 0.89246 0.06888 0.0
H814 H 0.53302 0.94036 0.06691 0.0
H815 H 0.60162 0.01729 0.06957 0.0
H816 H 0.5938 0.1395 0.06907 0.0
H817 H 0.51315 0.09161 0.067 0.0
C818 C 0.46395 0.99856 0.06856 0.0
C819 C 0.44242 0.94997 0.06951 0.0
C820 C 0.51039 0.02643 0.06739 0.0
C821 C 0.46799 0.92964 0.06806 0.0
C822 C 0.51417 0.95709 0.06711 0.0
C823 C 0.58222 0.0334 0.06861 0.0
C824 C 0.60374 0.08199 0.06963 0.0
C825 C 0.53578 1.00554 0.06738 0.0
C826 C 0.57818 0.10233 0.0682 0.0
C827 C 0.532 0.07488 0.06719 0.0
H828 H 0.31532 0.39032 0.3243 0.0
H829 H 0.27246 0.26222 0.28934 0.0
H830 H 0.28213 0.22926 0.32394 0.0
H831 H 0.30201 0.23612 0.36441 0.0
H832 H 0.34652 0.36528 0.39887 0.0
H833 H 0.33493 0.39711 0.36462 0.0
C834 C 0.30749 0.35495 0.32416 0.0
C835 C 0.29288 0.32902 0.30385 0.0
C836 C 0.31287 0.3359 0.3443 0.0
C837 C 0.28415 0.28355 0.30434 0.0
C838 C 0.28938 0.26443 0.32429 0.0
C839 C 0.30954 0.27138 0.36457 0.0
C840 C 0.32512 0.29779 0.38475 0.0
C841 C 0.30373 0.29023 0.34443 0.0
C842 C 0.33366 0.34324 0.38415 0.0
C843 C 0.32752 0.36189 0.36433 0.0
H844 H 0.94136 0.29027 0.66656 0.0
H845 H 0.03489 0.26604 0.63284 0.0
H846 H 0.07842 0.28571 0.66748 0.0
H847 H 0.09049 0.31002 0.70748 0.0
H848 H 0.99733 0.33523 0.74095 0.0
H849 H 0.9526 0.31302 0.70672 0.0
C850 C 0.9709 0.28855 0.66673 0.0
C851 C 0.98436 0.27639 0.64672 0.0
C852 C 0.99587 0.29967 0.68691 0.0
C853 C 0.02356 0.27568 0.64758 0.0
C854 C 0.04846 0.28666 0.66756 0.0
C855 C 0.06052 0.31094 0.7074 0.0
C856 C 0.04775 0.32452 0.72719 0.0
C857 C 0.03508 0.29888 0.68734 0.0
C858 C 1.0081 0.32435 0.72643 0.0
C859 C 0.98256 0.31207 0.70665 0.0
H860 H 0.76166 0.95599 0.99181 0.0
H861 H 0.66459 0.98306 0.96557 0.0
H862 H 0.68448 0.04236 0.99461 0.0
H863 H 0.72831 0.08537 0.02854 0.0
H864 H 0.82517 0.05782 0.05465 0.0
H865 H 0.80585 0.9994 0.02536 0.0
C866 C 0.7448 0.97483 0.9925 0.0
C867 C 0.71129 0.96466 0.97657 0.0
C868 C 0.75586 1.00832 1.00964 0.0
C869 C 0.6905 0.99016 0.9775 0.0
C870 C 0.70166 0.02386 0.99427 0.0
C871 C 0.74475 0.0661 0.02796 0.0
C872 C 0.7771 0.07495 0.04443 0.0
C873 C 0.73393 0.03291 1.01065 0.0
C874 C 0.79894 0.05054 0.04293 0.0
C875 C 0.7883 0.01751 0.0259 0.0
H876 H 0.73304 0.8014 0.35689 0.0
H877 H 0.70443 0.6797 0.39427 0.0
H878 H 0.71737 0.64763 0.36052 0.0
H879 H 0.73385 0.65189 0.32004 0.0
H880 H 0.7631 0.77323 0.28221 0.0
H881 H 0.75114 0.80627 0.31612 0.0
C882 C 0.72949 0.76779 0.35776 0.0
C883 C 0.71792 0.74348 0.37856 0.0
C884 C 0.73648 0.74889 0.33797 0.0
C885 C 0.71414 0.7001 0.37896 0.0
C886 C 0.72109 0.68131 0.35947 0.0
C887 C 0.7384 0.68594 0.3191 0.0
C888 C 0.74975 0.70981 0.2982 0.0
C889 C 0.73205 0.7052 0.33884 0.0
C890 C 0.75399 0.7534 0.29769 0.0
C891 C 0.74746 0.77263 0.31724 0.0
H892 H 0.09747 0.74462 0.66122 0.0
H893 H 0.99252 0.74612 0.62555 0.0
H894 H 0.9492 0.72507 0.66036 0.0
H895 H 0.94095 0.70662 0.70107 0.0
H896 H 0.04492 0.70196 0.73625 0.0
H897 H 0.08903 0.72575 0.70187 0.0
C898 C 0.06531 0.74088 0.661 0.0
C899 C 0.0487 0.74736 0.64047 0.0
C900 C 0.04036 0.72866 0.68121 0.0
C901 C 1.00636 0.74113 0.64078 0.0
C902 C 0.98157 0.72933 0.66083 0.0
C903 C 0.97306 0.71029 0.70137 0.0
C904 C 0.98903 0.70221 0.72175 0.0
C905 C 0.99815 0.72291 0.68117 0.0
C906 C 0.03147 0.70853 0.72133 0.0
C907 C 0.05675 0.72171 0.70145 0.0
H908 H 0.31765 0.9478 0.02769 0.0
H909 H 0.2208 0.97475 0.05439 0.0
H910 H 0.23971 0.03342 0.02532 0.0
H911 H 0.28358 0.07729 0.99182 0.0
H912 H 0.38033 0.05051 0.96486 0.0
H913 H 0.36092 0.99103 0.99371 0.0
C914 C 0.30111 0.967 0.02728 0.0
C915 C 0.26893 0.95792 0.04387 0.0
C916 C 0.31164 1.00027 1.01008 0.0
C917 C 0.24695 0.98221 0.04259 0.0
C918 C 0.25733 1.01539 0.02569 0.0
C919 C 0.30044 0.05844 0.9923 0.0
C920 C 0.33373 0.06875 0.97623 0.0
C921 C 0.28962 0.0248 1.00931 0.0
C922 C 0.35457 0.04329 0.97689 0.0
C923 C 0.34369 1.00948 0.99356 0.0
H924 H 0.96939 0.28347 0.17516 0.0
H925 H 0.0315 0.3122 0.1098 0.0
H926 H 0.1042 0.34958 0.12778 0.0
H927 H 0.1508 0.37398 0.16208 0.0
H928 H 0.08908 0.33708 0.22754 0.0
H929 H 1.01638 0.30468 0.20976 0.0
C930 C 0.99886 0.29792 0.16485 0.0
C931 C 0.9946 0.29489 0.14099 0.0
C932 C 0.04094 0.31853 0.17542 0.0
C933 C 0.0334 0.31356 0.12806 0.0
C934 C 0.07515 0.33523 0.13839 0.0
C935 C 0.12146 0.35875 0.17253 0.0
C936 C 0.12594 0.3585 0.19632 0.0
C937 C 0.07943 0.33791 0.16205 0.0
C938 C 0.08717 0.33867 0.20935 0.0
C939 C 0.04539 0.31962 0.1991 0.0
H940 H 0.79351 0.1107 0.50161 0.0
H941 H 0.77054 0.05658 0.56932 0.0
H942 H 0.72856 0.97773 0.55433 0.0
H943 H 0.70006 0.92289 0.52175 0.0
H944 H 0.73417 0.97743 0.45419 0.0
H945 H 0.76964 0.0561 0.46916 0.0
C946 C 0.77966 0.08176 0.5132 0.0
C947 C 0.78549 0.0906 0.53685 0.0
C948 C 0.75732 0.03592 0.50433 0.0
C949 C 0.76645 0.0518 0.55121 0.0
C950 C 0.74261 1.00634 0.54256 0.0
C951 C 0.71549 0.95189 0.51021 0.0
C952 C 0.71351 0.94322 0.48657 0.0
C953 C 0.73808 0.99776 0.51912 0.0
C954 C 0.73392 0.98209 0.47227 0.0
C955 C 0.75469 0.02745 0.48091 0.0
H956 H 0.82881 0.74721 0.82296 0.0
H957 H 0.7381 0.60384 0.83847 0.0
H958 H 0.69359 0.62462 0.86119 0.0
H959 H 0.68211 0.68421 0.87867 0.0
H960 H 0.77727 0.828 0.8661 0.0
H961 H 0.81845 0.8067 0.84114 0.0
C962 C 0.79922 0.72047 0.83127 0.0
C963 C 0.78709 0.67382 0.82881 0.0
C964 C 0.77476 0.73295 0.84536 0.0
C965 C 0.74832 0.63988 0.83972 0.0
C966 C 0.72298 0.65186 0.85298 0.0
C967 C 0.71183 0.71094 0.87046 0.0
C968 C 0.72636 0.75792 0.87455 0.0
C969 C 0.73613 0.69837 0.85626 0.0
C970 C 0.7653 0.79172 0.86371 0.0
C971 C 0.78884 0.7795 0.84921 0.0
H972 H 0.89389 0.65831 0.15895 0.0
H973 H 0.95424 0.70166 0.22455 0.0
H974 H 0.02744 0.73412 0.2074 0.0
H975 H 0.07519 0.75325 0.17323 0.0
H976 H 1.01432 0.71823 0.10749 0.0
H977 H 0.94118 0.68097 0.12497 0.0
C978 C 0.92304 0.67504 0.16955 0.0
C979 C 0.91805 0.6771 0.1932 0.0
C980 C 0.96531 0.69586 0.15938 0.0
C981 C 0.95658 0.69876 0.20646 0.0
C982 C 0.99863 0.7178 0.19657 0.0
C983 C 0.04588 0.73749 0.16274 0.0
C984 C 0.05057 0.73862 0.13893 0.0
C985 C 1.00356 0.71703 0.17299 0.0
C986 C 1.01202 0.71826 0.12572 0.0
C987 C 0.97005 0.6967 0.13577 0.0
H988 H 0.20448 0.95253 0.52866 0.0
H989 H 0.31577 0.935 0.53181 0.0
H990 H 0.36244 1.01068 0.5142 0.0
H991 H 0.37217 0.08316 0.49711 0.0
H992 H 0.25676 0.09162 0.48687 0.0
H993 H 0.21163 0.0185 0.50683 0.0
C994 C 0.23887 0.96486 0.52536 0.0
C995 C 0.25611 0.93733 0.53225 0.0
C996 C 0.26503 1.00716 0.51338 0.0
C997 C 0.30114 0.95507 0.5276 0.0
C998 C 0.32795 0.99842 0.51708 0.0
C999 C 0.33698 0.06861 0.49874 0.0
C1000 C 0.31841 0.09408 0.49051 0.0
C1001 C 0.31034 0.0249 0.50968 0.0
C1002 C 0.27246 0.07372 0.49305 0.0
C1003 C 0.24649 0.03175 0.50466 0.0
H1004 H 0.29392 0.40124 0.84666 0.0
H1005 H 0.19918 0.27386 0.81421 0.0
H1006 H 0.23009 0.23354 0.83384 0.0
H1007 H 0.28294 0.23362 0.86161 0.0
H1008 H 0.37925 0.36197 0.89294 0.0
H1009 H 0.34909 0.4022 0.8728 0.0
C1010 C 0.2807 0.36486 0.84353 0.0
C1011 C 0.24452 0.34081 0.82865 0.0
C1012 C 0.2986 0.34171 0.8551 0.0
C1013 C 0.22734 0.29341 0.82523 0.0
C1014 C 0.24481 0.27022 0.83667 0.0
C1015 C 0.29714 0.27033 0.86412 0.0
C1016 C 0.33327 0.29446 0.87909 0.0
C1017 C 0.28011 0.29376 0.85194 0.0
C1018 C 0.35152 0.3423 0.88169 0.0
C1019 C 0.33428 0.36546 0.87008 0.0
loop_
_geom_bond_atom_site_label_1
_geom_bond_atom_site_label_2
_geom_bond_distance
_geom_bond_site_symmetry_2
_ccdc_geom_bond_type
C0 C1 1.443 . S
C0 N4 1.376 . S
C0 C38 1.389 . S
C1 C0 1.443 . S
C1 C2 1.340 . S
C1 H41 0.951 . S
C2 C1 1.340 . S
C2 C3 1.439 . S
C2 H42 0.950 . S
C3 C2 1.439 . S
C3 N4 1.374 . S
C3 C37 1.395 . S
N4 C0 1.376 . S
N4 C3 1.374 . S
N4 Co5 2.008 . S
Co5 N4 2.008 . S
Co5 N6 1.995 . S
Co5 N11 2.008 . S
Co5 N16 1.995 . S
Co5 N21 2.282 . S
Co5 N27 2.282 . S
N6 Co5 1.995 . S
N6 C7 1.376 . S
N6 C10 1.383 . S
C7 N6 1.376 . S
C7 C8 1.446 . S
C7 C37 1.391 . S
C8 C7 1.446 . S
C8 C9 1.339 . S
C8 H43 0.949 . S
C9 C8 1.339 . S
C9 C10 1.439 . S
C9 H44 0.950 . S
C10 N6 1.383 . S
C10 C9 1.439 . S
C10 C39 1.392 . S
N11 Co5 2.008 . S
N11 C12 1.376 . S
N11 C15 1.374 . S
C12 N11 1.376 . S
C12 C13 1.443 . S
C12 C39 1.389 . S
C13 C12 1.443 . S
C13 C14 1.340 . S
C13 H45 0.951 . S
C14 C13 1.340 . S
C14 C15 1.439 . S
C14 H46 0.950 . S
C15 N11 1.374 . S
C15 C14 1.439 . S
C15 C40 1.395 . S
N16 Co5 1.995 . S
N16 C17 1.376 . S
N16 C20 1.383 . S
C17 N16 1.376 . S
C17 C18 1.446 . S
C17 C40 1.391 . S
C18 C17 1.446 . S
C18 C19 1.339 . S
C18 H47 0.949 . S
C19 C18 1.339 . S
C19 C20 1.439 . S
C19 H48 0.950 . S
C20 N16 1.383 . S
C20 C19 1.439 . S
C20 C38 1.392 . S
N21 Co5 2.282 . S
N21 C24 1.332 . S
N21 C26 1.332 . S
C22 C23 1.386 . S
C22 C25 1.388 . S
C23 C22 1.386 . S
C23 C24 1.382 . S
C23 H49 0.950 . S
C24 N21 1.332 . S
C24 C23 1.382 . S
C24 H35 0.952 . S
C25 C22 1.388 . S
C25 C26 1.382 . S
C25 H50 0.950 . S
C26 N21 1.332 . S
C26 C25 1.382 . S
C26 H36 0.948 . S
N27 Co5 2.282 . S
N27 C31 1.332 . S
N27 C32 1.332 . S
C28 C29 1.388 . S
C28 C32 1.382 . S
C28 H51 0.950 . S
C29 C28 1.388 . S
C29 C30 1.386 . S
C30 C29 1.386 . S
C30 C31 1.382 . S
C30 H52 0.950 . S
C31 N27 1.332 . S
C31 C30 1.382 . S
C31 H33 0.952 . S
C32 N27 1.332 . S
C32 C28 1.382 . S
C32 H34 0.948 . S
H33 C31 0.952 . S
H34 C32 0.948 . S
H35 C24 0.952 . S
H36 C26 0.948 . S
C37 C3 1.395 . S
C37 C7 1.391 . S
C38 C0 1.389 . S
C38 C20 1.392 . S
C39 C10 1.392 . S
C39 C12 1.389 . S
C40 C15 1.395 . S
C40 C17 1.391 . S
H41 C1 0.951 . S
H42 C2 0.950 . S
H43 C8 0.949 . S
H44 C9 0.950 . S
H45 C13 0.951 . S
H46 C14 0.950 . S
H47 C18 0.949 . S
H48 C19 0.950 . S
H49 C23 0.950 . S
H50 C25 0.950 . S
H51 C28 0.950 . S
H52 C30 0.950 . S
C53 C54 1.443 . S
C53 N57 1.376 . S
C53 C91 1.389 . S
C54 C53 1.443 . S
C54 C55 1.340 . S
C54 H94 0.951 . S
C55 C54 1.340 . S
C55 C56 1.439 . S
C55 H95 0.950 . S
C56 C55 1.439 . S
C56 N57 1.374 . S
C56 C90 1.395 . S
N57 C53 1.376 . S
N57 C56 1.374 . S
N57 Co58 2.008 . S
Co58 N57 2.008 . S
Co58 N59 1.995 . S
Co58 N64 2.008 . S
Co58 N69 1.995 . S
Co58 N74 2.282 . S
Co58 N80 2.282 . S
N59 Co58 1.995 . S
N59 C60 1.376 . S
N59 C63 1.383 . S
C60 N59 1.376 . S
C60 C61 1.446 . S
C60 C90 1.391 . S
C61 C60 1.446 . S
C61 C62 1.339 . S
C61 H96 0.949 . S
C62 C61 1.339 . S
C62 C63 1.439 . S
C62 H97 0.950 . S
C63 N59 1.383 . S
C63 C62 1.439 . S
C63 C92 1.392 . S
N64 Co58 2.008 . S
N64 C65 1.376 . S
N64 C68 1.374 . S
C65 N64 1.376 . S
C65 C66 1.443 . S
C65 C92 1.389 . S
C66 C65 1.443 . S
C66 C67 1.340 . S
C66 H98 0.951 . S
C67 C66 1.340 . S
C67 C68 1.439 . S
C67 H99 0.950 . S
C68 N64 1.374 . S
C68 C67 1.439 . S
C68 C93 1.395 . S
N69 Co58 1.995 . S
N69 C70 1.376 . S
N69 C73 1.383 . S
C70 N69 1.376 . S
C70 C71 1.446 . S
C70 C93 1.391 . S
C71 C70 1.446 . S
C71 C72 1.339 . S
C71 H100 0.949 . S
C72 C71 1.339 . S
C72 C73 1.439 . S
C72 H101 0.950 . S
C73 N69 1.383 . S
C73 C72 1.439 . S
C73 C91 1.392 . S
N74 Co58 2.282 . S
N74 C77 1.332 . S
N74 C79 1.332 . S
C75 C76 1.386 . S
C75 C78 1.388 . S
C76 C75 1.386 . S
C76 C77 1.382 . S
C76 H102 0.950 . S
C77 N74 1.332 . S
C77 C76 1.382 . S
C77 H88 0.952 . S
C78 C75 1.388 . S
C78 C79 1.382 . S
C78 H103 0.950 . S
C79 N74 1.332 . S
C79 C78 1.382 . S
C79 H89 0.948 . S
N80 Co58 2.282 . S
N80 C84 1.332 . S
N80 C85 1.332 . S
C81 C82 1.388 . S
C81 C85 1.382 . S
C81 H104 0.950 . S
C82 C81 1.388 . S
C82 C83 1.386 . S
C83 C82 1.386 . S
C83 C84 1.382 . S
C83 H105 0.950 . S
C84 N80 1.332 . S
C84 C83 1.382 . S
C84 H86 0.952 . S
C85 N80 1.332 . S
C85 C81 1.382 . S
C85 H87 0.948 . S
H86 C84 0.952 . S
H87 C85 0.948 . S
H88 C77 0.952 . S
H89 C79 0.948 . S
C90 C56 1.395 . S
C90 C60 1.391 . S
C91 C53 1.389 . S
C91 C73 1.392 . S
C92 C63 1.392 . S
C92 C65 1.389 . S
C93 C68 1.395 . S
C93 C70 1.391 . S
H94 C54 0.951 . S
H95 C55 0.950 . S
H96 C61 0.949 . S
H97 C62 0.950 . S
H98 C66 0.951 . S
H99 C67 0.950 . S
H100 C71 0.949 . S
H101 C72 0.950 . S
H102 C76 0.950 . S
H103 C78 0.950 . S
H104 C81 0.950 . S
H105 C83 0.950 . S
C106 C107 1.443 . S
C106 N110 1.376 . S
C106 C144 1.389 . S
C107 C106 1.443 . S
C107 C108 1.340 . S
C107 H147 0.951 . S
C108 C107 1.340 . S
C108 C109 1.439 . S
C108 H148 0.920 1_556 S
C109 C108 1.439 . S
C109 N110 1.374 . S
C109 C143 1.395 . S
N110 C106 1.376 . S
N110 C109 1.374 . S
N110 Co111 2.008 . S
Co111 N110 2.008 . S
Co111 N112 1.995 . S
Co111 N117 2.008 . S
Co111 N122 1.995 . S
Co111 N127 2.282 . S
Co111 N133 2.282 . S
N112 Co111 1.995 . S
N112 C113 1.376 . S
N112 C116 1.383 . S
C113 N112 1.376 . S
C113 C114 1.446 . S
C113 C143 1.391 . S
C114 C113 1.446 . S
C114 C115 1.339 . S
C114 H149 0.949 . S
C115 C114 1.339 . S
C115 C116 1.439 . S
C115 H150 0.950 . S
C116 N112 1.383 . S
C116 C115 1.439 . S
C116 C145 1.392 . S
N117 Co111 2.008 . S
N117 C118 1.376 . S
N117 C121 1.374 . S
C118 N117 1.376 . S
C118 C119 1.443 . S
C118 C145 1.389 . S
C119 C118 1.443 . S
C119 C120 1.340 . S
C119 H151 0.951 . S
C120 C119 1.340 . S
C120 C121 1.439 . S
C120 H152 0.950 . S
C121 N117 1.374 . S
C121 C120 1.439 . S
C121 C146 1.395 . S
N122 Co111 1.995 . S
N122 C123 1.376 . S
N122 C126 1.383 . S
C123 N122 1.376 . S
C123 C124 1.446 . S
C123 C146 1.391 . S
C124 C123 1.446 . S
C124 C125 1.339 . S
C124 H153 0.949 . S
C125 C124 1.339 . S
C125 C126 1.439 . S
C125 H154 0.950 . S
C126 N122 1.383 . S
C126 C125 1.439 . S
C126 C144 1.392 . S
N127 Co111 2.282 . S
N127 C130 1.332 . S
N127 C132 1.332 . S
C128 C129 1.386 . S
C128 C131 1.388 . S
C129 C128 1.386 . S
C129 C130 1.382 . S
C129 H155 0.950 . S
C130 N127 1.332 . S
C130 C129 1.382 . S
C130 H141 0.952 . S
C131 C128 1.388 . S
C131 C132 1.382 . S
C131 H156 0.950 . S
C132 N127 1.332 . S
C132 C131 1.382 . S
C132 H142 0.948 . S
N133 Co111 2.282 . S
N133 C137 1.332 . S
N133 C138 1.332 . S
C134 C135 1.388 . S
C134 C138 1.382 . S
C134 H157 0.950 . S
C135 C134 1.388 . S
C135 C136 1.386 . S
C136 C135 1.386 . S
C136 C137 1.382 . S
C136 H158 0.950 . S
C137 N133 1.332 . S
C137 C136 1.382 . S
C137 H139 0.952 . S
C138 N133 1.332 . S
C138 C134 1.382 . S
C138 H140 0.948 . S
H139 C137 0.952 . S
H140 C138 0.948 . S
H141 C130 0.952 . S
H142 C132 0.948 . S
C143 C109 1.395 . S
C143 C113 1.391 . S
C144 C106 1.389 . S
C144 C126 1.392 . S
C145 C116 1.392 . S
C145 C118 1.389 . S
C146 C121 1.395 . S
C146 C123 1.391 . S
H147 C107 0.951 . S
H148 C108 0.920 1_554 S
H149 C114 0.949 . S
H150 C115 0.950 . S
H151 C119 0.951 . S
H152 C120 0.950 . S
H153 C124 0.949 . S
H154 C125 0.950 . S
H155 C129 0.950 . S
H156 C131 0.950 . S
H157 C134 0.950 . S
H158 C136 0.950 . S
C159 C160 1.443 . S
C159 N163 1.376 . S
C159 C197 1.389 . S
C160 C159 1.443 . S
C160 C161 1.340 . S
C160 H200 0.951 . S
C161 C160 1.340 . S
C161 C162 1.439 . S
C161 H201 0.950 . S
C162 C161 1.439 . S
C162 N163 1.374 . S
C162 C196 1.395 . S
N163 C159 1.376 . S
N163 C162 1.374 . S
N163 Co164 2.008 . S
Co164 N163 2.008 . S
Co164 N165 1.995 . S
Co164 N170 2.008 . S
Co164 N175 1.995 . S
Co164 N180 2.282 . S
Co164 N186 2.282 . S
N165 Co164 1.995 . S
N165 C166 1.376 . S
N165 C169 1.383 . S
C166 N165 1.376 . S
C166 C167 1.446 . S
C166 C196 1.391 . S
C167 C166 1.446 . S
C167 C168 1.339 . S
C167 H202 0.949 . S
C168 C167 1.339 . S
C168 C169 1.439 . S
C168 H203 0.950 . S
C169 N165 1.383 . S
C169 C168 1.439 . S
C169 C198 1.392 . S
N170 Co164 2.008 . S
N170 C171 1.376 . S
N170 C174 1.374 . S
C171 N170 1.376 . S
C171 C172 1.443 . S
C171 C198 1.389 . S
C172 C171 1.443 . S
C172 C173 1.340 . S
C172 H204 0.951 . S
C173 C172 1.340 . S
C173 C174 1.439 . S
C173 H205 0.950 . S
C174 N170 1.374 . S
C174 C173 1.439 . S
C174 C199 1.395 . S
N175 Co164 1.995 . S
N175 C176 1.376 . S
N175 C179 1.383 . S
C176 N175 1.376 . S
C176 C177 1.446 . S
C176 C199 1.391 . S
C177 C176 1.446 . S
C177 C178 1.339 . S
C177 H206 0.949 . S
C178 C177 1.339 . S
C178 C179 1.439 . S
C178 H207 0.950 . S
C179 N175 1.383 . S
C179 C178 1.439 . S
C179 C197 1.392 . S
N180 Co164 2.282 . S
N180 C183 1.332 . S
N180 C185 1.332 . S
C181 C182 1.386 . S
C181 C184 1.388 . S
C182 C181 1.386 . S
C182 C183 1.382 . S
C182 H208 0.950 . S
C183 N180 1.332 . S
C183 C182 1.382 . S
C183 H194 0.952 . S
C184 C181 1.388 . S
C184 C185 1.382 . S
C184 H209 0.950 . S
C185 N180 1.332 . S
C185 C184 1.382 . S
C185 H195 0.948 . S
N186 Co164 2.282 . S
N186 C190 1.332 . S
N186 C191 1.332 . S
C187 C188 1.388 . S
C187 C191 1.382 . S
C187 H210 0.950 . S
C188 C187 1.388 . S
C188 C189 1.386 . S
C189 C188 1.386 . S
C189 C190 1.382 . S
C189 H211 0.950 . S
C190 N186 1.332 . S
C190 C189 1.382 . S
C190 H192 0.952 . S
C191 N186 1.332 . S
C191 C187 1.382 . S
C191 H193 0.948 . S
H192 C190 0.952 . S
H193 C191 0.948 . S
H194 C183 0.952 . S
H195 C185 0.948 . S
C196 C162 1.395 . S
C196 C166 1.391 . S
C197 C159 1.389 . S
C197 C179 1.392 . S
C198 C169 1.392 . S
C198 C171 1.389 . S
C199 C174 1.395 . S
C199 C176 1.391 . S
H200 C160 0.951 . S
H201 C161 0.950 . S
H202 C167 0.949 . S
H203 C168 0.950 . S
H204 C172 0.951 . S
H205 C173 0.950 . S
H206 C177 0.949 . S
H207 C178 0.950 . S
H208 C182 0.950 . S
H209 C184 0.950 . S
H210 C187 0.950 . S
H211 C189 0.950 . S
C212 C213 1.443 . S
C212 N216 1.376 . S
C212 C250 1.389 . S
C213 C212 1.443 . S
C213 C214 1.340 . S
C213 H253 0.951 . S
C214 C213 1.340 . S
C214 C215 1.439 . S
C214 H254 0.950 . S
C215 C214 1.439 . S
C215 N216 1.374 . S
C215 C249 1.395 . S
N216 C212 1.376 . S
N216 C215 1.374 . S
N216 Co217 2.008 . S
Co217 N216 2.008 . S
Co217 N218 1.995 . S
Co217 N223 2.008 . S
Co217 N228 1.995 . S
Co217 N233 2.282 . S
Co217 N239 2.282 . S
N218 Co217 1.995 . S
N218 C219 1.376 . S
N218 C222 1.383 . S
C219 N218 1.376 . S
C219 C220 1.446 . S
C219 C249 1.391 . S
C220 C219 1.446 . S
C220 C221 1.339 . S
C220 H255 0.949 . S
C221 C220 1.339 . S
C221 C222 1.439 . S
C221 H256 0.950 . S
C222 N218 1.383 . S
C222 C221 1.439 . S
C222 C251 1.392 . S
N223 Co217 2.008 . S
N223 C224 1.376 . S
N223 C227 1.374 . S
C224 N223 1.376 . S
C224 C225 1.443 . S
C224 C251 1.389 . S
C225 C224 1.443 . S
C225 C226 1.340 . S
C225 H257 0.951 . S
C226 C225 1.340 . S
C226 C227 1.439 . S
C226 H258 0.950 . S
C227 N223 1.374 . S
C227 C226 1.439 . S
C227 C252 1.395 . S
N228 Co217 1.995 . S
N228 C229 1.376 . S
N228 C232 1.383 . S
C229 N228 1.376 . S
C229 C230 1.446 . S
C229 C252 1.391 . S
C230 C229 1.446 . S
C230 C231 1.339 . S
C230 H259 0.949 . S
C231 C230 1.339 . S
C231 C232 1.439 . S
C231 H260 0.950 . S
C232 N228 1.383 . S
C232 C231 1.439 . S
C232 C250 1.392 . S
N233 Co217 2.282 . S
N233 C236 1.332 . S
N233 C238 1.332 . S
C234 C235 1.386 . S
C234 C237 1.388 . S
C235 C234 1.386 . S
C235 C236 1.382 . S
C235 H261 0.950 . S
C236 N233 1.332 . S
C236 C235 1.382 . S
C236 H247 0.952 . S
C237 C234 1.388 . S
C237 C238 1.382 . S
C237 H262 0.950 . S
C238 N233 1.332 . S
C238 C237 1.382 . S
C238 H248 0.948 . S
N239 Co217 2.282 . S
N239 C243 1.332 . S
N239 C244 1.332 . S
C240 C241 1.388 . S
C240 C244 1.382 . S
C240 H263 0.950 . S
C241 C240 1.388 . S
C241 C242 1.386 . S
C242 C241 1.386 . S
C242 C243 1.382 . S
C242 H264 0.950 . S
C243 N239 1.332 . S
C243 C242 1.382 . S
C243 H245 0.952 . S
C244 N239 1.332 . S
C244 C240 1.382 . S
C244 H246 0.948 . S
H245 C243 0.952 . S
H246 C244 0.948 . S
H247 C236 0.952 . S
H248 C238 0.948 . S
C249 C215 1.395 . S
C249 C219 1.391 . S
C250 C212 1.389 . S
C250 C232 1.392 . S
C251 C222 1.392 . S
C251 C224 1.389 . S
C252 C227 1.395 . S
C252 C229 1.391 . S
H253 C213 0.951 . S
H254 C214 0.950 . S
H255 C220 0.949 . S
H256 C221 0.950 . S
H257 C225 0.951 . S
H258 C226 0.950 . S
H259 C230 0.949 . S
H260 C231 0.950 . S
H261 C235 0.950 . S
H262 C237 0.950 . S
H263 C240 0.950 . S
H264 C242 0.950 . S
C265 C266 1.443 . S
C265 N269 1.376 . S
C265 C303 1.389 . S
C266 C265 1.443 . S
C266 C267 1.340 . S
C266 H306 0.951 . S
C267 C266 1.340 . S
C267 C268 1.439 . S
C267 H307 0.920 1_556 S
C268 C267 1.439 . S
C268 N269 1.374 . S
C268 C302 1.395 . S
N269 C265 1.376 . S
N269 C268 1.374 . S
N269 Co270 2.008 . S
Co270 N269 2.008 . S
Co270 N271 1.995 . S
Co270 N276 2.008 . S
Co270 N281 1.995 . S
Co270 N286 2.282 . S
Co270 N292 2.282 . S
N271 Co270 1.995 . S
N271 C272 1.376 . S
N271 C275 1.383 . S
C272 N271 1.376 . S
C272 C273 1.446 . S
C272 C302 1.391 . S
C273 C272 1.446 . S
C273 C274 1.339 . S
C273 H308 0.949 . S
C274 C273 1.339 . S
C274 C275 1.439 . S
C274 H309 0.950 . S
C275 N271 1.383 . S
C275 C274 1.439 . S
C275 C304 1.392 . S
N276 Co270 2.008 . S
N276 C277 1.376 . S
N276 C280 1.374 . S
C277 N276 1.376 . S
C277 C278 1.443 . S
C277 C304 1.389 . S
C278 C277 1.443 . S
C278 C279 1.340 . S
C278 H310 0.951 . S
C279 C278 1.340 . S
C279 C280 1.439 . S
C279 H311 0.950 . S
C280 N276 1.374 . S
C280 C279 1.439 . S
C280 C305 1.395 . S
N281 Co270 1.995 . S
N281 C282 1.376 . S
N281 C285 1.383 . S
C282 N281 1.376 . S
C282 C283 1.446 . S
C282 C305 1.391 . S
C283 C282 1.446 . S
C283 C284 1.339 . S
C283 H312 0.949 . S
C284 C283 1.339 . S
C284 C285 1.439 . S
C284 H313 0.950 . S
C285 N281 1.383 . S
C285 C284 1.439 . S
C285 C303 1.392 . S
N286 Co270 2.282 . S
N286 C289 1.332 . S
N286 C291 1.332 . S
C287 C288 1.386 . S
C287 C290 1.388 . S
C288 C287 1.386 . S
C288 C289 1.382 . S
C288 H314 0.950 . S
C289 N286 1.332 . S
C289 C288 1.382 . S
C289 H300 0.952 . S
C290 C287 1.388 . S
C290 C291 1.382 . S
C290 H315 0.950 . S
C291 N286 1.332 . S
C291 C290 1.382 . S
C291 H301 0.948 . S
N292 Co270 2.282 . S
N292 C296 1.332 . S
N292 C297 1.332 . S
C293 C294 1.388 . S
C293 C297 1.382 . S
C293 H316 0.950 . S
C294 C293 1.388 . S
C294 C295 1.386 . S
C295 C294 1.386 . S
C295 C296 1.382 . S
C295 H317 0.950 . S
C296 N292 1.332 . S
C296 C295 1.382 . S
C296 H298 0.952 . S
C297 N292 1.332 . S
C297 C293 1.382 . S
C297 H299 0.948 . S
H298 C296 0.952 . S
H299 C297 0.948 . S
H300 C289 0.952 . S
H301 C291 0.948 . S
C302 C268 1.395 . S
C302 C272 1.391 . S
C303 C265 1.389 . S
C303 C285 1.392 . S
C304 C275 1.392 . S
C304 C277 1.389 . S
C305 C280 1.395 . S
C305 C282 1.391 . S
H306 C266 0.951 . S
H307 C267 0.920 1_554 S
H308 C273 0.949 . S
H309 C274 0.950 . S
H310 C278 0.951 . S
H311 C279 0.950 . S
H312 C283 0.949 . S
H313 C284 0.950 . S
H314 C288 0.950 . S
H315 C290 0.950 . S
H316 C293 0.950 . S
H317 C295 0.950 . S
C318 C319 1.443 . S
C318 N322 1.376 . S
C318 C356 1.389 . S
C319 C318 1.443 . S
C319 C320 1.340 . S
C319 H359 0.951 . S
C320 C319 1.340 . S
C320 C321 1.439 . S
C320 H360 0.950 . S
C321 C320 1.439 . S
C321 N322 1.374 . S
C321 C355 1.395 . S
N322 C318 1.376 . S
N322 C321 1.374 . S
N322 Co323 2.008 . S
Co323 N322 2.008 . S
Co323 N324 1.995 . S
Co323 N329 2.008 . S
Co323 N334 1.995 . S
Co323 N339 2.282 . S
Co323 N345 2.282 . S
N324 Co323 1.995 . S
N324 C325 1.376 . S
N324 C328 1.383 . S
C325 N324 1.376 . S
C325 C326 1.446 . S
C325 C355 1.391 . S
C326 C325 1.446 . S
C326 C327 1.339 . S
C326 H361 0.949 . S
C327 C326 1.339 . S
C327 C328 1.439 . S
C327 H362 0.950 . S
C328 N324 1.383 . S
C328 C327 1.439 . S
C328 C357 1.392 . S
N329 Co323 2.008 . S
N329 C330 1.376 . S
N329 C333 1.374 . S
C330 N329 1.376 . S
C330 C331 1.443 . S
C330 C357 1.389 . S
C331 C330 1.443 . S
C331 C332 1.340 . S
C331 H363 0.951 . S
C332 C331 1.340 . S
C332 C333 1.439 . S
C332 H364 0.950 . S
C333 N329 1.374 . S
C333 C332 1.439 . S
C333 C358 1.395 . S
N334 Co323 1.995 . S
N334 C335 1.376 . S
N334 C338 1.383 . S
C335 N334 1.376 . S
C335 C336 1.446 . S
C335 C358 1.391 . S
C336 C335 1.446 . S
C336 C337 1.339 . S
C336 H365 0.949 . S
C337 C336 1.339 . S
C337 C338 1.439 . S
C337 H366 0.950 . S
C338 N334 1.383 . S
C338 C337 1.439 . S
C338 C356 1.392 . S
N339 Co323 2.282 . S
N339 C342 1.332 . S
N339 C344 1.332 . S
C340 C341 1.386 . S
C340 C343 1.388 . S
C341 C340 1.386 . S
C341 C342 1.382 . S
C341 H367 0.950 . S
C342 N339 1.332 . S
C342 C341 1.382 . S
C342 H353 0.952 . S
C343 C340 1.388 . S
C343 C344 1.382 . S
C343 H368 0.950 . S
C344 N339 1.332 . S
C344 C343 1.382 . S
C344 H354 0.948 . S
N345 Co323 2.282 . S
N345 C349 1.332 . S
N345 C350 1.332 . S
C346 C347 1.388 . S
C346 C350 1.382 . S
C346 H369 0.950 . S
C347 C346 1.388 . S
C347 C348 1.386 . S
C348 C347 1.386 . S
C348 C349 1.382 . S
C348 H370 0.950 . S
C349 N345 1.332 . S
C349 C348 1.382 . S
C349 H351 0.952 . S
C350 N345 1.332 . S
C350 C346 1.382 . S
C350 H352 0.948 . S
H351 C349 0.952 . S
H352 C350 0.948 . S
H353 C342 0.952 . S
H354 C344 0.948 . S
C355 C321 1.395 . S
C355 C325 1.391 . S
C356 C318 1.389 . S
C356 C338 1.392 . S
C357 C328 1.392 . S
C357 C330 1.389 . S
C358 C333 1.395 . S
C358 C335 1.391 . S
H359 C319 0.951 . S
H360 C320 0.950 . S
H361 C326 0.949 . S
H362 C327 0.950 . S
H363 C331 0.951 . S
H364 C332 0.950 . S
H365 C336 0.949 . S
H366 C337 0.950 . S
H367 C341 0.950 . S
H368 C343 0.950 . S
H369 C346 0.950 . S
H370 C348 0.950 . S
C371 C372 1.443 . S
C371 N375 1.376 . S
C371 C409 1.389 . S
C372 C371 1.443 . S
C372 C373 1.340 . S
C372 H412 0.951 . S
C373 C372 1.340 . S
C373 C374 1.439 . S
C373 H413 0.950 . S
C374 C373 1.439 . S
C374 N375 1.374 . S
C374 C408 1.395 . S
N375 C371 1.376 . S
N375 C374 1.374 . S
N375 Co376 2.008 . S
Co376 N375 2.008 . S
Co376 N377 1.995 . S
Co376 N382 2.008 . S
Co376 N387 1.995 . S
Co376 N392 2.282 . S
Co376 N398 2.282 . S
N377 Co376 1.995 . S
N377 C378 1.376 . S
N377 C381 1.383 . S
C378 N377 1.376 . S
C378 C379 1.446 . S
C378 C408 1.391 . S
C379 C378 1.446 . S
C379 C380 1.339 . S
C379 H414 0.949 . S
C380 C379 1.339 . S
C380 C381 1.439 . S
C380 H415 0.950 . S
C381 N377 1.383 . S
C381 C380 1.439 . S
C381 C410 1.392 . S
N382 Co376 2.008 . S
N382 C383 1.376 . S
N382 C386 1.374 . S
C383 N382 1.376 . S
C383 C384 1.443 . S
C383 C410 1.389 . S
C384 C383 1.443 . S
C384 C385 1.340 . S
C384 H416 0.951 . S
C385 C384 1.340 . S
C385 C386 1.439 . S
C385 H417 0.950 . S
C386 N382 1.374 . S
C386 C385 1.439 . S
C386 C411 1.395 . S
N387 Co376 1.995 . S
N387 C388 1.376 . S
N387 C391 1.383 . S
C388 N387 1.376 . S
C388 C389 1.446 . S
C388 C411 1.391 . S
C389 C388 1.446 . S
C389 C390 1.339 . S
C389 H418 0.949 . S
C390 C389 1.339 . S
C390 C391 1.439 . S
C390 H419 0.950 . S
C391 N387 1.383 . S
C391 C390 1.439 . S
C391 C409 1.392 . S
N392 Co376 2.282 . S
N392 C395 1.332 . S
N392 C397 1.332 . S
C393 C394 1.386 . S
C393 C396 1.388 . S
C394 C393 1.386 . S
C394 C395 1.382 . S
C394 H420 0.950 . S
C395 N392 1.332 . S
C395 C394 1.382 . S
C395 H406 0.952 . S
C396 C393 1.388 . S
C396 C397 1.382 . S
C396 H421 0.950 . S
C397 N392 1.332 . S
C397 C396 1.382 . S
C397 H407 0.948 . S
N398 Co376 2.282 . S
N398 C402 1.332 . S
N398 C403 1.332 . S
C399 C400 1.388 . S
C399 C403 1.382 . S
C399 H422 0.950 . S
C400 C399 1.388 . S
C400 C401 1.386 . S
C401 C400 1.386 . S
C401 C402 1.382 . S
C401 H423 0.950 . S
C402 N398 1.332 . S
C402 C401 1.382 . S
C402 H404 0.952 . S
C403 N398 1.332 . S
C403 C399 1.382 . S
C403 H405 0.948 . S
H404 C402 0.952 . S
H405 C403 0.948 . S
H406 C395 0.952 . S
H407 C397 0.948 . S
C408 C374 1.395 . S
C408 C378 1.391 . S
C409 C371 1.389 . S
C409 C391 1.392 . S
C410 C381 1.392 . S
C410 C383 1.389 . S
C411 C386 1.395 . S
C411 C388 1.391 . S
H412 C372 0.951 . S
H413 C373 0.950 . S
H414 C379 0.949 . S
H415 C380 0.950 . S
H416 C384 0.951 . S
H417 C385 0.950 . S
H418 C389 0.949 . S
H419 C390 0.950 . S
H420 C394 0.950 . S
H421 C396 0.950 . S
H422 C399 0.950 . S
H423 C401 0.950 . S
C424 C425 1.443 . S
C424 N428 1.376 . S
C424 C462 1.389 . S
C425 C424 1.443 . S
C425 C426 1.340 . S
C425 H465 0.951 . S
C426 C425 1.340 . S
C426 C427 1.439 . S
C426 H466 0.950 1_554 S
C427 C426 1.439 . S
C427 N428 1.374 . S
C427 C461 1.395 . S
N428 C424 1.376 . S
N428 C427 1.374 . S
N428 Co429 2.008 . S
Co429 N428 2.008 . S
Co429 N430 1.995 . S
Co429 N435 2.008 . S
Co429 N440 1.995 . S
Co429 N445 2.282 . S
Co429 N451 2.282 . S
N430 Co429 1.995 . S
N430 C431 1.376 . S
N430 C434 1.383 . S
C431 N430 1.376 . S
C431 C432 1.446 . S
C431 C461 1.391 . S
C432 C431 1.446 . S
C432 C433 1.339 . S
C432 H467 0.949 . S
C433 C432 1.339 . S
C433 C434 1.439 . S
C433 H468 0.950 . S
C434 N430 1.383 . S
C434 C433 1.439 . S
C434 C463 1.392 . S
N435 Co429 2.008 . S
N435 C436 1.376 . S
N435 C439 1.374 . S
C436 N435 1.376 . S
C436 C437 1.443 . S
C436 C463 1.389 . S
C437 C436 1.443 . S
C437 C438 1.340 . S
C437 H469 0.951 . S
C438 C437 1.340 . S
C438 C439 1.439 . S
C438 H470 0.950 . S
C439 N435 1.374 . S
C439 C438 1.439 . S
C439 C464 1.395 . S
N440 Co429 1.995 . S
N440 C441 1.376 . S
N440 C444 1.383 . S
C441 N440 1.376 . S
C441 C442 1.446 . S
C441 C464 1.391 . S
C442 C441 1.446 . S
C442 C443 1.339 . S
C442 H471 0.949 . S
C443 C442 1.339 . S
C443 C444 1.439 . S
C443 H472 0.950 . S
C444 N440 1.383 . S
C444 C443 1.439 . S
C444 C462 1.392 . S
N445 Co429 2.282 . S
N445 C448 1.332 . S
N445 C450 1.332 . S
C446 C447 1.386 . S
C446 C449 1.388 . S
C447 C446 1.386 . S
C447 C448 1.382 . S
C447 H473 0.950 . S
C448 N445 1.332 . S
C448 C447 1.382 . S
C448 H459 0.952 . S
C449 C446 1.388 . S
C449 C450 1.382 . S
C449 H474 0.950 . S
C450 N445 1.332 . S
C450 C449 1.382 . S
C450 H460 0.948 . S
N451 Co429 2.282 . S
N451 C455 1.332 . S
N451 C456 1.332 . S
C452 C453 1.388 . S
C452 C456 1.382 . S
C452 H475 0.950 . S
C453 C452 1.388 . S
C453 C454 1.386 . S
C454 C453 1.386 . S
C454 C455 1.382 . S
C454 H476 0.950 . S
C455 N451 1.332 . S
C455 C454 1.382 . S
C455 H457 0.952 . S
C456 N451 1.332 . S
C456 C452 1.382 . S
C456 H458 0.948 . S
H457 C455 0.952 . S
H458 C456 0.948 . S
H459 C448 0.952 . S
H460 C450 0.948 . S
C461 C427 1.395 . S
C461 C431 1.391 . S
C462 C424 1.389 . S
C462 C444 1.392 . S
C463 C434 1.392 . S
C463 C436 1.389 . S
C464 C439 1.395 . S
C464 C441 1.391 . S
H465 C425 0.951 . S
H466 C426 0.950 1_556 S
H467 C432 0.949 . S
H468 C433 0.950 . S
H469 C437 0.951 . S
H470 C438 0.950 . S
H471 C442 0.949 . S
H472 C443 0.950 . S
H473 C447 0.950 . S
H474 C449 0.950 . S
H475 C452 0.950 . S
H476 C454 0.950 . S
C477 C478 1.443 . S
C477 N481 1.376 . S
C477 C515 1.389 . S
C478 C477 1.443 . S
C478 C479 1.340 . S
C478 H518 0.951 . S
C479 C478 1.340 . S
C479 C480 1.439 . S
C479 H519 0.950 . S
C480 C479 1.439 . S
C480 N481 1.374 . S
C480 C514 1.395 . S
N481 C477 1.376 . S
N481 C480 1.374 . S
N481 Co482 2.008 . S
Co482 N481 2.008 . S
Co482 N483 1.995 . S
Co482 N488 2.008 . S
Co482 N493 1.995 . S
Co482 N498 2.282 . S
Co482 N504 2.282 . S
N483 Co482 1.995 . S
N483 C484 1.376 . S
N483 C487 1.383 . S
C484 N483 1.376 . S
C484 C485 1.446 . S
C484 C514 1.391 . S
C485 C484 1.446 . S
C485 C486 1.339 . S
C485 H520 0.949 . S
C486 C485 1.339 . S
C486 C487 1.439 . S
C486 H521 0.950 . S
C487 N483 1.383 . S
C487 C486 1.439 . S
C487 C516 1.392 . S
N488 Co482 2.008 . S
N488 C489 1.376 . S
N488 C492 1.374 . S
C489 N488 1.376 . S
C489 C490 1.443 . S
C489 C516 1.389 . S
C490 C489 1.443 . S
C490 C491 1.340 . S
C490 H522 0.951 . S
C491 C490 1.340 . S
C491 C492 1.439 . S
C491 H523 0.950 . S
C492 N488 1.374 . S
C492 C491 1.439 . S
C492 C517 1.395 . S
N493 Co482 1.995 . S
N493 C494 1.376 . S
N493 C497 1.383 . S
C494 N493 1.376 . S
C494 C495 1.446 . S
C494 C517 1.391 . S
C495 C494 1.446 . S
C495 C496 1.339 . S
C495 H524 0.949 . S
C496 C495 1.339 . S
C496 C497 1.439 . S
C496 H525 0.950 . S
C497 N493 1.383 . S
C497 C496 1.439 . S
C497 C515 1.392 . S
N498 Co482 2.282 . S
N498 C501 1.332 . S
N498 C503 1.332 . S
C499 C500 1.386 . S
C499 C502 1.388 . S
C500 C499 1.386 . S
C500 C501 1.382 . S
C500 H526 0.950 . S
C501 N498 1.332 . S
C501 C500 1.382 . S
C501 H512 0.952 . S
C502 C499 1.388 . S
C502 C503 1.382 . S
C502 H527 0.950 . S
C503 N498 1.332 . S
C503 C502 1.382 . S
C503 H513 0.948 . S
N504 Co482 2.282 . S
N504 C508 1.332 . S
N504 C509 1.332 . S
C505 C506 1.388 . S
C505 C509 1.382 . S
C505 H528 0.950 . S
C506 C505 1.388 . S
C506 C507 1.386 . S
C507 C506 1.386 . S
C507 C508 1.382 . S
C507 H529 0.950 . S
C508 N504 1.332 . S
C508 C507 1.382 . S
C508 H510 0.952 . S
C509 N504 1.332 . S
C509 C505 1.382 . S
C509 H511 0.948 . S
H510 C508 0.952 . S
H511 C509 0.948 . S
H512 C501 0.952 . S
H513 C503 0.948 . S
C514 C480 1.395 . S
C514 C484 1.391 . S
C515 C477 1.389 . S
C515 C497 1.392 . S
C516 C487 1.392 . S
C516 C489 1.389 . S
C517 C492 1.395 . S
C517 C494 1.391 . S
H518 C478 0.951 . S
H519 C479 0.950 . S
H520 C485 0.949 . S
H521 C486 0.950 . S
H522 C490 0.951 . S
H523 C491 0.950 . S
H524 C495 0.949 . S
H525 C496 0.950 . S
H526 C500 0.950 . S
H527 C502 0.950 . S
H528 C505 0.950 . S
H529 C507 0.950 . S
C530 C531 1.443 . S
C530 N534 1.376 . S
C530 C568 1.389 . S
C531 C530 1.443 . S
C531 C532 1.340 . S
C531 H571 0.951 . S
C532 C531 1.340 . S
C532 C533 1.439 . S
C532 H572 0.950 . S
C533 C532 1.439 . S
C533 N534 1.374 . S
C533 C567 1.395 . S
N534 C530 1.376 . S
N534 C533 1.374 . S
N534 Co535 2.008 . S
Co535 N534 2.008 . S
Co535 N536 1.995 . S
Co535 N541 2.008 . S
Co535 N546 1.995 . S
Co535 N551 2.282 . S
Co535 N557 2.282 . S
N536 Co535 1.995 . S
N536 C537 1.376 . S
N536 C540 1.383 . S
C537 N536 1.376 . S
C537 C538 1.446 . S
C537 C567 1.391 . S
C538 C537 1.446 . S
C538 C539 1.339 . S
C538 H573 0.949 . S
C539 C538 1.339 . S
C539 C540 1.439 . S
C539 H574 0.950 . S
C540 N536 1.383 . S
C540 C539 1.439 . S
C540 C569 1.392 . S
N541 Co535 2.008 . S
N541 C542 1.376 . S
N541 C545 1.374 . S
C542 N541 1.376 . S
C542 C543 1.443 . S
C542 C569 1.389 . S
C543 C542 1.443 . S
C543 C544 1.340 . S
C543 H575 0.951 . S
C544 C543 1.340 . S
C544 C545 1.439 . S
C544 H576 0.950 . S
C545 N541 1.374 . S
C545 C544 1.439 . S
C545 C570 1.395 . S
N546 Co535 1.995 . S
N546 C547 1.376 . S
N546 C550 1.383 . S
C547 N546 1.376 . S
C547 C548 1.446 . S
C547 C570 1.391 . S
C548 C547 1.446 . S
C548 C549 1.339 . S
C548 H577 0.949 . S
C549 C548 1.339 . S
C549 C550 1.439 . S
C549 H578 0.950 . S
C550 N546 1.383 . S
C550 C549 1.439 . S
C550 C568 1.392 . S
N551 Co535 2.282 . S
N551 C554 1.332 . S
N551 C556 1.332 . S
C552 C553 1.386 . S
C552 C555 1.388 . S
C553 C552 1.386 . S
C553 C554 1.382 . S
C553 H579 0.950 . S
C554 N551 1.332 . S
C554 C553 1.382 . S
C554 H565 0.952 . S
C555 C552 1.388 . S
C555 C556 1.382 . S
C555 H580 0.950 . S
C556 N551 1.332 . S
C556 C555 1.382 . S
C556 H566 0.948 . S
N557 Co535 2.282 . S
N557 C561 1.332 . S
N557 C562 1.332 . S
C558 C559 1.388 . S
C558 C562 1.382 . S
C558 H581 0.950 . S
C559 C558 1.388 . S
C559 C560 1.386 . S
C560 C559 1.386 . S
C560 C561 1.382 . S
C560 H582 0.950 . S
C561 N557 1.332 . S
C561 C560 1.382 . S
C561 H563 0.952 . S
C562 N557 1.332 . S
C562 C558 1.382 . S
C562 H564 0.948 . S
H563 C561 0.952 . S
H564 C562 0.948 . S
H565 C554 0.952 . S
H566 C556 0.948 . S
C567 C533 1.395 . S
C567 C537 1.391 . S
C568 C530 1.389 . S
C568 C550 1.392 . S
C569 C540 1.392 . S
C569 C542 1.389 . S
C570 C545 1.395 . S
C570 C547 1.391 . S
H571 C531 0.951 . S
H572 C532 0.950 . S
H573 C538 0.949 . S
H574 C539 0.950 . S
H575 C543 0.951 . S
H576 C544 0.950 . S
H577 C548 0.949 . S
H578 C549 0.950 . S
H579 C553 0.950 . S
H580 C555 0.950 . S
H581 C558 0.950 . S
H582 C560 0.950 . S
C583 C584 1.443 . S
C583 N587 1.376 . S
C583 C621 1.389 . S
C584 C583 1.443 . S
C584 C585 1.340 . S
C584 H624 0.951 . S
C585 C584 1.340 . S
C585 C586 1.439 . S
C585 H625 0.950 1_554 S
C586 C585 1.439 . S
C586 N587 1.374 . S
C586 C620 1.395 . S
N587 C583 1.376 . S
N587 C586 1.374 . S
N587 Co588 2.008 . S
Co588 N587 2.008 . S
Co588 N589 1.995 . S
Co588 N594 2.008 . S
Co588 N599 1.995 . S
Co588 N604 2.282 . S
Co588 N610 2.282 . S
N589 Co588 1.995 . S
N589 C590 1.376 . S
N589 C593 1.383 . S
C590 N589 1.376 . S
C590 C591 1.446 . S
C590 C620 1.391 . S
C591 C590 1.446 . S
C591 C592 1.339 . S
C591 H626 0.949 . S
C592 C591 1.339 . S
C592 C593 1.439 . S
C592 H627 0.950 . S
C593 N589 1.383 . S
C593 C592 1.439 . S
C593 C622 1.392 . S
N594 Co588 2.008 . S
N594 C595 1.376 . S
N594 C598 1.374 . S
C595 N594 1.376 . S
C595 C596 1.443 . S
C595 C622 1.389 . S
C596 C595 1.443 . S
C596 C597 1.340 . S
C596 H628 0.951 . S
C597 C596 1.340 . S
C597 C598 1.439 . S
C597 H629 0.950 . S
C598 N594 1.374 . S
C598 C597 1.439 . S
C598 C623 1.395 . S
N599 Co588 1.995 . S
N599 C600 1.376 . S
N599 C603 1.383 . S
C600 N599 1.376 . S
C600 C601 1.446 . S
C600 C623 1.391 . S
C601 C600 1.446 . S
C601 C602 1.339 . S
C601 H630 0.949 . S
C602 C601 1.339 . S
C602 C603 1.439 . S
C602 H631 0.950 . S
C603 N599 1.383 . S
C603 C602 1.439 . S
C603 C621 1.392 . S
N604 Co588 2.282 . S
N604 C607 1.332 . S
N604 C609 1.332 . S
C605 C606 1.386 . S
C605 C608 1.388 . S
C606 C605 1.386 . S
C606 C607 1.382 . S
C606 H632 0.950 . S
C607 N604 1.332 . S
C607 C606 1.382 . S
C607 H618 0.952 . S
C608 C605 1.388 . S
C608 C609 1.382 . S
C608 H633 0.950 . S
C609 N604 1.332 . S
C609 C608 1.382 . S
C609 H619 0.948 . S
N610 Co588 2.282 . S
N610 C614 1.332 . S
N610 C615 1.332 . S
C611 C612 1.388 . S
C611 C615 1.382 . S
C611 H634 0.950 . S
C612 C611 1.388 . S
C612 C613 1.386 . S
C613 C612 1.386 . S
C613 C614 1.382 . S
C613 H635 0.950 . S
C614 N610 1.332 . S
C614 C613 1.382 . S
C614 H616 0.952 . S
C615 N610 1.332 . S
C615 C611 1.382 . S
C615 H617 0.948 . S
H616 C614 0.952 . S
H617 C615 0.948 . S
H618 C607 0.952 . S
H619 C609 0.948 . S
C620 C586 1.395 . S
C620 C590 1.391 . S
C621 C583 1.389 . S
C621 C603 1.392 . S
C622 C593 1.392 . S
C622 C595 1.389 . S
C623 C598 1.395 . S
C623 C600 1.391 . S
H624 C584 0.951 . S
H625 C585 0.950 1_556 S
H626 C591 0.949 . S
H627 C592 0.950 . S
H628 C596 0.951 . S
H629 C597 0.950 . S
H630 C601 0.949 . S
H631 C602 0.950 . S
H632 C606 0.950 . S
H633 C608 0.950 . S
H634 C611 0.950 . S
H635 C613 0.950 . S
H636 C642 0.930 . S
H637 C645 0.930 . S
H638 C646 0.930 . S
H639 C647 0.930 . S
H640 C650 0.930 . S
H641 C651 0.930 . S
C642 H636 0.930 . S
C642 C643 1.355 . S
C642 C644 1.415 . S
C643 C642 1.355 . S
C643 C645 1.419 . S
C644 C642 1.415 . S
C644 C649 1.425 . S
C644 C651 1.409 . S
C645 H637 0.930 . S
C645 C643 1.419 . S
C645 C646 1.362 . S
C646 H638 0.930 . S
C646 C645 1.362 . S
C646 C649 1.409 . S
C647 H639 0.930 . S
C647 C648 1.355 . S
C647 C649 1.415 . S
C648 C647 1.355 . S
C648 C650 1.419 . S
C649 C644 1.425 . S
C649 C646 1.409 . S
C649 C647 1.415 . S
C650 H640 0.930 . S
C650 C648 1.419 . S
C650 C651 1.362 . S
C651 H641 0.930 . S
C651 C644 1.409 . S
C651 C650 1.362 . S
H652 C658 0.930 . S
H653 C661 0.930 . S
H654 C662 0.930 . S
H655 C663 0.930 . S
H656 C666 0.930 . S
H657 C667 0.930 . S
C658 H652 0.930 . S
C658 C659 1.355 . S
C658 C660 1.415 . S
C659 C658 1.355 . S
C659 C661 1.419 . S
C660 C658 1.415 . S
C660 C665 1.425 . S
C660 C667 1.409 . S
C661 H653 0.930 . S
C661 C659 1.419 . S
C661 C662 1.362 . S
C662 H654 0.930 . S
C662 C661 1.362 . S
C662 C665 1.409 . S
C663 H655 0.930 . S
C663 C664 1.355 . S
C663 C665 1.415 . S
C664 C663 1.355 . S
C664 C666 1.419 . S
C665 C660 1.425 . S
C665 C662 1.409 . S
C665 C663 1.415 . S
C666 H656 0.930 . S
C666 C664 1.419 . S
C666 C667 1.362 . S
C667 H657 0.930 . S
C667 C660 1.409 . S
C667 C666 1.362 . S
H668 C674 0.930 . S
H669 C677 0.930 . S
H670 C678 0.930 . S
H671 C679 0.930 . S
H672 C682 0.930 . S
H673 C683 0.930 . S
C674 H668 0.930 . S
C674 C675 1.355 . S
C674 C676 1.415 . S
C675 C674 1.355 . S
C675 C677 1.419 . S
C676 C674 1.415 . S
C676 C681 1.425 . S
C676 C683 1.409 . S
C677 H669 0.930 . S
C677 C675 1.419 . S
C677 C678 1.362 . S
C678 H670 0.930 . S
C678 C677 1.362 . S
C678 C681 1.409 . S
C679 H671 0.930 . S
C679 C680 1.355 . S
C679 C681 1.415 . S
C680 C679 1.355 . S
C680 C682 1.419 . S
C681 C676 1.425 . S
C681 C678 1.409 . S
C681 C679 1.415 . S
C682 H672 0.930 . S
C682 C680 1.419 . S
C682 C683 1.362 . S
C683 H673 0.930 . S
C683 C676 1.409 . S
C683 C682 1.362 . S
H684 C690 0.930 . S
H685 C693 0.930 . S
H686 C694 0.930 . S
H687 C695 0.930 . S
H688 C698 0.930 . S
H689 C699 0.930 . S
C690 H684 0.930 . S
C690 C691 1.355 . S
C690 C692 1.415 . S
C691 C690 1.355 . S
C691 C693 1.419 . S
C692 C690 1.415 . S
C692 C697 1.425 . S
C692 C699 1.409 . S
C693 H685 0.930 . S
C693 C691 1.419 . S
C693 C694 1.362 . S
C694 H686 0.930 . S
C694 C693 1.362 . S
C694 C697 1.409 . S
C695 H687 0.930 . S
C695 C696 1.355 . S
C695 C697 1.415 . S
C696 C695 1.355 . S
C696 C698 1.419 . S
C697 C692 1.425 . S
C697 C694 1.409 . S
C697 C695 1.415 . S
C698 H688 0.930 . S
C698 C696 1.419 . S
C698 C699 1.362 . S
C699 H689 0.930 . S
C699 C692 1.409 . S
C699 C698 1.362 . S
H700 C706 0.930 . S
H701 C709 0.930 . S
H702 C710 0.930 . S
H703 C711 0.930 . S
H704 C714 0.930 . S
H705 C715 0.930 . S
C706 H700 0.930 . S
C706 C707 1.355 . S
C706 C708 1.415 . S
C707 C706 1.355 . S
C707 C709 1.419 . S
C708 C706 1.415 . S
C708 C713 1.425 . S
C708 C715 1.409 . S
C709 H701 0.930 . S
C709 C707 1.419 . S
C709 C710 1.362 . S
C710 H702 0.930 . S
C710 C709 1.362 . S
C710 C713 1.409 . S
C711 H703 0.930 . S
C711 C712 1.355 . S
C711 C713 1.415 . S
C712 C711 1.355 . S
C712 C714 1.419 . S
C713 C708 1.425 . S
C713 C710 1.409 . S
C713 C711 1.415 . S
C714 H704 0.930 . S
C714 C712 1.419 . S
C714 C715 1.362 . S
C715 H705 0.930 . S
C715 C708 1.409 . S
C715 C714 1.362 . S
H716 C722 0.930 . S
H717 C725 0.930 . S
H718 C726 0.930 . S
H719 C727 0.930 . S
H720 C730 0.930 . S
H721 C731 0.930 . S
C722 H716 0.930 . S
C722 C723 1.355 . S
C722 C724 1.415 . S
C723 C722 1.355 . S
C723 C725 1.419 . S
C724 C722 1.415 . S
C724 C729 1.425 . S
C724 C731 1.409 . S
C725 H717 0.930 . S
C725 C723 1.419 . S
C725 C726 1.362 . S
C726 H718 0.930 . S
C726 C725 1.362 . S
C726 C729 1.409 . S
C727 H719 0.930 . S
C727 C728 1.355 . S
C727 C729 1.415 . S
C728 C727 1.355 . S
C728 C730 1.419 . S
C729 C724 1.425 . S
C729 C726 1.409 . S
C729 C727 1.415 . S
C730 H720 0.930 . S
C730 C728 1.419 . S
C730 C731 1.362 . S
C731 H721 0.930 . S
C731 C724 1.409 . S
C731 C730 1.362 . S
H732 C738 0.930 . S
H733 C741 0.930 . S
H734 C742 0.930 . S
H735 C743 0.930 . S
H736 C746 0.930 . S
H737 C747 0.930 . S
C738 H732 0.930 . S
C738 C739 1.355 . S
C738 C740 1.415 . S
C739 C738 1.355 . S
C739 C741 1.419 . S
C740 C738 1.415 . S
C740 C745 1.425 . S
C740 C747 1.409 . S
C741 H733 0.930 . S
C741 C739 1.419 . S
C741 C742 1.362 . S
C742 H734 0.930 . S
C742 C741 1.362 . S
C742 C745 1.409 . S
C743 H735 0.930 . S
C743 C744 1.355 . S
C743 C745 1.415 . S
C744 C743 1.355 . S
C744 C746 1.419 . S
C745 C740 1.425 . S
C745 C742 1.409 . S
C745 C743 1.415 . S
C746 H736 0.930 . S
C746 C744 1.419 . S
C746 C747 1.362 . S
C747 H737 0.930 . S
C747 C740 1.409 . S
C747 C746 1.362 . S
H748 C754 0.930 . S
H749 C757 0.930 . S
H750 C758 0.930 . S
H751 C759 0.930 . S
H752 C762 0.930 . S
H753 C763 0.930 . S
C754 H748 0.930 . S
C754 C755 1.355 . S
C754 C756 1.415 . S
C755 C754 1.355 . S
C755 C757 1.419 . S
C756 C754 1.415 . S
C756 C761 1.425 1_455 S
C756 C763 1.409 . S
C757 H749 0.930 . S
C757 C755 1.419 . S
C757 C758 1.362 1_455 S
C758 H750 0.930 . S
C758 C757 1.362 1_655 S
C758 C761 1.409 . S
C759 H751 0.930 . S
C759 C760 1.355 . S
C759 C761 1.415 . S
C760 C759 1.355 . S
C760 C762 1.419 . S
C761 C756 1.425 1_655 S
C761 C758 1.409 . S
C761 C759 1.415 . S
C762 H752 0.930 . S
C762 C760 1.419 . S
C762 C763 1.362 1_655 S
C763 H753 0.930 . S
C763 C756 1.409 . S
C763 C762 1.362 1_455 S
H764 C770 0.930 . S
H765 C773 0.930 . S
H766 C774 0.930 1_565 S
H767 C775 0.930 . S
H768 C778 0.930 . S
H769 C779 0.930 1_545 S
C770 H764 0.930 . S
C770 C771 1.355 . S
C770 C772 1.415 . S
C771 C770 1.355 . S
C771 C773 1.419 . S
C772 C770 1.415 . S
C772 C777 1.425 1_545 S
C772 C779 1.409 1_545 S
C773 H765 0.930 . S
C773 C771 1.419 . S
C773 C774 1.362 . S
C774 H766 0.930 1_545 S
C774 C773 1.362 . S
C774 C777 1.409 1_545 S
C775 H767 0.930 . S
C775 C776 1.355 . S
C775 C777 1.415 . S
C776 C775 1.355 . S
C776 C778 1.419 . S
C777 C772 1.425 1_565 S
C777 C774 1.409 1_565 S
C777 C775 1.415 . S
C778 H768 0.930 . S
C778 C776 1.419 . S
C778 C779 1.362 . S
C779 H769 0.930 1_565 S
C779 C772 1.409 1_565 S
C779 C778 1.362 . S
H780 C786 0.930 . S
H781 C789 0.930 . S
H782 C790 0.930 . S
H783 C791 0.930 . S
H784 C794 0.930 . S
H785 C795 0.930 . S
C786 H780 0.930 . S
C786 C787 1.355 . S
C786 C788 1.415 . S
C787 C786 1.355 . S
C787 C789 1.419 . S
C788 C786 1.415 . S
C788 C793 1.425 . S
C788 C795 1.409 . S
C789 H781 0.930 . S
C789 C787 1.419 . S
C789 C790 1.362 . S
C790 H782 0.930 . S
C790 C789 1.362 . S
C790 C793 1.409 . S
C791 H783 0.930 . S
C791 C792 1.355 . S
C791 C793 1.415 . S
C792 C791 1.355 . S
C792 C794 1.419 . S
C793 C788 1.425 . S
C793 C790 1.409 . S
C793 C791 1.415 . S
C794 H784 0.930 . S
C794 C792 1.419 . S
C794 C795 1.362 . S
C795 H785 0.930 . S
C795 C788 1.409 . S
C795 C794 1.362 . S
H796 C802 0.930 . S
H797 C805 0.930 . S
H798 C806 0.930 . S
H799 C807 0.930 . S
H800 C810 0.930 . S
H801 C811 0.930 . S
C802 H796 0.930 . S
C802 C803 1.355 . S
C802 C804 1.415 . S
C803 C802 1.355 . S
C803 C805 1.419 . S
C804 C802 1.415 . S
C804 C809 1.425 1_655 S
C804 C811 1.409 . S
C805 H797 0.930 . S
C805 C803 1.419 . S
C805 C806 1.362 1_655 S
C806 H798 0.930 . S
C806 C805 1.362 1_455 S
C806 C809 1.409 . S
C807 H799 0.930 . S
C807 C808 1.355 . S
C807 C809 1.415 . S
C808 C807 1.355 . S
C808 C810 1.419 . S
C809 C804 1.425 1_455 S
C809 C806 1.409 . S
C809 C807 1.415 . S
C810 H800 0.930 . S
C810 C808 1.419 . S
C810 C811 1.362 1_455 S
C811 H801 0.930 . S
C811 C804 1.409 . S
C811 C810 1.362 1_655 S
H812 C818 0.930 . S
H813 C821 0.930 . S
H814 C822 0.930 . S
H815 C823 0.930 . S
H816 C826 0.930 . S
H817 C827 0.930 . S
C818 H812 0.930 . S
C818 C819 1.355 . S
C818 C820 1.415 1_565 S
C819 C818 1.355 . S
C819 C821 1.419 . S
C820 C818 1.415 1_545 S
C820 C825 1.425 1_545 S
C820 C827 1.409 . S
C821 H813 0.930 . S
C821 C819 1.419 . S
C821 C822 1.362 . S
C822 H814 0.930 . S
C822 C821 1.362 . S
C822 C825 1.409 . S
C823 H815 0.930 . S
C823 C824 1.355 . S
C823 C825 1.415 1_545 S
C824 C823 1.355 . S
C824 C826 1.419 . S
C825 C820 1.425 1_565 S
C825 C822 1.409 . S
C825 C823 1.415 1_565 S
C826 H816 0.930 . S
C826 C824 1.419 . S
C826 C827 1.362 . S
C827 H817 0.930 . S
C827 C820 1.409 . S
C827 C826 1.362 . S
H828 C834 0.930 . S
H829 C837 0.930 . S
H830 C838 0.930 . S
H831 C839 0.930 . S
H832 C842 0.930 . S
H833 C843 0.930 . S
C834 H828 0.930 . S
C834 C835 1.355 . S
C834 C836 1.415 . S
C835 C834 1.355 . S
C835 C837 1.419 . S
C836 C834 1.415 . S
C836 C841 1.425 . S
C836 C843 1.409 . S
C837 H829 0.930 . S
C837 C835 1.419 . S
C837 C838 1.362 . S
C838 H830 0.930 . S
C838 C837 1.362 . S
C838 C841 1.409 . S
C839 H831 0.930 . S
C839 C840 1.355 . S
C839 C841 1.415 . S
C840 C839 1.355 . S
C840 C842 1.419 . S
C841 C836 1.425 . S
C841 C838 1.409 . S
C841 C839 1.415 . S
C842 H832 0.930 . S
C842 C840 1.419 . S
C842 C843 1.362 . S
C843 H833 0.930 . S
C843 C836 1.409 . S
C843 C842 1.362 . S
H844 C850 0.930 . S
H845 C853 0.930 . S
H846 C854 0.930 . S
H847 C855 0.930 . S
H848 C858 0.930 . S
H849 C859 0.930 . S
C850 H844 0.930 . S
C850 C851 1.355 . S
C850 C852 1.415 . S
C851 C850 1.355 . S
C851 C853 1.419 1_655 S
C852 C850 1.415 . S
C852 C857 1.425 1_655 S
C852 C859 1.409 . S
C853 H845 0.930 . S
C853 C851 1.419 1_455 S
C853 C854 1.362 . S
C854 H846 0.930 . S
C854 C853 1.362 . S
C854 C857 1.409 . S
C855 H847 0.930 . S
C855 C856 1.355 . S
C855 C857 1.415 . S
C856 C855 1.355 . S
C856 C858 1.419 1_455 S
C857 C852 1.425 1_455 S
C857 C854 1.409 . S
C857 C855 1.415 . S
C858 H848 0.930 . S
C858 C856 1.419 1_655 S
C858 C859 1.362 . S
C859 H849 0.930 . S
C859 C852 1.409 . S
C859 C858 1.362 . S
H860 C866 0.930 . S
H861 C869 0.930 . S
H862 C870 0.930 . S
H863 C871 0.930 . S
H864 C874 0.930 . S
H865 C875 0.930 . S
C866 H860 0.930 . S
C866 C867 1.355 . S
C866 C868 1.418 . S
C867 C866 1.355 . S
C867 C869 1.419 . S
C868 C866 1.418 . S
C868 C873 1.426 1_565 S
C868 C875 1.404 1_556 S
C869 H861 0.930 . S
C869 C867 1.419 . S
C869 C870 1.362 1_565 S
C870 H862 0.930 . S
C870 C869 1.362 1_545 S
C870 C873 1.409 . S
C871 H863 0.930 . S
C871 C872 1.355 . S
C871 C873 1.415 1_554 S
C872 C871 1.355 . S
C872 C874 1.419 . S
C873 C868 1.426 1_545 S
C873 C870 1.409 . S
C873 C871 1.415 1_556 S
C874 H864 0.930 . S
C874 C872 1.419 . S
C874 C875 1.362 1_545 S
C875 H865 0.930 . S
C875 C868 1.404 1_554 S
C875 C874 1.362 1_565 S
H876 C882 0.930 . S
H877 C885 0.930 . S
H878 C886 0.930 . S
H879 C887 0.930 . S
H880 C890 0.930 . S
H881 C891 0.930 . S
C882 H876 0.930 . S
C882 C883 1.355 . S
C882 C884 1.415 . S
C883 C882 1.355 . S
C883 C885 1.419 . S
C884 C882 1.415 . S
C884 C889 1.425 . S
C884 C891 1.409 . S
C885 H877 0.930 . S
C885 C883 1.419 . S
C885 C886 1.362 . S
C886 H878 0.930 . S
C886 C885 1.362 . S
C886 C889 1.409 . S
C887 H879 0.930 . S
C887 C888 1.355 . S
C887 C889 1.415 . S
C888 C887 1.355 . S
C888 C890 1.419 . S
C889 C884 1.425 . S
C889 C886 1.409 . S
C889 C887 1.415 . S
C890 H880 0.930 . S
C890 C888 1.419 . S
C890 C891 1.362 . S
C891 H881 0.930 . S
C891 C884 1.409 . S
C891 C890 1.362 . S
H892 C898 0.930 . S
H893 C901 0.930 . S
H894 C902 0.930 . S
H895 C903 0.930 . S
H896 C906 0.930 . S
H897 C907 0.930 . S
C898 H892 0.930 . S
C898 C899 1.355 . S
C898 C900 1.415 . S
C899 C898 1.355 . S
C899 C901 1.419 1_455 S
C900 C898 1.415 . S
C900 C905 1.425 1_455 S
C900 C907 1.409 . S
C901 H893 0.930 . S
C901 C899 1.419 1_655 S
C901 C902 1.362 . S
C902 H894 0.930 . S
C902 C901 1.362 . S
C902 C905 1.409 . S
C903 H895 0.930 . S
C903 C904 1.355 . S
C903 C905 1.415 . S
C904 C903 1.355 . S
C904 C906 1.419 1_655 S
C905 C900 1.425 1_655 S
C905 C902 1.409 . S
C905 C903 1.415 . S
C906 H896 0.930 . S
C906 C904 1.419 1_455 S
C906 C907 1.362 . S
C907 H897 0.930 . S
C907 C900 1.409 . S
C907 C906 1.362 . S
H908 C914 0.930 . S
H909 C917 0.930 . S
H910 C918 0.930 1_545 S
H911 C919 0.930 . S
H912 C922 0.930 . S
H913 C923 0.930 1_565 S
C914 H908 0.930 . S
C914 C915 1.355 . S
C914 C916 1.415 1_554 S
C915 C914 1.355 . S
C915 C917 1.419 . S
C916 C914 1.415 1_556 S
C916 C921 1.425 1_565 S
C916 C923 1.409 1_565 S
C917 H909 0.930 . S
C917 C915 1.419 . S
C917 C918 1.362 . S
C918 H910 0.930 1_565 S
C918 C917 1.362 . S
C918 C921 1.409 1_564 S
C919 H911 0.930 . S
C919 C920 1.355 . S
C919 C921 1.415 . S
C920 C919 1.355 . S
C920 C922 1.419 . S
C921 C916 1.425 1_545 S
C921 C918 1.409 1_546 S
C921 C919 1.415 . S
C922 H912 0.930 . S
C922 C920 1.419 . S
C922 C923 1.362 . S
C923 H913 0.930 1_545 S
C923 C916 1.409 1_545 S
C923 C922 1.362 . S
H924 C930 0.930 . S
H925 C933 0.930 . S
H926 C934 0.930 . S
H927 C935 0.930 . S
H928 C938 0.930 . S
H929 C939 0.930 1_655 S
C930 H924 0.930 . S
C930 C931 1.355 . S
C930 C932 1.415 1_655 S
C931 C930 1.355 . S
C931 C933 1.419 1_655 S
C932 C930 1.415 1_455 S
C932 C937 1.425 . S
C932 C939 1.409 . S
C933 H925 0.930 . S
C933 C931 1.419 1_455 S
C933 C934 1.362 . S
C934 H926 0.930 . S
C934 C933 1.362 . S
C934 C937 1.409 . S
C935 H927 0.930 . S
C935 C936 1.355 . S
C935 C937 1.415 . S
C936 C935 1.355 . S
C936 C938 1.419 . S
C937 C932 1.425 . S
C937 C934 1.409 . S
C937 C935 1.415 . S
C938 H928 0.930 . S
C938 C936 1.419 . S
C938 C939 1.362 . S
C939 H929 0.930 1_455 S
C939 C932 1.409 . S
C939 C938 1.362 . S
H940 C946 0.930 . S
H941 C949 0.930 . S
H942 C950 0.930 . S
H943 C951 0.930 . S
H944 C954 0.930 . S
H945 C955 0.930 . S
C946 H940 0.930 . S
C946 C947 1.355 . S
C946 C948 1.415 . S
C947 C946 1.355 . S
C947 C949 1.419 . S
C948 C946 1.415 . S
C948 C953 1.425 1_545 S
C948 C955 1.409 . S
C949 H941 0.930 . S
C949 C947 1.419 . S
C949 C950 1.362 1_545 S
C950 H942 0.930 . S
C950 C949 1.362 1_565 S
C950 C953 1.409 . S
C951 H943 0.930 . S
C951 C952 1.355 . S
C951 C953 1.415 . S
C952 C951 1.355 . S
C952 C954 1.419 . S
C953 C948 1.425 1_565 S
C953 C950 1.409 . S
C953 C951 1.415 . S
C954 H944 0.930 . S
C954 C952 1.419 . S
C954 C955 1.362 1_565 S
C955 H945 0.930 . S
C955 C948 1.409 . S
C955 C954 1.362 1_545 S
H956 C962 0.930 . S
H957 C965 0.930 . S
H958 C966 0.930 . S
H959 C967 0.930 . S
H960 C970 0.930 . S
H961 C971 0.930 . S
C962 H956 0.930 . S
C962 C963 1.355 . S
C962 C964 1.415 . S
C963 C962 1.355 . S
C963 C965 1.419 . S
C964 C962 1.415 . S
C964 C969 1.425 . S
C964 C971 1.409 . S
C965 H957 0.930 . S
C965 C963 1.419 . S
C965 C966 1.362 . S
C966 H958 0.930 . S
C966 C965 1.362 . S
C966 C969 1.409 . S
C967 H959 0.930 . S
C967 C968 1.355 . S
C967 C969 1.415 . S
C968 C967 1.355 . S
C968 C970 1.419 . S
C969 C964 1.425 . S
C969 C966 1.409 . S
C969 C967 1.415 . S
C970 H960 0.930 . S
C970 C968 1.419 . S
C970 C971 1.362 . S
C971 H961 0.930 . S
C971 C964 1.409 . S
C971 C970 1.362 . S
H972 C978 0.930 . S
H973 C981 0.930 . S
H974 C982 0.946 . S
H975 C983 0.930 . S
H976 C986 0.930 . S
H977 C987 0.930 . S
C978 H972 0.930 . S
C978 C979 1.355 . S
C978 C980 1.415 . S
C979 C978 1.355 . S
C979 C981 1.419 . S
C980 C978 1.415 . S
C980 C985 1.425 . S
C980 C987 1.409 . S
C981 H973 0.930 . S
C981 C979 1.419 . S
C981 C982 1.362 . S
C982 H974 0.946 . S
C982 C981 1.362 . S
C982 C985 1.409 . S
C983 H975 0.930 . S
C983 C984 1.355 . S
C983 C985 1.415 1_455 S
C984 C983 1.355 . S
C984 C986 1.419 1_455 S
C985 C980 1.425 . S
C985 C982 1.409 . S
C985 C983 1.415 1_655 S
C986 H976 0.930 . S
C986 C984 1.419 1_655 S
C986 C987 1.362 . S
C987 H977 0.930 . S
C987 C980 1.409 . S
C987 C986 1.362 . S
H988 C994 0.930 . S
H989 C997 0.930 . S
H990 C998 0.930 . S
H991 C999 0.930 . S
H992 C1002 0.930 . S
H993 C1003 0.930 . S
C994 H988 0.930 . S
C994 C995 1.355 . S
C994 C996 1.415 1_565 S
C995 C994 1.355 . S
C995 C997 1.419 . S
C996 C994 1.415 1_545 S
C996 C1001 1.425 1_545 S
C996 C1003 1.409 . S
C997 H989 0.930 . S
C997 C995 1.419 . S
C997 C998 1.362 . S
C998 H990 0.930 . S
C998 C997 1.362 . S
C998 C1001 1.409 . S
C999 H991 0.930 . S
C999 C1000 1.355 . S
C999 C1001 1.415 1_545 S
C1000 C999 1.355 . S
C1000 C1002 1.419 . S
C1001 C996 1.425 1_565 S
C1001 C998 1.409 . S
C1001 C999 1.415 1_565 S
C1002 H992 0.930 . S
C1002 C1000 1.419 . S
C1002 C1003 1.362 . S
C1003 H993 0.930 . S
C1003 C996 1.409 . S
C1003 C1002 1.362 . S
H1004 C1010 0.930 . S
H1005 C1013 0.930 . S
H1006 C1014 0.930 . S
H1007 C1015 0.930 . S
H1008 C1018 0.930 . S
H1009 C1019 0.930 . S
C1010 H1004 0.930 . S
C1010 C1011 1.355 . S
C1010 C1012 1.415 . S
C1011 C1010 1.355 . S
C1011 C1013 1.419 . S
C1012 C1010 1.415 . S
C1012 C1017 1.425 . S
C1012 C1019 1.409 . S
C1013 H1005 0.930 . S
C1013 C1011 1.419 . S
C1013 C1014 1.362 . S
C1014 H1006 0.930 . S
C1014 C1013 1.362 . S
C1014 C1017 1.409 . S
C1015 H1007 0.930 . S
C1015 C1016 1.355 . S
C1015 C1017 1.415 . S
C1016 C1015 1.355 . S
C1016 C1018 1.419 . S
C1017 C1012 1.425 . S
C1017 C1014 1.409 . S
C1017 C1015 1.415 . S
C1018 H1008 0.930 . S
C1018 C1016 1.419 . S
C1018 C1019 1.362 . S
C1019 H1009 0.930 . S
C1019 C1012 1.409 . S
C1019 C1018 1.362 . S
C643 C463 1.907 . S
C648 C22 1.885 . S
C659 C75 2.066 . S
C664 C499 2.082 . S
C675 C145 1.903 . S
C680 C552 1.916 . S
C691 C181 1.900 . S
C696 C622 1.918 . S
C707 C340 2.046 . S
C712 C234 2.031 . S
C723 C304 1.878 . S
C728 C393 1.896 . S
C739 C197 2.179 . S
C744 C38 2.174 . S
C755 C250 2.118 . S
C760 C91 2.119 . S
C771 C294 1.300 . S
C776 C135 1.337 . S
C787 C356 2.127 . S
C792 C515 2.122 . S
C803 C409 2.171 . S
C808 C568 2.186 . S
C819 C453 1.315 . S
C824 C612 1.340 . S
C835 C29 1.965 . S
C840 C506 1.923 . S
C851 C82 1.966 . S
C856 C559 1.987 . S
C867 C144 1.517 . S
C872 C621 1.544 . S
C883 C347 1.953 . S
C888 C188 1.985 . S
C899 C241 1.971 . S
C904 C400 1.973 . S
C915 C462 1.545 . S
C920 C303 1.518 . S
C931 C605 1.793 . S
C936 C39 1.791 . S
C947 C92 2.164 . S
C952 C357 2.166 . S
C963 C410 1.734 . S
C968 C128 1.737 . S
C979 C198 1.786 . S
C984 C446 1.775 . S
C995 C251 2.129 . S
C1000 C516 2.124 . S
C1011 C569 1.775 . S
C1016 C287 1.782 . S
