# Generated by pormake.
# Topology snp, (6)-cn, num edge types: 1
# Building blocks:
#     Node 0, Type 0, BuildingBlock: BETGAK_clean_sbu_0, # of connection points: 6
#     Node 1, Type 0, BuildingBlock: BETGAK_clean_sbu_0, # of connection points: 6
#     Node 2, Type 0, BuildingBlock: BETGAK_clean_sbu_0, # of connection points: 6
#     Node 3, Type 0, BuildingBlock: BETGAK_clean_sbu_0, # of connection points: 6
#     Edge 4, Type (0, 0), BuildingBlock: TEMPAE_clean_linker_10, # of connection points: 2
#     Edge 5, Type (0, 0), BuildingBlock: TEMPAE_clean_linker_10, # of connection points: 2
#     Edge 6, Type (0, 0), BuildingBlock: TEMPAE_clean_linker_10, # of connection points: 2
#     Edge 7, Type (0, 0), BuildingBlock: TEMPAE_clean_linker_10, # of connection points: 2
#     Edge 8, Type (0, 0), BuildingBlock: TEMPAE_clean_linker_10, # of connection points: 2
#     Edge 9, Type (0, 0), BuildingBlock: TEMPAE_clean_linker_10, # of connection points: 2
#     Edge 10, Type (0, 0), BuildingBlock: TEMPAE_clean_linker_10, # of connection points: 2
#     Edge 11, Type (0, 0), BuildingBlock: TEMPAE_clean_linker_10, # of connection points: 2
#     Edge 12, Type (0, 0), BuildingBlock: TEMPAE_clean_linker_10, # of connection points: 2
#     Edge 13, Type (0, 0), BuildingBlock: TEMPAE_clean_linker_10, # of connection points: 2
#     Edge 14, Type (0, 0), BuildingBlock: TEMPAE_clean_linker_10, # of connection points: 2
#     Edge 15, Type (0, 0), BuildingBlock: TEMPAE_clean_linker_10, # of connection points: 2
# Relax obj value: 0.736
# Max RMSD: 0.176
# Mean RMSD: 0.176
data_MOF--net-snp--node1-BETGAK_clean_sbu_0--edge1-TEMPAE_clean_linker_10
_symmetry_space_group_name_H-M    P1
_symmetry_Int_Tables_number       1
_symmetry_cell_setting            triclinic
loop_
_symmetry_equiv_pos_as_xyz
'x, y, z'
_cell_length_a     26.22261
_cell_length_b     25.95295
_cell_length_c     26.640098
_cell_angle_alpha  90.483065
_cell_angle_beta   90.261266
_cell_angle_gamma 90.04766
loop_
_atom_site_label
_atom_site_type_symbol
_atom_site_fract_x
_atom_site_fract_y
_atom_site_fract_z
_atom_type_partial_charge
La0 La 0.30625 0.11974 1.22451 0.0
La1 La 0.25376 0.02715 1.18844 0.0
C2 C 0.34385 0.20776 0.24023 0.0
C3 C 0.38205 0.2346 0.27132 0.0
C4 C 0.4096 0.27557 0.25072 0.0
C5 C 0.43697 0.30937 0.2819 0.0
C6 C 0.43601 0.30343 0.33439 0.0
C7 C 0.414 0.25787 0.35366 0.0
C8 C 0.38718 0.22397 0.32243 0.0
C9 C 0.36737 0.04134 1.20739 0.0
C10 C 0.27867 0.03626 0.30711 0.0
C11 C 0.23308 0.9349 1.16753 0.0
C12 C 0.24642 0.88329 1.18642 0.0
C13 C 0.20753 0.85005 1.20214 0.0
C14 C 0.21721 0.79746 1.20798 0.0
C15 C 0.2656 0.77715 1.19652 0.0
C16 C 0.30604 0.81188 1.1884 0.0
C17 C 0.29649 0.86446 1.18317 0.0
C18 C 0.19385 0.1028 1.21862 0.0
C19 C 0.24657 0.11962 1.11517 0.0
O20 O 0.36108 0.1756 1.20637 0.0
O21 O 0.30308 0.19037 0.26291 0.0
O22 O 0.37089 0.07287 0.24496 0.0
O23 O 0.33062 0.05489 1.17927 0.0
O24 O 0.28893 0.08627 0.29987 0.0
O25 O 0.27227 0.00546 0.2673 0.0
O26 O 0.26931 0.96117 1.14557 0.0
O27 O 0.2046 0.96375 1.19646 0.0
O28 O 0.18159 0.07014 1.18335 0.0
O29 O 0.23491 0.08857 1.23705 0.0
O30 O 0.24366 0.06879 1.11793 0.0
O31 O 0.26654 0.14636 1.15365 0.0
H32 H 0.40708 0.28354 1.21092 0.0
H33 H 0.45513 0.34244 0.26511 0.0
H34 H 0.41219 0.25068 0.39353 0.0
H35 H 0.36718 0.19177 0.33894 0.0
H36 H 0.16879 0.86394 1.20608 0.0
H37 H 0.18551 0.77205 1.21587 0.0
H38 H 0.34403 0.79816 1.17984 0.0
H39 H 0.32766 0.88943 1.17247 0.0
La40 La 0.94021 0.30497 0.7544 0.0
La41 La 0.0368 0.29148 0.69877 0.0
C42 C 0.86031 0.30373 0.80617 0.0
C43 C 0.80505 0.29841 0.79656 0.0
C44 C 0.78409 0.2519 0.77863 0.0
C45 C 0.73138 0.24428 0.77908 0.0
C46 C 0.69873 0.28294 0.79761 0.0
C47 C 0.71946 0.33149 0.80976 0.0
C48 C 0.77222 0.33897 0.80971 0.0
C49 C 0.97492 0.38905 0.71131 0.0
C50 C 0.04735 0.28503 0.81658 0.0
C51 C 0.11579 0.30938 0.64908 0.0
C52 C 0.13766 0.33607 0.6057 0.0
C53 C 0.16064 0.30631 0.56814 0.0
C54 C 0.19249 0.32923 0.53323 0.0
C55 C 0.20209 0.38264 0.53497 0.0
C56 C 0.17651 0.41304 0.57069 0.0
C57 C 0.14448 0.38994 0.60584 0.0
C58 C -0.00219 0.20691 0.73553 0.0
C59 C 0.93273 0.27611 0.63722 0.0
O60 O 0.8889 0.26312 0.79831 0.0
O61 O 0.88176 0.34607 0.79052 0.0
O62 O 0.92754 0.37543 0.71252 0.0
O63 O 0.00126 0.35605 0.73453 0.0
O64 O -0.003 0.29415 0.8179 0.0
O65 O 0.07166 0.28532 0.77321 0.0
O66 O 0.08684 0.26882 0.64107 0.0
O67 O 0.10004 0.33809 0.68654 0.0
O68 O 0.04634 0.2142 0.72961 0.0
O69 O 0.97418 0.24368 0.71735 0.0
O70 O 0.98127 0.29142 0.63498 0.0
O71 O 0.90993 0.27319 0.68195 0.0
H72 H 0.80837 0.22014 0.76738 0.0
H73 H 0.71685 0.20627 0.7698 0.0
H74 H 0.69523 0.36215 0.82373 0.0
H75 H 0.78746 0.37546 0.82298 0.0
H76 H 0.15673 0.26472 0.56775 0.0
H77 H 0.21229 0.30429 0.507 0.0
H78 H 0.1828 0.45426 0.57271 0.0
H79 H 0.12741 0.41396 0.63464 0.0
La80 La 0.83172 0.96405 0.25775 0.0
La81 La 0.79764 0.05964 1.20683 0.0
C82 C 0.85999 0.88796 0.30866 0.0
C83 C 0.8299 0.8499 0.3361 0.0
C84 C 0.77881 0.86033 0.34797 0.0
C85 C 0.75214 0.82776 0.37997 0.0
C86 C 0.77607 0.78408 0.39988 0.0
C87 C 0.8255 0.77113 0.38406 0.0
C88 C 0.8524 0.80405 0.3524 0.0
C89 C 0.73444 0.96652 1.22668 0.0
C90 C 0.81432 0.06674 0.32564 0.0
C91 C 0.73741 0.11702 1.15935 0.0
C92 C 0.6982 0.10925 1.12076 0.0
C93 C 0.66309 0.14863 1.11163 0.0
C94 C 0.62743 0.14348 1.07293 0.0
C95 C 0.62662 0.09887 1.04258 0.0
C96 C 0.65912 0.05764 1.05469 0.0
C97 C 0.69464 0.06274 1.09373 0.0
C98 C 0.88891 0.06859 0.2417 0.0
C99 C 0.85817 0.97039 1.14376 0.0
O100 O 0.85442 0.88652 0.26 0.0
O101 O 0.85815 0.93511 0.3264 0.0
O102 O 0.76239 0.92595 1.22576 0.0
O103 O 0.7602 0.00133 0.24671 0.0
O104 O 0.83306 0.01907 0.32229 0.0
O105 O 0.79356 0.08921 0.28553 0.0
O106 O 0.78497 0.10946 1.14613 0.0
O107 O 0.72687 0.09611 1.20238 0.0
O108 O 0.85948 0.10777 1.23234 0.0
O109 O 0.86997 0.02739 1.22401 0.0
O110 O 0.82261 0.00766 1.14238 0.0
O111 O 0.87419 0.9535 1.18786 0.0
H112 H 0.76062 0.89529 0.33499 0.0
H113 H 0.71448 0.83896 0.39258 0.0
H114 H 0.84502 0.73826 0.39998 0.0
H115 H 0.8916 0.7952 0.34299 0.0
H116 H 0.66461 0.18425 1.1331 0.0
H117 H 0.60342 0.17618 1.0642 0.0
H118 H 0.65919 0.02284 1.03195 0.0
H119 H 0.72058 0.03131 1.10152 0.0
La120 La 0.15178 0.82944 0.75394 0.0
La121 La 0.05526 0.86588 0.7144 0.0
C122 C 0.24201 0.8063 0.77815 0.0
C123 C 0.2653 0.76971 0.81305 0.0
C124 C 0.3171 0.77417 0.82529 0.0
C125 C 0.33809 0.74381 0.8632 0.0
C126 C 0.3074 0.70871 0.8894 0.0
C127 C 0.2565 0.7015 0.87412 0.0
C128 C 0.23554 0.73197 0.83636 0.0
C129 C 0.08652 0.75509 0.73404 0.0
C130 C 0.05985 0.84087 0.83131 0.0
C131 C 0.96194 0.86942 0.69327 0.0
C132 C 0.92023 0.83529 0.70879 0.0
C133 C 0.86953 0.84991 0.7012 0.0
C134 C 0.8308 0.81297 0.70343 0.0
C135 C 0.8428 0.7606 0.71113 0.0
C136 C 0.89247 0.74816 0.72705 0.0
C137 C 0.93101 0.78529 0.72562 0.0
C138 C 0.11761 0.94002 0.74964 0.0
C139 C 0.1452 0.88196 0.64154 0.0
O140 O 0.21746 0.78569 0.74021 0.0
O141 O 0.2165 0.84431 0.79865 0.0
O142 O 0.11617 0.75695 0.77273 0.0
O143 O 0.09461 0.79373 0.70653 0.0
O144 O 0.11077 0.84204 0.82716 0.0
O145 O 0.03222 0.83874 0.7896 0.0
O146 O -0.00392 0.84751 0.66442 0.0
O147 O 0.98283 0.89755 0.72866 0.0
O148 O 0.08655 0.94479 0.71177 0.0
O149 O 0.10984 0.89597 0.76587 0.0
O150 O 0.09509 0.87806 0.64407 0.0
O151 O 0.17369 0.86932 0.68151 0.0
H152 H 0.34068 0.80282 0.80725 0.0
H153 H 0.37738 0.7502 0.8744 0.0
H154 H 0.2317 0.67545 0.89419 0.0
H155 H 0.1955 0.72781 0.82719 0.0
H156 H 0.86035 0.88869 0.68945 0.0
H157 H 0.79278 0.82448 0.69226 0.0
H158 H 0.9028 0.70853 0.73453 0.0
H159 H 0.96991 0.7737 0.73313 0.0
C160 C 0.97122 0.03739 0.27548 0.0
C161 C 0.9309 0.07221 0.27737 0.0
C162 C 0.01802 0.05119 0.29708 0.0
C163 C 0.02306 0.1009 0.31937 0.0
C164 C 0.97926 0.12843 0.33285 0.0
C165 C 0.93341 0.11506 0.3097 0.0
C166 C 0.06368 0.01731 0.28732 0.0
C167 C 0.98217 0.17669 0.36426 0.0
C168 C 0.15887 0.12366 0.30179 0.0
C169 C 0.15616 0.12861 0.24937 0.0
C170 C 0.11422 0.12422 0.32994 0.0
C171 C 0.06775 0.13113 0.30435 0.0
C172 C 0.06763 0.15081 0.25464 0.0
C173 C 0.11224 0.14732 1.22681 0.0
C174 C 0.11653 0.10953 0.38454 0.0
C175 C 0.01944 0.16679 1.22781 0.0
H176 H 0.96813 0.00282 0.25249 0.0
H177 H 0.9011 0.1408 0.31344 0.0
H178 H 0.08499 0.03206 0.25451 0.0
H179 H 0.08973 0.01744 0.32019 0.0
H180 H 0.05213 0.97693 0.27896 0.0
H181 H 0.96336 0.16863 0.40044 0.0
H182 H 0.02185 0.18912 0.37246 0.0
H183 H 0.96116 0.20856 0.34583 0.0
H184 H 0.19404 0.11213 0.31987 0.0
H185 H 0.11145 0.15389 1.18663 0.0
H186 H 0.08013 0.11752 0.40422 0.0
H187 H 0.14786 0.13091 0.40371 0.0
H188 H 0.1255 0.06789 0.38769 0.0
H189 H -0.00204 0.13204 1.21557 0.0
H190 H 0.02794 0.18975 1.19383 0.0
H191 H -0.00507 0.19034 0.25283 0.0
C192 C 0.13053 0.03221 0.76916 0.0
C193 C 0.12259 0.98233 0.78607 0.0
C194 C 0.10443 0.0728 0.79235 0.0
C195 C 0.06493 0.06056 0.82661 0.0
C196 C 0.06671 0.01315 0.85147 0.0
C197 C 0.09969 0.9754 0.83311 0.0
C198 C 0.11115 0.12606 0.77188 0.0
C199 C 0.02774 -0.00184 0.88985 0.0
C200 C 0.98104 0.17073 0.81793 0.0
C201 C 0.97575 0.1664 0.76581 0.0
C202 C 0.00229 0.13001 0.84464 0.0
C203 C 0.01495 0.08505 0.81788 0.0
C204 C 0.99122 0.07549 0.77078 0.0
C205 C 0.97328 0.11764 0.74386 0.0
C206 C 0.02012 0.13907 0.89752 0.0
C207 C -0.00506 0.02424 0.74432 0.0
H208 H 0.15146 0.03869 0.73476 0.0
H209 H 0.09811 0.93764 0.84945 0.0
H210 H 0.09191 0.12809 0.73479 0.0
H211 H 0.09541 0.15576 0.79767 0.0
H212 H 0.15226 0.13418 0.76583 0.0
H213 H 0.04645 0.99621 0.92719 0.0
H214 H -0.0046 0.02531 0.89198 0.0
H215 H 0.01173 0.95977 0.88045 0.0
H216 H 0.97679 0.20745 0.83642 0.0
H217 H 0.96568 0.11363 0.70394 0.0
H218 H 0.01942 0.10334 0.91981 0.0
H219 H -0.00364 0.16857 0.91672 0.0
H220 H 0.05994 0.1529 0.89606 0.0
H221 H 0.02706 0.02542 0.71741 0.0
H222 H 0.95963 0.01652 0.72232 0.0
H223 H 0.00099 0.99238 0.77119 0.0
C224 C 0.65453 0.93346 1.18419 0.0
C225 C 0.67924 0.97031 1.21449 0.0
C226 C 0.6019 0.93756 1.1733 0.0
C227 C 0.57345 0.97932 1.19342 0.0
C228 C 0.59873 0.01693 1.22335 0.0
C229 C 0.65095 0.01169 1.23377 0.0
C230 C 0.57658 0.89694 1.14094 0.0
C231 C 0.57034 0.06226 0.2456 0.0
C232 C 0.44293 0.02769 1.1521 0.0
C233 C 0.41285 0.01159 1.1924 0.0
C234 C 0.49478 0.01346 1.14902 0.0
C235 C 0.5167 0.98247 1.18712 0.0
C236 C 0.48479 0.96201 1.22486 0.0
C237 C 0.43346 0.97721 1.22724 0.0
C238 C 0.52709 0.0361 1.10802 0.0
C239 C 0.506 0.92853 0.26604 0.0
H240 H 0.67628 0.90145 1.16908 0.0
H241 H 0.6695 0.03969 0.25812 0.0
H242 H 0.54784 0.87583 1.16326 0.0
H243 H 0.55603 0.91528 1.10928 0.0
H244 H 0.6044 0.86875 1.12555 0.0
H245 H 0.59605 0.08939 0.26598 0.0
H246 H 0.55032 0.08373 1.21556 0.0
H247 H 0.541 0.04835 0.27214 0.0
H248 H 0.42741 0.05521 1.12573 0.0
H249 H 0.41037 0.96536 0.25881 0.0
H250 H 0.55567 0.00786 1.09434 0.0
H251 H 0.54811 0.06997 1.1232 0.0
H252 H 0.50347 0.04902 1.07578 0.0
H253 H 0.53174 0.89864 0.25037 0.0
H254 H 0.4753 0.90926 0.28754 0.0
H255 H 0.52872 0.95268 0.29247 0.0
C256 C 0.95466 0.47905 0.68523 0.0
C257 C 0.99096 0.44278 0.70104 0.0
C258 C 0.96684 0.53169 0.68202 0.0
C259 C 0.0167 0.54849 0.69449 0.0
C260 C 0.05441 0.51151 0.70707 0.0
C261 C 0.041 0.45914 0.71054 0.0
C262 C 0.92542 0.5696 0.66848 0.0
C263 C 0.10829 0.52759 0.71981 0.0
C264 C 0.0627 0.68613 0.67134 0.0
C265 C 0.05986 0.707 0.71991 0.0
C266 C 0.04709 0.63491 0.66169 0.0
C267 C 0.02767 0.60463 0.70143 0.0
C268 C 0.02146 0.62725 0.74957 0.0
C269 C 0.03812 0.67785 0.75825 0.0
C270 C 0.05422 0.6123 0.60986 0.0
C271 C -0.00035 0.59715 0.79277 0.0
H272 H 0.91592 0.46664 0.6774 0.0
H273 H 0.06925 0.43138 0.72259 0.0
H274 H 0.91371 0.59124 0.70263 0.0
H275 H 0.9396 0.59815 0.64112 0.0
H276 H 0.89123 0.55017 0.65239 0.0
H277 H 0.13447 0.49406 0.72223 0.0
H278 H 0.12305 0.55458 0.69124 0.0
H279 H 0.10868 0.54816 0.75651 0.0
H280 H 0.08002 0.70855 0.64179 0.0
H281 H 0.03578 0.69421 0.79578 0.0
H282 H 0.0193 0.59164 0.59736 0.0
H283 H 0.08568 0.58375 0.61072 0.0
H284 H 0.06366 0.64227 0.58184 0.0
H285 H 0.96267 0.5795 0.78178 0.0
H286 H -0.00637 0.62161 0.82665 0.0
H287 H 0.026 0.56537 0.80277 0.0
C288 C 0.25012 0.38401 0.45491 0.0
C289 C 0.24315 0.40413 0.50318 0.0
C290 C 0.29675 0.38909 0.43039 0.0
C291 C 0.3366 0.41827 0.45344 0.0
C292 C 0.3266 0.44574 0.49847 0.0
C293 C 0.28023 0.43749 0.52349 0.0
C294 C 0.30436 0.35826 0.38253 0.0
C295 C 0.36529 0.48139 0.52237 0.0
C296 C 0.44792 0.34045 0.42063 0.0
C297 C 0.44383 0.34878 0.36875 0.0
C298 C 0.41872 0.37028 0.45388 0.0
C299 C 0.38948 0.41146 0.43445 0.0
C300 C 0.40148 0.43041 0.38649 0.0
C301 C 0.42777 0.39797 0.35307 0.0
C302 C 0.41217 0.35212 0.50709 0.0
C303 C 0.37838 0.47976 0.36767 0.0
H304 H 0.22047 0.36021 0.43818 0.0
H305 H 0.2748 0.45437 0.56042 0.0
H306 H 0.31477 0.38394 0.35123 0.0
H307 H 0.33554 0.33003 0.38786 0.0
H308 H 0.26964 0.33655 0.371 0.0
H309 H 0.34691 0.51881 0.53155 0.0
H310 H 0.37862 0.46487 0.55842 0.0
H311 H 0.39865 0.48874 0.49797 0.0
H312 H 0.46581 0.30553 0.43408 0.0
H313 H 0.42818 0.40821 0.31379 0.0
H314 H 0.37294 0.33696 0.51223 0.0
H315 H 0.41764 0.3848 0.5336 0.0
H316 H 0.43972 0.32126 0.51692 0.0
H317 H 0.34156 0.47141 0.3486 0.0
H318 H 0.40393 0.49825 0.33997 0.0
H319 H 0.3711 0.50704 0.39918 0.0
C320 C 0.63904 0.27801 0.8687 0.0
C321 C 0.64845 0.26747 0.81794 0.0
C322 C 0.60836 0.24521 0.8969 0.0
C323 C 0.58548 0.20182 0.87303 0.0
C324 C 0.58478 0.19904 0.81997 0.0
C325 C 0.61765 0.23117 0.79279 0.0
C326 C 0.60795 0.25249 0.95329 0.0
C327 C 0.55436 0.15854 0.7922 0.0
C328 C 0.63435 0.09544 0.95063 0.0
C329 C 0.60268 0.10203 0.99229 0.0
C330 C 0.62445 0.12176 0.9061 0.0
C331 C 0.58079 0.15399 0.90311 0.0
C332 C 0.5429 0.15029 0.94057 0.0
C333 C 0.55488 0.1254 0.98576 0.0
C334 C 0.66525 0.12157 0.86616 0.0
C335 C 0.49239 0.17748 0.93584 0.0
H336 H 0.66144 0.30705 0.88827 0.0
H337 H 0.62282 0.22446 0.75291 0.0
H338 H 0.56828 0.25234 0.9673 0.0
H339 H 0.62891 0.22052 0.97153 0.0
H340 H 0.62599 0.28937 0.96528 0.0
H341 H 0.53187 0.17704 0.76188 0.0
H342 H 0.58046 0.13067 0.77375 0.0
H343 H 0.52789 0.13752 0.8172 0.0
H344 H 0.67075 0.07616 0.95506 0.0
H345 H 0.52913 0.12868 1.01736 0.0
H346 H 0.68337 0.16017 0.86408 0.0
H347 H 0.64828 0.11244 0.82902 0.0
H348 H 0.69565 0.09282 0.87372 0.0
H349 H 0.48962 0.20856 0.96456 0.0
H350 H 0.46111 0.14983 0.94356 0.0
H351 H 0.4864 0.194 0.89796 0.0
C352 C 0.75789 0.72692 0.68162 0.0
C353 C 0.81105 0.72099 0.68496 0.0
C354 C 0.73226 0.71435 0.63665 0.0
C355 C 0.76132 0.6987 0.59464 0.0
C356 C 0.8112 0.67961 0.60275 0.0
C357 C 0.83538 0.6902 0.64865 0.0
C358 C 0.6764 0.72662 0.63137 0.0
C359 C 0.84232 0.65695 0.56047 0.0
C360 C 0.74312 0.71223 0.45389 0.0
C361 C 0.75815 0.76358 0.44797 0.0
C362 C 0.73729 0.69152 0.50226 0.0
C363 C 0.75017 0.72215 0.5449 0.0
C364 C 0.76248 0.7751 0.53826 0.0
C365 C 0.76478 0.79515 0.49001 0.0
C366 C 0.71964 0.63648 0.50671 0.0
C367 C 0.7791 0.80989 0.5811 0.0
H368 H 0.7378 0.74779 0.71088 0.0
H369 H 0.87585 0.68242 0.65186 0.0
H370 H 0.67152 0.76793 0.62218 0.0
H371 H 0.65864 0.7032 0.60087 0.0
H372 H 0.65616 0.71938 0.66717 0.0
H373 H 0.87971 0.64204 0.57366 0.0
H374 H 0.82114 0.62477 0.54241 0.0
H375 H 0.84943 0.68667 0.53158 0.0
H376 H 0.73747 0.68799 0.42099 0.0
H377 H 0.77666 0.83483 0.48488 0.0
H378 H 0.71357 0.62456 0.54613 0.0
H379 H 0.74791 0.61043 0.48881 0.0
H380 H 0.68328 0.63142 0.48568 0.0
H381 H 0.78912 0.84935 0.5686 0.0
H382 H 0.81322 0.79337 0.59961 0.0
H383 H 0.74827 0.81365 0.60911 0.0
C384 C 0.33931 0.72686 0.9748 0.0
C385 C 0.32335 0.69015 0.93943 0.0
C386 C 0.33736 0.71661 1.02611 0.0
C387 C 0.32073 0.66734 1.04245 0.0
C388 C 0.31277 0.62758 1.00647 0.0
C389 C 0.31284 0.63981 0.95512 0.0
C390 C 0.34637 0.76116 1.0621 0.0
C391 C 0.30037 0.57313 1.02145 0.0
C392 C 0.31773 0.69827 1.1768 0.0
C393 C 0.27036 0.72364 1.17635 0.0
C394 C 0.33213 0.66705 1.13586 0.0
C395 C 0.29914 0.66363 1.09388 0.0
C396 C 0.24728 0.67737 1.09983 0.0
C397 C 0.23323 0.70683 1.14174 0.0
C398 C 0.38521 0.64509 1.13405 0.0
C399 C 0.20881 0.66981 1.05804 0.0
H400 H 0.34763 0.76577 0.96273 0.0
H401 H 0.3017 0.61085 0.9276 0.0
H402 H 0.3103 0.77111 1.08146 0.0
H403 H 0.37505 0.75074 1.09087 0.0
H404 H 0.36022 0.79628 1.04287 0.0
H405 H 0.32652 0.54612 1.00182 0.0
H406 H 0.30382 0.56691 1.06249 0.0
H407 H 0.26112 0.56317 1.00893 0.0
H408 H 0.3458 0.70811 1.20531 0.0
H409 H 0.19543 0.7236 1.1422 0.0
H410 H 0.38754 0.61244 1.10692 0.0
H411 H 0.39709 0.63172 1.17183 0.0
H412 H 0.41252 0.67532 1.12239 0.0
H413 H 0.16946 0.67964 1.07006 0.0
H414 H 0.20906 0.62918 1.04501 0.0
H415 H 0.21884 0.69453 1.02572 0.0
C416 C 0.90774 0.90008 1.0974 0.0
C417 C 0.88416 0.94899 1.09674 0.0
C418 C 0.93522 0.8799 1.05565 0.0
C419 C 0.94185 0.90954 1.01144 0.0
C420 C 0.91729 0.95877 1.01033 0.0
C421 C 0.88894 0.97747 1.05234 0.0
C422 C 0.95668 0.8261 1.05889 0.0
C423 C 0.92228 0.99369 0.96585 0.0
C424 C 0.05596 0.87272 0.9236 0.0
C425 C 0.03169 0.85157 0.88072 0.0
C426 C 0.02771 0.89195 0.96564 0.0
C427 C 0.97334 0.88851 0.9668 0.0
C428 C 0.94913 0.8642 0.92494 0.0
C429 C 0.97801 0.84708 0.88284 0.0
C430 C 0.05625 0.9184 1.00784 0.0
C431 C 0.89205 0.85697 0.92408 0.0
H432 H 0.90445 0.87697 1.13093 0.0
H433 H 0.87182 0.01543 1.05085 0.0
H434 H 0.94665 0.80357 1.02463 0.0
H435 H -0.00116 0.82786 1.0613 0.0
H436 H 0.94238 0.80519 1.09222 0.0
H437 H 0.88837 0.01902 0.96201 0.0
H438 H 0.95596 0.01888 0.97204 0.0
H439 H 0.92731 0.97197 0.93027 0.0
H440 H 0.09704 0.87711 0.92322 0.0
H441 H 0.95798 0.83078 0.85077 0.0
H442 H 0.05617 0.8936 1.04149 0.0
H443 H 0.03733 0.95524 1.01814 0.0
H444 H 0.0965 0.92658 0.99776 0.0
H445 H 0.87932 0.83839 0.95926 0.0
H446 H 0.87915 0.83308 0.89163 0.0
H447 H 0.87304 0.89507 0.92196 0.0
C448 C 0.2596 0.96129 0.36588 0.0
C449 C 0.26625 0.01478 0.35904 0.0
C450 C 0.24289 0.94008 0.41211 0.0
C451 C 0.23161 0.97253 0.45393 0.0
C452 C 0.23888 0.02658 0.44757 0.0
C453 C 0.25603 0.04681 0.40084 0.0
C454 C 0.23603 0.88252 0.41568 0.0
C455 C 0.22709 0.06352 0.4899 0.0
C456 C 0.13689 0.92109 0.55388 0.0
C457 C 0.16853 0.90462 0.59377 0.0
C458 C 0.15663 0.94334 0.50932 0.0
C459 C 0.21004 0.94999 0.5029 0.0
C460 C 0.24235 0.93358 0.54295 0.0
C461 C 0.2215 0.91146 0.58739 0.0
C462 C 0.11984 0.95998 0.46885 0.0
C463 C 0.29936 0.93936 0.53881 0.0
H464 H 0.26677 0.93551 0.33449 0.0
H465 H 0.25995 0.08812 0.39668 0.0
H466 H 0.25798 0.86747 0.44809 0.0
H467 H 0.19526 0.87341 0.42225 0.0
H468 H 0.24856 0.862 0.38112 0.0
H469 H 0.23856 0.10366 0.48114 0.0
H470 H 0.18553 0.063 0.49751 0.0
H471 H 0.24684 0.05139 0.52476 0.0
H472 H 0.09597 0.9168 0.55742 0.0
H473 H 0.24693 0.89951 0.61726 0.0
H474 H 0.12903 0.94031 0.43288 0.0
H475 H 0.12364 0.00201 0.4626 0.0
H476 H 0.07956 0.95145 0.47851 0.0
H477 H 0.31334 0.91724 0.50582 0.0
H478 H 0.31966 0.92569 0.57287 0.0
H479 H 0.30928 0.9804 0.53269 0.0
C480 C 0.05542 0.26182 0.91104 0.0
C481 C 0.07764 0.26801 0.86329 0.0
C482 C 0.08286 0.23979 0.95232 0.0
C483 C 0.13469 0.22377 0.94708 0.0
C484 C 0.15777 0.23208 0.8996 0.0
C485 C 0.12941 0.25332 0.85899 0.0
C486 C 0.05516 0.23061 1.00086 0.0
C487 C 0.2127 0.21729 0.89109 0.0
C488 C 0.21841 0.20115 1.0671 0.0
C489 C 0.22051 0.14696 1.07102 0.0
C490 C 0.1913 0.22623 1.02749 0.0
C491 C 0.16433 0.1972 0.99012 0.0
C492 C 0.16718 0.14243 0.99361 0.0
C493 C 0.1945 0.11853 1.03346 0.0
C494 C 0.19194 0.28425 1.02543 0.0
C495 C 0.14005 0.10805 0.95624 0.0
H496 H 0.01571 0.27216 0.91576 0.0
H497 H 0.14806 0.2574 0.82305 0.0
H498 H 0.05383 0.1886 1.00832 0.0
H499 H 0.07599 0.24906 1.03256 0.0
H500 H 0.01553 0.24567 1.0 0.0
H501 H 0.22695 0.23039 0.85412 0.0
H502 H 0.23725 0.23405 0.9211 0.0
H503 H 0.21665 0.17478 0.89283 0.0
H504 H 0.23784 0.22429 1.09532 0.0
H505 H 0.1948 0.07685 1.03539 0.0
H506 H 0.15256 0.29939 1.02885 0.0
H507 H 0.20684 0.29691 0.98859 0.0
H508 H 0.21578 0.30165 1.05571 0.0
H509 H 0.09932 0.10567 0.9669 0.0
H510 H 0.15573 0.0683 0.9561 0.0
H511 H 0.14253 0.12336 0.91762 0.0
C512 C 0.80023 0.14571 0.38308 0.0
C513 C 0.82462 0.09829 0.37333 0.0
C514 C 0.81327 0.1771 0.42547 0.0
C515 C 0.85329 0.16244 0.45879 0.0
C516 C 0.87824 0.11479 0.44879 0.0
C517 C 0.86306 0.08326 0.40744 0.0
C518 C 0.78452 0.2266 0.43423 0.0
C519 C 0.92235 0.09745 0.48106 0.0
C520 C 0.9242 0.26371 0.54235 0.0
C521 C 0.90784 0.25178 0.59108 0.0
C522 C 0.90473 0.23775 0.49913 0.0
C523 C 0.86928 0.19629 0.50388 0.0
C524 C 0.851 0.18569 0.553 0.0
C525 C 0.87015 0.21332 0.59547 0.0
C526 C 0.92302 0.25616 0.4489 0.0
C527 C 0.81095 0.14485 0.56091 0.0
H528 H 0.77078 0.15853 0.35742 0.0
H529 H 0.88323 0.04748 0.40057 0.0
H530 H 0.77098 0.22871 0.47362 0.0
H531 H 0.81037 0.25984 0.42832 0.0
H532 H 0.75123 0.23038 0.40859 0.0
H533 H 0.94303 0.0643 0.46412 0.0
H534 H 0.94979 0.12954 0.4871 0.0
H535 H 0.90811 0.08577 0.5184 0.0
H536 H 0.95255 0.2937 0.53772 0.0
H537 H 0.85665 0.20342 0.63254 0.0
H538 H 0.90363 0.23719 0.4167 0.0
H539 H 0.96481 0.25001 0.44624 0.0
H540 H 0.91665 0.29834 0.44608 0.0
H541 H 0.77897 0.14995 0.53395 0.0
H542 H 0.7955 0.14578 0.59967 0.0
H543 H 0.82756 0.10621 0.55387 0.0
loop_
_geom_bond_atom_site_label_1
_geom_bond_atom_site_label_2
_geom_bond_distance
_geom_bond_site_symmetry_2
_ccdc_geom_bond_type
La0 C2 2.928 . S
La0 O20 2.521 . S
La0 O21 2.628 . S
La0 O22 2.554 . S
La0 O23 2.757 1_554 S
La0 O24 2.470 . S
La0 O29 2.482 . S
La0 O31 2.503 1_554 S
La1 C11 2.928 1_545 S
La1 O23 2.482 . S
La1 O25 2.503 1_556 S
La1 O26 2.521 1_545 S
La1 O27 2.628 . S
La1 O28 2.554 . S
La1 O29 2.757 1_556 S
La1 O30 2.470 . S
C2 La0 2.928 . S
C2 C3 1.503 . S
C2 O20 1.261 . S
C2 O21 1.243 . S
C3 C2 1.503 . S
C3 C4 1.394 . S
C3 C8 1.373 . S
C4 C3 1.394 . S
C4 C5 1.380 . S
C4 H32 0.930 . S
C5 C4 1.380 . S
C5 C6 1.376 . S
C5 H33 0.930 . S
C6 C5 1.376 . S
C6 C7 1.370 . S
C7 C6 1.370 . S
C7 C8 1.396 . S
C7 H34 0.929 . S
C8 C3 1.373 . S
C8 C7 1.396 . S
C8 H35 0.929 . S
C9 O22 1.240 . S
C9 O23 1.289 1_554 S
C10 O24 1.258 . S
C10 O25 1.256 . S
C11 La1 2.928 1_565 S
C11 C12 1.503 . S
C11 O26 1.261 . S
C11 O27 1.243 1_565 S
C12 C11 1.503 . S
C12 C13 1.394 . S
C12 C17 1.373 . S
C13 C12 1.394 . S
C13 C14 1.380 . S
C13 H36 0.930 . S
C14 C13 1.380 . S
C14 C15 1.376 . S
C14 H37 0.930 . S
C15 C14 1.376 . S
C15 C16 1.370 . S
C16 C15 1.370 . S
C16 C17 1.396 . S
C16 H38 0.929 . S
C17 C12 1.373 . S
C17 C16 1.396 . S
C17 H39 0.929 . S
C18 O28 1.236 1_554 S
C18 O29 1.292 . S
C19 O30 1.258 . S
C19 O31 1.256 . S
O20 La0 2.521 . S
O20 C2 1.261 . S
O21 La0 2.628 . S
O21 C2 1.243 . S
O22 La0 2.554 . S
O22 C9 1.240 . S
O23 La0 2.757 1_556 S
O23 La1 2.482 . S
O23 C9 1.289 1_556 S
O24 La0 2.470 . S
O24 C10 1.258 . S
O25 La1 2.503 1_554 S
O25 C10 1.256 . S
O26 La1 2.521 1_565 S
O26 C11 1.261 . S
O27 La1 2.628 . S
O27 C11 1.243 1_545 S
O28 La1 2.554 . S
O28 C18 1.236 1_556 S
O29 La0 2.482 . S
O29 La1 2.757 1_554 S
O29 C18 1.292 . S
O30 La1 2.470 . S
O30 C19 1.258 . S
O31 La0 2.503 1_556 S
O31 C19 1.256 . S
H32 C4 0.930 . S
H33 C5 0.930 . S
H34 C7 0.929 . S
H35 C8 0.929 . S
H36 C13 0.930 . S
H37 C14 0.930 . S
H38 C16 0.929 . S
H39 C17 0.929 . S
La40 C42 2.928 . S
La40 O60 2.521 . S
La40 O61 2.628 . S
La40 O62 2.554 . S
La40 O63 2.757 1_655 S
La40 O64 2.470 1_655 S
La40 O69 2.482 . S
La40 O71 2.503 . S
La41 C51 2.928 . S
La41 O63 2.482 . S
La41 O65 2.503 . S
La41 O66 2.521 . S
La41 O67 2.628 . S
La41 O68 2.554 . S
La41 O69 2.757 1_455 S
La41 O70 2.470 1_455 S
C42 La40 2.928 . S
C42 C43 1.503 . S
C42 O60 1.261 . S
C42 O61 1.243 . S
C43 C42 1.503 . S
C43 C44 1.394 . S
C43 C48 1.373 . S
C44 C43 1.394 . S
C44 C45 1.380 . S
C44 H72 0.930 . S
C45 C44 1.380 . S
C45 C46 1.376 . S
C45 H73 0.930 . S
C46 C45 1.376 . S
C46 C47 1.370 . S
C47 C46 1.370 . S
C47 C48 1.396 . S
C47 H74 0.929 . S
C48 C43 1.373 . S
C48 C47 1.396 . S
C48 H75 0.929 . S
C49 O62 1.240 . S
C49 O63 1.289 1_655 S
C50 O64 1.258 . S
C50 O65 1.256 . S
C51 La41 2.928 . S
C51 C52 1.503 . S
C51 O66 1.261 . S
C51 O67 1.243 . S
C52 C51 1.503 . S
C52 C53 1.394 . S
C52 C57 1.373 . S
C53 C52 1.394 . S
C53 C54 1.380 . S
C53 H76 0.930 . S
C54 C53 1.380 . S
C54 C55 1.376 . S
C54 H77 0.930 . S
C55 C54 1.376 . S
C55 C56 1.370 . S
C56 C55 1.370 . S
C56 C57 1.396 . S
C56 H78 0.929 . S
C57 C52 1.373 . S
C57 C56 1.396 . S
C57 H79 0.929 . S
C58 O68 1.240 . S
C58 O69 1.289 1_455 S
C59 O70 1.258 . S
C59 O71 1.256 . S
O60 La40 2.521 . S
O60 C42 1.261 . S
O61 La40 2.628 . S
O61 C42 1.243 . S
O62 La40 2.554 . S
O62 C49 1.240 . S
O63 La40 2.757 1_455 S
O63 La41 2.482 . S
O63 C49 1.289 1_455 S
O64 La40 2.470 1_455 S
O64 C50 1.258 . S
O65 La41 2.503 . S
O65 C50 1.256 . S
O66 La41 2.521 . S
O66 C51 1.261 . S
O67 La41 2.628 . S
O67 C51 1.243 . S
O68 La41 2.554 . S
O68 C58 1.240 . S
O69 La40 2.482 . S
O69 La41 2.757 1_655 S
O69 C58 1.289 1_655 S
O70 La41 2.470 1_655 S
O70 C59 1.258 . S
O71 La40 2.503 . S
O71 C59 1.256 . S
H72 C44 0.930 . S
H73 C45 0.930 . S
H74 C47 0.929 . S
H75 C48 0.929 . S
H76 C53 0.930 . S
H77 C54 0.930 . S
H78 C56 0.929 . S
H79 C57 0.929 . S
La80 C82 2.928 . S
La80 O100 2.521 . S
La80 O101 2.628 . S
La80 O102 2.554 . S
La80 O103 2.757 1_564 S
La80 O104 2.470 1_565 S
La80 O109 2.482 . S
La80 O111 2.503 1_554 S
La81 C91 2.928 . S
La81 O103 2.482 . S
La81 O105 2.503 1_556 S
La81 O106 2.521 . S
La81 O107 2.628 . S
La81 O108 2.554 . S
La81 O109 2.757 1_546 S
La81 O110 2.470 1_545 S
C82 La80 2.928 . S
C82 C83 1.503 . S
C82 O100 1.261 . S
C82 O101 1.243 . S
C83 C82 1.503 . S
C83 C84 1.394 . S
C83 C88 1.373 . S
C84 C83 1.394 . S
C84 C85 1.380 . S
C84 H112 0.930 . S
C85 C84 1.380 . S
C85 C86 1.376 . S
C85 H113 0.930 . S
C86 C85 1.376 . S
C86 C87 1.370 . S
C87 C86 1.370 . S
C87 C88 1.396 . S
C87 H114 0.929 . S
C88 C83 1.373 . S
C88 C87 1.396 . S
C88 H115 0.929 . S
C89 O102 1.240 . S
C89 O103 1.289 1_564 S
C90 O104 1.258 . S
C90 O105 1.256 . S
C91 La81 2.928 . S
C91 C92 1.503 . S
C91 O106 1.261 . S
C91 O107 1.243 . S
C92 C91 1.503 . S
C92 C93 1.394 . S
C92 C97 1.373 . S
C93 C92 1.394 . S
C93 C94 1.380 . S
C93 H116 0.930 . S
C94 C93 1.380 . S
C94 C95 1.376 . S
C94 H117 0.930 . S
C95 C94 1.376 . S
C95 C96 1.370 . S
C96 C95 1.370 . S
C96 C97 1.396 . S
C96 H118 0.929 . S
C97 C92 1.373 . S
C97 C96 1.396 . S
C97 H119 0.929 . S
C98 O108 1.236 1_554 S
C98 O109 1.292 1_545 S
C99 O110 1.258 . S
C99 O111 1.256 . S
O100 La80 2.521 . S
O100 C82 1.261 . S
O101 La80 2.628 . S
O101 C82 1.243 . S
O102 La80 2.554 . S
O102 C89 1.240 . S
O103 La80 2.757 1_546 S
O103 La81 2.482 . S
O103 C89 1.289 1_546 S
O104 La80 2.470 1_545 S
O104 C90 1.258 . S
O105 La81 2.503 1_554 S
O105 C90 1.256 . S
O106 La81 2.521 . S
O106 C91 1.261 . S
O107 La81 2.628 . S
O107 C91 1.243 . S
O108 La81 2.554 . S
O108 C98 1.236 1_556 S
O109 La80 2.482 . S
O109 La81 2.757 1_564 S
O109 C98 1.292 1_565 S
O110 La81 2.470 1_565 S
O110 C99 1.258 . S
O111 La80 2.503 1_556 S
O111 C99 1.256 . S
H112 C84 0.930 . S
H113 C85 0.930 . S
H114 C87 0.929 . S
H115 C88 0.929 . S
H116 C93 0.930 . S
H117 C94 0.930 . S
H118 C96 0.929 . S
H119 C97 0.929 . S
La120 C122 2.928 . S
La120 O140 2.521 . S
La120 O141 2.628 . S
La120 O142 2.554 . S
La120 O143 2.757 . S
La120 O144 2.470 . S
La120 O149 2.482 . S
La120 O151 2.503 . S
La121 C131 2.928 1_455 S
La121 O143 2.482 . S
La121 O145 2.503 . S
La121 O146 2.521 1_455 S
La121 O147 2.628 . S
La121 O148 2.554 . S
La121 O149 2.757 . S
La121 O150 2.470 . S
C122 La120 2.928 . S
C122 C123 1.503 . S
C122 O140 1.261 . S
C122 O141 1.243 . S
C123 C122 1.503 . S
C123 C124 1.394 . S
C123 C128 1.373 . S
C124 C123 1.394 . S
C124 C125 1.380 . S
C124 H152 0.930 . S
C125 C124 1.380 . S
C125 C126 1.376 . S
C125 H153 0.930 . S
C126 C125 1.376 . S
C126 C127 1.370 . S
C127 C126 1.370 . S
C127 C128 1.396 . S
C127 H154 0.929 . S
C128 C123 1.373 . S
C128 C127 1.396 . S
C128 H155 0.929 . S
C129 O142 1.240 . S
C129 O143 1.289 . S
C130 O144 1.258 . S
C130 O145 1.256 . S
C131 La121 2.928 1_655 S
C131 C132 1.503 . S
C131 O146 1.261 . S
C131 O147 1.243 1_655 S
C132 C131 1.503 . S
C132 C133 1.394 . S
C132 C137 1.373 . S
C133 C132 1.394 . S
C133 C134 1.380 . S
C133 H156 0.930 . S
C134 C133 1.380 . S
C134 C135 1.376 . S
C134 H157 0.930 . S
C135 C134 1.376 . S
C135 C136 1.370 . S
C136 C135 1.370 . S
C136 C137 1.396 . S
C136 H158 0.929 . S
C137 C132 1.373 . S
C137 C136 1.396 . S
C137 H159 0.929 . S
C138 O148 1.240 . S
C138 O149 1.289 . S
C139 O150 1.258 . S
C139 O151 1.256 . S
O140 La120 2.521 . S
O140 C122 1.261 . S
O141 La120 2.628 . S
O141 C122 1.243 . S
O142 La120 2.554 . S
O142 C129 1.240 . S
O143 La120 2.757 . S
O143 La121 2.482 . S
O143 C129 1.289 . S
O144 La120 2.470 . S
O144 C130 1.258 . S
O145 La121 2.503 . S
O145 C130 1.256 . S
O146 La121 2.521 1_655 S
O146 C131 1.261 . S
O147 La121 2.628 . S
O147 C131 1.243 1_455 S
O148 La121 2.554 . S
O148 C138 1.240 . S
O149 La120 2.482 . S
O149 La121 2.757 . S
O149 C138 1.289 . S
O150 La121 2.470 . S
O150 C139 1.258 . S
O151 La120 2.503 . S
O151 C139 1.256 . S
H152 C124 0.930 . S
H153 C125 0.930 . S
H154 C127 0.929 . S
H155 C128 0.929 . S
H156 C133 0.930 . S
H157 C134 0.930 . S
H158 C136 0.929 . S
H159 C137 0.929 . S
C160 C161 1.391 1_556 S
C160 C162 1.394 . S
C160 H176 0.931 . S
C161 C160 1.391 1_554 S
C161 C165 1.376 1_545 S
C162 C160 1.394 . S
C162 C163 1.369 1_656 S
C162 C166 1.536 . S
C163 C162 1.369 1_454 S
C163 C164 1.410 1_455 S
C163 C171 1.503 . S
C164 C163 1.410 1_655 S
C164 C165 1.392 1_545 S
C164 C167 1.511 1_655 S
C165 C161 1.376 1_565 S
C165 C164 1.392 1_565 S
C165 H177 0.929 . S
C166 C162 1.536 . S
C166 H178 0.950 1_655 S
C166 H179 0.955 1_655 S
C166 H180 0.972 . S
C167 C164 1.511 1_455 S
C167 H181 0.961 1_545 S
C167 H182 0.962 . S
C167 H183 0.961 . S
C168 C169 1.370 1_556 S
C168 C170 1.363 . S
C168 H184 0.931 . S
C169 C168 1.370 1_554 S
C169 C173 1.408 . S
C170 C168 1.363 . S
C170 C171 1.370 1_556 S
C170 C174 1.524 1_545 S
C171 C163 1.503 . S
C171 C170 1.370 1_554 S
C171 C172 1.403 . S
C172 C171 1.403 . S
C172 C173 1.404 . S
C172 C175 1.539 . S
C173 C169 1.408 . S
C173 C172 1.404 . S
C173 H185 0.930 . S
C174 C170 1.524 1_565 S
C174 H186 0.956 . S
C174 H187 0.961 . S
C174 H188 0.961 . S
C175 C172 1.539 . S
C175 H189 0.958 . S
C175 H190 0.961 . S
C175 H191 0.960 . S
H176 C160 0.931 . S
H177 C165 0.929 . S
H178 C166 0.950 1_455 S
H179 C166 0.955 1_455 S
H180 C166 0.972 . S
H181 C167 0.961 1_565 S
H182 C167 0.962 . S
H183 C167 0.961 . S
H184 C168 0.931 . S
H185 C173 0.930 . S
H186 C174 0.956 . S
H187 C174 0.961 . S
H188 C174 0.961 . S
H189 C175 0.958 . S
H190 C175 0.961 . S
H191 C175 0.960 . S
C192 C193 1.391 . S
C192 C194 1.394 1_565 S
C192 H208 0.931 . S
C193 C192 1.391 . S
C193 C197 1.376 . S
C194 C192 1.394 1_545 S
C194 C195 1.369 . S
C194 C198 1.531 . S
C195 C194 1.369 . S
C195 C196 1.410 1_545 S
C195 C203 1.503 . S
C196 C195 1.410 1_565 S
C196 C197 1.392 . S
C196 C199 1.511 1_455 S
C197 C193 1.376 . S
C197 C196 1.392 . S
C197 H209 0.929 . S
C198 C194 1.531 . S
C198 H210 0.960 . S
C198 H211 0.962 . S
C198 H212 0.960 . S
C199 C196 1.511 1_655 S
C199 H213 0.961 . S
C199 H214 0.961 1_565 S
C199 H215 0.961 . S
C200 C201 1.365 1_455 S
C200 C202 1.363 . S
C200 H216 0.931 . S
C201 C200 1.365 1_655 S
C201 C205 1.409 . S
C202 C200 1.363 . S
C202 C203 1.370 . S
C202 C206 1.524 . S
C203 C195 1.503 . S
C203 C202 1.370 . S
C203 C204 1.403 . S
C204 C203 1.403 . S
C204 C205 1.404 1_455 S
C204 C207 1.539 . S
C205 C201 1.409 . S
C205 C204 1.404 1_655 S
C205 H217 0.930 . S
C206 C202 1.524 . S
C206 H218 0.956 . S
C206 H219 0.961 . S
C206 H220 0.961 . S
C207 C204 1.539 . S
C207 H221 0.958 . S
C207 H222 0.961 1_455 S
C207 H223 0.960 . S
H208 C192 0.931 . S
H209 C197 0.929 . S
H210 C198 0.960 . S
H211 C198 0.962 . S
H212 C198 0.960 . S
H213 C199 0.961 . S
H214 C199 0.961 1_545 S
H215 C199 0.961 . S
H216 C200 0.931 . S
H217 C205 0.930 . S
H218 C206 0.956 . S
H219 C206 0.961 . S
H220 C206 0.961 . S
H221 C207 0.958 . S
H222 C207 0.961 1_655 S
H223 C207 0.960 . S
C224 C225 1.391 . S
C224 C226 1.394 . S
C224 H240 0.931 . S
C225 C224 1.391 . S
C225 C229 1.376 1_566 S
C226 C224 1.394 . S
C226 C227 1.369 1_566 S
C226 C230 1.531 . S
C227 C226 1.369 1_544 S
C227 C228 1.410 . S
C227 C235 1.503 . S
C228 C227 1.410 . S
C228 C229 1.392 . S
C228 C231 1.511 . S
C229 C225 1.376 1_544 S
C229 C228 1.392 . S
C229 H241 0.929 . S
C230 C226 1.531 . S
C230 H242 0.960 . S
C230 H243 0.962 . S
C230 H244 0.960 . S
C231 C228 1.511 . S
C231 H245 0.961 . S
C231 H246 0.961 . S
C231 H247 0.961 . S
C232 C233 1.370 . S
C232 C234 1.363 . S
C232 H248 0.931 . S
C233 C232 1.370 . S
C233 C237 1.408 1_556 S
C234 C232 1.363 . S
C234 C235 1.370 1_556 S
C234 C238 1.524 . S
C235 C227 1.503 . S
C235 C234 1.370 1_554 S
C235 C236 1.403 . S
C236 C235 1.403 . S
C236 C237 1.404 . S
C236 C239 1.539 . S
C237 C233 1.408 1_554 S
C237 C236 1.404 . S
C237 H249 0.930 . S
C238 C234 1.524 . S
C238 H250 0.956 . S
C238 H251 0.961 . S
C238 H252 0.961 . S
C239 C236 1.539 . S
C239 H253 0.958 1_545 S
C239 H254 0.961 . S
C239 H255 0.960 . S
H240 C224 0.931 . S
H241 C229 0.929 . S
H242 C230 0.960 . S
H243 C230 0.962 . S
H244 C230 0.960 . S
H245 C231 0.961 . S
H246 C231 0.961 . S
H247 C231 0.961 . S
H248 C232 0.931 . S
H249 C237 0.930 . S
H250 C238 0.956 . S
H251 C238 0.961 . S
H252 C238 0.961 . S
H253 C239 0.958 1_565 S
H254 C239 0.961 . S
H255 C239 0.960 . S
C256 C257 1.391 1_455 S
C256 C258 1.394 . S
C256 H272 0.931 . S
C257 C256 1.391 1_655 S
C257 C261 1.376 . S
C258 C256 1.394 . S
C258 C259 1.369 . S
C258 C262 1.531 . S
C259 C258 1.369 . S
C259 C260 1.410 . S
C259 C267 1.503 . S
C260 C259 1.410 . S
C260 C261 1.392 1_455 S
C260 C263 1.510 1_455 S
C261 C257 1.376 . S
C261 C260 1.392 1_655 S
C261 H273 0.929 . S
C262 C258 1.531 . S
C262 H274 0.960 . S
C262 H275 0.962 . S
C262 H276 0.960 . S
C263 C260 1.510 1_655 S
C263 H277 0.959 1_655 S
C263 H278 0.950 1_655 S
C263 H279 0.973 . S
C264 C265 1.370 . S
C264 C266 1.363 . S
C264 H280 0.931 . S
C265 C264 1.370 . S
C265 C269 1.408 . S
C266 C264 1.363 . S
C266 C267 1.370 . S
C266 C270 1.524 . S
C267 C259 1.503 . S
C267 C266 1.370 . S
C267 C268 1.403 . S
C268 C267 1.403 . S
C268 C269 1.404 . S
C268 C271 1.539 1_455 S
C269 C265 1.408 . S
C269 C268 1.404 . S
C269 H281 0.930 . S
C270 C266 1.524 . S
C270 H282 0.956 . S
C270 H283 0.961 . S
C270 H284 0.961 . S
C271 C268 1.539 1_655 S
C271 H285 0.958 . S
C271 H286 0.961 . S
C271 H287 0.960 . S
H272 C256 0.931 . S
H273 C261 0.929 . S
H274 C262 0.960 . S
H275 C262 0.962 . S
H276 C262 0.960 . S
H277 C263 0.959 1_455 S
H278 C263 0.950 1_455 S
H279 C263 0.973 . S
H280 C264 0.931 . S
H281 C269 0.930 . S
H282 C270 0.956 . S
H283 C270 0.961 . S
H284 C270 0.961 . S
H285 C271 0.958 . S
H286 C271 0.961 . S
H287 C271 0.960 . S
C288 C289 1.391 . S
C288 C290 1.394 . S
C288 H304 0.931 . S
C289 C288 1.391 . S
C289 C293 1.376 . S
C290 C288 1.394 . S
C290 C291 1.369 . S
C290 C294 1.531 . S
C291 C290 1.369 . S
C291 C292 1.410 . S
C291 C299 1.503 . S
C292 C291 1.410 . S
C292 C293 1.392 . S
C292 C295 1.511 . S
C293 C289 1.376 . S
C293 C292 1.392 . S
C293 H305 0.929 . S
C294 C290 1.531 . S
C294 H306 0.960 . S
C294 H307 0.962 . S
C294 H308 0.960 . S
C295 C292 1.511 . S
C295 H309 0.961 . S
C295 H310 0.961 . S
C295 H311 0.961 . S
C296 C297 1.370 . S
C296 C298 1.363 . S
C296 H312 0.931 . S
C297 C296 1.370 . S
C297 C301 1.408 . S
C298 C296 1.363 . S
C298 C299 1.370 . S
C298 C302 1.524 . S
C299 C291 1.503 . S
C299 C298 1.370 . S
C299 C300 1.403 . S
C300 C299 1.403 . S
C300 C301 1.404 . S
C300 C303 1.539 . S
C301 C297 1.408 . S
C301 C300 1.404 . S
C301 H313 0.930 . S
C302 C298 1.524 . S
C302 H314 0.956 . S
C302 H315 0.961 . S
C302 H316 0.961 . S
C303 C300 1.539 . S
C303 H317 0.958 . S
C303 H318 0.961 . S
C303 H319 0.960 . S
H304 C288 0.931 . S
H305 C293 0.929 . S
H306 C294 0.960 . S
H307 C294 0.962 . S
H308 C294 0.960 . S
H309 C295 0.961 . S
H310 C295 0.961 . S
H311 C295 0.961 . S
H312 C296 0.931 . S
H313 C301 0.930 . S
H314 C302 0.956 . S
H315 C302 0.961 . S
H316 C302 0.961 . S
H317 C303 0.958 . S
H318 C303 0.961 . S
H319 C303 0.960 . S
C320 C321 1.391 . S
C320 C322 1.394 . S
C320 H336 0.931 . S
C321 C320 1.391 . S
C321 C325 1.376 . S
C322 C320 1.394 . S
C322 C323 1.369 . S
C322 C326 1.531 . S
C323 C322 1.369 . S
C323 C324 1.410 . S
C323 C331 1.503 . S
C324 C323 1.410 . S
C324 C325 1.392 . S
C324 C327 1.511 . S
C325 C321 1.376 . S
C325 C324 1.392 . S
C325 H337 0.929 . S
C326 C322 1.531 . S
C326 H338 0.960 . S
C326 H339 0.962 . S
C326 H340 0.960 . S
C327 C324 1.511 . S
C327 H341 0.961 . S
C327 H342 0.961 . S
C327 H343 0.961 . S
C328 C329 1.370 . S
C328 C330 1.363 . S
C328 H344 0.931 . S
C329 C328 1.370 . S
C329 C333 1.408 . S
C330 C328 1.363 . S
C330 C331 1.370 . S
C330 C334 1.524 . S
C331 C323 1.503 . S
C331 C330 1.370 . S
C331 C332 1.403 . S
C332 C331 1.403 . S
C332 C333 1.404 . S
C332 C335 1.539 . S
C333 C329 1.408 . S
C333 C332 1.404 . S
C333 H345 0.930 . S
C334 C330 1.524 . S
C334 H346 0.956 . S
C334 H347 0.961 . S
C334 H348 0.961 . S
C335 C332 1.539 . S
C335 H349 0.958 . S
C335 H350 0.961 . S
C335 H351 0.960 . S
H336 C320 0.931 . S
H337 C325 0.929 . S
H338 C326 0.960 . S
H339 C326 0.962 . S
H340 C326 0.960 . S
H341 C327 0.961 . S
H342 C327 0.961 . S
H343 C327 0.961 . S
H344 C328 0.931 . S
H345 C333 0.930 . S
H346 C334 0.956 . S
H347 C334 0.961 . S
H348 C334 0.961 . S
H349 C335 0.958 . S
H350 C335 0.961 . S
H351 C335 0.960 . S
C352 C353 1.391 . S
C352 C354 1.394 . S
C352 H368 0.931 . S
C353 C352 1.391 . S
C353 C357 1.376 . S
C354 C352 1.394 . S
C354 C355 1.369 . S
C354 C358 1.531 . S
C355 C354 1.369 . S
C355 C356 1.410 . S
C355 C363 1.503 . S
C356 C355 1.410 . S
C356 C357 1.392 . S
C356 C359 1.511 . S
C357 C353 1.376 . S
C357 C356 1.392 . S
C357 H369 0.929 . S
C358 C354 1.531 . S
C358 H370 0.960 . S
C358 H371 0.962 . S
C358 H372 0.960 . S
C359 C356 1.511 . S
C359 H373 0.961 . S
C359 H374 0.961 . S
C359 H375 0.961 . S
C360 C361 1.370 . S
C360 C362 1.363 . S
C360 H376 0.931 . S
C361 C360 1.370 . S
C361 C365 1.408 . S
C362 C360 1.363 . S
C362 C363 1.370 . S
C362 C366 1.524 . S
C363 C355 1.503 . S
C363 C362 1.370 . S
C363 C364 1.403 . S
C364 C363 1.403 . S
C364 C365 1.404 . S
C364 C367 1.539 . S
C365 C361 1.408 . S
C365 C364 1.404 . S
C365 H377 0.930 . S
C366 C362 1.524 . S
C366 H378 0.956 . S
C366 H379 0.961 . S
C366 H380 0.961 . S
C367 C364 1.539 . S
C367 H381 0.958 . S
C367 H382 0.961 . S
C367 H383 0.960 . S
H368 C352 0.931 . S
H369 C357 0.929 . S
H370 C358 0.960 . S
H371 C358 0.962 . S
H372 C358 0.960 . S
H373 C359 0.961 . S
H374 C359 0.961 . S
H375 C359 0.961 . S
H376 C360 0.931 . S
H377 C365 0.930 . S
H378 C366 0.956 . S
H379 C366 0.961 . S
H380 C366 0.961 . S
H381 C367 0.958 . S
H382 C367 0.961 . S
H383 C367 0.960 . S
C384 C385 1.391 . S
C384 C386 1.394 . S
C384 H400 0.931 . S
C385 C384 1.391 . S
C385 C389 1.376 . S
C386 C384 1.394 . S
C386 C387 1.369 . S
C386 C390 1.531 . S
C387 C386 1.369 . S
C387 C388 1.410 . S
C387 C395 1.503 . S
C388 C387 1.410 . S
C388 C389 1.392 . S
C388 C391 1.511 . S
C389 C385 1.376 . S
C389 C388 1.392 . S
C389 H401 0.929 . S
C390 C386 1.531 . S
C390 H402 0.960 . S
C390 H403 0.962 . S
C390 H404 0.960 . S
C391 C388 1.511 . S
C391 H405 0.961 . S
C391 H406 0.961 . S
C391 H407 0.961 . S
C392 C393 1.370 . S
C392 C394 1.363 . S
C392 H408 0.931 . S
C393 C392 1.370 . S
C393 C397 1.408 . S
C394 C392 1.363 . S
C394 C395 1.370 . S
C394 C398 1.524 . S
C395 C387 1.503 . S
C395 C394 1.370 . S
C395 C396 1.403 . S
C396 C395 1.403 . S
C396 C397 1.404 . S
C396 C399 1.539 . S
C397 C393 1.408 . S
C397 C396 1.404 . S
C397 H409 0.930 1_565 S
C398 C394 1.524 . S
C398 H410 0.956 . S
C398 H411 0.961 . S
C398 H412 0.961 . S
C399 C396 1.539 . S
C399 H413 0.958 . S
C399 H414 0.961 1_565 S
C399 H415 0.960 . S
H400 C384 0.931 . S
H401 C389 0.929 . S
H402 C390 0.960 . S
H403 C390 0.962 . S
H404 C390 0.960 . S
H405 C391 0.961 . S
H406 C391 0.961 . S
H407 C391 0.961 . S
H408 C392 0.931 . S
H409 C397 0.930 1_545 S
H410 C398 0.956 . S
H411 C398 0.961 . S
H412 C398 0.961 . S
H413 C399 0.958 . S
H414 C399 0.961 1_545 S
H415 C399 0.960 . S
C416 C417 1.391 . S
C416 C418 1.394 . S
C416 H432 0.931 . S
C417 C416 1.391 . S
C417 C421 1.376 . S
C418 C416 1.394 . S
C418 C419 1.369 . S
C418 C422 1.531 . S
C419 C418 1.369 . S
C419 C420 1.410 . S
C419 C427 1.503 . S
C420 C419 1.410 . S
C420 C421 1.392 . S
C420 C423 1.511 . S
C421 C417 1.376 . S
C421 C420 1.392 . S
C421 H433 0.929 . S
C422 C418 1.531 . S
C422 H434 0.960 . S
C422 H435 0.962 1_655 S
C422 H436 0.960 . S
C423 C420 1.511 . S
C423 H437 0.961 . S
C423 H438 0.961 . S
C423 H439 0.961 . S
C424 C425 1.370 . S
C424 C426 1.363 . S
C424 H440 0.931 . S
C425 C424 1.370 . S
C425 C429 1.408 . S
C426 C424 1.363 . S
C426 C427 1.370 . S
C426 C430 1.524 . S
C427 C419 1.503 . S
C427 C426 1.370 . S
C427 C428 1.403 . S
C428 C427 1.403 . S
C428 C429 1.404 . S
C428 C431 1.539 . S
C429 C425 1.408 . S
C429 C428 1.404 . S
C429 H441 0.930 . S
C430 C426 1.524 . S
C430 H442 0.956 . S
C430 H443 0.961 . S
C430 H444 0.961 . S
C431 C428 1.539 . S
C431 H445 0.958 . S
C431 H446 0.961 . S
C431 H447 0.960 . S
H432 C416 0.931 . S
H433 C421 0.929 . S
H434 C422 0.960 . S
H435 C422 0.962 1_455 S
H436 C422 0.960 . S
H437 C423 0.961 . S
H438 C423 0.961 . S
H439 C423 0.961 . S
H440 C424 0.931 . S
H441 C429 0.930 . S
H442 C430 0.956 . S
H443 C430 0.961 . S
H444 C430 0.961 . S
H445 C431 0.958 . S
H446 C431 0.961 . S
H447 C431 0.960 . S
C448 C449 1.391 . S
C448 C450 1.394 . S
C448 H464 0.931 . S
C449 C448 1.391 . S
C449 C453 1.376 . S
C450 C448 1.394 . S
C450 C451 1.369 . S
C450 C454 1.531 . S
C451 C450 1.369 . S
C451 C452 1.410 . S
C451 C459 1.503 . S
C452 C451 1.410 . S
C452 C453 1.392 . S
C452 C455 1.511 . S
C453 C449 1.376 . S
C453 C452 1.392 . S
C453 H465 0.929 1_565 S
C454 C450 1.531 . S
C454 H466 0.960 . S
C454 H467 0.962 . S
C454 H468 0.960 . S
C455 C452 1.511 . S
C455 H469 0.961 1_565 S
C455 H470 0.961 . S
C455 H471 0.961 . S
C456 C457 1.370 . S
C456 C458 1.363 . S
C456 H472 0.931 . S
C457 C456 1.370 . S
C457 C461 1.408 . S
C458 C456 1.363 . S
C458 C459 1.370 . S
C458 C462 1.524 . S
C459 C451 1.503 . S
C459 C458 1.370 . S
C459 C460 1.403 . S
C460 C459 1.403 . S
C460 C461 1.404 . S
C460 C463 1.539 . S
C461 C457 1.408 . S
C461 C460 1.404 . S
C461 H473 0.930 . S
C462 C458 1.524 . S
C462 H474 0.956 . S
C462 H475 0.961 . S
C462 H476 0.961 . S
C463 C460 1.539 . S
C463 H477 0.958 . S
C463 H478 0.961 . S
C463 H479 0.960 . S
H464 C448 0.931 . S
H465 C453 0.929 1_545 S
H466 C454 0.960 . S
H467 C454 0.962 . S
H468 C454 0.960 . S
H469 C455 0.961 1_545 S
H470 C455 0.961 . S
H471 C455 0.961 . S
H472 C456 0.931 . S
H473 C461 0.930 . S
H474 C462 0.956 . S
H475 C462 0.961 . S
H476 C462 0.961 . S
H477 C463 0.958 . S
H478 C463 0.961 . S
H479 C463 0.960 . S
C480 C481 1.391 . S
C480 C482 1.394 . S
C480 H496 0.931 . S
C481 C480 1.391 . S
C481 C485 1.376 . S
C482 C480 1.394 . S
C482 C483 1.369 . S
C482 C486 1.531 . S
C483 C482 1.369 . S
C483 C484 1.410 . S
C483 C491 1.503 . S
C484 C483 1.410 . S
C484 C485 1.392 . S
C484 C487 1.511 . S
C485 C481 1.376 . S
C485 C484 1.392 . S
C485 H497 0.929 . S
C486 C482 1.531 . S
C486 H498 0.960 . S
C486 H499 0.962 . S
C486 H500 0.960 . S
C487 C484 1.511 . S
C487 H501 0.961 . S
C487 H502 0.961 . S
C487 H503 0.961 . S
C488 C489 1.370 . S
C488 C490 1.363 . S
C488 H504 0.931 . S
C489 C488 1.370 . S
C489 C493 1.408 . S
C490 C488 1.363 . S
C490 C491 1.370 . S
C490 C494 1.524 . S
C491 C483 1.503 . S
C491 C490 1.370 . S
C491 C492 1.403 . S
C492 C491 1.403 . S
C492 C493 1.404 . S
C492 C495 1.539 . S
C493 C489 1.408 . S
C493 C492 1.404 . S
C493 H505 0.930 . S
C494 C490 1.524 . S
C494 H506 0.956 . S
C494 H507 0.961 . S
C494 H508 0.961 . S
C495 C492 1.539 . S
C495 H509 0.958 . S
C495 H510 0.961 . S
C495 H511 0.960 . S
H496 C480 0.931 . S
H497 C485 0.929 . S
H498 C486 0.960 . S
H499 C486 0.962 . S
H500 C486 0.960 . S
H501 C487 0.961 . S
H502 C487 0.961 . S
H503 C487 0.961 . S
H504 C488 0.931 . S
H505 C493 0.930 . S
H506 C494 0.956 . S
H507 C494 0.961 . S
H508 C494 0.961 . S
H509 C495 0.958 . S
H510 C495 0.961 . S
H511 C495 0.960 . S
C512 C513 1.391 . S
C512 C514 1.394 . S
C512 H528 0.931 . S
C513 C512 1.391 . S
C513 C517 1.376 . S
C514 C512 1.394 . S
C514 C515 1.369 . S
C514 C518 1.531 . S
C515 C514 1.369 . S
C515 C516 1.410 . S
C515 C523 1.503 . S
C516 C515 1.410 . S
C516 C517 1.392 . S
C516 C519 1.511 . S
C517 C513 1.376 . S
C517 C516 1.392 . S
C517 H529 0.929 . S
C518 C514 1.531 . S
C518 H530 0.960 . S
C518 H531 0.962 . S
C518 H532 0.960 . S
C519 C516 1.511 . S
C519 H533 0.961 . S
C519 H534 0.961 . S
C519 H535 0.961 . S
C520 C521 1.370 . S
C520 C522 1.363 . S
C520 H536 0.931 . S
C521 C520 1.370 . S
C521 C525 1.408 . S
C522 C520 1.363 . S
C522 C523 1.370 . S
C522 C526 1.524 . S
C523 C515 1.503 . S
C523 C522 1.370 . S
C523 C524 1.403 . S
C524 C523 1.403 . S
C524 C525 1.404 . S
C524 C527 1.539 . S
C525 C521 1.408 . S
C525 C524 1.404 . S
C525 H537 0.930 . S
C526 C522 1.524 . S
C526 H538 0.956 . S
C526 H539 0.961 . S
C526 H540 0.961 . S
C527 C524 1.539 . S
C527 H541 0.958 . S
C527 H542 0.961 . S
C527 H543 0.960 . S
H528 C512 0.931 . S
H529 C517 0.929 . S
H530 C518 0.960 . S
H531 C518 0.962 . S
H532 C518 0.960 . S
H533 C519 0.961 . S
H534 C519 0.961 . S
H535 C519 0.961 . S
H536 C520 0.931 . S
H537 C525 0.930 . S
H538 C526 0.956 . S
H539 C526 0.961 . S
H540 C526 0.961 . S
H541 C527 0.958 . S
H542 C527 0.961 . S
H543 C527 0.960 . S
C161 C98 0.472 . S
C169 C18 0.586 . S
C193 C138 0.474 . S
C201 C58 0.525 1_655 S
C225 C89 0.836 1_556 S
C233 C9 0.854 1_556 S
C257 C49 0.864 . S
C265 C129 0.868 . S
C289 C55 1.103 . S
C297 C6 1.073 . S
C321 C46 1.084 . S
C329 C95 1.070 . S
C353 C135 1.053 . S
C361 C86 1.064 . S
C385 C126 1.050 . S
C393 C15 1.052 . S
C417 C99 4.561 . S
C425 C130 4.694 1_655 S
C449 C10 4.686 1_565 S
C457 C139 4.565 . S
C481 C50 4.688 . S
C489 C19 4.558 . S
C513 C90 4.686 . S
C521 C59 4.564 . S
