# Generated by pormake.
# Topology vmb, (5)-cn, num edge types: 1
# Building blocks:
#     Node 0, Type 0, BuildingBlock: BEQFEK_clean_sbu_0, # of connection points: 5
#     Node 1, Type 0, BuildingBlock: BEQFEK_clean_sbu_0, # of connection points: 5
#     Node 2, Type 0, BuildingBlock: BEQFEK_clean_sbu_0, # of connection points: 5
#     Node 3, Type 0, BuildingBlock: BEQFEK_clean_sbu_0, # of connection points: 5
#     Node 4, Type 0, BuildingBlock: BEQFEK_clean_sbu_0, # of connection points: 5
#     Node 5, Type 0, BuildingBlock: BEQFEK_clean_sbu_0, # of connection points: 5
#     Node 6, Type 0, BuildingBlock: BEQFEK_clean_sbu_0, # of connection points: 5
#     Node 7, Type 0, BuildingBlock: BEQFEK_clean_sbu_0, # of connection points: 5
#     Edge 8, Type (0, 0), BuildingBlock: TEMPAE_clean_linker_10, # of connection points: 2
#     Edge 9, Type (0, 0), BuildingBlock: TEMPAE_clean_linker_10, # of connection points: 2
#     Edge 10, Type (0, 0), BuildingBlock: TEMPAE_clean_linker_10, # of connection points: 2
#     Edge 11, Type (0, 0), BuildingBlock: TEMPAE_clean_linker_10, # of connection points: 2
#     Edge 12, Type (0, 0), BuildingBlock: TEMPAE_clean_linker_10, # of connection points: 2
#     Edge 13, Type (0, 0), BuildingBlock: TEMPAE_clean_linker_10, # of connection points: 2
#     Edge 14, Type (0, 0), BuildingBlock: TEMPAE_clean_linker_10, # of connection points: 2
#     Edge 15, Type (0, 0), BuildingBlock: TEMPAE_clean_linker_10, # of connection points: 2
#     Edge 16, Type (0, 0), BuildingBlock: TEMPAE_clean_linker_10, # of connection points: 2
#     Edge 17, Type (0, 0), BuildingBlock: TEMPAE_clean_linker_10, # of connection points: 2
#     Edge 18, Type (0, 0), BuildingBlock: TEMPAE_clean_linker_10, # of connection points: 2
#     Edge 19, Type (0, 0), BuildingBlock: TEMPAE_clean_linker_10, # of connection points: 2
#     Edge 20, Type (0, 0), BuildingBlock: TEMPAE_clean_linker_10, # of connection points: 2
#     Edge 21, Type (0, 0), BuildingBlock: TEMPAE_clean_linker_10, # of connection points: 2
#     Edge 22, Type (0, 0), BuildingBlock: TEMPAE_clean_linker_10, # of connection points: 2
#     Edge 23, Type (0, 0), BuildingBlock: TEMPAE_clean_linker_10, # of connection points: 2
#     Edge 24, Type (0, 0), BuildingBlock: TEMPAE_clean_linker_10, # of connection points: 2
#     Edge 25, Type (0, 0), BuildingBlock: TEMPAE_clean_linker_10, # of connection points: 2
#     Edge 26, Type (0, 0), BuildingBlock: TEMPAE_clean_linker_10, # of connection points: 2
#     Edge 27, Type (0, 0), BuildingBlock: TEMPAE_clean_linker_10, # of connection points: 2
# Relax obj value: 0.032
# Max RMSD: 0.085
# Mean RMSD: 0.085
data_MOF--net-vmb--node1-BEQFEK_clean_sbu_0--edge1-TEMPAE_clean_linker_10
_symmetry_space_group_name_H-M    P1
_symmetry_Int_Tables_number       1
_symmetry_cell_setting            triclinic
loop_
_symmetry_equiv_pos_as_xyz
'x, y, z'
_cell_length_a     42.044486
_cell_length_b     38.65291
_cell_length_c     30.076785
_cell_angle_alpha  89.975837
_cell_angle_beta   112.9961
_cell_angle_gamma 90.028177
loop_
_atom_site_label
_atom_site_type_symbol
_atom_site_fract_x
_atom_site_fract_y
_atom_site_fract_z
_atom_type_partial_charge
Co0 Co 0.20434 0.0676 0.36681 0.0
Co1 Co 0.28534 0.0738 0.40739 0.0
C2 C 0.2494 0.02695 0.45285 0.0
O3 O 0.21971 0.03407 0.42084 0.0
O4 O 0.27677 0.04066 0.45211 0.0
C5 C 0.13393 0.05893 0.35364 0.0
O6 O 0.14751 0.05844 0.40109 0.0
C7 C 0.35765 0.05183 0.43829 0.0
C8 C 0.3832 0.10041 0.43167 0.0
C9 C 0.38953 0.06585 0.44433 0.0
N10 N 0.33376 0.07697 0.42294 0.0
N11 N 0.34922 0.10599 0.41934 0.0
C12 C 0.34924 0.01479 0.44331 0.0
H13 H 0.32202 0.00916 0.41929 0.0
H14 H 0.36682 0.99723 0.43448 0.0
H15 H 0.35232 0.00996 0.48115 0.0
C16 C 0.21512 0.05334 0.27694 0.0
N17 N 0.22731 0.06015 0.3246 0.0
N18 N 0.26128 0.06154 0.34173 0.0
C19 C 0.27178 0.05534 0.30549 0.0
C20 C 0.24289 0.05008 0.26331 0.0
C21 C 0.17762 0.04925 0.24558 0.0
H22 H 0.16632 0.02877 0.26082 0.0
H23 H 0.17358 0.04236 0.20795 0.0
H24 H 0.16391 0.07377 0.2456 0.0
O25 O 0.21332 0.11482 0.39487 0.0
O26 O 0.27035 0.11987 0.41931 0.0
H27 H 0.311 0.05191 0.27556 0.0
H28 H 0.32333 0.03566 0.33638 0.0
C29 C 0.30865 0.05607 0.31065 0.0
H30 H 0.32021 0.08145 0.32548 0.0
H31 H 0.33648 0.12953 0.40791 0.0
O32 O 0.15373 0.06255 0.33105 0.0
C33 C 0.24106 0.13231 0.4139 0.0
Co34 Co 0.80593 0.07341 0.13255 0.0
Co35 Co 0.72455 0.07218 0.09161 0.0
C36 C 0.76415 0.02784 0.04926 0.0
O37 O 0.79288 0.03886 0.08002 0.0
O38 O 0.73548 0.03834 0.0496 0.0
C39 C 0.87496 0.04564 0.17305 0.0
O40 O 0.85942 0.01627 0.1554 0.0
C41 C 0.65296 0.04666 0.06168 0.0
C42 C 0.62606 0.09401 0.06932 0.0
C43 C 0.62077 0.0594 0.05657 0.0
N44 N 0.67604 0.07261 0.07669 0.0
N45 N 0.65972 0.10086 0.08085 0.0
C46 C 0.66239 0.01011 0.05595 0.0
H47 H 0.68985 0.00516 0.0795 0.0
H48 H 0.64552 0.99166 0.06489 0.0
H49 H 0.65908 0.00587 0.01791 0.0
C50 C 0.79631 0.05908 0.2235 0.0
N51 N 0.78368 0.0646 0.17545 0.0
N52 N 0.74972 0.06289 0.15818 0.0
C53 C 0.7397 0.05577 0.19466 0.0
C54 C 0.76886 0.05325 0.23717 0.0
C55 C 0.83398 0.05809 0.25516 0.0
H56 H 0.84599 0.03563 0.24476 0.0
H57 H 0.83844 0.05566 0.29388 0.0
H58 H 0.84668 0.08191 0.24956 0.0
O59 O 0.79319 0.11933 0.10185 0.0
O60 O 0.73587 0.11901 0.07562 0.0
H61 H 0.70076 0.04741 0.2242 0.0
H62 H 0.69012 0.0316 0.16349 0.0
C63 C 0.70288 0.05272 0.18921 0.0
H64 H 0.68913 0.07719 0.17424 0.0
H65 H 0.67171 0.12476 0.09219 0.0
O66 O 0.85693 0.07291 0.16767 0.0
C67 C 0.76404 0.13401 0.08078 0.0
Co68 Co 0.80591 0.9207 0.63521 0.0
Co69 Co 0.72506 0.93076 0.59011 0.0
C70 C 0.76922 0.9698 0.5518 0.0
O71 O 0.79595 0.95465 0.58167 0.0
O72 O 0.73941 0.96411 0.55183 0.0
C73 C 0.87455 0.94664 0.68621 0.0
O74 O 0.85841 0.97605 0.68431 0.0
C75 C 0.65403 0.95967 0.56081 0.0
C76 C 0.62427 0.91138 0.55379 0.0
C77 C 0.62078 0.94693 0.54888 0.0
N78 N 0.67614 0.93275 0.57256 0.0
N79 N 0.65808 0.90405 0.56835 0.0
C80 C 0.6643 0.99649 0.55833 0.0
H81 H 0.69036 -0.00194 0.5576 0.0
H82 H 0.66482 0.01062 0.59067 0.0
H83 H 0.64516 0.00936 0.52592 0.0
C84 C 0.79449 0.9354 0.72532 0.0
N85 N 0.78318 0.93211 0.67692 0.0
N86 N 0.7495 0.93718 0.65773 0.0
C87 C 0.73857 0.94454 0.69325 0.0
C88 C 0.76665 0.94359 0.73702 0.0
C89 C 0.8311 0.93036 0.75986 0.0
H90 H 0.84345 0.90965 0.74668 0.0
H91 H 0.84559 0.95478 0.76257 0.0
H92 H 0.83245 0.92364 0.79643 0.0
O93 O 0.7905 0.87477 0.60618 0.0
O94 O 0.73394 0.884 0.57054 0.0
H95 H 0.68563 0.92883 0.66695 0.0
H96 H 0.6989 0.95548 0.72046 0.0
C97 C 0.70178 0.95121 0.68574 0.0
H98 H 0.69238 0.97437 0.66263 0.0
H99 H 0.66886 0.87931 0.57498 0.0
O100 O 0.85704 0.91945 0.669 0.0
C101 C 0.76021 0.86467 0.57946 0.0
Co102 Co 0.20355 0.91934 0.86453 0.0
Co103 Co 0.28457 0.92734 0.90915 0.0
C104 C 0.24185 0.96787 0.948 0.0
O105 O 0.21485 0.9529 0.91848 0.0
O106 O 0.27149 0.96191 0.94745 0.0
C107 C 0.13499 0.94629 0.81377 0.0
O108 O 0.15125 0.97542 0.81435 0.0
C109 C 0.35622 0.95404 0.94167 0.0
C110 C 0.3843 0.90638 0.93836 0.0
C111 C 0.38892 0.9412 0.9498 0.0
N112 N 0.33336 0.92794 0.92567 0.0
N113 N 0.35036 0.89958 0.92386 0.0
C114 C 0.34684 0.98955 0.95228 0.0
H115 H 0.33541 0.98763 0.97974 0.0
H116 H 0.32684 0.00065 0.9191 0.0
H117 H 0.36952 0.00701 0.96623 0.0
C118 C 0.21471 0.93461 0.77432 0.0
N119 N 0.22616 0.9304 0.82259 0.0
N120 N 0.26005 0.93385 0.84152 0.0
C121 C 0.2711 0.94054 0.80593 0.0
C122 C 0.24278 0.94118 0.76232 0.0
C123 C 0.17795 0.93043 0.73986 0.0
H124 H 0.16494 0.91046 0.75325 0.0
H125 H 0.16425 0.95539 0.73669 0.0
H126 H 0.17645 0.92306 0.70341 0.0
O127 O 0.218 0.87302 0.89292 0.0
O128 O 0.2747 0.88114 0.92918 0.0
H129 H 0.32314 0.92311 0.82683 0.0
H130 H 0.31055 0.9557 0.78006 0.0
C131 C 0.30797 0.94715 0.81371 0.0
H132 H 0.31882 0.96738 0.84166 0.0
H133 H 0.33876 0.87547 0.91291 0.0
O134 O 0.15233 0.91913 0.8316 0.0
C135 C 0.24799 0.86238 0.91992 0.0
Co136 Co 0.70174 0.57172 0.3667 0.0
Co137 Co 0.78289 0.57554 0.40455 0.0
C138 C 0.74743 0.52966 0.45126 0.0
O139 O 0.71766 0.53777 0.42029 0.0
O140 O 0.77483 0.54257 0.44962 0.0
C141 C 0.63472 0.53977 0.32029 0.0
O142 O 0.65254 0.51139 0.32289 0.0
C143 C 0.85493 0.55236 0.43428 0.0
C144 C 0.88064 0.60007 0.42493 0.0
C145 C 0.8868 0.56575 0.43902 0.0
N146 N 0.83121 0.57764 0.4183 0.0
N147 N 0.84679 0.60614 0.41307 0.0
C148 C 0.84636 0.51571 0.44126 0.0
H149 H 0.8191 0.50993 0.41765 0.0
H150 H 0.86378 0.49745 0.43322 0.0
H151 H 0.84952 0.51206 0.47936 0.0
C152 C 0.71051 0.55869 0.27402 0.0
N153 N 0.72318 0.56424 0.32213 0.0
N154 N 0.75721 0.56391 0.33887 0.0
C155 C 0.76715 0.55723 0.30223 0.0
C156 C 0.73795 0.55382 0.26009 0.0
C157 C 0.67293 0.55789 0.24193 0.0
H158 H 0.66247 0.53181 0.24358 0.0
H159 H 0.6688 0.56322 0.20382 0.0
H160 H 0.65865 0.57722 0.25422 0.0
O161 O 0.71263 0.6185 0.39558 0.0
O162 O 0.7696 0.62205 0.41817 0.0
H163 H 0.80586 0.54953 0.27216 0.0
H164 H 0.81782 0.53546 0.33391 0.0
C165 C 0.80392 0.55556 0.30707 0.0
H166 H 0.8166 0.5808 0.32026 0.0
H167 H 0.83421 0.62967 0.40095 0.0
O168 O 0.65055 0.5681 0.33575 0.0
C169 C 0.74087 0.63524 0.41406 0.0
Co170 Co 0.30662 0.56915 0.13076 0.0
Co171 Co 0.22542 0.57152 0.09355 0.0
C172 C 0.26121 0.52632 0.04674 0.0
O173 O 0.2909 0.53506 0.07736 0.0
O174 O 0.23366 0.53866 0.0486 0.0
C175 C 0.37401 0.53811 0.17746 0.0
O176 O 0.35652 0.50968 0.17608 0.0
C177 C 0.15358 0.5475 0.06421 0.0
C178 C 0.1277 0.59466 0.07482 0.0
C179 C 0.12171 0.56045 0.06016 0.0
N180 N 0.17714 0.57293 0.08037 0.0
N181 N 0.16145 0.6011 0.08634 0.0
C182 C 0.16229 0.51109 0.05635 0.0
H183 H 0.18957 0.5053 0.07985 0.0
H184 H 0.14494 0.49246 0.06391 0.0
H185 H 0.15917 0.50804 0.01818 0.0
C186 C 0.29855 0.55609 0.22394 0.0
N187 N 0.2856 0.56132 0.17574 0.0
N188 N 0.25159 0.56028 0.15925 0.0
C189 C 0.24196 0.55336 0.19611 0.0
C190 C 0.27132 0.5506 0.23816 0.0
C191 C 0.33617 0.55627 0.25588 0.0
H192 H 0.34711 0.53026 0.25532 0.0
H193 H 0.34026 0.56233 0.29378 0.0
H194 H 0.35002 0.57552 0.24273 0.0
O195 O 0.29493 0.61578 0.10171 0.0
O196 O 0.23793 0.61826 0.07929 0.0
H197 H 0.20359 0.54425 0.22645 0.0
H198 H 0.19159 0.53084 0.16442 0.0
C199 C 0.20529 0.55085 0.19155 0.0
H200 H 0.19222 0.57599 0.17887 0.0
H201 H 0.17389 0.62466 0.09875 0.0
O202 O 0.35787 0.56615 0.16118 0.0
C203 C 0.2664 0.632 0.08316 0.0
Co204 Co 0.30274 0.41808 0.63356 0.0
Co205 Co 0.22164 0.42753 0.58747 0.0
C206 C 0.26681 0.46635 0.5496 0.0
O207 O 0.29354 0.45145 0.57983 0.0
O208 O 0.2369 0.46057 0.54934 0.0
C209 C 0.37291 0.4419 0.67421 0.0
O210 O 0.35867 0.47134 0.65455 0.0
C211 C 0.15083 0.45722 0.55752 0.0
C212 C 0.1205 0.40929 0.55016 0.0
C213 C 0.11738 0.44488 0.54531 0.0
N214 N 0.17264 0.43006 0.56934 0.0
N215 N 0.15425 0.40157 0.56492 0.0
C216 C 0.16164 0.49389 0.55547 0.0
H217 H 0.18736 0.49504 0.55352 0.0
H218 H 0.16329 0.50765 0.58866 0.0
H219 H 0.14229 0.50742 0.52391 0.0
C220 C 0.2913 0.43606 0.72194 0.0
N221 N 0.2796 0.43082 0.67392 0.0
N222 N 0.2457 0.43392 0.65509 0.0
C223 C 0.23477 0.4407 0.69077 0.0
C224 C 0.26328 0.44233 0.73413 0.0
C225 C 0.32847 0.43388 0.75555 0.0
H226 H 0.33958 0.40915 0.74956 0.0
H227 H 0.34294 0.45532 0.74747 0.0
H228 H 0.33165 0.43561 0.7939 0.0
O229 O 0.28699 0.37189 0.60492 0.0
O230 O 0.2304 0.38074 0.56858 0.0
H231 H 0.18252 0.42285 0.66528 0.0
H232 H 0.19488 0.45028 0.7181 0.0
C233 C 0.1978 0.44589 0.68344 0.0
H234 H 0.18737 0.46858 0.6597 0.0
H235 H 0.16474 0.37672 0.5716 0.0
O236 O 0.35364 0.41576 0.67049 0.0
C237 C 0.2568 0.36153 0.57811 0.0
Co238 Co 0.70306 0.42262 0.86263 0.0
Co239 Co 0.78451 0.4288 0.90939 0.0
C240 C 0.74077 0.46959 0.94754 0.0
O241 O 0.71352 0.45592 0.91666 0.0
O242 O 0.77051 0.46246 0.94812 0.0
C243 C 0.6324 0.42528 0.84812 0.0
O244 O 0.64624 0.4263 0.89555 0.0
C245 C 0.85639 0.45588 0.94023 0.0
C246 C 0.88497 0.40702 0.94574 0.0
C247 C 0.88937 0.44246 0.95168 0.0
N248 N 0.83363 0.42948 0.92771 0.0
N249 N 0.85099 0.40043 0.93109 0.0
C250 C 0.84692 0.49284 0.94351 0.0
H251 H 0.82157 0.49474 0.94647 0.0
H252 H 0.84508 0.50677 0.91035 0.0
H253 H 0.86704 0.50568 0.97498 0.0
C254 C 0.71547 0.43972 0.77493 0.0
N255 N 0.72692 0.43414 0.82283 0.0
N256 N 0.76089 0.43606 0.84183 0.0
C257 C 0.77213 0.4424 0.80633 0.0
C258 C 0.74373 0.44497 0.76288 0.0
C259 C 0.67822 0.4386 0.74137 0.0
H260 H 0.66688 0.41352 0.74565 0.0
H261 H 0.66403 0.45942 0.75128 0.0
H262 H 0.67488 0.44182 0.70314 0.0
O263 O 0.71659 0.37588 0.89062 0.0
O264 O 0.77354 0.38241 0.92723 0.0
H265 H 0.82375 0.42289 0.8311 0.0
H266 H 0.81252 0.45163 0.77973 0.0
C267 C 0.8093 0.44661 0.81404 0.0
H268 H 0.82045 0.46857 0.83892 0.0
H269 H 0.83961 0.37597 0.92366 0.0
O270 O 0.65217 0.42327 0.82524 0.0
C271 C 0.74632 0.36433 0.91735 0.0
C272 C 0.20997 0.98511 0.99921 0.0
C273 C 0.23925 0.98848 0.98798 0.0
C274 C 0.20948 -0.0012 0.04207 0.0
C275 C 0.23869 0.01693 0.07405 0.0
C276 C 0.26724 0.02278 0.06116 0.0
C277 C 0.26733 0.00819 0.01844 0.0
C278 C 0.17867 0.99164 0.05471 0.0
C279 C 0.29848 0.0428 0.09375 0.0
C280 C 0.22769 0.06557 0.17699 0.0
C281 C 0.2421 0.04211 0.21504 0.0
C282 C 0.22718 0.05823 0.13098 0.0
C283 C 0.24075 0.02638 0.123 0.0
C284 C 0.25529 0.00265 0.16162 0.0
C285 C 0.25608 0.011 0.20738 0.0
C286 C 0.21212 0.08442 0.09097 0.0
C287 C 0.26948 0.96816 0.15444 0.0
H288 H 0.18811 0.96995 0.97595 0.0
H289 H 0.2899 0.01124 0.00979 0.0
H290 H 0.18634 0.9736 0.08586 0.0
H291 H 0.16954 0.01581 0.06571 0.0
H292 H 0.15683 0.97994 0.02413 0.0
H293 H 0.31619 0.04923 0.07555 0.0
H294 H 0.29047 0.06714 0.10598 0.0
H295 H 0.31296 0.02722 0.12641 0.0
H296 H 0.21713 0.08975 0.18343 0.0
H297 H 0.26717 0.993 0.23713 0.0
H298 H 0.18921 0.07332 0.0615 0.0
H299 H 0.23128 0.09091 0.07529 0.0
H300 H 0.20422 0.10864 0.10374 0.0
H301 H 0.24888 0.95303 0.12642 0.0
H302 H 0.27975 0.95263 0.18819 0.0
H303 H 0.29052 0.97214 0.14142 0.0
C304 C 0.75836 0.01269 0.29397 0.0
C305 C 0.77026 0.04482 0.28568 0.0
C306 C 0.75938 0.00406 0.33977 0.0
C307 C 0.7722 0.02843 0.37787 0.0
C308 C 0.78396 0.06115 0.36939 0.0
C309 C 0.78307 0.06888 0.32327 0.0
C310 C 0.74699 0.96874 0.34746 0.0
C311 C 0.79732 0.08793 0.4089 0.0
C312 C 0.74377 0.00917 0.48037 0.0
C313 C 0.77221 0.99054 0.51214 0.0
C314 C 0.74424 0.02371 0.43785 0.0
C315 C 0.77366 0.01909 0.42659 0.0
C316 C 0.80322 0.00222 0.45994 0.0
C317 C 0.80224 0.98838 0.5025 0.0
C318 C 0.71248 0.0422 0.40364 0.0
C319 C 0.83504 0.99659 0.44915 0.0
H320 H 0.74853 0.99421 0.26461 0.0
H321 H 0.79203 0.09383 0.31637 0.0
H322 H 0.76812 0.9548 0.37636 0.0
H323 H 0.72531 0.97142 0.35949 0.0
H324 H 0.73815 0.9527 0.31416 0.0
H325 H 0.80487 0.11235 0.39612 0.0
H326 H 0.77722 0.09385 0.42312 0.0
H327 H 0.82007 0.07766 0.43944 0.0
H328 H 0.72058 0.01128 0.48775 0.0
H329 H 0.8244 0.9741 0.52681 0.0
H330 H 0.69946 0.02599 0.37113 0.0
H331 H 0.71972 0.06696 0.39138 0.0
H332 H 0.69374 0.04768 0.42048 0.0
H333 H 0.829 0.97794 0.4189 0.0
H334 H 0.85703 0.98625 0.48084 0.0
H335 H 0.8432 0.02111 0.4376 0.0
C336 C 0.76833 0.92509 0.81729 0.0
C337 C 0.76688 0.95163 0.78494 0.0
C338 C 0.76726 0.93268 0.86238 0.0
C339 C 0.76512 0.96761 0.87518 0.0
C340 C 0.76383 0.99443 0.84235 0.0
C341 C 0.76447 0.98603 0.79738 0.0
C342 C 0.76823 0.90343 0.89615 0.0
C343 C 0.76194 0.03203 0.85478 0.0
C344 C 0.73322 0.99669 0.97093 0.0
C345 C 0.76431 0.00613 0.00866 0.0
C346 C 0.73315 0.9819 0.92823 0.0
C347 C 0.76488 0.97663 0.92311 0.0
C348 C 0.79637 0.98379 0.96234 0.0
C349 C 0.79571 -0.00172 0.00469 0.0
C350 C 0.69903 0.97402 0.88748 0.0
C351 C 0.83076 0.97851 0.95838 0.0
H352 H 0.7699 0.89846 0.80702 0.0
H353 H 0.76322 0.00636 0.77188 0.0
H354 H 0.79104 0.90627 0.93064 0.0
H355 H 0.74495 0.90439 0.90491 0.0
H356 H 0.7694 0.87769 0.88045 0.0
H357 H 0.7614 0.04969 0.82534 0.0
H358 H 0.73842 0.03661 0.86216 0.0
H359 H 0.78456 0.03877 0.88808 0.0
H360 H 0.70882 0.00231 0.97374 0.0
H361 H 0.81993 0.00514 0.03374 0.0
H362 H 0.69965 0.94808 0.87207 0.0
H363 H 0.69416 0.99323 0.85812 0.0
H364 H 0.67714 0.97496 0.89939 0.0
H365 H 0.83212 0.95244 0.94386 0.0
H366 H 0.85283 0.98154 0.99374 0.0
H367 H 0.83367 -0.00227 0.9328 0.0
C368 C 0.22592 0.97843 0.68949 0.0
C369 C 0.24252 0.94873 0.71418 0.0
C370 C 0.22766 0.98759 0.64538 0.0
C371 C 0.24575 0.96598 0.62513 0.0
C372 C 0.26142 0.93515 0.64923 0.0
C373 C 0.25999 0.92711 0.69395 0.0
C374 C 0.21112 0.02098 0.62128 0.0
C375 C 0.28009 0.91102 0.62815 0.0
C376 C 0.22411 0.98437 0.49263 0.0
C377 C 0.25145 0.00619 0.49523 0.0
C378 C 0.22304 0.96915 0.53441 0.0
C379 C 0.24945 0.97672 0.57991 0.0
C380 C 0.27795 0.99734 0.58245 0.0
C381 C 0.27883 0.01146 0.53997 0.0
C382 C 0.19278 0.94639 0.53009 0.0
C383 C 0.30636 0.0065 0.63032 0.0
H384 H 0.21255 0.99507 0.70555 0.0
H385 H 0.27263 0.90402 0.71328 0.0
H386 H 0.23108 0.03837 0.61793 0.0
H387 H 0.19195 0.01576 0.58424 0.0
H388 H 0.19792 0.03474 0.64169 0.0
H389 H 0.28835 0.88676 0.64939 0.0
H390 H 0.26318 0.9043 0.5904 0.0
H391 H 0.3033 0.92404 0.62712 0.0
H392 H 0.20301 0.98 0.45807 0.0
H393 H 0.29995 0.02845 0.54229 0.0
H394 H 0.17576 0.96028 0.54448 0.0
H395 H 0.20185 0.92248 0.55181 0.0
H396 H 0.17721 0.93905 0.49202 0.0
H397 H 0.29564 0.02292 0.65142 0.0
H398 H 0.32789 0.02075 0.62587 0.0
H399 H 0.31692 0.98283 0.65186 0.0
C400 C 0.72612 0.56975 0.17473 0.0
C401 C 0.73668 0.54514 0.21178 0.0
C402 C 0.72609 0.56188 0.12911 0.0
C403 C 0.73648 0.52852 0.12061 0.0
C404 C 0.74698 0.50359 0.15816 0.0
C405 C 0.7472 0.51235 0.20348 0.0
C406 C 0.71522 0.58923 0.0902 0.0
C407 C 0.75782 0.46759 0.15042 0.0
C408 C 0.70728 0.48994 0.99526 0.0
C409 C 0.73806 0.49033 0.98737 0.0
C410 C 0.70591 0.50386 0.03751 0.0
C411 C 0.73588 0.51908 0.07238 0.0
C412 C 0.76628 0.5219 0.06302 0.0
C413 C 0.7671 0.50726 0.02075 0.0
C414 C 0.67307 0.50007 0.04628 0.0
C415 C 0.79855 0.53863 0.09891 0.0
H416 H 0.71833 0.59522 0.18172 0.0
H417 H 0.75545 0.49351 0.23253 0.0
H418 H 0.73641 0.59403 0.07767 0.0
H419 H 0.69257 0.58011 0.05852 0.0
H420 H 0.70843 0.61405 0.1029 0.0
H421 H 0.76484 0.45119 0.18322 0.0
H422 H 0.73653 0.45479 0.12036 0.0
H423 H 0.78037 0.469 0.14003 0.0
H424 H 0.68464 0.47701 0.96971 0.0
H425 H 0.7909 0.50799 0.01476 0.0
H426 H 0.66576 0.52509 0.05765 0.0
H427 H 0.67736 0.48133 0.07604 0.0
H428 H 0.65112 0.49073 0.01372 0.0
H429 H 0.79228 0.56383 0.11119 0.0
H430 H 0.81834 0.5429 0.08353 0.0
H431 H 0.80988 0.52182 0.1312 0.0
C432 C 0.26292 0.50896 0.29526 0.0
C433 C 0.27295 0.54191 0.28665 0.0
C434 C 0.26316 0.50026 0.34061 0.0
C435 C 0.27325 0.52538 0.3779 0.0
C436 C 0.28332 0.55884 0.36916 0.0
C437 C 0.28322 0.56667 0.32348 0.0
C438 C 0.25262 0.46418 0.34859 0.0
C439 C 0.2938 0.58635 0.40782 0.0
C440 C 0.24133 0.50419 0.47643 0.0
C441 C 0.27012 0.48719 0.51022 0.0
C442 C 0.24266 0.51885 0.43448 0.0
C443 C 0.27338 0.51612 0.42594 0.0
C444 C 0.30316 0.50099 0.46134 0.0
C445 C 0.30124 0.48692 0.50319 0.0
C446 C 0.21056 0.5354 0.39796 0.0
C447 C 0.33637 0.49745 0.45351 0.0
H448 H 0.25491 0.49001 0.26638 0.0
H449 H 0.29063 0.59226 0.31625 0.0
H450 H 0.27388 0.45169 0.37906 0.0
H451 H 0.22984 0.4654 0.35849 0.0
H452 H 0.24606 0.44759 0.31606 0.0
H453 H 0.30093 0.61106 0.39519 0.0
H454 H 0.27226 0.59136 0.41953 0.0
H455 H 0.31612 0.5773 0.44001 0.0
H456 H 0.21728 0.50487 0.48175 0.0
H457 H 0.32372 0.47402 0.52914 0.0
H458 H 0.19963 0.51849 0.36571 0.0
H459 H 0.2169 0.56061 0.38576 0.0
H460 H 0.19042 0.53962 0.41272 0.0
H461 H 0.33267 0.47843 0.42427 0.0
H462 H 0.35816 0.48857 0.48659 0.0
H463 H 0.34356 0.52245 0.44187 0.0
C464 C 0.22956 0.50741 0.96135 0.0
C465 C 0.25903 0.50536 0.00447 0.0
C466 C 0.22954 0.49349 0.91828 0.0
C467 C 0.25945 0.47647 0.9186 0.0
C468 C 0.28826 0.47195 0.96273 0.0
C469 C 0.28785 0.48676 0.0051 0.0
C470 C 0.19843 0.49919 0.87187 0.0
C471 C 0.32026 0.45314 0.96475 0.0
C472 C 0.25037 0.42636 0.80555 0.0
C473 C 0.26368 0.45014 0.78221 0.0
C474 C 0.24965 0.43411 0.85076 0.0
C475 C 0.26182 0.46668 0.87221 0.0
C476 C 0.27548 0.49065 0.84858 0.0
C477 C 0.27656 0.48188 0.80397 0.0
C478 C 0.23565 0.40765 0.87534 0.0
C479 C 0.28824 0.52585 0.86988 0.0
H480 H 0.2072 0.52178 0.96051 0.0
H481 H 0.31059 0.48478 0.03842 0.0
H482 H 0.20532 0.51735 0.84845 0.0
H483 H 0.19024 0.47456 0.85172 0.0
H484 H 0.17618 0.51013 0.87834 0.0
H485 H 0.33829 0.44763 0.00246 0.0
H486 H 0.31321 0.42837 0.9446 0.0
H487 H 0.33403 0.46914 0.9473 0.0
H488 H 0.24055 0.40175 0.78835 0.0
H489 H 0.28674 0.50013 0.78546 0.0
H490 H 0.21207 0.41782 0.87882 0.0
H491 H 0.25488 0.40252 0.9124 0.0
H492 H 0.22912 0.38282 0.85518 0.0
H493 H 0.26701 0.5403 0.87471 0.0
H494 H 0.29793 0.54147 0.84678 0.0
H495 H 0.30937 0.52302 0.90606 0.0
C496 C 0.72947 0.48389 0.69208 0.0
C497 C 0.74368 0.45282 0.71493 0.0
C498 C 0.73083 0.49278 0.64766 0.0
C499 C 0.74621 0.46963 0.62534 0.0
C500 C 0.75975 0.43768 0.64784 0.0
C501 C 0.75862 0.4298 0.69279 0.0
C502 C 0.71654 0.52731 0.6252 0.0
C503 C 0.77566 0.41207 0.62468 0.0
C504 C 0.72156 0.48876 0.49241 0.0
C505 C 0.74976 0.50876 0.49366 0.0
C506 C 0.72104 0.47381 0.53466 0.0
C507 C 0.74903 0.47969 0.57929 0.0
C508 C 0.77836 0.49822 0.58034 0.0
C509 C 0.77854 0.5122 0.53738 0.0
C510 C 0.68973 0.45335 0.5319 0.0
C511 C 0.80854 0.50544 0.62728 0.0
H512 H 0.71803 0.50159 0.70962 0.0
H513 H 0.76944 0.40567 0.71074 0.0
H514 H 0.73731 0.54292 0.62088 0.0
H515 H 0.69609 0.52344 0.58868 0.0
H516 H 0.70547 0.54229 0.64726 0.0
H517 H 0.78306 0.38753 0.64545 0.0
H518 H 0.75724 0.40609 0.58741 0.0
H519 H 0.79903 0.42346 0.62193 0.0
H520 H 0.69937 0.48574 0.45863 0.0
H521 H 0.80039 0.5277 0.53869 0.0
H522 H 0.67468 0.46854 0.54823 0.0
H523 H 0.69769 0.42892 0.5527 0.0
H524 H 0.67257 0.44702 0.49406 0.0
H525 H 0.80017 0.52307 0.64976 0.0
H526 H 0.83055 0.51764 0.62147 0.0
H527 H 0.8177 0.4812 0.64809 0.0
C528 C 0.55832 0.95172 0.49613 0.0
C529 C 0.58761 0.96586 0.53262 0.0
C530 C 0.52615 0.96829 0.48116 0.0
C531 C 0.52313 -0.0005 0.50379 0.0
C532 C 0.55262 0.01386 0.5408 0.0
C533 C 0.58456 0.99684 0.55479 0.0
C534 C 0.49537 0.95229 0.44133 0.0
C535 C 0.55029 0.04687 0.56618 0.0
C536 C 0.44637 0.05777 0.43791 0.0
C537 C 0.42351 0.04856 0.45958 0.0
C538 C 0.4789 0.04202 0.45195 0.0
C539 C 0.48896 0.01682 0.48904 0.0
C540 C 0.46617 0.00781 0.51159 0.0
C541 C 0.43369 0.02383 0.49658 0.0
C542 C 0.50239 0.05215 0.42685 0.0
C543 C 0.47615 0.98135 0.55168 0.0
H544 H 0.56062 0.92768 0.47905 0.0
H545 H 0.60684 0.00726 0.58408 0.0
H546 H 0.47512 0.94589 0.45506 0.0
H547 H 0.48395 0.97106 0.41135 0.0
H548 H 0.50225 0.92835 0.42669 0.0
H549 H 0.57576 0.05499 0.59359 0.0
H550 H 0.53996 0.06807 0.53952 0.0
H551 H 0.53208 0.04333 0.58436 0.0
H552 H 0.43859 0.07702 0.40942 0.0
H553 H 0.41657 0.01745 0.5145 0.0
H554 H 0.50835 0.02911 0.4095 0.0
H555 H 0.52727 0.06206 0.45361 0.0
H556 H 0.49074 0.0723 0.39882 0.0
H557 H 0.48151 0.95612 0.53843 0.0
H558 H 0.45562 0.97754 0.56583 0.0
H559 H 0.50021 0.98953 0.58189 0.0
C560 C 0.42606 0.99074 0.94596 0.0
C561 C 0.42246 0.95942 0.96695 0.0
C562 C 0.45835 0.00715 0.96038 0.0
C563 C 0.48764 0.99176 0.99658 0.0
C564 C 0.48405 0.96009 0.01784 0.0
C565 C 0.45153 0.94415 0.00242 0.0
C566 C 0.46122 0.04068 0.93645 0.0
C567 C 0.51458 0.94302 0.05677 0.0
C568 C 0.57717 0.01677 0.00441 0.0
C569 C 0.58731 0.04108 0.04193 0.0
C570 C 0.54477 0.0005 0.98923 0.0
C571 C 0.52207 0.00875 0.01222 0.0
C572 C 0.53224 0.03325 0.05019 0.0
C573 C 0.56464 0.04931 0.06432 0.0
C574 C 0.53465 0.97481 0.9482 0.0
C575 C 0.50891 0.04251 0.07587 0.0
H576 H 0.40376 0.00198 0.91744 0.0
H577 H 0.44874 0.91974 0.01832 0.0
H578 H 0.47156 0.06131 0.964 0.0
H579 H 0.47965 0.03758 0.91855 0.0
H580 H 0.43596 0.04932 0.90909 0.0
H581 H 0.50731 0.9187 0.07016 0.0
H582 H 0.53472 0.93699 0.04271 0.0
H583 H 0.52629 0.96097 0.0877 0.0
H584 H 0.59416 0.0111 0.98603 0.0
H585 H 0.57239 0.0682 0.09326 0.0
H586 H 0.51089 0.98373 0.91807 0.0
H587 H 0.5287 0.9494 0.96029 0.0
H588 H 0.55532 0.97114 0.9343 0.0
H589 H 0.48425 0.05332 0.04973 0.0
H590 H 0.52089 0.06173 0.10515 0.0
H591 H 0.50247 0.01893 0.09172 0.0
C592 C 0.94342 0.5564 0.43229 0.0
C593 C 0.92069 0.54815 0.45459 0.0
C594 C 0.97587 0.54044 0.44665 0.0
C595 C 0.98601 0.51597 0.48469 0.0
C596 C 0.96337 0.50794 0.50787 0.0
C597 C 0.93097 0.52418 0.49255 0.0
C598 C 0.99921 0.54954 0.42088 0.0
C599 C 0.97341 0.48226 0.54892 0.0
C600 C 0.05479 0.44977 0.49306 0.0
C601 C 0.08433 0.46412 0.52887 0.0
C602 C 0.02273 0.46658 0.47797 0.0
C603 C 0.02006 0.49832 0.49968 0.0
C604 C 0.0498 0.51292 0.53598 0.0
C605 C 0.08161 0.49561 0.55018 0.0
C606 C 0.99169 0.45027 0.43896 0.0
C607 C 0.04787 0.54654 0.56035 0.0
H608 H 0.93559 0.57508 0.40307 0.0
H609 H 0.914 0.51857 0.51099 0.0
H610 H 0.02423 0.55958 0.44711 0.0
H611 H 0.00488 0.52601 0.40418 0.0
H612 H 0.98757 0.56928 0.39223 0.0
H613 H 0.95301 0.47918 0.56347 0.0
H614 H 0.97854 0.45664 0.53651 0.0
H615 H 0.99761 0.49072 0.57865 0.0
H616 H 0.05679 0.42535 0.47662 0.0
H617 H 0.10406 0.50625 0.57896 0.0
H618 H 0.98026 0.46854 0.40835 0.0
H619 H 0.97155 0.44463 0.4532 0.0
H620 H 0.99827 0.42584 0.42506 0.0
H621 H 0.03753 0.56732 0.53301 0.0
H622 H 0.07348 0.55479 0.58724 0.0
H623 H 0.02983 0.54376 0.57894 0.0
C624 C 0.07745 0.51925 0.00586 0.0
C625 C 0.08793 0.54259 0.04458 0.0
C626 C 0.04499 0.50307 0.99022 0.0
C627 C 0.02252 0.51048 0.01388 0.0
C628 C 0.03295 0.53415 0.05287 0.0
C629 C 0.06544 0.5501 0.06751 0.0
C630 C 0.03463 0.47827 0.94815 0.0
C631 C 0.00983 0.54256 0.07921 0.0
C632 C 0.92647 0.49241 0.94799 0.0
C633 C 0.92303 0.46065 0.96816 0.0
C634 C 0.95869 0.50899 0.96259 0.0
C635 C 0.98816 0.49332 0.99805 0.0
C636 C 0.98482 0.46118 0.01839 0.0
C637 C 0.95234 0.44515 0.00298 0.0
C638 C 0.96129 0.54306 0.93968 0.0
C639 C 0.01558 0.44372 0.05642 0.0
H640 H 0.09428 0.5142 0.98702 0.0
H641 H 0.07344 0.56827 0.09735 0.0
H642 H 0.02893 0.45246 0.9594 0.0
H643 H 0.01067 0.48751 0.91866 0.0
H644 H 0.05508 0.47531 0.93367 0.0
H645 H 0.02186 0.56141 0.10896 0.0
H646 H 0.98501 0.55343 0.0536 0.0
H647 H 0.00368 0.51858 0.09454 0.0
H648 H 0.90421 0.50392 0.91987 0.0
H649 H 0.94981 0.4205 0.01849 0.0
H650 H 0.97945 0.5406 0.92123 0.0
H651 H 0.97183 0.56322 0.9679 0.0
H652 H 0.93589 0.55197 0.91296 0.0
H653 H 0.03563 0.43849 0.04188 0.0
H654 H 0.00856 0.41891 0.06893 0.0
H655 H 0.0273 0.46108 0.08802 0.0
C656 C 0.08133 0.05835 0.27632 0.0
C657 C 0.09604 0.05586 0.32688 0.0
C658 C 0.04542 0.05618 0.25066 0.0
C659 C 0.02369 0.05127 0.27614 0.0
C660 C 0.03838 0.04838 0.32711 0.0
C661 C 0.07436 0.05076 0.35186 0.0
C662 C 0.0307 0.05948 0.19631 0.0
C663 C 0.01607 0.04299 0.35553 0.0
C664 C 0.92965 0.07868 0.21633 0.0
C665 C 0.913 0.047 0.19943 0.0
C666 C 0.96565 0.08044 0.24117 0.0
C667 C 0.98551 0.04975 0.24956 0.0
C668 C 0.9689 0.01768 0.23273 0.0
C669 C 0.93285 0.01669 0.20779 0.0
C670 C 0.98243 0.11515 0.25843 0.0
C671 C 0.98921 0.9844 0.24117 0.0
H672 H 0.09786 0.06228 0.25669 0.0
H673 H 0.08548 0.04872 0.3909 0.0
H674 H 0.01524 0.03619 0.17959 0.0
H675 H 0.01304 0.08206 0.18504 0.0
H676 H 0.05113 0.06274 0.18187 0.0
H677 H 0.03156 0.04054 0.39493 0.0
H678 H 0.99797 0.06505 0.3495 0.0
H679 H 1.00019 0.01929 0.34285 0.0
H680 H 0.91455 0.10225 0.21003 0.0
H681 H 0.92023 0.99209 0.19495 0.0
H682 H 1.00168 0.12057 0.24251 0.0
H683 H 0.99651 0.1148 0.29824 0.0
H684 H 0.96335 0.13661 0.24871 0.0
H685 H 0.0086 0.98609 0.22468 0.0
H686 H 0.97241 0.96159 0.22583 0.0
H687 H 0.00357 0.98019 0.28048 0.0
C688 C 0.07986 0.923 0.81452 0.0
C689 C 0.09686 0.94536 0.79432 0.0
C690 C 0.04367 0.92291 0.79805 0.0
C691 C 0.02401 0.94489 0.75939 0.0
C692 C 0.04109 0.96694 0.73813 0.0
C693 C 0.07737 0.96733 0.75643 0.0
C694 C 0.02651 0.89975 0.82258 0.0
C695 C 0.02103 0.98998 0.69591 0.0
C696 C 0.92982 0.92109 0.68896 0.0
C697 C 0.91271 0.94549 0.70614 0.0
C698 C 0.96602 0.92084 0.70559 0.0
C699 C 0.98559 0.9449 0.74131 0.0
C700 C 0.96842 0.96906 0.75962 0.0
C701 C 0.93214 0.96941 0.74125 0.0
C702 C 0.98328 0.89526 0.68426 0.0
C703 C 0.98838 0.99448 0.79869 0.0
H704 H 0.09493 0.90624 0.84418 0.0
H705 H 0.09052 0.98445 0.7406 0.0
H706 H 0.01053 0.91554 0.8368 0.0
H707 H 0.00893 0.88127 0.79616 0.0
H708 H 0.04555 0.88483 0.8529 0.0
H709 H 0.03815 0.00441 0.68211 0.0
H710 H 1.00265 0.97424 0.66605 0.0
H711 H 0.00557 0.0089 0.70674 0.0
H712 H 0.91484 0.90278 0.66145 0.0
H713 H 0.91895 0.98816 0.75479 0.0
H714 H 1.00099 0.8783 0.71303 0.0
H715 H 0.99916 0.90929 0.66802 0.0
H716 H 0.96432 0.87874 0.65606 0.0
H717 H 0.00687 0.98043 0.83046 0.0
H718 H 0.97121 0.01049 0.81057 0.0
H719 H 0.00372 0.01194 0.78546 0.0
C720 C 0.43056 0.56018 0.18035 0.0
C721 C 0.41217 0.53773 0.19824 0.0
C722 C 0.46682 0.55988 0.19924 0.0
C723 C 0.48511 0.5374 0.23801 0.0
C724 C 0.46662 0.515 0.25664 0.0
C725 C 0.43031 0.51503 0.23597 0.0
C726 C 0.48555 0.58347 0.17747 0.0
C727 C 0.48516 0.4914 0.29889 0.0
C728 C 0.57872 0.51482 0.26351 0.0
C729 C 0.59655 0.53896 0.29935 0.0
C730 C 0.54242 0.51426 0.2428 0.0
C731 C 0.5236 0.53769 0.25945 0.0
C732 C 0.54157 0.5617 0.29629 0.0
C733 C 0.57783 0.5624 0.31525 0.0
C734 C 0.52422 0.48896 0.20263 0.0
C735 C 0.5225 0.58648 0.31595 0.0
H736 H 0.41652 0.57754 0.15088 0.0
H737 H 0.41609 0.49787 0.25008 0.0
H738 H 0.50176 0.60214 0.20499 0.0
H739 H 0.5031 0.56809 0.1656 0.0
H740 H 0.46749 0.59821 0.14603 0.0
H741 H 0.46698 0.47617 0.30981 0.0
H742 H 0.50202 0.4732 0.28964 0.0
H743 H 0.50207 0.50689 0.3303 0.0
H744 H 0.59317 0.49687 0.2509 0.0
H745 H 0.59159 0.5809 0.34327 0.0
H746 H 0.50708 0.50314 0.16996 0.0
H747 H 0.50761 0.47139 0.21341 0.0
H748 H 0.54261 0.47306 0.19303 0.0
H749 H 0.50603 0.60399 0.28685 0.0
H750 H 0.54034 0.60248 0.34605 0.0
H751 H 0.50516 0.57189 0.32912 0.0
C752 C 0.57334 0.43501 0.84717 0.0
C753 C 0.59436 0.42709 0.82202 0.0
C754 C 0.53731 0.43729 0.82316 0.0
C755 C 0.52181 0.43116 0.77281 0.0
C756 C 0.54283 0.42291 0.74722 0.0
C757 C 0.57888 0.42115 0.77209 0.0
C758 C 0.51584 0.44649 0.85166 0.0
C759 C 0.52722 0.41593 0.69357 0.0
C760 C 0.42641 0.40745 0.7194 0.0
C761 C 0.41098 0.4391 0.69962 0.0
C762 C 0.46246 0.40442 0.74293 0.0
C763 C 0.4836 0.43375 0.74695 0.0
C764 C 0.4682 0.46575 0.7271 0.0
C765 C 0.43211 0.46803 0.70364 0.0
C766 C 0.47793 0.36983 0.76357 0.0
C767 C 0.48985 0.49765 0.73083 0.0
H768 H 0.58507 0.4398 0.88571 0.0
H769 H 0.59493 0.41494 0.75241 0.0
H770 H 0.50096 0.47049 0.83695 0.0
H771 H 0.49686 0.42565 0.84816 0.0
H772 H 0.53187 0.45051 0.89062 0.0
H773 H 0.54707 0.40931 0.67912 0.0
H774 H 0.50849 0.39426 0.68563 0.0
H775 H 0.51275 0.439 0.67408 0.0
H776 H 0.41033 0.38494 0.71643 0.0
H777 H 0.42046 0.49259 0.68845 0.0
H778 H 0.49253 0.37209 0.80315 0.0
H779 H 0.49651 0.36156 0.74772 0.0
H780 H 0.45799 0.34938 0.75661 0.0
H781 H 0.50502 0.50392 0.76936 0.0
H782 H 0.47392 0.52051 0.71315 0.0
H783 H 0.50857 0.49277 0.71385 0.0
C784 C 0.22654 0.32284 0.50831 0.0
C785 C 0.25235 0.32743 0.55457 0.0
C786 C 0.22314 0.29141 0.48369 0.0
C787 C 0.24541 0.26363 0.50658 0.0
C788 C 0.27084 0.26778 0.55393 0.0
C789 C 0.27441 0.29992 0.5771 0.0
C790 C 0.19642 0.28828 0.43271 0.0
C791 C 0.2944 0.23838 0.57996 0.0
C792 C 0.21793 0.17313 0.45783 0.0
C793 C 0.23991 0.16684 0.43373 0.0
C794 C 0.21951 0.20454 0.48194 0.0
C795 C 0.2428 0.23053 0.4804 0.0
C796 C 0.26403 0.22475 0.4544 0.0
C797 C 0.26277 0.19267 0.43208 0.0
C798 C 0.19718 0.20944 0.51044 0.0
C799 C 0.28836 0.25228 0.45062 0.0
H800 H 0.2097 0.34426 0.49063 0.0
H801 H 0.29423 0.30345 0.61298 0.0
H802 H 0.20935 0.2823 0.40774 0.0
H803 H 0.17849 0.26662 0.4302 0.0
H804 H 0.18105 0.31233 0.42019 0.0
H805 H 0.31115 0.24515 0.61782 0.0
H806 H 0.27887 0.21522 0.58027 0.0
H807 H 0.31115 0.23119 0.56067 0.0
H808 H 0.20061 0.15289 0.45964 0.0
H809 H 0.2797 0.18772 0.4133 0.0
H810 H 0.18065 0.23266 0.4975 0.0
H811 H 0.2138 0.21382 0.54906 0.0
H812 H 0.18032 0.18673 0.50775 0.0
H813 H 0.27406 0.27674 0.43692 0.0
H814 H 0.30131 0.2445 0.42628 0.0
H815 H 0.30851 0.25775 0.48688 0.0
C816 C 0.72643 0.30335 0.91708 0.0
C817 C 0.74932 0.33014 0.94031 0.0
C818 C 0.72907 0.27095 0.93937 0.0
C819 C 0.75442 0.2658 0.98655 0.0
C820 C 0.77729 0.29297 0.01032 0.0
C821 C 0.77481 0.32465 0.98657 0.0
C822 C 0.70494 0.2422 0.91237 0.0
C823 C 0.80398 0.2888 0.06116 0.0
C824 C 0.73895 0.19309 0.06054 0.0
C825 C 0.76254 0.1682 0.05864 0.0
C826 C 0.73645 0.2253 0.03792 0.0
C827 C 0.75707 0.23203 0.01124 0.0
C828 C 0.7806 0.20668 0.0087 0.0
C829 C 0.78351 0.17525 0.03326 0.0
C830 C 0.71198 0.25217 0.04284 0.0
C831 C 0.80219 0.21249 0.97933 0.0
H832 H 0.70682 0.30759 0.88121 0.0
H833 H 0.79228 0.34552 0.00481 0.0
H834 H 0.72008 0.21921 0.91022 0.0
H835 H 0.68868 0.23423 0.93207 0.0
H836 H 0.68772 0.24997 0.87515 0.0
H837 H 0.81908 0.31285 0.07504 0.0
H838 H 0.79115 0.28141 0.08576 0.0
H839 H 0.82218 0.2677 0.06244 0.0
H840 H 0.72279 0.18749 0.08029 0.0
H841 H 0.80137 0.15567 0.03125 0.0
H842 H 0.69202 0.25857 0.0068 0.0
H843 H 0.72629 0.27638 0.05806 0.0
H844 H 0.69884 0.24332 0.06648 0.0
H845 H 0.78518 0.21856 0.94137 0.0
H846 H 0.8182 0.18959 0.97954 0.0
H847 H 0.81954 0.23501 0.99368 0.0
C848 C 0.76409 0.69513 0.43268 0.0
C849 C 0.74088 0.66977 0.43461 0.0
C850 C 0.76598 0.72733 0.45499 0.0
C851 C 0.74503 0.7337 0.48128 0.0
C852 C 0.7215 0.70814 0.48325 0.0
C853 C 0.71929 0.67662 0.45914 0.0
C854 C 0.79056 0.75441 0.45078 0.0
C855 C 0.69949 0.71363 0.51209 0.0
C856 C 0.77748 0.80304 0.57793 0.0
C857 C 0.75553 0.83067 0.55561 0.0
C858 C 0.77372 0.77095 0.55462 0.0
C859 C 0.74818 0.76694 0.50733 0.0
C860 C 0.72606 0.79487 0.4846 0.0
C861 C 0.72965 0.82627 0.50936 0.0
C862 C 0.7971 0.74139 0.58052 0.0
C863 C 0.69922 0.79188 0.43368 0.0
H864 H 0.7807 0.68976 0.41354 0.0
H865 H 0.70168 0.65676 0.46115 0.0
H866 H 0.77651 0.77897 0.43692 0.0
H867 H 0.81086 0.7599 0.48691 0.0
H868 H 0.80329 0.74618 0.42637 0.0
H869 H 0.68255 0.6911 0.51 0.0
H870 H 0.71633 0.71828 0.55055 0.0
H871 H 0.68305 0.73689 0.49891 0.0
H872 H 0.79736 0.80643 0.61381 0.0
H873 H 0.71291 0.8478 0.49186 0.0
H874 H 0.81352 0.73384 0.56088 0.0
H875 H 0.78142 0.71845 0.5812 0.0
H876 H 0.81417 0.74816 0.61824 0.0
H877 H 0.71196 0.78543 0.40864 0.0
H878 H 0.68423 0.81615 0.42111 0.0
H879 H 0.68096 0.77058 0.43137 0.0
C880 C 0.27678 0.82395 0.99054 0.0
C881 C 0.25186 0.82842 0.94362 0.0
C882 C 0.27983 0.79244 0.01491 0.0
C883 C 0.25819 0.76446 0.99109 0.0
C884 C 0.2335 0.7686 0.94323 0.0
C885 C 0.23021 0.80081 0.92032 0.0
C886 C 0.30571 0.78932 0.06642 0.0
C887 C 0.21069 0.739 0.91622 0.0
C888 C 0.28792 0.67428 0.03903 0.0
C889 C 0.26581 0.66663 0.06249 0.0
C890 C 0.28552 0.70597 0.01523 0.0
C891 C 0.26122 0.7309 0.01641 0.0
C892 C 0.23962 0.7237 0.04147 0.0
C893 C 0.24175 0.69133 0.06352 0.0
C894 C 0.30829 0.71237 0.98772 0.0
C895 C 0.21418 0.7501 0.04483 0.0
H896 H 0.29325 0.84548 0.00877 0.0
H897 H 0.21106 0.80429 0.88394 0.0
H898 H 0.29226 0.78196 0.09028 0.0
H899 H 0.32462 0.76858 0.06926 0.0
H900 H 0.32005 0.81381 0.08006 0.0
H901 H 0.19404 0.74602 0.87842 0.0
H902 H 0.22681 0.71641 0.91564 0.0
H903 H 0.19387 0.73075 0.93495 0.0
H904 H 0.3062 0.65494 0.03771 0.0
H905 H 0.22474 0.68537 0.08184 0.0
H906 H 0.3245 0.73565 0.00203 0.0
H907 H 0.29203 0.71747 0.94915 0.0
H908 H 0.32553 0.6901 0.98986 0.0
H909 H 0.22771 0.77474 0.05967 0.0
H910 H 0.20074 0.74115 0.06804 0.0
H911 H 0.19449 0.75574 0.00828 0.0
loop_
_geom_bond_atom_site_label_1
_geom_bond_atom_site_label_2
_geom_bond_distance
_geom_bond_site_symmetry_2
_ccdc_geom_bond_type
Co0 O3 1.970 . S
Co0 N17 1.989 . S
Co0 O25 1.967 . S
Co0 O32 1.920 . S
Co1 O4 1.966 . S
Co1 N10 2.022 . S
Co1 N18 1.993 . S
Co1 O26 1.941 . S
C2 O3 1.258 . S
C2 O4 1.263 . S
O3 Co0 1.970 . S
O3 C2 1.258 . S
O4 Co1 1.966 . S
O4 C2 1.263 . S
C5 O6 1.235 . S
C5 O32 1.289 . S
O6 C5 1.235 . S
C7 C9 1.400 . S
C7 N10 1.351 . S
C7 C12 1.501 . S
C8 C9 1.387 . S
C8 N11 1.341 . S
C9 C7 1.400 . S
C9 C8 1.387 . S
N10 Co1 2.022 . S
N10 C7 1.351 . S
N10 N11 1.365 . S
N11 C8 1.341 . S
N11 N10 1.365 . S
N11 H31 0.862 . S
C12 C7 1.501 . S
C12 H13 0.961 . S
C12 H14 0.961 1_545 S
C12 H15 0.960 . S
H13 C12 0.961 . S
H14 C12 0.961 1_565 S
H15 C12 0.960 . S
C16 N17 1.342 . S
C16 C20 1.401 . S
C16 C21 1.499 . S
N17 Co0 1.989 . S
N17 C16 1.342 . S
N17 N18 1.388 . S
N18 Co1 1.993 . S
N18 N17 1.388 . S
N18 C19 1.346 . S
C19 N18 1.346 . S
C19 C20 1.396 . S
C19 C29 1.510 . S
C20 C16 1.401 . S
C20 C19 1.396 . S
C21 C16 1.499 . S
C21 H22 0.959 . S
C21 H23 0.960 . S
C21 H24 0.961 . S
H22 C21 0.959 . S
H23 C21 0.960 . S
H24 C21 0.961 . S
O25 Co0 1.967 . S
O25 C33 1.258 . S
O26 Co1 1.941 . S
O26 C33 1.266 . S
H27 C29 0.959 . S
H28 C29 0.961 . S
C29 C19 1.510 . S
C29 H27 0.959 . S
C29 H28 0.961 . S
C29 H30 0.960 . S
H30 C29 0.960 . S
H31 N11 0.862 . S
O32 Co0 1.920 . S
O32 C5 1.289 . S
C33 O25 1.258 . S
C33 O26 1.266 . S
Co34 O37 1.970 . S
Co34 N51 1.989 . S
Co34 O59 1.967 . S
Co34 O66 1.920 . S
Co35 O38 1.966 . S
Co35 N44 2.022 . S
Co35 N52 1.993 . S
Co35 O60 1.941 . S
C36 O37 1.258 . S
C36 O38 1.263 . S
O37 Co34 1.970 . S
O37 C36 1.258 . S
O38 Co35 1.966 . S
O38 C36 1.263 . S
C39 O40 1.235 . S
C39 O66 1.289 . S
O40 C39 1.235 . S
C41 C43 1.400 . S
C41 N44 1.351 . S
C41 C46 1.501 . S
C42 C43 1.387 . S
C42 N45 1.341 . S
C43 C41 1.400 . S
C43 C42 1.387 . S
N44 Co35 2.022 . S
N44 C41 1.351 . S
N44 N45 1.365 . S
N45 C42 1.341 . S
N45 N44 1.365 . S
N45 H65 0.862 . S
C46 C41 1.501 . S
C46 H47 0.961 . S
C46 H48 0.961 1_545 S
C46 H49 0.960 1_554 S
H47 C46 0.961 . S
H48 C46 0.961 1_565 S
H49 C46 0.960 1_556 S
C50 N51 1.342 . S
C50 C54 1.401 . S
C50 C55 1.499 . S
N51 Co34 1.989 . S
N51 C50 1.342 . S
N51 N52 1.388 . S
N52 Co35 1.993 . S
N52 N51 1.388 . S
N52 C53 1.346 . S
C53 N52 1.346 . S
C53 C54 1.396 . S
C53 C63 1.510 . S
C54 C50 1.401 . S
C54 C53 1.396 . S
C55 C50 1.499 . S
C55 H56 0.959 . S
C55 H57 0.960 . S
C55 H58 0.961 . S
H56 C55 0.959 . S
H57 C55 0.960 . S
H58 C55 0.961 . S
O59 Co34 1.967 . S
O59 C67 1.258 . S
O60 Co35 1.941 . S
O60 C67 1.266 . S
H61 C63 0.959 . S
H62 C63 0.961 . S
C63 C53 1.510 . S
C63 H61 0.959 . S
C63 H62 0.961 . S
C63 H64 0.960 . S
H64 C63 0.960 . S
H65 N45 0.862 . S
O66 Co34 1.920 . S
O66 C39 1.289 . S
C67 O59 1.258 . S
C67 O60 1.266 . S
Co68 O71 1.970 . S
Co68 N85 1.989 . S
Co68 O93 1.967 . S
Co68 O100 1.920 . S
Co69 O72 1.966 . S
Co69 N78 2.022 . S
Co69 N86 1.993 . S
Co69 O94 1.941 . S
C70 O71 1.258 . S
C70 O72 1.263 . S
O71 Co68 1.970 . S
O71 C70 1.258 . S
O72 Co69 1.966 . S
O72 C70 1.263 . S
C73 O74 1.235 . S
C73 O100 1.289 . S
O74 C73 1.235 . S
C75 C77 1.400 . S
C75 N78 1.351 . S
C75 C80 1.501 . S
C76 C77 1.387 . S
C76 N79 1.341 . S
C77 C75 1.400 . S
C77 C76 1.387 . S
N78 Co69 2.022 . S
N78 C75 1.351 . S
N78 N79 1.365 . S
N79 C76 1.341 . S
N79 N78 1.365 . S
N79 H99 0.862 . S
C80 C75 1.501 . S
C80 H81 0.961 . S
C80 H82 0.961 1_565 S
C80 H83 0.960 . S
H81 C80 0.961 . S
H82 C80 0.961 1_545 S
H83 C80 0.960 . S
C84 N85 1.342 . S
C84 C88 1.401 . S
C84 C89 1.499 . S
N85 Co68 1.989 . S
N85 C84 1.342 . S
N85 N86 1.388 . S
N86 Co69 1.993 . S
N86 N85 1.388 . S
N86 C87 1.346 . S
C87 N86 1.346 . S
C87 C88 1.396 . S
C87 C97 1.510 . S
C88 C84 1.401 . S
C88 C87 1.396 . S
C89 C84 1.499 . S
C89 H90 0.959 . S
C89 H91 0.960 . S
C89 H92 0.961 . S
H90 C89 0.959 . S
H91 C89 0.960 . S
H92 C89 0.961 . S
O93 Co68 1.967 . S
O93 C101 1.258 . S
O94 Co69 1.941 . S
O94 C101 1.266 . S
H95 C97 0.959 . S
H96 C97 0.961 . S
C97 C87 1.510 . S
C97 H95 0.959 . S
C97 H96 0.961 . S
C97 H98 0.960 . S
H98 C97 0.960 . S
H99 N79 0.862 . S
O100 Co68 1.920 . S
O100 C73 1.289 . S
C101 O93 1.258 . S
C101 O94 1.266 . S
Co102 O105 1.970 . S
Co102 N119 1.989 . S
Co102 O127 1.967 . S
Co102 O134 1.920 . S
Co103 O106 1.966 . S
Co103 N112 2.022 . S
Co103 N120 1.993 . S
Co103 O128 1.941 . S
C104 O105 1.258 . S
C104 O106 1.263 . S
O105 Co102 1.970 . S
O105 C104 1.258 . S
O106 Co103 1.966 . S
O106 C104 1.263 . S
C107 O108 1.235 . S
C107 O134 1.289 . S
O108 C107 1.235 . S
C109 C111 1.400 . S
C109 N112 1.351 . S
C109 C114 1.501 . S
C110 C111 1.387 . S
C110 N113 1.341 . S
C111 C109 1.400 . S
C111 C110 1.387 . S
N112 Co103 2.022 . S
N112 C109 1.351 . S
N112 N113 1.365 . S
N113 C110 1.341 . S
N113 N112 1.365 . S
N113 H133 0.862 . S
C114 C109 1.501 . S
C114 H115 0.961 . S
C114 H116 0.961 1_565 S
C114 H117 0.960 1_556 S
H115 C114 0.961 . S
H116 C114 0.961 1_545 S
H117 C114 0.960 1_554 S
C118 N119 1.342 . S
C118 C122 1.401 . S
C118 C123 1.499 . S
N119 Co102 1.989 . S
N119 C118 1.342 . S
N119 N120 1.388 . S
N120 Co103 1.993 . S
N120 N119 1.388 . S
N120 C121 1.346 . S
C121 N120 1.346 . S
C121 C122 1.396 . S
C121 C131 1.510 . S
C122 C118 1.401 . S
C122 C121 1.396 . S
C123 C118 1.499 . S
C123 H124 0.959 . S
C123 H125 0.960 . S
C123 H126 0.961 . S
H124 C123 0.959 . S
H125 C123 0.960 . S
H126 C123 0.961 . S
O127 Co102 1.967 . S
O127 C135 1.258 . S
O128 Co103 1.941 . S
O128 C135 1.266 . S
H129 C131 0.959 . S
H130 C131 0.961 . S
C131 C121 1.510 . S
C131 H129 0.959 . S
C131 H130 0.961 . S
C131 H132 0.960 . S
H132 C131 0.960 . S
H133 N113 0.862 . S
O134 Co102 1.920 . S
O134 C107 1.289 . S
C135 O127 1.258 . S
C135 O128 1.266 . S
Co136 O139 1.970 . S
Co136 N153 1.989 . S
Co136 O161 1.967 . S
Co136 O168 1.920 . S
Co137 O140 1.966 . S
Co137 N146 2.022 . S
Co137 N154 1.993 . S
Co137 O162 1.941 . S
C138 O139 1.258 . S
C138 O140 1.263 . S
O139 Co136 1.970 . S
O139 C138 1.258 . S
O140 Co137 1.966 . S
O140 C138 1.263 . S
C141 O142 1.235 . S
C141 O168 1.289 . S
O142 C141 1.235 . S
C143 C145 1.400 . S
C143 N146 1.351 . S
C143 C148 1.501 . S
C144 C145 1.387 . S
C144 N147 1.341 . S
C145 C143 1.400 . S
C145 C144 1.387 . S
N146 Co137 2.022 . S
N146 C143 1.351 . S
N146 N147 1.365 . S
N147 C144 1.341 . S
N147 N146 1.365 . S
N147 H167 0.862 . S
C148 C143 1.501 . S
C148 H149 0.961 . S
C148 H150 0.961 . S
C148 H151 0.960 . S
H149 C148 0.961 . S
H150 C148 0.961 . S
H151 C148 0.960 . S
C152 N153 1.342 . S
C152 C156 1.401 . S
C152 C157 1.499 . S
N153 Co136 1.989 . S
N153 C152 1.342 . S
N153 N154 1.388 . S
N154 Co137 1.993 . S
N154 N153 1.388 . S
N154 C155 1.346 . S
C155 N154 1.346 . S
C155 C156 1.396 . S
C155 C165 1.510 . S
C156 C152 1.401 . S
C156 C155 1.396 . S
C157 C152 1.499 . S
C157 H158 0.959 . S
C157 H159 0.960 . S
C157 H160 0.961 . S
H158 C157 0.959 . S
H159 C157 0.960 . S
H160 C157 0.961 . S
O161 Co136 1.967 . S
O161 C169 1.258 . S
O162 Co137 1.941 . S
O162 C169 1.266 . S
H163 C165 0.959 . S
H164 C165 0.961 . S
C165 C155 1.510 . S
C165 H163 0.959 . S
C165 H164 0.961 . S
C165 H166 0.960 . S
H166 C165 0.960 . S
H167 N147 0.862 . S
O168 Co136 1.920 . S
O168 C141 1.289 . S
C169 O161 1.258 . S
C169 O162 1.266 . S
Co170 O173 1.970 . S
Co170 N187 1.989 . S
Co170 O195 1.967 . S
Co170 O202 1.920 . S
Co171 O174 1.966 . S
Co171 N180 2.022 . S
Co171 N188 1.993 . S
Co171 O196 1.941 . S
C172 O173 1.258 . S
C172 O174 1.263 . S
O173 Co170 1.970 . S
O173 C172 1.258 . S
O174 Co171 1.966 . S
O174 C172 1.263 . S
C175 O176 1.235 . S
C175 O202 1.289 . S
O176 C175 1.235 . S
C177 C179 1.400 . S
C177 N180 1.351 . S
C177 C182 1.501 . S
C178 C179 1.387 . S
C178 N181 1.341 . S
C179 C177 1.400 . S
C179 C178 1.387 . S
N180 Co171 2.022 . S
N180 C177 1.351 . S
N180 N181 1.365 . S
N181 C178 1.341 . S
N181 N180 1.365 . S
N181 H201 0.862 . S
C182 C177 1.501 . S
C182 H183 0.961 . S
C182 H184 0.961 . S
C182 H185 0.960 1_554 S
H183 C182 0.961 . S
H184 C182 0.961 . S
H185 C182 0.960 1_556 S
C186 N187 1.342 . S
C186 C190 1.401 . S
C186 C191 1.499 . S
N187 Co170 1.989 . S
N187 C186 1.342 . S
N187 N188 1.388 . S
N188 Co171 1.993 . S
N188 N187 1.388 . S
N188 C189 1.346 . S
C189 N188 1.346 . S
C189 C190 1.396 . S
C189 C199 1.510 . S
C190 C186 1.401 . S
C190 C189 1.396 . S
C191 C186 1.499 . S
C191 H192 0.959 . S
C191 H193 0.960 . S
C191 H194 0.961 . S
H192 C191 0.959 . S
H193 C191 0.960 . S
H194 C191 0.961 . S
O195 Co170 1.967 . S
O195 C203 1.258 . S
O196 Co171 1.941 . S
O196 C203 1.266 . S
H197 C199 0.959 . S
H198 C199 0.961 . S
C199 C189 1.510 . S
C199 H197 0.959 . S
C199 H198 0.961 . S
C199 H200 0.960 . S
H200 C199 0.960 . S
H201 N181 0.862 . S
O202 Co170 1.920 . S
O202 C175 1.289 . S
C203 O195 1.258 . S
C203 O196 1.266 . S
Co204 O207 1.970 . S
Co204 N221 1.989 . S
Co204 O229 1.967 . S
Co204 O236 1.920 . S
Co205 O208 1.966 . S
Co205 N214 2.022 . S
Co205 N222 1.993 . S
Co205 O230 1.941 . S
C206 O207 1.258 . S
C206 O208 1.263 . S
O207 Co204 1.970 . S
O207 C206 1.258 . S
O208 Co205 1.966 . S
O208 C206 1.263 . S
C209 O210 1.235 . S
C209 O236 1.289 . S
O210 C209 1.235 . S
C211 C213 1.400 . S
C211 N214 1.351 . S
C211 C216 1.501 . S
C212 C213 1.387 . S
C212 N215 1.341 . S
C213 C211 1.400 . S
C213 C212 1.387 . S
N214 Co205 2.022 . S
N214 C211 1.351 . S
N214 N215 1.365 . S
N215 C212 1.341 . S
N215 N214 1.365 . S
N215 H235 0.862 . S
C216 C211 1.501 . S
C216 H217 0.961 . S
C216 H218 0.961 . S
C216 H219 0.960 . S
H217 C216 0.961 . S
H218 C216 0.961 . S
H219 C216 0.960 . S
C220 N221 1.342 . S
C220 C224 1.401 . S
C220 C225 1.499 . S
N221 Co204 1.989 . S
N221 C220 1.342 . S
N221 N222 1.388 . S
N222 Co205 1.993 . S
N222 N221 1.388 . S
N222 C223 1.346 . S
C223 N222 1.346 . S
C223 C224 1.396 . S
C223 C233 1.510 . S
C224 C220 1.401 . S
C224 C223 1.396 . S
C225 C220 1.499 . S
C225 H226 0.959 . S
C225 H227 0.960 . S
C225 H228 0.961 . S
H226 C225 0.959 . S
H227 C225 0.960 . S
H228 C225 0.961 . S
O229 Co204 1.967 . S
O229 C237 1.258 . S
O230 Co205 1.941 . S
O230 C237 1.266 . S
H231 C233 0.959 . S
H232 C233 0.961 . S
C233 C223 1.510 . S
C233 H231 0.959 . S
C233 H232 0.961 . S
C233 H234 0.960 . S
H234 C233 0.960 . S
H235 N215 0.862 . S
O236 Co204 1.920 . S
O236 C209 1.289 . S
C237 O229 1.258 . S
C237 O230 1.266 . S
Co238 O241 1.970 . S
Co238 N255 1.989 . S
Co238 O263 1.967 . S
Co238 O270 1.920 . S
Co239 O242 1.966 . S
Co239 N248 2.022 . S
Co239 N256 1.993 . S
Co239 O264 1.941 . S
C240 O241 1.258 . S
C240 O242 1.263 . S
O241 Co238 1.970 . S
O241 C240 1.258 . S
O242 Co239 1.966 . S
O242 C240 1.263 . S
C243 O244 1.235 . S
C243 O270 1.289 . S
O244 C243 1.235 . S
C245 C247 1.400 . S
C245 N248 1.351 . S
C245 C250 1.501 . S
C246 C247 1.387 . S
C246 N249 1.341 . S
C247 C245 1.400 . S
C247 C246 1.387 . S
N248 Co239 2.022 . S
N248 C245 1.351 . S
N248 N249 1.365 . S
N249 C246 1.341 . S
N249 N248 1.365 . S
N249 H269 0.862 . S
C250 C245 1.501 . S
C250 H251 0.961 . S
C250 H252 0.961 . S
C250 H253 0.960 1_556 S
H251 C250 0.961 . S
H252 C250 0.961 . S
H253 C250 0.960 1_554 S
C254 N255 1.342 . S
C254 C258 1.401 . S
C254 C259 1.499 . S
N255 Co238 1.989 . S
N255 C254 1.342 . S
N255 N256 1.388 . S
N256 Co239 1.993 . S
N256 N255 1.388 . S
N256 C257 1.346 . S
C257 N256 1.346 . S
C257 C258 1.396 . S
C257 C267 1.510 . S
C258 C254 1.401 . S
C258 C257 1.396 . S
C259 C254 1.499 . S
C259 H260 0.959 . S
C259 H261 0.960 . S
C259 H262 0.961 . S
H260 C259 0.959 . S
H261 C259 0.960 . S
H262 C259 0.961 . S
O263 Co238 1.967 . S
O263 C271 1.258 . S
O264 Co239 1.941 . S
O264 C271 1.266 . S
H265 C267 0.959 . S
H266 C267 0.961 . S
C267 C257 1.510 . S
C267 H265 0.959 . S
C267 H266 0.961 . S
C267 H268 0.960 . S
H268 C267 0.960 . S
H269 N249 0.862 . S
O270 Co238 1.920 . S
O270 C243 1.289 . S
C271 O263 1.258 . S
C271 O264 1.266 . S
C272 C273 1.391 . S
C272 C274 1.394 . S
C272 H288 0.931 . S
C273 C272 1.391 . S
C273 C277 1.376 . S
C274 C272 1.394 . S
C274 C275 1.369 . S
C274 C278 1.531 . S
C275 C274 1.369 . S
C275 C276 1.410 1_565 S
C275 C283 1.503 1_565 S
C276 C275 1.410 1_545 S
C276 C277 1.392 1_545 S
C276 C279 1.511 . S
C277 C273 1.376 . S
C277 C276 1.392 1_565 S
C277 H289 0.929 1_565 S
C278 C274 1.531 . S
C278 H290 0.960 . S
C278 H291 0.962 . S
C278 H292 0.960 . S
C279 C276 1.511 . S
C279 H293 0.961 . S
C279 H294 0.961 . S
C279 H295 0.961 . S
C280 C281 1.370 . S
C280 C282 1.363 . S
C280 H296 0.931 . S
C281 C280 1.370 . S
C281 C285 1.408 . S
C282 C280 1.363 . S
C282 C283 1.370 . S
C282 C286 1.524 . S
C283 C275 1.503 1_545 S
C283 C282 1.370 . S
C283 C284 1.403 1_545 S
C284 C283 1.403 1_565 S
C284 C285 1.404 1_565 S
C284 C287 1.539 . S
C285 C281 1.408 . S
C285 C284 1.404 1_545 S
C285 H297 0.930 1_545 S
C286 C282 1.524 . S
C286 H298 0.956 . S
C286 H299 0.961 . S
C286 H300 0.961 . S
C287 C284 1.539 . S
C287 H301 0.958 . S
C287 H302 0.961 . S
C287 H303 0.960 . S
H288 C272 0.931 . S
H289 C277 0.929 1_545 S
H290 C278 0.960 . S
H291 C278 0.962 . S
H292 C278 0.960 . S
H293 C279 0.961 . S
H294 C279 0.961 . S
H295 C279 0.961 . S
H296 C280 0.931 . S
H297 C285 0.930 1_565 S
H298 C286 0.956 . S
H299 C286 0.961 . S
H300 C286 0.961 . S
H301 C287 0.958 . S
H302 C287 0.961 . S
H303 C287 0.960 . S
C304 C305 1.391 . S
C304 C306 1.394 1_545 S
C304 H320 0.931 1_545 S
C305 C304 1.391 . S
C305 C309 1.376 . S
C306 C304 1.394 1_565 S
C306 C307 1.369 1_565 S
C306 C310 1.531 . S
C307 C306 1.369 1_545 S
C307 C308 1.410 . S
C307 C315 1.503 1_545 S
C308 C307 1.410 . S
C308 C309 1.392 . S
C308 C311 1.511 . S
C309 C305 1.376 . S
C309 C308 1.392 . S
C309 H321 0.929 . S
C310 C306 1.531 . S
C310 H322 0.960 . S
C310 H323 0.962 . S
C310 H324 0.960 . S
C311 C308 1.511 . S
C311 H325 0.961 . S
C311 H326 0.961 . S
C311 H327 0.961 . S
C312 C313 1.390 . S
C312 C314 1.356 1_565 S
C312 H328 0.919 1_565 S
C313 C312 1.390 . S
C313 C317 1.408 . S
C314 C312 1.356 1_545 S
C314 C315 1.370 1_545 S
C314 C318 1.524 . S
C315 C307 1.503 1_565 S
C315 C314 1.370 1_565 S
C315 C316 1.403 . S
C316 C315 1.403 . S
C316 C317 1.404 . S
C316 C319 1.539 . S
C317 C313 1.408 . S
C317 C316 1.404 . S
C317 H329 0.930 . S
C318 C314 1.524 . S
C318 H330 0.956 . S
C318 H331 0.961 . S
C318 H332 0.961 . S
C319 C316 1.539 . S
C319 H333 0.958 . S
C319 H334 0.961 . S
C319 H335 0.960 . S
H320 C304 0.931 1_565 S
H321 C309 0.929 . S
H322 C310 0.960 . S
H323 C310 0.962 . S
H324 C310 0.960 . S
H325 C311 0.961 . S
H326 C311 0.961 . S
H327 C311 0.961 . S
H328 C312 0.919 1_545 S
H329 C317 0.930 . S
H330 C318 0.956 . S
H331 C318 0.961 . S
H332 C318 0.961 . S
H333 C319 0.958 . S
H334 C319 0.961 . S
H335 C319 0.960 . S
C336 C337 1.391 . S
C336 C338 1.394 . S
C336 H352 0.931 . S
C337 C336 1.391 . S
C337 C341 1.376 1_565 S
C338 C336 1.394 . S
C338 C339 1.369 . S
C338 C342 1.531 . S
C339 C338 1.369 . S
C339 C340 1.410 1_565 S
C339 C347 1.503 1_565 S
C340 C339 1.410 1_545 S
C340 C341 1.392 . S
C340 C343 1.511 . S
C341 C337 1.376 1_545 S
C341 C340 1.392 . S
C341 H353 0.929 . S
C342 C338 1.531 . S
C342 H354 0.960 . S
C342 H355 0.962 . S
C342 H356 0.960 . S
C343 C340 1.511 . S
C343 H357 0.961 . S
C343 H358 0.961 . S
C343 H359 0.961 . S
C344 C345 1.370 . S
C344 C346 1.363 . S
C344 H360 0.931 . S
C345 C344 1.370 . S
C345 C349 1.408 . S
C346 C344 1.363 . S
C346 C347 1.370 . S
C346 C350 1.524 . S
C347 C339 1.503 1_545 S
C347 C346 1.370 . S
C347 C348 1.403 . S
C348 C347 1.403 . S
C348 C349 1.404 . S
C348 C351 1.539 . S
C349 C345 1.408 . S
C349 C348 1.404 . S
C349 H361 0.930 1_556 S
C350 C346 1.524 . S
C350 H362 0.956 1_545 S
C350 H363 0.961 . S
C350 H364 0.961 . S
C351 C348 1.539 . S
C351 H365 0.957 1_545 S
C351 H366 0.962 . S
C351 H367 0.960 . S
H352 C336 0.931 . S
H353 C341 0.929 . S
H354 C342 0.960 . S
H355 C342 0.962 . S
H356 C342 0.960 . S
H357 C343 0.961 . S
H358 C343 0.961 . S
H359 C343 0.961 . S
H360 C344 0.931 . S
H361 C349 0.930 1_554 S
H362 C350 0.956 1_565 S
H363 C350 0.961 . S
H364 C350 0.961 . S
H365 C351 0.957 1_565 S
H366 C351 0.962 . S
H367 C351 0.960 . S
C368 C369 1.391 . S
C368 C370 1.394 1_565 S
C368 H384 0.931 1_565 S
C369 C368 1.391 . S
C369 C373 1.376 . S
C370 C368 1.394 1_545 S
C370 C371 1.369 1_545 S
C370 C374 1.531 . S
C371 C370 1.369 1_565 S
C371 C372 1.410 . S
C371 C379 1.503 1_565 S
C372 C371 1.410 . S
C372 C373 1.392 . S
C372 C375 1.511 . S
C373 C369 1.376 . S
C373 C372 1.392 . S
C373 H385 0.929 . S
C374 C370 1.531 . S
C374 H386 0.960 . S
C374 H387 0.962 . S
C374 H388 0.960 . S
C375 C372 1.511 . S
C375 H389 0.961 . S
C375 H390 0.961 . S
C375 H391 0.961 . S
C376 C377 1.370 1_565 S
C376 C378 1.363 . S
C376 H392 0.931 . S
C377 C376 1.370 1_545 S
C377 C381 1.408 . S
C378 C376 1.363 . S
C378 C379 1.370 1_565 S
C378 C382 1.524 . S
C379 C371 1.503 1_545 S
C379 C378 1.370 1_545 S
C379 C380 1.403 . S
C380 C379 1.403 . S
C380 C381 1.404 . S
C380 C383 1.539 . S
C381 C377 1.408 . S
C381 C380 1.404 . S
C381 H393 0.930 . S
C382 C378 1.524 . S
C382 H394 0.956 . S
C382 H395 0.961 . S
C382 H396 0.961 . S
C383 C380 1.539 . S
C383 H397 0.958 . S
C383 H398 0.961 . S
C383 H399 0.960 . S
H384 C368 0.931 1_545 S
H385 C373 0.929 . S
H386 C374 0.960 . S
H387 C374 0.962 . S
H388 C374 0.960 . S
H389 C375 0.961 . S
H390 C375 0.961 . S
H391 C375 0.961 . S
H392 C376 0.931 . S
H393 C381 0.930 . S
H394 C382 0.956 . S
H395 C382 0.961 . S
H396 C382 0.961 . S
H397 C383 0.958 . S
H398 C383 0.961 . S
H399 C383 0.960 . S
C400 C401 1.391 . S
C400 C402 1.394 . S
C400 H416 0.931 . S
C401 C400 1.391 . S
C401 C405 1.376 . S
C402 C400 1.394 . S
C402 C403 1.369 . S
C402 C406 1.531 . S
C403 C402 1.369 . S
C403 C404 1.410 . S
C403 C411 1.503 . S
C404 C403 1.410 . S
C404 C405 1.392 . S
C404 C407 1.511 . S
C405 C401 1.376 . S
C405 C404 1.392 . S
C405 H417 0.929 . S
C406 C402 1.531 . S
C406 H418 0.960 . S
C406 H419 0.962 . S
C406 H420 0.960 . S
C407 C404 1.511 . S
C407 H421 0.961 . S
C407 H422 0.961 . S
C407 H423 0.961 . S
C408 C409 1.370 . S
C408 C410 1.363 . S
C408 H424 0.931 . S
C409 C408 1.370 . S
C409 C413 1.408 . S
C410 C408 1.363 . S
C410 C411 1.370 . S
C410 C414 1.524 . S
C411 C403 1.503 . S
C411 C410 1.370 . S
C411 C412 1.403 . S
C412 C411 1.403 . S
C412 C413 1.404 . S
C412 C415 1.539 . S
C413 C409 1.408 . S
C413 C412 1.404 . S
C413 H425 0.930 . S
C414 C410 1.524 . S
C414 H426 0.956 . S
C414 H427 0.961 . S
C414 H428 0.961 . S
C415 C412 1.539 . S
C415 H429 0.958 . S
C415 H430 0.961 . S
C415 H431 0.960 . S
H416 C400 0.931 . S
H417 C405 0.929 . S
H418 C406 0.960 . S
H419 C406 0.962 . S
H420 C406 0.960 . S
H421 C407 0.961 . S
H422 C407 0.961 . S
H423 C407 0.961 . S
H424 C408 0.931 . S
H425 C413 0.930 . S
H426 C414 0.956 . S
H427 C414 0.961 . S
H428 C414 0.961 . S
H429 C415 0.958 . S
H430 C415 0.961 . S
H431 C415 0.960 . S
C432 C433 1.391 . S
C432 C434 1.394 . S
C432 H448 0.931 . S
C433 C432 1.391 . S
C433 C437 1.376 . S
C434 C432 1.394 . S
C434 C435 1.369 . S
C434 C438 1.531 . S
C435 C434 1.369 . S
C435 C436 1.410 . S
C435 C443 1.503 . S
C436 C435 1.410 . S
C436 C437 1.392 . S
C436 C439 1.511 . S
C437 C433 1.376 . S
C437 C436 1.392 . S
C437 H449 0.929 . S
C438 C434 1.531 . S
C438 H450 0.960 . S
C438 H451 0.962 . S
C438 H452 0.960 . S
C439 C436 1.511 . S
C439 H453 0.961 . S
C439 H454 0.961 . S
C439 H455 0.961 . S
C440 C441 1.370 . S
C440 C442 1.363 . S
C440 H456 0.931 . S
C441 C440 1.370 . S
C441 C445 1.408 . S
C442 C440 1.363 . S
C442 C443 1.370 . S
C442 C446 1.524 . S
C443 C435 1.503 . S
C443 C442 1.370 . S
C443 C444 1.403 . S
C444 C443 1.403 . S
C444 C445 1.404 . S
C444 C447 1.539 . S
C445 C441 1.408 . S
C445 C444 1.404 . S
C445 H457 0.930 . S
C446 C442 1.524 . S
C446 H458 0.956 . S
C446 H459 0.961 . S
C446 H460 0.961 . S
C447 C444 1.539 . S
C447 H461 0.958 . S
C447 H462 0.961 . S
C447 H463 0.960 . S
H448 C432 0.931 . S
H449 C437 0.929 . S
H450 C438 0.960 . S
H451 C438 0.962 . S
H452 C438 0.960 . S
H453 C439 0.961 . S
H454 C439 0.961 . S
H455 C439 0.961 . S
H456 C440 0.931 . S
H457 C445 0.930 . S
H458 C446 0.956 . S
H459 C446 0.961 . S
H460 C446 0.961 . S
H461 C447 0.958 . S
H462 C447 0.961 . S
H463 C447 0.960 . S
C464 C465 1.391 . S
C464 C466 1.394 . S
C464 H480 0.931 . S
C465 C464 1.391 . S
C465 C469 1.376 . S
C466 C464 1.394 . S
C466 C467 1.369 . S
C466 C470 1.531 . S
C467 C466 1.369 . S
C467 C468 1.410 . S
C467 C475 1.503 . S
C468 C467 1.410 . S
C468 C469 1.392 . S
C468 C471 1.511 . S
C469 C465 1.376 . S
C469 C468 1.392 . S
C469 H481 0.929 1_556 S
C470 C466 1.531 . S
C470 H482 0.960 . S
C470 H483 0.962 . S
C470 H484 0.960 . S
C471 C468 1.511 . S
C471 H485 0.961 . S
C471 H486 0.961 . S
C471 H487 0.961 . S
C472 C473 1.370 . S
C472 C474 1.363 . S
C472 H488 0.931 . S
C473 C472 1.370 . S
C473 C477 1.408 . S
C474 C472 1.363 . S
C474 C475 1.370 . S
C474 C478 1.524 . S
C475 C467 1.503 . S
C475 C474 1.370 . S
C475 C476 1.403 . S
C476 C475 1.403 . S
C476 C477 1.404 . S
C476 C479 1.539 . S
C477 C473 1.408 . S
C477 C476 1.404 . S
C477 H489 0.930 . S
C478 C474 1.524 . S
C478 H490 0.956 . S
C478 H491 0.961 . S
C478 H492 0.961 . S
C479 C476 1.539 . S
C479 H493 0.958 . S
C479 H494 0.961 . S
C479 H495 0.960 . S
H480 C464 0.931 . S
H481 C469 0.929 1_554 S
H482 C470 0.960 . S
H483 C470 0.962 . S
H484 C470 0.960 . S
H485 C471 0.961 . S
H486 C471 0.961 . S
H487 C471 0.961 . S
H488 C472 0.931 . S
H489 C477 0.930 . S
H490 C478 0.956 . S
H491 C478 0.961 . S
H492 C478 0.961 . S
H493 C479 0.958 . S
H494 C479 0.961 . S
H495 C479 0.960 . S
C496 C497 1.391 . S
C496 C498 1.394 . S
C496 H512 0.931 . S
C497 C496 1.391 . S
C497 C501 1.376 . S
C498 C496 1.394 . S
C498 C499 1.369 . S
C498 C502 1.531 . S
C499 C498 1.369 . S
C499 C500 1.410 . S
C499 C507 1.503 . S
C500 C499 1.410 . S
C500 C501 1.392 . S
C500 C503 1.511 . S
C501 C497 1.376 . S
C501 C500 1.392 . S
C501 H513 0.929 . S
C502 C498 1.531 . S
C502 H514 0.960 . S
C502 H515 0.962 . S
C502 H516 0.960 . S
C503 C500 1.511 . S
C503 H517 0.961 . S
C503 H518 0.961 . S
C503 H519 0.961 . S
C504 C505 1.370 . S
C504 C506 1.363 . S
C504 H520 0.931 . S
C505 C504 1.370 . S
C505 C509 1.408 . S
C506 C504 1.363 . S
C506 C507 1.370 . S
C506 C510 1.524 . S
C507 C499 1.503 . S
C507 C506 1.370 . S
C507 C508 1.403 . S
C508 C507 1.403 . S
C508 C509 1.404 . S
C508 C511 1.539 . S
C509 C505 1.408 . S
C509 C508 1.404 . S
C509 H521 0.930 . S
C510 C506 1.524 . S
C510 H522 0.956 . S
C510 H523 0.961 . S
C510 H524 0.961 . S
C511 C508 1.539 . S
C511 H525 0.958 . S
C511 H526 0.961 . S
C511 H527 0.960 . S
H512 C496 0.931 . S
H513 C501 0.929 . S
H514 C502 0.960 . S
H515 C502 0.962 . S
H516 C502 0.960 . S
H517 C503 0.961 . S
H518 C503 0.961 . S
H519 C503 0.961 . S
H520 C504 0.931 . S
H521 C509 0.930 . S
H522 C510 0.956 . S
H523 C510 0.961 . S
H524 C510 0.961 . S
H525 C511 0.958 . S
H526 C511 0.961 . S
H527 C511 0.960 . S
C528 C529 1.391 . S
C528 C530 1.394 . S
C528 H544 0.931 . S
C529 C528 1.391 . S
C529 C533 1.376 . S
C530 C528 1.394 . S
C530 C531 1.369 . S
C530 C534 1.531 . S
C531 C530 1.369 . S
C531 C532 1.410 1_565 S
C531 C539 1.503 . S
C532 C531 1.410 1_545 S
C532 C533 1.392 1_545 S
C532 C535 1.511 . S
C533 C529 1.376 . S
C533 C532 1.392 1_565 S
C533 H545 0.929 1_565 S
C534 C530 1.531 . S
C534 H546 0.960 . S
C534 H547 0.962 . S
C534 H548 0.960 . S
C535 C532 1.511 . S
C535 H549 0.961 . S
C535 H550 0.961 . S
C535 H551 0.961 . S
C536 C537 1.370 . S
C536 C538 1.363 . S
C536 H552 0.931 . S
C537 C536 1.370 . S
C537 C541 1.408 1_545 S
C538 C536 1.363 . S
C538 C539 1.370 1_545 S
C538 C542 1.524 . S
C539 C531 1.503 . S
C539 C538 1.370 1_565 S
C539 C540 1.403 . S
C540 C539 1.403 . S
C540 C541 1.404 . S
C540 C543 1.539 . S
C541 C537 1.408 1_565 S
C541 C540 1.404 . S
C541 H553 0.930 . S
C542 C538 1.524 . S
C542 H554 0.956 . S
C542 H555 0.961 . S
C542 H556 0.961 . S
C543 C540 1.539 . S
C543 H557 0.958 . S
C543 H558 0.961 . S
C543 H559 0.960 . S
H544 C528 0.931 . S
H545 C533 0.929 1_545 S
H546 C534 0.960 . S
H547 C534 0.962 . S
H548 C534 0.960 . S
H549 C535 0.961 . S
H550 C535 0.961 . S
H551 C535 0.961 . S
H552 C536 0.931 . S
H553 C541 0.930 . S
H554 C542 0.956 . S
H555 C542 0.961 . S
H556 C542 0.961 . S
H557 C543 0.958 . S
H558 C543 0.961 . S
H559 C543 0.960 . S
C560 C561 1.391 1_545 S
C560 C562 1.394 . S
C560 H576 0.931 . S
C561 C560 1.391 1_565 S
C561 C565 1.376 1_556 S
C562 C560 1.394 . S
C562 C563 1.355 1_556 S
C562 C566 1.531 . S
C563 C562 1.355 1_554 S
C563 C564 1.427 1_545 S
C563 C571 1.498 . S
C564 C563 1.427 1_565 S
C564 C565 1.392 . S
C564 C567 1.511 . S
C565 C561 1.376 1_554 S
C565 C564 1.392 . S
C565 H577 0.929 . S
C566 C562 1.531 . S
C566 H578 0.960 . S
C566 H579 0.962 . S
C566 H580 0.960 . S
C567 C564 1.511 . S
C567 H581 0.961 . S
C567 H582 0.961 . S
C567 H583 0.961 . S
C568 C569 1.370 1_566 S
C568 C570 1.363 . S
C568 H584 0.931 . S
C569 C568 1.370 1_544 S
C569 C573 1.408 . S
C570 C568 1.363 . S
C570 C571 1.370 1_566 S
C570 C574 1.524 . S
C571 C563 1.498 . S
C571 C570 1.370 1_544 S
C571 C572 1.403 . S
C572 C571 1.403 . S
C572 C573 1.404 . S
C572 C575 1.539 . S
C573 C569 1.408 . S
C573 C572 1.404 . S
C573 H585 0.930 . S
C574 C570 1.524 . S
C574 H586 0.956 . S
C574 H587 0.961 . S
C574 H588 0.961 . S
C575 C572 1.539 . S
C575 H589 0.958 . S
C575 H590 0.961 . S
C575 H591 0.960 . S
H576 C560 0.931 . S
H577 C565 0.929 . S
H578 C566 0.960 . S
H579 C566 0.962 . S
H580 C566 0.960 . S
H581 C567 0.961 . S
H582 C567 0.961 . S
H583 C567 0.961 . S
H584 C568 0.931 . S
H585 C573 0.930 . S
H586 C574 0.956 . S
H587 C574 0.961 . S
H588 C574 0.961 . S
H589 C575 0.958 . S
H590 C575 0.961 . S
H591 C575 0.960 . S
C592 C593 1.391 . S
C592 C594 1.394 . S
C592 H608 0.931 . S
C593 C592 1.391 . S
C593 C597 1.376 . S
C594 C592 1.394 . S
C594 C595 1.369 . S
C594 C598 1.531 . S
C595 C594 1.369 . S
C595 C596 1.410 . S
C595 C603 1.503 1_655 S
C596 C595 1.410 . S
C596 C597 1.392 . S
C596 C599 1.511 . S
C597 C593 1.376 . S
C597 C596 1.392 . S
C597 H609 0.929 . S
C598 C594 1.531 . S
C598 H610 0.960 1_655 S
C598 H611 0.962 . S
C598 H612 0.960 . S
C599 C596 1.511 . S
C599 H613 0.961 . S
C599 H614 0.961 1_655 S
C599 H615 0.961 . S
C600 C601 1.370 . S
C600 C602 1.363 . S
C600 H616 0.931 . S
C601 C600 1.370 . S
C601 C605 1.408 . S
C602 C600 1.363 . S
C602 C603 1.370 . S
C602 C606 1.524 1_455 S
C603 C595 1.503 1_455 S
C603 C602 1.370 . S
C603 C604 1.403 . S
C604 C603 1.403 . S
C604 C605 1.404 . S
C604 C607 1.539 . S
C605 C601 1.408 . S
C605 C604 1.404 . S
C605 H617 0.930 . S
C606 C602 1.524 1_655 S
C606 H618 0.956 . S
C606 H619 0.961 . S
C606 H620 0.961 1_655 S
C607 C604 1.539 . S
C607 H621 0.958 . S
C607 H622 0.961 . S
C607 H623 0.960 . S
H608 C592 0.931 . S
H609 C597 0.929 . S
H610 C598 0.960 1_455 S
H611 C598 0.962 . S
H612 C598 0.960 . S
H613 C599 0.961 . S
H614 C599 0.961 1_455 S
H615 C599 0.961 . S
H616 C600 0.931 . S
H617 C605 0.930 . S
H618 C606 0.956 . S
H619 C606 0.961 . S
H620 C606 0.961 1_455 S
H621 C607 0.958 . S
H622 C607 0.961 . S
H623 C607 0.960 . S
C624 C625 1.391 1_556 S
C624 C626 1.394 . S
C624 H640 0.931 . S
C625 C624 1.391 1_554 S
C625 C629 1.376 . S
C626 C624 1.394 . S
C626 C627 1.369 1_556 S
C626 C630 1.531 . S
C627 C626 1.369 1_554 S
C627 C628 1.410 . S
C627 C635 1.503 1_454 S
C628 C627 1.410 . S
C628 C629 1.392 . S
C628 C631 1.511 . S
C629 C625 1.376 . S
C629 C628 1.392 . S
C629 H641 0.929 . S
C630 C626 1.531 . S
C630 H642 0.960 1_455 S
C630 H643 0.957 1_455 S
C630 H644 0.960 . S
C631 C628 1.511 . S
C631 H645 0.961 . S
C631 H646 0.961 . S
C631 H647 0.961 . S
C632 C633 1.370 . S
C632 C634 1.363 . S
C632 H648 0.931 . S
C633 C632 1.370 . S
C633 C637 1.408 . S
C634 C632 1.363 . S
C634 C635 1.370 . S
C634 C638 1.524 . S
C635 C627 1.503 1_656 S
C635 C634 1.370 . S
C635 C636 1.403 1_556 S
C636 C635 1.403 1_554 S
C636 C637 1.404 1_554 S
C636 C639 1.539 . S
C637 C633 1.408 . S
C637 C636 1.404 1_556 S
C637 H649 0.930 . S
C638 C634 1.524 . S
C638 H650 0.956 . S
C638 H651 0.961 1_556 S
C638 H652 0.961 . S
C639 C636 1.539 . S
C639 H653 0.958 1_554 S
C639 H654 0.961 . S
C639 H655 0.960 1_655 S
H640 C624 0.931 . S
H641 C629 0.929 . S
H642 C630 0.960 1_655 S
H643 C630 0.957 1_655 S
H644 C630 0.960 . S
H645 C631 0.961 . S
H646 C631 0.961 . S
H647 C631 0.961 . S
H648 C632 0.931 . S
H649 C637 0.930 . S
H650 C638 0.956 . S
H651 C638 0.961 1_554 S
H652 C638 0.961 . S
H653 C639 0.958 1_556 S
H654 C639 0.961 . S
H655 C639 0.960 1_455 S
C656 C657 1.391 . S
C656 C658 1.394 . S
C656 H672 0.931 . S
C657 C656 1.391 . S
C657 C661 1.376 . S
C658 C656 1.394 . S
C658 C659 1.369 . S
C658 C662 1.531 . S
C659 C658 1.369 . S
C659 C660 1.410 . S
C659 C667 1.503 1_455 S
C660 C659 1.410 . S
C660 C661 1.392 . S
C660 C663 1.511 . S
C661 C657 1.376 . S
C661 C660 1.392 . S
C661 H673 0.929 . S
C662 C658 1.531 . S
C662 H674 0.960 . S
C662 H675 0.962 . S
C662 H676 0.960 . S
C663 C660 1.511 . S
C663 H677 0.961 . S
C663 H678 0.961 1_455 S
C663 H679 0.961 . S
C664 C665 1.370 . S
C664 C666 1.363 . S
C664 H680 0.931 . S
C665 C664 1.370 . S
C665 C669 1.408 . S
C666 C664 1.363 . S
C666 C667 1.370 . S
C666 C670 1.524 . S
C667 C659 1.503 1_655 S
C667 C666 1.370 . S
C667 C668 1.403 . S
C668 C667 1.403 . S
C668 C669 1.404 . S
C668 C671 1.539 1_545 S
C669 C665 1.408 . S
C669 C668 1.404 . S
C669 H681 0.930 . S
C670 C666 1.524 . S
C670 H682 0.933 1_655 S
C670 H683 0.957 1_655 S
C670 H684 0.961 . S
C671 C668 1.539 1_565 S
C671 H685 0.958 . S
C671 H686 0.961 . S
C671 H687 0.960 . S
H672 C656 0.931 . S
H673 C661 0.929 . S
H674 C662 0.960 . S
H675 C662 0.962 . S
H676 C662 0.960 . S
H677 C663 0.961 . S
H678 C663 0.961 1_655 S
H679 C663 0.961 . S
H680 C664 0.931 . S
H681 C669 0.930 . S
H682 C670 0.933 1_455 S
H683 C670 0.957 1_455 S
H684 C670 0.961 . S
H685 C671 0.958 . S
H686 C671 0.961 . S
H687 C671 0.960 . S
C688 C689 1.391 . S
C688 C690 1.394 . S
C688 H704 0.931 . S
C689 C688 1.391 . S
C689 C693 1.376 . S
C690 C688 1.394 . S
C690 C691 1.369 . S
C690 C694 1.531 . S
C691 C690 1.369 . S
C691 C692 1.410 . S
C691 C699 1.503 1_455 S
C692 C691 1.410 . S
C692 C693 1.392 . S
C692 C695 1.511 . S
C693 C689 1.376 . S
C693 C692 1.392 . S
C693 H705 0.929 . S
C694 C690 1.531 . S
C694 H706 0.960 1_455 S
C694 H707 0.962 . S
C694 H708 0.960 . S
C695 C692 1.511 . S
C695 H709 0.961 . S
C695 H710 0.961 . S
C695 H711 0.961 1_565 S
C696 C697 1.370 . S
C696 C698 1.363 . S
C696 H712 0.931 . S
C697 C696 1.370 . S
C697 C701 1.408 . S
C698 C696 1.363 . S
C698 C699 1.370 . S
C698 C702 1.524 . S
C699 C691 1.503 1_655 S
C699 C698 1.370 . S
C699 C700 1.403 . S
C700 C699 1.403 . S
C700 C701 1.404 . S
C700 C703 1.539 1_565 S
C701 C697 1.408 . S
C701 C700 1.404 . S
C701 H713 0.930 . S
C702 C698 1.524 . S
C702 H714 0.956 . S
C702 H715 0.961 1_655 S
C702 H716 0.961 . S
C703 C700 1.539 1_545 S
C703 H717 0.958 . S
C703 H718 0.961 . S
C703 H719 0.960 . S
H704 C688 0.931 . S
H705 C693 0.929 . S
H706 C694 0.960 1_655 S
H707 C694 0.962 . S
H708 C694 0.960 . S
H709 C695 0.961 . S
H710 C695 0.961 . S
H711 C695 0.961 1_545 S
H712 C696 0.931 . S
H713 C701 0.930 . S
H714 C702 0.956 . S
H715 C702 0.961 1_455 S
H716 C702 0.961 . S
H717 C703 0.958 . S
H718 C703 0.961 . S
H719 C703 0.960 . S
C720 C721 1.391 . S
C720 C722 1.394 . S
C720 H736 0.931 . S
C721 C720 1.391 . S
C721 C725 1.376 . S
C722 C720 1.394 . S
C722 C723 1.369 . S
C722 C726 1.531 . S
C723 C722 1.369 . S
C723 C724 1.410 . S
C723 C731 1.503 . S
C724 C723 1.410 . S
C724 C725 1.392 . S
C724 C727 1.511 . S
C725 C721 1.376 . S
C725 C724 1.392 . S
C725 H737 0.929 . S
C726 C722 1.531 . S
C726 H738 0.960 . S
C726 H739 0.962 . S
C726 H740 0.960 . S
C727 C724 1.511 . S
C727 H741 0.961 . S
C727 H742 0.961 . S
C727 H743 0.961 . S
C728 C729 1.370 . S
C728 C730 1.363 . S
C728 H744 0.931 . S
C729 C728 1.370 . S
C729 C733 1.408 . S
C730 C728 1.363 . S
C730 C731 1.370 . S
C730 C734 1.524 . S
C731 C723 1.503 . S
C731 C730 1.370 . S
C731 C732 1.403 . S
C732 C731 1.403 . S
C732 C733 1.404 . S
C732 C735 1.539 . S
C733 C729 1.408 . S
C733 C732 1.404 . S
C733 H745 0.930 . S
C734 C730 1.524 . S
C734 H746 0.956 . S
C734 H747 0.961 . S
C734 H748 0.961 . S
C735 C732 1.539 . S
C735 H749 0.958 . S
C735 H750 0.961 . S
C735 H751 0.960 . S
H736 C720 0.931 . S
H737 C725 0.929 . S
H738 C726 0.960 . S
H739 C726 0.962 . S
H740 C726 0.960 . S
H741 C727 0.961 . S
H742 C727 0.961 . S
H743 C727 0.961 . S
H744 C728 0.931 . S
H745 C733 0.930 . S
H746 C734 0.956 . S
H747 C734 0.961 . S
H748 C734 0.961 . S
H749 C735 0.958 . S
H750 C735 0.961 . S
H751 C735 0.960 . S
C752 C753 1.391 . S
C752 C754 1.394 . S
C752 H768 0.931 . S
C753 C752 1.391 . S
C753 C757 1.376 . S
C754 C752 1.394 . S
C754 C755 1.369 . S
C754 C758 1.531 . S
C755 C754 1.369 . S
C755 C756 1.410 . S
C755 C763 1.503 . S
C756 C755 1.410 . S
C756 C757 1.392 . S
C756 C759 1.511 . S
C757 C753 1.376 . S
C757 C756 1.392 . S
C757 H769 0.929 . S
C758 C754 1.531 . S
C758 H770 0.960 . S
C758 H771 0.962 . S
C758 H772 0.960 . S
C759 C756 1.511 . S
C759 H773 0.961 . S
C759 H774 0.961 . S
C759 H775 0.961 . S
C760 C761 1.370 . S
C760 C762 1.363 . S
C760 H776 0.931 . S
C761 C760 1.370 . S
C761 C765 1.408 . S
C762 C760 1.363 . S
C762 C763 1.370 . S
C762 C766 1.524 . S
C763 C755 1.503 . S
C763 C762 1.370 . S
C763 C764 1.403 . S
C764 C763 1.403 . S
C764 C765 1.404 . S
C764 C767 1.539 . S
C765 C761 1.408 . S
C765 C764 1.404 . S
C765 H777 0.930 . S
C766 C762 1.524 . S
C766 H778 0.956 . S
C766 H779 0.961 . S
C766 H780 0.961 . S
C767 C764 1.539 . S
C767 H781 0.958 . S
C767 H782 0.961 . S
C767 H783 0.960 . S
H768 C752 0.931 . S
H769 C757 0.929 . S
H770 C758 0.960 . S
H771 C758 0.962 . S
H772 C758 0.960 . S
H773 C759 0.961 . S
H774 C759 0.961 . S
H775 C759 0.961 . S
H776 C760 0.931 . S
H777 C765 0.930 . S
H778 C766 0.956 . S
H779 C766 0.961 . S
H780 C766 0.961 . S
H781 C767 0.958 . S
H782 C767 0.961 . S
H783 C767 0.960 . S
C784 C785 1.391 . S
C784 C786 1.394 . S
C784 H800 0.931 . S
C785 C784 1.391 . S
C785 C789 1.376 . S
C786 C784 1.394 . S
C786 C787 1.369 . S
C786 C790 1.531 . S
C787 C786 1.369 . S
C787 C788 1.410 . S
C787 C795 1.503 . S
C788 C787 1.410 . S
C788 C789 1.392 . S
C788 C791 1.511 . S
C789 C785 1.376 . S
C789 C788 1.392 . S
C789 H801 0.929 . S
C790 C786 1.531 . S
C790 H802 0.960 . S
C790 H803 0.962 . S
C790 H804 0.960 . S
C791 C788 1.511 . S
C791 H805 0.961 . S
C791 H806 0.961 . S
C791 H807 0.961 . S
C792 C793 1.370 . S
C792 C794 1.363 . S
C792 H808 0.931 . S
C793 C792 1.370 . S
C793 C797 1.408 . S
C794 C792 1.363 . S
C794 C795 1.370 . S
C794 C798 1.524 . S
C795 C787 1.503 . S
C795 C794 1.370 . S
C795 C796 1.403 . S
C796 C795 1.403 . S
C796 C797 1.404 . S
C796 C799 1.539 . S
C797 C793 1.408 . S
C797 C796 1.404 . S
C797 H809 0.930 . S
C798 C794 1.524 . S
C798 H810 0.956 . S
C798 H811 0.961 . S
C798 H812 0.961 . S
C799 C796 1.539 . S
C799 H813 0.958 . S
C799 H814 0.961 . S
C799 H815 0.960 . S
H800 C784 0.931 . S
H801 C789 0.929 . S
H802 C790 0.960 . S
H803 C790 0.962 . S
H804 C790 0.960 . S
H805 C791 0.961 . S
H806 C791 0.961 . S
H807 C791 0.961 . S
H808 C792 0.931 . S
H809 C797 0.930 . S
H810 C798 0.956 . S
H811 C798 0.961 . S
H812 C798 0.961 . S
H813 C799 0.958 . S
H814 C799 0.961 . S
H815 C799 0.960 . S
C816 C817 1.391 . S
C816 C818 1.394 . S
C816 H832 0.931 . S
C817 C816 1.391 . S
C817 C821 1.376 . S
C818 C816 1.394 . S
C818 C819 1.369 . S
C818 C822 1.531 . S
C819 C818 1.369 . S
C819 C820 1.410 . S
C819 C827 1.503 1_556 S
C820 C819 1.410 . S
C820 C821 1.392 . S
C820 C823 1.511 1_556 S
C821 C817 1.376 . S
C821 C820 1.392 . S
C821 H833 0.929 . S
C822 C818 1.531 . S
C822 H834 0.960 . S
C822 H835 0.962 . S
C822 H836 0.960 . S
C823 C820 1.511 1_554 S
C823 H837 0.961 . S
C823 H838 0.961 . S
C823 H839 0.961 . S
C824 C825 1.370 . S
C824 C826 1.363 . S
C824 H840 0.931 . S
C825 C824 1.370 . S
C825 C829 1.408 . S
C826 C824 1.363 . S
C826 C827 1.370 . S
C826 C830 1.524 . S
C827 C819 1.503 1_554 S
C827 C826 1.370 . S
C827 C828 1.403 1_554 S
C828 C827 1.403 1_556 S
C828 C829 1.404 1_556 S
C828 C831 1.539 . S
C829 C825 1.408 . S
C829 C828 1.404 1_554 S
C829 H841 0.930 . S
C830 C826 1.524 . S
C830 H842 0.956 . S
C830 H843 0.961 . S
C830 H844 0.961 . S
C831 C828 1.539 . S
C831 H845 0.958 . S
C831 H846 0.961 . S
C831 H847 0.960 . S
H832 C816 0.931 . S
H833 C821 0.929 . S
H834 C822 0.960 . S
H835 C822 0.962 . S
H836 C822 0.960 . S
H837 C823 0.961 . S
H838 C823 0.961 . S
H839 C823 0.961 . S
H840 C824 0.931 . S
H841 C829 0.930 . S
H842 C830 0.956 . S
H843 C830 0.961 . S
H844 C830 0.961 . S
H845 C831 0.958 . S
H846 C831 0.961 . S
H847 C831 0.960 . S
C848 C849 1.391 . S
C848 C850 1.394 . S
C848 H864 0.931 . S
C849 C848 1.391 . S
C849 C853 1.376 . S
C850 C848 1.394 . S
C850 C851 1.369 . S
C850 C854 1.531 . S
C851 C850 1.369 . S
C851 C852 1.410 . S
C851 C859 1.503 . S
C852 C851 1.410 . S
C852 C853 1.392 . S
C852 C855 1.511 . S
C853 C849 1.376 . S
C853 C852 1.392 . S
C853 H865 0.929 . S
C854 C850 1.531 . S
C854 H866 0.960 . S
C854 H867 0.962 . S
C854 H868 0.960 . S
C855 C852 1.511 . S
C855 H869 0.961 . S
C855 H870 0.961 . S
C855 H871 0.961 . S
C856 C857 1.370 . S
C856 C858 1.363 . S
C856 H872 0.931 . S
C857 C856 1.370 . S
C857 C861 1.408 . S
C858 C856 1.363 . S
C858 C859 1.370 . S
C858 C862 1.524 . S
C859 C851 1.503 . S
C859 C858 1.370 . S
C859 C860 1.403 . S
C860 C859 1.403 . S
C860 C861 1.404 . S
C860 C863 1.539 . S
C861 C857 1.408 . S
C861 C860 1.404 . S
C861 H873 0.930 . S
C862 C858 1.524 . S
C862 H874 0.956 . S
C862 H875 0.961 . S
C862 H876 0.961 . S
C863 C860 1.539 . S
C863 H877 0.958 . S
C863 H878 0.961 . S
C863 H879 0.960 . S
H864 C848 0.931 . S
H865 C853 0.929 . S
H866 C854 0.960 . S
H867 C854 0.962 . S
H868 C854 0.960 . S
H869 C855 0.961 . S
H870 C855 0.961 . S
H871 C855 0.961 . S
H872 C856 0.931 . S
H873 C861 0.930 . S
H874 C862 0.956 . S
H875 C862 0.961 . S
H876 C862 0.961 . S
H877 C863 0.958 . S
H878 C863 0.961 . S
H879 C863 0.960 . S
C880 C881 1.391 . S
C880 C882 1.394 1_556 S
C880 H896 0.931 1_556 S
C881 C880 1.391 . S
C881 C885 1.376 . S
C882 C880 1.394 1_554 S
C882 C883 1.369 1_554 S
C882 C886 1.531 . S
C883 C882 1.369 1_556 S
C883 C884 1.410 . S
C883 C891 1.503 1_556 S
C884 C883 1.410 . S
C884 C885 1.392 . S
C884 C887 1.511 . S
C885 C881 1.376 . S
C885 C884 1.392 . S
C885 H897 0.929 . S
C886 C882 1.531 . S
C886 H898 0.960 . S
C886 H899 0.962 . S
C886 H900 0.960 . S
C887 C884 1.511 . S
C887 H901 0.961 . S
C887 H902 0.961 . S
C887 H903 0.961 . S
C888 C889 1.370 . S
C888 C890 1.363 . S
C888 H904 0.931 . S
C889 C888 1.370 . S
C889 C893 1.408 . S
C890 C888 1.363 . S
C890 C891 1.370 . S
C890 C894 1.524 1_554 S
C891 C883 1.503 1_554 S
C891 C890 1.370 . S
C891 C892 1.403 . S
C892 C891 1.403 . S
C892 C893 1.404 . S
C892 C895 1.539 . S
C893 C889 1.408 . S
C893 C892 1.404 . S
C893 H905 0.930 . S
C894 C890 1.524 1_556 S
C894 H906 0.956 . S
C894 H907 0.961 . S
C894 H908 0.961 . S
C895 C892 1.539 . S
C895 H909 0.958 . S
C895 H910 0.961 . S
C895 H911 0.960 . S
H896 C880 0.931 1_554 S
H897 C885 0.929 . S
H898 C886 0.960 . S
H899 C886 0.962 . S
H900 C886 0.960 . S
H901 C887 0.961 . S
H902 C887 0.961 . S
H903 C887 0.961 . S
H904 C888 0.931 . S
H905 C893 0.930 . S
H906 C894 0.956 . S
H907 C894 0.961 . S
H908 C894 0.961 . S
H909 C895 0.958 . S
H910 C895 0.961 . S
H911 C895 0.960 . S
C273 C104 1.317 1_554 S
C281 C20 1.317 . S
C305 C54 1.308 . S
C313 C70 1.318 . S
C337 C88 1.316 . S
C345 C36 1.319 1_556 S
C369 C122 1.307 . S
C377 C2 1.320 . S
C401 C156 1.324 . S
C409 C240 1.324 1_554 S
C433 C190 1.306 . S
C441 C206 1.318 . S
C465 C172 1.311 1_556 S
C473 C224 1.315 . S
C497 C258 1.306 . S
C505 C138 1.319 . S
C529 C77 1.327 . S
C537 C9 1.383 . S
C561 C111 1.400 . S
C569 C43 1.354 . S
C593 C145 1.346 . S
C601 C213 1.374 . S
C625 C179 1.396 . S
C633 C247 1.357 . S
C657 C5 1.575 . S
C665 C39 1.586 . S
C689 C107 1.577 . S
C697 C73 1.586 . S
C721 C175 1.596 . S
C729 C141 1.598 . S
C753 C243 1.574 . S
C761 C209 1.589 . S
C785 C237 1.548 . S
C793 C33 1.567 . S
C817 C271 1.573 . S
C825 C67 1.558 . S
C849 C169 1.571 . S
C857 C101 1.559 . S
C881 C135 1.550 . S
C889 C203 1.566 . S
