# Generated by pormake.
# Topology wjd, (6)-cn, num edge types: 1
# Building blocks:
#     Node 0, Type 0, BuildingBlock: PAMTUU_clean_sbu_0, # of connection points: 6
#     Node 1, Type 0, BuildingBlock: PAMTUU_clean_sbu_0, # of connection points: 6
#     Node 2, Type 0, BuildingBlock: PAMTUU_clean_sbu_0, # of connection points: 6
#     Node 3, Type 0, BuildingBlock: PAMTUU_clean_sbu_0, # of connection points: 6
#     Node 4, Type 0, BuildingBlock: PAMTUU_clean_sbu_0, # of connection points: 6
#     Node 5, Type 0, BuildingBlock: PAMTUU_clean_sbu_0, # of connection points: 6
#     Node 6, Type 0, BuildingBlock: PAMTUU_clean_sbu_0, # of connection points: 6
#     Node 7, Type 0, BuildingBlock: PAMTUU_clean_sbu_0, # of connection points: 6
#     Node 8, Type 0, BuildingBlock: PAMTUU_clean_sbu_0, # of connection points: 6
#     Node 9, Type 0, BuildingBlock: PAMTUU_clean_sbu_0, # of connection points: 6
#     Node 10, Type 0, BuildingBlock: PAMTUU_clean_sbu_0, # of connection points: 6
#     Node 11, Type 0, BuildingBlock: PAMTUU_clean_sbu_0, # of connection points: 6
#     Edge 12, Type (0, 0), BuildingBlock: CIFDUS_clean_linker_0, # of connection points: 2
#     Edge 13, Type (0, 0), BuildingBlock: CIFDUS_clean_linker_0, # of connection points: 2
#     Edge 14, Type (0, 0), BuildingBlock: CIFDUS_clean_linker_0, # of connection points: 2
#     Edge 15, Type (0, 0), BuildingBlock: CIFDUS_clean_linker_0, # of connection points: 2
#     Edge 16, Type (0, 0), BuildingBlock: CIFDUS_clean_linker_0, # of connection points: 2
#     Edge 17, Type (0, 0), BuildingBlock: CIFDUS_clean_linker_0, # of connection points: 2
#     Edge 18, Type (0, 0), BuildingBlock: CIFDUS_clean_linker_0, # of connection points: 2
#     Edge 19, Type (0, 0), BuildingBlock: CIFDUS_clean_linker_0, # of connection points: 2
#     Edge 20, Type (0, 0), BuildingBlock: CIFDUS_clean_linker_0, # of connection points: 2
#     Edge 21, Type (0, 0), BuildingBlock: CIFDUS_clean_linker_0, # of connection points: 2
#     Edge 22, Type (0, 0), BuildingBlock: CIFDUS_clean_linker_0, # of connection points: 2
#     Edge 23, Type (0, 0), BuildingBlock: CIFDUS_clean_linker_0, # of connection points: 2
#     Edge 24, Type (0, 0), BuildingBlock: CIFDUS_clean_linker_0, # of connection points: 2
#     Edge 25, Type (0, 0), BuildingBlock: CIFDUS_clean_linker_0, # of connection points: 2
#     Edge 26, Type (0, 0), BuildingBlock: CIFDUS_clean_linker_0, # of connection points: 2
#     Edge 27, Type (0, 0), BuildingBlock: CIFDUS_clean_linker_0, # of connection points: 2
#     Edge 28, Type (0, 0), BuildingBlock: CIFDUS_clean_linker_0, # of connection points: 2
#     Edge 29, Type (0, 0), BuildingBlock: CIFDUS_clean_linker_0, # of connection points: 2
#     Edge 30, Type (0, 0), BuildingBlock: CIFDUS_clean_linker_0, # of connection points: 2
#     Edge 31, Type (0, 0), BuildingBlock: CIFDUS_clean_linker_0, # of connection points: 2
#     Edge 32, Type (0, 0), BuildingBlock: CIFDUS_clean_linker_0, # of connection points: 2
#     Edge 33, Type (0, 0), BuildingBlock: CIFDUS_clean_linker_0, # of connection points: 2
#     Edge 34, Type (0, 0), BuildingBlock: CIFDUS_clean_linker_0, # of connection points: 2
#     Edge 35, Type (0, 0), BuildingBlock: CIFDUS_clean_linker_0, # of connection points: 2
#     Edge 36, Type (0, 0), BuildingBlock: CIFDUS_clean_linker_0, # of connection points: 2
#     Edge 37, Type (0, 0), BuildingBlock: CIFDUS_clean_linker_0, # of connection points: 2
#     Edge 38, Type (0, 0), BuildingBlock: CIFDUS_clean_linker_0, # of connection points: 2
#     Edge 39, Type (0, 0), BuildingBlock: CIFDUS_clean_linker_0, # of connection points: 2
#     Edge 40, Type (0, 0), BuildingBlock: CIFDUS_clean_linker_0, # of connection points: 2
#     Edge 41, Type (0, 0), BuildingBlock: CIFDUS_clean_linker_0, # of connection points: 2
#     Edge 42, Type (0, 0), BuildingBlock: CIFDUS_clean_linker_0, # of connection points: 2
#     Edge 43, Type (0, 0), BuildingBlock: CIFDUS_clean_linker_0, # of connection points: 2
#     Edge 44, Type (0, 0), BuildingBlock: CIFDUS_clean_linker_0, # of connection points: 2
#     Edge 45, Type (0, 0), BuildingBlock: CIFDUS_clean_linker_0, # of connection points: 2
#     Edge 46, Type (0, 0), BuildingBlock: CIFDUS_clean_linker_0, # of connection points: 2
#     Edge 47, Type (0, 0), BuildingBlock: CIFDUS_clean_linker_0, # of connection points: 2
# Relax obj value: 0.091
# Max RMSD: 0.219
# Mean RMSD: 0.219
data_MOF--net-wjd--node1-PAMTUU_clean_sbu_0--edge1-CIFDUS_clean_linker_0
_symmetry_space_group_name_H-M    P1
_symmetry_Int_Tables_number       1
_symmetry_cell_setting            triclinic
loop_
_symmetry_equiv_pos_as_xyz
'x, y, z'
_cell_length_a     36.067709
_cell_length_b     35.991992
_cell_length_c     46.51257
_cell_angle_alpha  89.484457
_cell_angle_beta   90.629235
_cell_angle_gamma 120.10465
loop_
_atom_site_label
_atom_site_type_symbol
_atom_site_fract_x
_atom_site_fract_y
_atom_site_fract_z
_atom_type_partial_charge
Tb0 Tb 0.34159 0.10485 0.14652 0.0
Tb1 Tb 0.39521 0.19962 0.11526 0.0
C2 C 0.39461 0.18628 0.18271 0.0
C3 C 0.24815 0.99919 0.16256 0.0
C4 C 0.16134 0.93783 0.15131 0.0
C5 C 0.17821 0.94352 0.1794 0.0
C6 C 0.22134 0.97384 0.18494 0.0
C7 C 0.23101 0.99417 0.13467 0.0
C8 C 0.18824 0.96363 0.12906 0.0
C9 C 0.29339 0.03175 0.16842 0.0
O10 O 0.30456 0.13782 0.14921 0.0
O11 O 0.32799 0.17754 0.10807 0.0
O12 O 0.37868 0.15124 0.08152 0.0
O13 O 0.31944 0.09534 0.10237 0.0
O14 O 0.40463 0.26198 0.11053 0.0
O15 O 0.44257 0.24206 0.08669 0.0
O16 O 0.44325 0.18598 0.13197 0.0
O17 O 0.40327 0.11226 0.13312 0.0
O18 O 0.38622 0.14678 0.17885 0.0
O19 O 0.39079 0.2088 0.16154 0.0
C20 C 0.29953 0.15995 0.12845 0.0
O21 O 0.32043 0.03884 0.14781 0.0
O22 O 0.29979 0.06753 0.1797 0.0
C23 C 0.34393 0.11295 0.07996 0.0
C24 C 0.47574 0.31519 0.09974 0.0
C25 C 0.55149 0.39435 0.11029 0.0
C26 C 0.52229 0.39097 0.08872 0.0
C27 C 0.48484 0.35177 0.08351 0.0
C28 C 0.50427 0.31839 0.12163 0.0
C29 C 0.54179 0.35759 0.12684 0.0
C30 C 0.43683 0.27398 0.09317 0.0
C31 C 0.44061 0.14828 0.13191 0.0
H32 H 0.15829 0.92401 0.19696 0.0
H33 H 0.23375 0.9775 0.20668 0.0
H34 H 0.25066 1.01397 0.11718 0.0
H35 H 0.17607 0.9605 0.10728 0.0
H36 H 0.52889 0.41833 0.07531 0.0
H37 H 0.4632 0.34989 0.0665 0.0
H38 H 0.49768 0.29052 0.1345 0.0
H39 H 0.56323 0.3591 0.14387 0.0
Tb40 Tb 0.84965 0.66788 0.41502 0.0
Tb41 Tb 0.80988 0.72369 0.38388 0.0
C42 C 0.81521 0.71977 0.44981 0.0
C43 C 0.8902 0.59044 0.43179 0.0
C44 C 0.91215 0.52592 0.42266 0.0
C45 C 0.90529 0.53597 0.45058 0.0
C46 C 0.89452 0.56782 0.45505 0.0
C47 C 0.89618 0.58016 0.40378 0.0
C48 C 0.90698 0.54818 0.39926 0.0
C49 C 0.88225 0.62624 0.43767 0.0
O50 O 0.78777 0.62108 0.39777 0.0
O51 O 0.75468 0.66168 0.39682 0.0
O52 O 0.80706 0.67918 0.35196 0.0
O53 O 0.86352 0.67243 0.36878 0.0
O54 O 0.76975 0.7504 0.38487 0.0
O55 O 0.8113 0.76173 0.34882 0.0
O56 O 0.87964 0.75993 0.38068 0.0
O57 O 0.89561 0.73507 0.42151 0.0
O58 O 0.81702 0.68406 0.44827 0.0
O59 O 0.82495 0.74556 0.42768 0.0
C60 C 0.75292 0.62407 0.39753 0.0
O61 O 0.8427 0.61681 0.44152 0.0
O62 O 0.90345 0.66104 0.42232 0.0
C63 C 0.83763 0.67023 0.34779 0.0
C64 C 0.80317 0.81969 0.36355 0.0
C65 C 0.8375 0.90975 0.36612 0.0
C66 C 0.8156 0.88649 0.34137 0.0
C67 C 0.79857 0.84193 0.34014 0.0
C68 C 0.82528 0.84277 0.38822 0.0
C69 C 0.84206 0.88727 0.38955 0.0
C70 C 0.7864 0.77293 0.36155 0.0
C71 C 0.90696 0.76371 0.40095 0.0
H72 H 0.90805 0.51905 0.46911 0.0
H73 H 0.89009 0.5752 0.47684 0.0
H74 H 0.89319 0.5973 0.38545 0.0
H75 H 0.91221 0.54158 0.37747 0.0
H76 H 0.81112 0.90266 0.32306 0.0
H77 H 0.78189 0.82482 0.32084 0.0
H78 H 0.82984 0.82645 0.40642 0.0
H79 H 0.85917 0.90419 0.40879 0.0
Tb80 Tb 0.96619 0.25734 0.13558 0.0
Tb81 Tb 0.87051 0.22075 0.10563 0.0
C82 C 0.88387 0.22472 0.17189 0.0
C83 C 0.06623 0.25919 0.15721 0.0
C84 C 0.12025 0.2233 0.15805 0.0
C85 C 0.12477 0.25339 0.17895 0.0
C86 C 0.09807 0.27128 0.17845 0.0
C87 C 0.06071 0.22813 0.13689 0.0
C88 C 0.08757 0.21051 0.13723 0.0
C89 C 0.04008 0.2802 0.15564 0.0
O90 O 0.94763 0.19391 0.11857 0.0
O91 O 0.87508 0.16602 0.12031 0.0
O92 O 0.915 0.22593 0.07182 0.0
O93 O 0.97274 0.28258 0.09256 0.0
O94 O 0.80718 0.16989 0.10284 0.0
O95 O 0.82821 0.22634 0.0765 0.0
O96 O 0.8981 0.28973 0.10841 0.0
O97 O 0.95169 0.30896 0.14267 0.0
O98 O 0.91793 0.2214 0.1677 0.0
O99 O 0.86523 0.2337 0.15071 0.0
C100 C 0.90847 0.16082 0.11935 0.0
O101 O 1.03273 0.28947 0.12988 0.0
O102 O 1.00562 0.26353 0.17124 0.0
C103 C 0.9546 0.25833 0.07017 0.0
C104 C 0.75534 0.19045 0.09266 0.0
C105 C 0.67723 0.1879 0.10528 0.0
C106 C 0.70831 0.22061 0.08775 0.0
C107 C 0.74682 0.22183 0.08148 0.0
C108 C 0.72415 0.15756 0.10999 0.0
C109 C 0.68572 0.15639 0.1163 0.0
C110 C 0.79538 0.19044 0.08527 0.0
C111 C 0.92584 0.31728 0.127 0.0
H112 H 0.14983 0.26412 0.19514 0.0
H113 H 0.10282 0.29516 0.19432 0.0
H114 H 1.03613 0.21805 0.1204 0.0
H115 H 0.08291 0.18701 0.12109 0.0
H116 H 0.70263 0.24502 0.07845 0.0
H117 H 0.76974 0.24719 0.06767 0.0
H118 H 0.72932 0.13249 0.11869 0.0
H119 H 0.66286 0.13099 0.1301 0.0
Tb120 Tb 0.40138 0.18986 0.41751 0.0
Tb121 Tb 0.33312 0.10387 0.38141 0.0
C122 C 0.33368 0.10428 0.44977 0.0
C123 C 0.49162 0.30152 0.43512 0.0
C124 C 0.56012 0.38393 0.42045 0.0
C125 C 0.56681 0.35649 0.43874 0.0
C126 C 0.533 0.31593 0.44602 0.0
C127 C 0.48439 0.32911 0.41727 0.0
C128 C 0.51839 0.37014 0.41013 0.0
C129 C 0.45748 0.25742 0.44253 0.0
O130 O 0.41739 0.13991 0.42335 0.0
O131 O 0.39677 0.11042 0.37896 0.0
O132 O 0.35874 0.15721 0.35154 0.0
O133 O 0.42402 0.19914 0.37293 0.0
O134 O 0.30366 0.0373 0.37404 0.0
O135 O 0.29047 0.07792 0.3466 0.0
O136 O 0.2965 0.13097 0.3994 0.0
O137 O 0.35136 0.20076 0.40043 0.0
O138 O 0.35738 0.14668 0.45062 0.0
O139 O 0.32536 0.0826 0.42571 0.0
C140 C 0.42207 0.1199 0.4016 0.0
O141 O 0.41758 0.24739 0.43912 0.0
O142 O 0.46379 0.22668 0.43404 0.0
C143 C 0.39889 0.18742 0.35011 0.0
C144 C 0.23246 1.00851 0.35694 0.0
C145 C 0.14404 0.95044 0.36389 0.0
C146 C 0.17372 0.936 0.36546 0.0
C147 C 0.21748 0.96474 0.36188 0.0
C148 C 0.20275 1.02298 0.35535 0.0
C149 C 0.15897 0.99417 0.35866 0.0
C150 C 0.27894 0.03858 0.35388 0.0
C151 C 0.31022 0.17237 0.40002 0.0
H152 H 0.59843 0.36637 0.44737 0.0
H153 H 0.53934 0.29543 0.45997 0.0
H154 H 0.45275 0.31881 0.40853 0.0
H155 H 0.51233 0.39054 0.39592 0.0
H156 H 0.16303 0.90237 0.36917 0.0
H157 H 0.2397 0.9528 0.3631 0.0
H158 H 0.21322 0.05658 0.35172 0.0
H159 H 0.13685 1.00623 0.35761 0.0
Tb160 Tb 0.80971 0.73074 0.14112 0.0
Tb161 Tb 0.85472 0.67784 0.11553 0.0
C162 C 0.82634 0.67098 0.18062 0.0
C163 C 0.79494 0.82311 0.15399 0.0
C164 C 0.81964 0.9098 0.14333 0.0
C165 C 0.78375 0.88354 0.16047 0.0
C166 C 0.77151 0.84059 0.16569 0.0
C167 C 0.83134 0.84928 0.13741 0.0
C168 C 0.84364 0.89231 0.13216 0.0
C169 C 0.78063 0.77737 0.15835 0.0
O170 O 0.87792 0.76578 0.1523 0.0
O171 O 0.9024 0.74547 0.11401 0.0
O172 O 0.82875 0.69685 0.07868 0.0
O173 O 0.8328 0.75635 0.09895 0.0
O174 O 0.90803 0.66878 0.11674 0.0
O175 O 0.85555 0.63306 0.08726 0.0
O176 O 0.79 0.62859 0.12579 0.0
O177 O 0.75723 0.6695 0.1247 0.0
O178 O 0.79893 0.68329 0.1734 0.0
O179 O 0.85623 0.67453 0.16286 0.0
C180 C 0.90941 0.7716 0.13544 0.0
O181 O 0.76696 0.75374 0.1353 0.0
O182 O 0.80616 0.76903 0.1736 0.0
C183 C 0.8266 0.73232 0.07652 0.0
C184 C 0.89217 0.59838 0.10544 0.0
C185 C 0.89371 0.52174 0.11675 0.0
C186 C 0.92931 0.55756 0.10448 0.0
C187 C 0.92847 0.59543 0.09884 0.0
C188 C 0.85709 0.56328 0.1186 0.0
C189 C 0.85781 0.52531 0.12412 0.0
C190 C 0.89131 0.63791 0.09793 0.0
C191 C 0.75539 0.63189 0.12396 0.0
H192 H 0.76495 0.89618 0.16978 0.0
H193 H 0.74345 0.8209 0.17862 0.0
H194 H 0.84981 0.83621 0.12817 0.0
H195 H 0.87118 0.91148 0.1187 0.0
H196 H 0.95725 0.55582 0.09826 0.0
H197 H 0.95593 0.62222 0.08877 0.0
H198 H 0.82889 0.56499 0.12418 0.0
H199 H 0.83005 0.49854 0.13392 0.0
Tb200 Tb 0.86524 0.21592 0.40495 0.0
Tb201 Tb 0.96266 0.2537 0.38062 0.0
C202 C 0.94539 0.24804 0.44536 0.0
C203 C 0.74155 0.17443 0.4187 0.0
C204 C 0.65304 0.1465 0.42263 0.0
C205 C 0.67436 0.13777 0.44499 0.0
C206 C 0.71827 0.15158 0.44301 0.0
C207 C 0.72014 0.1831 0.3965 0.0
C208 C 0.67665 0.16944 0.39845 0.0
C209 C 0.78764 0.1888 0.41537 0.0
O210 O 0.88636 0.28141 0.39215 0.0
O211 O 0.9597 0.31149 0.39168 0.0
O212 O 0.92349 0.25651 0.34608 0.0
O213 O 0.86479 0.19542 0.36081 0.0
O214 O 1.0291 0.29304 0.38627 0.0
O215 O 1.00299 0.25386 0.34831 0.0
O216 O 0.93146 0.18313 0.37842 0.0
O217 O 0.87665 0.16279 0.41091 0.0
O218 O 0.90985 0.24948 0.4409 0.0
O219 O 0.96102 0.23532 0.42494 0.0
C220 C 0.92501 0.31497 0.3917 0.0
O221 O 0.80676 0.20755 0.3916 0.0
O222 O 0.8127 0.18539 0.43449 0.0
C223 C 0.88638 0.22282 0.34033 0.0
C224 C 0.06725 0.26056 0.36771 0.0
C225 C 0.1227 0.22689 0.37565 0.0
C226 C 0.09771 0.21791 0.3505 0.0
C227 C 0.07048 0.23473 0.34652 0.0
C228 C 0.09251 0.2698 0.39279 0.0
C229 C 0.1199 0.25316 0.3967 0.0
C230 C 0.03746 0.27739 0.36363 0.0
C231 C 0.90115 0.15397 0.39505 0.0
H232 H 0.65708 0.12007 0.46391 0.0
H233 H 0.73388 0.14427 0.46037 0.0
H234 H 0.73701 0.20078 0.37745 0.0
H235 H 0.66175 0.17777 0.38116 0.0
H236 H 0.09965 0.19833 0.3337 0.0
H237 H 0.05184 0.22739 0.32682 0.0
H238 H 0.09101 0.28971 0.40954 0.0
H239 H 0.13851 0.26042 0.4164 0.0
Tb240 Tb 0.2002 0.37885 0.6112 0.0
Tb241 Tb 0.10844 0.32112 0.64457 0.0
C242 C 0.11293 0.32644 0.57725 0.0
C243 C 0.31313 0.46323 0.59607 0.0
C244 C 0.39014 0.53915 0.61041 0.0
C245 C 0.3501 0.5342 0.61776 0.0
C246 C 0.31198 0.49653 0.61079 0.0
C247 C 0.35294 0.46776 0.5891 0.0
C248 C 0.39109 0.50529 0.59624 0.0
C249 C 0.27341 0.42311 0.58862 0.0
O250 O 0.16893 0.41674 0.61096 0.0
O251 O 0.12338 0.38791 0.64948 0.0
O252 O 0.15913 0.34242 0.67664 0.0
O253 O 0.21061 0.40406 0.65489 0.0
O254 O 0.04295 0.29999 0.65004 0.0
O255 O 0.07491 0.27518 0.67657 0.0
O256 O 0.12615 0.27666 0.62612 0.0
O257 O 0.198 0.32214 0.62928 0.0
O258 O 0.15391 0.3377 0.57816 0.0
O259 O 0.09254 0.32631 0.60039 0.0
C260 C 0.1448 0.41935 0.63087 0.0
O261 O 0.26313 0.39092 0.60596 0.0
O262 O 0.24003 0.42618 0.58141 0.0
C263 C 0.19405 0.38011 0.67788 0.0
C264 C 1.00399 0.22678 0.66276 0.0
C265 C 0.938 0.14209 0.65125 0.0
C266 C 0.93258 0.1672 0.67201 0.0
C267 C 0.96531 0.20914 0.67771 0.0
C268 C 1.00977 0.20188 0.64214 0.0
C269 C 0.9771 0.15981 0.6365 0.0
C270 C 0.0382 0.27096 0.66888 0.0
C271 C 0.16523 0.28308 0.62817 0.0
H272 H 0.34826 0.55949 0.62894 0.0
H273 H 0.28163 0.49349 0.61682 0.0
H274 H 0.35453 0.44229 0.57795 0.0
H275 H 0.42129 0.50824 0.58999 0.0
H276 H 0.90305 0.15431 0.684 0.0
H277 H 0.96039 0.22782 0.69378 0.0
H278 H 0.03946 0.21505 0.63031 0.0
H279 H 0.98211 0.1415 0.6202 0.0
Tb280 Tb 0.26076 0.94592 0.88148 0.0
Tb281 Tb 0.23834 0.85799 0.91763 0.0
C282 C 0.23828 0.8607 0.85043 0.0
C283 C 0.26203 0.04484 0.85749 0.0
C284 C 0.2325 0.10364 0.86271 0.0
C285 C 0.25424 0.10326 0.83786 0.0
C286 C 0.26886 0.07408 0.8353 0.0
C287 C 0.24056 0.04511 0.88239 0.0
C288 C 0.22602 0.07436 0.88502 0.0
C289 C 0.2753 1.01271 0.85387 0.0
O290 O 0.19711 0.92196 0.89971 0.0
O291 O 0.17876 0.8512 0.90127 0.0
O292 O 0.23915 0.9023 0.95011 0.0
O293 O 0.27865 0.96615 0.92561 0.0
O294 O 0.19286 0.79754 0.93419 0.0
O295 O 0.26035 0.82196 0.94037 0.0
O296 O 0.30653 0.90229 0.91968 0.0
O297 O 0.3152 0.93522 0.87621 0.0
O298 O 0.23082 0.89262 0.85187 0.0
O299 O 0.25008 0.84712 0.87317 0.0
C300 C 0.1679 0.88096 0.90096 0.0
O301 O 0.30094 1.01194 0.87352 0.0
O302 O 0.24444 0.97424 0.84774 0.0
C303 C 0.2624 0.94469 0.94954 0.0
C304 C 0.21714 0.74682 0.93533 0.0
C305 C 0.21057 0.66739 0.92123 0.0
C306 C 0.24055 0.6946 0.94183 0.0
C307 C 0.24369 0.73373 0.94883 0.0
C308 C 0.18674 0.71955 0.91491 0.0
C309 C 0.18337 0.68009 0.90803 0.0
C310 C 0.22209 0.78889 0.94309 0.0
C311 C 0.32986 0.92082 0.89697 0.0
H312 H 0.26023 0.12575 0.82047 0.0
H313 H 0.28521 0.07411 0.81588 0.0
H314 H 0.23462 1.02236 0.89962 0.0
H315 H 0.209 0.07351 0.90428 0.0
H316 H 0.26153 0.6855 0.95272 0.0
H317 H 0.26713 0.75398 0.96479 0.0
H318 H 0.1658 0.72877 0.90412 0.0
H319 H 0.16014 0.65994 0.89196 0.0
Tb320 Tb 0.67058 0.8369 0.60815 0.0
Tb321 Tb 0.72611 0.79703 0.63993 0.0
C322 C 0.71848 0.79917 0.57391 0.0
C323 C 0.5869 0.86592 0.59062 0.0
C324 C 0.51021 0.86594 0.60301 0.0
C325 C 0.51997 0.83686 0.61689 0.0
C326 C 0.55798 0.83692 0.6108 0.0
C327 C 0.57738 0.89489 0.57673 0.0
C328 C 0.53946 0.89494 0.58283 0.0
C329 C 0.62782 0.86759 0.58474 0.0
O330 O 0.62773 0.76825 0.61144 0.0
O331 O 0.6592 0.74755 0.64694 0.0
O332 O 0.7088 0.82657 0.67349 0.0
O333 O 0.6507 0.82772 0.65309 0.0
O334 O 0.74879 0.75329 0.63917 0.0
O335 O 0.76799 0.80016 0.6728 0.0
O336 O 0.77234 0.86019 0.62271 0.0
O337 O 0.72952 0.89008 0.62435 0.0
O338 O 0.71148 0.83172 0.57541 0.0
O339 O 0.71193 0.77452 0.59625 0.0
C340 C 0.62609 0.74035 0.63057 0.0
O341 O 0.65801 0.8877 0.60375 0.0
O342 O 0.62566 0.83189 0.57684 0.0
C343 C 0.67479 0.83066 0.67539 0.0
C344 C 0.8202 0.7844 0.65576 0.0
C345 C 0.90601 0.80711 0.6447 0.0
C346 C 0.87417 0.76384 0.64856 0.0
C347 C 0.83174 0.75264 0.65408 0.0
C348 C 0.85189 0.82768 0.65195 0.0
C349 C 0.8944 0.83893 0.64661 0.0
C350 C 0.77496 0.7718 0.66064 0.0
C351 C 0.76763 0.89407 0.62399 0.0
H352 H 0.49851 0.81442 0.63278 0.0
H353 H 0.56497 0.81457 0.62199 0.0
H354 H 0.59939 0.91764 0.56117 0.0
H355 H 0.5328 0.91735 0.57145 0.0
H356 H 0.88213 0.73859 0.64753 0.0
H357 H 0.80783 0.71909 0.65688 0.0
H358 H 0.84378 0.85281 0.65291 0.0
H359 H 0.91801 0.87248 0.64342 0.0
Tb360 Tb 0.12293 0.33024 0.88042 0.0
Tb361 Tb 0.21811 0.38299 0.91197 0.0
C362 C 0.20471 0.38211 0.84463 0.0
C363 C 1.01631 0.23805 0.86217 0.0
C364 C 0.95223 0.15157 0.87186 0.0
C365 C 0.99583 0.16349 0.87181 0.0
C366 C 1.02758 0.20637 0.8672 0.0
C367 C 0.97287 0.22613 0.86174 0.0
C368 C 0.94116 0.18339 0.86658 0.0
C369 C 0.04934 0.28378 0.85868 0.0
O370 O 0.15457 0.29217 0.87737 0.0
O371 O 0.19446 0.3152 0.91859 0.0
O372 O 0.16926 0.36798 0.94496 0.0
O373 O 0.11468 0.30762 0.92424 0.0
O374 O 0.2623 0.43189 0.93937 0.0
O375 O 0.27836 0.38849 0.91872 0.0
O376 O 0.20546 0.4317 0.89499 0.0
O377 O 0.13174 0.39258 0.89374 0.0
O378 O 0.16561 0.37461 0.84848 0.0
O379 O 0.22721 0.37825 0.86578 0.0
C380 C 0.17682 0.28696 0.89795 0.0
O381 O 0.05669 0.30784 0.88123 0.0
O382 O 0.08487 0.29184 0.84621 0.0
C383 C 0.13113 0.33303 0.9464 0.0
C384 C 0.33585 0.45804 0.92946 0.0
C385 C 0.42118 0.52502 0.91997 0.0
C386 C 0.40867 0.50456 0.94694 0.0
C387 C 0.36655 0.4715 0.95159 0.0
C388 C 0.34787 0.47823 0.90248 0.0
C389 C 0.39012 0.51143 0.89778 0.0
C390 C 0.29209 0.42217 0.93504 0.0
C391 C 0.16805 0.42967 0.8948 0.0
H392 H 1.00544 0.13988 0.87612 0.0
H393 H 0.06095 0.21483 0.86798 0.0
H394 H 0.96346 0.25002 0.85801 0.0
H395 H 0.90788 0.17522 0.8662 0.0
H396 H 0.43128 0.51453 0.96469 0.0
H397 H 0.35792 0.45634 0.97258 0.0
H398 H 0.32469 0.46816 0.88505 0.0
H399 H 0.39858 0.52609 0.87666 0.0
Tb400 Tb 0.21145 0.84927 0.61663 0.0
Tb401 Tb 0.25659 0.94554 0.64569 0.0
C402 C 0.24319 0.93446 0.57993 0.0
C403 C 0.17608 0.73324 0.60428 0.0
C404 C 0.17448 0.65476 0.61426 0.0
C405 C 0.21321 0.69421 0.61598 0.0
C406 C 0.21401 0.73304 0.61114 0.0
C407 C 0.13719 0.69407 0.60351 0.0
C408 C 0.13634 0.65519 0.60855 0.0
C409 C 0.17649 0.77359 0.59708 0.0
O410 O 0.27459 0.86295 0.6305 0.0
O411 O 0.30874 0.93667 0.62995 0.0
O412 O 0.26083 0.90452 0.67838 0.0
O413 O 0.20202 0.8421 0.66325 0.0
O414 O 0.30136 1.01151 0.64267 0.0
O415 O 0.25932 0.98572 0.67917 0.0
O416 O 0.18734 0.91481 0.6517 0.0
O417 O 0.16465 0.86999 0.61283 0.0
O418 O 0.23992 0.8963 0.58146 0.0
O419 O 0.2377 0.95225 0.60266 0.0
C420 C 0.30977 0.90056 0.62907 0.0
O421 O 0.21232 0.80549 0.58749 0.0
O422 O 0.15834 0.78646 0.61543 0.0
C423 C 0.22985 0.86521 0.68339 0.0
C424 C 0.27387 0.05393 0.66104 0.0
C425 C 0.25179 0.1185 0.65193 0.0
C426 C 0.22402 0.08049 0.66686 0.0
C427 C 0.23489 0.04855 0.67135 0.0
C428 C 0.30144 0.09173 0.646 0.0
C429 C 0.29048 0.12346 0.64137 0.0
C430 C 0.28599 1.02042 0.66516 0.0
C431 C 0.15712 0.89006 0.63333 0.0
H432 H 0.24309 0.69502 0.62068 0.0
H433 H 0.24441 0.7628 0.61225 0.0
H434 H 0.10752 0.69347 0.59838 0.0
H435 H 0.10607 0.6254 0.60686 0.0
H436 H 0.19422 0.07573 0.67558 0.0
H437 H 0.21277 1.01974 0.68296 0.0
H438 H 0.33154 0.09669 0.63767 0.0
H439 H 0.31236 0.15189 0.62933 0.0
Tb440 Tb 0.74068 0.7997 0.88118 0.0
Tb441 Tb 0.68842 0.84591 0.90641 0.0
C442 C 0.68234 0.81799 0.84099 0.0
C443 C 0.8356 0.79032 0.86863 0.0
C444 C 0.92497 0.82531 0.87628 0.0
C445 C 0.89889 0.78291 0.86638 0.0
C446 C 0.85464 0.76563 0.86259 0.0
C447 C 0.86137 0.83258 0.87853 0.0
C448 C 0.9056 0.84995 0.88223 0.0
C449 C 0.78895 0.77207 0.86499 0.0
O450 O 0.77715 0.86835 0.87094 0.0
O451 O 0.75595 0.8934 0.90856 0.0
O452 O 0.70542 0.8183 0.94332 0.0
O453 O 0.76513 0.82275 0.92365 0.0
O454 O 0.67934 0.89936 0.905 0.0
O455 O 0.64391 0.84702 0.93462 0.0
O456 O 0.63916 0.78207 0.89436 0.0
O457 O 0.67777 0.74672 0.89548 0.0
O458 O 0.69522 0.79082 0.84776 0.0
O459 O 0.68543 0.84752 0.85906 0.0
C460 C 0.78291 0.89992 0.88786 0.0
O461 O 0.76662 0.75953 0.88859 0.0
O462 O 0.77741 0.79416 0.84859 0.0
C463 C 0.7407 0.81604 0.94582 0.0
C464 C 0.60901 0.88365 0.9164 0.0
C465 C 0.53257 0.88617 0.90702 0.0
C466 C 0.57122 0.92389 0.91349 0.0
C467 C 0.609 0.92257 0.91823 0.0
C468 C 0.57089 0.84623 0.90869 0.0
C469 C 0.53305 0.84747 0.90417 0.0
C470 C 0.64854 0.88265 0.92375 0.0
C471 C 0.64091 0.7465 0.89528 0.0
H472 H 0.91275 0.76319 0.86125 0.0
H473 H 0.83531 0.73298 0.85494 0.0
H474 H 0.84723 0.85212 0.88353 0.0
H475 H 0.92451 0.88245 0.89019 0.0
H476 H 0.5719 0.9541 0.91609 0.0
H477 H 0.63806 0.95186 0.92407 0.0
H478 H 0.57009 0.81586 0.90678 0.0
H479 H 0.5039 0.81793 0.89889 0.0
H480 H 0.16058 0.2159 0.11136 0.0
H481 H 0.14864 0.19412 0.20296 0.0
H482 H 0.20099 0.16979 0.20171 0.0
H483 H 0.25238 0.15741 0.17472 0.0
H484 H 0.26602 0.18239 0.08341 0.0
H485 H 0.2104 0.20207 0.08434 0.0
C486 C 0.16901 0.20528 0.131 0.0
C487 C 0.15066 0.20674 0.1572 0.0
C488 C 0.19948 0.19189 0.13016 0.0
C489 C 0.16254 0.19362 0.18254 0.0
C490 C 0.19235 0.17956 0.18181 0.0
C491 C 0.24278 0.16665 0.15498 0.0
C492 C 0.2633 0.16836 0.12902 0.0
C493 C 0.21135 0.17892 0.15577 0.0
C494 C 0.25087 0.18094 0.10369 0.0
C495 C 0.21906 0.19223 0.1042 0.0
H496 H 0.1068 0.89008 0.40563 0.0
H497 H 0.07738 0.94285 0.33104 0.0
H498 H 1.00098 0.89117 0.33672 0.0
H499 H 0.94296 0.82906 0.3618 0.0
H500 H 0.97302 0.77669 0.43654 0.0
H501 H 0.04862 0.83018 0.43189 0.0
C502 C 0.08362 0.8901 0.39057 0.0
C503 C 0.09766 0.91994 0.36783 0.0
C504 C 0.03987 0.86042 0.394 0.0
C505 C 0.06728 0.92024 0.34878 0.0
C506 C 1.02365 0.89063 0.35196 0.0
C507 C 0.96598 0.8295 0.3772 0.0
C508 C 0.95222 0.79866 0.39938 0.0
C509 C 1.00961 0.86033 0.37437 0.0
C510 C 0.98257 0.79992 0.41921 0.0
C511 C 1.02593 0.83046 0.41654 0.0
H512 H 0.83221 0.08732 0.11529 0.0
H513 H 0.96715 0.13396 0.1284 0.0
H514 H 0.95189 0.0601 0.13611 0.0
H515 H 0.89922 0.9824 0.14174 0.0
H516 H 0.76465 0.93788 0.12858 0.0
H517 H 0.78088 1.01102 0.11869 0.0
C518 C 0.8585 0.08155 0.11971 0.0
C519 C 0.90078 0.1163 0.12144 0.0
C520 C 0.84946 0.03933 0.12445 0.0
C521 C 0.9343 0.10789 0.12692 0.0
C522 C 0.92554 0.06565 0.13146 0.0
C523 C 0.87353 0.98871 0.13644 0.0
C524 C 0.83067 0.95464 0.13631 0.0
C525 C 0.88312 0.03113 0.13067 0.0
C526 C 0.79778 0.96347 0.1295 0.0
C527 C 0.80705 1.00529 0.12362 0.0
H528 H 0.226 0.12763 0.38377 0.0
H529 H 0.32491 0.25225 0.41299 0.0
H530 H 0.27544 0.27961 0.40875 0.0
H531 H 0.20493 0.2691 0.39528 0.0
H532 H 0.10619 0.14531 0.365 0.0
H533 H 0.15482 0.11685 0.37085 0.0
C534 C 0.23662 0.16067 0.38943 0.0
C535 C 0.27913 0.18781 0.39869 0.0
C536 C 0.20813 0.17648 0.38653 0.0
C537 C 0.29244 0.23067 0.40568 0.0
C538 C 0.26417 0.24639 0.40328 0.0
C539 C 0.1939 0.23576 0.39026 0.0
C540 C 0.152 0.20938 0.37974 0.0
C541 C 0.22207 0.21971 0.39352 0.0
C542 C 0.13844 0.16643 0.37286 0.0
C543 C 0.16616 0.15007 0.37634 0.0
H544 H 0.08899 0.92121 0.18032 0.0
H545 H 0.1323 0.87996 0.10763 0.0
H546 H 0.05847 0.82607 0.09589 0.0
H547 H 0.98181 0.79017 0.10634 0.0
H548 H 0.93752 0.83107 0.17878 0.0
H549 H 1.01135 0.88555 0.19042 0.0
C550 C 0.0822 0.90022 0.16203 0.0
C551 C 0.11614 0.90465 0.14486 0.0
C552 C 0.03947 0.86935 0.15525 0.0
C553 C 0.10678 0.87753 0.12102 0.0
C554 C 0.06456 0.84661 0.11433 0.0
C555 C 0.98814 0.81108 0.12462 0.0
C556 C 0.95397 0.80636 0.14165 0.0
C557 C 1.03066 0.84226 0.13125 0.0
C558 C 0.96306 0.83387 0.16526 0.0
C559 C 1.00535 0.86502 0.17199 0.0
H560 H 0.83346 0.95581 0.41093 0.0
H561 H 0.88093 0.97033 0.32446 0.0
H562 H 0.90757 0.0476 0.32626 0.0
H563 H 0.91497 0.11103 0.3519 0.0
H564 H 0.86507 0.09502 0.43782 0.0
H565 H 0.84267 1.01889 0.4369 0.0
C566 C 0.85011 0.97592 0.39259 0.0
C567 C 0.85506 0.95713 0.36759 0.0
C568 C 0.86506 1.02029 0.39369 0.0
C569 C 0.87616 0.98375 0.34387 0.0
C570 C 0.89163 0.02804 0.34493 0.0
C571 C 0.89975 0.09096 0.37054 0.0
C572 C 0.89178 0.1088 0.39491 0.0
C573 C 0.88597 0.04669 0.36966 0.0
C574 C 0.87146 0.08216 0.41874 0.0
C575 C 0.85856 0.03854 0.41824 0.0
H576 H 0.17365 0.11156 0.63983 0.0
H577 H 0.30673 0.2048 0.65587 0.0
H578 H 0.2916 0.26292 0.64891 0.0
H579 H 0.24132 0.28773 0.63889 0.0
H580 H 0.10741 0.19621 0.62457 0.0
H581 H 0.12215 0.13703 0.63056 0.0
C582 C 0.19927 0.14457 0.64204 0.0
C583 C 0.24144 0.15357 0.6481 0.0
C584 C 0.19025 0.17821 0.63835 0.0
C585 C 0.27421 0.1967 0.65061 0.0
C586 C 0.26555 0.23009 0.64684 0.0
C587 C 0.21518 0.25489 0.63695 0.0
C588 C 0.17329 0.24655 0.63115 0.0
C589 C 0.2238 0.22124 0.64067 0.0
C590 C 0.13998 0.20365 0.62894 0.0
C591 C 0.14841 0.16979 0.63241 0.0
H592 H 0.12855 0.9257 0.88277 0.0
H593 H 0.10259 0.80373 0.91817 0.0
H594 H 1.02589 0.77646 0.91439 0.0
H595 H 0.96579 0.78572 0.89954 0.0
H596 H 0.99024 0.90629 0.86273 0.0
H597 H 0.06742 0.93555 0.86884 0.0
C598 C 0.10607 0.89334 0.88991 0.0
C599 C 0.12147 0.8668 0.9006 0.0
C600 C 0.06155 0.8774 0.88731 0.0
C601 C 0.0918 0.82482 0.90962 0.0
C602 C 0.0478 0.80909 0.90747 0.0
C603 C 0.98796 0.81831 0.89264 0.0
C604 C 0.97206 0.84357 0.88052 0.0
C605 C 1.03228 0.83481 0.89597 0.0
C606 C 1.00143 0.88611 0.87232 0.0
C607 C 0.04566 0.90285 0.87568 0.0
H608 H 0.76673 0.96856 0.62761 0.0
H609 H 0.85346 0.91873 0.62657 0.0
H610 H 0.91422 0.99135 0.63416 0.0
H611 H 0.94214 0.06888 0.64304 0.0
H612 H 0.85368 0.11663 0.64407 0.0
H613 H 0.79409 0.04468 0.63473 0.0
C614 C 0.79887 0.97332 0.62889 0.0
C615 C 0.80536 0.93799 0.62668 0.0
C616 C 0.83337 1.01485 0.63348 0.0
C617 C 0.84742 0.9452 0.62831 0.0
C618 C 0.88218 0.98675 0.63269 0.0
C619 C 0.90985 0.06353 0.64096 0.0
C620 C 0.90237 0.0981 0.64455 0.0
C621 C 0.87548 1.02181 0.63559 0.0
C622 C 0.86028 0.09056 0.64196 0.0
C623 C 0.82619 0.04945 0.63644 0.0
H624 H 0.16327 0.23364 0.85289 0.0
H625 H 0.21013 0.25941 0.94043 0.0
H626 H 0.23 0.20402 0.93756 0.0
H627 H 0.23769 0.15096 0.90946 0.0
H628 H 0.19206 0.1258 0.8217 0.0
H629 H 0.16856 0.17852 0.82531 0.0
C630 C 0.1774 0.22683 0.87144 0.0
C631 C 0.18526 0.25075 0.89681 0.0
C632 C 0.18944 0.19535 0.86952 0.0
C633 C 0.20386 0.24165 0.92059 0.0
C634 C 0.21531 0.20999 0.91897 0.0
C635 C 0.22211 0.15661 0.89124 0.0
C636 C 0.21682 0.13458 0.86532 0.0
C637 C 0.20879 0.18705 0.89343 0.0
C638 C 0.1971 0.14276 0.84178 0.0
C639 C 0.18342 0.17273 0.84387 0.0
H640 H 0.084 0.82918 0.60721 0.0
H641 H 0.13071 0.9332 0.66811 0.0
H642 H 0.05746 0.9176 0.67638 0.0
H643 H 0.97972 0.87257 0.66771 0.0
H644 H 0.93339 0.76791 0.60742 0.0
H645 H 1.00683 0.78544 0.59773 0.0
C646 C 0.07829 0.84874 0.62212 0.0
C647 C 0.11294 0.88234 0.63699 0.0
C648 C 1.03603 0.83922 0.62709 0.0
C649 C 0.10473 0.90707 0.6564 0.0
C650 C 0.06279 0.89814 0.66117 0.0
C651 C 0.98574 0.85388 0.65224 0.0
C652 C 0.95101 0.81883 0.63842 0.0
C653 C 1.02814 0.86404 0.64684 0.0
C654 C 0.95942 0.79464 0.61868 0.0
C655 C 1.00144 0.80479 0.613 0.0
H656 H 0.94422 0.07697 0.85087 0.0
H657 H 0.88418 0.12495 0.90769 0.0
H658 H 0.82762 0.05172 0.91818 0.0
H659 H 0.79439 0.97424 0.91074 0.0
H660 H 0.85285 0.92529 0.85329 0.0
H661 H 0.91093 0.99852 0.84377 0.0
C662 C 0.9189 0.07132 0.8657 0.0
C663 C 0.91838 0.10652 0.87834 0.0
C664 C 0.88617 0.02893 0.87155 0.0
C665 C 0.88508 0.0986 0.89731 0.0
C666 C 0.85281 0.05667 0.90346 0.0
C667 C 0.81993 0.97944 0.89626 0.0
C668 C 0.81916 0.94416 0.88279 0.0
C669 C 0.8529 1.02162 0.89061 0.0
C670 C 0.85248 0.95176 0.86392 0.0
C671 C 0.88575 0.99368 0.85846 0.0
H672 H 0.37097 0.22278 0.31027 0.0
H673 H 0.46233 0.18064 0.32446 0.0
H674 H 0.47297 0.18076 0.27249 0.0
H675 H 0.4465 0.18097 0.22317 0.0
H676 H 0.3575 0.22623 0.20908 0.0
H677 H 0.356 0.23746 0.2608 0.0
C678 C 0.39447 0.21533 0.30193 0.0
C679 C 0.41601 0.20189 0.32099 0.0
C680 C 0.40016 0.21529 0.27207 0.0
C681 C 0.44599 0.19176 0.31014 0.0
C682 C 0.45157 0.19124 0.28042 0.0
C683 C 0.42772 0.19438 0.23145 0.0
C684 C 0.4018 0.20238 0.21252 0.0
C685 C 0.4274 0.20114 0.26118 0.0
C686 C 0.37779 0.22001 0.22329 0.0
C687 C 0.37671 0.22613 0.25287 0.0
H688 H 0.77658 0.62491 0.30869 0.0
H689 H 0.91363 0.69701 0.32003 0.0
H690 H 0.92323 0.69761 0.26779 0.0
H691 H 0.89148 0.68821 0.21868 0.0
H692 H 0.75391 0.61829 0.20893 0.0
H693 H 0.74557 0.60546 0.26058 0.0
C694 C 0.80858 0.63984 0.29972 0.0
C695 C 0.84432 0.66133 0.31797 0.0
C696 C 0.81366 0.64074 0.26987 0.0
C697 C 0.88563 0.68018 0.3063 0.0
C698 C 0.89107 0.68085 0.27643 0.0
C699 C 0.85985 0.66902 0.22787 0.0
C700 C 0.82331 0.65458 0.21018 0.0
C701 C 0.85522 0.66277 0.25791 0.0
C702 C 0.78243 0.63005 0.22225 0.0
C703 C 0.77762 0.62283 0.25178 0.0
H704 H 0.8695 0.16494 0.21225 0.0
H705 H 0.87204 0.28469 0.19839 0.0
H706 H 0.86965 0.29357 0.25042 0.0
H707 H 0.87706 0.27169 0.29977 0.0
H708 H 0.86996 0.14975 0.31347 0.0
H709 H 0.86348 0.13678 0.26155 0.0
C710 C 0.86825 0.19229 0.22071 0.0
C711 C 0.87106 0.22422 0.20182 0.0
C712 C 0.86663 0.19694 0.25051 0.0
C713 C 0.86946 0.25959 0.21271 0.0
C714 C 0.86857 0.26486 0.24241 0.0
C715 C 0.8731 0.24192 0.29127 0.0
C716 C 0.87428 0.21179 0.31006 0.0
C717 C 0.86869 0.23447 0.2615 0.0
C718 C 0.86893 0.17318 0.29919 0.0
C719 C 0.86548 0.16592 0.26957 0.0
H720 H 0.22713 0.34844 0.71673 0.0
H721 H 0.19476 0.44742 0.70364 0.0
H722 H 0.2008 0.46135 0.75546 0.0
H723 H 0.20296 0.43617 0.8047 0.0
H724 H 0.23826 0.33925 0.81774 0.0
H725 H 0.24439 0.33411 0.76571 0.0
C726 C 0.22303 0.37412 0.72525 0.0
C727 C 0.21062 0.39701 0.70669 0.0
C728 C 0.22657 0.38183 0.75499 0.0
C729 C 0.20488 0.42991 0.71768 0.0
C730 C 0.20787 0.4375 0.74728 0.0
C731 C 0.21332 0.41498 0.79607 0.0
C732 C 0.21988 0.38789 0.81478 0.0
C733 C 0.2169 0.41238 0.7662 0.0
C734 C 0.23336 0.36056 0.80363 0.0
C735 C 0.23645 0.35734 0.77391 0.0
H736 H 0.17376 0.82411 0.81186 0.0
H737 H 0.30836 0.86955 0.82355 0.0
H738 H 0.31772 0.87168 0.77133 0.0
H739 H 0.28935 0.8724 0.72271 0.0
H740 H 0.15396 0.82372 0.71119 0.0
H741 H 0.14283 0.81055 0.76291 0.0
C742 C 0.2047 0.83263 0.80289 0.0
C743 C 0.24029 0.84635 0.8213 0.0
C744 C 0.20978 0.83411 0.77292 0.0
C745 C 0.28044 0.85808 0.80967 0.0
C746 C 0.28588 0.85996 0.77983 0.0
C747 C 0.25734 0.858 0.73155 0.0
C748 C 0.22258 0.84956 0.71338 0.0
C749 C 0.25112 0.84991 0.76128 0.0
C750 C 0.18115 0.83046 0.72484 0.0
C751 C 0.17482 0.82312 0.75441 0.0
H752 H 0.62871 0.76836 0.71312 0.0
H753 H 0.69963 0.90568 0.70299 0.0
H754 H 0.70219 0.91476 0.75533 0.0
H755 H 0.69588 0.88276 0.80377 0.0
H756 H 0.62985 0.74492 0.81265 0.0
H757 H 0.61295 0.73666 0.76138 0.0
C758 C 0.64302 0.80019 0.72247 0.0
C759 C 0.66326 0.83631 0.70451 0.0
C760 C 0.64597 0.80495 0.75246 0.0
C761 C 0.68301 0.87751 0.71659 0.0
C762 C 0.68498 0.88263 0.74649 0.0
C763 C 0.67671 0.85105 0.79452 0.0
C764 C 0.66453 0.8145 0.81177 0.0
C765 C 0.6683 0.84652 0.76468 0.0
C766 C 0.64001 0.7735 0.79962 0.0
C767 C 0.63037 0.76873 0.77031 0.0
H768 H 0.31795 0.0303 0.95655 0.0
H769 H 0.2288 0.91654 1.00347 0.0
H770 H 0.24537 0.95896 0.0475 0.0
H771 H 0.28599 0.02793 0.07267 0.0
H772 H 0.37634 0.14114 0.02594 0.0
H773 H 0.35841 0.09909 0.9817 0.0
C774 C 0.30191 1.01458 0.97633 0.0
C775 C 0.27198 0.97005 0.97654 0.0
C776 C 0.31187 0.0391 1.00159 0.0
C777 C 0.25194 0.95057 1.00257 0.0
C778 C 0.26141 0.97488 0.02777 0.0
C779 C 0.30153 0.04365 0.05282 0.0
C780 C 0.3323 0.08792 0.05273 0.0
C781 C 0.29138 1.01913 0.02753 0.0
C782 C 0.35254 0.1073 0.02674 0.0
C783 C 0.34228 0.08321 1.00141 0.0
H784 H 0.798 0.78488 0.45653 0.0
H785 H 0.79505 0.67821 0.50195 0.0
H786 H 0.76437 0.69338 0.54378 0.0
H787 H 0.7376 0.73582 0.56701 0.0
H788 H 0.73977 0.84234 0.52196 0.0
H789 H 0.77137 0.8279 0.48011 0.0
C790 C 0.791 0.76502 0.47562 0.0
C791 C 0.79911 0.73041 0.47603 0.0
C792 C 0.77288 0.77365 0.49949 0.0
C793 C 0.78937 0.70503 0.50097 0.0
C794 C 0.77168 0.71364 0.52487 0.0
C795 C 0.74475 0.75599 0.54807 0.0
C796 C 0.73602 0.79016 0.5477 0.0
C797 C 0.76306 0.74765 0.52427 0.0
C798 C 0.74585 0.81579 0.52287 0.0
C799 C 0.76407 0.80759 0.49898 0.0
H800 H 0.04779 0.27001 0.95303 0.0
H801 H 0.15344 0.37421 0.99839 0.0
H802 H 0.10757 0.36053 0.04008 0.0
H803 H 0.03783 0.31999 0.06327 0.0
H804 H 0.9317 0.21584 0.0183 0.0
H805 H 0.97763 0.22897 0.97653 0.0
C806 C 0.06104 0.28963 0.97208 0.0
C807 C 0.10429 0.3231 0.97253 0.0
C808 C 1.03431 0.28188 0.99588 0.0
C809 C 0.12049 0.34823 0.9974 0.0
C810 C 0.0942 0.3405 0.02123 0.0
C811 C 1.02442 0.30012 0.04434 0.0
C812 C 0.98108 0.26699 0.04397 0.0
C813 C 0.05105 0.30763 0.02061 0.0
C814 C 0.96473 0.24163 0.01919 0.0
C815 C 0.99107 0.24906 0.99535 0.0
H816 H 0.29836 1.01789 0.45634 0.0
H817 H 0.33135 0.13286 0.50414 0.0
H818 H 0.30439 0.08998 0.54819 0.0
H819 H 0.273 1.02015 0.57317 0.0
H820 H 0.24305 0.90597 0.52542 0.0
H821 H 0.2672 0.94848 0.48114 0.0
C822 C 0.29955 0.03379 0.4763 0.0
C823 C 0.31685 0.07878 0.47677 0.0
C824 C 0.28451 1.00902 0.50155 0.0
C825 C 0.31832 0.09847 0.50304 0.0
C826 C 0.30285 0.0739 0.52824 0.0
C827 C 0.27133 1.00436 0.55305 0.0
C828 C 0.25586 0.95967 0.55266 0.0
C829 C 0.28603 0.02918 0.52775 0.0
C830 C 0.25465 0.94012 0.52641 0.0
C831 C 0.26852 0.96448 0.50107 0.0
H832 H 0.78355 0.77568 0.07067 0.0
H833 H 0.83952 0.7157 0.02112 0.0
H834 H 0.81846 0.73737 0.97649 0.0
H835 H 0.78454 0.7736 0.95179 0.0
H836 H 0.72355 0.8286 1.00125 0.0
H837 H 0.7461 0.80846 0.04593 0.0
C838 C 0.79134 0.76748 0.05009 0.0
C839 C 0.81367 0.74457 0.0492 0.0
C840 C 0.77814 0.77908 0.02464 0.0
C841 C 0.8226 0.73341 0.02239 0.0
C842 C 0.81058 0.74584 0.99691 0.0
C843 C 0.77625 0.78135 0.97235 0.0
C844 C 0.75281 0.80313 0.97321 0.0
C845 C 0.78844 0.76876 0.99781 0.0
C846 C 0.74161 0.81204 1.00001 0.0
C847 C 0.75459 0.80058 0.02551 0.0
H848 H 1.03192 0.31177 0.56788 0.0
H849 H 0.13668 0.31011 0.52494 0.0
H850 H 0.09353 0.28527 0.48083 0.0
H851 H 1.02634 0.26357 0.45483 0.0
H852 H 0.92193 0.26658 0.49718 0.0
H853 H 0.965 0.29139 0.54145 0.0
C854 C 0.04553 0.30602 0.54893 0.0
C855 C 0.08771 0.31273 0.5499 0.0
C856 C 1.02056 0.29187 0.52364 0.0
C857 C 0.10454 0.30533 0.52493 0.0
C858 C 0.07979 0.29101 0.49971 0.0
C859 C 1.01266 0.26936 0.47373 0.0
C860 C 0.97053 0.26273 0.47267 0.0
C861 C 0.03774 0.28401 0.4989 0.0
C862 C 0.95399 0.27116 0.49736 0.0
C863 C 0.97868 0.28539 0.52265 0.0
H864 H 0.59621 0.11776 0.109 0.0
H865 H 0.66608 0.25586 0.11734 0.0
H866 H 0.5996 0.25527 0.12721 0.0
H867 H 0.52186 0.21628 0.13247 0.0
H868 H 0.45094 0.07815 0.12476 0.0
H869 H 0.51782 0.07807 0.11639 0.0
C870 C 0.59702 0.14771 0.11331 0.0
C871 C 0.63633 0.18687 0.11214 0.0
C872 C 0.5585 0.14717 0.11923 0.0
C873 C 0.63642 0.22533 0.11749 0.0
C874 C 0.59838 0.22502 0.12337 0.0
C875 C 0.52081 0.18598 0.12913 0.0
C876 C 0.48117 0.14724 0.12919 0.0
C877 C 0.55925 0.18621 0.12409 0.0
C878 C 0.48085 0.10845 0.12491 0.0
C879 C 0.51913 0.10841 0.11999 0.0
H880 H 0.73878 0.5437 0.38908 0.0
H881 H 0.67279 0.61232 0.40907 0.0
H882 H 0.60602 0.54386 0.41605 0.0
H883 H 0.5678 0.46398 0.41997 0.0
H884 H 0.63633 0.39765 0.40067 0.0
H885 H 0.70062 0.46573 0.39001 0.0
C886 C 0.70983 0.54394 0.39482 0.0
C887 C 0.71104 0.58328 0.3988 0.0
C888 C 0.67196 0.50469 0.39914 0.0
C889 C 0.67289 0.58261 0.40587 0.0
C890 C 0.63472 0.54341 0.40999 0.0
C891 C 0.5967 0.46454 0.41307 0.0
C892 C 0.59741 0.42577 0.41149 0.0
C893 C 0.63403 0.50417 0.40719 0.0
C894 C 0.63512 0.42701 0.40256 0.0
C895 C 0.67189 0.46593 0.39637 0.0
H896 H 0.86173 0.33268 0.11377 0.0
H897 H 0.99117 0.39501 0.14694 0.0
H898 H 0.99247 0.46392 0.1476 0.0
H899 H 0.95738 0.50687 0.13646 0.0
H900 H 0.8277 0.44234 0.10339 0.0
H901 H 0.82595 0.37387 0.10519 0.0
C902 C 0.89036 0.36128 0.12119 0.0
C903 C 0.92655 0.35874 0.12994 0.0
C904 C 0.89078 0.40045 0.12152 0.0
C905 C 0.96292 0.39604 0.14003 0.0
C906 C 0.9637 0.43546 0.14029 0.0
C907 C 0.92876 0.47778 0.12969 0.0
C908 C 0.89269 0.47991 0.1198 0.0
C909 C 0.92796 0.43816 0.1307 0.0
C910 C 0.8557 0.44176 0.11144 0.0
C911 C 0.85475 0.40254 0.11226 0.0
H912 H 0.4736 0.12891 0.44701 0.0
H913 H 0.45581 0.09773 0.35666 0.0
H914 H 0.52417 0.09866 0.35603 0.0
H915 H 0.59195 0.11529 0.38015 0.0
H916 H 0.61066 0.15053 0.46985 0.0
H917 H 0.53849 0.14012 0.47182 0.0
C918 C 0.48434 0.12183 0.42718 0.0
C919 C 0.45975 0.1137 0.40181 0.0
C920 C 0.52394 0.12328 0.42687 0.0
C921 C 0.47404 0.10411 0.37647 0.0
C922 C 0.51326 0.10489 0.37608 0.0
C923 C 0.58021 0.12058 0.40018 0.0
C924 C 0.60705 0.1342 0.42475 0.0
C925 C 0.53899 0.11559 0.40098 0.0
C926 C 0.59081 0.13982 0.45066 0.0
C927 C 0.54961 0.13424 0.45174 0.0
H928 H 0.56512 0.47656 0.10961 0.0
H929 H 0.6309 0.40483 0.12046 0.0
H930 H 0.69888 0.47151 0.12624 0.0
H931 H 0.74009 0.54988 0.12705 0.0
H932 H 0.67556 0.62274 0.11571 0.0
H933 H 0.60683 0.55592 0.11102 0.0
C934 C 0.59435 0.47551 0.11311 0.0
C935 C 0.59266 0.4355 0.11465 0.0
C936 C 0.63365 0.51419 0.11622 0.0
C937 C 0.63092 0.43492 0.1196 0.0
C938 C 0.66997 0.47313 0.1227 0.0
C939 C 0.71108 0.55138 0.12356 0.0
C940 C 0.71322 0.59154 0.12164 0.0
C941 C 0.67174 0.51291 0.12091 0.0
C942 C 0.67504 0.59245 0.11727 0.0
C943 C 0.63567 0.55418 0.11456 0.0
H944 H 0.88454 0.46501 0.38044 0.0
H945 H 0.96743 0.51072 0.45499 0.0
H946 H 0.98312 0.45248 0.45022 0.0
H947 H 0.96887 0.38463 0.42695 0.0
H948 H 0.88415 0.33856 0.35346 0.0
H949 H 0.87478 0.40116 0.35517 0.0
C950 C 0.90665 0.46279 0.39537 0.0
C951 C 0.92431 0.49219 0.41823 0.0
C952 C 0.91548 0.42902 0.39258 0.0
C953 C 0.95255 0.48818 0.43751 0.0
C954 C 0.96184 0.45496 0.4347 0.0
C955 C 0.94937 0.38908 0.4109 0.0
C956 C 0.9276 0.35732 0.38991 0.0
C957 C 0.94294 0.42467 0.4126 0.0
C958 C 0.90149 0.36281 0.36967 0.0
C959 C 0.89587 0.39845 0.37076 0.0
H960 H 0.11943 0.58099 0.64383 0.0
H961 H 0.22956 0.63547 0.58818 0.0
H962 H 0.23007 0.56813 0.58908 0.0
H963 H 0.1992 0.4941 0.60456 0.0
H964 H 0.08951 0.43728 0.66053 0.0
H965 H 0.08896 0.5053 0.66068 0.0
C966 C 0.14347 0.578 0.63192 0.0
C967 C 0.1746 0.61344 0.61607 0.0
C968 C 0.14364 0.53884 0.63253 0.0
C969 C 0.2057 0.60911 0.60091 0.0
C970 C 0.20586 0.57047 0.60125 0.0
C971 C 0.17489 0.49622 0.61678 0.0
C972 C 0.14407 0.46027 0.63225 0.0
C973 C 0.17496 0.53518 0.61685 0.0
C974 C 0.11349 0.46429 0.64832 0.0
C975 C 0.11316 0.50319 0.64836 0.0
H976 H 0.34899 0.86435 0.92124 0.0
H977 H 0.40221 0.97604 0.86619 0.0
H978 H 0.46996 0.97525 0.86403 0.0
H979 H 0.51448 0.94316 0.87913 0.0
H980 H 0.45791 0.82973 0.93281 0.0
H981 H 0.39091 0.83067 0.93395 0.0
C982 C 0.37542 0.88876 0.90883 0.0
C983 C 0.37081 0.92071 0.89429 0.0
C984 C 0.41363 0.88758 0.90736 0.0
C985 C 0.40504 0.9513 0.87772 0.0
C986 C 0.44375 0.95083 0.87654 0.0
C987 C 0.48741 0.91867 0.89101 0.0
C988 C 0.4913 0.88635 0.90585 0.0
C989 C 0.44853 0.91923 0.89147 0.0
C990 C 0.45576 0.85461 0.92092 0.0
C991 C 0.41746 0.85529 0.92176 0.0
H992 H 0.54763 0.7277 0.61753 0.0
H993 H 0.61171 0.66087 0.64815 0.0
H994 H 0.54374 0.59237 0.64565 0.0
H995 H 0.46675 0.55125 0.63169 0.0
H996 H 0.4044 0.61999 0.60118 0.0
H997 H 0.47107 0.688 0.60686 0.0
C998 C 0.54682 0.69818 0.62381 0.0
C999 C 0.58482 0.69931 0.63267 0.0
C1000 C 0.5079 0.65924 0.62222 0.0
C1001 C 0.58294 0.66088 0.64125 0.0
C1002 C 0.54413 0.62172 0.63964 0.0
C1003 C 0.46782 0.58116 0.62635 0.0
C1004 C 0.43054 0.58042 0.61592 0.0
C1005 C 0.50652 0.62043 0.62964 0.0
C1006 C 0.43235 0.61953 0.60949 0.0
C1007 C 0.47056 0.65848 0.61257 0.0
H1008 H 0.13953 0.58772 0.91423 0.0
H1009 H 0.27768 0.65525 0.91045 0.0
H1010 H 0.27631 0.58819 0.90061 0.0
H1011 H 0.23665 0.51048 0.89514 0.0
H1012 H 0.09848 0.44129 0.89939 0.0
H1013 H 0.09912 0.50895 0.90652 0.0
C1014 C 0.16926 0.58775 0.91091 0.0
C1015 C 0.20869 0.62646 0.91337 0.0
C1016 C 0.16828 0.54881 0.90537 0.0
C1017 C 0.24695 0.62588 0.90918 0.0
C1018 C 0.2462 0.58755 0.90342 0.0
C1019 C 0.20651 0.50998 0.89744 0.0
C1020 C 0.16756 0.47063 0.89684 0.0
C1021 C 0.20714 0.5488 0.90185 0.0
C1022 C 0.12897 0.47099 0.89976 0.0
C1023 C 0.12932 0.50971 0.90392 0.0
H1024 H 0.32329 0.83264 0.62623 0.0
H1025 H 0.39022 0.97127 0.62408 0.0
H1026 H 0.45792 0.97283 0.61631 0.0
H1027 H 0.49807 0.93476 0.60925 0.0
H1028 H 0.43032 0.79614 0.61062 0.0
H1029 H 0.36323 0.79483 0.61988 0.0
C1030 C 0.35263 0.86331 0.6242 0.0
C1031 C 0.35142 0.90181 0.62572 0.0
C1032 C 0.39146 0.864 0.61959 0.0
C1033 C 0.38999 0.94111 0.62302 0.0
C1034 C 0.4288 0.94204 0.61852 0.0
C1035 C 0.4686 0.90423 0.61139 0.0
C1036 C 0.46946 0.86559 0.6092 0.0
C1037 C 0.42989 0.90367 0.61655 0.0
C1038 C 0.43091 0.8264 0.61254 0.0
C1039 C 0.3924 0.8256 0.61767 0.0
H1040 H 0.61918 0.66759 0.91901 0.0
H1041 H 0.56817 0.73398 0.86945 0.0
H1042 H 0.49677 0.67126 0.87145 0.0
H1043 H 0.44737 0.59949 0.88995 0.0
H1044 H 0.49647 0.53186 0.93995 0.0
H1045 H 0.5693 0.59277 0.93534 0.0
C1046 C 0.5925 0.66798 0.90833 0.0
C1047 C 0.59913 0.70565 0.89431 0.0
C1048 C 0.55082 0.63166 0.90995 0.0
C1049 C 0.56405 0.70568 0.88072 0.0
C1050 C 0.52305 0.66975 0.88181 0.0
C1051 C 0.47399 0.59764 0.89945 0.0
C1052 C 0.46609 0.56102 0.91541 0.0
C1053 C 0.51584 0.63284 0.8968 0.0
C1054 C 0.50126 0.55981 0.92792 0.0
C1055 C 0.54309 0.59462 0.92516 0.0
loop_
_geom_bond_atom_site_label_1
_geom_bond_atom_site_label_2
_geom_bond_distance
_geom_bond_site_symmetry_2
_ccdc_geom_bond_type
Tb0 C9 2.764 . S
Tb0 O10 2.325 . S
Tb0 O13 2.303 . S
Tb0 O17 2.322 . S
Tb0 O18 2.349 . S
Tb0 O21 2.415 . S
Tb0 O22 2.399 . S
Tb1 O11 2.322 . S
Tb1 O12 2.349 . S
Tb1 O14 2.415 . S
Tb1 O15 2.399 . S
Tb1 O16 2.325 . S
Tb1 O19 2.303 . S
Tb1 C30 2.764 . S
C2 O18 1.261 . S
C2 O19 1.257 . S
C3 C6 1.358 . S
C3 C7 1.332 . S
C3 C9 1.504 1_565 S
C4 C5 1.373 . S
C4 C8 1.308 . S
C5 C4 1.373 . S
C5 C6 1.429 . S
C5 H32 0.932 . S
C6 C3 1.358 . S
C6 C5 1.429 . S
C6 H33 0.930 . S
C7 C3 1.332 . S
C7 C8 1.394 . S
C7 H34 0.932 . S
C8 C4 1.308 . S
C8 C7 1.394 . S
C8 H35 0.929 . S
C9 Tb0 2.764 . S
C9 C3 1.504 1_545 S
C9 O21 1.239 . S
C9 O22 1.263 . S
O10 Tb0 2.325 . S
O10 C20 1.236 . S
O11 Tb1 2.322 . S
O11 C20 1.257 . S
O12 Tb1 2.349 . S
O12 C23 1.261 . S
O13 Tb0 2.303 . S
O13 C23 1.257 . S
O14 Tb1 2.415 . S
O14 C30 1.239 . S
O15 Tb1 2.399 . S
O15 C30 1.263 . S
O16 Tb1 2.325 . S
O16 C31 1.236 . S
O17 Tb0 2.322 . S
O17 C31 1.257 . S
O18 Tb0 2.349 . S
O18 C2 1.261 . S
O19 Tb1 2.303 . S
O19 C2 1.257 . S
C20 O10 1.236 . S
C20 O11 1.257 . S
O21 Tb0 2.415 . S
O21 C9 1.239 . S
O22 Tb0 2.399 . S
O22 C9 1.263 . S
C23 O12 1.261 . S
C23 O13 1.257 . S
C24 C27 1.358 . S
C24 C28 1.332 . S
C24 C30 1.504 . S
C25 C26 1.373 . S
C25 C29 1.308 . S
C26 C25 1.373 . S
C26 C27 1.429 . S
C26 H36 0.932 . S
C27 C24 1.358 . S
C27 C26 1.429 . S
C27 H37 0.930 . S
C28 C24 1.332 . S
C28 C29 1.394 . S
C28 H38 0.932 . S
C29 C25 1.308 . S
C29 C28 1.394 . S
C29 H39 0.929 . S
C30 Tb1 2.764 . S
C30 O14 1.239 . S
C30 O15 1.263 . S
C30 C24 1.504 . S
C31 O16 1.236 . S
C31 O17 1.257 . S
H32 C5 0.932 . S
H33 C6 0.930 . S
H34 C7 0.932 . S
H35 C8 0.929 . S
H36 C26 0.932 . S
H37 C27 0.930 . S
H38 C28 0.932 . S
H39 C29 0.929 . S
Tb40 C49 2.764 . S
Tb40 O50 2.325 . S
Tb40 O53 2.303 . S
Tb40 O57 2.322 . S
Tb40 O58 2.349 . S
Tb40 O61 2.415 . S
Tb40 O62 2.399 . S
Tb41 O51 2.322 . S
Tb41 O52 2.349 . S
Tb41 O54 2.415 . S
Tb41 O55 2.399 . S
Tb41 O56 2.325 . S
Tb41 O59 2.303 . S
Tb41 C70 2.764 . S
C42 O58 1.261 . S
C42 O59 1.257 . S
C43 C46 1.358 . S
C43 C47 1.332 . S
C43 C49 1.504 . S
C44 C45 1.373 . S
C44 C48 1.308 . S
C45 C44 1.373 . S
C45 C46 1.429 . S
C45 H72 0.932 . S
C46 C43 1.358 . S
C46 C45 1.429 . S
C46 H73 0.930 . S
C47 C43 1.332 . S
C47 C48 1.394 . S
C47 H74 0.932 . S
C48 C44 1.308 . S
C48 C47 1.394 . S
C48 H75 0.929 . S
C49 Tb40 2.764 . S
C49 C43 1.504 . S
C49 O61 1.239 . S
C49 O62 1.263 . S
O50 Tb40 2.325 . S
O50 C60 1.236 . S
O51 Tb41 2.322 . S
O51 C60 1.257 . S
O52 Tb41 2.349 . S
O52 C63 1.261 . S
O53 Tb40 2.303 . S
O53 C63 1.257 . S
O54 Tb41 2.415 . S
O54 C70 1.239 . S
O55 Tb41 2.399 . S
O55 C70 1.263 . S
O56 Tb41 2.325 . S
O56 C71 1.236 . S
O57 Tb40 2.322 . S
O57 C71 1.257 . S
O58 Tb40 2.349 . S
O58 C42 1.261 . S
O59 Tb41 2.303 . S
O59 C42 1.257 . S
C60 O50 1.236 . S
C60 O51 1.257 . S
O61 Tb40 2.415 . S
O61 C49 1.239 . S
O62 Tb40 2.399 . S
O62 C49 1.263 . S
C63 O52 1.261 . S
C63 O53 1.257 . S
C64 C67 1.358 . S
C64 C68 1.332 . S
C64 C70 1.504 . S
C65 C66 1.373 . S
C65 C69 1.308 . S
C66 C65 1.373 . S
C66 C67 1.429 . S
C66 H76 0.932 . S
C67 C64 1.358 . S
C67 C66 1.429 . S
C67 H77 0.930 . S
C68 C64 1.332 . S
C68 C69 1.394 . S
C68 H78 0.932 . S
C69 C65 1.308 . S
C69 C68 1.394 . S
C69 H79 0.929 . S
C70 Tb41 2.764 . S
C70 O54 1.239 . S
C70 O55 1.263 . S
C70 C64 1.504 . S
C71 O56 1.236 . S
C71 O57 1.257 . S
H72 C45 0.932 . S
H73 C46 0.930 . S
H74 C47 0.932 . S
H75 C48 0.929 . S
H76 C66 0.932 . S
H77 C67 0.930 . S
H78 C68 0.932 . S
H79 C69 0.929 . S
Tb80 C89 2.764 . S
Tb80 O90 2.325 . S
Tb80 O93 2.303 . S
Tb80 O97 2.322 . S
Tb80 O98 2.349 . S
Tb80 O101 2.415 . S
Tb80 O102 2.399 . S
Tb81 O91 2.322 . S
Tb81 O92 2.349 . S
Tb81 O94 2.415 . S
Tb81 O95 2.399 . S
Tb81 O96 2.325 . S
Tb81 O99 2.303 . S
Tb81 C110 2.764 . S
C82 O98 1.261 . S
C82 O99 1.257 . S
C83 C86 1.358 . S
C83 C87 1.332 . S
C83 C89 1.504 1_455 S
C84 C85 1.373 . S
C84 C88 1.308 . S
C85 C84 1.373 . S
C85 C86 1.429 . S
C85 H112 0.932 . S
C86 C83 1.358 . S
C86 C85 1.429 . S
C86 H113 0.930 . S
C87 C83 1.332 . S
C87 C88 1.394 . S
C87 H114 0.932 . S
C88 C84 1.308 . S
C88 C87 1.394 . S
C88 H115 0.929 . S
C89 Tb80 2.764 . S
C89 C83 1.504 1_655 S
C89 O101 1.239 . S
C89 O102 1.263 . S
O90 Tb80 2.325 . S
O90 C100 1.236 . S
O91 Tb81 2.322 . S
O91 C100 1.257 . S
O92 Tb81 2.349 . S
O92 C103 1.261 . S
O93 Tb80 2.303 . S
O93 C103 1.257 . S
O94 Tb81 2.415 . S
O94 C110 1.239 . S
O95 Tb81 2.399 . S
O95 C110 1.263 . S
O96 Tb81 2.325 . S
O96 C111 1.236 . S
O97 Tb80 2.322 . S
O97 C111 1.257 . S
O98 Tb80 2.349 . S
O98 C82 1.261 . S
O99 Tb81 2.303 . S
O99 C82 1.257 . S
C100 O90 1.236 . S
C100 O91 1.257 . S
O101 Tb80 2.415 . S
O101 C89 1.239 . S
O102 Tb80 2.399 . S
O102 C89 1.263 . S
C103 O92 1.261 . S
C103 O93 1.257 . S
C104 C107 1.358 . S
C104 C108 1.332 . S
C104 C110 1.504 . S
C105 C106 1.373 . S
C105 C109 1.308 . S
C106 C105 1.373 . S
C106 C107 1.429 . S
C106 H116 0.932 . S
C107 C104 1.358 . S
C107 C106 1.429 . S
C107 H117 0.930 . S
C108 C104 1.332 . S
C108 C109 1.394 . S
C108 H118 0.932 . S
C109 C105 1.308 . S
C109 C108 1.394 . S
C109 H119 0.929 . S
C110 Tb81 2.764 . S
C110 O94 1.239 . S
C110 O95 1.263 . S
C110 C104 1.504 . S
C111 O96 1.236 . S
C111 O97 1.257 . S
H112 C85 0.932 . S
H113 C86 0.930 . S
H114 C87 0.932 . S
H115 C88 0.929 . S
H116 C106 0.932 . S
H117 C107 0.930 . S
H118 C108 0.932 . S
H119 C109 0.929 . S
Tb120 C129 2.764 . S
Tb120 O130 2.325 . S
Tb120 O133 2.303 . S
Tb120 O137 2.322 . S
Tb120 O138 2.349 . S
Tb120 O141 2.415 . S
Tb120 O142 2.399 . S
Tb121 O131 2.322 . S
Tb121 O132 2.349 . S
Tb121 O134 2.415 . S
Tb121 O135 2.399 . S
Tb121 O136 2.325 . S
Tb121 O139 2.303 . S
Tb121 C150 2.764 . S
C122 O138 1.261 . S
C122 O139 1.257 . S
C123 C126 1.358 . S
C123 C127 1.332 . S
C123 C129 1.504 . S
C124 C125 1.373 . S
C124 C128 1.308 . S
C125 C124 1.373 . S
C125 C126 1.429 . S
C125 H152 0.932 . S
C126 C123 1.358 . S
C126 C125 1.429 . S
C126 H153 0.930 . S
C127 C123 1.332 . S
C127 C128 1.394 . S
C127 H154 0.932 . S
C128 C124 1.308 . S
C128 C127 1.394 . S
C128 H155 0.929 . S
C129 Tb120 2.764 . S
C129 C123 1.504 . S
C129 O141 1.239 . S
C129 O142 1.263 . S
O130 Tb120 2.325 . S
O130 C140 1.236 . S
O131 Tb121 2.322 . S
O131 C140 1.257 . S
O132 Tb121 2.349 . S
O132 C143 1.261 . S
O133 Tb120 2.303 . S
O133 C143 1.257 . S
O134 Tb121 2.415 . S
O134 C150 1.239 . S
O135 Tb121 2.399 . S
O135 C150 1.263 . S
O136 Tb121 2.325 . S
O136 C151 1.236 . S
O137 Tb120 2.322 . S
O137 C151 1.257 . S
O138 Tb120 2.349 . S
O138 C122 1.261 . S
O139 Tb121 2.303 . S
O139 C122 1.257 . S
C140 O130 1.236 . S
C140 O131 1.257 . S
O141 Tb120 2.415 . S
O141 C129 1.239 . S
O142 Tb120 2.399 . S
O142 C129 1.263 . S
C143 O132 1.261 . S
C143 O133 1.257 . S
C144 C147 1.358 . S
C144 C148 1.332 . S
C144 C150 1.504 1_565 S
C145 C146 1.373 . S
C145 C149 1.308 . S
C146 C145 1.373 . S
C146 C147 1.429 . S
C146 H156 0.932 . S
C147 C144 1.358 . S
C147 C146 1.429 . S
C147 H157 0.930 . S
C148 C144 1.332 . S
C148 C149 1.394 . S
C148 H158 0.932 . S
C149 C145 1.308 . S
C149 C148 1.394 . S
C149 H159 0.929 . S
C150 Tb121 2.764 . S
C150 O134 1.239 . S
C150 O135 1.263 . S
C150 C144 1.504 1_545 S
C151 O136 1.236 . S
C151 O137 1.257 . S
H152 C125 0.932 . S
H153 C126 0.930 . S
H154 C127 0.932 . S
H155 C128 0.929 . S
H156 C146 0.932 . S
H157 C147 0.930 . S
H158 C148 0.932 . S
H159 C149 0.929 . S
Tb160 C169 2.764 . S
Tb160 O170 2.325 . S
Tb160 O173 2.303 . S
Tb160 O177 2.322 . S
Tb160 O178 2.349 . S
Tb160 O181 2.415 . S
Tb160 O182 2.399 . S
Tb161 O171 2.322 . S
Tb161 O172 2.349 . S
Tb161 O174 2.415 . S
Tb161 O175 2.399 . S
Tb161 O176 2.325 . S
Tb161 O179 2.303 . S
Tb161 C190 2.764 . S
C162 O178 1.261 . S
C162 O179 1.257 . S
C163 C166 1.358 . S
C163 C167 1.332 . S
C163 C169 1.504 . S
C164 C165 1.373 . S
C164 C168 1.308 . S
C165 C164 1.373 . S
C165 C166 1.429 . S
C165 H192 0.932 . S
C166 C163 1.358 . S
C166 C165 1.429 . S
C166 H193 0.930 . S
C167 C163 1.332 . S
C167 C168 1.394 . S
C167 H194 0.932 . S
C168 C164 1.308 . S
C168 C167 1.394 . S
C168 H195 0.929 . S
C169 Tb160 2.764 . S
C169 C163 1.504 . S
C169 O181 1.239 . S
C169 O182 1.263 . S
O170 Tb160 2.325 . S
O170 C180 1.236 . S
O171 Tb161 2.322 . S
O171 C180 1.257 . S
O172 Tb161 2.349 . S
O172 C183 1.261 . S
O173 Tb160 2.303 . S
O173 C183 1.257 . S
O174 Tb161 2.415 . S
O174 C190 1.239 . S
O175 Tb161 2.399 . S
O175 C190 1.263 . S
O176 Tb161 2.325 . S
O176 C191 1.236 . S
O177 Tb160 2.322 . S
O177 C191 1.257 . S
O178 Tb160 2.349 . S
O178 C162 1.261 . S
O179 Tb161 2.303 . S
O179 C162 1.257 . S
C180 O170 1.236 . S
C180 O171 1.257 . S
O181 Tb160 2.415 . S
O181 C169 1.239 . S
O182 Tb160 2.399 . S
O182 C169 1.263 . S
C183 O172 1.261 . S
C183 O173 1.257 . S
C184 C187 1.358 . S
C184 C188 1.332 . S
C184 C190 1.504 . S
C185 C186 1.373 . S
C185 C189 1.308 . S
C186 C185 1.373 . S
C186 C187 1.429 . S
C186 H196 0.932 . S
C187 C184 1.358 . S
C187 C186 1.429 . S
C187 H197 0.930 . S
C188 C184 1.332 . S
C188 C189 1.394 . S
C188 H198 0.932 . S
C189 C185 1.308 . S
C189 C188 1.394 . S
C189 H199 0.929 . S
C190 Tb161 2.764 . S
C190 O174 1.239 . S
C190 O175 1.263 . S
C190 C184 1.504 . S
C191 O176 1.236 . S
C191 O177 1.257 . S
H192 C165 0.932 . S
H193 C166 0.930 . S
H194 C167 0.932 . S
H195 C168 0.929 . S
H196 C186 0.932 . S
H197 C187 0.930 . S
H198 C188 0.932 . S
H199 C189 0.929 . S
Tb200 C209 2.764 . S
Tb200 O210 2.325 . S
Tb200 O213 2.303 . S
Tb200 O217 2.322 . S
Tb200 O218 2.349 . S
Tb200 O221 2.415 . S
Tb200 O222 2.399 . S
Tb201 O211 2.322 . S
Tb201 O212 2.349 . S
Tb201 O214 2.415 . S
Tb201 O215 2.399 . S
Tb201 O216 2.325 . S
Tb201 O219 2.303 . S
Tb201 C230 2.764 . S
C202 O218 1.261 . S
C202 O219 1.257 . S
C203 C206 1.358 . S
C203 C207 1.332 . S
C203 C209 1.504 . S
C204 C205 1.373 . S
C204 C208 1.308 . S
C205 C204 1.373 . S
C205 C206 1.429 . S
C205 H232 0.932 . S
C206 C203 1.358 . S
C206 C205 1.429 . S
C206 H233 0.930 . S
C207 C203 1.332 . S
C207 C208 1.394 . S
C207 H234 0.932 . S
C208 C204 1.308 . S
C208 C207 1.394 . S
C208 H235 0.929 . S
C209 Tb200 2.764 . S
C209 C203 1.504 . S
C209 O221 1.239 . S
C209 O222 1.263 . S
O210 Tb200 2.325 . S
O210 C220 1.236 . S
O211 Tb201 2.322 . S
O211 C220 1.257 . S
O212 Tb201 2.349 . S
O212 C223 1.261 . S
O213 Tb200 2.303 . S
O213 C223 1.257 . S
O214 Tb201 2.415 . S
O214 C230 1.239 . S
O215 Tb201 2.399 . S
O215 C230 1.263 . S
O216 Tb201 2.325 . S
O216 C231 1.236 . S
O217 Tb200 2.322 . S
O217 C231 1.257 . S
O218 Tb200 2.349 . S
O218 C202 1.261 . S
O219 Tb201 2.303 . S
O219 C202 1.257 . S
C220 O210 1.236 . S
C220 O211 1.257 . S
O221 Tb200 2.415 . S
O221 C209 1.239 . S
O222 Tb200 2.399 . S
O222 C209 1.263 . S
C223 O212 1.261 . S
C223 O213 1.257 . S
C224 C227 1.358 . S
C224 C228 1.332 . S
C224 C230 1.504 1_455 S
C225 C226 1.373 . S
C225 C229 1.308 . S
C226 C225 1.373 . S
C226 C227 1.429 . S
C226 H236 0.932 . S
C227 C224 1.358 . S
C227 C226 1.429 . S
C227 H237 0.930 . S
C228 C224 1.332 . S
C228 C229 1.394 . S
C228 H238 0.932 . S
C229 C225 1.308 . S
C229 C228 1.394 . S
C229 H239 0.929 . S
C230 Tb201 2.764 . S
C230 O214 1.239 . S
C230 O215 1.263 . S
C230 C224 1.504 1_655 S
C231 O216 1.236 . S
C231 O217 1.257 . S
H232 C205 0.932 . S
H233 C206 0.930 . S
H234 C207 0.932 . S
H235 C208 0.929 . S
H236 C226 0.932 . S
H237 C227 0.930 . S
H238 C228 0.932 . S
H239 C229 0.929 . S
Tb240 C249 2.764 . S
Tb240 O250 2.325 . S
Tb240 O253 2.303 . S
Tb240 O257 2.322 . S
Tb240 O258 2.349 . S
Tb240 O261 2.415 . S
Tb240 O262 2.399 . S
Tb241 O251 2.322 . S
Tb241 O252 2.349 . S
Tb241 O254 2.415 . S
Tb241 O255 2.399 . S
Tb241 O256 2.325 . S
Tb241 O259 2.303 . S
Tb241 C270 2.764 . S
C242 O258 1.261 . S
C242 O259 1.257 . S
C243 C246 1.358 . S
C243 C247 1.332 . S
C243 C249 1.504 . S
C244 C245 1.373 . S
C244 C248 1.308 . S
C245 C244 1.373 . S
C245 C246 1.429 . S
C245 H272 0.932 . S
C246 C243 1.358 . S
C246 C245 1.429 . S
C246 H273 0.930 . S
C247 C243 1.332 . S
C247 C248 1.394 . S
C247 H274 0.932 . S
C248 C244 1.308 . S
C248 C247 1.394 . S
C248 H275 0.929 . S
C249 Tb240 2.764 . S
C249 C243 1.504 . S
C249 O261 1.239 . S
C249 O262 1.263 . S
O250 Tb240 2.325 . S
O250 C260 1.236 . S
O251 Tb241 2.322 . S
O251 C260 1.257 . S
O252 Tb241 2.349 . S
O252 C263 1.261 . S
O253 Tb240 2.303 . S
O253 C263 1.257 . S
O254 Tb241 2.415 . S
O254 C270 1.239 . S
O255 Tb241 2.399 . S
O255 C270 1.263 . S
O256 Tb241 2.325 . S
O256 C271 1.236 . S
O257 Tb240 2.322 . S
O257 C271 1.257 . S
O258 Tb240 2.349 . S
O258 C242 1.261 . S
O259 Tb241 2.303 . S
O259 C242 1.257 . S
C260 O250 1.236 . S
C260 O251 1.257 . S
O261 Tb240 2.415 . S
O261 C249 1.239 . S
O262 Tb240 2.399 . S
O262 C249 1.263 . S
C263 O252 1.261 . S
C263 O253 1.257 . S
C264 C267 1.358 . S
C264 C268 1.332 . S
C264 C270 1.504 1_655 S
C265 C266 1.373 . S
C265 C269 1.308 . S
C266 C265 1.373 . S
C266 C267 1.429 . S
C266 H276 0.932 . S
C267 C264 1.358 . S
C267 C266 1.429 . S
C267 H277 0.930 . S
C268 C264 1.332 . S
C268 C269 1.394 . S
C268 H278 0.932 . S
C269 C265 1.308 . S
C269 C268 1.394 . S
C269 H279 0.929 . S
C270 Tb241 2.764 . S
C270 O254 1.239 . S
C270 O255 1.263 . S
C270 C264 1.504 1_455 S
C271 O256 1.236 . S
C271 O257 1.257 . S
H272 C245 0.932 . S
H273 C246 0.930 . S
H274 C247 0.932 . S
H275 C248 0.929 . S
H276 C266 0.932 . S
H277 C267 0.930 . S
H278 C268 0.932 . S
H279 C269 0.929 . S
Tb280 C289 2.764 . S
Tb280 O290 2.325 . S
Tb280 O293 2.303 . S
Tb280 O297 2.322 . S
Tb280 O298 2.349 . S
Tb280 O301 2.415 . S
Tb280 O302 2.399 . S
Tb281 O291 2.322 . S
Tb281 O292 2.349 . S
Tb281 O294 2.415 . S
Tb281 O295 2.399 . S
Tb281 O296 2.325 . S
Tb281 O299 2.303 . S
Tb281 C310 2.764 . S
C282 O298 1.261 . S
C282 O299 1.257 . S
C283 C286 1.358 . S
C283 C287 1.332 . S
C283 C289 1.504 1_545 S
C284 C285 1.373 . S
C284 C288 1.308 . S
C285 C284 1.373 . S
C285 C286 1.429 . S
C285 H312 0.932 . S
C286 C283 1.358 . S
C286 C285 1.429 . S
C286 H313 0.930 . S
C287 C283 1.332 . S
C287 C288 1.394 . S
C287 H314 0.932 . S
C288 C284 1.308 . S
C288 C287 1.394 . S
C288 H315 0.929 . S
C289 Tb280 2.764 . S
C289 C283 1.504 1_565 S
C289 O301 1.239 . S
C289 O302 1.263 . S
O290 Tb280 2.325 . S
O290 C300 1.236 . S
O291 Tb281 2.322 . S
O291 C300 1.257 . S
O292 Tb281 2.349 . S
O292 C303 1.261 . S
O293 Tb280 2.303 . S
O293 C303 1.257 . S
O294 Tb281 2.415 . S
O294 C310 1.239 . S
O295 Tb281 2.399 . S
O295 C310 1.263 . S
O296 Tb281 2.325 . S
O296 C311 1.236 . S
O297 Tb280 2.322 . S
O297 C311 1.257 . S
O298 Tb280 2.349 . S
O298 C282 1.261 . S
O299 Tb281 2.303 . S
O299 C282 1.257 . S
C300 O290 1.236 . S
C300 O291 1.257 . S
O301 Tb280 2.415 . S
O301 C289 1.239 . S
O302 Tb280 2.399 . S
O302 C289 1.263 . S
C303 O292 1.261 . S
C303 O293 1.257 . S
C304 C307 1.358 . S
C304 C308 1.332 . S
C304 C310 1.504 . S
C305 C306 1.373 . S
C305 C309 1.308 . S
C306 C305 1.373 . S
C306 C307 1.429 . S
C306 H316 0.932 . S
C307 C304 1.358 . S
C307 C306 1.429 . S
C307 H317 0.930 . S
C308 C304 1.332 . S
C308 C309 1.394 . S
C308 H318 0.932 . S
C309 C305 1.308 . S
C309 C308 1.394 . S
C309 H319 0.929 . S
C310 Tb281 2.764 . S
C310 O294 1.239 . S
C310 O295 1.263 . S
C310 C304 1.504 . S
C311 O296 1.236 . S
C311 O297 1.257 . S
H312 C285 0.932 . S
H313 C286 0.930 . S
H314 C287 0.932 . S
H315 C288 0.929 . S
H316 C306 0.932 . S
H317 C307 0.930 . S
H318 C308 0.932 . S
H319 C309 0.929 . S
Tb320 C329 2.764 . S
Tb320 O330 2.325 . S
Tb320 O333 2.303 . S
Tb320 O337 2.322 . S
Tb320 O338 2.349 . S
Tb320 O341 2.415 . S
Tb320 O342 2.399 . S
Tb321 O331 2.322 . S
Tb321 O332 2.349 . S
Tb321 O334 2.415 . S
Tb321 O335 2.399 . S
Tb321 O336 2.325 . S
Tb321 O339 2.303 . S
Tb321 C350 2.764 . S
C322 O338 1.261 . S
C322 O339 1.257 . S
C323 C326 1.358 . S
C323 C327 1.332 . S
C323 C329 1.504 . S
C324 C325 1.373 . S
C324 C328 1.308 . S
C325 C324 1.373 . S
C325 C326 1.429 . S
C325 H352 0.932 . S
C326 C323 1.358 . S
C326 C325 1.429 . S
C326 H353 0.930 . S
C327 C323 1.332 . S
C327 C328 1.394 . S
C327 H354 0.932 . S
C328 C324 1.308 . S
C328 C327 1.394 . S
C328 H355 0.929 . S
C329 Tb320 2.764 . S
C329 C323 1.504 . S
C329 O341 1.239 . S
C329 O342 1.263 . S
O330 Tb320 2.325 . S
O330 C340 1.236 . S
O331 Tb321 2.322 . S
O331 C340 1.257 . S
O332 Tb321 2.349 . S
O332 C343 1.261 . S
O333 Tb320 2.303 . S
O333 C343 1.257 . S
O334 Tb321 2.415 . S
O334 C350 1.239 . S
O335 Tb321 2.399 . S
O335 C350 1.263 . S
O336 Tb321 2.325 . S
O336 C351 1.236 . S
O337 Tb320 2.322 . S
O337 C351 1.257 . S
O338 Tb320 2.349 . S
O338 C322 1.261 . S
O339 Tb321 2.303 . S
O339 C322 1.257 . S
C340 O330 1.236 . S
C340 O331 1.257 . S
O341 Tb320 2.415 . S
O341 C329 1.239 . S
O342 Tb320 2.399 . S
O342 C329 1.263 . S
C343 O332 1.261 . S
C343 O333 1.257 . S
C344 C347 1.358 . S
C344 C348 1.332 . S
C344 C350 1.504 . S
C345 C346 1.373 . S
C345 C349 1.308 . S
C346 C345 1.373 . S
C346 C347 1.429 . S
C346 H356 0.932 . S
C347 C344 1.358 . S
C347 C346 1.429 . S
C347 H357 0.930 . S
C348 C344 1.332 . S
C348 C349 1.394 . S
C348 H358 0.932 . S
C349 C345 1.308 . S
C349 C348 1.394 . S
C349 H359 0.929 . S
C350 Tb321 2.764 . S
C350 O334 1.239 . S
C350 O335 1.263 . S
C350 C344 1.504 . S
C351 O336 1.236 . S
C351 O337 1.257 . S
H352 C325 0.932 . S
H353 C326 0.930 . S
H354 C327 0.932 . S
H355 C328 0.929 . S
H356 C346 0.932 . S
H357 C347 0.930 . S
H358 C348 0.932 . S
H359 C349 0.929 . S
Tb360 C369 2.764 . S
Tb360 O370 2.325 . S
Tb360 O373 2.303 . S
Tb360 O377 2.322 . S
Tb360 O378 2.349 . S
Tb360 O381 2.415 . S
Tb360 O382 2.399 . S
Tb361 O371 2.322 . S
Tb361 O372 2.349 . S
Tb361 O374 2.415 . S
Tb361 O375 2.399 . S
Tb361 O376 2.325 . S
Tb361 O379 2.303 . S
Tb361 C390 2.764 . S
C362 O378 1.261 . S
C362 O379 1.257 . S
C363 C366 1.358 . S
C363 C367 1.332 . S
C363 C369 1.504 1_655 S
C364 C365 1.373 . S
C364 C368 1.308 . S
C365 C364 1.373 . S
C365 C366 1.429 . S
C365 H392 0.932 . S
C366 C363 1.358 . S
C366 C365 1.429 . S
C366 H393 0.930 . S
C367 C363 1.332 . S
C367 C368 1.394 . S
C367 H394 0.932 . S
C368 C364 1.308 . S
C368 C367 1.394 . S
C368 H395 0.929 . S
C369 Tb360 2.764 . S
C369 C363 1.504 1_455 S
C369 O381 1.239 . S
C369 O382 1.263 . S
O370 Tb360 2.325 . S
O370 C380 1.236 . S
O371 Tb361 2.322 . S
O371 C380 1.257 . S
O372 Tb361 2.349 . S
O372 C383 1.261 . S
O373 Tb360 2.303 . S
O373 C383 1.257 . S
O374 Tb361 2.415 . S
O374 C390 1.239 . S
O375 Tb361 2.399 . S
O375 C390 1.263 . S
O376 Tb361 2.325 . S
O376 C391 1.236 . S
O377 Tb360 2.322 . S
O377 C391 1.257 . S
O378 Tb360 2.349 . S
O378 C362 1.261 . S
O379 Tb361 2.303 . S
O379 C362 1.257 . S
C380 O370 1.236 . S
C380 O371 1.257 . S
O381 Tb360 2.415 . S
O381 C369 1.239 . S
O382 Tb360 2.399 . S
O382 C369 1.263 . S
C383 O372 1.261 . S
C383 O373 1.257 . S
C384 C387 1.358 . S
C384 C388 1.332 . S
C384 C390 1.504 . S
C385 C386 1.373 . S
C385 C389 1.308 . S
C386 C385 1.373 . S
C386 C387 1.429 . S
C386 H396 0.932 . S
C387 C384 1.358 . S
C387 C386 1.429 . S
C387 H397 0.930 . S
C388 C384 1.332 . S
C388 C389 1.394 . S
C388 H398 0.932 . S
C389 C385 1.308 . S
C389 C388 1.394 . S
C389 H399 0.929 . S
C390 Tb361 2.764 . S
C390 O374 1.239 . S
C390 O375 1.263 . S
C390 C384 1.504 . S
C391 O376 1.236 . S
C391 O377 1.257 . S
H392 C365 0.932 . S
H393 C366 0.930 . S
H394 C367 0.932 . S
H395 C368 0.929 . S
H396 C386 0.932 . S
H397 C387 0.930 . S
H398 C388 0.932 . S
H399 C389 0.929 . S
Tb400 C409 2.764 . S
Tb400 O410 2.325 . S
Tb400 O413 2.303 . S
Tb400 O417 2.322 . S
Tb400 O418 2.349 . S
Tb400 O421 2.415 . S
Tb400 O422 2.399 . S
Tb401 O411 2.322 . S
Tb401 O412 2.349 . S
Tb401 O414 2.415 . S
Tb401 O415 2.399 . S
Tb401 O416 2.325 . S
Tb401 O419 2.303 . S
Tb401 C430 2.764 . S
C402 O418 1.261 . S
C402 O419 1.257 . S
C403 C406 1.358 . S
C403 C407 1.332 . S
C403 C409 1.504 . S
C404 C405 1.373 . S
C404 C408 1.308 . S
C405 C404 1.373 . S
C405 C406 1.429 . S
C405 H432 0.932 . S
C406 C403 1.358 . S
C406 C405 1.429 . S
C406 H433 0.930 . S
C407 C403 1.332 . S
C407 C408 1.394 . S
C407 H434 0.932 . S
C408 C404 1.308 . S
C408 C407 1.394 . S
C408 H435 0.929 . S
C409 Tb400 2.764 . S
C409 C403 1.504 . S
C409 O421 1.239 . S
C409 O422 1.263 . S
O410 Tb400 2.325 . S
O410 C420 1.236 . S
O411 Tb401 2.322 . S
O411 C420 1.257 . S
O412 Tb401 2.349 . S
O412 C423 1.261 . S
O413 Tb400 2.303 . S
O413 C423 1.257 . S
O414 Tb401 2.415 . S
O414 C430 1.239 . S
O415 Tb401 2.399 . S
O415 C430 1.263 . S
O416 Tb401 2.325 . S
O416 C431 1.236 . S
O417 Tb400 2.322 . S
O417 C431 1.257 . S
O418 Tb400 2.349 . S
O418 C402 1.261 . S
O419 Tb401 2.303 . S
O419 C402 1.257 . S
C420 O410 1.236 . S
C420 O411 1.257 . S
O421 Tb400 2.415 . S
O421 C409 1.239 . S
O422 Tb400 2.399 . S
O422 C409 1.263 . S
C423 O412 1.261 . S
C423 O413 1.257 . S
C424 C427 1.358 . S
C424 C428 1.332 . S
C424 C430 1.504 1_545 S
C425 C426 1.373 . S
C425 C429 1.308 . S
C426 C425 1.373 . S
C426 C427 1.429 . S
C426 H436 0.932 . S
C427 C424 1.358 . S
C427 C426 1.429 . S
C427 H437 0.930 . S
C428 C424 1.332 . S
C428 C429 1.394 . S
C428 H438 0.932 . S
C429 C425 1.308 . S
C429 C428 1.394 . S
C429 H439 0.929 . S
C430 Tb401 2.764 . S
C430 O414 1.239 . S
C430 O415 1.263 . S
C430 C424 1.504 1_565 S
C431 O416 1.236 . S
C431 O417 1.257 . S
H432 C405 0.932 . S
H433 C406 0.930 . S
H434 C407 0.932 . S
H435 C408 0.929 . S
H436 C426 0.932 . S
H437 C427 0.930 . S
H438 C428 0.932 . S
H439 C429 0.929 . S
Tb440 C449 2.764 . S
Tb440 O450 2.325 . S
Tb440 O453 2.303 . S
Tb440 O457 2.322 . S
Tb440 O458 2.349 . S
Tb440 O461 2.415 . S
Tb440 O462 2.399 . S
Tb441 O451 2.322 . S
Tb441 O452 2.349 . S
Tb441 O454 2.415 . S
Tb441 O455 2.399 . S
Tb441 O456 2.325 . S
Tb441 O459 2.303 . S
Tb441 C470 2.764 . S
C442 O458 1.261 . S
C442 O459 1.257 . S
C443 C446 1.358 . S
C443 C447 1.332 . S
C443 C449 1.504 . S
C444 C445 1.373 . S
C444 C448 1.308 . S
C445 C444 1.373 . S
C445 C446 1.429 . S
C445 H472 0.932 . S
C446 C443 1.358 . S
C446 C445 1.429 . S
C446 H473 0.930 . S
C447 C443 1.332 . S
C447 C448 1.394 . S
C447 H474 0.932 . S
C448 C444 1.308 . S
C448 C447 1.394 . S
C448 H475 0.929 . S
C449 Tb440 2.764 . S
C449 C443 1.504 . S
C449 O461 1.239 . S
C449 O462 1.263 . S
O450 Tb440 2.325 . S
O450 C460 1.236 . S
O451 Tb441 2.322 . S
O451 C460 1.257 . S
O452 Tb441 2.349 . S
O452 C463 1.261 . S
O453 Tb440 2.303 . S
O453 C463 1.257 . S
O454 Tb441 2.415 . S
O454 C470 1.239 . S
O455 Tb441 2.399 . S
O455 C470 1.263 . S
O456 Tb441 2.325 . S
O456 C471 1.236 . S
O457 Tb440 2.322 . S
O457 C471 1.257 . S
O458 Tb440 2.349 . S
O458 C442 1.261 . S
O459 Tb441 2.303 . S
O459 C442 1.257 . S
C460 O450 1.236 . S
C460 O451 1.257 . S
O461 Tb440 2.415 . S
O461 C449 1.239 . S
O462 Tb440 2.399 . S
O462 C449 1.263 . S
C463 O452 1.261 . S
C463 O453 1.257 . S
C464 C467 1.358 . S
C464 C468 1.332 . S
C464 C470 1.504 . S
C465 C466 1.373 . S
C465 C469 1.308 . S
C466 C465 1.373 . S
C466 C467 1.429 . S
C466 H476 0.932 . S
C467 C464 1.358 . S
C467 C466 1.429 . S
C467 H477 0.930 . S
C468 C464 1.332 . S
C468 C469 1.394 . S
C468 H478 0.932 . S
C469 C465 1.308 . S
C469 C468 1.394 . S
C469 H479 0.929 . S
C470 Tb441 2.764 . S
C470 O454 1.239 . S
C470 O455 1.263 . S
C470 C464 1.504 . S
C471 O456 1.236 . S
C471 O457 1.257 . S
H472 C445 0.932 . S
H473 C446 0.930 . S
H474 C447 0.932 . S
H475 C448 0.929 . S
H476 C466 0.932 . S
H477 C467 0.930 . S
H478 C468 0.932 . S
H479 C469 0.929 . S
H480 C486 0.930 . S
H481 C489 0.930 . S
H482 C490 0.930 . S
H483 C491 0.930 . S
H484 C494 0.930 . S
H485 C495 0.930 . S
C486 H480 0.930 . S
C486 C487 1.355 . S
C486 C488 1.415 . S
C487 C486 1.355 . S
C487 C489 1.419 . S
C488 C486 1.415 . S
C488 C493 1.425 . S
C488 C495 1.409 . S
C489 H481 0.930 . S
C489 C487 1.419 . S
C489 C490 1.362 . S
C490 H482 0.930 . S
C490 C489 1.362 . S
C490 C493 1.409 . S
C491 H483 0.930 . S
C491 C492 1.355 . S
C491 C493 1.415 . S
C492 C491 1.355 . S
C492 C494 1.419 . S
C493 C488 1.425 . S
C493 C490 1.409 . S
C493 C491 1.415 . S
C494 H484 0.930 . S
C494 C492 1.419 . S
C494 C495 1.362 . S
C495 H485 0.930 . S
C495 C488 1.409 . S
C495 C494 1.362 . S
H496 C502 0.930 . S
H497 C505 0.930 . S
H498 C506 0.930 1_655 S
H499 C507 0.930 . S
H500 C510 0.930 . S
H501 C511 0.930 . S
C502 H496 0.930 . S
C502 C503 1.355 . S
C502 C504 1.403 1_455 S
C503 C502 1.355 . S
C503 C505 1.419 . S
C504 C502 1.403 1_655 S
C504 C509 1.437 . S
C504 C511 1.409 . S
C505 H497 0.930 . S
C505 C503 1.419 . S
C505 C506 1.362 . S
C506 H498 0.930 1_455 S
C506 C505 1.362 . S
C506 C509 1.409 1_455 S
C507 H499 0.930 . S
C507 C508 1.355 . S
C507 C509 1.415 . S
C508 C507 1.355 . S
C508 C510 1.419 . S
C509 C504 1.437 . S
C509 C506 1.409 1_655 S
C509 C507 1.415 . S
C510 H500 0.930 . S
C510 C508 1.419 . S
C510 C511 1.362 . S
C511 H501 0.930 . S
C511 C504 1.409 . S
C511 C510 1.362 . S
H512 C518 0.930 . S
H513 C521 0.930 . S
H514 C522 0.930 . S
H515 C523 0.930 . S
H516 C526 0.930 . S
H517 C527 0.930 . S
C518 H512 0.930 . S
C518 C519 1.355 . S
C518 C520 1.415 . S
C519 C518 1.355 . S
C519 C521 1.419 . S
C520 C518 1.415 . S
C520 C525 1.425 . S
C520 C527 1.409 1_545 S
C521 H513 0.930 . S
C521 C519 1.419 . S
C521 C522 1.362 . S
C522 H514 0.930 . S
C522 C521 1.362 . S
C522 C525 1.409 . S
C523 H515 0.930 . S
C523 C524 1.355 . S
C523 C525 1.415 1_565 S
C524 C523 1.355 . S
C524 C526 1.419 . S
C525 C520 1.425 . S
C525 C522 1.409 . S
C525 C523 1.415 1_545 S
C526 H516 0.930 . S
C526 C524 1.419 . S
C526 C527 1.362 . S
C527 H517 0.930 . S
C527 C520 1.409 1_565 S
C527 C526 1.362 . S
H528 C534 0.930 . S
H529 C537 0.930 . S
H530 C538 0.930 . S
H531 C539 0.930 . S
H532 C542 0.930 . S
H533 C543 0.930 . S
C534 H528 0.930 . S
C534 C535 1.355 . S
C534 C536 1.415 . S
C535 C534 1.355 . S
C535 C537 1.419 . S
C536 C534 1.415 . S
C536 C541 1.425 . S
C536 C543 1.409 . S
C537 H529 0.930 . S
C537 C535 1.419 . S
C537 C538 1.362 . S
C538 H530 0.930 . S
C538 C537 1.362 . S
C538 C541 1.409 . S
C539 H531 0.930 . S
C539 C540 1.355 . S
C539 C541 1.415 . S
C540 C539 1.355 . S
C540 C542 1.419 . S
C541 C536 1.425 . S
C541 C538 1.409 . S
C541 C539 1.415 . S
C542 H532 0.930 . S
C542 C540 1.419 . S
C542 C543 1.362 . S
C543 H533 0.930 . S
C543 C536 1.409 . S
C543 C542 1.362 . S
H544 C550 0.930 . S
H545 C553 0.930 . S
H546 C554 0.930 . S
H547 C555 0.930 . S
H548 C558 0.930 . S
H549 C559 0.930 . S
C550 H544 0.930 . S
C550 C551 1.355 . S
C550 C552 1.415 1_455 S
C551 C550 1.355 . S
C551 C553 1.419 . S
C552 C550 1.415 1_655 S
C552 C557 1.425 . S
C552 C559 1.409 . S
C553 H545 0.930 . S
C553 C551 1.419 . S
C553 C554 1.362 . S
C554 H546 0.930 . S
C554 C553 1.362 . S
C554 C557 1.409 1_455 S
C555 H547 0.930 . S
C555 C556 1.355 . S
C555 C557 1.415 . S
C556 C555 1.355 . S
C556 C558 1.419 . S
C557 C552 1.425 . S
C557 C554 1.409 1_655 S
C557 C555 1.415 . S
C558 H548 0.930 . S
C558 C556 1.419 . S
C558 C559 1.362 . S
C559 H549 0.930 . S
C559 C552 1.409 . S
C559 C558 1.362 . S
H560 C566 0.930 . S
H561 C569 0.930 . S
H562 C570 0.930 . S
H563 C571 0.930 . S
H564 C574 0.930 . S
H565 C575 0.930 1_565 S
C566 H560 0.930 . S
C566 C567 1.355 . S
C566 C568 1.415 . S
C567 C566 1.355 . S
C567 C569 1.419 . S
C568 C566 1.415 . S
C568 C573 1.425 1_565 S
C568 C575 1.409 1_565 S
C569 H561 0.930 . S
C569 C567 1.419 . S
C569 C570 1.362 1_565 S
C570 H562 0.930 . S
C570 C569 1.362 1_545 S
C570 C573 1.409 . S
C571 H563 0.930 . S
C571 C572 1.355 . S
C571 C573 1.415 . S
C572 C571 1.355 . S
C572 C574 1.419 . S
C573 C568 1.425 1_545 S
C573 C570 1.409 . S
C573 C571 1.415 . S
C574 H564 0.930 . S
C574 C572 1.419 . S
C574 C575 1.362 . S
C575 H565 0.930 1_545 S
C575 C568 1.409 1_545 S
C575 C574 1.362 . S
H576 C582 0.930 . S
H577 C585 0.930 . S
H578 C586 0.930 . S
H579 C587 0.930 . S
H580 C590 0.930 . S
H581 C591 0.930 . S
C582 H576 0.930 . S
C582 C583 1.355 . S
C582 C584 1.415 . S
C583 C582 1.355 . S
C583 C585 1.419 . S
C584 C582 1.415 . S
C584 C589 1.425 . S
C584 C591 1.409 . S
C585 H577 0.930 . S
C585 C583 1.419 . S
C585 C586 1.362 . S
C586 H578 0.930 . S
C586 C585 1.362 . S
C586 C589 1.409 . S
C587 H579 0.930 . S
C587 C588 1.355 . S
C587 C589 1.415 . S
C588 C587 1.355 . S
C588 C590 1.419 . S
C589 C584 1.425 . S
C589 C586 1.409 . S
C589 C587 1.415 . S
C590 H580 0.930 . S
C590 C588 1.419 . S
C590 C591 1.362 . S
C591 H581 0.930 . S
C591 C584 1.409 . S
C591 C590 1.362 . S
H592 C598 0.930 . S
H593 C601 0.930 . S
H594 C602 0.930 . S
H595 C603 0.930 . S
H596 C606 0.930 . S
H597 C607 0.930 1_455 S
C598 H592 0.930 . S
C598 C599 1.355 . S
C598 C600 1.415 . S
C599 C598 1.355 . S
C599 C601 1.419 . S
C600 C598 1.415 . S
C600 C605 1.425 . S
C600 C607 1.409 1_455 S
C601 H593 0.930 . S
C601 C599 1.419 . S
C601 C602 1.362 . S
C602 H594 0.930 . S
C602 C601 1.362 . S
C602 C605 1.409 . S
C603 H595 0.930 . S
C603 C604 1.355 . S
C603 C605 1.415 1_655 S
C604 C603 1.355 . S
C604 C606 1.419 . S
C605 C600 1.425 . S
C605 C602 1.409 . S
C605 C603 1.415 1_455 S
C606 H596 0.930 . S
C606 C604 1.419 . S
C606 C607 1.362 . S
C607 H597 0.930 1_655 S
C607 C600 1.409 1_655 S
C607 C606 1.362 . S
H608 C614 0.930 . S
H609 C617 0.930 . S
H610 C618 0.930 . S
H611 C619 0.930 . S
H612 C622 0.930 . S
H613 C623 0.930 . S
C614 H608 0.930 . S
C614 C615 1.355 . S
C614 C616 1.415 . S
C615 C614 1.355 . S
C615 C617 1.419 . S
C616 C614 1.415 . S
C616 C621 1.425 . S
C616 C623 1.409 1_565 S
C617 H609 0.930 . S
C617 C615 1.419 . S
C617 C618 1.362 . S
C618 H610 0.930 . S
C618 C617 1.362 . S
C618 C621 1.409 . S
C619 H611 0.930 . S
C619 C620 1.355 . S
C619 C621 1.415 1_545 S
C620 C619 1.355 . S
C620 C622 1.419 . S
C621 C616 1.425 . S
C621 C618 1.409 . S
C621 C619 1.415 1_565 S
C622 H612 0.930 . S
C622 C620 1.419 . S
C622 C623 1.362 . S
C623 H613 0.930 . S
C623 C616 1.409 1_545 S
C623 C622 1.362 . S
H624 C630 0.930 . S
H625 C633 0.930 . S
H626 C634 0.930 . S
H627 C635 0.930 . S
H628 C638 0.930 . S
H629 C639 0.930 . S
C630 H624 0.930 . S
C630 C631 1.355 . S
C630 C632 1.415 . S
C631 C630 1.355 . S
C631 C633 1.419 . S
C632 C630 1.415 . S
C632 C637 1.425 . S
C632 C639 1.409 . S
C633 H625 0.930 . S
C633 C631 1.419 . S
C633 C634 1.362 . S
C634 H626 0.930 . S
C634 C633 1.362 . S
C634 C637 1.409 . S
C635 H627 0.930 . S
C635 C636 1.355 . S
C635 C637 1.415 . S
C636 C635 1.355 . S
C636 C638 1.419 . S
C637 C632 1.425 . S
C637 C634 1.409 . S
C637 C635 1.415 . S
C638 H628 0.930 . S
C638 C636 1.419 . S
C638 C639 1.362 . S
C639 H629 0.930 . S
C639 C632 1.409 . S
C639 C638 1.362 . S
H640 C646 0.930 . S
H641 C649 0.930 . S
H642 C650 0.930 . S
H643 C651 0.930 . S
H644 C654 0.930 . S
H645 C655 0.930 1_455 S
C646 H640 0.930 . S
C646 C647 1.355 . S
C646 C648 1.415 . S
C647 C646 1.355 . S
C647 C649 1.419 . S
C648 C646 1.415 . S
C648 C653 1.425 . S
C648 C655 1.409 1_455 S
C649 H641 0.930 . S
C649 C647 1.419 . S
C649 C650 1.362 . S
C650 H642 0.930 . S
C650 C649 1.362 . S
C650 C653 1.409 . S
C651 H643 0.930 . S
C651 C652 1.355 . S
C651 C653 1.415 1_655 S
C652 C651 1.355 . S
C652 C654 1.419 . S
C653 C648 1.425 . S
C653 C650 1.409 . S
C653 C651 1.415 1_455 S
C654 H644 0.930 . S
C654 C652 1.419 . S
C654 C655 1.362 . S
C655 H645 0.930 1_655 S
C655 C648 1.409 1_655 S
C655 C654 1.362 . S
H656 C662 0.930 . S
H657 C665 0.930 . S
H658 C666 0.930 . S
H659 C667 0.930 . S
H660 C670 0.930 . S
H661 C671 0.930 . S
C662 H656 0.930 . S
C662 C663 1.355 . S
C662 C664 1.415 1_545 S
C663 C662 1.355 . S
C663 C665 1.419 . S
C664 C662 1.415 1_565 S
C664 C669 1.425 . S
C664 C671 1.409 . S
C665 H657 0.930 . S
C665 C663 1.419 . S
C665 C666 1.362 . S
C666 H658 0.930 . S
C666 C665 1.362 . S
C666 C669 1.409 1_545 S
C667 H659 0.930 . S
C667 C668 1.355 . S
C667 C669 1.415 . S
C668 C667 1.355 . S
C668 C670 1.419 . S
C669 C664 1.425 . S
C669 C666 1.409 1_565 S
C669 C667 1.415 . S
C670 H660 0.930 . S
C670 C668 1.419 . S
C670 C671 1.362 . S
C671 H661 0.930 . S
C671 C664 1.409 . S
C671 C670 1.362 . S
H672 C678 0.930 . S
H673 C681 0.930 . S
H674 C682 0.930 . S
H675 C683 0.930 . S
H676 C686 0.930 . S
H677 C687 0.930 . S
C678 H672 0.930 . S
C678 C679 1.355 . S
C678 C680 1.415 . S
C679 C678 1.355 . S
C679 C681 1.419 . S
C680 C678 1.415 . S
C680 C685 1.425 . S
C680 C687 1.409 . S
C681 H673 0.930 . S
C681 C679 1.419 . S
C681 C682 1.362 . S
C682 H674 0.930 . S
C682 C681 1.362 . S
C682 C685 1.409 . S
C683 H675 0.930 . S
C683 C684 1.355 . S
C683 C685 1.415 . S
C684 C683 1.355 . S
C684 C686 1.419 . S
C685 C680 1.425 . S
C685 C682 1.409 . S
C685 C683 1.415 . S
C686 H676 0.930 . S
C686 C684 1.419 . S
C686 C687 1.362 . S
C687 H677 0.930 . S
C687 C680 1.409 . S
C687 C686 1.362 . S
H688 C694 0.930 . S
H689 C697 0.930 . S
H690 C698 0.930 . S
H691 C699 0.930 . S
H692 C702 0.930 . S
H693 C703 0.930 . S
C694 H688 0.930 . S
C694 C695 1.355 . S
C694 C696 1.415 . S
C695 C694 1.355 . S
C695 C697 1.419 . S
C696 C694 1.415 . S
C696 C701 1.425 . S
C696 C703 1.409 . S
C697 H689 0.930 . S
C697 C695 1.419 . S
C697 C698 1.362 . S
C698 H690 0.930 . S
C698 C697 1.362 . S
C698 C701 1.409 . S
C699 H691 0.930 . S
C699 C700 1.355 . S
C699 C701 1.415 . S
C700 C699 1.355 . S
C700 C702 1.419 . S
C701 C696 1.425 . S
C701 C698 1.409 . S
C701 C699 1.415 . S
C702 H692 0.930 . S
C702 C700 1.419 . S
C702 C703 1.362 . S
C703 H693 0.930 . S
C703 C696 1.409 . S
C703 C702 1.362 . S
H704 C710 0.930 . S
H705 C713 0.930 . S
H706 C714 0.930 . S
H707 C715 0.930 . S
H708 C718 0.930 . S
H709 C719 0.930 . S
C710 H704 0.930 . S
C710 C711 1.355 . S
C710 C712 1.415 . S
C711 C710 1.355 . S
C711 C713 1.419 . S
C712 C710 1.415 . S
C712 C717 1.425 . S
C712 C719 1.409 . S
C713 H705 0.930 . S
C713 C711 1.419 . S
C713 C714 1.362 . S
C714 H706 0.930 . S
C714 C713 1.362 . S
C714 C717 1.409 . S
C715 H707 0.930 . S
C715 C716 1.355 . S
C715 C717 1.415 . S
C716 C715 1.355 . S
C716 C718 1.419 . S
C717 C712 1.425 . S
C717 C714 1.409 . S
C717 C715 1.415 . S
C718 H708 0.930 . S
C718 C716 1.419 . S
C718 C719 1.362 . S
C719 H709 0.930 . S
C719 C712 1.409 . S
C719 C718 1.362 . S
H720 C726 0.930 . S
H721 C729 0.930 . S
H722 C730 0.930 . S
H723 C731 0.930 . S
H724 C734 0.930 . S
H725 C735 0.930 . S
C726 H720 0.930 . S
C726 C727 1.355 . S
C726 C728 1.415 . S
C727 C726 1.355 . S
C727 C729 1.419 . S
C728 C726 1.415 . S
C728 C733 1.425 . S
C728 C735 1.409 . S
C729 H721 0.930 . S
C729 C727 1.419 . S
C729 C730 1.362 . S
C730 H722 0.930 . S
C730 C729 1.362 . S
C730 C733 1.409 . S
C731 H723 0.930 . S
C731 C732 1.355 . S
C731 C733 1.415 . S
C732 C731 1.355 . S
C732 C734 1.419 . S
C733 C728 1.425 . S
C733 C730 1.409 . S
C733 C731 1.415 . S
C734 H724 0.930 . S
C734 C732 1.419 . S
C734 C735 1.362 . S
C735 H725 0.930 . S
C735 C728 1.409 . S
C735 C734 1.362 . S
H736 C742 0.930 . S
H737 C745 0.930 . S
H738 C746 0.930 . S
H739 C747 0.930 . S
H740 C750 0.930 . S
H741 C751 0.930 . S
C742 H736 0.930 . S
C742 C743 1.355 . S
C742 C744 1.415 . S
C743 C742 1.355 . S
C743 C745 1.419 . S
C744 C742 1.415 . S
C744 C749 1.425 . S
C744 C751 1.409 . S
C745 H737 0.930 . S
C745 C743 1.419 . S
C745 C746 1.362 . S
C746 H738 0.930 . S
C746 C745 1.362 . S
C746 C749 1.409 . S
C747 H739 0.930 . S
C747 C748 1.355 . S
C747 C749 1.415 . S
C748 C747 1.355 . S
C748 C750 1.419 . S
C749 C744 1.425 . S
C749 C746 1.409 . S
C749 C747 1.415 . S
C750 H740 0.930 . S
C750 C748 1.419 . S
C750 C751 1.362 . S
C751 H741 0.930 . S
C751 C744 1.409 . S
C751 C750 1.362 . S
H752 C758 0.930 . S
H753 C761 0.930 . S
H754 C762 0.930 . S
H755 C763 0.930 . S
H756 C766 0.930 . S
H757 C767 0.930 . S
C758 H752 0.930 . S
C758 C759 1.355 . S
C758 C760 1.415 . S
C759 C758 1.355 . S
C759 C761 1.419 . S
C760 C758 1.415 . S
C760 C765 1.425 . S
C760 C767 1.409 . S
C761 H753 0.930 . S
C761 C759 1.419 . S
C761 C762 1.362 . S
C762 H754 0.930 . S
C762 C761 1.362 . S
C762 C765 1.409 . S
C763 H755 0.930 . S
C763 C764 1.355 . S
C763 C765 1.415 . S
C764 C763 1.355 . S
C764 C766 1.419 . S
C765 C760 1.425 . S
C765 C762 1.409 . S
C765 C763 1.415 . S
C766 H756 0.930 . S
C766 C764 1.419 . S
C766 C767 1.362 . S
C767 H757 0.930 . S
C767 C760 1.409 . S
C767 C766 1.362 . S
H768 C774 0.930 . S
H769 C777 0.930 . S
H770 C778 0.930 . S
H771 C779 0.930 . S
H772 C782 0.930 . S
H773 C783 0.930 . S
C774 H768 0.930 . S
C774 C775 1.355 . S
C774 C776 1.415 1_565 S
C775 C774 1.355 . S
C775 C777 1.419 1_556 S
C776 C774 1.415 1_545 S
C776 C781 1.425 1_546 S
C776 C783 1.409 . S
C777 H769 0.930 . S
C777 C775 1.419 1_554 S
C777 C778 1.362 . S
C778 H770 0.930 . S
C778 C777 1.362 . S
C778 C781 1.409 . S
C779 H771 0.930 . S
C779 C780 1.355 . S
C779 C781 1.415 1_545 S
C780 C779 1.355 . S
C780 C782 1.419 1_554 S
C781 C776 1.425 1_564 S
C781 C778 1.409 . S
C781 C779 1.415 1_565 S
C782 H772 0.930 . S
C782 C780 1.419 1_556 S
C782 C783 1.362 . S
C783 H773 0.930 . S
C783 C776 1.409 . S
C783 C782 1.362 . S
H784 C790 0.930 . S
H785 C793 0.930 . S
H786 C794 0.930 . S
H787 C795 0.930 . S
H788 C798 0.930 . S
H789 C799 0.930 . S
C790 H784 0.930 . S
C790 C791 1.355 . S
C790 C792 1.415 . S
C791 C790 1.355 . S
C791 C793 1.419 . S
C792 C790 1.415 . S
C792 C797 1.425 . S
C792 C799 1.409 . S
C793 H785 0.930 . S
C793 C791 1.419 . S
C793 C794 1.362 . S
C794 H786 0.930 . S
C794 C793 1.362 . S
C794 C797 1.409 . S
C795 H787 0.930 . S
C795 C796 1.355 . S
C795 C797 1.415 . S
C796 C795 1.355 . S
C796 C798 1.419 . S
C797 C792 1.425 . S
C797 C794 1.409 . S
C797 C795 1.415 . S
C798 H788 0.930 . S
C798 C796 1.419 . S
C798 C799 1.362 . S
C799 H789 0.930 . S
C799 C792 1.409 . S
C799 C798 1.362 . S
H800 C806 0.930 . S
H801 C809 0.930 . S
H802 C810 0.930 . S
H803 C811 0.930 . S
H804 C814 0.930 . S
H805 C815 0.930 . S
C806 H800 0.930 . S
C806 C807 1.355 . S
C806 C808 1.415 . S
C807 C806 1.355 . S
C807 C809 1.419 . S
C808 C806 1.415 . S
C808 C813 1.425 1_456 S
C808 C815 1.409 1_456 S
C809 H801 0.930 . S
C809 C807 1.419 . S
C809 C810 1.362 . S
C810 H802 0.930 . S
C810 C809 1.362 . S
C810 C813 1.409 1_456 S
C811 H803 0.930 . S
C811 C812 1.355 . S
C811 C813 1.415 . S
C812 C811 1.355 . S
C812 C814 1.419 . S
C813 C808 1.425 1_654 S
C813 C810 1.409 1_654 S
C813 C811 1.415 . S
C814 H804 0.930 . S
C814 C812 1.419 . S
C814 C815 1.362 . S
C815 H805 0.930 . S
C815 C808 1.409 1_654 S
C815 C814 1.362 . S
H816 C822 0.930 . S
H817 C825 0.930 . S
H818 C826 0.930 . S
H819 C827 0.930 . S
H820 C830 0.930 . S
H821 C831 0.930 . S
C822 H816 0.930 . S
C822 C823 1.355 . S
C822 C824 1.415 1_545 S
C823 C822 1.355 . S
C823 C825 1.419 . S
C824 C822 1.415 1_565 S
C824 C829 1.425 1_565 S
C824 C831 1.409 . S
C825 H817 0.930 . S
C825 C823 1.419 . S
C825 C826 1.362 . S
C826 H818 0.930 . S
C826 C825 1.362 . S
C826 C829 1.409 . S
C827 H819 0.930 . S
C827 C828 1.355 . S
C827 C829 1.415 1_565 S
C828 C827 1.355 . S
C828 C830 1.419 . S
C829 C824 1.425 1_545 S
C829 C826 1.409 . S
C829 C827 1.415 1_545 S
C830 H820 0.930 . S
C830 C828 1.419 . S
C830 C831 1.362 . S
C831 H821 0.930 . S
C831 C824 1.409 . S
C831 C830 1.362 . S
H832 C838 0.907 1_556 S
H833 C841 0.930 . S
H834 C842 0.930 . S
H835 C843 0.907 1_554 S
H836 C846 0.930 . S
H837 C847 0.930 . S
C838 H832 0.907 1_554 S
C838 C839 1.390 . S
C838 C840 1.402 1_554 S
C839 C838 1.390 . S
C839 C841 1.419 . S
C840 C838 1.402 1_556 S
C840 C845 1.425 1_556 S
C840 C847 1.409 . S
C841 H833 0.930 . S
C841 C839 1.419 . S
C841 C842 1.362 . S
C842 H834 0.930 . S
C842 C841 1.362 . S
C842 C845 1.409 . S
C843 H835 0.907 1_556 S
C843 C844 1.390 . S
C843 C845 1.402 1_556 S
C844 C843 1.390 . S
C844 C846 1.419 . S
C845 C840 1.425 1_554 S
C845 C842 1.409 . S
C845 C843 1.402 1_554 S
C846 H836 0.930 . S
C846 C844 1.419 . S
C846 C847 1.362 . S
C847 H837 0.930 . S
C847 C840 1.409 . S
C847 C846 1.362 . S
H848 C854 0.930 . S
H849 C857 0.930 . S
H850 C858 0.930 . S
H851 C859 0.930 . S
H852 C862 0.930 . S
H853 C863 0.930 . S
C854 H848 0.930 . S
C854 C855 1.355 . S
C854 C856 1.415 . S
C855 C854 1.355 . S
C855 C857 1.419 . S
C856 C854 1.415 . S
C856 C861 1.425 1_455 S
C856 C863 1.409 1_455 S
C857 H849 0.930 . S
C857 C855 1.419 . S
C857 C858 1.362 . S
C858 H850 0.930 . S
C858 C857 1.362 . S
C858 C861 1.409 1_455 S
C859 H851 0.930 . S
C859 C860 1.355 . S
C859 C861 1.415 . S
C860 C859 1.355 . S
C860 C862 1.419 . S
C861 C856 1.425 1_655 S
C861 C858 1.409 1_655 S
C861 C859 1.415 . S
C862 H852 0.930 . S
C862 C860 1.419 . S
C862 C863 1.362 . S
C863 H853 0.930 . S
C863 C856 1.409 1_655 S
C863 C862 1.362 . S
H864 C870 0.930 . S
H865 C873 0.930 . S
H866 C874 0.930 . S
H867 C875 0.930 . S
H868 C878 0.930 . S
H869 C879 0.930 . S
C870 H864 0.930 . S
C870 C871 1.355 . S
C870 C872 1.415 . S
C871 C870 1.355 . S
C871 C873 1.419 . S
C872 C870 1.415 . S
C872 C877 1.425 . S
C872 C879 1.409 . S
C873 H865 0.930 . S
C873 C871 1.419 . S
C873 C874 1.362 . S
C874 H866 0.930 . S
C874 C873 1.362 . S
C874 C877 1.409 . S
C875 H867 0.930 . S
C875 C876 1.355 . S
C875 C877 1.415 . S
C876 C875 1.355 . S
C876 C878 1.419 . S
C877 C872 1.425 . S
C877 C874 1.409 . S
C877 C875 1.415 . S
C878 H868 0.930 . S
C878 C876 1.419 . S
C878 C879 1.362 . S
C879 H869 0.930 . S
C879 C872 1.409 . S
C879 C878 1.362 . S
H880 C886 0.930 . S
H881 C889 0.930 . S
H882 C890 0.930 . S
H883 C891 0.930 . S
H884 C894 0.930 . S
H885 C895 0.930 . S
C886 H880 0.930 . S
C886 C887 1.355 . S
C886 C888 1.415 . S
C887 C886 1.355 . S
C887 C889 1.419 . S
C888 C886 1.415 . S
C888 C893 1.425 . S
C888 C895 1.409 . S
C889 H881 0.930 . S
C889 C887 1.419 . S
C889 C890 1.362 . S
C890 H882 0.930 . S
C890 C889 1.362 . S
C890 C893 1.409 . S
C891 H883 0.930 . S
C891 C892 1.355 . S
C891 C893 1.415 . S
C892 C891 1.355 . S
C892 C894 1.419 . S
C893 C888 1.425 . S
C893 C890 1.409 . S
C893 C891 1.415 . S
C894 H884 0.930 . S
C894 C892 1.419 . S
C894 C895 1.362 . S
C895 H885 0.930 . S
C895 C888 1.409 . S
C895 C894 1.362 . S
H896 C902 0.930 . S
H897 C905 0.930 . S
H898 C906 0.930 . S
H899 C907 0.930 . S
H900 C910 0.930 . S
H901 C911 0.930 . S
C902 H896 0.930 . S
C902 C903 1.355 . S
C902 C904 1.415 . S
C903 C902 1.355 . S
C903 C905 1.419 . S
C904 C902 1.415 . S
C904 C909 1.425 . S
C904 C911 1.409 . S
C905 H897 0.930 . S
C905 C903 1.419 . S
C905 C906 1.362 . S
C906 H898 0.930 . S
C906 C905 1.362 . S
C906 C909 1.409 . S
C907 H899 0.930 . S
C907 C908 1.355 . S
C907 C909 1.415 . S
C908 C907 1.355 . S
C908 C910 1.419 . S
C909 C904 1.425 . S
C909 C906 1.409 . S
C909 C907 1.415 . S
C910 H900 0.930 . S
C910 C908 1.419 . S
C910 C911 1.362 . S
C911 H901 0.930 . S
C911 C904 1.409 . S
C911 C910 1.362 . S
H912 C918 0.930 . S
H913 C921 0.930 . S
H914 C922 0.930 . S
H915 C923 0.930 . S
H916 C926 0.930 . S
H917 C927 0.930 . S
C918 H912 0.930 . S
C918 C919 1.355 . S
C918 C920 1.415 . S
C919 C918 1.355 . S
C919 C921 1.419 . S
C920 C918 1.415 . S
C920 C925 1.425 . S
C920 C927 1.409 . S
C921 H913 0.930 . S
C921 C919 1.419 . S
C921 C922 1.362 . S
C922 H914 0.930 . S
C922 C921 1.362 . S
C922 C925 1.409 . S
C923 H915 0.930 . S
C923 C924 1.355 . S
C923 C925 1.415 . S
C924 C923 1.355 . S
C924 C926 1.419 . S
C925 C920 1.425 . S
C925 C922 1.409 . S
C925 C923 1.415 . S
C926 H916 0.930 . S
C926 C924 1.419 . S
C926 C927 1.362 . S
C927 H917 0.930 . S
C927 C920 1.409 . S
C927 C926 1.362 . S
H928 C934 0.930 . S
H929 C937 0.930 . S
H930 C938 0.930 . S
H931 C939 0.930 . S
H932 C942 0.930 . S
H933 C943 0.930 . S
C934 H928 0.930 . S
C934 C935 1.355 . S
C934 C936 1.415 . S
C935 C934 1.355 . S
C935 C937 1.419 . S
C936 C934 1.415 . S
C936 C941 1.425 . S
C936 C943 1.409 . S
C937 H929 0.930 . S
C937 C935 1.419 . S
C937 C938 1.362 . S
C938 H930 0.930 . S
C938 C937 1.362 . S
C938 C941 1.409 . S
C939 H931 0.930 . S
C939 C940 1.355 . S
C939 C941 1.415 . S
C940 C939 1.355 . S
C940 C942 1.419 . S
C941 C936 1.425 . S
C941 C938 1.409 . S
C941 C939 1.415 . S
C942 H932 0.930 . S
C942 C940 1.419 . S
C942 C943 1.362 . S
C943 H933 0.930 . S
C943 C936 1.409 . S
C943 C942 1.362 . S
H944 C950 0.930 . S
H945 C953 0.930 . S
H946 C954 0.930 . S
H947 C955 0.930 . S
H948 C958 0.930 . S
H949 C959 0.930 . S
C950 H944 0.930 . S
C950 C951 1.355 . S
C950 C952 1.415 . S
C951 C950 1.355 . S
C951 C953 1.419 . S
C952 C950 1.415 . S
C952 C957 1.425 . S
C952 C959 1.409 . S
C953 H945 0.930 . S
C953 C951 1.419 . S
C953 C954 1.362 . S
C954 H946 0.930 . S
C954 C953 1.362 . S
C954 C957 1.409 . S
C955 H947 0.930 . S
C955 C956 1.355 . S
C955 C957 1.415 . S
C956 C955 1.355 . S
C956 C958 1.419 . S
C957 C952 1.425 . S
C957 C954 1.409 . S
C957 C955 1.415 . S
C958 H948 0.930 . S
C958 C956 1.419 . S
C958 C959 1.362 . S
C959 H949 0.930 . S
C959 C952 1.409 . S
C959 C958 1.362 . S
H960 C966 0.930 . S
H961 C969 0.930 . S
H962 C970 0.930 . S
H963 C971 0.930 . S
H964 C974 0.930 . S
H965 C975 0.930 . S
C966 H960 0.930 . S
C966 C967 1.355 . S
C966 C968 1.415 . S
C967 C966 1.355 . S
C967 C969 1.419 . S
C968 C966 1.415 . S
C968 C973 1.425 . S
C968 C975 1.409 . S
C969 H961 0.930 . S
C969 C967 1.419 . S
C969 C970 1.362 . S
C970 H962 0.930 . S
C970 C969 1.362 . S
C970 C973 1.409 . S
C971 H963 0.930 . S
C971 C972 1.355 . S
C971 C973 1.415 . S
C972 C971 1.355 . S
C972 C974 1.419 . S
C973 C968 1.425 . S
C973 C970 1.409 . S
C973 C971 1.415 . S
C974 H964 0.930 . S
C974 C972 1.419 . S
C974 C975 1.362 . S
C975 H965 0.930 . S
C975 C968 1.409 . S
C975 C974 1.362 . S
H976 C982 0.930 . S
H977 C985 0.930 . S
H978 C986 0.930 . S
H979 C987 0.930 . S
H980 C990 0.930 . S
H981 C991 0.930 . S
C982 H976 0.930 . S
C982 C983 1.355 . S
C982 C984 1.415 . S
C983 C982 1.355 . S
C983 C985 1.419 . S
C984 C982 1.415 . S
C984 C989 1.425 . S
C984 C991 1.409 . S
C985 H977 0.930 . S
C985 C983 1.419 . S
C985 C986 1.362 . S
C986 H978 0.930 . S
C986 C985 1.362 . S
C986 C989 1.409 . S
C987 H979 0.930 . S
C987 C988 1.355 . S
C987 C989 1.415 . S
C988 C987 1.355 . S
C988 C990 1.419 . S
C989 C984 1.425 . S
C989 C986 1.409 . S
C989 C987 1.415 . S
C990 H980 0.930 . S
C990 C988 1.419 . S
C990 C991 1.362 . S
C991 H981 0.930 . S
C991 C984 1.409 . S
C991 C990 1.362 . S
H992 C998 0.930 . S
H993 C1001 0.930 . S
H994 C1002 0.930 . S
H995 C1003 0.930 . S
H996 C1006 0.930 . S
H997 C1007 0.930 . S
C998 H992 0.930 . S
C998 C999 1.355 . S
C998 C1000 1.415 . S
C999 C998 1.355 . S
C999 C1001 1.419 . S
C1000 C998 1.415 . S
C1000 C1005 1.425 . S
C1000 C1007 1.409 . S
C1001 H993 0.930 . S
C1001 C999 1.419 . S
C1001 C1002 1.362 . S
C1002 H994 0.930 . S
C1002 C1001 1.362 . S
C1002 C1005 1.409 . S
C1003 H995 0.930 . S
C1003 C1004 1.355 . S
C1003 C1005 1.415 . S
C1004 C1003 1.355 . S
C1004 C1006 1.419 . S
C1005 C1000 1.425 . S
C1005 C1002 1.409 . S
C1005 C1003 1.415 . S
C1006 H996 0.930 . S
C1006 C1004 1.419 . S
C1006 C1007 1.362 . S
C1007 H997 0.930 . S
C1007 C1000 1.409 . S
C1007 C1006 1.362 . S
H1008 C1014 0.930 . S
H1009 C1017 0.930 . S
H1010 C1018 0.930 . S
H1011 C1019 0.930 . S
H1012 C1022 0.930 . S
H1013 C1023 0.930 . S
C1014 H1008 0.930 . S
C1014 C1015 1.355 . S
C1014 C1016 1.415 . S
C1015 C1014 1.355 . S
C1015 C1017 1.419 . S
C1016 C1014 1.415 . S
C1016 C1021 1.425 . S
C1016 C1023 1.409 . S
C1017 H1009 0.930 . S
C1017 C1015 1.419 . S
C1017 C1018 1.362 . S
C1018 H1010 0.930 . S
C1018 C1017 1.362 . S
C1018 C1021 1.409 . S
C1019 H1011 0.930 . S
C1019 C1020 1.355 . S
C1019 C1021 1.415 . S
C1020 C1019 1.355 . S
C1020 C1022 1.419 . S
C1021 C1016 1.425 . S
C1021 C1018 1.409 . S
C1021 C1019 1.415 . S
C1022 H1012 0.930 . S
C1022 C1020 1.419 . S
C1022 C1023 1.362 . S
C1023 H1013 0.930 . S
C1023 C1016 1.409 . S
C1023 C1022 1.362 . S
H1024 C1030 0.930 . S
H1025 C1033 0.930 . S
H1026 C1034 0.930 . S
H1027 C1035 0.930 . S
H1028 C1038 0.930 . S
H1029 C1039 0.930 . S
C1030 H1024 0.930 . S
C1030 C1031 1.355 . S
C1030 C1032 1.415 . S
C1031 C1030 1.355 . S
C1031 C1033 1.419 . S
C1032 C1030 1.415 . S
C1032 C1037 1.425 . S
C1032 C1039 1.409 . S
C1033 H1025 0.930 . S
C1033 C1031 1.419 . S
C1033 C1034 1.362 . S
C1034 H1026 0.930 . S
C1034 C1033 1.362 . S
C1034 C1037 1.409 . S
C1035 H1027 0.930 . S
C1035 C1036 1.355 . S
C1035 C1037 1.415 . S
C1036 C1035 1.355 . S
C1036 C1038 1.419 . S
C1037 C1032 1.425 . S
C1037 C1034 1.409 . S
C1037 C1035 1.415 . S
C1038 H1028 0.930 . S
C1038 C1036 1.419 . S
C1038 C1039 1.362 . S
C1039 H1029 0.930 . S
C1039 C1032 1.409 . S
C1039 C1038 1.362 . S
H1040 C1046 0.930 . S
H1041 C1049 0.930 . S
H1042 C1050 0.930 . S
H1043 C1051 0.930 . S
H1044 C1054 0.930 . S
H1045 C1055 0.930 . S
C1046 H1040 0.930 . S
C1046 C1047 1.355 . S
C1046 C1048 1.415 . S
C1047 C1046 1.355 . S
C1047 C1049 1.419 . S
C1048 C1046 1.415 . S
C1048 C1053 1.425 . S
C1048 C1055 1.409 . S
C1049 H1041 0.930 . S
C1049 C1047 1.419 . S
C1049 C1050 1.362 . S
C1050 H1042 0.930 . S
C1050 C1049 1.362 . S
C1050 C1053 1.409 . S
C1051 H1043 0.930 . S
C1051 C1052 1.355 . S
C1051 C1053 1.415 . S
C1052 C1051 1.355 . S
C1052 C1054 1.419 . S
C1053 C1048 1.425 . S
C1053 C1050 1.409 . S
C1053 C1051 1.415 . S
C1054 H1044 0.930 . S
C1054 C1052 1.419 . S
C1054 C1055 1.362 . S
C1055 H1045 0.930 . S
C1055 C1048 1.409 . S
C1055 C1054 1.362 . S
C487 C84 1.285 . S
C492 C20 1.281 . S
C503 C145 1.243 . S
C508 C71 1.234 . S
C519 C100 1.299 . S
C524 C164 1.304 . S
C535 C151 1.230 . S
C540 C225 1.240 . S
C551 C4 1.297 . S
C556 C180 1.290 . S
C567 C65 1.276 . S
C572 C231 1.271 . S
C583 C425 1.266 . S
C588 C271 1.255 . S
C599 C300 1.226 . S
C604 C444 1.237 . S
C615 C351 1.283 . S
C620 C265 1.291 . S
C631 C380 1.262 . S
C636 C284 1.268 . S
C647 C431 1.293 . S
C652 C345 1.297 . S
C663 C364 1.242 . S
C668 C460 1.229 . S
C679 C143 1.746 . S
C684 C2 1.702 . S
C695 C63 1.711 . S
C700 C162 1.737 . S
C711 C82 1.759 . S
C716 C223 1.688 . S
C727 C263 1.699 . S
C732 C362 1.749 . S
C743 C282 1.757 . S
C748 C423 1.690 . S
C759 C343 1.754 . S
C764 C442 1.693 . S
C775 C303 2.398 . S
C780 C23 2.403 . S
C791 C42 2.392 . S
C796 C322 2.401 . S
C807 C383 2.374 . S
C812 C103 2.385 . S
C823 C122 2.401 . S
C828 C402 2.392 . S
C839 C183 2.371 . S
C844 C463 2.370 . S
C855 C242 2.389 . S
C860 C202 2.377 . S
C871 C105 1.603 . S
C876 C31 1.600 . S
C887 C60 1.586 . S
C892 C124 1.589 . S
C903 C111 1.577 . S
C908 C185 1.587 . S
C919 C140 1.600 . S
C924 C204 1.604 . S
C935 C25 1.592 . S
C940 C191 1.584 . S
C951 C44 1.581 . S
C956 C220 1.577 . S
C967 C404 1.593 . S
C972 C260 1.591 . S
C983 C311 1.580 . S
C988 C465 1.589 . S
C999 C340 1.559 . S
C1004 C244 1.565 . S
C1015 C305 1.604 . S
C1020 C391 1.599 . S
C1031 C420 1.561 . S
C1036 C324 1.567 . S
C1047 C471 1.590 . S
C1052 C385 1.593 . S
