# Generated by pormake.
# Topology umx, (4)-cn, num edge types: 1
# Building blocks:
#     Node 0, Type 0, BuildingBlock: CEKHIL_clean_sbu_0, # of connection points: 4
#     Node 1, Type 0, BuildingBlock: CEKHIL_clean_sbu_0, # of connection points: 4
#     Node 2, Type 0, BuildingBlock: CEKHIL_clean_sbu_0, # of connection points: 4
#     Node 3, Type 0, BuildingBlock: CEKHIL_clean_sbu_0, # of connection points: 4
#     Node 4, Type 0, BuildingBlock: CEKHIL_clean_sbu_0, # of connection points: 4
#     Node 5, Type 0, BuildingBlock: CEKHIL_clean_sbu_0, # of connection points: 4
#     Node 6, Type 0, BuildingBlock: CEKHIL_clean_sbu_0, # of connection points: 4
#     Node 7, Type 0, BuildingBlock: CEKHIL_clean_sbu_0, # of connection points: 4
#     Edge 8, Type (0, 0), BuildingBlock: KIFKEQ_clean_linker_1, # of connection points: 2
#     Edge 9, Type (0, 0), BuildingBlock: KIFKEQ_clean_linker_1, # of connection points: 2
#     Edge 10, Type (0, 0), BuildingBlock: KIFKEQ_clean_linker_1, # of connection points: 2
#     Edge 11, Type (0, 0), BuildingBlock: KIFKEQ_clean_linker_1, # of connection points: 2
#     Edge 12, Type (0, 0), BuildingBlock: KIFKEQ_clean_linker_1, # of connection points: 2
#     Edge 13, Type (0, 0), BuildingBlock: KIFKEQ_clean_linker_1, # of connection points: 2
#     Edge 14, Type (0, 0), BuildingBlock: KIFKEQ_clean_linker_1, # of connection points: 2
#     Edge 15, Type (0, 0), BuildingBlock: KIFKEQ_clean_linker_1, # of connection points: 2
#     Edge 16, Type (0, 0), BuildingBlock: KIFKEQ_clean_linker_1, # of connection points: 2
#     Edge 17, Type (0, 0), BuildingBlock: KIFKEQ_clean_linker_1, # of connection points: 2
#     Edge 18, Type (0, 0), BuildingBlock: KIFKEQ_clean_linker_1, # of connection points: 2
#     Edge 19, Type (0, 0), BuildingBlock: KIFKEQ_clean_linker_1, # of connection points: 2
#     Edge 20, Type (0, 0), BuildingBlock: KIFKEQ_clean_linker_1, # of connection points: 2
#     Edge 21, Type (0, 0), BuildingBlock: KIFKEQ_clean_linker_1, # of connection points: 2
#     Edge 22, Type (0, 0), BuildingBlock: KIFKEQ_clean_linker_1, # of connection points: 2
#     Edge 23, Type (0, 0), BuildingBlock: KIFKEQ_clean_linker_1, # of connection points: 2
# Relax obj value: 0.076
# Max RMSD: 0.187
# Mean RMSD: 0.187
data_MOF--net-umx--node1-CEKHIL_clean_sbu_0--edge1-KIFKEQ_clean_linker_1
_symmetry_space_group_name_H-M    P1
_symmetry_Int_Tables_number       1
_symmetry_cell_setting            triclinic
loop_
_symmetry_equiv_pos_as_xyz
'x, y, z'
_cell_length_a     39.720342
_cell_length_b     39.710612
_cell_length_c     28.270299
_cell_angle_alpha  90.033322
_cell_angle_beta   89.94381
_cell_angle_gamma 89.915314
loop_
_atom_site_label
_atom_site_type_symbol
_atom_site_fract_x
_atom_site_fract_y
_atom_site_fract_z
_atom_type_partial_charge
Co0 Co 0.19122 0.44015 0.00805 0.0
O1 O 0.23303 0.41615 0.00836 0.0
O2 O 0.18505 0.39567 0.03598 0.0
C3 C 0.19457 0.45677 0.93219 0.0
O4 O 0.14294 0.45866 0.01139 0.0
Co5 Co 0.19345 0.51742 0.99248 0.0
O6 O 0.14445 0.5117 0.98327 0.0
C7 C 0.20966 0.49015 0.08657 0.0
C8 C 0.21695 0.39121 0.02714 0.0
C9 C 0.12818 0.48597 -0.0025 0.0
O10 O 0.20239 0.46038 0.07171 0.0
O11 O 0.20936 0.51619 0.05989 0.0
O12 O 0.18337 0.42708 0.94288 0.0
O13 O 0.2066 0.47408 0.96711 0.0
Co14 Co 0.56187 0.18783 0.51225 0.0
O15 O 0.58682 0.22856 0.50477 0.0
O16 O 0.60774 0.18214 0.53647 0.0
C17 C 0.54209 0.1878 0.43749 0.0
O18 O 0.54235 0.14048 0.522 0.0
Co19 Co 0.48443 0.19271 0.50363 0.0
O20 O 0.48791 0.14307 0.49992 0.0
C21 C 0.51644 0.21301 0.5929 0.0
C22 C 0.61261 0.21287 0.52177 0.0
C23 C 0.51383 0.12634 0.51246 0.0
O24 O 0.545 0.20289 0.57651 0.0
O25 O 0.48953 0.21348 0.56801 0.0
O26 O 0.57167 0.17588 0.44716 0.0
O27 O 0.52669 0.20233 0.47239 0.0
Co28 Co 0.81377 0.56488 0.01428 0.0
O29 O 0.77268 0.58995 0.0145 0.0
O30 O 0.82142 0.60994 0.03996 0.0
C31 C 0.80908 0.54654 0.93915 0.0
O32 O 0.86141 0.54496 0.01726 0.0
Co33 Co 0.80811 0.48748 0.00298 0.0
O34 O 0.85759 0.49048 0.99552 0.0
C35 C 0.79228 0.51812 0.09503 0.0
C36 C 0.78951 0.61492 0.03178 0.0
C37 C 0.87495 0.5163 0.00661 0.0
O38 O 0.80282 0.54661 0.07916 0.0
O39 O 0.78975 0.49184 0.06901 0.0
O40 O 0.82128 0.57609 0.94828 0.0
O41 O 0.79685 0.53054 0.97516 0.0
Co42 Co 0.4402 0.81001 0.49979 0.0
O43 O 0.41684 0.76793 0.49844 0.0
O44 O 0.39499 0.81536 0.526 0.0
C45 C 0.45864 0.80734 0.42448 0.0
O46 O 0.45808 0.85834 0.50491 0.0
Co47 Co 0.51774 0.80805 0.48791 0.0
O48 O 0.51222 0.85739 0.48099 0.0
C49 C 0.4882 0.79018 0.58002 0.0
C50 C 0.39127 0.78344 0.51664 0.0
C51 C 0.48585 0.87335 0.49378 0.0
O52 O 0.45905 0.79876 0.5642 0.0
O53 O 0.51464 0.78962 0.55404 0.0
O54 O 0.42862 0.81826 0.43409 0.0
O55 O 0.47521 0.7952 0.46002 0.0
Co56 Co 0.18764 0.56015 0.52178 0.0
O57 O 0.22889 0.58442 0.52779 0.0
O58 O 0.18232 0.60606 0.49753 0.0
C59 C 0.18868 0.5405 0.59649 0.0
O60 O 0.13975 0.54148 0.5136 0.0
Co61 Co 0.19042 0.48246 0.53162 0.0
O62 O 0.14124 0.48781 0.53927 0.0
C63 C 0.209 0.51353 0.44059 0.0
C64 C 0.21334 0.61046 0.51126 0.0
C65 C 0.12498 0.51376 0.52572 0.0
O66 O 0.20143 0.54279 0.45727 0.0
O67 O 0.20811 0.48659 0.46541 0.0
O68 O 0.17702 0.57026 0.58726 0.0
O69 O 0.20213 0.52476 0.56109 0.0
Co70 Co 0.44097 0.1898 0.02546 0.0
O71 O 0.41572 0.23044 0.0328 0.0
O72 O 0.3954 0.18401 0.00042 0.0
C73 C 0.46006 0.18964 0.10056 0.0
O74 O 0.4607 0.14253 0.01552 0.0
Co75 Co 0.51832 0.19414 0.03567 0.0
O76 O 0.51447 0.14458 0.04052 0.0
C77 C 0.48723 0.21439 0.94556 0.0
C78 C 0.39019 0.21466 0.01532 0.0
C79 C 0.48881 0.1281 0.02656 0.0
O80 O 0.45837 0.20498 0.96163 0.0
O81 O 0.51399 0.21433 0.97079 0.0
O82 O 0.43063 0.17769 0.09029 0.0
O83 O 0.47578 0.20417 0.066 0.0
Co84 Co 0.80877 0.44157 0.52889 0.0
O85 O 0.76712 0.41742 0.53 0.0
O86 O 0.81507 0.39643 0.50292 0.0
C87 C 0.8056 0.46006 0.6041 0.0
O88 O 0.85679 0.46025 0.52412 0.0
Co89 Co 0.80536 0.51911 0.54038 0.0
O90 O 0.85487 0.5148 0.54599 0.0
C91 C 0.78837 0.48909 0.44833 0.0
C92 C 0.78321 0.3921 0.51209 0.0
C93 C 0.8713 0.48851 0.53407 0.0
O94 O 0.79746 0.46013 0.46432 0.0
O95 O 0.78715 0.51555 0.47421 0.0
O96 O 0.81699 0.4302 0.59463 0.0
O97 O 0.79324 0.47639 0.56849 0.0
Co98 Co 0.56426 0.81244 0.01437 0.0
O99 O 0.58843 0.77082 0.01522 0.0
O100 O 0.60966 0.81886 0.98916 0.0
C101 C 0.54537 0.80882 0.08939 0.0
O102 O 0.54536 0.86044 0.01028 0.0
Co103 Co 0.4867 0.80842 0.0249 0.0
O104 O 0.49081 0.85786 0.03197 0.0
C105 C 0.51751 0.79158 0.93329 0.0
C106 C 0.61391 0.78693 -0.00197 0.0
C107 C 0.51697 0.87463 0.02068 0.0
O108 O 0.54616 0.80138 0.94944 0.0
O109 O 0.491 0.78982 0.959 0.0
O110 O 0.57521 0.82032 0.08035 0.0
O111 O 0.52934 0.79657 0.05345 0.0
H112 H 0.19957 0.54668 0.13957 0.0
H113 H 0.23492 0.44407 0.14904 0.0
H114 H 0.20436 0.55258 0.22479 0.0
H115 H 0.24183 0.45043 0.23417 0.0
H116 H 0.20444 0.45695 0.38648 0.0
H117 H 0.2093 0.4522 0.30147 0.0
H118 H 0.23622 0.55756 0.29292 0.0
H119 H 0.22932 0.56263 0.37838 0.0
C120 C 0.20915 0.5256 0.15983 0.0
C121 C 0.21655 0.4948 0.13763 0.0
C122 C 0.21214 0.52903 0.20887 0.0
C123 C 0.22325 0.50192 0.23695 0.0
C124 C 0.23231 0.47163 0.21418 0.0
C125 C 0.22861 0.468 0.16523 0.0
C126 C 0.21179 0.47907 0.36661 0.0
C127 C 0.21629 0.51023 0.38931 0.0
C128 C 0.21483 0.4763 0.31756 0.0
C129 C 0.22309 0.50449 0.28974 0.0
C130 C 0.22908 0.5354 0.3128 0.0
C131 C 0.2254 0.53831 0.36193 0.0
H132 H 0.46282 0.24129 0.63967 0.0
H133 H 0.56368 0.20369 0.66238 0.0
H134 H 0.45573 0.2485 0.72463 0.0
H135 H 0.55621 0.20993 0.74729 0.0
H136 H 0.54218 0.23982 0.89874 0.0
H137 H 0.54969 0.24631 0.81373 0.0
H138 H 0.44755 0.21266 0.79111 0.0
H139 H 0.43971 0.20714 0.87601 0.0
C140 C 0.48362 0.23479 0.66269 0.0
C141 C 0.51375 0.22161 0.64401 0.0
C142 C 0.47945 0.23873 0.71155 0.0
C143 C 0.5052 0.22943 0.74309 0.0
C144 C 0.53589 0.21771 0.72424 0.0
C145 C 0.54015 0.21397 0.67536 0.0
C146 C 0.52112 0.23428 0.87571 0.0
C147 C 0.49039 0.22268 0.89441 0.0
C148 C 0.52553 0.23779 0.82683 0.0
C149 C 0.4994 0.22966 0.7953 0.0
C150 C 0.46819 0.21953 0.81416 0.0
C151 C 0.46371 0.21619 0.86304 0.0
H152 H 0.79686 0.44153 0.37909 0.0
H153 H 0.76498 0.54456 0.4005 0.0
H154 H 0.7928 0.44917 0.29407 0.0
H155 H 0.7599 0.55186 0.31526 0.0
H156 H 0.80341 0.56473 0.16476 0.0
H157 H 0.79722 0.55742 0.24963 0.0
H158 H 0.75745 0.45746 0.22704 0.0
H159 H 0.76464 0.46436 0.14203 0.0
C160 C 0.78837 0.46566 0.36578 0.0
C161 C 0.78161 0.49252 0.39684 0.0
C162 C 0.78584 0.46999 0.31683 0.0
C163 C 0.77626 0.50124 0.29759 0.0
C164 C 0.768 0.52765 0.32873 0.0
C165 C 0.77071 0.52338 0.37772 0.0
C166 C 0.79302 0.54129 0.17774 0.0
C167 C 0.78488 0.51501 0.1464 0.0
C168 C 0.78925 0.53716 0.22658 0.0
C169 C 0.77703 0.50674 0.2454 0.0
C170 C 0.76755 0.48099 0.21392 0.0
C171 C 0.77151 0.48504 0.16507 0.0
H172 H 0.46378 0.76421 0.88598 0.0
H173 H 0.56424 0.80285 0.86377 0.0
H174 H 0.4569 0.75761 0.80088 0.0
H175 H 0.55693 0.79732 0.77883 0.0
H176 H 0.54389 0.76678 0.62731 0.0
H177 H 0.55132 0.76096 0.71244 0.0
H178 H 0.44855 0.79329 0.73448 0.0
H179 H 0.44078 0.79803 0.64957 0.0
C180 C 0.48448 0.77116 0.86303 0.0
C181 C 0.51448 0.78433 0.88188 0.0
C182 C 0.48044 0.76756 0.81412 0.0
C183 C 0.5062 0.77723 0.78276 0.0
C184 C 0.53665 0.78921 0.80176 0.0
C185 C 0.54079 0.79258 0.85065 0.0
C186 C 0.52273 0.77224 0.65026 0.0
C187 C 0.4918 0.78314 0.63141 0.0
C188 C 0.52707 0.7691 0.69919 0.0
C189 C 0.50067 0.77696 0.73055 0.0
C190 C 0.46937 0.78661 0.71156 0.0
C191 C 0.46496 0.78954 0.66267 0.0
H192 H 0.78588 0.5225 0.63499 0.0
H193 H 0.82562 0.42724 0.68345 0.0
H194 H 0.78553 0.54319 0.7166 0.0
H195 H 0.82555 0.44793 0.76446 0.0
H196 H 0.78717 0.48477 0.90883 0.0
H197 H 0.78513 0.46415 0.82723 0.0
H198 H 0.82719 0.55815 0.77824 0.0
H199 H 0.82893 0.57878 0.85925 0.0
C200 C 0.79458 0.50606 0.663 0.0
C201 C 0.80576 0.4733 0.65287 0.0
C202 C 0.79448 0.51789 0.70964 0.0
C203 C 0.80539 0.49709 0.74693 0.0
C204 C 0.81653 0.46435 0.73662 0.0
C205 C 0.8168 0.45263 0.69012 0.0
C206 C 0.79595 0.50095 0.88057 0.0
C207 C 0.8082 0.53333 0.89038 0.0
C208 C 0.79489 0.48916 0.83394 0.0
C209 C 0.80589 0.50963 0.79635 0.0
C210 C 0.81808 0.542 0.80633 0.0
C211 C 0.81931 0.55368 0.85282 0.0
H212 H 0.4833 0.78774 0.1198 0.0
H213 H 0.57735 0.82951 0.16902 0.0
H214 H 0.46247 0.78656 0.20136 0.0
H215 H 0.55653 0.82865 0.24993 0.0
H216 H 0.52108 0.78791 0.39346 0.0
H217 H 0.54164 0.7874 0.31183 0.0
H218 H 0.44622 0.82703 0.26402 0.0
H219 H 0.42564 0.82723 0.34515 0.0
C220 C 0.49943 0.79674 0.14796 0.0
C221 C 0.53191 0.80868 0.13807 0.0
C222 C 0.48751 0.79617 0.19457 0.0
C223 C 0.50796 0.80737 0.23205 0.0
C224 C 0.54038 0.81938 0.22195 0.0
C225 C 0.55219 0.8201 0.1755 0.0
C226 C 0.50458 0.79651 0.36547 0.0
C227 C 0.4718 0.8076 0.37565 0.0
C228 C 0.51634 0.79633 0.3188 0.0
C229 C 0.49546 0.80707 0.28151 0.0
C230 C 0.46271 0.81816 0.29186 0.0
C231 C 0.45105 0.8185 0.33842 0.0
H232 H 0.17493 0.42224 0.85407 0.0
H233 H 0.21238 0.51912 0.89949 0.0
H234 H 0.17348 0.44195 0.77258 0.0
H235 H 0.21119 0.5388 0.8175 0.0
H236 H 0.16616 0.57203 0.67561 0.0
H237 H 0.16797 0.55173 0.75674 0.0
H238 H 0.21322 0.45876 0.70886 0.0
H239 H 0.21116 0.47905 0.62715 0.0
C240 C 0.18292 0.44776 0.84661 0.0
C241 C 0.19375 0.4692 0.88311 0.0
C242 C 0.18229 0.45893 0.79988 0.0
C243 C 0.19229 0.49184 0.7887 0.0
C244 C 0.20307 0.51336 0.82522 0.0
C245 C 0.20387 0.5021 0.87205 0.0
C246 C 0.1764 0.54719 0.68229 0.0
C247 C 0.18858 0.5271 0.64508 0.0
C248 C 0.17766 0.53571 0.72883 0.0
C249 C 0.19096 0.50381 0.73914 0.0
C250 C 0.20267 0.48342 0.70185 0.0
C251 C 0.20157 0.49502 0.65517 0.0
H252 H 0.5746 0.16547 0.35909 0.0
H253 H 0.48058 0.20941 0.40541 0.0
H254 H 0.55504 0.16645 0.27761 0.0
H255 H 0.46095 0.21045 0.32324 0.0
H256 H 0.42642 0.16861 0.17866 0.0
H257 H 0.44576 0.16861 0.26029 0.0
H258 H 0.54137 0.20937 0.21553 0.0
H259 H 0.52196 0.20933 0.13327 0.0
C260 C 0.54968 0.1753 0.35188 0.0
C261 C 0.52907 0.18739 0.38864 0.0
C262 C 0.53863 0.17608 0.30511 0.0
C263 C 0.50662 0.18873 0.29405 0.0
C264 C 0.48574 0.20042 0.33085 0.0
C265 C 0.49694 0.19989 0.37778 0.0
C266 C 0.45163 0.17753 0.18612 0.0
C267 C 0.47275 0.18895 0.14957 0.0
C268 C 0.46255 0.17776 0.23296 0.0
C269 C 0.49496 0.18914 0.24429 0.0
C270 C 0.51628 0.20029 0.20771 0.0
C271 C 0.50521 0.20034 0.16073 0.0
H272 H 0.92364 0.5641 0.02463 0.0
H273 H 0.91087 0.45858 0.99137 0.0
H274 H 0.9847 0.55607 0.02531 0.0
H275 H 0.97139 0.4509 0.99125 0.0
H276 H 0.0819 0.442 0.03614 0.0
H277 H 0.02086 0.44972 0.04183 0.0
H278 H 0.02928 0.54478 0.96865 0.0
H279 H 0.0897 0.53749 0.96354 0.0
C280 C 0.93374 0.53927 0.01746 0.0
C281 C 0.91218 0.51211 0.00774 0.0
C282 C 0.96875 0.53466 0.01767 0.0
C283 C 0.98298 0.50279 0.0083 0.0
C284 C 0.96138 0.47564 -0.00075 0.0
C285 C 0.92653 0.48022 -0.00108 0.0
C286 C 0.07069 0.46446 0.02116 0.0
C287 C 0.09087 0.48908 -0.00051 0.0
C288 C 0.0357 0.46891 0.02439 0.0
C289 C 0.02017 0.49806 0.00604 0.0
C290 C 0.04038 0.52241 0.98406 0.0
C291 C 0.07515 0.518 0.98081 0.0
H292 H 0.44285 0.91781 0.53824 0.0
H293 H 0.53579 0.91333 0.45884 0.0
H294 H 0.45038 0.97851 0.5483 0.0
H295 H 0.54285 0.97361 0.46798 0.0
H296 H 0.56297 0.07799 0.52587 0.0
H297 H 0.55581 0.01679 0.52507 0.0
H298 H 0.44893 0.02957 0.50316 0.0
H299 H 0.45579 0.09007 0.50519 0.0
C300 C 0.46466 0.92974 0.52256 0.0
C301 C 0.48865 0.91058 0.49777 0.0
C302 C 0.46904 0.96455 0.52834 0.0
C303 C 0.49742 0.98099 0.50927 0.0
C304 C 0.52112 0.96179 0.48409 0.0
C305 C 0.51684 0.92714 0.47847 0.0
C306 C 0.53794 0.0677 0.52139 0.0
C307 C 0.51009 0.08911 0.51525 0.0
C308 C 0.53382 0.03261 0.5206 0.0
C309 C 0.50176 0.01817 0.51377 0.0
C310 C 0.4739 0.03965 0.50903 0.0
C311 C 0.47798 0.07453 0.50978 0.0
H312 H 0.07811 0.56045 0.49506 0.0
H313 H 0.08698 0.45981 0.55212 0.0
H314 H 0.01681 0.55401 0.493 0.0
H315 H 0.02645 0.45383 0.55092 0.0
H316 H 0.91773 0.44082 0.50586 0.0
H317 H 0.97871 0.44753 0.49924 0.0
H318 H 0.97 0.55034 0.54781 0.0
H319 H 0.90948 0.544 0.55353 0.0
C320 C 0.06711 0.53705 0.50718 0.0
C321 C 0.08766 0.51075 0.52376 0.0
C322 C 0.03197 0.53336 0.50614 0.0
C323 C 0.01665 0.50329 0.52165 0.0
C324 C 0.03729 0.47705 0.53788 0.0
C325 C 0.07218 0.4807 0.5389 0.0
C326 C 0.92882 0.46483 0.51509 0.0
C327 C 0.90853 0.49174 0.53042 0.0
C328 C 0.96381 0.46871 0.51138 0.0
C329 C 0.97932 0.49955 0.52293 0.0
C330 C 0.95897 0.52644 0.53787 0.0
C331 C 0.92413 0.5226 0.54159 0.0
H332 H 0.56484 0.92209 -0.00287 0.0
H333 H 0.46074 0.91191 0.0397 0.0
H334 H 0.55774 0.98324 0.99425 0.0
H335 H 0.45403 0.97248 0.03773 0.0
H336 H 0.44361 0.08168 0.9914 0.0
H337 H 0.45103 0.02063 0.98577 0.0
H338 H 0.54976 0.02955 0.04847 0.0
H339 H 0.5428 0.09002 0.05317 0.0
C340 C 0.54053 0.93278 0.00595 0.0
C341 C 0.51348 0.91191 0.01878 0.0
C342 C 0.53645 0.96785 0.00443 0.0
C343 C 0.50524 0.98283 0.01567 0.0
C344 C 0.47822 0.96189 0.02809 0.0
C345 C 0.48227 0.92701 0.02962 0.0
C346 C 0.4669 0.07059 0.00385 0.0
C347 C 0.49252 0.09091 0.02274 0.0
C348 C 0.47116 0.03559 0.00075 0.0
C349 C 0.50109 0.02014 0.01655 0.0
C350 C 0.52667 0.04054 0.03515 0.0
C351 C 0.52247 0.07535 0.03817 0.0
H352 H 0.19741 0.32703 0.00366 0.0
H353 H 0.2781 0.38435 0.06609 0.0
H354 H 0.23381 0.27657 0.00277 0.0
H355 H 0.31385 0.33459 0.0661 0.0
H356 H 0.3648 0.24 0.09509 0.0
H357 H 0.31615 0.27671 0.10406 0.0
H358 H 0.29157 0.2624 0.95672 0.0
H359 H 0.34065 0.22468 0.94794 0.0
C360 C 0.22248 0.32849 0.01856 0.0
C361 C 0.23496 0.35932 0.03553 0.0
C362 C 0.24336 0.29986 0.01749 0.0
C363 C 0.27661 0.30165 0.03444 0.0
C364 C 0.28825 0.33225 0.05331 0.0
C365 C 0.2678 0.36076 0.05343 0.0
C366 C 0.34848 0.24393 0.06487 0.0
C367 C 0.35653 0.22986 0.02073 0.0
C368 C 0.32066 0.26497 0.07003 0.0
C369 C 0.30038 0.27282 0.03098 0.0
C370 C 0.30674 0.25661 0.98747 0.0
C371 C 0.33475 0.23512 0.98237 0.0
H372 H 0.7206 0.38529 0.47803 0.0
H373 H 0.80423 0.32753 0.53191 0.0
H374 H 0.68569 0.33507 0.47766 0.0
H375 H 0.76863 0.27656 0.53243 0.0
H376 H 0.66266 0.22187 0.58876 0.0
H377 H 0.71104 0.26049 0.581 0.0
H378 H 0.6849 0.27795 0.4349 0.0
H379 H 0.63701 0.24029 0.44282 0.0
C380 C 0.73168 0.36157 0.48891 0.0
C381 C 0.76515 0.36014 0.50444 0.0
C382 C 0.7117 0.3328 0.48879 0.0
C383 C 0.72445 0.30188 0.505 0.0
C384 C 0.75823 0.30011 0.51979 0.0
C385 C 0.77862 0.32906 0.51896 0.0
C386 C 0.6681 0.23318 0.55476 0.0
C387 C 0.64605 0.22852 0.51652 0.0
C388 C 0.6957 0.25519 0.55024 0.0
C389 C 0.70138 0.27252 0.50745 0.0
C390 C 0.68091 0.26529 0.46838 0.0
C391 C 0.65352 0.24372 0.47295 0.0
H392 H 0.73007 0.62456 0.07459 0.0
H393 H 0.8087 0.67744 0.0002 0.0
H394 H 0.69231 0.67221 0.06348 0.0
H395 H 0.7703 0.72559 0.98828 0.0
H396 H 0.67774 0.80851 0.02113 0.0
H397 H 0.72691 0.77152 0.03403 0.0
H398 H 0.67066 0.68757 0.97818 0.0
H399 H 0.62215 0.72393 0.96591 0.0
C400 C 0.73961 0.64697 0.0573 0.0
C401 C 0.7722 0.64742 0.03831 0.0
C402 C 0.71793 0.67411 0.05054 0.0
C403 C 0.72818 0.7022 0.02405 0.0
C404 C 0.76181 0.70415 0.00871 0.0
C405 C 0.7838 0.67679 0.01584 0.0
C406 C 0.67652 0.78242 0.01006 0.0
C407 C 0.6462 0.76892 0.99275 0.0
C408 C 0.70447 0.76128 0.01776 0.0
C409 C 0.70218 0.72659 0.00818 0.0
C410 C 0.67285 0.71407 0.98684 0.0
C411 C 0.64518 0.73493 0.97944 0.0
H412 H 0.32591 0.80354 0.49989 0.0
H413 H 0.38626 0.72011 0.54863 0.0
H414 H 0.27558 0.76702 0.50055 0.0
H415 H 0.33676 0.68428 0.54999 0.0
H416 H 0.2438 0.63365 0.58868 0.0
H417 H 0.28123 0.68176 0.59556 0.0
H418 H 0.25865 0.71006 0.45165 0.0
H419 H 0.22016 0.66147 0.445 0.0
C420 C 0.32818 0.77775 0.5119 0.0
C421 C 0.35979 0.76462 0.52467 0.0
C422 C 0.2996 0.75683 0.51172 0.0
C423 C 0.30228 0.72286 0.52541 0.0
C424 C 0.33378 0.71041 0.53976 0.0
C425 C 0.36215 0.73092 0.53904 0.0
C426 C 0.24614 0.6506 0.55881 0.0
C427 C 0.2295 0.64371 0.51612 0.0
C428 C 0.26755 0.67814 0.5628 0.0
C429 C 0.27324 0.69934 0.52397 0.0
C430 C 0.25457 0.69414 0.48221 0.0
C431 C 0.23266 0.66641 0.47832 0.0
loop_
_geom_bond_atom_site_label_1
_geom_bond_atom_site_label_2
_geom_bond_distance
_geom_bond_site_symmetry_2
_ccdc_geom_bond_type
Co0 O1 2.216 . S
Co0 O2 2.091 . S
Co0 O4 2.004 . S
Co0 O10 2.021 . S
Co0 O12 2.137 1_554 S
Co0 O13 2.244 1_554 S
O1 Co0 2.216 . S
O1 C8 1.247 . S
O2 Co0 2.091 . S
O2 C8 1.261 . S
C3 O12 1.247 . S
C3 O13 1.272 . S
O4 Co0 2.004 . S
O4 C9 1.259 . S
Co5 O6 2.061 . S
Co5 O11 2.052 . S
Co5 O13 2.135 1_554 S
O6 Co5 2.061 . S
O6 C9 1.235 . S
C7 O10 1.238 . S
C7 O11 1.241 . S
C8 O1 1.247 . S
C8 O2 1.261 . S
C9 O4 1.259 . S
C9 O6 1.235 . S
O10 Co0 2.021 . S
O10 C7 1.238 . S
O11 Co5 2.052 . S
O11 C7 1.241 . S
O12 Co0 2.137 1_556 S
O12 C3 1.247 . S
O13 Co0 2.244 1_556 S
O13 C3 1.272 . S
O13 Co5 2.135 1_556 S
Co14 O15 2.216 . S
Co14 O16 2.091 . S
Co14 O18 2.004 . S
Co14 O24 2.021 . S
Co14 O26 2.137 . S
Co14 O27 2.244 . S
O15 Co14 2.216 . S
O15 C22 1.247 . S
O16 Co14 2.091 . S
O16 C22 1.261 . S
C17 O26 1.247 . S
C17 O27 1.272 . S
O18 Co14 2.004 . S
O18 C23 1.259 . S
Co19 O20 2.061 . S
Co19 O25 2.052 . S
Co19 O27 2.135 . S
O20 Co19 2.061 . S
O20 C23 1.235 . S
C21 O24 1.238 . S
C21 O25 1.241 . S
C22 O15 1.247 . S
C22 O16 1.261 . S
C23 O18 1.259 . S
C23 O20 1.235 . S
O24 Co14 2.021 . S
O24 C21 1.238 . S
O25 Co19 2.052 . S
O25 C21 1.241 . S
O26 Co14 2.137 . S
O26 C17 1.247 . S
O27 Co14 2.244 . S
O27 C17 1.272 . S
O27 Co19 2.135 . S
Co28 O29 2.216 . S
Co28 O30 2.091 . S
Co28 O32 2.004 . S
Co28 O38 2.021 . S
Co28 O40 2.137 1_554 S
Co28 O41 2.244 1_554 S
O29 Co28 2.216 . S
O29 C36 1.247 . S
O30 Co28 2.091 . S
O30 C36 1.261 . S
C31 O40 1.247 . S
C31 O41 1.272 . S
O32 Co28 2.004 . S
O32 C37 1.259 . S
Co33 O34 2.061 . S
Co33 O39 2.052 . S
Co33 O41 2.135 1_554 S
O34 Co33 2.061 . S
O34 C37 1.235 . S
C35 O38 1.238 . S
C35 O39 1.241 . S
C36 O29 1.247 . S
C36 O30 1.261 . S
C37 O32 1.259 . S
C37 O34 1.235 . S
O38 Co28 2.021 . S
O38 C35 1.238 . S
O39 Co33 2.052 . S
O39 C35 1.241 . S
O40 Co28 2.137 1_556 S
O40 C31 1.247 . S
O41 Co28 2.244 1_556 S
O41 C31 1.272 . S
O41 Co33 2.135 1_556 S
Co42 O43 2.216 . S
Co42 O44 2.091 . S
Co42 O46 2.004 . S
Co42 O52 2.021 . S
Co42 O54 2.137 . S
Co42 O55 2.244 . S
O43 Co42 2.216 . S
O43 C50 1.247 . S
O44 Co42 2.091 . S
O44 C50 1.261 . S
C45 O54 1.247 . S
C45 O55 1.272 . S
O46 Co42 2.004 . S
O46 C51 1.259 . S
Co47 O48 2.061 . S
Co47 O53 2.052 . S
Co47 O55 2.135 . S
O48 Co47 2.061 . S
O48 C51 1.235 . S
C49 O52 1.238 . S
C49 O53 1.241 . S
C50 O43 1.247 . S
C50 O44 1.261 . S
C51 O46 1.259 . S
C51 O48 1.235 . S
O52 Co42 2.021 . S
O52 C49 1.238 . S
O53 Co47 2.052 . S
O53 C49 1.241 . S
O54 Co42 2.137 . S
O54 C45 1.247 . S
O55 Co42 2.244 . S
O55 C45 1.272 . S
O55 Co47 2.135 . S
Co56 O57 2.216 . S
Co56 O58 2.091 . S
Co56 O60 2.004 . S
Co56 O66 2.021 . S
Co56 O68 2.137 . S
Co56 O69 2.244 . S
O57 Co56 2.216 . S
O57 C64 1.247 . S
O58 Co56 2.091 . S
O58 C64 1.261 . S
C59 O68 1.247 . S
C59 O69 1.272 . S
O60 Co56 2.004 . S
O60 C65 1.259 . S
Co61 O62 2.061 . S
Co61 O67 2.052 . S
Co61 O69 2.135 . S
O62 Co61 2.061 . S
O62 C65 1.235 . S
C63 O66 1.238 . S
C63 O67 1.241 . S
C64 O57 1.247 . S
C64 O58 1.261 . S
C65 O60 1.259 . S
C65 O62 1.235 . S
O66 Co56 2.021 . S
O66 C63 1.238 . S
O67 Co61 2.052 . S
O67 C63 1.241 . S
O68 Co56 2.137 . S
O68 C59 1.247 . S
O69 Co56 2.244 . S
O69 C59 1.272 . S
O69 Co61 2.135 . S
Co70 O71 2.216 . S
Co70 O72 2.091 . S
Co70 O74 2.004 . S
Co70 O80 2.021 1_554 S
Co70 O82 2.137 . S
Co70 O83 2.244 . S
O71 Co70 2.216 . S
O71 C78 1.247 . S
O72 Co70 2.091 . S
O72 C78 1.261 . S
C73 O82 1.247 . S
C73 O83 1.272 . S
O74 Co70 2.004 . S
O74 C79 1.259 . S
Co75 O76 2.061 . S
Co75 O81 2.052 1_554 S
Co75 O83 2.135 . S
O76 Co75 2.061 . S
O76 C79 1.235 . S
C77 O80 1.238 . S
C77 O81 1.241 . S
C78 O71 1.247 . S
C78 O72 1.261 . S
C79 O74 1.259 . S
C79 O76 1.235 . S
O80 Co70 2.021 1_556 S
O80 C77 1.238 . S
O81 Co75 2.052 1_556 S
O81 C77 1.241 . S
O82 Co70 2.137 . S
O82 C73 1.247 . S
O83 Co70 2.244 . S
O83 C73 1.272 . S
O83 Co75 2.135 . S
Co84 O85 2.216 . S
Co84 O86 2.091 . S
Co84 O88 2.004 . S
Co84 O94 2.021 . S
Co84 O96 2.137 . S
Co84 O97 2.244 . S
O85 Co84 2.216 . S
O85 C92 1.247 . S
O86 Co84 2.091 . S
O86 C92 1.261 . S
C87 O96 1.247 . S
C87 O97 1.272 . S
O88 Co84 2.004 . S
O88 C93 1.259 . S
Co89 O90 2.061 . S
Co89 O95 2.052 . S
Co89 O97 2.135 . S
O90 Co89 2.061 . S
O90 C93 1.235 . S
C91 O94 1.238 . S
C91 O95 1.241 . S
C92 O85 1.247 . S
C92 O86 1.261 . S
C93 O88 1.259 . S
C93 O90 1.235 . S
O94 Co84 2.021 . S
O94 C91 1.238 . S
O95 Co89 2.052 . S
O95 C91 1.241 . S
O96 Co84 2.137 . S
O96 C87 1.247 . S
O97 Co84 2.244 . S
O97 C87 1.272 . S
O97 Co89 2.135 . S
Co98 O99 2.216 . S
Co98 O100 2.091 . S
Co98 O102 2.004 . S
Co98 O108 2.021 1_554 S
Co98 O110 2.137 . S
Co98 O111 2.244 . S
O99 Co98 2.216 . S
O99 C106 1.247 . S
O100 Co98 2.091 . S
O100 C106 1.261 . S
C101 O110 1.247 . S
C101 O111 1.272 . S
O102 Co98 2.004 . S
O102 C107 1.259 . S
Co103 O104 2.061 . S
Co103 O109 2.052 1_554 S
Co103 O111 2.135 . S
O104 Co103 2.061 . S
O104 C107 1.235 . S
C105 O108 1.238 . S
C105 O109 1.241 . S
C106 O99 1.247 . S
C106 O100 1.261 . S
C107 O102 1.259 . S
C107 O104 1.235 . S
O108 Co98 2.021 1_556 S
O108 C105 1.238 . S
O109 Co103 2.052 1_556 S
O109 C105 1.241 . S
O110 Co98 2.137 . S
O110 C101 1.247 . S
O111 Co98 2.244 . S
O111 C101 1.272 . S
O111 Co103 2.135 . S
H112 C120 0.950 . S
H113 C125 0.950 . S
H114 C122 0.950 . S
H115 C124 0.950 . S
H116 C126 0.950 . S
H117 C128 0.950 . S
H118 C130 0.950 . S
H119 C131 0.950 . S
C120 H112 0.950 . S
C120 C121 1.386 . S
C120 C122 1.391 . S
C121 C120 1.386 . S
C121 C125 1.393 . S
C122 H114 0.950 . S
C122 C120 1.391 . S
C122 C123 1.400 . S
C123 C122 1.400 . S
C123 C124 1.398 . S
C123 C129 1.491 . S
C124 H115 0.950 . S
C124 C123 1.398 . S
C124 C125 1.391 . S
C125 H113 0.950 . S
C125 C121 1.393 . S
C125 C124 1.391 . S
C126 H116 0.950 . S
C126 C127 1.386 . S
C126 C128 1.391 . S
C127 C126 1.386 . S
C127 C131 1.393 . S
C128 H117 0.950 . S
C128 C126 1.391 . S
C128 C129 1.400 . S
C129 C123 1.491 . S
C129 C128 1.400 . S
C129 C130 1.398 . S
C130 H118 0.950 . S
C130 C129 1.398 . S
C130 C131 1.391 . S
C131 H119 0.950 . S
C131 C127 1.393 . S
C131 C130 1.391 . S
H132 C140 0.950 . S
H133 C145 0.950 . S
H134 C142 0.950 . S
H135 C144 0.950 . S
H136 C146 0.950 . S
H137 C148 0.950 . S
H138 C150 0.950 . S
H139 C151 0.950 . S
C140 H132 0.950 . S
C140 C141 1.386 . S
C140 C142 1.391 . S
C141 C140 1.386 . S
C141 C145 1.393 . S
C142 H134 0.950 . S
C142 C140 1.391 . S
C142 C143 1.400 . S
C143 C142 1.400 . S
C143 C144 1.398 . S
C143 C149 1.491 . S
C144 H135 0.950 . S
C144 C143 1.398 . S
C144 C145 1.391 . S
C145 H133 0.950 . S
C145 C141 1.393 . S
C145 C144 1.391 . S
C146 H136 0.950 . S
C146 C147 1.386 . S
C146 C148 1.391 . S
C147 C146 1.386 . S
C147 C151 1.393 . S
C148 H137 0.950 . S
C148 C146 1.391 . S
C148 C149 1.400 . S
C149 C143 1.491 . S
C149 C148 1.400 . S
C149 C150 1.398 . S
C150 H138 0.950 . S
C150 C149 1.398 . S
C150 C151 1.391 . S
C151 H139 0.950 . S
C151 C147 1.393 . S
C151 C150 1.391 . S
H152 C160 0.950 . S
H153 C165 0.950 . S
H154 C162 0.950 . S
H155 C164 0.950 . S
H156 C166 0.950 . S
H157 C168 0.950 . S
H158 C170 0.950 . S
H159 C171 0.950 . S
C160 H152 0.950 . S
C160 C161 1.386 . S
C160 C162 1.391 . S
C161 C160 1.386 . S
C161 C165 1.393 . S
C162 H154 0.950 . S
C162 C160 1.391 . S
C162 C163 1.400 . S
C163 C162 1.400 . S
C163 C164 1.398 . S
C163 C169 1.491 . S
C164 H155 0.950 . S
C164 C163 1.398 . S
C164 C165 1.391 . S
C165 H153 0.950 . S
C165 C161 1.393 . S
C165 C164 1.391 . S
C166 H156 0.950 . S
C166 C167 1.386 . S
C166 C168 1.391 . S
C167 C166 1.386 . S
C167 C171 1.393 . S
C168 H157 0.950 . S
C168 C166 1.391 . S
C168 C169 1.400 . S
C169 C163 1.491 . S
C169 C168 1.400 . S
C169 C170 1.398 . S
C170 H158 0.950 . S
C170 C169 1.398 . S
C170 C171 1.391 . S
C171 H159 0.950 . S
C171 C167 1.393 . S
C171 C170 1.391 . S
H172 C180 0.950 . S
H173 C185 0.950 . S
H174 C182 0.950 . S
H175 C184 0.950 . S
H176 C186 0.950 . S
H177 C188 0.950 . S
H178 C190 0.950 . S
H179 C191 0.950 . S
C180 H172 0.950 . S
C180 C181 1.386 . S
C180 C182 1.391 . S
C181 C180 1.386 . S
C181 C185 1.393 . S
C182 H174 0.950 . S
C182 C180 1.391 . S
C182 C183 1.400 . S
C183 C182 1.400 . S
C183 C184 1.398 . S
C183 C189 1.491 . S
C184 H175 0.950 . S
C184 C183 1.398 . S
C184 C185 1.391 . S
C185 H173 0.950 . S
C185 C181 1.393 . S
C185 C184 1.391 . S
C186 H176 0.950 . S
C186 C187 1.386 . S
C186 C188 1.391 . S
C187 C186 1.386 . S
C187 C191 1.393 . S
C188 H177 0.950 . S
C188 C186 1.391 . S
C188 C189 1.400 . S
C189 C183 1.491 . S
C189 C188 1.400 . S
C189 C190 1.398 . S
C190 H178 0.950 . S
C190 C189 1.398 . S
C190 C191 1.391 . S
C191 H179 0.950 . S
C191 C187 1.393 . S
C191 C190 1.391 . S
H192 C200 0.950 . S
H193 C205 0.950 . S
H194 C202 0.950 . S
H195 C204 0.950 . S
H196 C206 0.950 . S
H197 C208 0.950 . S
H198 C210 0.950 . S
H199 C211 0.950 . S
C200 H192 0.950 . S
C200 C201 1.386 . S
C200 C202 1.391 . S
C201 C200 1.386 . S
C201 C205 1.393 . S
C202 H194 0.950 . S
C202 C200 1.391 . S
C202 C203 1.400 . S
C203 C202 1.400 . S
C203 C204 1.398 . S
C203 C209 1.491 . S
C204 H195 0.950 . S
C204 C203 1.398 . S
C204 C205 1.391 . S
C205 H193 0.950 . S
C205 C201 1.393 . S
C205 C204 1.391 . S
C206 H196 0.950 . S
C206 C207 1.386 . S
C206 C208 1.391 . S
C207 C206 1.386 . S
C207 C211 1.393 . S
C208 H197 0.950 . S
C208 C206 1.391 . S
C208 C209 1.400 . S
C209 C203 1.491 . S
C209 C208 1.400 . S
C209 C210 1.398 . S
C210 H198 0.950 . S
C210 C209 1.398 . S
C210 C211 1.391 . S
C211 H199 0.950 . S
C211 C207 1.393 . S
C211 C210 1.391 . S
H212 C220 0.950 . S
H213 C225 0.950 . S
H214 C222 0.950 . S
H215 C224 0.950 . S
H216 C226 0.950 . S
H217 C228 0.950 . S
H218 C230 0.950 . S
H219 C231 0.950 . S
C220 H212 0.950 . S
C220 C221 1.386 . S
C220 C222 1.391 . S
C221 C220 1.386 . S
C221 C225 1.393 . S
C222 H214 0.950 . S
C222 C220 1.391 . S
C222 C223 1.400 . S
C223 C222 1.400 . S
C223 C224 1.398 . S
C223 C229 1.491 . S
C224 H215 0.950 . S
C224 C223 1.398 . S
C224 C225 1.391 . S
C225 H213 0.950 . S
C225 C221 1.393 . S
C225 C224 1.391 . S
C226 H216 0.950 . S
C226 C227 1.386 . S
C226 C228 1.391 . S
C227 C226 1.386 . S
C227 C231 1.393 . S
C228 H217 0.950 . S
C228 C226 1.391 . S
C228 C229 1.400 . S
C229 C223 1.491 . S
C229 C228 1.400 . S
C229 C230 1.398 . S
C230 H218 0.950 . S
C230 C229 1.398 . S
C230 C231 1.391 . S
C231 H219 0.950 . S
C231 C227 1.393 . S
C231 C230 1.391 . S
H232 C240 0.950 . S
H233 C245 0.950 . S
H234 C242 0.950 . S
H235 C244 0.950 . S
H236 C246 0.950 . S
H237 C248 0.950 . S
H238 C250 0.950 . S
H239 C251 0.950 . S
C240 H232 0.950 . S
C240 C241 1.386 . S
C240 C242 1.391 . S
C241 C240 1.386 . S
C241 C245 1.393 . S
C242 H234 0.950 . S
C242 C240 1.391 . S
C242 C243 1.400 . S
C243 C242 1.400 . S
C243 C244 1.398 . S
C243 C249 1.491 . S
C244 H235 0.950 . S
C244 C243 1.398 . S
C244 C245 1.391 . S
C245 H233 0.950 . S
C245 C241 1.393 . S
C245 C244 1.391 . S
C246 H236 0.950 . S
C246 C247 1.386 . S
C246 C248 1.391 . S
C247 C246 1.386 . S
C247 C251 1.393 . S
C248 H237 0.950 . S
C248 C246 1.391 . S
C248 C249 1.400 . S
C249 C243 1.491 . S
C249 C248 1.400 . S
C249 C250 1.398 . S
C250 H238 0.950 . S
C250 C249 1.398 . S
C250 C251 1.391 . S
C251 H239 0.950 . S
C251 C247 1.393 . S
C251 C250 1.391 . S
H252 C260 0.950 . S
H253 C265 0.950 . S
H254 C262 0.950 . S
H255 C264 0.950 . S
H256 C266 0.950 . S
H257 C268 0.950 . S
H258 C270 0.950 . S
H259 C271 0.950 . S
C260 H252 0.950 . S
C260 C261 1.386 . S
C260 C262 1.391 . S
C261 C260 1.386 . S
C261 C265 1.393 . S
C262 H254 0.950 . S
C262 C260 1.391 . S
C262 C263 1.400 . S
C263 C262 1.400 . S
C263 C264 1.398 . S
C263 C269 1.491 . S
C264 H255 0.950 . S
C264 C263 1.398 . S
C264 C265 1.391 . S
C265 H253 0.950 . S
C265 C261 1.393 . S
C265 C264 1.391 . S
C266 H256 0.950 . S
C266 C267 1.386 . S
C266 C268 1.391 . S
C267 C266 1.386 . S
C267 C271 1.393 . S
C268 H257 0.950 . S
C268 C266 1.391 . S
C268 C269 1.400 . S
C269 C263 1.491 . S
C269 C268 1.400 . S
C269 C270 1.398 . S
C270 H258 0.950 . S
C270 C269 1.398 . S
C270 C271 1.391 . S
C271 H259 0.950 . S
C271 C267 1.393 . S
C271 C270 1.391 . S
H272 C280 0.950 . S
H273 C285 0.950 . S
H274 C282 0.950 . S
H275 C284 0.950 . S
H276 C286 0.950 . S
H277 C288 0.950 . S
H278 C290 0.950 . S
H279 C291 0.950 . S
C280 H272 0.950 . S
C280 C281 1.386 1_556 S
C280 C282 1.391 . S
C281 C280 1.386 1_554 S
C281 C285 1.393 . S
C282 H274 0.950 . S
C282 C280 1.391 . S
C282 C283 1.400 1_556 S
C283 C282 1.400 1_554 S
C283 C284 1.398 . S
C283 C289 1.491 1_655 S
C284 H275 0.950 . S
C284 C283 1.398 . S
C284 C285 1.391 . S
C285 H273 0.950 . S
C285 C281 1.393 . S
C285 C284 1.391 . S
C286 H276 0.950 . S
C286 C287 1.386 . S
C286 C288 1.391 . S
C287 C286 1.386 . S
C287 C291 1.393 1_554 S
C288 H277 0.950 . S
C288 C286 1.391 . S
C288 C289 1.400 . S
C289 C283 1.491 1_455 S
C289 C288 1.400 . S
C289 C290 1.398 1_554 S
C290 H278 0.950 . S
C290 C289 1.398 1_556 S
C290 C291 1.391 . S
C291 H279 0.950 . S
C291 C287 1.393 1_556 S
C291 C290 1.391 . S
H292 C300 0.950 . S
H293 C305 0.950 . S
H294 C302 0.950 . S
H295 C304 0.950 . S
H296 C306 0.950 . S
H297 C308 0.950 . S
H298 C310 0.950 . S
H299 C311 0.950 . S
C300 H292 0.950 . S
C300 C301 1.386 . S
C300 C302 1.391 . S
C301 C300 1.386 . S
C301 C305 1.393 . S
C302 H294 0.950 . S
C302 C300 1.391 . S
C302 C303 1.400 . S
C303 C302 1.400 . S
C303 C304 1.398 . S
C303 C309 1.491 1_565 S
C304 H295 0.950 . S
C304 C303 1.398 . S
C304 C305 1.391 . S
C305 H293 0.950 . S
C305 C301 1.393 . S
C305 C304 1.391 . S
C306 H296 0.950 . S
C306 C307 1.386 . S
C306 C308 1.391 . S
C307 C306 1.386 . S
C307 C311 1.393 . S
C308 H297 0.950 . S
C308 C306 1.391 . S
C308 C309 1.400 . S
C309 C303 1.491 1_545 S
C309 C308 1.400 . S
C309 C310 1.398 . S
C310 H298 0.950 . S
C310 C309 1.398 . S
C310 C311 1.391 . S
C311 H299 0.950 . S
C311 C307 1.393 . S
C311 C310 1.391 . S
H312 C320 0.950 . S
H313 C325 0.950 . S
H314 C322 0.950 . S
H315 C324 0.950 . S
H316 C326 0.950 . S
H317 C328 0.950 . S
H318 C330 0.950 . S
H319 C331 0.950 . S
C320 H312 0.950 . S
C320 C321 1.386 . S
C320 C322 1.391 . S
C321 C320 1.386 . S
C321 C325 1.393 . S
C322 H314 0.950 . S
C322 C320 1.391 . S
C322 C323 1.400 . S
C323 C322 1.400 . S
C323 C324 1.398 . S
C323 C329 1.491 1_455 S
C324 H315 0.950 . S
C324 C323 1.398 . S
C324 C325 1.391 . S
C325 H313 0.950 . S
C325 C321 1.393 . S
C325 C324 1.391 . S
C326 H316 0.950 . S
C326 C327 1.386 . S
C326 C328 1.391 . S
C327 C326 1.386 . S
C327 C331 1.393 . S
C328 H317 0.950 . S
C328 C326 1.391 . S
C328 C329 1.400 . S
C329 C323 1.491 1_655 S
C329 C328 1.400 . S
C329 C330 1.398 . S
C330 H318 0.950 . S
C330 C329 1.398 . S
C330 C331 1.391 . S
C331 H319 0.950 . S
C331 C327 1.393 . S
C331 C330 1.391 . S
H332 C340 0.950 . S
H333 C345 0.950 . S
H334 C342 0.950 . S
H335 C344 0.950 . S
H336 C346 0.950 . S
H337 C348 0.950 . S
H338 C350 0.950 . S
H339 C351 0.950 . S
C340 H332 0.950 . S
C340 C341 1.386 . S
C340 C342 1.391 . S
C341 C340 1.386 . S
C341 C345 1.393 1_554 S
C342 H334 0.950 . S
C342 C340 1.391 . S
C342 C343 1.400 . S
C343 C342 1.400 . S
C343 C344 1.398 1_554 S
C343 C349 1.491 1_565 S
C344 H335 0.950 . S
C344 C343 1.398 1_556 S
C344 C345 1.391 . S
C345 H333 0.950 . S
C345 C341 1.393 1_556 S
C345 C344 1.391 . S
C346 H336 0.950 . S
C346 C347 1.386 1_556 S
C346 C348 1.391 . S
C347 C346 1.386 1_554 S
C347 C351 1.393 . S
C348 H337 0.950 . S
C348 C346 1.391 . S
C348 C349 1.400 1_556 S
C349 C343 1.491 1_545 S
C349 C348 1.400 1_554 S
C349 C350 1.398 . S
C350 H338 0.950 . S
C350 C349 1.398 . S
C350 C351 1.391 . S
C351 H339 0.950 . S
C351 C347 1.393 . S
C351 C350 1.391 . S
H352 C360 0.950 . S
H353 C365 0.950 . S
H354 C362 0.950 . S
H355 C364 0.950 . S
H356 C366 0.950 . S
H357 C368 0.950 . S
H358 C370 0.950 . S
H359 C371 0.950 . S
C360 H352 0.950 . S
C360 C361 1.386 1_556 S
C360 C362 1.391 . S
C361 C360 1.386 1_554 S
C361 C365 1.393 . S
C362 H354 0.950 . S
C362 C360 1.391 . S
C362 C363 1.400 1_556 S
C363 C362 1.400 1_554 S
C363 C364 1.398 . S
C363 C369 1.491 . S
C364 H355 0.950 . S
C364 C363 1.398 . S
C364 C365 1.391 . S
C365 H353 0.950 . S
C365 C361 1.393 . S
C365 C364 1.391 . S
C366 H356 0.950 . S
C366 C367 1.386 . S
C366 C368 1.391 . S
C367 C366 1.386 . S
C367 C371 1.393 1_554 S
C368 H357 0.950 . S
C368 C366 1.391 . S
C368 C369 1.400 . S
C369 C363 1.491 . S
C369 C368 1.400 . S
C369 C370 1.398 1_554 S
C370 H358 0.950 . S
C370 C369 1.398 1_556 S
C370 C371 1.391 . S
C371 H359 0.950 . S
C371 C367 1.393 1_556 S
C371 C370 1.391 . S
H372 C380 0.950 . S
H373 C385 0.950 . S
H374 C382 0.950 . S
H375 C384 0.950 . S
H376 C386 0.950 . S
H377 C388 0.950 . S
H378 C390 0.950 . S
H379 C391 0.950 . S
C380 H372 0.950 . S
C380 C381 1.386 . S
C380 C382 1.391 . S
C381 C380 1.386 . S
C381 C385 1.393 . S
C382 H374 0.950 . S
C382 C380 1.391 . S
C382 C383 1.400 . S
C383 C382 1.400 . S
C383 C384 1.398 . S
C383 C389 1.491 . S
C384 H375 0.950 . S
C384 C383 1.398 . S
C384 C385 1.391 . S
C385 H373 0.950 . S
C385 C381 1.393 . S
C385 C384 1.391 . S
C386 H376 0.950 . S
C386 C387 1.386 . S
C386 C388 1.391 . S
C387 C386 1.386 . S
C387 C391 1.393 . S
C388 H377 0.950 . S
C388 C386 1.391 . S
C388 C389 1.400 . S
C389 C383 1.491 . S
C389 C388 1.400 . S
C389 C390 1.398 . S
C390 H378 0.950 . S
C390 C389 1.398 . S
C390 C391 1.391 . S
C391 H379 0.950 . S
C391 C387 1.393 . S
C391 C390 1.391 . S
H392 C400 0.950 . S
H393 C405 0.950 . S
H394 C402 0.950 . S
H395 C404 0.950 . S
H396 C406 0.950 . S
H397 C408 0.950 . S
H398 C410 0.950 . S
H399 C411 0.950 . S
C400 H392 0.950 . S
C400 C401 1.386 . S
C400 C402 1.391 . S
C401 C400 1.386 . S
C401 C405 1.393 . S
C402 H394 0.950 . S
C402 C400 1.391 . S
C402 C403 1.400 . S
C403 C402 1.400 . S
C403 C404 1.398 . S
C403 C409 1.491 . S
C404 H395 0.950 . S
C404 C403 1.398 . S
C404 C405 1.391 . S
C405 H393 0.950 . S
C405 C401 1.393 . S
C405 C404 1.391 . S
C406 H396 0.950 . S
C406 C407 1.386 . S
C406 C408 1.391 . S
C407 C406 1.386 . S
C407 C411 1.393 . S
C408 H397 0.950 . S
C408 C406 1.391 . S
C408 C409 1.400 . S
C409 C403 1.491 . S
C409 C408 1.400 . S
C409 C410 1.398 . S
C410 H398 0.950 . S
C410 C409 1.398 . S
C410 C411 1.391 . S
C411 H399 0.950 . S
C411 C407 1.393 . S
C411 C410 1.391 . S
H412 C420 0.950 . S
H413 C425 0.950 . S
H414 C422 0.950 . S
H415 C424 0.950 . S
H416 C426 0.950 . S
H417 C428 0.950 . S
H418 C430 0.950 . S
H419 C431 0.950 . S
C420 H412 0.950 . S
C420 C421 1.386 . S
C420 C422 1.391 . S
C421 C420 1.386 . S
C421 C425 1.393 . S
C422 H414 0.950 . S
C422 C420 1.391 . S
C422 C423 1.400 . S
C423 C422 1.400 . S
C423 C424 1.398 . S
C423 C429 1.491 . S
C424 H415 0.950 . S
C424 C423 1.398 . S
C424 C425 1.391 . S
C425 H413 0.950 . S
C425 C421 1.393 . S
C425 C424 1.391 . S
C426 H416 0.950 . S
C426 C427 1.386 . S
C426 C428 1.391 . S
C427 C426 1.386 . S
C427 C431 1.393 . S
C428 H417 0.950 . S
C428 C426 1.391 . S
C428 C429 1.400 . S
C429 C423 1.491 . S
C429 C428 1.400 . S
C429 C430 1.398 . S
C430 H418 0.950 . S
C430 C429 1.398 . S
C430 C431 1.391 . S
C431 H419 0.950 . S
C431 C427 1.393 . S
C431 C430 1.391 . S
C121 C7 1.303 . S
C127 C63 1.317 . S
C141 C21 1.300 . S
C147 C77 1.320 . S
C161 C91 1.314 . S
C167 C35 1.305 . S
C181 C105 1.301 . S
C187 C49 1.318 . S
C201 C87 1.214 . S
C207 C31 1.205 . S
C221 C101 1.210 . S
C227 C45 1.199 . S
C241 C3 1.212 . S
C247 C59 1.216 . S
C261 C17 1.205 . S
C267 C73 1.214 . S
C281 C37 1.353 . S
C287 C9 1.351 . S
C301 C51 1.333 . S
C307 C23 1.333 . S
C321 C65 1.338 . S
C327 C93 1.337 . S
C341 C107 1.357 . S
C347 C79 1.356 . S
C361 C8 1.354 . S
C367 C78 1.355 . S
C381 C92 1.358 . S
C387 C22 1.357 . S
C401 C36 1.358 . S
C407 C106 1.358 . S
C421 C50 1.354 . S
C427 C64 1.355 . S
