# Generated by pormake.
# Topology umz, (4)-cn, num edge types: 1
# Building blocks:
#     Node 0, Type 0, BuildingBlock: TATPOV_clean_sbu_0, # of connection points: 4
#     Node 1, Type 0, BuildingBlock: TATPOV_clean_sbu_0, # of connection points: 4
#     Node 2, Type 0, BuildingBlock: TATPOV_clean_sbu_0, # of connection points: 4
#     Node 3, Type 0, BuildingBlock: TATPOV_clean_sbu_0, # of connection points: 4
#     Node 4, Type 0, BuildingBlock: TATPOV_clean_sbu_0, # of connection points: 4
#     Node 5, Type 0, BuildingBlock: TATPOV_clean_sbu_0, # of connection points: 4
#     Node 6, Type 0, BuildingBlock: TATPOV_clean_sbu_0, # of connection points: 4
#     Node 7, Type 0, BuildingBlock: TATPOV_clean_sbu_0, # of connection points: 4
#     Node 8, Type 0, BuildingBlock: TATPOV_clean_sbu_0, # of connection points: 4
#     Node 9, Type 0, BuildingBlock: TATPOV_clean_sbu_0, # of connection points: 4
#     Node 10, Type 0, BuildingBlock: TATPOV_clean_sbu_0, # of connection points: 4
#     Node 11, Type 0, BuildingBlock: TATPOV_clean_sbu_0, # of connection points: 4
#     Node 12, Type 0, BuildingBlock: TATPOV_clean_sbu_0, # of connection points: 4
#     Node 13, Type 0, BuildingBlock: TATPOV_clean_sbu_0, # of connection points: 4
#     Node 14, Type 0, BuildingBlock: TATPOV_clean_sbu_0, # of connection points: 4
#     Node 15, Type 0, BuildingBlock: TATPOV_clean_sbu_0, # of connection points: 4
#     Edge 16, Type (0, 0), BuildingBlock: EYOCIG_clean_linker_4, # of connection points: 2
#     Edge 17, Type (0, 0), BuildingBlock: EYOCIG_clean_linker_4, # of connection points: 2
#     Edge 18, Type (0, 0), BuildingBlock: EYOCIG_clean_linker_4, # of connection points: 2
#     Edge 19, Type (0, 0), BuildingBlock: EYOCIG_clean_linker_4, # of connection points: 2
#     Edge 20, Type (0, 0), BuildingBlock: EYOCIG_clean_linker_4, # of connection points: 2
#     Edge 21, Type (0, 0), BuildingBlock: EYOCIG_clean_linker_4, # of connection points: 2
#     Edge 22, Type (0, 0), BuildingBlock: EYOCIG_clean_linker_4, # of connection points: 2
#     Edge 23, Type (0, 0), BuildingBlock: EYOCIG_clean_linker_4, # of connection points: 2
#     Edge 24, Type (0, 0), BuildingBlock: EYOCIG_clean_linker_4, # of connection points: 2
#     Edge 25, Type (0, 0), BuildingBlock: EYOCIG_clean_linker_4, # of connection points: 2
#     Edge 26, Type (0, 0), BuildingBlock: EYOCIG_clean_linker_4, # of connection points: 2
#     Edge 27, Type (0, 0), BuildingBlock: EYOCIG_clean_linker_4, # of connection points: 2
#     Edge 28, Type (0, 0), BuildingBlock: EYOCIG_clean_linker_4, # of connection points: 2
#     Edge 29, Type (0, 0), BuildingBlock: EYOCIG_clean_linker_4, # of connection points: 2
#     Edge 30, Type (0, 0), BuildingBlock: EYOCIG_clean_linker_4, # of connection points: 2
#     Edge 31, Type (0, 0), BuildingBlock: EYOCIG_clean_linker_4, # of connection points: 2
#     Edge 32, Type (0, 0), BuildingBlock: EYOCIG_clean_linker_4, # of connection points: 2
#     Edge 33, Type (0, 0), BuildingBlock: EYOCIG_clean_linker_4, # of connection points: 2
#     Edge 34, Type (0, 0), BuildingBlock: EYOCIG_clean_linker_4, # of connection points: 2
#     Edge 35, Type (0, 0), BuildingBlock: EYOCIG_clean_linker_4, # of connection points: 2
#     Edge 36, Type (0, 0), BuildingBlock: EYOCIG_clean_linker_4, # of connection points: 2
#     Edge 37, Type (0, 0), BuildingBlock: EYOCIG_clean_linker_4, # of connection points: 2
#     Edge 38, Type (0, 0), BuildingBlock: EYOCIG_clean_linker_4, # of connection points: 2
#     Edge 39, Type (0, 0), BuildingBlock: EYOCIG_clean_linker_4, # of connection points: 2
#     Edge 40, Type (0, 0), BuildingBlock: EYOCIG_clean_linker_4, # of connection points: 2
#     Edge 41, Type (0, 0), BuildingBlock: EYOCIG_clean_linker_4, # of connection points: 2
#     Edge 42, Type (0, 0), BuildingBlock: EYOCIG_clean_linker_4, # of connection points: 2
#     Edge 43, Type (0, 0), BuildingBlock: EYOCIG_clean_linker_4, # of connection points: 2
#     Edge 44, Type (0, 0), BuildingBlock: EYOCIG_clean_linker_4, # of connection points: 2
#     Edge 45, Type (0, 0), BuildingBlock: EYOCIG_clean_linker_4, # of connection points: 2
#     Edge 46, Type (0, 0), BuildingBlock: EYOCIG_clean_linker_4, # of connection points: 2
#     Edge 47, Type (0, 0), BuildingBlock: EYOCIG_clean_linker_4, # of connection points: 2
# Relax obj value: 0.190
# Max RMSD: 0.157
# Mean RMSD: 0.157
data_MOF--net-umz--node1-TATPOV_clean_sbu_0--edge1-EYOCIG_clean_linker_4
_symmetry_space_group_name_H-M    P1
_symmetry_Int_Tables_number       1
_symmetry_cell_setting            triclinic
loop_
_symmetry_equiv_pos_as_xyz
'x, y, z'
_cell_length_a     47.341006
_cell_length_b     47.3677
_cell_length_c     19.793202
_cell_angle_alpha  90.001571
_cell_angle_beta   90.031236
_cell_angle_gamma 89.964329
loop_
_atom_site_label
_atom_site_type_symbol
_atom_site_fract_x
_atom_site_fract_y
_atom_site_fract_z
_atom_type_partial_charge
Zn0 Zn 0.0173 0.57726 0.01439 0.0
Zn1 Zn 0.02274 0.63251 0.02274 0.0
O2 O 0.98254 0.62385 0.06046 0.0
O3 O 0.97701 0.57805 0.0461 0.0
O4 O 0.02392 0.67456 0.00526 0.0
O5 O 0.02979 0.57378 0.91777 0.0
O6 O 0.03711 0.61935 -0.07055 0.0
C7 C 0.96782 0.60149 0.06733 0.0
C8 C 0.05774 0.59774 0.11572 0.0
O9 O 0.05137 0.62263 0.09657 0.0
O10 O 0.04665 0.57628 0.0884 0.0
C11 C 0.00369 0.69171 0.0147 0.0
O12 O 0.98075 0.68347 0.04614 0.0
C13 C 0.03889 0.59688 0.89465 0.0
Zn14 Zn 0.92869 0.01721 0.51268 0.0
Zn15 Zn 0.87331 0.02269 0.52115 0.0
O16 O 0.88202 0.9825 0.5587 0.0
O17 O 0.92784 0.97693 0.54433 0.0
O18 O 0.83122 0.02394 0.50382 0.0
O19 O 0.93201 0.02969 0.41602 0.0
O20 O 0.8864 0.03698 0.42783 0.0
C21 C 0.90438 0.96776 0.56548 0.0
C22 C 0.90821 0.05762 0.61404 0.0
O23 O 0.88329 0.05126 0.59494 0.0
O24 O 0.92968 0.04653 0.58668 0.0
C25 C 0.81428 0.00344 0.51163 0.0
O26 O 0.82277 0.98018 0.54131 0.0
C27 C 0.90885 0.03876 0.39295 0.0
Zn28 Zn 0.48882 0.92814 0.01236 0.0
Zn29 Zn 0.48326 0.87291 0.02074 0.0
O30 O 0.52354 0.88136 0.05842 0.0
O31 O 0.52909 0.92717 0.04431 0.0
O32 O 0.48194 0.83091 0.00285 0.0
O33 O 0.47641 0.93166 0.91565 0.0
O34 O 0.46896 0.88612 0.92749 0.0
C35 C 0.53827 0.90371 0.06543 0.0
C36 C 0.44834 0.9078 0.11363 0.0
O37 O 0.45469 0.88288 0.09459 0.0
O38 O 0.45944 0.92923 0.08623 0.0
C39 C 0.50135 0.81322 0.01571 0.0
O40 O 0.52348 0.82081 0.05119 0.0
C41 C 0.46725 0.90857 0.89258 0.0
Zn42 Zn 0.57712 0.48788 0.51382 0.0
Zn43 Zn 0.63248 0.48204 0.52317 0.0
O44 O 0.6238 0.52208 0.56167 0.0
O45 O 0.57808 0.52805 0.54636 0.0
O46 O 0.67469 0.48066 0.50704 0.0
O47 O 0.57407 0.47579 0.41684 0.0
O48 O 0.61963 0.46827 0.42905 0.0
C49 C 0.60152 0.53696 0.56827 0.0
C50 C 0.59701 0.44694 0.61458 0.0
O51 O 0.62202 0.45318 0.596 0.0
O52 O 0.57569 0.45828 0.5871 0.0
C53 C 0.69101 0.50187 0.51073 0.0
O54 O 0.68171 0.52586 0.53524 0.0
C55 C 0.59724 0.46676 0.39381 0.0
Zn56 Zn 0.0173 0.92866 0.84424 0.0
Zn57 Zn 0.02281 0.87324 0.83478 0.0
O58 O 0.98296 0.88162 0.79557 0.0
O59 O 0.97709 0.92729 0.8115 0.0
O60 O 0.0242 0.83109 0.8525 0.0
O61 O 0.02924 0.93287 -0.05886 0.0
O62 O 0.03619 0.88725 0.92836 0.0
C63 C 0.96814 0.90392 0.78921 0.0
C64 C 0.05821 0.90818 0.74337 0.0
O65 O 0.05174 0.88323 0.76181 0.0
O66 O 0.04704 0.92956 0.77094 0.0
C67 C 0.00339 0.81437 0.84626 0.0
O68 O 0.97977 0.82319 0.81877 0.0
C69 C 0.03796 0.90954 -0.03608 0.0
Zn70 Zn 0.57746 0.01668 0.34409 0.0
Zn71 Zn 0.63271 0.02265 0.33406 0.0
O72 O 0.62418 0.98251 0.29592 0.0
O73 O 0.5785 0.97649 0.3116 0.0
O74 O 0.6749 0.02415 0.35 0.0
O75 O 0.57459 0.02879 0.44116 0.0
O76 O 0.62007 0.0365 0.42825 0.0
C77 C 0.60193 0.96759 0.28952 0.0
C78 C 0.59691 0.05762 0.24286 0.0
O79 O 0.62198 0.05142 0.26113 0.0
O80 O 0.57569 0.04625 0.27065 0.0
C81 C 0.69185 0.00364 0.34199 0.0
O82 O 0.68325 0.98032 0.3128 0.0
C83 C 0.59777 0.03795 0.46382 0.0
Zn84 Zn 0.48848 0.5769 0.84506 0.0
Zn85 Zn 0.48278 0.63218 0.83539 0.0
O86 O 0.52301 0.6235 0.79789 0.0
O87 O 0.52877 0.57778 0.81332 0.0
O88 O 0.48136 0.67433 0.85182 0.0
O89 O 0.47607 0.57389 -0.05817 0.0
O90 O 0.46861 0.6194 -0.07087 0.0
C91 C 0.53784 0.60117 0.79159 0.0
C92 C 0.44792 0.59677 0.74328 0.0
O93 O 0.45418 0.62177 0.76185 0.0
O94 O 0.45912 0.57546 0.7711 0.0
C95 C 0.50202 0.69116 0.84488 0.0
O96 O 0.5255 0.6825 0.81648 0.0
C97 C 0.46694 0.59708 -0.03552 0.0
Zn98 Zn 0.92824 0.48821 0.3442 0.0
Zn99 Zn 0.87295 0.48255 0.33456 0.0
O100 O 0.88161 0.52277 0.2971 0.0
O101 O 0.92734 0.5285 0.31251 0.0
O102 O 0.83078 0.48116 0.35086 0.0
O103 O 0.93129 0.47572 0.44095 0.0
O104 O 0.88575 0.46828 0.42824 0.0
C105 C 0.90393 0.53758 0.29077 0.0
C106 C 0.90834 0.44774 0.24235 0.0
O107 O 0.88334 0.454 0.26096 0.0
O108 O 0.92967 0.4589 0.27017 0.0
C109 C 0.81384 0.50169 0.34309 0.0
O110 O 0.82241 0.52506 0.31414 0.0
C111 C 0.90811 0.46658 0.46358 0.0
Zn112 Zn 0.98823 0.42806 0.84264 0.0
Zn113 Zn 0.98261 0.3728 0.83459 0.0
O114 O 0.02283 0.38117 0.79643 0.0
O115 O 0.02841 0.427 0.81022 0.0
O116 O 0.9812 0.33081 0.85286 0.0
O117 O 0.97611 0.43169 -0.06048 0.0
O118 O 0.9686 0.38615 0.92802 0.0
C119 C 0.03755 0.40351 0.78918 0.0
C120 C 0.94743 0.4077 0.74204 0.0
O121 O 0.95382 0.38279 0.76106 0.0
O122 O 0.95863 0.42914 0.76921 0.0
C123 C 1.00083 0.31319 0.84154 0.0
O124 O 0.02327 0.3208 0.80725 0.0
C125 C 0.96702 0.40862 -0.03716 0.0
Zn126 Zn 0.07727 0.98801 0.34426 0.0
Zn127 Zn 0.13252 0.98216 0.33496 0.0
O128 O 0.12411 0.02239 0.29692 0.0
O129 O 0.07834 0.0282 0.31178 0.0
O130 O 0.17461 0.98061 0.3523 0.0
O131 O 0.07409 0.97592 0.44133 0.0
O132 O 0.11958 0.96824 0.42877 0.0
C133 C 0.10178 0.03721 0.29015 0.0
C134 C 0.0971 0.94712 0.24315 0.0
O135 O 0.12212 0.95342 0.26167 0.0
O136 O 0.07579 0.95842 0.27075 0.0
C137 C 0.19219 1.00026 0.34091 0.0
O138 O 0.18444 0.02276 0.307 0.0
C139 C 0.09725 0.96675 0.46415 0.0
Zn140 Zn 0.51723 0.07687 0.84341 0.0
Zn141 Zn 0.52308 0.13219 0.83384 0.0
O142 O 0.48299 0.12356 0.7953 0.0
O143 O 0.47704 0.07789 0.81076 0.0
O144 O 0.52453 0.1744 0.84972 0.0
O145 O 0.52928 0.07394 -0.05949 0.0
O146 O 0.5368 0.11945 0.92812 0.0
C147 C 0.46811 0.10131 0.78876 0.0
C148 C 0.55828 0.09656 0.74272 0.0
O149 O 0.552 0.12158 0.76115 0.0
O150 O 0.54689 0.07529 0.77019 0.0
C151 C 0.50331 0.19074 0.84616 0.0
O152 O 0.47924 0.18147 0.82198 0.0
C153 C 0.5383 0.0971 -0.03652 0.0
Zn154 Zn 0.42842 0.51688 0.34354 0.0
Zn155 Zn 0.3731 0.52269 0.33516 0.0
O156 O 0.38143 0.48246 0.29689 0.0
O157 O 0.42726 0.47672 0.31097 0.0
O158 O 0.33106 0.52425 0.35307 0.0
O159 O 0.43193 0.52895 0.44051 0.0
O160 O 0.38638 0.53659 0.42874 0.0
C161 C 0.40376 0.46768 0.28973 0.0
C162 C 0.4082 0.55778 0.24299 0.0
O163 O 0.38325 0.55146 0.26185 0.0
O164 O 0.42961 0.5465 0.27021 0.0
C165 C 0.31352 0.5045 0.34231 0.0
O166 O 0.32127 0.48189 0.30885 0.0
C167 C 0.40884 0.53809 0.46372 0.0
Zn168 Zn 0.98843 0.07696 0.01312 0.0
Zn169 Zn 0.98296 0.1322 0.02129 0.0
O170 O 0.02324 0.1237 0.05918 0.0
O171 O 0.02867 0.07785 0.04525 0.0
O172 O 0.98163 0.17415 0.00277 0.0
O173 O 0.97609 0.07333 0.91637 0.0
O174 O 0.96869 0.11889 0.92811 0.0
C175 C 0.0379 0.10129 0.06633 0.0
C176 C 0.9479 0.09751 0.11415 0.0
O177 O 0.95432 0.12239 0.09508 0.0
O178 O 0.95898 0.07602 0.08685 0.0
C179 C 1.00075 0.19205 0.01622 0.0
O180 O 0.02265 0.18476 0.05292 0.0
C181 C 0.96697 0.09644 0.89325 0.0
Zn182 Zn 0.42878 0.98817 0.51257 0.0
Zn183 Zn 0.37348 0.98254 0.52055 0.0
O184 O 0.38177 0.02285 0.55815 0.0
O185 O 0.42764 0.0284 0.54452 0.0
O186 O 0.3315 0.98106 0.50212 0.0
O187 O 0.43243 0.97582 0.41586 0.0
O188 O 0.38687 0.96831 0.42743 0.0
C189 C 0.40412 0.03758 0.56532 0.0
C190 C 0.40837 0.94766 0.61367 0.0
O191 O 0.38345 0.954 0.59451 0.0
O192 O 0.42983 0.95878 0.58639 0.0
C193 C 0.31364 1.00034 0.51476 0.0
O194 O 0.32101 0.02246 0.55049 0.0
C195 C 0.40935 0.96664 0.39266 0.0
Zn196 Zn 0.51708 0.42747 0.01263 0.0
Zn197 Zn 0.52301 0.37213 0.0231 0.0
O198 O 0.48262 0.38123 0.06004 0.0
O199 O 0.47681 0.42693 0.04446 0.0
O200 O 0.52437 0.32993 0.0088 0.0
O201 O 0.52959 0.42885 0.91562 0.0
O202 O 0.53754 0.38347 0.92869 0.0
C203 C 0.46775 0.40355 0.06631 0.0
C204 C 0.55775 0.40822 0.11446 0.0
O205 O 0.55162 0.38315 0.09616 0.0
O206 O 0.54641 0.42942 0.08652 0.0
C207 C 0.50333 0.31348 0.01389 0.0
O208 O 0.4795 0.32263 0.0396 0.0
C209 C 0.53895 0.40574 0.89314 0.0
Zn210 Zn 0.07712 0.51726 0.51441 0.0
Zn211 Zn 0.13245 0.52266 0.52254 0.0
O212 O 0.12401 0.48233 0.55977 0.0
O213 O 0.07812 0.47697 0.54601 0.0
O214 O 0.17444 0.52403 0.50411 0.0
O215 O 0.07351 0.52976 0.41779 0.0
O216 O 0.1191 0.53707 0.42951 0.0
C217 C 0.1016 0.46767 0.56677 0.0
C218 C 0.09769 0.55757 0.61587 0.0
O219 O 0.12258 0.55116 0.59671 0.0
O220 O 0.07619 0.54657 0.58845 0.0
C221 C 0.19224 0.50467 0.51654 0.0
O222 O 0.18482 0.48252 0.5521 0.0
C223 C 0.09662 0.53887 0.3947 0.0
C224 C 0.00455 0.7403 -0.05093 0.0
C225 C 0.00386 0.7182 -0.02069 0.0
C226 C 0.00458 0.76561 0.91118 0.0
C227 C 0.0039 0.78784 0.88145 0.0
C228 C 0.74051 0.00462 0.40744 0.0
C229 C 0.71835 0.00395 0.37738 0.0
C230 C 0.76575 0.00453 0.44561 0.0
C231 C 0.78785 0.00378 0.47596 0.0
C232 C 0.50081 0.76477 -0.05049 0.0
C233 C 0.50146 0.78677 -0.01981 0.0
C234 C 0.50086 0.73963 0.91099 0.0
C235 C 0.5016 0.71756 0.88064 0.0
C236 C 0.73972 0.50046 0.44564 0.0
C237 C 0.7175 0.50117 0.47539 0.0
C238 C 0.76507 0.50048 0.40797 0.0
C239 C 0.78729 0.50124 0.37818 0.0
C240 C 1.00018 0.26508 0.90923 0.0
C241 C 1.00085 0.28693 0.87793 0.0
C242 C 1.00021 0.2402 -0.0513 0.0
C243 C 1.00092 0.21836 -0.01992 0.0
C244 C 0.26543 0.99961 0.44735 0.0
C245 C 0.28731 1.00036 0.47861 0.0
C246 C 0.24047 0.99956 0.40809 0.0
C247 C 0.21853 1.00024 0.37704 0.0
C248 C 0.50484 0.23949 0.91101 0.0
C249 C 0.5041 0.21725 0.88139 0.0
C250 C 0.50476 0.26483 -0.05131 0.0
C251 C 0.50394 0.287 -0.02143 0.0
C252 C 0.26533 0.50532 0.40974 0.0
C253 C 0.28723 0.5046 0.3786 0.0
C254 C 0.2404 0.50531 0.44905 0.0
C255 C 0.21854 0.5046 0.48033 0.0
C256 C 0.06778 0.59429 0.78106 0.0
C257 C 0.05482 0.59692 0.83303 0.0
C258 C 0.08295 0.58627 0.72288 0.0
C259 C 0.09305 0.57423 0.67509 0.0
C260 C 0.91917 0.08275 0.22104 0.0
C261 C 0.93121 0.09286 0.17329 0.0
C262 C 0.91124 0.06758 0.27926 0.0
C263 C 0.90871 0.05464 0.33128 0.0
C264 C 0.4384 0.91104 0.77886 0.0
C265 C 0.45135 0.9085 0.8309 0.0
C266 C 0.42321 0.91896 0.72061 0.0
C267 C 0.41307 0.93098 0.67283 0.0
C268 C 0.5866 0.42351 0.22096 0.0
C269 C 0.57446 0.41333 0.1734 0.0
C270 C 0.59473 0.43851 0.27932 0.0
C271 C 0.59739 0.45117 0.33171 0.0
C272 C 0.08185 0.91837 0.13658 0.0
C273 C 0.09215 0.93038 0.18417 0.0
C274 C 0.06656 0.91086 0.07815 0.0
C275 C 0.05369 0.90893 0.02584 0.0
C276 C 0.58736 0.08137 0.63654 0.0
C277 C 0.57515 0.09156 0.68398 0.0
C278 C 0.59547 0.06632 0.57822 0.0
C279 C 0.59804 0.05361 0.52585 0.0
C280 C 0.42312 0.58678 0.13659 0.0
C281 C 0.41298 0.57463 0.18414 0.0
C282 C 0.43825 0.59481 0.07838 0.0
C283 C 0.45112 0.59735 0.02624 0.0
C284 C 0.91845 0.42256 0.63548 0.0
C285 C 0.93059 0.41241 0.68309 0.0
C286 C 0.91042 0.43774 0.5773 0.0
C287 C 0.90788 0.45068 0.52524 0.0
C288 C 0.93852 0.41121 0.07701 0.0
C289 C 0.95131 0.40862 0.02478 0.0
C290 C 0.92344 0.41916 0.13537 0.0
C291 C 0.91327 0.43116 0.18313 0.0
C292 C 0.08709 0.92318 0.63679 0.0
C293 C 0.07497 0.91302 0.68439 0.0
C294 C 0.09503 0.93827 0.57841 0.0
C295 C 0.09748 0.95104 0.52611 0.0
C296 C 0.58156 0.08655 0.1365 0.0
C297 C 0.59178 0.07439 0.184 0.0
C298 C 0.56654 0.09467 0.07811 0.0
C299 C 0.55388 0.0973 0.02566 0.0
C300 C 0.41137 0.56655 0.57796 0.0
C301 C 0.40881 0.55378 0.52569 0.0
C302 C 0.41931 0.58164 0.63634 0.0
C303 C 0.43131 0.59183 0.68408 0.0
C304 C 0.923 0.08622 0.72112 0.0
C305 C 0.91288 0.07424 0.67328 0.0
C306 C 0.93817 0.09407 0.77944 0.0
C307 C 0.9511 0.09654 0.83152 0.0
C308 C 0.41187 0.93785 0.27892 0.0
C309 C 0.40934 0.95078 0.33097 0.0
C310 C 0.41974 0.92266 0.22066 0.0
C311 C 0.43172 0.91251 0.17286 0.0
C312 C 0.56721 0.40893 0.77883 0.0
C313 C 0.55461 0.40567 0.83112 0.0
C314 C 0.58202 0.41771 0.72072 0.0
C315 C 0.59206 0.43005 0.6733 0.0
C316 C 0.09422 0.56776 0.2811 0.0
C317 C 0.0967 0.55478 0.33309 0.0
C318 C 0.08637 0.58296 0.22283 0.0
C319 C 0.07439 0.59309 0.17498 0.0
C320 C 0.91148 0.57896 0.20431 0.0
C321 C 0.90451 0.56061 0.24329 0.0
C322 C 0.92646 0.59398 0.15385 0.0
C323 C 0.94478 0.60097 0.11478 0.0
C324 C 0.91186 0.92635 0.6518 0.0
C325 C 0.90489 0.9447 0.61281 0.0
C326 C 0.92687 0.91142 0.70234 0.0
C327 C 0.94523 0.90455 0.74145 0.0
C328 C 0.5796 0.91125 0.15208 0.0
C329 C 0.56132 0.9042 0.11294 0.0
C330 C 0.59451 0.92631 0.20264 0.0
C331 C 0.60139 0.94466 0.24177 0.0
C332 C 0.59416 0.57833 0.65488 0.0
C333 C 0.60103 0.55995 0.61586 0.0
C334 C 0.57923 0.59346 0.70524 0.0
C335 C 0.56089 0.60055 0.74416 0.0
C336 C 0.09403 0.42606 0.65255 0.0
C337 C 0.10111 0.44446 0.61378 0.0
C338 C 0.07896 0.41098 0.70277 0.0
C339 C 0.06063 0.40395 0.74178 0.0
C340 C 0.07925 0.09361 0.15295 0.0
C341 C 0.06096 0.10072 0.11383 0.0
C342 C 0.09423 0.07852 0.20341 0.0
C343 C 0.10123 0.0602 0.24252 0.0
C344 C 0.4116 0.07898 0.65165 0.0
C345 C 0.40453 0.06068 0.61262 0.0
C346 C 0.42672 0.09391 0.70207 0.0
C347 C 0.44511 0.10079 0.74111 0.0
C348 C 0.42632 0.41129 0.15274 0.0
C349 C 0.44469 0.40421 0.11381 0.0
C350 C 0.41124 0.42634 0.20308 0.0
C351 C 0.4042 0.44464 0.24219 0.0
loop_
_geom_bond_atom_site_label_1
_geom_bond_atom_site_label_2
_geom_bond_distance
_geom_bond_site_symmetry_2
_ccdc_geom_bond_type
Zn0 O3 2.031 1_455 S
Zn0 O5 2.049 1_554 S
Zn0 O10 2.067 . S
Zn1 O2 1.962 1_455 S
Zn1 O4 1.986 . S
Zn1 O6 1.996 1_554 S
Zn1 O9 1.943 . S
O2 Zn1 1.962 1_655 S
O2 C7 1.254 . S
O3 Zn0 2.031 1_655 S
O3 C7 1.269 . S
O4 Zn1 1.986 . S
O4 C11 1.262 . S
O5 Zn0 2.049 1_556 S
O5 C13 1.260 . S
O6 Zn1 1.996 1_556 S
O6 C13 1.257 . S
C7 O2 1.254 . S
C7 O3 1.269 . S
C8 O9 1.249 . S
C8 O10 1.270 . S
O9 Zn1 1.943 . S
O9 C8 1.249 . S
O10 Zn0 2.067 . S
O10 C8 1.270 . S
C11 O4 1.262 . S
C11 O12 1.226 1_455 S
O12 C11 1.226 1_655 S
C13 O5 1.260 . S
C13 O6 1.257 . S
Zn14 O17 2.031 1_545 S
Zn14 O19 2.049 . S
Zn14 O24 2.067 . S
Zn15 O16 1.962 1_545 S
Zn15 O18 1.986 . S
Zn15 O20 1.996 . S
Zn15 O23 1.943 . S
O16 Zn15 1.962 1_565 S
O16 C21 1.254 . S
O17 Zn14 2.031 1_565 S
O17 C21 1.269 . S
O18 Zn15 1.986 . S
O18 C25 1.262 . S
O19 Zn14 2.049 . S
O19 C27 1.260 . S
O20 Zn15 1.996 . S
O20 C27 1.257 . S
C21 O16 1.254 . S
C21 O17 1.269 . S
C22 O23 1.249 . S
C22 O24 1.270 . S
O23 Zn15 1.943 . S
O23 C22 1.249 . S
O24 Zn14 2.067 . S
O24 C22 1.270 . S
C25 O18 1.262 . S
C25 O26 1.225 1_545 S
O26 C25 1.225 1_565 S
C27 O19 1.260 . S
C27 O20 1.257 . S
Zn28 O31 2.031 . S
Zn28 O33 2.049 1_554 S
Zn28 O38 2.067 . S
Zn29 O30 1.962 . S
Zn29 O32 1.986 . S
Zn29 O34 1.996 1_554 S
Zn29 O37 1.943 . S
O30 Zn29 1.962 . S
O30 C35 1.254 . S
O31 Zn28 2.031 . S
O31 C35 1.269 . S
O32 Zn29 1.986 . S
O32 C39 1.262 . S
O33 Zn28 2.049 1_556 S
O33 C41 1.260 . S
O34 Zn29 1.996 1_556 S
O34 C41 1.257 . S
C35 O30 1.254 . S
C35 O31 1.269 . S
C36 O37 1.249 . S
C36 O38 1.270 . S
O37 Zn29 1.943 . S
O37 C36 1.249 . S
O38 Zn28 2.067 . S
O38 C36 1.270 . S
C39 O32 1.262 . S
C39 O40 1.232 . S
O40 C39 1.232 . S
C41 O33 1.260 . S
C41 O34 1.257 . S
Zn42 O45 2.031 . S
Zn42 O47 2.049 . S
Zn42 O52 2.067 . S
Zn43 O44 1.962 . S
Zn43 O46 1.986 . S
Zn43 O48 1.996 . S
Zn43 O51 1.943 . S
O44 Zn43 1.962 . S
O44 C49 1.254 . S
O45 Zn42 2.031 . S
O45 C49 1.269 . S
O46 Zn43 1.986 . S
O46 C53 1.262 . S
O47 Zn42 2.049 . S
O47 C55 1.260 . S
O48 Zn43 1.996 . S
O48 C55 1.257 . S
C49 O44 1.254 . S
C49 O45 1.269 . S
C50 O51 1.249 . S
C50 O52 1.270 . S
O51 Zn43 1.943 . S
O51 C50 1.249 . S
O52 Zn42 2.067 . S
O52 C50 1.270 . S
C53 O46 1.262 . S
C53 O54 1.232 . S
O54 C53 1.232 . S
C55 O47 1.260 . S
C55 O48 1.257 . S
Zn56 O59 2.031 1_455 S
Zn56 O61 2.049 1_556 S
Zn56 O66 2.067 . S
Zn57 O58 1.962 1_455 S
Zn57 O60 1.986 . S
Zn57 O62 1.996 1_556 S
Zn57 O65 1.943 . S
O58 Zn57 1.962 1_655 S
O58 C63 1.254 . S
O59 Zn56 2.031 1_655 S
O59 C63 1.269 . S
O60 Zn57 1.986 . S
O60 C67 1.262 . S
O61 Zn56 2.049 1_554 S
O61 C69 1.260 . S
O62 Zn57 1.996 1_554 S
O62 C69 1.257 . S
C63 O58 1.254 . S
C63 O59 1.269 . S
C64 O65 1.249 . S
C64 O66 1.270 . S
O65 Zn57 1.943 . S
O65 C64 1.249 . S
O66 Zn56 2.067 . S
O66 C64 1.270 . S
C67 O60 1.262 . S
C67 O68 1.225 1_455 S
O68 C67 1.225 1_655 S
C69 O61 1.260 . S
C69 O62 1.257 . S
Zn70 O73 2.031 1_545 S
Zn70 O75 2.049 . S
Zn70 O80 2.067 . S
Zn71 O72 1.962 1_545 S
Zn71 O74 1.986 . S
Zn71 O76 1.996 . S
Zn71 O79 1.943 . S
O72 Zn71 1.962 1_565 S
O72 C77 1.254 . S
O73 Zn70 2.031 1_565 S
O73 C77 1.269 . S
O74 Zn71 1.986 . S
O74 C81 1.262 . S
O75 Zn70 2.049 . S
O75 C83 1.260 . S
O76 Zn71 1.996 . S
O76 C83 1.257 . S
C77 O72 1.254 . S
C77 O73 1.269 . S
C78 O79 1.249 . S
C78 O80 1.270 . S
O79 Zn71 1.943 . S
O79 C78 1.249 . S
O80 Zn70 2.067 . S
O80 C78 1.270 . S
C81 O74 1.262 . S
C81 O82 1.225 1_545 S
O82 C81 1.225 1_565 S
C83 O75 1.260 . S
C83 O76 1.257 . S
Zn84 O87 2.031 . S
Zn84 O89 2.049 1_556 S
Zn84 O94 2.067 . S
Zn85 O86 1.962 . S
Zn85 O88 1.986 . S
Zn85 O90 1.996 1_556 S
Zn85 O93 1.943 . S
O86 Zn85 1.962 . S
O86 C91 1.254 . S
O87 Zn84 2.031 . S
O87 C91 1.269 . S
O88 Zn85 1.986 . S
O88 C95 1.262 . S
O89 Zn84 2.049 1_554 S
O89 C97 1.260 . S
O90 Zn85 1.996 1_554 S
O90 C97 1.257 . S
C91 O86 1.254 . S
C91 O87 1.269 . S
C92 O93 1.249 . S
C92 O94 1.270 . S
O93 Zn85 1.943 . S
O93 C92 1.249 . S
O94 Zn84 2.067 . S
O94 C92 1.270 . S
C95 O88 1.262 . S
C95 O96 1.232 . S
O96 C95 1.232 . S
C97 O89 1.260 . S
C97 O90 1.257 . S
Zn98 O101 2.031 . S
Zn98 O103 2.049 . S
Zn98 O108 2.067 . S
Zn99 O100 1.962 . S
Zn99 O102 1.986 . S
Zn99 O104 1.996 . S
Zn99 O107 1.943 . S
O100 Zn99 1.962 . S
O100 C105 1.254 . S
O101 Zn98 2.031 . S
O101 C105 1.269 . S
O102 Zn99 1.986 . S
O102 C109 1.262 . S
O103 Zn98 2.049 . S
O103 C111 1.260 . S
O104 Zn99 1.996 . S
O104 C111 1.257 . S
C105 O100 1.254 . S
C105 O101 1.269 . S
C106 O107 1.249 . S
C106 O108 1.270 . S
O107 Zn99 1.943 . S
O107 C106 1.249 . S
O108 Zn98 2.067 . S
O108 C106 1.270 . S
C109 O102 1.262 . S
C109 O110 1.232 . S
O110 C109 1.232 . S
C111 O103 1.260 . S
C111 O104 1.257 . S
Zn112 O115 2.031 1_655 S
Zn112 O117 2.049 1_556 S
Zn112 O122 2.067 . S
Zn113 O114 1.962 1_655 S
Zn113 O116 1.986 . S
Zn113 O118 1.996 1_556 S
Zn113 O121 1.943 . S
O114 Zn113 1.962 1_455 S
O114 C119 1.254 . S
O115 Zn112 2.031 1_455 S
O115 C119 1.269 . S
O116 Zn113 1.986 . S
O116 C123 1.262 . S
O117 Zn112 2.049 1_554 S
O117 C125 1.260 . S
O118 Zn113 1.996 1_554 S
O118 C125 1.257 . S
C119 O114 1.254 . S
C119 O115 1.269 . S
C120 O121 1.249 . S
C120 O122 1.270 . S
O121 Zn113 1.943 . S
O121 C120 1.249 . S
O122 Zn112 2.067 . S
O122 C120 1.270 . S
C123 O116 1.262 . S
C123 O124 1.226 1_655 S
O124 C123 1.226 1_455 S
C125 O117 1.260 . S
C125 O118 1.257 . S
Zn126 O129 2.031 1_565 S
Zn126 O131 2.049 . S
Zn126 O136 2.067 . S
Zn127 O128 1.962 1_565 S
Zn127 O130 1.986 . S
Zn127 O132 1.996 . S
Zn127 O135 1.943 . S
O128 Zn127 1.962 1_545 S
O128 C133 1.254 . S
O129 Zn126 2.031 1_545 S
O129 C133 1.269 . S
O130 Zn127 1.986 . S
O130 C137 1.262 . S
O131 Zn126 2.049 . S
O131 C139 1.260 . S
O132 Zn127 1.996 . S
O132 C139 1.257 . S
C133 O128 1.254 . S
C133 O129 1.269 . S
C134 O135 1.249 . S
C134 O136 1.270 . S
O135 Zn127 1.943 . S
O135 C134 1.249 . S
O136 Zn126 2.067 . S
O136 C134 1.270 . S
C137 O130 1.262 . S
C137 O138 1.225 1_565 S
O138 C137 1.225 1_545 S
C139 O131 1.260 . S
C139 O132 1.257 . S
Zn140 O143 2.031 . S
Zn140 O145 2.049 1_556 S
Zn140 O150 2.067 . S
Zn141 O142 1.962 . S
Zn141 O144 1.986 . S
Zn141 O146 1.996 1_556 S
Zn141 O149 1.943 . S
O142 Zn141 1.962 . S
O142 C147 1.254 . S
O143 Zn140 2.031 . S
O143 C147 1.269 . S
O144 Zn141 1.986 . S
O144 C151 1.262 . S
O145 Zn140 2.049 1_554 S
O145 C153 1.260 . S
O146 Zn141 1.996 1_554 S
O146 C153 1.257 . S
C147 O142 1.254 . S
C147 O143 1.269 . S
C148 O149 1.249 . S
C148 O150 1.270 . S
O149 Zn141 1.943 . S
O149 C148 1.249 . S
O150 Zn140 2.067 . S
O150 C148 1.270 . S
C151 O144 1.262 . S
C151 O152 1.232 . S
O152 C151 1.232 . S
C153 O145 1.260 . S
C153 O146 1.257 . S
Zn154 O157 2.031 . S
Zn154 O159 2.049 . S
Zn154 O164 2.067 . S
Zn155 O156 1.962 . S
Zn155 O158 1.986 . S
Zn155 O160 1.996 . S
Zn155 O163 1.943 . S
O156 Zn155 1.962 . S
O156 C161 1.254 . S
O157 Zn154 2.031 . S
O157 C161 1.269 . S
O158 Zn155 1.986 . S
O158 C165 1.262 . S
O159 Zn154 2.049 . S
O159 C167 1.260 . S
O160 Zn155 1.996 . S
O160 C167 1.257 . S
C161 O156 1.254 . S
C161 O157 1.269 . S
C162 O163 1.249 . S
C162 O164 1.270 . S
O163 Zn155 1.943 . S
O163 C162 1.249 . S
O164 Zn154 2.067 . S
O164 C162 1.270 . S
C165 O158 1.262 . S
C165 O166 1.232 . S
O166 C165 1.232 . S
C167 O159 1.260 . S
C167 O160 1.257 . S
Zn168 O171 2.031 1_655 S
Zn168 O173 2.049 1_554 S
Zn168 O178 2.067 . S
Zn169 O170 1.962 1_655 S
Zn169 O172 1.986 . S
Zn169 O174 1.996 1_554 S
Zn169 O177 1.943 . S
O170 Zn169 1.962 1_455 S
O170 C175 1.254 . S
O171 Zn168 2.031 1_455 S
O171 C175 1.269 . S
O172 Zn169 1.986 . S
O172 C179 1.262 . S
O173 Zn168 2.049 1_556 S
O173 C181 1.260 . S
O174 Zn169 1.996 1_556 S
O174 C181 1.257 . S
C175 O170 1.254 . S
C175 O171 1.269 . S
C176 O177 1.249 . S
C176 O178 1.270 . S
O177 Zn169 1.943 . S
O177 C176 1.249 . S
O178 Zn168 2.067 . S
O178 C176 1.270 . S
C179 O172 1.262 . S
C179 O180 1.225 1_655 S
O180 C179 1.225 1_455 S
C181 O173 1.260 . S
C181 O174 1.257 . S
Zn182 O185 2.031 1_565 S
Zn182 O187 2.049 . S
Zn182 O192 2.067 . S
Zn183 O184 1.962 1_565 S
Zn183 O186 1.986 . S
Zn183 O188 1.996 . S
Zn183 O191 1.943 . S
O184 Zn183 1.962 1_545 S
O184 C189 1.254 . S
O185 Zn182 2.031 1_545 S
O185 C189 1.269 . S
O186 Zn183 1.986 . S
O186 C193 1.262 . S
O187 Zn182 2.049 . S
O187 C195 1.260 . S
O188 Zn183 1.996 . S
O188 C195 1.257 . S
C189 O184 1.254 . S
C189 O185 1.269 . S
C190 O191 1.249 . S
C190 O192 1.270 . S
O191 Zn183 1.943 . S
O191 C190 1.249 . S
O192 Zn182 2.067 . S
O192 C190 1.270 . S
C193 O186 1.262 . S
C193 O194 1.226 1_565 S
O194 C193 1.226 1_545 S
C195 O187 1.260 . S
C195 O188 1.257 . S
Zn196 O199 2.031 . S
Zn196 O201 2.049 1_554 S
Zn196 O206 2.067 . S
Zn197 O198 1.962 . S
Zn197 O200 1.986 . S
Zn197 O202 1.996 1_554 S
Zn197 O205 1.943 . S
O198 Zn197 1.962 . S
O198 C203 1.254 . S
O199 Zn196 2.031 . S
O199 C203 1.269 . S
O200 Zn197 1.986 . S
O200 C207 1.262 . S
O201 Zn196 2.049 1_556 S
O201 C209 1.260 . S
O202 Zn197 1.996 1_556 S
O202 C209 1.257 . S
C203 O198 1.254 . S
C203 O199 1.269 . S
C204 O205 1.249 . S
C204 O206 1.270 . S
O205 Zn197 1.943 . S
O205 C204 1.249 . S
O206 Zn196 2.067 . S
O206 C204 1.270 . S
C207 O200 1.262 . S
C207 O208 1.232 . S
O208 C207 1.232 . S
C209 O201 1.260 . S
C209 O202 1.257 . S
Zn210 O213 2.031 . S
Zn210 O215 2.049 . S
Zn210 O220 2.067 . S
Zn211 O212 1.962 . S
Zn211 O214 1.986 . S
Zn211 O216 1.996 . S
Zn211 O219 1.943 . S
O212 Zn211 1.962 . S
O212 C217 1.254 . S
O213 Zn210 2.031 . S
O213 C217 1.269 . S
O214 Zn211 1.986 . S
O214 C221 1.262 . S
O215 Zn210 2.049 . S
O215 C223 1.260 . S
O216 Zn211 1.996 . S
O216 C223 1.257 . S
C217 O212 1.254 . S
C217 O213 1.269 . S
C218 O219 1.249 . S
C218 O220 1.270 . S
O219 Zn211 1.943 . S
O219 C218 1.249 . S
O220 Zn210 2.067 . S
O220 C218 1.270 . S
C221 O214 1.262 . S
C221 O222 1.232 . S
O222 C221 1.232 . S
C223 O215 1.260 . S
C223 O216 1.257 . S
C224 C225 1.170 . S
C224 C226 1.380 1_554 S
C225 C224 1.170 . S
C226 C224 1.380 1_556 S
C226 C227 1.170 . S
C227 C226 1.170 . S
C228 C229 1.170 . S
C228 C230 1.380 . S
C229 C228 1.170 . S
C230 C228 1.380 . S
C230 C231 1.170 . S
C231 C230 1.170 . S
C232 C233 1.170 . S
C232 C234 1.380 1_554 S
C233 C232 1.170 . S
C234 C232 1.380 1_556 S
C234 C235 1.170 . S
C235 C234 1.170 . S
C236 C237 1.170 . S
C236 C238 1.380 . S
C237 C236 1.170 . S
C238 C236 1.380 . S
C238 C239 1.170 . S
C239 C238 1.170 . S
C240 C241 1.170 . S
C240 C242 1.380 1_556 S
C241 C240 1.170 . S
C242 C240 1.380 1_554 S
C242 C243 1.170 . S
C243 C242 1.170 . S
C244 C245 1.170 . S
C244 C246 1.380 . S
C245 C244 1.170 . S
C246 C244 1.380 . S
C246 C247 1.170 . S
C247 C246 1.170 . S
C248 C249 1.170 . S
C248 C250 1.380 1_556 S
C249 C248 1.170 . S
C250 C248 1.380 1_554 S
C250 C251 1.170 . S
C251 C250 1.170 . S
C252 C253 1.170 . S
C252 C254 1.380 . S
C253 C252 1.170 . S
C254 C252 1.380 . S
C254 C255 1.170 . S
C255 C254 1.170 . S
C256 C257 1.170 . S
C256 C258 1.380 . S
C257 C256 1.170 . S
C258 C256 1.380 . S
C258 C259 1.170 . S
C259 C258 1.170 . S
C260 C261 1.170 . S
C260 C262 1.380 . S
C261 C260 1.170 . S
C262 C260 1.380 . S
C262 C263 1.170 . S
C263 C262 1.170 . S
C264 C265 1.170 . S
C264 C266 1.380 . S
C265 C264 1.170 . S
C266 C264 1.380 . S
C266 C267 1.170 . S
C267 C266 1.170 . S
C268 C269 1.170 . S
C268 C270 1.380 . S
C269 C268 1.170 . S
C270 C268 1.380 . S
C270 C271 1.170 . S
C271 C270 1.170 . S
C272 C273 1.170 . S
C272 C274 1.380 . S
C273 C272 1.170 . S
C274 C272 1.380 . S
C274 C275 1.170 . S
C275 C274 1.170 . S
C276 C277 1.170 . S
C276 C278 1.380 . S
C277 C276 1.170 . S
C278 C276 1.380 . S
C278 C279 1.170 . S
C279 C278 1.170 . S
C280 C281 1.170 . S
C280 C282 1.380 . S
C281 C280 1.170 . S
C282 C280 1.380 . S
C282 C283 1.170 . S
C283 C282 1.170 . S
C284 C285 1.170 . S
C284 C286 1.380 . S
C285 C284 1.170 . S
C286 C284 1.380 . S
C286 C287 1.170 . S
C287 C286 1.170 . S
C288 C289 1.170 . S
C288 C290 1.380 . S
C289 C288 1.170 . S
C290 C288 1.380 . S
C290 C291 1.170 . S
C291 C290 1.170 . S
C292 C293 1.170 . S
C292 C294 1.380 . S
C293 C292 1.170 . S
C294 C292 1.380 . S
C294 C295 1.170 . S
C295 C294 1.170 . S
C296 C297 1.170 . S
C296 C298 1.380 . S
C297 C296 1.170 . S
C298 C296 1.380 . S
C298 C299 1.170 . S
C299 C298 1.170 . S
C300 C301 1.170 . S
C300 C302 1.380 . S
C301 C300 1.170 . S
C302 C300 1.380 . S
C302 C303 1.170 . S
C303 C302 1.170 . S
C304 C305 1.170 . S
C304 C306 1.380 . S
C305 C304 1.170 . S
C306 C304 1.380 . S
C306 C307 1.170 . S
C307 C306 1.170 . S
C308 C309 1.170 . S
C308 C310 1.380 . S
C309 C308 1.170 . S
C310 C308 1.380 . S
C310 C311 1.170 . S
C311 C310 1.170 . S
C312 C313 1.170 . S
C312 C314 1.380 . S
C313 C312 1.170 . S
C314 C312 1.380 . S
C314 C315 1.170 . S
C315 C314 1.170 . S
C316 C317 1.170 . S
C316 C318 1.380 . S
C317 C316 1.170 . S
C318 C316 1.380 . S
C318 C319 1.170 . S
C319 C318 1.170 . S
C320 C321 1.170 . S
C320 C322 1.380 . S
C321 C320 1.170 . S
C322 C320 1.380 . S
C322 C323 1.170 . S
C323 C322 1.170 . S
C324 C325 1.170 . S
C324 C326 1.380 . S
C325 C324 1.170 . S
C326 C324 1.380 . S
C326 C327 1.170 . S
C327 C326 1.170 . S
C328 C329 1.170 . S
C328 C330 1.380 . S
C329 C328 1.170 . S
C330 C328 1.380 . S
C330 C331 1.170 . S
C331 C330 1.170 . S
C332 C333 1.170 . S
C332 C334 1.380 . S
C333 C332 1.170 . S
C334 C332 1.380 . S
C334 C335 1.170 . S
C335 C334 1.170 . S
C336 C337 1.170 . S
C336 C338 1.380 . S
C337 C336 1.170 . S
C338 C336 1.380 . S
C338 C339 1.170 . S
C339 C338 1.170 . S
C340 C341 1.170 . S
C340 C342 1.380 . S
C341 C340 1.170 . S
C342 C340 1.380 . S
C342 C343 1.170 . S
C343 C342 1.170 . S
C344 C345 1.170 . S
C344 C346 1.380 . S
C345 C344 1.170 . S
C346 C344 1.380 . S
C346 C347 1.170 . S
C347 C346 1.170 . S
C348 C349 1.170 . S
C348 C350 1.380 . S
C349 C348 1.170 . S
C350 C348 1.380 . S
C350 C351 1.170 . S
C351 C350 1.170 . S
C225 C11 1.270 . S
C227 C67 1.263 . S
C229 C81 1.273 . S
C231 C25 1.261 . S
C233 C39 1.274 . S
C235 C95 1.261 . S
C237 C53 1.263 . S
C239 C109 1.271 . S
C241 C123 1.274 . S
C243 C179 1.266 . S
C245 C193 1.269 . S
C247 C137 1.274 . S
C249 C151 1.261 . S
C251 C207 1.266 . S
C253 C165 1.274 . S
C255 C221 1.269 . S
C257 C13 1.201 . S
C259 C218 1.251 . S
C261 C176 1.231 . S
C263 C27 1.189 . S
C265 C41 1.246 . S
C267 C190 1.191 . S
C269 C204 1.225 . S
C271 C55 1.192 . S
C273 C134 1.207 . S
C275 C69 1.207 . S
C277 C148 1.209 . S
C279 C83 1.247 . S
C281 C162 1.199 . S
C283 C97 1.249 . S
C285 C120 1.252 . S
C287 C111 1.196 . S
C289 C125 1.187 . S
C291 C106 1.198 . S
C293 C64 1.242 . S
C295 C139 1.247 . S
C297 C78 1.202 . S
C299 C153 1.186 . S
C301 C167 1.187 . S
C303 C92 1.220 . S
C305 C22 1.236 . S
C307 C181 1.249 . S
C309 C195 1.188 . S
C311 C36 1.222 . S
C313 C209 1.247 . S
C315 C50 1.222 . S
C317 C223 1.195 . S
C319 C8 1.233 . S
C321 C105 1.367 . S
C323 C7 1.360 . S
C325 C21 1.346 . S
C327 C63 1.339 . S
C329 C35 1.362 . S
C331 C77 1.354 . S
C333 C49 1.333 . S
C335 C91 1.333 . S
C337 C217 1.359 . S
C339 C119 1.333 . S
C341 C175 1.342 . S
C343 C133 1.337 . S
C345 C189 1.373 . S
C347 C147 1.342 . S
C349 C203 1.375 . S
C351 C161 1.365 . S
