# Generated by pormake.
# Topology unv, (4)-cn, num edge types: 1
# Building blocks:
#     Node 0, Type 0, BuildingBlock: GALJAG_clean_sbu_0, # of connection points: 4
#     Node 1, Type 0, BuildingBlock: GALJAG_clean_sbu_0, # of connection points: 4
#     Node 2, Type 0, BuildingBlock: GALJAG_clean_sbu_0, # of connection points: 4
#     Node 3, Type 0, BuildingBlock: GALJAG_clean_sbu_0, # of connection points: 4
#     Node 4, Type 0, BuildingBlock: GALJAG_clean_sbu_0, # of connection points: 4
#     Node 5, Type 0, BuildingBlock: GALJAG_clean_sbu_0, # of connection points: 4
#     Node 6, Type 0, BuildingBlock: GALJAG_clean_sbu_0, # of connection points: 4
#     Node 7, Type 0, BuildingBlock: GALJAG_clean_sbu_0, # of connection points: 4
#     Node 8, Type 0, BuildingBlock: GALJAG_clean_sbu_0, # of connection points: 4
#     Node 9, Type 0, BuildingBlock: GALJAG_clean_sbu_0, # of connection points: 4
#     Node 10, Type 0, BuildingBlock: GALJAG_clean_sbu_0, # of connection points: 4
#     Node 11, Type 0, BuildingBlock: GALJAG_clean_sbu_0, # of connection points: 4
#     Node 12, Type 0, BuildingBlock: GALJAG_clean_sbu_0, # of connection points: 4
#     Node 13, Type 0, BuildingBlock: GALJAG_clean_sbu_0, # of connection points: 4
#     Node 14, Type 0, BuildingBlock: GALJAG_clean_sbu_0, # of connection points: 4
#     Node 15, Type 0, BuildingBlock: GALJAG_clean_sbu_0, # of connection points: 4
#     Node 16, Type 0, BuildingBlock: GALJAG_clean_sbu_0, # of connection points: 4
#     Node 17, Type 0, BuildingBlock: GALJAG_clean_sbu_0, # of connection points: 4
#     Node 18, Type 0, BuildingBlock: GALJAG_clean_sbu_0, # of connection points: 4
#     Node 19, Type 0, BuildingBlock: GALJAG_clean_sbu_0, # of connection points: 4
#     Node 20, Type 0, BuildingBlock: GALJAG_clean_sbu_0, # of connection points: 4
#     Node 21, Type 0, BuildingBlock: GALJAG_clean_sbu_0, # of connection points: 4
#     Node 22, Type 0, BuildingBlock: GALJAG_clean_sbu_0, # of connection points: 4
#     Node 23, Type 0, BuildingBlock: GALJAG_clean_sbu_0, # of connection points: 4
#     Edge 24, Type (0, 0), BuildingBlock: CIFDUS_clean_linker_0, # of connection points: 2
#     Edge 25, Type (0, 0), BuildingBlock: CIFDUS_clean_linker_0, # of connection points: 2
#     Edge 26, Type (0, 0), BuildingBlock: CIFDUS_clean_linker_0, # of connection points: 2
#     Edge 27, Type (0, 0), BuildingBlock: CIFDUS_clean_linker_0, # of connection points: 2
#     Edge 28, Type (0, 0), BuildingBlock: CIFDUS_clean_linker_0, # of connection points: 2
#     Edge 29, Type (0, 0), BuildingBlock: CIFDUS_clean_linker_0, # of connection points: 2
#     Edge 30, Type (0, 0), BuildingBlock: CIFDUS_clean_linker_0, # of connection points: 2
#     Edge 31, Type (0, 0), BuildingBlock: CIFDUS_clean_linker_0, # of connection points: 2
#     Edge 32, Type (0, 0), BuildingBlock: CIFDUS_clean_linker_0, # of connection points: 2
#     Edge 33, Type (0, 0), BuildingBlock: CIFDUS_clean_linker_0, # of connection points: 2
#     Edge 34, Type (0, 0), BuildingBlock: CIFDUS_clean_linker_0, # of connection points: 2
#     Edge 35, Type (0, 0), BuildingBlock: CIFDUS_clean_linker_0, # of connection points: 2
#     Edge 36, Type (0, 0), BuildingBlock: CIFDUS_clean_linker_0, # of connection points: 2
#     Edge 37, Type (0, 0), BuildingBlock: CIFDUS_clean_linker_0, # of connection points: 2
#     Edge 38, Type (0, 0), BuildingBlock: CIFDUS_clean_linker_0, # of connection points: 2
#     Edge 39, Type (0, 0), BuildingBlock: CIFDUS_clean_linker_0, # of connection points: 2
#     Edge 40, Type (0, 0), BuildingBlock: CIFDUS_clean_linker_0, # of connection points: 2
#     Edge 41, Type (0, 0), BuildingBlock: CIFDUS_clean_linker_0, # of connection points: 2
#     Edge 42, Type (0, 0), BuildingBlock: CIFDUS_clean_linker_0, # of connection points: 2
#     Edge 43, Type (0, 0), BuildingBlock: CIFDUS_clean_linker_0, # of connection points: 2
#     Edge 44, Type (0, 0), BuildingBlock: CIFDUS_clean_linker_0, # of connection points: 2
#     Edge 45, Type (0, 0), BuildingBlock: CIFDUS_clean_linker_0, # of connection points: 2
#     Edge 46, Type (0, 0), BuildingBlock: CIFDUS_clean_linker_0, # of connection points: 2
#     Edge 47, Type (0, 0), BuildingBlock: CIFDUS_clean_linker_0, # of connection points: 2
#     Edge 48, Type (0, 0), BuildingBlock: CIFDUS_clean_linker_0, # of connection points: 2
#     Edge 49, Type (0, 0), BuildingBlock: CIFDUS_clean_linker_0, # of connection points: 2
#     Edge 50, Type (0, 0), BuildingBlock: CIFDUS_clean_linker_0, # of connection points: 2
#     Edge 51, Type (0, 0), BuildingBlock: CIFDUS_clean_linker_0, # of connection points: 2
#     Edge 52, Type (0, 0), BuildingBlock: CIFDUS_clean_linker_0, # of connection points: 2
#     Edge 53, Type (0, 0), BuildingBlock: CIFDUS_clean_linker_0, # of connection points: 2
#     Edge 54, Type (0, 0), BuildingBlock: CIFDUS_clean_linker_0, # of connection points: 2
#     Edge 55, Type (0, 0), BuildingBlock: CIFDUS_clean_linker_0, # of connection points: 2
#     Edge 56, Type (0, 0), BuildingBlock: CIFDUS_clean_linker_0, # of connection points: 2
#     Edge 57, Type (0, 0), BuildingBlock: CIFDUS_clean_linker_0, # of connection points: 2
#     Edge 58, Type (0, 0), BuildingBlock: CIFDUS_clean_linker_0, # of connection points: 2
#     Edge 59, Type (0, 0), BuildingBlock: CIFDUS_clean_linker_0, # of connection points: 2
#     Edge 60, Type (0, 0), BuildingBlock: CIFDUS_clean_linker_0, # of connection points: 2
#     Edge 61, Type (0, 0), BuildingBlock: CIFDUS_clean_linker_0, # of connection points: 2
#     Edge 62, Type (0, 0), BuildingBlock: CIFDUS_clean_linker_0, # of connection points: 2
#     Edge 63, Type (0, 0), BuildingBlock: CIFDUS_clean_linker_0, # of connection points: 2
#     Edge 64, Type (0, 0), BuildingBlock: CIFDUS_clean_linker_0, # of connection points: 2
#     Edge 65, Type (0, 0), BuildingBlock: CIFDUS_clean_linker_0, # of connection points: 2
#     Edge 66, Type (0, 0), BuildingBlock: CIFDUS_clean_linker_0, # of connection points: 2
#     Edge 67, Type (0, 0), BuildingBlock: CIFDUS_clean_linker_0, # of connection points: 2
#     Edge 68, Type (0, 0), BuildingBlock: CIFDUS_clean_linker_0, # of connection points: 2
#     Edge 69, Type (0, 0), BuildingBlock: CIFDUS_clean_linker_0, # of connection points: 2
#     Edge 70, Type (0, 0), BuildingBlock: CIFDUS_clean_linker_0, # of connection points: 2
#     Edge 71, Type (0, 0), BuildingBlock: CIFDUS_clean_linker_0, # of connection points: 2
# Relax obj value: 0.404
# Max RMSD: 0.239
# Mean RMSD: 0.210
data_MOF--net-unv--node1-GALJAG_clean_sbu_0--edge1-CIFDUS_clean_linker_0
_symmetry_space_group_name_H-M    P1
_symmetry_Int_Tables_number       1
_symmetry_cell_setting            triclinic
loop_
_symmetry_equiv_pos_as_xyz
'x, y, z'
_cell_length_a     42.701895
_cell_length_b     42.717337
_cell_length_c     42.740547
_cell_angle_alpha  90.001478
_cell_angle_beta   90.051287
_cell_angle_gamma 90.071324
loop_
_atom_site_label
_atom_site_type_symbol
_atom_site_fract_x
_atom_site_fract_y
_atom_site_fract_z
_atom_type_partial_charge
In0 In 0.04089 0.0936 0.35603 0.0
O1 O 0.06967 0.05453 0.33478 0.0
O2 O 0.05643 0.09213 0.30495 0.0
C3 C 0.0782 0.09511 0.40728 0.0
C4 C 0.01946 0.1513 0.3418 0.0
C5 C 0.99465 0.05139 0.36635 0.0
O6 O 0.08884 0.09085 0.38009 0.0
O7 O 0.04912 0.09989 0.40831 0.0
O8 O 0.00421 0.06997 0.3872 0.0
O9 O 0.00762 0.05481 0.34015 0.0
C10 C 0.06964 0.06578 0.30746 0.0
O11 O 0.00174 0.12797 0.34519 0.0
O12 O 0.04821 0.14561 0.34551 0.0
In13 In 0.95946 0.39046 0.33716 0.0
O14 O -0.00177 0.35571 0.32554 0.0
O15 O 0.95187 0.3382 0.32907 0.0
C16 C 0.00445 0.43366 0.349 0.0
C17 C 0.92932 0.41837 0.28938 0.0
C18 C 0.92241 0.3876 0.38829 0.0
O19 O 0.99607 0.41349 0.36882 0.0
O20 O 0.99103 0.43133 0.32289 0.0
O21 O 0.91152 0.39057 0.361 0.0
O22 O 0.95179 0.38526 0.38961 0.0
C23 C 0.98043 0.33219 0.32471 0.0
O24 O 0.92678 0.4272 0.31745 0.0
O25 O 0.9461 0.3943 0.28548 0.0
In26 In 0.0319 0.89665 0.13917 0.0
O27 O 0.00153 0.85629 0.15696 0.0
O28 O 0.04961 0.84728 0.14865 0.0
C29 C 0.97841 0.92876 0.12838 0.0
C30 C 0.06028 0.93223 0.18281 0.0
C31 C 0.06545 0.89792 0.0856 0.0
O32 O 0.98926 0.90895 0.10941 0.0
O33 O 0.99371 0.93124 0.15351 0.0
O34 O 0.07797 0.90095 0.11216 0.0
O35 O 0.0363 0.89352 0.0862 0.0
C36 C 0.02349 0.83662 0.15721 0.0
O37 O 0.05092 0.90471 0.18835 0.0
O38 O 0.05578 0.9415 0.15514 0.0
In39 In 0.961 0.60093 0.14222 0.0
O40 O 0.93433 0.55552 0.1498 0.0
O41 O 0.93497 0.58848 0.1871 0.0
C42 C 0.93713 0.60613 0.08392 0.0
C43 C 0.96882 0.66011 0.16303 0.0
C44 C 0.01373 0.56605 0.1399 0.0
O45 O 0.92014 0.60046 0.1074 0.0
O46 O 0.96576 0.60972 0.09007 0.0
O47 O 0.00425 0.58249 0.11732 0.0
O48 O -0.00246 0.5685 0.16444 0.0
C49 C 0.92657 0.56173 0.17759 0.0
O50 O 0.99109 0.64091 0.16095 0.0
O51 O 0.94244 0.64917 0.1556 0.0
In52 In 0.37482 0.01471 0.09907 0.0
O53 O 0.3668 0.98203 0.14025 0.0
O54 O 0.35902 0.03078 0.14726 0.0
C55 C 0.39443 0.97463 0.05471 0.0
C56 C 0.31918 0.02578 0.07186 0.0
C57 C 0.42679 0.0504 0.10292 0.0
O58 O 0.39567 0.96759 0.08343 0.0
O59 O 0.38365 0.00142 0.04892 0.0
O60 O 0.40036 0.0619 0.09611 0.0
O61 O 0.42648 0.02148 0.10872 0.0
C62 C 0.35887 0.00357 0.15886 0.0
O63 O 0.34098 0.04587 0.07141 0.0
O64 O 0.32508 0.00143 0.08752 0.0
In65 In 0.63629 0.48307 0.10119 0.0
O66 O 0.65788 0.45314 0.06314 0.0
O67 O 0.68859 0.47294 0.09703 0.0
C68 C 0.58502 0.44605 0.0998 0.0
C69 C 0.6501 0.4982 0.16089 0.0
C70 C 0.62212 0.53092 0.06211 0.0
O71 O 0.61241 0.43501 0.09922 0.0
O72 O 0.58372 0.47541 0.10205 0.0
O73 O 0.60658 0.52532 0.08655 0.0
O74 O 0.6455 0.51345 0.05834 0.0
C75 C 0.68573 0.45696 0.0723 0.0
O76 O 0.65231 0.51756 0.13873 0.0
O77 O 0.64154 0.47112 0.15282 0.0
In78 In 0.35291 0.93946 0.39613 0.0
O79 O 0.3403 0.96867 0.35369 0.0
O80 O 0.34724 0.91979 0.34686 0.0
C81 C 0.3649 0.98832 0.43447 0.0
C82 C 0.29967 0.9184 0.42275 0.0
C83 C 0.40923 0.91072 0.3968 0.0
O84 O 0.36701 0.99053 0.4051 0.0
O85 O 0.35621 0.96189 0.44418 0.0
O86 O 0.38405 0.8957 0.40099 0.0
O87 O 0.40564 0.93955 0.39193 0.0
C88 C 0.3415 0.94611 0.33464 0.0
O89 O 0.32632 0.90778 0.42988 0.0
O90 O 0.29977 0.93828 0.4009 0.0
In91 In 0.62074 0.55049 0.39962 0.0
O92 O 0.66383 0.57586 0.42028 0.0
O93 O 0.65675 0.52752 0.43007 0.0
C94 C 0.57871 0.59548 0.38664 0.0
C95 C 0.63737 0.52766 0.34343 0.0
C96 C 0.58438 0.52334 0.4431 0.0
O97 O 0.60421 0.60141 0.40055 0.0
O98 O 0.57581 0.56749 0.37762 0.0
O99 O 0.59493 0.50813 0.42 0.0
O100 O 0.59186 0.5519 0.44372 0.0
C101 C 0.67278 0.55176 0.43497 0.0
O102 O 0.62153 0.51217 0.36295 0.0
O103 O 0.64537 0.55467 0.35246 0.0
In104 In 0.09516 0.36893 0.03182 0.0
O105 O 0.07049 0.33943 0.06899 0.0
O106 O 0.09064 0.31623 0.0298 0.0
C107 C 0.09743 0.42439 0.06213 0.0
C108 C 0.15425 0.35666 0.01394 0.0
C109 C 0.04651 0.37797 0.99247 0.0
O110 O 0.09472 0.39876 0.07662 0.0
O111 O 0.09993 0.4217 0.03291 0.0
O112 O 0.07426 0.38442 0.9846 0.0
O113 O 0.0436 0.36738 0.01975 0.0
C114 C 0.07445 0.31399 0.05442 0.0
O115 O 0.13209 0.36026 0.99472 0.0
O116 O 0.14657 0.35906 0.04239 0.0
In117 In 0.08221 0.62941 0.46976 0.0
O118 O 0.04059 0.6485 0.44274 0.0
O119 O 0.07906 0.67917 0.45098 0.0
C120 C 0.08306 0.57562 0.43634 0.0
C121 C 0.14087 0.64784 0.48374 0.0
C122 C 0.04452 0.61809 0.51936 0.0
O123 O 0.0749 0.60141 0.42453 0.0
O124 O 0.09201 0.57736 0.46435 0.0
O125 O 0.06488 0.59898 0.50999 0.0
O126 O 0.04425 0.64369 0.50476 0.0
C127 C 0.05193 0.67566 0.4397 0.0
O128 O 0.11974 0.6455 0.50421 0.0
O129 O 0.13237 0.64089 0.45634 0.0
In130 In 0.89605 0.85266 0.46904 0.0
O131 O 0.85293 0.8366 0.49636 0.0
O132 O 0.847 0.84915 0.44865 0.0
C133 C 0.93197 0.85618 0.52132 0.0
C134 C 0.92445 0.80593 0.43798 0.0
C135 C 0.90362 0.90922 0.44189 0.0
O136 O 0.9118 0.87655 0.51443 0.0
O137 O 0.93238 0.83305 0.50313 0.0
O138 O 0.90807 0.88395 0.42723 0.0
O139 O 0.89422 0.9058 0.4696 0.0
C140 C 0.83445 0.8394 0.47348 0.0
O141 O 0.89839 0.80247 0.45151 0.0
O142 O 0.93554 0.83334 0.43914 0.0
In143 In 0.38277 0.63926 0.5027 0.0
O144 O 0.34403 0.65862 0.47154 0.0
O145 O 0.33495 0.65561 0.5201 0.0
C146 C 0.41739 0.63967 0.45 0.0
C147 C 0.42489 0.66872 0.53939 0.0
C148 C 0.37382 0.58086 0.52533 0.0
O149 O 0.39957 0.61722 0.45728 0.0
O150 O 0.41673 0.66255 0.46864 0.0
O151 O 0.37374 0.60478 0.54263 0.0
O152 O 0.37817 0.58647 0.49672 0.0
C153 C 0.32459 0.66223 0.49333 0.0
O154 O 0.42732 0.64034 0.53165 0.0
O155 O 0.40031 0.68207 0.52967 0.0
In156 In 0.52049 0.59765 0.85139 0.0
O157 O 0.49287 0.64038 0.83487 0.0
O158 O 0.54203 0.64515 0.83989 0.0
C159 C 0.46559 0.57136 0.86865 0.0
C160 C 0.5383 0.55665 0.80699 0.0
C161 C 0.55943 0.59375 0.90104 0.0
O162 O 0.48138 0.58867 0.88666 0.0
O163 O 0.47637 0.56916 0.84132 0.0
O164 O 0.56803 0.58682 0.87366 0.0
O165 O 0.5316 0.60327 0.9031 0.0
C166 C 0.51642 0.65812 0.83319 0.0
O167 O 0.53513 0.58553 0.80131 0.0
O168 O 0.53392 0.54901 0.83514 0.0
In169 In 0.51196 0.90353 0.85393 0.0
O170 O 0.54506 0.86173 0.84648 0.0
O171 O 0.49705 0.85544 0.83628 0.0
C172 C 0.55561 0.93974 0.88214 0.0
C173 C 0.4973 0.93663 0.80255 0.0
C174 C 0.4674 0.91132 0.89792 0.0
O175 O 0.54022 0.91918 0.89673 0.0
O176 O 0.55045 0.9405 0.85313 0.0
O177 O 0.46646 0.92467 0.87163 0.0
O178 O 0.49039 0.89322 0.90172 0.0
C179 C 0.52381 0.84332 0.83753 0.0
O180 O 0.47703 0.92066 0.81703 0.0
O181 O 0.52482 0.93451 0.81309 0.0
In182 In 0.47528 0.40307 0.63059 0.0
O183 O 0.44889 0.35698 0.63599 0.0
O184 O 0.4985 0.3553 0.63198 0.0
C185 C 0.42075 0.43224 0.61774 0.0
C186 C 0.50252 0.4251 0.68319 0.0
C187 C 0.50665 0.42433 0.58026 0.0
O188 O 0.43354 0.41334 0.59907 0.0
O189 O 0.43404 0.43418 0.64403 0.0
O190 O 0.49614 0.44187 0.60148 0.0
O191 O 0.50215 0.39544 0.58468 0.0
C192 C 0.47322 0.34027 0.6348 0.0
O193 O 0.51402 0.42904 0.65636 0.0
O194 O 0.47789 0.40874 0.68377 0.0
In195 In 0.49044 0.09283 0.61424 0.0
O196 O 0.51703 0.1392 0.6126 0.0
O197 O 0.46896 0.1404 0.62499 0.0
C198 C 0.53798 0.05742 0.59154 0.0
C199 C 0.48563 0.06772 0.67165 0.0
C200 C 0.44323 0.07763 0.57516 0.0
O201 O 0.53067 0.05842 0.61996 0.0
O202 O 0.52245 0.07572 0.57443 0.0
O203 O 0.44198 0.07261 0.60423 0.0
O204 O 0.46779 0.0913 0.56607 0.0
C205 C 0.49381 0.15563 0.62036 0.0
O206 O 0.46771 0.0599 0.64941 0.0
O207 O 0.50481 0.08935 0.66521 0.0
In208 In 0.85007 0.49197 0.59264 0.0
O209 O 0.8226 0.52787 0.5644 0.0
O210 O 0.7978 0.48935 0.58427 0.0
C211 C 0.90483 0.5235 0.59131 0.0
C212 C 0.83637 0.48431 0.65362 0.0
C213 C 0.86236 0.44644 0.55056 0.0
O214 O 0.87883 0.53692 0.58718 0.0
O215 O 0.90299 0.49455 0.59655 0.0
O216 O 0.87071 0.44415 0.57882 0.0
O217 O 0.84757 0.47103 0.54406 0.0
C218 C 0.79678 0.51367 0.56744 0.0
O219 O 0.83836 0.46149 0.63497 0.0
O220 O 0.8409 0.51077 0.64137 0.0
In221 In 0.13636 0.96414 0.59592 0.0
O222 O 0.15646 0.9915 0.63746 0.0
O223 O 0.1455 0.94354 0.64417 0.0
C224 C 0.12949 0.01884 0.56458 0.0
C225 C 0.17748 0.93358 0.5591 0.0
C226 C 0.07933 0.93636 0.5953 0.0
O227 O 0.11034 0.00949 0.58496 0.0
O228 O 0.15312 0.00152 0.56131 0.0
O229 O 0.10414 0.92153 0.58926 0.0
O230 O 0.08348 0.9647 0.60218 0.0
C231 C 0.15543 0.96863 0.65609 0.0
O232 O 0.14982 0.93966 0.55061 0.0
O233 O 0.1842 0.94216 0.5866 0.0
In234 In 0.85164 0.48754 0.89961 0.0
O235 O 0.83829 0.51675 0.85695 0.0
O236 O 0.84111 0.46745 0.85146 0.0
C237 C 0.86004 0.54092 0.93247 0.0
C238 C 0.80794 0.45993 0.93566 0.0
C239 C 0.90537 0.45457 0.90243 0.0
O240 O 0.88191 0.52733 0.91811 0.0
O241 O 0.83343 0.52877 0.92846 0.0
O242 O 0.87929 0.44338 0.9106 0.0
O243 O 0.90417 0.48202 0.89166 0.0
C244 C 0.83607 0.49359 0.83879 0.0
O245 O 0.80245 0.46798 0.90772 0.0
O246 O 0.83558 0.46494 0.94479 0.0
In247 In 0.14746 0.01956 0.89684 0.0
O248 O 0.18208 0.05498 0.91861 0.0
O249 O 0.18975 0.00614 0.92499 0.0
C250 C 0.09907 0.0578 0.91074 0.0
C251 C 0.16338 0.01359 0.83575 0.0
C252 C 0.12433 0.96908 0.92724 0.0
O253 O 0.12463 0.05817 0.92555 0.0
O254 O 0.09844 0.03918 0.88784 0.0
O255 O 0.10771 0.98557 0.90926 0.0
O256 O 0.15272 0.97695 0.92825 0.0
C257 C 0.19812 0.03368 0.9315 0.0
O258 O 0.15635 0.99073 0.85291 0.0
O259 O 0.16308 0.03966 0.8495 0.0
In260 In 0.5944 0.83209 0.52257 0.0
O261 O 0.63697 0.82075 0.49243 0.0
O262 O 0.64218 0.81739 0.54159 0.0
C263 C 0.55808 0.83467 0.47084 0.0
C264 C 0.55483 0.79532 0.5551 0.0
C265 C 0.59733 0.88968 0.54814 0.0
O266 O 0.56234 0.80958 0.48578 0.0
O267 O 0.5738 0.85762 0.48073 0.0
O268 O 0.59699 0.88496 0.51905 0.0
O269 O 0.59663 0.86515 0.56464 0.0
C270 C 0.65506 0.81568 0.51516 0.0
O271 O 0.55198 0.8247 0.55372 0.0
O272 O 0.57886 0.78464 0.54153 0.0
In273 In 0.60603 0.1569 0.9843 0.0
O274 O 0.56644 0.17466 0.95351 0.0
O275 O 0.59984 0.20799 0.96949 0.0
C276 C 0.60655 0.10355 0.95026 0.0
C277 C 0.6661 0.17019 -0.00012 0.0
C278 C 0.56636 0.14642 0.03258 0.0
O279 O 0.60749 0.13028 0.93767 0.0
O280 O 0.60568 0.10392 0.97971 0.0
O281 O 0.58768 0.12748 0.02505 0.0
O282 O 0.56621 0.1714 0.01694 0.0
C283 C 0.57471 0.20301 0.95461 0.0
O284 O 0.64401 0.17128 0.01939 0.0
O285 O 0.65774 0.16347 0.97243 0.0
In286 In 0.39701 0.36639 0.97241 0.0
O287 O 0.44231 0.34954 0.95034 0.0
O288 O 0.40623 0.31586 0.957 0.0
C289 C 0.39527 0.41633 0.93355 0.0
C290 C 0.33807 0.34906 0.9877 0.0
C291 C 0.43031 0.38429 0.02314 0.0
O292 O 0.39885 0.38876 0.92355 0.0
O293 O 0.3918 0.41835 0.96272 0.0
O294 O 0.40997 0.40148 0.01044 0.0
O295 O 0.43296 0.35752 0.01104 0.0
C296 C 0.43393 0.32131 0.94807 0.0
O297 O 0.36011 0.34981 0.00727 0.0
O298 O 0.34596 0.35594 0.96013 0.0
In299 In 0.90808 0.14012 0.04656 0.0
O300 O 0.87081 0.14441 0.00859 0.0
O301 O 0.85817 0.15745 0.05485 0.0
C302 C 0.95884 0.12301 0.01343 0.0
C303 C 0.93491 0.19447 0.06317 0.0
C304 C 0.90259 0.08727 0.08064 0.0
O305 O 0.93227 0.12593 0.0006 0.0
O306 O 0.95919 0.12773 0.04253 0.0
O307 O 0.90696 0.11374 0.09308 0.0
O308 O 0.89944 0.08787 0.05131 0.0
C309 C 0.84974 0.15437 0.02671 0.0
O310 O 0.92497 0.17538 0.08347 0.0
O311 O 0.92905 0.18713 0.03521 0.0
H312 H 0.16065 0.03441 0.51143 0.0
H313 H 0.07975 0.05863 0.56675 0.0
H314 H 0.05896 0.08959 0.5235 0.0
H315 H 0.05932 0.1016 0.46742 0.0
H316 H 0.13876 0.07497 0.41114 0.0
H317 H 0.16481 0.05362 0.45737 0.0
C318 C 0.13891 0.04718 0.51431 0.0
C319 C 0.12151 0.04384 0.54205 0.0
C320 C 0.1266 0.06413 0.48898 0.0
C321 C 0.09344 0.0606 0.54551 0.0
C322 C 0.08144 0.07817 0.52071 0.0
C323 C 0.08265 0.09179 0.4654 0.0
C324 C 0.09686 0.08935 0.43584 0.0
C325 C 0.0971 0.07884 0.4919 0.0
C326 C 0.12722 0.07689 0.43361 0.0
C327 C 0.14205 0.06452 0.46002 0.0
H328 H 0.93955 0.37649 0.44843 0.0
H329 H 0.862 0.40756 0.39159 0.0
H330 H 0.83403 0.4245 0.43839 0.0
H331 H 0.83546 0.43795 0.49415 0.0
H332 H 0.91294 0.40745 0.55123 0.0
H333 H 0.93688 0.38221 0.50573 0.0
C334 C 0.91625 0.38638 0.44638 0.0
C335 C 0.90307 0.39133 0.41662 0.0
C336 C 0.90044 0.39637 0.47338 0.0
C337 C 0.87272 0.40373 0.41425 0.0
C338 C 0.85678 0.41357 0.44098 0.0
C339 C 0.85724 0.42514 0.49673 0.0
C340 C 0.87273 0.42491 0.52574 0.0
C341 C 0.87098 0.41114 0.47048 0.0
C342 C 0.90067 0.40795 0.52904 0.0
C343 C 0.91447 0.39376 0.50299 0.0
H344 H 0.04105 0.90256 0.0273 0.0
H345 H 0.12841 0.90553 0.07806 0.0
H346 H 0.15563 0.92291 0.03087 0.0
H347 H 0.15306 0.94418 0.97775 0.0
H348 H 0.06487 0.94553 0.92841 0.0
H349 H 0.03957 0.91885 0.97228 0.0
C350 C 0.06616 0.90643 0.02787 0.0
C351 C 0.08268 0.90311 0.05615 0.0
C352 C 0.08143 0.91732 0.00094 0.0
C353 C 0.11517 0.90815 0.05659 0.0
C354 C 0.13072 0.91815 0.02964 0.0
C355 C 0.12847 0.93794 0.97626 0.0
C356 C 0.11076 0.94697 0.95001 0.0
C357 C 0.11388 0.92382 0.00203 0.0
C358 C 0.07892 0.93889 0.94845 0.0
C359 C 0.06443 0.92382 0.97359 0.0
H360 H 0.87681 0.59956 0.06437 0.0
H361 H 0.97161 0.60845 0.03055 0.0
H362 H 0.95453 0.59456 0.97793 0.0
H363 H 0.91457 0.5711 0.94409 0.0
H364 H 0.81996 0.5609 0.97791 0.0
H365 H 0.83482 0.58496 0.02759 0.0
C366 C 0.89357 0.59911 0.04532 0.0
C367 C 0.92549 0.60433 0.05145 0.0
C368 C 0.88365 0.59072 0.01512 0.0
C369 C 0.94693 0.60413 0.02651 0.0
C370 C 0.93721 0.59611 -0.0036 0.0
C371 C 0.89701 0.57498 0.96201 0.0
C372 C 0.86641 0.56372 0.95762 0.0
C373 C 0.9059 0.58805 0.99077 0.0
C374 C 0.84376 0.5692 0.98082 0.0
C375 C 0.85231 0.58268 0.00937 0.0
H376 H 0.43476 0.11143 0.086 0.0
H377 H 0.48564 0.02836 0.11268 0.0
H378 H 0.53479 0.05302 0.09749 0.0
H379 H 0.5621 0.09481 0.06921 0.0
H380 H 0.51145 0.17765 0.04159 0.0
H381 H 0.4637 0.15678 0.06511 0.0
C382 C 0.45668 0.09902 0.08911 0.0
C383 C 0.45648 0.06793 0.0999 0.0
C384 C 0.48494 0.1132 0.07991 0.0
C385 C 0.48509 0.05221 0.10409 0.0
C386 C 0.51326 0.06625 0.09532 0.0
C387 C 0.54079 0.10861 0.06901 0.0
C388 C 0.54017 0.13746 0.05328 0.0
C389 C 0.51329 0.09623 0.08207 0.0
C390 C 0.51249 0.15525 0.05343 0.0
C391 C 0.48509 0.14324 0.06669 0.0
H392 H 0.52494 0.46588 0.09898 0.0
H393 H 0.58202 0.38361 0.08615 0.0
H394 H 0.53679 0.35509 0.06555 0.0
H395 H 0.48345 0.35639 0.04389 0.0
H396 H 0.42763 0.43992 0.05403 0.0
H397 H 0.46979 0.46495 0.08347 0.0
C398 C 0.52735 0.44151 0.09226 0.0
C399 C 0.55683 0.42699 0.09362 0.0
C400 C 0.50152 0.42559 0.07971 0.0
C401 C 0.55958 0.39535 0.08511 0.0
C402 C 0.53376 0.37909 0.0732 0.0
C403 C 0.48025 0.37979 0.0532 0.0
C404 C 0.45267 0.39646 0.04649 0.0
C405 C 0.50495 0.39437 0.06928 0.0
C406 C 0.44878 0.42673 0.0587 0.0
C407 C 0.47292 0.4411 0.07541 0.0
H408 H 0.54846 0.88382 0.43235 0.0
H409 H 0.50834 0.79564 0.46083 0.0
H410 H 0.45861 0.80983 0.43625 0.0
H411 H 0.42432 0.85118 0.4147 0.0
H412 H 0.46497 0.93974 0.38778 0.0
H413 H 0.5166 0.92144 0.4034 0.0
C414 C 0.52908 0.86736 0.43243 0.0
C415 C 0.53188 0.83898 0.44872 0.0
C416 C 0.50042 0.876 0.41899 0.0
C417 C 0.50673 0.81771 0.44844 0.0
C418 C 0.47817 0.82595 0.43467 0.0
C419 C 0.4446 0.86617 0.41167 0.0
C420 C 0.44072 0.89697 0.40071 0.0
C421 C 0.47435 0.85564 0.42113 0.0
C422 C 0.46724 0.91607 0.3966 0.0
C423 C 0.49682 0.90566 0.40555 0.0
H424 H 0.47133 0.67267 0.44468 0.0
H425 H 0.41785 0.59872 0.40127 0.0
H426 H 0.46346 0.58339 0.37049 0.0
H427 H 0.52036 0.58369 0.3652 0.0
H428 H 0.57515 0.65361 0.41339 0.0
H429 H 0.52722 0.67852 0.43216 0.0
C430 C 0.46942 0.65386 0.42772 0.0
C431 C 0.4415 0.63648 0.42554 0.0
C432 C 0.49616 0.64423 0.41125 0.0
C433 C 0.43926 0.61217 0.40356 0.0
C434 C 0.46537 0.60332 0.38607 0.0
C435 C 0.52183 0.60496 0.37901 0.0
C436 C 0.55124 0.61638 0.38851 0.0
C437 C 0.49431 0.61805 0.39109 0.0
C438 C 0.55277 0.64416 0.40604 0.0
C439 C 0.52536 0.65823 0.41703 0.0
H440 H 0.07867 0.4368 0.12183 0.0
H441 H 0.10592 0.48138 0.03541 0.0
H442 H 0.08707 0.53156 0.05475 0.0
H443 H 0.05458 0.56036 0.092 0.0
H444 H 0.02537 0.51588 0.17774 0.0
H445 H 0.05382 0.46841 0.16328 0.0
C446 C 0.08121 0.45767 0.10761 0.0
C447 C 0.09308 0.45528 0.07702 0.0
C448 C 0.06965 0.48644 0.11862 0.0
C449 C 0.09644 0.48253 0.05888 0.0
C450 C 0.08559 0.51125 0.06988 0.0
C451 C 0.05514 0.54055 0.10789 0.0
C452 C 0.03751 0.54137 0.13559 0.0
C453 C 0.07085 0.51315 0.09907 0.0
C454 C 0.03868 0.51574 0.15617 0.0
C455 C 0.05473 0.48848 0.14779 0.0
H456 H 0.04142 0.43984 0.40022 0.0
H457 H 0.01248 0.48768 0.31617 0.0
H458 H 0.03797 0.53563 0.33421 0.0
H459 H 0.06237 0.56556 0.37698 0.0
H460 H 0.09116 0.5175 0.46101 0.0
H461 H 0.07237 0.46799 0.43965 0.0
C462 C 0.04121 0.46061 0.38562 0.0
C463 C 0.02477 0.4604 0.35716 0.0
C464 C 0.05571 0.48814 0.39623 0.0
C465 C 0.02493 0.48732 0.33826 0.0
C466 C 0.03936 0.5148 0.34862 0.0
C467 C 0.0651 0.54414 0.39032 0.0
C468 C 0.07769 0.54527 0.42069 0.0
C469 C 0.05392 0.51575 0.37803 0.0
C470 C 0.08134 0.5173 0.43764 0.0
C471 C 0.07046 0.48897 0.42551 0.0
H472 H 0.9262 0.92247 0.38392 0.0
H473 H 0.90224 0.9652 0.4722 0.0
H474 H 0.92588 0.01438 0.45533 0.0
H475 H 0.95864 0.04329 0.41797 0.0
H476 H 0.98265 0.0007 0.32968 0.0
H477 H 0.95351 0.9536 0.34395 0.0
C478 C 0.92567 0.94272 0.39922 0.0
C479 C 0.91285 0.94009 0.42937 0.0
C480 C 0.93958 0.97088 0.3895 0.0
C481 C 0.91214 0.96656 0.44891 0.0
C482 C 0.92577 0.99468 0.43935 0.0
C483 C 0.95705 0.02387 0.40169 0.0
C484 C 0.97301 0.02529 0.37301 0.0
C485 C 0.9404 -0.00319 0.41009 0.0
C486 C 0.97058 0.00012 0.35196 0.0
C487 C 0.95404 0.97312 0.36014 0.0
H488 H 0.36753 0.56314 0.58606 0.0
H489 H 0.37776 0.52634 0.4926 0.0
H490 H 0.38621 0.47397 0.51371 0.0
H491 H 0.40011 0.44118 0.55852 0.0
H492 H 0.39333 0.47865 0.65201 0.0
H493 H 0.37297 0.52782 0.63116 0.0
C494 C 0.37096 0.54353 0.57032 0.0
C495 C 0.37269 0.54868 0.53788 0.0
C496 C 0.37648 0.51358 0.58265 0.0
C497 C 0.37676 0.52303 0.51771 0.0
C498 C 0.38163 0.49307 0.52976 0.0
C499 C 0.39322 0.45972 0.57443 0.0
C500 C 0.39878 0.45653 0.6067 0.0
C501 C 0.38289 0.48837 0.56219 0.0
C502 C 0.38953 0.48066 0.62702 0.0
C503 C 0.3782 0.50891 0.61509 0.0
H504 H 0.64774 0.53964 0.00487 0.0
H505 H 0.57068 0.5688 0.06322 0.0
H506 H 0.54624 0.59477 0.01849 0.0
H507 H 0.54334 0.60264 0.96169 0.0
H508 H 0.61899 0.57076 0.90292 0.0
H509 H 0.6476 0.55263 0.94901 0.0
C510 C 0.62593 0.55225 0.00796 0.0
C511 C 0.61085 0.55204 0.0372 0.0
C512 C 0.61158 0.56628 0.98198 0.0
C513 C 0.58266 0.56852 0.04088 0.0
C514 C 0.56859 0.58321 0.01528 0.0
C515 C 0.56634 0.59222 0.95901 0.0
C516 C 0.57889 0.58767 0.92894 0.0
C517 C 0.58229 0.58122 0.98552 0.0
C518 C 0.60875 0.5743 0.92582 0.0
C519 C 0.62507 0.56386 0.95215 0.0
H520 H 0.38006 0.97885 0.99371 0.0
H521 H 0.43523 0.92536 0.05914 0.0
H522 H 0.46041 0.89771 0.01563 0.0
H523 H 0.4709 0.89365 0.95897 0.0
H524 H 0.41608 0.9486 0.89426 0.0
H525 H 0.3862 0.97051 0.93759 0.0
C526 C 0.39733 0.96085 -0.00154 0.0
C527 C 0.4062 0.95441 0.02943 0.0
C528 C 0.41181 0.94547 0.97348 0.0
C529 C 0.42818 0.93074 0.03539 0.0
C530 C 0.44264 0.91508 0.01054 0.0
C531 C 0.452 0.90995 0.95436 0.0
C532 C 0.44593 0.9198 0.92353 0.0
C533 C 0.43527 0.92293 0.97947 0.0
C534 C 0.42135 0.94085 0.91782 0.0
C535 C 0.40432 0.95348 0.94258 0.0
H536 H 0.51212 0.48515 0.56501 0.0
H537 H 0.53468 0.39239 0.53218 0.0
H538 H 0.55946 0.41478 0.48551 0.0
H539 H 0.57587 0.46116 0.4549 0.0
H540 H 0.55301 0.55346 0.48907 0.0
H541 H 0.52684 0.53072 0.53427 0.0
C542 C 0.5225 0.46977 0.54769 0.0
C543 C 0.52183 0.43721 0.55209 0.0
C544 C 0.53649 0.48273 0.52111 0.0
C545 C 0.53509 0.41758 0.52932 0.0
C546 C 0.54918 0.43036 0.50266 0.0
C547 C 0.56487 0.4762 0.47212 0.0
C548 C 0.56641 0.50891 0.46873 0.0
C549 C 0.55013 0.46295 0.49837 0.0
C550 C 0.55223 0.5282 0.49124 0.0
C551 C 0.53731 0.51525 0.51712 0.0
H552 H 0.44033 0.08708 0.51244 0.0
H553 H 0.3948 0.03821 0.5882 0.0
H554 H 0.36338 0.00855 0.55075 0.0
H555 H 0.35412 0.99171 0.49667 0.0
H556 H 0.39996 0.03997 0.42077 0.0
H557 H 0.42568 0.07502 0.45807 0.0
C558 C 0.4231 0.07036 0.52074 0.0
C559 C 0.42019 0.06449 0.55299 0.0
C560 C 0.4054 0.05311 0.49907 0.0
C561 C 0.39759 0.04301 0.56348 0.0
C562 C 0.37972 0.02593 0.54207 0.0
C563 C 0.36933 0.01026 0.48828 0.0
C564 C 0.37555 0.01302 0.45612 0.0
C565 C 0.38425 0.03003 0.50984 0.0
C566 C 0.39494 0.03735 0.44547 0.0
C567 C 0.40977 0.05726 0.46679 0.0
H568 H 0.03988 0.56385 0.55172 0.0
H569 H 0.99214 0.65119 0.53478 0.0
H570 H 0.94493 0.63059 0.55965 0.0
H571 H 0.91505 0.58504 0.57855 0.0
H572 H 0.96276 0.49734 0.59386 0.0
H573 H 0.01214 0.52087 0.57754 0.0
C574 C 0.01937 0.57863 0.55413 0.0
C575 C 0.01929 0.60878 0.54101 0.0
C576 C 0.99213 0.56639 0.56773 0.0
C577 C 0.9927 0.6278 0.54454 0.0
C578 C 0.96561 0.61596 0.55855 0.0
C579 C 0.93638 0.57128 0.57885 0.0
C580 C 0.93518 0.5394 0.58683 0.0
C581 C 0.96468 0.58485 0.56901 0.0
C582 C 0.96302 0.52188 0.58747 0.0
C583 C 0.99128 0.53528 0.57808 0.0
H584 H 0.94076 0.90815 0.55677 0.0
H585 H 0.98142 0.8183 0.53517 0.0
H586 H 0.03037 0.83403 0.56022 0.0
H587 H 0.06406 0.87632 0.58028 0.0
H588 H 0.02357 0.96661 0.60038 0.0
H589 H 0.97219 0.94765 0.58415 0.0
C590 C 0.96004 0.8917 0.5583 0.0
C591 C 0.95763 0.86231 0.54372 0.0
C592 C 0.9884 0.9012 0.57197 0.0
C593 C 0.98275 0.84118 0.54604 0.0
C594 C 0.01086 0.85024 0.56014 0.0
C595 C 0.04386 0.89163 0.58166 0.0
C596 C 0.04771 0.92295 0.59096 0.0
C597 C 0.01438 0.88069 0.57191 0.0
C598 C 0.02129 0.94246 0.59299 0.0
C599 C 0.99188 0.93167 0.58365 0.0
H600 H 0.04174 0.41873 0.94379 0.0
H601 H 0.9895 0.35083 -0.0027 0.0
H602 H 0.94147 0.36551 0.97015 0.0
H603 H 0.9134 0.40186 0.93626 0.0
H604 H 0.96436 0.47282 0.8856 0.0
H605 H 0.01384 0.45244 0.90605 0.0
C606 C 0.01992 0.4068 0.94898 0.0
C607 C 0.019 0.38397 0.9726 0.0
C608 C 0.99215 0.41605 0.93395 0.0
C609 C 0.99063 0.36873 0.97936 0.0
C610 C 0.96318 0.37709 0.96387 0.0
C611 C 0.93537 0.41247 0.92917 0.0
C612 C 0.93527 0.4389 0.90967 0.0
C613 C 0.9635 0.40137 0.94186 0.0
C614 C 0.96389 0.45248 0.90073 0.0
C615 C 0.99215 0.44094 0.91252 0.0
H616 H 0.09362 0.09095 0.9642 0.0
H617 H 0.04083 0.05958 0.88401 0.0
H618 H 0.99244 0.07885 0.90786 0.0
H619 H 0.96464 0.10061 0.95377 0.0
H620 H 0.01821 0.12922 0.03459 0.0
H621 H 0.06666 0.11503 0.00827 0.0
C622 C 0.07161 0.08878 0.95169 0.0
C623 C 0.07078 0.07382 0.92246 0.0
C624 C 0.0439 0.09904 0.96588 0.0
C625 C 0.04206 0.07107 0.90658 0.0
C626 C 0.01437 0.0819 0.92028 0.0
C627 C 0.98697 0.10389 0.96545 0.0
C628 C 0.98782 0.11556 0.99619 0.0
C629 C 0.0149 0.09525 0.95029 0.0
C630 C 0.01688 0.11983 0.01108 0.0
C631 C 0.04465 0.11185 0.99602 0.0
H632 H 0.5652 0.01059 0.62411 0.0
H633 H 0.55474 0.04739 0.53066 0.0
H634 H 0.57692 -0.00072 0.50901 0.0
H635 H 0.59134 0.9442 0.51644 0.0
H636 H 0.59775 0.90623 0.6098 0.0
H637 H 0.58526 0.95753 0.63179 0.0
C638 C 0.56844 0.0084 0.59904 0.0
C639 C 0.55803 0.03232 0.57895 0.0
C640 C 0.58 0.98028 0.58677 0.0
C641 C 0.56246 0.02921 0.54656 0.0
C642 C 0.57492 0.00164 0.53418 0.0
C643 C 0.59056 0.94728 0.54162 0.0
C644 C 0.59502 0.92142 0.5615 0.0
C645 C 0.58252 0.97658 0.55402 0.0
C646 C 0.59411 0.92575 0.59404 0.0
C647 C 0.58692 0.95504 0.60661 0.0
H648 H 0.60192 0.04469 0.97332 0.0
H649 H 0.6052 0.09653 0.88673 0.0
H650 H 0.59433 0.0486 0.85735 0.0
H651 H 0.57785 0.99352 0.85694 0.0
H652 H 0.57155 0.94256 0.94389 0.0
H653 H 0.59032 0.98847 0.97246 0.0
C654 C 0.60068 0.04544 0.94798 0.0
C655 C 0.604 0.07415 0.93222 0.0
C656 C 0.59385 0.01795 0.93135 0.0
C657 C 0.60252 0.07473 0.8994 0.0
C658 C 0.59627 0.04735 0.88261 0.0
C659 C 0.58127 0.99223 0.88206 0.0
C660 C 0.57316 0.96476 0.89833 0.0
C661 C 0.59105 0.01902 0.89841 0.0
C662 C 0.57758 0.96347 0.93087 0.0
C663 C 0.58811 0.98977 0.94723 0.0
H664 H 0.44436 0.51841 0.84102 0.0
H665 H 0.434 0.57515 0.92387 0.0
H666 H 0.40581 0.53264 0.94978 0.0
H667 H 0.39289 0.47684 0.95199 0.0
H668 H 0.4075 0.41865 0.8708 0.0
H669 H 0.42492 0.4643 0.84095 0.0
C670 C 0.43509 0.52181 0.8644 0.0
C671 C 0.44147 0.54973 0.88067 0.0
C672 C 0.4202 0.49677 0.87962 0.0
C673 C 0.42949 0.55378 0.91098 0.0
C674 C 0.41358 0.5294 0.92586 0.0
C675 C 0.39926 0.47424 0.92756 0.0
C676 C 0.39941 0.44436 0.91374 0.0
C677 C 0.41017 0.50035 0.91093 0.0
C678 C 0.40746 0.44138 0.88203 0.0
C679 C 0.41752 0.46746 0.865 0.0
H680 H 0.89932 0.0284 0.05728 0.0
H681 H 0.9167 0.0797 0.14252 0.0
H682 H 0.93702 0.03233 0.16725 0.0
H683 H 0.95842 0.9793 0.16124 0.0
H684 H 0.94384 0.9292 0.07476 0.0
H685 H 0.91339 0.9729 0.05414 0.0
C686 C 0.90682 0.02904 0.08153 0.0
C687 C 0.90704 0.05761 0.09787 0.0
C688 C 0.91937 0.00198 0.09525 0.0
C689 C 0.91656 0.05804 0.12934 0.0
C690 C 0.92836 0.03099 0.14344 0.0
C691 C 0.94788 0.97762 0.1382 0.0
C692 C 0.9538 0.9513 0.11935 0.0
C693 C 0.93121 0.00324 0.12612 0.0
C694 C 0.93987 0.94935 0.08962 0.0
C695 C 0.92258 0.97441 0.07774 0.0
H696 H 0.05295 0.20422 0.33064 0.0
H697 H 0.95844 0.16913 0.33813 0.0
H698 H 0.93786 0.2219 0.33082 0.0
H699 H 0.94679 0.27838 0.32586 0.0
H700 H 0.04123 0.31373 0.31893 0.0
H701 H 0.06175 0.26045 0.32201 0.0
C702 C 0.02786 0.20813 0.33045 0.0
C703 C 0.00726 0.18291 0.3352 0.0
C704 C 0.01617 0.23855 0.32633 0.0
C705 C 0.97479 0.18823 0.33467 0.0
C706 C 0.96299 0.21838 0.33051 0.0
C707 C 0.97184 0.27438 0.32462 0.0
C708 C 0.99247 0.29992 0.32238 0.0
C709 C 0.98347 0.24377 0.32681 0.0
C710 C 0.02487 0.29442 0.32073 0.0
C711 C 0.03663 0.26399 0.32262 0.0
H712 H 0.0243 0.6902 0.16907 0.0
H713 H 0.92443 0.7053 0.1706 0.0
H714 H 0.93273 0.76189 0.17239 0.0
H715 H 0.96826 0.8069 0.16746 0.0
H716 H 0.06802 0.79149 0.16305 0.0
H717 H 0.0599 0.73519 0.16868 0.0
C718 C 0.00437 0.70586 0.17036 0.0
C719 C 0.97382 0.69367 0.16944 0.0
C720 C 0.00931 0.73831 0.17052 0.0
C721 C 0.94819 0.71419 0.17111 0.0
C722 C 0.95292 0.74653 0.17201 0.0
C723 C 0.98822 0.79123 0.16818 0.0
C724 C 0.01865 0.80323 0.16452 0.0
C725 C 0.98335 0.75885 0.17076 0.0
C726 C 0.04434 0.78274 0.16556 0.0
C727 C 0.03972 0.75056 0.16875 0.0
H728 H 0.35592 0.94729 0.1882 0.0
H729 H 0.3443 0.04643 0.20373 0.0
H730 H 0.33494 0.03697 0.25928 0.0
H731 H 0.33378 0.00098 0.30391 0.0
H732 H 0.34654 0.90194 0.28877 0.0
H733 H 0.35127 0.91086 0.23247 0.0
C734 C 0.35112 0.96679 0.20372 0.0
C735 C 0.35108 -0.00247 0.19196 0.0
C736 C 0.34595 0.9612 0.23566 0.0
C737 C 0.34463 0.02256 0.21226 0.0
C738 C 0.33928 0.01717 0.24402 0.0
C739 C 0.33717 0.98129 0.28825 0.0
C740 C 0.33999 0.95088 0.30047 0.0
C741 C 0.3404 0.98665 0.25604 0.0
C742 C 0.34435 0.92559 0.27991 0.0
C743 C 0.3472 0.93069 0.24775 0.0
H744 H 0.64022 0.46211 0.21196 0.0
H745 H 0.66957 0.55459 0.18381 0.0
H746 H 0.67123 0.57114 0.23854 0.0
H747 H 0.65985 0.56052 0.29393 0.0
H748 H 0.62809 0.46863 0.32148 0.0
H749 H 0.63215 0.45055 0.26747 0.0
C750 C 0.64736 0.48577 0.21783 0.0
C751 C 0.65456 0.50716 0.19393 0.0
C752 C 0.64766 0.49526 0.24922 0.0
C753 C 0.66379 0.53774 0.20184 0.0
C754 C 0.66468 0.54723 0.23311 0.0
C755 C 0.65426 0.53643 0.28815 0.0
C756 C 0.64351 0.51599 0.31156 0.0
C757 C 0.656 0.52638 0.25693 0.0
C758 C 0.63625 0.48486 0.30379 0.0
C759 C 0.63851 0.47451 0.27292 0.0
H760 H 0.28683 0.34969 0.95017 0.0
H761 H 0.31547 0.33826 0.04633 0.0
H762 H 0.26074 0.33773 0.06289 0.0
H763 H 0.20498 0.34492 0.05048 0.0
H764 H 0.17653 0.35688 0.95431 0.0
H765 H 0.23092 0.35271 0.93733 0.0
C766 C 0.28107 0.34665 0.97469 0.0
C767 C 0.30513 0.34426 -0.00299 0.0
C768 C 0.2496 0.34678 0.98409 0.0
C769 C 0.29734 0.34023 0.0287 0.0
C770 C 0.26606 0.34007 0.03821 0.0
C771 C 0.21069 0.34636 0.02579 0.0
C772 C 0.18685 0.35152 0.00372 0.0
C773 C 0.24204 0.34405 0.01619 0.0
C774 C 0.19451 0.35308 0.97179 0.0
C775 C 0.22561 0.35073 0.96205 0.0
H776 H 0.18702 0.66271 0.44311 0.0
H777 H 0.16757 0.65196 0.54157 0.0
H778 H 0.22298 0.65983 0.55375 0.0
H779 H 0.27746 0.66381 0.53579 0.0
H780 H 0.29676 0.67355 0.43715 0.0
H781 H 0.24077 0.67271 0.42571 0.0
C782 C 0.19489 0.66243 0.46725 0.0
C783 C 0.17344 0.65629 0.49137 0.0
C784 C 0.2267 0.66679 0.47403 0.0
C785 C 0.18376 0.65643 0.52258 0.0
C786 C 0.21542 0.66088 0.52955 0.0
C787 C 0.26937 0.6664 0.51186 0.0
C788 C 0.29116 0.66835 0.48732 0.0
C789 C 0.23719 0.66525 0.50539 0.0
C790 C 0.28041 0.67183 0.45644 0.0
C791 C 0.24842 0.67117 0.44985 0.0
H792 H 0.68844 0.82321 0.46193 0.0
H793 H 0.69839 0.8028 0.5603 0.0
H794 H 0.75535 0.80654 0.5557 0.0
H795 H 0.8019 0.82013 0.52462 0.0
H796 H 0.79134 0.84259 0.42672 0.0
H797 H 0.73503 0.8336 0.43026 0.0
C798 C 0.70309 0.81905 0.48225 0.0
C799 C 0.68928 0.81285 0.51141 0.0
C800 C 0.73568 0.82205 0.47961 0.0
C801 C 0.70853 0.80765 0.53758 0.0
C802 C 0.74106 0.80995 0.53501 0.0
C803 C 0.78727 0.82285 0.50404 0.0
C804 C 0.80069 0.83228 0.47554 0.0
C805 C 0.75484 0.81792 0.5063 0.0
C806 C 0.78152 0.83557 0.449 0.0
C807 C 0.74933 0.83039 0.45098 0.0
H808 H 0.48041 0.80012 0.82119 0.0
H809 H 0.57877 0.81091 0.84182 0.0
H810 H 0.58578 0.75415 0.8391 0.0
H811 H 0.56287 0.70143 0.83583 0.0
H812 H 0.46405 0.69087 0.81731 0.0
H813 H 0.45834 0.74766 0.81391 0.0
C814 C 0.50347 0.79009 0.8247 0.0
C815 C 0.52899 0.80961 0.83196 0.0
C816 C 0.50718 0.75749 0.82366 0.0
C817 C 0.55874 0.79632 0.83633 0.0
C818 C 0.56273 0.76388 0.83486 0.0
C819 C 0.54017 0.71155 0.83061 0.0
C820 C 0.51386 0.69203 0.82707 0.0
C821 C 0.53696 0.74422 0.82929 0.0
C822 C 0.48462 0.70543 0.82028 0.0
C823 C 0.48133 0.73789 0.81842 0.0
H824 H 0.52163 0.30039 0.62589 0.0
H825 H 0.42226 0.30287 0.64407 0.0
H826 H 0.42006 0.24573 0.642 0.0
H827 H 0.44611 0.19526 0.6335 0.0
H828 H 0.54525 0.19292 0.61412 0.0
H829 H 0.54781 0.24992 0.61819 0.0
C830 C 0.49953 0.28841 0.62959 0.0
C831 C 0.47215 0.30576 0.63512 0.0
C832 C 0.49838 0.25564 0.62802 0.0
C833 C 0.44366 0.28998 0.63975 0.0
C834 C 0.44237 0.25734 0.63854 0.0
C835 C 0.46829 0.20723 0.63027 0.0
C836 C 0.49544 0.18997 0.62347 0.0
C837 C 0.46954 0.23997 0.63243 0.0
C838 C 0.52401 0.20574 0.61931 0.0
C839 C 0.5255 0.2383 0.62164 0.0
H840 H 0.8314 0.44713 0.79586 0.0
H841 H 0.82904 0.54766 0.80571 0.0
H842 H 0.82641 0.5535 0.74892 0.0
H843 H 0.82924 0.5302 0.69662 0.0
H844 H 0.83256 0.42973 0.6866 0.0
H845 H 0.83008 0.42367 0.74343 0.0
C846 C 0.82995 0.4703 0.78558 0.0
C847 C 0.8307 0.49694 0.80487 0.0
C848 C 0.8288 0.47348 0.75294 0.0
C849 C 0.82863 0.5268 0.7913 0.0
C850 C 0.82721 0.53016 0.75885 0.0
C851 C 0.82911 0.50696 0.70686 0.0
C852 C 0.8314 0.48046 0.68753 0.0
C853 C 0.82799 0.50369 0.73946 0.0
C854 C 0.83095 0.4505 0.70105 0.0
C855 C 0.82962 0.44702 0.73352 0.0
H856 H 0.16838 0.02175 0.68879 0.0
H857 H 0.15764 0.9218 0.69908 0.0
H858 H 0.1623 0.92674 0.75575 0.0
H859 H 0.16435 0.95979 0.80245 0.0
H860 H 0.17333 0.05993 0.79276 0.0
H861 H 0.17478 0.05457 0.73578 0.0
C862 C 0.16752 0.00103 0.70344 0.0
C863 C 0.1624 0.97149 0.68981 0.0
C864 C 0.16968 0.0041 0.7361 0.0
C865 C 0.16136 0.94483 0.70903 0.0
C866 C 0.16396 0.94763 0.74145 0.0
C867 C 0.16702 0.98042 0.78789 0.0
C868 C 0.16843 0.01022 0.80174 0.0
C869 C 0.16733 0.9772 0.75525 0.0
C870 C 0.17207 0.03672 0.78261 0.0
C871 C 0.1728 0.03369 0.75004 0.0
H872 H 0.79994 0.17221 0.06204 0.0
H873 H 0.8268 0.14955 0.9674 0.0
H874 H 0.77254 0.15512 0.95025 0.0
H875 H 0.71703 0.16278 0.96278 0.0
H876 H 0.68977 0.18397 0.05762 0.0
H877 H 0.74464 0.18297 0.07398 0.0
C878 C 0.79395 0.16877 0.03762 0.0
C879 C 0.81732 0.16027 0.01607 0.0
C880 C 0.76262 0.17168 0.02797 0.0
C881 C 0.80922 0.15596 0.98449 0.0
C882 C 0.77819 0.15912 0.97465 0.0
C883 C 0.72312 0.16757 0.98696 0.0
C884 C 0.69937 0.17329 0.00899 0.0
C885 C 0.75463 0.16644 0.99628 0.0
C886 C 0.70763 0.17943 0.04022 0.0
C887 C 0.73899 0.17877 0.04961 0.0
H888 H 0.06741 0.9952 0.17968 0.0
H889 H 0.07823 0.91635 0.24186 0.0
H890 H 0.08828 0.95181 0.28558 0.0
H891 H 0.08595 0.0047 0.30726 0.0
H892 H 0.0705 0.08349 0.24602 0.0
H893 H 0.07106 0.04865 0.20064 0.0
C894 C 0.07262 0.98579 0.20268 0.0
C895 C 0.07173 0.95326 0.20769 0.0
C896 C 0.07736 0.00632 0.22787 0.0
C897 C 0.0785 0.94134 0.23754 0.0
C898 C 0.0842 0.9616 0.26254 0.0
C899 C 0.0835 0.01437 0.28392 0.0
C900 C 0.07785 0.04655 0.27999 0.0
C901 C 0.08251 0.99409 0.25817 0.0
C902 C 0.07473 0.05875 0.24963 0.0
C903 C 0.07483 0.03881 0.22371 0.0
H904 H 0.90372 0.4761 0.29319 0.0
H905 H 0.93306 0.406 0.22674 0.0
H906 H 0.92864 0.44408 0.18427 0.0
H907 H 0.92579 0.49911 0.16804 0.0
H908 H 0.90173 0.57003 0.23573 0.0
H909 H 0.89417 0.52976 0.27564 0.0
C910 C 0.90838 0.46892 0.26931 0.0
C911 C 0.91913 0.43842 0.26314 0.0
C912 C 0.90709 0.49124 0.2453 0.0
C913 C 0.92497 0.42942 0.23209 0.0
C914 C 0.92262 0.45124 0.20783 0.0
C915 C 0.91805 0.50567 0.1913 0.0
C916 C 0.91464 0.53749 0.19909 0.0
C917 C 0.91511 0.48254 0.21442 0.0
C918 C 0.90472 0.54569 0.2293 0.0
C919 C 0.90055 0.52269 0.25214 0.0
H920 H 0.20733 -0.00197 0.98169 0.0
H921 H 0.23945 0.08293 0.93771 0.0
H922 H 0.27862 0.08998 0.97949 0.0
H923 H 0.30572 0.06936 0.02676 0.0
H924 H 0.27054 0.98524 0.07056 0.0
H925 H 0.23001 0.98087 0.03085 0.0
C926 C 0.22297 0.01808 0.98119 0.0
C927 C 0.2212 0.03955 0.95642 0.0
C928 C 0.2446 0.0222 0.00538 0.0
C929 C 0.24081 0.06593 0.95646 0.0
C930 C 0.26307 0.06993 0.98032 0.0
C931 C 0.28876 0.05048 0.02792 0.0
C932 C 0.29133 0.02749 0.05143 0.0
C933 C 0.26543 0.04793 0.00473 0.0
C934 C 0.2692 0.00315 0.05267 0.0
C935 C 0.2461 0.0005 0.02986 0.0
H936 H 0.68426 0.43969 0.0115 0.0
H937 H 0.74763 0.45737 0.08819 0.0
H938 H 0.7922 0.45491 0.05239 0.0
H939 H 0.81202 0.45541 -0.00139 0.0
H940 H 0.748 0.44276 0.92146 0.0
H941 H 0.70474 0.4352 0.95816 0.0
C942 C 0.70789 0.44225 0.0205 0.0
C943 C 0.71271 0.44889 0.05237 0.0
C944 C 0.73318 0.44211 -0.00039 0.0
C945 C 0.74338 0.45235 0.06371 0.0
C946 C 0.76882 0.4511 0.04323 0.0
C947 C 0.78871 0.45036 0.98983 0.0
C948 C 0.7831 0.44988 0.9574 0.0
C949 C 0.76386 0.44718 0.011 0.0
C950 C 0.75281 0.44341 0.94634 0.0
C951 C 0.72809 0.43918 0.9673 0.0
H952 H 0.2986 0.90003 0.48326 0.0
H953 H 0.23852 0.92681 0.40668 0.0
H954 H 0.1937 0.92928 0.44221 0.0
H955 H 0.17354 0.9311 0.49593 0.0
H956 H 0.23503 0.90974 0.57313 0.0
H957 H 0.27732 0.89759 0.53655 0.0
C958 C 0.27551 0.90557 0.47423 0.0
C959 C 0.27178 0.91321 0.44244 0.0
C960 C 0.25024 0.90838 0.49503 0.0
C961 C 0.24188 0.92083 0.43109 0.0
C962 C 0.21633 0.92243 0.45142 0.0
C963 C 0.19601 0.92316 0.50471 0.0
C964 C 0.20125 0.92145 0.53716 0.0
C965 C 0.22049 0.91736 0.4836 0.0
C966 C 0.23052 0.91137 0.54824 0.0
C967 C 0.25471 0.90449 0.52734 0.0
H968 H 0.79104 0.55943 0.52327 0.0
H969 H 0.74005 0.48516 0.56923 0.0
H970 H 0.69691 0.49143 0.5325 0.0
H971 H 0.67571 0.51459 0.48504 0.0
H972 H 0.72485 0.5896 0.43874 0.0
H973 H 0.76693 0.5865 0.47796 0.0
C974 C 0.77024 0.54503 0.52554 0.0
C975 C 0.76885 0.52165 0.54875 0.0
C976 C 0.74554 0.54854 0.50406 0.0
C977 C 0.74176 0.5032 0.5515 0.0
C978 C 0.71714 0.50664 0.53041 0.0
C979 C 0.69566 0.53028 0.48351 0.0
C980 C 0.69768 0.55183 0.45879 0.0
C981 C 0.7192 0.5286 0.50616 0.0
C982 C 0.7231 0.57262 0.45747 0.0
C983 C 0.74705 0.57083 0.47986 0.0
H984 H 0.02339 0.30866 0.09229 0.0
H985 H 0.08298 0.25615 0.02989 0.0
H986 H 0.04504 0.2135 0.02892 0.0
H987 H 0.99235 0.19439 0.04 0.0
H988 H 0.93198 0.24543 0.10239 0.0
H989 H 0.97276 0.28574 0.10919 0.0
C990 C 0.02843 0.2875 0.07922 0.0
C991 C 0.05579 0.28565 0.06092 0.0
C992 C 0.00609 0.26329 0.07818 0.0
C993 C 0.06201 0.25817 0.04401 0.0
C994 C 0.04023 0.23389 0.04324 0.0
C995 C 0.98829 0.21431 0.05525 0.0
C996 C 0.95926 0.21765 0.07015 0.0
C997 C 0.01175 0.2368 0.05918 0.0
C998 C 0.9542 0.24287 0.09047 0.0
C999 C 0.97747 0.26575 0.09431 0.0
H1000 H 0.98973 0.67601 0.42757 0.0
H1001 H 0.07157 0.73534 0.42839 0.0
H1002 H 0.03856 0.78155 0.42183 0.0
H1003 H 0.98641 0.80524 0.42481 0.0
H1004 H 0.9046 0.74599 0.42874 0.0
H1005 H 0.93757 0.69955 0.42387 0.0
C1006 C 0.00039 0.69898 0.42554 0.0
C1007 C 0.03296 0.70236 0.42885 0.0
C1008 C 0.9812 0.72547 0.42294 0.0
C1009 C 0.04649 0.73222 0.42616 0.0
C1010 C 0.02762 0.75864 0.42254 0.0
C1011 C 0.97574 0.7822 0.42375 0.0
C1012 C 0.9432 0.77896 0.42747 0.0
C1013 C 0.99491 0.75562 0.42223 0.0
C1014 C 0.92966 0.74901 0.42613 0.0
C1015 C 0.9485 0.72246 0.42351 0.0
H1016 H 0.55472 0.73193 0.56004 0.0
H1017 H 0.49579 0.81314 0.57115 0.0
H1018 H 0.44938 0.77984 0.57219 0.0
H1019 H 0.42534 0.7289 0.5601 0.0
H1020 H 0.48433 0.64779 0.54854 0.0
H1021 H 0.53077 0.67966 0.55804 0.0
C1022 C 0.53179 0.74224 0.56358 0.0
C1023 C 0.52864 0.77494 0.56486 0.0
C1024 C 0.50512 0.723 0.56361 0.0
C1025 C 0.49884 0.788 0.56983 0.0
C1026 C 0.47222 0.76899 0.5702 0.0
C1027 C 0.44831 0.71809 0.56047 0.0
C1028 C 0.45145 0.68623 0.553 0.0
C1029 C 0.475 0.73664 0.56557 0.0
C1030 C 0.48129 0.67238 0.55394 0.0
C1031 C 0.50792 0.69061 0.55921 0.0
H1032 H 0.52121 0.49599 0.81021 0.0
H1033 H 0.56057 0.56479 0.74767 0.0
H1034 H 0.55728 0.5275 0.70426 0.0
H1035 H 0.53727 0.47791 0.68315 0.0
H1036 H 0.49219 0.41177 0.7447 0.0
H1037 H 0.50395 0.44527 0.78967 0.0
C1038 C 0.52972 0.50257 0.78721 0.0
C1039 C 0.5412 0.533 0.78205 0.0
C1040 C 0.52643 0.48156 0.76223 0.0
C1041 C 0.55166 0.54146 0.7521 0.0
C1042 C 0.54967 0.52019 0.72732 0.0
C1043 C 0.53064 0.47053 0.70652 0.0
C1044 C 0.51395 0.44244 0.71073 0.0
C1045 C 0.53624 0.49054 0.73195 0.0
C1046 C 0.50506 0.43332 0.74098 0.0
C1047 C 0.51168 0.4525 0.76663 0.0
H1048 H 0.52808 0.98947 0.78818 0.0
H1049 H 0.44794 0.93395 0.76178 0.0
H1050 H 0.43545 0.97138 0.72003 0.0
H1051 H 0.44922 0.01859 0.68964 0.0
H1052 H 0.52844 0.07468 0.71818 0.0
H1053 H 0.539 0.03863 0.76108 0.0
C1054 C 0.50794 0.98552 0.77318 0.0
C1055 C 0.48928 0.95879 0.77746 0.0
C1056 C 0.50059 0.00739 0.74994 0.0
C1057 C 0.46278 0.95427 0.75855 0.0
C1058 C 0.45563 0.97568 0.73482 0.0
C1059 C 0.46846 0.02317 0.70558 0.0
C1060 C 0.48814 0.04914 0.70063 0.0
C1061 C 0.47455 0.0022 0.73015 0.0
C1062 C 0.51294 0.05487 0.72149 0.0
C1063 C 0.51916 0.03414 0.74589 0.0
H1064 H 0.49687 0.32657 0.94247 0.0
H1065 H 0.42139 0.25953 0.93724 0.0
H1066 H 0.45928 0.21678 0.93365 0.0
H1067 H 0.51338 0.19829 0.93921 0.0
H1068 H 0.58851 0.26519 0.94913 0.0
H1069 H 0.55129 0.30825 0.94317 0.0
C1070 C 0.4887 0.30266 0.9399 0.0
C1071 C 0.45638 0.29617 0.94033 0.0
C1072 C 0.51059 0.27819 0.93894 0.0
C1073 C 0.44615 0.26508 0.93711 0.0
C1074 C 0.4678 0.24064 0.93516 0.0
C1075 C 0.52172 0.22228 0.93934 0.0
C1076 C 0.55362 0.22859 0.94476 0.0
C1077 C 0.50004 0.24687 0.93711 0.0
C1078 C 0.56404 0.25977 0.94509 0.0
C1079 C 0.54275 0.28438 0.94183 0.0
loop_
_geom_bond_atom_site_label_1
_geom_bond_atom_site_label_2
_geom_bond_distance
_geom_bond_site_symmetry_2
_ccdc_geom_bond_type
In0 O1 2.294 . S
In0 O2 2.326 1_455 S
In0 O6 2.266 . S
In0 O7 2.325 . S
In0 O8 2.266 1_455 S
In0 O9 2.326 1_455 S
In0 O11 2.294 1_455 S
In0 O12 2.326 . S
O1 In0 2.294 . S
O1 C10 1.240 1_455 S
O2 In0 2.326 1_655 S
O2 C10 1.252 . S
C3 O6 1.252 . S
C3 O7 1.260 . S
C4 O11 1.240 . S
C4 O12 1.252 1_655 S
C5 O8 1.252 . S
C5 O9 1.260 . S
O6 In0 2.266 . S
O6 C3 1.252 . S
O7 In0 2.325 . S
O7 C3 1.260 . S
O8 In0 2.266 1_655 S
O8 C5 1.252 . S
O9 In0 2.326 1_655 S
O9 C5 1.260 . S
C10 O1 1.240 1_655 S
C10 O2 1.252 . S
O11 In0 2.294 1_655 S
O11 C4 1.240 . S
O12 In0 2.326 . S
O12 C4 1.252 1_455 S
In13 O14 2.294 1_655 S
In13 O15 2.326 . S
In13 O19 2.266 1_655 S
In13 O20 2.326 1_655 S
In13 O21 2.266 . S
In13 O22 2.325 . S
In13 O24 2.294 . S
In13 O25 2.326 1_655 S
O14 In13 2.294 1_455 S
O14 C23 1.240 . S
O15 In13 2.326 . S
O15 C23 1.252 1_655 S
C16 O19 1.252 . S
C16 O20 1.260 . S
C17 O24 1.226 1_455 S
C17 O25 1.266 . S
C18 O21 1.252 . S
C18 O22 1.260 . S
O19 In13 2.266 1_455 S
O19 C16 1.252 . S
O20 In13 2.326 1_455 S
O20 C16 1.260 . S
O21 In13 2.266 . S
O21 C18 1.252 . S
O22 In13 2.325 . S
O22 C18 1.260 . S
C23 O14 1.240 . S
C23 O15 1.252 1_455 S
O24 In13 2.294 . S
O24 C17 1.226 1_655 S
O25 In13 2.326 1_455 S
O25 C17 1.266 . S
In26 O27 2.294 1_455 S
In26 O28 2.326 . S
In26 O32 2.266 1_455 S
In26 O33 2.326 1_455 S
In26 O34 2.266 . S
In26 O35 2.325 . S
In26 O37 2.294 . S
In26 O38 2.326 1_455 S
O27 In26 2.294 1_655 S
O27 C36 1.240 . S
O28 In26 2.326 . S
O28 C36 1.252 1_455 S
C29 O32 1.252 . S
C29 O33 1.260 . S
C30 O37 1.255 . S
C30 O38 1.237 1_455 S
C31 O34 1.252 . S
C31 O35 1.260 . S
O32 In26 2.266 1_655 S
O32 C29 1.252 . S
O33 In26 2.326 1_655 S
O33 C29 1.260 . S
O34 In26 2.266 . S
O34 C31 1.252 . S
O35 In26 2.325 . S
O35 C31 1.260 . S
C36 O27 1.240 . S
C36 O28 1.252 1_655 S
O37 In26 2.294 . S
O37 C30 1.255 . S
O38 In26 2.326 1_655 S
O38 C30 1.237 1_655 S
In39 O40 2.294 . S
In39 O41 2.326 1_655 S
In39 O45 2.266 . S
In39 O46 2.325 . S
In39 O47 2.266 1_655 S
In39 O48 2.326 1_655 S
In39 O50 2.294 1_655 S
In39 O51 2.326 . S
O40 In39 2.294 . S
O40 C49 1.240 . S
O41 In39 2.326 1_455 S
O41 C49 1.252 1_455 S
C42 O45 1.252 . S
C42 O46 1.260 . S
C43 O50 1.240 . S
C43 O51 1.252 1_455 S
C44 O47 1.252 . S
C44 O48 1.260 . S
O45 In39 2.266 . S
O45 C42 1.252 . S
O46 In39 2.325 . S
O46 C42 1.260 . S
O47 In39 2.266 1_455 S
O47 C44 1.252 . S
O48 In39 2.326 1_455 S
O48 C44 1.260 . S
C49 O40 1.240 . S
C49 O41 1.252 1_655 S
O50 In39 2.294 1_455 S
O50 C43 1.240 . S
O51 In39 2.326 . S
O51 C43 1.252 1_655 S
In52 O53 2.294 1_545 S
In52 O54 2.326 . S
In52 O58 2.266 1_545 S
In52 O59 2.326 1_545 S
In52 O60 2.266 . S
In52 O61 2.325 . S
In52 O63 2.294 . S
In52 O64 2.326 1_545 S
O53 In52 2.294 1_565 S
O53 C62 1.240 . S
O54 In52 2.326 . S
O54 C62 1.252 1_545 S
C55 O58 1.252 . S
C55 O59 1.260 . S
C56 O63 1.240 1_565 S
C56 O64 1.252 . S
C57 O60 1.252 . S
C57 O61 1.260 . S
O58 In52 2.266 1_565 S
O58 C55 1.252 . S
O59 In52 2.326 1_565 S
O59 C55 1.260 . S
O60 In52 2.266 . S
O60 C57 1.252 . S
O61 In52 2.325 . S
O61 C57 1.260 . S
C62 O53 1.240 . S
C62 O54 1.252 1_565 S
O63 In52 2.294 . S
O63 C56 1.240 1_545 S
O64 In52 2.326 1_565 S
O64 C56 1.252 . S
In65 O66 2.294 . S
In65 O67 2.326 . S
In65 O71 2.266 . S
In65 O72 2.326 . S
In65 O73 2.266 . S
In65 O74 2.326 . S
In65 O76 2.294 . S
In65 O77 2.326 . S
O66 In65 2.294 . S
O66 C75 1.240 . S
O67 In65 2.326 . S
O67 C75 1.252 . S
C68 O71 1.252 . S
C68 O72 1.260 . S
C69 O76 1.240 . S
C69 O77 1.252 . S
C70 O73 1.252 . S
C70 O74 1.260 . S
O71 In65 2.266 . S
O71 C68 1.252 . S
O72 In65 2.326 . S
O72 C68 1.260 . S
O73 In65 2.266 . S
O73 C70 1.252 . S
O74 In65 2.326 . S
O74 C70 1.260 . S
C75 O66 1.240 . S
C75 O67 1.252 . S
O76 In65 2.294 . S
O76 C69 1.240 . S
O77 In65 2.326 . S
O77 C69 1.252 . S
In78 O79 2.294 1_565 S
In78 O80 2.326 . S
In78 O84 2.266 1_565 S
In78 O85 2.326 1_565 S
In78 O86 2.266 . S
In78 O87 2.325 . S
In78 O89 2.294 . S
In78 O90 2.326 1_565 S
O79 In78 2.294 1_545 S
O79 C88 1.240 . S
O80 In78 2.326 . S
O80 C88 1.252 1_565 S
C81 O84 1.252 . S
C81 O85 1.260 . S
C82 O89 1.226 1_545 S
C82 O90 1.266 . S
C83 O86 1.252 . S
C83 O87 1.260 . S
O84 In78 2.266 1_545 S
O84 C81 1.252 . S
O85 In78 2.326 1_545 S
O85 C81 1.260 . S
O86 In78 2.266 . S
O86 C83 1.252 . S
O87 In78 2.325 . S
O87 C83 1.260 . S
C88 O79 1.240 . S
C88 O80 1.252 1_545 S
O89 In78 2.294 . S
O89 C82 1.226 1_565 S
O90 In78 2.326 1_545 S
O90 C82 1.266 . S
In91 O92 2.294 . S
In91 O93 2.326 . S
In91 O97 2.266 . S
In91 O98 2.326 . S
In91 O99 2.266 . S
In91 O100 2.326 . S
In91 O102 2.294 . S
In91 O103 2.326 . S
O92 In91 2.294 . S
O92 C101 1.240 . S
O93 In91 2.326 . S
O93 C101 1.252 . S
C94 O97 1.252 . S
C94 O98 1.260 . S
C95 O102 1.240 . S
C95 O103 1.252 . S
C96 O99 1.252 . S
C96 O100 1.260 . S
O97 In91 2.266 . S
O97 C94 1.252 . S
O98 In91 2.326 . S
O98 C94 1.260 . S
O99 In91 2.266 . S
O99 C96 1.252 . S
O100 In91 2.326 . S
O100 C96 1.260 . S
C101 O92 1.240 . S
C101 O93 1.252 . S
O102 In91 2.294 . S
O102 C95 1.240 . S
O103 In91 2.326 . S
O103 C95 1.252 . S
In104 O105 2.294 . S
In104 O106 2.326 1_554 S
In104 O110 2.266 . S
In104 O111 2.325 . S
In104 O112 2.266 1_554 S
In104 O113 2.326 1_554 S
In104 O115 2.294 1_554 S
In104 O116 2.326 . S
O105 In104 2.294 . S
O105 C114 1.240 1_554 S
O106 In104 2.326 1_556 S
O106 C114 1.252 . S
C107 O110 1.252 . S
C107 O111 1.260 . S
C108 O115 1.240 . S
C108 O116 1.252 1_556 S
C109 O112 1.252 . S
C109 O113 1.260 . S
O110 In104 2.266 . S
O110 C107 1.252 . S
O111 In104 2.325 . S
O111 C107 1.260 . S
O112 In104 2.266 1_556 S
O112 C109 1.252 . S
O113 In104 2.326 1_556 S
O113 C109 1.260 . S
C114 O105 1.240 1_556 S
C114 O106 1.252 . S
O115 In104 2.294 1_556 S
O115 C108 1.240 . S
O116 In104 2.326 . S
O116 C108 1.252 1_554 S
In117 O118 2.294 . S
In117 O119 2.326 . S
In117 O123 2.266 . S
In117 O124 2.326 . S
In117 O125 2.266 . S
In117 O126 2.326 . S
In117 O128 2.294 . S
In117 O129 2.326 . S
O118 In117 2.294 . S
O118 C127 1.240 . S
O119 In117 2.326 . S
O119 C127 1.252 . S
C120 O123 1.252 . S
C120 O124 1.260 . S
C121 O128 1.240 . S
C121 O129 1.252 . S
C122 O125 1.252 . S
C122 O126 1.260 . S
O123 In117 2.266 . S
O123 C120 1.252 . S
O124 In117 2.326 . S
O124 C120 1.260 . S
O125 In117 2.266 . S
O125 C122 1.252 . S
O126 In117 2.326 . S
O126 C122 1.260 . S
C127 O118 1.240 . S
C127 O119 1.252 . S
O128 In117 2.294 . S
O128 C121 1.240 . S
O129 In117 2.326 . S
O129 C121 1.252 . S
In130 O131 2.294 . S
In130 O132 2.326 . S
In130 O136 2.266 . S
In130 O137 2.326 . S
In130 O138 2.266 . S
In130 O139 2.326 . S
In130 O141 2.294 . S
In130 O142 2.326 . S
O131 In130 2.294 . S
O131 C140 1.240 . S
O132 In130 2.326 . S
O132 C140 1.252 . S
C133 O136 1.252 . S
C133 O137 1.260 . S
C134 O141 1.240 . S
C134 O142 1.252 . S
C135 O138 1.252 . S
C135 O139 1.260 . S
O136 In130 2.266 . S
O136 C133 1.252 . S
O137 In130 2.326 . S
O137 C133 1.260 . S
O138 In130 2.266 . S
O138 C135 1.252 . S
O139 In130 2.326 . S
O139 C135 1.260 . S
C140 O131 1.240 . S
C140 O132 1.252 . S
O141 In130 2.294 . S
O141 C134 1.240 . S
O142 In130 2.326 . S
O142 C134 1.252 . S
In143 O144 2.294 . S
In143 O145 2.326 . S
In143 O149 2.266 . S
In143 O150 2.326 . S
In143 O151 2.266 . S
In143 O152 2.326 . S
In143 O154 2.294 . S
In143 O155 2.326 . S
O144 In143 2.294 . S
O144 C153 1.240 . S
O145 In143 2.326 . S
O145 C153 1.252 . S
C146 O149 1.252 . S
C146 O150 1.260 . S
C147 O154 1.240 . S
C147 O155 1.252 . S
C148 O151 1.252 . S
C148 O152 1.260 . S
O149 In143 2.266 . S
O149 C146 1.252 . S
O150 In143 2.326 . S
O150 C146 1.260 . S
O151 In143 2.266 . S
O151 C148 1.252 . S
O152 In143 2.326 . S
O152 C148 1.260 . S
C153 O144 1.240 . S
C153 O145 1.252 . S
O154 In143 2.294 . S
O154 C147 1.240 . S
O155 In143 2.326 . S
O155 C147 1.252 . S
In156 O157 2.294 . S
In156 O158 2.326 . S
In156 O162 2.266 . S
In156 O163 2.326 . S
In156 O164 2.266 . S
In156 O165 2.326 . S
In156 O167 2.294 . S
In156 O168 2.326 . S
O157 In156 2.294 . S
O157 C166 1.240 . S
O158 In156 2.326 . S
O158 C166 1.252 . S
C159 O162 1.252 . S
C159 O163 1.260 . S
C160 O167 1.240 . S
C160 O168 1.252 . S
C161 O164 1.252 . S
C161 O165 1.260 . S
O162 In156 2.266 . S
O162 C159 1.252 . S
O163 In156 2.326 . S
O163 C159 1.260 . S
O164 In156 2.266 . S
O164 C161 1.252 . S
O165 In156 2.326 . S
O165 C161 1.260 . S
C166 O157 1.240 . S
C166 O158 1.252 . S
O167 In156 2.294 . S
O167 C160 1.240 . S
O168 In156 2.326 . S
O168 C160 1.252 . S
In169 O170 2.294 . S
In169 O171 2.326 . S
In169 O175 2.266 . S
In169 O176 2.326 . S
In169 O177 2.266 . S
In169 O178 2.326 . S
In169 O180 2.294 . S
In169 O181 2.326 . S
O170 In169 2.294 . S
O170 C179 1.240 . S
O171 In169 2.326 . S
O171 C179 1.252 . S
C172 O175 1.252 . S
C172 O176 1.260 . S
C173 O180 1.240 . S
C173 O181 1.252 . S
C174 O177 1.252 . S
C174 O178 1.260 . S
O175 In169 2.266 . S
O175 C172 1.252 . S
O176 In169 2.326 . S
O176 C172 1.260 . S
O177 In169 2.266 . S
O177 C174 1.252 . S
O178 In169 2.326 . S
O178 C174 1.260 . S
C179 O170 1.240 . S
C179 O171 1.252 . S
O180 In169 2.294 . S
O180 C173 1.240 . S
O181 In169 2.326 . S
O181 C173 1.252 . S
In182 O183 2.294 . S
In182 O184 2.326 . S
In182 O188 2.266 . S
In182 O189 2.326 . S
In182 O190 2.266 . S
In182 O191 2.326 . S
In182 O193 2.294 . S
In182 O194 2.326 . S
O183 In182 2.294 . S
O183 C192 1.240 . S
O184 In182 2.326 . S
O184 C192 1.252 . S
C185 O188 1.252 . S
C185 O189 1.260 . S
C186 O193 1.240 . S
C186 O194 1.252 . S
C187 O190 1.252 . S
C187 O191 1.260 . S
O188 In182 2.266 . S
O188 C185 1.252 . S
O189 In182 2.326 . S
O189 C185 1.260 . S
O190 In182 2.266 . S
O190 C187 1.252 . S
O191 In182 2.326 . S
O191 C187 1.260 . S
C192 O183 1.240 . S
C192 O184 1.252 . S
O193 In182 2.294 . S
O193 C186 1.240 . S
O194 In182 2.326 . S
O194 C186 1.252 . S
In195 O196 2.294 . S
In195 O197 2.326 . S
In195 O201 2.266 . S
In195 O202 2.326 . S
In195 O203 2.266 . S
In195 O204 2.326 . S
In195 O206 2.294 . S
In195 O207 2.326 . S
O196 In195 2.294 . S
O196 C205 1.240 . S
O197 In195 2.326 . S
O197 C205 1.252 . S
C198 O201 1.252 . S
C198 O202 1.260 . S
C199 O206 1.240 . S
C199 O207 1.252 . S
C200 O203 1.252 . S
C200 O204 1.260 . S
O201 In195 2.266 . S
O201 C198 1.252 . S
O202 In195 2.326 . S
O202 C198 1.260 . S
O203 In195 2.266 . S
O203 C200 1.252 . S
O204 In195 2.326 . S
O204 C200 1.260 . S
C205 O196 1.240 . S
C205 O197 1.252 . S
O206 In195 2.294 . S
O206 C199 1.240 . S
O207 In195 2.326 . S
O207 C199 1.252 . S
In208 O209 2.294 . S
In208 O210 2.326 . S
In208 O214 2.266 . S
In208 O215 2.326 . S
In208 O216 2.266 . S
In208 O217 2.326 . S
In208 O219 2.294 . S
In208 O220 2.326 . S
O209 In208 2.294 . S
O209 C218 1.240 . S
O210 In208 2.326 . S
O210 C218 1.252 . S
C211 O214 1.252 . S
C211 O215 1.260 . S
C212 O219 1.240 . S
C212 O220 1.252 . S
C213 O216 1.252 . S
C213 O217 1.260 . S
O214 In208 2.266 . S
O214 C211 1.252 . S
O215 In208 2.326 . S
O215 C211 1.260 . S
O216 In208 2.266 . S
O216 C213 1.252 . S
O217 In208 2.326 . S
O217 C213 1.260 . S
C218 O209 1.240 . S
C218 O210 1.252 . S
O219 In208 2.294 . S
O219 C212 1.240 . S
O220 In208 2.326 . S
O220 C212 1.252 . S
In221 O222 2.294 1_565 S
In221 O223 2.326 . S
In221 O227 2.266 1_565 S
In221 O228 2.326 1_565 S
In221 O229 2.266 . S
In221 O230 2.325 . S
In221 O232 2.294 . S
In221 O233 2.326 1_565 S
O222 In221 2.294 1_545 S
O222 C231 1.240 . S
O223 In221 2.326 . S
O223 C231 1.252 1_565 S
C224 O227 1.252 . S
C224 O228 1.260 . S
C225 O232 1.240 . S
C225 O233 1.252 1_565 S
C226 O229 1.252 . S
C226 O230 1.260 . S
O227 In221 2.266 1_545 S
O227 C224 1.252 . S
O228 In221 2.326 1_545 S
O228 C224 1.260 . S
O229 In221 2.266 . S
O229 C226 1.252 . S
O230 In221 2.325 . S
O230 C226 1.260 . S
C231 O222 1.240 . S
C231 O223 1.252 1_545 S
O232 In221 2.294 . S
O232 C225 1.240 . S
O233 In221 2.326 1_545 S
O233 C225 1.252 1_545 S
In234 O235 2.294 . S
In234 O236 2.326 . S
In234 O240 2.266 . S
In234 O241 2.326 . S
In234 O242 2.266 . S
In234 O243 2.326 . S
In234 O245 2.294 . S
In234 O246 2.326 . S
O235 In234 2.294 . S
O235 C244 1.240 . S
O236 In234 2.326 . S
O236 C244 1.252 . S
C237 O240 1.252 . S
C237 O241 1.260 . S
C238 O245 1.240 . S
C238 O246 1.252 . S
C239 O242 1.252 . S
C239 O243 1.260 . S
O240 In234 2.266 . S
O240 C237 1.252 . S
O241 In234 2.326 . S
O241 C237 1.260 . S
O242 In234 2.266 . S
O242 C239 1.252 . S
O243 In234 2.326 . S
O243 C239 1.260 . S
C244 O235 1.240 . S
C244 O236 1.252 . S
O245 In234 2.294 . S
O245 C238 1.240 . S
O246 In234 2.326 . S
O246 C238 1.252 . S
In247 O248 2.294 . S
In247 O249 2.326 1_545 S
In247 O253 2.266 . S
In247 O254 2.325 . S
In247 O255 2.266 1_545 S
In247 O256 2.326 1_545 S
In247 O258 2.294 1_545 S
In247 O259 2.326 . S
O248 In247 2.294 . S
O248 C257 1.255 . S
O249 In247 2.326 1_565 S
O249 C257 1.237 1_565 S
C250 O253 1.252 . S
C250 O254 1.260 . S
C251 O258 1.240 . S
C251 O259 1.252 1_565 S
C252 O255 1.252 . S
C252 O256 1.260 . S
O253 In247 2.266 . S
O253 C250 1.252 . S
O254 In247 2.325 . S
O254 C250 1.260 . S
O255 In247 2.266 1_565 S
O255 C252 1.252 . S
O256 In247 2.326 1_565 S
O256 C252 1.260 . S
C257 O248 1.255 . S
C257 O249 1.237 1_545 S
O258 In247 2.294 1_565 S
O258 C251 1.240 . S
O259 In247 2.326 . S
O259 C251 1.252 1_545 S
In260 O261 2.294 . S
In260 O262 2.326 . S
In260 O266 2.266 . S
In260 O267 2.326 . S
In260 O268 2.266 . S
In260 O269 2.326 . S
In260 O271 2.294 . S
In260 O272 2.326 . S
O261 In260 2.294 . S
O261 C270 1.240 . S
O262 In260 2.326 . S
O262 C270 1.252 . S
C263 O266 1.252 . S
C263 O267 1.260 . S
C264 O271 1.240 . S
C264 O272 1.252 . S
C265 O268 1.252 . S
C265 O269 1.260 . S
O266 In260 2.266 . S
O266 C263 1.252 . S
O267 In260 2.326 . S
O267 C263 1.260 . S
O268 In260 2.266 . S
O268 C265 1.252 . S
O269 In260 2.326 . S
O269 C265 1.260 . S
C270 O261 1.240 . S
C270 O262 1.252 . S
O271 In260 2.294 . S
O271 C264 1.240 . S
O272 In260 2.326 . S
O272 C264 1.252 . S
In273 O274 2.294 . S
In273 O275 2.326 1_556 S
In273 O279 2.266 . S
In273 O280 2.325 . S
In273 O281 2.266 1_556 S
In273 O282 2.326 1_556 S
In273 O284 2.294 1_556 S
In273 O285 2.326 . S
O274 In273 2.294 . S
O274 C283 1.240 . S
O275 In273 2.326 1_554 S
O275 C283 1.252 1_554 S
C276 O279 1.252 . S
C276 O280 1.260 . S
C277 O284 1.240 . S
C277 O285 1.252 1_554 S
C278 O281 1.252 . S
C278 O282 1.260 . S
O279 In273 2.266 . S
O279 C276 1.252 . S
O280 In273 2.325 . S
O280 C276 1.260 . S
O281 In273 2.266 1_554 S
O281 C278 1.252 . S
O282 In273 2.326 1_554 S
O282 C278 1.260 . S
C283 O274 1.240 . S
C283 O275 1.252 1_556 S
O284 In273 2.294 1_554 S
O284 C277 1.240 . S
O285 In273 2.326 . S
O285 C277 1.252 1_556 S
In286 O287 2.294 . S
In286 O288 2.326 1_556 S
In286 O292 2.266 . S
In286 O293 2.325 . S
In286 O294 2.266 1_556 S
In286 O295 2.326 1_556 S
In286 O297 2.294 1_556 S
In286 O298 2.326 . S
O287 In286 2.294 . S
O287 C296 1.226 1_556 S
O288 In286 2.326 1_554 S
O288 C296 1.266 . S
C289 O292 1.252 . S
C289 O293 1.260 . S
C290 O297 1.240 . S
C290 O298 1.252 1_554 S
C291 O294 1.252 . S
C291 O295 1.260 . S
O292 In286 2.266 . S
O292 C289 1.252 . S
O293 In286 2.325 . S
O293 C289 1.260 . S
O294 In286 2.266 1_554 S
O294 C291 1.252 . S
O295 In286 2.326 1_554 S
O295 C291 1.260 . S
C296 O287 1.226 1_554 S
C296 O288 1.266 . S
O297 In286 2.294 1_554 S
O297 C290 1.240 . S
O298 In286 2.326 . S
O298 C290 1.252 1_556 S
In299 O300 2.294 1_554 S
In299 O301 2.326 . S
In299 O305 2.266 1_554 S
In299 O306 2.326 1_554 S
In299 O307 2.266 . S
In299 O308 2.325 . S
In299 O310 2.294 . S
In299 O311 2.326 1_554 S
O300 In299 2.294 1_556 S
O300 C309 1.240 . S
O301 In299 2.326 . S
O301 C309 1.252 1_554 S
C302 O305 1.252 . S
C302 O306 1.260 . S
C303 O310 1.255 . S
C303 O311 1.237 1_554 S
C304 O307 1.252 . S
C304 O308 1.260 . S
O305 In299 2.266 1_556 S
O305 C302 1.252 . S
O306 In299 2.326 1_556 S
O306 C302 1.260 . S
O307 In299 2.266 . S
O307 C304 1.252 . S
O308 In299 2.325 . S
O308 C304 1.260 . S
C309 O300 1.240 . S
C309 O301 1.252 1_556 S
O310 In299 2.294 . S
O310 C303 1.255 . S
O311 In299 2.326 1_556 S
O311 C303 1.237 1_556 S
H312 C318 0.930 . S
H313 C321 0.930 . S
H314 C322 0.930 . S
H315 C323 0.930 . S
H316 C326 0.930 . S
H317 C327 0.930 . S
C318 H312 0.930 . S
C318 C319 1.355 . S
C318 C320 1.415 . S
C319 C318 1.355 . S
C319 C321 1.419 . S
C320 C318 1.415 . S
C320 C325 1.425 . S
C320 C327 1.409 . S
C321 H313 0.930 . S
C321 C319 1.419 . S
C321 C322 1.362 . S
C322 H314 0.930 . S
C322 C321 1.362 . S
C322 C325 1.409 . S
C323 H315 0.930 . S
C323 C324 1.355 . S
C323 C325 1.415 . S
C324 C323 1.355 . S
C324 C326 1.419 . S
C325 C320 1.425 . S
C325 C322 1.409 . S
C325 C323 1.415 . S
C326 H316 0.930 . S
C326 C324 1.419 . S
C326 C327 1.362 . S
C327 H317 0.930 . S
C327 C320 1.409 . S
C327 C326 1.362 . S
H328 C334 0.930 . S
H329 C337 0.930 . S
H330 C338 0.930 . S
H331 C339 0.930 . S
H332 C342 0.930 . S
H333 C343 0.930 . S
C334 H328 0.930 . S
C334 C335 1.355 . S
C334 C336 1.415 . S
C335 C334 1.355 . S
C335 C337 1.419 . S
C336 C334 1.415 . S
C336 C341 1.425 . S
C336 C343 1.409 . S
C337 H329 0.930 . S
C337 C335 1.419 . S
C337 C338 1.362 . S
C338 H330 0.930 . S
C338 C337 1.362 . S
C338 C341 1.409 . S
C339 H331 0.930 . S
C339 C340 1.355 . S
C339 C341 1.415 . S
C340 C339 1.355 . S
C340 C342 1.419 . S
C341 C336 1.425 . S
C341 C338 1.409 . S
C341 C339 1.415 . S
C342 H332 0.930 . S
C342 C340 1.419 . S
C342 C343 1.362 . S
C343 H333 0.930 . S
C343 C336 1.409 . S
C343 C342 1.362 . S
H344 C350 0.930 . S
H345 C353 0.930 . S
H346 C354 0.930 . S
H347 C355 0.930 . S
H348 C358 0.930 . S
H349 C359 0.930 . S
C350 H344 0.930 . S
C350 C351 1.355 . S
C350 C352 1.415 . S
C351 C350 1.355 . S
C351 C353 1.419 . S
C352 C350 1.415 . S
C352 C357 1.425 . S
C352 C359 1.409 1_554 S
C353 H345 0.930 . S
C353 C351 1.419 . S
C353 C354 1.362 . S
C354 H346 0.930 . S
C354 C353 1.362 . S
C354 C357 1.409 . S
C355 H347 0.930 . S
C355 C356 1.355 1_554 S
C355 C357 1.415 . S
C356 C355 1.355 1_556 S
C356 C358 1.419 . S
C357 C352 1.425 . S
C357 C354 1.409 . S
C357 C355 1.415 . S
C358 H348 0.930 . S
C358 C356 1.419 . S
C358 C359 1.362 . S
C359 H349 0.930 . S
C359 C352 1.409 1_556 S
C359 C358 1.362 . S
H360 C366 0.930 . S
H361 C369 0.930 . S
H362 C370 0.930 . S
H363 C371 0.930 . S
H364 C374 0.930 . S
H365 C375 0.930 . S
C366 H360 0.930 . S
C366 C367 1.355 . S
C366 C368 1.415 . S
C367 C366 1.355 . S
C367 C369 1.419 . S
C368 C366 1.415 . S
C368 C373 1.425 . S
C368 C375 1.409 . S
C369 H361 0.930 . S
C369 C367 1.419 . S
C369 C370 1.362 . S
C370 H362 0.930 . S
C370 C369 1.362 . S
C370 C373 1.409 . S
C371 H363 0.930 . S
C371 C372 1.355 . S
C371 C373 1.415 1_556 S
C372 C371 1.355 . S
C372 C374 1.419 . S
C373 C368 1.425 . S
C373 C370 1.409 . S
C373 C371 1.415 1_554 S
C374 H364 0.930 . S
C374 C372 1.419 . S
C374 C375 1.362 1_556 S
C375 H365 0.930 . S
C375 C368 1.409 . S
C375 C374 1.362 1_554 S
H376 C382 0.930 . S
H377 C385 0.930 . S
H378 C386 0.930 . S
H379 C387 0.930 . S
H380 C390 0.930 . S
H381 C391 0.930 . S
C382 H376 0.930 . S
C382 C383 1.355 . S
C382 C384 1.415 . S
C383 C382 1.355 . S
C383 C385 1.419 . S
C384 C382 1.415 . S
C384 C389 1.425 . S
C384 C391 1.409 . S
C385 H377 0.930 . S
C385 C383 1.419 . S
C385 C386 1.362 . S
C386 H378 0.930 . S
C386 C385 1.362 . S
C386 C389 1.409 . S
C387 H379 0.930 . S
C387 C388 1.355 . S
C387 C389 1.415 . S
C388 C387 1.355 . S
C388 C390 1.419 . S
C389 C384 1.425 . S
C389 C386 1.409 . S
C389 C387 1.415 . S
C390 H380 0.930 . S
C390 C388 1.419 . S
C390 C391 1.362 . S
C391 H381 0.930 . S
C391 C384 1.409 . S
C391 C390 1.362 . S
H392 C398 0.930 . S
H393 C401 0.930 . S
H394 C402 0.930 . S
H395 C403 0.930 . S
H396 C406 0.930 . S
H397 C407 0.930 . S
C398 H392 0.930 . S
C398 C399 1.355 . S
C398 C400 1.415 . S
C399 C398 1.355 . S
C399 C401 1.419 . S
C400 C398 1.415 . S
C400 C405 1.425 . S
C400 C407 1.409 . S
C401 H393 0.930 . S
C401 C399 1.419 . S
C401 C402 1.362 . S
C402 H394 0.930 . S
C402 C401 1.362 . S
C402 C405 1.409 . S
C403 H395 0.930 . S
C403 C404 1.355 . S
C403 C405 1.415 . S
C404 C403 1.355 . S
C404 C406 1.419 . S
C405 C400 1.425 . S
C405 C402 1.409 . S
C405 C403 1.415 . S
C406 H396 0.930 . S
C406 C404 1.419 . S
C406 C407 1.362 . S
C407 H397 0.930 . S
C407 C400 1.409 . S
C407 C406 1.362 . S
H408 C414 0.930 . S
H409 C417 0.930 . S
H410 C418 0.930 . S
H411 C419 0.930 . S
H412 C422 0.930 . S
H413 C423 0.930 . S
C414 H408 0.930 . S
C414 C415 1.355 . S
C414 C416 1.415 . S
C415 C414 1.355 . S
C415 C417 1.419 . S
C416 C414 1.415 . S
C416 C421 1.425 . S
C416 C423 1.409 . S
C417 H409 0.930 . S
C417 C415 1.419 . S
C417 C418 1.362 . S
C418 H410 0.930 . S
C418 C417 1.362 . S
C418 C421 1.409 . S
C419 H411 0.930 . S
C419 C420 1.355 . S
C419 C421 1.415 . S
C420 C419 1.355 . S
C420 C422 1.419 . S
C421 C416 1.425 . S
C421 C418 1.409 . S
C421 C419 1.415 . S
C422 H412 0.930 . S
C422 C420 1.419 . S
C422 C423 1.362 . S
C423 H413 0.930 . S
C423 C416 1.409 . S
C423 C422 1.362 . S
H424 C430 0.930 . S
H425 C433 0.930 . S
H426 C434 0.930 . S
H427 C435 0.930 . S
H428 C438 0.930 . S
H429 C439 0.930 . S
C430 H424 0.930 . S
C430 C431 1.355 . S
C430 C432 1.415 . S
C431 C430 1.355 . S
C431 C433 1.419 . S
C432 C430 1.415 . S
C432 C437 1.425 . S
C432 C439 1.409 . S
C433 H425 0.930 . S
C433 C431 1.419 . S
C433 C434 1.362 . S
C434 H426 0.930 . S
C434 C433 1.362 . S
C434 C437 1.409 . S
C435 H427 0.930 . S
C435 C436 1.355 . S
C435 C437 1.415 . S
C436 C435 1.355 . S
C436 C438 1.419 . S
C437 C432 1.425 . S
C437 C434 1.409 . S
C437 C435 1.415 . S
C438 H428 0.930 . S
C438 C436 1.419 . S
C438 C439 1.362 . S
C439 H429 0.930 . S
C439 C432 1.409 . S
C439 C438 1.362 . S
H440 C446 0.930 . S
H441 C449 0.930 . S
H442 C450 0.930 . S
H443 C451 0.930 . S
H444 C454 0.954 . S
H445 C455 0.930 . S
C446 H440 0.930 . S
C446 C447 1.355 . S
C446 C448 1.415 . S
C447 C446 1.355 . S
C447 C449 1.419 . S
C448 C446 1.415 . S
C448 C453 1.425 . S
C448 C455 1.409 . S
C449 H441 0.930 . S
C449 C447 1.419 . S
C449 C450 1.362 . S
C450 H442 0.930 . S
C450 C449 1.362 . S
C450 C453 1.409 . S
C451 H443 0.930 . S
C451 C452 1.355 . S
C451 C453 1.415 . S
C452 C451 1.355 . S
C452 C454 1.419 . S
C453 C448 1.425 . S
C453 C450 1.409 . S
C453 C451 1.415 . S
C454 H444 0.954 . S
C454 C452 1.419 . S
C454 C455 1.362 . S
C455 H445 0.930 . S
C455 C448 1.409 . S
C455 C454 1.362 . S
H456 C462 0.930 . S
H457 C465 0.930 1_655 S
H458 C466 0.930 1_655 S
H459 C467 0.930 . S
H460 C470 0.930 . S
H461 C471 0.930 . S
C462 H456 0.930 . S
C462 C463 1.355 . S
C462 C464 1.415 . S
C463 C462 1.355 . S
C463 C465 1.419 . S
C464 C462 1.415 . S
C464 C469 1.425 . S
C464 C471 1.409 . S
C465 H457 0.930 1_455 S
C465 C463 1.419 . S
C465 C466 1.362 . S
C466 H458 0.930 1_455 S
C466 C465 1.362 . S
C466 C469 1.409 . S
C467 H459 0.930 . S
C467 C468 1.355 . S
C467 C469 1.415 . S
C468 C467 1.355 . S
C468 C470 1.419 . S
C469 C464 1.425 . S
C469 C466 1.409 . S
C469 C467 1.415 . S
C470 H460 0.930 . S
C470 C468 1.419 . S
C470 C471 1.362 . S
C471 H461 0.930 . S
C471 C464 1.409 . S
C471 C470 1.362 . S
H472 C478 0.930 . S
H473 C481 0.930 . S
H474 C482 0.930 . S
H475 C483 0.930 . S
H476 C486 0.930 . S
H477 C487 0.930 . S
C478 H472 0.930 . S
C478 C479 1.355 . S
C478 C480 1.415 . S
C479 C478 1.355 . S
C479 C481 1.419 . S
C480 C478 1.415 . S
C480 C485 1.425 . S
C480 C487 1.409 . S
C481 H473 0.930 . S
C481 C479 1.419 . S
C481 C482 1.362 . S
C482 H474 0.930 . S
C482 C481 1.362 . S
C482 C485 1.409 . S
C483 H475 0.930 . S
C483 C484 1.355 . S
C483 C485 1.415 1_545 S
C484 C483 1.355 . S
C484 C486 1.419 . S
C485 C480 1.425 . S
C485 C482 1.409 . S
C485 C483 1.415 1_565 S
C486 H476 0.930 . S
C486 C484 1.419 . S
C486 C487 1.362 1_545 S
C487 H477 0.930 . S
C487 C480 1.409 . S
C487 C486 1.362 1_565 S
H488 C494 0.930 . S
H489 C497 0.930 . S
H490 C498 0.930 . S
H491 C499 0.930 . S
H492 C502 0.930 . S
H493 C503 0.930 . S
C494 H488 0.930 . S
C494 C495 1.355 . S
C494 C496 1.415 . S
C495 C494 1.355 . S
C495 C497 1.419 . S
C496 C494 1.415 . S
C496 C501 1.425 . S
C496 C503 1.409 . S
C497 H489 0.930 . S
C497 C495 1.419 . S
C497 C498 1.362 . S
C498 H490 0.930 . S
C498 C497 1.362 . S
C498 C501 1.409 . S
C499 H491 0.930 . S
C499 C500 1.355 . S
C499 C501 1.415 . S
C500 C499 1.355 . S
C500 C502 1.419 . S
C501 C496 1.425 . S
C501 C498 1.409 . S
C501 C499 1.415 . S
C502 H492 0.930 . S
C502 C500 1.419 . S
C502 C503 1.362 . S
C503 H493 0.930 . S
C503 C496 1.409 . S
C503 C502 1.362 . S
H504 C510 0.930 . S
H505 C513 0.930 . S
H506 C514 0.930 . S
H507 C515 0.930 . S
H508 C518 0.930 . S
H509 C519 0.930 . S
C510 H504 0.930 . S
C510 C511 1.355 . S
C510 C512 1.415 1_554 S
C511 C510 1.355 . S
C511 C513 1.419 . S
C512 C510 1.415 1_556 S
C512 C517 1.425 . S
C512 C519 1.409 . S
C513 H505 0.930 . S
C513 C511 1.419 . S
C513 C514 1.362 1_554 S
C514 H506 0.930 . S
C514 C513 1.362 1_556 S
C514 C517 1.409 . S
C515 H507 0.930 . S
C515 C516 1.355 . S
C515 C517 1.415 . S
C516 C515 1.355 . S
C516 C518 1.419 . S
C517 C512 1.425 . S
C517 C514 1.409 . S
C517 C515 1.415 . S
C518 H508 0.930 . S
C518 C516 1.419 . S
C518 C519 1.362 . S
C519 H509 0.930 . S
C519 C512 1.409 . S
C519 C518 1.362 . S
H520 C526 0.930 . S
H521 C529 0.930 . S
H522 C530 0.931 . S
H523 C531 0.930 . S
H524 C534 0.930 . S
H525 C535 0.930 . S
C526 H520 0.930 . S
C526 C527 1.355 1_556 S
C526 C528 1.415 . S
C527 C526 1.355 1_554 S
C527 C529 1.419 . S
C528 C526 1.415 . S
C528 C533 1.425 . S
C528 C535 1.409 . S
C529 H521 0.930 . S
C529 C527 1.419 . S
C529 C530 1.373 . S
C530 H522 0.931 . S
C530 C529 1.373 . S
C530 C533 1.397 1_554 S
C531 H523 0.930 . S
C531 C532 1.355 . S
C531 C533 1.415 . S
C532 C531 1.355 . S
C532 C534 1.419 . S
C533 C528 1.425 . S
C533 C530 1.397 1_556 S
C533 C531 1.415 . S
C534 H524 0.930 . S
C534 C532 1.419 . S
C534 C535 1.362 . S
C535 H525 0.930 . S
C535 C528 1.409 . S
C535 C534 1.362 . S
H536 C542 0.930 . S
H537 C545 0.930 . S
H538 C546 0.930 . S
H539 C547 0.930 . S
H540 C550 0.930 . S
H541 C551 0.930 . S
C542 H536 0.930 . S
C542 C543 1.355 . S
C542 C544 1.415 . S
C543 C542 1.355 . S
C543 C545 1.419 . S
C544 C542 1.415 . S
C544 C549 1.425 . S
C544 C551 1.409 . S
C545 H537 0.930 . S
C545 C543 1.419 . S
C545 C546 1.362 . S
C546 H538 0.930 . S
C546 C545 1.362 . S
C546 C549 1.409 . S
C547 H539 0.930 . S
C547 C548 1.355 . S
C547 C549 1.415 . S
C548 C547 1.355 . S
C548 C550 1.419 . S
C549 C544 1.425 . S
C549 C546 1.409 . S
C549 C547 1.415 . S
C550 H540 0.930 . S
C550 C548 1.419 . S
C550 C551 1.362 . S
C551 H541 0.930 . S
C551 C544 1.409 . S
C551 C550 1.362 . S
H552 C558 0.930 . S
H553 C561 0.930 . S
H554 C562 0.930 . S
H555 C563 0.930 . S
H556 C566 0.930 . S
H557 C567 0.930 . S
C558 H552 0.930 . S
C558 C559 1.355 . S
C558 C560 1.415 . S
C559 C558 1.355 . S
C559 C561 1.419 . S
C560 C558 1.415 . S
C560 C565 1.425 . S
C560 C567 1.409 . S
C561 H553 0.930 . S
C561 C559 1.419 . S
C561 C562 1.362 . S
C562 H554 0.930 . S
C562 C561 1.362 . S
C562 C565 1.409 . S
C563 H555 0.930 . S
C563 C564 1.355 . S
C563 C565 1.415 . S
C564 C563 1.355 . S
C564 C566 1.419 . S
C565 C560 1.425 . S
C565 C562 1.409 . S
C565 C563 1.415 . S
C566 H556 0.930 . S
C566 C564 1.419 . S
C566 C567 1.362 . S
C567 H557 0.930 . S
C567 C560 1.409 . S
C567 C566 1.362 . S
H568 C574 0.930 . S
H569 C577 0.930 . S
H570 C578 0.930 . S
H571 C579 0.930 . S
H572 C582 0.930 . S
H573 C583 0.930 . S
C574 H568 0.930 . S
C574 C575 1.355 . S
C574 C576 1.415 1_455 S
C575 C574 1.355 . S
C575 C577 1.419 . S
C576 C574 1.415 1_655 S
C576 C581 1.425 . S
C576 C583 1.409 . S
C577 H569 0.930 . S
C577 C575 1.419 . S
C577 C578 1.362 1_455 S
C578 H570 0.930 . S
C578 C577 1.362 1_655 S
C578 C581 1.409 . S
C579 H571 0.930 . S
C579 C580 1.355 . S
C579 C581 1.415 . S
C580 C579 1.355 . S
C580 C582 1.419 . S
C581 C576 1.425 . S
C581 C578 1.409 . S
C581 C579 1.415 . S
C582 H572 0.930 . S
C582 C580 1.419 . S
C582 C583 1.362 . S
C583 H573 0.930 . S
C583 C576 1.409 . S
C583 C582 1.362 . S
H584 C590 0.930 . S
H585 C593 0.930 . S
H586 C594 0.930 . S
H587 C595 0.930 . S
H588 C598 0.930 . S
H589 C599 0.930 . S
C590 H584 0.930 . S
C590 C591 1.355 . S
C590 C592 1.415 1_655 S
C591 C590 1.355 . S
C591 C593 1.419 . S
C592 C590 1.415 1_455 S
C592 C597 1.425 . S
C592 C599 1.409 . S
C593 H585 0.930 . S
C593 C591 1.419 . S
C593 C594 1.362 1_655 S
C594 H586 0.930 . S
C594 C593 1.362 1_455 S
C594 C597 1.409 . S
C595 H587 0.930 . S
C595 C596 1.355 . S
C595 C597 1.415 . S
C596 C595 1.355 . S
C596 C598 1.419 . S
C597 C592 1.425 . S
C597 C594 1.409 . S
C597 C595 1.415 . S
C598 H588 0.930 . S
C598 C596 1.419 . S
C598 C599 1.362 . S
C599 H589 0.930 . S
C599 C592 1.409 . S
C599 C598 1.362 . S
H600 C606 0.930 . S
H601 C609 0.930 . S
H602 C610 0.930 . S
H603 C611 0.930 . S
H604 C614 0.930 . S
H605 C615 0.937 . S
C606 H600 0.930 . S
C606 C607 1.355 . S
C606 C608 1.415 1_455 S
C607 C606 1.355 . S
C607 C609 1.419 1_455 S
C608 C606 1.415 1_655 S
C608 C613 1.425 . S
C608 C615 1.409 . S
C609 H601 0.930 . S
C609 C607 1.419 1_655 S
C609 C610 1.362 . S
C610 H602 0.930 . S
C610 C609 1.362 . S
C610 C613 1.409 . S
C611 H603 0.930 . S
C611 C612 1.355 . S
C611 C613 1.415 . S
C612 C611 1.355 . S
C612 C614 1.419 . S
C613 C608 1.425 . S
C613 C610 1.409 . S
C613 C611 1.415 . S
C614 H604 0.930 . S
C614 C612 1.419 . S
C614 C615 1.362 . S
C615 H605 0.937 . S
C615 C608 1.409 . S
C615 C614 1.362 . S
H616 C622 0.930 . S
H617 C625 0.930 . S
H618 C626 0.930 . S
H619 C627 0.930 . S
H620 C630 0.926 1_655 S
H621 C631 0.930 . S
C622 H616 0.930 . S
C622 C623 1.355 . S
C622 C624 1.415 . S
C623 C622 1.355 . S
C623 C625 1.419 . S
C624 C622 1.415 . S
C624 C629 1.425 . S
C624 C631 1.409 . S
C625 H617 0.930 . S
C625 C623 1.419 . S
C625 C626 1.362 . S
C626 H618 0.930 . S
C626 C625 1.362 . S
C626 C629 1.409 . S
C627 H619 0.930 . S
C627 C628 1.355 . S
C627 C629 1.415 1_655 S
C628 C627 1.355 . S
C628 C630 1.403 1_655 S
C629 C624 1.425 . S
C629 C626 1.409 . S
C629 C627 1.415 1_455 S
C630 H620 0.926 1_455 S
C630 C628 1.403 1_455 S
C630 C631 1.383 . S
C631 H621 0.930 . S
C631 C624 1.409 . S
C631 C630 1.383 . S
H632 C638 0.930 . S
H633 C641 0.930 . S
H634 C642 0.930 . S
H635 C643 0.930 . S
H636 C646 0.930 . S
H637 C647 0.930 . S
C638 H632 0.930 . S
C638 C639 1.355 . S
C638 C640 1.415 1_545 S
C639 C638 1.355 . S
C639 C641 1.419 . S
C640 C638 1.415 1_565 S
C640 C645 1.425 . S
C640 C647 1.409 . S
C641 H633 0.930 . S
C641 C639 1.419 . S
C641 C642 1.362 1_545 S
C642 H634 0.930 . S
C642 C641 1.362 1_565 S
C642 C645 1.409 . S
C643 H635 0.930 . S
C643 C644 1.355 . S
C643 C645 1.415 . S
C644 C643 1.355 . S
C644 C646 1.419 . S
C645 C640 1.425 . S
C645 C642 1.409 . S
C645 C643 1.415 . S
C646 H636 0.930 . S
C646 C644 1.419 . S
C646 C647 1.362 . S
C647 H637 0.930 . S
C647 C640 1.409 . S
C647 C646 1.362 . S
H648 C654 0.930 . S
H649 C657 0.930 . S
H650 C658 0.930 . S
H651 C659 0.930 . S
H652 C662 0.930 . S
H653 C663 0.930 . S
C654 H648 0.930 . S
C654 C655 1.355 . S
C654 C656 1.415 . S
C655 C654 1.355 . S
C655 C657 1.419 . S
C656 C654 1.415 . S
C656 C661 1.425 . S
C656 C663 1.409 . S
C657 H649 0.930 . S
C657 C655 1.419 . S
C657 C658 1.362 . S
C658 H650 0.930 . S
C658 C657 1.362 . S
C658 C661 1.409 . S
C659 H651 0.930 . S
C659 C660 1.355 . S
C659 C661 1.415 1_565 S
C660 C659 1.355 . S
C660 C662 1.419 . S
C661 C656 1.425 . S
C661 C658 1.409 . S
C661 C659 1.415 1_545 S
C662 H652 0.930 . S
C662 C660 1.419 . S
C662 C663 1.362 1_565 S
C663 H653 0.930 . S
C663 C656 1.409 . S
C663 C662 1.362 1_545 S
H664 C670 0.930 . S
H665 C673 0.930 . S
H666 C674 0.930 . S
H667 C675 0.930 . S
H668 C678 0.930 . S
H669 C679 0.930 . S
C670 H664 0.930 . S
C670 C671 1.355 . S
C670 C672 1.415 . S
C671 C670 1.355 . S
C671 C673 1.419 . S
C672 C670 1.415 . S
C672 C677 1.425 . S
C672 C679 1.409 . S
C673 H665 0.930 . S
C673 C671 1.419 . S
C673 C674 1.362 . S
C674 H666 0.930 . S
C674 C673 1.362 . S
C674 C677 1.409 . S
C675 H667 0.930 . S
C675 C676 1.355 . S
C675 C677 1.415 . S
C676 C675 1.355 . S
C676 C678 1.419 . S
C677 C672 1.425 . S
C677 C674 1.409 . S
C677 C675 1.415 . S
C678 H668 0.930 . S
C678 C676 1.419 . S
C678 C679 1.362 . S
C679 H669 0.930 . S
C679 C672 1.409 . S
C679 C678 1.362 . S
H680 C686 0.930 . S
H681 C689 0.930 . S
H682 C690 0.930 . S
H683 C691 0.930 . S
H684 C694 0.930 . S
H685 C695 0.930 . S
C686 H680 0.930 . S
C686 C687 1.355 . S
C686 C688 1.415 . S
C687 C686 1.355 . S
C687 C689 1.419 . S
C688 C686 1.415 . S
C688 C693 1.425 . S
C688 C695 1.409 . S
C689 H681 0.930 . S
C689 C687 1.419 . S
C689 C690 1.362 . S
C690 H682 0.930 . S
C690 C689 1.362 . S
C690 C693 1.409 . S
C691 H683 0.930 . S
C691 C692 1.355 . S
C691 C693 1.415 1_565 S
C692 C691 1.355 . S
C692 C694 1.419 . S
C693 C688 1.425 . S
C693 C690 1.409 . S
C693 C691 1.415 1_545 S
C694 H684 0.930 . S
C694 C692 1.419 . S
C694 C695 1.362 1_565 S
C695 H685 0.930 . S
C695 C688 1.409 . S
C695 C694 1.362 1_545 S
H696 C702 0.930 . S
H697 C705 0.930 . S
H698 C706 0.930 . S
H699 C707 0.930 . S
H700 C710 0.930 . S
H701 C711 0.930 . S
C702 H696 0.930 . S
C702 C703 1.355 1_455 S
C702 C704 1.415 . S
C703 C702 1.355 1_655 S
C703 C705 1.419 . S
C704 C702 1.415 . S
C704 C709 1.425 1_455 S
C704 C711 1.409 . S
C705 H697 0.930 . S
C705 C703 1.419 . S
C705 C706 1.362 . S
C706 H698 0.930 . S
C706 C705 1.362 . S
C706 C709 1.409 . S
C707 H699 0.930 . S
C707 C708 1.355 1_655 S
C707 C709 1.415 . S
C708 C707 1.355 1_455 S
C708 C710 1.419 . S
C709 C704 1.425 1_655 S
C709 C706 1.409 . S
C709 C707 1.415 . S
C710 H700 0.930 . S
C710 C708 1.419 . S
C710 C711 1.362 . S
C711 H701 0.930 . S
C711 C704 1.409 . S
C711 C710 1.362 . S
H712 C718 0.930 . S
H713 C721 0.930 . S
H714 C722 0.930 . S
H715 C723 0.930 . S
H716 C726 0.930 . S
H717 C727 0.930 . S
C718 H712 0.930 . S
C718 C719 1.355 . S
C718 C720 1.415 . S
C719 C718 1.355 . S
C719 C721 1.419 1_455 S
C720 C718 1.415 . S
C720 C725 1.425 1_455 S
C720 C727 1.409 . S
C721 H713 0.930 . S
C721 C719 1.419 1_655 S
C721 C722 1.362 . S
C722 H714 0.930 . S
C722 C721 1.362 . S
C722 C725 1.409 . S
C723 H715 0.930 . S
C723 C724 1.355 . S
C723 C725 1.415 . S
C724 C723 1.355 . S
C724 C726 1.419 1_655 S
C725 C720 1.425 1_655 S
C725 C722 1.409 . S
C725 C723 1.415 . S
C726 H716 0.930 . S
C726 C724 1.419 1_455 S
C726 C727 1.362 . S
C727 H717 0.930 . S
C727 C720 1.409 . S
C727 C726 1.362 . S
H728 C734 0.930 . S
H729 C737 0.930 . S
H730 C738 0.930 . S
H731 C739 0.930 . S
H732 C742 0.930 . S
H733 C743 0.930 . S
C734 H728 0.930 . S
C734 C735 1.355 . S
C734 C736 1.415 . S
C735 C734 1.355 . S
C735 C737 1.419 1_565 S
C736 C734 1.415 . S
C736 C741 1.425 1_565 S
C736 C743 1.409 . S
C737 H729 0.930 . S
C737 C735 1.419 1_545 S
C737 C738 1.362 . S
C738 H730 0.930 . S
C738 C737 1.362 . S
C738 C741 1.409 . S
C739 H731 0.930 . S
C739 C740 1.355 . S
C739 C741 1.415 . S
C740 C739 1.355 . S
C740 C742 1.419 1_545 S
C741 C736 1.425 1_545 S
C741 C738 1.409 . S
C741 C739 1.415 . S
C742 H732 0.930 . S
C742 C740 1.419 1_565 S
C742 C743 1.362 . S
C743 H733 0.930 . S
C743 C736 1.409 . S
C743 C742 1.362 . S
H744 C750 0.930 . S
H745 C753 0.930 . S
H746 C754 0.930 . S
H747 C755 0.930 . S
H748 C758 0.930 . S
H749 C759 0.930 . S
C750 H744 0.930 . S
C750 C751 1.355 . S
C750 C752 1.415 . S
C751 C750 1.355 . S
C751 C753 1.419 . S
C752 C750 1.415 . S
C752 C757 1.425 . S
C752 C759 1.409 . S
C753 H745 0.930 . S
C753 C751 1.419 . S
C753 C754 1.362 . S
C754 H746 0.930 . S
C754 C753 1.362 . S
C754 C757 1.409 . S
C755 H747 0.930 . S
C755 C756 1.355 . S
C755 C757 1.415 . S
C756 C755 1.355 . S
C756 C758 1.419 . S
C757 C752 1.425 . S
C757 C754 1.409 . S
C757 C755 1.415 . S
C758 H748 0.930 . S
C758 C756 1.419 . S
C758 C759 1.362 . S
C759 H749 0.930 . S
C759 C752 1.409 . S
C759 C758 1.362 . S
H760 C766 0.927 1_556 S
H761 C769 0.930 . S
H762 C770 0.930 . S
H763 C771 0.935 . S
H764 C774 0.930 . S
H765 C775 0.930 . S
C766 H760 0.927 1_554 S
C766 C767 1.358 . S
C766 C768 1.413 1_554 S
C767 C766 1.358 . S
C767 C769 1.419 . S
C768 C766 1.413 1_556 S
C768 C773 1.425 1_556 S
C768 C775 1.409 . S
C769 H761 0.930 . S
C769 C767 1.419 . S
C769 C770 1.362 . S
C770 H762 0.930 . S
C770 C769 1.362 . S
C770 C773 1.409 . S
C771 H763 0.935 . S
C771 C772 1.348 1_554 S
C771 C773 1.418 . S
C772 C771 1.348 1_556 S
C772 C774 1.419 . S
C773 C768 1.425 1_554 S
C773 C770 1.409 . S
C773 C771 1.418 . S
C774 H764 0.930 . S
C774 C772 1.419 . S
C774 C775 1.362 . S
C775 H765 0.930 . S
C775 C768 1.409 . S
C775 C774 1.362 . S
H776 C782 0.930 . S
H777 C785 0.930 . S
H778 C786 0.930 . S
H779 C787 0.930 . S
H780 C790 0.930 . S
H781 C791 0.930 . S
C782 H776 0.930 . S
C782 C783 1.355 . S
C782 C784 1.415 . S
C783 C782 1.355 . S
C783 C785 1.419 . S
C784 C782 1.415 . S
C784 C789 1.425 . S
C784 C791 1.409 . S
C785 H777 0.930 . S
C785 C783 1.419 . S
C785 C786 1.362 . S
C786 H778 0.930 . S
C786 C785 1.362 . S
C786 C789 1.409 . S
C787 H779 0.930 . S
C787 C788 1.355 . S
C787 C789 1.415 . S
C788 C787 1.355 . S
C788 C790 1.419 . S
C789 C784 1.425 . S
C789 C786 1.409 . S
C789 C787 1.415 . S
C790 H780 0.930 . S
C790 C788 1.419 . S
C790 C791 1.362 . S
C791 H781 0.930 . S
C791 C784 1.409 . S
C791 C790 1.362 . S
H792 C798 0.930 . S
H793 C801 0.930 . S
H794 C802 0.930 . S
H795 C803 0.930 . S
H796 C806 0.930 . S
H797 C807 0.930 . S
C798 H792 0.930 . S
C798 C799 1.355 . S
C798 C800 1.415 . S
C799 C798 1.355 . S
C799 C801 1.419 . S
C800 C798 1.415 . S
C800 C805 1.425 . S
C800 C807 1.409 . S
C801 H793 0.930 . S
C801 C799 1.419 . S
C801 C802 1.362 . S
C802 H794 0.930 . S
C802 C801 1.362 . S
C802 C805 1.409 . S
C803 H795 0.930 . S
C803 C804 1.355 . S
C803 C805 1.415 . S
C804 C803 1.355 . S
C804 C806 1.419 . S
C805 C800 1.425 . S
C805 C802 1.409 . S
C805 C803 1.415 . S
C806 H796 0.930 . S
C806 C804 1.419 . S
C806 C807 1.362 . S
C807 H797 0.930 . S
C807 C800 1.409 . S
C807 C806 1.362 . S
H808 C814 0.930 . S
H809 C817 0.930 . S
H810 C818 0.930 . S
H811 C819 0.930 . S
H812 C822 0.930 . S
H813 C823 0.930 . S
C814 H808 0.930 . S
C814 C815 1.355 . S
C814 C816 1.415 . S
C815 C814 1.355 . S
C815 C817 1.419 . S
C816 C814 1.415 . S
C816 C821 1.425 . S
C816 C823 1.409 . S
C817 H809 0.930 . S
C817 C815 1.419 . S
C817 C818 1.362 . S
C818 H810 0.930 . S
C818 C817 1.362 . S
C818 C821 1.409 . S
C819 H811 0.930 . S
C819 C820 1.355 . S
C819 C821 1.415 . S
C820 C819 1.355 . S
C820 C822 1.419 . S
C821 C816 1.425 . S
C821 C818 1.409 . S
C821 C819 1.415 . S
C822 H812 0.930 . S
C822 C820 1.419 . S
C822 C823 1.362 . S
C823 H813 0.930 . S
C823 C816 1.409 . S
C823 C822 1.362 . S
H824 C830 0.930 . S
H825 C833 0.930 . S
H826 C834 0.930 . S
H827 C835 0.930 . S
H828 C838 0.930 . S
H829 C839 0.930 . S
C830 H824 0.930 . S
C830 C831 1.355 . S
C830 C832 1.415 . S
C831 C830 1.355 . S
C831 C833 1.419 . S
C832 C830 1.415 . S
C832 C837 1.425 . S
C832 C839 1.409 . S
C833 H825 0.930 . S
C833 C831 1.419 . S
C833 C834 1.362 . S
C834 H826 0.930 . S
C834 C833 1.362 . S
C834 C837 1.409 . S
C835 H827 0.930 . S
C835 C836 1.355 . S
C835 C837 1.415 . S
C836 C835 1.355 . S
C836 C838 1.419 . S
C837 C832 1.425 . S
C837 C834 1.409 . S
C837 C835 1.415 . S
C838 H828 0.930 . S
C838 C836 1.419 . S
C838 C839 1.362 . S
C839 H829 0.930 . S
C839 C832 1.409 . S
C839 C838 1.362 . S
H840 C846 0.930 . S
H841 C849 0.930 . S
H842 C850 0.930 . S
H843 C851 0.930 . S
H844 C854 0.930 . S
H845 C855 0.930 . S
C846 H840 0.930 . S
C846 C847 1.355 . S
C846 C848 1.415 . S
C847 C846 1.355 . S
C847 C849 1.419 . S
C848 C846 1.415 . S
C848 C853 1.425 . S
C848 C855 1.409 . S
C849 H841 0.930 . S
C849 C847 1.419 . S
C849 C850 1.362 . S
C850 H842 0.930 . S
C850 C849 1.362 . S
C850 C853 1.409 . S
C851 H843 0.930 . S
C851 C852 1.355 . S
C851 C853 1.415 . S
C852 C851 1.355 . S
C852 C854 1.419 . S
C853 C848 1.425 . S
C853 C850 1.409 . S
C853 C851 1.415 . S
C854 H844 0.930 . S
C854 C852 1.419 . S
C854 C855 1.362 . S
C855 H845 0.930 . S
C855 C848 1.409 . S
C855 C854 1.362 . S
H856 C862 0.930 . S
H857 C865 0.930 . S
H858 C866 0.930 . S
H859 C867 0.930 . S
H860 C870 0.930 . S
H861 C871 0.930 . S
C862 H856 0.930 . S
C862 C863 1.355 . S
C862 C864 1.415 . S
C863 C862 1.355 . S
C863 C865 1.419 1_545 S
C864 C862 1.415 . S
C864 C869 1.425 1_545 S
C864 C871 1.409 . S
C865 H857 0.930 . S
C865 C863 1.419 1_565 S
C865 C866 1.362 . S
C866 H858 0.930 . S
C866 C865 1.362 . S
C866 C869 1.409 . S
C867 H859 0.930 . S
C867 C868 1.355 . S
C867 C869 1.415 . S
C868 C867 1.355 . S
C868 C870 1.419 1_565 S
C869 C864 1.425 1_565 S
C869 C866 1.409 . S
C869 C867 1.415 . S
C870 H860 0.930 . S
C870 C868 1.419 1_545 S
C870 C871 1.362 . S
C871 H861 0.930 . S
C871 C864 1.409 . S
C871 C870 1.362 . S
H872 C878 0.930 . S
H873 C881 0.930 . S
H874 C882 0.930 . S
H875 C883 0.930 . S
H876 C886 0.930 . S
H877 C887 0.930 . S
C878 H872 0.930 . S
C878 C879 1.355 1_554 S
C878 C880 1.415 . S
C879 C878 1.355 1_556 S
C879 C881 1.419 . S
C880 C878 1.415 . S
C880 C885 1.425 1_554 S
C880 C887 1.409 . S
C881 H873 0.930 . S
C881 C879 1.419 . S
C881 C882 1.362 . S
C882 H874 0.930 . S
C882 C881 1.362 . S
C882 C885 1.409 . S
C883 H875 0.930 . S
C883 C884 1.355 1_556 S
C883 C885 1.415 . S
C884 C883 1.355 1_554 S
C884 C886 1.419 . S
C885 C880 1.425 1_556 S
C885 C882 1.409 . S
C885 C883 1.415 . S
C886 H876 0.930 . S
C886 C884 1.419 . S
C886 C887 1.362 . S
C887 H877 0.930 . S
C887 C880 1.409 . S
C887 C886 1.362 . S
H888 C894 0.930 . S
H889 C897 0.930 . S
H890 C898 0.930 . S
H891 C899 0.930 . S
H892 C902 0.930 . S
H893 C903 0.930 . S
C894 H888 0.930 . S
C894 C895 1.347 1_655 S
C894 C896 1.415 . S
C895 C894 1.347 1_455 S
C895 C897 1.428 . S
C896 C894 1.415 . S
C896 C901 1.425 1_665 S
C896 C903 1.409 . S
C897 H889 0.930 . S
C897 C895 1.428 . S
C897 C898 1.362 1_565 S
C898 H890 0.930 . S
C898 C897 1.362 1_545 S
C898 C901 1.409 . S
C899 H891 0.930 . S
C899 C900 1.355 1_455 S
C899 C901 1.415 . S
C900 C899 1.355 1_655 S
C900 C902 1.419 . S
C901 C896 1.425 1_445 S
C901 C898 1.409 . S
C901 C899 1.415 . S
C902 H892 0.930 . S
C902 C900 1.419 . S
C902 C903 1.362 1_545 S
C903 H893 0.930 . S
C903 C896 1.409 . S
C903 C902 1.362 1_565 S
H904 C910 0.930 . S
H905 C913 0.930 . S
H906 C914 0.930 . S
H907 C915 0.930 . S
H908 C918 0.930 . S
H909 C919 0.930 . S
C910 H904 0.930 . S
C910 C911 1.355 1_455 S
C910 C912 1.415 . S
C911 C910 1.355 1_655 S
C911 C913 1.419 . S
C912 C910 1.415 . S
C912 C917 1.425 1_455 S
C912 C919 1.409 . S
C913 H905 0.930 . S
C913 C911 1.419 . S
C913 C914 1.362 . S
C914 H906 0.930 . S
C914 C913 1.362 . S
C914 C917 1.409 . S
C915 H907 0.930 . S
C915 C916 1.355 1_655 S
C915 C917 1.415 . S
C916 C915 1.355 1_455 S
C916 C918 1.419 . S
C917 C912 1.425 1_655 S
C917 C914 1.409 . S
C917 C915 1.415 . S
C918 H908 0.930 . S
C918 C916 1.419 . S
C918 C919 1.362 . S
C919 H909 0.930 . S
C919 C912 1.409 . S
C919 C918 1.362 . S
H920 C926 0.930 . S
H921 C929 0.930 . S
H922 C930 0.930 . S
H923 C931 0.930 . S
H924 C934 0.930 . S
H925 C935 0.930 . S
C926 H920 0.930 . S
C926 C927 1.355 1_565 S
C926 C928 1.415 . S
C927 C926 1.355 1_545 S
C927 C929 1.419 . S
C928 C926 1.415 . S
C928 C933 1.425 1_566 S
C928 C935 1.409 . S
C929 H921 0.930 . S
C929 C927 1.419 . S
C929 C930 1.362 1_556 S
C930 H922 0.930 . S
C930 C929 1.362 1_554 S
C930 C933 1.409 . S
C931 H923 0.930 . S
C931 C932 1.355 1_545 S
C931 C933 1.415 . S
C932 C931 1.355 1_565 S
C932 C934 1.419 . S
C933 C928 1.425 1_544 S
C933 C930 1.409 . S
C933 C931 1.415 . S
C934 H924 0.930 . S
C934 C932 1.419 . S
C934 C935 1.362 1_554 S
C935 H925 0.930 . S
C935 C928 1.409 . S
C935 C934 1.362 1_556 S
H936 C942 0.930 . S
H937 C945 0.930 . S
H938 C946 0.930 . S
H939 C947 0.930 . S
H940 C950 0.930 . S
H941 C951 0.930 . S
C942 H936 0.930 . S
C942 C943 1.355 . S
C942 C944 1.415 . S
C943 C942 1.355 . S
C943 C945 1.419 . S
C944 C942 1.415 . S
C944 C949 1.425 1_554 S
C944 C951 1.409 . S
C945 H937 0.930 . S
C945 C943 1.419 . S
C945 C946 1.362 1_554 S
C946 H938 0.930 . S
C946 C945 1.362 1_556 S
C946 C949 1.409 . S
C947 H939 0.930 . S
C947 C948 1.355 . S
C947 C949 1.415 . S
C948 C947 1.355 . S
C948 C950 1.419 . S
C949 C944 1.425 1_556 S
C949 C946 1.409 . S
C949 C947 1.415 . S
C950 H940 0.930 . S
C950 C948 1.419 . S
C950 C951 1.362 1_556 S
C951 H941 0.930 . S
C951 C944 1.409 . S
C951 C950 1.362 1_554 S
H952 C958 0.930 . S
H953 C961 0.930 . S
H954 C962 0.930 . S
H955 C963 0.930 . S
H956 C966 0.930 . S
H957 C967 0.930 . S
C958 H952 0.930 . S
C958 C959 1.355 1_565 S
C958 C960 1.415 . S
C959 C958 1.355 1_545 S
C959 C961 1.419 . S
C960 C958 1.415 . S
C960 C965 1.425 1_565 S
C960 C967 1.409 . S
C961 H953 0.930 . S
C961 C959 1.419 . S
C961 C962 1.362 . S
C962 H954 0.930 . S
C962 C961 1.362 . S
C962 C965 1.409 . S
C963 H955 0.930 . S
C963 C964 1.355 1_545 S
C963 C965 1.415 . S
C964 C963 1.355 1_565 S
C964 C966 1.419 . S
C965 C960 1.425 1_545 S
C965 C962 1.409 . S
C965 C963 1.415 . S
C966 H956 0.930 . S
C966 C964 1.419 . S
C966 C967 1.362 . S
C967 H957 0.930 . S
C967 C960 1.409 . S
C967 C966 1.362 . S
H968 C974 0.930 . S
H969 C977 0.930 . S
H970 C978 0.930 . S
H971 C979 0.930 . S
H972 C982 0.930 . S
H973 C983 0.930 . S
C974 H968 0.930 . S
C974 C975 1.355 . S
C974 C976 1.415 . S
C975 C974 1.355 . S
C975 C977 1.419 . S
C976 C974 1.415 . S
C976 C981 1.425 . S
C976 C983 1.409 . S
C977 H969 0.930 . S
C977 C975 1.419 . S
C977 C978 1.362 . S
C978 H970 0.930 . S
C978 C977 1.362 . S
C978 C981 1.409 . S
C979 H971 0.930 . S
C979 C980 1.355 . S
C979 C981 1.415 . S
C980 C979 1.355 . S
C980 C982 1.419 . S
C981 C976 1.425 . S
C981 C978 1.409 . S
C981 C979 1.415 . S
C982 H972 0.930 . S
C982 C980 1.419 . S
C982 C983 1.362 . S
C983 H973 0.930 . S
C983 C976 1.409 . S
C983 C982 1.362 . S
H984 C990 0.930 . S
H985 C993 0.930 . S
H986 C994 0.930 . S
H987 C995 0.930 . S
H988 C998 0.930 . S
H989 C999 0.930 . S
C990 H984 0.930 . S
C990 C991 1.355 1_554 S
C990 C992 1.415 . S
C991 C990 1.355 1_556 S
C991 C993 1.419 . S
C992 C990 1.415 . S
C992 C997 1.425 1_454 S
C992 C999 1.409 . S
C993 H985 0.930 . S
C993 C991 1.419 . S
C993 C994 1.362 1_455 S
C994 H986 0.930 . S
C994 C993 1.362 1_655 S
C994 C997 1.409 . S
C995 H987 0.930 . S
C995 C996 1.355 1_556 S
C995 C997 1.415 . S
C996 C995 1.355 1_554 S
C996 C998 1.419 . S
C997 C992 1.425 1_656 S
C997 C994 1.409 . S
C997 C995 1.415 . S
C998 H988 0.930 . S
C998 C996 1.419 . S
C998 C999 1.362 1_655 S
C999 H989 0.930 . S
C999 C992 1.409 . S
C999 C998 1.362 1_455 S
H1000 C1006 0.930 . S
H1001 C1009 0.930 . S
H1002 C1010 0.930 . S
H1003 C1011 0.930 . S
H1004 C1014 0.930 . S
H1005 C1015 0.930 . S
C1006 H1000 0.930 . S
C1006 C1007 1.355 . S
C1006 C1008 1.415 . S
C1007 C1006 1.355 . S
C1007 C1009 1.419 . S
C1008 C1006 1.415 . S
C1008 C1013 1.425 1_455 S
C1008 C1015 1.409 1_455 S
C1009 H1001 0.930 . S
C1009 C1007 1.419 . S
C1009 C1010 1.362 . S
C1010 H1002 0.930 . S
C1010 C1009 1.362 . S
C1010 C1013 1.409 1_455 S
C1011 H1003 0.930 . S
C1011 C1012 1.355 . S
C1011 C1013 1.415 . S
C1012 C1011 1.355 . S
C1012 C1014 1.419 . S
C1013 C1008 1.425 1_655 S
C1013 C1010 1.409 1_655 S
C1013 C1011 1.415 . S
C1014 H1004 0.930 . S
C1014 C1012 1.419 . S
C1014 C1015 1.362 . S
C1015 H1005 0.930 . S
C1015 C1008 1.409 1_655 S
C1015 C1014 1.362 . S
H1016 C1022 0.930 . S
H1017 C1025 0.930 . S
H1018 C1026 0.930 . S
H1019 C1027 0.930 . S
H1020 C1030 0.930 . S
H1021 C1031 0.930 . S
C1022 H1016 0.930 . S
C1022 C1023 1.355 . S
C1022 C1024 1.415 . S
C1023 C1022 1.355 . S
C1023 C1025 1.419 . S
C1024 C1022 1.415 . S
C1024 C1029 1.425 . S
C1024 C1031 1.409 . S
C1025 H1017 0.930 . S
C1025 C1023 1.419 . S
C1025 C1026 1.362 . S
C1026 H1018 0.930 . S
C1026 C1025 1.362 . S
C1026 C1029 1.409 . S
C1027 H1019 0.930 . S
C1027 C1028 1.355 . S
C1027 C1029 1.415 . S
C1028 C1027 1.355 . S
C1028 C1030 1.419 . S
C1029 C1024 1.425 . S
C1029 C1026 1.409 . S
C1029 C1027 1.415 . S
C1030 H1020 0.930 . S
C1030 C1028 1.419 . S
C1030 C1031 1.362 . S
C1031 H1021 0.930 . S
C1031 C1024 1.409 . S
C1031 C1030 1.362 . S
H1032 C1038 0.930 . S
H1033 C1041 0.930 . S
H1034 C1042 0.930 . S
H1035 C1043 0.930 . S
H1036 C1046 0.930 . S
H1037 C1047 0.930 . S
C1038 H1032 0.930 . S
C1038 C1039 1.355 . S
C1038 C1040 1.415 . S
C1039 C1038 1.355 . S
C1039 C1041 1.419 . S
C1040 C1038 1.415 . S
C1040 C1045 1.425 . S
C1040 C1047 1.409 . S
C1041 H1033 0.930 . S
C1041 C1039 1.419 . S
C1041 C1042 1.362 . S
C1042 H1034 0.930 . S
C1042 C1041 1.362 . S
C1042 C1045 1.409 . S
C1043 H1035 0.930 . S
C1043 C1044 1.355 . S
C1043 C1045 1.415 . S
C1044 C1043 1.355 . S
C1044 C1046 1.419 . S
C1045 C1040 1.425 . S
C1045 C1042 1.409 . S
C1045 C1043 1.415 . S
C1046 H1036 0.930 . S
C1046 C1044 1.419 . S
C1046 C1047 1.362 . S
C1047 H1037 0.930 . S
C1047 C1040 1.409 . S
C1047 C1046 1.362 . S
H1048 C1054 0.930 . S
H1049 C1057 0.930 . S
H1050 C1058 0.930 1_545 S
H1051 C1059 0.930 . S
H1052 C1062 0.930 . S
H1053 C1063 0.930 1_565 S
C1054 H1048 0.930 . S
C1054 C1055 1.355 . S
C1054 C1056 1.415 . S
C1055 C1054 1.355 . S
C1055 C1057 1.419 . S
C1056 C1054 1.415 . S
C1056 C1061 1.425 1_565 S
C1056 C1063 1.409 1_565 S
C1057 H1049 0.930 . S
C1057 C1055 1.419 . S
C1057 C1058 1.362 . S
C1058 H1050 0.930 1_565 S
C1058 C1057 1.362 . S
C1058 C1061 1.409 1_565 S
C1059 H1051 0.930 . S
C1059 C1060 1.355 . S
C1059 C1061 1.415 . S
C1060 C1059 1.355 . S
C1060 C1062 1.419 . S
C1061 C1056 1.425 1_545 S
C1061 C1058 1.409 1_545 S
C1061 C1059 1.415 . S
C1062 H1052 0.930 . S
C1062 C1060 1.419 . S
C1062 C1063 1.362 . S
C1063 H1053 0.930 1_545 S
C1063 C1056 1.409 1_545 S
C1063 C1062 1.362 . S
H1064 C1070 0.930 . S
H1065 C1073 0.930 . S
H1066 C1074 0.930 . S
H1067 C1075 0.930 . S
H1068 C1078 0.930 . S
H1069 C1079 0.930 . S
C1070 H1064 0.930 . S
C1070 C1071 1.355 1_554 S
C1070 C1072 1.415 . S
C1071 C1070 1.355 1_556 S
C1071 C1073 1.419 . S
C1072 C1070 1.415 . S
C1072 C1077 1.425 1_554 S
C1072 C1079 1.409 . S
C1073 H1065 0.930 . S
C1073 C1071 1.419 . S
C1073 C1074 1.362 . S
C1074 H1066 0.930 . S
C1074 C1073 1.362 . S
C1074 C1077 1.409 . S
C1075 H1067 0.930 . S
C1075 C1076 1.355 1_556 S
C1075 C1077 1.415 . S
C1076 C1075 1.355 1_554 S
C1076 C1078 1.419 . S
C1077 C1072 1.425 1_556 S
C1077 C1074 1.409 . S
C1077 C1075 1.415 . S
C1078 H1068 0.930 . S
C1078 C1076 1.419 . S
C1078 C1079 1.362 . S
C1079 H1069 0.930 . S
C1079 C1072 1.409 . S
C1079 C1078 1.362 . S
C319 C224 0.661 . S
C324 C3 0.667 . S
C335 C18 0.723 . S
C340 C213 0.776 . S
C351 C31 0.825 . S
C356 C252 0.783 . S
C367 C42 0.813 . S
C372 C237 0.760 . S
C383 C57 0.605 . S
C388 C278 0.587 . S
C399 C68 0.761 . S
C404 C291 0.761 . S
C415 C263 0.689 . S
C420 C83 0.638 . S
C431 C146 0.841 . S
C436 C94 0.825 . S
C447 C107 0.609 . S
C452 C44 0.583 . S
C463 C16 0.700 . S
C468 C120 0.765 . S
C479 C135 0.915 . S
C484 C5 0.852 . S
C495 C148 0.773 . S
C500 C185 0.801 . S
C511 C70 0.992 . S
C516 C161 0.965 . S
C527 C55 0.886 . S
C532 C174 0.924 . S
C543 C187 0.772 . S
C548 C96 0.796 . S
C559 C200 0.769 . S
C564 C81 0.726 . S
C575 C122 0.907 . S
C580 C211 0.930 . S
C591 C133 0.750 . S
C596 C226 0.834 . S
C607 C109 0.857 . S
C612 C239 0.889 . S
C623 C250 0.742 . S
C628 C302 0.779 . S
C639 C198 0.869 . S
C644 C265 0.961 . S
C655 C276 0.843 . S
C660 C172 0.751 . S
C671 C159 0.786 . S
C676 C289 0.689 . S
C687 C304 0.822 . S
C692 C29 0.751 . S
C703 C4 1.945 . S
C708 C23 1.953 . S
C719 C43 1.855 . S
C724 C36 1.871 . S
C735 C62 1.950 . S
C740 C88 1.921 . S
C751 C69 2.129 . S
C756 C95 2.096 . S
C767 C290 1.954 . S
C772 C108 1.948 . S
C783 C121 2.118 . S
C788 C153 2.119 . S
C799 C270 2.031 . S
C804 C140 2.041 . S
C815 C179 2.068 . S
C820 C166 2.070 . S
C831 C192 2.134 . S
C836 C205 2.156 . S
C847 C244 2.051 . S
C852 C212 2.052 . S
C863 C231 1.852 . S
C868 C251 1.874 . S
C879 C309 1.886 . S
C884 C277 1.886 . S
C895 C30 1.376 . S
C900 C10 1.380 . S
C911 C17 1.648 1_655 S
C916 C49 1.644 1_455 S
C927 C257 1.378 . S
C932 C56 1.382 . S
C943 C75 1.520 . S
C948 C238 1.517 . S
C959 C82 1.620 . S
C964 C225 1.615 . S
C975 C218 1.810 . S
C980 C101 1.813 . S
C991 C114 1.388 . S
C996 C303 1.384 . S
C1007 C127 1.590 . S
C1012 C134 1.584 . S
C1023 C264 1.737 . S
C1028 C147 1.740 . S
C1039 C160 1.736 . S
C1044 C186 1.742 . S
C1055 C173 1.533 . S
C1060 C199 1.540 . S
C1071 C296 1.636 1_556 S
C1076 C283 1.632 1_554 S
