# Generated by pormake.
# Topology gsi, (4)-cn, num edge types: 1
# Building blocks:
#     Node 0, Type 0, BuildingBlock: CEKHIL_clean_sbu_0, # of connection points: 4
#     Node 1, Type 0, BuildingBlock: CEKHIL_clean_sbu_0, # of connection points: 4
#     Node 2, Type 0, BuildingBlock: CEKHIL_clean_sbu_0, # of connection points: 4
#     Node 3, Type 0, BuildingBlock: CEKHIL_clean_sbu_0, # of connection points: 4
#     Node 4, Type 0, BuildingBlock: CEKHIL_clean_sbu_0, # of connection points: 4
#     Node 5, Type 0, BuildingBlock: CEKHIL_clean_sbu_0, # of connection points: 4
#     Node 6, Type 0, BuildingBlock: CEKHIL_clean_sbu_0, # of connection points: 4
#     Node 7, Type 0, BuildingBlock: CEKHIL_clean_sbu_0, # of connection points: 4
#     Node 8, Type 0, BuildingBlock: CEKHIL_clean_sbu_0, # of connection points: 4
#     Node 9, Type 0, BuildingBlock: CEKHIL_clean_sbu_0, # of connection points: 4
#     Node 10, Type 0, BuildingBlock: CEKHIL_clean_sbu_0, # of connection points: 4
#     Node 11, Type 0, BuildingBlock: CEKHIL_clean_sbu_0, # of connection points: 4
#     Node 12, Type 0, BuildingBlock: CEKHIL_clean_sbu_0, # of connection points: 4
#     Node 13, Type 0, BuildingBlock: CEKHIL_clean_sbu_0, # of connection points: 4
#     Node 14, Type 0, BuildingBlock: CEKHIL_clean_sbu_0, # of connection points: 4
#     Node 15, Type 0, BuildingBlock: CEKHIL_clean_sbu_0, # of connection points: 4
#     Edge 16, Type (0, 0), BuildingBlock: ZUJKAS_clean_linker_0, # of connection points: 2
#     Edge 17, Type (0, 0), BuildingBlock: ZUJKAS_clean_linker_0, # of connection points: 2
#     Edge 18, Type (0, 0), BuildingBlock: ZUJKAS_clean_linker_0, # of connection points: 2
#     Edge 19, Type (0, 0), BuildingBlock: ZUJKAS_clean_linker_0, # of connection points: 2
#     Edge 20, Type (0, 0), BuildingBlock: ZUJKAS_clean_linker_0, # of connection points: 2
#     Edge 21, Type (0, 0), BuildingBlock: ZUJKAS_clean_linker_0, # of connection points: 2
#     Edge 22, Type (0, 0), BuildingBlock: ZUJKAS_clean_linker_0, # of connection points: 2
#     Edge 23, Type (0, 0), BuildingBlock: ZUJKAS_clean_linker_0, # of connection points: 2
#     Edge 24, Type (0, 0), BuildingBlock: ZUJKAS_clean_linker_0, # of connection points: 2
#     Edge 25, Type (0, 0), BuildingBlock: ZUJKAS_clean_linker_0, # of connection points: 2
#     Edge 26, Type (0, 0), BuildingBlock: ZUJKAS_clean_linker_0, # of connection points: 2
#     Edge 27, Type (0, 0), BuildingBlock: ZUJKAS_clean_linker_0, # of connection points: 2
#     Edge 28, Type (0, 0), BuildingBlock: ZUJKAS_clean_linker_0, # of connection points: 2
#     Edge 29, Type (0, 0), BuildingBlock: ZUJKAS_clean_linker_0, # of connection points: 2
#     Edge 30, Type (0, 0), BuildingBlock: ZUJKAS_clean_linker_0, # of connection points: 2
#     Edge 31, Type (0, 0), BuildingBlock: ZUJKAS_clean_linker_0, # of connection points: 2
#     Edge 32, Type (0, 0), BuildingBlock: ZUJKAS_clean_linker_0, # of connection points: 2
#     Edge 33, Type (0, 0), BuildingBlock: ZUJKAS_clean_linker_0, # of connection points: 2
#     Edge 34, Type (0, 0), BuildingBlock: ZUJKAS_clean_linker_0, # of connection points: 2
#     Edge 35, Type (0, 0), BuildingBlock: ZUJKAS_clean_linker_0, # of connection points: 2
#     Edge 36, Type (0, 0), BuildingBlock: ZUJKAS_clean_linker_0, # of connection points: 2
#     Edge 37, Type (0, 0), BuildingBlock: ZUJKAS_clean_linker_0, # of connection points: 2
#     Edge 38, Type (0, 0), BuildingBlock: ZUJKAS_clean_linker_0, # of connection points: 2
#     Edge 39, Type (0, 0), BuildingBlock: ZUJKAS_clean_linker_0, # of connection points: 2
#     Edge 40, Type (0, 0), BuildingBlock: ZUJKAS_clean_linker_0, # of connection points: 2
#     Edge 41, Type (0, 0), BuildingBlock: ZUJKAS_clean_linker_0, # of connection points: 2
#     Edge 42, Type (0, 0), BuildingBlock: ZUJKAS_clean_linker_0, # of connection points: 2
#     Edge 43, Type (0, 0), BuildingBlock: ZUJKAS_clean_linker_0, # of connection points: 2
#     Edge 44, Type (0, 0), BuildingBlock: ZUJKAS_clean_linker_0, # of connection points: 2
#     Edge 45, Type (0, 0), BuildingBlock: ZUJKAS_clean_linker_0, # of connection points: 2
#     Edge 46, Type (0, 0), BuildingBlock: ZUJKAS_clean_linker_0, # of connection points: 2
#     Edge 47, Type (0, 0), BuildingBlock: ZUJKAS_clean_linker_0, # of connection points: 2
# Relax obj value: 0.149
# Max RMSD: 0.205
# Mean RMSD: 0.126
data_MOF--net-gsi--node1-CEKHIL_clean_sbu_0--edge1-ZUJKAS_clean_linker_0
_symmetry_space_group_name_H-M    P1
_symmetry_Int_Tables_number       1
_symmetry_cell_setting            triclinic
loop_
_symmetry_equiv_pos_as_xyz
'x, y, z'
_cell_length_a     50.463193
_cell_length_b     56.60881
_cell_length_c     53.309153
_cell_angle_alpha  91.023148
_cell_angle_beta   93.372169
_cell_angle_gamma 97.719044
loop_
_atom_site_label
_atom_site_type_symbol
_atom_site_fract_x
_atom_site_fract_y
_atom_site_fract_z
_atom_type_partial_charge
Co0 Co 0.15793 0.15006 0.1241 0.0
O1 O 0.17847 0.12578 0.13706 0.0
O2 O 0.13771 0.12995 0.14754 0.0
C3 C 0.16823 0.14447 0.08338 0.0
O4 O 0.12935 0.17208 0.11499 0.0
Co5 Co 0.18234 0.19449 0.09616 0.0
O6 O 0.14532 0.20189 0.09053 0.0
C7 C 0.19224 0.19163 0.15142 0.0
C8 C 0.15815 0.11826 0.15002 0.0
C9 C 0.12626 0.19076 0.10207 0.0
O10 O 0.1747 0.17286 0.15215 0.0
O11 O 0.19926 0.20138 0.13091 0.0
O12 O 0.14857 0.13084 0.09273 0.0
O13 O 0.181 0.16037 0.0988 0.0
Co14 Co 0.86046 0.35056 0.13613 0.0
O15 O 0.84214 0.37538 0.1499 0.0
O16 O 0.88383 0.37045 0.16079 0.0
C17 C 0.84547 0.35574 0.09563 0.0
O18 O 0.8872 0.32777 0.12608 0.0
Co19 Co 0.83094 0.30605 0.1067 0.0
O20 O 0.86692 0.2979 0.1006 0.0
C21 C 0.82679 0.31111 0.16168 0.0
C22 C 0.86392 0.38243 0.1637 0.0
C23 C 0.88787 0.30883 0.11228 0.0
O24 O 0.84616 0.32854 0.16315 0.0
O25 O 0.8167 0.30137 0.14078 0.0
O26 O 0.86659 0.36924 0.10549 0.0
O27 O 0.83422 0.34036 0.11049 0.0
Co28 Co 0.16905 0.87698 0.32686 0.0
O29 O 0.18865 0.90549 0.31373 0.0
O30 O 0.14474 0.89608 0.30951 0.0
C31 C 0.19211 0.88027 0.36524 0.0
O32 O 0.141 0.8497 0.33763 0.0
Co33 Co 0.19636 0.83372 0.34552 0.0
O34 O 0.16057 0.8205 0.35597 0.0
C35 C 0.18642 0.84102 0.29079 0.0
C36 C 0.16577 0.91094 0.30491 0.0
C37 C 0.13968 0.82946 0.34869 0.0
O38 O 0.17343 0.85873 0.29464 0.0
O39 O 0.19801 0.83024 0.30831 0.0
O40 O 0.1719 0.89202 0.36096 0.0
O41 O 0.19799 0.86792 0.34642 0.0
Co42 Co 0.86088 0.63072 0.33229 0.0
O43 O 0.89251 0.64422 0.31556 0.0
O44 O 0.8834 0.65377 0.35414 0.0
C45 C 0.86237 0.59216 0.31977 0.0
O46 O 0.83178 0.62141 0.35713 0.0
Co47 Co 0.80939 0.60346 0.30561 0.0
O48 O 0.79616 0.59769 0.33953 0.0
C49 C 0.82159 0.65583 0.30124 0.0
C50 C 0.89933 0.65717 0.33591 0.0
C51 C 0.80863 0.60885 0.35857 0.0
O52 O 0.84088 0.65661 0.31829 0.0
O53 O 0.80815 0.63633 0.29248 0.0
O54 O 0.87727 0.60153 0.33917 0.0
O55 O 0.84819 0.60641 0.30831 0.0
Co56 Co 0.36189 0.85071 0.63833 0.0
O57 O 0.34327 0.87566 0.6514 0.0
O58 O 0.38504 0.87117 0.66259 0.0
C59 C 0.34702 0.85492 0.59762 0.0
O60 O 0.38898 0.82802 0.62894 0.0
Co61 Co 0.33313 0.80538 0.61007 0.0
O62 O 0.36928 0.79793 0.60349 0.0
C63 C 0.32878 0.81152 0.66488 0.0
C64 C 0.365 0.88308 0.66514 0.0
C65 C 0.39007 0.80917 0.61514 0.0
O66 O 0.34774 0.82928 0.66588 0.0
O67 O 0.31902 0.80097 0.64428 0.0
O68 O 0.36798 0.86873 0.60733 0.0
O69 O 0.33575 0.83977 0.61274 0.0
Co70 Co 0.86425 0.86438 0.88949 0.0
O71 O 0.87739 0.83604 0.90286 0.0
O72 O 0.89928 0.8612 0.87772 0.0
C73 C 0.84897 0.87671 0.92641 0.0
O74 O 0.85907 0.89578 0.87205 0.0
Co75 Co 0.805 0.87358 0.88893 0.0
O76 O 0.81777 0.9054 0.87588 0.0
C77 C 0.82091 0.8364 0.85534 0.0
C78 C 0.8986 0.84176 0.89039 0.0
C79 C 0.84139 0.91009 0.86844 0.0
O80 O 0.84589 0.84472 0.85966 0.0
O81 O 0.80219 0.84408 0.86704 0.0
O82 O 0.87423 0.88166 0.92206 0.0
O83 O 0.83457 0.86394 0.90917 0.0
Co84 Co 0.14313 0.66747 0.88557 0.0
O85 O 0.13197 0.69609 0.89988 0.0
O86 O 0.10964 0.6741 0.86899 0.0
C87 C 0.1539 0.65178 0.92312 0.0
O88 O 0.14678 0.63639 0.86609 0.0
Co89 Co 0.20053 0.65367 0.8945 0.0
O90 O 0.18564 0.6231 0.87731 0.0
C91 C 0.19058 0.69189 0.85909 0.0
C92 C 0.11106 0.69252 0.88418 0.0
C93 C 0.16303 0.62064 0.86493 0.0
O94 O 0.16497 0.68721 0.86064 0.0
O95 O 0.20748 0.68183 0.87255 0.0
O96 O 0.1291 0.64911 0.91421 0.0
O97 O 0.17072 0.66458 0.9101 0.0
Co98 Co 0.8511 0.14355 0.68248 0.0
O99 O 0.81711 0.1275 0.66805 0.0
O100 O 0.848 0.14815 0.64656 0.0
C101 C 0.86077 0.11278 0.70707 0.0
O102 O 0.88848 0.16266 0.68977 0.0
Co103 Co 0.86134 0.15506 0.73935 0.0
O104 O 0.89812 0.16831 0.73125 0.0
C105 C 0.82739 0.1834 0.70837 0.0
C106 C 0.8243 0.13587 0.64658 0.0
C107 C 0.90441 0.17111 0.7086 0.0
O108 O 0.83395 0.17321 0.68833 0.0
O109 O 0.83449 0.17727 0.73051 0.0
O110 O 0.86602 0.11314 0.68345 0.0
O111 O 0.84866 0.13007 0.71454 0.0
Co112 Co 0.17504 0.38672 0.6809 0.0
O113 O 0.20679 0.40347 0.66696 0.0
O114 O 0.17757 0.37646 0.64629 0.0
C115 C 0.16181 0.41936 0.69973 0.0
O116 O 0.1399 0.36565 0.68792 0.0
Co117 Co 0.16796 0.38496 0.73846 0.0
O118 O 0.13219 0.36692 0.72898 0.0
C119 C 0.20733 0.35848 0.71562 0.0
C120 C 0.19971 0.39114 0.64628 0.0
C121 C 0.12536 0.35953 0.7065 0.0
O122 O 0.19664 0.36122 0.69349 0.0
O123 O 0.20073 0.36888 0.73539 0.0
O124 O 0.15591 0.41476 0.67588 0.0
O125 O 0.17661 0.40527 0.71057 0.0
Co126 Co 0.64233 0.16995 0.3857 0.0
O127 O 0.63059 0.19804 0.40062 0.0
O128 O 0.6067 0.1741 0.37217 0.0
C129 C 0.6589 0.15601 0.42248 0.0
O130 O 0.64643 0.13908 0.36609 0.0
Co131 Co 0.7018 0.16033 0.38902 0.0
O132 O 0.68769 0.12884 0.37321 0.0
C133 C 0.68481 0.19902 0.35794 0.0
C134 C 0.60847 0.19302 0.38668 0.0
C135 C 0.66387 0.12463 0.36331 0.0
O136 O 0.65991 0.19024 0.35872 0.0
O137 O 0.70372 0.19123 0.37105 0.0
O138 O 0.63335 0.15167 0.41618 0.0
O139 O 0.67271 0.16927 0.40733 0.0
Co140 Co 0.65994 0.65076 0.62295 0.0
O141 O 0.6795 0.62533 0.63456 0.0
O142 O 0.63961 0.63082 0.64644 0.0
C143 C 0.66897 0.6459 0.58177 0.0
O144 O 0.63237 0.67398 0.61516 0.0
Co145 Co 0.68609 0.69537 0.59651 0.0
O146 O 0.64974 0.70493 0.59286 0.0
C147 C 0.69897 0.68848 0.65045 0.0
C148 C 0.65941 0.6183 0.64799 0.0
C149 C 0.63021 0.69362 0.60365 0.0
O150 O 0.67832 0.67244 0.65125 0.0
O151 O 0.70687 0.69763 0.62993 0.0
O152 O 0.64911 0.63253 0.59116 0.0
O153 O 0.68269 0.66098 0.59747 0.0
Co154 Co 0.66834 0.37687 0.82446 0.0
O155 O 0.68836 0.40515 0.81122 0.0
O156 O 0.64447 0.39581 0.80636 0.0
C157 C 0.69095 0.38056 0.863 0.0
O158 O 0.63978 0.35009 0.83525 0.0
Co159 Co 0.69398 0.33339 0.8446 0.0
O160 O 0.65821 0.32175 0.85627 0.0
C161 C 0.68527 0.33979 0.78951 0.0
C162 C 0.66562 0.41058 0.80196 0.0
C163 C 0.63773 0.33065 0.84775 0.0
O164 O 0.67304 0.35809 0.79271 0.0
O165 O 0.69589 0.32885 0.80749 0.0
O166 O 0.67089 0.39241 0.85828 0.0
O167 O 0.69683 0.3677 0.84456 0.0
Co168 Co 0.35996 0.13154 0.83326 0.0
O169 O 0.39107 0.14511 0.81595 0.0
O170 O 0.38314 0.15434 0.85496 0.0
C171 C 0.3611 0.09306 0.82039 0.0
O172 O 0.33129 0.122 0.85841 0.0
Co173 Co 0.30814 0.10492 0.80645 0.0
O174 O 0.29518 0.09908 0.84049 0.0
C175 C 0.32157 0.1571 0.80189 0.0
C176 C 0.39856 0.15783 0.83632 0.0
C177 C 0.30797 0.10968 0.85971 0.0
O178 O 0.33976 0.15758 0.81995 0.0
O179 O 0.30864 0.13766 0.79238 0.0
O180 O 0.3764 0.1023 0.8396 0.0
O181 O 0.34689 0.10746 0.80921 0.0
Co182 Co 0.36338 0.36684 0.38781 0.0
O183 O 0.37512 0.33789 0.40109 0.0
O184 O 0.39881 0.36316 0.37734 0.0
C185 C 0.34717 0.37877 0.42445 0.0
O186 O 0.35974 0.39874 0.37059 0.0
Co187 Co 0.30473 0.37793 0.38591 0.0
O188 O 0.31913 0.40988 0.37441 0.0
C189 C 0.32066 0.34202 0.3505 0.0
C190 C 0.39707 0.34347 0.38965 0.0
C191 C 0.34287 0.41383 0.36714 0.0
O192 O 0.3457 0.34796 0.35722 0.0
O193 O 0.30177 0.35068 0.36098 0.0
O194 O 0.37263 0.38341 0.42084 0.0
O195 O 0.33298 0.36668 0.40657 0.0
Co196 Co 0.35158 0.64427 0.17865 0.0
O197 O 0.31791 0.62751 0.16422 0.0
O198 O 0.34806 0.64926 0.14285 0.0
C199 C 0.36238 0.61366 0.20292 0.0
O200 O 0.38854 0.66412 0.18571 0.0
Co201 Co 0.36272 0.65559 0.23548 0.0
O202 O 0.39933 0.66916 0.22707 0.0
C203 C 0.32675 0.68284 0.20534 0.0
C204 C 0.32475 0.63632 0.14282 0.0
C205 C 0.4049 0.67241 0.20428 0.0
O206 O 0.33358 0.67334 0.18502 0.0
O207 O 0.33441 0.67659 0.22728 0.0
O208 O 0.36741 0.61427 0.17924 0.0
O209 O 0.34994 0.63061 0.21066 0.0
Co210 Co 0.67591 0.88781 0.18164 0.0
O211 O 0.70918 0.9033 0.16913 0.0
O212 O 0.67916 0.87811 0.14702 0.0
C213 C 0.66466 0.92124 0.20072 0.0
O214 O 0.63934 0.86811 0.18661 0.0
Co215 Co 0.66377 0.8854 0.23811 0.0
O216 O 0.62722 0.8707 0.22629 0.0
C217 C 0.70019 0.85408 0.21692 0.0
C218 C 0.70208 0.89175 0.14797 0.0
C219 C 0.62243 0.86312 0.20363 0.0
O220 O 0.69491 0.86069 0.19435 0.0
O221 O 0.69129 0.86311 0.23642 0.0
O222 O 0.65916 0.91722 0.17672 0.0
O223 O 0.67739 0.90577 0.2118 0.0
H224 H 0.2 0.17129 0.19751 0.0
H225 H 0.2261 0.19015 0.23479 0.0
H226 H 0.24033 0.25616 0.19547 0.0
H227 H 0.2151 0.23756 0.15845 0.0
H228 H 0.28632 0.24409 0.21856 0.0
H229 H 0.2043 0.23836 0.28461 0.0
H230 H 0.21071 0.21081 0.27041 0.0
H231 H 0.19774 0.23291 0.25123 0.0
C232 C 0.20847 0.18989 0.19701 0.0
C233 C 0.20554 0.2029 0.17501 0.0
C234 C 0.22339 0.20063 0.21828 0.0
C235 C 0.23518 0.22459 0.21791 0.0
C236 C 0.23167 0.23761 0.19614 0.0
H237 H 0.27584 0.33862 0.31946 0.0
H238 H 0.25875 0.307 0.28896 0.0
C239 C 0.21712 0.22693 0.17498 0.0
C240 C 0.25132 0.23667 0.23983 0.0
H241 H 0.24571 0.25964 0.29859 0.0
C242 C 0.27764 0.24722 0.23625 0.0
C243 C 0.23992 0.24067 0.26287 0.0
C244 C 0.21158 0.23027 0.26761 0.0
C245 C 0.29222 0.26289 0.25439 0.0
C246 C 0.28036 0.26771 0.27696 0.0
C247 C 0.25473 0.25593 0.28122 0.0
C248 C 0.29233 0.28722 0.29481 0.0
C249 C 0.31944 0.27533 0.24854 0.0
C250 C 0.31732 0.28698 0.3079 0.0
C251 C 0.32744 0.3054 0.32528 0.0
C252 C 0.31245 0.32406 0.33002 0.0
C253 C 0.2878 0.32442 0.31641 0.0
C254 C 0.27792 0.30628 0.299 0.0
H255 H 0.32371 0.27267 0.22856 0.0
H256 H 0.321 0.29477 0.25274 0.0
H257 H 0.33509 0.26815 0.26048 0.0
H258 H 0.32865 0.27229 0.30518 0.0
H259 H 0.34636 0.30455 0.33569 0.0
H260 H 0.79791 0.26776 0.16767 0.0
H261 H 0.77263 0.25415 0.2034 0.0
H262 H 0.80132 0.32023 0.24367 0.0
H263 H 0.82685 0.33425 0.20759 0.0
H264 H 0.79218 0.24939 0.25421 0.0
H265 H 0.71722 0.31297 0.24441 0.0
H266 H 0.73795 0.30677 0.21925 0.0
H267 H 0.7521 0.32528 0.24565 0.0
C268 C 0.79904 0.27944 0.18414 0.0
C269 C 0.81431 0.30216 0.18474 0.0
C270 C 0.78453 0.2716 0.20453 0.0
C271 C 0.78475 0.28633 0.22595 0.0
C272 C 0.80059 0.30877 0.22708 0.0
H273 H 0.72494 0.2355 0.366 0.0
H274 H 0.74701 0.26027 0.33425 0.0
C275 C 0.81537 0.31663 0.20662 0.0
C276 C 0.76846 0.27767 0.24696 0.0
H277 H 0.71191 0.28513 0.27689 0.0
C278 C 0.77476 0.2573 0.2593 0.0
C279 C 0.74554 0.28789 0.25326 0.0
C280 C 0.73754 0.30935 0.23992 0.0
C281 C 0.7587 0.24678 0.27774 0.0
C282 C 0.73583 0.257 0.2841 0.0
C283 C 0.72949 0.27743 0.27189 0.0
C284 C 0.71878 0.24646 0.30375 0.0
C285 C 0.76605 0.22457 0.2901 0.0
C286 C 0.69479 0.23142 0.29723 0.0
C287 C 0.68194 0.21726 0.31545 0.0
C288 C 0.69321 0.21792 0.34023 0.0
C289 C 0.71596 0.23451 0.34697 0.0
C290 C 0.72858 0.2487 0.32891 0.0
H291 H 0.78186 0.21684 0.28032 0.0
H292 H 0.77358 0.22899 0.30984 0.0
H293 H 0.74816 0.21084 0.29049 0.0
H294 H 0.68703 0.22946 0.27781 0.0
H295 H 0.66454 0.20452 0.30977 0.0
H296 H 0.30454 0.70426 0.24363 0.0
H297 H 0.2781 0.73709 0.24139 0.0
H298 H 0.28406 0.7391 0.16108 0.0
H299 H 0.31051 0.70571 0.16301 0.0
H300 H 0.29558 0.78295 0.22231 0.0
H301 H 0.20246 0.73794 0.17105 0.0
H302 H 0.2264 0.72104 0.18633 0.0
H303 H 0.23436 0.73638 0.15805 0.0
C304 C 0.30023 0.7115 0.2254 0.0
C305 C 0.30978 0.70231 0.20351 0.0
C306 C 0.28509 0.73033 0.22417 0.0
C307 C 0.27908 0.7405 0.20108 0.0
C308 C 0.28825 0.73134 0.17906 0.0
H309 H 0.20902 0.86459 0.25122 0.0
H310 H 0.22898 0.84487 0.21689 0.0
C311 C 0.30343 0.71231 0.18024 0.0
C312 C 0.26376 0.76108 0.20093 0.0
H313 H 0.20018 0.7747 0.19122 0.0
C314 C 0.2749 0.78156 0.21496 0.0
C315 C 0.23693 0.75915 0.19106 0.0
C316 C 0.22412 0.73748 0.17581 0.0
C317 C 0.25921 0.79901 0.22175 0.0
C318 C 0.23165 0.79619 0.21362 0.0
C319 C 0.22126 0.77689 0.19735 0.0
C320 C 0.21256 0.80914 0.2268 0.0
C321 C 0.27172 0.81889 0.23973 0.0
C322 C 0.19439 0.79586 0.24181 0.0
C323 C 0.18264 0.80709 0.26087 0.0
C324 C 0.18879 0.83178 0.26522 0.0
C325 C 0.20393 0.84552 0.24809 0.0
C326 C 0.21562 0.83421 0.22874 0.0
H327 H 0.29256 0.81679 0.24631 0.0
H328 H 0.2723 0.83622 0.23026 0.0
H329 H 0.25972 0.81955 0.25647 0.0
H330 H 0.19147 0.77655 0.24063 0.0
H331 H 0.17101 0.79616 0.2739 0.0
H332 H 0.8531 0.69924 0.2998 0.0
H333 H 0.84087 0.73574 0.28077 0.0
H334 H 0.7613 0.69966 0.26103 0.0
H335 H 0.77363 0.66314 0.27898 0.0
H336 H 0.78006 0.72531 0.22291 0.0
H337 H 0.79618 0.78087 0.31104 0.0
H338 H 0.8251 0.76874 0.30125 0.0
H339 H 0.79671 0.7491 0.31091 0.0
C340 C 0.83297 0.69919 0.2915 0.0
C341 C 0.81429 0.67835 0.29098 0.0
C342 C 0.82599 0.72006 0.28068 0.0
C343 C 0.80005 0.72053 0.26971 0.0
C344 C 0.78147 0.69972 0.26926 0.0
H345 H 0.698 0.82377 0.25556 0.0
H346 H 0.72614 0.79311 0.26497 0.0
C347 C 0.78852 0.67886 0.27964 0.0
C348 C 0.7916 0.74257 0.25897 0.0
H349 H 0.77936 0.79848 0.27516 0.0
C350 C 0.78014 0.74145 0.23422 0.0
C351 C 0.79182 0.7636 0.27377 0.0
C352 C 0.8029 0.76571 0.30077 0.0
C353 C 0.76739 0.76015 0.22439 0.0
C354 C 0.7668 0.78082 0.23951 0.0
C355 C 0.77984 0.78258 0.26363 0.0
C356 C 0.74962 0.79926 0.23244 0.0
C357 C 0.7532 0.75696 0.19859 0.0
C358 C 0.75311 0.81276 0.21069 0.0
C359 C 0.73657 0.83024 0.20497 0.0
C360 C 0.71674 0.83471 0.22123 0.0
C361 C 0.71327 0.82097 0.24278 0.0
C362 C 0.72941 0.80344 0.24824 0.0
H363 H 0.75144 0.73825 0.19135 0.0
H364 H 0.73279 0.7622 0.19885 0.0
H365 H 0.76463 0.76855 0.18527 0.0
H366 H 0.76884 0.81009 0.19841 0.0
H367 H 0.73978 0.84069 0.18832 0.0
H368 H 0.30468 0.76701 0.67411 0.0
H369 H 0.2784 0.75435 0.70955 0.0
H370 H 0.29659 0.82496 0.74325 0.0
H371 H 0.32383 0.83765 0.70789 0.0
H372 H 0.29839 0.79204 0.77802 0.0
H373 H 0.20428 0.76911 0.71985 0.0
H374 H 0.22967 0.75343 0.708 0.0
H375 H 0.23376 0.78558 0.70776 0.0
C376 C 0.30328 0.77984 0.68915 0.0
C377 C 0.31615 0.80338 0.68813 0.0
C378 C 0.28797 0.77265 0.70927 0.0
C379 C 0.28463 0.78893 0.7286 0.0
C380 C 0.29851 0.81219 0.72832 0.0
H381 H 0.16647 0.72662 0.83405 0.0
H382 H 0.18718 0.75543 0.80443 0.0
C383 C 0.31422 0.81937 0.70823 0.0
C384 C 0.26716 0.78114 0.74923 0.0
H385 H 0.20678 0.74891 0.75972 0.0
C386 C 0.27817 0.78304 0.77407 0.0
C387 C 0.24037 0.77013 0.74434 0.0
C388 C 0.22626 0.76972 0.71855 0.0
C389 C 0.26399 0.7724 0.79376 0.0
C390 C 0.23849 0.75887 0.7883 0.0
C391 C 0.22655 0.7588 0.76387 0.0
C392 C 0.22565 0.74236 0.80677 0.0
C393 C 0.27682 0.77528 0.82011 0.0
C394 C 0.24006 0.7251 0.8173 0.0
C395 C 0.22846 0.7089 0.8341 0.0
C396 C 0.20186 0.70917 0.8406 0.0
C397 C 0.18702 0.72601 0.82952 0.0
C398 C 0.19885 0.74251 0.8127 0.0
H399 H 0.28978 0.79273 0.82275 0.0
H400 H 0.26159 0.77396 0.83441 0.0
H401 H 0.28977 0.76112 0.82338 0.0
H402 H 0.26034 0.72392 0.81227 0.0
H403 H 0.24042 0.69592 0.84181 0.0
H404 H 0.75172 0.70598 0.65559 0.0
H405 H 0.7767 0.72565 0.69238 0.0
H406 H 0.70628 0.71244 0.73489 0.0
H407 H 0.68125 0.69192 0.69806 0.0
H408 H 0.7659 0.76554 0.71347 0.0
H409 H 0.76303 0.69617 0.78558 0.0
H410 H 0.75421 0.68914 0.75273 0.0
H411 H 0.73036 0.69989 0.7724 0.0
C412 C 0.74162 0.70689 0.67289 0.0
C413 C 0.71444 0.69755 0.6739 0.0
C414 C 0.75597 0.71813 0.69393 0.0
C415 C 0.74349 0.72047 0.71648 0.0
C416 C 0.71655 0.71043 0.71787 0.0
H417 H 0.77201 0.80956 0.84776 0.0
H418 H 0.75677 0.78014 0.81448 0.0
C419 C 0.7022 0.69881 0.6968 0.0
C420 C 0.758 0.73548 0.73745 0.0
H421 H 0.77616 0.73658 0.80027 0.0
C422 C 0.76847 0.75908 0.73237 0.0
C423 C 0.76139 0.72707 0.76211 0.0
C424 C 0.75189 0.70161 0.76852 0.0
C425 C 0.78137 0.7747 0.75137 0.0
C426 C 0.78412 0.76648 0.77614 0.0
C427 C 0.77414 0.74278 0.7812 0.0
C428 C 0.79481 0.78294 0.79738 0.0
C429 C 0.79096 0.80019 0.74503 0.0
C430 C 0.82153 0.79402 0.79911 0.0
C431 C 0.83046 0.81106 0.81826 0.0
C432 C 0.81271 0.81731 0.83586 0.0
C433 C 0.78623 0.80549 0.83441 0.0
C434 C 0.77744 0.78849 0.81545 0.0
H435 H 0.78343 0.80467 0.72594 0.0
H436 H 0.78441 0.81271 0.75893 0.0
H437 H 0.81318 0.80301 0.74577 0.0
H438 H 0.83534 0.78975 0.78545 0.0
H439 H 0.851 0.81969 0.81892 0.0
H440 H 0.70885 0.36298 0.75032 0.0
H441 H 0.72845 0.3432 0.71587 0.0
H442 H 0.69015 0.27505 0.73939 0.0
H443 H 0.67037 0.29472 0.77293 0.0
H444 H 0.76428 0.31681 0.72803 0.0
H445 H 0.69056 0.25943 0.66717 0.0
H446 H 0.68109 0.28375 0.68553 0.0
H447 H 0.68111 0.25452 0.69866 0.0
C448 C 0.70343 0.34395 0.74706 0.0
C449 C 0.68816 0.33028 0.76413 0.0
C450 C 0.71476 0.33262 0.72751 0.0
C451 C 0.71079 0.30756 0.72485 0.0
C452 C 0.6931 0.29435 0.7404 0.0
H453 H 0.8122 0.21092 0.74609 0.0
H454 H 0.78615 0.24394 0.74255 0.0
C455 C 0.68188 0.30561 0.75979 0.0
C456 C 0.72945 0.29475 0.71087 0.0
H457 H 0.73113 0.24068 0.68203 0.0
C458 C 0.75703 0.30064 0.71711 0.0
C459 C 0.72045 0.27385 0.69609 0.0
C460 C 0.69166 0.26777 0.68629 0.0
C461 C 0.77515 0.28476 0.71187 0.0
C462 C 0.76537 0.26225 0.7006 0.0
C463 C 0.7385 0.25766 0.6914 0.0
C464 C 0.78159 0.24227 0.7019 0.0
C465 C 0.80437 0.29166 0.71991 0.0
C466 C 0.78699 0.22978 0.68022 0.0
C467 C 0.80188 0.21062 0.68218 0.0
C468 C 0.81134 0.20349 0.70589 0.0
C469 C 0.80545 0.2159 0.72751 0.0
C470 C 0.7907 0.23497 0.72551 0.0
H471 H 0.81013 0.31127 0.71927 0.0
H472 H 0.80799 0.2863 0.73961 0.0
H473 H 0.81745 0.28276 0.70781 0.0
H474 H 0.77983 0.23495 0.66184 0.0
H475 H 0.80592 0.20138 0.66514 0.0
H476 H 0.24811 0.3609 0.75145 0.0
H477 H 0.2752 0.32966 0.76277 0.0
H478 H 0.23658 0.28555 0.70071 0.0
H479 H 0.20996 0.31721 0.68877 0.0
H480 H 0.25333 0.28775 0.77824 0.0
H481 H 0.31288 0.2728 0.69684 0.0
H482 H 0.29656 0.29907 0.70032 0.0
H483 H 0.2778 0.27152 0.68824 0.0
C484 C 0.24587 0.34477 0.73982 0.0
C485 C 0.22682 0.34139 0.71932 0.0
C486 C 0.26137 0.32694 0.74632 0.0
C487 C 0.25802 0.30527 0.73259 0.0
C488 C 0.23995 0.3023 0.71129 0.0
H489 H 0.28736 0.16296 0.7615 0.0
H490 H 0.27508 0.20011 0.74498 0.0
C491 C 0.22466 0.32035 0.70453 0.0
C492 C 0.27079 0.28494 0.74254 0.0
H493 H 0.30874 0.24182 0.72716 0.0
C494 C 0.26579 0.27795 0.76718 0.0
C495 C 0.28694 0.27209 0.72808 0.0
C496 C 0.2941 0.27938 0.70199 0.0
C497 C 0.27579 0.25808 0.77747 0.0
C498 C 0.29141 0.24493 0.76283 0.0
C499 C 0.2968 0.25204 0.73834 0.0
C500 C 0.30065 0.22277 0.7721 0.0
C501 C 0.26874 0.25075 0.80361 0.0
C502 C 0.31941 0.22327 0.79269 0.0
C503 C 0.32651 0.20199 0.80232 0.0
C504 C 0.3149 0.17987 0.7915 0.0
C505 C 0.29657 0.1796 0.77049 0.0
C506 C 0.2896 0.20083 0.76087 0.0
H507 H 0.25275 0.26035 0.8107 0.0
H508 H 0.26197 0.23127 0.80396 0.0
H509 H 0.28678 0.25479 0.81669 0.0
H510 H 0.32832 0.24011 0.80145 0.0
H511 H 0.34082 0.20288 0.81838 0.0
H512 H 0.20693 0.94163 0.28764 0.0
H513 H 0.20418 0.97679 0.26199 0.0
H514 H 0.11804 0.96477 0.26209 0.0
H515 H 0.12059 0.92942 0.28768 0.0
H516 H 0.17513 0.97796 0.21284 0.0
H517 H 0.13937 0.03647 0.28484 0.0
H518 H 0.15553 0.01081 0.29303 0.0
H519 H 0.12137 1.00687 0.28055 0.0
C520 C 0.18737 0.94649 0.28234 0.0
C521 C 0.16398 0.93268 0.28982 0.0
C522 C 0.18584 0.96661 0.26761 0.0
C523 C 0.16093 0.97362 0.26028 0.0
C524 C 0.13752 0.95994 0.26778 0.0
H525 H 0.11643 0.09476 0.17459 0.0
H526 H 0.11665 0.0595 0.20063 0.0
C527 C 0.13901 0.93966 0.28234 0.0
C528 C 0.15954 0.99482 0.2442 0.0
H529 H 0.14289 0.05146 0.24397 0.0
C530 C 0.16811 0.99405 0.21965 0.0
C531 C 0.15018 0.01576 0.25298 0.0
C532 C 0.14123 0.01777 0.27934 0.0
C533 C 0.16735 0.01348 0.20358 0.0
C534 C 0.15855 0.0347 0.21251 0.0
C535 C 0.14974 0.03534 0.23704 0.0
C536 C 0.15852 0.0564 0.19679 0.0
C537 C 0.17535 0.01075 0.17696 0.0
C538 C 0.18204 0.06685 0.18622 0.0
C539 C 0.18189 0.08688 0.17112 0.0
C540 C 0.1583 0.09727 0.16653 0.0
C541 C 0.13493 0.08721 0.17766 0.0
C542 C 0.13504 0.06702 0.1926 0.0
H543 H 0.17315 0.99169 0.1708 0.0
H544 H 0.16312 0.02033 0.16362 0.0
H545 H 0.19672 0.01823 0.17591 0.0
H546 H 0.20065 0.05958 0.18972 0.0
H547 H 0.20034 0.09428 0.16311 0.0
H548 H 0.9056 0.39966 0.1976 0.0
H549 H 0.90732 0.4326 0.22851 0.0
H550 H 0.82795 0.4445 0.202 0.0
H551 H 0.82589 0.41146 0.17156 0.0
H552 H 0.90433 0.47982 0.22287 0.0
H553 H 0.81935 0.44091 0.27653 0.0
H554 H 0.83449 0.42362 0.25395 0.0
H555 H 0.81 0.44235 0.24368 0.0
C556 C 0.88847 0.40925 0.19842 0.0
C557 C 0.86553 0.40277 0.18216 0.0
C558 C 0.88948 0.4281 0.21613 0.0
C559 C 0.86754 0.44081 0.21807 0.0
C560 C 0.84486 0.43462 0.20148 0.0
H561 H 0.82647 0.56742 0.28575 0.0
H562 H 0.82962 0.52968 0.26408 0.0
C563 C 0.8438 0.41578 0.18388 0.0
C564 C 0.86848 0.46096 0.23682 0.0
H565 H 0.83337 0.48291 0.28294 0.0
C566 C 0.88904 0.48032 0.23627 0.0
C567 C 0.84866 0.46166 0.25451 0.0
C568 C 0.82705 0.44091 0.25743 0.0
C569 C 0.88953 0.50074 0.25193 0.0
C570 C 0.86908 0.50181 0.26883 0.0
C571 C 0.84903 0.48216 0.26997 0.0
C572 C 0.86678 0.52393 0.2838 0.0
C573 C 0.91125 0.5215 0.24947 0.0
C574 C 0.88626 0.53308 0.30276 0.0
C575 C 0.88438 0.55475 0.31547 0.0
C576 C 0.86308 0.5677 0.30931 0.0
C577 C 0.8432 0.558 0.29095 0.0
C578 C 0.84496 0.53637 0.27849 0.0
H579 H 0.92305 0.51939 0.23281 0.0
H580 H 0.90248 0.53843 0.24797 0.0
H581 H 0.92516 0.52297 0.26651 0.0
H582 H 0.9031 0.52363 0.30746 0.0
H583 H 0.90005 0.56175 0.32944 0.0
H584 H 0.26181 0.08182 0.87175 0.0
H585 H 0.23656 0.08489 0.90912 0.0
H586 H 0.29661 0.1412 0.93931 0.0
H587 H 0.32239 0.13785 0.90223 0.0
H588 H 0.27994 0.11091 0.97547 0.0
H589 H 0.19074 0.13619 0.92212 0.0
H590 H 0.19972 0.10808 0.91204 0.0
H591 H 0.22217 0.13505 0.90801 0.0
C592 C 0.26983 0.09476 0.88639 0.0
C593 C 0.29416 0.1097 0.88376 0.0
C594 C 0.25517 0.09665 0.90772 0.0
C595 C 0.2642 0.11374 0.92683 0.0
C596 C 0.28901 0.128 0.92477 0.0
H597 H 0.20868 0.17158 0.06149 0.0
H598 H 0.23034 0.16268 0.0234 0.0
C599 C 0.30381 0.12601 0.90352 0.0
C600 C 0.24786 0.11688 0.9489 0.0
H601 H 0.18675 0.12986 0.96564 0.0
C602 C 0.25957 0.11504 0.97324 0.0
C603 C 0.22118 0.12227 0.94617 0.0
C604 C 0.20775 0.12575 0.9207 0.0
C605 C 0.24547 0.11842 0.99475 0.0
C606 C 0.21894 0.12399 0.992 0.0
C607 C 0.207 0.12543 0.96773 0.0
C608 C 0.20413 0.12989 0.01417 0.0
C609 C 0.25908 0.11602 0.02037 0.0
C610 C 0.18144 0.11484 0.02127 0.0
C611 C 0.16885 0.1199 0.04325 0.0
C612 C 0.17865 0.1402 0.05835 0.0
C613 C 0.20062 0.15571 0.05045 0.0
C614 C 0.21318 0.15061 0.02869 0.0
H615 H 0.27674 0.10633 0.01936 0.0
H616 H 0.26605 0.13406 0.02867 0.0
H617 H 0.24491 0.1065 0.03316 0.0
H618 H 0.17398 0.09882 0.01023 0.0
H619 H 0.15203 0.10757 0.0488 0.0
H620 H 0.86072 0.38902 0.05985 0.0
H621 H 0.8357 0.39585 0.02017 0.0
H622 H 0.7744 0.33835 0.03631 0.0
H623 H 0.79949 0.33094 0.07493 0.0
H624 H 0.78501 0.33506 0.98969 0.0
H625 H 0.77019 0.42868 0.00981 0.0
H626 H 0.80476 0.42415 0.0105 0.0
H627 H 0.78339 0.41018 0.03338 0.0
C628 C 0.84203 0.37775 0.05475 0.0
C629 C 0.83217 0.35944 0.07061 0.0
C630 C 0.82753 0.38186 0.03222 0.0
C631 C 0.80276 0.36795 0.02537 0.0
C632 C 0.79332 0.34944 0.04106 0.0
H633 H 0.67789 0.39444 0.91043 0.0
H634 H 0.70476 0.39235 0.95037 0.0
C635 C 0.80781 0.3452 0.06325 0.0
C636 C 0.78668 0.37179 1.00166 0.0
H637 H 0.75528 0.41282 0.96901 0.0
C638 C 0.77854 0.3521 0.98527 0.0
C639 C 0.77767 0.39388 0.99595 0.0
C640 C 0.78419 0.41539 0.01343 0.0
C641 C 0.76189 0.3538 0.9635 0.0
C642 C 0.75378 0.37608 0.95721 0.0
C643 C 0.76164 0.39579 0.97366 0.0
C644 C 0.73796 0.37918 0.9332 0.0
C645 C 0.75268 0.33143 0.94777 0.0
C646 C 0.74793 0.37321 0.91027 0.0
C647 C 0.73257 0.37401 0.88775 0.0
C648 C 0.70699 0.38135 0.88737 0.0
C649 C 0.69744 0.38858 0.91014 0.0
C650 C 0.7128 0.38742 0.93293 0.0
H651 H 0.75312 0.31516 0.95906 0.0
H652 H 0.73202 0.3314 0.93934 0.0
H653 H 0.76635 0.33034 0.93236 0.0
H654 H 0.76756 0.36753 0.90979 0.0
H655 H 0.74081 0.36875 0.87053 0.0
H656 H 0.30168 0.82921 0.57649 0.0
H657 H 0.27701 0.83596 0.53734 0.0
H658 H 0.33714 0.89462 0.52195 0.0
H659 H 0.36183 0.88837 0.56201 0.0
H660 H 0.28632 0.90575 0.51211 0.0
H661 H 0.2937 0.8182 0.46748 0.0
H662 H 0.27958 0.81498 0.49749 0.0
H663 H 0.31361 0.82899 0.49557 0.0
C664 C 0.30995 0.84344 0.56474 0.0
C665 C 0.33394 0.85813 0.57237 0.0
C666 C 0.29578 0.84721 0.54221 0.0
C667 C 0.30535 0.86553 0.52634 0.0
C668 C 0.32938 0.88027 0.53378 0.0
H669 H 0.24177 0.86783 0.3723 0.0
H670 H 0.26906 0.86673 0.41122 0.0
C671 C 0.34359 0.87659 0.55658 0.0
C672 C 0.2898 0.86927 0.50235 0.0
H673 H 0.26041 0.83995 0.44916 0.0
C674 C 0.28086 0.89145 0.4982 0.0
C675 C 0.2828 0.85072 0.48401 0.0
C676 C 0.29316 0.82699 0.48621 0.0
C677 C 0.26477 0.8954 0.47652 0.0
C678 C 0.25682 0.87648 0.45874 0.0
C679 C 0.26612 0.85445 0.46281 0.0
C680 C 0.24023 0.8792 0.435 0.0
C681 C 0.25698 0.91994 0.47268 0.0
C682 C 0.21476 0.88687 0.43504 0.0
C683 C 0.19906 0.88789 0.41243 0.0
C684 C 0.20835 0.88076 0.3895 0.0
C685 C 0.23384 0.87328 0.38961 0.0
C686 C 0.24955 0.87263 0.41195 0.0
H687 H 0.27061 0.93376 0.48392 0.0
H688 H 0.25722 0.92471 0.45257 0.0
H689 H 0.2364 0.92027 0.47882 0.0
H690 H 0.20672 0.89152 0.45256 0.0
H691 H 0.17946 0.89361 0.41297 0.0
H692 H 0.65215 0.60914 0.54715 0.0
H693 H 0.67385 0.6002 0.5085 0.0
H694 H 0.73044 0.66397 0.52124 0.0
H695 H 0.70904 0.67304 0.55943 0.0
H696 H 0.68683 0.63063 0.46359 0.0
H697 H 0.77663 0.60752 0.51794 0.0
H698 H 0.7448 0.60802 0.53166 0.0
H699 H 0.76609 0.63542 0.52684 0.0
C700 C 0.66893 0.62143 0.54146 0.0
C701 C 0.67891 0.64173 0.55651 0.0
C702 C 0.68138 0.61626 0.51943 0.0
C703 C 0.70411 0.6312 0.51222 0.0
C704 C 0.71325 0.65197 0.52662 0.0
H705 H 0.82274 0.63766 0.40069 0.0
H706 H 0.79676 0.64156 0.43752 0.0
C707 C 0.70085 0.65718 0.54844 0.0
C708 C 0.71897 0.62505 0.49015 0.0
H709 H 0.77999 0.61168 0.47402 0.0
C710 C 0.70708 0.62621 0.46582 0.0
C711 C 0.74548 0.61946 0.49307 0.0
C712 C 0.75902 0.61731 0.51877 0.0
C713 C 0.7213 0.62276 0.44435 0.0
C714 C 0.74798 0.61738 0.44725 0.0
C715 C 0.75963 0.61581 0.47166 0.0
C716 C 0.76439 0.61397 0.42529 0.0
C717 C 0.70794 0.62592 0.41878 0.0
C718 C 0.75545 0.59663 0.40639 0.0
C719 C 0.77024 0.59441 0.38521 0.0
C720 C 0.79461 0.60927 0.3825 0.0
C721 C 0.80415 0.62587 0.40204 0.0
C722 C 0.78922 0.62818 0.42314 0.0
H723 H 0.69089 0.63637 0.41998 0.0
H724 H 0.72238 0.63507 0.40601 0.0
H725 H 0.69995 0.60815 0.41034 0.0
H726 H 0.73683 0.58491 0.40786 0.0
H727 H 0.7623 0.58127 0.37073 0.0
H728 H 0.93897 0.32558 0.13283 0.0
H729 H 0.97967 0.3062 0.13093 0.0
H730 H 0.93465 0.24754 0.08776 0.0
H731 H 0.89454 0.2668 0.08891 0.0
H732 H 0.99199 0.26362 0.1478 0.0
H733 H 0.99648 0.2632 0.04447 0.0
H734 H 0.9747 0.28031 0.0606 0.0
H735 H 0.96481 0.24897 0.0538 0.0
C736 C 0.93782 0.30869 0.12268 0.0
C737 C 0.91333 0.29802 0.11078 0.0
C738 C 0.96112 0.29755 0.12169 0.0
C739 C 0.96052 0.27553 0.10876 0.0
C740 C 0.93603 0.26478 0.09724 0.0
H741 H 0.08042 0.17583 0.12696 0.0
H742 H 0.04017 0.19566 0.12901 0.0
C743 C 0.91292 0.27589 0.09805 0.0
C744 C 0.98512 0.26338 0.10757 0.0
H745 H 0.02333 0.23778 0.06659 0.0
C746 C 0.99894 0.25812 0.13003 0.0
C747 C 0.99456 0.25633 0.08441 0.0
C748 C 0.98204 0.26271 0.05947 0.0
C749 C 0.02144 0.24571 0.12998 0.0
C750 C 0.03015 0.23777 0.10684 0.0
C751 C 0.01657 0.24342 0.0844 0.0
C752 C 0.05413 0.22481 0.10523 0.0
C753 C 0.03601 0.24176 0.15475 0.0
C754 C 0.07507 0.2338 0.09037 0.0
C755 C 0.09784 0.2223 0.08882 0.0
C756 C 0.10052 0.20133 0.10211 0.0
C757 C 0.07922 0.19192 0.11651 0.0
C758 C 0.05626 0.20345 0.11794 0.0
H759 H 0.03162 0.25439 0.16966 0.0
H760 H 0.02941 0.2234 0.1609 0.0
H761 H 0.05802 0.24382 0.153 0.0
H762 H 0.07406 0.2501 0.08022 0.0
H763 H 0.11364 0.23023 0.07748 0.0
H764 H 0.94147 0.66332 0.30523 0.0
H765 H 0.98087 0.69396 0.30905 0.0
H766 H 0.94994 0.72442 0.37417 0.0
H767 H 0.91128 0.6933 0.37107 0.0
H768 H 0.9873 0.74056 0.30619 0.0
H769 H 0.0235 0.71925 0.40202 0.0
H770 H 0.99705 0.70028 0.38443 0.0
H771 H 0.98994 0.72641 0.40119 0.0
C772 C 0.94321 0.67642 0.32049 0.0
C773 C 0.92338 0.67564 0.33803 0.0
C774 C 0.96573 0.69402 0.32263 0.0
C775 C 0.96885 0.71135 0.34224 0.0
C776 C 0.94864 0.7109 0.35936 0.0
H777 H 0.08874 0.84062 0.33659 0.0
H778 H 0.04622 0.8138 0.33605 0.0
C779 C 0.92638 0.69312 0.35747 0.0
C780 C 0.99296 0.73003 0.34453 0.0
H781 H 0.04418 0.75529 0.3854 0.0
C782 C 0.99978 0.74371 0.32351 0.0
C783 C 0.00955 0.73412 0.36702 0.0
C784 C 1.00483 0.71907 0.38984 0.0
C785 C 0.02257 0.76117 0.32429 0.0
C786 C 0.03869 0.76574 0.34701 0.0
C787 C 0.03176 0.75213 0.36805 0.0
C788 C 0.064 0.78305 0.34892 0.0
C789 C 0.02963 0.77384 0.30042 0.0
C790 C 0.0881 0.7753 0.35762 0.0
C791 C 0.11225 0.79071 0.35855 0.0
C792 C 0.11318 0.81442 0.35062 0.0
C793 C 0.0889 0.82249 0.34271 0.0
C794 C 0.06456 0.80704 0.34209 0.0
H795 H 0.01976 0.76385 0.2835 0.0
H796 H 0.02271 0.79162 0.30083 0.0
H797 H 0.05161 0.77639 0.2985 0.0
H798 H 0.08839 0.757 0.36314 0.0
H799 H 0.13037 0.78367 0.36478 0.0
H800 H 0.58246 0.67643 0.62434 0.0
H801 H 0.54196 0.69599 0.62617 0.0
H802 H 0.58035 0.75589 0.58702 0.0
H803 H 0.6203 0.73643 0.58454 0.0
H804 H 0.53351 0.73812 0.64792 0.0
H805 H 0.51095 0.7418 0.54537 0.0
H806 H 0.53515 0.72409 0.55868 0.0
H807 H 0.54422 0.75562 0.55473 0.0
C808 C 0.58219 0.69364 0.61585 0.0
C809 C 0.60476 0.70461 0.60405 0.0
C810 C 0.559 0.70489 0.61701 0.0
C811 C 0.55775 0.72734 0.60635 0.0
C812 C 0.58034 0.73836 0.59481 0.0
H813 H 0.43992 0.82461 0.63909 0.0
H814 H 0.48091 0.80573 0.63757 0.0
C815 C 0.60337 0.72714 0.59353 0.0
C816 C 0.53319 0.73954 0.60759 0.0
H817 H 0.48748 0.76554 0.57126 0.0
C818 C 0.52338 0.74401 0.63113 0.0
C819 C 0.51964 0.74712 0.58573 0.0
C820 C 0.52784 0.74171 0.5597 0.0
C821 C 0.50081 0.75603 0.63343 0.0
C822 C 0.48784 0.76432 0.61162 0.0
C823 C 0.49749 0.75958 0.58808 0.0
C824 C 0.46327 0.77658 0.61247 0.0
C825 C 0.49069 0.75916 0.65918 0.0
C826 C 0.43981 0.76717 0.59824 0.0
C827 C 0.41653 0.77808 0.5988 0.0
C828 C 0.41585 0.79887 0.61362 0.0
C829 C 0.43953 0.80863 0.62753 0.0
C830 C 0.46298 0.79766 0.62687 0.0
H831 H 0.49822 0.74657 0.67274 0.0
H832 H 0.49779 0.77756 0.66641 0.0
H833 H 0.46845 0.75643 0.65844 0.0
H834 H 0.43935 0.75105 0.58686 0.0
H835 H 0.39888 0.7699 0.58775 0.0
H836 H 0.87366 0.06868 0.69392 0.0
H837 H 0.87514 0.03408 0.72095 0.0
H838 H 0.85823 0.07629 0.78465 0.0
H839 H 0.85656 0.11079 0.75784 0.0
H840 H 0.90032 0.04499 0.79385 0.0
H841 H 0.80462 0.99839 0.7491 0.0
H842 H 0.83025 0.00913 0.72841 0.0
H843 H 0.81469 0.03002 0.74626 0.0
C844 C 0.87061 0.07068 0.71375 0.0
C845 C 0.86487 0.0925 0.72367 0.0
C846 C 0.87133 0.05085 0.72916 0.0
C847 C 0.86654 0.05249 0.75482 0.0
C848 C 0.86194 0.07454 0.76494 0.0
H849 H 0.81027 0.94556 0.85949 0.0
H850 H 0.81857 0.97966 0.83238 0.0
C851 C 0.86096 0.09426 0.74954 0.0
C852 C 0.86495 0.0311 0.77095 0.0
H853 H 0.82565 0.97854 0.7814 0.0
C854 C 0.88412 0.03035 0.79104 0.0
C855 C 0.84363 0.01214 0.76749 0.0
C856 C 0.82195 0.01235 0.74679 0.0
C857 C 0.8825 0.01122 0.80774 0.0
C858 C 0.86116 0.99222 0.80426 0.0
C859 C 0.84208 0.99298 0.78407 0.0
C860 C 0.85734 0.97197 0.82194 0.0
C861 C 0.90317 0.01186 0.82945 0.0
C862 C 0.87646 0.95618 0.82542 0.0
C863 C 0.8718 0.93652 0.8411 0.0
C864 C 0.84781 0.93209 0.85355 0.0
C865 C 0.82898 0.94823 0.8503 0.0
C866 C 0.83365 0.9678 0.83469 0.0
H867 H 0.91457 0.02995 0.83278 0.0
H868 H 0.89361 1.0061 0.84697 0.0
H869 H 0.91762 0.9994 0.82524 0.0
H870 H 0.89471 0.95871 0.8155 0.0
H871 H 0.8867 0.92445 0.84293 0.0
H872 H 0.11844 0.60867 0.83204 0.0
H873 H 0.1106 0.57565 0.80072 0.0
H874 H 0.18536 0.55241 0.82586 0.0
H875 H 0.19333 0.58491 0.85703 0.0
H876 H 0.17693 0.55862 0.77133 0.0
H877 H 0.09304 0.50153 0.81319 0.0
H878 H 0.09089 0.53288 0.81013 0.0
H879 H 0.11566 0.52343 0.83178 0.0
C880 C 0.13307 0.59637 0.83112 0.0
C881 C 0.15655 0.59961 0.84719 0.0
C882 C 0.12854 0.57749 0.81317 0.0
C883 C 0.14741 0.56153 0.81093 0.0
C884 C 0.17055 0.56451 0.82718 0.0
H885 H 0.16403 0.4261 0.75041 0.0
H886 H 0.15631 0.46134 0.77435 0.0
C887 C 0.17501 0.58317 0.8451 0.0
C888 C 0.14388 0.54204 0.79134 0.0
H889 H 0.1103 0.48639 0.7771 0.0
C890 C 0.16206 0.54299 0.7723 0.0
C891 C 0.12459 0.5216 0.79274 0.0
C892 C 0.10492 0.51954 0.81307 0.0
C893 C 0.16204 0.52379 0.75514 0.0
C894 C 0.14325 0.50304 0.75696 0.0
C895 C 0.12453 0.50237 0.77555 0.0
C896 C 0.14498 0.4809 0.74187 0.0
C897 C 0.18307 0.52531 0.73603 0.0
C898 C 0.14052 0.47981 0.71553 0.0
C899 C 0.1448 0.45942 0.70164 0.0
C900 C 0.1538 0.43989 0.71389 0.0
C901 C 0.15723 0.44081 0.7403 0.0
C902 C 0.15275 0.46097 0.75409 0.0
H903 H 0.19842 0.54123 0.73934 0.0
H904 H 0.19327 0.5091 0.73641 0.0
H905 H 0.17333 0.52635 0.71695 0.0
H906 H 0.13426 0.49488 0.70568 0.0
H907 H 0.142 0.45929 0.68134 0.0
H908 H 0.68974 0.8733 0.10025 0.0
H909 H 0.71838 0.87543 0.06462 0.0
H910 H 0.78239 0.91606 0.11045 0.0
H911 H 0.75377 0.91411 0.14626 0.0
H912 H 0.74543 0.91882 0.04219 0.0
H913 H 0.81632 0.85888 0.07984 0.0
H914 H 0.78342 0.85891 0.09147 0.0
H915 H 0.80957 0.88284 0.10013 0.0
C916 C 0.7099 0.88272 0.10281 0.0
C917 C 0.71942 0.89351 0.12619 0.0
C918 C 0.72626 0.88393 0.08237 0.0
C919 C 0.75266 0.89569 0.08487 0.0
C920 C 0.76222 0.90663 0.10813 0.0
H921 H 0.87392 0.89815 0.97041 0.0
H922 H 0.85262 0.90613 0.0096 0.0
C923 C 0.74577 0.9056 0.12856 0.0
C924 C 0.76986 0.89664 0.06296 0.0
H925 H 0.82359 0.87438 0.03979 0.0
C926 C 0.76263 0.90923 0.04174 0.0
C927 C 0.79252 0.88439 0.06243 0.0
C928 C 0.80099 0.87033 0.08457 0.0
C929 C 0.77708 0.90957 0.01992 0.0
C930 C 0.79901 0.89638 0.0189 0.0
C931 C 0.80683 0.88448 0.04046 0.0
C932 C 0.81231 0.89292 0.99498 0.0
C933 C 0.76865 0.9241 0.99813 0.0
C934 C 0.79692 0.88277 0.97375 0.0
C935 C 0.80895 0.87832 0.95152 0.0
C936 C 0.83684 0.88368 0.94982 0.0
C937 C 0.85239 0.89401 0.97099 0.0
C938 C 0.84023 0.89847 0.99343 0.0
H939 H 0.75868 0.93924 1.00466 0.0
H940 H 0.78602 0.93126 0.98739 0.0
H941 H 0.75403 0.91264 0.98527 0.0
H942 H 0.77551 0.8777 0.97451 0.0
H943 H 0.79627 0.87018 0.93574 0.0
H944 H 0.17643 0.61148 0.93192 0.0
H945 H 0.20124 0.60218 0.97073 0.0
H946 H 0.18006 0.66528 0.00683 0.0
H947 H 0.15444 0.67384 0.96846 0.0
H948 H 0.24397 0.62665 0.99092 0.0
H949 H 0.16994 0.62118 0.06332 0.0
H950 H 0.16013 0.6209 0.03021 0.0
H951 H 0.17041 0.64874 0.04727 0.0
C952 C 0.17616 0.62269 0.94857 0.0
C953 C 0.16289 0.64293 0.94757 0.0
C954 C 0.19057 0.61756 0.97066 0.0
C955 C 0.19232 0.6328 0.99204 0.0
C956 C 0.17841 0.65273 0.99108 0.0
H957 H 0.32821 0.66152 0.09966 0.0
H958 H 0.29608 0.65863 0.06331 0.0
C959 C 0.16374 0.65766 0.96911 0.0
C960 C 0.21095 0.62944 0.0142 0.0
H961 H 0.21637 0.63037 0.07847 0.0
C962 C 0.23775 0.62711 0.01004 0.0
C963 C 0.20302 0.62961 0.03926 0.0
C964 C 0.17423 0.62997 0.04525 0.0
C965 C 0.25691 0.62588 0.03008 0.0
C966 C 0.24942 0.62791 0.05516 0.0
C967 C 0.22239 0.62924 0.05933 0.0
C968 C 0.26934 0.62928 0.07725 0.0
C969 C 0.28492 0.62217 0.024 0.0
C970 C 0.26479 0.61434 0.0978 0.0
C971 C 0.28294 0.61633 0.11895 0.0
C972 C 0.30616 0.63321 0.11996 0.0
C973 C 0.31077 0.64805 0.09935 0.0
C974 C 0.29243 0.6463 0.07841 0.0
H975 H 0.28489 0.61259 1.00562 0.0
H976 H 0.29732 0.63977 0.02262 0.0
H977 H 0.29444 0.61186 0.03869 0.0
H978 H 0.24711 0.60114 0.09754 0.0
H979 H 0.27873 0.60471 0.13456 0.0
H980 H 0.63598 0.13674 0.46487 0.0
H981 H 0.65983 0.12883 0.50501 0.0
H982 H 0.73546 0.14924 0.47252 0.0
H983 H 0.71221 0.15711 0.43296 0.0
H984 H 0.70821 0.09856 0.51524 0.0
H985 H 0.73006 0.19601 0.53592 0.0
H986 H 0.70235 0.183 0.51486 0.0
H987 H 0.73586 0.18658 0.50455 0.0
C988 C 0.65767 0.1391 0.46622 0.0
C989 C 0.67214 0.14774 0.44574 0.0
C990 C 0.67126 0.13463 0.48913 0.0
C991 C 0.69943 0.13872 0.49178 0.0
C992 C 0.71376 0.14616 0.47097 0.0
H993 H 0.8337 0.15238 0.59955 0.0
H994 H 0.80182 0.15105 0.563 0.0
C995 C 0.70033 0.15064 0.4483 0.0
C996 C 0.71439 0.1369 0.5164 0.0
H997 H 0.75488 0.17112 0.56054 0.0
C998 C 0.71808 0.11436 0.52545 0.0
C999 C 0.7274 0.15756 0.52953 0.0
C1000 C 0.72365 0.18221 0.52091 0.0
C1001 C 0.73539 0.11199 0.54676 0.0
C1002 C 0.74904 0.13272 0.55947 0.0
C1003 C 0.7446 0.15522 0.55076 0.0
C1004 C 0.76871 0.13172 0.58132 0.0
C1005 C 0.73982 0.08735 0.55482 0.0
C1006 C 0.76085 0.12116 0.60385 0.0
C1007 C 0.77913 0.12183 0.62481 0.0
C1008 C 0.80561 0.13321 0.62375 0.0
C1009 C 0.81352 0.14341 0.60104 0.0
C1010 C 0.79527 0.14271 0.58012 0.0
H1011 H 0.73292 0.07364 0.53983 0.0
H1012 H 0.76135 0.08666 0.55997 0.0
H1013 H 0.72839 0.08269 0.5716 0.0
H1014 H 0.74037 0.11299 0.60547 0.0
H1015 H 0.77229 0.11396 0.64205 0.0
H1016 H 0.18736 0.37118 0.59911 0.0
H1017 H 0.21552 0.3735 0.56305 0.0
H1018 H 0.27838 0.41744 0.60713 0.0
H1019 H 0.25026 0.41538 0.64327 0.0
H1020 H 0.24132 0.4182 0.5396 0.0
H1021 H 0.31377 0.35983 0.57766 0.0
H1022 H 0.28057 0.35892 0.5889 0.0
H1023 H 0.30589 0.38344 0.59784 0.0
C1024 C 0.20715 0.38139 0.60115 0.0
C1025 C 0.21652 0.39308 0.62414 0.0
C1026 C 0.22323 0.3827 0.5805 0.0
C1027 C 0.24918 0.39546 0.58242 0.0
C1028 C 0.25855 0.40729 0.60526 0.0
H1029 H 0.37129 0.39971 0.46896 0.0
H1030 H 0.3493 0.40702 0.50793 0.0
C1031 C 0.24238 0.40618 0.62588 0.0
C1032 C 0.26621 0.39645 0.56041 0.0
H1033 H 0.32058 0.37514 0.53746 0.0
C1034 C 0.25873 0.4089 0.53918 0.0
C1035 C 0.28916 0.3846 0.55996 0.0
C1036 C 0.29792 0.3708 0.58219 0.0
C1037 C 0.2733 0.40952 0.51742 0.0
C1038 C 0.29558 0.39674 0.51648 0.0
C1039 C 0.30356 0.38493 0.53805 0.0
C1040 C 0.30924 0.39371 0.49269 0.0
C1041 C 0.26468 0.424 0.49567 0.0
C1042 C 0.29423 0.38371 0.47118 0.0
C1043 C 0.30665 0.37969 0.44906 0.0
C1044 C 0.33458 0.38527 0.44776 0.0
C1045 C 0.34975 0.3954 0.46924 0.0
C1046 C 0.33719 0.39948 0.49154 0.0
H1047 H 0.25443 0.43896 0.50222 0.0
H1048 H 0.282 0.43142 0.48499 0.0
H1049 H 0.25024 0.41243 0.48274 0.0
H1050 H 0.27283 0.37844 0.47163 0.0
H1051 H 0.29427 0.37168 0.43304 0.0
H1052 H 0.06843 0.69314 0.8498 0.0
H1053 H 0.03313 0.71894 0.85014 0.0
H1054 H 0.06909 0.75255 0.91945 0.0
H1055 H 0.10487 0.72744 0.9187 0.0
H1056 H 0.99555 0.72352 0.88132 0.0
H1057 H 0.06006 0.81048 0.88029 0.0
H1058 H 0.07272 0.78264 0.87486 0.0
H1059 H 0.06917 0.79314 0.90643 0.0
C1060 C 0.06896 0.70618 0.865 0.0
C1061 C 0.08967 0.70834 0.8841 0.0
C1062 C 0.04868 0.72092 0.86522 0.0
C1063 C 0.04855 0.73815 0.88457 0.0
C1064 C 0.06903 0.74001 0.90387 0.0
H1065 H 0.90639 0.80364 0.91983 0.0
H1066 H 0.94237 0.77866 0.91864 0.0
C1067 C 0.08945 0.72548 0.90351 0.0
C1068 C 0.02664 0.75362 0.88492 0.0
H1069 H 0.01472 0.81159 0.8901 0.0
C1070 C 0.9998 0.74279 0.88311 0.0
C1071 C 0.03192 0.77886 0.88684 0.0
C1072 C 0.06001 0.79198 0.88694 0.0
C1073 C 0.9783 0.75631 0.88355 0.0
C1074 C 0.98363 0.78148 0.88668 0.0
C1075 C 0.01045 0.79233 0.88807 0.0
C1076 C 0.96178 0.79696 0.88791 0.0
C1077 C 0.95011 0.74343 0.87999 0.0
C1078 C 0.96104 0.8163 0.87179 0.0
C1079 C 0.94075 0.83092 0.87281 0.0
C1080 C 0.92057 0.82657 0.88993 0.0
C1081 C 0.92145 0.8074 0.90626 0.0
C1082 C 0.94194 0.79293 0.90543 0.0
H1083 H 0.94959 0.72589 0.87013 0.0
H1084 H 0.94194 0.74006 0.89866 0.0
H1085 H 0.93683 0.75414 0.86905 0.0
H1086 H 0.97606 0.81997 0.85816 0.0
H1087 H 0.94073 0.8455 0.85993 0.0
H1088 H 0.10534 0.33484 0.66269 0.0
H1089 H 0.06707 0.30304 0.6575 0.0
H1090 H 0.05236 0.31101 0.73583 0.0
H1091 H 0.08983 0.34287 0.74107 0.0
H1092 H 0.05906 0.25986 0.68015 0.0
H1093 H 0.9783 0.31169 0.70394 0.0
H1094 H 0.01124 0.32581 0.69715 0.0
H1095 H 1.00489 0.31489 0.72808 0.0
C1096 C 0.09368 0.33012 0.67872 0.0
C1097 C 0.10073 0.34167 0.70228 0.0
C1098 C 0.07185 0.31181 0.67574 0.0
C1099 C 0.05646 0.30478 0.69617 0.0
C1100 C 0.06338 0.31641 0.71958 0.0
H1101 H 0.94246 0.19234 0.74369 0.0
H1102 H 0.97953 0.22358 0.73739 0.0
C1103 C 0.08505 0.33465 0.72257 0.0
C1104 C 0.03393 0.28464 0.69362 0.0
H1105 H 0.96854 0.26905 0.7072 0.0
C1106 C 0.03915 0.26197 0.68564 0.0
C1107 C 1.0078 0.28729 0.70063 0.0
C1108 C 1.00014 0.3113 0.70766 0.0
C1109 C 0.01939 0.24182 0.68572 0.0
C1110 C 0.99381 0.24435 0.694 0.0
C1111 C 0.98827 0.2671 0.70107 0.0
C1112 C 0.97294 0.22351 0.69698 0.0
C1113 C 0.02617 0.21773 0.67795 0.0
C1114 C 0.95714 0.21268 0.67625 0.0
C1115 C 0.93567 0.1947 0.67976 0.0
C1116 C 0.9296 0.18723 0.7041 0.0
C1117 C 0.94634 0.19751 0.72466 0.0
C1118 C 0.9676 0.21548 0.72113 0.0
H1119 H 0.04732 0.2185 0.67293 0.0
H1120 H 0.02259 0.20506 0.69345 0.0
H1121 H 0.01283 0.21057 0.66148 0.0
H1122 H 0.96085 0.21869 0.65744 0.0
H1123 H 0.92324 0.18735 0.66348 0.0
H1124 H 0.55865 0.18519 0.36201 0.0
H1125 H 0.52273 0.21024 0.36286 0.0
H1126 H 0.57266 0.26055 0.41292 0.0
H1127 H 0.6084 0.23528 0.41262 0.0
H1128 H 0.52249 0.25283 0.42816 0.0
H1129 H 0.5176 0.27129 0.32644 0.0
H1130 H 0.51264 0.24003 0.33271 0.0
H1131 H 0.54442 0.25755 0.34145 0.0
C1132 C 0.56203 0.20161 0.37316 0.0
C1133 C 0.58653 0.20823 0.38715 0.0
C1134 C 0.54149 0.21605 0.3735 0.0
C1135 C 0.54503 0.23763 0.38757 0.0
C1136 C 0.56937 0.2441 0.4018 0.0
H1137 H 0.44619 0.35234 0.36979 0.0
H1138 H 0.48174 0.32687 0.37015 0.0
C1139 C 0.58986 0.22962 0.40158 0.0
C1140 C 0.5233 0.25326 0.38785 0.0
H1141 H 0.48293 0.28341 0.34992 0.0
C1142 C 0.5139 0.25954 0.41103 0.0
C1143 C 0.51223 0.26241 0.36558 0.0
C1144 C 0.5224 0.2577 0.34016 0.0
C1145 C 0.49367 0.27435 0.41256 0.0
C1146 C 0.48195 0.28282 0.39023 0.0
C1147 C 0.49159 0.27678 0.36707 0.0
C1148 C 0.46016 0.2984 0.39045 0.0
C1149 C 0.48557 0.28125 0.4382 0.0
C1150 C 0.43591 0.29096 0.40154 0.0
C1151 C 0.41555 0.30563 0.40152 0.0
C1152 C 0.41881 0.328 0.39013 0.0
C1153 C 0.44297 0.33529 0.3788 0.0
C1154 C 0.46335 0.32068 0.37894 0.0
H1155 H 0.5014 0.27922 0.45309 0.0
H1156 H 0.48128 0.29997 0.43878 0.0
H1157 H 0.46718 0.26942 0.44266 0.0
H1158 H 0.43254 0.27365 0.40998 0.0
H1159 H 0.39714 0.29931 0.41021 0.0
H1160 H 0.62293 0.60223 0.68224 0.0
H1161 H 0.62303 0.56735 0.70893 0.0
H1162 H 0.69531 0.55134 0.67707 0.0
H1163 H 0.69545 0.58619 0.65045 0.0
H1164 H 0.65299 0.51101 0.67965 0.0
H1165 H 0.67645 0.56077 0.77087 0.0
H1166 H 0.64916 0.56923 0.75133 0.0
H1167 H 0.68261 0.57445 0.74102 0.0
C1168 C 0.63889 0.59132 0.68094 0.0
C1169 C 0.65923 0.5971 0.66422 0.0
C1170 C 0.63897 0.57142 0.69629 0.0
C1171 C 0.65932 0.5568 0.6952 0.0
C1172 C 0.67945 0.56237 0.67833 0.0
H1173 H 0.7058 0.44687 0.79424 0.0
H1174 H 0.70348 0.48209 0.76852 0.0
C1175 C 0.67952 0.58236 0.66314 0.0
C1176 C 0.65953 0.53555 0.71139 0.0
H1177 H 0.66745 0.51876 0.77246 0.0
C1178 C 0.65607 0.5127 0.69994 0.0
C1179 C 0.66379 0.53774 0.73787 0.0
C1180 C 0.66843 0.56184 0.75112 0.0
C1181 C 0.65653 0.49205 0.71424 0.0
C1182 C 0.6605 0.49422 0.74074 0.0
C1183 C 0.66421 0.51707 0.75218 0.0
C1184 C 0.66155 0.47297 0.75679 0.0
C1185 C 0.65324 0.46802 0.70089 0.0
C1186 C 0.63866 0.45621 0.75907 0.0
C1187 C 0.63987 0.43611 0.77392 0.0
C1188 C 0.66405 0.43225 0.78675 0.0
C1189 C 0.68687 0.4492 0.78459 0.0
C1190 C 0.68558 0.46939 0.76991 0.0
H1191 H 0.65534 0.46962 0.68033 0.0
H1192 H 0.66826 0.45702 0.70867 0.0
H1193 H 0.63303 0.45846 0.70382 0.0
H1194 H 0.61981 0.45871 0.74935 0.0
H1195 H 0.6219 0.42347 0.77517 0.0
H1196 H 0.32467 0.06845 0.7867 0.0
H1197 H 0.3274 0.03067 0.76493 0.0
H1198 H 0.4016 0.02463 0.80712 0.0
H1199 H 0.39895 0.06275 0.82924 0.0
H1200 H 0.4028 0.01833 0.75324 0.0
H1201 H 0.31619 0.96172 0.79002 0.0
H1202 H 0.3085 0.98993 0.77891 0.0
H1203 H 0.33172 0.9891 0.80568 0.0
C1204 C 0.3414 0.05895 0.79172 0.0
C1205 C 0.36156 0.06862 0.80981 0.0
C1206 C 0.34287 0.03725 0.77927 0.0
C1207 C 0.36456 0.02462 0.7845 0.0
C1208 C 0.38457 0.03397 0.80287 0.0
H1209 H 0.40615 0.90044 0.69942 0.0
H1210 H 0.40769 0.93383 0.72965 0.0
C1211 C 0.38297 0.05569 0.81559 0.0
C1212 C 0.36684 1.00252 0.76953 0.0
H1213 H 0.33333 0.94744 0.75266 0.0
C1214 C 0.38786 1.00266 0.75336 0.0
C1215 C 0.34725 0.98214 0.76955 0.0
C1216 C 0.32476 0.98053 0.78713 0.0
C1217 C 0.38915 0.98346 0.73646 0.0
C1218 C 0.36918 0.96325 0.73607 0.0
C1219 C 0.3486 0.96289 0.75279 0.0
C1220 C 0.36855 0.94276 0.71781 0.0
C1221 C 0.41121 0.98553 0.71837 0.0
C1222 C 0.3458 0.9361 0.70143 0.0
C1223 C 0.34477 0.91686 0.68432 0.0
C1224 C 0.36646 0.90373 0.68314 0.0
C1225 C 0.38919 0.91029 0.69964 0.0
C1226 C 0.39015 0.9295 0.71687 0.0
H1227 H 0.42051 1.00432 0.7166 0.0
H1228 H 0.4271 0.97511 0.72536 0.0
H1229 H 0.40354 0.97835 0.69942 0.0
H1230 H 0.32881 0.94592 0.70177 0.0
H1231 H 0.32691 0.9123 0.67198 0.0
H1232 H 0.41918 0.18618 0.87693 0.0
H1233 H 0.45826 0.21699 0.87932 0.0
H1234 H 0.47161 0.20229 0.80178 0.0
H1235 H 0.43278 0.1711 0.79939 0.0
H1236 H 0.51782 0.20656 0.83085 0.0
H1237 H 0.46429 0.28331 0.85121 0.0
H1238 H 0.45859 0.25983 0.87322 0.0
H1239 H 0.44698 0.25451 0.84079 0.0
C1240 C 0.43041 0.18948 0.86036 0.0
C1241 C 0.42276 0.17616 0.83794 0.0
C1242 C 0.45266 0.2073 0.8617 0.0
C1243 C 0.46767 0.2124 0.84059 0.0
C1244 C 0.46029 0.19886 0.81829 0.0
H1245 H 0.58985 0.33554 0.82195 0.0
H1246 H 0.54813 0.30762 0.82055 0.0
C1247 C 0.43808 0.18099 0.81695 0.0
C1248 C 0.49151 0.23127 0.84196 0.0
H1249 H 0.51202 0.29044 0.85595 0.0
C1250 C 0.51648 0.22491 0.83625 0.0
C1251 C 0.48984 0.25537 0.84865 0.0
C1252 C 0.46345 0.26377 0.85357 0.0
C1253 C 0.53978 0.24172 0.83754 0.0
C1254 C 0.53832 0.26559 0.84524 0.0
C1255 C 0.51327 0.27212 0.85039 0.0
C1256 C 0.56265 0.28389 0.84793 0.0
C1257 C 0.56572 0.23379 0.83022 0.0
C1258 C 0.58435 0.28046 0.86455 0.0
C1259 C 0.60819 0.29635 0.86539 0.0
C1260 C 0.61091 0.31626 0.84979 0.0
C1261 C 0.58855 0.32047 0.83426 0.0
C1262 C 0.56467 0.30444 0.83336 0.0
H1263 H 0.56214 0.21724 0.81829 0.0
H1264 H 0.57773 0.24789 0.81987 0.0
H1265 H 0.57769 0.23003 0.84746 0.0
H1266 H 0.58309 0.26512 0.87649 0.0
H1267 H 0.6248 0.29259 0.8778 0.0
H1268 H 0.36139 0.61245 0.25398 0.0
H1269 H 0.36413 0.57829 0.28102 0.0
H1270 H 0.37581 0.53468 0.21658 0.0
H1271 H 0.37339 0.56903 0.18931 0.0
H1272 H 0.33281 0.5157 0.2483 0.0
H1273 H 0.42917 0.54287 0.30346 0.0
H1274 H 0.40729 0.56542 0.30079 0.0
H1275 H 0.42141 0.55501 0.27319 0.0
C1276 C 0.36501 0.59571 0.24556 0.0
C1277 C 0.36724 0.59352 0.21945 0.0
C1278 C 0.36666 0.57618 0.26111 0.0
C1279 C 0.37039 0.55391 0.25093 0.0
C1280 C 0.3731 0.55172 0.22491 0.0
H1281 H 0.38742 0.42585 0.33978 0.0
H1282 H 0.39568 0.45933 0.31127 0.0
C1283 C 0.37181 0.57139 0.20935 0.0
C1284 C 0.36941 0.53267 0.26727 0.0
H1285 H 0.40022 0.51029 0.31884 0.0
C1286 C 0.34769 0.51441 0.26356 0.0
C1287 C 0.3889 0.53085 0.28711 0.0
C1288 C 0.41317 0.54945 0.29136 0.0
C1289 C 0.34444 0.49488 0.27963 0.0
C1290 C 0.36331 0.49356 0.30017 0.0
C1291 C 0.3856 0.51135 0.30331 0.0
C1292 C 0.35959 0.47421 0.3189 0.0
C1293 C 0.32071 0.47583 0.27448 0.0
C1294 C 0.33707 0.47182 0.33337 0.0
C1295 C 0.33233 0.4528 0.34968 0.0
C1296 C 0.35006 0.43562 0.35213 0.0
C1297 C 0.3733 0.43866 0.33846 0.0
C1298 C 0.37803 0.45778 0.32207 0.0
H1299 H 0.31244 0.47598 0.25471 0.0
H1300 H 0.32624 0.45785 0.27834 0.0
H1301 H 0.30464 0.47908 0.28693 0.0
H1302 H 0.32283 0.48451 0.33174 0.0
H1303 H 0.31434 0.45132 0.35999 0.0
H1304 H 0.62314 0.11521 0.32618 0.0
H1305 H 0.61548 0.08125 0.29595 0.0
H1306 H 0.68157 0.05139 0.332 0.0
H1307 H 0.68958 0.08514 0.36195 0.0
H1308 H 0.66539 0.06497 0.26523 0.0
H1309 H 0.60787 0.99822 0.32365 0.0
H1310 H 0.60657 0.02987 0.32715 0.0
H1311 H 0.6357 0.0176 0.33882 0.0
C1312 C 0.63582 0.10126 0.32789 0.0
C1313 C 0.65701 0.10298 0.34656 0.0
C1314 C 0.63149 0.08194 0.3105 0.0
C1315 C 0.64799 0.06383 0.31172 0.0
C1316 C 0.6686 0.06516 0.33072 0.0
H1317 H 0.67643 0.93183 0.25026 0.0
H1318 H 0.66877 0.96684 0.27429 0.0
C1319 C 0.67313 0.08451 0.34786 0.0
C1320 C 0.64459 0.04377 0.29285 0.0
H1321 H 0.62434 0.98382 0.28652 0.0
C1322 C 0.65602 0.04727 0.2696 0.0
C1323 C 0.63251 0.02074 0.29872 0.0
C1324 C 0.61978 0.01619 0.32337 0.0
C1325 C 0.65689 0.02806 0.25257 0.0
C1326 C 0.64549 1.00477 0.25876 0.0
C1327 C 0.63305 1.00158 0.28164 0.0
C1328 C 0.6489 0.98312 0.24337 0.0
C1329 C 0.67141 0.0327 0.22883 0.0
C1330 C 0.63999 0.98017 0.21779 0.0
C1331 C 0.6446 0.95996 0.20373 0.0
C1332 C 0.65795 0.94225 0.21508 0.0
C1333 C 0.66611 0.94504 0.24079 0.0
C1334 C 0.66168 0.96514 0.25467 0.0
H1335 H 0.68385 0.05048 0.22946 0.0
H1336 H 0.68455 0.01886 0.22554 0.0
H1337 H 0.65653 0.03213 0.21259 0.0
H1338 H 0.62953 0.99348 0.20869 0.0
H1339 H 0.63794 0.95831 0.18401 0.0
H1340 H 0.61184 0.83111 0.16369 0.0
H1341 H 0.57471 0.79836 0.15789 0.0
H1342 H 0.54092 0.82194 0.22479 0.0
H1343 H 0.57784 0.85457 0.2308 0.0
H1344 H 0.56238 0.76191 0.19416 0.0
H1345 H 0.47612 0.8109 0.1723 0.0
H1346 H 0.5104 0.82387 0.16891 0.0
H1347 H 0.49704 0.82234 0.19943 0.0
C1348 C 0.59621 0.82967 0.17688 0.0
C1349 C 0.59789 0.8456 0.1977 0.0
C1350 C 0.57506 0.81082 0.17361 0.0
C1351 C 0.5549 0.80772 0.19082 0.0
C1352 C 0.55601 0.82409 0.21107 0.0
H1353 H 0.44796 0.68762 0.2371 0.0
H1354 H 0.48519 0.71891 0.23105 0.0
C1355 C 0.57723 0.84276 0.21451 0.0
C1356 C 0.5337 0.78657 0.18875 0.0
H1357 H 0.46578 0.7703 0.18381 0.0
C1358 C 0.54128 0.76372 0.19162 0.0
C1359 C 0.50615 0.78885 0.18524 0.0
C1360 C 0.49685 0.81277 0.18106 0.0
C1361 C 0.52204 0.74327 0.19205 0.0
C1362 C 0.49445 0.74568 0.18967 0.0
C1363 C 0.48691 0.76841 0.1858 0.0
C1364 C 0.4731 0.72507 0.19238 0.0
C1365 C 0.53139 0.71923 0.19522 0.0
C1366 C 0.45387 0.7179 0.17262 0.0
C1367 C 0.43254 0.6998 0.17596 0.0
C1368 C 0.42971 0.68875 0.19932 0.0
C1369 C 0.44945 0.69561 0.21884 0.0
C1370 C 0.47086 0.7135 0.21539 0.0
H1371 H 0.55246 0.71951 0.19013 0.0
H1372 H 0.53027 0.71416 0.21518 0.0
H1373 H 0.51844 0.70532 0.1835 0.0
H1374 H 0.45509 0.72662 0.15472 0.0
H1375 H 0.41765 0.69522 0.16057 0.0
loop_
_geom_bond_atom_site_label_1
_geom_bond_atom_site_label_2
_geom_bond_distance
_geom_bond_site_symmetry_2
_ccdc_geom_bond_type
Co0 O1 2.216 . S
Co0 O2 2.091 . S
Co0 O4 2.004 . S
Co0 O10 2.021 . S
Co0 O12 2.137 . S
Co0 O13 2.244 . S
O1 Co0 2.216 . S
O1 C8 1.247 . S
O2 Co0 2.091 . S
O2 C8 1.261 . S
C3 O12 1.247 . S
C3 O13 1.272 . S
O4 Co0 2.004 . S
O4 C9 1.259 . S
Co5 O6 2.061 . S
Co5 O11 2.052 . S
Co5 O13 2.135 . S
O6 Co5 2.061 . S
O6 C9 1.235 . S
C7 O10 1.238 . S
C7 O11 1.241 . S
C8 O1 1.247 . S
C8 O2 1.261 . S
C9 O4 1.259 . S
C9 O6 1.235 . S
O10 Co0 2.021 . S
O10 C7 1.238 . S
O11 Co5 2.052 . S
O11 C7 1.241 . S
O12 Co0 2.137 . S
O12 C3 1.247 . S
O13 Co0 2.244 . S
O13 C3 1.272 . S
O13 Co5 2.135 . S
Co14 O15 2.216 . S
Co14 O16 2.091 . S
Co14 O18 2.004 . S
Co14 O24 2.021 . S
Co14 O26 2.137 . S
Co14 O27 2.244 . S
O15 Co14 2.216 . S
O15 C22 1.247 . S
O16 Co14 2.091 . S
O16 C22 1.261 . S
C17 O26 1.247 . S
C17 O27 1.272 . S
O18 Co14 2.004 . S
O18 C23 1.259 . S
Co19 O20 2.061 . S
Co19 O25 2.052 . S
Co19 O27 2.135 . S
O20 Co19 2.061 . S
O20 C23 1.235 . S
C21 O24 1.238 . S
C21 O25 1.241 . S
C22 O15 1.247 . S
C22 O16 1.261 . S
C23 O18 1.259 . S
C23 O20 1.235 . S
O24 Co14 2.021 . S
O24 C21 1.238 . S
O25 Co19 2.052 . S
O25 C21 1.241 . S
O26 Co14 2.137 . S
O26 C17 1.247 . S
O27 Co14 2.244 . S
O27 C17 1.272 . S
O27 Co19 2.135 . S
Co28 O29 2.216 . S
Co28 O30 2.091 . S
Co28 O32 2.004 . S
Co28 O38 2.021 . S
Co28 O40 2.137 . S
Co28 O41 2.244 . S
O29 Co28 2.216 . S
O29 C36 1.247 . S
O30 Co28 2.091 . S
O30 C36 1.261 . S
C31 O40 1.247 . S
C31 O41 1.272 . S
O32 Co28 2.004 . S
O32 C37 1.259 . S
Co33 O34 2.061 . S
Co33 O39 2.052 . S
Co33 O41 2.135 . S
O34 Co33 2.061 . S
O34 C37 1.235 . S
C35 O38 1.238 . S
C35 O39 1.241 . S
C36 O29 1.247 . S
C36 O30 1.261 . S
C37 O32 1.259 . S
C37 O34 1.235 . S
O38 Co28 2.021 . S
O38 C35 1.238 . S
O39 Co33 2.052 . S
O39 C35 1.241 . S
O40 Co28 2.137 . S
O40 C31 1.247 . S
O41 Co28 2.244 . S
O41 C31 1.272 . S
O41 Co33 2.135 . S
Co42 O43 2.216 . S
Co42 O44 2.091 . S
Co42 O46 2.004 . S
Co42 O52 2.021 . S
Co42 O54 2.137 . S
Co42 O55 2.244 . S
O43 Co42 2.216 . S
O43 C50 1.247 . S
O44 Co42 2.091 . S
O44 C50 1.261 . S
C45 O54 1.247 . S
C45 O55 1.272 . S
O46 Co42 2.004 . S
O46 C51 1.259 . S
Co47 O48 2.061 . S
Co47 O53 2.052 . S
Co47 O55 2.135 . S
O48 Co47 2.061 . S
O48 C51 1.235 . S
C49 O52 1.238 . S
C49 O53 1.241 . S
C50 O43 1.247 . S
C50 O44 1.261 . S
C51 O46 1.259 . S
C51 O48 1.235 . S
O52 Co42 2.021 . S
O52 C49 1.238 . S
O53 Co47 2.052 . S
O53 C49 1.241 . S
O54 Co42 2.137 . S
O54 C45 1.247 . S
O55 Co42 2.244 . S
O55 C45 1.272 . S
O55 Co47 2.135 . S
Co56 O57 2.216 . S
Co56 O58 2.091 . S
Co56 O60 2.004 . S
Co56 O66 2.021 . S
Co56 O68 2.137 . S
Co56 O69 2.244 . S
O57 Co56 2.216 . S
O57 C64 1.247 . S
O58 Co56 2.091 . S
O58 C64 1.261 . S
C59 O68 1.247 . S
C59 O69 1.272 . S
O60 Co56 2.004 . S
O60 C65 1.259 . S
Co61 O62 2.061 . S
Co61 O67 2.052 . S
Co61 O69 2.135 . S
O62 Co61 2.061 . S
O62 C65 1.235 . S
C63 O66 1.238 . S
C63 O67 1.241 . S
C64 O57 1.247 . S
C64 O58 1.261 . S
C65 O60 1.259 . S
C65 O62 1.235 . S
O66 Co56 2.021 . S
O66 C63 1.238 . S
O67 Co61 2.052 . S
O67 C63 1.241 . S
O68 Co56 2.137 . S
O68 C59 1.247 . S
O69 Co56 2.244 . S
O69 C59 1.272 . S
O69 Co61 2.135 . S
Co70 O71 2.216 . S
Co70 O72 2.091 . S
Co70 O74 2.004 . S
Co70 O80 2.021 . S
Co70 O82 2.137 . S
Co70 O83 2.244 . S
O71 Co70 2.216 . S
O71 C78 1.247 . S
O72 Co70 2.091 . S
O72 C78 1.261 . S
C73 O82 1.247 . S
C73 O83 1.272 . S
O74 Co70 2.004 . S
O74 C79 1.259 . S
Co75 O76 2.061 . S
Co75 O81 2.052 . S
Co75 O83 2.135 . S
O76 Co75 2.061 . S
O76 C79 1.235 . S
C77 O80 1.238 . S
C77 O81 1.241 . S
C78 O71 1.247 . S
C78 O72 1.261 . S
C79 O74 1.259 . S
C79 O76 1.235 . S
O80 Co70 2.021 . S
O80 C77 1.238 . S
O81 Co75 2.052 . S
O81 C77 1.241 . S
O82 Co70 2.137 . S
O82 C73 1.247 . S
O83 Co70 2.244 . S
O83 C73 1.272 . S
O83 Co75 2.135 . S
Co84 O85 2.216 . S
Co84 O86 2.091 . S
Co84 O88 2.004 . S
Co84 O94 2.021 . S
Co84 O96 2.137 . S
Co84 O97 2.244 . S
O85 Co84 2.216 . S
O85 C92 1.247 . S
O86 Co84 2.091 . S
O86 C92 1.261 . S
C87 O96 1.247 . S
C87 O97 1.272 . S
O88 Co84 2.004 . S
O88 C93 1.259 . S
Co89 O90 2.061 . S
Co89 O95 2.052 . S
Co89 O97 2.135 . S
O90 Co89 2.061 . S
O90 C93 1.235 . S
C91 O94 1.238 . S
C91 O95 1.241 . S
C92 O85 1.247 . S
C92 O86 1.261 . S
C93 O88 1.259 . S
C93 O90 1.235 . S
O94 Co84 2.021 . S
O94 C91 1.238 . S
O95 Co89 2.052 . S
O95 C91 1.241 . S
O96 Co84 2.137 . S
O96 C87 1.247 . S
O97 Co84 2.244 . S
O97 C87 1.272 . S
O97 Co89 2.135 . S
Co98 O99 2.216 . S
Co98 O100 2.091 . S
Co98 O102 2.004 . S
Co98 O108 2.021 . S
Co98 O110 2.137 . S
Co98 O111 2.244 . S
O99 Co98 2.216 . S
O99 C106 1.247 . S
O100 Co98 2.091 . S
O100 C106 1.261 . S
C101 O110 1.247 . S
C101 O111 1.272 . S
O102 Co98 2.004 . S
O102 C107 1.259 . S
Co103 O104 2.061 . S
Co103 O109 2.052 . S
Co103 O111 2.135 . S
O104 Co103 2.061 . S
O104 C107 1.235 . S
C105 O108 1.238 . S
C105 O109 1.241 . S
C106 O99 1.247 . S
C106 O100 1.261 . S
C107 O102 1.259 . S
C107 O104 1.235 . S
O108 Co98 2.021 . S
O108 C105 1.238 . S
O109 Co103 2.052 . S
O109 C105 1.241 . S
O110 Co98 2.137 . S
O110 C101 1.247 . S
O111 Co98 2.244 . S
O111 C101 1.272 . S
O111 Co103 2.135 . S
Co112 O113 2.216 . S
Co112 O114 2.091 . S
Co112 O116 2.004 . S
Co112 O122 2.021 . S
Co112 O124 2.137 . S
Co112 O125 2.244 . S
O113 Co112 2.216 . S
O113 C120 1.247 . S
O114 Co112 2.091 . S
O114 C120 1.261 . S
C115 O124 1.247 . S
C115 O125 1.272 . S
O116 Co112 2.004 . S
O116 C121 1.259 . S
Co117 O118 2.061 . S
Co117 O123 2.052 . S
Co117 O125 2.135 . S
O118 Co117 2.061 . S
O118 C121 1.235 . S
C119 O122 1.238 . S
C119 O123 1.241 . S
C120 O113 1.247 . S
C120 O114 1.261 . S
C121 O116 1.259 . S
C121 O118 1.235 . S
O122 Co112 2.021 . S
O122 C119 1.238 . S
O123 Co117 2.052 . S
O123 C119 1.241 . S
O124 Co112 2.137 . S
O124 C115 1.247 . S
O125 Co112 2.244 . S
O125 C115 1.272 . S
O125 Co117 2.135 . S
Co126 O127 2.216 . S
Co126 O128 2.091 . S
Co126 O130 2.004 . S
Co126 O136 2.021 . S
Co126 O138 2.137 . S
Co126 O139 2.244 . S
O127 Co126 2.216 . S
O127 C134 1.247 . S
O128 Co126 2.091 . S
O128 C134 1.261 . S
C129 O138 1.247 . S
C129 O139 1.272 . S
O130 Co126 2.004 . S
O130 C135 1.259 . S
Co131 O132 2.061 . S
Co131 O137 2.052 . S
Co131 O139 2.135 . S
O132 Co131 2.061 . S
O132 C135 1.235 . S
C133 O136 1.238 . S
C133 O137 1.241 . S
C134 O127 1.247 . S
C134 O128 1.261 . S
C135 O130 1.259 . S
C135 O132 1.235 . S
O136 Co126 2.021 . S
O136 C133 1.238 . S
O137 Co131 2.052 . S
O137 C133 1.241 . S
O138 Co126 2.137 . S
O138 C129 1.247 . S
O139 Co126 2.244 . S
O139 C129 1.272 . S
O139 Co131 2.135 . S
Co140 O141 2.216 . S
Co140 O142 2.091 . S
Co140 O144 2.004 . S
Co140 O150 2.021 . S
Co140 O152 2.137 . S
Co140 O153 2.244 . S
O141 Co140 2.216 . S
O141 C148 1.247 . S
O142 Co140 2.091 . S
O142 C148 1.261 . S
C143 O152 1.247 . S
C143 O153 1.272 . S
O144 Co140 2.004 . S
O144 C149 1.259 . S
Co145 O146 2.061 . S
Co145 O151 2.052 . S
Co145 O153 2.135 . S
O146 Co145 2.061 . S
O146 C149 1.235 . S
C147 O150 1.238 . S
C147 O151 1.241 . S
C148 O141 1.247 . S
C148 O142 1.261 . S
C149 O144 1.259 . S
C149 O146 1.235 . S
O150 Co140 2.021 . S
O150 C147 1.238 . S
O151 Co145 2.052 . S
O151 C147 1.241 . S
O152 Co140 2.137 . S
O152 C143 1.247 . S
O153 Co140 2.244 . S
O153 C143 1.272 . S
O153 Co145 2.135 . S
Co154 O155 2.216 . S
Co154 O156 2.091 . S
Co154 O158 2.004 . S
Co154 O164 2.021 . S
Co154 O166 2.137 . S
Co154 O167 2.244 . S
O155 Co154 2.216 . S
O155 C162 1.247 . S
O156 Co154 2.091 . S
O156 C162 1.261 . S
C157 O166 1.247 . S
C157 O167 1.272 . S
O158 Co154 2.004 . S
O158 C163 1.259 . S
Co159 O160 2.061 . S
Co159 O165 2.052 . S
Co159 O167 2.135 . S
O160 Co159 2.061 . S
O160 C163 1.235 . S
C161 O164 1.238 . S
C161 O165 1.241 . S
C162 O155 1.247 . S
C162 O156 1.261 . S
C163 O158 1.259 . S
C163 O160 1.235 . S
O164 Co154 2.021 . S
O164 C161 1.238 . S
O165 Co159 2.052 . S
O165 C161 1.241 . S
O166 Co154 2.137 . S
O166 C157 1.247 . S
O167 Co154 2.244 . S
O167 C157 1.272 . S
O167 Co159 2.135 . S
Co168 O169 2.216 . S
Co168 O170 2.091 . S
Co168 O172 2.004 . S
Co168 O178 2.021 . S
Co168 O180 2.137 . S
Co168 O181 2.244 . S
O169 Co168 2.216 . S
O169 C176 1.247 . S
O170 Co168 2.091 . S
O170 C176 1.261 . S
C171 O180 1.247 . S
C171 O181 1.272 . S
O172 Co168 2.004 . S
O172 C177 1.259 . S
Co173 O174 2.061 . S
Co173 O179 2.052 . S
Co173 O181 2.135 . S
O174 Co173 2.061 . S
O174 C177 1.235 . S
C175 O178 1.238 . S
C175 O179 1.241 . S
C176 O169 1.247 . S
C176 O170 1.261 . S
C177 O172 1.259 . S
C177 O174 1.235 . S
O178 Co168 2.021 . S
O178 C175 1.238 . S
O179 Co173 2.052 . S
O179 C175 1.241 . S
O180 Co168 2.137 . S
O180 C171 1.247 . S
O181 Co168 2.244 . S
O181 C171 1.272 . S
O181 Co173 2.135 . S
Co182 O183 2.216 . S
Co182 O184 2.091 . S
Co182 O186 2.004 . S
Co182 O192 2.021 . S
Co182 O194 2.137 . S
Co182 O195 2.244 . S
O183 Co182 2.216 . S
O183 C190 1.247 . S
O184 Co182 2.091 . S
O184 C190 1.261 . S
C185 O194 1.247 . S
C185 O195 1.272 . S
O186 Co182 2.004 . S
O186 C191 1.259 . S
Co187 O188 2.061 . S
Co187 O193 2.052 . S
Co187 O195 2.135 . S
O188 Co187 2.061 . S
O188 C191 1.235 . S
C189 O192 1.238 . S
C189 O193 1.241 . S
C190 O183 1.247 . S
C190 O184 1.261 . S
C191 O186 1.259 . S
C191 O188 1.235 . S
O192 Co182 2.021 . S
O192 C189 1.238 . S
O193 Co187 2.052 . S
O193 C189 1.241 . S
O194 Co182 2.137 . S
O194 C185 1.247 . S
O195 Co182 2.244 . S
O195 C185 1.272 . S
O195 Co187 2.135 . S
Co196 O197 2.216 . S
Co196 O198 2.091 . S
Co196 O200 2.004 . S
Co196 O206 2.021 . S
Co196 O208 2.137 . S
Co196 O209 2.244 . S
O197 Co196 2.216 . S
O197 C204 1.247 . S
O198 Co196 2.091 . S
O198 C204 1.261 . S
C199 O208 1.247 . S
C199 O209 1.272 . S
O200 Co196 2.004 . S
O200 C205 1.259 . S
Co201 O202 2.061 . S
Co201 O207 2.052 . S
Co201 O209 2.135 . S
O202 Co201 2.061 . S
O202 C205 1.235 . S
C203 O206 1.238 . S
C203 O207 1.241 . S
C204 O197 1.247 . S
C204 O198 1.261 . S
C205 O200 1.259 . S
C205 O202 1.235 . S
O206 Co196 2.021 . S
O206 C203 1.238 . S
O207 Co201 2.052 . S
O207 C203 1.241 . S
O208 Co196 2.137 . S
O208 C199 1.247 . S
O209 Co196 2.244 . S
O209 C199 1.272 . S
O209 Co201 2.135 . S
Co210 O211 2.216 . S
Co210 O212 2.091 . S
Co210 O214 2.004 . S
Co210 O220 2.021 . S
Co210 O222 2.137 . S
Co210 O223 2.244 . S
O211 Co210 2.216 . S
O211 C218 1.247 . S
O212 Co210 2.091 . S
O212 C218 1.261 . S
C213 O222 1.247 . S
C213 O223 1.272 . S
O214 Co210 2.004 . S
O214 C219 1.259 . S
Co215 O216 2.061 . S
Co215 O221 2.052 . S
Co215 O223 2.135 . S
O216 Co215 2.061 . S
O216 C219 1.235 . S
C217 O220 1.238 . S
C217 O221 1.241 . S
C218 O211 1.247 . S
C218 O212 1.261 . S
C219 O214 1.259 . S
C219 O216 1.235 . S
O220 Co210 2.021 . S
O220 C217 1.238 . S
O221 Co215 2.052 . S
O221 C217 1.241 . S
O222 Co210 2.137 . S
O222 C213 1.247 . S
O223 Co210 2.244 . S
O223 C213 1.272 . S
O223 Co215 2.135 . S
H224 C232 0.929 . S
H225 C234 0.930 . S
H226 C236 0.930 . S
H227 C239 0.929 . S
H228 C242 0.930 . S
H229 C244 0.960 . S
H230 C244 0.960 . S
H231 C244 0.960 . S
C232 H224 0.929 . S
C232 C233 1.377 . S
C232 C234 1.384 . S
C233 C232 1.377 . S
C233 C239 1.390 . S
C234 H225 0.930 . S
C234 C232 1.384 . S
C234 C235 1.372 . S
C235 C234 1.372 . S
C235 C236 1.400 . S
C235 C240 1.490 . S
C236 H226 0.930 . S
C236 C235 1.400 . S
C236 C239 1.386 . S
H237 C253 0.930 . S
H238 C254 0.931 . S
C239 H227 0.929 . S
C239 C233 1.390 . S
C239 C236 1.386 . S
C240 C235 1.490 . S
C240 C242 1.395 . S
C240 C243 1.403 . S
H241 C247 0.930 . S
C242 H228 0.930 . S
C242 C240 1.395 . S
C242 C245 1.403 . S
C243 C240 1.403 . S
C243 C244 1.524 . S
C243 C247 1.400 . S
C244 H229 0.960 . S
C244 H230 0.960 . S
C244 H231 0.960 . S
C244 C243 1.524 . S
C245 C242 1.403 . S
C245 C246 1.392 . S
C245 C249 1.495 . S
C246 C245 1.392 . S
C246 C247 1.385 . S
C246 C248 1.478 . S
C247 H241 0.930 . S
C247 C243 1.400 . S
C247 C246 1.385 . S
C248 C246 1.478 . S
C248 C250 1.381 . S
C248 C254 1.383 . S
C249 C245 1.495 . S
C249 H255 0.959 . S
C249 H256 0.961 . S
C249 H257 0.960 . S
C250 C248 1.381 . S
C250 C251 1.394 . S
C250 H258 0.930 . S
C251 C250 1.394 . S
C251 C252 1.383 . S
C251 H259 0.929 . S
C252 C251 1.383 . S
C252 C253 1.377 . S
C253 H237 0.930 . S
C253 C252 1.377 . S
C253 C254 1.379 . S
C254 H238 0.931 . S
C254 C248 1.383 . S
C254 C253 1.379 . S
H255 C249 0.959 . S
H256 C249 0.961 . S
H257 C249 0.960 . S
H258 C250 0.930 . S
H259 C251 0.929 . S
H260 C268 0.929 . S
H261 C270 0.930 . S
H262 C272 0.930 . S
H263 C275 0.929 . S
H264 C278 0.930 . S
H265 C280 0.960 . S
H266 C280 0.960 . S
H267 C280 0.960 . S
C268 H260 0.929 . S
C268 C269 1.377 . S
C268 C270 1.384 . S
C269 C268 1.377 . S
C269 C275 1.390 . S
C270 H261 0.930 . S
C270 C268 1.384 . S
C270 C271 1.372 . S
C271 C270 1.372 . S
C271 C272 1.400 . S
C271 C276 1.490 . S
C272 H262 0.930 . S
C272 C271 1.400 . S
C272 C275 1.386 . S
H273 C289 0.930 . S
H274 C290 0.931 . S
C275 H263 0.929 . S
C275 C269 1.390 . S
C275 C272 1.386 . S
C276 C271 1.490 . S
C276 C278 1.395 . S
C276 C279 1.403 . S
H277 C283 0.930 . S
C278 H264 0.930 . S
C278 C276 1.395 . S
C278 C281 1.403 . S
C279 C276 1.403 . S
C279 C280 1.524 . S
C279 C283 1.400 . S
C280 H265 0.960 . S
C280 H266 0.960 . S
C280 H267 0.960 . S
C280 C279 1.524 . S
C281 C278 1.403 . S
C281 C282 1.392 . S
C281 C285 1.495 . S
C282 C281 1.392 . S
C282 C283 1.385 . S
C282 C284 1.478 . S
C283 H277 0.930 . S
C283 C279 1.400 . S
C283 C282 1.385 . S
C284 C282 1.478 . S
C284 C286 1.381 . S
C284 C290 1.383 . S
C285 C281 1.495 . S
C285 H291 0.959 . S
C285 H292 0.961 . S
C285 H293 0.960 . S
C286 C284 1.381 . S
C286 C287 1.394 . S
C286 H294 0.930 . S
C287 C286 1.394 . S
C287 C288 1.383 . S
C287 H295 0.929 . S
C288 C287 1.383 . S
C288 C289 1.377 . S
C289 H273 0.930 . S
C289 C288 1.377 . S
C289 C290 1.379 . S
C290 H274 0.931 . S
C290 C284 1.383 . S
C290 C289 1.379 . S
H291 C285 0.959 . S
H292 C285 0.961 . S
H293 C285 0.960 . S
H294 C286 0.930 . S
H295 C287 0.929 . S
H296 C304 0.929 . S
H297 C306 0.930 . S
H298 C308 0.930 . S
H299 C311 0.929 . S
H300 C314 0.930 . S
H301 C316 0.960 . S
H302 C316 0.960 . S
H303 C316 0.960 . S
C304 H296 0.929 . S
C304 C305 1.377 . S
C304 C306 1.384 . S
C305 C304 1.377 . S
C305 C311 1.390 . S
C306 H297 0.930 . S
C306 C304 1.384 . S
C306 C307 1.372 . S
C307 C306 1.372 . S
C307 C308 1.400 . S
C307 C312 1.490 . S
C308 H298 0.930 . S
C308 C307 1.400 . S
C308 C311 1.386 . S
H309 C325 0.930 . S
H310 C326 0.931 . S
C311 H299 0.929 . S
C311 C305 1.390 . S
C311 C308 1.386 . S
C312 C307 1.490 . S
C312 C314 1.395 . S
C312 C315 1.403 . S
H313 C319 0.930 . S
C314 H300 0.930 . S
C314 C312 1.395 . S
C314 C317 1.403 . S
C315 C312 1.403 . S
C315 C316 1.524 . S
C315 C319 1.400 . S
C316 H301 0.960 . S
C316 H302 0.960 . S
C316 H303 0.960 . S
C316 C315 1.524 . S
C317 C314 1.403 . S
C317 C318 1.392 . S
C317 C321 1.495 . S
C318 C317 1.392 . S
C318 C319 1.385 . S
C318 C320 1.478 . S
C319 H313 0.930 . S
C319 C315 1.400 . S
C319 C318 1.385 . S
C320 C318 1.478 . S
C320 C322 1.381 . S
C320 C326 1.383 . S
C321 C317 1.495 . S
C321 H327 0.959 . S
C321 H328 0.961 . S
C321 H329 0.960 . S
C322 C320 1.381 . S
C322 C323 1.394 . S
C322 H330 0.930 . S
C323 C322 1.394 . S
C323 C324 1.383 . S
C323 H331 0.929 . S
C324 C323 1.383 . S
C324 C325 1.377 . S
C325 H309 0.930 . S
C325 C324 1.377 . S
C325 C326 1.379 . S
C326 H310 0.931 . S
C326 C320 1.383 . S
C326 C325 1.379 . S
H327 C321 0.959 . S
H328 C321 0.961 . S
H329 C321 0.960 . S
H330 C322 0.930 . S
H331 C323 0.929 . S
H332 C340 0.929 . S
H333 C342 0.930 . S
H334 C344 0.930 . S
H335 C347 0.929 . S
H336 C350 0.930 . S
H337 C352 0.960 . S
H338 C352 0.960 . S
H339 C352 0.960 . S
C340 H332 0.929 . S
C340 C341 1.377 . S
C340 C342 1.384 . S
C341 C340 1.377 . S
C341 C347 1.390 . S
C342 H333 0.930 . S
C342 C340 1.384 . S
C342 C343 1.372 . S
C343 C342 1.372 . S
C343 C344 1.400 . S
C343 C348 1.490 . S
C344 H334 0.930 . S
C344 C343 1.400 . S
C344 C347 1.386 . S
H345 C361 0.930 . S
H346 C362 0.931 . S
C347 H335 0.929 . S
C347 C341 1.390 . S
C347 C344 1.386 . S
C348 C343 1.490 . S
C348 C350 1.395 . S
C348 C351 1.403 . S
H349 C355 0.930 . S
C350 H336 0.930 . S
C350 C348 1.395 . S
C350 C353 1.403 . S
C351 C348 1.403 . S
C351 C352 1.524 . S
C351 C355 1.400 . S
C352 H337 0.960 . S
C352 H338 0.960 . S
C352 H339 0.960 . S
C352 C351 1.524 . S
C353 C350 1.403 . S
C353 C354 1.392 . S
C353 C357 1.495 . S
C354 C353 1.392 . S
C354 C355 1.385 . S
C354 C356 1.478 . S
C355 H349 0.930 . S
C355 C351 1.400 . S
C355 C354 1.385 . S
C356 C354 1.478 . S
C356 C358 1.381 . S
C356 C362 1.383 . S
C357 C353 1.495 . S
C357 H363 0.959 . S
C357 H364 0.961 . S
C357 H365 0.960 . S
C358 C356 1.381 . S
C358 C359 1.394 . S
C358 H366 0.930 . S
C359 C358 1.394 . S
C359 C360 1.383 . S
C359 H367 0.929 . S
C360 C359 1.383 . S
C360 C361 1.377 . S
C361 H345 0.930 . S
C361 C360 1.377 . S
C361 C362 1.379 . S
C362 H346 0.931 . S
C362 C356 1.383 . S
C362 C361 1.379 . S
H363 C357 0.959 . S
H364 C357 0.961 . S
H365 C357 0.960 . S
H366 C358 0.930 . S
H367 C359 0.929 . S
H368 C376 0.929 . S
H369 C378 0.930 . S
H370 C380 0.930 . S
H371 C383 0.929 . S
H372 C386 0.930 . S
H373 C388 0.960 . S
H374 C388 0.960 . S
H375 C388 0.960 . S
C376 H368 0.929 . S
C376 C377 1.377 . S
C376 C378 1.384 . S
C377 C376 1.377 . S
C377 C383 1.390 . S
C378 H369 0.930 . S
C378 C376 1.384 . S
C378 C379 1.372 . S
C379 C378 1.372 . S
C379 C380 1.400 . S
C379 C384 1.490 . S
C380 H370 0.930 . S
C380 C379 1.400 . S
C380 C383 1.386 . S
H381 C397 0.930 . S
H382 C398 0.931 . S
C383 H371 0.929 . S
C383 C377 1.390 . S
C383 C380 1.386 . S
C384 C379 1.490 . S
C384 C386 1.395 . S
C384 C387 1.403 . S
H385 C391 0.930 . S
C386 H372 0.930 . S
C386 C384 1.395 . S
C386 C389 1.403 . S
C387 C384 1.403 . S
C387 C388 1.524 . S
C387 C391 1.400 . S
C388 H373 0.960 . S
C388 H374 0.960 . S
C388 H375 0.960 . S
C388 C387 1.524 . S
C389 C386 1.403 . S
C389 C390 1.392 . S
C389 C393 1.495 . S
C390 C389 1.392 . S
C390 C391 1.385 . S
C390 C392 1.478 . S
C391 H385 0.930 . S
C391 C387 1.400 . S
C391 C390 1.385 . S
C392 C390 1.478 . S
C392 C394 1.381 . S
C392 C398 1.383 . S
C393 C389 1.495 . S
C393 H399 0.959 . S
C393 H400 0.961 . S
C393 H401 0.960 . S
C394 C392 1.381 . S
C394 C395 1.394 . S
C394 H402 0.930 . S
C395 C394 1.394 . S
C395 C396 1.383 . S
C395 H403 0.929 . S
C396 C395 1.383 . S
C396 C397 1.377 . S
C397 H381 0.930 . S
C397 C396 1.377 . S
C397 C398 1.379 . S
C398 H382 0.931 . S
C398 C392 1.383 . S
C398 C397 1.379 . S
H399 C393 0.959 . S
H400 C393 0.961 . S
H401 C393 0.960 . S
H402 C394 0.930 . S
H403 C395 0.929 . S
H404 C412 0.929 . S
H405 C414 0.930 . S
H406 C416 0.930 . S
H407 C419 0.929 . S
H408 C422 0.930 . S
H409 C424 0.960 . S
H410 C424 0.960 . S
H411 C424 0.960 . S
C412 H404 0.929 . S
C412 C413 1.377 . S
C412 C414 1.384 . S
C413 C412 1.377 . S
C413 C419 1.390 . S
C414 H405 0.930 . S
C414 C412 1.384 . S
C414 C415 1.372 . S
C415 C414 1.372 . S
C415 C416 1.400 . S
C415 C420 1.490 . S
C416 H406 0.930 . S
C416 C415 1.400 . S
C416 C419 1.386 . S
H417 C433 0.930 . S
H418 C434 0.931 . S
C419 H407 0.929 . S
C419 C413 1.390 . S
C419 C416 1.386 . S
C420 C415 1.490 . S
C420 C422 1.395 . S
C420 C423 1.403 . S
H421 C427 0.930 . S
C422 H408 0.930 . S
C422 C420 1.395 . S
C422 C425 1.403 . S
C423 C420 1.403 . S
C423 C424 1.524 . S
C423 C427 1.400 . S
C424 H409 0.960 . S
C424 H410 0.960 . S
C424 H411 0.960 . S
C424 C423 1.524 . S
C425 C422 1.403 . S
C425 C426 1.392 . S
C425 C429 1.495 . S
C426 C425 1.392 . S
C426 C427 1.385 . S
C426 C428 1.478 . S
C427 H421 0.930 . S
C427 C423 1.400 . S
C427 C426 1.385 . S
C428 C426 1.478 . S
C428 C430 1.381 . S
C428 C434 1.383 . S
C429 C425 1.495 . S
C429 H435 0.959 . S
C429 H436 0.961 . S
C429 H437 0.960 . S
C430 C428 1.381 . S
C430 C431 1.394 . S
C430 H438 0.930 . S
C431 C430 1.394 . S
C431 C432 1.383 . S
C431 H439 0.929 . S
C432 C431 1.383 . S
C432 C433 1.377 . S
C433 H417 0.930 . S
C433 C432 1.377 . S
C433 C434 1.379 . S
C434 H418 0.931 . S
C434 C428 1.383 . S
C434 C433 1.379 . S
H435 C429 0.959 . S
H436 C429 0.961 . S
H437 C429 0.960 . S
H438 C430 0.930 . S
H439 C431 0.929 . S
H440 C448 0.929 . S
H441 C450 0.930 . S
H442 C452 0.930 . S
H443 C455 0.929 . S
H444 C458 0.930 . S
H445 C460 0.960 . S
H446 C460 0.960 . S
H447 C460 0.960 . S
C448 H440 0.929 . S
C448 C449 1.377 . S
C448 C450 1.384 . S
C449 C448 1.377 . S
C449 C455 1.390 . S
C450 H441 0.930 . S
C450 C448 1.384 . S
C450 C451 1.372 . S
C451 C450 1.372 . S
C451 C452 1.400 . S
C451 C456 1.490 . S
C452 H442 0.930 . S
C452 C451 1.400 . S
C452 C455 1.386 . S
H453 C469 0.930 . S
H454 C470 0.931 . S
C455 H443 0.929 . S
C455 C449 1.390 . S
C455 C452 1.386 . S
C456 C451 1.490 . S
C456 C458 1.395 . S
C456 C459 1.403 . S
H457 C463 0.930 . S
C458 H444 0.930 . S
C458 C456 1.395 . S
C458 C461 1.403 . S
C459 C456 1.403 . S
C459 C460 1.524 . S
C459 C463 1.400 . S
C460 H445 0.960 . S
C460 H446 0.960 . S
C460 H447 0.960 . S
C460 C459 1.524 . S
C461 C458 1.403 . S
C461 C462 1.392 . S
C461 C465 1.495 . S
C462 C461 1.392 . S
C462 C463 1.385 . S
C462 C464 1.478 . S
C463 H457 0.930 . S
C463 C459 1.400 . S
C463 C462 1.385 . S
C464 C462 1.478 . S
C464 C466 1.381 . S
C464 C470 1.383 . S
C465 C461 1.495 . S
C465 H471 0.959 . S
C465 H472 0.961 . S
C465 H473 0.960 . S
C466 C464 1.381 . S
C466 C467 1.394 . S
C466 H474 0.930 . S
C467 C466 1.394 . S
C467 C468 1.383 . S
C467 H475 0.929 . S
C468 C467 1.383 . S
C468 C469 1.377 . S
C469 H453 0.930 . S
C469 C468 1.377 . S
C469 C470 1.379 . S
C470 H454 0.931 . S
C470 C464 1.383 . S
C470 C469 1.379 . S
H471 C465 0.959 . S
H472 C465 0.961 . S
H473 C465 0.960 . S
H474 C466 0.930 . S
H475 C467 0.929 . S
H476 C484 0.929 . S
H477 C486 0.930 . S
H478 C488 0.930 . S
H479 C491 0.929 . S
H480 C494 0.930 . S
H481 C496 0.960 . S
H482 C496 0.960 . S
H483 C496 0.960 . S
C484 H476 0.929 . S
C484 C485 1.377 . S
C484 C486 1.384 . S
C485 C484 1.377 . S
C485 C491 1.390 . S
C486 H477 0.930 . S
C486 C484 1.384 . S
C486 C487 1.372 . S
C487 C486 1.372 . S
C487 C488 1.400 . S
C487 C492 1.490 . S
C488 H478 0.930 . S
C488 C487 1.400 . S
C488 C491 1.386 . S
H489 C505 0.930 . S
H490 C506 0.931 . S
C491 H479 0.929 . S
C491 C485 1.390 . S
C491 C488 1.386 . S
C492 C487 1.490 . S
C492 C494 1.395 . S
C492 C495 1.403 . S
H493 C499 0.930 . S
C494 H480 0.930 . S
C494 C492 1.395 . S
C494 C497 1.403 . S
C495 C492 1.403 . S
C495 C496 1.524 . S
C495 C499 1.400 . S
C496 H481 0.960 . S
C496 H482 0.960 . S
C496 H483 0.960 . S
C496 C495 1.524 . S
C497 C494 1.403 . S
C497 C498 1.392 . S
C497 C501 1.495 . S
C498 C497 1.392 . S
C498 C499 1.385 . S
C498 C500 1.478 . S
C499 H493 0.930 . S
C499 C495 1.400 . S
C499 C498 1.385 . S
C500 C498 1.478 . S
C500 C502 1.381 . S
C500 C506 1.383 . S
C501 C497 1.495 . S
C501 H507 0.959 . S
C501 H508 0.961 . S
C501 H509 0.960 . S
C502 C500 1.381 . S
C502 C503 1.394 . S
C502 H510 0.930 . S
C503 C502 1.394 . S
C503 C504 1.383 . S
C503 H511 0.929 . S
C504 C503 1.383 . S
C504 C505 1.377 . S
C505 H489 0.930 . S
C505 C504 1.377 . S
C505 C506 1.379 . S
C506 H490 0.931 . S
C506 C500 1.383 . S
C506 C505 1.379 . S
H507 C501 0.959 . S
H508 C501 0.961 . S
H509 C501 0.960 . S
H510 C502 0.930 . S
H511 C503 0.929 . S
H512 C520 0.929 . S
H513 C522 0.930 . S
H514 C524 0.930 . S
H515 C527 0.929 . S
H516 C530 0.930 . S
H517 C532 0.960 . S
H518 C532 0.960 . S
H519 C532 0.960 . S
C520 H512 0.929 . S
C520 C521 1.377 . S
C520 C522 1.384 . S
C521 C520 1.377 . S
C521 C527 1.390 . S
C522 H513 0.930 . S
C522 C520 1.384 . S
C522 C523 1.372 . S
C523 C522 1.372 . S
C523 C524 1.400 . S
C523 C528 1.490 . S
C524 H514 0.930 . S
C524 C523 1.400 . S
C524 C527 1.386 . S
H525 C541 0.930 . S
H526 C542 0.931 . S
C527 H515 0.929 . S
C527 C521 1.390 . S
C527 C524 1.386 . S
C528 C523 1.490 . S
C528 C530 1.395 . S
C528 C531 1.403 . S
H529 C535 0.930 . S
C530 H516 0.930 . S
C530 C528 1.395 . S
C530 C533 1.403 1_565 S
C531 C528 1.403 . S
C531 C532 1.524 . S
C531 C535 1.400 1_565 S
C532 H517 0.960 . S
C532 H518 0.960 . S
C532 H519 0.960 . S
C532 C531 1.524 . S
C533 C530 1.403 1_545 S
C533 C534 1.392 . S
C533 C537 1.495 . S
C534 C533 1.392 . S
C534 C535 1.385 . S
C534 C536 1.478 . S
C535 H529 0.930 . S
C535 C531 1.400 1_545 S
C535 C534 1.385 . S
C536 C534 1.478 . S
C536 C538 1.381 . S
C536 C542 1.383 . S
C537 C533 1.495 . S
C537 H543 0.959 . S
C537 H544 0.961 . S
C537 H545 0.960 . S
C538 C536 1.381 . S
C538 C539 1.394 . S
C538 H546 0.930 . S
C539 C538 1.394 . S
C539 C540 1.383 . S
C539 H547 0.929 . S
C540 C539 1.383 . S
C540 C541 1.377 . S
C541 H525 0.930 . S
C541 C540 1.377 . S
C541 C542 1.379 . S
C542 H526 0.931 . S
C542 C536 1.383 . S
C542 C541 1.379 . S
H543 C537 0.959 . S
H544 C537 0.961 . S
H545 C537 0.960 . S
H546 C538 0.930 . S
H547 C539 0.929 . S
H548 C556 0.929 . S
H549 C558 0.930 . S
H550 C560 0.930 . S
H551 C563 0.929 . S
H552 C566 0.930 . S
H553 C568 0.960 . S
H554 C568 0.960 . S
H555 C568 0.960 . S
C556 H548 0.929 . S
C556 C557 1.377 . S
C556 C558 1.384 . S
C557 C556 1.377 . S
C557 C563 1.390 . S
C558 H549 0.930 . S
C558 C556 1.384 . S
C558 C559 1.372 . S
C559 C558 1.372 . S
C559 C560 1.400 . S
C559 C564 1.490 . S
C560 H550 0.930 . S
C560 C559 1.400 . S
C560 C563 1.386 . S
H561 C577 0.930 . S
H562 C578 0.931 . S
C563 H551 0.929 . S
C563 C557 1.390 . S
C563 C560 1.386 . S
C564 C559 1.490 . S
C564 C566 1.395 . S
C564 C567 1.403 . S
H565 C571 0.930 . S
C566 H552 0.930 . S
C566 C564 1.395 . S
C566 C569 1.403 . S
C567 C564 1.403 . S
C567 C568 1.524 . S
C567 C571 1.400 . S
C568 H553 0.960 . S
C568 H554 0.960 . S
C568 H555 0.960 . S
C568 C567 1.524 . S
C569 C566 1.403 . S
C569 C570 1.392 . S
C569 C573 1.495 . S
C570 C569 1.392 . S
C570 C571 1.385 . S
C570 C572 1.478 . S
C571 H565 0.930 . S
C571 C567 1.400 . S
C571 C570 1.385 . S
C572 C570 1.478 . S
C572 C574 1.381 . S
C572 C578 1.383 . S
C573 C569 1.495 . S
C573 H579 0.959 . S
C573 H580 0.961 . S
C573 H581 0.960 . S
C574 C572 1.381 . S
C574 C575 1.394 . S
C574 H582 0.930 . S
C575 C574 1.394 . S
C575 C576 1.383 . S
C575 H583 0.929 . S
C576 C575 1.383 . S
C576 C577 1.377 . S
C577 H561 0.930 . S
C577 C576 1.377 . S
C577 C578 1.379 . S
C578 H562 0.931 . S
C578 C572 1.383 . S
C578 C577 1.379 . S
H579 C573 0.959 . S
H580 C573 0.961 . S
H581 C573 0.960 . S
H582 C574 0.930 . S
H583 C575 0.929 . S
H584 C592 0.929 . S
H585 C594 0.930 . S
H586 C596 0.930 . S
H587 C599 0.929 . S
H588 C602 0.930 . S
H589 C604 0.960 . S
H590 C604 0.960 . S
H591 C604 0.960 . S
C592 H584 0.929 . S
C592 C593 1.377 . S
C592 C594 1.384 . S
C593 C592 1.377 . S
C593 C599 1.390 . S
C594 H585 0.930 . S
C594 C592 1.384 . S
C594 C595 1.372 . S
C595 C594 1.372 . S
C595 C596 1.400 . S
C595 C600 1.490 . S
C596 H586 0.930 . S
C596 C595 1.400 . S
C596 C599 1.386 . S
H597 C613 0.930 . S
H598 C614 0.931 . S
C599 H587 0.929 . S
C599 C593 1.390 . S
C599 C596 1.386 . S
C600 C595 1.490 . S
C600 C602 1.395 . S
C600 C603 1.403 . S
H601 C607 0.930 . S
C602 H588 0.930 . S
C602 C600 1.395 . S
C602 C605 1.403 1_556 S
C603 C600 1.403 . S
C603 C604 1.524 . S
C603 C607 1.400 . S
C604 H589 0.960 . S
C604 H590 0.960 . S
C604 H591 0.960 . S
C604 C603 1.524 . S
C605 C602 1.403 1_554 S
C605 C606 1.392 . S
C605 C609 1.495 . S
C606 C605 1.392 . S
C606 C607 1.385 1_554 S
C606 C608 1.478 . S
C607 H601 0.930 . S
C607 C603 1.400 . S
C607 C606 1.385 1_556 S
C608 C606 1.478 . S
C608 C610 1.381 . S
C608 C614 1.383 . S
C609 C605 1.495 . S
C609 H615 0.959 . S
C609 H616 0.961 . S
C609 H617 0.960 . S
C610 C608 1.381 . S
C610 C611 1.394 . S
C610 H618 0.930 . S
C611 C610 1.394 . S
C611 C612 1.383 . S
C611 H619 0.929 . S
C612 C611 1.383 . S
C612 C613 1.377 . S
C613 H597 0.930 . S
C613 C612 1.377 . S
C613 C614 1.379 . S
C614 H598 0.931 . S
C614 C608 1.383 . S
C614 C613 1.379 . S
H615 C609 0.959 . S
H616 C609 0.961 . S
H617 C609 0.960 . S
H618 C610 0.930 . S
H619 C611 0.929 . S
H620 C628 0.929 . S
H621 C630 0.930 . S
H622 C632 0.930 . S
H623 C635 0.929 . S
H624 C638 0.930 . S
H625 C640 0.960 . S
H626 C640 0.960 . S
H627 C640 0.960 . S
C628 H620 0.929 . S
C628 C629 1.377 . S
C628 C630 1.384 . S
C629 C628 1.377 . S
C629 C635 1.390 . S
C630 H621 0.930 . S
C630 C628 1.384 . S
C630 C631 1.372 . S
C631 C630 1.372 . S
C631 C632 1.400 . S
C631 C636 1.453 1_554 S
C632 H622 0.930 . S
C632 C631 1.400 . S
C632 C635 1.386 . S
H633 C649 0.930 . S
H634 C650 0.931 . S
C635 H623 0.929 . S
C635 C629 1.390 . S
C635 C632 1.386 . S
C636 C631 1.453 1_556 S
C636 C638 1.429 . S
C636 C639 1.406 . S
H637 C643 0.930 . S
C638 H624 0.930 . S
C638 C636 1.429 . S
C638 C641 1.403 . S
C639 C636 1.406 . S
C639 C640 1.524 1_556 S
C639 C643 1.400 . S
C640 H625 0.960 . S
C640 H626 0.960 . S
C640 H627 0.960 . S
C640 C639 1.524 1_554 S
C641 C638 1.403 . S
C641 C642 1.392 . S
C641 C645 1.495 . S
C642 C641 1.392 . S
C642 C643 1.385 . S
C642 C644 1.478 . S
C643 H637 0.930 . S
C643 C639 1.400 . S
C643 C642 1.385 . S
C644 C642 1.478 . S
C644 C646 1.381 . S
C644 C650 1.383 . S
C645 C641 1.495 . S
C645 H651 0.959 . S
C645 H652 0.961 . S
C645 H653 0.960 . S
C646 C644 1.381 . S
C646 C647 1.394 . S
C646 H654 0.930 . S
C647 C646 1.394 . S
C647 C648 1.383 . S
C647 H655 0.929 . S
C648 C647 1.383 . S
C648 C649 1.377 . S
C649 H633 0.930 . S
C649 C648 1.377 . S
C649 C650 1.379 . S
C650 H634 0.931 . S
C650 C644 1.383 . S
C650 C649 1.379 . S
H651 C645 0.959 . S
H652 C645 0.961 . S
H653 C645 0.960 . S
H654 C646 0.930 . S
H655 C647 0.929 . S
H656 C664 0.929 . S
H657 C666 0.930 . S
H658 C668 0.930 . S
H659 C671 0.929 . S
H660 C674 0.930 . S
H661 C676 0.960 . S
H662 C676 0.960 . S
H663 C676 0.960 . S
C664 H656 0.929 . S
C664 C665 1.377 . S
C664 C666 1.384 . S
C665 C664 1.377 . S
C665 C671 1.390 . S
C666 H657 0.930 . S
C666 C664 1.384 . S
C666 C667 1.372 . S
C667 C666 1.372 . S
C667 C668 1.400 . S
C667 C672 1.490 . S
C668 H658 0.930 . S
C668 C667 1.400 . S
C668 C671 1.386 . S
H669 C685 0.930 . S
H670 C686 0.931 . S
C671 H659 0.929 . S
C671 C665 1.390 . S
C671 C668 1.386 . S
C672 C667 1.490 . S
C672 C674 1.395 . S
C672 C675 1.403 . S
H673 C679 0.930 . S
C674 H660 0.930 . S
C674 C672 1.395 . S
C674 C677 1.403 . S
C675 C672 1.403 . S
C675 C676 1.524 . S
C675 C679 1.400 . S
C676 H661 0.960 . S
C676 H662 0.960 . S
C676 H663 0.960 . S
C676 C675 1.524 . S
C677 C674 1.403 . S
C677 C678 1.392 . S
C677 C681 1.495 . S
C678 C677 1.392 . S
C678 C679 1.385 . S
C678 C680 1.478 . S
C679 H673 0.930 . S
C679 C675 1.400 . S
C679 C678 1.385 . S
C680 C678 1.478 . S
C680 C682 1.381 . S
C680 C686 1.383 . S
C681 C677 1.495 . S
C681 H687 0.959 . S
C681 H688 0.961 . S
C681 H689 0.960 . S
C682 C680 1.381 . S
C682 C683 1.394 . S
C682 H690 0.930 . S
C683 C682 1.394 . S
C683 C684 1.383 . S
C683 H691 0.929 . S
C684 C683 1.383 . S
C684 C685 1.377 . S
C685 H669 0.930 . S
C685 C684 1.377 . S
C685 C686 1.379 . S
C686 H670 0.931 . S
C686 C680 1.383 . S
C686 C685 1.379 . S
H687 C681 0.959 . S
H688 C681 0.961 . S
H689 C681 0.960 . S
H690 C682 0.930 . S
H691 C683 0.929 . S
H692 C700 0.929 . S
H693 C702 0.930 . S
H694 C704 0.930 . S
H695 C707 0.929 . S
H696 C710 0.930 . S
H697 C712 0.960 . S
H698 C712 0.960 . S
H699 C712 0.960 . S
C700 H692 0.929 . S
C700 C701 1.377 . S
C700 C702 1.384 . S
C701 C700 1.377 . S
C701 C707 1.390 . S
C702 H693 0.930 . S
C702 C700 1.384 . S
C702 C703 1.372 . S
C703 C702 1.372 . S
C703 C704 1.400 . S
C703 C708 1.490 . S
C704 H694 0.930 . S
C704 C703 1.400 . S
C704 C707 1.386 . S
H705 C721 0.930 . S
H706 C722 0.931 . S
C707 H695 0.929 . S
C707 C701 1.390 . S
C707 C704 1.386 . S
C708 C703 1.490 . S
C708 C710 1.395 . S
C708 C711 1.403 . S
H709 C715 0.930 . S
C710 H696 0.930 . S
C710 C708 1.395 . S
C710 C713 1.403 . S
C711 C708 1.403 . S
C711 C712 1.524 . S
C711 C715 1.400 . S
C712 H697 0.960 . S
C712 H698 0.960 . S
C712 H699 0.960 . S
C712 C711 1.524 . S
C713 C710 1.403 . S
C713 C714 1.392 . S
C713 C717 1.495 . S
C714 C713 1.392 . S
C714 C715 1.385 . S
C714 C716 1.478 . S
C715 H709 0.930 . S
C715 C711 1.400 . S
C715 C714 1.385 . S
C716 C714 1.478 . S
C716 C718 1.381 . S
C716 C722 1.383 . S
C717 C713 1.495 . S
C717 H723 0.959 . S
C717 H724 0.961 . S
C717 H725 0.960 . S
C718 C716 1.381 . S
C718 C719 1.394 . S
C718 H726 0.930 . S
C719 C718 1.394 . S
C719 C720 1.383 . S
C719 H727 0.929 . S
C720 C719 1.383 . S
C720 C721 1.377 . S
C721 H705 0.930 . S
C721 C720 1.377 . S
C721 C722 1.379 . S
C722 H706 0.931 . S
C722 C716 1.383 . S
C722 C721 1.379 . S
H723 C717 0.959 . S
H724 C717 0.961 . S
H725 C717 0.960 . S
H726 C718 0.930 . S
H727 C719 0.929 . S
H728 C736 0.929 . S
H729 C738 0.930 . S
H730 C740 0.930 . S
H731 C743 0.929 . S
H732 C746 0.930 . S
H733 C748 0.960 . S
H734 C748 0.960 . S
H735 C748 0.960 . S
C736 H728 0.929 . S
C736 C737 1.377 . S
C736 C738 1.384 . S
C737 C736 1.377 . S
C737 C743 1.390 . S
C738 H729 0.930 . S
C738 C736 1.384 . S
C738 C739 1.372 . S
C739 C738 1.372 . S
C739 C740 1.400 . S
C739 C744 1.490 . S
C740 H730 0.930 . S
C740 C739 1.400 . S
C740 C743 1.386 . S
H741 C757 0.930 . S
H742 C758 0.931 . S
C743 H731 0.929 . S
C743 C737 1.390 . S
C743 C740 1.386 . S
C744 C739 1.490 . S
C744 C746 1.395 1_655 S
C744 C747 1.403 . S
H745 C751 0.930 . S
C746 H732 0.930 . S
C746 C744 1.395 1_455 S
C746 C749 1.403 . S
C747 C744 1.403 . S
C747 C748 1.524 . S
C747 C751 1.400 . S
C748 H733 0.960 . S
C748 H734 0.960 . S
C748 H735 0.960 . S
C748 C747 1.524 . S
C749 C746 1.403 . S
C749 C750 1.392 . S
C749 C753 1.495 . S
C750 C749 1.392 . S
C750 C751 1.385 1_455 S
C750 C752 1.478 . S
C751 H745 0.930 . S
C751 C747 1.400 . S
C751 C750 1.385 1_655 S
C752 C750 1.478 . S
C752 C754 1.381 . S
C752 C758 1.383 . S
C753 C749 1.495 . S
C753 H759 0.959 . S
C753 H760 0.961 . S
C753 H761 0.960 . S
C754 C752 1.381 . S
C754 C755 1.394 . S
C754 H762 0.930 . S
C755 C754 1.394 . S
C755 C756 1.383 . S
C755 H763 0.929 . S
C756 C755 1.383 . S
C756 C757 1.377 . S
C757 H741 0.930 . S
C757 C756 1.377 . S
C757 C758 1.379 . S
C758 H742 0.931 . S
C758 C752 1.383 . S
C758 C757 1.379 . S
H759 C753 0.959 . S
H760 C753 0.961 . S
H761 C753 0.960 . S
H762 C754 0.930 . S
H763 C755 0.929 . S
H764 C772 0.929 . S
H765 C774 0.930 . S
H766 C776 0.930 . S
H767 C779 0.929 . S
H768 C782 0.930 . S
H769 C784 0.960 . S
H770 C784 0.960 . S
H771 C784 0.960 . S
C772 H764 0.929 . S
C772 C773 1.377 . S
C772 C774 1.384 . S
C773 C772 1.377 . S
C773 C779 1.390 . S
C774 H765 0.930 . S
C774 C772 1.384 . S
C774 C775 1.372 . S
C775 C774 1.372 . S
C775 C776 1.400 . S
C775 C780 1.490 . S
C776 H766 0.930 . S
C776 C775 1.400 . S
C776 C779 1.386 . S
H777 C793 0.930 . S
H778 C794 0.931 . S
C779 H767 0.929 . S
C779 C773 1.390 . S
C779 C776 1.386 . S
C780 C775 1.490 . S
C780 C782 1.394 . S
C780 C783 1.404 . S
H781 C787 0.930 . S
C782 H768 0.930 . S
C782 C780 1.394 . S
C782 C785 1.404 1_655 S
C783 C780 1.404 . S
C783 C784 1.526 . S
C783 C787 1.396 1_655 S
C784 H769 0.960 . S
C784 H770 0.960 . S
C784 H771 0.960 . S
C784 C783 1.526 . S
C785 C782 1.404 1_455 S
C785 C786 1.392 . S
C785 C789 1.495 . S
C786 C785 1.392 . S
C786 C787 1.385 . S
C786 C788 1.478 . S
C787 H781 0.930 . S
C787 C783 1.396 1_455 S
C787 C786 1.385 . S
C788 C786 1.478 . S
C788 C790 1.381 . S
C788 C794 1.383 . S
C789 C785 1.495 . S
C789 H795 0.959 . S
C789 H796 0.961 . S
C789 H797 0.960 . S
C790 C788 1.381 . S
C790 C791 1.394 . S
C790 H798 0.930 . S
C791 C790 1.394 . S
C791 C792 1.383 . S
C791 H799 0.929 . S
C792 C791 1.383 . S
C792 C793 1.377 . S
C793 H777 0.930 . S
C793 C792 1.377 . S
C793 C794 1.379 . S
C794 H778 0.931 . S
C794 C788 1.383 . S
C794 C793 1.379 . S
H795 C789 0.959 . S
H796 C789 0.961 . S
H797 C789 0.960 . S
H798 C790 0.930 . S
H799 C791 0.929 . S
H800 C808 0.929 . S
H801 C810 0.930 . S
H802 C812 0.930 . S
H803 C815 0.929 . S
H804 C818 0.930 . S
H805 C820 0.960 . S
H806 C820 0.960 . S
H807 C820 0.960 . S
C808 H800 0.929 . S
C808 C809 1.377 . S
C808 C810 1.384 . S
C809 C808 1.377 . S
C809 C815 1.390 . S
C810 H801 0.930 . S
C810 C808 1.384 . S
C810 C811 1.372 . S
C811 C810 1.372 . S
C811 C812 1.400 . S
C811 C816 1.490 . S
C812 H802 0.930 . S
C812 C811 1.400 . S
C812 C815 1.386 . S
H813 C829 0.930 . S
H814 C830 0.931 . S
C815 H803 0.929 . S
C815 C809 1.390 . S
C815 C812 1.386 . S
C816 C811 1.490 . S
C816 C818 1.395 . S
C816 C819 1.403 . S
H817 C823 0.930 . S
C818 H804 0.930 . S
C818 C816 1.395 . S
C818 C821 1.403 . S
C819 C816 1.403 . S
C819 C820 1.524 . S
C819 C823 1.400 . S
C820 H805 0.960 . S
C820 H806 0.960 . S
C820 H807 0.960 . S
C820 C819 1.524 . S
C821 C818 1.403 . S
C821 C822 1.392 . S
C821 C825 1.495 . S
C822 C821 1.392 . S
C822 C823 1.385 . S
C822 C824 1.478 . S
C823 H817 0.930 . S
C823 C819 1.400 . S
C823 C822 1.385 . S
C824 C822 1.478 . S
C824 C826 1.381 . S
C824 C830 1.383 . S
C825 C821 1.495 . S
C825 H831 0.959 . S
C825 H832 0.961 . S
C825 H833 0.960 . S
C826 C824 1.381 . S
C826 C827 1.394 . S
C826 H834 0.930 . S
C827 C826 1.394 . S
C827 C828 1.383 . S
C827 H835 0.929 . S
C828 C827 1.383 . S
C828 C829 1.377 . S
C829 H813 0.930 . S
C829 C828 1.377 . S
C829 C830 1.379 . S
C830 H814 0.931 . S
C830 C824 1.383 . S
C830 C829 1.379 . S
H831 C825 0.959 . S
H832 C825 0.961 . S
H833 C825 0.960 . S
H834 C826 0.930 . S
H835 C827 0.929 . S
H836 C844 0.929 . S
H837 C846 0.930 . S
H838 C848 0.930 . S
H839 C851 0.929 . S
H840 C854 0.930 . S
H841 C856 0.960 1_565 S
H842 C856 0.960 . S
H843 C856 0.960 . S
C844 H836 0.929 . S
C844 C845 1.377 . S
C844 C846 1.384 . S
C845 C844 1.377 . S
C845 C851 1.390 . S
C846 H837 0.930 . S
C846 C844 1.384 . S
C846 C847 1.372 . S
C847 C846 1.372 . S
C847 C848 1.400 . S
C847 C852 1.490 . S
C848 H838 0.930 . S
C848 C847 1.400 . S
C848 C851 1.386 . S
H849 C865 0.930 . S
H850 C866 0.931 . S
C851 H839 0.929 . S
C851 C845 1.390 . S
C851 C848 1.386 . S
C852 C847 1.490 . S
C852 C854 1.395 . S
C852 C855 1.403 . S
H853 C859 0.930 . S
C854 H840 0.930 . S
C854 C852 1.395 . S
C854 C857 1.403 . S
C855 C852 1.403 . S
C855 C856 1.524 . S
C855 C859 1.400 1_545 S
C856 H841 0.960 1_545 S
C856 H842 0.960 . S
C856 H843 0.960 . S
C856 C855 1.524 . S
C857 C854 1.403 . S
C857 C858 1.392 1_545 S
C857 C861 1.495 . S
C858 C857 1.392 1_565 S
C858 C859 1.385 . S
C858 C860 1.478 . S
C859 H853 0.930 . S
C859 C855 1.400 1_565 S
C859 C858 1.385 . S
C860 C858 1.478 . S
C860 C862 1.381 . S
C860 C866 1.383 . S
C861 C857 1.495 . S
C861 H867 0.959 . S
C861 H868 0.961 . S
C861 H869 0.960 1_545 S
C862 C860 1.381 . S
C862 C863 1.394 . S
C862 H870 0.930 . S
C863 C862 1.394 . S
C863 C864 1.383 . S
C863 H871 0.929 . S
C864 C863 1.383 . S
C864 C865 1.377 . S
C865 H849 0.930 . S
C865 C864 1.377 . S
C865 C866 1.379 . S
C866 H850 0.931 . S
C866 C860 1.383 . S
C866 C865 1.379 . S
H867 C861 0.959 . S
H868 C861 0.961 . S
H869 C861 0.960 1_565 S
H870 C862 0.930 . S
H871 C863 0.929 . S
H872 C880 0.929 . S
H873 C882 0.930 . S
H874 C884 0.930 . S
H875 C887 0.929 . S
H876 C890 0.930 . S
H877 C892 0.960 . S
H878 C892 0.960 . S
H879 C892 0.960 . S
C880 H872 0.929 . S
C880 C881 1.377 . S
C880 C882 1.384 . S
C881 C880 1.377 . S
C881 C887 1.390 . S
C882 H873 0.930 . S
C882 C880 1.384 . S
C882 C883 1.372 . S
C883 C882 1.372 . S
C883 C884 1.400 . S
C883 C888 1.490 . S
C884 H874 0.930 . S
C884 C883 1.400 . S
C884 C887 1.386 . S
H885 C901 0.930 . S
H886 C902 0.931 . S
C887 H875 0.929 . S
C887 C881 1.390 . S
C887 C884 1.386 . S
C888 C883 1.490 . S
C888 C890 1.395 . S
C888 C891 1.403 . S
H889 C895 0.930 . S
C890 H876 0.930 . S
C890 C888 1.395 . S
C890 C893 1.403 . S
C891 C888 1.403 . S
C891 C892 1.524 . S
C891 C895 1.400 . S
C892 H877 0.960 . S
C892 H878 0.960 . S
C892 H879 0.960 . S
C892 C891 1.524 . S
C893 C890 1.403 . S
C893 C894 1.392 . S
C893 C897 1.495 . S
C894 C893 1.392 . S
C894 C895 1.385 . S
C894 C896 1.478 . S
C895 H889 0.930 . S
C895 C891 1.400 . S
C895 C894 1.385 . S
C896 C894 1.478 . S
C896 C898 1.381 . S
C896 C902 1.383 . S
C897 C893 1.495 . S
C897 H903 0.959 . S
C897 H904 0.961 . S
C897 H905 0.960 . S
C898 C896 1.381 . S
C898 C899 1.394 . S
C898 H906 0.930 . S
C899 C898 1.394 . S
C899 C900 1.383 . S
C899 H907 0.929 . S
C900 C899 1.383 . S
C900 C901 1.377 . S
C901 H885 0.930 . S
C901 C900 1.377 . S
C901 C902 1.379 . S
C902 H886 0.931 . S
C902 C896 1.383 . S
C902 C901 1.379 . S
H903 C897 0.959 . S
H904 C897 0.961 . S
H905 C897 0.960 . S
H906 C898 0.930 . S
H907 C899 0.929 . S
H908 C916 0.929 . S
H909 C918 0.930 . S
H910 C920 0.930 . S
H911 C923 0.929 . S
H912 C926 0.930 . S
H913 C928 0.960 . S
H914 C928 0.960 . S
H915 C928 0.960 . S
C916 H908 0.929 . S
C916 C917 1.377 . S
C916 C918 1.384 . S
C917 C916 1.377 . S
C917 C923 1.390 . S
C918 H909 0.930 . S
C918 C916 1.384 . S
C918 C919 1.372 . S
C919 C918 1.372 . S
C919 C920 1.400 . S
C919 C924 1.490 . S
C920 H910 0.930 . S
C920 C919 1.400 . S
C920 C923 1.386 . S
H921 C937 0.930 . S
H922 C938 0.931 . S
C923 H911 0.929 . S
C923 C917 1.390 . S
C923 C920 1.386 . S
C924 C919 1.490 . S
C924 C926 1.395 . S
C924 C927 1.403 . S
H925 C931 0.930 . S
C926 H912 0.930 . S
C926 C924 1.395 . S
C926 C929 1.403 . S
C927 C924 1.403 . S
C927 C928 1.524 . S
C927 C931 1.400 . S
C928 H913 0.960 . S
C928 H914 0.960 . S
C928 H915 0.960 . S
C928 C927 1.524 . S
C929 C926 1.403 . S
C929 C930 1.392 . S
C929 C933 1.495 1_554 S
C930 C929 1.392 . S
C930 C931 1.385 . S
C930 C932 1.478 1_554 S
C931 H925 0.930 . S
C931 C927 1.400 . S
C931 C930 1.385 . S
C932 C930 1.478 1_556 S
C932 C934 1.381 . S
C932 C938 1.383 . S
C933 C929 1.495 1_556 S
C933 H939 0.959 . S
C933 H940 0.961 . S
C933 H941 0.960 . S
C934 C932 1.381 . S
C934 C935 1.394 . S
C934 H942 0.930 . S
C935 C934 1.394 . S
C935 C936 1.383 . S
C935 H943 0.929 . S
C936 C935 1.383 . S
C936 C937 1.377 . S
C937 H921 0.930 . S
C937 C936 1.377 . S
C937 C938 1.379 . S
C938 H922 0.931 . S
C938 C932 1.383 . S
C938 C937 1.379 . S
H939 C933 0.959 . S
H940 C933 0.961 . S
H941 C933 0.960 . S
H942 C934 0.930 . S
H943 C935 0.929 . S
H944 C952 0.929 . S
H945 C954 0.930 . S
H946 C956 0.930 . S
H947 C959 0.929 . S
H948 C962 0.930 . S
H949 C964 0.960 . S
H950 C964 0.960 . S
H951 C964 0.960 . S
C952 H944 0.929 . S
C952 C953 1.377 . S
C952 C954 1.384 . S
C953 C952 1.377 . S
C953 C959 1.390 . S
C954 H945 0.930 . S
C954 C952 1.384 . S
C954 C955 1.372 . S
C955 C954 1.372 . S
C955 C956 1.400 . S
C955 C960 1.490 . S
C956 H946 0.930 . S
C956 C955 1.400 . S
C956 C959 1.386 . S
H957 C973 0.930 . S
H958 C974 0.931 . S
C959 H947 0.929 . S
C959 C953 1.390 . S
C959 C956 1.386 . S
C960 C955 1.490 . S
C960 C962 1.395 . S
C960 C963 1.403 1_556 S
H961 C967 0.930 . S
C962 H948 0.930 . S
C962 C960 1.395 . S
C962 C965 1.403 1_556 S
C963 C960 1.403 1_554 S
C963 C964 1.524 . S
C963 C967 1.400 . S
C964 H949 0.960 . S
C964 H950 0.960 . S
C964 H951 0.960 . S
C964 C963 1.524 . S
C965 C962 1.403 1_554 S
C965 C966 1.392 . S
C965 C969 1.495 . S
C966 C965 1.392 . S
C966 C967 1.385 . S
C966 C968 1.478 . S
C967 H961 0.930 . S
C967 C963 1.400 . S
C967 C966 1.385 . S
C968 C966 1.478 . S
C968 C970 1.381 . S
C968 C974 1.383 . S
C969 C965 1.495 . S
C969 H975 0.959 1_554 S
C969 H976 0.961 . S
C969 H977 0.960 . S
C970 C968 1.381 . S
C970 C971 1.394 . S
C970 H978 0.930 . S
C971 C970 1.394 . S
C971 C972 1.383 . S
C971 H979 0.929 . S
C972 C971 1.383 . S
C972 C973 1.377 . S
C973 H957 0.930 . S
C973 C972 1.377 . S
C973 C974 1.379 . S
C974 H958 0.931 . S
C974 C968 1.383 . S
C974 C973 1.379 . S
H975 C969 0.959 1_556 S
H976 C969 0.961 . S
H977 C969 0.960 . S
H978 C970 0.930 . S
H979 C971 0.929 . S
H980 C988 0.929 . S
H981 C990 0.930 . S
H982 C992 0.930 . S
H983 C995 0.929 . S
H984 C998 0.930 . S
H985 C1000 0.960 . S
H986 C1000 0.960 . S
H987 C1000 0.960 . S
C988 H980 0.929 . S
C988 C989 1.377 . S
C988 C990 1.384 . S
C989 C988 1.377 . S
C989 C995 1.390 . S
C990 H981 0.930 . S
C990 C988 1.384 . S
C990 C991 1.372 . S
C991 C990 1.372 . S
C991 C992 1.400 . S
C991 C996 1.490 . S
C992 H982 0.930 . S
C992 C991 1.400 . S
C992 C995 1.386 . S
H993 C1009 0.930 . S
H994 C1010 0.931 . S
C995 H983 0.929 . S
C995 C989 1.390 . S
C995 C992 1.386 . S
C996 C991 1.490 . S
C996 C998 1.395 . S
C996 C999 1.403 . S
H997 C1003 0.930 . S
C998 H984 0.930 . S
C998 C996 1.395 . S
C998 C1001 1.403 . S
C999 C996 1.403 . S
C999 C1000 1.524 . S
C999 C1003 1.400 . S
C1000 H985 0.960 . S
C1000 H986 0.960 . S
C1000 H987 0.960 . S
C1000 C999 1.524 . S
C1001 C998 1.403 . S
C1001 C1002 1.392 . S
C1001 C1005 1.495 . S
C1002 C1001 1.392 . S
C1002 C1003 1.385 . S
C1002 C1004 1.478 . S
C1003 H997 0.930 . S
C1003 C999 1.400 . S
C1003 C1002 1.385 . S
C1004 C1002 1.478 . S
C1004 C1006 1.381 . S
C1004 C1010 1.383 . S
C1005 C1001 1.495 . S
C1005 H1011 0.959 . S
C1005 H1012 0.961 . S
C1005 H1013 0.960 . S
C1006 C1004 1.381 . S
C1006 C1007 1.394 . S
C1006 H1014 0.930 . S
C1007 C1006 1.394 . S
C1007 C1008 1.383 . S
C1007 H1015 0.929 . S
C1008 C1007 1.383 . S
C1008 C1009 1.377 . S
C1009 H993 0.930 . S
C1009 C1008 1.377 . S
C1009 C1010 1.379 . S
C1010 H994 0.931 . S
C1010 C1004 1.383 . S
C1010 C1009 1.379 . S
H1011 C1005 0.959 . S
H1012 C1005 0.961 . S
H1013 C1005 0.960 . S
H1014 C1006 0.930 . S
H1015 C1007 0.929 . S
H1016 C1024 0.929 . S
H1017 C1026 0.930 . S
H1018 C1028 0.930 . S
H1019 C1031 0.929 . S
H1020 C1034 0.930 . S
H1021 C1036 0.960 . S
H1022 C1036 0.960 . S
H1023 C1036 0.960 . S
C1024 H1016 0.929 . S
C1024 C1025 1.377 . S
C1024 C1026 1.384 . S
C1025 C1024 1.377 . S
C1025 C1031 1.390 . S
C1026 H1017 0.930 . S
C1026 C1024 1.384 . S
C1026 C1027 1.372 . S
C1027 C1026 1.372 . S
C1027 C1028 1.400 . S
C1027 C1032 1.490 . S
C1028 H1018 0.930 . S
C1028 C1027 1.400 . S
C1028 C1031 1.386 . S
H1029 C1045 0.930 . S
H1030 C1046 0.931 . S
C1031 H1019 0.929 . S
C1031 C1025 1.390 . S
C1031 C1028 1.386 . S
C1032 C1027 1.490 . S
C1032 C1034 1.395 . S
C1032 C1035 1.403 . S
H1033 C1039 0.930 . S
C1034 H1020 0.930 . S
C1034 C1032 1.395 . S
C1034 C1037 1.403 . S
C1035 C1032 1.403 . S
C1035 C1036 1.524 . S
C1035 C1039 1.400 . S
C1036 H1021 0.960 . S
C1036 H1022 0.960 . S
C1036 H1023 0.960 . S
C1036 C1035 1.524 . S
C1037 C1034 1.403 . S
C1037 C1038 1.392 . S
C1037 C1041 1.495 . S
C1038 C1037 1.392 . S
C1038 C1039 1.385 . S
C1038 C1040 1.478 . S
C1039 H1033 0.930 . S
C1039 C1035 1.400 . S
C1039 C1038 1.385 . S
C1040 C1038 1.478 . S
C1040 C1042 1.381 . S
C1040 C1046 1.383 . S
C1041 C1037 1.495 . S
C1041 H1047 0.959 . S
C1041 H1048 0.961 . S
C1041 H1049 0.960 . S
C1042 C1040 1.381 . S
C1042 C1043 1.394 . S
C1042 H1050 0.930 . S
C1043 C1042 1.394 . S
C1043 C1044 1.383 . S
C1043 H1051 0.929 . S
C1044 C1043 1.383 . S
C1044 C1045 1.377 . S
C1045 H1029 0.930 . S
C1045 C1044 1.377 . S
C1045 C1046 1.379 . S
C1046 H1030 0.931 . S
C1046 C1040 1.383 . S
C1046 C1045 1.379 . S
H1047 C1041 0.959 . S
H1048 C1041 0.961 . S
H1049 C1041 0.960 . S
H1050 C1042 0.930 . S
H1051 C1043 0.929 . S
H1052 C1060 0.929 . S
H1053 C1062 0.930 . S
H1054 C1064 0.930 . S
H1055 C1067 0.929 . S
H1056 C1070 0.930 . S
H1057 C1072 0.960 . S
H1058 C1072 0.960 . S
H1059 C1072 0.960 . S
C1060 H1052 0.929 . S
C1060 C1061 1.377 . S
C1060 C1062 1.384 . S
C1061 C1060 1.377 . S
C1061 C1067 1.390 . S
C1062 H1053 0.930 . S
C1062 C1060 1.384 . S
C1062 C1063 1.372 . S
C1063 C1062 1.372 . S
C1063 C1064 1.400 . S
C1063 C1068 1.490 . S
C1064 H1054 0.930 . S
C1064 C1063 1.400 . S
C1064 C1067 1.386 . S
H1065 C1081 0.930 . S
H1066 C1082 0.931 . S
C1067 H1055 0.929 . S
C1067 C1061 1.390 . S
C1067 C1064 1.386 . S
C1068 C1063 1.490 . S
C1068 C1070 1.395 1_455 S
C1068 C1071 1.403 . S
H1069 C1075 0.930 1_455 S
C1070 H1056 0.930 . S
C1070 C1068 1.395 1_655 S
C1070 C1073 1.403 . S
C1071 C1068 1.403 . S
C1071 C1072 1.524 . S
C1071 C1075 1.400 1_455 S
C1072 H1057 0.960 . S
C1072 H1058 0.960 . S
C1072 H1059 0.960 . S
C1072 C1071 1.524 . S
C1073 C1070 1.403 . S
C1073 C1074 1.392 . S
C1073 C1077 1.495 . S
C1074 C1073 1.392 . S
C1074 C1075 1.385 . S
C1074 C1076 1.478 . S
C1075 H1069 0.930 1_655 S
C1075 C1071 1.400 1_655 S
C1075 C1074 1.385 . S
C1076 C1074 1.478 . S
C1076 C1078 1.381 . S
C1076 C1082 1.383 . S
C1077 C1073 1.495 . S
C1077 H1083 0.959 . S
C1077 H1084 0.961 . S
C1077 H1085 0.960 . S
C1078 C1076 1.381 . S
C1078 C1079 1.394 . S
C1078 H1086 0.930 . S
C1079 C1078 1.394 . S
C1079 C1080 1.383 . S
C1079 H1087 0.929 . S
C1080 C1079 1.383 . S
C1080 C1081 1.377 . S
C1081 H1065 0.930 . S
C1081 C1080 1.377 . S
C1081 C1082 1.379 . S
C1082 H1066 0.931 . S
C1082 C1076 1.383 . S
C1082 C1081 1.379 . S
H1083 C1077 0.959 . S
H1084 C1077 0.961 . S
H1085 C1077 0.960 . S
H1086 C1078 0.930 . S
H1087 C1079 0.929 . S
H1088 C1096 0.929 . S
H1089 C1098 0.930 . S
H1090 C1100 0.930 . S
H1091 C1103 0.929 . S
H1092 C1106 0.930 . S
H1093 C1108 0.960 1_655 S
H1094 C1108 0.960 . S
H1095 C1108 0.960 . S
C1096 H1088 0.929 . S
C1096 C1097 1.377 . S
C1096 C1098 1.384 . S
C1097 C1096 1.377 . S
C1097 C1103 1.390 . S
C1098 H1089 0.930 . S
C1098 C1096 1.384 . S
C1098 C1099 1.372 . S
C1099 C1098 1.372 . S
C1099 C1100 1.400 . S
C1099 C1104 1.490 . S
C1100 H1090 0.930 . S
C1100 C1099 1.400 . S
C1100 C1103 1.386 . S
H1101 C1117 0.930 . S
H1102 C1118 0.931 . S
C1103 H1091 0.929 . S
C1103 C1097 1.390 . S
C1103 C1100 1.386 . S
C1104 C1099 1.490 . S
C1104 C1106 1.395 . S
C1104 C1107 1.403 . S
H1105 C1111 0.930 . S
C1106 H1092 0.930 . S
C1106 C1104 1.395 . S
C1106 C1109 1.403 1_455 S
C1107 C1104 1.403 . S
C1107 C1108 1.524 . S
C1107 C1111 1.400 1_455 S
C1108 H1093 0.960 1_455 S
C1108 H1094 0.960 . S
C1108 H1095 0.960 . S
C1108 C1107 1.524 . S
C1109 C1106 1.403 1_655 S
C1109 C1110 1.392 . S
C1109 C1113 1.495 . S
C1110 C1109 1.392 . S
C1110 C1111 1.385 . S
C1110 C1112 1.478 . S
C1111 H1105 0.930 . S
C1111 C1107 1.400 1_655 S
C1111 C1110 1.385 . S
C1112 C1110 1.478 . S
C1112 C1114 1.381 . S
C1112 C1118 1.383 . S
C1113 C1109 1.495 . S
C1113 H1119 0.959 1_655 S
C1113 H1120 0.961 . S
C1113 H1121 0.960 . S
C1114 C1112 1.381 . S
C1114 C1115 1.394 . S
C1114 H1122 0.930 . S
C1115 C1114 1.394 . S
C1115 C1116 1.383 . S
C1115 H1123 0.929 . S
C1116 C1115 1.383 . S
C1116 C1117 1.377 . S
C1117 H1101 0.930 . S
C1117 C1116 1.377 . S
C1117 C1118 1.379 . S
C1118 H1102 0.931 . S
C1118 C1112 1.383 . S
C1118 C1117 1.379 . S
H1119 C1113 0.959 1_455 S
H1120 C1113 0.961 . S
H1121 C1113 0.960 . S
H1122 C1114 0.930 . S
H1123 C1115 0.929 . S
H1124 C1132 0.929 . S
H1125 C1134 0.930 . S
H1126 C1136 0.930 . S
H1127 C1139 0.929 . S
H1128 C1142 0.930 . S
H1129 C1144 0.960 . S
H1130 C1144 0.960 . S
H1131 C1144 0.960 . S
C1132 H1124 0.929 . S
C1132 C1133 1.377 . S
C1132 C1134 1.384 . S
C1133 C1132 1.377 . S
C1133 C1139 1.390 . S
C1134 H1125 0.930 . S
C1134 C1132 1.384 . S
C1134 C1135 1.372 . S
C1135 C1134 1.372 . S
C1135 C1136 1.400 . S
C1135 C1140 1.490 . S
C1136 H1126 0.930 . S
C1136 C1135 1.400 . S
C1136 C1139 1.386 . S
H1137 C1153 0.930 . S
H1138 C1154 0.931 . S
C1139 H1127 0.929 . S
C1139 C1133 1.390 . S
C1139 C1136 1.386 . S
C1140 C1135 1.490 . S
C1140 C1142 1.395 . S
C1140 C1143 1.403 . S
H1141 C1147 0.930 . S
C1142 H1128 0.930 . S
C1142 C1140 1.395 . S
C1142 C1145 1.403 . S
C1143 C1140 1.403 . S
C1143 C1144 1.524 . S
C1143 C1147 1.400 . S
C1144 H1129 0.960 . S
C1144 H1130 0.960 . S
C1144 H1131 0.960 . S
C1144 C1143 1.524 . S
C1145 C1142 1.403 . S
C1145 C1146 1.392 . S
C1145 C1149 1.495 . S
C1146 C1145 1.392 . S
C1146 C1147 1.385 . S
C1146 C1148 1.478 . S
C1147 H1141 0.930 . S
C1147 C1143 1.400 . S
C1147 C1146 1.385 . S
C1148 C1146 1.478 . S
C1148 C1150 1.381 . S
C1148 C1154 1.383 . S
C1149 C1145 1.495 . S
C1149 H1155 0.959 . S
C1149 H1156 0.961 . S
C1149 H1157 0.960 . S
C1150 C1148 1.381 . S
C1150 C1151 1.394 . S
C1150 H1158 0.930 . S
C1151 C1150 1.394 . S
C1151 C1152 1.383 . S
C1151 H1159 0.929 . S
C1152 C1151 1.383 . S
C1152 C1153 1.377 . S
C1153 H1137 0.930 . S
C1153 C1152 1.377 . S
C1153 C1154 1.379 . S
C1154 H1138 0.931 . S
C1154 C1148 1.383 . S
C1154 C1153 1.379 . S
H1155 C1149 0.959 . S
H1156 C1149 0.961 . S
H1157 C1149 0.960 . S
H1158 C1150 0.930 . S
H1159 C1151 0.929 . S
H1160 C1168 0.929 . S
H1161 C1170 0.930 . S
H1162 C1172 0.930 . S
H1163 C1175 0.929 . S
H1164 C1178 0.930 . S
H1165 C1180 0.960 . S
H1166 C1180 0.960 . S
H1167 C1180 0.960 . S
C1168 H1160 0.929 . S
C1168 C1169 1.377 . S
C1168 C1170 1.384 . S
C1169 C1168 1.377 . S
C1169 C1175 1.390 . S
C1170 H1161 0.930 . S
C1170 C1168 1.384 . S
C1170 C1171 1.372 . S
C1171 C1170 1.372 . S
C1171 C1172 1.400 . S
C1171 C1176 1.490 . S
C1172 H1162 0.930 . S
C1172 C1171 1.400 . S
C1172 C1175 1.386 . S
H1173 C1189 0.930 . S
H1174 C1190 0.931 . S
C1175 H1163 0.929 . S
C1175 C1169 1.390 . S
C1175 C1172 1.386 . S
C1176 C1171 1.490 . S
C1176 C1178 1.395 . S
C1176 C1179 1.403 . S
H1177 C1183 0.930 . S
C1178 H1164 0.930 . S
C1178 C1176 1.395 . S
C1178 C1181 1.403 . S
C1179 C1176 1.403 . S
C1179 C1180 1.524 . S
C1179 C1183 1.400 . S
C1180 H1165 0.960 . S
C1180 H1166 0.960 . S
C1180 H1167 0.960 . S
C1180 C1179 1.524 . S
C1181 C1178 1.403 . S
C1181 C1182 1.392 . S
C1181 C1185 1.495 . S
C1182 C1181 1.392 . S
C1182 C1183 1.385 . S
C1182 C1184 1.478 . S
C1183 H1177 0.930 . S
C1183 C1179 1.400 . S
C1183 C1182 1.385 . S
C1184 C1182 1.478 . S
C1184 C1186 1.381 . S
C1184 C1190 1.383 . S
C1185 C1181 1.495 . S
C1185 H1191 0.959 . S
C1185 H1192 0.961 . S
C1185 H1193 0.960 . S
C1186 C1184 1.381 . S
C1186 C1187 1.394 . S
C1186 H1194 0.930 . S
C1187 C1186 1.394 . S
C1187 C1188 1.383 . S
C1187 H1195 0.929 . S
C1188 C1187 1.383 . S
C1188 C1189 1.377 . S
C1189 H1173 0.930 . S
C1189 C1188 1.377 . S
C1189 C1190 1.379 . S
C1190 H1174 0.931 . S
C1190 C1184 1.383 . S
C1190 C1189 1.379 . S
H1191 C1185 0.959 . S
H1192 C1185 0.961 . S
H1193 C1185 0.960 . S
H1194 C1186 0.930 . S
H1195 C1187 0.929 . S
H1196 C1204 0.929 . S
H1197 C1206 0.930 . S
H1198 C1208 0.930 . S
H1199 C1211 0.929 . S
H1200 C1214 0.930 . S
H1201 C1216 0.996 . S
H1202 C1216 0.918 1_545 S
H1203 C1216 0.960 1_545 S
C1204 H1196 0.929 . S
C1204 C1205 1.377 . S
C1204 C1206 1.384 . S
C1205 C1204 1.377 . S
C1205 C1211 1.390 . S
C1206 H1197 0.930 . S
C1206 C1204 1.384 . S
C1206 C1207 1.372 . S
C1207 C1206 1.372 . S
C1207 C1208 1.400 . S
C1207 C1212 1.490 . S
C1208 H1198 0.930 . S
C1208 C1207 1.400 . S
C1208 C1211 1.386 . S
H1209 C1225 0.930 . S
H1210 C1226 0.931 . S
C1211 H1199 0.929 . S
C1211 C1205 1.390 . S
C1211 C1208 1.386 . S
C1212 C1207 1.490 . S
C1212 C1214 1.395 . S
C1212 C1215 1.403 1_545 S
H1213 C1219 0.930 . S
C1214 H1200 0.930 . S
C1214 C1212 1.395 . S
C1214 C1217 1.403 1_545 S
C1215 C1212 1.403 1_565 S
C1215 C1216 1.533 . S
C1215 C1219 1.400 . S
C1216 H1201 0.996 . S
C1216 H1202 0.918 1_565 S
C1216 H1203 0.960 1_565 S
C1216 C1215 1.533 . S
C1217 C1214 1.403 1_565 S
C1217 C1218 1.392 . S
C1217 C1221 1.495 . S
C1218 C1217 1.392 . S
C1218 C1219 1.385 . S
C1218 C1220 1.478 . S
C1219 H1213 0.930 . S
C1219 C1215 1.400 . S
C1219 C1218 1.385 . S
C1220 C1218 1.478 . S
C1220 C1222 1.381 . S
C1220 C1226 1.383 . S
C1221 C1217 1.495 . S
C1221 H1227 0.959 1_565 S
C1221 H1228 0.961 . S
C1221 H1229 0.960 . S
C1222 C1220 1.381 . S
C1222 C1223 1.394 . S
C1222 H1230 0.930 . S
C1223 C1222 1.394 . S
C1223 C1224 1.383 . S
C1223 H1231 0.929 . S
C1224 C1223 1.383 . S
C1224 C1225 1.377 . S
C1225 H1209 0.930 . S
C1225 C1224 1.377 . S
C1225 C1226 1.379 . S
C1226 H1210 0.931 . S
C1226 C1220 1.383 . S
C1226 C1225 1.379 . S
H1227 C1221 0.959 1_545 S
H1228 C1221 0.961 . S
H1229 C1221 0.960 . S
H1230 C1222 0.930 . S
H1231 C1223 0.929 . S
H1232 C1240 0.929 . S
H1233 C1242 0.930 . S
H1234 C1244 0.930 . S
H1235 C1247 0.929 . S
H1236 C1250 0.930 . S
H1237 C1252 0.960 . S
H1238 C1252 0.960 . S
H1239 C1252 0.960 . S
C1240 H1232 0.929 . S
C1240 C1241 1.377 . S
C1240 C1242 1.384 . S
C1241 C1240 1.377 . S
C1241 C1247 1.390 . S
C1242 H1233 0.930 . S
C1242 C1240 1.384 . S
C1242 C1243 1.372 . S
C1243 C1242 1.372 . S
C1243 C1244 1.400 . S
C1243 C1248 1.490 . S
C1244 H1234 0.930 . S
C1244 C1243 1.400 . S
C1244 C1247 1.386 . S
H1245 C1261 0.930 . S
H1246 C1262 0.931 . S
C1247 H1235 0.929 . S
C1247 C1241 1.390 . S
C1247 C1244 1.386 . S
C1248 C1243 1.490 . S
C1248 C1250 1.395 . S
C1248 C1251 1.403 . S
H1249 C1255 0.930 . S
C1250 H1236 0.930 . S
C1250 C1248 1.395 . S
C1250 C1253 1.403 . S
C1251 C1248 1.403 . S
C1251 C1252 1.524 . S
C1251 C1255 1.400 . S
C1252 H1237 0.960 . S
C1252 H1238 0.960 . S
C1252 H1239 0.960 . S
C1252 C1251 1.524 . S
C1253 C1250 1.403 . S
C1253 C1254 1.392 . S
C1253 C1257 1.495 . S
C1254 C1253 1.392 . S
C1254 C1255 1.385 . S
C1254 C1256 1.478 . S
C1255 H1249 0.930 . S
C1255 C1251 1.400 . S
C1255 C1254 1.385 . S
C1256 C1254 1.478 . S
C1256 C1258 1.381 . S
C1256 C1262 1.383 . S
C1257 C1253 1.495 . S
C1257 H1263 0.959 . S
C1257 H1264 0.961 . S
C1257 H1265 0.960 . S
C1258 C1256 1.381 . S
C1258 C1259 1.394 . S
C1258 H1266 0.930 . S
C1259 C1258 1.394 . S
C1259 C1260 1.383 . S
C1259 H1267 0.929 . S
C1260 C1259 1.383 . S
C1260 C1261 1.377 . S
C1261 H1245 0.930 . S
C1261 C1260 1.377 . S
C1261 C1262 1.379 . S
C1262 H1246 0.931 . S
C1262 C1256 1.383 . S
C1262 C1261 1.379 . S
H1263 C1257 0.959 . S
H1264 C1257 0.961 . S
H1265 C1257 0.960 . S
H1266 C1258 0.930 . S
H1267 C1259 0.929 . S
H1268 C1276 0.929 . S
H1269 C1278 0.930 . S
H1270 C1280 0.930 . S
H1271 C1283 0.929 . S
H1272 C1286 0.930 . S
H1273 C1288 0.960 . S
H1274 C1288 0.960 . S
H1275 C1288 0.960 . S
C1276 H1268 0.929 . S
C1276 C1277 1.377 . S
C1276 C1278 1.384 . S
C1277 C1276 1.377 . S
C1277 C1283 1.390 . S
C1278 H1269 0.930 . S
C1278 C1276 1.384 . S
C1278 C1279 1.372 . S
C1279 C1278 1.372 . S
C1279 C1280 1.400 . S
C1279 C1284 1.490 . S
C1280 H1270 0.930 . S
C1280 C1279 1.400 . S
C1280 C1283 1.386 . S
H1281 C1297 0.930 . S
H1282 C1298 0.931 . S
C1283 H1271 0.929 . S
C1283 C1277 1.390 . S
C1283 C1280 1.386 . S
C1284 C1279 1.490 . S
C1284 C1286 1.395 . S
C1284 C1287 1.403 . S
H1285 C1291 0.930 . S
C1286 H1272 0.930 . S
C1286 C1284 1.395 . S
C1286 C1289 1.403 . S
C1287 C1284 1.403 . S
C1287 C1288 1.524 . S
C1287 C1291 1.400 . S
C1288 H1273 0.960 . S
C1288 H1274 0.960 . S
C1288 H1275 0.960 . S
C1288 C1287 1.524 . S
C1289 C1286 1.403 . S
C1289 C1290 1.392 . S
C1289 C1293 1.495 . S
C1290 C1289 1.392 . S
C1290 C1291 1.385 . S
C1290 C1292 1.478 . S
C1291 H1285 0.930 . S
C1291 C1287 1.400 . S
C1291 C1290 1.385 . S
C1292 C1290 1.478 . S
C1292 C1294 1.381 . S
C1292 C1298 1.383 . S
C1293 C1289 1.495 . S
C1293 H1299 0.959 . S
C1293 H1300 0.961 . S
C1293 H1301 0.960 . S
C1294 C1292 1.381 . S
C1294 C1295 1.394 . S
C1294 H1302 0.930 . S
C1295 C1294 1.394 . S
C1295 C1296 1.383 . S
C1295 H1303 0.929 . S
C1296 C1295 1.383 . S
C1296 C1297 1.377 . S
C1297 H1281 0.930 . S
C1297 C1296 1.377 . S
C1297 C1298 1.379 . S
C1298 H1282 0.931 . S
C1298 C1292 1.383 . S
C1298 C1297 1.379 . S
H1299 C1293 0.959 . S
H1300 C1293 0.961 . S
H1301 C1293 0.960 . S
H1302 C1294 0.930 . S
H1303 C1295 0.929 . S
H1304 C1312 0.929 . S
H1305 C1314 0.930 . S
H1306 C1316 0.930 . S
H1307 C1319 0.929 . S
H1308 C1322 0.930 . S
H1309 C1324 0.960 1_565 S
H1310 C1324 0.958 . S
H1311 C1324 0.960 . S
C1312 H1304 0.929 . S
C1312 C1313 1.377 . S
C1312 C1314 1.384 . S
C1313 C1312 1.377 . S
C1313 C1319 1.390 . S
C1314 H1305 0.930 . S
C1314 C1312 1.384 . S
C1314 C1315 1.372 . S
C1315 C1314 1.372 . S
C1315 C1316 1.400 . S
C1315 C1320 1.490 . S
C1316 H1306 0.930 . S
C1316 C1315 1.400 . S
C1316 C1319 1.386 . S
H1317 C1333 0.930 . S
H1318 C1334 0.931 . S
C1319 H1307 0.929 . S
C1319 C1313 1.390 . S
C1319 C1316 1.386 . S
C1320 C1315 1.490 . S
C1320 C1322 1.395 . S
C1320 C1323 1.397 1_545 S
H1321 C1327 0.930 . S
C1322 H1308 0.930 . S
C1322 C1320 1.395 . S
C1322 C1325 1.403 1_545 S
C1323 C1320 1.397 1_565 S
C1323 C1324 1.524 1_565 S
C1323 C1327 1.405 . S
C1324 H1309 0.960 1_545 S
C1324 H1310 0.958 . S
C1324 H1311 0.960 . S
C1324 C1323 1.524 1_545 S
C1325 C1322 1.403 1_565 S
C1325 C1326 1.392 . S
C1325 C1329 1.495 . S
C1326 C1325 1.392 . S
C1326 C1327 1.385 . S
C1326 C1328 1.478 . S
C1327 H1321 0.930 . S
C1327 C1323 1.405 . S
C1327 C1326 1.385 . S
C1328 C1326 1.478 . S
C1328 C1330 1.381 . S
C1328 C1334 1.383 . S
C1329 C1325 1.495 . S
C1329 H1335 0.959 1_565 S
C1329 H1336 0.961 . S
C1329 H1337 0.960 . S
C1330 C1328 1.381 . S
C1330 C1331 1.394 . S
C1330 H1338 0.930 . S
C1331 C1330 1.394 . S
C1331 C1332 1.383 . S
C1331 H1339 0.929 . S
C1332 C1331 1.383 . S
C1332 C1333 1.377 . S
C1333 H1317 0.930 . S
C1333 C1332 1.377 . S
C1333 C1334 1.379 . S
C1334 H1318 0.931 . S
C1334 C1328 1.383 . S
C1334 C1333 1.379 . S
H1335 C1329 0.959 1_545 S
H1336 C1329 0.961 . S
H1337 C1329 0.960 . S
H1338 C1330 0.930 . S
H1339 C1331 0.929 . S
H1340 C1348 0.929 . S
H1341 C1350 0.930 . S
H1342 C1352 0.930 . S
H1343 C1355 0.929 . S
H1344 C1358 0.930 . S
H1345 C1360 0.960 . S
H1346 C1360 0.960 . S
H1347 C1360 0.960 . S
C1348 H1340 0.929 . S
C1348 C1349 1.377 . S
C1348 C1350 1.384 . S
C1349 C1348 1.377 . S
C1349 C1355 1.390 . S
C1350 H1341 0.930 . S
C1350 C1348 1.384 . S
C1350 C1351 1.372 . S
C1351 C1350 1.372 . S
C1351 C1352 1.400 . S
C1351 C1356 1.490 . S
C1352 H1342 0.930 . S
C1352 C1351 1.400 . S
C1352 C1355 1.386 . S
H1353 C1369 0.930 . S
H1354 C1370 0.931 . S
C1355 H1343 0.929 . S
C1355 C1349 1.390 . S
C1355 C1352 1.386 . S
C1356 C1351 1.490 . S
C1356 C1358 1.395 . S
C1356 C1359 1.403 . S
H1357 C1363 0.930 . S
C1358 H1344 0.930 . S
C1358 C1356 1.395 . S
C1358 C1361 1.403 . S
C1359 C1356 1.403 . S
C1359 C1360 1.524 . S
C1359 C1363 1.400 . S
C1360 H1345 0.960 . S
C1360 H1346 0.960 . S
C1360 H1347 0.960 . S
C1360 C1359 1.524 . S
C1361 C1358 1.403 . S
C1361 C1362 1.392 . S
C1361 C1365 1.495 . S
C1362 C1361 1.392 . S
C1362 C1363 1.385 . S
C1362 C1364 1.478 . S
C1363 H1357 0.930 . S
C1363 C1359 1.400 . S
C1363 C1362 1.385 . S
C1364 C1362 1.478 . S
C1364 C1366 1.381 . S
C1364 C1370 1.383 . S
C1365 C1361 1.495 . S
C1365 H1371 0.959 . S
C1365 H1372 0.961 . S
C1365 H1373 0.960 . S
C1366 C1364 1.381 . S
C1366 C1367 1.394 . S
C1366 H1374 0.930 . S
C1367 C1366 1.394 . S
C1367 C1368 1.383 . S
C1367 H1375 0.929 . S
C1368 C1367 1.383 . S
C1368 C1369 1.377 . S
C1369 H1353 0.930 . S
C1369 C1368 1.377 . S
C1369 C1370 1.379 . S
C1370 H1354 0.931 . S
C1370 C1364 1.383 . S
C1370 C1369 1.379 . S
H1371 C1365 0.959 . S
H1372 C1365 0.961 . S
H1373 C1365 0.960 . S
H1374 C1366 0.930 . S
H1375 C1367 0.929 . S
C233 C7 1.278 . S
C252 C189 1.308 . S
C269 C21 1.371 . S
C288 C133 1.349 . S
C305 C203 0.294 . S
C324 C35 0.479 . S
C341 C49 0.527 . S
C360 C217 0.577 . S
C377 C63 1.370 . S
C396 C91 1.349 . S
C413 C147 1.274 . S
C432 C77 1.287 . S
C449 C161 0.516 . S
C468 C105 0.257 . S
C485 C119 0.547 . S
C504 C175 0.525 . S
C521 C36 1.558 . S
C540 C8 1.576 . S
C557 C22 1.599 . S
C576 C45 1.586 . S
C593 C177 1.471 . S
C612 C3 1.462 . S
C629 C17 1.561 . S
C648 C157 1.540 . S
C665 C59 1.561 . S
C684 C31 1.563 . S
C701 C143 1.474 . S
C720 C51 1.465 . S
C737 C23 2.095 . S
C756 C9 2.076 . S
C773 C50 1.534 . S
C792 C37 1.528 . S
C809 C149 2.091 . S
C828 C65 2.085 . S
C845 C101 1.912 . S
C864 C79 1.901 . S
C881 C93 1.509 . S
C900 C115 1.532 . S
C917 C218 1.932 . S
C936 C73 1.934 . S
C953 C87 1.356 . S
C972 C204 1.334 . S
C989 C129 1.353 . S
C1008 C106 1.356 . S
C1025 C120 1.932 . S
C1044 C185 1.936 . S
C1061 C92 1.550 . S
C1080 C78 1.535 . S
C1097 C121 1.677 . S
C1116 C107 1.681 . S
C1133 C134 1.552 . S
C1152 C190 1.552 . S
C1169 C148 1.575 . S
C1188 C162 1.557 . S
C1205 C171 1.595 . S
C1224 C64 1.594 . S
C1241 C176 1.532 . S
C1260 C163 1.519 . S
C1277 C199 1.910 . S
C1296 C191 1.876 . S
C1313 C135 1.510 . S
C1332 C213 1.531 . S
C1349 C219 1.677 . S
C1368 C205 1.676 . S
