# Generated by pormake.
# Topology cdl, (4)-cn, num edge types: 1
# Building blocks:
#     Node 0, Type 0, BuildingBlock: NAWXER_clean_sbu_0, # of connection points: 4
#     Node 1, Type 0, BuildingBlock: NAWXER_clean_sbu_0, # of connection points: 4
#     Node 2, Type 0, BuildingBlock: NAWXER_clean_sbu_0, # of connection points: 4
#     Node 3, Type 0, BuildingBlock: NAWXER_clean_sbu_0, # of connection points: 4
#     Edge 4, Type (0, 0), BuildingBlock: FUNLAD_clean_linker_1, # of connection points: 2
#     Edge 5, Type (0, 0), BuildingBlock: FUNLAD_clean_linker_1, # of connection points: 2
#     Edge 6, Type (0, 0), BuildingBlock: FUNLAD_clean_linker_1, # of connection points: 2
#     Edge 7, Type (0, 0), BuildingBlock: FUNLAD_clean_linker_1, # of connection points: 2
#     Edge 8, Type (0, 0), BuildingBlock: FUNLAD_clean_linker_1, # of connection points: 2
#     Edge 9, Type (0, 0), BuildingBlock: FUNLAD_clean_linker_1, # of connection points: 2
#     Edge 10, Type (0, 0), BuildingBlock: FUNLAD_clean_linker_1, # of connection points: 2
#     Edge 11, Type (0, 0), BuildingBlock: FUNLAD_clean_linker_1, # of connection points: 2
# Relax obj value: 0.000
# Max RMSD: 0.003
# Mean RMSD: 0.003
data_MOF--net-cdl--node1-NAWXER_clean_sbu_0--edge1-FUNLAD_clean_linker_1
_symmetry_space_group_name_H-M    P1
_symmetry_Int_Tables_number       1
_symmetry_cell_setting            triclinic
loop_
_symmetry_equiv_pos_as_xyz
'x, y, z'
_cell_length_a     15.248875
_cell_length_b     15.193329
_cell_length_c     60.930355
_cell_angle_alpha  96.874925
_cell_angle_beta   96.612744
_cell_angle_gamma 87.609292
loop_
_atom_site_label
_atom_site_type_symbol
_atom_site_fract_x
_atom_site_fract_y
_atom_site_fract_z
_atom_type_partial_charge
C0 C 0.96863 0.26873 0.13452 0.0
C1 C 0.92627 0.9506 0.12991 0.0
O2 O 0.04208 0.2248 0.13684 0.0
Zn3 Zn 0.085 0.0879 0.13719 0.0
O4 O 0.89626 0.22823 0.13176 0.0
Zn5 Zn 0.94694 0.10984 0.13235 0.0
O6 O 1.00266 0.10865 0.16659 0.0
O7 O 0.1465 0.08512 0.16642 0.0
O8 O 0.86762 1.0119 0.12815 0.0
O9 O 1.00817 0.9701 0.13318 0.0
O10 O 0.15416 0.06925 0.11252 0.0
O11 O 1.01198 0.09162 0.10238 0.0
C12 C 0.07962 0.09814 0.17711 0.0
C13 C 0.0911 0.07693 0.0973 0.0
C14 C 0.24106 0.20437 0.63935 0.0
C15 C 0.92352 0.20319 0.6412 0.0
O16 O 0.21286 0.1252 0.63759 0.0
Zn17 Zn 0.08685 0.0637 0.63606 0.0
O18 O 0.18734 0.27017 0.64112 0.0
Zn19 Zn 0.08228 0.20318 0.64027 0.0
O20 O 0.09992 0.14134 0.67073 0.0
O21 O 0.10378 0.99653 0.66104 0.0
O22 O 0.97332 0.26918 0.64338 0.0
O23 O 0.95653 0.12411 0.63821 0.0
O24 O 0.07598 0.99768 0.60702 0.0
O25 O 0.06861 0.14268 0.60612 0.0
C26 C 0.10649 0.06194 0.6761 0.0
C27 C 0.06832 0.06363 0.59593 0.0
C28 C 0.19623 0.24071 0.89313 0.0
C29 C 0.23688 0.91926 0.88933 0.0
O30 O 0.26843 0.19589 0.89479 0.0
Zn31 Zn 0.2172 0.07988 0.89099 0.0
O32 O 0.12265 0.20084 0.89004 0.0
Zn33 Zn 0.07893 0.06633 0.88597 0.0
O34 O 1.01037 0.06519 0.91043 0.0
O35 O 0.15326 0.07887 0.92089 0.0
O36 O 0.155 0.9435 0.88689 0.0
O37 O 0.2959 0.97724 0.89187 0.0
O38 O 0.16031 0.06815 0.85673 0.0
O39 O 1.0165 0.05568 0.85654 0.0
C40 C 0.07422 0.07263 0.92578 0.0
C41 C 0.08302 0.05972 0.84602 0.0
C42 C 0.2361 0.96166 0.38187 0.0
C43 C 0.91857 0.95958 0.38359 0.0
O44 O 0.18643 0.89553 0.37954 0.0
Zn45 Zn 0.07732 0.96123 0.38273 0.0
O46 O 0.20296 0.04063 0.38496 0.0
Zn47 Zn 0.07255 0.10069 0.38708 0.0
O48 O 0.08312 0.1663 0.41616 0.0
O49 O 0.09075 0.02124 0.41693 0.0
O50 O 0.94659 0.03886 0.38543 0.0
O51 O 0.97246 0.89394 0.3818 0.0
O52 O 0.05942 0.02358 0.35234 0.0
O53 O 0.05598 0.16828 0.36217 0.0
C54 C 0.09084 0.10017 0.42718 0.0
C55 C 0.05301 0.10309 0.34705 0.0
H56 H 0.03487 0.39583 0.13665 0.0
C57 C 0.97057 0.36554 0.1343 0.0
H58 H 0.83244 0.3886 0.1286 0.0
H59 H 0.88465 0.79606 0.16766 0.0
H60 H 0.8153 0.74186 0.19707 0.0
H61 H 0.78513 0.58307 0.19588 0.0
H62 H 0.82474 0.47721 0.16526 0.0
C63 C 0.89764 0.41665 0.13052 0.0
C64 C 0.90492 0.51358 0.12962 0.0
C65 C 0.87867 0.57499 0.14721 0.0
C66 C 0.8948 0.66687 0.14769 0.0
C67 C 0.87205 0.72597 0.1661 0.0
C68 C 0.8326 0.69567 0.18319 0.0
C69 C 0.81569 0.60623 0.18253 0.0
C70 C 0.83868 0.54621 0.16485 0.0
H71 H 0.83033 0.84272 0.12573 0.0
C72 C 0.90013 0.85747 0.12867 0.0
H73 H 0.03043 0.80518 0.13391 0.0
H74 H 0.95126 0.41511 0.09181 0.0
H75 H 0.01773 0.46929 0.06189 0.0
H76 H 0.04723 0.62824 0.06287 0.0
H77 H 1.00983 0.73404 0.09372 0.0
C78 C 0.96038 0.79148 0.13155 0.0
C79 C 0.93548 0.69719 0.13028 0.0
C80 C 0.95827 0.63615 0.11221 0.0
C81 C 0.94234 0.54438 0.11178 0.0
C82 C 0.96397 0.4852 0.09327 0.0
C83 C 1.00165 0.5155 0.0759 0.0
C84 C 0.01815 0.605 0.07644 0.0
C85 C 0.99663 0.66496 0.09429 0.0
H86 H 0.35011 0.2597 0.62522 0.0
C87 C 0.33454 0.21811 0.63748 0.0
H88 H 0.38102 0.13697 0.66204 0.0
H89 H 0.74709 1.0034 0.63434 0.0
H90 H 0.67278 0.86828 0.63679 0.0
H91 H 0.51472 0.87123 0.64199 0.0
H92 H 0.43091 1.0095 0.64541 0.0
C93 C 0.3991 0.1773 0.64977 0.0
C94 C 0.49392 0.17683 0.64554 0.0
C95 C 0.54099 0.09439 0.64234 0.0
C96 C 0.63103 0.09217 0.63811 0.0
C97 C 0.67777 1.00931 0.63662 0.0
C98 C 0.63603 0.93086 0.63812 0.0
C99 C 0.54719 0.93255 0.64112 0.0
C100 C 0.49992 1.01293 0.6432 0.0
H101 H 0.81043 0.26822 0.6566 0.0
C102 C 0.82909 0.21719 0.64378 0.0
H103 H 0.7877 0.11783 0.6182 0.0
H104 H 0.43415 0.34793 0.6566 0.0
H105 H 0.50196 0.48207 0.64975 0.0
H106 H 0.64398 0.47481 0.63377 0.0
H107 H 0.72116 0.3339 0.62586 0.0
C108 C 0.76725 0.16761 0.6311 0.0
C109 C 0.67252 0.17173 0.63552 0.0
C110 C 0.62386 0.25362 0.63754 0.0
C111 C 0.53715 0.25681 0.64418 0.0
C112 C 0.49615 0.34084 0.64949 0.0
C113 C 0.53494 0.41853 0.64592 0.0
C114 C 0.61518 0.41451 0.63711 0.0
C115 C 0.65937 0.33321 0.63291 0.0
H116 H 0.13049 0.37254 0.89405 0.0
C117 C 0.19462 0.33829 0.89433 0.0
H118 H 0.33184 0.35283 0.89418 0.0
H119 H 0.25613 0.71465 0.85073 0.0
H120 H 0.30663 0.61752 0.81988 0.0
H121 H 0.33707 0.45837 0.82276 0.0
H122 H 0.31672 0.39517 0.8565 0.0
C123 C 0.26741 0.38571 0.89491 0.0
C124 C 0.25978 0.48356 0.89432 0.0
C125 C 0.27446 0.51991 0.87472 0.0
C126 C 0.25775 0.61198 0.87314 0.0
C127 C 0.26931 0.64567 0.85301 0.0
C128 C 0.29793 0.59053 0.83512 0.0
C129 C 0.31498 0.50088 0.83673 0.0
C130 C 0.30316 0.46552 0.85622 0.0
H131 H 0.33243 0.80584 0.89114 0.0
C132 C 0.26261 0.8246 0.88977 0.0
H133 H 0.13244 0.78066 0.88878 0.0
H134 H 0.23676 0.43746 0.93531 0.0
H135 H 0.18875 0.53502 0.96646 0.0
H136 H 0.15843 0.69426 0.96362 0.0
H137 H 0.17569 0.75695 0.92962 0.0
C138 C 0.20219 0.76217 0.88921 0.0
C139 C 0.22762 0.66764 0.89131 0.0
C140 C 0.21633 0.63189 0.91122 0.0
C141 C 0.23305 0.53992 0.91279 0.0
C142 C 0.22302 0.50642 0.93305 0.0
C143 C 0.19604 0.5618 0.9511 0.0
C144 C 0.17894 0.65146 0.9495 0.0
C145 C 0.18895 0.68652 0.92986 0.0
H146 H 0.34899 0.90067 0.36567 0.0
C147 C 0.33052 0.94813 0.37927 0.0
H148 H 0.37203 0.04029 0.40652 0.0
H149 H 0.72374 0.82098 0.36409 0.0
H150 H 0.65469 0.68384 0.3681 0.0
H151 H 0.51301 0.686 0.3841 0.0
H152 H 0.43736 0.82526 0.39486 0.0
C153 C 0.39249 0.9942 0.39287 0.0
C154 C 0.48738 0.99152 0.3886 0.0
C155 C 0.53526 0.90976 0.38493 0.0
C156 C 0.62185 0.90868 0.37829 0.0
C157 C 0.66192 0.82584 0.37129 0.0
C158 C 0.62241 0.74654 0.37321 0.0
C159 C 0.54235 0.74774 0.38204 0.0
C160 C 0.49903 0.82819 0.38788 0.0
H161 H 0.80958 0.89942 0.39666 0.0
C162 C 0.82507 0.94539 0.3854 0.0
H163 H 0.77828 0.03511 0.3629 0.0
H164 H 0.4147 0.16068 0.39339 0.0
H165 H 0.49057 0.29733 0.39392 0.0
H166 H 0.6486 0.29587 0.38876 0.0
H167 H 0.73081 0.15775 0.38239 0.0
C168 C 0.76041 0.99048 0.37423 0.0
C169 C 0.66585 0.98957 0.3786 0.0
C170 C 0.61975 0.07149 0.38356 0.0
C171 C 0.52975 0.07241 0.38778 0.0
C172 C 0.48395 0.15536 0.39103 0.0
C173 C 0.5266 0.23475 0.39126 0.0
C174 C 0.61543 0.23392 0.38827 0.0
C175 C 0.66175 0.15368 0.38448 0.0
H176 H 0.98907 0.06772 0.95254 0.0
C177 C 0.05701 0.07234 0.94908 0.0
H178 H 0.19043 0.08289 0.96285 0.0
H179 H 0.09435 0.24046 0.05841 0.0
H180 H 0.1479 0.37119 0.04552 0.0
H181 H 0.1817 0.36859 1.00681 0.0
H182 H 0.16222 0.23521 0.98075 0.0
C183 C 0.12241 0.07591 0.96592 0.0
C184 C 0.10363 0.07616 0.98934 0.0
C185 C 0.11656 0.15433 1.00442 0.0
C186 C 0.09742 0.15574 0.02675 0.0
C187 C 0.10893 0.23534 0.04134 0.0
C188 C 0.1393 0.311 0.03413 0.0
C189 C 0.15835 0.30953 0.01234 0.0
C190 C 0.14704 0.23242 0.99757 0.0
H191 H 0.17807 0.0631 0.07043 0.0
C192 C 0.10978 0.07186 0.07397 0.0
H193 H 0.97672 0.08747 0.06035 0.0
H194 H 0.0797 0.91259 0.96532 0.0
H195 H 0.02523 0.78243 0.97823 0.0
H196 H 0.98883 0.78621 0.01676 0.0
H197 H 1.00673 0.92043 0.04263 0.0
C198 C 0.04555 0.08018 0.05726 0.0
C199 C 0.06626 0.07868 0.03399 0.0
C200 C 0.05377 1.00039 0.01898 0.0
C201 C 0.07339 0.99872 0.99667 0.0
C202 C 0.06348 0.91849 0.98227 0.0
C203 C 0.03291 0.84299 0.98951 0.0
C204 C 1.01243 0.84511 1.0112 0.0
C205 C 0.02287 0.9226 0.02587 0.0
H206 H 0.09681 0.18273 0.45967 0.0
C207 C 0.09553 0.11483 0.45165 0.0
H208 H 0.0879 0.97973 0.45615 0.0
H209 H 0.22385 0.16355 0.55854 0.0
H210 H 0.36041 0.18975 0.54386 0.0
H211 H 0.37426 0.15724 0.50374 0.0
H212 H 0.25146 0.09874 0.47805 0.0
C213 C 0.09325 0.04764 0.46403 0.0
C214 C 0.08692 0.06457 0.48836 0.0
C215 C 0.15966 0.09818 0.50317 0.0
C216 C 0.15201 0.11585 0.52634 0.0
C217 C 0.22578 0.14918 0.54077 0.0
C218 C 0.30473 0.16432 0.53258 0.0
C219 C 0.31249 0.14611 0.50999 0.0
C220 C 0.24121 0.11307 0.4954 0.0
H221 H 0.06227 0.98066 0.5635 0.0
C222 C 0.06355 0.04864 0.57147 0.0
H223 H 0.07115 0.18362 0.56686 0.0
H224 H 0.93531 0.99942 0.46453 0.0
H225 H 0.79875 0.97318 0.4792 0.0
H226 H 0.78491 1.00567 0.51932 0.0
H227 H 0.90769 0.06419 0.54502 0.0
C228 C 0.06581 0.11564 0.55903 0.0
C229 C 0.07221 0.09846 0.5347 0.0
C230 C 0.99948 0.06479 0.5199 0.0
C231 C 1.00714 0.04713 0.49673 0.0
C232 C 0.93337 1.01378 0.4823 0.0
C233 C 0.85443 0.99862 0.49048 0.0
C234 C 0.84667 1.01682 0.51307 0.0
C235 C 0.91794 0.04987 0.52767 0.0
H236 H 0.02428 0.18587 0.31954 0.0
C237 C 0.04374 0.11947 0.32353 0.0
H238 H 0.08143 0.98948 0.31111 0.0
H239 H 0.91466 0.98943 0.21232 0.0
H240 H 0.82872 0.87975 0.22533 0.0
H241 H 0.84268 0.85776 0.26505 0.0
H242 H 0.94318 0.945 0.29197 0.0
C243 C 0.06238 0.0561 0.30723 0.0
C244 C 0.05265 0.07243 0.28342 0.0
C245 C 0.99213 0.02208 0.26794 0.0
C246 C 0.98259 0.03615 0.24511 0.0
C247 C 0.92347 0.98297 0.22993 0.0
C248 C 0.87383 0.91939 0.23715 0.0
C249 C 0.88175 0.90697 0.2595 0.0
C250 C 0.93998 0.95748 0.27479 0.0
H251 H 0.1552 0.07837 0.20934 0.0
C252 C 0.09056 0.09674 0.20142 0.0
H253 H 0.9576 0.13035 0.2059 0.0
H254 H 0.18533 0.17074 0.30776 0.0
H255 H 0.26508 0.28629 0.29519 0.0
H256 H 0.23565 0.32266 0.25659 0.0
H257 H 0.12813 0.2417 0.2302 0.0
C258 C 0.02295 0.11419 0.21377 0.0
C259 C 0.03238 0.10174 0.23783 0.0
C260 C 0.09144 0.15358 0.25339 0.0
C261 C 0.104 0.13671 0.27603 0.0
C262 C 0.16912 0.18418 0.29072 0.0
C263 C 0.21612 0.25022 0.28367 0.0
C264 C 0.19988 0.27039 0.26191 0.0
C265 C 0.13841 0.22287 0.24688 0.0
H266 H 0.13973 0.98089 0.7038 0.0
C267 C 0.11612 0.04601 0.69965 0.0
H268 H 0.0693 0.17324 0.7116 0.0
H269 H 0.04837 0.91378 0.79283 0.0
H270 H 0.94907 0.82295 0.7664 0.0
H271 H 0.91406 0.85832 0.72783 0.0
H272 H 0.98053 0.9827 0.71531 0.0
C273 C 0.09294 0.10811 0.71574 0.0
C274 C 0.10374 0.09287 0.73965 0.0
C275 C 0.05926 0.02344 0.74705 0.0
C276 C 0.07407 1.00714 0.76972 0.0
C277 C 0.03531 0.93248 0.77617 0.0
C278 C 0.97872 0.87925 0.76111 0.0
C279 C 0.95941 0.89886 0.73937 0.0
C280 C 0.99886 0.97004 0.73234 0.0
H281 H 1.00364 0.06788 0.81363 0.0
C282 C 0.07043 0.05959 0.82166 0.0
H283 H 0.20586 0.04578 0.81748 0.0
H284 H 0.19967 0.23133 0.73113 0.0
H285 H 0.28957 0.32905 0.75818 0.0
H286 H 0.30472 0.30879 0.79801 0.0
H287 H 0.23109 0.19009 0.81098 0.0
C288 C 0.13892 0.05264 0.80943 0.0
C289 C 0.12727 0.06487 0.78534 0.0
C290 C 0.16939 0.13599 0.77808 0.0
C291 C 0.15859 0.14924 0.75519 0.0
C292 C 0.20376 0.2192 0.74836 0.0
C293 C 0.2559 0.27578 0.76371 0.0
C294 C 0.26456 0.2643 0.78612 0.0
C295 C 0.22204 0.19547 0.79332 0.0
loop_
_geom_bond_atom_site_label_1
_geom_bond_atom_site_label_2
_geom_bond_distance
_geom_bond_site_symmetry_2
_ccdc_geom_bond_type
C0 O2 1.247 . S
C0 O4 1.258 1_455 S
C1 O8 1.247 1_455 S
C1 O9 1.258 . S
O2 C0 1.247 . S
O2 Zn3 2.028 . S
Zn3 O2 2.028 . S
Zn3 O7 2.035 . S
Zn3 O9 2.035 1_545 S
Zn3 O10 2.028 . S
O4 C0 1.258 1_655 S
O4 Zn5 2.035 . S
Zn5 O4 2.035 . S
Zn5 O6 2.028 . S
Zn5 O8 2.028 1_545 S
Zn5 O11 2.035 . S
O6 Zn5 2.028 . S
O6 C12 1.247 1_655 S
O7 Zn3 2.035 . S
O7 C12 1.258 . S
O8 C1 1.247 1_655 S
O8 Zn5 2.028 1_565 S
O9 C1 1.258 . S
O9 Zn3 2.035 1_565 S
O10 Zn3 2.028 . S
O10 C13 1.247 . S
O11 Zn5 2.035 . S
O11 C13 1.258 1_655 S
C12 O6 1.247 1_455 S
C12 O7 1.258 . S
C13 O10 1.247 . S
C13 O11 1.258 1_455 S
C14 O16 1.247 1_545 S
C14 O18 1.258 . S
C15 O22 1.247 . S
C15 O23 1.258 1_545 S
O16 C14 1.247 1_565 S
O16 Zn17 2.028 . S
Zn17 O16 2.028 . S
Zn17 O21 2.035 . S
Zn17 O23 2.035 1_455 S
Zn17 O24 2.028 . S
O18 C14 1.258 . S
O18 Zn19 2.035 . S
Zn19 O18 2.035 . S
Zn19 O20 2.028 . S
Zn19 O22 2.028 1_455 S
Zn19 O25 2.035 . S
O20 Zn19 2.028 . S
O20 C26 1.247 . S
O21 Zn17 2.035 . S
O21 C26 1.258 1_565 S
O22 C15 1.247 . S
O22 Zn19 2.028 1_655 S
O23 C15 1.258 1_565 S
O23 Zn17 2.035 1_655 S
O24 Zn17 2.028 . S
O24 C27 1.247 1_565 S
O25 Zn19 2.035 . S
O25 C27 1.258 . S
C26 O20 1.247 . S
C26 O21 1.258 1_545 S
C27 O24 1.247 1_545 S
C27 O25 1.258 . S
C28 O30 1.247 . S
C28 O32 1.258 1_455 S
C29 O36 1.247 1_455 S
C29 O37 1.258 . S
O30 C28 1.247 . S
O30 Zn31 2.028 . S
Zn31 O30 2.028 . S
Zn31 O35 2.035 . S
Zn31 O37 2.035 1_545 S
Zn31 O38 2.028 . S
O32 C28 1.258 1_655 S
O32 Zn33 2.035 . S
Zn33 O32 2.035 . S
Zn33 O34 2.028 . S
Zn33 O36 2.028 1_545 S
Zn33 O39 2.035 . S
O34 Zn33 2.028 . S
O34 C40 1.247 1_655 S
O35 Zn31 2.035 . S
O35 C40 1.258 . S
O36 C29 1.247 1_655 S
O36 Zn33 2.028 1_565 S
O37 C29 1.258 . S
O37 Zn31 2.035 1_565 S
O38 Zn31 2.028 . S
O38 C41 1.247 . S
O39 Zn33 2.035 . S
O39 C41 1.258 1_655 S
C40 O34 1.247 1_455 S
C40 O35 1.258 . S
C41 O38 1.247 . S
C41 O39 1.258 1_455 S
C42 O44 1.247 1_545 S
C42 O46 1.258 . S
C43 O50 1.247 . S
C43 O51 1.258 1_545 S
O44 C42 1.247 1_565 S
O44 Zn45 2.028 . S
Zn45 O44 2.028 . S
Zn45 O49 2.035 . S
Zn45 O51 2.035 1_455 S
Zn45 O52 2.028 . S
O46 C42 1.258 . S
O46 Zn47 2.035 . S
Zn47 O46 2.035 . S
Zn47 O48 2.028 . S
Zn47 O50 2.028 1_455 S
Zn47 O53 2.035 . S
O48 Zn47 2.028 . S
O48 C54 1.247 . S
O49 Zn45 2.035 . S
O49 C54 1.258 1_565 S
O50 C43 1.247 . S
O50 Zn47 2.028 1_655 S
O51 C43 1.258 1_565 S
O51 Zn45 2.035 1_655 S
O52 Zn45 2.028 . S
O52 C55 1.247 1_565 S
O53 Zn47 2.035 . S
O53 C55 1.258 . S
C54 O48 1.247 . S
C54 O49 1.258 1_545 S
C55 O52 1.247 1_545 S
C55 O53 1.258 . S
H56 C57 0.951 . S
C57 H56 0.951 . S
C57 C63 1.265 . S
H58 C63 0.950 1_655 S
H59 C67 0.949 . S
H60 C68 0.950 . S
H61 C69 0.951 . S
H62 C70 0.951 . S
C63 C57 1.265 . S
C63 H58 0.950 1_455 S
C63 C64 1.478 . S
C64 C63 1.478 . S
C64 C65 1.397 . S
C64 C81 1.394 . S
C65 C64 1.397 . S
C65 C66 1.438 . S
C65 C70 1.429 1_455 S
C66 C65 1.438 . S
C66 C67 1.428 . S
C66 C79 1.394 . S
C67 H59 0.949 . S
C67 C66 1.428 . S
C67 C68 1.345 1_455 S
C68 H60 0.950 . S
C68 C67 1.345 1_655 S
C68 C69 1.424 . S
C69 H61 0.951 . S
C69 C68 1.424 . S
C69 C70 1.347 . S
C70 H62 0.951 . S
C70 C65 1.429 1_655 S
C70 C69 1.347 . S
H71 C72 0.951 1_655 S
C72 H71 0.951 1_455 S
C72 C78 1.265 . S
H73 C78 0.950 . S
H74 C82 0.949 . S
H75 C83 0.950 . S
H76 C84 0.951 . S
H77 C85 0.951 . S
C78 C72 1.265 . S
C78 H73 0.950 . S
C78 C79 1.478 . S
C79 C66 1.394 . S
C79 C78 1.478 . S
C79 C80 1.397 . S
C80 C79 1.397 . S
C80 C81 1.438 . S
C80 C85 1.429 . S
C81 C64 1.394 . S
C81 C80 1.438 . S
C81 C82 1.428 . S
C82 H74 0.949 . S
C82 C81 1.428 . S
C82 C83 1.345 . S
C83 H75 0.950 . S
C83 C82 1.345 . S
C83 C84 1.424 . S
C84 H76 0.951 . S
C84 C83 1.424 . S
C84 C85 1.347 . S
C85 H77 0.951 . S
C85 C80 1.429 . S
C85 C84 1.347 . S
H86 C87 0.951 . S
C87 H86 0.951 . S
C87 C93 1.265 . S
H88 C93 0.950 . S
H89 C97 0.949 . S
H90 C98 0.950 . S
H91 C99 0.951 . S
H92 C100 0.951 . S
C93 C87 1.265 . S
C93 H88 0.950 . S
C93 C94 1.478 . S
C94 C93 1.478 . S
C94 C95 1.397 1_545 S
C94 C111 1.394 . S
C95 C94 1.397 1_565 S
C95 C96 1.438 . S
C95 C100 1.429 . S
C96 C95 1.438 . S
C96 C97 1.428 . S
C96 C109 1.394 1_565 S
C97 H89 0.949 . S
C97 C96 1.428 . S
C97 C98 1.345 . S
C98 H90 0.950 . S
C98 C97 1.345 . S
C98 C99 1.424 . S
C99 H91 0.951 . S
C99 C98 1.424 . S
C99 C100 1.347 . S
C100 H92 0.951 . S
C100 C95 1.429 . S
C100 C99 1.347 . S
H101 C102 0.951 . S
C102 H101 0.951 . S
C102 C108 1.265 . S
H103 C108 0.950 . S
H104 C112 0.949 . S
H105 C113 0.950 . S
H106 C114 0.951 . S
H107 C115 0.951 . S
C108 C102 1.265 . S
C108 H103 0.950 . S
C108 C109 1.478 . S
C109 C96 1.394 1_545 S
C109 C108 1.478 . S
C109 C110 1.397 . S
C110 C109 1.397 . S
C110 C111 1.438 . S
C110 C115 1.429 . S
C111 C94 1.394 . S
C111 C110 1.438 . S
C111 C112 1.428 . S
C112 H104 0.949 . S
C112 C111 1.428 . S
C112 C113 1.345 . S
C113 H105 0.950 . S
C113 C112 1.345 . S
C113 C114 1.424 . S
C114 H106 0.951 . S
C114 C113 1.424 . S
C114 C115 1.347 . S
C115 H107 0.951 . S
C115 C110 1.429 . S
C115 C114 1.347 . S
H116 C117 0.951 1_655 S
C117 H116 0.951 1_455 S
C117 C123 1.265 . S
H118 C123 0.950 . S
H119 C127 0.949 . S
H120 C128 0.950 . S
H121 C129 0.951 . S
H122 C130 0.951 . S
C123 C117 1.265 . S
C123 H118 0.950 . S
C123 C124 1.478 . S
C124 C123 1.478 . S
C124 C125 1.397 . S
C124 C141 1.394 . S
C125 C124 1.397 . S
C125 C126 1.438 . S
C125 C130 1.429 . S
C126 C125 1.438 . S
C126 C127 1.428 . S
C126 C139 1.394 . S
C127 H119 0.949 . S
C127 C126 1.428 . S
C127 C128 1.345 . S
C128 H120 0.950 . S
C128 C127 1.345 . S
C128 C129 1.424 . S
C129 H121 0.951 . S
C129 C128 1.424 . S
C129 C130 1.347 . S
C130 H122 0.951 . S
C130 C125 1.429 . S
C130 C129 1.347 . S
H131 C132 0.951 . S
C132 H131 0.951 . S
C132 C138 1.265 . S
H133 C138 0.950 1_655 S
H134 C142 0.949 . S
H135 C143 0.950 . S
H136 C144 0.951 . S
H137 C145 0.951 . S
C138 C132 1.265 . S
C138 H133 0.950 1_455 S
C138 C139 1.478 . S
C139 C126 1.394 . S
C139 C138 1.478 . S
C139 C140 1.397 . S
C140 C139 1.397 . S
C140 C141 1.438 . S
C140 C145 1.429 . S
C141 C124 1.394 . S
C141 C140 1.438 . S
C141 C142 1.428 . S
C142 H134 0.949 . S
C142 C141 1.428 . S
C142 C143 1.345 . S
C143 H135 0.950 . S
C143 C142 1.345 . S
C143 C144 1.424 . S
C144 H136 0.951 . S
C144 C143 1.424 . S
C144 C145 1.347 . S
C145 H137 0.951 . S
C145 C140 1.429 . S
C145 C144 1.347 . S
H146 C147 0.951 . S
C147 H146 0.951 . S
C147 C153 1.265 . S
H148 C153 0.950 . S
H149 C157 0.949 . S
H150 C158 0.950 . S
H151 C159 0.951 . S
H152 C160 0.951 . S
C153 C147 1.265 . S
C153 H148 0.950 . S
C153 C154 1.478 . S
C154 C153 1.478 . S
C154 C155 1.397 1_545 S
C154 C171 1.394 . S
C155 C154 1.397 1_565 S
C155 C156 1.438 . S
C155 C160 1.429 . S
C156 C155 1.438 . S
C156 C157 1.428 . S
C156 C169 1.394 1_565 S
C157 H149 0.949 . S
C157 C156 1.428 . S
C157 C158 1.345 . S
C158 H150 0.950 . S
C158 C157 1.345 . S
C158 C159 1.424 . S
C159 H151 0.951 . S
C159 C158 1.424 . S
C159 C160 1.347 . S
C160 H152 0.951 . S
C160 C155 1.429 . S
C160 C159 1.347 . S
H161 C162 0.951 . S
C162 H161 0.951 . S
C162 C168 1.265 . S
H163 C168 0.950 . S
H164 C172 0.949 . S
H165 C173 0.950 . S
H166 C174 0.951 . S
H167 C175 0.951 . S
C168 C162 1.265 . S
C168 H163 0.950 . S
C168 C169 1.478 . S
C169 C156 1.394 1_545 S
C169 C168 1.478 . S
C169 C170 1.397 . S
C170 C169 1.397 . S
C170 C171 1.438 . S
C170 C175 1.429 . S
C171 C154 1.394 . S
C171 C170 1.438 . S
C171 C172 1.428 . S
C172 H164 0.949 . S
C172 C171 1.428 . S
C172 C173 1.345 . S
C173 H165 0.950 . S
C173 C172 1.345 . S
C173 C174 1.424 . S
C174 H166 0.951 . S
C174 C173 1.424 . S
C174 C175 1.347 . S
C175 H167 0.951 . S
C175 C170 1.429 . S
C175 C174 1.347 . S
H176 C177 0.951 . S
C177 H176 0.951 . S
C177 C183 1.265 . S
H178 C183 0.950 . S
H179 C187 0.949 . S
H180 C188 0.950 . S
H181 C189 0.953 1_556 S
H182 C190 0.951 . S
C183 C177 1.265 . S
C183 H178 0.950 . S
C183 C184 1.478 . S
C184 C183 1.478 . S
C184 C185 1.397 . S
C184 C201 1.392 1_455 S
C185 C184 1.397 . S
C185 C186 1.438 1_556 S
C185 C190 1.429 . S
C186 C185 1.438 1_554 S
C186 C187 1.428 . S
C186 C199 1.394 . S
C187 H179 0.949 . S
C187 C186 1.428 . S
C187 C188 1.345 . S
C188 H180 0.950 . S
C188 C187 1.345 . S
C188 C189 1.424 . S
C189 H181 0.953 1_554 S
C189 C188 1.424 . S
C189 C190 1.347 1_554 S
C190 H182 0.951 . S
C190 C185 1.429 . S
C190 C189 1.347 1_556 S
H191 C192 0.951 . S
C192 H191 0.951 . S
C192 C198 1.265 . S
H193 C198 0.950 1_655 S
H194 C202 0.949 . S
H195 C203 0.950 . S
H196 C204 0.953 1_554 S
H197 C205 0.951 . S
C198 C192 1.265 . S
C198 H193 0.950 1_455 S
C198 C199 1.478 . S
C199 C186 1.394 . S
C199 C198 1.478 . S
C199 C200 1.397 1_455 S
C200 C199 1.397 1_655 S
C200 C201 1.439 1_554 S
C200 C205 1.429 . S
C201 C184 1.392 1_655 S
C201 C200 1.439 1_556 S
C201 C202 1.430 1_545 S
C202 H194 0.949 . S
C202 C201 1.430 1_565 S
C202 C203 1.345 . S
C203 H195 0.950 . S
C203 C202 1.345 . S
C203 C204 1.424 . S
C204 H196 0.953 1_556 S
C204 C203 1.424 . S
C204 C205 1.347 1_566 S
C205 H197 0.951 . S
C205 C200 1.429 . S
C205 C204 1.347 1_544 S
H206 C207 0.951 1_655 S
C207 H206 0.951 1_455 S
C207 C213 1.265 . S
H208 C213 0.950 . S
H209 C217 0.949 . S
H210 C218 0.950 . S
H211 C219 0.951 . S
H212 C220 0.951 . S
C213 C207 1.265 . S
C213 H208 0.950 . S
C213 C214 1.478 . S
C214 C213 1.478 . S
C214 C215 1.397 . S
C214 C231 1.401 . S
C215 C214 1.397 . S
C215 C216 1.438 . S
C215 C220 1.429 . S
C216 C215 1.438 . S
C216 C217 1.428 . S
C216 C229 1.394 . S
C217 H209 0.949 . S
C217 C216 1.428 . S
C217 C218 1.345 . S
C218 H210 0.950 . S
C218 C217 1.345 . S
C218 C219 1.424 . S
C219 H211 0.951 . S
C219 C218 1.424 . S
C219 C220 1.347 . S
C220 H212 0.951 . S
C220 C215 1.429 . S
C220 C219 1.347 . S
H221 C222 0.951 . S
C222 H221 0.951 . S
C222 C228 1.265 . S
H223 C228 0.950 1_655 S
H224 C232 0.949 . S
H225 C233 0.950 . S
H226 C234 0.951 . S
H227 C235 0.951 . S
C228 C222 1.265 . S
C228 H223 0.950 1_455 S
C228 C229 1.478 . S
C229 C216 1.394 . S
C229 C228 1.478 . S
C229 C230 1.397 . S
C230 C229 1.397 . S
C230 C231 1.437 . S
C230 C235 1.429 1_445 S
C231 C214 1.401 . S
C231 C230 1.437 . S
C231 C232 1.421 1_445 S
C232 H224 0.949 . S
C232 C231 1.421 1_665 S
C232 C233 1.345 . S
C233 H225 0.950 . S
C233 C232 1.345 . S
C233 C234 1.424 . S
C234 H226 0.951 . S
C234 C233 1.424 . S
C234 C235 1.347 . S
C235 H227 0.951 . S
C235 C230 1.429 1_665 S
C235 C234 1.347 . S
H236 C237 0.951 1_655 S
C237 H236 0.951 1_455 S
C237 C243 1.265 . S
H238 C243 0.950 . S
H239 C247 0.949 . S
H240 C248 0.950 . S
H241 C249 0.951 . S
H242 C250 0.951 . S
C243 C237 1.265 . S
C243 H238 0.950 . S
C243 C244 1.478 . S
C244 C243 1.478 . S
C244 C245 1.397 1_545 S
C244 C261 1.394 . S
C245 C244 1.397 1_565 S
C245 C246 1.438 . S
C245 C250 1.429 . S
C246 C245 1.438 . S
C246 C247 1.428 . S
C246 C259 1.394 1_565 S
C247 H239 0.949 . S
C247 C246 1.428 . S
C247 C248 1.345 . S
C248 H240 0.950 . S
C248 C247 1.345 . S
C248 C249 1.424 . S
C249 H241 0.951 . S
C249 C248 1.424 . S
C249 C250 1.347 . S
C250 H242 0.951 . S
C250 C245 1.429 . S
C250 C249 1.347 . S
H251 C252 0.951 . S
C252 H251 0.951 . S
C252 C258 1.265 . S
H253 C258 0.950 1_655 S
H254 C262 0.949 . S
H255 C263 0.950 . S
H256 C264 0.951 . S
H257 C265 0.951 . S
C258 C252 1.265 . S
C258 H253 0.950 1_455 S
C258 C259 1.478 . S
C259 C246 1.394 1_545 S
C259 C258 1.478 . S
C259 C260 1.397 . S
C260 C259 1.397 . S
C260 C261 1.438 . S
C260 C265 1.429 1_455 S
C261 C244 1.394 . S
C261 C260 1.438 . S
C261 C262 1.428 . S
C262 H254 0.949 . S
C262 C261 1.428 . S
C262 C263 1.345 1_455 S
C263 H255 0.950 . S
C263 C262 1.345 1_655 S
C263 C264 1.424 . S
C264 H256 0.951 . S
C264 C263 1.424 . S
C264 C265 1.347 . S
C265 H257 0.951 . S
C265 C260 1.429 1_655 S
C265 C264 1.347 . S
H266 C267 0.951 . S
C267 H266 0.951 . S
C267 C273 1.265 . S
H268 C273 0.950 1_655 S
H269 C277 0.949 . S
H270 C278 0.950 . S
H271 C279 0.951 . S
H272 C280 0.951 . S
C273 C267 1.265 . S
C273 H268 0.950 1_455 S
C273 C274 1.478 . S
C274 C273 1.478 . S
C274 C275 1.397 1_545 S
C274 C291 1.394 . S
C275 C274 1.397 1_565 S
C275 C276 1.438 . S
C275 C280 1.429 1_455 S
C276 C275 1.438 . S
C276 C277 1.428 . S
C276 C289 1.394 1_565 S
C277 H269 0.949 . S
C277 C276 1.428 . S
C277 C278 1.345 1_455 S
C278 H270 0.950 . S
C278 C277 1.345 1_655 S
C278 C279 1.424 . S
C279 H271 0.951 . S
C279 C278 1.424 . S
C279 C280 1.347 . S
C280 H272 0.951 . S
C280 C275 1.429 1_655 S
C280 C279 1.347 . S
H281 C282 0.951 1_655 S
C282 H281 0.951 1_455 S
C282 C288 1.265 . S
H283 C288 0.950 . S
H284 C292 0.949 . S
H285 C293 0.950 . S
H286 C294 0.951 . S
H287 C295 0.951 . S
C288 C282 1.265 . S
C288 H283 0.950 . S
C288 C289 1.478 . S
C289 C276 1.394 1_545 S
C289 C288 1.478 . S
C289 C290 1.397 . S
C290 C289 1.397 . S
C290 C291 1.438 . S
C290 C295 1.429 . S
C291 C274 1.394 . S
C291 C290 1.438 . S
C291 C292 1.428 . S
C292 H284 0.949 . S
C292 C291 1.428 . S
C292 C293 1.345 . S
C293 H285 0.950 . S
C293 C292 1.345 . S
C293 C294 1.424 . S
C294 H286 0.951 . S
C294 C293 1.424 . S
C294 C295 1.347 . S
C295 H287 0.951 . S
C295 C290 1.429 . S
C295 C294 1.347 . S
C57 C0 1.486 . S
C72 C1 1.486 . S
C87 C14 1.496 . S
C102 C15 1.496 . S
C117 C28 1.486 . S
C132 C29 1.486 . S
C147 C42 1.496 . S
C162 C43 1.496 . S
C177 C40 1.483 . S
C192 C13 1.483 . S
C207 C54 1.496 . S
C222 C27 1.496 . S
C237 C55 1.480 . S
C252 C12 1.489 . S
C267 C26 1.480 . S
C282 C41 1.489 . S
