# Generated by pormake.
# Topology hcp, (12)-cn, num edge types: 1
# Building blocks:
#     Node 0, Type 0, BuildingBlock: UKIBUN_clean_sbu_0, # of connection points: 12
#     Node 1, Type 0, BuildingBlock: UKIBUN_clean_sbu_0, # of connection points: 12
#     Edge 2, Type (0, 0), BuildingBlock: FUNLAD_clean_linker_1, # of connection points: 2
#     Edge 3, Type (0, 0), BuildingBlock: FUNLAD_clean_linker_1, # of connection points: 2
#     Edge 4, Type (0, 0), BuildingBlock: FUNLAD_clean_linker_1, # of connection points: 2
#     Edge 5, Type (0, 0), BuildingBlock: FUNLAD_clean_linker_1, # of connection points: 2
#     Edge 6, Type (0, 0), BuildingBlock: FUNLAD_clean_linker_1, # of connection points: 2
#     Edge 7, Type (0, 0), BuildingBlock: FUNLAD_clean_linker_1, # of connection points: 2
#     Edge 8, Type (0, 0), BuildingBlock: FUNLAD_clean_linker_1, # of connection points: 2
#     Edge 9, Type (0, 0), BuildingBlock: FUNLAD_clean_linker_1, # of connection points: 2
#     Edge 10, Type (0, 0), BuildingBlock: FUNLAD_clean_linker_1, # of connection points: 2
#     Edge 11, Type (0, 0), BuildingBlock: FUNLAD_clean_linker_1, # of connection points: 2
#     Edge 12, Type (0, 0), BuildingBlock: FUNLAD_clean_linker_1, # of connection points: 2
#     Edge 13, Type (0, 0), BuildingBlock: FUNLAD_clean_linker_1, # of connection points: 2
# Relax obj value: 0.181
# Max RMSD: 0.266
# Mean RMSD: 0.266
data_MOF--net-hcp--node1-UKIBUN_clean_sbu_0--edge1-FUNLAD_clean_linker_1
_symmetry_space_group_name_H-M    P1
_symmetry_Int_Tables_number       1
_symmetry_cell_setting            triclinic
loop_
_symmetry_equiv_pos_as_xyz
'x, y, z'
_cell_length_a     18.812625
_cell_length_b     18.57054
_cell_length_c     30.343526
_cell_angle_alpha  90.160449
_cell_angle_beta   89.970055
_cell_angle_gamma 119.68471
loop_
_atom_site_label
_atom_site_type_symbol
_atom_site_fract_x
_atom_site_fract_y
_atom_site_fract_z
_atom_type_partial_charge
C0 C 0.91122 0.52884 0.27507 0.0
C1 C 0.85473 0.26516 0.26281 0.0
O2 O 0.73463 0.43555 0.29033 0.0
O3 O 0.65718 0.33001 0.20179 0.0
O4 O 0.62579 0.40801 0.24761 0.0
O5 O 0.76511 0.35827 0.24632 0.0
Hf6 Hf 0.74028 0.4469 0.22299 0.0
O7 O 0.65579 0.32384 0.33246 0.0
Hf8 Hf 0.77167 0.35587 0.31376 0.0
O9 O 0.54725 0.29519 0.28921 0.0
Hf10 Hf 0.62383 0.4103 0.31508 0.0
O11 O 0.68712 0.24465 0.28751 0.0
Hf12 Hf 0.54082 0.29638 0.22166 0.0
Hf13 Hf 0.68971 0.24403 0.21978 0.0
O14 O 0.57904 0.21816 0.24507 0.0
Hf15 Hf 0.57283 0.20697 0.31234 0.0
C16 C 0.5451 0.17542 0.14712 0.0
C17 C 0.76462 0.47263 0.38972 0.0
C18 C 0.45464 0.38226 0.27398 0.0
C19 C 0.71527 0.5891 0.26999 0.0
O20 O 0.74372 0.56652 0.23714 0.0
O21 O 0.8162 0.43957 0.16856 0.0
C22 C 0.81746 0.37654 0.15103 0.0
O23 O 0.56685 0.08659 0.29672 0.0
O24 O 0.42221 0.1826 0.23299 0.0
O25 O 0.5514 0.38403 0.16884 0.0
O26 O 0.51486 0.22094 0.37402 0.0
O27 O 0.75811 0.27359 0.3708 0.0
O28 O 0.89034 0.46963 0.30303 0.0
O29 O 0.79906 0.23182 0.23285 0.0
O30 O 0.61072 0.17862 0.16233 0.0
C31 C 0.51306 0.28451 0.39053 0.0
O32 O 0.51118 0.41763 0.30339 0.0
O33 O 0.70344 0.47633 0.37277 0.0
C34 C 0.59488 0.06407 0.26364 0.0
O35 O 0.62279 0.17439 0.369 0.0
O36 O 0.68902 0.4763 0.16478 0.0
O37 O 0.86624 0.53129 0.24378 0.0
O38 O 0.44426 0.12621 0.29518 0.0
O39 O 0.63789 0.11087 0.23178 0.0
O40 O 0.54703 0.35715 0.37328 0.0
C41 C 0.4001 0.12622 0.26282 0.0
O42 O 0.6732 0.54275 0.30216 0.0
O43 O 0.79688 0.43129 0.37356 0.0
O44 O 0.77316 0.30067 0.1634 0.0
O45 O 0.45542 0.33794 0.24155 0.0
O46 O 0.51104 0.21544 0.16302 0.0
O47 O 0.85491 0.31052 0.29499 0.0
C48 C 0.69475 0.20811 0.38604 0.0
C49 C 0.61444 0.44748 0.15203 0.0
C50 C 0.46483 0.69946 0.88929 0.0
C51 C 0.2794 0.78054 0.88458 0.0
O52 O 0.42821 0.68967 0.78879 0.0
O53 O 0.23864 0.54885 0.79056 0.0
O54 O 0.34731 0.57826 0.74713 0.0
O55 O 0.31892 0.6613 0.83205 0.0
Hf56 Hf 0.35066 0.57509 0.8145 0.0
O57 O 0.39525 0.76729 0.74546 0.0
Hf58 Hf 0.40311 0.77762 0.81276 0.0
O59 O 0.31622 0.6562 0.70199 0.0
Hf60 Hf 0.43299 0.6891 0.72115 0.0
O61 O 0.28798 0.74047 0.78859 0.0
Hf62 Hf 0.23258 0.53964 0.72297 0.0
Hf63 Hf 0.20239 0.62915 0.8143 0.0
O64 O 0.20829 0.62793 0.74697 0.0
Hf65 Hf 0.28394 0.74209 0.72096 0.0
C66 C 0.06055 0.45713 0.77408 0.0
C67 C 0.57715 0.85642 0.76428 0.0
C68 C 0.35795 0.53618 0.65219 0.0
C69 C 0.51486 0.59499 0.76983 0.0
O70 O 0.45982 0.56263 0.80019 0.0
O71 O 0.28422 0.5278 0.87831 0.0
C72 C 0.22202 0.53013 0.89496 0.0
O73 O 0.17042 0.74797 0.73263 0.0
O74 O 0.16301 0.54991 0.66658 0.0
O75 O 0.22392 0.41902 0.73733 0.0
O76 O 0.36378 0.81019 0.66444 0.0
O77 O 0.41514 0.89936 0.79731 0.0
O78 O 0.45889 0.7618 0.87469 0.0
O79 O 0.21574 0.71513 0.86943 0.0
O80 O 0.08494 0.51246 0.80485 0.0
C81 C 0.42904 0.81325 0.64869 0.0
O82 O 0.42096 0.60151 0.66776 0.0
O83 O 0.55259 0.80196 0.73308 0.0
C84 C 0.11364 0.7123 0.76184 0.0
O85 O 0.3319 0.87323 0.73717 0.0
O86 O 0.29643 0.44199 0.80152 0.0
O87 O 0.43465 0.62851 0.87015 0.0
O88 O 0.20039 0.68757 0.66411 0.0
O89 O 0.11529 0.6691 0.79453 0.0
O90 O 0.46239 0.77177 0.66343 0.0
C91 C 0.1595 0.61214 0.65009 0.0
O92 O 0.51583 0.64234 0.73863 0.0
O93 O 0.53338 0.85612 0.79704 0.0
O94 O 0.182 0.56109 0.87623 0.0
O95 O 0.28379 0.50659 0.66586 0.0
O96 O 0.10384 0.4578 0.74097 0.0
O97 O 0.35206 0.81204 0.86857 0.0
C98 C 0.38119 0.92102 0.76722 0.0
C99 C 0.25311 0.39597 0.76927 0.0
H100 H 0.21305 0.79319 0.94245 0.0
C101 C 0.27061 0.82181 0.92457 0.0
H102 H 0.39206 0.92196 0.92154 0.0
H103 H 0.40108 0.18851 0.0432 0.0
H104 H 0.37036 0.23502 0.97481 0.0
H105 H 0.32307 0.14388 0.90934 0.0
H106 H 0.3058 0.00522 0.91202 0.0
C107 C 0.3353 0.89184 0.94013 0.0
C108 C 0.33653 0.93351 0.98229 0.0
C109 C 0.34419 0.0133 0.98078 0.0
C110 C 0.3709 0.06554 1.01865 0.0
C111 C 0.38036 0.14593 1.01559 0.0
C112 C 0.36302 0.17347 0.9765 0.0
C113 C 0.33645 0.12219 0.93962 0.0
C114 C 0.32719 0.04303 0.94151 0.0
H115 H 0.53899 0.09324 0.09276 0.0
C116 C 0.50556 0.11956 0.10909 0.0
H117 H 0.39452 0.12238 0.11133 0.0
H118 H 0.3183 0.78 0.9981 0.0
H119 H 0.33853 0.72928 0.06782 0.0
H120 H 0.38046 0.81813 0.13415 0.0
H121 H 0.4032 0.9585 0.13096 0.0
C122 C 0.42893 0.0966 0.09563 0.0
C123 C 0.39029 0.03784 0.05799 0.0
C124 C 0.37499 0.95499 0.06072 0.0
C125 C 0.34864 0.90296 0.02272 0.0
C126 C 0.33714 0.8218 0.02597 0.0
C127 C 0.34857 0.79186 0.06584 0.0
C128 C 0.37236 0.84193 0.10316 0.0
C129 C 0.38581 0.92264 0.10079 0.0
H130 H 0.31919 0.45608 0.59319 0.0
C131 C 0.37011 0.49077 0.6156 0.0
H132 H 0.48989 0.52018 0.63336 0.0
H133 H 0.34126 0.20274 0.48736 0.0
H134 H 0.24315 0.12224 0.54431 0.0
H135 H 0.24167 0.18645 0.61539 0.0
H136 H 0.3366 0.33205 0.6295 0.0
C137 C 0.43922 0.4869 0.61061 0.0
C138 C 0.45054 0.44274 0.57228 0.0
C139 C 0.39693 0.35659 0.56525 0.0
C140 C 0.40015 0.3185 0.52497 0.0
C141 C 0.34272 0.23395 0.51776 0.0
C142 C 0.28612 0.18715 0.55016 0.0
C143 C 0.2851 0.22336 0.59014 0.0
C144 C 0.33954 0.3071 0.59772 0.0
H145 H 0.48512 0.24088 0.45982 0.0
C146 C 0.47819 0.27916 0.43511 0.0
H147 H 0.44848 0.37195 0.42124 0.0
H148 H 0.5701 0.60615 0.57767 0.0
H149 H 0.67723 0.68217 0.5244 0.0
H150 H 0.68812 0.614 0.4569 0.0
H151 H 0.59127 0.46951 0.44213 0.0
C152 C 0.45448 0.33435 0.44682 0.0
C153 C 0.45934 0.36578 0.49269 0.0
C154 C 0.51873 0.44945 0.50202 0.0
C155 C 0.5138 0.48821 0.54152 0.0
C156 C 0.57153 0.573 0.54864 0.0
C157 C 0.63345 0.61758 0.51827 0.0
C158 C 0.63949 0.57926 0.48024 0.0
C159 C 0.58312 0.49632 0.47205 0.0
H160 H 0.85948 0.33465 0.09394 0.0
C161 C 0.87214 0.38923 0.11323 0.0
H162 H 0.95509 0.51711 0.12248 0.0
H163 H 0.22292 0.46074 1.01961 0.0
H164 H 0.28179 0.49548 0.09281 0.0
H165 H 0.20841 0.51876 0.1537 0.0
H166 H 0.07431 0.50446 0.14184 0.0
C167 C 0.93771 0.46218 0.10252 0.0
C168 C -0.00996 0.46703 0.06418 0.0
C169 C 0.06927 0.47787 0.07123 0.0
C170 C 0.11369 0.46891 0.03548 0.0
C171 C 0.18922 0.47263 0.04461 0.0
C172 C 0.22328 0.4916 0.0867 0.0
C173 C 0.18187 0.50451 0.121 0.0
C174 C 0.10497 0.49606 0.11376 0.0
H175 H 0.23643 0.55918 0.96482 0.0
C176 C 0.20144 0.50922 0.94166 0.0
H177 H 0.0921 0.40065 0.92848 0.0
H178 H 0.84625 0.45703 0.03841 0.0
H179 H 0.79432 0.44027 0.96388 0.0
H180 H 0.87406 0.43364 0.90106 0.0
H181 H 0.00503 0.44277 0.91225 0.0
C182 C 0.12686 0.44782 0.95308 0.0
C183 C 0.08125 0.4551 0.99195 0.0
C184 C 0.00449 0.45099 0.98457 0.0
C185 C 0.95871 0.45596 0.02071 0.0
C186 C 0.88271 0.45191 1.01231 0.0
C187 C 0.85244 0.44308 0.96962 0.0
C188 C 0.8973 0.43931 0.93428 0.0
C189 C 0.9725 0.44378 0.94138 0.0
H190 H 0.43605 0.89848 0.59608 0.0
C191 C 0.46895 0.87073 0.61142 0.0
H192 H 0.57893 0.86577 0.612 0.0
H193 H 0.6609 0.98638 0.41302 0.0
H194 H 0.63942 0.8463 0.40793 0.0
H195 H 0.59327 0.75386 0.47263 0.0
H196 H 0.56783 0.80053 0.54262 0.0
C197 C 0.5451 0.89308 0.59737 0.0
C198 C 0.58358 0.95261 0.56017 0.0
C199 C 0.60006 0.92489 0.51985 0.0
C200 C 0.62622 0.97796 0.48246 0.0
C201 C 0.64013 0.94808 0.44223 0.0
C202 C 0.62839 0.86806 0.43895 0.0
C203 C 0.60247 0.81605 0.47538 0.0
C204 C 0.58817 0.84369 0.5154 0.0
H205 H 0.76135 0.19554 0.44388 0.0
C206 C 0.70282 0.16877 0.42698 0.0
H207 H 0.57861 0.07383 0.42656 0.0
H208 H 0.57698 0.03187 0.635 0.0
H209 H 0.60058 0.17259 0.64014 0.0
H210 H 0.63944 0.26219 0.57443 0.0
H211 H 0.65664 0.2122 0.50336 0.0
C212 C 0.63676 0.10166 0.44392 0.0
C213 C 0.63605 0.05859 0.48534 0.0
C214 C 0.62615 0.08872 0.52656 0.0
C215 C 0.60103 0.03605 0.56418 0.0
C216 C 0.59318 0.06827 0.60512 0.0
C217 C 0.60706 0.14908 0.60858 0.0
C218 C 0.62912 0.19958 0.57159 0.0
C219 C 0.63863 0.17009 0.53097 0.0
H220 H 0.65201 0.52352 0.09184 0.0
C221 C 0.60194 0.49148 0.11502 0.0
H222 H 0.48436 0.46731 0.1341 0.0
H223 H 0.63932 0.7772 0.98421 0.0
H224 H 0.74187 0.85717 0.03962 0.0
H225 H 0.74266 0.79519 0.11135 0.0
H226 H 0.64222 0.65227 0.12768 0.0
C227 C 0.53411 0.49788 0.11062 0.0
C228 C 0.52329 0.54189 0.07219 0.0
C229 C 0.57991 0.62684 0.06397 0.0
C230 C 0.57725 0.66386 0.02334 0.0
C231 C 0.63748 0.74692 1.01492 0.0
C232 C 0.69663 0.79341 0.04643 0.0
C233 C 0.69725 0.75844 0.08677 0.0
C234 C 0.63972 0.67618 0.09561 0.0
H235 H 0.4935 0.74298 0.95871 0.0
C236 C 0.49883 0.70351 0.93399 0.0
H237 H 0.52465 0.60759 0.92048 0.0
H238 H 0.39709 0.38206 0.08049 0.0
H239 H 0.28716 0.30693 0.02835 0.0
H240 H 0.27922 0.37289 0.95947 0.0
H241 H 0.38132 0.51445 0.94247 0.0
C242 C 0.52031 0.64678 0.94583 0.0
C243 C 0.51585 0.61691 0.99189 0.0
C244 C 0.45405 0.53487 1.00231 0.0
C245 C 0.45792 0.49722 0.04233 0.0
C246 C 0.39693 0.4142 0.05086 0.0
C247 C 0.33336 0.37015 0.02116 0.0
C248 C 0.32902 0.40718 0.98234 0.0
C249 C 0.38828 0.48847 0.97291 0.0
H250 H 0.80212 0.57806 0.43646 0.0
C251 C 0.80435 0.5217 0.42987 0.0
H252 H 0.85022 0.44328 0.44855 0.0
H253 H 0.18108 0.67235 0.53252 0.0
H254 H 0.22381 0.65522 0.45951 0.0
H255 H 0.12347 0.59344 0.39905 0.0
H256 H 0.98 0.54855 0.4112 0.0
C257 C 0.84871 0.49989 0.45583 0.0
C258 C 0.90963 0.55551 0.48894 0.0
C259 C -0.00657 0.58211 0.48123 0.0
C260 C 0.05121 0.61745 0.51602 0.0
C261 C 0.13445 0.6435 0.50739 0.0
C262 C 0.15985 0.63454 0.46559 0.0
C263 C 0.10337 0.5997 0.43156 0.0
C264 C 0.02111 0.57372 0.43907 0.0
H265 H 0.07959 0.53421 0.59617 0.0
C266 C 0.10424 0.59454 0.61197 0.0
H267 H 0.10222 0.70763 0.61332 0.0
H268 H 0.75558 0.5202 0.51359 0.0
H269 H 0.71707 0.55456 0.58365 0.0
H270 H 0.81993 0.62578 0.64196 0.0
H271 H 0.96051 0.65694 0.63218 0.0
C272 C 0.08174 0.64853 0.59687 0.0
C273 C 0.02516 0.62651 0.55846 0.0
C274 C 0.94365 0.60988 0.5646 0.0
C275 C 0.88514 0.57253 0.53004 0.0
C276 C 0.80291 0.55107 0.5381 0.0
C277 C 0.77999 0.57025 0.57819 0.0
C278 C 0.83778 0.60974 0.61122 0.0
C279 C 0.91835 0.6278 0.60508 0.0
H280 H 0.56642 0.94901 0.22954 0.0
C281 C 0.58144 0.97927 0.26164 0.0
H282 H 0.63434 0.98486 0.32352 0.0
H283 H 0.53863 0.61206 0.23878 0.0
H284 H 0.39716 0.575 0.25026 0.0
H285 H 0.36118 0.67871 0.27657 0.0
H286 H 0.46685 0.82033 0.29169 0.0
C287 C 0.61055 0.95015 0.29304 0.0
C288 C 0.6317 0.88491 0.28148 0.0
C289 C 0.56939 0.80245 0.27277 0.0
C290 C 0.59033 0.74264 0.25776 0.0
C291 C 0.52662 0.6604 0.2499 0.0
C292 C 0.44496 0.63811 0.25646 0.0
C293 C 0.4247 0.69651 0.27124 0.0
C294 C 0.48591 0.7777 0.27951 0.0
H295 H 0.74401 0.70506 0.30308 0.0
C296 C 0.72724 0.67333 0.27141 0.0
H297 H 0.66963 0.66365 0.21059 0.0
H298 H 0.76678 0.03779 0.29516 0.0
H299 H 0.90831 0.07496 0.28357 0.0
H300 H 0.94422 0.97181 0.25632 0.0
H301 H 0.83859 0.83044 0.24079 0.0
C302 C 0.69504 0.70003 0.24043 0.0
C303 C 0.67376 0.76525 0.25186 0.0
C304 C 0.73605 0.84782 0.26042 0.0
C305 C 0.71511 0.90751 0.27563 0.0
C306 C 0.77882 0.98964 0.28373 0.0
C307 C 0.86048 0.01201 0.27708 0.0
C308 C 0.88072 0.95389 0.26182 0.0
C309 C 0.81951 0.8728 0.25335 0.0
H310 H 0.03593 0.75863 0.73246 0.0
C311 C 0.03721 0.71456 0.7555 0.0
H312 H 0.96721 0.60933 0.79555 0.0
H313 H 0.70621 0.74515 0.79444 0.0
H314 H 0.8043 0.8559 0.8412 0.0
H315 H 0.94211 0.87466 0.85337 0.0
H316 H 0.98207 0.7817 0.81946 0.0
C317 C 0.96771 0.65719 0.77479 0.0
C318 C 0.88749 0.64994 0.76526 0.0
C319 C 0.8655 0.70495 0.78542 0.0
C320 C 0.78599 0.6937 0.77869 0.0
C321 C 0.76549 0.74998 0.79884 0.0
C322 C 0.82136 0.81418 0.82562 0.0
C323 C 0.89887 0.82461 0.83256 0.0
C324 C 0.92106 0.77085 0.8128 0.0
H325 H 0.594 0.55422 0.80251 0.0
C326 C 0.58678 0.58364 0.77324 0.0
H327 H 0.64181 0.64769 0.71405 0.0
H328 H 0.91173 0.5348 0.72113 0.0
H329 H 0.81289 0.42292 0.67491 0.0
H330 H 0.67411 0.4025 0.66408 0.0
H331 H 0.63362 0.49458 0.69912 0.0
C332 C 0.64767 0.61808 0.74358 0.0
C333 C 0.72881 0.6269 0.75227 0.0
C334 C 0.7509 0.57215 0.73201 0.0
C335 C 0.83052 0.58359 0.73856 0.0
C336 C 0.85164 0.52845 0.71762 0.0
C337 C 0.79556 0.46408 0.69095 0.0
C338 C 0.71742 0.45263 0.6848 0.0
C339 C 0.69497 0.50582 0.70505 0.0
H340 H 0.27035 0.05532 0.24203 0.0
C341 C 0.32015 0.05177 0.2581 0.0
H342 H 0.36165 0.97531 0.28662 0.0
H343 H 0.02044 0.69717 0.35204 0.0
H344 H 0.08648 0.76034 0.42116 0.0
H345 H 0.22035 0.88876 0.42223 0.0
H346 H 0.2881 0.95544 0.35416 0.0
C347 C 0.311 0.97887 0.27157 0.0
C348 C 0.23171 0.90183 0.27014 0.0
C349 C 0.19422 0.86302 0.3104 0.0
C350 C 0.11819 0.78835 0.30981 0.0
C351 C 0.07967 0.75263 0.35044 0.0
C352 C 0.11664 0.78855 0.39045 0.0
C353 C 0.19191 0.86092 0.39106 0.0
C354 C 0.23029 0.89833 0.35166 0.0
H355 H 0.04063 0.59825 0.29642 0.0
C356 C -0.00875 0.60284 0.28052 0.0
H357 H 0.95163 0.68108 0.2523 0.0
H358 H 0.29181 0.95774 0.18684 0.0
H359 H 0.22463 0.895 0.1178 0.0
H360 H 0.09316 0.76423 0.11684 0.0
H361 H 0.02655 0.69677 0.18496 0.0
C362 C 0.00156 0.67631 0.26742 0.0
C363 C 0.08161 0.75227 0.26888 0.0
C364 C 0.11945 0.79056 0.22862 0.0
C365 C 0.19512 0.86561 0.22919 0.0
C366 C 0.23302 0.90175 0.18852 0.0
C367 C 0.19572 0.86585 0.14854 0.0
C368 C 0.12149 0.79236 0.14799 0.0
C369 C 0.08374 0.75456 0.18741 0.0
H370 H 0.2104 0.27376 0.73828 0.0
C371 C 0.24527 0.31367 0.76562 0.0
H372 H 0.3298 0.33401 0.81702 0.0
H373 H 0.23665 0.95199 0.80019 0.0
H374 H 0.13627 0.93283 0.85574 0.0
H375 H 0.11256 0.04777 0.87662 0.0
H376 H 0.18917 0.18256 0.84171 0.0
C377 C 0.2923 0.29414 0.79035 0.0
C378 C 0.30573 0.22545 0.77764 0.0
C379 C 0.26173 0.14823 0.79908 0.0
C380 C 0.27637 0.08282 0.78752 0.0
C381 C 0.22959 0.00483 0.80834 0.0
C382 C 0.17132 0.99276 0.84017 0.0
C383 C 0.15792 0.05742 0.8519 0.0
C384 C 0.20237 0.13443 0.83167 0.0
H385 H 0.42261 0.042 0.79932 0.0
C386 C 0.39144 0.00437 0.7706 0.0
H387 H 0.3192 0.99164 0.71426 0.0
H388 H 0.40057 0.36769 0.73027 0.0
H389 H 0.49816 0.38561 0.67315 0.0
H390 H 0.52422 0.27173 0.65343 0.0
H391 H 0.45175 0.13868 0.69051 0.0
C392 C 0.35094 0.02798 0.74319 0.0
C393 C 0.33626 0.0962 0.7552 0.0
C394 C 0.37944 0.17308 0.73332 0.0
C395 C 0.3644 0.23833 0.74469 0.0
C396 C 0.40893 0.3154 0.72272 0.0
C397 C 0.46559 0.32677 0.69001 0.0
C398 C 0.48009 0.26259 0.67883 0.0
C399 C 0.43795 0.18654 0.70026 0.0
H400 H 0.38037 0.43805 0.29655 0.0
C401 C 0.3792 0.38618 0.27921 0.0
H402 H 0.30735 0.26967 0.2483 0.0
H403 H 0.02333 0.31136 0.35494 0.0
H404 H 0.09288 0.31118 0.42208 0.0
H405 H 0.22455 0.31237 0.41923 0.0
H406 H 0.28758 0.31475 0.34934 0.0
C407 C 0.30837 0.32244 0.26459 0.0
C408 C 0.22973 0.32155 0.26704 0.0
C409 C 0.19353 0.31883 0.3084 0.0
C410 C 0.11707 0.31641 0.30998 0.0
C411 C 0.0818 0.31389 0.35169 0.0
C412 C 0.12082 0.31326 0.39056 0.0
C413 C 0.19494 0.31404 0.38896 0.0
C414 C 0.23088 0.31621 0.34849 0.0
H415 H 0.9238 0.20328 0.24134 0.0
C416 C 0.92772 0.25659 0.25848 0.0
H417 H 0.00381 0.3722 0.28914 0.0
H418 H 0.28157 0.32147 0.18235 0.0
H419 H 0.20872 0.31406 0.1152 0.0
H420 H 0.07585 0.31021 0.11791 0.0
H421 H 0.01626 0.31561 0.18753 0.0
C422 C 1e-05 0.31812 0.27287 0.0
C423 C 0.07653 0.31465 0.27027 0.0
C424 C 0.11167 0.31495 0.22886 0.0
C425 C 0.18834 0.31776 0.22731 0.0
C426 C 0.22273 0.3181 0.18562 0.0
C427 C 0.18174 0.31419 0.14672 0.0
C428 C 0.10694 0.31194 0.14825 0.0
C429 C 0.07292 0.31417 0.18864 0.0
H430 H 0.94598 0.37527 0.80977 0.0
C431 C 0.97933 0.38305 0.77925 0.0
H432 H 0.98498 0.32718 0.71946 0.0
H433 H 0.80933 0.96619 0.79432 0.0
H434 H 0.95066 -0.00346 0.7932 0.0
H435 H 0.06267 0.13757 0.7769 0.0
H436 H 0.03427 0.24896 0.76181 0.0
C437 C 0.95096 0.32123 0.74948 0.0
C438 C 0.88301 0.23757 0.76007 0.0
C439 C 0.90095 0.17304 0.7683 0.0
C440 C 0.83657 0.09182 0.77759 0.0
C441 C 0.85603 0.02881 0.78667 0.0
C442 C 0.93686 0.04544 0.78624 0.0
C443 C -6e-05 0.12484 0.77706 0.0
C444 C 0.98265 0.18818 0.76828 0.0
H445 H 0.69338 0.93677 0.72968 0.0
C446 C 0.65917 0.92958 0.7598 0.0
H447 H 0.6517 0.98683 0.81864 0.0
H448 H 0.82841 0.34725 0.74463 0.0
H449 H 0.6868 0.31639 0.74531 0.0
H450 H 0.57477 0.17488 0.7601 0.0
H451 H 0.60322 0.06354 0.77515 0.0
C452 C 0.68675 0.99203 0.78916 0.0
C453 C 0.75469 0.07556 0.7783 0.0
C454 C 0.73669 0.13994 0.76973 0.0
C455 C 0.80111 0.2213 0.76072 0.0
C456 C 0.78165 0.28438 0.75185 0.0
C457 C 0.70072 0.2675 0.75193 0.0
C458 C 0.63757 0.18781 0.76039 0.0
C459 C 0.6549 0.12452 0.76916 0.0
loop_
_geom_bond_atom_site_label_1
_geom_bond_atom_site_label_2
_geom_bond_distance
_geom_bond_site_symmetry_2
_ccdc_geom_bond_type
C0 O28 1.281 . S
C0 O37 1.281 . S
C1 O29 1.281 . S
C1 O47 1.281 . S
O2 Hf6 2.202 . S
O2 Hf8 2.202 . S
O2 Hf10 2.202 . S
O3 Hf6 2.202 . S
O3 Hf12 2.202 . S
O3 Hf13 2.202 . S
O4 Hf6 2.072 . S
O4 Hf10 2.072 . S
O4 Hf12 2.072 . S
O5 Hf6 2.072 . S
O5 Hf8 2.072 . S
O5 Hf13 2.072 . S
Hf6 O2 2.202 . S
Hf6 O3 2.202 . S
Hf6 O4 2.072 . S
Hf6 O5 2.072 . S
Hf6 O20 2.209 . S
Hf6 O21 2.209 . S
Hf6 O36 2.209 . S
Hf6 O37 2.209 . S
O7 Hf8 2.072 . S
O7 Hf10 2.072 . S
O7 Hf15 2.072 . S
Hf8 O2 2.202 . S
Hf8 O5 2.072 . S
Hf8 O7 2.072 . S
Hf8 O11 2.202 . S
Hf8 O27 2.209 . S
Hf8 O28 2.209 . S
Hf8 O43 2.209 . S
Hf8 O47 2.209 . S
O9 Hf10 2.202 . S
O9 Hf12 2.202 . S
O9 Hf15 2.202 . S
Hf10 O2 2.202 . S
Hf10 O4 2.072 . S
Hf10 O7 2.072 . S
Hf10 O9 2.202 . S
Hf10 O32 2.209 . S
Hf10 O33 2.209 . S
Hf10 O40 2.209 . S
Hf10 O42 2.209 . S
O11 Hf8 2.202 . S
O11 Hf13 2.202 . S
O11 Hf15 2.202 . S
Hf12 O3 2.202 . S
Hf12 O4 2.072 . S
Hf12 O9 2.202 . S
Hf12 O14 2.072 . S
Hf12 O24 2.209 . S
Hf12 O25 2.209 . S
Hf12 O45 2.209 . S
Hf12 O46 2.209 . S
Hf13 O3 2.202 . S
Hf13 O5 2.072 . S
Hf13 O11 2.202 . S
Hf13 O14 2.072 . S
Hf13 O29 2.209 . S
Hf13 O30 2.209 . S
Hf13 O39 2.209 . S
Hf13 O44 2.209 . S
O14 Hf12 2.072 . S
O14 Hf13 2.072 . S
O14 Hf15 2.072 . S
Hf15 O7 2.072 . S
Hf15 O9 2.202 . S
Hf15 O11 2.202 . S
Hf15 O14 2.072 . S
Hf15 O23 2.209 . S
Hf15 O26 2.209 . S
Hf15 O35 2.209 . S
Hf15 O38 2.209 . S
C16 O30 1.281 . S
C16 O46 1.281 . S
C17 O33 1.281 . S
C17 O43 1.281 . S
C18 O32 1.281 . S
C18 O45 1.281 . S
C19 O20 1.281 . S
C19 O42 1.281 . S
O20 Hf6 2.209 . S
O20 C19 1.281 . S
O21 Hf6 2.209 . S
O21 C22 1.281 . S
C22 O21 1.281 . S
C22 O44 1.281 . S
O23 Hf15 2.209 . S
O23 C34 1.281 . S
O24 Hf12 2.209 . S
O24 C41 1.281 . S
O25 Hf12 2.209 . S
O25 C49 1.281 . S
O26 Hf15 2.209 . S
O26 C31 1.281 . S
O27 Hf8 2.209 . S
O27 C48 1.281 . S
O28 C0 1.281 . S
O28 Hf8 2.209 . S
O29 C1 1.281 . S
O29 Hf13 2.209 . S
O30 Hf13 2.209 . S
O30 C16 1.281 . S
C31 O26 1.281 . S
C31 O40 1.281 . S
O32 Hf10 2.209 . S
O32 C18 1.281 . S
O33 Hf10 2.209 . S
O33 C17 1.281 . S
C34 O23 1.281 . S
C34 O39 1.281 . S
O35 Hf15 2.209 . S
O35 C48 1.281 . S
O36 Hf6 2.209 . S
O36 C49 1.281 . S
O37 C0 1.281 . S
O37 Hf6 2.209 . S
O38 Hf15 2.209 . S
O38 C41 1.281 . S
O39 Hf13 2.209 . S
O39 C34 1.281 . S
O40 Hf10 2.209 . S
O40 C31 1.281 . S
C41 O24 1.281 . S
C41 O38 1.281 . S
O42 Hf10 2.209 . S
O42 C19 1.281 . S
O43 Hf8 2.209 . S
O43 C17 1.281 . S
O44 Hf13 2.209 . S
O44 C22 1.281 . S
O45 Hf12 2.209 . S
O45 C18 1.281 . S
O46 Hf12 2.209 . S
O46 C16 1.281 . S
O47 C1 1.281 . S
O47 Hf8 2.209 . S
C48 O27 1.281 . S
C48 O35 1.281 . S
C49 O25 1.281 . S
C49 O36 1.281 . S
C50 O78 1.281 . S
C50 O87 1.281 . S
C51 O79 1.281 . S
C51 O97 1.281 . S
O52 Hf56 2.202 . S
O52 Hf58 2.202 . S
O52 Hf60 2.202 . S
O53 Hf56 2.202 . S
O53 Hf62 2.202 . S
O53 Hf63 2.202 . S
O54 Hf56 2.072 . S
O54 Hf60 2.072 . S
O54 Hf62 2.072 . S
O55 Hf56 2.072 . S
O55 Hf58 2.072 . S
O55 Hf63 2.072 . S
Hf56 O52 2.202 . S
Hf56 O53 2.202 . S
Hf56 O54 2.072 . S
Hf56 O55 2.072 . S
Hf56 O70 2.209 . S
Hf56 O71 2.209 . S
Hf56 O86 2.209 . S
Hf56 O87 2.209 . S
O57 Hf58 2.072 . S
O57 Hf60 2.072 . S
O57 Hf65 2.072 . S
Hf58 O52 2.202 . S
Hf58 O55 2.072 . S
Hf58 O57 2.072 . S
Hf58 O61 2.202 . S
Hf58 O77 2.209 . S
Hf58 O78 2.209 . S
Hf58 O93 2.209 . S
Hf58 O97 2.209 . S
O59 Hf60 2.202 . S
O59 Hf62 2.202 . S
O59 Hf65 2.202 . S
Hf60 O52 2.202 . S
Hf60 O54 2.072 . S
Hf60 O57 2.072 . S
Hf60 O59 2.202 . S
Hf60 O82 2.209 . S
Hf60 O83 2.209 . S
Hf60 O90 2.209 . S
Hf60 O92 2.209 . S
O61 Hf58 2.202 . S
O61 Hf63 2.202 . S
O61 Hf65 2.202 . S
Hf62 O53 2.202 . S
Hf62 O54 2.072 . S
Hf62 O59 2.202 . S
Hf62 O64 2.072 . S
Hf62 O74 2.209 . S
Hf62 O75 2.209 . S
Hf62 O95 2.209 . S
Hf62 O96 2.209 . S
Hf63 O53 2.202 . S
Hf63 O55 2.072 . S
Hf63 O61 2.202 . S
Hf63 O64 2.072 . S
Hf63 O79 2.209 . S
Hf63 O80 2.209 . S
Hf63 O89 2.209 . S
Hf63 O94 2.209 . S
O64 Hf62 2.072 . S
O64 Hf63 2.072 . S
O64 Hf65 2.072 . S
Hf65 O57 2.072 . S
Hf65 O59 2.202 . S
Hf65 O61 2.202 . S
Hf65 O64 2.072 . S
Hf65 O73 2.209 . S
Hf65 O76 2.209 . S
Hf65 O85 2.209 . S
Hf65 O88 2.209 . S
C66 O80 1.281 . S
C66 O96 1.281 . S
C67 O83 1.281 . S
C67 O93 1.281 . S
C68 O82 1.281 . S
C68 O95 1.281 . S
C69 O70 1.281 . S
C69 O92 1.281 . S
O70 Hf56 2.209 . S
O70 C69 1.281 . S
O71 Hf56 2.209 . S
O71 C72 1.281 . S
C72 O71 1.281 . S
C72 O94 1.281 . S
O73 Hf65 2.209 . S
O73 C84 1.281 . S
O74 Hf62 2.209 . S
O74 C91 1.281 . S
O75 Hf62 2.209 . S
O75 C99 1.281 . S
O76 Hf65 2.209 . S
O76 C81 1.281 . S
O77 Hf58 2.209 . S
O77 C98 1.281 . S
O78 C50 1.281 . S
O78 Hf58 2.209 . S
O79 C51 1.281 . S
O79 Hf63 2.209 . S
O80 Hf63 2.209 . S
O80 C66 1.281 . S
C81 O76 1.281 . S
C81 O90 1.281 . S
O82 Hf60 2.209 . S
O82 C68 1.281 . S
O83 Hf60 2.209 . S
O83 C67 1.281 . S
C84 O73 1.281 . S
C84 O89 1.281 . S
O85 Hf65 2.209 . S
O85 C98 1.281 . S
O86 Hf56 2.209 . S
O86 C99 1.281 . S
O87 C50 1.281 . S
O87 Hf56 2.209 . S
O88 Hf65 2.209 . S
O88 C91 1.281 . S
O89 Hf63 2.209 . S
O89 C84 1.281 . S
O90 Hf60 2.209 . S
O90 C81 1.281 . S
C91 O74 1.281 . S
C91 O88 1.281 . S
O92 Hf60 2.209 . S
O92 C69 1.281 . S
O93 Hf58 2.209 . S
O93 C67 1.281 . S
O94 Hf63 2.209 . S
O94 C72 1.281 . S
O95 Hf62 2.209 . S
O95 C68 1.281 . S
O96 Hf62 2.209 . S
O96 C66 1.281 . S
O97 C51 1.281 . S
O97 Hf58 2.209 . S
C98 O77 1.281 . S
C98 O85 1.281 . S
C99 O75 1.281 . S
C99 O86 1.281 . S
H100 C101 0.951 . S
C101 H100 0.951 . S
C101 C107 1.265 . S
H102 C107 0.950 . S
H103 C111 0.949 1_554 S
H104 C112 0.950 . S
H105 C113 0.951 . S
H106 C114 0.951 1_565 S
C107 C101 1.265 . S
C107 H102 0.950 . S
C107 C108 1.478 . S
C108 C107 1.478 . S
C108 C109 1.397 . S
C108 C125 1.394 1_556 S
C109 C108 1.397 . S
C109 C110 1.438 1_566 S
C109 C114 1.429 1_565 S
C110 C109 1.438 1_544 S
C110 C111 1.428 1_554 S
C110 C123 1.394 . S
C111 H103 0.949 1_556 S
C111 C110 1.428 1_556 S
C111 C112 1.345 . S
C112 H104 0.950 . S
C112 C111 1.345 . S
C112 C113 1.424 . S
C113 H105 0.951 . S
C113 C112 1.424 . S
C113 C114 1.347 . S
C114 H106 0.951 1_545 S
C114 C109 1.429 1_545 S
C114 C113 1.347 . S
H115 C116 0.951 . S
C116 H115 0.951 . S
C116 C122 1.265 . S
H117 C122 0.950 . S
H118 C126 0.949 1_556 S
H119 C127 0.950 . S
H120 C128 0.951 . S
H121 C129 0.951 . S
C122 C116 1.265 . S
C122 H117 0.950 . S
C122 C123 1.478 . S
C123 C110 1.394 . S
C123 C122 1.478 . S
C123 C124 1.397 1_545 S
C124 C123 1.397 1_565 S
C124 C125 1.438 . S
C124 C129 1.429 . S
C125 C108 1.394 1_554 S
C125 C124 1.438 . S
C125 C126 1.428 . S
C126 H118 0.949 1_554 S
C126 C125 1.428 . S
C126 C127 1.345 . S
C127 H119 0.950 . S
C127 C126 1.345 . S
C127 C128 1.424 . S
C128 H120 0.951 . S
C128 C127 1.424 . S
C128 C129 1.347 . S
C129 H121 0.951 . S
C129 C124 1.429 . S
C129 C128 1.347 . S
H130 C131 0.951 . S
C131 H130 0.951 . S
C131 C137 1.265 . S
H132 C137 0.950 . S
H133 C141 0.949 . S
H134 C142 0.950 . S
H135 C143 0.951 . S
H136 C144 0.951 . S
C137 C131 1.265 . S
C137 H132 0.950 . S
C137 C138 1.478 . S
C138 C137 1.478 . S
C138 C139 1.397 . S
C138 C155 1.394 . S
C139 C138 1.397 . S
C139 C140 1.438 . S
C139 C144 1.429 . S
C140 C139 1.438 . S
C140 C141 1.428 . S
C140 C153 1.394 . S
C141 H133 0.949 . S
C141 C140 1.428 . S
C141 C142 1.345 . S
C142 H134 0.950 . S
C142 C141 1.345 . S
C142 C143 1.424 . S
C143 H135 0.951 . S
C143 C142 1.424 . S
C143 C144 1.347 . S
C144 H136 0.951 . S
C144 C139 1.429 . S
C144 C143 1.347 . S
H145 C146 0.951 . S
C146 H145 0.951 . S
C146 C152 1.265 . S
H147 C152 0.950 . S
H148 C156 0.949 . S
H149 C157 0.950 . S
H150 C158 0.951 . S
H151 C159 0.951 . S
C152 C146 1.265 . S
C152 H147 0.950 . S
C152 C153 1.478 . S
C153 C140 1.394 . S
C153 C152 1.478 . S
C153 C154 1.397 . S
C154 C153 1.397 . S
C154 C155 1.438 . S
C154 C159 1.429 . S
C155 C138 1.394 . S
C155 C154 1.438 . S
C155 C156 1.428 . S
C156 H148 0.949 . S
C156 C155 1.428 . S
C156 C157 1.345 . S
C157 H149 0.950 . S
C157 C156 1.345 . S
C157 C158 1.424 . S
C158 H150 0.951 . S
C158 C157 1.424 . S
C158 C159 1.347 . S
C159 H151 0.951 . S
C159 C154 1.429 . S
C159 C158 1.347 . S
H160 C161 0.951 . S
C161 H160 0.951 . S
C161 C167 1.265 . S
H162 C167 0.950 . S
H163 C171 0.949 . S
H164 C172 0.950 . S
H165 C173 0.951 . S
H166 C174 0.951 . S
C167 C161 1.265 . S
C167 H162 0.950 . S
C167 C168 1.478 . S
C168 C167 1.478 . S
C168 C169 1.397 1_655 S
C168 C185 1.394 . S
C169 C168 1.397 1_455 S
C169 C170 1.438 1_554 S
C169 C174 1.429 . S
C170 C169 1.438 1_556 S
C170 C171 1.428 . S
C170 C183 1.394 . S
C171 H163 0.949 . S
C171 C170 1.428 . S
C171 C172 1.345 1_556 S
C172 H164 0.950 . S
C172 C171 1.345 1_554 S
C172 C173 1.424 . S
C173 H165 0.951 . S
C173 C172 1.424 . S
C173 C174 1.347 . S
C174 H166 0.951 . S
C174 C169 1.429 . S
C174 C173 1.347 . S
H175 C176 0.951 . S
C176 H175 0.951 . S
C176 C182 1.265 . S
H177 C182 0.950 . S
H178 C186 0.949 . S
H179 C187 0.950 . S
H180 C188 0.951 . S
H181 C189 0.951 1_455 S
C182 C176 1.265 . S
C182 H177 0.950 . S
C182 C183 1.478 . S
C183 C170 1.394 . S
C183 C182 1.478 . S
C183 C184 1.397 . S
C184 C183 1.397 . S
C184 C185 1.438 1_456 S
C184 C189 1.429 1_455 S
C185 C168 1.394 . S
C185 C184 1.438 1_654 S
C185 C186 1.428 . S
C186 H178 0.949 . S
C186 C185 1.428 . S
C186 C187 1.345 1_554 S
C187 H179 0.950 . S
C187 C186 1.345 1_556 S
C187 C188 1.424 . S
C188 H180 0.951 . S
C188 C187 1.424 . S
C188 C189 1.347 . S
C189 H181 0.951 1_655 S
C189 C184 1.429 1_655 S
C189 C188 1.347 . S
H190 C191 0.951 . S
C191 H190 0.951 . S
C191 C197 1.265 . S
H192 C197 0.950 . S
H193 C201 0.949 1_545 S
H194 C202 0.950 . S
H195 C203 0.951 . S
H196 C204 0.951 . S
C197 C191 1.265 . S
C197 H192 0.950 . S
C197 C198 1.478 . S
C198 C197 1.478 . S
C198 C199 1.397 . S
C198 C215 1.394 1_565 S
C199 C198 1.397 . S
C199 C200 1.438 1_565 S
C199 C204 1.429 . S
C200 C199 1.438 1_545 S
C200 C201 1.428 1_545 S
C200 C213 1.394 . S
C201 H193 0.949 1_565 S
C201 C200 1.428 1_565 S
C201 C202 1.345 . S
C202 H194 0.950 . S
C202 C201 1.345 . S
C202 C203 1.424 . S
C203 H195 0.951 . S
C203 C202 1.424 . S
C203 C204 1.347 . S
C204 H196 0.951 . S
C204 C199 1.429 . S
C204 C203 1.347 . S
H205 C206 0.951 . S
C206 H205 0.951 . S
C206 C212 1.265 . S
H207 C212 0.950 . S
H208 C216 0.949 . S
H209 C217 0.950 . S
H210 C218 0.951 . S
H211 C219 0.951 . S
C212 C206 1.265 . S
C212 H207 0.950 . S
C212 C213 1.478 . S
C213 C200 1.394 . S
C213 C212 1.478 . S
C213 C214 1.397 . S
C214 C213 1.397 . S
C214 C215 1.438 . S
C214 C219 1.429 . S
C215 C198 1.394 1_545 S
C215 C214 1.438 . S
C215 C216 1.428 . S
C216 H208 0.949 . S
C216 C215 1.428 . S
C216 C217 1.345 . S
C217 H209 0.950 . S
C217 C216 1.345 . S
C217 C218 1.424 . S
C218 H210 0.951 . S
C218 C217 1.424 . S
C218 C219 1.347 . S
C219 H211 0.951 . S
C219 C214 1.429 . S
C219 C218 1.347 . S
H220 C221 0.951 . S
C221 H220 0.951 . S
C221 C227 1.265 . S
H222 C227 0.950 . S
H223 C231 0.949 1_556 S
H224 C232 0.950 . S
H225 C233 0.951 . S
H226 C234 0.951 . S
C227 C221 1.265 . S
C227 H222 0.950 . S
C227 C228 1.478 . S
C228 C227 1.478 . S
C228 C229 1.397 . S
C228 C245 1.394 . S
C229 C228 1.397 . S
C229 C230 1.438 . S
C229 C234 1.429 . S
C230 C229 1.438 . S
C230 C231 1.428 . S
C230 C243 1.394 1_554 S
C231 H223 0.949 1_554 S
C231 C230 1.428 . S
C231 C232 1.345 . S
C232 H224 0.950 . S
C232 C231 1.345 . S
C232 C233 1.424 . S
C233 H225 0.951 . S
C233 C232 1.424 . S
C233 C234 1.347 . S
C234 H226 0.951 . S
C234 C229 1.429 . S
C234 C233 1.347 . S
H235 C236 0.951 . S
C236 H235 0.951 . S
C236 C242 1.265 . S
H237 C242 0.950 . S
H238 C246 0.949 1_554 S
H239 C247 0.950 . S
H240 C248 0.951 . S
H241 C249 0.951 . S
C242 C236 1.265 . S
C242 H237 0.950 . S
C242 C243 1.478 . S
C243 C230 1.394 1_556 S
C243 C242 1.478 . S
C243 C244 1.397 . S
C244 C243 1.397 . S
C244 C245 1.438 1_556 S
C244 C249 1.429 . S
C245 C228 1.394 . S
C245 C244 1.438 1_554 S
C245 C246 1.428 1_554 S
C246 H238 0.949 1_556 S
C246 C245 1.428 1_556 S
C246 C247 1.345 . S
C247 H239 0.950 . S
C247 C246 1.345 . S
C247 C248 1.424 . S
C248 H240 0.951 . S
C248 C247 1.424 . S
C248 C249 1.347 . S
C249 H241 0.951 . S
C249 C244 1.429 . S
C249 C248 1.347 . S
H250 C251 0.951 . S
C251 H250 0.951 . S
C251 C257 1.265 . S
H252 C257 0.950 . S
H253 C261 0.949 . S
H254 C262 0.950 . S
H255 C263 0.951 . S
H256 C264 0.951 . S
C257 C251 1.265 . S
C257 H252 0.950 . S
C257 C258 1.478 . S
C258 C257 1.478 . S
C258 C259 1.397 . S
C258 C275 1.394 . S
C259 C258 1.397 . S
C259 C260 1.438 . S
C259 C264 1.429 . S
C260 C259 1.438 . S
C260 C261 1.428 . S
C260 C273 1.394 1_655 S
C261 H253 0.949 . S
C261 C260 1.428 . S
C261 C262 1.345 . S
C262 H254 0.950 . S
C262 C261 1.345 . S
C262 C263 1.424 . S
C263 H255 0.951 . S
C263 C262 1.424 . S
C263 C264 1.347 . S
C264 H256 0.951 . S
C264 C259 1.429 . S
C264 C263 1.347 . S
H265 C266 0.951 . S
C266 H265 0.951 . S
C266 C272 1.265 . S
H267 C272 0.950 . S
H268 C276 0.949 . S
H269 C277 0.950 . S
H270 C278 0.951 . S
H271 C279 0.951 . S
C272 C266 1.265 . S
C272 H267 0.950 . S
C272 C273 1.478 . S
C273 C260 1.394 1_455 S
C273 C272 1.478 . S
C273 C274 1.397 . S
C274 C273 1.397 . S
C274 C275 1.438 1_455 S
C274 C279 1.429 . S
C275 C258 1.394 . S
C275 C274 1.438 1_655 S
C275 C276 1.428 . S
C276 H268 0.949 . S
C276 C275 1.428 . S
C276 C277 1.345 1_655 S
C277 H269 0.950 . S
C277 C276 1.345 1_455 S
C277 C278 1.424 . S
C278 H270 0.951 . S
C278 C277 1.424 . S
C278 C279 1.347 . S
C279 H271 0.951 . S
C279 C274 1.429 . S
C279 C278 1.347 . S
H280 C281 0.951 . S
C281 H280 0.951 . S
C281 C287 1.265 1_545 S
H282 C287 0.950 . S
H283 C291 0.949 . S
H284 C292 0.950 . S
H285 C293 0.951 . S
H286 C294 0.951 . S
C287 C281 1.265 1_565 S
C287 H282 0.950 . S
C287 C288 1.478 . S
C288 C287 1.478 . S
C288 C289 1.397 . S
C288 C305 1.394 . S
C289 C288 1.397 . S
C289 C290 1.438 . S
C289 C294 1.429 . S
C290 C289 1.438 . S
C290 C291 1.428 . S
C290 C303 1.394 . S
C291 H283 0.949 . S
C291 C290 1.428 . S
C291 C292 1.345 . S
C292 H284 0.950 . S
C292 C291 1.345 . S
C292 C293 1.424 . S
C293 H285 0.951 . S
C293 C292 1.424 . S
C293 C294 1.347 . S
C294 H286 0.951 . S
C294 C289 1.429 . S
C294 C293 1.347 . S
H295 C296 0.951 . S
C296 H295 0.951 . S
C296 C302 1.265 . S
H297 C302 0.950 . S
H298 C306 0.949 . S
H299 C307 0.950 . S
H300 C308 0.951 . S
H301 C309 0.951 . S
C302 C296 1.265 . S
C302 H297 0.950 . S
C302 C303 1.478 . S
C303 C290 1.394 . S
C303 C302 1.478 . S
C303 C304 1.397 . S
C304 C303 1.397 . S
C304 C305 1.438 . S
C304 C309 1.429 . S
C305 C288 1.394 . S
C305 C304 1.438 . S
C305 C306 1.428 . S
C306 H298 0.949 . S
C306 C305 1.428 . S
C306 C307 1.345 . S
C307 H299 0.950 . S
C307 C306 1.345 . S
C307 C308 1.424 . S
C308 H300 0.951 . S
C308 C307 1.424 . S
C308 C309 1.347 . S
C309 H301 0.951 . S
C309 C304 1.429 . S
C309 C308 1.347 . S
H310 C311 0.951 . S
C311 H310 0.951 . S
C311 C317 1.265 1_455 S
H312 C317 0.950 . S
H313 C321 0.949 . S
H314 C322 0.950 . S
H315 C323 0.951 . S
H316 C324 0.951 . S
C317 C311 1.265 1_655 S
C317 H312 0.950 . S
C317 C318 1.478 . S
C318 C317 1.478 . S
C318 C319 1.397 . S
C318 C335 1.394 . S
C319 C318 1.397 . S
C319 C320 1.438 . S
C319 C324 1.429 . S
C320 C319 1.438 . S
C320 C321 1.428 . S
C320 C333 1.394 . S
C321 H313 0.949 . S
C321 C320 1.428 . S
C321 C322 1.345 . S
C322 H314 0.950 . S
C322 C321 1.345 . S
C322 C323 1.424 . S
C323 H315 0.951 . S
C323 C322 1.424 . S
C323 C324 1.347 . S
C324 H316 0.951 . S
C324 C319 1.429 . S
C324 C323 1.347 . S
H325 C326 0.951 . S
C326 H325 0.951 . S
C326 C332 1.265 . S
H327 C332 0.950 . S
H328 C336 0.949 . S
H329 C337 0.950 . S
H330 C338 0.951 . S
H331 C339 0.951 . S
C332 C326 1.265 . S
C332 H327 0.950 . S
C332 C333 1.478 . S
C333 C320 1.394 . S
C333 C332 1.478 . S
C333 C334 1.397 . S
C334 C333 1.397 . S
C334 C335 1.438 . S
C334 C339 1.429 . S
C335 C318 1.394 . S
C335 C334 1.438 . S
C335 C336 1.428 . S
C336 H328 0.949 . S
C336 C335 1.428 . S
C336 C337 1.345 . S
C337 H329 0.950 . S
C337 C336 1.345 . S
C337 C338 1.424 . S
C338 H330 0.951 . S
C338 C337 1.424 . S
C338 C339 1.347 . S
C339 H331 0.951 . S
C339 C334 1.429 . S
C339 C338 1.347 . S
H340 C341 0.951 . S
C341 H340 0.951 . S
C341 C347 1.265 1_545 S
H342 C347 0.950 . S
H343 C351 0.949 . S
H344 C352 0.950 . S
H345 C353 0.951 . S
H346 C354 0.951 . S
C347 C341 1.265 1_565 S
C347 H342 0.950 . S
C347 C348 1.478 . S
C348 C347 1.478 . S
C348 C349 1.397 . S
C348 C365 1.394 . S
C349 C348 1.397 . S
C349 C350 1.438 . S
C349 C354 1.429 . S
C350 C349 1.438 . S
C350 C351 1.428 . S
C350 C363 1.394 . S
C351 H343 0.949 . S
C351 C350 1.428 . S
C351 C352 1.345 . S
C352 H344 0.950 . S
C352 C351 1.345 . S
C352 C353 1.424 . S
C353 H345 0.951 . S
C353 C352 1.424 . S
C353 C354 1.347 . S
C354 H346 0.951 . S
C354 C349 1.429 . S
C354 C353 1.347 . S
H355 C356 0.951 1_455 S
C356 H355 0.951 1_655 S
C356 C362 1.265 1_655 S
H357 C362 0.950 1_655 S
H358 C366 0.949 . S
H359 C367 0.950 . S
H360 C368 0.951 . S
H361 C369 0.951 . S
C362 C356 1.265 1_455 S
C362 H357 0.950 1_455 S
C362 C363 1.478 . S
C363 C350 1.394 . S
C363 C362 1.478 . S
C363 C364 1.397 . S
C364 C363 1.397 . S
C364 C365 1.438 . S
C364 C369 1.429 . S
C365 C348 1.394 . S
C365 C364 1.438 . S
C365 C366 1.428 . S
C366 H358 0.949 . S
C366 C365 1.428 . S
C366 C367 1.345 . S
C367 H359 0.950 . S
C367 C366 1.345 . S
C367 C368 1.424 . S
C368 H360 0.951 . S
C368 C367 1.424 . S
C368 C369 1.347 . S
C369 H361 0.951 . S
C369 C364 1.429 . S
C369 C368 1.347 . S
H370 C371 0.951 . S
C371 H370 0.951 . S
C371 C377 1.265 . S
H372 C377 0.950 . S
H373 C381 0.949 . S
H374 C382 0.950 . S
H375 C383 0.951 . S
H376 C384 0.951 . S
C377 C371 1.265 . S
C377 H372 0.950 . S
C377 C378 1.478 . S
C378 C377 1.478 . S
C378 C379 1.397 . S
C378 C395 1.394 . S
C379 C378 1.397 . S
C379 C380 1.438 . S
C379 C384 1.429 . S
C380 C379 1.438 . S
C380 C381 1.428 . S
C380 C393 1.394 . S
C381 H373 0.949 . S
C381 C380 1.428 . S
C381 C382 1.345 . S
C382 H374 0.950 . S
C382 C381 1.345 . S
C382 C383 1.424 . S
C383 H375 0.951 . S
C383 C382 1.424 . S
C383 C384 1.347 . S
C384 H376 0.951 . S
C384 C379 1.429 . S
C384 C383 1.347 . S
H385 C386 0.951 1_545 S
C386 H385 0.951 1_565 S
C386 C392 1.265 1_565 S
H387 C392 0.950 1_565 S
H388 C396 0.949 . S
H389 C397 0.950 . S
H390 C398 0.951 . S
H391 C399 0.951 . S
C392 C386 1.265 1_545 S
C392 H387 0.950 1_545 S
C392 C393 1.478 . S
C393 C380 1.394 . S
C393 C392 1.478 . S
C393 C394 1.397 . S
C394 C393 1.397 . S
C394 C395 1.438 . S
C394 C399 1.429 . S
C395 C378 1.394 . S
C395 C394 1.438 . S
C395 C396 1.428 . S
C396 H388 0.949 . S
C396 C395 1.428 . S
C396 C397 1.345 . S
C397 H389 0.950 . S
C397 C396 1.345 . S
C397 C398 1.424 . S
C398 H390 0.951 . S
C398 C397 1.424 . S
C398 C399 1.347 . S
C399 H391 0.951 . S
C399 C394 1.429 . S
C399 C398 1.347 . S
H400 C401 0.951 . S
C401 H400 0.951 . S
C401 C407 1.265 . S
H402 C407 0.950 . S
H403 C411 0.949 . S
H404 C412 0.950 . S
H405 C413 0.951 . S
H406 C414 0.951 . S
C407 C401 1.265 . S
C407 H402 0.950 . S
C407 C408 1.478 . S
C408 C407 1.478 . S
C408 C409 1.397 . S
C408 C425 1.394 . S
C409 C408 1.397 . S
C409 C410 1.438 . S
C409 C414 1.429 . S
C410 C409 1.438 . S
C410 C411 1.428 . S
C410 C423 1.394 . S
C411 H403 0.949 . S
C411 C410 1.428 . S
C411 C412 1.345 . S
C412 H404 0.950 . S
C412 C411 1.345 . S
C412 C413 1.424 . S
C413 H405 0.951 . S
C413 C412 1.424 . S
C413 C414 1.347 . S
C414 H406 0.951 . S
C414 C409 1.429 . S
C414 C413 1.347 . S
H415 C416 0.951 . S
C416 H415 0.951 . S
C416 C422 1.265 1_655 S
H417 C422 0.950 . S
H418 C426 0.949 . S
H419 C427 0.950 . S
H420 C428 0.951 . S
H421 C429 0.951 . S
C422 C416 1.265 1_455 S
C422 H417 0.950 . S
C422 C423 1.478 . S
C423 C410 1.394 . S
C423 C422 1.478 . S
C423 C424 1.397 . S
C424 C423 1.397 . S
C424 C425 1.438 . S
C424 C429 1.429 . S
C425 C408 1.394 . S
C425 C424 1.438 . S
C425 C426 1.428 . S
C426 H418 0.949 . S
C426 C425 1.428 . S
C426 C427 1.345 . S
C427 H419 0.950 . S
C427 C426 1.345 . S
C427 C428 1.424 . S
C428 H420 0.951 . S
C428 C427 1.424 . S
C428 C429 1.347 . S
C429 H421 0.951 . S
C429 C424 1.429 . S
C429 C428 1.347 . S
H430 C431 0.951 . S
C431 H430 0.951 . S
C431 C437 1.265 1_455 S
H432 C437 0.950 . S
H433 C441 0.949 . S
H434 C442 0.950 . S
H435 C443 0.951 . S
H436 C444 0.951 . S
C437 C431 1.265 1_655 S
C437 H432 0.950 . S
C437 C438 1.478 . S
C438 C437 1.478 . S
C438 C439 1.397 . S
C438 C455 1.394 . S
C439 C438 1.397 . S
C439 C440 1.438 . S
C439 C444 1.429 . S
C440 C439 1.438 . S
C440 C441 1.428 . S
C440 C453 1.394 . S
C441 H433 0.949 . S
C441 C440 1.428 . S
C441 C442 1.345 . S
C442 H434 0.950 . S
C442 C441 1.345 . S
C442 C443 1.424 . S
C443 H435 0.951 . S
C443 C442 1.424 . S
C443 C444 1.347 . S
C444 H436 0.951 . S
C444 C439 1.429 . S
C444 C443 1.347 . S
H445 C446 0.951 . S
C446 H445 0.951 . S
C446 C452 1.265 . S
H447 C452 0.950 . S
H448 C456 0.949 . S
H449 C457 0.950 . S
H450 C458 0.951 . S
H451 C459 0.951 . S
C452 C446 1.265 . S
C452 H447 0.950 . S
C452 C453 1.478 1_565 S
C453 C440 1.394 . S
C453 C452 1.478 1_545 S
C453 C454 1.397 . S
C454 C453 1.397 . S
C454 C455 1.438 . S
C454 C459 1.429 . S
C455 C438 1.394 . S
C455 C454 1.438 . S
C455 C456 1.428 . S
C456 H448 0.949 . S
C456 C455 1.428 . S
C456 C457 1.345 . S
C457 H449 0.950 . S
C457 C456 1.345 . S
C457 C458 1.424 . S
C458 H450 0.951 . S
C458 C457 1.424 . S
C458 C459 1.347 . S
C459 H451 0.951 . S
C459 C454 1.429 . S
C459 C458 1.347 . S
C101 C51 1.740 . S
C116 C16 1.806 . S
C131 C68 1.793 . S
C146 C31 1.699 . S
C161 C22 1.788 . S
C176 C72 1.641 . S
C191 C81 1.806 . S
C206 C48 1.731 . S
C221 C49 1.789 . S
C236 C50 1.671 . S
C251 C17 1.652 . S
C266 C91 1.793 . S
C281 C34 1.089 . S
C296 C19 1.106 . S
C311 C84 1.148 . S
C326 C69 1.154 . S
C341 C41 1.148 . S
C356 C0 1.154 . S
C371 C99 1.147 . S
C386 C98 1.155 . S
C401 C18 1.154 . S
C416 C1 1.148 . S
C431 C66 1.087 . S
C446 C67 1.107 . S
