# Generated by pormake.
# Topology whw, (6)-cn, num edge types: 1
# Building blocks:
#     Node 0, Type 0, BuildingBlock: GEDQOX_clean_sbu_0, # of connection points: 6
#     Node 1, Type 0, BuildingBlock: GEDQOX_clean_sbu_0, # of connection points: 6
#     Node 2, Type 0, BuildingBlock: GEDQOX_clean_sbu_0, # of connection points: 6
#     Node 3, Type 0, BuildingBlock: GEDQOX_clean_sbu_0, # of connection points: 6
#     Node 4, Type 0, BuildingBlock: GEDQOX_clean_sbu_0, # of connection points: 6
#     Node 5, Type 0, BuildingBlock: GEDQOX_clean_sbu_0, # of connection points: 6
#     Node 6, Type 0, BuildingBlock: GEDQOX_clean_sbu_0, # of connection points: 6
#     Node 7, Type 0, BuildingBlock: GEDQOX_clean_sbu_0, # of connection points: 6
#     Node 8, Type 0, BuildingBlock: GEDQOX_clean_sbu_0, # of connection points: 6
#     Node 9, Type 0, BuildingBlock: GEDQOX_clean_sbu_0, # of connection points: 6
#     Node 10, Type 0, BuildingBlock: GEDQOX_clean_sbu_0, # of connection points: 6
#     Node 11, Type 0, BuildingBlock: GEDQOX_clean_sbu_0, # of connection points: 6
#     Node 12, Type 0, BuildingBlock: GEDQOX_clean_sbu_0, # of connection points: 6
#     Node 13, Type 0, BuildingBlock: GEDQOX_clean_sbu_0, # of connection points: 6
#     Node 14, Type 0, BuildingBlock: GEDQOX_clean_sbu_0, # of connection points: 6
#     Node 15, Type 0, BuildingBlock: GEDQOX_clean_sbu_0, # of connection points: 6
#     Edge 16, Type (0, 0), BuildingBlock: TEMPAE_clean_linker_10, # of connection points: 2
#     Edge 17, Type (0, 0), BuildingBlock: TEMPAE_clean_linker_10, # of connection points: 2
#     Edge 18, Type (0, 0), BuildingBlock: TEMPAE_clean_linker_10, # of connection points: 2
#     Edge 19, Type (0, 0), BuildingBlock: TEMPAE_clean_linker_10, # of connection points: 2
#     Edge 20, Type (0, 0), BuildingBlock: TEMPAE_clean_linker_10, # of connection points: 2
#     Edge 21, Type (0, 0), BuildingBlock: TEMPAE_clean_linker_10, # of connection points: 2
#     Edge 22, Type (0, 0), BuildingBlock: TEMPAE_clean_linker_10, # of connection points: 2
#     Edge 23, Type (0, 0), BuildingBlock: TEMPAE_clean_linker_10, # of connection points: 2
#     Edge 24, Type (0, 0), BuildingBlock: TEMPAE_clean_linker_10, # of connection points: 2
#     Edge 25, Type (0, 0), BuildingBlock: TEMPAE_clean_linker_10, # of connection points: 2
#     Edge 26, Type (0, 0), BuildingBlock: TEMPAE_clean_linker_10, # of connection points: 2
#     Edge 27, Type (0, 0), BuildingBlock: TEMPAE_clean_linker_10, # of connection points: 2
#     Edge 28, Type (0, 0), BuildingBlock: TEMPAE_clean_linker_10, # of connection points: 2
#     Edge 29, Type (0, 0), BuildingBlock: TEMPAE_clean_linker_10, # of connection points: 2
#     Edge 30, Type (0, 0), BuildingBlock: TEMPAE_clean_linker_10, # of connection points: 2
#     Edge 31, Type (0, 0), BuildingBlock: TEMPAE_clean_linker_10, # of connection points: 2
#     Edge 32, Type (0, 0), BuildingBlock: TEMPAE_clean_linker_10, # of connection points: 2
#     Edge 33, Type (0, 0), BuildingBlock: TEMPAE_clean_linker_10, # of connection points: 2
#     Edge 34, Type (0, 0), BuildingBlock: TEMPAE_clean_linker_10, # of connection points: 2
#     Edge 35, Type (0, 0), BuildingBlock: TEMPAE_clean_linker_10, # of connection points: 2
#     Edge 36, Type (0, 0), BuildingBlock: TEMPAE_clean_linker_10, # of connection points: 2
#     Edge 37, Type (0, 0), BuildingBlock: TEMPAE_clean_linker_10, # of connection points: 2
#     Edge 38, Type (0, 0), BuildingBlock: TEMPAE_clean_linker_10, # of connection points: 2
#     Edge 39, Type (0, 0), BuildingBlock: TEMPAE_clean_linker_10, # of connection points: 2
#     Edge 40, Type (0, 0), BuildingBlock: TEMPAE_clean_linker_10, # of connection points: 2
#     Edge 41, Type (0, 0), BuildingBlock: TEMPAE_clean_linker_10, # of connection points: 2
#     Edge 42, Type (0, 0), BuildingBlock: TEMPAE_clean_linker_10, # of connection points: 2
#     Edge 43, Type (0, 0), BuildingBlock: TEMPAE_clean_linker_10, # of connection points: 2
#     Edge 44, Type (0, 0), BuildingBlock: TEMPAE_clean_linker_10, # of connection points: 2
#     Edge 45, Type (0, 0), BuildingBlock: TEMPAE_clean_linker_10, # of connection points: 2
#     Edge 46, Type (0, 0), BuildingBlock: TEMPAE_clean_linker_10, # of connection points: 2
#     Edge 47, Type (0, 0), BuildingBlock: TEMPAE_clean_linker_10, # of connection points: 2
#     Edge 48, Type (0, 0), BuildingBlock: TEMPAE_clean_linker_10, # of connection points: 2
#     Edge 49, Type (0, 0), BuildingBlock: TEMPAE_clean_linker_10, # of connection points: 2
#     Edge 50, Type (0, 0), BuildingBlock: TEMPAE_clean_linker_10, # of connection points: 2
#     Edge 51, Type (0, 0), BuildingBlock: TEMPAE_clean_linker_10, # of connection points: 2
#     Edge 52, Type (0, 0), BuildingBlock: TEMPAE_clean_linker_10, # of connection points: 2
#     Edge 53, Type (0, 0), BuildingBlock: TEMPAE_clean_linker_10, # of connection points: 2
#     Edge 54, Type (0, 0), BuildingBlock: TEMPAE_clean_linker_10, # of connection points: 2
#     Edge 55, Type (0, 0), BuildingBlock: TEMPAE_clean_linker_10, # of connection points: 2
#     Edge 56, Type (0, 0), BuildingBlock: TEMPAE_clean_linker_10, # of connection points: 2
#     Edge 57, Type (0, 0), BuildingBlock: TEMPAE_clean_linker_10, # of connection points: 2
#     Edge 58, Type (0, 0), BuildingBlock: TEMPAE_clean_linker_10, # of connection points: 2
#     Edge 59, Type (0, 0), BuildingBlock: TEMPAE_clean_linker_10, # of connection points: 2
#     Edge 60, Type (0, 0), BuildingBlock: TEMPAE_clean_linker_10, # of connection points: 2
#     Edge 61, Type (0, 0), BuildingBlock: TEMPAE_clean_linker_10, # of connection points: 2
#     Edge 62, Type (0, 0), BuildingBlock: TEMPAE_clean_linker_10, # of connection points: 2
#     Edge 63, Type (0, 0), BuildingBlock: TEMPAE_clean_linker_10, # of connection points: 2
# Relax obj value: 0.230
# Max RMSD: 0.193
# Mean RMSD: 0.193
data_MOF--net-whw--node1-GEDQOX_clean_sbu_0--edge1-TEMPAE_clean_linker_10
_symmetry_space_group_name_H-M    P1
_symmetry_Int_Tables_number       1
_symmetry_cell_setting            triclinic
loop_
_symmetry_equiv_pos_as_xyz
'x, y, z'
_cell_length_a     46.939686
_cell_length_b     46.886685
_cell_length_c     35.593387
_cell_angle_alpha  90.032656
_cell_angle_beta   89.925126
_cell_angle_gamma 90.01091
loop_
_atom_site_label
_atom_site_type_symbol
_atom_site_fract_x
_atom_site_fract_y
_atom_site_fract_z
_atom_type_partial_charge
Nd0 Nd 0.98797 0.09439 0.1367 0.0
Nd1 Nd 0.04759 0.09661 0.17658 0.0
C2 C 0.94497 0.08754 0.08921 0.0
C3 C 0.93816 0.09566 0.04997 0.0
C4 C 0.95644 0.08896 1.01987 0.0
C5 C 0.94966 0.09733 0.98313 0.0
C6 C 0.92452 0.11273 0.97563 0.0
C7 C 0.90636 0.11938 1.00593 0.0
C8 C 0.91306 0.11086 0.04255 0.0
C9 C 0.00054 0.1436 0.17289 0.0
C10 C 0.04673 0.1109 0.08766 0.0
C11 C 0.09096 0.10709 0.22225 0.0
C12 C 0.09747 0.11829 0.26022 0.0
C13 C 0.12018 0.13745 0.26454 0.0
C14 C 0.12762 0.14776 0.3001 0.0
C15 C 0.11257 0.1391 0.33238 0.0
C16 C 0.08948 0.12015 0.3279 0.0
C17 C 0.08203 0.10983 0.29221 0.0
C18 C 0.03418 0.04602 0.14213 0.0
C19 C 0.98801 0.08707 0.22577 0.0
O20 O 0.9649 0.06847 0.09437 0.0
O21 O 0.94624 0.10833 0.11363 0.0
O22 O 0.97489 0.13348 0.17085 0.0
O23 O 0.0179 0.12943 0.1534 0.0
O24 O 0.01971 0.10272 0.088 0.0
O25 O 0.06197 0.11278 0.11882 0.0
O26 O 0.08168 0.12544 0.1974 0.0
O27 O 0.07836 0.08221 0.21983 0.0
O28 O 0.05991 0.05626 0.14343 0.0
O29 O 0.01729 0.06146 0.16069 0.0
O30 O 0.0142 0.09761 0.22425 0.0
O31 O 0.97443 0.07857 0.19507 0.0
H32 H 0.97602 0.07734 0.02469 0.0
H33 H 0.96404 0.09151 0.96058 0.0
H34 H 0.8871 0.13164 1.00154 0.0
H35 H 0.89868 0.11641 0.06524 0.0
H36 H 0.13233 0.14437 0.2403 0.0
H37 H 0.14511 0.16274 0.30222 0.0
H38 H 0.07749 0.11285 0.35206 0.0
H39 H 0.06441 0.09506 0.28971 0.0
Nd40 Nd 0.15262 0.72433 0.37661 0.0
Nd41 Nd 0.14372 0.78175 0.41994 0.0
C42 C 0.16622 0.68605 0.32448 0.0
C43 C 0.15683 0.68021 0.28551 0.0
C44 C 0.17426 0.66444 0.26112 0.0
C45 C 0.16532 0.65838 0.22436 0.0
C46 C 0.13868 0.66797 0.21111 0.0
C47 C 0.12159 0.68436 0.23555 0.0
C48 C 0.13059 0.69045 0.27225 0.0
C49 C 0.10157 0.72923 0.41105 0.0
C50 C 0.12967 0.78281 0.33112 0.0
C51 C 0.13057 0.82392 0.46667 0.0
C52 C 0.12068 0.83152 0.50492 0.0
C53 C 0.12876 0.81594 0.53691 0.0
C54 C 0.12048 0.82508 0.57293 0.0
C55 C 0.1041 0.85005 0.57763 0.0
C56 C 0.09566 0.86514 0.54533 0.0
C57 C 0.10386 0.85598 0.5095 0.0
C58 C 0.19596 0.7739 0.38636 0.0
C59 C 0.15743 0.72185 0.46637 0.0
O60 O 0.18029 0.70975 0.32965 0.0
O61 O 0.14753 0.68139 0.35108 0.0
O62 O 0.11444 0.70506 0.4059 0.0
O63 O 0.114 0.7495 0.39424 0.0
O64 O 0.13958 0.75638 0.33017 0.0
O65 O 0.12705 0.7971 0.36297 0.0
O66 O 0.11215 0.8123 0.4437 0.0
O67 O 0.15629 0.81347 0.46304 0.0
O68 O 0.18292 0.79833 0.38732 0.0
O69 O 0.1819 0.75545 0.40406 0.0
O70 O 0.14496 0.7472 0.46589 0.0
O71 O 0.16747 0.70976 0.43526 0.0
H72 H 0.19478 0.65671 0.27056 0.0
H73 H 0.17936 0.64622 0.20627 0.0
H74 H 0.10088 0.69195 0.22669 0.0
H75 H 0.11688 0.70292 0.29045 0.0
H76 H 0.1418 0.79701 0.53412 0.0
H77 H 0.12747 0.81296 0.59711 0.0
H78 H 0.08258 0.88409 0.54769 0.0
H79 H 0.09734 0.86831 0.48525 0.0
Nd80 Nd 0.50981 0.89365 0.62618 0.0
Nd81 Nd 0.45005 0.88624 0.66332 0.0
C82 C 0.55056 0.90459 0.57666 0.0
C83 C 0.55588 0.89431 0.53797 0.0
C84 C 0.57475 0.90882 0.51413 0.0
C85 C 0.57998 0.89875 0.47763 0.0
C86 C 0.56639 0.87394 0.46424 0.0
C87 C 0.54735 0.8596 0.48828 0.0
C88 C 0.54228 0.8696 0.52473 0.0
C89 C 0.50365 0.84594 0.66828 0.0
C90 C 0.45571 0.8633 0.57857 0.0
C91 C 0.40593 0.87508 0.70749 0.0
C92 C 0.39879 0.86536 0.74588 0.0
C93 C 0.37569 0.84679 0.75087 0.0
C94 C 0.36815 0.83724 0.78675 0.0
C95 C 0.38354 0.84608 0.81861 0.0
C96 C 0.40688 0.86462 0.81348 0.0
C97 C 0.41441 0.87418 0.77746 0.0
C98 C 0.45759 0.93449 0.62033 0.0
C99 C 0.50639 0.90582 0.71406 0.0
O100 O 0.52834 0.9211 0.58134 0.0
O101 O 0.55288 0.88541 0.60315 0.0
O102 O 0.52773 0.85941 0.66511 0.0
O103 O 0.48484 0.85599 0.64673 0.0
O104 O 0.48168 0.87441 0.57903 0.0
O105 O 0.43945 0.86284 0.60884 0.0
O106 O 0.41747 0.85617 0.68508 0.0
O107 O 0.41692 0.90062 0.7036 0.0
O108 O 0.4341 0.91988 0.62103 0.0
O109 O 0.4753 0.92397 0.64293 0.0
O110 O 0.48143 0.89263 0.71249 0.0
O111 O 0.52016 0.91378 0.68324 0.0
H112 H 0.58557 0.92785 0.52381 0.0
H113 H 0.59454 0.9105 0.4598 0.0
H114 H 0.5368 0.84024 0.47923 0.0
H115 H 0.52796 0.85776 0.54277 0.0
H116 H 0.36343 0.8396 0.72689 0.0
H117 H 0.35043 0.82259 0.78943 0.0
H118 H 0.41911 0.87205 0.83734 0.0
H119 H 0.43231 0.88852 0.77432 0.0
Nd120 Nd 0.35385 0.25465 0.87982 0.0
Nd121 Nd 0.35371 0.19477 0.91854 0.0
C122 C 0.34709 0.29649 0.83064 0.0
C123 C 0.35821 0.30182 0.79245 0.0
C124 C 0.34251 0.31843 0.76714 0.0
C125 C 0.35258 0.32306 0.73057 0.0
C126 C 0.37863 0.31117 0.71851 0.0
C127 C 0.39408 0.29418 0.74399 0.0
C128 C 0.38392 0.28947 0.78048 0.0
C129 C 0.40302 0.23982 0.91397 0.0
C130 C 0.36867 0.19561 0.83 0.0
C131 C 0.36205 0.15124 0.96465 0.0
C132 C 0.37323 0.14602 1.00273 0.0
C133 C 0.39197 0.16529 1.02011 0.0
C134 C 0.40318 0.15928 0.05573 0.0
C135 C 0.39584 0.1339 0.07465 0.0
C136 C 0.37656 0.11504 0.05729 0.0
C137 C 0.36543 0.12105 1.02172 0.0
C138 C 0.30309 0.21134 0.88697 0.0
C139 C 0.34804 0.25438 0.96867 0.0
O140 O 0.3295 0.27503 0.83368 0.0
O141 O 0.36558 0.29744 0.85811 0.0
O142 O 0.39433 0.26604 0.91186 0.0
O143 O 0.38773 0.22307 0.89506 0.0
O144 O 0.36251 0.22314 0.83119 0.0
O145 O 0.36861 0.17956 0.86054 0.0
O146 O 0.38056 0.15932 0.93923 0.0
O147 O 0.33784 0.16495 0.96234 0.0
O148 O 0.31202 0.18508 0.88678 0.0
O149 O 0.31995 0.2271 0.90499 0.0
O150 O 0.35762 0.22785 0.96625 0.0
O151 O 0.33924 0.2685 0.93856 0.0
H152 H 0.32237 0.32773 0.77562 0.0
H153 H 0.33977 0.33576 0.71162 0.0
H154 H 0.4143 0.28485 0.736 0.0
H155 H 0.3962 0.2762 0.79939 0.0
H156 H 0.39821 0.18478 1.00594 0.0
H157 H 0.41812 0.1742 0.06803 0.0
H158 H 0.36998 0.0956 0.07123 0.0
H159 H 0.35085 0.10601 1.00887 0.0
Nd160 Nd 0.96683 0.88241 0.87683 0.0
Nd161 Nd 0.02521 0.89318 0.91645 0.0
C162 C 0.92436 0.87016 0.83044 0.0
C163 C 0.91832 0.86276 0.79094 0.0
C164 C 0.93973 0.86261 0.76334 0.0
C165 C 0.93315 0.85541 0.72601 0.0
C166 C 0.90504 0.84821 0.71567 0.0
C167 C 0.88383 0.84831 0.7437 0.0
C168 C 0.89041 0.85555 0.78081 0.0
C169 C 0.97013 0.93013 0.9217 0.0
C170 C 0.02288 0.90606 0.82845 0.0
C171 C 0.06395 0.90553 0.96812 0.0
C172 C 0.06903 0.8948 1.00668 0.0
C173 C 0.08669 0.90979 0.03156 0.0
C174 C 0.09203 0.89917 0.06775 0.0
C175 C 0.0799 0.8732 0.07978 0.0
C176 C 0.06205 0.85838 0.05469 0.0
C177 C 0.05679 0.869 1.01859 0.0
C178 C 0.02374 0.84638 0.87195 0.0
C179 C 0.97194 0.85897 0.96135 0.0
O180 O 0.93764 0.85097 0.85059 0.0
O181 O 0.933 0.8962 0.83733 0.0
O182 O 0.94776 0.91395 0.91954 0.0
O183 O 0.98912 0.9214 0.89942 0.0
O184 O -0.00159 0.89202 0.82902 0.0
O185 O 0.03599 0.91405 0.85978 0.0
O186 O 0.04093 0.92084 0.96299 0.0
O187 O 0.06804 0.88704 0.94114 0.0
O188 O 0.04671 0.8612 0.87763 0.0
O189 O 0.00356 0.85435 0.89309 0.0
O190 O -0.0029 0.87177 0.96195 0.0
O191 O 0.95644 0.8576 0.93045 0.0
H192 H 0.96146 0.86803 0.77064 0.0
H193 H 0.95002 0.85576 0.70523 0.0
H194 H 0.86212 0.84234 0.73714 0.0
H195 H 0.87363 0.85536 0.80174 0.0
H196 H 0.09657 0.9296 0.02289 0.0
H197 H 0.10563 0.91136 0.08633 0.0
H198 H 0.05266 0.83815 0.06256 0.0
H199 H 0.04349 0.85675 0.99972 0.0
Nd200 Nd 0.35778 0.69867 0.12029 0.0
Nd201 Nd 0.35676 0.75936 0.15755 0.0
C202 C 0.36545 0.65464 0.07477 0.0
C203 C 0.37516 0.64832 0.03607 0.0
C204 C 0.39464 0.62607 0.03033 0.0
C205 C 0.40445 0.61955 0.99422 0.0
C206 C 0.39495 0.6351 0.96281 0.0
C207 C 0.37546 0.65754 0.96866 0.0
C208 C 0.36565 0.66408 1.00492 0.0
C209 C 0.31189 0.70964 0.16613 0.0
C210 C 0.34133 0.75693 0.07057 0.0
C211 C 0.34922 0.80047 0.20747 0.0
C212 C 0.35833 0.80433 0.24692 0.0
C213 C 0.34108 0.81938 0.27227 0.0
C214 C 0.34987 0.82349 0.30952 0.0
C215 C 0.37619 0.81268 0.3222 0.0
C216 C 0.3931 0.79707 0.29676 0.0
C217 C 0.38425 0.7929 0.25963 0.0
C218 C 0.40174 0.74872 0.11181 0.0
C219 C 0.38466 0.70327 0.20357 0.0
O220 O 0.38493 0.6638 0.09815 0.0
O221 O 0.34084 0.6675 0.07904 0.0
O222 O 0.32375 0.68472 0.1633 0.0
O223 O 0.32336 0.72694 0.14362 0.0
O224 O 0.35187 0.73068 0.07141 0.0
O225 O 0.33608 0.77152 0.10171 0.0
O226 O 0.33025 0.78055 0.2013 0.0
O227 O 0.36945 0.80084 0.1821 0.0
O228 O 0.39094 0.77413 0.11577 0.0
O229 O 0.39084 0.73118 0.13447 0.0
O230 O 0.37708 0.7305 0.20291 0.0
O231 O 0.38138 0.68639 0.17414 0.0
H232 H 0.4024 0.61374 0.05393 0.0
H233 H 0.41986 0.60253 0.99102 0.0
H234 H 0.36749 0.66985 0.94519 0.0
H235 H 0.35063 0.68137 1.00855 0.0
H236 H 0.32087 0.82812 0.26319 0.0
H237 H 0.336 0.83514 0.3284 0.0
H238 H 0.41357 0.78861 0.30521 0.0
H239 H 0.39787 0.78097 0.24072 0.0
Nd240 Nd 0.55012 0.10263 0.37485 0.0
Nd241 Nd 0.48971 0.10273 0.4129 0.0
C242 C 0.59419 0.11181 0.32979 0.0
C243 C 0.6008 0.12293 0.29178 0.0
C244 C 0.58573 0.11401 0.25973 0.0
C245 C 0.59303 0.1245 0.22406 0.0
C246 C 0.61555 0.14412 0.21964 0.0
C247 C 0.63027 0.1532 0.25196 0.0
C248 C 0.623 0.14269 0.2875 0.0
C249 C 0.53439 0.0528 0.4094 0.0
C250 C 0.49121 0.09383 0.32414 0.0
C251 C 0.44553 0.09713 0.45886 0.0
C252 C 0.43847 0.10453 0.49822 0.0
C253 C 0.45771 0.09953 0.52775 0.0
C254 C 0.45071 0.10731 0.56466 0.0
C255 C 0.4244 0.12041 0.57283 0.0
C256 C 0.40526 0.1253 0.54308 0.0
C257 C 0.41221 0.11739 0.50628 0.0
C258 C 0.50422 0.1507 0.37517 0.0
C259 C 0.54796 0.11846 0.46336 0.0
O260 O 0.58529 0.13039 0.35465 0.0
O261 O 0.58105 0.08722 0.33225 0.0
O262 O 0.56051 0.06209 0.4089 0.0
O263 O 0.51841 0.06871 0.39026 0.0
O264 O 0.51768 0.10359 0.32609 0.0
O265 O 0.47682 0.08634 0.35467 0.0
O266 O 0.46454 0.07716 0.45345 0.0
O267 O 0.44846 0.11851 0.4356 0.0
O268 O 0.47827 0.14124 0.37668 0.0
O269 O 0.52077 0.13664 0.39591 0.0
O270 O 0.5206 0.11148 0.4623 0.0
O271 O 0.56402 0.11876 0.43279 0.0
H272 H 0.56848 0.09879 0.26216 0.0
H273 H 0.58132 0.11683 0.19988 0.0
H274 H 0.64731 0.16869 0.24991 0.0
H275 H 0.63485 0.15 0.31178 0.0
H276 H 0.47819 0.08973 0.52232 0.0
H277 H 0.46585 0.10286 0.58683 0.0
H278 H 0.38503 0.13575 0.54808 0.0
H279 H 0.39711 0.1216 0.48396 0.0
Nd280 Nd 0.1333 0.28531 0.63339 0.0
Nd281 Nd 0.14357 0.22635 0.67189 0.0
C282 C 0.1202 0.32875 0.58908 0.0
C283 C 0.11173 0.33596 0.55026 0.0
C284 C 0.09289 0.35871 0.54451 0.0
C285 C 0.08496 0.36674 0.50818 0.0
C286 C 0.09575 0.35221 0.47661 0.0
C287 C 0.11444 0.3291 0.48249 0.0
C288 C 0.12237 0.32106 0.51899 0.0
C289 C 0.18158 0.28082 0.67649 0.0
C290 C 0.1552 0.22936 0.5835 0.0
C291 C 0.15682 0.18572 0.72055 0.0
C292 C 0.14898 0.17881 0.75986 0.0
C293 C 0.14617 0.20016 0.78732 0.0
C294 C 0.13716 0.19333 0.82382 0.0
C295 C 0.13025 0.165 0.83356 0.0
C296 C 0.13327 0.14371 0.80587 0.0
C297 C 0.14261 0.15054 0.76958 0.0
C298 C 0.09558 0.22999 0.62988 0.0
C299 C 0.1119 0.27981 0.71907 0.0
O300 O 0.1014 0.31528 0.60972 0.0
O301 O 0.14634 0.31984 0.59453 0.0
O302 O 0.16595 0.30361 0.67502 0.0
O303 O 0.17215 0.26211 0.65434 0.0
O304 O 0.14135 0.25397 0.58459 0.0
O305 O 0.16349 0.2161 0.61453 0.0
O306 O 0.17281 0.20825 0.71479 0.0
O307 O 0.13634 0.18331 0.69591 0.0
O308 O 0.11014 0.20658 0.63318 0.0
O309 O 0.10485 0.24938 0.65121 0.0
O310 O 0.12427 0.25438 0.71931 0.0
O311 O 0.11013 0.29535 0.68822 0.0
H312 H 0.08433 0.37041 0.56825 0.0
H313 H 0.07008 0.38421 0.50488 0.0
H314 H 0.12331 0.3175 0.45889 0.0
H315 H 0.13695 0.30341 0.52275 0.0
H316 H 0.15074 0.22217 0.78048 0.0
H317 H 0.13565 0.21028 0.84438 0.0
H318 H 0.12774 0.12176 0.81188 0.0
H319 H 0.14432 0.13374 0.74878 0.0
Nd320 Nd 0.85307 0.19007 0.63187 0.0
Nd321 Nd 0.85621 0.25055 0.66974 0.0
C322 C 0.85955 0.14612 0.58583 0.0
C323 C 0.87006 0.14072 0.54736 0.0
C324 C 0.88871 0.15979 0.52939 0.0
C325 C 0.89939 0.1536 0.49348 0.0
C326 C 0.89161 0.12824 0.47481 0.0
C327 C 0.87238 0.1096 0.49275 0.0
C328 C 0.86178 0.11578 0.52862 0.0
C329 C 0.80422 0.20822 0.66647 0.0
C330 C 0.84715 0.24937 0.58121 0.0
C331 C 0.85231 0.29486 0.71585 0.0
C332 C 0.86056 0.30167 0.75497 0.0
C333 C 0.8565 0.28204 0.78434 0.0
C334 C 0.8655 0.28855 0.82088 0.0
C335 C 0.87866 0.31484 0.82884 0.0
C336 C 0.88225 0.33459 0.79946 0.0
C337 C 0.87335 0.32804 0.76293 0.0
C338 C 0.90331 0.23354 0.63181 0.0
C339 C 0.87004 0.19152 0.71989 0.0
O340 O 0.87862 0.15378 0.61068 0.0
O341 O 0.83567 0.16036 0.58893 0.0
O342 O 0.81222 0.18166 0.66607 0.0
O343 O 0.82084 0.22347 0.64729 0.0
O344 O 0.85578 0.22251 0.58329 0.0
O345 O 0.84023 0.26413 0.61166 0.0
O346 O 0.83193 0.27617 0.71118 0.0
O347 O 0.87316 0.29154 0.69184 0.0
O348 O 0.89532 0.26002 0.63345 0.0
O349 O 0.8884 0.2178 0.65263 0.0
O350 O 0.86425 0.21919 0.71887 0.0
O351 O 0.86917 0.17536 0.68941 0.0
H352 H 0.89533 0.17924 0.54335 0.0
H353 H 0.9143 0.16836 0.48078 0.0
H354 H 0.86547 0.09017 0.47906 0.0
H355 H 0.84727 0.10089 0.54191 0.0
H356 H 0.8465 0.26162 0.77907 0.0
H357 H 0.86198 0.27309 0.843 0.0
H358 H 0.89251 0.35492 0.80456 0.0
H359 H 0.87673 0.34349 0.74074 0.0
Nd360 Nd 0.63495 0.79646 0.12189 0.0
Nd361 Nd 0.64329 0.73678 0.16004 0.0
C362 C 0.62284 0.83978 0.07696 0.0
C363 C 0.61425 0.84604 0.03786 0.0
C364 C 0.59445 0.82896 1.01861 0.0
C365 C 0.58531 0.83654 0.98248 0.0
C366 C 0.59584 0.8613 0.96477 0.0
C367 C 0.61625 0.87783 0.98388 0.0
C368 C 0.62528 0.8703 1.02 0.0
C369 C 0.68348 0.78981 0.1639 0.0
C370 C 0.65387 0.73948 0.07151 0.0
C371 C 0.65592 0.69547 0.20797 0.0
C372 C 0.64919 0.68869 0.24765 0.0
C373 C 0.64797 0.71 0.27539 0.0
C374 C 0.63997 0.70323 0.31232 0.0
C375 C 0.63268 0.67504 0.32224 0.0
C376 C 0.63425 0.65379 0.29431 0.0
C377 C 0.64246 0.66055 0.25755 0.0
C378 C 0.59477 0.74329 0.11964 0.0
C379 C 0.61458 0.79136 0.20828 0.0
O380 O 0.60399 0.82728 0.09861 0.0
O381 O 0.64881 0.8304 0.08225 0.0
O382 O 0.66916 0.81347 0.16212 0.0
O383 O 0.67291 0.77152 0.14201 0.0
O384 O 0.64099 0.76462 0.07296 0.0
O385 O 0.66206 0.7259 0.10232 0.0
O386 O 0.67278 0.71722 0.20144 0.0
O387 O 0.6345 0.69418 0.18457 0.0
O388 O 0.6081 0.71906 0.12193 0.0
O389 O 0.60552 0.76186 0.14087 0.0
O390 O 0.62605 0.76549 0.20806 0.0
O391 O 0.61303 0.80717 0.17759 0.0
H392 H 0.58567 0.81004 0.03174 0.0
H393 H 0.56939 0.8234 0.96887 0.0
H394 H 0.62526 0.8967 0.97096 0.0
H395 H 0.64066 0.8837 0.03424 0.0
H396 H 0.65305 0.73189 0.26848 0.0
H397 H 0.63952 0.72011 0.33309 0.0
H398 H 0.62839 0.63196 0.30054 0.0
H399 H 0.64302 0.64379 0.23657 0.0
Nd400 Nd 0.64516 0.23263 0.88019 0.0
Nd401 Nd 0.63647 0.29199 0.91814 0.0
C402 C 0.65727 0.19189 0.83098 0.0
C403 C 0.64798 0.18577 0.7921 0.0
C404 C 0.6623 0.16536 0.77035 0.0
C405 C 0.65308 0.15904 0.7338 0.0
C406 C 0.62917 0.1729 0.7183 0.0
C407 C 0.61501 0.19349 0.74028 0.0
C408 C 0.62426 0.19976 0.77676 0.0
C409 C 0.59689 0.2378 0.92146 0.0
C410 C 0.61529 0.28696 0.83253 0.0
C411 C 0.62493 0.33545 0.96328 0.0
C412 C 0.61663 0.34195 1.00245 0.0
C413 C 0.59752 0.32458 0.02247 0.0
C414 C 0.58852 0.3324 0.05864 0.0
C415 C 0.59852 0.35769 0.07558 0.0
C416 C 0.61827 0.37451 0.05568 0.0
C417 C 0.62715 0.36674 1.01955 0.0
C418 C 0.6852 0.28558 0.87596 0.0
C419 C 0.65644 0.2355 0.96835 0.0
O420 O 0.67329 0.21448 0.83578 0.0
O421 O 0.6376 0.1895 0.85683 0.0
O422 O 0.61072 0.21393 0.91823 0.0
O423 O 0.60694 0.25695 0.90034 0.0
O424 O 0.62681 0.26114 0.83285 0.0
O425 O 0.61386 0.30284 0.86314 0.0
O426 O 0.60586 0.32298 0.94201 0.0
O427 O 0.65079 0.32587 0.95763 0.0
O428 O 0.67022 0.30883 0.87674 0.0
O429 O 0.67476 0.26742 0.89812 0.0
O430 O 0.64298 0.26031 0.96699 0.0
O431 O 0.66482 0.22208 0.93745 0.0
H432 H 0.68054 0.15417 0.78171 0.0
H433 H 0.66476 0.14333 0.71766 0.0
H434 H 0.59628 0.2043 0.72968 0.0
H435 H 0.61253 0.2152 0.79326 0.0
H436 H 0.58913 0.30527 1.00992 0.0
H437 H 0.57312 0.31901 0.07287 0.0
H438 H 0.62687 0.3938 0.06799 0.0
H439 H 0.64201 0.38038 1.00468 0.0
Nd440 Nd 0.85083 0.75751 0.37245 0.0
Nd441 Nd 0.84313 0.70259 0.42153 0.0
C442 C 0.8516 0.80268 0.32801 0.0
C443 C 0.86266 0.80719 0.28948 0.0
C444 C 0.86322 0.7847 0.26334 0.0
C445 C 0.87436 0.78884 0.22721 0.0
C446 C 0.8854 0.81555 0.21639 0.0
C447 C 0.88482 0.83799 0.24278 0.0
C448 C 0.87356 0.83384 0.27889 0.0
C449 C 0.8993 0.72754 0.38912 0.0
C450 C 0.85138 0.6964 0.33122 0.0
C451 C 0.84733 0.66092 0.47135 0.0
C452 C 0.86026 0.65542 0.50854 0.0
C453 C 0.86284 0.677 0.53573 0.0
C454 C 0.87479 0.67105 0.57097 0.0
C455 C 0.88456 0.6434 0.57973 0.0
C456 C 0.88223 0.62202 0.55208 0.0
C457 C 0.87019 0.62797 0.51698 0.0
C458 C 0.7948 0.72184 0.38623 0.0
C459 C 0.84948 0.76541 0.46388 0.0
O460 O 0.82967 0.78558 0.33103 0.0
O461 O 0.87071 0.79833 0.35417 0.0
O462 O 0.89463 0.73895 0.35655 0.0
O463 O 0.87906 0.73252 0.41098 0.0
O464 O 0.84132 0.72263 0.32937 0.0
O465 O 0.8582 0.68472 0.36396 0.0
O466 O 0.86497 0.66389 0.44301 0.0
O467 O 0.8258 0.67872 0.47014 0.0
O468 O 0.80041 0.69499 0.39124 0.0
O469 O 0.81358 0.73713 0.40144 0.0
O470 O 0.8484 0.73727 0.4666 0.0
O471 O 0.84887 0.77879 0.43102 0.0
H472 H 0.8551 0.76383 0.27085 0.0
H473 H 0.87407 0.77112 0.20767 0.0
H474 H 0.89354 0.85871 0.23581 0.0
H475 H 0.87359 0.85141 0.29867 0.0
H476 H 0.85547 0.6984 0.52982 0.0
H477 H 0.87596 0.68804 0.59154 0.0
H478 H 0.89 0.60065 0.55736 0.0
H479 H 0.86862 0.61105 0.49634 0.0
Nd480 Nd 0.49013 0.60348 0.62327 0.0
Nd481 Nd 0.54939 0.60407 0.66436 0.0
C482 C 0.44769 0.59743 0.5748 0.0
C483 C 0.44234 0.60516 0.53508 0.0
C484 C 0.4627 0.60003 0.50686 0.0
C485 C 0.4577 0.60872 0.46977 0.0
C486 C 0.43225 0.62279 0.46008 0.0
C487 C 0.41182 0.6276 0.4884 0.0
C488 C 0.41683 0.61886 0.52542 0.0
C489 C 0.50334 0.65205 0.66039 0.0
C490 C 0.54985 0.61886 0.57558 0.0
C491 C 0.59244 0.61359 0.7109 0.0
C492 C 0.59869 0.62506 0.74882 0.0
C493 C 0.58326 0.61659 0.78081 0.0
C494 C 0.5904 0.6273 0.81642 0.0
C495 C 0.61311 0.64671 0.82082 0.0
C496 C 0.62817 0.65535 0.78853 0.0
C497 C 0.62107 0.64461 0.75307 0.0
C498 C 0.53453 0.55382 0.63007 0.0
C499 C 0.48899 0.59562 0.71226 0.0
O500 O 0.46665 0.5776 0.58131 0.0
O501 O 0.44943 0.61867 0.5985 0.0
O502 O 0.47748 0.64254 0.65768 0.0
O503 O 0.52065 0.6377 0.64105 0.0
O504 O 0.52266 0.61126 0.57531 0.0
O505 O 0.5648 0.62014 0.60701 0.0
O506 O 0.5841 0.63195 0.6855 0.0
O507 O 0.57914 0.58908 0.70854 0.0
O508 O 0.56061 0.56317 0.63129 0.0
O509 O 0.51818 0.56997 0.64828 0.0
O510 O 0.51547 0.60549 0.7115 0.0
O511 O 0.47549 0.58785 0.68117 0.0
H512 H 0.48256 0.58947 0.51349 0.0
H513 H 0.47371 0.60429 0.44865 0.0
H514 H 0.39216 0.6387 0.48216 0.0
H515 H 0.40086 0.62319 0.54669 0.0
H516 H 0.56587 0.60153 0.77839 0.0
H517 H 0.57841 0.61997 0.84058 0.0
H518 H 0.64536 0.67067 0.79055 0.0
H519 H 0.63321 0.65157 0.72883 0.0
Nd520 Nd 0.01385 0.38919 0.13494 0.0
Nd521 Nd 0.95439 0.38106 0.17339 0.0
C522 C 0.05441 0.39976 0.08511 0.0
C523 C 0.05879 0.38892 0.04653 0.0
C524 C 0.07759 0.40259 1.02177 0.0
C525 C 0.0819 0.39183 0.9854 0.0
C526 C 0.06744 0.36717 0.97311 0.0
C527 C 0.04836 0.35379 0.99803 0.0
C528 C 0.04415 0.3645 0.03429 0.0
C529 C 0.00647 0.33929 0.17188 0.0
C530 C 0.95752 0.36546 0.08562 0.0
C531 C 0.91132 0.36852 0.21847 0.0
C532 C 0.90571 0.35957 0.25747 0.0
C533 C 0.92472 0.34191 0.27712 0.0
C534 C 0.91801 0.33243 0.3134 0.0
C535 C 0.89223 0.34052 0.33074 0.0
C536 C 0.87373 0.35889 0.31122 0.0
C537 C 0.8804 0.36824 0.27497 0.0
C538 C 0.96263 0.43118 0.1355 0.0
C539 C 0.01182 0.39807 0.22347 0.0
O540 O 0.03245 0.41653 0.09006 0.0
O541 O 0.05688 0.38079 0.11183 0.0
O542 O 0.0309 0.35214 0.16985 0.0
O543 O 0.98782 0.35118 0.15186 0.0
O544 O 0.98354 0.37636 0.08646 0.0
O545 O 0.94217 0.36218 0.11646 0.0
O546 O 0.92365 0.34986 0.19636 0.0
O547 O 0.92072 0.39455 0.21355 0.0
O548 O 0.9384 0.41782 0.1365 0.0
O549 O 0.98054 0.41899 0.15631 0.0
O550 O 0.98681 0.38502 0.2217 0.0
O551 O 0.02523 0.40717 0.19291 0.0
H552 H 0.08897 0.42155 0.03057 0.0
H553 H 0.09644 0.40292 0.96682 0.0
H554 H 0.0371 0.33461 0.98985 0.0
H555 H 0.02964 0.35347 0.05297 0.0
H556 H 0.94449 0.33507 0.2642 0.0
H557 H 0.93267 0.31814 0.32741 0.0
H558 H 0.854 0.36601 0.32391 0.0
H559 H 0.86556 0.38202 0.26036 0.0
Nd560 Nd 0.45386 0.38389 0.37784 0.0
Nd561 Nd 0.51361 0.39147 0.41463 0.0
C562 C 0.41047 0.37333 0.33247 0.0
C563 C 0.40509 0.36499 0.29313 0.0
C564 C 0.42513 0.34923 0.27239 0.0
C565 C 0.41874 0.34005 0.23585 0.0
C566 C 0.39223 0.34652 0.21934 0.0
C567 C 0.37268 0.36309 0.23997 0.0
C568 C 0.37904 0.37215 0.27646 0.0
C569 C 0.46111 0.43208 0.4207 0.0
C570 C 0.51007 0.40365 0.32683 0.0
C571 C 0.5539 0.40237 0.46457 0.0
C572 C 0.55881 0.39165 0.50313 0.0
C573 C 0.57499 0.40746 0.52883 0.0
C574 C 0.57962 0.39718 0.56534 0.0
C575 C 0.56833 0.37069 0.57684 0.0
C576 C 0.55199 0.35502 0.55085 0.0
C577 C 0.54726 0.3654 0.51453 0.0
C578 C 0.50755 0.34389 0.37224 0.0
C579 C 0.45955 0.36078 0.46232 0.0
O580 O 0.42215 0.35402 0.35413 0.0
O581 O 0.42057 0.399 0.33821 0.0
O582 O 0.43772 0.41731 0.42018 0.0
O583 O 0.47902 0.42173 0.39812 0.0
O584 O 0.48515 0.39047 0.32869 0.0
O585 O 0.524 0.4116 0.35751 0.0
O586 O 0.53164 0.41882 0.45991 0.0
O587 O 0.55669 0.38357 0.43764 0.0
O588 O 0.53164 0.35732 0.37544 0.0
O589 O 0.48882 0.35382 0.39408 0.0
O590 O 0.48553 0.37187 0.46171 0.0
O591 O 0.44318 0.36039 0.43219 0.0
H592 H 0.44547 0.34357 0.28468 0.0
H593 H 0.43426 0.32718 0.22101 0.0
H594 H 0.35232 0.36899 0.22798 0.0
H595 H 0.36339 0.38447 0.29191 0.0
H596 H 0.5842 0.42769 0.52063 0.0
H597 H 0.59193 0.41011 0.58459 0.0
H598 H 0.54326 0.33439 0.55823 0.0
H599 H 0.53476 0.35271 0.49517 0.0
Nd600 Nd 0.0426 0.59557 0.8728 0.0
Nd601 Nd 0.98719 0.60979 0.92054 0.0
C602 C 0.08512 0.59624 0.82381 0.0
C603 C 0.09195 0.60652 0.78552 0.0
C604 C 0.07652 0.62874 0.76862 0.0
C605 C 0.08435 0.63904 0.73303 0.0
C606 C 0.10778 0.6273 0.71353 0.0
C607 C 0.12275 0.60466 0.73043 0.0
C608 C 0.11492 0.59444 0.76597 0.0
C609 C 0.02414 0.55197 0.91772 0.0
C610 C 0.98048 0.60088 0.82887 0.0
C611 C 0.93866 0.61461 0.95862 0.0
C612 C 0.9307 0.61825 0.99853 0.0
C613 C 0.95154 0.62295 0.02614 0.0
C614 C 0.94362 0.62803 0.06358 0.0
C615 C 0.91467 0.62847 0.0742 0.0
C616 C 0.89397 0.62316 0.04643 0.0
C617 C 0.90192 0.61814 1.00903 0.0
C618 C 0.01926 0.65444 0.89519 0.0
C619 C 0.04808 0.61154 0.96264 0.0
O620 O 0.08153 0.61575 0.84987 0.0
O621 O 0.06703 0.57499 0.8266 0.0
O622 O 0.05057 0.55517 0.90793 0.0
O623 O 0.00826 0.5694 0.90058 0.0
O624 O 0.00821 0.59591 0.82668 0.0
O625 O 0.9675 0.60613 0.86127 0.0
O626 O 0.94959 0.59007 0.94893 0.0
O627 O 0.95184 0.63611 0.94302 0.0
O628 O 0.00751 0.65413 0.92825 0.0
O629 O 0.01313 0.63243 0.87717 0.0
O630 O 0.02094 0.60445 0.9662 0.0
O631 O 0.06035 0.61405 0.92902 0.0
H632 H 0.05867 0.63838 0.78315 0.0
H633 H 0.07245 0.65665 0.72121 0.0
H634 H 0.14055 0.59471 0.71615 0.0
H635 H 0.12705 0.5772 0.77839 0.0
H636 H 0.97392 0.62301 1.01864 0.0
H637 H 0.96018 0.63163 0.0842 0.0
H638 H 0.8715 0.62367 0.05336 0.0
H639 H 0.88551 0.61466 0.98814 0.0
C640 C 0.08607 0.13311 0.04924 0.0
C641 C 0.05986 0.11872 0.05089 0.0
C642 C 0.09815 0.1412 1.01458 0.0
C643 C 0.08388 0.13453 0.98059 0.0
C644 C 0.05755 0.11979 0.98209 0.0
C645 C 0.04585 0.1122 1.01709 0.0
C646 C 0.12611 0.15712 1.01433 0.0
C647 C 0.04165 0.11198 0.94667 0.0
C648 C 0.10067 0.17626 0.89109 0.0
C649 C 0.11923 0.1577 0.87197 0.0
C650 C 0.08941 0.16923 0.92659 0.0
C651 C 0.09652 0.14281 0.94347 0.0
C652 C 0.11535 0.12406 0.92452 0.0
C653 C 0.12657 0.13178 0.88927 0.0
C654 C 0.06956 0.18997 0.94581 0.0
C655 C 0.12341 0.09562 0.94133 0.0
H656 H 0.09704 0.1384 0.07509 0.0
H657 H 0.02568 0.10097 1.01788 0.0
H658 H 0.14224 0.14494 0.99813 0.0
H659 H 0.12342 0.17801 1.00014 0.0
H660 H 0.13444 0.16089 0.0431 0.0
H661 H 0.02179 0.09988 0.95258 0.0
H662 H 0.03601 0.13158 0.93091 0.0
H663 H 0.05546 0.09888 0.92812 0.0
H664 H 0.09438 0.1961 0.87796 0.0
H665 H 0.14123 0.11742 0.87527 0.0
H666 H 0.07747 0.19493 0.97444 0.0
H667 H 0.04817 0.18019 0.94897 0.0
H668 H 0.06731 0.21024 0.92994 0.0
H669 H 0.1335 0.09883 0.96917 0.0
H670 H 0.13834 0.08346 0.92314 0.0
H671 H 0.10399 0.08255 0.94586 0.0
C672 C 0.11169 0.82486 0.29376 0.0
C673 C 0.12125 0.79649 0.29491 0.0
C674 C 0.10431 0.83799 0.2595 0.0
C675 C 0.10645 0.82243 0.22543 0.0
C676 C 0.11581 0.79371 0.22646 0.0
C677 C 0.12311 0.78116 0.26103 0.0
C678 C 0.09444 0.86862 0.25973 0.0
C679 C 0.11833 0.77621 0.19096 0.0
C680 C 0.06523 0.84726 0.13892 0.0
C681 C 0.08643 0.86112 0.1178 0.0
C682 C 0.07132 0.83487 0.17403 0.0
C683 C 0.09936 0.83627 0.18865 0.0
C684 C 0.1208 0.85047 0.16772 0.0
C685 C 0.1141 0.86268 0.13268 0.0
C686 C 0.04777 0.82004 0.19534 0.0
C687 C 0.15099 0.8524 0.1821 0.0
H688 H 0.11015 0.83696 0.31963 0.0
H689 H 0.13041 0.75924 0.26136 0.0
H690 H 0.10914 0.88187 0.24265 0.0
H691 H 0.07303 0.87025 0.24675 0.0
H692 H 0.09341 0.87765 0.28856 0.0
H693 H 0.12536 0.75399 0.19659 0.0
H694 H 0.09751 0.77549 0.17627 0.0
H695 H 0.13383 0.78633 0.17155 0.0
H696 H 0.04372 0.84617 0.12806 0.0
H697 H 0.13079 0.8729 0.1165 0.0
H698 H 0.04534 0.82971 0.22362 0.0
H699 H 0.0533 0.79725 0.19947 0.0
H700 H 0.02698 0.82128 0.18052 0.0
H701 H 0.15124 0.8626 0.21023 0.0
H702 H 0.16503 0.8648 0.16299 0.0
H703 H 0.15999 0.83067 0.18535 0.0
C704 C 0.40162 0.79759 0.38141 0.0
C705 C 0.38644 0.81841 0.3613 0.0
C706 C 0.41254 0.8032 0.41745 0.0
C707 C 0.4082 0.83031 0.43404 0.0
C708 C 0.39257 0.8513 0.41421 0.0
C709 C 0.38194 0.84513 0.37818 0.0
C710 C 0.42914 0.78024 0.43751 0.0
C711 C 0.38772 0.8806 0.43067 0.0
C712 C 0.41696 0.84049 0.53984 0.0
C713 C 0.44415 0.85285 0.5421 0.0
C714 C 0.4052 0.83255 0.50498 0.0
C715 C 0.4209 0.83721 0.47148 0.0
C716 C 0.44848 0.84933 0.47366 0.0
C717 C 0.45978 0.85679 0.50883 0.0
C718 C 0.37571 0.81974 0.50389 0.0
C719 C 0.46606 0.85477 0.43883 0.0
H720 H 0.40504 0.7768 0.36898 0.0
H721 H 0.37074 0.8616 0.36279 0.0
H722 H 0.45143 0.78741 0.44178 0.0
H723 H 0.41984 0.77629 0.4657 0.0
H724 H 0.42945 0.75983 0.42163 0.0
H725 H 0.37421 0.89418 0.41236 0.0
H726 H 0.37736 0.87879 0.4586 0.0
H727 H 0.40848 0.89145 0.43491 0.0
H728 H 0.40464 0.83735 0.56527 0.0
H729 H 0.48071 0.86644 0.51003 0.0
H730 H 0.37619 0.79894 0.48901 0.0
H731 H 0.36121 0.83396 0.48797 0.0
H732 H 0.36672 0.81643 0.53245 0.0
H733 H 0.47298 0.83411 0.42664 0.0
H734 H 0.48527 0.8678 0.44495 0.0
H735 H 0.45328 0.86597 0.41719 0.0
C736 C 0.38631 0.15484 0.78994 0.0
C737 C 0.37695 0.18318 0.79302 0.0
C738 C 0.39478 0.14343 0.75503 0.0
C739 C 0.39378 0.1607 0.72236 0.0
C740 C 0.38434 0.18929 0.72532 0.0
C741 C 0.37609 0.20014 0.76047 0.0
C742 C 0.40487 0.1129 0.7531 0.0
C743 C 0.38288 0.20851 0.69131 0.0
C744 C 0.43758 0.14182 0.63546 0.0
C745 C 0.417 0.12938 0.61197 0.0
C746 C 0.43051 0.15151 0.67173 0.0
C747 C 0.40213 0.14886 0.68491 0.0
C748 C 0.38139 0.1359 0.66162 0.0
C749 C 0.38907 0.12625 0.6256 0.0
C750 C 0.45329 0.16517 0.69563 0.0
C751 C 0.35088 0.13269 0.67448 0.0
H752 H 0.3872 0.14158 0.81483 0.0
H753 H 0.36894 0.22208 0.76233 0.0
H754 H 0.39106 0.10051 0.7338 0.0
H755 H 0.42682 0.1121 0.74155 0.0
H756 H 0.40476 0.10238 0.78106 0.0
H757 H 0.37484 0.23017 0.69831 0.0
H758 H 0.40433 0.21065 0.6785 0.0
H759 H 0.36871 0.19898 0.66977 0.0
H760 H 0.45913 0.14469 0.62516 0.0
H761 H 0.37311 0.11623 0.60803 0.0
H762 H 0.4543 0.15461 0.72347 0.0
H763 H 0.44796 0.18791 0.7006 0.0
H764 H 0.47468 0.16403 0.68229 0.0
H765 H 0.35006 0.12074 0.70135 0.0
H766 H 0.33749 0.1214 0.65349 0.0
H767 H 0.34149 0.15404 0.67977 0.0
C768 C 0.89327 0.84569 0.15859 0.0
C769 C 0.89765 0.81994 0.17792 0.0
C770 C 0.90517 0.85041 0.12283 0.0
C771 C 0.92178 0.82882 0.10557 0.0
C772 C 0.92599 0.80263 0.12462 0.0
C773 C 0.91399 0.79855 0.16049 0.0
C774 C 0.90025 0.87872 0.10367 0.0
C775 C 0.94359 0.77906 0.10735 0.0
C776 C 0.93317 0.83533 0.99955 0.0
C777 C 0.96005 0.8484 0.99769 0.0
C778 C 0.92079 0.82805 0.03438 0.0
C779 C 0.9355 0.83417 0.06823 0.0
C780 C 0.9629 0.8467 0.06644 0.0
C781 C 0.97483 0.85346 0.03135 0.0
C782 C 0.89162 0.81453 0.035 0.0
C783 C 0.97937 0.85378 0.10167 0.0
H784 H 0.88034 0.86222 0.17135 0.0
H785 H 0.9179 0.77871 0.17522 0.0
H786 H 0.92095 0.88955 0.09873 0.0
H787 H 0.89022 0.87531 0.07583 0.0
H788 H 0.88642 0.89312 0.12048 0.0
H789 H 0.9434 0.75935 0.12466 0.0
H790 H 0.93549 0.77384 0.07889 0.0
H791 H 0.96596 0.78628 0.10409 0.0
H792 H 0.92149 0.8313 0.97385 0.0
H793 H -0.0045 0.86366 0.03051 0.0
H794 H 0.87624 0.82918 0.04875 0.0
H795 H 0.89205 0.79459 0.05177 0.0
H796 H 0.88373 0.8095 1.00634 0.0
H797 H 0.96669 0.86824 0.11984 0.0
H798 H 8e-05 0.86423 0.09544 0.0
H799 H 0.98348 0.83405 0.11796 0.0
C800 C 0.88502 0.14958 0.75964 0.0
C801 C 0.87857 0.17873 0.75656 0.0
C802 C 0.8933 0.13757 0.79423 0.0
C803 C 0.89514 0.15506 0.82664 0.0
C804 C 0.88886 0.18451 0.82365 0.0
C805 C 0.88067 0.19593 0.7888 0.0
C806 C 0.9 0.10612 0.79615 0.0
C807 C 0.89048 0.20399 0.85741 0.0
C808 C 0.88889 0.12207 0.92413 0.0
C809 C 0.91728 0.12219 0.9366 0.0
C810 C 0.88149 0.13227 0.8883 0.0
C811 C 0.90299 0.14261 0.86392 0.0
C812 C 0.93178 0.14214 0.87586 0.0
C813 C 0.93856 0.13206 0.91202 0.0
C814 C 0.85053 0.13245 0.8768 0.0
C815 C 0.95539 0.15293 0.85077 0.0
H816 H 0.88361 0.13606 0.73501 0.0
H817 H 0.87594 0.21848 0.78694 0.0
H818 H 0.92193 0.10293 0.80696 0.0
H819 H 0.88525 0.09545 0.81605 0.0
H820 H 0.8982 0.09553 0.76833 0.0
H821 H 0.88699 0.22669 0.84988 0.0
H822 H 0.87414 0.19761 0.87833 0.0
H823 H 0.91157 0.20207 0.87119 0.0
H824 H 0.8723 0.114 0.94246 0.0
H825 H 0.96052 0.13262 0.92136 0.0
H826 H 0.84773 0.12043 0.8502 0.0
H827 H 0.8435 0.15468 0.87154 0.0
H828 H 0.83645 0.12293 0.89856 0.0
H829 H 0.95457 0.14205 0.8231 0.0
H830 H 0.97681 0.14954 0.86324 0.0
H831 H 0.95249 0.17608 0.84556 0.0
C832 C 0.60801 0.1865 0.65563 0.0
C833 C 0.6185 0.16535 0.67992 0.0
C834 C 0.59701 0.17953 0.62 0.0
C835 C 0.59648 0.15068 0.6081 0.0
C836 C 0.60731 0.12927 0.63226 0.0
C837 C 0.61812 0.13683 0.66777 0.0
C838 C 0.5857 0.20306 0.59522 0.0
C839 C 0.6071 0.09826 0.62081 0.0
C840 C 0.54341 0.1281 0.53263 0.0
C841 C 0.56056 0.12677 0.50027 0.0
C842 C 0.55474 0.13603 0.56768 0.0
C843 C 0.58407 0.14277 0.57076 0.0
C844 C 0.60152 0.14156 0.53826 0.0
C845 C 0.58959 0.13362 0.50347 0.0
C846 C 0.53528 0.13708 0.60149 0.0
C847 C 0.63287 0.14856 0.54026 0.0
H848 H 0.60851 0.20862 0.6644 0.0
H849 H 0.62571 0.12023 0.6864 0.0
H850 H 0.59714 0.20306 0.56793 0.0
H851 H 0.56283 0.19929 0.58912 0.0
H852 H 0.58798 0.22445 0.60833 0.0
H853 H 0.61704 0.08427 0.6423 0.0
H854 H 0.58485 0.09107 0.6162 0.0
H855 H 0.61868 0.09547 0.59387 0.0
H856 H 0.52095 0.12302 0.53068 0.0
H857 H 0.6031 0.13273 0.47879 0.0
H858 H 0.53612 0.15851 0.61466 0.0
H859 H 0.54254 0.12147 0.62284 0.0
H860 H 0.51279 0.13223 0.59418 0.0
H861 H 0.63585 0.17051 0.55125 0.0
H862 H 0.64351 0.14695 0.51244 0.0
H863 H 0.64364 0.13383 0.56007 0.0
C864 C 0.60032 0.86204 0.41154 0.0
C865 C 0.57239 0.86262 0.42573 0.0
C866 C 0.60636 0.85052 0.37587 0.0
C867 C 0.58394 0.83943 0.35359 0.0
C868 C 0.55569 0.84013 0.3676 0.0
C869 C 0.5503 0.85164 0.40341 0.0
C870 C 0.63682 0.84987 0.36221 0.0
C871 C 0.53116 0.82844 0.34492 0.0
C872 C 0.59738 0.83224 0.24822 0.0
C873 C 0.60463 0.8033 0.24482 0.0
C874 C 0.59017 0.84416 0.28328 0.0
C875 C 0.59014 0.82677 0.31585 0.0
C876 C 0.59668 0.79739 0.31243 0.0
C877 C 0.60383 0.78606 0.27707 0.0
C878 C 0.58316 0.87553 0.28562 0.0
C879 C 0.59702 0.77797 0.34625 0.0
H880 H 0.61763 0.87003 0.42871 0.0
H881 H 0.52865 0.85218 0.41388 0.0
H882 H 0.64355 0.82748 0.35733 0.0
H883 H 0.63862 0.86122 0.33496 0.0
H884 H 0.65176 0.85983 0.38253 0.0
H885 H 0.51038 0.83102 0.35951 0.0
H886 H 0.53004 0.83939 0.31734 0.0
H887 H 0.53463 0.80542 0.33925 0.0
H888 H 0.59795 0.84581 0.2236 0.0
H889 H 0.60924 0.76366 0.2749 0.0
H890 H 0.59904 0.88651 0.30361 0.0
H891 H 0.56198 0.87856 0.2989 0.0
H892 H 0.58303 0.88592 0.25758 0.0
H893 H 0.61596 0.78288 0.36371 0.0
H894 H 0.59793 0.75513 0.3381 0.0
H895 H 0.57786 0.78137 0.36397 0.0
C896 C 0.60444 0.68634 0.38082 0.0
C897 C 0.62263 0.66781 0.36107 0.0
C898 C 0.59359 0.67909 0.41646 0.0
C899 C 0.60085 0.65254 0.43287 0.0
C900 C 0.61955 0.63395 0.41342 0.0
C901 C 0.63028 0.64184 0.37798 0.0
C902 C 0.5738 0.69962 0.43617 0.0
C903 C 0.62774 0.60538 0.4297 0.0
C904 C 0.58971 0.6413 0.53827 0.0
C905 C 0.56346 0.62694 0.5392 0.0
C906 C 0.60207 0.64987 0.50397 0.0
C907 C 0.58805 0.6437 0.46964 0.0
C908 C 0.56175 0.62889 0.47041 0.0
C909 C 0.54976 0.62087 0.50505 0.0
C910 C 0.63002 0.66579 0.50446 0.0
C911 C 0.54607 0.62165 0.43461 0.0
H912 H 0.59799 0.70625 0.36797 0.0
H913 H 0.64466 0.62752 0.36341 0.0
H914 H 0.5523 0.68998 0.43865 0.0
H915 H 0.58151 0.70392 0.46508 0.0
H916 H 0.57186 0.72023 0.42098 0.0
H917 H 0.64307 0.59367 0.41156 0.0
H918 H 0.63741 0.60826 0.45787 0.0
H919 H 0.60842 0.59203 0.43339 0.0
H920 H 0.60045 0.64626 0.56441 0.0
H921 H 0.52959 0.60968 0.50527 0.0
H922 H 0.62737 0.68694 0.49093 0.0
H923 H 0.64623 0.65392 0.488 0.0
H924 H 0.63821 0.66902 0.53342 0.0
H925 H 0.53883 0.64156 0.42077 0.0
H926 H 0.5272 0.60791 0.4398 0.0
H927 H 0.56047 0.61051 0.41468 0.0
C928 C 0.61028 0.28349 0.76247 0.0
C929 C 0.60564 0.29885 0.79584 0.0
C930 C 0.60339 0.29503 0.72721 0.0
C931 C 0.59146 0.32272 0.725 0.0
C932 C 0.58623 0.33819 0.75855 0.0
C933 C 0.59338 0.3261 0.79352 0.0
C934 C 0.60935 0.2777 0.69229 0.0
C935 C 0.57358 0.36777 0.75745 0.0
C936 C 0.60061 0.36302 0.63266 0.0
C937 C 0.57398 0.35912 0.61539 0.0
C938 C 0.60643 0.35159 0.6684 0.0
C939 C 0.5852 0.33573 0.68752 0.0
C940 C 0.55826 0.33182 0.67043 0.0
C941 C 0.55299 0.34355 0.63474 0.0
C942 C 0.6355 0.35617 0.6855 0.0
C943 C 0.53502 0.31502 0.68971 0.0
H944 H 0.61998 0.26257 0.76367 0.0
H945 H 0.58975 0.33823 0.819 0.0
H946 H 0.58928 0.27413 0.67653 0.0
H947 H 0.62403 0.28953 0.67347 0.0
H948 H 0.61901 0.25666 0.69883 0.0
H949 H 0.56992 0.37663 0.786 0.0
H950 H 0.58805 0.38232 0.74194 0.0
H951 H 0.55301 0.36745 0.74214 0.0
H952 H 0.61723 0.3745 0.6179 0.0
H953 H 0.53229 0.34053 0.62206 0.0
H954 H 0.64611 0.33531 0.69005 0.0
H955 H 0.63337 0.36657 0.71338 0.0
H956 H 0.64946 0.36958 0.6675 0.0
H957 H 0.54225 0.29278 0.69443 0.0
H958 H 0.515 0.31449 0.67309 0.0
H959 H 0.53034 0.3244 0.71767 0.0
C960 C 0.96086 0.36246 1.01537 0.0
C961 C 0.94544 0.35716 0.04852 0.0
C962 C 0.94983 0.35521 0.97996 0.0
C963 C 0.9226 0.34235 0.97737 0.0
C964 C 0.90687 0.33697 1.01064 0.0
C965 C 0.91847 0.3444 0.04578 0.0
C966 C 0.96739 0.36134 0.94531 0.0
C967 C 0.87768 0.32351 1.00908 0.0
C968 C 0.88414 0.34844 0.88346 0.0
C969 C 0.88906 0.32152 0.86744 0.0
C970 C 0.89453 0.35532 0.91939 0.0
C971 C 0.9105 0.3349 0.93978 0.0
C972 C 0.91543 0.30763 0.92384 0.0
C973 C 0.90453 0.30123 0.888 0.0
C974 C 0.88861 0.38455 0.93542 0.0
C975 C 0.93268 0.28538 0.94434 0.0
H976 H 0.98161 0.3725 1.01695 0.0
H977 H 0.90631 0.34027 0.0711 0.0
H978 H 0.97263 0.34104 0.93085 0.0
H979 H 0.95504 0.37455 0.92528 0.0
H980 H 0.98755 0.37266 0.95203 0.0
H981 H 0.86819 0.32066 0.03744 0.0
H982 H 0.86318 0.33698 0.99204 0.0
H983 H 0.87894 0.30238 0.99514 0.0
H984 H 0.87195 0.36412 0.86793 0.0
H985 H 0.90872 0.28051 0.87564 0.0
H986 H 0.90897 0.39593 0.94057 0.0
H987 H 0.87758 0.38256 0.96288 0.0
H988 H 0.87527 0.39776 0.91644 0.0
H989 H 0.95467 0.29335 0.94883 0.0
H990 H 0.9338 0.26491 0.92868 0.0
H991 H 0.9233 0.28127 0.97244 0.0
C992 C 0.84649 0.69246 0.26142 0.0
C993 C 0.85798 0.68181 0.29505 0.0
C994 C 0.85533 0.68203 0.22629 0.0
C995 C 0.87628 0.66034 0.22442 0.0
C996 C 0.88723 0.64873 0.25827 0.0
C997 C 0.87791 0.65955 0.29318 0.0
C998 C 0.84291 0.69501 0.1911 0.0
C999 C 0.90962 0.62565 0.25757 0.0
C1000 C 0.88334 0.6208 0.13102 0.0
C1001 C 0.90597 0.63538 0.11367 0.0
C1002 C 0.87393 0.62817 0.16734 0.0
C1003 C 0.88738 0.65074 0.18699 0.0
C1004 C 0.91059 0.66518 0.16996 0.0
C1005 C 0.91959 0.65733 0.13365 0.0
C1006 C 0.84915 0.61222 0.18436 0.0
C1007 C 0.92545 0.68951 0.1897 0.0
H1008 H 0.83097 0.70957 0.26246 0.0
H1009 H 0.8871 0.65136 0.31892 0.0
H1010 H 0.85989 0.70617 0.17514 0.0
H1011 H 0.83422 0.67806 0.17262 0.0
H1012 H 0.82567 0.71054 0.19736 0.0
H1013 H 0.91463 0.61757 0.28614 0.0
H1014 H 0.90243 0.60753 0.23992 0.0
H1015 H 0.92947 0.6341 0.24478 0.0
H1016 H 0.8729 0.60356 0.11612 0.0
H1017 H 0.93681 0.66902 0.12043 0.0
H1018 H 0.83104 0.62704 0.18885 0.0
H1019 H 0.85515 0.60355 0.21224 0.0
H1020 H 0.84184 0.59435 0.16627 0.0
H1021 H 0.91033 0.70744 0.19381 0.0
H1022 H 0.94413 0.69748 0.17365 0.0
H1023 H 0.9327 0.68265 0.21794 0.0
C1024 C 0.46415 0.35351 0.53186 0.0
C1025 C 0.44811 0.35025 0.49884 0.0
C1026 C 0.45293 0.34617 0.56715 0.0
C1027 C 0.42504 0.3348 0.5697 0.0
C1028 C 0.40895 0.33076 0.53644 0.0
C1029 C 0.42063 0.33859 0.50146 0.0
C1030 C 0.4709 0.35096 0.60174 0.0
C1031 C 0.37909 0.31886 0.53792 0.0
C1032 C 0.40423 0.29552 0.65954 0.0
C1033 C 0.38985 0.31685 0.67984 0.0
C1034 C 0.4156 0.30094 0.62363 0.0
C1035 C 0.41235 0.32829 0.6073 0.0
C1036 C 0.39758 0.3498 0.62738 0.0
C1037 C 0.38665 0.34388 0.66334 0.0
C1038 C 0.43138 0.27747 0.60335 0.0
C1039 C 0.39379 0.37931 0.61114 0.0
H1040 H 0.48535 0.36254 0.53037 0.0
H1041 H 0.40799 0.33598 0.47623 0.0
H1042 H 0.45866 0.3626 0.62356 0.0
H1043 H 0.47711 0.33006 0.61381 0.0
H1044 H 0.49052 0.36331 0.5954 0.0
H1045 H 0.36982 0.31586 0.50949 0.0
H1046 H 0.37901 0.29805 0.55274 0.0
H1047 H 0.36514 0.33352 0.5541 0.0
H1048 H 0.40652 0.27444 0.67164 0.0
H1049 H 0.37608 0.36071 0.67887 0.0
H1050 H 0.45382 0.284 0.59864 0.0
H1051 H 0.42172 0.27373 0.57534 0.0
H1052 H 0.43124 0.2571 0.61927 0.0
H1053 H 0.41492 0.38936 0.60662 0.0
H1054 H 0.38095 0.39338 0.62972 0.0
H1055 H 0.38317 0.37797 0.58336 0.0
C1056 C 0.40001 0.6305 0.40452 0.0
C1057 C 0.42712 0.63292 0.42085 0.0
C1058 C 0.39447 0.64117 0.36835 0.0
C1059 C 0.41656 0.65458 0.34774 0.0
C1060 C 0.44412 0.65664 0.36372 0.0
C1061 C 0.44907 0.6458 0.4 0.0
C1062 C 0.36473 0.63866 0.35251 0.0
C1063 C 0.46823 0.67089 0.34283 0.0
C1064 C 0.40508 0.66305 0.24211 0.0
C1065 C 0.39527 0.69127 0.23968 0.0
C1066 C 0.41283 0.65105 0.27692 0.0
C1067 C 0.41038 0.66751 0.31021 0.0
C1068 C 0.40086 0.6961 0.30782 0.0
C1069 C 0.39377 0.70766 0.27268 0.0
C1070 C 0.423 0.62053 0.27821 0.0
C1071 C 0.39765 0.71447 0.34244 0.0
H1072 H 0.38301 0.62023 0.42008 0.0
H1073 H 0.47001 0.64811 0.41245 0.0
H1074 H 0.35581 0.66026 0.34757 0.0
H1075 H 0.36533 0.62755 0.325 0.0
H1076 H 0.35013 0.62687 0.37156 0.0
H1077 H 0.48882 0.66909 0.35801 0.0
H1078 H 0.47069 0.66129 0.31451 0.0
H1079 H 0.46329 0.69382 0.33882 0.0
H1080 H 0.40637 0.65016 0.21688 0.0
H1081 H 0.38623 0.72946 0.27132 0.0
H1082 H 0.40775 0.60743 0.29463 0.0
H1083 H 0.44389 0.6193 0.29268 0.0
H1084 H 0.42521 0.61108 0.24973 0.0
H1085 H 0.38539 0.70307 0.36446 0.0
H1086 H 0.38664 0.7349 0.33625 0.0
H1087 H 0.41899 0.71931 0.35417 0.0
C1088 C 0.13349 0.63294 0.15754 0.0
C1089 C 0.12837 0.66023 0.1725 0.0
C1090 C 0.12264 0.62482 0.12222 0.0
C1091 C 0.10605 0.64432 0.10114 0.0
C1092 C 0.10135 0.6721 0.11561 0.0
C1093 C 0.11258 0.67972 0.15092 0.0
C1094 C 0.12823 0.595 0.10799 0.0
C1095 C 0.08378 0.69361 0.09423 0.0
C1096 C 0.09153 0.63042 0.9967 0.0
C1097 C 0.06408 0.61854 0.99774 0.0
C1098 C 0.10562 0.63866 0.03004 0.0
C1099 C 0.09195 0.63502 0.06532 0.0
C1100 C 0.06445 0.62264 0.0665 0.0
C1101 C 0.05097 0.61453 0.03292 0.0
C1102 C 0.13497 0.65163 0.0275 0.0
C1103 C 0.04897 0.61829 0.10329 0.0
H1104 H 0.14529 0.61751 0.17395 0.0
H1105 H 0.10887 0.70102 0.16171 0.0
H1106 H 0.10791 0.58295 0.10667 0.0
H1107 H 0.13706 0.59575 0.07907 0.0
H1108 H 0.14331 0.58312 0.12623 0.0
H1109 H 0.08337 0.71478 0.10825 0.0
H1110 H 0.09233 0.69627 0.06537 0.0
H1111 H 0.06156 0.68578 0.09156 0.0
H1112 H 0.10187 0.63371 0.96981 0.0
H1113 H 0.02983 0.60529 0.03436 0.0
H1114 H 0.15014 0.63926 0.04497 0.0
H1115 H 0.13456 0.67369 0.03877 0.0
H1116 H 0.14309 0.65227 0.99818 0.0
H1117 H 0.02776 0.6082 0.09947 0.0
H1118 H 0.04598 0.63911 0.11761 0.0
H1119 H 0.06187 0.60465 0.12221 0.0
C1120 C 0.09428 0.32096 0.75802 0.0
C1121 C 0.10172 0.29202 0.75532 0.0
C1122 C 0.08745 0.33343 0.79285 0.0
C1123 C 0.08791 0.31659 0.82589 0.0
C1124 C 0.09444 0.28716 0.82317 0.0
C1125 C 0.10134 0.27529 0.78803 0.0
C1126 C 0.08053 0.36485 0.79444 0.0
C1127 C 0.09517 0.26828 0.8575 0.0
C1128 C 0.10024 0.35371 0.91985 0.0
C1129 C 0.07258 0.35498 0.93485 0.0
C1130 C 0.10549 0.34133 0.88448 0.0
C1131 C 0.08254 0.33 0.86338 0.0
C1132 C 0.05456 0.33135 0.87822 0.0
C1133 C 0.04994 0.34378 0.91368 0.0
C1134 C 0.13568 0.34007 0.86986 0.0
C1135 C 0.02952 0.31935 0.85683 0.0
H1136 H 0.09457 0.33416 0.73304 0.0
H1137 H 0.10692 0.25291 0.78638 0.0
H1138 H 0.05967 0.3682 0.80844 0.0
H1139 H 0.09683 0.37613 0.81143 0.0
H1140 H 0.0798 0.37472 0.76609 0.0
H1141 H 0.11503 0.27251 0.87343 0.0
H1142 H 0.07693 0.27278 0.87643 0.0
H1143 H 0.09473 0.24532 0.84987 0.0
H1144 H 0.11795 0.36183 0.93615 0.0
H1145 H 0.02849 0.34482 0.92478 0.0
H1146 H 0.13707 0.35086 0.84219 0.0
H1147 H 0.14209 0.31752 0.86555 0.0
H1148 H 0.1511 0.35027 0.88934 0.0
H1149 H 0.02791 0.32973 0.82892 0.0
H1150 H 0.00905 0.32237 0.87203 0.0
H1151 H 0.03275 0.2962 0.85188 0.0
C1152 C 0.98219 0.29306 0.17788 0.0
C1153 C 0.00232 0.31232 0.19138 0.0
C1154 C 0.98269 0.26471 0.1897 0.0
C1155 C 0.00326 0.25609 0.21663 0.0
C1156 C 0.02055 0.27666 0.23454 0.0
C1157 C 0.02036 0.30466 0.221 0.0
C1158 C 0.96347 0.24356 0.17003 0.0
C1159 C 0.04088 0.26899 0.2657 0.0
C1160 C 0.99065 0.17842 0.22339 0.0
C1161 C 0.00769 0.16955 0.19326 0.0
C1162 C -0.00735 0.20636 0.23688 0.0
C1163 C 0.01088 0.22564 0.21816 0.0
C1164 C 0.0311 0.2154 0.19175 0.0
C1165 C 0.02944 0.18707 0.17988 0.0
C1166 C 0.97313 0.21589 0.26813 0.0
C1167 C 0.05183 0.23511 0.17223 0.0
H1168 H 0.96783 0.29946 0.15556 0.0
H1169 H 0.03517 0.32016 0.23244 0.0
H1170 H 0.9765 0.22805 0.15389 0.0
H1171 H 0.95081 0.23142 0.19088 0.0
H1172 H 0.94845 0.25407 0.1503 0.0
H1173 H 0.063 0.26885 0.25467 0.0
H1174 H 0.03997 0.28544 0.28811 0.0
H1175 H 0.03611 0.24788 0.27831 0.0
H1176 H 0.97469 0.16414 0.23491 0.0
H1177 H 0.04315 0.17962 0.15737 0.0
H1178 H 0.95227 0.22233 0.25626 0.0
H1179 H 0.98218 0.23435 0.2836 0.0
H1180 H 0.9692 0.19817 0.2882 0.0
H1181 H 0.03998 0.25051 0.15444 0.0
H1182 H 0.06711 0.22333 0.15409 0.0
H1183 H 0.0641 0.24747 0.19323 0.0
C1184 C 0.94957 0.71533 0.37757 0.0
C1185 C 0.92789 0.72173 0.40296 0.0
C1186 C 0.97791 0.71522 0.38929 0.0
C1187 C 0.98439 0.72232 0.42708 0.0
C1188 C 0.96237 0.72684 0.45344 0.0
C1189 C 0.93416 0.72618 0.44104 0.0
C1190 C 0.00095 0.70927 0.36062 0.0
C1191 C 0.96836 0.73463 0.49384 0.0
C1192 C 0.06088 0.70599 0.44214 0.0
C1193 C 0.07289 0.73071 0.42669 0.0
C1194 C 0.03151 0.70399 0.44741 0.0
C1195 C 0.0143 0.72738 0.43719 0.0
C1196 C 0.02686 0.75384 0.42752 0.0
C1197 C 0.05631 0.75517 0.42202 0.0
C1198 C 0.01883 0.67573 0.45896 0.0
C1199 C 0.00898 0.77965 0.41835 0.0
H1200 H 0.94445 0.71158 0.34827 0.0
H1201 H 0.91719 0.73109 0.46074 0.0
H1202 H 0.01319 0.72908 0.35507 0.0
H1203 H 0.01608 0.69309 0.3715 0.0
H1204 H 0.99212 0.70147 0.33355 0.0
H1205 H 0.95027 0.72866 0.51242 0.0
H1206 H 0.98803 0.7243 0.50442 0.0
H1207 H 0.97132 0.75806 0.49589 0.0
H1208 H 0.07405 0.68737 0.44708 0.0
H1209 H 0.06589 0.77454 0.41117 0.0
H1210 H 0.01187 0.66402 0.43346 0.0
H1211 H -0.00012 0.67879 0.47716 0.0
H1212 H 0.03459 0.6623 0.47408 0.0
H1213 H -0.00028 0.7771 0.38987 0.0
H1214 H 0.02181 0.79957 0.41873 0.0
H1215 H 0.99111 0.78182 0.43858 0.0
C1216 C 0.49503 0.68419 0.71427 0.0
C1217 C 0.51089 0.67713 0.68226 0.0
C1218 C 0.49686 0.71157 0.72964 0.0
C1219 C 0.51348 0.73222 0.71086 0.0
C1220 C 0.53279 0.72371 0.68225 0.0
C1221 C 0.53149 0.69584 0.66854 0.0
C1222 C 0.47864 0.71902 0.76314 0.0
C1223 C 0.55192 0.74486 0.6625 0.0
C1224 C 0.48046 0.79928 0.67609 0.0
C1225 C 0.50082 0.81889 0.68812 0.0
C1226 C 0.4823 0.77081 0.68711 0.0
C1227 C 0.50456 0.76236 0.71168 0.0
C1228 C 0.52207 0.78316 0.72871 0.0
C1229 C 0.52043 0.81136 0.71603 0.0
C1230 C 0.46255 0.74945 0.66878 0.0
C1231 C 0.54412 0.77559 0.75781 0.0
H1232 H 0.48004 0.66895 0.72592 0.0
H1233 H 0.54431 0.68974 0.64446 0.0
H1234 H 0.48629 0.7386 0.77749 0.0
H1235 H 0.45631 0.72241 0.754 0.0
H1236 H 0.47854 0.7011 0.78355 0.0
H1237 H 0.56652 0.73437 0.64215 0.0
H1238 H 0.53879 0.76066 0.64705 0.0
H1239 H 0.56495 0.75663 0.68331 0.0
H1240 H 0.46479 0.80554 0.65529 0.0
H1241 H 0.53541 0.82707 0.72651 0.0
H1242 H 0.45123 0.73688 0.69051 0.0
H1243 H 0.47501 0.73435 0.65122 0.0
H1244 H 0.44634 0.75982 0.65063 0.0
H1245 H 0.54107 0.75383 0.76942 0.0
H1246 H 0.54322 0.79117 0.78126 0.0
H1247 H 0.56571 0.77716 0.74526 0.0
C1248 C 0.56208 0.21986 0.96827 0.0
C1249 C 0.56983 0.24024 0.94137 0.0
C1250 C 0.53389 0.2181 0.98091 0.0
C1251 C 0.5133 0.23629 0.96475 0.0
C1252 C 0.522 0.25931 0.94153 0.0
C1253 C 0.55046 0.2612 0.93052 0.0
C1254 C 0.52586 0.19532 1.00887 0.0
C1255 C 0.50087 0.27995 0.92457 0.0
C1256 C 0.44679 0.21143 0.91965 0.0
C1257 C 0.42808 0.23128 0.93511 0.0
C1258 C 0.47468 0.2096 0.93304 0.0
C1259 C 0.48316 0.2275 0.96324 0.0
C1260 C 0.46253 0.24331 0.98329 0.0
C1261 C 0.43516 0.24572 0.96821 0.0
C1262 C 0.49587 0.19186 0.9112 0.0
C1263 C 0.46994 0.2603 1.0179 0.0
H1264 H 0.57762 0.20439 0.97793 0.0
H1265 H 0.55688 0.2775 0.91061 0.0
H1266 H 0.50654 0.2013 0.02507 0.0
H1267 H 0.52151 0.17505 0.99389 0.0
H1268 H 0.54364 0.19133 0.02874 0.0
H1269 H 0.51143 0.29699 0.90794 0.0
H1270 H 0.48596 0.26833 0.90582 0.0
H1271 H 0.48811 0.29022 0.94702 0.0
H1272 H 0.4407 0.1998 0.89456 0.0
H1273 H 0.41993 0.26018 0.98102 0.0
H1274 H 0.50862 0.17845 0.93048 0.0
H1275 H 0.51079 0.2061 0.89587 0.0
H1276 H 0.48531 0.17768 0.89041 0.0
H1277 H 0.49005 0.2529 0.03104 0.0
H1278 H 0.45243 0.25873 0.03884 0.0
H1279 H 0.47218 0.28315 1.01039 0.0
C1280 C -0.00019 0.80229 0.85068 0.0
C1281 C 0.02371 0.81999 0.85018 0.0
C1282 C 0.0025 0.77357 0.84095 0.0
C1283 C 0.02984 0.76284 0.83175 0.0
C1284 C 0.05228 0.78187 0.82364 0.0
C1285 C 0.04898 0.8106 0.83319 0.0
C1286 C 0.97735 0.75403 0.8469 0.0
C1287 C 0.08103 0.77139 0.81077 0.0
C1288 C 0.03883 0.70299 0.89927 0.0
C1289 C 0.03 0.68017 0.87715 0.0
C1290 C 0.04262 0.72987 0.88333 0.0
C1291 C 0.03668 0.73377 0.84453 0.0
C1292 C 0.03127 0.70997 0.82131 0.0
C1293 C 0.02806 0.68318 0.83804 0.0
C1294 C 0.04988 0.75454 0.90899 0.0
C1295 C 0.02601 0.71281 0.77969 0.0
H1296 H 0.97986 0.81001 0.86222 0.0
H1297 H 0.0671 0.82486 0.8309 0.0
H1298 H 0.97654 0.73745 0.8247 0.0
H1299 H 0.97951 0.74311 0.87443 0.0
H1300 H 0.95691 0.76598 0.84689 0.0
H1301 H 0.07913 0.75163 0.79379 0.0
H1302 H 0.09215 0.78796 0.79394 0.0
H1303 H 0.09437 0.7666 0.8357 0.0
H1304 H 0.04105 0.70021 0.92938 0.0
H1305 H 0.02167 0.6652 0.82082 0.0
H1306 H 0.03088 0.76835 0.91272 0.0
H1307 H 0.06711 0.7677 0.89661 0.0
H1308 H 0.05689 0.74724 0.93719 0.0
H1309 H 0.00273 0.71218 0.77433 0.0
H1310 H 0.03568 0.69455 0.76438 0.0
H1311 H 0.03465 0.73298 0.76804 0.0
C1312 C 0.5478 0.76574 0.11392 0.0
C1313 C 0.56822 0.7473 0.0992 0.0
C1314 C 0.52004 0.76546 0.10007 0.0
C1315 C 0.51318 0.74716 0.06953 0.0
C1316 C 0.53496 0.73156 0.05125 0.0
C1317 C 0.5623 0.73127 0.06698 0.0
C1318 C 0.49766 0.78248 0.12098 0.0
C1319 C 0.52951 0.71396 1.01653 0.0
C1320 C 0.44351 0.71869 0.09793 0.0
C1321 C 0.42698 0.74255 0.0892 0.0
C1322 C 0.47171 0.71709 0.08567 0.0
C1323 C 0.48293 0.73976 0.0639 0.0
C1324 C 0.46437 0.76024 0.04829 0.0
C1325 C 0.43647 0.762 0.06208 0.0
C1326 C 0.49039 0.69348 0.10062 0.0
C1327 C 0.4749 0.78224 1.02073 0.0
H1328 H 0.55285 0.77853 0.13843 0.0
H1329 H 0.57873 0.71787 0.05476 0.0
H1330 H 0.48704 0.79763 0.10168 0.0
H1331 H 0.48112 0.76799 0.13251 0.0
H1332 H 0.50675 0.79493 0.14467 0.0
H1333 H 0.53565 0.69143 1.02174 0.0
H1334 H 0.50706 0.71476 1.0069 0.0
H1335 H 0.54329 0.72192 0.99346 0.0
H1336 H 0.43553 0.70291 0.11757 0.0
H1337 H 0.42292 0.7796 0.05363 0.0
H1338 H 0.50593 0.70236 0.12102 0.0
H1339 H 0.50258 0.68356 0.07734 0.0
H1340 H 0.47785 0.67657 0.11494 0.0
H1341 H 0.48237 0.80142 0.03608 0.0
H1342 H 0.45749 0.78898 1.0016 0.0
H1343 H 0.49294 0.77383 1.0038 0.0
C1344 C 0.49747 0.18319 0.32129 0.0
C1345 C 0.51241 0.17591 0.35391 0.0
C1346 C 0.49964 0.2107 0.30641 0.0
C1347 C 0.51574 0.23124 0.32618 0.0
C1348 C 0.53411 0.22256 0.35573 0.0
C1349 C 0.53249 0.19457 0.36891 0.0
C1350 C 0.48225 0.21828 0.27228 0.0
C1351 C 0.55229 0.24362 0.37717 0.0
C1352 C 0.52423 0.31008 0.32334 0.0
C1353 C 0.50433 0.31745 0.35106 0.0
C1354 C 0.52544 0.28212 0.30959 0.0
C1355 C 0.50705 0.26145 0.32524 0.0
C1356 C 0.48435 0.26998 0.34913 0.0
C1357 C 0.4831 0.29819 0.3614 0.0
C1358 C 0.5475 0.27416 0.28055 0.0
C1359 C 0.4635 0.24878 0.36556 0.0
H1360 H 0.48285 0.168 0.30874 0.0
H1361 H 0.54454 0.18834 0.39356 0.0
H1362 H 0.45942 0.21978 0.28013 0.0
H1363 H 0.48905 0.2388 0.25957 0.0
H1364 H 0.48412 0.20115 0.25085 0.0
H1365 H 0.56665 0.23291 0.39757 0.0
H1366 H 0.56555 0.25635 0.35761 0.0
H1367 H 0.53839 0.25862 0.3929 0.0
H1368 H 0.53974 0.3257 0.31398 0.0
H1369 H 0.46714 0.3044 0.38189 0.0
H1370 H 0.53663 0.26559 0.25527 0.0
H1371 H 0.56167 0.25707 0.29122 0.0
H1372 H 0.5608 0.29268 0.27214 0.0
H1373 H 0.45282 0.23677 0.34277 0.0
H1374 H 0.44682 0.25924 0.38293 0.0
H1375 H 0.47498 0.23319 0.38347 0.0
C1376 C 0.06213 0.21167 0.58166 0.0
C1377 C 0.06863 0.23162 0.60968 0.0
C1378 C 0.03425 0.20922 0.56801 0.0
C1379 C 0.01276 0.22658 0.58386 0.0
C1380 C 0.02016 0.24896 0.60897 0.0
C1381 C 0.04827 0.25143 0.6211 0.0
C1382 C 0.02765 0.18747 0.53796 0.0
C1383 C -0.00193 0.26845 0.62634 0.0
C1384 C 0.93568 0.23862 0.57739 0.0
C1385 C 0.92758 0.22377 0.60981 0.0
C1386 C 0.96304 0.23506 0.56251 0.0
C1387 C 0.9826 0.21783 0.58223 0.0
C1388 C 0.97269 0.19906 0.61066 0.0
C1389 C 0.94485 0.20212 0.62395 0.0
C1390 C 0.97199 0.25259 0.52906 0.0
C1391 C -0.00741 0.17919 0.63128 0.0
H1392 H 0.07853 0.19724 0.57163 0.0
H1393 H 0.05372 0.26731 0.64206 0.0
H1394 H 0.0079 0.17543 0.5444 0.0
H1395 H 0.0241 0.19878 0.51098 0.0
H1396 H 0.0454 0.17209 0.53399 0.0
H1397 H 0.00769 0.28467 0.64524 0.0
H1398 H 0.98615 0.27983 0.60408 0.0
H1399 H 0.98256 0.25577 0.64293 0.0
H1400 H 0.92146 0.25436 0.56528 0.0
H1401 H 0.93791 0.18998 0.64823 0.0
H1402 H 0.99067 0.24304 0.5146 0.0
H1403 H 0.97772 0.27444 0.53834 0.0
H1404 H 0.95413 0.25451 0.50878 0.0
H1405 H 0.00573 0.16684 0.61113 0.0
H1406 H 0.98086 0.16397 0.64953 0.0
H1407 H 0.00725 0.19185 0.6492 0.0
C1408 C -0.00396 0.01726 0.11188 0.0
C1409 C 0.02492 0.0242 0.11496 0.0
C1410 C 0.98595 0.00155 0.08115 0.0
C1411 C 0.00565 0.99035 0.05483 0.0
C1412 C 0.03524 -0.00544 0.06039 0.0
C1413 C 0.04449 0.01211 0.08987 0.0
C1414 C 0.9542 -0.00189 0.07595 0.0
C1415 C 0.05722 0.98151 0.03467 0.0
C1416 C 0.97501 0.93335 0.99087 0.0
C1417 C 0.97692 0.9465 0.9557 0.0
C1418 C 0.98521 0.94686 0.02323 0.0
C1419 C -0.0048 0.97532 1.02077 0.0
C1420 C -0.0047 0.98942 0.98542 0.0
C1421 C 0.9872 0.97436 0.95304 0.0
C1422 C 0.98668 0.92951 0.05897 0.0
C1423 C 0.00425 0.02021 0.98115 0.0
H1424 H 0.98106 0.02557 0.13235 0.0
H1425 H 0.06699 0.01684 0.09271 0.0
H1426 H 0.94797 0.00521 0.04735 0.0
H1427 H 0.94825 0.97532 0.07868 0.0
H1428 H 0.94177 0.01053 0.0969 0.0
H1429 H 0.07771 0.97814 0.0496 0.0
H1430 H 0.04987 0.9608 0.02313 0.0
H1431 H 0.06136 -0.00381 1.01088 0.0
H1432 H 0.96672 0.91192 0.99298 0.0
H1433 H 0.98852 0.98453 0.92573 0.0
H1434 H 0.99016 0.94241 0.08462 0.0
H1435 H 0.00462 0.91417 0.05653 0.0
H1436 H 0.96688 0.91681 0.06258 0.0
H1437 H 0.00127 0.03264 1.00737 0.0
H1438 H 0.99201 0.03075 0.95835 0.0
H1439 H 0.02708 0.02106 0.97316 0.0
C1440 C 0.22886 0.7387 0.35754 0.0
C1441 C 0.21819 0.76656 0.35879 0.0
C1442 C 0.24477 0.7292 0.32666 0.0
C1443 C 0.25183 0.74869 0.29779 0.0
C1444 C 0.24378 0.77769 0.30107 0.0
C1445 C 0.2265 0.78621 0.33126 0.0
C1446 C 0.25211 0.69791 0.32364 0.0
C1447 C 0.25258 0.79949 0.2721 0.0
C1448 C 0.31092 0.7244 0.23304 0.0
C1449 C 0.29613 0.71863 0.19981 0.0
C1450 C 0.29702 0.73564 0.26448 0.0
C1451 C 0.26707 0.73852 0.26382 0.0
C1452 C 0.25165 0.73099 0.231 0.0
C1453 C 0.26655 0.72189 0.19886 0.0
C1454 C 0.31454 0.7446 0.2981 0.0
C1455 C 0.21951 0.73229 0.22996 0.0
H1456 H 0.22286 0.72365 0.3793 0.0
H1457 H 0.21876 0.80797 0.33259 0.0
H1458 H 0.24219 0.68882 0.29799 0.0
H1459 H 0.27545 0.69506 0.3209 0.0
H1460 H 0.24462 0.68551 0.34834 0.0
H1461 H 0.24913 0.82166 0.28218 0.0
H1462 H 0.27539 0.79685 0.26461 0.0
H1463 H 0.23994 0.79638 0.24611 0.0
H1464 H 0.33348 0.7208 0.23442 0.0
H1465 H 0.2551 0.7169 0.17325 0.0
H1466 H 0.33746 0.7469 0.29093 0.0
H1467 H 0.31264 0.72838 0.3206 0.0
H1468 H 0.30683 0.76522 0.3096 0.0
H1469 H 0.2104 0.72081 0.25445 0.0
H1470 H 0.21068 0.72282 0.20383 0.0
H1471 H 0.21237 0.75479 0.23184 0.0
C1472 C 0.49446 0.02491 0.43664 0.0
C1473 C 0.52365 0.03087 0.43544 0.0
C1474 C 0.48277 0.00892 0.46609 0.0
C1475 C 0.50112 -0.0036 0.49293 0.0
C1476 C 0.53101 -0.00034 0.48925 0.0
C1477 C 0.54191 0.01758 0.46111 0.0
C1478 C 0.45076 0.00672 0.46953 0.0
C1479 C 0.55153 0.98506 0.51556 0.0
C1480 C 0.47619 0.97918 0.59188 0.0
C1481 C 0.46636 0.95127 0.5875 0.0
C1482 C 0.4864 -0.00541 0.56085 0.0
C1483 C 0.48887 0.98084 0.52546 0.0
C1484 C 0.47925 0.9524 0.52122 0.0
C1485 C 0.46692 0.93849 0.55199 0.0
C1486 C 0.49448 0.02552 0.56597 0.0
C1487 C 0.48353 0.93581 0.48522 0.0
H1488 H 0.48049 0.03414 0.41571 0.0
H1489 H 0.56464 0.02157 0.4597 0.0
H1490 H 0.444 0.98408 0.46805 0.0
H1491 H 0.44387 0.01515 0.49726 0.0
H1492 H 0.43951 0.01876 0.44715 0.0
H1493 H 0.57266 0.98193 0.50208 0.0
H1494 H 0.55469 -0.0015 0.54085 0.0
H1495 H 0.54328 0.96403 0.5248 0.0
H1496 H 0.47549 0.98906 0.61943 0.0
H1497 H 0.45885 0.9171 0.54851 0.0
H1498 H 0.48579 0.03861 0.54268 0.0
H1499 H 0.51798 0.02772 0.56548 0.0
H1500 H 0.48652 0.03428 0.59304 0.0
H1501 H 0.48131 0.94933 0.45989 0.0
H1502 H 0.46831 0.91775 0.483 0.0
H1503 H 0.50545 0.92689 0.4851 0.0
C1504 C 0.27619 0.25166 0.85894 0.0
C1505 C 0.28018 0.22222 0.86269 0.0
C1506 C 0.25956 0.26271 0.82973 0.0
C1507 C 0.24429 0.24373 0.8063 0.0
C1508 C 0.24537 0.21399 0.81326 0.0
C1509 C 0.26404 0.20351 0.84069 0.0
C1510 C 0.26065 0.29436 0.82187 0.0
C1511 C 0.22794 0.19303 0.79075 0.0
C1512 C 0.18682 0.27669 0.74558 0.0
C1513 C 0.1986 0.2736 0.70965 0.0
C1514 C 0.20104 0.26629 0.77731 0.0
C1515 C 0.22873 0.25477 0.77313 0.0
C1516 C 0.24147 0.25336 0.73702 0.0
C1517 C 0.22576 0.26186 0.70545 0.0
C1518 C 0.18603 0.26675 0.81491 0.0
C1519 C 0.27161 0.24281 0.73169 0.0
H1520 H 0.28779 0.26612 0.87711 0.0
H1521 H 0.26645 0.18067 0.84427 0.0
H1522 H 0.27213 0.29798 0.79499 0.0
H1523 H 0.23898 0.30333 0.81854 0.0
H1524 H 0.27183 0.30635 0.84439 0.0
H1525 H 0.22378 0.17323 0.807 0.0
H1526 H 0.20726 0.20237 0.78219 0.0
H1527 H 0.23978 0.18702 0.76496 0.0
H1528 H 0.16595 0.28613 0.74877 0.0
H1529 H 0.23481 0.25971 0.67755 0.0
H1530 H 0.16322 0.2727 0.81229 0.0
H1531 H 0.19642 0.28228 0.83394 0.0
H1532 H 0.18742 0.24547 0.82848 0.0
H1533 H 0.28608 0.2531 0.75231 0.0
H1534 H 0.27972 0.24716 0.70291 0.0
H1535 H 0.27246 0.21948 0.73657 0.0
C1536 C 0.72982 0.26663 0.84779 0.0
C1537 C 0.70233 0.27743 0.84319 0.0
C1538 C 0.74547 0.257 0.81663 0.0
C1539 C 0.73229 0.25608 0.78079 0.0
C1540 C 0.70437 0.26697 0.77623 0.0
C1541 C 0.69029 0.27863 0.80731 0.0
C1542 C 0.77606 0.24792 0.82209 0.0
C1543 C 0.68825 0.26496 0.73958 0.0
C1544 C 0.77788 0.24939 0.69339 0.0
C1545 C 0.78242 0.21991 0.69193 0.0
C1546 C 0.76174 0.26156 0.72235 0.0
C1547 C 0.7478 0.24355 0.74842 0.0
C1548 C 0.74963 0.21356 0.74429 0.0
C1549 C 0.76762 0.20205 0.71668 0.0
C1550 C 0.76056 0.29364 0.72594 0.0
C1551 C 0.73317 0.1936 0.76946 0.0
H1552 H 0.73918 0.2661 0.87562 0.0
H1553 H 0.66926 0.28754 0.80367 0.0
H1554 H 0.77779 0.22442 0.81958 0.0
H1555 H 0.78984 0.25747 0.80004 0.0
H1556 H 0.78439 0.2543 0.85007 0.0
H1557 H 0.67443 0.28397 0.73559 0.0
H1558 H 0.70227 0.26273 0.71471 0.0
H1559 H 0.67411 0.24598 0.74068 0.0
H1560 H 0.78823 0.2631 0.67302 0.0
H1561 H 0.77043 0.17914 0.71492 0.0
H1562 H 0.76777 0.30015 0.75439 0.0
H1563 H 0.73832 0.30115 0.72252 0.0
H1564 H 0.7741 0.30454 0.70472 0.0
H1565 H 0.74447 0.19117 0.7966 0.0
H1566 H 0.73092 0.17211 0.75665 0.0
H1567 H 0.71166 0.20226 0.77544 0.0
C1568 C 0.77286 0.76165 0.35052 0.0
C1569 C 0.77427 0.73248 0.35836 0.0
C1570 C 0.75791 0.77168 0.31918 0.0
C1571 C 0.74208 0.75221 0.29703 0.0
C1572 C 0.74121 0.72297 0.3072 0.0
C1573 C 0.75784 0.71338 0.33733 0.0
C1574 C 0.76011 0.80289 0.30902 0.0
C1575 C 0.72357 0.70121 0.28631 0.0
C1576 C 0.68855 0.78833 0.23314 0.0
C1577 C 0.69954 0.78179 0.1976 0.0
C1578 C 0.70138 0.77782 0.26577 0.0
C1579 C 0.72727 0.76244 0.26279 0.0
C1580 C 0.73927 0.75708 0.22684 0.0
C1581 C 0.72466 0.76599 0.19453 0.0
C1582 C 0.68655 0.78307 0.30287 0.0
C1583 C 0.76743 0.74185 0.22242 0.0
H1584 H 0.78457 0.77655 0.36792 0.0
H1585 H 0.75836 0.6908 0.34387 0.0
H1586 H 0.76464 0.80542 0.27857 0.0
H1587 H 0.73962 0.81366 0.3151 0.0
H1588 H 0.77705 0.81397 0.32517 0.0
H1589 H 0.71012 0.68918 0.30655 0.0
H1590 H 0.70955 0.71061 0.26462 0.0
H1591 H 0.73794 0.68549 0.27266 0.0
H1592 H 0.66918 0.80073 0.23552 0.0
H1593 H 0.73306 0.76101 0.16691 0.0
H1594 H 0.68959 0.80566 0.31124 0.0
H1595 H 0.69427 0.76906 0.32578 0.0
H1596 H 0.66325 0.77976 0.29983 0.0
H1597 H 0.78332 0.75024 0.24271 0.0
H1598 H 0.77618 0.74408 0.19355 0.0
H1599 H 0.76452 0.7188 0.22827 0.0
C1600 C 0.54303 0.51807 0.57925 0.0
C1601 C 0.52432 0.53153 0.60424 0.0
C1602 C 0.53267 0.49974 0.55123 0.0
C1603 C 0.50287 0.49606 0.54715 0.0
C1604 C 0.48404 0.50881 0.57328 0.0
C1605 C 0.49517 0.5254 0.60249 0.0
C1606 C 0.55369 0.48539 0.52529 0.0
C1607 C 0.45209 0.50645 0.56908 0.0
C1608 C 0.4787 0.47738 0.44844 0.0
C1609 C 0.46959 0.44926 0.45324 0.0
C1610 C 0.48854 0.49329 0.47922 0.0
C1611 C 0.4912 0.47992 0.51478 0.0
C1612 C 0.48245 0.45126 0.51941 0.0
C1613 C 0.47056 0.43672 0.48887 0.0
C1614 C 0.49608 0.52431 0.47365 0.0
C1615 C 0.48717 0.43536 0.5558 0.0
H1616 H 0.5657 0.52231 0.581 0.0
H1617 H 0.4808 0.53501 0.62272 0.0
H1618 H 0.54559 0.46458 0.515 0.0
H1619 H 0.55762 0.49928 0.50062 0.0
H1620 H 0.57444 0.4819 0.53954 0.0
H1621 H 0.44044 0.51814 0.59148 0.0
H1622 H 0.4456 0.51524 0.54142 0.0
H1623 H 0.44539 0.48379 0.56977 0.0
H1624 H 0.47775 0.487 0.42077 0.0
H1625 H 0.46318 0.4151 0.49258 0.0
H1626 H 0.5195 0.52706 0.47526 0.0
H1627 H 0.48642 0.53749 0.49621 0.0
H1628 H 0.48873 0.5325 0.44603 0.0
H1629 H 0.51035 0.4315 0.55939 0.0
H1630 H 0.47605 0.41446 0.55621 0.0
H1631 H 0.47993 0.44802 0.58031 0.0
C1632 C -0.00488 0.54244 0.97455 0.0
C1633 C 0.01493 0.53288 0.94817 0.0
C1634 C 0.98665 0.52537 1.00465 0.0
C1635 C -0.00122 0.49799 1.00877 0.0
C1636 C 0.01923 0.48812 0.98249 0.0
C1637 C 0.02723 0.50587 0.95246 0.0
C1638 C 0.96515 0.53692 0.03242 0.0
C1639 C 0.03269 0.45903 0.98631 0.0
C1640 C -0.00513 0.46706 0.10685 0.0
C1641 C 0.97105 0.4493 0.10383 0.0
C1642 C 0.00459 0.48263 0.07577 0.0
C1643 C 0.99013 0.48008 0.04104 0.0
C1644 C 0.96613 0.46199 0.03788 0.0
C1645 C 0.95671 0.44696 0.0695 0.0
C1646 C 0.03024 0.50179 0.0801 0.0
C1647 C 0.95031 0.45865 1.00121 0.0
H1648 H 0.98723 0.56381 0.97274 0.0
H1649 H 0.043 0.49865 0.93231 0.0
H1650 H 0.94694 0.52196 0.03517 0.0
H1651 H 0.9751 0.53893 0.06054 0.0
H1652 H 0.95678 0.55813 0.02401 0.0
H1653 H 0.04382 0.45742 1.0137 0.0
H1654 H 0.016 0.44227 0.98598 0.0
H1655 H 0.04822 0.45453 0.96348 0.0
H1656 H 0.00602 0.46855 0.13344 0.0
H1657 H 0.93853 0.4328 0.06707 0.0
H1658 H 0.02419 0.52423 0.07426 0.0
H1659 H 0.04689 0.49578 0.05941 0.0
H1660 H 0.03954 0.50067 0.10875 0.0
H1661 H 0.94078 0.47938 0.99298 0.0
H1662 H 0.93308 0.44245 1.00298 0.0
H1663 H 0.96528 0.4523 0.97855 0.0
C1664 C 0.10038 0.15754 0.3971 0.0
C1665 C 0.12105 0.14989 0.37037 0.0
C1666 C 0.10818 0.16884 0.43228 0.0
C1667 C 0.13738 0.17272 0.44107 0.0
C1668 C 0.15835 0.16448 0.41459 0.0
C1669 C 0.14996 0.15313 0.37971 0.0
C1670 C 0.0851 0.1773 0.45972 0.0
C1671 C 0.18968 0.16818 0.4228 0.0
C1672 C 0.15305 0.23036 0.51343 0.0
C1673 C 0.15628 0.21451 0.5466 0.0
C1674 C 0.14788 0.21698 0.4788 0.0
C1675 C 0.14582 0.18688 0.47708 0.0
C1676 C 0.15049 0.17063 0.51011 0.0
C1677 C 0.15574 0.18463 0.54448 0.0
C1678 C 0.14331 0.23521 0.44436 0.0
C1679 C 0.14844 0.13851 0.50956 0.0
H1680 H 0.07801 0.15542 0.39018 0.0
H1681 H 0.16616 0.14679 0.35966 0.0
H1682 H 0.08887 0.16703 0.48735 0.0
H1683 H 0.08563 0.20071 0.46428 0.0
H1684 H 0.06351 0.17128 0.44972 0.0
H1685 H 0.20338 0.15953 0.40001 0.0
H1686 H 0.19461 0.19116 0.42642 0.0
H1687 H 0.19527 0.15733 0.44948 0.0
H1688 H 0.15353 0.25344 0.51475 0.0
H1689 H 0.15781 0.1722 0.57 0.0
H1690 H 0.12106 0.23276 0.43437 0.0
H1691 H 0.15754 0.22813 0.42127 0.0
H1692 H 0.1473 0.25819 0.44994 0.0
H1693 H 0.12609 0.13209 0.50397 0.0
H1694 H 0.15525 0.12886 0.53659 0.0
H1695 H 0.16175 0.1296 0.48661 0.0
C1696 C 0.09632 0.88993 0.62405 0.0
C1697 C 0.09581 0.8606 0.61584 0.0
C1698 C 0.08698 0.90048 0.65897 0.0
C1699 C 0.07681 0.8813 0.68662 0.0
C1700 C 0.07708 0.85159 0.67904 0.0
C1701 C 0.08657 0.84162 0.64383 0.0
C1702 C 0.08729 0.93224 0.66592 0.0
C1703 C 0.06644 0.83036 0.70771 0.0
C1704 C 0.06745 0.90294 0.78953 0.0
C1705 C 0.03786 0.90678 0.79167 0.0
C1706 C 0.08071 0.89573 0.75521 0.0
C1707 C 0.06396 0.89231 0.72234 0.0
C1708 C 0.03435 0.89795 0.72403 0.0
C1709 C 0.02174 0.90515 0.75854 0.0
C1710 C 0.11233 0.89001 0.75468 0.0
C1711 C 0.01559 0.89471 0.68984 0.0
H1712 H 0.10396 0.90478 0.60299 0.0
H1713 H 0.08588 0.81897 0.63781 0.0
H1714 H 0.06513 0.94012 0.66918 0.0
H1715 H 0.0987 0.93708 0.69245 0.0
H1716 H 0.09761 0.94417 0.64264 0.0
H1717 H 0.06971 0.80794 0.69853 0.0
H1718 H 0.07749 0.83356 0.73493 0.0
H1719 H 0.04335 0.83375 0.71276 0.0
H1720 H 0.08001 0.90366 0.81505 0.0
H1721 H -0.00115 0.90809 0.75995 0.0
H1722 H 0.12256 0.90103 0.73061 0.0
H1723 H 0.11609 0.86681 0.75106 0.0
H1724 H 0.12285 0.89701 0.78106 0.0
H1725 H 0.02433 0.90722 0.66602 0.0
H1726 H -0.00664 0.90176 0.69523 0.0
H1727 H 0.01513 0.872 0.68103 0.0
C1728 C 0.34214 0.80156 0.03143 0.0
C1729 C 0.34086 0.7717 0.0336 0.0
C1730 C 0.34735 0.8154 0.99697 0.0
C1731 C 0.35124 0.79901 0.96388 0.0
C1732 C 0.34853 0.76896 0.96565 0.0
C1733 C 0.34338 0.75573 1.00038 0.0
C1734 C 0.35009 0.84747 0.99633 0.0
C1735 C 0.3523 0.75061 0.9311 0.0
C1736 C 0.34647 0.83297 0.86684 0.0
C1737 C 0.37532 0.83566 0.85681 0.0
C1738 C 0.33832 0.82171 0.90185 0.0
C1739 C 0.35947 0.81297 0.92771 0.0
C1740 C 0.38863 0.8163 0.91821 0.0
C1741 C 0.39619 0.82755 0.88294 0.0
C1742 C 0.30703 0.81861 0.91086 0.0
C1743 C 0.41188 0.80727 0.94497 0.0
H1744 H 0.34052 0.81412 0.05692 0.0
H1745 H 0.34231 0.73268 1.00166 0.0
H1746 H 0.37244 0.85341 0.98982 0.0
H1747 H 0.33649 0.85665 0.97393 0.0
H1748 H 0.34407 0.85729 0.02362 0.0
H1749 H 0.34785 0.72773 0.93677 0.0
H1750 H 0.33797 0.758 0.90834 0.0
H1751 H 0.37448 0.75255 0.9206 0.0
H1752 H 0.33016 0.83965 0.84721 0.0
H1753 H 0.4185 0.82925 0.87543 0.0
H1754 H 0.30201 0.82949 0.93775 0.0
H1755 H 0.3017 0.79572 0.9145 0.0
H1756 H 0.29322 0.82758 0.88848 0.0
H1757 H 0.40885 0.81769 0.97268 0.0
H1758 H 0.43347 0.81268 0.93429 0.0
H1759 H 0.4108 0.7839 0.94961 0.0
C1760 C 0.49215 0.10299 0.2549 0.0
C1761 C 0.47657 0.09542 0.28713 0.0
C1762 C 0.47859 0.10826 0.22048 0.0
C1763 C 0.44859 0.10592 0.21796 0.0
C1764 C 0.43275 0.09747 0.25003 0.0
C1765 C 0.44692 0.0923 0.28423 0.0
C1766 C 0.49638 0.11711 0.18705 0.0
C1767 C 0.40074 0.09469 0.24847 0.0
C1768 C 0.41279 0.14782 0.13933 0.0
C1769 C 0.40867 0.1267 0.11187 0.0
C1770 C 0.42531 0.14127 0.17417 0.0
C1771 C 0.43391 0.11289 0.18189 0.0
C1772 C 0.42956 0.09144 0.15449 0.0
C1773 C 0.41709 0.0986 0.11987 0.0
C1774 C 0.42966 0.1648 0.20259 0.0
C1775 C 0.43857 0.06099 0.16146 0.0
H1776 H 0.51504 0.10551 0.25666 0.0
H1777 H 0.43463 0.08667 0.30893 0.0
H1778 H 0.49225 0.10269 0.16295 0.0
H1779 H 0.49035 0.13897 0.17816 0.0
H1780 H 0.51957 0.11686 0.19326 0.0
H1781 H 0.39163 0.08673 0.27531 0.0
H1782 H 0.39111 0.11575 0.24209 0.0
H1783 H 0.3945 0.07993 0.22555 0.0
H1784 H 0.40605 0.1695 0.13369 0.0
H1785 H 0.41448 0.08219 0.09871 0.0
H1786 H 0.45271 0.16736 0.20849 0.0
H1787 H 0.41912 0.15914 0.22949 0.0
H1788 H 0.42109 0.18558 0.19275 0.0
H1789 H 0.462 0.06 0.16526 0.0
H1790 H 0.43256 0.04657 0.13799 0.0
H1791 H 0.42868 0.05293 0.18772 0.0
C1792 C 0.84833 0.76882 0.53394 0.0
C1793 C 0.8545 0.78162 0.49922 0.0
C1794 C 0.85645 0.78157 0.56797 0.0
C1795 C 0.87119 0.80792 0.56754 0.0
C1796 C 0.87669 0.82149 0.53266 0.0
C1797 C 0.86819 0.80823 0.4989 0.0
C1798 C 0.84989 0.76639 0.6044 0.0
C1799 C 0.89247 0.8495 0.53095 0.0
C1800 C 0.87168 0.84863 0.66024 0.0
C1801 C 0.89767 0.84001 0.67619 0.0
C1802 C 0.86323 0.83916 0.62444 0.0
C1803 C 0.88125 0.82073 0.60372 0.0
C1804 C 0.90801 0.81283 0.61894 0.0
C1805 C 0.91586 0.8225 0.65495 0.0
C1806 C 0.83455 0.84812 0.60935 0.0
C1807 C 0.92793 0.79328 0.59778 0.0
H1808 H 0.83753 0.74839 0.53455 0.0
H1809 H 0.87332 0.81816 0.47224 0.0
H1810 H 0.87003 0.7608 0.61892 0.0
H1811 H 0.83769 0.78065 0.62339 0.0
H1812 H 0.83744 0.74652 0.59998 0.0
H1813 H 0.89363 0.85813 0.50192 0.0
H1814 H 0.88196 0.8655 0.54928 0.0
H1815 H 0.91448 0.84657 0.54162 0.0
H1816 H 0.85768 0.86262 0.67598 0.0
H1817 H 0.93586 0.81548 0.66698 0.0
H1818 H 0.82052 0.82917 0.60683 0.0
H1819 H 0.8369 0.85736 0.58083 0.0
H1820 H 0.82388 0.86403 0.62773 0.0
H1821 H 0.91821 0.77179 0.59532 0.0
H1822 H 0.94891 0.79111 0.61192 0.0
H1823 H 0.93145 0.80135 0.56885 0.0
C1824 C 0.90825 0.1418 0.40975 0.0
C1825 C 0.90401 0.12079 0.43731 0.0
C1826 C 0.92063 0.13507 0.3748 0.0
C1827 C 0.92898 0.10661 0.36705 0.0
C1828 C 0.92437 0.08524 0.39449 0.0
C1829 C 0.91205 0.09258 0.4292 0.0
C1830 C 0.92523 0.15853 0.34639 0.0
C1831 C 0.93309 0.05469 0.38752 0.0
C1832 C 0.94311 0.08582 0.26482 0.0
C1833 C 0.97282 0.08875 0.26247 0.0
C1834 C 0.92854 0.09113 0.29878 0.0
C1835 C 0.94402 0.09952 0.33116 0.0
C1836 C 0.97406 0.10166 0.32917 0.0
C1837 C 0.98801 0.09625 0.29501 0.0
C1838 C 0.8965 0.08857 0.29976 0.0
C1839 C 0.9915 0.11042 0.36292 0.0
H1840 H 0.90179 0.16358 0.41542 0.0
H1841 H 0.90934 0.07622 0.45041 0.0
H1842 H 0.94836 0.16117 0.34091 0.0
H1843 H 0.91507 0.15278 0.3193 0.0
H1844 H 0.91648 0.17931 0.356 0.0
H1845 H 0.9266 0.04031 0.4108 0.0
H1846 H 0.92348 0.0468 0.36103 0.0
H1847 H 0.95656 0.05343 0.38421 0.0
H1848 H 0.93112 0.08027 0.23987 0.0
H1849 H 0.01095 0.09858 0.2937 0.0
H1850 H 0.88693 0.1097 0.30589 0.0
H1851 H 0.88988 0.07391 0.32263 0.0
H1852 H 0.88769 0.08058 0.27278 0.0
H1853 H 0.98539 0.13225 0.37186 0.0
H1854 H 0.01475 0.11016 0.35706 0.0
H1855 H 0.9871 0.09593 0.38686 0.0
C1856 C 0.65782 0.1909 1.00762 0.0
C1857 C 0.65719 0.22077 1.00535 0.0
C1858 C 0.65282 0.17682 0.042 0.0
C1859 C 0.64727 0.19298 0.0749 0.0
C1860 C 0.64806 0.22314 0.07304 0.0
C1861 C 0.65293 0.2366 0.03839 0.0
C1862 C 0.65207 0.14465 0.0427 0.0
C1863 C 0.64255 0.24127 0.10738 0.0
C1864 C 0.60284 0.16205 0.15492 0.0
C1865 C 0.62372 0.15523 0.18168 0.0
C1866 C 0.61027 0.17358 0.11973 0.0
C1867 C 0.63931 0.17861 0.11096 0.0
C1868 C 0.66052 0.17128 0.1375 0.0
C1869 C 0.65251 0.15963 0.17237 0.0
C1870 C 0.58695 0.18102 0.09224 0.0
C1871 C 0.6917 0.17628 0.12935 0.0
H1872 H 0.66071 0.17847 0.98222 0.0
H1873 H 0.65243 0.2597 0.03698 0.0
H1874 H 0.66581 0.13638 0.06557 0.0
H1875 H 0.63003 0.13734 0.04854 0.0
H1876 H 0.65919 0.13518 1.01566 0.0
H1877 H 0.64567 0.26437 0.10175 0.0
H1878 H 0.62036 0.23797 0.11722 0.0
H1879 H 0.65691 0.23483 0.1306 0.0
H1880 H 0.58054 0.15906 0.16181 0.0
H1881 H 0.6689 0.15396 0.19242 0.0
H1882 H 0.5911 0.17068 0.06473 0.0
H1883 H 0.58665 0.20439 0.08741 0.0
H1884 H 0.56557 0.17432 0.10235 0.0
H1885 H 0.69784 0.16557 0.10275 0.0
H1886 H 0.70567 0.16833 0.15223 0.0
H1887 H 0.69565 0.19944 0.12558 0.0
C1888 C 0.55068 0.90764 0.75386 0.0
C1889 C 0.52087 0.90652 0.7512 0.0
C1890 C 0.56456 0.90247 0.7883 0.0
C1891 C 0.54825 0.89604 0.82079 0.0
C1892 C 0.51815 0.89636 0.81859 0.0
C1893 C 0.50491 0.90167 0.78397 0.0
C1894 C 0.59669 0.90251 0.7895 0.0
C1895 C 0.49984 0.88971 0.85241 0.0
C1896 C 0.57926 0.85008 0.899 0.0
C1897 C 0.58502 0.87032 0.92707 0.0
C1898 C 0.568 0.85825 0.86401 0.0
C1899 C 0.56241 0.88743 0.85666 0.0
C1900 C 0.56877 0.90804 0.88448 0.0
C1901 C 0.57987 0.89926 0.9193 0.0
C1902 C 0.56148 0.83555 0.83518 0.0
C1903 C 0.56316 0.93934 0.87784 0.0
H1904 H 0.56325 0.9111 0.72871 0.0
H1905 H 0.48189 0.90095 0.78233 0.0
H1906 H 0.60438 0.91585 0.81316 0.0
H1907 H 0.6045 0.88049 0.79436 0.0
H1908 H 0.60621 0.91058 0.76296 0.0
H1909 H 0.47676 0.89247 0.84655 0.0
H1910 H 0.50351 0.86734 0.86136 0.0
H1911 H 0.50575 0.90367 0.87632 0.0
H1912 H 0.58355 0.82774 0.90437 0.0
H1913 H 0.58381 0.91511 0.94085 0.0
H1914 H 0.53825 0.83512 0.82947 0.0
H1915 H 0.5682 0.81397 0.84453 0.0
H1916 H 0.57235 0.84052 0.80827 0.0
H1917 H 0.57341 0.94634 0.8513 0.0
H1918 H 0.57115 0.95288 0.90118 0.0
H1919 H 0.53992 0.94297 0.8748 0.0
C1920 C 0.60013 0.66536 0.88516 0.0
C1921 C 0.62113 0.65806 0.8587 0.0
C1922 C 0.60744 0.67717 0.92022 0.0
C1923 C 0.63646 0.68201 0.92918 0.0
C1924 C 0.65779 0.6742 0.90295 0.0
C1925 C 0.6499 0.66227 0.8682 0.0
C1926 C 0.58401 0.68521 0.94731 0.0
C1927 C 0.68895 0.67898 0.91129 0.0
C1928 C 0.65018 0.74031 1.00142 0.0
C1929 C 0.65427 0.72461 0.03457 0.0
C1930 C 0.64535 0.7267 0.96683 0.0
C1931 C 0.64432 0.69654 0.96517 0.0
C1932 C 0.64954 0.6805 0.99823 0.0
C1933 C 0.65458 0.69472 0.03249 0.0
C1934 C 0.64024 0.7447 0.93231 0.0
C1935 C 0.64842 0.64834 0.99778 0.0
H1936 H 0.57786 0.66255 0.8781 0.0
H1937 H 0.66637 0.65622 0.84839 0.0
H1938 H 0.58788 0.67533 0.97516 0.0
H1939 H 0.58393 0.70866 0.95142 0.0
H1940 H 0.56263 0.67855 0.93721 0.0
H1941 H 0.703 0.67079 0.88858 0.0
H1942 H 0.69308 0.70212 0.91491 0.0
H1943 H 0.69483 0.66836 0.93802 0.0
H1944 H 0.6499 0.76342 1.00266 0.0
H1945 H 0.65732 0.68237 0.05797 0.0
H1946 H 0.61807 0.7416 0.92236 0.0
H1947 H 0.65466 0.73795 0.90924 0.0
H1948 H 0.6436 0.76779 0.93778 0.0
H1949 H 0.62636 0.64125 0.99159 0.0
H1950 H 0.65508 0.63893 0.02503 0.0
H1951 H 0.66234 0.63978 0.97524 0.0
C1952 C 0.50813 0.3983 0.25711 0.0
C1953 C 0.52426 0.4042 0.28943 0.0
C1954 C 0.52121 0.39274 0.22241 0.0
C1955 C 0.55128 0.39326 0.21961 0.0
C1956 C 0.56769 0.40074 0.25158 0.0
C1957 C 0.55399 0.40611 0.28615 0.0
C1958 C 0.5028 0.3849 0.18917 0.0
C1959 C 0.59979 0.4017 0.24972 0.0
C1960 C 0.58285 0.34699 0.14193 0.0
C1961 C 0.58777 0.36696 0.11326 0.0
C1962 C 0.57168 0.35538 0.17695 0.0
C1963 C 0.56534 0.38449 0.18369 0.0
C1964 C 0.57082 0.40484 0.15522 0.0
C1965 C 0.58184 0.39585 0.1204 0.0
C1966 C 0.56614 0.33296 0.20651 0.0
C1967 C 0.56432 0.43606 0.16117 0.0
H1968 H 0.48512 0.39685 0.2592 0.0
H1969 H 0.56668 0.41038 0.31095 0.0
H1970 H 0.50799 0.39868 0.16478 0.0
H1971 H 0.50715 0.36254 0.1807 0.0
H1972 H 0.47969 0.38696 0.19544 0.0
H1973 H 0.60932 0.41047 0.27585 0.0
H1974 H 0.6082 0.37985 0.24524 0.0
H1975 H 0.60686 0.41489 0.22557 0.0
H1976 H 0.58774 0.32471 0.13703 0.0
H1977 H 0.58512 0.41146 0.09838 0.0
H1978 H 0.54303 0.33204 0.21299 0.0
H1979 H 0.57732 0.33862 0.23293 0.0
H1980 H 0.57323 0.31141 0.19749 0.0
H1981 H 0.54102 0.43903 0.1646 0.0
H1982 H 0.57167 0.44946 0.13732 0.0
H1983 H 0.57461 0.44379 0.18731 0.0
C1984 C 0.85594 0.3208 0.37579 0.0
C1985 C 0.88416 0.32914 0.36845 0.0
C1986 C 0.84806 0.30922 0.41067 0.0
C1987 C 0.86889 0.30565 0.43899 0.0
C1988 C 0.89733 0.31435 0.43203 0.0
C1989 C 0.9046 0.32602 0.39691 0.0
C1990 C 0.81755 0.30013 0.41689 0.0
C1991 C 0.92021 0.31079 0.46144 0.0
C1992 C 0.84633 0.29344 0.54075 0.0
C1993 C 0.84952 0.2638 0.54416 0.0
C1994 C 0.85209 0.30737 0.50652 0.0
C1995 C 0.86133 0.29128 0.47504 0.0
C1996 C 0.86385 0.2613 0.47808 0.0
C1997 C 0.85784 0.24798 0.51244 0.0
C1998 C 0.84905 0.33936 0.5043 0.0
C1999 C 0.87366 0.24329 0.4453 0.0
H2000 H 0.84005 0.32265 0.35387 0.0
H2001 H 0.92635 0.33275 0.39177 0.0
H2002 H 0.81658 0.27668 0.42085 0.0
H2003 H 0.80899 0.31011 0.44282 0.0
H2004 H 0.80356 0.30597 0.39295 0.0
H2005 H 0.94104 0.31961 0.45222 0.0
H2006 H 0.91375 0.32154 0.48788 0.0
H2007 H 0.92302 0.28783 0.46794 0.0
H2008 H 0.84008 0.3059 0.56506 0.0
H2009 H 0.86041 0.22506 0.51459 0.0
H2010 H 0.83477 0.34524 0.48073 0.0
H2011 H 0.87012 0.34916 0.49852 0.0
H2012 H 0.8404 0.34864 0.53068 0.0
H2013 H 0.85957 0.2468 0.42074 0.0
H2014 H 0.87382 0.22014 0.45202 0.0
H2015 H 0.8955 0.2497 0.43684 0.0
C2016 C 0.93692 0.61616 0.79287 0.0
C2017 C 0.96427 0.60401 0.7931 0.0
C2018 C 0.92283 0.62225 0.75889 0.0
C2019 C 0.93626 0.61587 0.72421 0.0
C2020 C 0.96348 0.60284 0.72427 0.0
C2021 C 0.97715 0.59717 0.7586 0.0
C2022 C 0.89391 0.63631 0.76011 0.0
C2023 C 0.97849 0.59543 0.68801 0.0
C2024 C 0.89163 0.61051 0.63499 0.0
C2025 C 0.89715 0.63677 0.61737 0.0
C2026 C 0.90399 0.60354 0.66978 0.0
C2027 C 0.9222 0.62335 0.6878 0.0
C2028 C 0.9275 0.65008 0.67057 0.0
C2029 C 0.91503 0.65642 0.6356 0.0
C2030 C 0.89778 0.5748 0.68709 0.0
C2031 C 0.9467 0.67188 0.68884 0.0
H2032 H 0.9268 0.62176 0.81924 0.0
H2033 H -0.00175 0.58779 0.75829 0.0
H2034 H 0.8951 0.65764 0.74672 0.0
H2035 H 0.87828 0.62353 0.74392 0.0
H2036 H 0.88586 0.63892 0.78927 0.0
H2037 H -0.00094 0.5843 0.69283 0.0
H2038 H 0.9647 0.58159 0.67046 0.0
H2039 H 0.98273 0.61515 0.67171 0.0
H2040 H 0.87747 0.59534 0.62164 0.0
H2041 H 0.91977 0.67661 0.62219 0.0
H2042 H 0.88838 0.5776 0.71546 0.0
H2043 H 0.91791 0.56269 0.69058 0.0
H2044 H 0.88291 0.5619 0.66977 0.0
H2045 H 0.93902 0.67674 0.71764 0.0
H2046 H 0.94778 0.69209 0.67261 0.0
H2047 H 0.96856 0.66313 0.69151 0.0
C2048 C 0.35685 0.32504 0.17444 0.0
C2049 C 0.38451 0.3352 0.18141 0.0
C2050 C 0.34936 0.31342 0.13942 0.0
C2051 C 0.37003 0.31167 0.11052 0.0
C2052 C 0.39788 0.32223 0.11709 0.0
C2053 C 0.40476 0.3339 0.15237 0.0
C2054 C 0.3195 0.30226 0.13371 0.0
C2055 C 0.42059 0.32067 0.08707 0.0
C2056 C 0.36138 0.25378 0.03664 0.0
C2057 C 0.35108 0.26908 1.00552 0.0
C2058 C 0.36747 0.26736 0.0708 0.0
C2059 C 0.36303 0.29709 0.07435 0.0
C2060 C 0.35205 0.31265 0.04342 0.0
C2061 C 0.34623 0.29847 1.00934 0.0
C2062 C 0.37921 0.24988 0.10292 0.0
C2063 C 0.34696 0.34436 0.04616 0.0
H2064 H 0.34113 0.32546 0.19675 0.0
H2065 H 0.42606 0.34201 0.15721 0.0
H2066 H 0.30996 0.31186 0.10817 0.0
H2067 H 0.32013 0.27884 0.12931 0.0
H2068 H 0.30541 0.30687 0.15807 0.0
H2069 H 0.44079 0.33101 0.09593 0.0
H2070 H 0.4251 0.29804 0.08014 0.0
H2071 H 0.41299 0.33107 0.06095 0.0
H2072 H 0.3653 0.23107 0.0342 0.0
H2073 H 0.33849 0.31054 0.98549 0.0
H2074 H 0.36531 0.25209 0.12798 0.0
H2075 H 0.40063 0.25787 0.1108 0.0
H2076 H 0.38101 0.22687 0.09579 0.0
H2077 H 0.33243 0.34908 0.06997 0.0
H2078 H 0.3376 0.35325 1.02002 0.0
H2079 H 0.36737 0.35547 0.05188 0.0
C2080 C 0.41271 0.64969 0.89872 0.0
C2081 C 0.40575 0.62802 0.92436 0.0
C2082 C 0.42445 0.64326 0.86331 0.0
C2083 C 0.42954 0.61445 0.85323 0.0
C2084 C 0.42189 0.59246 0.87855 0.0
C2085 C 0.41002 0.59948 0.91365 0.0
C2086 C 0.43231 0.66738 0.83718 0.0
C2087 C 0.42695 0.56149 0.86899 0.0
C2088 C 0.44354 0.59715 0.74993 0.0
C2089 C 0.47342 0.59706 0.74864 0.0
C2090 C 0.42889 0.60239 0.78383 0.0
C2091 C 0.44449 0.60745 0.81727 0.0
C2092 C 0.47463 0.60645 0.8163 0.0
C2093 C 0.48866 0.60135 0.7821 0.0
C2094 C 0.39676 0.60349 0.78362 0.0
C2095 C 0.49216 0.61145 0.85125 0.0
H2096 H 0.4098 0.6718 0.90674 0.0
H2097 H 0.40422 0.58252 0.93286 0.0
H2098 H 0.45581 0.66838 0.83413 0.0
H2099 H 0.4233 0.6636 0.8088 0.0
H2100 H 0.42464 0.68836 0.8476 0.0
H2101 H 0.41853 0.54686 0.89089 0.0
H2102 H 0.41677 0.55615 0.84177 0.0
H2103 H 0.45014 0.55758 0.86577 0.0
H2104 H 0.43156 0.59417 0.72421 0.0
H2105 H 0.51174 0.60128 0.78152 0.0
H2106 H 0.38954 0.62532 0.79103 0.0
H2107 H 0.38798 0.58879 0.80511 0.0
H2108 H 0.38772 0.59772 0.7558 0.0
H2109 H 0.48832 0.63333 0.86201 0.0
H2110 H 0.51537 0.60888 0.84605 0.0
H2111 H 0.48565 0.59635 0.87367 0.0
C2112 C 0.15272 0.72115 0.53624 0.0
C2113 C 0.1564 0.70595 0.50256 0.0
C2114 C 0.14652 0.70721 0.57019 0.0
C2115 C 0.14383 0.67713 0.57079 0.0
C2116 C 0.14876 0.66148 0.53724 0.0
C2117 C 0.15505 0.67606 0.50352 0.0
C2118 C 0.14171 0.72486 0.60515 0.0
C2119 C 0.14613 0.62942 0.53662 0.0
C2120 C 0.14608 0.64197 0.66753 0.0
C2121 C 0.11699 0.63894 0.67619 0.0
C2122 C 0.15512 0.65354 0.633 0.0
C2123 C 0.13467 0.66247 0.60625 0.0
C2124 C 0.10529 0.65905 0.6145 0.0
C2125 C 0.09684 0.64739 0.64925 0.0
C2126 C 0.18661 0.65689 0.62555 0.0
C2127 C 0.08272 0.66824 0.58685 0.0
H2128 H 0.15385 0.74423 0.53589 0.0
H2129 H 0.15752 0.66414 0.47762 0.0
H2130 H 0.11933 0.72245 0.61471 0.0
H2131 H 0.15562 0.71723 0.62822 0.0
H2132 H 0.14599 0.74789 0.60042 0.0
H2133 H 0.15281 0.62019 0.50923 0.0
H2134 H 0.15927 0.61985 0.55922 0.0
H2135 H 0.12368 0.62326 0.54205 0.0
H2136 H 0.1619 0.63594 0.68818 0.0
H2137 H 0.07435 0.64479 0.65526 0.0
H2138 H 0.19202 0.67987 0.62344 0.0
H2139 H 0.19234 0.64686 0.59833 0.0
H2140 H 0.19984 0.6472 0.64803 0.0
H2141 H 0.08402 0.69162 0.58237 0.0
H2142 H 0.06087 0.6629 0.59662 0.0
H2143 H 0.08639 0.65787 0.55924 0.0
C2144 C 0.01014 0.39388 0.29326 0.0
C2145 C 0.02634 0.39804 0.26052 0.0
C2146 C 0.02315 0.38832 0.32794 0.0
C2147 C 0.05322 0.38676 0.33016 0.0
C2148 C 0.0698 0.39222 0.2976 0.0
C2149 C 0.05616 0.39788 0.26314 0.0
C2150 C 0.00459 0.38288 0.36191 0.0
C2151 C 0.10189 0.39067 0.29876 0.0
C2152 C 0.08421 0.39012 0.42889 0.0
C2153 C 0.08714 0.36109 0.43791 0.0
C2154 C 0.07416 0.39883 0.39352 0.0
C2155 C 0.06695 0.37807 0.36625 0.0
C2156 C 0.07084 0.34877 0.37464 0.0
C2157 C 0.08083 0.34064 0.41032 0.0
C2158 C 0.07038 0.43026 0.38576 0.0
C2159 C 0.06343 0.32592 0.34639 0.0
H2160 H 0.98708 0.39402 0.29156 0.0
H2161 H 0.06883 0.40071 0.23794 0.0
H2162 H 0.00735 0.36053 0.37145 0.0
H2163 H 0.01106 0.39697 0.38545 0.0
H2164 H 0.98164 0.38648 0.35596 0.0
H2165 H 0.11177 0.39797 0.27206 0.0
H2166 H 0.11028 0.40385 0.32215 0.0
H2167 H 0.10859 0.36834 0.30404 0.0
H2168 H 0.08957 0.40613 0.44968 0.0
H2169 H 0.08276 0.31818 0.41699 0.0
H2170 H 0.04741 0.43509 0.3821 0.0
H2171 H 0.08131 0.43619 0.35923 0.0
H2172 H 0.07883 0.44378 0.40884 0.0
H2173 H 0.0401 0.32592 0.34138 0.0
H2174 H 0.06984 0.30432 0.35598 0.0
H2175 H 0.07395 0.33037 0.31908 0.0
loop_
_geom_bond_atom_site_label_1
_geom_bond_atom_site_label_2
_geom_bond_distance
_geom_bond_site_symmetry_2
_ccdc_geom_bond_type
Nd0 C2 2.836 . S
Nd0 O20 2.500 . S
Nd0 O21 2.492 . S
Nd0 O22 2.487 . S
Nd0 O23 2.682 1_655 S
Nd0 O24 2.410 1_655 S
Nd0 O29 2.414 . S
Nd0 O31 2.424 . S
Nd1 C11 2.836 . S
Nd1 O23 2.414 . S
Nd1 O25 2.424 . S
Nd1 O26 2.500 . S
Nd1 O27 2.492 . S
Nd1 O28 2.487 . S
Nd1 O29 2.682 1_455 S
Nd1 O30 2.410 1_455 S
C2 Nd0 2.836 . S
C2 C3 1.498 1_554 S
C2 O20 1.258 . S
C2 O21 1.239 . S
C3 C2 1.498 1_556 S
C3 C4 1.366 . S
C3 C8 1.407 . S
C4 C3 1.366 . S
C4 C5 1.392 . S
C4 H32 0.930 . S
C5 C4 1.392 . S
C5 C6 1.398 . S
C5 H33 0.929 . S
C6 C5 1.398 . S
C6 C7 1.352 . S
C7 C6 1.352 . S
C7 C8 1.384 . S
C7 H34 0.930 . S
C8 C3 1.407 . S
C8 C7 1.384 . S
C8 H35 0.929 . S
C9 O22 1.241 . S
C9 O23 1.273 1_655 S
C10 O24 1.251 . S
C10 O25 1.268 . S
C11 Nd1 2.836 . S
C11 C12 1.498 . S
C11 O26 1.258 . S
C11 O27 1.239 . S
C12 C11 1.498 . S
C12 C13 1.366 . S
C12 C17 1.407 . S
C13 C12 1.366 . S
C13 C14 1.392 . S
C13 H36 0.930 . S
C14 C13 1.392 . S
C14 C15 1.398 . S
C14 H37 0.929 . S
C15 C14 1.398 . S
C15 C16 1.352 . S
C16 C15 1.352 . S
C16 C17 1.384 . S
C16 H38 0.930 . S
C17 C12 1.407 . S
C17 C16 1.384 . S
C17 H39 0.929 . S
C18 O28 1.241 . S
C18 O29 1.273 1_455 S
C19 O30 1.251 . S
C19 O31 1.268 . S
O20 Nd0 2.500 . S
O20 C2 1.258 . S
O21 Nd0 2.492 . S
O21 C2 1.239 . S
O22 Nd0 2.487 . S
O22 C9 1.241 . S
O23 Nd0 2.682 1_455 S
O23 Nd1 2.414 . S
O23 C9 1.273 1_455 S
O24 Nd0 2.410 1_455 S
O24 C10 1.251 . S
O25 Nd1 2.424 . S
O25 C10 1.268 . S
O26 Nd1 2.500 . S
O26 C11 1.258 . S
O27 Nd1 2.492 . S
O27 C11 1.239 . S
O28 Nd1 2.487 . S
O28 C18 1.241 . S
O29 Nd0 2.414 . S
O29 Nd1 2.682 1_655 S
O29 C18 1.273 1_655 S
O30 Nd1 2.410 1_655 S
O30 C19 1.251 . S
O31 Nd0 2.424 . S
O31 C19 1.268 . S
H32 C4 0.930 . S
H33 C5 0.929 . S
H34 C7 0.930 . S
H35 C8 0.929 . S
H36 C13 0.930 . S
H37 C14 0.929 . S
H38 C16 0.930 . S
H39 C17 0.929 . S
Nd40 C42 2.836 . S
Nd40 O60 2.500 . S
Nd40 O61 2.492 . S
Nd40 O62 2.487 . S
Nd40 O63 2.682 . S
Nd40 O64 2.410 . S
Nd40 O69 2.414 . S
Nd40 O71 2.424 . S
Nd41 C51 2.836 . S
Nd41 O63 2.414 . S
Nd41 O65 2.424 . S
Nd41 O66 2.500 . S
Nd41 O67 2.492 . S
Nd41 O68 2.487 . S
Nd41 O69 2.682 . S
Nd41 O70 2.410 . S
C42 Nd40 2.836 . S
C42 C43 1.498 . S
C42 O60 1.258 . S
C42 O61 1.239 . S
C43 C42 1.498 . S
C43 C44 1.366 . S
C43 C48 1.407 . S
C44 C43 1.366 . S
C44 C45 1.392 . S
C44 H72 0.930 . S
C45 C44 1.392 . S
C45 C46 1.398 . S
C45 H73 0.929 . S
C46 C45 1.398 . S
C46 C47 1.352 . S
C47 C46 1.352 . S
C47 C48 1.384 . S
C47 H74 0.930 . S
C48 C43 1.407 . S
C48 C47 1.384 . S
C48 H75 0.929 . S
C49 O62 1.241 . S
C49 O63 1.273 . S
C50 O64 1.251 . S
C50 O65 1.268 . S
C51 Nd41 2.836 . S
C51 C52 1.498 . S
C51 O66 1.258 . S
C51 O67 1.239 . S
C52 C51 1.498 . S
C52 C53 1.366 . S
C52 C57 1.407 . S
C53 C52 1.366 . S
C53 C54 1.392 . S
C53 H76 0.930 . S
C54 C53 1.392 . S
C54 C55 1.398 . S
C54 H77 0.929 . S
C55 C54 1.398 . S
C55 C56 1.352 . S
C56 C55 1.352 . S
C56 C57 1.384 . S
C56 H78 0.930 . S
C57 C52 1.407 . S
C57 C56 1.384 . S
C57 H79 0.929 . S
C58 O68 1.241 . S
C58 O69 1.273 . S
C59 O70 1.251 . S
C59 O71 1.268 . S
O60 Nd40 2.500 . S
O60 C42 1.258 . S
O61 Nd40 2.492 . S
O61 C42 1.239 . S
O62 Nd40 2.487 . S
O62 C49 1.241 . S
O63 Nd40 2.682 . S
O63 Nd41 2.414 . S
O63 C49 1.273 . S
O64 Nd40 2.410 . S
O64 C50 1.251 . S
O65 Nd41 2.424 . S
O65 C50 1.268 . S
O66 Nd41 2.500 . S
O66 C51 1.258 . S
O67 Nd41 2.492 . S
O67 C51 1.239 . S
O68 Nd41 2.487 . S
O68 C58 1.241 . S
O69 Nd40 2.414 . S
O69 Nd41 2.682 . S
O69 C58 1.273 . S
O70 Nd41 2.410 . S
O70 C59 1.251 . S
O71 Nd40 2.424 . S
O71 C59 1.268 . S
H72 C44 0.930 . S
H73 C45 0.929 . S
H74 C47 0.930 . S
H75 C48 0.929 . S
H76 C53 0.930 . S
H77 C54 0.929 . S
H78 C56 0.930 . S
H79 C57 0.929 . S
Nd80 C82 2.836 . S
Nd80 O100 2.500 . S
Nd80 O101 2.492 . S
Nd80 O102 2.487 . S
Nd80 O103 2.682 . S
Nd80 O104 2.410 . S
Nd80 O109 2.414 . S
Nd80 O111 2.424 . S
Nd81 C91 2.836 . S
Nd81 O103 2.414 . S
Nd81 O105 2.424 . S
Nd81 O106 2.500 . S
Nd81 O107 2.492 . S
Nd81 O108 2.487 . S
Nd81 O109 2.682 . S
Nd81 O110 2.410 . S
C82 Nd80 2.836 . S
C82 C83 1.498 . S
C82 O100 1.258 . S
C82 O101 1.239 . S
C83 C82 1.498 . S
C83 C84 1.366 . S
C83 C88 1.407 . S
C84 C83 1.366 . S
C84 C85 1.392 . S
C84 H112 0.930 . S
C85 C84 1.392 . S
C85 C86 1.398 . S
C85 H113 0.929 . S
C86 C85 1.398 . S
C86 C87 1.352 . S
C87 C86 1.352 . S
C87 C88 1.384 . S
C87 H114 0.930 . S
C88 C83 1.407 . S
C88 C87 1.384 . S
C88 H115 0.929 . S
C89 O102 1.241 . S
C89 O103 1.273 . S
C90 O104 1.251 . S
C90 O105 1.268 . S
C91 Nd81 2.836 . S
C91 C92 1.498 . S
C91 O106 1.258 . S
C91 O107 1.239 . S
C92 C91 1.498 . S
C92 C93 1.366 . S
C92 C97 1.407 . S
C93 C92 1.366 . S
C93 C94 1.392 . S
C93 H116 0.930 . S
C94 C93 1.392 . S
C94 C95 1.398 . S
C94 H117 0.929 . S
C95 C94 1.398 . S
C95 C96 1.352 . S
C96 C95 1.352 . S
C96 C97 1.384 . S
C96 H118 0.930 . S
C97 C92 1.407 . S
C97 C96 1.384 . S
C97 H119 0.929 . S
C98 O108 1.241 . S
C98 O109 1.273 . S
C99 O110 1.251 . S
C99 O111 1.268 . S
O100 Nd80 2.500 . S
O100 C82 1.258 . S
O101 Nd80 2.492 . S
O101 C82 1.239 . S
O102 Nd80 2.487 . S
O102 C89 1.241 . S
O103 Nd80 2.682 . S
O103 Nd81 2.414 . S
O103 C89 1.273 . S
O104 Nd80 2.410 . S
O104 C90 1.251 . S
O105 Nd81 2.424 . S
O105 C90 1.268 . S
O106 Nd81 2.500 . S
O106 C91 1.258 . S
O107 Nd81 2.492 . S
O107 C91 1.239 . S
O108 Nd81 2.487 . S
O108 C98 1.241 . S
O109 Nd80 2.414 . S
O109 Nd81 2.682 . S
O109 C98 1.273 . S
O110 Nd81 2.410 . S
O110 C99 1.251 . S
O111 Nd80 2.424 . S
O111 C99 1.268 . S
H112 C84 0.930 . S
H113 C85 0.929 . S
H114 C87 0.930 . S
H115 C88 0.929 . S
H116 C93 0.930 . S
H117 C94 0.929 . S
H118 C96 0.930 . S
H119 C97 0.929 . S
Nd120 C122 2.836 . S
Nd120 O140 2.500 . S
Nd120 O141 2.492 . S
Nd120 O142 2.487 . S
Nd120 O143 2.682 . S
Nd120 O144 2.410 . S
Nd120 O149 2.414 . S
Nd120 O151 2.424 . S
Nd121 C131 2.836 . S
Nd121 O143 2.414 . S
Nd121 O145 2.424 . S
Nd121 O146 2.500 . S
Nd121 O147 2.492 . S
Nd121 O148 2.487 . S
Nd121 O149 2.682 . S
Nd121 O150 2.410 . S
C122 Nd120 2.836 . S
C122 C123 1.498 . S
C122 O140 1.258 . S
C122 O141 1.239 . S
C123 C122 1.498 . S
C123 C124 1.366 . S
C123 C128 1.407 . S
C124 C123 1.366 . S
C124 C125 1.392 . S
C124 H152 0.930 . S
C125 C124 1.392 . S
C125 C126 1.398 . S
C125 H153 0.929 . S
C126 C125 1.398 . S
C126 C127 1.352 . S
C127 C126 1.352 . S
C127 C128 1.384 . S
C127 H154 0.930 . S
C128 C123 1.407 . S
C128 C127 1.384 . S
C128 H155 0.929 . S
C129 O142 1.241 . S
C129 O143 1.273 . S
C130 O144 1.251 . S
C130 O145 1.268 . S
C131 Nd121 2.836 . S
C131 C132 1.480 1_556 S
C131 O146 1.258 . S
C131 O147 1.239 . S
C132 C131 1.480 1_554 S
C132 C133 1.378 . S
C132 C137 1.414 . S
C133 C132 1.378 . S
C133 C134 1.392 . S
C133 H156 0.930 . S
C134 C133 1.392 . S
C134 C135 1.398 . S
C134 H157 0.929 . S
C135 C134 1.398 . S
C135 C136 1.352 . S
C136 C135 1.352 . S
C136 C137 1.384 . S
C136 H158 0.930 . S
C137 C132 1.414 . S
C137 C136 1.384 . S
C137 H159 0.929 1_554 S
C138 O148 1.241 . S
C138 O149 1.273 . S
C139 O150 1.251 . S
C139 O151 1.268 . S
O140 Nd120 2.500 . S
O140 C122 1.258 . S
O141 Nd120 2.492 . S
O141 C122 1.239 . S
O142 Nd120 2.487 . S
O142 C129 1.241 . S
O143 Nd120 2.682 . S
O143 Nd121 2.414 . S
O143 C129 1.273 . S
O144 Nd120 2.410 . S
O144 C130 1.251 . S
O145 Nd121 2.424 . S
O145 C130 1.268 . S
O146 Nd121 2.500 . S
O146 C131 1.258 . S
O147 Nd121 2.492 . S
O147 C131 1.239 . S
O148 Nd121 2.487 . S
O148 C138 1.241 . S
O149 Nd120 2.414 . S
O149 Nd121 2.682 . S
O149 C138 1.273 . S
O150 Nd121 2.410 . S
O150 C139 1.251 . S
O151 Nd120 2.424 . S
O151 C139 1.268 . S
H152 C124 0.930 . S
H153 C125 0.929 . S
H154 C127 0.930 . S
H155 C128 0.929 . S
H156 C133 0.930 . S
H157 C134 0.929 . S
H158 C136 0.930 . S
H159 C137 0.929 1_556 S
Nd160 C162 2.836 . S
Nd160 O180 2.500 . S
Nd160 O181 2.492 . S
Nd160 O182 2.487 . S
Nd160 O183 2.682 1_655 S
Nd160 O184 2.410 1_655 S
Nd160 O189 2.414 1_655 S
Nd160 O191 2.424 . S
Nd161 C171 2.836 . S
Nd161 O183 2.414 . S
Nd161 O185 2.424 . S
Nd161 O186 2.500 . S
Nd161 O187 2.492 . S
Nd161 O188 2.487 . S
Nd161 O189 2.682 . S
Nd161 O190 2.410 . S
C162 Nd160 2.836 . S
C162 C163 1.498 . S
C162 O180 1.258 . S
C162 O181 1.239 . S
C163 C162 1.498 . S
C163 C164 1.366 . S
C163 C168 1.407 . S
C164 C163 1.366 . S
C164 C165 1.392 . S
C164 H192 0.930 . S
C165 C164 1.392 . S
C165 C166 1.398 . S
C165 H193 0.929 . S
C166 C165 1.398 . S
C166 C167 1.352 . S
C167 C166 1.352 . S
C167 C168 1.384 . S
C167 H194 0.930 . S
C168 C163 1.407 . S
C168 C167 1.384 . S
C168 H195 0.929 . S
C169 O182 1.241 1_455 S
C169 O183 1.273 . S
C170 O184 1.251 . S
C170 O185 1.268 . S
C171 Nd161 2.836 . S
C171 C172 1.498 1_556 S
C171 O186 1.258 . S
C171 O187 1.239 . S
C172 C171 1.498 1_554 S
C172 C173 1.366 . S
C172 C177 1.407 . S
C173 C172 1.366 . S
C173 C174 1.392 . S
C173 H196 0.930 . S
C174 C173 1.392 . S
C174 C175 1.398 . S
C174 H197 0.929 . S
C175 C174 1.398 . S
C175 C176 1.352 . S
C176 C175 1.352 . S
C176 C177 1.384 . S
C176 H198 0.930 . S
C177 C172 1.407 . S
C177 C176 1.384 . S
C177 H199 0.929 . S
C178 O188 1.241 . S
C178 O189 1.273 . S
C179 O190 1.251 1_655 S
C179 O191 1.268 . S
O180 Nd160 2.500 . S
O180 C162 1.258 . S
O181 Nd160 2.492 . S
O181 C162 1.239 . S
O182 Nd160 2.487 . S
O182 C169 1.241 1_655 S
O183 Nd160 2.682 1_455 S
O183 Nd161 2.414 . S
O183 C169 1.273 . S
O184 Nd160 2.410 1_455 S
O184 C170 1.251 . S
O185 Nd161 2.424 . S
O185 C170 1.268 . S
O186 Nd161 2.500 . S
O186 C171 1.258 . S
O187 Nd161 2.492 . S
O187 C171 1.239 . S
O188 Nd161 2.487 . S
O188 C178 1.241 . S
O189 Nd160 2.414 1_455 S
O189 Nd161 2.682 . S
O189 C178 1.273 . S
O190 Nd161 2.410 . S
O190 C179 1.251 1_455 S
O191 Nd160 2.424 . S
O191 C179 1.268 . S
H192 C164 0.930 . S
H193 C165 0.929 . S
H194 C167 0.930 . S
H195 C168 0.929 . S
H196 C173 0.930 . S
H197 C174 0.929 . S
H198 C176 0.930 . S
H199 C177 0.929 . S
Nd200 C202 2.836 . S
Nd200 O220 2.500 . S
Nd200 O221 2.492 . S
Nd200 O222 2.487 . S
Nd200 O223 2.682 . S
Nd200 O224 2.410 . S
Nd200 O229 2.414 . S
Nd200 O231 2.424 . S
Nd201 C211 2.836 . S
Nd201 O223 2.414 . S
Nd201 O225 2.424 . S
Nd201 O226 2.500 . S
Nd201 O227 2.492 . S
Nd201 O228 2.487 . S
Nd201 O229 2.682 . S
Nd201 O230 2.410 . S
C202 Nd200 2.836 . S
C202 C203 1.480 1_554 S
C202 O220 1.258 . S
C202 O221 1.239 . S
C203 C202 1.480 1_556 S
C203 C204 1.378 . S
C203 C208 1.414 . S
C204 C203 1.378 . S
C204 C205 1.392 . S
C204 H232 0.930 . S
C205 C204 1.392 . S
C205 C206 1.398 . S
C205 H233 0.929 . S
C206 C205 1.398 . S
C206 C207 1.352 . S
C207 C206 1.352 . S
C207 C208 1.384 . S
C207 H234 0.930 . S
C208 C203 1.414 . S
C208 C207 1.384 . S
C208 H235 0.929 1_556 S
C209 O222 1.241 . S
C209 O223 1.273 . S
C210 O224 1.251 . S
C210 O225 1.268 . S
C211 Nd201 2.836 . S
C211 C212 1.498 . S
C211 O226 1.258 . S
C211 O227 1.239 . S
C212 C211 1.498 . S
C212 C213 1.366 . S
C212 C217 1.407 . S
C213 C212 1.366 . S
C213 C214 1.392 . S
C213 H236 0.930 . S
C214 C213 1.392 . S
C214 C215 1.398 . S
C214 H237 0.929 . S
C215 C214 1.398 . S
C215 C216 1.352 . S
C216 C215 1.352 . S
C216 C217 1.384 . S
C216 H238 0.930 . S
C217 C212 1.407 . S
C217 C216 1.384 . S
C217 H239 0.929 . S
C218 O228 1.241 . S
C218 O229 1.273 . S
C219 O230 1.251 . S
C219 O231 1.268 . S
O220 Nd200 2.500 . S
O220 C202 1.258 . S
O221 Nd200 2.492 . S
O221 C202 1.239 . S
O222 Nd200 2.487 . S
O222 C209 1.241 . S
O223 Nd200 2.682 . S
O223 Nd201 2.414 . S
O223 C209 1.273 . S
O224 Nd200 2.410 . S
O224 C210 1.251 . S
O225 Nd201 2.424 . S
O225 C210 1.268 . S
O226 Nd201 2.500 . S
O226 C211 1.258 . S
O227 Nd201 2.492 . S
O227 C211 1.239 . S
O228 Nd201 2.487 . S
O228 C218 1.241 . S
O229 Nd200 2.414 . S
O229 Nd201 2.682 . S
O229 C218 1.273 . S
O230 Nd201 2.410 . S
O230 C219 1.251 . S
O231 Nd200 2.424 . S
O231 C219 1.268 . S
H232 C204 0.930 . S
H233 C205 0.929 . S
H234 C207 0.930 . S
H235 C208 0.929 1_554 S
H236 C213 0.930 . S
H237 C214 0.929 . S
H238 C216 0.930 . S
H239 C217 0.929 . S
Nd240 C242 2.836 . S
Nd240 O260 2.500 . S
Nd240 O261 2.492 . S
Nd240 O262 2.487 . S
Nd240 O263 2.682 . S
Nd240 O264 2.410 . S
Nd240 O269 2.414 . S
Nd240 O271 2.424 . S
Nd241 C251 2.836 . S
Nd241 O263 2.414 . S
Nd241 O265 2.424 . S
Nd241 O266 2.500 . S
Nd241 O267 2.492 . S
Nd241 O268 2.487 . S
Nd241 O269 2.682 . S
Nd241 O270 2.410 . S
C242 Nd240 2.836 . S
C242 C243 1.498 . S
C242 O260 1.258 . S
C242 O261 1.239 . S
C243 C242 1.498 . S
C243 C244 1.366 . S
C243 C248 1.407 . S
C244 C243 1.366 . S
C244 C245 1.392 . S
C244 H272 0.930 . S
C245 C244 1.392 . S
C245 C246 1.398 . S
C245 H273 0.929 . S
C246 C245 1.398 . S
C246 C247 1.352 . S
C247 C246 1.352 . S
C247 C248 1.384 . S
C247 H274 0.930 . S
C248 C243 1.407 . S
C248 C247 1.384 . S
C248 H275 0.929 . S
C249 O262 1.241 . S
C249 O263 1.273 . S
C250 O264 1.251 . S
C250 O265 1.268 . S
C251 Nd241 2.836 . S
C251 C252 1.498 . S
C251 O266 1.258 . S
C251 O267 1.239 . S
C252 C251 1.498 . S
C252 C253 1.366 . S
C252 C257 1.407 . S
C253 C252 1.366 . S
C253 C254 1.392 . S
C253 H276 0.930 . S
C254 C253 1.392 . S
C254 C255 1.398 . S
C254 H277 0.929 . S
C255 C254 1.398 . S
C255 C256 1.352 . S
C256 C255 1.352 . S
C256 C257 1.384 . S
C256 H278 0.930 . S
C257 C252 1.407 . S
C257 C256 1.384 . S
C257 H279 0.929 . S
C258 O268 1.241 . S
C258 O269 1.273 . S
C259 O270 1.251 . S
C259 O271 1.268 . S
O260 Nd240 2.500 . S
O260 C242 1.258 . S
O261 Nd240 2.492 . S
O261 C242 1.239 . S
O262 Nd240 2.487 . S
O262 C249 1.241 . S
O263 Nd240 2.682 . S
O263 Nd241 2.414 . S
O263 C249 1.273 . S
O264 Nd240 2.410 . S
O264 C250 1.251 . S
O265 Nd241 2.424 . S
O265 C250 1.268 . S
O266 Nd241 2.500 . S
O266 C251 1.258 . S
O267 Nd241 2.492 . S
O267 C251 1.239 . S
O268 Nd241 2.487 . S
O268 C258 1.241 . S
O269 Nd240 2.414 . S
O269 Nd241 2.682 . S
O269 C258 1.273 . S
O270 Nd241 2.410 . S
O270 C259 1.251 . S
O271 Nd240 2.424 . S
O271 C259 1.268 . S
H272 C244 0.930 . S
H273 C245 0.929 . S
H274 C247 0.930 . S
H275 C248 0.929 . S
H276 C253 0.930 . S
H277 C254 0.929 . S
H278 C256 0.930 . S
H279 C257 0.929 . S
Nd280 C282 2.836 . S
Nd280 O300 2.500 . S
Nd280 O301 2.492 . S
Nd280 O302 2.487 . S
Nd280 O303 2.682 . S
Nd280 O304 2.410 . S
Nd280 O309 2.414 . S
Nd280 O311 2.424 . S
Nd281 C291 2.836 . S
Nd281 O303 2.414 . S
Nd281 O305 2.424 . S
Nd281 O306 2.500 . S
Nd281 O307 2.492 . S
Nd281 O308 2.487 . S
Nd281 O309 2.682 . S
Nd281 O310 2.410 . S
C282 Nd280 2.836 . S
C282 C283 1.498 . S
C282 O300 1.258 . S
C282 O301 1.239 . S
C283 C282 1.498 . S
C283 C284 1.366 . S
C283 C288 1.407 . S
C284 C283 1.366 . S
C284 C285 1.392 . S
C284 H312 0.930 . S
C285 C284 1.392 . S
C285 C286 1.398 . S
C285 H313 0.929 . S
C286 C285 1.398 . S
C286 C287 1.352 . S
C287 C286 1.352 . S
C287 C288 1.384 . S
C287 H314 0.930 . S
C288 C283 1.407 . S
C288 C287 1.384 . S
C288 H315 0.929 . S
C289 O302 1.241 . S
C289 O303 1.273 . S
C290 O304 1.251 . S
C290 O305 1.268 . S
C291 Nd281 2.836 . S
C291 C292 1.498 . S
C291 O306 1.258 . S
C291 O307 1.239 . S
C292 C291 1.498 . S
C292 C293 1.366 . S
C292 C297 1.407 . S
C293 C292 1.366 . S
C293 C294 1.392 . S
C293 H316 0.930 . S
C294 C293 1.392 . S
C294 C295 1.398 . S
C294 H317 0.929 . S
C295 C294 1.398 . S
C295 C296 1.352 . S
C296 C295 1.352 . S
C296 C297 1.384 . S
C296 H318 0.930 . S
C297 C292 1.407 . S
C297 C296 1.384 . S
C297 H319 0.929 . S
C298 O308 1.241 . S
C298 O309 1.273 . S
C299 O310 1.251 . S
C299 O311 1.268 . S
O300 Nd280 2.500 . S
O300 C282 1.258 . S
O301 Nd280 2.492 . S
O301 C282 1.239 . S
O302 Nd280 2.487 . S
O302 C289 1.241 . S
O303 Nd280 2.682 . S
O303 Nd281 2.414 . S
O303 C289 1.273 . S
O304 Nd280 2.410 . S
O304 C290 1.251 . S
O305 Nd281 2.424 . S
O305 C290 1.268 . S
O306 Nd281 2.500 . S
O306 C291 1.258 . S
O307 Nd281 2.492 . S
O307 C291 1.239 . S
O308 Nd281 2.487 . S
O308 C298 1.241 . S
O309 Nd280 2.414 . S
O309 Nd281 2.682 . S
O309 C298 1.273 . S
O310 Nd281 2.410 . S
O310 C299 1.251 . S
O311 Nd280 2.424 . S
O311 C299 1.268 . S
H312 C284 0.930 . S
H313 C285 0.929 . S
H314 C287 0.930 . S
H315 C288 0.929 . S
H316 C293 0.930 . S
H317 C294 0.929 . S
H318 C296 0.930 . S
H319 C297 0.929 . S
Nd320 C322 2.836 . S
Nd320 O340 2.500 . S
Nd320 O341 2.492 . S
Nd320 O342 2.487 . S
Nd320 O343 2.682 . S
Nd320 O344 2.410 . S
Nd320 O349 2.414 . S
Nd320 O351 2.424 . S
Nd321 C331 2.836 . S
Nd321 O343 2.414 . S
Nd321 O345 2.424 . S
Nd321 O346 2.500 . S
Nd321 O347 2.492 . S
Nd321 O348 2.487 . S
Nd321 O349 2.682 . S
Nd321 O350 2.410 . S
C322 Nd320 2.836 . S
C322 C323 1.498 . S
C322 O340 1.258 . S
C322 O341 1.239 . S
C323 C322 1.498 . S
C323 C324 1.366 . S
C323 C328 1.407 . S
C324 C323 1.366 . S
C324 C325 1.392 . S
C324 H352 0.930 . S
C325 C324 1.392 . S
C325 C326 1.398 . S
C325 H353 0.929 . S
C326 C325 1.398 . S
C326 C327 1.352 . S
C327 C326 1.352 . S
C327 C328 1.384 . S
C327 H354 0.930 . S
C328 C323 1.407 . S
C328 C327 1.384 . S
C328 H355 0.929 . S
C329 O342 1.241 . S
C329 O343 1.273 . S
C330 O344 1.251 . S
C330 O345 1.268 . S
C331 Nd321 2.836 . S
C331 C332 1.498 . S
C331 O346 1.258 . S
C331 O347 1.239 . S
C332 C331 1.498 . S
C332 C333 1.366 . S
C332 C337 1.407 . S
C333 C332 1.366 . S
C333 C334 1.392 . S
C333 H356 0.930 . S
C334 C333 1.392 . S
C334 C335 1.398 . S
C334 H357 0.929 . S
C335 C334 1.398 . S
C335 C336 1.352 . S
C336 C335 1.352 . S
C336 C337 1.384 . S
C336 H358 0.930 . S
C337 C332 1.407 . S
C337 C336 1.384 . S
C337 H359 0.929 . S
C338 O348 1.241 . S
C338 O349 1.273 . S
C339 O350 1.251 . S
C339 O351 1.268 . S
O340 Nd320 2.500 . S
O340 C322 1.258 . S
O341 Nd320 2.492 . S
O341 C322 1.239 . S
O342 Nd320 2.487 . S
O342 C329 1.241 . S
O343 Nd320 2.682 . S
O343 Nd321 2.414 . S
O343 C329 1.273 . S
O344 Nd320 2.410 . S
O344 C330 1.251 . S
O345 Nd321 2.424 . S
O345 C330 1.268 . S
O346 Nd321 2.500 . S
O346 C331 1.258 . S
O347 Nd321 2.492 . S
O347 C331 1.239 . S
O348 Nd321 2.487 . S
O348 C338 1.241 . S
O349 Nd320 2.414 . S
O349 Nd321 2.682 . S
O349 C338 1.273 . S
O350 Nd321 2.410 . S
O350 C339 1.251 . S
O351 Nd320 2.424 . S
O351 C339 1.268 . S
H352 C324 0.930 . S
H353 C325 0.929 . S
H354 C327 0.930 . S
H355 C328 0.929 . S
H356 C333 0.930 . S
H357 C334 0.929 . S
H358 C336 0.930 . S
H359 C337 0.929 . S
Nd360 C362 2.836 . S
Nd360 O380 2.500 . S
Nd360 O381 2.492 . S
Nd360 O382 2.487 . S
Nd360 O383 2.682 . S
Nd360 O384 2.410 . S
Nd360 O389 2.414 . S
Nd360 O391 2.424 . S
Nd361 C371 2.836 . S
Nd361 O383 2.414 . S
Nd361 O385 2.424 . S
Nd361 O386 2.500 . S
Nd361 O387 2.492 . S
Nd361 O388 2.487 . S
Nd361 O389 2.682 . S
Nd361 O390 2.410 . S
C362 Nd360 2.836 . S
C362 C363 1.480 1_554 S
C362 O380 1.258 . S
C362 O381 1.239 . S
C363 C362 1.480 1_556 S
C363 C364 1.378 . S
C363 C368 1.414 . S
C364 C363 1.378 . S
C364 C365 1.392 . S
C364 H392 0.930 . S
C365 C364 1.392 . S
C365 C366 1.398 . S
C365 H393 0.929 . S
C366 C365 1.398 . S
C366 C367 1.352 . S
C367 C366 1.352 . S
C367 C368 1.384 . S
C367 H394 0.930 . S
C368 C363 1.414 . S
C368 C367 1.384 . S
C368 H395 0.929 1_556 S
C369 O382 1.241 . S
C369 O383 1.273 . S
C370 O384 1.251 . S
C370 O385 1.268 . S
C371 Nd361 2.836 . S
C371 C372 1.498 . S
C371 O386 1.258 . S
C371 O387 1.239 . S
C372 C371 1.498 . S
C372 C373 1.366 . S
C372 C377 1.407 . S
C373 C372 1.366 . S
C373 C374 1.392 . S
C373 H396 0.930 . S
C374 C373 1.392 . S
C374 C375 1.398 . S
C374 H397 0.929 . S
C375 C374 1.398 . S
C375 C376 1.352 . S
C376 C375 1.352 . S
C376 C377 1.384 . S
C376 H398 0.930 . S
C377 C372 1.407 . S
C377 C376 1.384 . S
C377 H399 0.929 . S
C378 O388 1.241 . S
C378 O389 1.273 . S
C379 O390 1.251 . S
C379 O391 1.268 . S
O380 Nd360 2.500 . S
O380 C362 1.258 . S
O381 Nd360 2.492 . S
O381 C362 1.239 . S
O382 Nd360 2.487 . S
O382 C369 1.241 . S
O383 Nd360 2.682 . S
O383 Nd361 2.414 . S
O383 C369 1.273 . S
O384 Nd360 2.410 . S
O384 C370 1.251 . S
O385 Nd361 2.424 . S
O385 C370 1.268 . S
O386 Nd361 2.500 . S
O386 C371 1.258 . S
O387 Nd361 2.492 . S
O387 C371 1.239 . S
O388 Nd361 2.487 . S
O388 C378 1.241 . S
O389 Nd360 2.414 . S
O389 Nd361 2.682 . S
O389 C378 1.273 . S
O390 Nd361 2.410 . S
O390 C379 1.251 . S
O391 Nd360 2.424 . S
O391 C379 1.268 . S
H392 C364 0.930 . S
H393 C365 0.929 . S
H394 C367 0.930 . S
H395 C368 0.929 1_554 S
H396 C373 0.930 . S
H397 C374 0.929 . S
H398 C376 0.930 . S
H399 C377 0.929 . S
Nd400 C402 2.836 . S
Nd400 O420 2.500 . S
Nd400 O421 2.492 . S
Nd400 O422 2.487 . S
Nd400 O423 2.682 . S
Nd400 O424 2.410 . S
Nd400 O429 2.414 . S
Nd400 O431 2.424 . S
Nd401 C411 2.836 . S
Nd401 O423 2.414 . S
Nd401 O425 2.424 . S
Nd401 O426 2.500 . S
Nd401 O427 2.492 . S
Nd401 O428 2.487 . S
Nd401 O429 2.682 . S
Nd401 O430 2.410 . S
C402 Nd400 2.836 . S
C402 C403 1.498 . S
C402 O420 1.258 . S
C402 O421 1.239 . S
C403 C402 1.498 . S
C403 C404 1.366 . S
C403 C408 1.407 . S
C404 C403 1.366 . S
C404 C405 1.392 . S
C404 H432 0.930 . S
C405 C404 1.392 . S
C405 C406 1.398 . S
C405 H433 0.929 . S
C406 C405 1.398 . S
C406 C407 1.352 . S
C407 C406 1.352 . S
C407 C408 1.384 . S
C407 H434 0.930 . S
C408 C403 1.407 . S
C408 C407 1.384 . S
C408 H435 0.929 . S
C409 O422 1.241 . S
C409 O423 1.273 . S
C410 O424 1.251 . S
C410 O425 1.268 . S
C411 Nd401 2.836 . S
C411 C412 1.480 1_556 S
C411 O426 1.258 . S
C411 O427 1.239 . S
C412 C411 1.480 1_554 S
C412 C413 1.378 . S
C412 C417 1.414 . S
C413 C412 1.378 . S
C413 C414 1.392 . S
C413 H436 0.930 . S
C414 C413 1.392 . S
C414 C415 1.398 . S
C414 H437 0.929 . S
C415 C414 1.398 . S
C415 C416 1.352 . S
C416 C415 1.352 . S
C416 C417 1.384 . S
C416 H438 0.930 . S
C417 C412 1.414 . S
C417 C416 1.384 . S
C417 H439 0.929 1_554 S
C418 O428 1.241 . S
C418 O429 1.273 . S
C419 O430 1.251 . S
C419 O431 1.268 . S
O420 Nd400 2.500 . S
O420 C402 1.258 . S
O421 Nd400 2.492 . S
O421 C402 1.239 . S
O422 Nd400 2.487 . S
O422 C409 1.241 . S
O423 Nd400 2.682 . S
O423 Nd401 2.414 . S
O423 C409 1.273 . S
O424 Nd400 2.410 . S
O424 C410 1.251 . S
O425 Nd401 2.424 . S
O425 C410 1.268 . S
O426 Nd401 2.500 . S
O426 C411 1.258 . S
O427 Nd401 2.492 . S
O427 C411 1.239 . S
O428 Nd401 2.487 . S
O428 C418 1.241 . S
O429 Nd400 2.414 . S
O429 Nd401 2.682 . S
O429 C418 1.273 . S
O430 Nd401 2.410 . S
O430 C419 1.251 . S
O431 Nd400 2.424 . S
O431 C419 1.268 . S
H432 C404 0.930 . S
H433 C405 0.929 . S
H434 C407 0.930 . S
H435 C408 0.929 . S
H436 C413 0.930 . S
H437 C414 0.929 . S
H438 C416 0.930 . S
H439 C417 0.929 1_556 S
Nd440 C442 2.836 . S
Nd440 O460 2.500 . S
Nd440 O461 2.492 . S
Nd440 O462 2.487 . S
Nd440 O463 2.682 . S
Nd440 O464 2.410 . S
Nd440 O469 2.414 . S
Nd440 O471 2.424 . S
Nd441 C451 2.836 . S
Nd441 O463 2.414 . S
Nd441 O465 2.424 . S
Nd441 O466 2.500 . S
Nd441 O467 2.492 . S
Nd441 O468 2.487 . S
Nd441 O469 2.682 . S
Nd441 O470 2.410 . S
C442 Nd440 2.836 . S
C442 C443 1.498 . S
C442 O460 1.258 . S
C442 O461 1.239 . S
C443 C442 1.498 . S
C443 C444 1.366 . S
C443 C448 1.407 . S
C444 C443 1.366 . S
C444 C445 1.392 . S
C444 H472 0.930 . S
C445 C444 1.392 . S
C445 C446 1.398 . S
C445 H473 0.929 . S
C446 C445 1.398 . S
C446 C447 1.352 . S
C447 C446 1.352 . S
C447 C448 1.384 . S
C447 H474 0.930 . S
C448 C443 1.407 . S
C448 C447 1.384 . S
C448 H475 0.929 . S
C449 O462 1.241 . S
C449 O463 1.273 . S
C450 O464 1.251 . S
C450 O465 1.268 . S
C451 Nd441 2.836 . S
C451 C452 1.498 . S
C451 O466 1.258 . S
C451 O467 1.239 . S
C452 C451 1.498 . S
C452 C453 1.366 . S
C452 C457 1.407 . S
C453 C452 1.366 . S
C453 C454 1.392 . S
C453 H476 0.930 . S
C454 C453 1.392 . S
C454 C455 1.398 . S
C454 H477 0.929 . S
C455 C454 1.398 . S
C455 C456 1.352 . S
C456 C455 1.352 . S
C456 C457 1.384 . S
C456 H478 0.930 . S
C457 C452 1.407 . S
C457 C456 1.384 . S
C457 H479 0.929 . S
C458 O468 1.241 . S
C458 O469 1.273 . S
C459 O470 1.251 . S
C459 O471 1.268 . S
O460 Nd440 2.500 . S
O460 C442 1.258 . S
O461 Nd440 2.492 . S
O461 C442 1.239 . S
O462 Nd440 2.487 . S
O462 C449 1.241 . S
O463 Nd440 2.682 . S
O463 Nd441 2.414 . S
O463 C449 1.273 . S
O464 Nd440 2.410 . S
O464 C450 1.251 . S
O465 Nd441 2.424 . S
O465 C450 1.268 . S
O466 Nd441 2.500 . S
O466 C451 1.258 . S
O467 Nd441 2.492 . S
O467 C451 1.239 . S
O468 Nd441 2.487 . S
O468 C458 1.241 . S
O469 Nd440 2.414 . S
O469 Nd441 2.682 . S
O469 C458 1.273 . S
O470 Nd441 2.410 . S
O470 C459 1.251 . S
O471 Nd440 2.424 . S
O471 C459 1.268 . S
H472 C444 0.930 . S
H473 C445 0.929 . S
H474 C447 0.930 . S
H475 C448 0.929 . S
H476 C453 0.930 . S
H477 C454 0.929 . S
H478 C456 0.930 . S
H479 C457 0.929 . S
Nd480 C482 2.836 . S
Nd480 O500 2.500 . S
Nd480 O501 2.492 . S
Nd480 O502 2.487 . S
Nd480 O503 2.682 . S
Nd480 O504 2.410 . S
Nd480 O509 2.414 . S
Nd480 O511 2.424 . S
Nd481 C491 2.836 . S
Nd481 O503 2.414 . S
Nd481 O505 2.424 . S
Nd481 O506 2.500 . S
Nd481 O507 2.492 . S
Nd481 O508 2.487 . S
Nd481 O509 2.682 . S
Nd481 O510 2.410 . S
C482 Nd480 2.836 . S
C482 C483 1.498 . S
C482 O500 1.258 . S
C482 O501 1.239 . S
C483 C482 1.498 . S
C483 C484 1.366 . S
C483 C488 1.407 . S
C484 C483 1.366 . S
C484 C485 1.392 . S
C484 H512 0.930 . S
C485 C484 1.392 . S
C485 C486 1.398 . S
C485 H513 0.929 . S
C486 C485 1.398 . S
C486 C487 1.352 . S
C487 C486 1.352 . S
C487 C488 1.384 . S
C487 H514 0.930 . S
C488 C483 1.407 . S
C488 C487 1.384 . S
C488 H515 0.929 . S
C489 O502 1.241 . S
C489 O503 1.273 . S
C490 O504 1.251 . S
C490 O505 1.268 . S
C491 Nd481 2.836 . S
C491 C492 1.498 . S
C491 O506 1.258 . S
C491 O507 1.239 . S
C492 C491 1.498 . S
C492 C493 1.366 . S
C492 C497 1.407 . S
C493 C492 1.366 . S
C493 C494 1.392 . S
C493 H516 0.930 . S
C494 C493 1.392 . S
C494 C495 1.398 . S
C494 H517 0.929 . S
C495 C494 1.398 . S
C495 C496 1.352 . S
C496 C495 1.352 . S
C496 C497 1.384 . S
C496 H518 0.930 . S
C497 C492 1.407 . S
C497 C496 1.384 . S
C497 H519 0.929 . S
C498 O508 1.241 . S
C498 O509 1.273 . S
C499 O510 1.251 . S
C499 O511 1.268 . S
O500 Nd480 2.500 . S
O500 C482 1.258 . S
O501 Nd480 2.492 . S
O501 C482 1.239 . S
O502 Nd480 2.487 . S
O502 C489 1.241 . S
O503 Nd480 2.682 . S
O503 Nd481 2.414 . S
O503 C489 1.273 . S
O504 Nd480 2.410 . S
O504 C490 1.251 . S
O505 Nd481 2.424 . S
O505 C490 1.268 . S
O506 Nd481 2.500 . S
O506 C491 1.258 . S
O507 Nd481 2.492 . S
O507 C491 1.239 . S
O508 Nd481 2.487 . S
O508 C498 1.241 . S
O509 Nd480 2.414 . S
O509 Nd481 2.682 . S
O509 C498 1.273 . S
O510 Nd481 2.410 . S
O510 C499 1.251 . S
O511 Nd480 2.424 . S
O511 C499 1.268 . S
H512 C484 0.930 . S
H513 C485 0.929 . S
H514 C487 0.930 . S
H515 C488 0.929 . S
H516 C493 0.930 . S
H517 C494 0.929 . S
H518 C496 0.930 . S
H519 C497 0.929 . S
Nd520 C522 2.836 . S
Nd520 O540 2.500 . S
Nd520 O541 2.492 . S
Nd520 O542 2.487 . S
Nd520 O543 2.682 . S
Nd520 O544 2.410 . S
Nd520 O549 2.414 . S
Nd520 O551 2.424 . S
Nd521 C531 2.836 . S
Nd521 O543 2.414 1_655 S
Nd521 O545 2.424 . S
Nd521 O546 2.500 . S
Nd521 O547 2.492 . S
Nd521 O548 2.487 . S
Nd521 O549 2.682 1_655 S
Nd521 O550 2.410 1_655 S
C522 Nd520 2.836 . S
C522 C523 1.498 1_554 S
C522 O540 1.258 . S
C522 O541 1.239 . S
C523 C522 1.498 1_556 S
C523 C524 1.366 . S
C523 C528 1.407 . S
C524 C523 1.366 . S
C524 C525 1.392 . S
C524 H552 0.930 . S
C525 C524 1.392 . S
C525 C526 1.398 . S
C525 H553 0.929 . S
C526 C525 1.398 . S
C526 C527 1.352 . S
C527 C526 1.352 . S
C527 C528 1.384 . S
C527 H554 0.930 . S
C528 C523 1.407 . S
C528 C527 1.384 . S
C528 H555 0.929 . S
C529 O542 1.241 . S
C529 O543 1.273 . S
C530 O544 1.251 1_655 S
C530 O545 1.268 . S
C531 Nd521 2.836 . S
C531 C532 1.498 . S
C531 O546 1.258 . S
C531 O547 1.239 . S
C532 C531 1.498 . S
C532 C533 1.366 . S
C532 C537 1.407 . S
C533 C532 1.366 . S
C533 C534 1.392 . S
C533 H556 0.930 . S
C534 C533 1.392 . S
C534 C535 1.398 . S
C534 H557 0.929 . S
C535 C534 1.398 . S
C535 C536 1.352 . S
C536 C535 1.352 . S
C536 C537 1.384 . S
C536 H558 0.930 . S
C537 C532 1.407 . S
C537 C536 1.384 . S
C537 H559 0.929 . S
C538 O548 1.241 1_455 S
C538 O549 1.273 . S
C539 O550 1.251 . S
C539 O551 1.268 . S
O540 Nd520 2.500 . S
O540 C522 1.258 . S
O541 Nd520 2.492 . S
O541 C522 1.239 . S
O542 Nd520 2.487 . S
O542 C529 1.241 . S
O543 Nd520 2.682 . S
O543 Nd521 2.414 1_455 S
O543 C529 1.273 . S
O544 Nd520 2.410 . S
O544 C530 1.251 1_455 S
O545 Nd521 2.424 . S
O545 C530 1.268 . S
O546 Nd521 2.500 . S
O546 C531 1.258 . S
O547 Nd521 2.492 . S
O547 C531 1.239 . S
O548 Nd521 2.487 . S
O548 C538 1.241 1_655 S
O549 Nd520 2.414 . S
O549 Nd521 2.682 1_455 S
O549 C538 1.273 . S
O550 Nd521 2.410 1_455 S
O550 C539 1.251 . S
O551 Nd520 2.424 . S
O551 C539 1.268 . S
H552 C524 0.930 . S
H553 C525 0.929 . S
H554 C527 0.930 . S
H555 C528 0.929 . S
H556 C533 0.930 . S
H557 C534 0.929 . S
H558 C536 0.930 . S
H559 C537 0.929 . S
Nd560 C562 2.836 . S
Nd560 O580 2.500 . S
Nd560 O581 2.492 . S
Nd560 O582 2.487 . S
Nd560 O583 2.682 . S
Nd560 O584 2.410 . S
Nd560 O589 2.414 . S
Nd560 O591 2.424 . S
Nd561 C571 2.836 . S
Nd561 O583 2.414 . S
Nd561 O585 2.424 . S
Nd561 O586 2.500 . S
Nd561 O587 2.492 . S
Nd561 O588 2.487 . S
Nd561 O589 2.682 . S
Nd561 O590 2.410 . S
C562 Nd560 2.836 . S
C562 C563 1.498 . S
C562 O580 1.258 . S
C562 O581 1.239 . S
C563 C562 1.498 . S
C563 C564 1.366 . S
C563 C568 1.407 . S
C564 C563 1.366 . S
C564 C565 1.392 . S
C564 H592 0.930 . S
C565 C564 1.392 . S
C565 C566 1.398 . S
C565 H593 0.929 . S
C566 C565 1.398 . S
C566 C567 1.352 . S
C567 C566 1.352 . S
C567 C568 1.384 . S
C567 H594 0.930 . S
C568 C563 1.407 . S
C568 C567 1.384 . S
C568 H595 0.929 . S
C569 O582 1.241 . S
C569 O583 1.273 . S
C570 O584 1.251 . S
C570 O585 1.268 . S
C571 Nd561 2.836 . S
C571 C572 1.498 . S
C571 O586 1.258 . S
C571 O587 1.239 . S
C572 C571 1.498 . S
C572 C573 1.366 . S
C572 C577 1.407 . S
C573 C572 1.366 . S
C573 C574 1.392 . S
C573 H596 0.930 . S
C574 C573 1.392 . S
C574 C575 1.398 . S
C574 H597 0.929 . S
C575 C574 1.398 . S
C575 C576 1.352 . S
C576 C575 1.352 . S
C576 C577 1.384 . S
C576 H598 0.930 . S
C577 C572 1.407 . S
C577 C576 1.384 . S
C577 H599 0.929 . S
C578 O588 1.241 . S
C578 O589 1.273 . S
C579 O590 1.251 . S
C579 O591 1.268 . S
O580 Nd560 2.500 . S
O580 C562 1.258 . S
O581 Nd560 2.492 . S
O581 C562 1.239 . S
O582 Nd560 2.487 . S
O582 C569 1.241 . S
O583 Nd560 2.682 . S
O583 Nd561 2.414 . S
O583 C569 1.273 . S
O584 Nd560 2.410 . S
O584 C570 1.251 . S
O585 Nd561 2.424 . S
O585 C570 1.268 . S
O586 Nd561 2.500 . S
O586 C571 1.258 . S
O587 Nd561 2.492 . S
O587 C571 1.239 . S
O588 Nd561 2.487 . S
O588 C578 1.241 . S
O589 Nd560 2.414 . S
O589 Nd561 2.682 . S
O589 C578 1.273 . S
O590 Nd561 2.410 . S
O590 C579 1.251 . S
O591 Nd560 2.424 . S
O591 C579 1.268 . S
H592 C564 0.930 . S
H593 C565 0.929 . S
H594 C567 0.930 . S
H595 C568 0.929 . S
H596 C573 0.930 . S
H597 C574 0.929 . S
H598 C576 0.930 . S
H599 C577 0.929 . S
Nd600 C602 2.836 . S
Nd600 O620 2.500 . S
Nd600 O621 2.492 . S
Nd600 O622 2.487 . S
Nd600 O623 2.682 1_455 S
Nd600 O624 2.410 1_455 S
Nd600 O629 2.414 . S
Nd600 O631 2.424 . S
Nd601 C611 2.836 . S
Nd601 O623 2.414 . S
Nd601 O625 2.424 . S
Nd601 O626 2.500 . S
Nd601 O627 2.492 . S
Nd601 O628 2.487 . S
Nd601 O629 2.682 1_655 S
Nd601 O630 2.410 1_655 S
C602 Nd600 2.836 . S
C602 C603 1.498 . S
C602 O620 1.258 . S
C602 O621 1.239 . S
C603 C602 1.498 . S
C603 C604 1.366 . S
C603 C608 1.407 . S
C604 C603 1.366 . S
C604 C605 1.392 . S
C604 H632 0.930 . S
C605 C604 1.392 . S
C605 C606 1.398 . S
C605 H633 0.929 . S
C606 C605 1.398 . S
C606 C607 1.352 . S
C607 C606 1.352 . S
C607 C608 1.384 . S
C607 H634 0.930 . S
C608 C603 1.407 . S
C608 C607 1.384 . S
C608 H635 0.929 . S
C609 O622 1.241 . S
C609 O623 1.273 1_455 S
C610 O624 1.251 . S
C610 O625 1.268 . S
C611 Nd601 2.836 . S
C611 C612 1.498 1_556 S
C611 O626 1.258 . S
C611 O627 1.239 . S
C612 C611 1.498 1_554 S
C612 C613 1.366 . S
C612 C617 1.407 . S
C613 C612 1.366 . S
C613 C614 1.392 . S
C613 H636 0.930 . S
C614 C613 1.392 . S
C614 C615 1.398 . S
C614 H637 0.929 . S
C615 C614 1.398 . S
C615 C616 1.352 . S
C616 C615 1.352 . S
C616 C617 1.384 . S
C616 H638 0.930 . S
C617 C612 1.407 . S
C617 C616 1.384 . S
C617 H639 0.929 . S
C618 O628 1.241 . S
C618 O629 1.273 1_655 S
C619 O630 1.251 . S
C619 O631 1.268 . S
O620 Nd600 2.500 . S
O620 C602 1.258 . S
O621 Nd600 2.492 . S
O621 C602 1.239 . S
O622 Nd600 2.487 . S
O622 C609 1.241 . S
O623 Nd600 2.682 1_655 S
O623 Nd601 2.414 . S
O623 C609 1.273 1_655 S
O624 Nd600 2.410 1_655 S
O624 C610 1.251 . S
O625 Nd601 2.424 . S
O625 C610 1.268 . S
O626 Nd601 2.500 . S
O626 C611 1.258 . S
O627 Nd601 2.492 . S
O627 C611 1.239 . S
O628 Nd601 2.487 . S
O628 C618 1.241 . S
O629 Nd600 2.414 . S
O629 Nd601 2.682 1_455 S
O629 C618 1.273 1_455 S
O630 Nd601 2.410 1_455 S
O630 C619 1.251 . S
O631 Nd600 2.424 . S
O631 C619 1.268 . S
H632 C604 0.930 . S
H633 C605 0.929 . S
H634 C607 0.930 . S
H635 C608 0.929 . S
H636 C613 0.930 . S
H637 C614 0.929 . S
H638 C616 0.930 . S
H639 C617 0.929 . S
C640 C641 1.391 . S
C640 C642 1.394 1_554 S
C640 H656 0.931 . S
C641 C640 1.391 . S
C641 C645 1.376 1_554 S
C642 C640 1.394 1_556 S
C642 C643 1.369 . S
C642 C646 1.531 . S
C643 C642 1.369 . S
C643 C644 1.410 . S
C643 C651 1.503 . S
C644 C643 1.410 . S
C644 C645 1.392 . S
C644 C647 1.511 . S
C645 C641 1.376 1_556 S
C645 C644 1.392 . S
C645 H657 0.929 . S
C646 C642 1.531 . S
C646 H658 0.960 . S
C646 H659 0.962 . S
C646 H660 0.960 1_556 S
C647 C644 1.511 . S
C647 H661 0.961 . S
C647 H662 0.961 . S
C647 H663 0.961 . S
C648 C649 1.370 . S
C648 C650 1.363 . S
C648 H664 0.931 . S
C649 C648 1.370 . S
C649 C653 1.408 . S
C650 C648 1.363 . S
C650 C651 1.370 . S
C650 C654 1.524 . S
C651 C643 1.503 . S
C651 C650 1.370 . S
C651 C652 1.403 . S
C652 C651 1.403 . S
C652 C653 1.404 . S
C652 C655 1.539 . S
C653 C649 1.408 . S
C653 C652 1.404 . S
C653 H665 0.930 . S
C654 C650 1.524 . S
C654 H666 0.956 . S
C654 H667 0.961 . S
C654 H668 0.961 . S
C655 C652 1.539 . S
C655 H669 0.958 . S
C655 H670 0.961 . S
C655 H671 0.960 . S
H656 C640 0.931 . S
H657 C645 0.929 . S
H658 C646 0.960 . S
H659 C646 0.962 . S
H660 C646 0.960 1_554 S
H661 C647 0.961 . S
H662 C647 0.961 . S
H663 C647 0.961 . S
H664 C648 0.931 . S
H665 C653 0.930 . S
H666 C654 0.956 . S
H667 C654 0.961 . S
H668 C654 0.961 . S
H669 C655 0.958 . S
H670 C655 0.961 . S
H671 C655 0.960 . S
C672 C673 1.391 . S
C672 C674 1.394 . S
C672 H688 0.931 . S
C673 C672 1.391 . S
C673 C677 1.376 . S
C674 C672 1.394 . S
C674 C675 1.369 . S
C674 C678 1.531 . S
C675 C674 1.369 . S
C675 C676 1.410 . S
C675 C683 1.503 . S
C676 C675 1.410 . S
C676 C677 1.392 . S
C676 C679 1.511 . S
C677 C673 1.376 . S
C677 C676 1.392 . S
C677 H689 0.929 . S
C678 C674 1.531 . S
C678 H690 0.960 . S
C678 H691 0.962 . S
C678 H692 0.960 . S
C679 C676 1.511 . S
C679 H693 0.961 . S
C679 H694 0.961 . S
C679 H695 0.961 . S
C680 C681 1.370 . S
C680 C682 1.363 . S
C680 H696 0.931 . S
C681 C680 1.370 . S
C681 C685 1.408 . S
C682 C680 1.363 . S
C682 C683 1.370 . S
C682 C686 1.524 . S
C683 C675 1.503 . S
C683 C682 1.370 . S
C683 C684 1.403 . S
C684 C683 1.403 . S
C684 C685 1.404 . S
C684 C687 1.539 . S
C685 C681 1.408 . S
C685 C684 1.404 . S
C685 H697 0.930 . S
C686 C682 1.524 . S
C686 H698 0.956 . S
C686 H699 0.961 . S
C686 H700 0.961 . S
C687 C684 1.539 . S
C687 H701 0.958 . S
C687 H702 0.961 . S
C687 H703 0.960 . S
H688 C672 0.931 . S
H689 C677 0.929 . S
H690 C678 0.960 . S
H691 C678 0.962 . S
H692 C678 0.960 . S
H693 C679 0.961 . S
H694 C679 0.961 . S
H695 C679 0.961 . S
H696 C680 0.931 . S
H697 C685 0.930 . S
H698 C686 0.956 . S
H699 C686 0.961 . S
H700 C686 0.961 . S
H701 C687 0.958 . S
H702 C687 0.961 . S
H703 C687 0.960 . S
C704 C705 1.391 . S
C704 C706 1.394 . S
C704 H720 0.931 . S
C705 C704 1.391 . S
C705 C709 1.376 . S
C706 C704 1.394 . S
C706 C707 1.369 . S
C706 C710 1.531 . S
C707 C706 1.369 . S
C707 C708 1.410 . S
C707 C715 1.503 . S
C708 C707 1.410 . S
C708 C709 1.392 . S
C708 C711 1.511 . S
C709 C705 1.376 . S
C709 C708 1.392 . S
C709 H721 0.929 . S
C710 C706 1.531 . S
C710 H722 0.960 . S
C710 H723 0.962 . S
C710 H724 0.960 . S
C711 C708 1.511 . S
C711 H725 0.961 . S
C711 H726 0.961 . S
C711 H727 0.961 . S
C712 C713 1.370 . S
C712 C714 1.363 . S
C712 H728 0.931 . S
C713 C712 1.370 . S
C713 C717 1.408 . S
C714 C712 1.363 . S
C714 C715 1.370 . S
C714 C718 1.524 . S
C715 C707 1.503 . S
C715 C714 1.370 . S
C715 C716 1.403 . S
C716 C715 1.403 . S
C716 C717 1.404 . S
C716 C719 1.539 . S
C717 C713 1.408 . S
C717 C716 1.404 . S
C717 H729 0.930 . S
C718 C714 1.524 . S
C718 H730 0.956 . S
C718 H731 0.961 . S
C718 H732 0.961 . S
C719 C716 1.539 . S
C719 H733 0.958 . S
C719 H734 0.961 . S
C719 H735 0.960 . S
H720 C704 0.931 . S
H721 C709 0.929 . S
H722 C710 0.960 . S
H723 C710 0.962 . S
H724 C710 0.960 . S
H725 C711 0.961 . S
H726 C711 0.961 . S
H727 C711 0.961 . S
H728 C712 0.931 . S
H729 C717 0.930 . S
H730 C718 0.956 . S
H731 C718 0.961 . S
H732 C718 0.961 . S
H733 C719 0.958 . S
H734 C719 0.961 . S
H735 C719 0.960 . S
C736 C737 1.391 . S
C736 C738 1.394 . S
C736 H752 0.931 . S
C737 C736 1.391 . S
C737 C741 1.376 . S
C738 C736 1.394 . S
C738 C739 1.369 . S
C738 C742 1.531 . S
C739 C738 1.369 . S
C739 C740 1.410 . S
C739 C747 1.503 . S
C740 C739 1.410 . S
C740 C741 1.392 . S
C740 C743 1.511 . S
C741 C737 1.376 . S
C741 C740 1.392 . S
C741 H753 0.929 . S
C742 C738 1.531 . S
C742 H754 0.960 . S
C742 H755 0.962 . S
C742 H756 0.960 . S
C743 C740 1.511 . S
C743 H757 0.961 . S
C743 H758 0.961 . S
C743 H759 0.961 . S
C744 C745 1.370 . S
C744 C746 1.363 . S
C744 H760 0.931 . S
C745 C744 1.370 . S
C745 C749 1.408 . S
C746 C744 1.363 . S
C746 C747 1.370 . S
C746 C750 1.524 . S
C747 C739 1.503 . S
C747 C746 1.370 . S
C747 C748 1.403 . S
C748 C747 1.403 . S
C748 C749 1.404 . S
C748 C751 1.539 . S
C749 C745 1.408 . S
C749 C748 1.404 . S
C749 H761 0.930 . S
C750 C746 1.524 . S
C750 H762 0.956 . S
C750 H763 0.961 . S
C750 H764 0.961 . S
C751 C748 1.539 . S
C751 H765 0.958 . S
C751 H766 0.961 . S
C751 H767 0.960 . S
H752 C736 0.931 . S
H753 C741 0.929 . S
H754 C742 0.960 . S
H755 C742 0.962 . S
H756 C742 0.960 . S
H757 C743 0.961 . S
H758 C743 0.961 . S
H759 C743 0.961 . S
H760 C744 0.931 . S
H761 C749 0.930 . S
H762 C750 0.956 . S
H763 C750 0.961 . S
H764 C750 0.961 . S
H765 C751 0.958 . S
H766 C751 0.961 . S
H767 C751 0.960 . S
C768 C769 1.391 . S
C768 C770 1.394 . S
C768 H784 0.931 . S
C769 C768 1.391 . S
C769 C773 1.376 . S
C770 C768 1.394 . S
C770 C771 1.369 . S
C770 C774 1.531 . S
C771 C770 1.369 . S
C771 C772 1.410 . S
C771 C779 1.503 . S
C772 C771 1.410 . S
C772 C773 1.392 . S
C772 C775 1.511 . S
C773 C769 1.376 . S
C773 C772 1.392 . S
C773 H785 0.929 . S
C774 C770 1.531 . S
C774 H786 0.960 . S
C774 H787 0.962 . S
C774 H788 0.960 . S
C775 C772 1.511 . S
C775 H789 0.961 . S
C775 H790 0.961 . S
C775 H791 0.961 . S
C776 C777 1.370 . S
C776 C778 1.363 1_556 S
C776 H792 0.931 . S
C777 C776 1.370 . S
C777 C781 1.408 . S
C778 C776 1.363 1_554 S
C778 C779 1.370 . S
C778 C782 1.524 . S
C779 C771 1.503 . S
C779 C778 1.370 . S
C779 C780 1.403 . S
C780 C779 1.403 . S
C780 C781 1.404 1_554 S
C780 C783 1.539 . S
C781 C777 1.408 . S
C781 C780 1.404 1_556 S
C781 H793 0.930 1_655 S
C782 C778 1.524 . S
C782 H794 0.956 . S
C782 H795 0.961 . S
C782 H796 0.961 . S
C783 C780 1.539 . S
C783 H797 0.958 . S
C783 H798 0.961 . S
C783 H799 0.960 . S
H784 C768 0.931 . S
H785 C773 0.929 . S
H786 C774 0.960 . S
H787 C774 0.962 . S
H788 C774 0.960 . S
H789 C775 0.961 . S
H790 C775 0.961 . S
H791 C775 0.961 . S
H792 C776 0.931 . S
H793 C781 0.930 1_455 S
H794 C782 0.956 . S
H795 C782 0.961 . S
H796 C782 0.961 . S
H797 C783 0.958 . S
H798 C783 0.961 . S
H799 C783 0.960 . S
C800 C801 1.391 . S
C800 C802 1.394 . S
C800 H816 0.931 . S
C801 C800 1.391 . S
C801 C805 1.376 . S
C802 C800 1.394 . S
C802 C803 1.369 . S
C802 C806 1.531 . S
C803 C802 1.369 . S
C803 C804 1.410 . S
C803 C811 1.503 . S
C804 C803 1.410 . S
C804 C805 1.392 . S
C804 C807 1.511 . S
C805 C801 1.376 . S
C805 C804 1.392 . S
C805 H817 0.929 . S
C806 C802 1.531 . S
C806 H818 0.960 . S
C806 H819 0.962 . S
C806 H820 0.960 . S
C807 C804 1.511 . S
C807 H821 0.961 . S
C807 H822 0.961 . S
C807 H823 0.961 . S
C808 C809 1.370 . S
C808 C810 1.363 . S
C808 H824 0.931 . S
C809 C808 1.370 . S
C809 C813 1.408 . S
C810 C808 1.363 . S
C810 C811 1.370 . S
C810 C814 1.524 . S
C811 C803 1.503 . S
C811 C810 1.370 . S
C811 C812 1.403 . S
C812 C811 1.403 . S
C812 C813 1.404 . S
C812 C815 1.539 . S
C813 C809 1.408 . S
C813 C812 1.404 . S
C813 H825 0.930 . S
C814 C810 1.524 . S
C814 H826 0.956 . S
C814 H827 0.961 . S
C814 H828 0.961 . S
C815 C812 1.539 . S
C815 H829 0.958 . S
C815 H830 0.961 . S
C815 H831 0.960 . S
H816 C800 0.931 . S
H817 C805 0.929 . S
H818 C806 0.960 . S
H819 C806 0.962 . S
H820 C806 0.960 . S
H821 C807 0.961 . S
H822 C807 0.961 . S
H823 C807 0.961 . S
H824 C808 0.931 . S
H825 C813 0.930 . S
H826 C814 0.956 . S
H827 C814 0.961 . S
H828 C814 0.961 . S
H829 C815 0.958 . S
H830 C815 0.961 . S
H831 C815 0.960 . S
C832 C833 1.391 . S
C832 C834 1.394 . S
C832 H848 0.931 . S
C833 C832 1.391 . S
C833 C837 1.376 . S
C834 C832 1.394 . S
C834 C835 1.369 . S
C834 C838 1.531 . S
C835 C834 1.369 . S
C835 C836 1.410 . S
C835 C843 1.503 . S
C836 C835 1.410 . S
C836 C837 1.392 . S
C836 C839 1.511 . S
C837 C833 1.376 . S
C837 C836 1.392 . S
C837 H849 0.929 . S
C838 C834 1.531 . S
C838 H850 0.960 . S
C838 H851 0.962 . S
C838 H852 0.960 . S
C839 C836 1.511 . S
C839 H853 0.961 . S
C839 H854 0.961 . S
C839 H855 0.961 . S
C840 C841 1.370 . S
C840 C842 1.363 . S
C840 H856 0.931 . S
C841 C840 1.370 . S
C841 C845 1.408 . S
C842 C840 1.363 . S
C842 C843 1.370 . S
C842 C846 1.524 . S
C843 C835 1.503 . S
C843 C842 1.370 . S
C843 C844 1.403 . S
C844 C843 1.403 . S
C844 C845 1.404 . S
C844 C847 1.539 . S
C845 C841 1.408 . S
C845 C844 1.404 . S
C845 H857 0.930 . S
C846 C842 1.524 . S
C846 H858 0.956 . S
C846 H859 0.961 . S
C846 H860 0.961 . S
C847 C844 1.539 . S
C847 H861 0.958 . S
C847 H862 0.961 . S
C847 H863 0.960 . S
H848 C832 0.931 . S
H849 C837 0.929 . S
H850 C838 0.960 . S
H851 C838 0.962 . S
H852 C838 0.960 . S
H853 C839 0.961 . S
H854 C839 0.961 . S
H855 C839 0.961 . S
H856 C840 0.931 . S
H857 C845 0.930 . S
H858 C846 0.956 . S
H859 C846 0.961 . S
H860 C846 0.961 . S
H861 C847 0.958 . S
H862 C847 0.961 . S
H863 C847 0.960 . S
C864 C865 1.391 . S
C864 C866 1.394 . S
C864 H880 0.931 . S
C865 C864 1.391 . S
C865 C869 1.376 . S
C866 C864 1.394 . S
C866 C867 1.369 . S
C866 C870 1.531 . S
C867 C866 1.369 . S
C867 C868 1.410 . S
C867 C875 1.503 . S
C868 C867 1.410 . S
C868 C869 1.392 . S
C868 C871 1.511 . S
C869 C865 1.376 . S
C869 C868 1.392 . S
C869 H881 0.929 . S
C870 C866 1.531 . S
C870 H882 0.960 . S
C870 H883 0.962 . S
C870 H884 0.960 . S
C871 C868 1.511 . S
C871 H885 0.961 . S
C871 H886 0.961 . S
C871 H887 0.961 . S
C872 C873 1.370 . S
C872 C874 1.363 . S
C872 H888 0.931 . S
C873 C872 1.370 . S
C873 C877 1.408 . S
C874 C872 1.363 . S
C874 C875 1.370 . S
C874 C878 1.524 . S
C875 C867 1.503 . S
C875 C874 1.370 . S
C875 C876 1.403 . S
C876 C875 1.403 . S
C876 C877 1.404 . S
C876 C879 1.539 . S
C877 C873 1.408 . S
C877 C876 1.404 . S
C877 H889 0.930 . S
C878 C874 1.524 . S
C878 H890 0.956 . S
C878 H891 0.961 . S
C878 H892 0.961 . S
C879 C876 1.539 . S
C879 H893 0.958 . S
C879 H894 0.961 . S
C879 H895 0.960 . S
H880 C864 0.931 . S
H881 C869 0.929 . S
H882 C870 0.960 . S
H883 C870 0.962 . S
H884 C870 0.960 . S
H885 C871 0.961 . S
H886 C871 0.961 . S
H887 C871 0.961 . S
H888 C872 0.931 . S
H889 C877 0.930 . S
H890 C878 0.956 . S
H891 C878 0.961 . S
H892 C878 0.961 . S
H893 C879 0.958 . S
H894 C879 0.961 . S
H895 C879 0.960 . S
C896 C897 1.391 . S
C896 C898 1.394 . S
C896 H912 0.931 . S
C897 C896 1.391 . S
C897 C901 1.376 . S
C898 C896 1.394 . S
C898 C899 1.369 . S
C898 C902 1.531 . S
C899 C898 1.369 . S
C899 C900 1.410 . S
C899 C907 1.503 . S
C900 C899 1.410 . S
C900 C901 1.392 . S
C900 C903 1.511 . S
C901 C897 1.376 . S
C901 C900 1.392 . S
C901 H913 0.929 . S
C902 C898 1.531 . S
C902 H914 0.960 . S
C902 H915 0.962 . S
C902 H916 0.960 . S
C903 C900 1.511 . S
C903 H917 0.961 . S
C903 H918 0.961 . S
C903 H919 0.961 . S
C904 C905 1.370 . S
C904 C906 1.363 . S
C904 H920 0.931 . S
C905 C904 1.370 . S
C905 C909 1.408 . S
C906 C904 1.363 . S
C906 C907 1.370 . S
C906 C910 1.524 . S
C907 C899 1.503 . S
C907 C906 1.370 . S
C907 C908 1.403 . S
C908 C907 1.403 . S
C908 C909 1.404 . S
C908 C911 1.539 . S
C909 C905 1.408 . S
C909 C908 1.404 . S
C909 H921 0.930 . S
C910 C906 1.524 . S
C910 H922 0.956 . S
C910 H923 0.961 . S
C910 H924 0.961 . S
C911 C908 1.539 . S
C911 H925 0.958 . S
C911 H926 0.961 . S
C911 H927 0.960 . S
H912 C896 0.931 . S
H913 C901 0.929 . S
H914 C902 0.960 . S
H915 C902 0.962 . S
H916 C902 0.960 . S
H917 C903 0.961 . S
H918 C903 0.961 . S
H919 C903 0.961 . S
H920 C904 0.931 . S
H921 C909 0.930 . S
H922 C910 0.956 . S
H923 C910 0.961 . S
H924 C910 0.961 . S
H925 C911 0.958 . S
H926 C911 0.961 . S
H927 C911 0.960 . S
C928 C929 1.391 . S
C928 C930 1.394 . S
C928 H944 0.931 . S
C929 C928 1.391 . S
C929 C933 1.376 . S
C930 C928 1.394 . S
C930 C931 1.369 . S
C930 C934 1.531 . S
C931 C930 1.369 . S
C931 C932 1.410 . S
C931 C939 1.503 . S
C932 C931 1.410 . S
C932 C933 1.392 . S
C932 C935 1.511 . S
C933 C929 1.376 . S
C933 C932 1.392 . S
C933 H945 0.929 . S
C934 C930 1.531 . S
C934 H946 0.960 . S
C934 H947 0.962 . S
C934 H948 0.960 . S
C935 C932 1.511 . S
C935 H949 0.961 . S
C935 H950 0.961 . S
C935 H951 0.961 . S
C936 C937 1.370 . S
C936 C938 1.363 . S
C936 H952 0.931 . S
C937 C936 1.370 . S
C937 C941 1.408 . S
C938 C936 1.363 . S
C938 C939 1.370 . S
C938 C942 1.524 . S
C939 C931 1.503 . S
C939 C938 1.370 . S
C939 C940 1.403 . S
C940 C939 1.403 . S
C940 C941 1.404 . S
C940 C943 1.539 . S
C941 C937 1.408 . S
C941 C940 1.404 . S
C941 H953 0.930 . S
C942 C938 1.524 . S
C942 H954 0.956 . S
C942 H955 0.961 . S
C942 H956 0.961 . S
C943 C940 1.539 . S
C943 H957 0.958 . S
C943 H958 0.961 . S
C943 H959 0.960 . S
H944 C928 0.931 . S
H945 C933 0.929 . S
H946 C934 0.960 . S
H947 C934 0.962 . S
H948 C934 0.960 . S
H949 C935 0.961 . S
H950 C935 0.961 . S
H951 C935 0.961 . S
H952 C936 0.931 . S
H953 C941 0.930 . S
H954 C942 0.956 . S
H955 C942 0.961 . S
H956 C942 0.961 . S
H957 C943 0.958 . S
H958 C943 0.961 . S
H959 C943 0.960 . S
C960 C961 1.391 1_556 S
C960 C962 1.394 . S
C960 H976 0.931 1_655 S
C961 C960 1.391 1_554 S
C961 C965 1.376 . S
C962 C960 1.394 . S
C962 C963 1.369 . S
C962 C966 1.531 . S
C963 C962 1.369 . S
C963 C964 1.410 . S
C963 C971 1.503 . S
C964 C963 1.410 . S
C964 C965 1.392 1_556 S
C964 C967 1.511 . S
C965 C961 1.376 . S
C965 C964 1.392 1_554 S
C965 H977 0.929 . S
C966 C962 1.531 . S
C966 H978 0.960 . S
C966 H979 0.962 . S
C966 H980 0.960 1_655 S
C967 C964 1.511 . S
C967 H981 0.961 1_556 S
C967 H982 0.961 . S
C967 H983 0.961 1_556 S
C968 C969 1.370 . S
C968 C970 1.363 . S
C968 H984 0.931 . S
C969 C968 1.370 . S
C969 C973 1.408 . S
C970 C968 1.363 . S
C970 C971 1.370 . S
C970 C974 1.524 . S
C971 C963 1.503 . S
C971 C970 1.370 . S
C971 C972 1.403 . S
C972 C971 1.403 . S
C972 C973 1.404 . S
C972 C975 1.539 . S
C973 C969 1.408 . S
C973 C972 1.404 . S
C973 H985 0.930 . S
C974 C970 1.524 . S
C974 H986 0.956 . S
C974 H987 0.961 . S
C974 H988 0.961 . S
C975 C972 1.539 . S
C975 H989 0.958 . S
C975 H990 0.961 . S
C975 H991 0.960 . S
H976 C960 0.931 1_455 S
H977 C965 0.929 . S
H978 C966 0.960 . S
H979 C966 0.962 . S
H980 C966 0.960 1_455 S
H981 C967 0.961 1_554 S
H982 C967 0.961 . S
H983 C967 0.961 1_554 S
H984 C968 0.931 . S
H985 C973 0.930 . S
H986 C974 0.956 . S
H987 C974 0.961 . S
H988 C974 0.961 . S
H989 C975 0.958 . S
H990 C975 0.961 . S
H991 C975 0.960 . S
C992 C993 1.391 . S
C992 C994 1.394 . S
C992 H1008 0.931 . S
C993 C992 1.391 . S
C993 C997 1.376 . S
C994 C992 1.394 . S
C994 C995 1.369 . S
C994 C998 1.531 . S
C995 C994 1.369 . S
C995 C996 1.410 . S
C995 C1003 1.503 . S
C996 C995 1.410 . S
C996 C997 1.392 . S
C996 C999 1.511 . S
C997 C993 1.376 . S
C997 C996 1.392 . S
C997 H1009 0.929 . S
C998 C994 1.531 . S
C998 H1010 0.960 . S
C998 H1011 0.962 . S
C998 H1012 0.960 . S
C999 C996 1.511 . S
C999 H1013 0.961 . S
C999 H1014 0.961 . S
C999 H1015 0.961 . S
C1000 C1001 1.370 . S
C1000 C1002 1.363 . S
C1000 H1016 0.931 . S
C1001 C1000 1.370 . S
C1001 C1005 1.408 . S
C1002 C1000 1.363 . S
C1002 C1003 1.370 . S
C1002 C1006 1.524 . S
C1003 C995 1.503 . S
C1003 C1002 1.370 . S
C1003 C1004 1.403 . S
C1004 C1003 1.403 . S
C1004 C1005 1.404 . S
C1004 C1007 1.539 . S
C1005 C1001 1.408 . S
C1005 C1004 1.404 . S
C1005 H1017 0.930 . S
C1006 C1002 1.524 . S
C1006 H1018 0.956 . S
C1006 H1019 0.961 . S
C1006 H1020 0.961 . S
C1007 C1004 1.539 . S
C1007 H1021 0.958 . S
C1007 H1022 0.961 . S
C1007 H1023 0.960 . S
H1008 C992 0.931 . S
H1009 C997 0.929 . S
H1010 C998 0.960 . S
H1011 C998 0.962 . S
H1012 C998 0.960 . S
H1013 C999 0.961 . S
H1014 C999 0.961 . S
H1015 C999 0.961 . S
H1016 C1000 0.931 . S
H1017 C1005 0.930 . S
H1018 C1006 0.956 . S
H1019 C1006 0.961 . S
H1020 C1006 0.961 . S
H1021 C1007 0.958 . S
H1022 C1007 0.961 . S
H1023 C1007 0.960 . S
C1024 C1025 1.391 . S
C1024 C1026 1.394 . S
C1024 H1040 0.931 . S
C1025 C1024 1.391 . S
C1025 C1029 1.376 . S
C1026 C1024 1.394 . S
C1026 C1027 1.369 . S
C1026 C1030 1.531 . S
C1027 C1026 1.369 . S
C1027 C1028 1.410 . S
C1027 C1035 1.503 . S
C1028 C1027 1.410 . S
C1028 C1029 1.392 . S
C1028 C1031 1.511 . S
C1029 C1025 1.376 . S
C1029 C1028 1.392 . S
C1029 H1041 0.929 . S
C1030 C1026 1.531 . S
C1030 H1042 0.960 . S
C1030 H1043 0.962 . S
C1030 H1044 0.960 . S
C1031 C1028 1.511 . S
C1031 H1045 0.961 . S
C1031 H1046 0.961 . S
C1031 H1047 0.961 . S
C1032 C1033 1.370 . S
C1032 C1034 1.363 . S
C1032 H1048 0.931 . S
C1033 C1032 1.370 . S
C1033 C1037 1.408 . S
C1034 C1032 1.363 . S
C1034 C1035 1.370 . S
C1034 C1038 1.524 . S
C1035 C1027 1.503 . S
C1035 C1034 1.370 . S
C1035 C1036 1.403 . S
C1036 C1035 1.403 . S
C1036 C1037 1.404 . S
C1036 C1039 1.539 . S
C1037 C1033 1.408 . S
C1037 C1036 1.404 . S
C1037 H1049 0.930 . S
C1038 C1034 1.524 . S
C1038 H1050 0.956 . S
C1038 H1051 0.961 . S
C1038 H1052 0.961 . S
C1039 C1036 1.539 . S
C1039 H1053 0.958 . S
C1039 H1054 0.961 . S
C1039 H1055 0.960 . S
H1040 C1024 0.931 . S
H1041 C1029 0.929 . S
H1042 C1030 0.960 . S
H1043 C1030 0.962 . S
H1044 C1030 0.960 . S
H1045 C1031 0.961 . S
H1046 C1031 0.961 . S
H1047 C1031 0.961 . S
H1048 C1032 0.931 . S
H1049 C1037 0.930 . S
H1050 C1038 0.956 . S
H1051 C1038 0.961 . S
H1052 C1038 0.961 . S
H1053 C1039 0.958 . S
H1054 C1039 0.961 . S
H1055 C1039 0.960 . S
C1056 C1057 1.391 . S
C1056 C1058 1.394 . S
C1056 H1072 0.931 . S
C1057 C1056 1.391 . S
C1057 C1061 1.376 . S
C1058 C1056 1.394 . S
C1058 C1059 1.369 . S
C1058 C1062 1.531 . S
C1059 C1058 1.369 . S
C1059 C1060 1.410 . S
C1059 C1067 1.503 . S
C1060 C1059 1.410 . S
C1060 C1061 1.392 . S
C1060 C1063 1.511 . S
C1061 C1057 1.376 . S
C1061 C1060 1.392 . S
C1061 H1073 0.929 . S
C1062 C1058 1.531 . S
C1062 H1074 0.960 . S
C1062 H1075 0.962 . S
C1062 H1076 0.960 . S
C1063 C1060 1.511 . S
C1063 H1077 0.961 . S
C1063 H1078 0.961 . S
C1063 H1079 0.961 . S
C1064 C1065 1.370 . S
C1064 C1066 1.363 . S
C1064 H1080 0.931 . S
C1065 C1064 1.370 . S
C1065 C1069 1.408 . S
C1066 C1064 1.363 . S
C1066 C1067 1.370 . S
C1066 C1070 1.524 . S
C1067 C1059 1.503 . S
C1067 C1066 1.370 . S
C1067 C1068 1.403 . S
C1068 C1067 1.403 . S
C1068 C1069 1.404 . S
C1068 C1071 1.539 . S
C1069 C1065 1.408 . S
C1069 C1068 1.404 . S
C1069 H1081 0.930 . S
C1070 C1066 1.524 . S
C1070 H1082 0.956 . S
C1070 H1083 0.961 . S
C1070 H1084 0.961 . S
C1071 C1068 1.539 . S
C1071 H1085 0.958 . S
C1071 H1086 0.961 . S
C1071 H1087 0.960 . S
H1072 C1056 0.931 . S
H1073 C1061 0.929 . S
H1074 C1062 0.960 . S
H1075 C1062 0.962 . S
H1076 C1062 0.960 . S
H1077 C1063 0.961 . S
H1078 C1063 0.961 . S
H1079 C1063 0.961 . S
H1080 C1064 0.931 . S
H1081 C1069 0.930 . S
H1082 C1070 0.956 . S
H1083 C1070 0.961 . S
H1084 C1070 0.961 . S
H1085 C1071 0.958 . S
H1086 C1071 0.961 . S
H1087 C1071 0.960 . S
C1088 C1089 1.391 . S
C1088 C1090 1.394 . S
C1088 H1104 0.931 . S
C1089 C1088 1.391 . S
C1089 C1093 1.376 . S
C1090 C1088 1.394 . S
C1090 C1091 1.369 . S
C1090 C1094 1.531 . S
C1091 C1090 1.369 . S
C1091 C1092 1.410 . S
C1091 C1099 1.503 . S
C1092 C1091 1.410 . S
C1092 C1093 1.392 . S
C1092 C1095 1.511 . S
C1093 C1089 1.376 . S
C1093 C1092 1.392 . S
C1093 H1105 0.929 . S
C1094 C1090 1.531 . S
C1094 H1106 0.960 . S
C1094 H1107 0.962 . S
C1094 H1108 0.960 . S
C1095 C1092 1.511 . S
C1095 H1109 0.961 . S
C1095 H1110 0.961 . S
C1095 H1111 0.961 . S
C1096 C1097 1.370 . S
C1096 C1098 1.363 1_556 S
C1096 H1112 0.931 . S
C1097 C1096 1.370 . S
C1097 C1101 1.408 . S
C1098 C1096 1.363 1_554 S
C1098 C1099 1.370 . S
C1098 C1102 1.524 . S
C1099 C1091 1.503 . S
C1099 C1098 1.370 . S
C1099 C1100 1.403 . S
C1100 C1099 1.403 . S
C1100 C1101 1.404 1_554 S
C1100 C1103 1.539 . S
C1101 C1097 1.408 . S
C1101 C1100 1.404 1_556 S
C1101 H1113 0.930 . S
C1102 C1098 1.524 . S
C1102 H1114 0.956 . S
C1102 H1115 0.961 . S
C1102 H1116 0.961 . S
C1103 C1100 1.539 . S
C1103 H1117 0.958 . S
C1103 H1118 0.961 . S
C1103 H1119 0.960 . S
H1104 C1088 0.931 . S
H1105 C1093 0.929 . S
H1106 C1094 0.960 . S
H1107 C1094 0.962 . S
H1108 C1094 0.960 . S
H1109 C1095 0.961 . S
H1110 C1095 0.961 . S
H1111 C1095 0.961 . S
H1112 C1096 0.931 . S
H1113 C1101 0.930 . S
H1114 C1102 0.956 . S
H1115 C1102 0.961 . S
H1116 C1102 0.961 . S
H1117 C1103 0.958 . S
H1118 C1103 0.961 . S
H1119 C1103 0.960 . S
C1120 C1121 1.391 . S
C1120 C1122 1.394 . S
C1120 H1136 0.931 . S
C1121 C1120 1.391 . S
C1121 C1125 1.376 . S
C1122 C1120 1.394 . S
C1122 C1123 1.369 . S
C1122 C1126 1.531 . S
C1123 C1122 1.369 . S
C1123 C1124 1.410 . S
C1123 C1131 1.503 . S
C1124 C1123 1.410 . S
C1124 C1125 1.392 . S
C1124 C1127 1.511 . S
C1125 C1121 1.376 . S
C1125 C1124 1.392 . S
C1125 H1137 0.929 . S
C1126 C1122 1.531 . S
C1126 H1138 0.960 . S
C1126 H1139 0.962 . S
C1126 H1140 0.960 . S
C1127 C1124 1.511 . S
C1127 H1141 0.961 . S
C1127 H1142 0.961 . S
C1127 H1143 0.961 . S
C1128 C1129 1.370 . S
C1128 C1130 1.363 . S
C1128 H1144 0.931 . S
C1129 C1128 1.370 . S
C1129 C1133 1.408 . S
C1130 C1128 1.363 . S
C1130 C1131 1.370 . S
C1130 C1134 1.524 . S
C1131 C1123 1.503 . S
C1131 C1130 1.370 . S
C1131 C1132 1.403 . S
C1132 C1131 1.403 . S
C1132 C1133 1.404 . S
C1132 C1135 1.539 . S
C1133 C1129 1.408 . S
C1133 C1132 1.404 . S
C1133 H1145 0.930 . S
C1134 C1130 1.524 . S
C1134 H1146 0.956 . S
C1134 H1147 0.961 . S
C1134 H1148 0.961 . S
C1135 C1132 1.539 . S
C1135 H1149 0.958 . S
C1135 H1150 0.961 . S
C1135 H1151 0.960 . S
H1136 C1120 0.931 . S
H1137 C1125 0.929 . S
H1138 C1126 0.960 . S
H1139 C1126 0.962 . S
H1140 C1126 0.960 . S
H1141 C1127 0.961 . S
H1142 C1127 0.961 . S
H1143 C1127 0.961 . S
H1144 C1128 0.931 . S
H1145 C1133 0.930 . S
H1146 C1134 0.956 . S
H1147 C1134 0.961 . S
H1148 C1134 0.961 . S
H1149 C1135 0.958 . S
H1150 C1135 0.961 . S
H1151 C1135 0.960 . S
C1152 C1153 1.391 1_655 S
C1152 C1154 1.394 . S
C1152 H1168 0.931 . S
C1153 C1152 1.391 1_455 S
C1153 C1157 1.376 . S
C1154 C1152 1.394 . S
C1154 C1155 1.369 1_655 S
C1154 C1158 1.531 . S
C1155 C1154 1.369 1_455 S
C1155 C1156 1.410 . S
C1155 C1163 1.503 . S
C1156 C1155 1.410 . S
C1156 C1157 1.392 . S
C1156 C1159 1.511 . S
C1157 C1153 1.376 . S
C1157 C1156 1.392 . S
C1157 H1169 0.929 . S
C1158 C1154 1.531 . S
C1158 H1170 0.960 . S
C1158 H1171 0.962 . S
C1158 H1172 0.960 . S
C1159 C1156 1.511 . S
C1159 H1173 0.961 . S
C1159 H1174 0.961 . S
C1159 H1175 0.961 . S
C1160 C1161 1.370 . S
C1160 C1162 1.363 . S
C1160 H1176 0.929 1_455 S
C1161 C1160 1.370 . S
C1161 C1165 1.408 . S
C1162 C1160 1.363 . S
C1162 C1163 1.370 . S
C1162 C1166 1.524 . S
C1163 C1155 1.503 . S
C1163 C1162 1.370 . S
C1163 C1164 1.403 . S
C1164 C1163 1.403 . S
C1164 C1165 1.404 . S
C1164 C1167 1.539 . S
C1165 C1161 1.408 . S
C1165 C1164 1.404 . S
C1165 H1177 0.930 . S
C1166 C1162 1.524 . S
C1166 H1178 0.956 1_455 S
C1166 H1179 0.961 . S
C1166 H1180 0.961 . S
C1167 C1164 1.539 . S
C1167 H1181 0.958 1_455 S
C1167 H1182 0.961 . S
C1167 H1183 0.960 . S
H1168 C1152 0.931 . S
H1169 C1157 0.929 . S
H1170 C1158 0.960 . S
H1171 C1158 0.962 . S
H1172 C1158 0.960 . S
H1173 C1159 0.961 . S
H1174 C1159 0.961 . S
H1175 C1159 0.961 . S
H1176 C1160 0.929 1_655 S
H1177 C1165 0.930 . S
H1178 C1166 0.956 1_655 S
H1179 C1166 0.961 . S
H1180 C1166 0.961 . S
H1181 C1167 0.958 1_655 S
H1182 C1167 0.961 . S
H1183 C1167 0.960 . S
C1184 C1185 1.391 . S
C1184 C1186 1.394 . S
C1184 H1200 0.931 . S
C1185 C1184 1.391 . S
C1185 C1189 1.376 . S
C1186 C1184 1.394 . S
C1186 C1187 1.369 . S
C1186 C1190 1.531 . S
C1187 C1186 1.369 . S
C1187 C1188 1.410 . S
C1187 C1195 1.503 1_655 S
C1188 C1187 1.410 . S
C1188 C1189 1.392 . S
C1188 C1191 1.511 . S
C1189 C1185 1.376 . S
C1189 C1188 1.392 . S
C1189 H1201 0.929 . S
C1190 C1186 1.531 . S
C1190 H1202 0.960 1_655 S
C1190 H1203 0.962 . S
C1190 H1204 0.960 . S
C1191 C1188 1.511 . S
C1191 H1205 0.961 . S
C1191 H1206 0.961 1_655 S
C1191 H1207 0.962 . S
C1192 C1193 1.370 . S
C1192 C1194 1.363 . S
C1192 H1208 0.931 . S
C1193 C1192 1.370 . S
C1193 C1197 1.408 . S
C1194 C1192 1.363 . S
C1194 C1195 1.370 . S
C1194 C1198 1.524 . S
C1195 C1187 1.503 1_455 S
C1195 C1194 1.370 . S
C1195 C1196 1.403 . S
C1196 C1195 1.403 . S
C1196 C1197 1.404 . S
C1196 C1199 1.539 . S
C1197 C1193 1.408 . S
C1197 C1196 1.404 . S
C1197 H1209 0.930 . S
C1198 C1194 1.524 . S
C1198 H1210 0.956 . S
C1198 H1211 0.961 . S
C1198 H1212 0.961 . S
C1199 C1196 1.539 . S
C1199 H1213 0.958 . S
C1199 H1214 0.961 . S
C1199 H1215 0.960 . S
H1200 C1184 0.931 . S
H1201 C1189 0.929 . S
H1202 C1190 0.960 1_455 S
H1203 C1190 0.962 . S
H1204 C1190 0.960 . S
H1205 C1191 0.961 . S
H1206 C1191 0.961 1_455 S
H1207 C1191 0.962 . S
H1208 C1192 0.931 . S
H1209 C1197 0.930 . S
H1210 C1198 0.956 . S
H1211 C1198 0.961 . S
H1212 C1198 0.961 . S
H1213 C1199 0.958 . S
H1214 C1199 0.961 . S
H1215 C1199 0.960 . S
C1216 C1217 1.391 . S
C1216 C1218 1.394 . S
C1216 H1232 0.931 . S
C1217 C1216 1.391 . S
C1217 C1221 1.376 . S
C1218 C1216 1.394 . S
C1218 C1219 1.369 . S
C1218 C1222 1.531 . S
C1219 C1218 1.369 . S
C1219 C1220 1.410 . S
C1219 C1227 1.503 . S
C1220 C1219 1.410 . S
C1220 C1221 1.392 . S
C1220 C1223 1.511 . S
C1221 C1217 1.376 . S
C1221 C1220 1.392 . S
C1221 H1233 0.929 . S
C1222 C1218 1.531 . S
C1222 H1234 0.960 . S
C1222 H1235 0.962 . S
C1222 H1236 0.960 . S
C1223 C1220 1.511 . S
C1223 H1237 0.961 . S
C1223 H1238 0.961 . S
C1223 H1239 0.961 . S
C1224 C1225 1.370 . S
C1224 C1226 1.363 . S
C1224 H1240 0.931 . S
C1225 C1224 1.370 . S
C1225 C1229 1.408 . S
C1226 C1224 1.363 . S
C1226 C1227 1.370 . S
C1226 C1230 1.524 . S
C1227 C1219 1.503 . S
C1227 C1226 1.370 . S
C1227 C1228 1.403 . S
C1228 C1227 1.403 . S
C1228 C1229 1.404 . S
C1228 C1231 1.539 . S
C1229 C1225 1.408 . S
C1229 C1228 1.404 . S
C1229 H1241 0.930 . S
C1230 C1226 1.524 . S
C1230 H1242 0.956 . S
C1230 H1243 0.961 . S
C1230 H1244 0.961 . S
C1231 C1228 1.539 . S
C1231 H1245 0.958 . S
C1231 H1246 0.961 . S
C1231 H1247 0.960 . S
H1232 C1216 0.931 . S
H1233 C1221 0.929 . S
H1234 C1222 0.960 . S
H1235 C1222 0.962 . S
H1236 C1222 0.960 . S
H1237 C1223 0.961 . S
H1238 C1223 0.961 . S
H1239 C1223 0.961 . S
H1240 C1224 0.931 . S
H1241 C1229 0.930 . S
H1242 C1230 0.956 . S
H1243 C1230 0.961 . S
H1244 C1230 0.961 . S
H1245 C1231 0.958 . S
H1246 C1231 0.961 . S
H1247 C1231 0.960 . S
C1248 C1249 1.391 . S
C1248 C1250 1.394 . S
C1248 H1264 0.931 . S
C1249 C1248 1.391 . S
C1249 C1253 1.376 . S
C1250 C1248 1.394 . S
C1250 C1251 1.369 . S
C1250 C1254 1.531 . S
C1251 C1250 1.369 . S
C1251 C1252 1.410 . S
C1251 C1259 1.503 . S
C1252 C1251 1.410 . S
C1252 C1253 1.392 . S
C1252 C1255 1.511 . S
C1253 C1249 1.376 . S
C1253 C1252 1.392 . S
C1253 H1265 0.929 . S
C1254 C1250 1.531 . S
C1254 H1266 0.960 . S
C1254 H1267 0.962 . S
C1254 H1268 0.960 . S
C1255 C1252 1.511 . S
C1255 H1269 0.961 . S
C1255 H1270 0.961 . S
C1255 H1271 0.961 . S
C1256 C1257 1.370 . S
C1256 C1258 1.363 . S
C1256 H1272 0.931 . S
C1257 C1256 1.370 . S
C1257 C1261 1.408 . S
C1258 C1256 1.363 . S
C1258 C1259 1.370 . S
C1258 C1262 1.524 . S
C1259 C1251 1.503 . S
C1259 C1258 1.370 . S
C1259 C1260 1.403 . S
C1260 C1259 1.403 . S
C1260 C1261 1.404 . S
C1260 C1263 1.539 . S
C1261 C1257 1.408 . S
C1261 C1260 1.404 . S
C1261 H1273 0.930 . S
C1262 C1258 1.524 . S
C1262 H1274 0.956 . S
C1262 H1275 0.961 . S
C1262 H1276 0.961 . S
C1263 C1260 1.539 . S
C1263 H1277 0.958 . S
C1263 H1278 0.961 . S
C1263 H1279 0.960 . S
H1264 C1248 0.931 . S
H1265 C1253 0.929 . S
H1266 C1254 0.960 . S
H1267 C1254 0.962 . S
H1268 C1254 0.960 . S
H1269 C1255 0.961 . S
H1270 C1255 0.961 . S
H1271 C1255 0.961 . S
H1272 C1256 0.931 . S
H1273 C1261 0.930 . S
H1274 C1262 0.956 . S
H1275 C1262 0.961 . S
H1276 C1262 0.961 . S
H1277 C1263 0.958 . S
H1278 C1263 0.961 . S
H1279 C1263 0.960 . S
C1280 C1281 1.391 . S
C1280 C1282 1.394 . S
C1280 H1296 0.931 . S
C1281 C1280 1.391 . S
C1281 C1285 1.376 . S
C1282 C1280 1.394 . S
C1282 C1283 1.369 . S
C1282 C1286 1.531 . S
C1283 C1282 1.369 . S
C1283 C1284 1.410 1_455 S
C1283 C1291 1.503 . S
C1284 C1283 1.410 1_655 S
C1284 C1285 1.392 1_655 S
C1284 C1287 1.511 . S
C1285 C1281 1.376 . S
C1285 C1284 1.392 1_455 S
C1285 H1297 0.929 1_455 S
C1286 C1282 1.531 . S
C1286 H1298 0.960 . S
C1286 H1299 0.962 . S
C1286 H1300 0.960 . S
C1287 C1284 1.511 . S
C1287 H1301 0.961 . S
C1287 H1302 0.961 . S
C1287 H1303 0.961 . S
C1288 C1289 1.387 . S
C1288 C1290 1.363 . S
C1288 H1304 0.931 . S
C1289 C1288 1.387 . S
C1289 C1293 1.392 1_455 S
C1290 C1288 1.363 . S
C1290 C1291 1.370 . S
C1290 C1294 1.524 . S
C1291 C1283 1.503 . S
C1291 C1290 1.370 . S
C1291 C1292 1.403 1_455 S
C1292 C1291 1.403 1_655 S
C1292 C1293 1.404 . S
C1292 C1295 1.539 . S
C1293 C1289 1.392 1_655 S
C1293 C1292 1.404 . S
C1293 H1305 0.930 . S
C1294 C1290 1.524 . S
C1294 H1306 0.956 . S
C1294 H1307 0.961 . S
C1294 H1308 0.961 . S
C1295 C1292 1.539 . S
C1295 H1309 0.958 . S
C1295 H1310 0.961 . S
C1295 H1311 0.960 . S
H1296 C1280 0.931 . S
H1297 C1285 0.929 1_655 S
H1298 C1286 0.960 . S
H1299 C1286 0.962 . S
H1300 C1286 0.960 . S
H1301 C1287 0.961 . S
H1302 C1287 0.961 . S
H1303 C1287 0.961 . S
H1304 C1288 0.931 . S
H1305 C1293 0.930 . S
H1306 C1294 0.956 . S
H1307 C1294 0.961 . S
H1308 C1294 0.961 . S
H1309 C1295 0.958 . S
H1310 C1295 0.961 . S
H1311 C1295 0.960 . S
C1312 C1313 1.391 . S
C1312 C1314 1.394 . S
C1312 H1328 0.931 . S
C1313 C1312 1.391 . S
C1313 C1317 1.376 . S
C1314 C1312 1.394 . S
C1314 C1315 1.369 . S
C1314 C1318 1.531 . S
C1315 C1314 1.369 . S
C1315 C1316 1.410 . S
C1315 C1323 1.503 . S
C1316 C1315 1.410 . S
C1316 C1317 1.392 . S
C1316 C1319 1.511 . S
C1317 C1313 1.376 . S
C1317 C1316 1.392 . S
C1317 H1329 0.929 . S
C1318 C1314 1.531 . S
C1318 H1330 0.960 . S
C1318 H1331 0.962 . S
C1318 H1332 0.960 . S
C1319 C1316 1.511 . S
C1319 H1333 0.961 . S
C1319 H1334 0.961 . S
C1319 H1335 0.961 . S
C1320 C1321 1.370 . S
C1320 C1322 1.363 . S
C1320 H1336 0.931 . S
C1321 C1320 1.370 . S
C1321 C1325 1.408 . S
C1322 C1320 1.363 . S
C1322 C1323 1.370 . S
C1322 C1326 1.524 . S
C1323 C1315 1.503 . S
C1323 C1322 1.370 . S
C1323 C1324 1.403 . S
C1324 C1323 1.403 . S
C1324 C1325 1.404 . S
C1324 C1327 1.539 . S
C1325 C1321 1.408 . S
C1325 C1324 1.404 . S
C1325 H1337 0.930 . S
C1326 C1322 1.524 . S
C1326 H1338 0.956 . S
C1326 H1339 0.961 . S
C1326 H1340 0.961 . S
C1327 C1324 1.539 . S
C1327 H1341 0.958 . S
C1327 H1342 0.961 . S
C1327 H1343 0.960 . S
H1328 C1312 0.931 . S
H1329 C1317 0.929 . S
H1330 C1318 0.960 . S
H1331 C1318 0.962 . S
H1332 C1318 0.960 . S
H1333 C1319 0.961 . S
H1334 C1319 0.961 . S
H1335 C1319 0.961 . S
H1336 C1320 0.931 . S
H1337 C1325 0.930 . S
H1338 C1326 0.956 . S
H1339 C1326 0.961 . S
H1340 C1326 0.961 . S
H1341 C1327 0.958 . S
H1342 C1327 0.961 . S
H1343 C1327 0.960 . S
C1344 C1345 1.391 . S
C1344 C1346 1.394 . S
C1344 H1360 0.931 . S
C1345 C1344 1.391 . S
C1345 C1349 1.376 . S
C1346 C1344 1.394 . S
C1346 C1347 1.369 . S
C1346 C1350 1.531 . S
C1347 C1346 1.369 . S
C1347 C1348 1.410 . S
C1347 C1355 1.503 . S
C1348 C1347 1.410 . S
C1348 C1349 1.392 . S
C1348 C1351 1.511 . S
C1349 C1345 1.376 . S
C1349 C1348 1.392 . S
C1349 H1361 0.929 . S
C1350 C1346 1.531 . S
C1350 H1362 0.960 . S
C1350 H1363 0.962 . S
C1350 H1364 0.960 . S
C1351 C1348 1.511 . S
C1351 H1365 0.961 . S
C1351 H1366 0.961 . S
C1351 H1367 0.961 . S
C1352 C1353 1.370 . S
C1352 C1354 1.363 . S
C1352 H1368 0.931 . S
C1353 C1352 1.370 . S
C1353 C1357 1.408 . S
C1354 C1352 1.363 . S
C1354 C1355 1.370 . S
C1354 C1358 1.524 . S
C1355 C1347 1.503 . S
C1355 C1354 1.370 . S
C1355 C1356 1.403 . S
C1356 C1355 1.403 . S
C1356 C1357 1.404 . S
C1356 C1359 1.539 . S
C1357 C1353 1.408 . S
C1357 C1356 1.404 . S
C1357 H1369 0.930 . S
C1358 C1354 1.524 . S
C1358 H1370 0.956 . S
C1358 H1371 0.961 . S
C1358 H1372 0.961 . S
C1359 C1356 1.539 . S
C1359 H1373 0.958 . S
C1359 H1374 0.961 . S
C1359 H1375 0.960 . S
H1360 C1344 0.931 . S
H1361 C1349 0.929 . S
H1362 C1350 0.960 . S
H1363 C1350 0.962 . S
H1364 C1350 0.960 . S
H1365 C1351 0.961 . S
H1366 C1351 0.961 . S
H1367 C1351 0.961 . S
H1368 C1352 0.931 . S
H1369 C1357 0.930 . S
H1370 C1358 0.956 . S
H1371 C1358 0.961 . S
H1372 C1358 0.961 . S
H1373 C1359 0.958 . S
H1374 C1359 0.961 . S
H1375 C1359 0.960 . S
C1376 C1377 1.391 . S
C1376 C1378 1.394 . S
C1376 H1392 0.931 . S
C1377 C1376 1.391 . S
C1377 C1381 1.376 . S
C1378 C1376 1.394 . S
C1378 C1379 1.369 . S
C1378 C1382 1.531 . S
C1379 C1378 1.369 . S
C1379 C1380 1.410 . S
C1379 C1387 1.503 1_455 S
C1380 C1379 1.410 . S
C1380 C1381 1.392 . S
C1380 C1383 1.511 . S
C1381 C1377 1.376 . S
C1381 C1380 1.392 . S
C1381 H1393 0.929 . S
C1382 C1378 1.531 . S
C1382 H1394 0.960 . S
C1382 H1395 0.962 . S
C1382 H1396 0.960 . S
C1383 C1380 1.511 . S
C1383 H1397 0.961 . S
C1383 H1398 0.961 . S
C1383 H1399 0.961 . S
C1384 C1385 1.370 . S
C1384 C1386 1.363 . S
C1384 H1400 0.931 . S
C1385 C1384 1.370 . S
C1385 C1389 1.408 . S
C1386 C1384 1.363 . S
C1386 C1387 1.370 . S
C1386 C1390 1.514 1_655 S
C1387 C1379 1.503 1_655 S
C1387 C1386 1.370 . S
C1387 C1388 1.403 . S
C1388 C1387 1.403 . S
C1388 C1389 1.404 . S
C1388 C1391 1.539 . S
C1389 C1385 1.408 . S
C1389 C1388 1.404 . S
C1389 H1401 0.930 . S
C1390 C1386 1.514 1_455 S
C1390 H1402 0.965 . S
C1390 H1403 0.972 . S
C1390 H1404 0.951 1_455 S
C1391 C1388 1.539 . S
C1391 H1405 0.958 . S
C1391 H1406 0.961 . S
C1391 H1407 0.960 1_655 S
H1392 C1376 0.931 . S
H1393 C1381 0.929 . S
H1394 C1382 0.960 . S
H1395 C1382 0.962 . S
H1396 C1382 0.960 . S
H1397 C1383 0.961 . S
H1398 C1383 0.961 . S
H1399 C1383 0.961 . S
H1400 C1384 0.931 . S
H1401 C1389 0.930 . S
H1402 C1390 0.965 . S
H1403 C1390 0.972 . S
H1404 C1390 0.951 1_655 S
H1405 C1391 0.958 . S
H1406 C1391 0.961 . S
H1407 C1391 0.960 1_455 S
C1408 C1409 1.391 1_655 S
C1408 C1410 1.394 . S
C1408 H1424 0.931 . S
C1409 C1408 1.391 1_455 S
C1409 C1413 1.376 . S
C1410 C1408 1.394 . S
C1410 C1411 1.369 1_655 S
C1410 C1414 1.531 . S
C1411 C1410 1.369 1_455 S
C1411 C1412 1.410 . S
C1411 C1419 1.503 1_544 S
C1412 C1411 1.410 . S
C1412 C1413 1.392 . S
C1412 C1415 1.511 . S
C1413 C1409 1.376 . S
C1413 C1412 1.392 . S
C1413 H1425 0.929 . S
C1414 C1410 1.531 . S
C1414 H1426 0.960 1_554 S
C1414 H1427 0.962 1_545 S
C1414 H1428 0.960 . S
C1415 C1412 1.511 . S
C1415 H1429 0.961 . S
C1415 H1430 0.961 1_545 S
C1415 H1431 0.950 1_554 S
C1416 C1417 1.370 . S
C1416 C1418 1.363 . S
C1416 H1432 0.931 . S
C1417 C1416 1.370 . S
C1417 C1421 1.408 . S
C1418 C1416 1.363 . S
C1418 C1419 1.370 . S
C1418 C1422 1.524 1_556 S
C1419 C1411 1.503 1_566 S
C1419 C1418 1.370 . S
C1419 C1420 1.403 1_565 S
C1420 C1419 1.403 1_545 S
C1420 C1421 1.404 1_545 S
C1420 C1423 1.539 . S
C1421 C1417 1.408 . S
C1421 C1420 1.404 1_565 S
C1421 H1433 0.930 . S
C1422 C1418 1.524 1_554 S
C1422 H1434 0.956 1_455 S
C1422 H1435 0.961 . S
C1422 H1436 0.961 . S
C1423 C1420 1.539 . S
C1423 H1437 0.958 1_455 S
C1423 H1438 0.961 . S
C1423 H1439 0.960 . S
H1424 C1408 0.931 . S
H1425 C1413 0.929 . S
H1426 C1414 0.960 1_556 S
H1427 C1414 0.962 1_565 S
H1428 C1414 0.960 . S
H1429 C1415 0.961 . S
H1430 C1415 0.961 1_565 S
H1431 C1415 0.950 1_556 S
H1432 C1416 0.931 . S
H1433 C1421 0.930 . S
H1434 C1422 0.956 1_655 S
H1435 C1422 0.961 . S
H1436 C1422 0.961 . S
H1437 C1423 0.958 1_655 S
H1438 C1423 0.961 . S
H1439 C1423 0.960 . S
C1440 C1441 1.391 . S
C1440 C1442 1.394 . S
C1440 H1456 0.931 . S
C1441 C1440 1.391 . S
C1441 C1445 1.376 . S
C1442 C1440 1.394 . S
C1442 C1443 1.369 . S
C1442 C1446 1.531 . S
C1443 C1442 1.369 . S
C1443 C1444 1.410 . S
C1443 C1451 1.503 . S
C1444 C1443 1.410 . S
C1444 C1445 1.392 . S
C1444 C1447 1.511 . S
C1445 C1441 1.376 . S
C1445 C1444 1.392 . S
C1445 H1457 0.929 . S
C1446 C1442 1.531 . S
C1446 H1458 0.960 . S
C1446 H1459 0.962 . S
C1446 H1460 0.960 . S
C1447 C1444 1.511 . S
C1447 H1461 0.961 . S
C1447 H1462 0.961 . S
C1447 H1463 0.961 . S
C1448 C1449 1.370 . S
C1448 C1450 1.363 . S
C1448 H1464 0.931 . S
C1449 C1448 1.370 . S
C1449 C1453 1.408 . S
C1450 C1448 1.363 . S
C1450 C1451 1.370 . S
C1450 C1454 1.524 . S
C1451 C1443 1.503 . S
C1451 C1450 1.370 . S
C1451 C1452 1.403 . S
C1452 C1451 1.403 . S
C1452 C1453 1.404 . S
C1452 C1455 1.539 . S
C1453 C1449 1.408 . S
C1453 C1452 1.404 . S
C1453 H1465 0.930 . S
C1454 C1450 1.524 . S
C1454 H1466 0.956 . S
C1454 H1467 0.961 . S
C1454 H1468 0.961 . S
C1455 C1452 1.539 . S
C1455 H1469 0.958 . S
C1455 H1470 0.961 . S
C1455 H1471 0.960 . S
H1456 C1440 0.931 . S
H1457 C1445 0.929 . S
H1458 C1446 0.960 . S
H1459 C1446 0.962 . S
H1460 C1446 0.960 . S
H1461 C1447 0.961 . S
H1462 C1447 0.961 . S
H1463 C1447 0.961 . S
H1464 C1448 0.931 . S
H1465 C1453 0.930 . S
H1466 C1454 0.956 . S
H1467 C1454 0.961 . S
H1468 C1454 0.961 . S
H1469 C1455 0.958 . S
H1470 C1455 0.961 . S
H1471 C1455 0.960 . S
C1472 C1473 1.391 . S
C1472 C1474 1.394 . S
C1472 H1488 0.931 . S
C1473 C1472 1.391 . S
C1473 C1477 1.376 . S
C1474 C1472 1.394 . S
C1474 C1475 1.369 . S
C1474 C1478 1.531 . S
C1475 C1474 1.369 . S
C1475 C1476 1.410 . S
C1475 C1483 1.503 1_545 S
C1476 C1475 1.410 . S
C1476 C1477 1.392 . S
C1476 C1479 1.511 . S
C1477 C1473 1.376 . S
C1477 C1476 1.392 . S
C1477 H1489 0.929 . S
C1478 C1474 1.531 . S
C1478 H1490 0.960 1_545 S
C1478 H1491 0.962 . S
C1478 H1492 0.963 . S
C1479 C1476 1.511 . S
C1479 H1493 0.961 . S
C1479 H1494 0.959 1_545 S
C1479 H1495 0.961 1_545 S
C1480 C1481 1.370 . S
C1480 C1482 1.363 1_565 S
C1480 H1496 0.931 . S
C1481 C1480 1.370 . S
C1481 C1485 1.408 . S
C1482 C1480 1.363 1_545 S
C1482 C1483 1.370 1_545 S
C1482 C1486 1.524 . S
C1483 C1475 1.503 1_565 S
C1483 C1482 1.370 1_565 S
C1483 C1484 1.403 . S
C1484 C1483 1.403 . S
C1484 C1485 1.404 . S
C1484 C1487 1.539 . S
C1485 C1481 1.408 . S
C1485 C1484 1.404 . S
C1485 H1497 0.930 . S
C1486 C1482 1.524 . S
C1486 H1498 0.956 . S
C1486 H1499 0.961 . S
C1486 H1500 0.961 . S
C1487 C1484 1.539 . S
C1487 H1501 0.958 . S
C1487 H1502 0.961 . S
C1487 H1503 0.960 . S
H1488 C1472 0.931 . S
H1489 C1477 0.929 . S
H1490 C1478 0.960 1_565 S
H1491 C1478 0.962 . S
H1492 C1478 0.963 . S
H1493 C1479 0.961 . S
H1494 C1479 0.959 1_565 S
H1495 C1479 0.961 1_565 S
H1496 C1480 0.931 . S
H1497 C1485 0.930 . S
H1498 C1486 0.956 . S
H1499 C1486 0.961 . S
H1500 C1486 0.961 . S
H1501 C1487 0.958 . S
H1502 C1487 0.961 . S
H1503 C1487 0.960 . S
C1504 C1505 1.391 . S
C1504 C1506 1.394 . S
C1504 H1520 0.931 . S
C1505 C1504 1.391 . S
C1505 C1509 1.376 . S
C1506 C1504 1.394 . S
C1506 C1507 1.369 . S
C1506 C1510 1.531 . S
C1507 C1506 1.369 . S
C1507 C1508 1.410 . S
C1507 C1515 1.503 . S
C1508 C1507 1.410 . S
C1508 C1509 1.392 . S
C1508 C1511 1.511 . S
C1509 C1505 1.376 . S
C1509 C1508 1.392 . S
C1509 H1521 0.929 . S
C1510 C1506 1.531 . S
C1510 H1522 0.960 . S
C1510 H1523 0.962 . S
C1510 H1524 0.960 . S
C1511 C1508 1.511 . S
C1511 H1525 0.961 . S
C1511 H1526 0.961 . S
C1511 H1527 0.961 . S
C1512 C1513 1.370 . S
C1512 C1514 1.363 . S
C1512 H1528 0.931 . S
C1513 C1512 1.370 . S
C1513 C1517 1.408 . S
C1514 C1512 1.363 . S
C1514 C1515 1.370 . S
C1514 C1518 1.524 . S
C1515 C1507 1.503 . S
C1515 C1514 1.370 . S
C1515 C1516 1.403 . S
C1516 C1515 1.403 . S
C1516 C1517 1.404 . S
C1516 C1519 1.539 . S
C1517 C1513 1.408 . S
C1517 C1516 1.404 . S
C1517 H1529 0.930 . S
C1518 C1514 1.524 . S
C1518 H1530 0.956 . S
C1518 H1531 0.961 . S
C1518 H1532 0.961 . S
C1519 C1516 1.539 . S
C1519 H1533 0.958 . S
C1519 H1534 0.961 . S
C1519 H1535 0.960 . S
H1520 C1504 0.931 . S
H1521 C1509 0.929 . S
H1522 C1510 0.960 . S
H1523 C1510 0.962 . S
H1524 C1510 0.960 . S
H1525 C1511 0.961 . S
H1526 C1511 0.961 . S
H1527 C1511 0.961 . S
H1528 C1512 0.931 . S
H1529 C1517 0.930 . S
H1530 C1518 0.956 . S
H1531 C1518 0.961 . S
H1532 C1518 0.961 . S
H1533 C1519 0.958 . S
H1534 C1519 0.961 . S
H1535 C1519 0.960 . S
C1536 C1537 1.391 . S
C1536 C1538 1.394 . S
C1536 H1552 0.931 . S
C1537 C1536 1.391 . S
C1537 C1541 1.376 . S
C1538 C1536 1.394 . S
C1538 C1539 1.369 . S
C1538 C1542 1.531 . S
C1539 C1538 1.369 . S
C1539 C1540 1.410 . S
C1539 C1547 1.503 . S
C1540 C1539 1.410 . S
C1540 C1541 1.392 . S
C1540 C1543 1.511 . S
C1541 C1537 1.376 . S
C1541 C1540 1.392 . S
C1541 H1553 0.929 . S
C1542 C1538 1.531 . S
C1542 H1554 0.960 . S
C1542 H1555 0.962 . S
C1542 H1556 0.960 . S
C1543 C1540 1.511 . S
C1543 H1557 0.961 . S
C1543 H1558 0.961 . S
C1543 H1559 0.961 . S
C1544 C1545 1.370 . S
C1544 C1546 1.363 . S
C1544 H1560 0.931 . S
C1545 C1544 1.370 . S
C1545 C1549 1.408 . S
C1546 C1544 1.363 . S
C1546 C1547 1.370 . S
C1546 C1550 1.524 . S
C1547 C1539 1.503 . S
C1547 C1546 1.370 . S
C1547 C1548 1.403 . S
C1548 C1547 1.403 . S
C1548 C1549 1.404 . S
C1548 C1551 1.539 . S
C1549 C1545 1.408 . S
C1549 C1548 1.404 . S
C1549 H1561 0.930 . S
C1550 C1546 1.524 . S
C1550 H1562 0.956 . S
C1550 H1563 0.961 . S
C1550 H1564 0.961 . S
C1551 C1548 1.539 . S
C1551 H1565 0.958 . S
C1551 H1566 0.961 . S
C1551 H1567 0.960 . S
H1552 C1536 0.931 . S
H1553 C1541 0.929 . S
H1554 C1542 0.960 . S
H1555 C1542 0.962 . S
H1556 C1542 0.960 . S
H1557 C1543 0.961 . S
H1558 C1543 0.961 . S
H1559 C1543 0.961 . S
H1560 C1544 0.931 . S
H1561 C1549 0.930 . S
H1562 C1550 0.956 . S
H1563 C1550 0.961 . S
H1564 C1550 0.961 . S
H1565 C1551 0.958 . S
H1566 C1551 0.961 . S
H1567 C1551 0.960 . S
C1568 C1569 1.391 . S
C1568 C1570 1.394 . S
C1568 H1584 0.931 . S
C1569 C1568 1.391 . S
C1569 C1573 1.376 . S
C1570 C1568 1.394 . S
C1570 C1571 1.369 . S
C1570 C1574 1.531 . S
C1571 C1570 1.369 . S
C1571 C1572 1.410 . S
C1571 C1579 1.503 . S
C1572 C1571 1.410 . S
C1572 C1573 1.392 . S
C1572 C1575 1.511 . S
C1573 C1569 1.376 . S
C1573 C1572 1.392 . S
C1573 H1585 0.929 . S
C1574 C1570 1.531 . S
C1574 H1586 0.960 . S
C1574 H1587 0.962 . S
C1574 H1588 0.960 . S
C1575 C1572 1.511 . S
C1575 H1589 0.961 . S
C1575 H1590 0.961 . S
C1575 H1591 0.961 . S
C1576 C1577 1.370 . S
C1576 C1578 1.363 . S
C1576 H1592 0.931 . S
C1577 C1576 1.370 . S
C1577 C1581 1.408 . S
C1578 C1576 1.363 . S
C1578 C1579 1.370 . S
C1578 C1582 1.524 . S
C1579 C1571 1.503 . S
C1579 C1578 1.370 . S
C1579 C1580 1.403 . S
C1580 C1579 1.403 . S
C1580 C1581 1.404 . S
C1580 C1583 1.539 . S
C1581 C1577 1.408 . S
C1581 C1580 1.404 . S
C1581 H1593 0.930 . S
C1582 C1578 1.524 . S
C1582 H1594 0.956 . S
C1582 H1595 0.961 . S
C1582 H1596 0.961 . S
C1583 C1580 1.539 . S
C1583 H1597 0.958 . S
C1583 H1598 0.961 . S
C1583 H1599 0.960 . S
H1584 C1568 0.931 . S
H1585 C1573 0.929 . S
H1586 C1574 0.960 . S
H1587 C1574 0.962 . S
H1588 C1574 0.960 . S
H1589 C1575 0.961 . S
H1590 C1575 0.961 . S
H1591 C1575 0.961 . S
H1592 C1576 0.931 . S
H1593 C1581 0.930 . S
H1594 C1582 0.956 . S
H1595 C1582 0.961 . S
H1596 C1582 0.961 . S
H1597 C1583 0.958 . S
H1598 C1583 0.961 . S
H1599 C1583 0.960 . S
C1600 C1601 1.391 . S
C1600 C1602 1.394 . S
C1600 H1616 0.931 . S
C1601 C1600 1.391 . S
C1601 C1605 1.376 . S
C1602 C1600 1.394 . S
C1602 C1603 1.369 . S
C1602 C1606 1.531 . S
C1603 C1602 1.369 . S
C1603 C1604 1.410 . S
C1603 C1611 1.503 . S
C1604 C1603 1.410 . S
C1604 C1605 1.392 . S
C1604 C1607 1.511 . S
C1605 C1601 1.376 . S
C1605 C1604 1.392 . S
C1605 H1617 0.929 . S
C1606 C1602 1.531 . S
C1606 H1618 0.960 . S
C1606 H1619 0.962 . S
C1606 H1620 0.960 . S
C1607 C1604 1.511 . S
C1607 H1621 0.961 . S
C1607 H1622 0.961 . S
C1607 H1623 0.961 . S
C1608 C1609 1.370 . S
C1608 C1610 1.363 . S
C1608 H1624 0.931 . S
C1609 C1608 1.370 . S
C1609 C1613 1.408 . S
C1610 C1608 1.363 . S
C1610 C1611 1.370 . S
C1610 C1614 1.524 . S
C1611 C1603 1.503 . S
C1611 C1610 1.370 . S
C1611 C1612 1.403 . S
C1612 C1611 1.403 . S
C1612 C1613 1.404 . S
C1612 C1615 1.539 . S
C1613 C1609 1.408 . S
C1613 C1612 1.404 . S
C1613 H1625 0.930 . S
C1614 C1610 1.524 . S
C1614 H1626 0.956 . S
C1614 H1627 0.961 . S
C1614 H1628 0.961 . S
C1615 C1612 1.539 . S
C1615 H1629 0.958 . S
C1615 H1630 0.961 . S
C1615 H1631 0.960 . S
H1616 C1600 0.931 . S
H1617 C1605 0.929 . S
H1618 C1606 0.960 . S
H1619 C1606 0.962 . S
H1620 C1606 0.960 . S
H1621 C1607 0.961 . S
H1622 C1607 0.961 . S
H1623 C1607 0.961 . S
H1624 C1608 0.931 . S
H1625 C1613 0.930 . S
H1626 C1614 0.956 . S
H1627 C1614 0.961 . S
H1628 C1614 0.961 . S
H1629 C1615 0.958 . S
H1630 C1615 0.961 . S
H1631 C1615 0.960 . S
C1632 C1633 1.380 1_655 S
C1632 C1634 1.394 . S
C1632 H1648 0.931 . S
C1633 C1632 1.380 1_455 S
C1633 C1637 1.386 . S
C1634 C1632 1.394 . S
C1634 C1635 1.360 1_655 S
C1634 C1638 1.531 1_556 S
C1635 C1634 1.360 1_455 S
C1635 C1636 1.418 . S
C1635 C1643 1.506 1_556 S
C1636 C1635 1.418 . S
C1636 C1637 1.392 . S
C1636 C1639 1.511 . S
C1637 C1633 1.386 . S
C1637 C1636 1.392 . S
C1637 H1649 0.929 . S
C1638 C1634 1.531 1_554 S
C1638 H1650 0.960 . S
C1638 H1651 0.962 . S
C1638 H1652 0.960 . S
C1639 C1636 1.511 . S
C1639 H1653 0.961 . S
C1639 H1654 0.961 . S
C1639 H1655 0.961 . S
C1640 C1641 1.370 . S
C1640 C1642 1.363 . S
C1640 H1656 0.931 . S
C1641 C1640 1.370 . S
C1641 C1645 1.408 1_455 S
C1642 C1640 1.363 . S
C1642 C1643 1.370 . S
C1642 C1646 1.524 . S
C1643 C1635 1.506 1_554 S
C1643 C1642 1.370 . S
C1643 C1644 1.403 1_455 S
C1644 C1643 1.403 1_655 S
C1644 C1645 1.404 . S
C1644 C1647 1.539 . S
C1645 C1641 1.408 1_655 S
C1645 C1644 1.404 . S
C1645 H1657 0.930 . S
C1646 C1642 1.524 . S
C1646 H1658 0.956 . S
C1646 H1659 0.958 1_554 S
C1646 H1660 0.961 . S
C1647 C1644 1.539 . S
C1647 H1661 0.958 . S
C1647 H1662 0.961 . S
C1647 H1663 0.960 1_554 S
H1648 C1632 0.931 . S
H1649 C1637 0.929 . S
H1650 C1638 0.960 . S
H1651 C1638 0.962 . S
H1652 C1638 0.960 . S
H1653 C1639 0.961 . S
H1654 C1639 0.961 . S
H1655 C1639 0.961 . S
H1656 C1640 0.931 . S
H1657 C1645 0.930 . S
H1658 C1646 0.956 . S
H1659 C1646 0.958 1_556 S
H1660 C1646 0.961 . S
H1661 C1647 0.958 . S
H1662 C1647 0.961 . S
H1663 C1647 0.960 1_556 S
C1664 C1665 1.391 . S
C1664 C1666 1.394 . S
C1664 H1680 0.931 . S
C1665 C1664 1.391 . S
C1665 C1669 1.376 . S
C1666 C1664 1.394 . S
C1666 C1667 1.369 . S
C1666 C1670 1.531 . S
C1667 C1666 1.369 . S
C1667 C1668 1.410 . S
C1667 C1675 1.503 . S
C1668 C1667 1.410 . S
C1668 C1669 1.392 . S
C1668 C1671 1.511 . S
C1669 C1665 1.376 . S
C1669 C1668 1.392 . S
C1669 H1681 0.929 . S
C1670 C1666 1.531 . S
C1670 H1682 0.960 . S
C1670 H1683 0.962 . S
C1670 H1684 0.960 . S
C1671 C1668 1.511 . S
C1671 H1685 0.961 . S
C1671 H1686 0.961 . S
C1671 H1687 0.961 . S
C1672 C1673 1.370 . S
C1672 C1674 1.363 . S
C1672 H1688 0.931 . S
C1673 C1672 1.370 . S
C1673 C1677 1.408 . S
C1674 C1672 1.363 . S
C1674 C1675 1.370 . S
C1674 C1678 1.524 . S
C1675 C1667 1.503 . S
C1675 C1674 1.370 . S
C1675 C1676 1.403 . S
C1676 C1675 1.403 . S
C1676 C1677 1.404 . S
C1676 C1679 1.539 . S
C1677 C1673 1.408 . S
C1677 C1676 1.404 . S
C1677 H1689 0.930 . S
C1678 C1674 1.524 . S
C1678 H1690 0.956 . S
C1678 H1691 0.961 . S
C1678 H1692 0.961 . S
C1679 C1676 1.539 . S
C1679 H1693 0.958 . S
C1679 H1694 0.961 . S
C1679 H1695 0.960 . S
H1680 C1664 0.931 . S
H1681 C1669 0.929 . S
H1682 C1670 0.960 . S
H1683 C1670 0.962 . S
H1684 C1670 0.960 . S
H1685 C1671 0.961 . S
H1686 C1671 0.961 . S
H1687 C1671 0.961 . S
H1688 C1672 0.931 . S
H1689 C1677 0.930 . S
H1690 C1678 0.956 . S
H1691 C1678 0.961 . S
H1692 C1678 0.961 . S
H1693 C1679 0.958 . S
H1694 C1679 0.961 . S
H1695 C1679 0.960 . S
C1696 C1697 1.391 . S
C1696 C1698 1.394 . S
C1696 H1712 0.931 . S
C1697 C1696 1.391 . S
C1697 C1701 1.376 . S
C1698 C1696 1.394 . S
C1698 C1699 1.369 . S
C1698 C1702 1.531 . S
C1699 C1698 1.369 . S
C1699 C1700 1.410 . S
C1699 C1707 1.503 . S
C1700 C1699 1.410 . S
C1700 C1701 1.392 . S
C1700 C1703 1.511 . S
C1701 C1697 1.376 . S
C1701 C1700 1.392 . S
C1701 H1713 0.929 . S
C1702 C1698 1.531 . S
C1702 H1714 0.960 . S
C1702 H1715 0.962 . S
C1702 H1716 0.960 . S
C1703 C1700 1.511 . S
C1703 H1717 0.961 . S
C1703 H1718 0.961 . S
C1703 H1719 0.961 . S
C1704 C1705 1.370 . S
C1704 C1706 1.363 . S
C1704 H1720 0.931 . S
C1705 C1704 1.370 . S
C1705 C1709 1.408 . S
C1706 C1704 1.363 . S
C1706 C1707 1.370 . S
C1706 C1710 1.524 . S
C1707 C1699 1.503 . S
C1707 C1706 1.370 . S
C1707 C1708 1.403 . S
C1708 C1707 1.403 . S
C1708 C1709 1.404 . S
C1708 C1711 1.539 . S
C1709 C1705 1.408 . S
C1709 C1708 1.404 . S
C1709 H1721 0.930 . S
C1710 C1706 1.524 . S
C1710 H1722 0.956 . S
C1710 H1723 0.961 . S
C1710 H1724 0.961 . S
C1711 C1708 1.539 . S
C1711 H1725 0.958 . S
C1711 H1726 0.961 . S
C1711 H1727 0.960 . S
H1712 C1696 0.931 . S
H1713 C1701 0.929 . S
H1714 C1702 0.960 . S
H1715 C1702 0.962 . S
H1716 C1702 0.960 . S
H1717 C1703 0.961 . S
H1718 C1703 0.961 . S
H1719 C1703 0.961 . S
H1720 C1704 0.931 . S
H1721 C1709 0.930 . S
H1722 C1710 0.956 . S
H1723 C1710 0.961 . S
H1724 C1710 0.961 . S
H1725 C1711 0.958 . S
H1726 C1711 0.961 . S
H1727 C1711 0.960 . S
C1728 C1729 1.391 . S
C1728 C1730 1.394 1_554 S
C1728 H1744 0.931 . S
C1729 C1728 1.391 . S
C1729 C1733 1.376 . S
C1730 C1728 1.394 1_556 S
C1730 C1731 1.369 . S
C1730 C1734 1.531 . S
C1731 C1730 1.369 . S
C1731 C1732 1.410 . S
C1731 C1739 1.503 . S
C1732 C1731 1.410 . S
C1732 C1733 1.392 1_556 S
C1732 C1735 1.511 . S
C1733 C1729 1.376 . S
C1733 C1732 1.392 1_554 S
C1733 H1745 0.929 . S
C1734 C1730 1.531 . S
C1734 H1746 0.960 . S
C1734 H1747 0.962 . S
C1734 H1748 0.960 . S
C1735 C1732 1.511 . S
C1735 H1749 0.961 . S
C1735 H1750 0.961 . S
C1735 H1751 0.961 . S
C1736 C1737 1.370 . S
C1736 C1738 1.363 . S
C1736 H1752 0.931 . S
C1737 C1736 1.370 . S
C1737 C1741 1.408 . S
C1738 C1736 1.363 . S
C1738 C1739 1.370 . S
C1738 C1742 1.524 . S
C1739 C1731 1.503 . S
C1739 C1738 1.370 . S
C1739 C1740 1.403 . S
C1740 C1739 1.403 . S
C1740 C1741 1.404 . S
C1740 C1743 1.539 . S
C1741 C1737 1.408 . S
C1741 C1740 1.404 . S
C1741 H1753 0.930 . S
C1742 C1738 1.524 . S
C1742 H1754 0.956 . S
C1742 H1755 0.961 . S
C1742 H1756 0.961 . S
C1743 C1740 1.539 . S
C1743 H1757 0.958 . S
C1743 H1758 0.961 . S
C1743 H1759 0.960 . S
H1744 C1728 0.931 . S
H1745 C1733 0.929 . S
H1746 C1734 0.960 . S
H1747 C1734 0.962 . S
H1748 C1734 0.960 . S
H1749 C1735 0.961 . S
H1750 C1735 0.961 . S
H1751 C1735 0.961 . S
H1752 C1736 0.931 . S
H1753 C1741 0.930 . S
H1754 C1742 0.956 . S
H1755 C1742 0.961 . S
H1756 C1742 0.961 . S
H1757 C1743 0.958 . S
H1758 C1743 0.961 . S
H1759 C1743 0.960 . S
C1760 C1761 1.391 . S
C1760 C1762 1.394 . S
C1760 H1776 0.931 . S
C1761 C1760 1.391 . S
C1761 C1765 1.376 . S
C1762 C1760 1.394 . S
C1762 C1763 1.369 . S
C1762 C1766 1.531 . S
C1763 C1762 1.369 . S
C1763 C1764 1.410 . S
C1763 C1771 1.503 . S
C1764 C1763 1.410 . S
C1764 C1765 1.392 . S
C1764 C1767 1.511 . S
C1765 C1761 1.376 . S
C1765 C1764 1.392 . S
C1765 H1777 0.929 . S
C1766 C1762 1.531 . S
C1766 H1778 0.960 . S
C1766 H1779 0.962 . S
C1766 H1780 0.960 . S
C1767 C1764 1.511 . S
C1767 H1781 0.961 . S
C1767 H1782 0.961 . S
C1767 H1783 0.961 . S
C1768 C1769 1.370 . S
C1768 C1770 1.363 . S
C1768 H1784 0.931 . S
C1769 C1768 1.370 . S
C1769 C1773 1.408 . S
C1770 C1768 1.363 . S
C1770 C1771 1.370 . S
C1770 C1774 1.524 . S
C1771 C1763 1.503 . S
C1771 C1770 1.370 . S
C1771 C1772 1.403 . S
C1772 C1771 1.403 . S
C1772 C1773 1.404 . S
C1772 C1775 1.539 . S
C1773 C1769 1.408 . S
C1773 C1772 1.404 . S
C1773 H1785 0.930 . S
C1774 C1770 1.524 . S
C1774 H1786 0.956 . S
C1774 H1787 0.961 . S
C1774 H1788 0.961 . S
C1775 C1772 1.539 . S
C1775 H1789 0.958 . S
C1775 H1790 0.961 . S
C1775 H1791 0.960 . S
H1776 C1760 0.931 . S
H1777 C1765 0.929 . S
H1778 C1766 0.960 . S
H1779 C1766 0.962 . S
H1780 C1766 0.960 . S
H1781 C1767 0.961 . S
H1782 C1767 0.961 . S
H1783 C1767 0.961 . S
H1784 C1768 0.931 . S
H1785 C1773 0.930 . S
H1786 C1774 0.956 . S
H1787 C1774 0.961 . S
H1788 C1774 0.961 . S
H1789 C1775 0.958 . S
H1790 C1775 0.961 . S
H1791 C1775 0.960 . S
C1792 C1793 1.391 . S
C1792 C1794 1.394 . S
C1792 H1808 0.931 . S
C1793 C1792 1.391 . S
C1793 C1797 1.376 . S
C1794 C1792 1.394 . S
C1794 C1795 1.369 . S
C1794 C1798 1.531 . S
C1795 C1794 1.369 . S
C1795 C1796 1.410 . S
C1795 C1803 1.503 . S
C1796 C1795 1.410 . S
C1796 C1797 1.392 . S
C1796 C1799 1.511 . S
C1797 C1793 1.376 . S
C1797 C1796 1.392 . S
C1797 H1809 0.929 . S
C1798 C1794 1.531 . S
C1798 H1810 0.960 . S
C1798 H1811 0.962 . S
C1798 H1812 0.960 . S
C1799 C1796 1.511 . S
C1799 H1813 0.961 . S
C1799 H1814 0.961 . S
C1799 H1815 0.961 . S
C1800 C1801 1.370 . S
C1800 C1802 1.363 . S
C1800 H1816 0.931 . S
C1801 C1800 1.370 . S
C1801 C1805 1.408 . S
C1802 C1800 1.363 . S
C1802 C1803 1.370 . S
C1802 C1806 1.524 . S
C1803 C1795 1.503 . S
C1803 C1802 1.370 . S
C1803 C1804 1.403 . S
C1804 C1803 1.403 . S
C1804 C1805 1.404 . S
C1804 C1807 1.539 . S
C1805 C1801 1.408 . S
C1805 C1804 1.404 . S
C1805 H1817 0.930 . S
C1806 C1802 1.524 . S
C1806 H1818 0.956 . S
C1806 H1819 0.961 . S
C1806 H1820 0.961 . S
C1807 C1804 1.539 . S
C1807 H1821 0.958 . S
C1807 H1822 0.961 . S
C1807 H1823 0.960 . S
H1808 C1792 0.931 . S
H1809 C1797 0.929 . S
H1810 C1798 0.960 . S
H1811 C1798 0.962 . S
H1812 C1798 0.960 . S
H1813 C1799 0.961 . S
H1814 C1799 0.961 . S
H1815 C1799 0.961 . S
H1816 C1800 0.931 . S
H1817 C1805 0.930 . S
H1818 C1806 0.956 . S
H1819 C1806 0.961 . S
H1820 C1806 0.961 . S
H1821 C1807 0.958 . S
H1822 C1807 0.961 . S
H1823 C1807 0.960 . S
C1824 C1825 1.391 . S
C1824 C1826 1.394 . S
C1824 H1840 0.931 . S
C1825 C1824 1.391 . S
C1825 C1829 1.376 . S
C1826 C1824 1.394 . S
C1826 C1827 1.369 . S
C1826 C1830 1.531 . S
C1827 C1826 1.369 . S
C1827 C1828 1.410 . S
C1827 C1835 1.503 . S
C1828 C1827 1.410 . S
C1828 C1829 1.392 . S
C1828 C1831 1.511 . S
C1829 C1825 1.376 . S
C1829 C1828 1.392 . S
C1829 H1841 0.929 . S
C1830 C1826 1.531 . S
C1830 H1842 0.960 . S
C1830 H1843 0.962 . S
C1830 H1844 0.960 . S
C1831 C1828 1.511 . S
C1831 H1845 0.961 . S
C1831 H1846 0.961 . S
C1831 H1847 0.961 . S
C1832 C1833 1.370 . S
C1832 C1834 1.363 . S
C1832 H1848 0.931 . S
C1833 C1832 1.370 . S
C1833 C1837 1.408 . S
C1834 C1832 1.363 . S
C1834 C1835 1.370 . S
C1834 C1838 1.524 . S
C1835 C1827 1.503 . S
C1835 C1834 1.370 . S
C1835 C1836 1.403 . S
C1836 C1835 1.403 . S
C1836 C1837 1.404 . S
C1836 C1839 1.539 . S
C1837 C1833 1.408 . S
C1837 C1836 1.404 . S
C1837 H1849 0.930 . S
C1838 C1834 1.524 . S
C1838 H1850 0.956 . S
C1838 H1851 0.961 . S
C1838 H1852 0.961 . S
C1839 C1836 1.539 . S
C1839 H1853 0.958 . S
C1839 H1854 0.961 . S
C1839 H1855 0.960 . S
H1840 C1824 0.931 . S
H1841 C1829 0.929 . S
H1842 C1830 0.960 . S
H1843 C1830 0.962 . S
H1844 C1830 0.960 . S
H1845 C1831 0.961 . S
H1846 C1831 0.961 . S
H1847 C1831 0.961 . S
H1848 C1832 0.931 . S
H1849 C1837 0.930 . S
H1850 C1838 0.956 . S
H1851 C1838 0.961 . S
H1852 C1838 0.961 . S
H1853 C1839 0.958 . S
H1854 C1839 0.961 . S
H1855 C1839 0.960 . S
C1856 C1857 1.391 . S
C1856 C1858 1.394 1_556 S
C1856 H1872 0.931 . S
C1857 C1856 1.391 . S
C1857 C1861 1.376 1_556 S
C1858 C1856 1.394 1_554 S
C1858 C1859 1.369 . S
C1858 C1862 1.531 . S
C1859 C1858 1.369 . S
C1859 C1860 1.410 . S
C1859 C1867 1.503 . S
C1860 C1859 1.410 . S
C1860 C1861 1.392 . S
C1860 C1863 1.511 . S
C1861 C1857 1.376 1_554 S
C1861 C1860 1.392 . S
C1861 H1873 0.927 1_554 S
C1862 C1858 1.531 . S
C1862 H1874 0.960 . S
C1862 H1875 0.962 . S
C1862 H1876 0.960 1_554 S
C1863 C1860 1.511 . S
C1863 H1877 0.961 . S
C1863 H1878 0.961 . S
C1863 H1879 0.961 . S
C1864 C1865 1.370 . S
C1864 C1866 1.363 . S
C1864 H1880 0.931 . S
C1865 C1864 1.370 . S
C1865 C1869 1.408 . S
C1866 C1864 1.363 . S
C1866 C1867 1.370 . S
C1866 C1870 1.524 . S
C1867 C1859 1.503 . S
C1867 C1866 1.370 . S
C1867 C1868 1.403 . S
C1868 C1867 1.403 . S
C1868 C1869 1.404 . S
C1868 C1871 1.539 . S
C1869 C1865 1.408 . S
C1869 C1868 1.404 . S
C1869 H1881 0.930 . S
C1870 C1866 1.524 . S
C1870 H1882 0.956 . S
C1870 H1883 0.961 . S
C1870 H1884 0.961 . S
C1871 C1868 1.539 . S
C1871 H1885 0.958 . S
C1871 H1886 0.961 . S
C1871 H1887 0.960 . S
H1872 C1856 0.931 . S
H1873 C1861 0.927 1_556 S
H1874 C1862 0.960 . S
H1875 C1862 0.962 . S
H1876 C1862 0.960 1_556 S
H1877 C1863 0.961 . S
H1878 C1863 0.961 . S
H1879 C1863 0.961 . S
H1880 C1864 0.931 . S
H1881 C1869 0.930 . S
H1882 C1870 0.956 . S
H1883 C1870 0.961 . S
H1884 C1870 0.961 . S
H1885 C1871 0.958 . S
H1886 C1871 0.961 . S
H1887 C1871 0.960 . S
C1888 C1889 1.391 . S
C1888 C1890 1.394 . S
C1888 H1904 0.931 . S
C1889 C1888 1.391 . S
C1889 C1893 1.376 . S
C1890 C1888 1.394 . S
C1890 C1891 1.369 . S
C1890 C1894 1.531 . S
C1891 C1890 1.369 . S
C1891 C1892 1.410 . S
C1891 C1899 1.503 . S
C1892 C1891 1.410 . S
C1892 C1893 1.392 . S
C1892 C1895 1.511 . S
C1893 C1889 1.376 . S
C1893 C1892 1.392 . S
C1893 H1905 0.929 . S
C1894 C1890 1.531 . S
C1894 H1906 0.960 . S
C1894 H1907 0.962 . S
C1894 H1908 0.960 . S
C1895 C1892 1.511 . S
C1895 H1909 0.961 . S
C1895 H1910 0.961 . S
C1895 H1911 0.961 . S
C1896 C1897 1.370 . S
C1896 C1898 1.363 . S
C1896 H1912 0.931 . S
C1897 C1896 1.370 . S
C1897 C1901 1.408 . S
C1898 C1896 1.363 . S
C1898 C1899 1.370 . S
C1898 C1902 1.524 . S
C1899 C1891 1.503 . S
C1899 C1898 1.370 . S
C1899 C1900 1.403 . S
C1900 C1899 1.403 . S
C1900 C1901 1.404 . S
C1900 C1903 1.539 . S
C1901 C1897 1.408 . S
C1901 C1900 1.404 . S
C1901 H1913 0.930 . S
C1902 C1898 1.524 . S
C1902 H1914 0.956 . S
C1902 H1915 0.961 . S
C1902 H1916 0.961 . S
C1903 C1900 1.539 . S
C1903 H1917 0.958 . S
C1903 H1918 0.961 . S
C1903 H1919 0.960 . S
H1904 C1888 0.931 . S
H1905 C1893 0.929 . S
H1906 C1894 0.960 . S
H1907 C1894 0.962 . S
H1908 C1894 0.960 . S
H1909 C1895 0.961 . S
H1910 C1895 0.961 . S
H1911 C1895 0.961 . S
H1912 C1896 0.931 . S
H1913 C1901 0.930 . S
H1914 C1902 0.956 . S
H1915 C1902 0.961 . S
H1916 C1902 0.961 . S
H1917 C1903 0.958 . S
H1918 C1903 0.961 . S
H1919 C1903 0.960 . S
C1920 C1921 1.391 . S
C1920 C1922 1.394 . S
C1920 H1936 0.931 . S
C1921 C1920 1.391 . S
C1921 C1925 1.376 . S
C1922 C1920 1.394 . S
C1922 C1923 1.369 . S
C1922 C1926 1.531 . S
C1923 C1922 1.369 . S
C1923 C1924 1.410 . S
C1923 C1931 1.503 . S
C1924 C1923 1.410 . S
C1924 C1925 1.392 . S
C1924 C1927 1.511 . S
C1925 C1921 1.376 . S
C1925 C1924 1.392 . S
C1925 H1937 0.929 . S
C1926 C1922 1.531 . S
C1926 H1938 0.960 . S
C1926 H1939 0.962 . S
C1926 H1940 0.960 . S
C1927 C1924 1.511 . S
C1927 H1941 0.961 . S
C1927 H1942 0.961 . S
C1927 H1943 0.961 . S
C1928 C1929 1.370 . S
C1928 C1930 1.363 1_554 S
C1928 H1944 0.931 . S
C1929 C1928 1.370 . S
C1929 C1933 1.408 . S
C1930 C1928 1.363 1_556 S
C1930 C1931 1.370 . S
C1930 C1934 1.524 . S
C1931 C1923 1.503 . S
C1931 C1930 1.370 . S
C1931 C1932 1.403 . S
C1932 C1931 1.403 . S
C1932 C1933 1.404 1_556 S
C1932 C1935 1.539 . S
C1933 C1929 1.408 . S
C1933 C1932 1.404 1_554 S
C1933 H1945 0.930 . S
C1934 C1930 1.524 . S
C1934 H1946 0.956 . S
C1934 H1947 0.961 . S
C1934 H1948 0.961 . S
C1935 C1932 1.539 . S
C1935 H1949 0.958 . S
C1935 H1950 0.961 . S
C1935 H1951 0.960 . S
H1936 C1920 0.931 . S
H1937 C1925 0.929 . S
H1938 C1926 0.960 . S
H1939 C1926 0.962 . S
H1940 C1926 0.960 . S
H1941 C1927 0.961 . S
H1942 C1927 0.961 . S
H1943 C1927 0.961 . S
H1944 C1928 0.931 . S
H1945 C1933 0.930 . S
H1946 C1934 0.956 . S
H1947 C1934 0.961 . S
H1948 C1934 0.961 . S
H1949 C1935 0.958 . S
H1950 C1935 0.961 . S
H1951 C1935 0.960 . S
C1952 C1953 1.391 . S
C1952 C1954 1.394 . S
C1952 H1968 0.931 . S
C1953 C1952 1.391 . S
C1953 C1957 1.376 . S
C1954 C1952 1.394 . S
C1954 C1955 1.369 . S
C1954 C1958 1.531 . S
C1955 C1954 1.369 . S
C1955 C1956 1.410 . S
C1955 C1963 1.503 . S
C1956 C1955 1.410 . S
C1956 C1957 1.392 . S
C1956 C1959 1.511 . S
C1957 C1953 1.376 . S
C1957 C1956 1.392 . S
C1957 H1969 0.929 . S
C1958 C1954 1.531 . S
C1958 H1970 0.960 . S
C1958 H1971 0.962 . S
C1958 H1972 0.960 . S
C1959 C1956 1.511 . S
C1959 H1973 0.961 . S
C1959 H1974 0.961 . S
C1959 H1975 0.961 . S
C1960 C1961 1.370 . S
C1960 C1962 1.363 . S
C1960 H1976 0.931 . S
C1961 C1960 1.370 . S
C1961 C1965 1.408 . S
C1962 C1960 1.363 . S
C1962 C1963 1.370 . S
C1962 C1966 1.524 . S
C1963 C1955 1.503 . S
C1963 C1962 1.370 . S
C1963 C1964 1.403 . S
C1964 C1963 1.403 . S
C1964 C1965 1.404 . S
C1964 C1967 1.539 . S
C1965 C1961 1.408 . S
C1965 C1964 1.404 . S
C1965 H1977 0.930 . S
C1966 C1962 1.524 . S
C1966 H1978 0.956 . S
C1966 H1979 0.961 . S
C1966 H1980 0.961 . S
C1967 C1964 1.539 . S
C1967 H1981 0.958 . S
C1967 H1982 0.961 . S
C1967 H1983 0.960 . S
H1968 C1952 0.931 . S
H1969 C1957 0.929 . S
H1970 C1958 0.960 . S
H1971 C1958 0.962 . S
H1972 C1958 0.960 . S
H1973 C1959 0.961 . S
H1974 C1959 0.961 . S
H1975 C1959 0.961 . S
H1976 C1960 0.931 . S
H1977 C1965 0.930 . S
H1978 C1966 0.956 . S
H1979 C1966 0.961 . S
H1980 C1966 0.961 . S
H1981 C1967 0.958 . S
H1982 C1967 0.961 . S
H1983 C1967 0.960 . S
C1984 C1985 1.391 . S
C1984 C1986 1.394 . S
C1984 H2000 0.931 . S
C1985 C1984 1.391 . S
C1985 C1989 1.376 . S
C1986 C1984 1.394 . S
C1986 C1987 1.369 . S
C1986 C1990 1.531 . S
C1987 C1986 1.369 . S
C1987 C1988 1.410 . S
C1987 C1995 1.503 . S
C1988 C1987 1.410 . S
C1988 C1989 1.392 . S
C1988 C1991 1.511 . S
C1989 C1985 1.376 . S
C1989 C1988 1.392 . S
C1989 H2001 0.929 . S
C1990 C1986 1.531 . S
C1990 H2002 0.960 . S
C1990 H2003 0.962 . S
C1990 H2004 0.960 . S
C1991 C1988 1.511 . S
C1991 H2005 0.961 . S
C1991 H2006 0.961 . S
C1991 H2007 0.961 . S
C1992 C1993 1.370 . S
C1992 C1994 1.363 . S
C1992 H2008 0.931 . S
C1993 C1992 1.370 . S
C1993 C1997 1.408 . S
C1994 C1992 1.363 . S
C1994 C1995 1.370 . S
C1994 C1998 1.524 . S
C1995 C1987 1.503 . S
C1995 C1994 1.370 . S
C1995 C1996 1.403 . S
C1996 C1995 1.403 . S
C1996 C1997 1.404 . S
C1996 C1999 1.539 . S
C1997 C1993 1.408 . S
C1997 C1996 1.404 . S
C1997 H2009 0.930 . S
C1998 C1994 1.524 . S
C1998 H2010 0.956 . S
C1998 H2011 0.961 . S
C1998 H2012 0.961 . S
C1999 C1996 1.539 . S
C1999 H2013 0.958 . S
C1999 H2014 0.961 . S
C1999 H2015 0.960 . S
H2000 C1984 0.931 . S
H2001 C1989 0.929 . S
H2002 C1990 0.960 . S
H2003 C1990 0.962 . S
H2004 C1990 0.960 . S
H2005 C1991 0.961 . S
H2006 C1991 0.961 . S
H2007 C1991 0.961 . S
H2008 C1992 0.931 . S
H2009 C1997 0.930 . S
H2010 C1998 0.956 . S
H2011 C1998 0.961 . S
H2012 C1998 0.961 . S
H2013 C1999 0.958 . S
H2014 C1999 0.961 . S
H2015 C1999 0.960 . S
C2016 C2017 1.391 . S
C2016 C2018 1.394 . S
C2016 H2032 0.931 . S
C2017 C2016 1.391 . S
C2017 C2021 1.376 . S
C2018 C2016 1.394 . S
C2018 C2019 1.369 . S
C2018 C2022 1.531 . S
C2019 C2018 1.369 . S
C2019 C2020 1.410 . S
C2019 C2027 1.503 . S
C2020 C2019 1.410 . S
C2020 C2021 1.392 . S
C2020 C2023 1.511 . S
C2021 C2017 1.376 . S
C2021 C2020 1.392 . S
C2021 H2033 0.929 . S
C2022 C2018 1.531 . S
C2022 H2034 0.960 . S
C2022 H2035 0.962 . S
C2022 H2036 0.960 . S
C2023 C2020 1.511 . S
C2023 H2037 0.961 . S
C2023 H2038 0.961 . S
C2023 H2039 0.961 . S
C2024 C2025 1.370 . S
C2024 C2026 1.363 . S
C2024 H2040 0.931 . S
C2025 C2024 1.370 . S
C2025 C2029 1.408 . S
C2026 C2024 1.363 . S
C2026 C2027 1.370 . S
C2026 C2030 1.524 . S
C2027 C2019 1.503 . S
C2027 C2026 1.370 . S
C2027 C2028 1.403 . S
C2028 C2027 1.403 . S
C2028 C2029 1.404 . S
C2028 C2031 1.539 . S
C2029 C2025 1.408 . S
C2029 C2028 1.404 . S
C2029 H2041 0.930 . S
C2030 C2026 1.524 . S
C2030 H2042 0.956 . S
C2030 H2043 0.961 . S
C2030 H2044 0.961 . S
C2031 C2028 1.539 . S
C2031 H2045 0.958 . S
C2031 H2046 0.961 . S
C2031 H2047 0.960 . S
H2032 C2016 0.931 . S
H2033 C2021 0.929 . S
H2034 C2022 0.960 . S
H2035 C2022 0.962 . S
H2036 C2022 0.960 . S
H2037 C2023 0.961 . S
H2038 C2023 0.961 . S
H2039 C2023 0.961 . S
H2040 C2024 0.931 . S
H2041 C2029 0.930 . S
H2042 C2030 0.956 . S
H2043 C2030 0.961 . S
H2044 C2030 0.961 . S
H2045 C2031 0.958 . S
H2046 C2031 0.961 . S
H2047 C2031 0.960 . S
C2048 C2049 1.391 . S
C2048 C2050 1.394 . S
C2048 H2064 0.931 . S
C2049 C2048 1.391 . S
C2049 C2053 1.376 . S
C2050 C2048 1.394 . S
C2050 C2051 1.369 . S
C2050 C2054 1.531 . S
C2051 C2050 1.369 . S
C2051 C2052 1.410 . S
C2051 C2059 1.503 . S
C2052 C2051 1.410 . S
C2052 C2053 1.392 . S
C2052 C2055 1.511 . S
C2053 C2049 1.376 . S
C2053 C2052 1.392 . S
C2053 H2065 0.929 . S
C2054 C2050 1.531 . S
C2054 H2066 0.960 . S
C2054 H2067 0.962 . S
C2054 H2068 0.960 . S
C2055 C2052 1.511 . S
C2055 H2069 0.961 . S
C2055 H2070 0.961 . S
C2055 H2071 0.961 . S
C2056 C2057 1.370 1_554 S
C2056 C2058 1.363 . S
C2056 H2072 0.931 . S
C2057 C2056 1.370 1_556 S
C2057 C2061 1.408 . S
C2058 C2056 1.363 . S
C2058 C2059 1.370 . S
C2058 C2062 1.524 . S
C2059 C2051 1.503 . S
C2059 C2058 1.370 . S
C2059 C2060 1.401 1_554 S
C2060 C2059 1.401 1_556 S
C2060 C2061 1.405 . S
C2060 C2063 1.540 . S
C2061 C2057 1.408 . S
C2061 C2060 1.405 . S
C2061 H2073 0.930 . S
C2062 C2058 1.524 . S
C2062 H2074 0.956 . S
C2062 H2075 0.961 . S
C2062 H2076 0.961 . S
C2063 C2060 1.540 . S
C2063 H2077 0.958 . S
C2063 H2078 0.961 . S
C2063 H2079 0.960 1_556 S
H2064 C2048 0.931 . S
H2065 C2053 0.929 . S
H2066 C2054 0.960 . S
H2067 C2054 0.962 . S
H2068 C2054 0.960 . S
H2069 C2055 0.961 . S
H2070 C2055 0.961 . S
H2071 C2055 0.961 . S
H2072 C2056 0.931 . S
H2073 C2061 0.930 . S
H2074 C2062 0.956 . S
H2075 C2062 0.961 . S
H2076 C2062 0.961 . S
H2077 C2063 0.958 . S
H2078 C2063 0.961 . S
H2079 C2063 0.960 1_554 S
C2080 C2081 1.391 . S
C2080 C2082 1.394 . S
C2080 H2096 0.931 . S
C2081 C2080 1.391 . S
C2081 C2085 1.376 . S
C2082 C2080 1.394 . S
C2082 C2083 1.369 . S
C2082 C2086 1.531 . S
C2083 C2082 1.369 . S
C2083 C2084 1.410 . S
C2083 C2091 1.503 . S
C2084 C2083 1.410 . S
C2084 C2085 1.392 . S
C2084 C2087 1.511 . S
C2085 C2081 1.376 . S
C2085 C2084 1.392 . S
C2085 H2097 0.929 . S
C2086 C2082 1.531 . S
C2086 H2098 0.960 . S
C2086 H2099 0.962 . S
C2086 H2100 0.960 . S
C2087 C2084 1.511 . S
C2087 H2101 0.961 . S
C2087 H2102 0.961 . S
C2087 H2103 0.961 . S
C2088 C2089 1.370 . S
C2088 C2090 1.363 . S
C2088 H2104 0.931 . S
C2089 C2088 1.370 . S
C2089 C2093 1.408 . S
C2090 C2088 1.363 . S
C2090 C2091 1.370 . S
C2090 C2094 1.524 . S
C2091 C2083 1.503 . S
C2091 C2090 1.370 . S
C2091 C2092 1.403 . S
C2092 C2091 1.403 . S
C2092 C2093 1.404 . S
C2092 C2095 1.539 . S
C2093 C2089 1.408 . S
C2093 C2092 1.404 . S
C2093 H2105 0.930 . S
C2094 C2090 1.524 . S
C2094 H2106 0.956 . S
C2094 H2107 0.961 . S
C2094 H2108 0.961 . S
C2095 C2092 1.539 . S
C2095 H2109 0.958 . S
C2095 H2110 0.961 . S
C2095 H2111 0.960 . S
H2096 C2080 0.931 . S
H2097 C2085 0.929 . S
H2098 C2086 0.960 . S
H2099 C2086 0.962 . S
H2100 C2086 0.960 . S
H2101 C2087 0.961 . S
H2102 C2087 0.961 . S
H2103 C2087 0.961 . S
H2104 C2088 0.931 . S
H2105 C2093 0.930 . S
H2106 C2094 0.956 . S
H2107 C2094 0.961 . S
H2108 C2094 0.961 . S
H2109 C2095 0.958 . S
H2110 C2095 0.961 . S
H2111 C2095 0.960 . S
C2112 C2113 1.391 . S
C2112 C2114 1.394 . S
C2112 H2128 0.931 . S
C2113 C2112 1.391 . S
C2113 C2117 1.376 . S
C2114 C2112 1.394 . S
C2114 C2115 1.369 . S
C2114 C2118 1.531 . S
C2115 C2114 1.369 . S
C2115 C2116 1.410 . S
C2115 C2123 1.503 . S
C2116 C2115 1.410 . S
C2116 C2117 1.392 . S
C2116 C2119 1.511 . S
C2117 C2113 1.376 . S
C2117 C2116 1.392 . S
C2117 H2129 0.929 . S
C2118 C2114 1.531 . S
C2118 H2130 0.960 . S
C2118 H2131 0.962 . S
C2118 H2132 0.960 . S
C2119 C2116 1.511 . S
C2119 H2133 0.961 . S
C2119 H2134 0.961 . S
C2119 H2135 0.961 . S
C2120 C2121 1.370 . S
C2120 C2122 1.363 . S
C2120 H2136 0.931 . S
C2121 C2120 1.370 . S
C2121 C2125 1.408 . S
C2122 C2120 1.363 . S
C2122 C2123 1.370 . S
C2122 C2126 1.524 . S
C2123 C2115 1.503 . S
C2123 C2122 1.370 . S
C2123 C2124 1.403 . S
C2124 C2123 1.403 . S
C2124 C2125 1.404 . S
C2124 C2127 1.539 . S
C2125 C2121 1.408 . S
C2125 C2124 1.404 . S
C2125 H2137 0.930 . S
C2126 C2122 1.524 . S
C2126 H2138 0.956 . S
C2126 H2139 0.961 . S
C2126 H2140 0.961 . S
C2127 C2124 1.539 . S
C2127 H2141 0.958 . S
C2127 H2142 0.961 . S
C2127 H2143 0.960 . S
H2128 C2112 0.931 . S
H2129 C2117 0.929 . S
H2130 C2118 0.960 . S
H2131 C2118 0.962 . S
H2132 C2118 0.960 . S
H2133 C2119 0.961 . S
H2134 C2119 0.961 . S
H2135 C2119 0.961 . S
H2136 C2120 0.931 . S
H2137 C2125 0.930 . S
H2138 C2126 0.956 . S
H2139 C2126 0.961 . S
H2140 C2126 0.961 . S
H2141 C2127 0.958 . S
H2142 C2127 0.961 . S
H2143 C2127 0.960 . S
C2144 C2145 1.391 . S
C2144 C2146 1.394 . S
C2144 H2160 0.931 . S
C2145 C2144 1.391 . S
C2145 C2149 1.376 . S
C2146 C2144 1.394 . S
C2146 C2147 1.369 . S
C2146 C2150 1.531 . S
C2147 C2146 1.369 . S
C2147 C2148 1.410 . S
C2147 C2155 1.503 . S
C2148 C2147 1.410 . S
C2148 C2149 1.392 . S
C2148 C2151 1.511 . S
C2149 C2145 1.376 . S
C2149 C2148 1.392 . S
C2149 H2161 0.929 . S
C2150 C2146 1.531 . S
C2150 H2162 0.960 . S
C2150 H2163 0.962 . S
C2150 H2164 0.960 . S
C2151 C2148 1.511 . S
C2151 H2165 0.961 . S
C2151 H2166 0.961 . S
C2151 H2167 0.961 . S
C2152 C2153 1.370 . S
C2152 C2154 1.363 . S
C2152 H2168 0.931 . S
C2153 C2152 1.370 . S
C2153 C2157 1.408 . S
C2154 C2152 1.363 . S
C2154 C2155 1.370 . S
C2154 C2158 1.524 . S
C2155 C2147 1.503 . S
C2155 C2154 1.370 . S
C2155 C2156 1.403 . S
C2156 C2155 1.403 . S
C2156 C2157 1.404 . S
C2156 C2159 1.539 . S
C2157 C2153 1.408 . S
C2157 C2156 1.404 . S
C2157 H2169 0.930 . S
C2158 C2154 1.524 . S
C2158 H2170 0.956 . S
C2158 H2171 0.961 . S
C2158 H2172 0.961 . S
C2159 C2156 1.539 . S
C2159 H2173 0.958 . S
C2159 H2174 0.961 . S
C2159 H2175 0.960 . S
H2160 C2144 0.931 . S
H2161 C2149 0.929 . S
H2162 C2150 0.960 . S
H2163 C2150 0.962 . S
H2164 C2150 0.960 . S
H2165 C2151 0.961 . S
H2166 C2151 0.961 . S
H2167 C2151 0.961 . S
H2168 C2152 0.931 . S
H2169 C2157 0.930 . S
H2170 C2158 0.956 . S
H2171 C2158 0.961 . S
H2172 C2158 0.961 . S
H2173 C2159 0.958 . S
H2174 C2159 0.961 . S
H2175 C2159 0.960 . S
C641 C10 1.062 . S
C649 C295 1.018 . S
C673 C50 1.018 . S
C681 C175 1.037 . S
C705 C215 1.030 . S
C713 C90 1.045 . S
C737 C130 1.062 . S
C745 C255 1.010 . S
C769 C446 0.977 . S
C777 C179 1.029 . S
C801 C339 1.008 . S
C809 C6 1.031 . S
C833 C406 1.010 . S
C841 C259 1.021 . S
C865 C86 0.984 . S
C873 C379 1.042 . S
C897 C375 0.980 . S
C905 C490 1.031 . S
C929 C410 1.027 . S
C937 C575 1.003 . S
C961 C530 1.006 . S
C969 C335 1.015 . S
C993 C450 1.009 . S
C1001 C615 1.011 . S
C1025 C579 1.038 . S
C1033 C126 1.037 . S
C1057 C486 0.977 . S
C1065 C219 1.039 . S
C1089 C46 1.031 . S
C1097 C619 1.046 . S
C1121 C299 1.046 . S
C1129 C526 1.003 . S
C1153 C529 0.352 . S
C1161 C9 0.404 1_455 S
C1185 C449 0.379 . S
C1193 C49 0.393 . S
C1217 C489 0.548 . S
C1225 C89 0.436 . S
C1249 C409 0.530 . S
C1257 C129 0.463 . S
C1281 C178 0.490 . S
C1289 C618 0.391 1_455 S
C1313 C378 0.442 . S
C1321 C218 0.387 . S
C1345 C258 0.411 . S
C1353 C578 0.468 . S
C1377 C298 0.379 . S
C1385 C338 0.457 . S
C1409 C18 1.496 . S
C1417 C169 1.539 . S
C1441 C58 1.521 . S
C1449 C209 1.530 . S
C1473 C249 1.549 . S
C1481 C98 1.518 . S
C1505 C138 1.517 . S
C1513 C289 1.532 . S
C1537 C418 1.533 . S
C1545 C329 1.525 . S
C1569 C458 1.504 . S
C1577 C369 1.537 . S
C1601 C498 1.555 . S
C1609 C569 1.512 . S
C1633 C609 1.565 . S
C1641 C538 1.511 . S
C1665 C15 1.912 . S
C1673 C290 1.962 . S
C1697 C55 1.887 . S
C1705 C170 1.965 . S
C1729 C210 1.948 . S
C1737 C95 1.901 . S
C1761 C250 1.955 . S
C1769 C135 1.904 . S
C1793 C459 1.963 . S
C1801 C166 1.885 . S
C1825 C326 1.864 . S
C1833 C19 1.965 . S
C1857 C419 1.951 . S
C1865 C246 1.906 . S
C1889 C99 1.964 . S
C1897 C366 1.893 . S
C1921 C495 1.874 . S
C1929 C370 1.962 . S
C1953 C570 1.961 . S
C1961 C415 1.900 . S
C1985 C535 1.870 . S
C1993 C330 1.967 . S
C2017 C610 1.964 . S
C2025 C455 1.884 . S
C2049 C566 1.907 . S
C2057 C139 1.959 . S
C2081 C206 1.873 . S
C2089 C499 1.962 . S
C2113 C59 1.961 . S
C2121 C606 1.886 . S
C2145 C539 1.948 . S
C2153 C286 1.900 . S
