# Generated by pormake.
# Topology wkf, (6)-cn, num edge types: 1
# Building blocks:
#     Node 0, Type 0, BuildingBlock: MAKGUD_clean_sbu_1, # of connection points: 6
#     Node 1, Type 0, BuildingBlock: MAKGUD_clean_sbu_1, # of connection points: 6
#     Node 2, Type 0, BuildingBlock: MAKGUD_clean_sbu_1, # of connection points: 6
#     Node 3, Type 0, BuildingBlock: MAKGUD_clean_sbu_1, # of connection points: 6
#     Node 4, Type 0, BuildingBlock: MAKGUD_clean_sbu_1, # of connection points: 6
#     Node 5, Type 0, BuildingBlock: MAKGUD_clean_sbu_1, # of connection points: 6
#     Node 6, Type 0, BuildingBlock: MAKGUD_clean_sbu_1, # of connection points: 6
#     Node 7, Type 0, BuildingBlock: MAKGUD_clean_sbu_1, # of connection points: 6
#     Node 8, Type 0, BuildingBlock: MAKGUD_clean_sbu_1, # of connection points: 6
#     Node 9, Type 0, BuildingBlock: MAKGUD_clean_sbu_1, # of connection points: 6
#     Node 10, Type 0, BuildingBlock: MAKGUD_clean_sbu_1, # of connection points: 6
#     Node 11, Type 0, BuildingBlock: MAKGUD_clean_sbu_1, # of connection points: 6
#     Edge 12, Type (0, 0), BuildingBlock: XUDNAN_clean_linker_2, # of connection points: 2
#     Edge 13, Type (0, 0), BuildingBlock: XUDNAN_clean_linker_2, # of connection points: 2
#     Edge 14, Type (0, 0), BuildingBlock: XUDNAN_clean_linker_2, # of connection points: 2
#     Edge 15, Type (0, 0), BuildingBlock: XUDNAN_clean_linker_2, # of connection points: 2
#     Edge 16, Type (0, 0), BuildingBlock: XUDNAN_clean_linker_2, # of connection points: 2
#     Edge 17, Type (0, 0), BuildingBlock: XUDNAN_clean_linker_2, # of connection points: 2
#     Edge 18, Type (0, 0), BuildingBlock: XUDNAN_clean_linker_2, # of connection points: 2
#     Edge 19, Type (0, 0), BuildingBlock: XUDNAN_clean_linker_2, # of connection points: 2
#     Edge 20, Type (0, 0), BuildingBlock: XUDNAN_clean_linker_2, # of connection points: 2
#     Edge 21, Type (0, 0), BuildingBlock: XUDNAN_clean_linker_2, # of connection points: 2
#     Edge 22, Type (0, 0), BuildingBlock: XUDNAN_clean_linker_2, # of connection points: 2
#     Edge 23, Type (0, 0), BuildingBlock: XUDNAN_clean_linker_2, # of connection points: 2
#     Edge 24, Type (0, 0), BuildingBlock: XUDNAN_clean_linker_2, # of connection points: 2
#     Edge 25, Type (0, 0), BuildingBlock: XUDNAN_clean_linker_2, # of connection points: 2
#     Edge 26, Type (0, 0), BuildingBlock: XUDNAN_clean_linker_2, # of connection points: 2
#     Edge 27, Type (0, 0), BuildingBlock: XUDNAN_clean_linker_2, # of connection points: 2
#     Edge 28, Type (0, 0), BuildingBlock: XUDNAN_clean_linker_2, # of connection points: 2
#     Edge 29, Type (0, 0), BuildingBlock: XUDNAN_clean_linker_2, # of connection points: 2
#     Edge 30, Type (0, 0), BuildingBlock: XUDNAN_clean_linker_2, # of connection points: 2
#     Edge 31, Type (0, 0), BuildingBlock: XUDNAN_clean_linker_2, # of connection points: 2
#     Edge 32, Type (0, 0), BuildingBlock: XUDNAN_clean_linker_2, # of connection points: 2
#     Edge 33, Type (0, 0), BuildingBlock: XUDNAN_clean_linker_2, # of connection points: 2
#     Edge 34, Type (0, 0), BuildingBlock: XUDNAN_clean_linker_2, # of connection points: 2
#     Edge 35, Type (0, 0), BuildingBlock: XUDNAN_clean_linker_2, # of connection points: 2
#     Edge 36, Type (0, 0), BuildingBlock: XUDNAN_clean_linker_2, # of connection points: 2
#     Edge 37, Type (0, 0), BuildingBlock: XUDNAN_clean_linker_2, # of connection points: 2
#     Edge 38, Type (0, 0), BuildingBlock: XUDNAN_clean_linker_2, # of connection points: 2
#     Edge 39, Type (0, 0), BuildingBlock: XUDNAN_clean_linker_2, # of connection points: 2
#     Edge 40, Type (0, 0), BuildingBlock: XUDNAN_clean_linker_2, # of connection points: 2
#     Edge 41, Type (0, 0), BuildingBlock: XUDNAN_clean_linker_2, # of connection points: 2
#     Edge 42, Type (0, 0), BuildingBlock: XUDNAN_clean_linker_2, # of connection points: 2
#     Edge 43, Type (0, 0), BuildingBlock: XUDNAN_clean_linker_2, # of connection points: 2
#     Edge 44, Type (0, 0), BuildingBlock: XUDNAN_clean_linker_2, # of connection points: 2
#     Edge 45, Type (0, 0), BuildingBlock: XUDNAN_clean_linker_2, # of connection points: 2
#     Edge 46, Type (0, 0), BuildingBlock: XUDNAN_clean_linker_2, # of connection points: 2
#     Edge 47, Type (0, 0), BuildingBlock: XUDNAN_clean_linker_2, # of connection points: 2
# Relax obj value: 0.042
# Max RMSD: 0.162
# Mean RMSD: 0.161
data_MOF--net-wkf--node1-MAKGUD_clean_sbu_1--edge1-XUDNAN_clean_linker_2
_symmetry_space_group_name_H-M    P1
_symmetry_Int_Tables_number       1
_symmetry_cell_setting            triclinic
loop_
_symmetry_equiv_pos_as_xyz
'x, y, z'
_cell_length_a     29.085416
_cell_length_b     29.069866
_cell_length_c     79.114986
_cell_angle_alpha  89.425341
_cell_angle_beta   90.2629
_cell_angle_gamma 120.43958
loop_
_atom_site_label
_atom_site_type_symbol
_atom_site_fract_x
_atom_site_fract_y
_atom_site_fract_z
_atom_type_partial_charge
O0 O 0.47143 0.05335 0.45894 0.0
Tb1 Tb 0.47861 0.05328 0.43147 0.0
C2 C 0.50341 0.10482 0.39677 0.0
O3 O 0.47302 0.94207 0.41504 0.0
Tb4 Tb 0.49866 0.99709 0.39336 0.0
C5 C 0.4255 0.96579 0.36919 0.0
O6 O 0.42265 0.96884 0.4297 0.0
O7 O 0.54993 0.9665 0.38529 0.0
C8 C 0.52682 0.91428 0.38337 0.0
O9 O 0.4755 0.88486 0.38644 0.0
O10 O 0.46577 0.0848 0.40829 0.0
O11 O 0.53441 0.08419 0.3947 0.0
O12 O 0.56533 0.09377 0.432 0.0
C13 C 0.43371 0.93208 0.42542 0.0
C14 C 0.45315 0.08587 0.45942 0.0
O15 O 0.41509 0.96095 0.38535 0.0
O16 O 0.4765 0.98764 0.36681 0.0
C17 C 0.58877 0.1462 0.43133 0.0
O18 O 0.55827 0.1671 0.42917 0.0
O19 O 0.44871 0.09984 0.44407 0.0
O20 O 0.48885 0.37112 0.54066 0.0
Tb21 Tb 0.5282 0.42009 0.56256 0.0
C22 C 0.53203 0.42287 0.60285 0.0
O23 O 0.45257 0.48148 0.58076 0.0
Tb24 Tb 0.47423 0.47953 0.60758 0.0
C25 C 0.39067 0.44115 0.62828 0.0
O26 O 0.48552 0.46169 0.5557 0.0
O27 O 0.50999 0.56485 0.61107 0.0
C28 C 0.47642 0.58199 0.60861 0.0
O29 O 0.42843 0.54743 0.60314 0.0
O30 O 0.51915 0.43449 0.58825 0.0
O31 O 0.52018 0.44344 0.61534 0.0
O32 O 0.61217 0.45887 0.55542 0.0
C33 C 0.45605 0.4774 0.56404 0.0
C34 C 0.4765 0.32559 0.54765 0.0
O35 O 0.38987 0.42285 0.61322 0.0
O36 O 0.43822 0.48029 0.63153 0.0
C37 C 0.65098 0.48017 0.56659 0.0
O38 O 0.63971 0.48411 0.58237 0.0
O39 O 0.49201 0.33293 0.56341 0.0
O40 O 0.96025 0.38575 0.78535 0.0
Tb41 Tb 0.96373 0.44203 0.76634 0.0
C42 C 0.96944 0.44273 0.72615 0.0
O43 O 0.06995 0.46093 0.74951 0.0
Tb44 Tb 0.08783 0.48835 0.72313 0.0
C45 C 0.13622 0.44668 0.7059 0.0
O46 O 1.04778 0.48922 0.77306 0.0
O47 O 0.12396 0.57306 0.71711 0.0
C48 C 0.17337 0.60785 0.72154 0.0
O49 O 0.19951 0.59213 0.73133 0.0
O50 O 0.98907 0.46686 0.74053 0.0
O51 O 1.00512 0.45206 0.71447 0.0
O52 O 0.91307 0.46971 0.77672 0.0
C53 C 0.08509 0.49245 0.76277 0.0
C54 C 0.92642 0.34268 0.7774 0.0
O55 O 0.08819 0.43736 0.70315 0.0
O56 O 0.15707 0.47926 0.71854 0.0
C57 C 0.90848 0.50926 0.77048 0.0
O58 O 0.93833 0.53729 0.75764 0.0
O59 O 0.91511 0.35565 0.76277 0.0
O60 O 0.6393 0.10393 0.86253 0.0
Tb61 Tb 0.62642 0.09054 0.88965 0.0
C62 C 0.70194 0.14854 0.9216 0.0
O63 O 0.64265 0.98839 0.89832 0.0
Tb64 Tb 0.64911 1.02105 0.9232 0.0
C65 C 0.6785 0.96818 0.94411 0.0
O66 O 0.57669 1.00365 0.89038 0.0
O67 O 0.56415 0.98837 0.92849 0.0
C68 C 0.53252 0.93603 0.92749 0.0
O69 O 0.55304 0.90767 0.92208 0.0
O70 O 0.66768 0.14672 0.91021 0.0
O71 O 0.70349 0.10611 0.92686 0.0
O72 O 0.57688 0.12594 0.88511 0.0
C73 C 0.59952 0.97453 0.88948 0.0
C74 C 0.68836 0.11456 0.86252 0.0
O75 O 0.63953 0.97685 0.94667 0.0
O76 O 0.70174 0.98998 0.92986 0.0
C77 C 0.60056 0.17778 0.88221 0.0
O78 O 0.6529 0.20604 0.88264 0.0
O79 O 0.70324 0.11225 0.87792 0.0
O80 O 0.66446 0.59366 0.12172 0.0
Tb81 Tb 0.66847 0.60656 0.09434 0.0
C82 C 0.72373 0.61162 0.06067 0.0
O83 O 0.64685 0.69492 0.07274 0.0
Tb84 Tb 0.64232 0.64596 0.05146 0.0
C85 C 0.67628 0.71018 1.02451 0.0
O86 O 0.60619 0.62606 0.09147 0.0
O87 O 0.55517 0.60269 0.05074 0.0
C88 C 0.53172 0.63042 0.0471 0.0
O89 O 0.56175 0.68228 0.04491 0.0
O90 O 0.73086 0.63583 0.07521 0.0
O91 O 0.68001 0.59703 0.05183 0.0
O92 O 0.64251 0.52265 0.09244 0.0
C93 C 0.61791 0.67379 0.08639 0.0
C94 C 0.7113 0.63381 0.12517 0.0
O95 O 0.70174 0.71962 0.03879 0.0
O96 O 0.6324 0.66427 1.02534 0.0
C97 C 0.67783 0.50948 0.097 0.0
O98 O 0.72647 0.54802 0.10046 0.0
O99 O 0.73393 0.65929 0.11124 0.0
O100 O 0.97023 0.61817 0.20587 0.0
Tb101 Tb 0.9837 0.57187 0.22492 0.0
C102 C 1.00073 0.58187 0.26551 0.0
O103 O 0.09087 0.66601 0.24106 0.0
Tb104 Tb 0.12005 0.65877 0.26604 0.0
C105 C 0.16888 0.74658 0.2847 0.0
O106 O 0.06688 0.62013 0.21642 0.0
O107 O 0.16938 0.62214 0.26624 0.0
C108 C 0.22063 0.65373 0.26335 0.0
O109 O 0.23714 0.70296 0.25848 0.0
O110 O 1.01557 0.5777 0.25022 0.0
O111 O 1.0399 0.60831 0.27624 0.0
O112 O 0.94629 0.49051 0.21548 0.0
C113 C 0.10494 0.65502 0.22649 0.0
C114 C 0.93146 0.61917 0.21366 0.0
O115 O 0.1718 0.74529 0.26833 0.0
O116 O 0.13763 0.69857 0.29047 0.0
C117 C 0.89412 0.46169 0.21353 0.0
O118 O 0.86458 0.48201 0.21786 0.0
O119 O 0.92303 0.59475 0.22826 0.0
O120 O 1.00543 0.55472 0.45113 0.0
Tb121 Tb 1.02622 0.54868 0.47733 0.0
C122 C 0.98055 0.53227 0.5141 0.0
O123 O 0.13597 0.63687 0.49635 0.0
Tb124 Tb 0.10146 0.58611 0.51837 0.0
C125 C 0.12595 0.65288 0.54411 0.0
O126 O 0.11031 0.57261 0.4765 0.0
O127 O 0.15352 0.55229 0.5183 0.0
C128 C 0.20426 0.58329 0.52223 0.0
O129 O 0.22238 0.63403 0.52519 0.0
O130 O 0.98587 0.55588 0.4994 0.0
O131 O 1.01812 0.52411 0.52002 0.0
O132 O 0.97002 0.46408 0.47372 0.0
C133 C 0.14577 0.61953 0.48238 0.0
C134 C 1.00635 0.59963 0.45278 0.0
O135 O 0.10311 0.65475 0.53016 0.0
O136 O 0.13373 0.61265 0.54369 0.0
C137 C 0.92059 0.45192 0.47071 0.0
O138 O 0.90943 0.49038 0.47146 0.0
O139 O 1.01998 0.61655 0.46817 0.0
O140 O 0.4496 0.10822 0.70654 0.0
Tb141 Tb 0.49149 0.09427 0.68588 0.0
C142 C 0.51397 0.10411 0.64631 0.0
O143 O 0.4119 0.99667 0.66576 0.0
Tb144 Tb 0.44349 0.98374 0.64277 0.0
C145 C 0.37116 0.93929 0.61835 0.0
O146 O 0.44347 1.00869 0.69213 0.0
O147 O 0.46935 0.92774 0.64946 0.0
C148 C 0.43447 0.87686 0.64738 0.0
O149 O 0.38467 0.86292 0.64427 0.0
O150 O 0.47853 0.09292 0.65839 0.0
O151 O 0.50744 0.06412 0.63689 0.0
O152 O 0.57304 0.12918 0.69512 0.0
C153 C 0.41369 0.97557 0.68022 0.0
C154 C 0.45356 0.15139 0.70007 0.0
O155 O 0.36429 0.95825 0.6323 0.0
O156 O 0.41903 0.94652 0.61803 0.0
C157 C 0.61439 0.16693 0.68686 0.0
O158 O 0.60864 0.1782 0.67118 0.0
O159 O 0.47783 0.16136 0.68566 0.0
O160 O 0.47197 0.44694 0.77999 0.0
Tb161 Tb 0.46347 0.45523 0.80706 0.0
C162 C 0.47176 0.41311 0.8414 0.0
O163 O 0.38574 0.48689 0.8311 0.0
Tb164 Tb 0.44925 0.50129 0.84895 0.0
C165 C 0.40088 0.47409 0.87891 0.0
O166 O 0.42763 0.50477 0.80513 0.0
O167 O 0.48967 0.58814 0.84722 0.0
C168 C 0.45973 0.60883 0.85084 0.0
O169 O 0.40974 0.57629 0.85503 0.0
O170 O 0.43905 0.40134 0.82863 0.0
O171 O 0.49592 0.46181 0.84737 0.0
O172 O 0.54976 0.4961 0.80933 0.0
C173 C 0.39082 0.50267 0.81519 0.0
C174 C 0.43925 0.39579 0.7794 0.0
O175 O 0.38338 0.4458 0.86526 0.0
O176 O 0.44595 0.51733 0.87572 0.0
C177 C 0.57237 0.46672 0.81006 0.0
O178 O 0.5416 0.41462 0.81109 0.0
O179 O 0.41971 0.37814 0.79436 0.0
O180 O 1.01009 0.40644 0.03657 0.0
Tb181 Tb 1.03698 0.45023 1.01255 0.0
C182 C 1.01602 0.45042 0.97494 0.0
O183 O 0.15876 0.55733 1.0069 0.0
Tb184 Tb 0.1301 0.54352 0.98078 0.0
C185 C 0.1835 0.50524 0.96463 0.0
O186 O 0.11885 0.47235 1.01775 0.0
O187 O 0.16671 0.6241 0.97002 0.0
C188 C 0.19628 0.6671 0.97908 0.0
O189 O 0.19522 0.66317 0.99564 0.0
O190 O 1.03064 0.42762 0.98638 0.0
O191 O 1.04634 0.50234 0.97228 0.0
O192 O 1.00891 0.50641 1.01617 0.0
C193 C 0.16102 0.52018 1.01596 0.0
C194 C 0.97332 0.36185 1.03009 0.0
O195 O 0.14315 0.47724 0.97465 0.0
O196 O 0.19277 0.55369 0.96366 0.0
C197 C 0.9576 0.48937 1.01425 0.0
O198 O 0.92653 0.44104 1.00841 0.0
O199 O 0.9724 0.36722 1.01381 0.0
O200 O 0.67154 0.06957 0.10809 0.0
Tb201 Tb 0.64748 0.07164 0.13405 0.0
C202 C 0.66724 0.09577 0.17132 0.0
O203 O 0.61567 0.96869 0.15605 0.0
Tb204 Tb 0.58631 0.97964 0.18004 0.0
C205 C 0.62484 0.94406 0.20408 0.0
O206 O 0.58861 0.98766 0.1315 0.0
O207 O 0.49945 0.93367 0.18049 0.0
C208 C 0.47288 0.92506 0.19473 0.0
O209 O 0.49871 0.95072 0.20837 0.0
O210 O 0.67729 0.07181 0.15919 0.0
O211 O 0.62691 0.06662 0.1815 0.0
O212 O 0.61705 0.1259 0.13295 0.0
C213 C 0.58581 0.95201 0.14244 0.0
C214 C 0.72213 0.1026 0.11031 0.0
O215 O 0.61127 0.92445 0.18901 0.0
O216 O 0.61624 0.98349 0.20573 0.0
C217 C 0.65204 0.1765 0.13544 0.0
O218 O 0.70076 0.18944 0.13976 0.0
O219 O 0.73082 0.11742 0.126 0.0
O220 O 0.75667 0.59342 0.35821 0.0
Tb221 Tb 0.68118 0.58831 0.3515 0.0
C222 C 0.69315 0.58242 0.31264 0.0
O223 O 0.67502 0.67503 0.33154 0.0
Tb224 Tb 0.63935 0.64898 0.30689 0.0
C225 C 0.68515 0.72989 0.28501 0.0
O226 O 0.64129 0.63412 0.35622 0.0
O227 O 0.55474 0.62278 0.30742 0.0
C228 C 0.54193 0.65943 0.30424 0.0
O229 O 0.58049 0.70944 0.30313 0.0
O230 O 0.7118 0.61381 0.32585 0.0
O231 O 0.66024 0.58797 0.30246 0.0
O232 O 0.62663 0.5026 0.35458 0.0
C233 C 0.64617 0.66958 0.34483 0.0
C234 C 0.76375 0.6184 0.37234 0.0
O235 O 0.68856 0.73404 0.30135 0.0
O236 O 0.65688 0.67978 0.28099 0.0
C237 C 0.645 0.46969 0.35272 0.0
O238 O 0.69454 0.48919 0.34775 0.0
O239 O 0.72442 0.62674 0.37476 0.0
H240 H 0.1724 0.75063 0.31915 0.0
H241 H 0.24461 0.84599 0.27404 0.0
H242 H 0.3126 0.91852 0.29163 0.0
H243 H 0.20117 0.86506 0.34776 0.0
H244 H 0.21448 0.83396 0.36545 0.0
H245 H 0.16668 0.79333 0.34959 0.0
H246 H 0.21847 0.74368 0.34488 0.0
H247 H 0.26657 0.78431 0.36056 0.0
H248 H 0.28831 0.78147 0.3395 0.0
H249 H 0.38061 0.9728 0.31324 0.0
H250 H 0.44127 1.00835 0.33774 0.0
H251 H 0.32334 0.8807 0.36933 0.0
C252 C 0.20153 0.78751 0.31305 0.0
C253 C 0.20332 0.793 0.29528 0.0
C254 C 0.24251 0.84124 0.28766 0.0
C255 C 0.28119 0.88263 0.29756 0.0
C256 C 0.27948 0.87533 0.31504 0.0
C257 C 0.24019 0.82932 0.32277 0.0
C258 C 0.24999 0.82963 0.34163 0.0
C259 C 0.20542 0.83057 0.3517 0.0
C260 C 0.25622 0.78196 0.34694 0.0
C261 C 0.30215 0.88195 0.34318 0.0
C262 C 0.31823 0.90781 0.3277 0.0
C263 C 0.3678 0.95377 0.32551 0.0
C264 C 0.40203 0.97352 0.33945 0.0
C265 C 0.38634 0.94767 0.35538 0.0
C266 C 0.33542 0.90196 0.35736 0.0
H267 H 0.45026 0.31054 0.51436 0.0
H268 H 0.46477 0.23066 0.55889 0.0
H269 H 0.44943 0.15421 0.54124 0.0
H270 H 0.34872 0.18852 0.49172 0.0
H271 H 0.37938 0.21584 0.47152 0.0
H272 H 0.38265 0.25959 0.48806 0.0
H273 H 0.48568 0.31297 0.48553 0.0
H274 H 0.48284 0.26923 0.46914 0.0
H275 H 0.52232 0.27847 0.48779 0.0
H276 H 0.44579 0.09324 0.51813 0.0
H277 H 0.45096 0.05126 0.49171 0.0
H278 H 0.43817 0.17099 0.46236 0.0
C279 C 0.44854 0.27621 0.52049 0.0
C280 C 0.45816 0.27611 0.53799 0.0
C281 C 0.45678 0.2311 0.54552 0.0
C282 C 0.4482 0.18761 0.53558 0.0
C283 C 0.44063 0.18976 0.51821 0.0
C284 C 0.44011 0.23271 0.51077 0.0
C285 C 0.436 0.22774 0.4917 0.0
C286 C 0.38356 0.2226 0.48538 0.0
C287 C 0.4846 0.27489 0.48304 0.0
C288 C 0.43605 0.17614 0.48948 0.0
C289 C 0.43825 0.15454 0.50492 0.0
C290 C 0.44298 0.10922 0.50601 0.0
C291 C 0.44605 0.08575 0.49095 0.0
C292 C 0.44439 0.10764 0.47505 0.0
C293 C 0.43847 0.15286 0.47435 0.0
H294 H 0.24304 0.48266 0.70534 0.0
H295 H 0.09356 0.37247 0.68104 0.0
H296 H 0.14224 0.35073 0.66004 0.0
H297 H 0.31418 0.53661 0.6684 0.0
H298 H 0.37631 0.54474 0.67606 0.0
H299 H 0.32938 0.54519 0.69067 0.0
H300 H 0.32822 0.46823 0.70787 0.0
H301 H 0.3755 0.46773 0.69333 0.0
H302 H 0.31296 0.40737 0.69735 0.0
H303 H 0.20795 0.34875 0.63984 0.0
H304 H 0.28568 0.36763 0.62205 0.0
H305 H 0.39163 0.48003 0.65938 0.0
C306 C 0.22054 0.45285 0.69588 0.0
C307 C 0.16464 0.42878 0.69485 0.0
C308 C 0.13647 0.39099 0.68207 0.0
C309 C 0.16375 0.37834 0.67012 0.0
C310 C 0.21914 0.40383 0.67117 0.0
C311 C 0.24721 0.44016 0.68377 0.0
C312 C 0.30675 0.46576 0.68119 0.0
C313 C 0.33317 0.52666 0.67894 0.0
C314 C 0.33236 0.4514 0.6958 0.0
C315 C 0.30779 0.4393 0.66493 0.0
C316 C 0.25693 0.40316 0.65944 0.0
C317 C 0.248 0.37633 0.64415 0.0
C318 C 0.29224 0.38725 0.63413 0.0
C319 C 0.34442 0.42493 0.63943 0.0
C320 C 0.35212 0.45053 0.65512 0.0
H321 H 0.93898 0.31561 0.80938 0.0
H322 H 0.83881 0.25431 0.76496 0.0
H323 H 0.7718 0.17751 0.78172 0.0
H324 H 0.89681 0.17983 0.83008 0.0
H325 H 0.89936 0.20667 0.85074 0.0
H326 H 0.94489 0.24863 0.83443 0.0
H327 H 0.91299 0.31633 0.83854 0.0
H328 H 0.8669 0.27446 0.85459 0.0
H329 H 0.84305 0.29416 0.83643 0.0
H330 H 0.70803 0.12168 0.80418 0.0
H331 H 0.65487 0.08616 0.8303 0.0
H332 H 0.79646 0.18078 0.86041 0.0
C333 C 0.90406 0.28465 0.80302 0.0
C334 C 0.89413 0.29049 0.78587 0.0
C335 C 0.84743 0.25011 0.77803 0.0
C336 C 0.80913 0.2064 0.78748 0.0
C337 C 0.81865 0.20334 0.80465 0.0
C338 C 0.86554 0.24081 0.81229 0.0
C339 C 0.86319 0.23234 0.83129 0.0
C340 C 0.90345 0.21587 0.83697 0.0
C341 C 0.87202 0.28227 0.84075 0.0
C342 C 0.80647 0.18651 0.83328 0.0
C343 C 0.78175 0.16986 0.81772 0.0
C344 C 0.7274 0.13306 0.81638 0.0
C345 C 0.69747 0.11335 0.83127 0.0
C346 C 0.72196 0.13017 0.84727 0.0
C347 C 0.77731 0.16613 0.84829 0.0
H348 H 0.60722 0.88021 0.96153 0.0
H349 H 0.77586 0.97878 0.95057 0.0
H350 H 0.7947 0.92151 0.96947 0.0
H351 H 0.61623 0.85116 1.00461 0.0
H352 H 0.56256 0.78284 1.00354 0.0
H353 H 0.56332 0.83215 0.98942 0.0
H354 H 0.55738 0.77471 0.96375 0.0
H355 H 0.55677 0.72529 0.97781 0.0
H356 H 0.60627 0.75455 0.96133 0.0
H357 H 0.79459 0.85778 0.99189 0.0
H358 H 0.77482 0.78694 1.01327 0.0
H359 H 0.6056 0.72447 1.00629 0.0
C360 C 0.6481 0.88967 0.96316 0.0
C361 C 0.69033 0.93405 0.9549 0.0
C362 C 0.74319 0.9449 0.95694 0.0
C363 C 0.75415 0.91269 0.96762 0.0
C364 C 0.7115 0.86912 0.97569 0.0
C365 C 0.65943 0.85703 0.97329 0.0
C366 C 0.62051 0.80708 0.98289 0.0
C367 C 0.58882 0.81906 0.99589 0.0
C368 C 0.58304 0.76279 0.97072 0.0
C369 C 0.65884 0.79357 0.99144 0.0
C370 C 0.71122 0.83009 0.98732 0.0
C371 C 0.75372 0.82825 0.99489 0.0
C372 C 0.74225 0.78809 1.00699 0.0
C373 C 0.68884 0.74987 1.01101 0.0
C374 C 0.64678 0.75237 1.003 0.0
H375 H 0.94766 0.67129 0.18362 0.0
H376 H 0.83259 0.59702 0.22415 0.0
H377 H 0.76544 0.60476 0.20693 0.0
H378 H 0.9 0.76303 0.16789 0.0
H379 H 0.91251 0.75384 0.14624 0.0
H380 H 0.95366 0.75136 0.16293 0.0
H381 H 0.93195 0.65788 0.15288 0.0
H382 H 0.89047 0.65979 0.13633 0.0
H383 H 0.86328 0.60522 0.15132 0.0
H384 H 0.7069 0.60448 0.1833 0.0
H385 H 0.6637 0.60232 0.15604 0.0
H386 H 0.81791 0.68075 0.13136 0.0
C387 C 0.90891 0.65847 0.18911 0.0
C388 C 0.89531 0.63399 0.20524 0.0
C389 C 0.84395 0.61658 0.21189 0.0
C390 C 0.80558 0.62071 0.20218 0.0
C391 C 0.8196 0.64313 0.18598 0.0
C392 C 0.87043 0.66264 0.17963 0.0
C393 C 0.87419 0.68028 0.16134 0.0
C394 C 0.91235 0.74073 0.1595 0.0
C395 C 0.89093 0.6489 0.1498 0.0
C396 C 0.81702 0.66561 0.15813 0.0
C397 C 0.78615 0.64451 0.17253 0.0
C398 C 0.73095 0.62238 0.17211 0.0
C399 C 0.70673 0.62119 0.15659 0.0
C400 C 0.7377 0.6424 0.14176 0.0
C401 C 0.79359 0.66589 0.14265 0.0
H402 H 0.36006 0.85036 0.60413 0.0
H403 H 0.28413 0.94519 0.60804 0.0
H404 H 0.2097 0.88019 0.58994 0.0
H405 H 0.32352 0.80465 0.56152 0.0
H406 H 0.31292 0.73945 0.56672 0.0
H407 H 0.35972 0.79665 0.57869 0.0
H408 H 0.30634 0.74724 0.60667 0.0
H409 H 0.26227 0.69141 0.59368 0.0
H410 H 0.23578 0.722 0.60721 0.0
H411 H 0.14668 0.80623 0.5698 0.0
H412 H 0.09792 0.72746 0.55124 0.0
H413 H 0.21134 0.67755 0.56391 0.0
C414 C 0.32808 0.85778 0.60096 0.0
C415 C 0.32801 0.9031 0.60703 0.0
C416 C 0.28486 0.91083 0.60321 0.0
C417 C 0.24255 0.87414 0.59303 0.0
C418 C 0.24362 0.82942 0.58728 0.0
C419 C 0.28499 0.82086 0.59135 0.0
C420 C 0.27584 0.76865 0.58442 0.0
C421 C 0.32064 0.77788 0.57211 0.0
C422 C 0.2697 0.73001 0.59883 0.0
C423 C 0.22364 0.74972 0.57531 0.0
C424 C 0.20563 0.78528 0.57699 0.0
C425 C 0.15993 0.77768 0.56866 0.0
C426 C 0.13248 0.73295 0.5582 0.0
C427 C 0.15043 0.69619 0.55648 0.0
C428 C 0.196 0.70435 0.56537 0.0
H429 H 0.41747 0.14548 0.73256 0.0
H430 H 0.46325 0.24211 0.68685 0.0
H431 H 0.4532 0.31077 0.70148 0.0
H432 H 0.32083 0.18471 0.74845 0.0
H433 H 0.34105 0.18595 0.77009 0.0
H434 H 0.34375 0.14045 0.75536 0.0
H435 H 0.44375 0.17908 0.76235 0.0
H436 H 0.44144 0.22476 0.777 0.0
H437 H 0.48935 0.2498 0.76001 0.0
H438 H 0.45173 0.3743 0.72177 0.0
H439 H 0.45541 0.42747 0.74647 0.0
H440 H 0.40798 0.29004 0.77917 0.0
C441 C 0.42374 0.18038 0.72554 0.0
C442 C 0.44036 0.18824 0.7085 0.0
C443 C 0.44966 0.23498 0.69982 0.0
C444 C 0.4441 0.27426 0.70804 0.0
C445 C 0.42892 0.26609 0.72495 0.0
C446 C 0.41838 0.22017 0.73362 0.0
C447 C 0.40732 0.22363 0.75213 0.0
C448 C 0.3498 0.18116 0.75677 0.0
C449 C 0.44789 0.21906 0.76353 0.0
C450 C 0.41509 0.27927 0.75258 0.0
C451 C 0.42717 0.30287 0.73672 0.0
C452 C 0.44107 0.35591 0.73418 0.0
C453 C 0.44324 0.38582 0.74825 0.0
C454 C 0.43116 0.36245 0.76457 0.0
C455 C 0.416 0.3083 0.76671 0.0
H456 H 0.28125 0.56632 0.95099 0.0
H457 H 0.15367 0.40208 0.9566 0.0
H458 H 0.20177 0.3735 0.93744 0.0
H459 H 0.30322 0.56337 0.90849 0.0
H460 H 0.37461 0.60623 0.90944 0.0
H461 H 0.33315 0.61181 0.92508 0.0
H462 H 0.386 0.59674 0.94882 0.0
H463 H 0.42759 0.59088 0.93319 0.0
H464 H 0.39223 0.53812 0.94848 0.0
H465 H 0.25701 0.36605 0.91408 0.0
H466 H 0.31745 0.3793 0.89017 0.0
H467 H 0.41142 0.54765 0.90174 0.0
C468 C 0.264 0.52416 0.94847 0.0
C469 C 0.21392 0.48623 0.95517 0.0
C470 C 0.19228 0.43153 0.95161 0.0
C471 C 0.21931 0.41508 0.94077 0.0
C472 C 0.26824 0.45383 0.93399 0.0
C473 C 0.29074 0.50717 0.93796 0.0
C474 C 0.34196 0.54153 0.92832 0.0
C475 C 0.33795 0.58314 0.91718 0.0
C476 C 0.38978 0.56838 0.94043 0.0
C477 C 0.34394 0.49952 0.91778 0.0
C478 C 0.30119 0.44911 0.92121 0.0
C479 C 0.29141 0.40502 0.91163 0.0
C480 C 0.32577 0.41286 0.89808 0.0
C481 C 0.36947 0.46422 0.89442 0.0
C482 C 0.37922 0.50768 0.90463 0.0
H483 H 0.81825 0.19458 0.11165 0.0
H484 H 0.71197 0.06836 0.07786 0.0
H485 H 0.77083 0.11777 0.05374 0.0
H486 H 0.84029 0.29836 0.08504 0.0
H487 H 0.90923 0.34195 0.0906 0.0
H488 H 0.86432 0.293 0.10558 0.0
H489 H 0.92636 0.25343 0.10818 0.0
H490 H 0.97193 0.30273 0.09331 0.0
H491 H 0.9457 0.2328 0.0894 0.0
H492 H 0.83474 0.18525 1.03305 0.0
H493 H 0.90011 0.26564 1.01722 0.0
H494 H 0.96365 0.34897 0.06442 0.0
C495 C 0.80842 0.1766 0.09926 0.0
C496 C 0.76116 0.12747 0.09655 0.0
C497 C 0.74843 0.10578 0.08013 0.0
C498 C 0.78159 0.13352 0.06639 0.0
C499 C 0.82713 0.18281 0.06936 0.0
C500 C 0.84075 0.20407 0.0854 0.0
C501 C 0.88874 0.26001 0.08496 0.0
C502 C 0.87478 0.3007 0.09195 0.0
C503 C 0.93598 0.26235 0.09453 0.0
C504 C 0.89921 0.26741 0.06613 0.0
C505 C 0.86358 0.22221 0.05738 0.0
C506 C 0.86334 0.22057 0.03978 0.0
C507 C 0.90039 0.26642 1.0309 0.0
C508 C 0.93682 0.31318 0.03964 0.0
C509 C 0.93655 0.31345 0.05746 0.0
H510 H 0.66185 0.72427 0.25148 0.0
H511 H 0.73185 0.83503 0.29298 0.0
H512 H 0.73253 0.90609 0.27542 0.0
H513 H 0.73005 0.82402 0.2162 0.0
H514 H 0.67108 0.79165 0.20323 0.0
H515 H 0.68554 0.75293 0.21795 0.0
H516 H 0.59227 0.71632 0.23149 0.0
H517 H 0.57784 0.7556 0.21711 0.0
H518 H 0.57374 0.76244 0.23958 0.0
H519 H 0.71039 0.95935 0.25545 0.0
H520 H 0.67544 0.99399 0.23319 0.0
H521 H 0.622 0.84925 0.20451 0.0
C522 C 0.6793 0.76406 0.25661 0.0
C523 C 0.69724 0.77452 0.27347 0.0
C524 C 0.7185 0.82656 0.27998 0.0
C525 C 0.7189 0.86708 0.27013 0.0
C526 C 0.69847 0.85485 0.25377 0.0
C527 C 0.67998 0.80487 0.24694 0.0
C528 C 0.65548 0.80045 0.22969 0.0
C529 C 0.68747 0.79177 0.21595 0.0
C530 C 0.59635 0.7561 0.22947 0.0
C531 C 0.6615 0.85511 0.22813 0.0
C532 C 0.6865 0.88599 0.24212 0.0
C533 C 0.69199 0.93611 0.24423 0.0
C534 C 0.67175 0.95528 0.23163 0.0
C535 C 0.64669 0.92438 0.21716 0.0
C536 C 0.64193 0.87398 0.21535 0.0
H537 H 0.96832 0.56165 0.42132 0.0
H538 H 0.98962 0.68302 0.45707 0.0
H539 H 0.93593 0.70735 0.43877 0.0
H540 H 0.9693 0.63557 0.38218 0.0
H541 H 0.91892 0.57525 0.37229 0.0
H542 H 0.96521 0.57284 0.38699 0.0
H543 H 0.88595 0.50155 0.40479 0.0
H544 H 0.83947 0.50412 0.3903 0.0
H545 H 0.83644 0.51607 0.41247 0.0
H546 H 0.86837 0.70816 0.41903 0.0
H547 H 0.79862 0.69106 0.39783 0.0
H548 H 0.82499 0.5724 0.37425 0.0
C549 C 0.96311 0.59451 0.425 0.0
C550 C 0.98331 0.62078 0.44051 0.0
C551 C 0.97485 0.66281 0.44513 0.0
C552 C 0.94432 0.67679 0.43484 0.0
C553 C 0.92326 0.64879 0.41989 0.0
C554 C 0.93305 0.60914 0.41483 0.0
C555 C 0.90279 0.58259 0.39883 0.0
C556 C 0.94137 0.59216 0.38421 0.0
C557 C 0.86387 0.52256 0.40178 0.0
C558 C 0.87329 0.61243 0.39595 0.0
C559 C 0.88556 0.65045 0.40823 0.0
C560 C 0.85943 0.67948 0.40911 0.0
C561 C 0.8198 0.6694 0.39709 0.0
C562 C 0.80726 0.63109 0.38435 0.0
C563 C 0.8348 0.60281 0.38367 0.0
H564 H 0.56678 0.66545 0.3653 0.0
H565 H 0.70137 0.7724 0.33374 0.0
H566 H 0.68798 0.84688 0.34096 0.0
H567 H 0.486 0.72379 0.35363 0.0
H568 H 0.45696 0.71482 0.37435 0.0
H569 H 0.47795 0.66979 0.36709 0.0
H570 H 0.5378 0.69071 0.39358 0.0
H571 H 0.51728 0.73611 0.40086 0.0
H572 H 0.58714 0.75896 0.39814 0.0
H573 H 0.66277 0.91165 0.35259 0.0
H574 H 0.61999 0.9587 0.36502 0.0
H575 H 0.4985 0.80962 0.38753 0.0
C576 C 0.59332 0.70456 0.35994 0.0
C577 C 0.63514 0.71291 0.34895 0.0
C578 C 0.66871 0.76466 0.34205 0.0
C579 C 0.66173 0.80752 0.34619 0.0
C580 C 0.62048 0.7982 0.3571 0.0
C581 C 0.58622 0.74786 0.36367 0.0
C582 C 0.54351 0.74844 0.37447 0.0
C583 C 0.48781 0.71206 0.36693 0.0
C584 C 0.54664 0.73262 0.39286 0.0
C585 C 0.55956 0.80689 0.37306 0.0
C586 C 0.60447 0.83508 0.36316 0.0
C587 C 0.62732 0.8899 0.36029 0.0
C588 C 0.603 0.91642 0.36746 0.0
C589 C 0.55588 0.88794 0.37717 0.0
C590 C 0.53436 0.83253 0.38007 0.0
H591 H 0.69275 0.49042 0.53469 0.0
H592 H 0.73201 0.49621 0.58792 0.0
H593 H 0.81963 0.50806 0.58034 0.0
H594 H 0.7545 0.41833 0.52079 0.0
H595 H 0.77933 0.45526 0.50127 0.0
H596 H 0.71983 0.44803 0.51077 0.0
H597 H 0.76203 0.55078 0.51103 0.0
H598 H 0.82142 0.55828 0.50135 0.0
H599 H 0.82598 0.5914 0.52096 0.0
H600 H 0.90124 0.51413 0.56695 0.0
H601 H 0.97458 0.52397 0.5487 0.0
H602 H 0.88394 0.51842 0.50425 0.0
C603 C 0.71994 0.49463 0.54475 0.0
C604 C 0.70542 0.49236 0.56191 0.0
C605 C 0.74226 0.49814 0.57469 0.0
C606 C 0.79207 0.50457 0.57051 0.0
C607 C 0.80478 0.50575 0.55349 0.0
C608 C 0.77013 0.50176 0.54081 0.0
C609 C 0.79394 0.5052 0.5235 0.0
C610 C 0.75986 0.45363 0.5135 0.0
C611 C 0.80129 0.55435 0.51363 0.0
C612 C 0.84717 0.51135 0.52844 0.0
C613 C 0.85245 0.51102 0.5458 0.0
C614 C 0.8977 0.51483 0.55334 0.0
C615 C 0.93901 0.52007 0.54287 0.0
C616 C 0.93507 0.5221 0.52506 0.0
C617 C 0.88829 0.51732 0.51783 0.0
H618 H 0.41307 0.90955 0.70606 0.0
H619 H 0.32269 0.91314 0.66274 0.0
H620 H 0.25195 0.8214 0.66905 0.0
H621 H 0.37713 0.77008 0.70063 0.0
H622 H 0.37322 0.75628 0.723 0.0
H623 H 0.41771 0.82278 0.71514 0.0
H624 H 0.37305 0.85948 0.73482 0.0
H625 H 0.32813 0.79306 0.74265 0.0
H626 H 0.30198 0.83233 0.73363 0.0
H627 H 0.1882 0.73158 0.68066 0.0
H628 H 0.13946 0.64434 0.69515 0.0
H629 H 0.27105 0.69434 0.73035 0.0
C630 C 0.37851 0.8908 0.69788 0.0
C631 C 0.3737 0.91876 0.68386 0.0
C632 C 0.32783 0.89269 0.67344 0.0
C633 C 0.28706 0.84051 0.67698 0.0
C634 C 0.29261 0.81427 0.69093 0.0
C635 C 0.33742 0.83798 0.70109 0.0
C636 C 0.33339 0.79976 0.71505 0.0
C637 C 0.37801 0.78643 0.71335 0.0
C638 C 0.33418 0.82253 0.73258 0.0
C639 C 0.27907 0.75147 0.71123 0.0
C640 C 0.25622 0.7611 0.69733 0.0
C641 C 0.20581 0.72333 0.69149 0.0
C642 C 0.17827 0.67391 0.69988 0.0
C643 C 0.20129 0.66224 0.71388 0.0
C644 C 0.25234 0.7019 0.71967 0.0
H645 H 0.56277 0.42348 0.85595 0.0
H646 H 0.39939 0.30708 0.84308 0.0
H647 H 0.41275 0.2346 0.85376 0.0
H648 H 0.61674 0.34454 0.84233 0.0
H649 H 0.66667 0.36618 0.85867 0.0
H650 H 0.64287 0.40948 0.85159 0.0
H651 H 0.61709 0.41682 0.88233 0.0
H652 H 0.6409 0.37359 0.88952 0.0
H653 H 0.57351 0.35691 0.89412 0.0
H654 H 0.44444 0.17421 0.8651 0.0
H655 H 0.49389 0.13017 0.87467 0.0
H656 H 0.63794 0.28512 0.87887 0.0
C657 C 0.52961 0.38282 0.85573 0.0
C658 C 0.47981 0.37088 0.84893 0.0
C659 C 0.43778 0.31707 0.84833 0.0
C660 C 0.44493 0.27564 0.85442 0.0
C661 C 0.49462 0.28851 0.86088 0.0
C662 C 0.53638 0.34074 0.86147 0.0
C663 C 0.58683 0.34322 0.86785 0.0
C664 C 0.63085 0.36725 0.85431 0.0
C665 C 0.60568 0.37449 0.88444 0.0
C666 C 0.56687 0.28436 0.87073 0.0
C667 C 0.51343 0.25351 0.8668 0.0
C668 C 0.48631 0.19798 0.86826 0.0
C669 C 0.5147 0.17328 0.87374 0.0
C670 C 0.56976 0.20404 0.87752 0.0
C671 C 0.59586 0.26036 0.87608 0.0
H672 H 0.2621 0.60964 1.01265 0.0
H673 H 0.17661 0.4524 1.03611 0.0
H674 H 0.26122 0.46356 0.04671 0.0
H675 H 0.37519 0.6022 0.99942 0.0
H676 H 0.42317 0.67094 1.00387 0.0
H677 H 0.3556 0.65191 0.99851 0.0
H678 H 0.34699 0.69337 1.02628 0.0
H679 H 0.41468 0.71289 1.03168 0.0
H680 H 0.36127 0.67251 0.04619 0.0
H681 H 0.3559 0.48905 0.05351 0.0
H682 H 0.45347 0.53058 0.05756 0.0
H683 H 0.47758 0.67207 1.03072 0.0
C684 C 0.26107 0.57786 1.02021 0.0
C685 C 0.21232 0.53014 1.02351 0.0
C686 C 0.21312 0.48941 1.03335 0.0
C687 C 0.26114 0.49526 0.03944 0.0
C688 C 0.30843 0.54224 1.03574 0.0
C689 C 0.30884 0.58311 1.0265 0.0
C690 C 0.36543 0.62933 1.02422 0.0
C691 C 0.38073 0.63915 1.00539 0.0
C692 C 0.37249 0.68002 1.0326 0.0
C693 C 0.39652 0.60788 1.03356 0.0
C694 C 0.36294 0.55742 0.04002 0.0
C695 C 0.3826 0.5288 0.04865 0.0
C696 C 0.43806 0.55257 0.05085 0.0
C697 C 0.47316 0.60464 0.04461 0.0
C698 C 0.45181 0.63242 1.03585 0.0
H699 H 0.78743 0.3853 0.21274 0.0
H700 H 0.94354 0.41598 0.19718 0.0
H701 H 0.90161 0.32722 0.18394 0.0
H702 H 0.73374 0.24766 0.2235 0.0
H703 H 0.66765 0.22678 0.2158 0.0
H704 H 0.70943 0.29371 0.22338 0.0
H705 H 0.69859 0.33167 0.19475 0.0
H706 H 0.65659 0.2647 0.18718 0.0
H707 H 0.71506 0.31105 0.17539 0.0
H708 H 0.84313 0.23651 0.17187 0.0
H709 H 0.77291 0.1461 0.16391 0.0
H710 H 0.65427 0.17075 0.18862 0.0
C711 C 0.81282 0.37342 0.20651 0.0
C712 C 0.86889 0.40777 0.20596 0.0
C713 C 0.90062 0.39045 0.1978 0.0
C714 C 0.87712 0.34017 0.19017 0.0
C715 C 0.82183 0.30744 0.19089 0.0
C716 C 0.79004 0.32307 0.19896 0.0
C717 C 0.73174 0.27933 0.19841 0.0
C718 C 0.70934 0.26077 0.21634 0.0
C719 C 0.69855 0.29782 0.18833 0.0
C720 C 0.73587 0.2363 0.18903 0.0
C721 C 0.78814 0.25392 0.18453 0.0
C722 C 0.80214 0.22218 0.17541 0.0
C723 C 0.76184 0.17085 0.17091 0.0
C724 C 0.70811 0.15119 0.17574 0.0
C725 C 0.69504 0.18452 0.18491 0.0
H726 H 0.28195 0.61399 0.546 0.0
H727 H 0.20561 0.50221 0.50512 0.0
H728 H 0.26667 0.46703 0.50994 0.0
H729 H 0.41688 0.64235 0.5405 0.0
H730 H 0.42884 0.64241 0.56289 0.0
H731 H 0.38207 0.66098 0.55521 0.0
H732 H 0.30998 0.58949 0.57465 0.0
H733 H 0.35494 0.56822 0.58204 0.0
H734 H 0.29231 0.52068 0.57269 0.0
H735 H 0.33793 0.44532 0.51931 0.0
H736 H 0.40418 0.43078 0.53455 0.0
H737 H 0.42903 0.55336 0.57029 0.0
C738 C 0.27855 0.58253 0.53792 0.0
C739 C 0.23973 0.56125 0.525 0.0
C740 C 0.23532 0.51911 0.51502 0.0
C741 C 0.27 0.49917 0.51762 0.0
C742 C 0.30807 0.52121 0.53046 0.0
C743 C 0.31183 0.56141 0.54062 0.0
C744 C 0.35268 0.57513 0.55451 0.0
C745 C 0.3978 0.6337 0.55318 0.0
C746 C 0.32586 0.56265 0.572 0.0
C747 C 0.37235 0.53726 0.55039 0.0
C748 C 0.34657 0.50679 0.5364 0.0
C749 C 0.35819 0.46891 0.5303 0.0
C750 C 0.39616 0.46118 0.53896 0.0
C751 C 0.42152 0.49065 0.55369 0.0
C752 C 0.40983 0.52969 0.55924 0.0
H753 H 0.71732 0.22113 0.67484 0.0
H754 H 0.62244 0.19605 0.71982 0.0
H755 H 0.70236 0.26503 0.73469 0.0
H756 H 0.8355 0.23966 0.69782 0.0
H757 H 0.88134 0.28887 0.68299 0.0
H758 H 0.81656 0.23745 0.67598 0.0
H759 H 0.79775 0.30987 0.66426 0.0
H760 H 0.86218 0.3615 0.67142 0.0
H761 H 0.80282 0.36099 0.67817 0.0
H762 H 0.79083 0.34445 0.74345 0.0
H763 H 0.88454 0.416 0.74732 0.0
H764 H 0.92416 0.38109 0.69816 0.0
C765 C 0.71364 0.22976 0.68788 0.0
C766 C 0.66376 0.20328 0.69619 0.0
C767 C 0.6604 0.2155 0.71327 0.0
C768 C 0.70547 0.25493 0.72178 0.0
C769 C 0.75393 0.28098 0.71316 0.0
C770 C 0.75861 0.26795 0.69674 0.0
C771 C 0.81573 0.30065 0.69059 0.0
C772 C 0.83863 0.2645 0.68662 0.0
C773 C 0.81983 0.3353 0.6752 0.0
C774 C 0.84219 0.33461 0.706 0.0
C775 C 0.80569 0.32337 0.71877 0.0
C776 C 0.82008 0.35237 0.73374 0.0
C777 C 0.8735 0.39279 0.73589 0.0
C778 C 0.9123 0.40251 0.72346 0.0
C779 C 0.8959 0.3736 0.70818 0.0
H780 H 0.63088 0.89993 0.88904 0.0
H781 H 0.51046 0.93226 0.86928 0.0
H782 H 0.4672 0.84535 0.85471 0.0
H783 H 0.6402 0.83028 0.85216 0.0
H784 H 0.64782 0.78255 0.86476 0.0
H785 H 0.67148 0.84879 0.87264 0.0
H786 H 0.614 0.80905 0.89963 0.0
H787 H 0.59049 0.74277 0.8919 0.0
H788 H 0.54341 0.763 0.89758 0.0
H789 H 0.43339 0.75253 0.84416 0.0
H790 H 0.40974 0.65944 0.83901 0.0
H791 H 0.55311 0.68754 0.86496 0.0
C792 C 0.59579 0.88917 0.88147 0.0
C793 C 0.57421 0.9232 0.88023 0.0
C794 C 0.52782 0.90705 0.87039 0.0
C795 C 0.50309 0.85782 0.86202 0.0
C796 C 0.52534 0.82523 0.86357 0.0
C797 C 0.57061 0.8402 0.87307 0.0
C798 C 0.58471 0.79655 0.87351 0.0
C799 C 0.6393 0.8157 0.86528 0.0
C800 C 0.58303 0.77667 0.89174 0.0
C801 C 0.53991 0.75427 0.86291 0.0
C802 C 0.50626 0.77184 0.85725 0.0
C803 C 0.4599 0.73871 0.84828 0.0
C804 C 0.44687 0.68597 0.84538 0.0
C805 C 0.48021 0.66683 0.85127 0.0
C806 C 0.52793 0.70177 0.85984 0.0
H807 H 0.71661 0.53668 0.03782 0.0
H808 H 0.82935 0.66884 0.06868 0.0
H809 H 0.90221 0.6561 0.05859 0.0
H810 H 0.77355 0.45492 0.04606 0.0
H811 H 0.7613 0.42691 1.02517 0.0
H812 H 0.71856 0.449 1.03372 0.0
H813 H 0.73764 0.51082 1.00767 0.0
H814 H 0.7806 0.48901 0.99906 0.0
H815 H 0.80563 0.55909 1.00221 0.0
H816 H 0.96324 0.62803 0.04562 0.0
H817 H 1.00599 0.58229 1.03245 0.0
H818 H 0.85367 0.46595 1.01089 0.0
C819 C 0.75677 0.56338 0.04225 0.0
C820 C 0.76724 0.60416 0.05393 0.0
C821 C 0.82021 0.63742 0.05972 0.0
C822 C 0.86202 0.63064 0.054 0.0
C823 C 0.85043 0.58999 0.04259 0.0
C824 C 0.79903 0.55658 0.03687 0.0
C825 C 0.79693 0.51378 1.02549 0.0
C826 C 0.76043 0.45785 1.03307 0.0
C827 C 0.77915 0.51848 1.00754 0.0
C828 C 0.85502 0.52831 1.02575 0.0
C829 C 0.88533 0.57276 1.03554 0.0
C830 C 0.93988 0.59323 0.03789 0.0
C831 C 0.96393 0.56706 1.03031 0.0
C832 C 0.93343 0.52052 1.02059 0.0
C833 C 0.87832 0.50153 1.01817 0.0
H834 H 0.39905 0.91037 0.21897 0.0
H835 H 0.41981 0.83961 0.17374 0.0
H836 H 0.32961 0.76122 0.17765 0.0
H837 H 0.32724 0.79157 0.2432 0.0
H838 H 0.28228 0.80976 0.25255 0.0
H839 H 0.348 0.86081 0.24612 0.0
H840 H 0.30785 0.90471 0.22718 0.0
H841 H 0.24199 0.85437 0.23384 0.0
H842 H 0.25818 0.86507 0.21165 0.0
H843 H 0.23848 0.68825 0.18733 0.0
H844 H 0.14945 0.63122 0.20007 0.0
H845 H 0.18539 0.75236 0.23762 0.0
C846 C 0.3844 0.8786 0.2098 0.0
C847 C 0.41656 0.88112 0.19605 0.0
C848 C 0.39583 0.83879 0.1843 0.0
C849 C 0.34475 0.79388 0.18649 0.0
C850 C 0.31449 0.79216 0.20036 0.0
C851 C 0.33309 0.8339 0.21161 0.0
C852 C 0.29198 0.8228 0.22519 0.0
C853 C 0.31366 0.82109 0.24281 0.0
C854 C 0.27393 0.86419 0.22441 0.0
C855 C 0.24753 0.76802 0.2199 0.0
C856 C 0.26156 0.75082 0.20566 0.0
C857 C 0.22705 0.70143 0.19846 0.0
C858 C 0.17656 0.66923 0.20582 0.0
C859 C 0.1607 0.68659 0.22017 0.0
C860 C 0.19689 0.73679 0.22718 0.0
H861 H 0.67939 0.39815 0.35718 0.0
H862 H 0.53772 0.41182 0.35963 0.0
H863 H 0.48525 0.31769 0.36913 0.0
H864 H 0.61514 0.26 0.34295 0.0
H865 H 0.65652 0.24434 0.35596 0.0
H866 H 0.6821 0.31142 0.34815 0.0
H867 H 0.70401 0.347 0.3788 0.0
H868 H 0.67844 0.2801 0.38673 0.0
H869 H 0.65172 0.31992 0.39446 0.0
H870 H 0.44953 0.22426 0.37988 0.0
H871 H 0.43275 0.13845 0.39172 0.0
H872 H 0.59775 0.1847 0.38261 0.0
C873 C 0.63712 0.38117 0.35944 0.0
C874 C 0.61252 0.41236 0.35751 0.0
C875 C 0.55737 0.38877 0.36094 0.0
C876 C 0.52725 0.33528 0.3663 0.0
C877 C 0.55287 0.30589 0.36822 0.0
C878 C 0.60658 0.32798 0.36492 0.0
C879 C 0.62511 0.28873 0.36898 0.0
C880 C 0.64594 0.27533 0.35306 0.0
C881 C 0.66735 0.31023 0.38307 0.0
C882 C 0.57341 0.24102 0.37512 0.0
C883 C 0.53228 0.25188 0.37452 0.0
C884 C 0.48133 0.21522 0.38027 0.0
C885 C 0.47227 0.16656 0.38702 0.0
C886 C 0.51383 0.15463 0.38801 0.0
C887 C 0.56495 0.19221 0.38174 0.0
H888 H 0.2126 0.72546 0.48795 0.0
H889 H 0.18526 0.59865 0.45357 0.0
H890 H 0.26247 0.66367 0.4363 0.0
H891 H 0.24179 0.82265 0.45684 0.0
H892 H 0.29121 0.87701 0.46929 0.0
H893 H 0.23781 0.81937 0.4796 0.0
H894 H 0.30665 0.80627 0.49671 0.0
H895 H 0.36038 0.86392 0.4864 0.0
H896 H 0.35764 0.80062 0.48568 0.0
H897 H 0.34167 0.74544 0.42215 0.0
H898 H 0.40893 0.83537 0.4116 0.0
H899 H 0.37953 0.90632 0.45511 0.0
C900 C 0.22307 0.7109 0.47693 0.0
C901 C 0.19299 0.65681 0.47217 0.0
C902 C 0.20781 0.63989 0.45749 0.0
C903 C 0.25172 0.67651 0.44765 0.0
C904 C 0.28019 0.72978 0.45267 0.0
C905 C 0.26608 0.74676 0.46696 0.0
C906 C 0.30004 0.80644 0.46911 0.0
C907 C 0.26566 0.8329 0.46867 0.0
C908 C 0.33314 0.82009 0.48544 0.0
C909 C 0.33506 0.82086 0.45364 0.0
C910 C 0.32389 0.77625 0.44441 0.0
C911 C 0.35079 0.78051 0.42936 0.0
C912 C 0.38911 0.83172 0.42348 0.0
C913 C 0.39935 0.87781 0.4325 0.0
C914 C 0.37249 0.87187 0.4479 0.0
H915 H 0.52981 0.37848 0.63296 0.0
H916 H 0.57384 0.37841 0.58074 0.0
H917 H 0.58823 0.30298 0.58723 0.0
H918 H 0.61809 0.33756 0.6536 0.0
H919 H 0.56651 0.29624 0.66853 0.0
H920 H 0.57027 0.35591 0.66014 0.0
H921 H 0.47236 0.29943 0.65083 0.0
H922 H 0.46742 0.23792 0.65763 0.0
H923 H 0.45335 0.24593 0.63604 0.0
H924 H 0.58558 0.2186 0.5994 0.0
H925 H 0.5626 0.13533 0.61491 0.0
H926 H 0.52051 0.19435 0.6587 0.0
C927 C 0.54423 0.36409 0.6229 0.0
C928 C 0.55016 0.38421 0.60624 0.0
C929 C 0.56797 0.36309 0.59349 0.0
C930 C 0.57687 0.3206 0.59716 0.0
C931 C 0.56833 0.30029 0.61369 0.0
C932 C 0.55275 0.32195 0.62633 0.0
C933 C 0.53862 0.28929 0.64243 0.0
C934 C 0.57561 0.3217 0.65704 0.0
C935 C 0.4795 0.2669 0.647 0.0
C936 C 0.54857 0.24553 0.63702 0.0
C937 C 0.56605 0.25234 0.62047 0.0
C938 C 0.57277 0.2136 0.61244 0.0
C939 C 0.55964 0.16633 0.6214 0.0
C940 C 0.53935 0.15791 0.63816 0.0
C941 C 0.53593 0.1992 0.64608 0.0
H942 H 0.34395 0.47816 0.78386 0.0
H943 H 0.34811 0.55559 0.83081 0.0
H944 H 0.28189 0.57674 0.81957 0.0
H945 H 0.31561 0.56289 0.7546 0.0
H946 H 0.26928 0.50644 0.74221 0.0
H947 H 0.32481 0.50638 0.75242 0.0
H948 H 0.25992 0.41729 0.76761 0.0
H949 H 0.2046 0.41695 0.75727 0.0
H950 H 0.20589 0.41278 0.78001 0.0
H951 H 0.21056 0.58316 0.80454 0.0
H952 H 0.12898 0.56197 0.78884 0.0
H953 H 0.1643 0.47366 0.75234 0.0
C954 C 0.3318 0.50076 0.79156 0.0
C955 C 0.35206 0.51636 0.80811 0.0
C956 C 0.33379 0.54397 0.81808 0.0
C957 C 0.2964 0.55651 0.81172 0.0
C958 C 0.27688 0.54035 0.79543 0.0
C959 C 0.29323 0.51229 0.78555 0.0
C960 C 0.26001 0.49257 0.76955 0.0
C961 C 0.2945 0.51864 0.75376 0.0
C962 C 0.23087 0.43128 0.76857 0.0
C963 C 0.22135 0.51238 0.77231 0.0
C964 C 0.23303 0.54133 0.78705 0.0
C965 C 0.20125 0.56097 0.79289 0.0
C966 C 0.15494 0.54872 0.78387 0.0
C967 C 0.14022 0.51624 0.76933 0.0
C968 C 0.17497 0.49951 0.76317 0.0
H969 H 0.76991 0.16888 0.94845 0.0
H970 H 0.7282 0.24896 0.91 0.0
H971 H 0.80217 0.33611 0.91961 0.0
H972 H 0.80761 0.27037 0.98096 0.0
H973 H 0.86098 0.26153 0.98872 0.0
H974 H 0.80292 0.2063 0.97935 0.0
H975 H 0.86322 0.19405 0.95805 0.0
H976 H 0.92139 0.24923 0.96732 0.0
H977 H 0.90895 0.24971 0.945 0.0
H978 H 0.88687 0.41594 0.93287 0.0
H979 H 0.96875 0.47758 0.94896 0.0
H980 H 0.95146 0.34279 0.97831 0.0
C981 C 0.77571 0.20464 0.94212 0.0
C982 C 0.74283 0.20163 0.92843 0.0
C983 C 0.75235 0.24985 0.92059 0.0
C984 C 0.79454 0.29971 0.92593 0.0
C985 C 0.82679 0.30104 0.93927 0.0
C986 C 0.81726 0.25457 0.94734 0.0
C987 C 0.8578 0.26606 0.96114 0.0
C988 C 0.83069 0.25012 0.97857 0.0
C989 C 0.88972 0.23811 0.95765 0.0
C990 C 0.89243 0.32606 0.95937 0.0
C991 C 0.87416 0.34597 0.94679 0.0
C992 C 0.90115 0.40057 0.94283 0.0
C993 C 0.94774 0.43537 0.95199 0.0
C994 C 0.96693 0.41541 0.96493 0.0
C995 C 0.93832 0.35992 0.96856 0.0
H996 H 0.59492 0.92655 0.10991 0.0
H997 H 0.55038 0.85987 0.1605 0.0
H998 H 0.54387 0.77622 0.15066 0.0
H999 H 0.51481 0.79939 0.08594 0.0
H1000 H 0.56705 0.81897 0.07052 0.0
H1001 H 0.5579 0.86895 0.08072 0.0
H1002 H 0.65662 0.91736 0.09035 0.0
H1003 H 0.66593 0.86733 0.08041 0.0
H1004 H 0.68072 0.88117 0.10256 0.0
H1005 H 0.55243 0.7046 0.13616 0.0
H1006 H 0.57668 0.65086 0.1184 0.0
H1007 H 0.62024 0.76659 0.07758 0.0
C1008 C 0.5817 0.89359 0.11877 0.0
C1009 C 0.57214 0.89916 0.13592 0.0
C1010 C 0.55717 0.85597 0.14728 0.0
C1011 C 0.55335 0.80839 0.14179 0.0
C1012 C 0.56492 0.80487 0.12492 0.0
C1013 C 0.5786 0.84627 0.11355 0.0
C1014 C 0.59526 0.83505 0.09668 0.0
C1015 C 0.55642 0.83029 0.08264 0.0
C1016 C 0.65305 0.87776 0.09226 0.0
C1017 C 0.59043 0.78165 0.10048 0.0
C1018 C 0.57189 0.76446 0.11672 0.0
C1019 C 0.56632 0.71733 0.12335 0.0
C1020 C 0.58031 0.68713 0.11316 0.0
C1021 C 0.6004 0.70454 0.09659 0.0
C1022 C 0.60497 0.75221 0.09018 0.0
H1023 H 0.79119 0.60268 0.32321 0.0
H1024 H 0.67147 0.5189 0.28467 0.0
H1025 H 0.73435 0.50002 0.26952 0.0
H1026 H 0.89519 0.66939 0.29587 0.0
H1027 H 0.94473 0.66744 0.30914 0.0
H1028 H 0.88736 0.66488 0.31853 0.0
H1029 H 0.86348 0.5764 0.33391 0.0
H1030 H 0.92133 0.57894 0.32473 0.0
H1031 H 0.8563 0.52081 0.32187 0.0
H1032 H 0.81542 0.49848 0.2571 0.0
H1033 H 0.90571 0.51719 0.24874 0.0
H1034 H 0.97083 0.60834 0.29451 0.0
C1035 C 0.77733 0.57885 0.31188 0.0
C1036 C 0.72618 0.56206 0.3052 0.0
C1037 C 0.71038 0.53198 0.2901 0.0
C1038 C 0.74585 0.52102 0.2814 0.0
C1039 C 0.79694 0.54035 0.28798 0.0
C1040 C 0.81236 0.56841 0.30297 0.0
C1041 C 0.87087 0.59024 0.30653 0.0
C1042 C 0.90129 0.6516 0.30756 0.0
C1043 C 0.87842 0.56508 0.32272 0.0
C1044 C 0.88653 0.57155 0.29098 0.0
C1045 C 0.84343 0.5419 0.28053 0.0
C1046 C 0.84935 0.52184 0.26521 0.0
C1047 C 0.90075 0.5332 0.26041 0.0
C1048 C 0.94551 0.56572 0.27061 0.0
C1049 C 0.93766 0.58385 0.28625 0.0
H1050 H 0.8321 0.4296 0.45301 0.0
H1051 H 0.91548 0.35446 0.47447 0.0
H1052 H 0.84254 0.26622 0.46462 0.0
H1053 H 0.70259 0.33068 0.46383 0.0
H1054 H 0.67322 0.33791 0.44461 0.0
H1055 H 0.73323 0.39376 0.4527 0.0
H1056 H 0.78148 0.40338 0.42413 0.0
H1057 H 0.72083 0.34814 0.4161 0.0
H1058 H 0.78178 0.34626 0.41558 0.0
H1059 H 0.75406 0.18458 0.45394 0.0
H1060 H 0.66261 0.12074 0.44372 0.0
H1061 H 0.64393 0.25393 0.42825 0.0
C1062 C 0.83534 0.39471 0.45565 0.0
C1063 C 0.87919 0.39874 0.46464 0.0
C1064 C 0.8821 0.35215 0.4676 0.0
C1065 C 0.8409 0.30199 0.46203 0.0
C1066 C 0.79784 0.29953 0.45326 0.0
C1067 C 0.79542 0.34506 0.45 0.0
C1068 C 0.74513 0.33281 0.44071 0.0
C1069 C 0.71158 0.34977 0.45109 0.0
C1070 C 0.75814 0.3592 0.42308 0.0
C1071 C 0.71843 0.27287 0.43956 0.0
C1072 C 0.74912 0.25396 0.44678 0.0
C1073 C 0.73019 0.1992 0.44806 0.0
C1074 C 0.67829 0.16319 0.44218 0.0
C1075 C 0.6461 0.18225 0.43516 0.0
C1076 C 0.6674 0.23783 0.43348 0.0
H1077 H 0.38444 0.78871 0.62797 0.0
H1078 H 0.52579 0.87939 0.65864 0.0
H1079 H 0.55634 0.81626 0.65113 0.0
H1080 H 0.36103 0.65883 0.63682 0.0
H1081 H 0.34051 0.63609 0.61551 0.0
H1082 H 0.33114 0.68805 0.62388 0.0
H1083 H 0.38602 0.7503 0.59853 0.0
H1084 H 0.39375 0.69703 0.59039 0.0
H1085 H 0.4516 0.76149 0.59433 0.0
H1086 H 0.56896 0.73915 0.64022 0.0
H1087 H 0.56117 0.65744 0.62762 0.0
H1088 H 0.41399 0.62478 0.60321 0.0
C1089 C 0.42154 0.79509 0.63332 0.0
C1090 C 0.45236 0.83836 0.64413 0.0
C1091 C 0.50137 0.84606 0.65046 0.0
C1092 C 0.51906 0.81058 0.6462 0.0
C1093 C 0.48773 0.76847 0.63532 0.0
C1094 C 0.44016 0.7611 0.62891 0.0
C1095 C 0.41395 0.71397 0.61721 0.0
C1096 C 0.3584 0.67175 0.62375 0.0
C1097 C 0.41117 0.73174 0.59904 0.0
C1098 C 0.45308 0.69459 0.61842 0.0
C1099 C 0.49574 0.72638 0.62877 0.0
C1100 C 0.53585 0.71436 0.63199 0.0
C1101 C 0.53131 0.6681 0.62472 0.0
C1102 C 0.48702 0.63475 0.61439 0.0
C1103 C 0.44842 0.64928 0.61099 0.0
H1104 H 0.63196 0.4196 0.81531 0.0
H1105 H 0.6424 0.56533 0.79657 0.0
H1106 H 0.73399 0.59666 0.78636 0.0
H1107 H 0.77443 0.48054 0.82808 0.0
H1108 H 0.77734 0.42286 0.82149 0.0
H1109 H 0.71573 0.41516 0.82927 0.0
H1110 H 0.6677 0.36681 0.80186 0.0
H1111 H 0.72884 0.37414 0.79386 0.0
H1112 H 0.69342 0.39915 0.78171 0.0
H1113 H 0.81958 0.60567 0.77457 0.0
H1114 H 0.89368 0.59443 0.76431 0.0
H1115 H 0.82682 0.44379 0.79157 0.0
C1116 C 0.65398 0.45872 0.80944 0.0
C1117 C 0.63008 0.49006 0.80674 0.0
C1118 C 0.66009 0.54085 0.79891 0.0
C1119 C 0.71209 0.55889 0.79302 0.0
C1120 C 0.73375 0.52603 0.79531 0.0
C1121 C 0.70589 0.47742 0.80363 0.0
C1122 C 0.73649 0.44806 0.80362 0.0
C1123 C 0.75193 0.4413 0.82169 0.0
C1124 C 0.70471 0.39386 0.79473 0.0
C1125 C 0.78505 0.48677 0.79347 0.0
C1126 C 0.7831 0.5317 0.78885 0.0
C1127 C 0.82199 0.57112 0.77841 0.0
C1128 C 0.86381 0.56433 0.77259 0.0
C1129 C 0.86642 0.51853 0.77726 0.0
C1130 C 0.82663 0.47974 0.78798 0.0
H1131 H 0.45573 0.83177 0.92256 0.0
H1132 H 0.48453 0.97498 0.94834 0.0
H1133 H 0.39694 0.92312 0.96266 0.0
H1134 H 0.31055 0.77283 0.91678 0.0
H1135 H 0.29766 0.70599 0.92043 0.0
H1136 H 0.35998 0.75566 0.91116 0.0
H1137 H 0.41085 0.73755 0.93472 0.0
H1138 H 0.34899 0.6887 0.94434 0.0
H1139 H 0.39775 0.74416 0.95655 0.0
H1140 H 0.31145 0.85209 0.9771 0.0
H1141 H 0.23312 0.77035 0.98857 0.0
H1142 H 0.25779 0.67515 0.95194 0.0
C1143 C 0.44325 0.85261 0.93095 0.0
C1144 C 0.4771 0.90766 0.93428 0.0
C1145 C 0.45922 0.93309 0.94545 0.0
C1146 C 0.40956 0.90382 0.95369 0.0
C1147 C 0.37781 0.84929 0.95044 0.0
C1148 C 0.39373 0.82416 0.93912 0.0
C1149 C 0.35366 0.76478 0.93835 0.0
C1150 C 0.32899 0.7489 0.92063 0.0
C1151 C 0.37937 0.7319 0.94381 0.0
C1152 C 0.31294 0.76007 0.9512 0.0
C1153 C 0.32767 0.80915 0.95814 0.0
C1154 C 0.29892 0.81378 0.97144 0.0
C1155 C 0.25447 0.76719 0.97788 0.0
C1156 C 0.23848 0.71668 0.97083 0.0
C1157 C 0.26783 0.71344 0.95716 0.0
H1158 H 0.71954 0.28344 0.13796 0.0
H1159 H 0.5599 0.16599 0.12171 0.0
H1160 H 0.54736 0.23869 0.11037 0.0
H1161 H 0.69166 0.38784 0.14946 0.0
H1162 H 0.75504 0.44017 0.14159 0.0
H1163 H 0.74884 0.37924 0.14976 0.0
H1164 H 0.78555 0.36586 0.12165 0.0
H1165 H 0.79165 0.42645 0.11323 0.0
H1166 H 0.75315 0.36466 0.10204 0.0
H1167 H 0.55541 0.32561 0.09925 0.0
H1168 H 0.58211 0.41801 0.09045 0.0
H1169 H 0.73773 0.47497 0.11312 0.0
C1170 C 0.68151 0.27281 0.13227 0.0
C1171 C 0.64065 0.21905 0.13072 0.0
C1172 C 0.59166 0.207 0.12311 0.0
C1173 C 0.58427 0.248 0.11659 0.0
C1174 C 0.62626 0.30058 0.11781 0.0
C1175 C 0.67375 0.31291 0.1256 0.0
C1176 C 0.71384 0.37192 0.12464 0.0
C1177 C 0.72815 0.39622 0.14242 0.0
C1178 C 0.76398 0.38282 0.1148 0.0
C1179 C 0.68185 0.39107 0.1149 0.0
C1180 C 0.63129 0.34965 0.11114 0.0
C1181 C 0.59487 0.35831 0.10218 0.0
C1182 C 0.61042 0.4108 0.09717 0.0
C1183 C 0.66205 0.45361 0.10101 0.0
C1184 C 0.69809 0.44317 0.10985 0.0
H1185 H 0.51309 0.7216 0.28671 0.0
H1186 H 0.44723 0.56512 0.31007 0.0
H1187 H 0.35665 0.54303 0.30071 0.0
H1188 H 0.40851 0.74526 0.29679 0.0
H1189 H 0.41254 0.77814 0.27695 0.0
H1190 H 0.4709 0.78007 0.28549 0.0
H1191 H 0.48219 0.74043 0.25767 0.0
H1192 H 0.42346 0.73784 0.24909 0.0
H1193 H 0.42784 0.67821 0.25006 0.0
H1194 H 0.272 0.541 0.28945 0.0
H1195 H 0.20342 0.55927 0.2778 0.0
H1196 H 0.32858 0.71538 0.26087 0.0
C1197 C 0.4797 0.68269 0.28999 0.0
C1198 C 0.48711 0.64523 0.2993 0.0
C1199 C 0.44236 0.59449 0.30302 0.0
C1200 C 0.39088 0.58162 0.29771 0.0
C1201 C 0.38514 0.61963 0.28846 0.0
C1202 C 0.42864 0.66903 0.28458 0.0
C1203 C 0.41271 0.70317 0.27449 0.0
C1204 C 0.42699 0.75468 0.284 0.0
C1205 C 0.43805 0.71562 0.25678 0.0
C1206 C 0.3531 0.66594 0.2736 0.0
C1207 C 0.33763 0.6178 0.28163 0.0
C1208 C 0.28389 0.57838 0.28299 0.0
C1209 C 0.24519 0.58901 0.27629 0.0
C1210 C 0.26052 0.63864 0.26834 0.0
C1211 C 0.31531 0.67684 0.26673 0.0
loop_
_geom_bond_atom_site_label_1
_geom_bond_atom_site_label_2
_geom_bond_distance
_geom_bond_site_symmetry_2
_ccdc_geom_bond_type
O0 Tb1 2.506 . S
O0 C14 1.265 . S
Tb1 O0 2.506 . S
Tb1 O6 2.312 1_545 S
Tb1 O10 2.271 . S
Tb1 O12 2.338 . S
Tb1 O19 2.441 . S
C2 O10 1.252 . S
C2 O11 1.253 . S
O3 Tb4 2.271 . S
O3 C13 1.252 . S
Tb4 O3 2.271 . S
Tb4 O7 2.338 . S
Tb4 O11 2.312 1_565 S
Tb4 O15 2.441 . S
Tb4 O16 2.506 . S
C5 O15 1.244 . S
C5 O16 1.265 . S
O6 Tb1 2.312 1_565 S
O6 C13 1.253 . S
O7 Tb4 2.338 . S
O7 C8 1.258 . S
C8 O7 1.258 . S
C8 O9 1.251 . S
O9 C8 1.251 . S
O10 Tb1 2.271 . S
O10 C2 1.252 . S
O11 C2 1.253 . S
O11 Tb4 2.312 1_545 S
O12 Tb1 2.338 . S
O12 C17 1.258 . S
C13 O3 1.252 . S
C13 O6 1.253 . S
C14 O0 1.265 . S
C14 O19 1.244 . S
O15 Tb4 2.441 . S
O15 C5 1.244 . S
O16 Tb4 2.506 . S
O16 C5 1.265 . S
C17 O12 1.258 . S
C17 O18 1.251 . S
O18 C17 1.251 . S
O19 Tb1 2.441 . S
O19 C14 1.244 . S
O20 Tb21 2.506 . S
O20 C34 1.265 . S
Tb21 O20 2.506 . S
Tb21 O26 2.312 . S
Tb21 O30 2.271 . S
Tb21 O32 2.338 . S
Tb21 O39 2.441 . S
C22 O30 1.252 . S
C22 O31 1.253 . S
O23 Tb24 2.271 . S
O23 C33 1.252 . S
Tb24 O23 2.271 . S
Tb24 O27 2.338 . S
Tb24 O31 2.312 . S
Tb24 O35 2.441 . S
Tb24 O36 2.506 . S
C25 O35 1.244 . S
C25 O36 1.265 . S
O26 Tb21 2.312 . S
O26 C33 1.253 . S
O27 Tb24 2.338 . S
O27 C28 1.258 . S
C28 O27 1.258 . S
C28 O29 1.251 . S
O29 C28 1.251 . S
O30 Tb21 2.271 . S
O30 C22 1.252 . S
O31 C22 1.253 . S
O31 Tb24 2.312 . S
O32 Tb21 2.338 . S
O32 C37 1.258 . S
C33 O23 1.252 . S
C33 O26 1.253 . S
C34 O20 1.265 . S
C34 O39 1.244 . S
O35 Tb24 2.441 . S
O35 C25 1.244 . S
O36 Tb24 2.506 . S
O36 C25 1.265 . S
C37 O32 1.258 . S
C37 O38 1.251 . S
O38 C37 1.251 . S
O39 Tb21 2.441 . S
O39 C34 1.244 . S
O40 Tb41 2.506 . S
O40 C54 1.265 . S
Tb41 O40 2.506 . S
Tb41 O46 2.312 1_655 S
Tb41 O50 2.271 . S
Tb41 O52 2.338 . S
Tb41 O59 2.441 . S
C42 O50 1.252 . S
C42 O51 1.253 . S
O43 Tb44 2.271 . S
O43 C53 1.252 . S
Tb44 O43 2.271 . S
Tb44 O47 2.338 . S
Tb44 O51 2.312 1_455 S
Tb44 O55 2.441 . S
Tb44 O56 2.506 . S
C45 O55 1.244 . S
C45 O56 1.265 . S
O46 Tb41 2.312 1_455 S
O46 C53 1.253 . S
O47 Tb44 2.338 . S
O47 C48 1.258 . S
C48 O47 1.258 . S
C48 O49 1.251 . S
O49 C48 1.251 . S
O50 Tb41 2.271 . S
O50 C42 1.252 . S
O51 C42 1.253 . S
O51 Tb44 2.312 1_655 S
O52 Tb41 2.338 . S
O52 C57 1.258 . S
C53 O43 1.252 . S
C53 O46 1.253 . S
C54 O40 1.265 . S
C54 O59 1.244 . S
O55 Tb44 2.441 . S
O55 C45 1.244 . S
O56 Tb44 2.506 . S
O56 C45 1.265 . S
C57 O52 1.258 . S
C57 O58 1.251 . S
O58 C57 1.251 . S
O59 Tb41 2.441 . S
O59 C54 1.244 . S
O60 Tb61 2.506 . S
O60 C74 1.265 . S
Tb61 O60 2.506 . S
Tb61 O66 2.312 1_545 S
Tb61 O70 2.271 . S
Tb61 O72 2.338 . S
Tb61 O79 2.441 . S
C62 O70 1.252 . S
C62 O71 1.253 . S
O63 Tb64 2.271 . S
O63 C73 1.252 . S
Tb64 O63 2.271 . S
Tb64 O67 2.338 . S
Tb64 O71 2.312 1_565 S
Tb64 O75 2.441 . S
Tb64 O76 2.506 . S
C65 O75 1.244 . S
C65 O76 1.265 . S
O66 Tb61 2.312 1_565 S
O66 C73 1.253 . S
O67 Tb64 2.338 . S
O67 C68 1.258 . S
C68 O67 1.258 . S
C68 O69 1.251 . S
O69 C68 1.251 . S
O70 Tb61 2.271 . S
O70 C62 1.252 . S
O71 C62 1.253 . S
O71 Tb64 2.312 1_545 S
O72 Tb61 2.338 . S
O72 C77 1.258 . S
C73 O63 1.252 . S
C73 O66 1.253 . S
C74 O60 1.265 . S
C74 O79 1.244 . S
O75 Tb64 2.441 . S
O75 C65 1.244 . S
O76 Tb64 2.506 . S
O76 C65 1.265 . S
C77 O72 1.258 . S
C77 O78 1.251 . S
O78 C77 1.251 . S
O79 Tb61 2.441 . S
O79 C74 1.244 . S
O80 Tb81 2.506 . S
O80 C94 1.265 . S
Tb81 O80 2.506 . S
Tb81 O86 2.312 . S
Tb81 O90 2.271 . S
Tb81 O92 2.338 . S
Tb81 O99 2.441 . S
C82 O90 1.252 . S
C82 O91 1.253 . S
O83 Tb84 2.271 . S
O83 C93 1.252 . S
Tb84 O83 2.271 . S
Tb84 O87 2.338 . S
Tb84 O91 2.312 . S
Tb84 O95 2.441 . S
Tb84 O96 2.506 1_554 S
C85 O95 1.244 1_556 S
C85 O96 1.265 . S
O86 Tb81 2.312 . S
O86 C93 1.253 . S
O87 Tb84 2.338 . S
O87 C88 1.258 . S
C88 O87 1.258 . S
C88 O89 1.251 . S
O89 C88 1.251 . S
O90 Tb81 2.271 . S
O90 C82 1.252 . S
O91 C82 1.253 . S
O91 Tb84 2.312 . S
O92 Tb81 2.338 . S
O92 C97 1.258 . S
C93 O83 1.252 . S
C93 O86 1.253 . S
C94 O80 1.265 . S
C94 O99 1.244 . S
O95 Tb84 2.441 . S
O95 C85 1.244 1_554 S
O96 Tb84 2.506 1_556 S
O96 C85 1.265 . S
C97 O92 1.258 . S
C97 O98 1.251 . S
O98 C97 1.251 . S
O99 Tb81 2.441 . S
O99 C94 1.244 . S
O100 Tb101 2.506 . S
O100 C114 1.265 . S
Tb101 O100 2.506 . S
Tb101 O106 2.312 1_655 S
Tb101 O110 2.271 . S
Tb101 O112 2.338 . S
Tb101 O119 2.441 . S
C102 O110 1.252 . S
C102 O111 1.253 . S
O103 Tb104 2.271 . S
O103 C113 1.252 . S
Tb104 O103 2.271 . S
Tb104 O107 2.338 . S
Tb104 O111 2.312 1_455 S
Tb104 O115 2.441 . S
Tb104 O116 2.506 . S
C105 O115 1.244 . S
C105 O116 1.265 . S
O106 Tb101 2.312 1_455 S
O106 C113 1.253 . S
O107 Tb104 2.338 . S
O107 C108 1.258 . S
C108 O107 1.258 . S
C108 O109 1.251 . S
O109 C108 1.251 . S
O110 Tb101 2.271 . S
O110 C102 1.252 . S
O111 C102 1.253 . S
O111 Tb104 2.312 1_655 S
O112 Tb101 2.338 . S
O112 C117 1.258 . S
C113 O103 1.252 . S
C113 O106 1.253 . S
C114 O100 1.265 . S
C114 O119 1.244 . S
O115 Tb104 2.441 . S
O115 C105 1.244 . S
O116 Tb104 2.506 . S
O116 C105 1.265 . S
C117 O112 1.258 . S
C117 O118 1.251 . S
O118 C117 1.251 . S
O119 Tb101 2.441 . S
O119 C114 1.244 . S
O120 Tb121 2.506 . S
O120 C134 1.265 . S
Tb121 O120 2.506 . S
Tb121 O126 2.312 1_655 S
Tb121 O130 2.271 . S
Tb121 O132 2.338 . S
Tb121 O139 2.441 . S
C122 O130 1.252 . S
C122 O131 1.253 . S
O123 Tb124 2.271 . S
O123 C133 1.252 . S
Tb124 O123 2.271 . S
Tb124 O127 2.338 . S
Tb124 O131 2.312 1_455 S
Tb124 O135 2.441 . S
Tb124 O136 2.506 . S
C125 O135 1.244 . S
C125 O136 1.265 . S
O126 Tb121 2.312 1_455 S
O126 C133 1.253 . S
O127 Tb124 2.338 . S
O127 C128 1.258 . S
C128 O127 1.258 . S
C128 O129 1.251 . S
O129 C128 1.251 . S
O130 Tb121 2.271 . S
O130 C122 1.252 . S
O131 C122 1.253 . S
O131 Tb124 2.312 1_655 S
O132 Tb121 2.338 . S
O132 C137 1.258 . S
C133 O123 1.252 . S
C133 O126 1.253 . S
C134 O120 1.265 . S
C134 O139 1.244 . S
O135 Tb124 2.441 . S
O135 C125 1.244 . S
O136 Tb124 2.506 . S
O136 C125 1.265 . S
C137 O132 1.258 . S
C137 O138 1.251 . S
O138 C137 1.251 . S
O139 Tb121 2.441 . S
O139 C134 1.244 . S
O140 Tb141 2.506 . S
O140 C154 1.265 . S
Tb141 O140 2.506 . S
Tb141 O146 2.312 1_545 S
Tb141 O150 2.271 . S
Tb141 O152 2.338 . S
Tb141 O159 2.441 . S
C142 O150 1.252 . S
C142 O151 1.253 . S
O143 Tb144 2.271 . S
O143 C153 1.252 . S
Tb144 O143 2.271 . S
Tb144 O147 2.338 . S
Tb144 O151 2.312 1_565 S
Tb144 O155 2.441 . S
Tb144 O156 2.506 . S
C145 O155 1.244 . S
C145 O156 1.265 . S
O146 Tb141 2.312 1_565 S
O146 C153 1.253 . S
O147 Tb144 2.338 . S
O147 C148 1.258 . S
C148 O147 1.258 . S
C148 O149 1.251 . S
O149 C148 1.251 . S
O150 Tb141 2.271 . S
O150 C142 1.252 . S
O151 C142 1.253 . S
O151 Tb144 2.312 1_545 S
O152 Tb141 2.338 . S
O152 C157 1.258 . S
C153 O143 1.252 . S
C153 O146 1.253 . S
C154 O140 1.265 . S
C154 O159 1.244 . S
O155 Tb144 2.441 . S
O155 C145 1.244 . S
O156 Tb144 2.506 . S
O156 C145 1.265 . S
C157 O152 1.258 . S
C157 O158 1.251 . S
O158 C157 1.251 . S
O159 Tb141 2.441 . S
O159 C154 1.244 . S
O160 Tb161 2.506 . S
O160 C174 1.265 . S
Tb161 O160 2.506 . S
Tb161 O166 2.312 . S
Tb161 O170 2.271 . S
Tb161 O172 2.338 . S
Tb161 O179 2.441 . S
C162 O170 1.252 . S
C162 O171 1.253 . S
O163 Tb164 2.271 . S
O163 C173 1.252 . S
Tb164 O163 2.271 . S
Tb164 O167 2.338 . S
Tb164 O171 2.312 . S
Tb164 O175 2.441 . S
Tb164 O176 2.506 . S
C165 O175 1.244 . S
C165 O176 1.265 . S
O166 Tb161 2.312 . S
O166 C173 1.253 . S
O167 Tb164 2.338 . S
O167 C168 1.258 . S
C168 O167 1.258 . S
C168 O169 1.251 . S
O169 C168 1.251 . S
O170 Tb161 2.271 . S
O170 C162 1.252 . S
O171 C162 1.253 . S
O171 Tb164 2.312 . S
O172 Tb161 2.338 . S
O172 C177 1.258 . S
C173 O163 1.252 . S
C173 O166 1.253 . S
C174 O160 1.265 . S
C174 O179 1.244 . S
O175 Tb164 2.441 . S
O175 C165 1.244 . S
O176 Tb164 2.506 . S
O176 C165 1.265 . S
C177 O172 1.258 . S
C177 O178 1.251 . S
O178 C177 1.251 . S
O179 Tb161 2.441 . S
O179 C174 1.244 . S
O180 Tb181 2.506 1_554 S
O180 C194 1.265 . S
Tb181 O180 2.506 1_556 S
Tb181 O186 2.312 1_655 S
Tb181 O190 2.271 . S
Tb181 O192 2.338 . S
Tb181 O199 2.441 . S
C182 O190 1.252 . S
C182 O191 1.253 . S
O183 Tb184 2.271 . S
O183 C193 1.252 . S
Tb184 O183 2.271 . S
Tb184 O187 2.338 . S
Tb184 O191 2.312 1_455 S
Tb184 O195 2.441 . S
Tb184 O196 2.506 . S
C185 O195 1.244 . S
C185 O196 1.265 . S
O186 Tb181 2.312 1_455 S
O186 C193 1.253 . S
O187 Tb184 2.338 . S
O187 C188 1.258 . S
C188 O187 1.258 . S
C188 O189 1.251 . S
O189 C188 1.251 . S
O190 Tb181 2.271 . S
O190 C182 1.252 . S
O191 C182 1.253 . S
O191 Tb184 2.312 1_655 S
O192 Tb181 2.338 . S
O192 C197 1.258 . S
C193 O183 1.252 . S
C193 O186 1.253 . S
C194 O180 1.265 . S
C194 O199 1.244 1_554 S
O195 Tb184 2.441 . S
O195 C185 1.244 . S
O196 Tb184 2.506 . S
O196 C185 1.265 . S
C197 O192 1.258 . S
C197 O198 1.251 . S
O198 C197 1.251 . S
O199 Tb181 2.441 . S
O199 C194 1.244 1_556 S
O200 Tb201 2.506 . S
O200 C214 1.265 . S
Tb201 O200 2.506 . S
Tb201 O206 2.312 1_545 S
Tb201 O210 2.271 . S
Tb201 O212 2.338 . S
Tb201 O219 2.441 . S
C202 O210 1.252 . S
C202 O211 1.253 . S
O203 Tb204 2.271 . S
O203 C213 1.252 . S
Tb204 O203 2.271 . S
Tb204 O207 2.338 . S
Tb204 O211 2.312 1_565 S
Tb204 O215 2.441 . S
Tb204 O216 2.506 . S
C205 O215 1.244 . S
C205 O216 1.265 . S
O206 Tb201 2.312 1_565 S
O206 C213 1.253 . S
O207 Tb204 2.338 . S
O207 C208 1.258 . S
C208 O207 1.258 . S
C208 O209 1.251 . S
O209 C208 1.251 . S
O210 Tb201 2.271 . S
O210 C202 1.252 . S
O211 C202 1.253 . S
O211 Tb204 2.312 1_545 S
O212 Tb201 2.338 . S
O212 C217 1.258 . S
C213 O203 1.252 . S
C213 O206 1.253 . S
C214 O200 1.265 . S
C214 O219 1.244 . S
O215 Tb204 2.441 . S
O215 C205 1.244 . S
O216 Tb204 2.506 . S
O216 C205 1.265 . S
C217 O212 1.258 . S
C217 O218 1.251 . S
O218 C217 1.251 . S
O219 Tb201 2.441 . S
O219 C214 1.244 . S
O220 Tb221 2.506 . S
O220 C234 1.265 . S
Tb221 O220 2.506 . S
Tb221 O226 2.312 . S
Tb221 O230 2.271 . S
Tb221 O232 2.338 . S
Tb221 O239 2.441 . S
C222 O230 1.252 . S
C222 O231 1.253 . S
O223 Tb224 2.271 . S
O223 C233 1.252 . S
Tb224 O223 2.271 . S
Tb224 O227 2.338 . S
Tb224 O231 2.312 . S
Tb224 O235 2.441 . S
Tb224 O236 2.506 . S
C225 O235 1.244 . S
C225 O236 1.265 . S
O226 Tb221 2.312 . S
O226 C233 1.253 . S
O227 Tb224 2.338 . S
O227 C228 1.258 . S
C228 O227 1.258 . S
C228 O229 1.251 . S
O229 C228 1.251 . S
O230 Tb221 2.271 . S
O230 C222 1.252 . S
O231 C222 1.253 . S
O231 Tb224 2.312 . S
O232 Tb221 2.338 . S
O232 C237 1.258 . S
C233 O223 1.252 . S
C233 O226 1.253 . S
C234 O220 1.265 . S
C234 O239 1.244 . S
O235 Tb224 2.441 . S
O235 C225 1.244 . S
O236 Tb224 2.506 . S
O236 C225 1.265 . S
C237 O232 1.258 . S
C237 O238 1.251 . S
O238 C237 1.251 . S
O239 Tb221 2.441 . S
O239 C234 1.244 . S
H240 C252 0.930 . S
H241 C254 0.930 . S
H242 C255 0.930 . S
H243 C259 0.959 . S
H244 C259 0.959 . S
H245 C259 0.961 . S
H246 C260 0.960 . S
H247 C260 0.961 . S
H248 C260 0.959 . S
H249 C263 0.929 . S
H250 C264 0.931 . S
H251 C266 0.930 . S
C252 H240 0.930 . S
C252 C253 1.399 . S
C252 C257 1.399 . S
C253 C252 1.399 . S
C253 C254 1.376 . S
C254 H241 0.930 . S
C254 C253 1.376 . S
C254 C255 1.388 . S
C255 H242 0.930 . S
C255 C254 1.388 . S
C255 C256 1.390 . S
C256 C255 1.390 . S
C256 C257 1.394 . S
C256 C262 1.465 . S
C257 C252 1.399 . S
C257 C256 1.394 . S
C257 C258 1.516 . S
C258 C257 1.516 . S
C258 C259 1.502 . S
C258 C260 1.561 . S
C258 C261 1.526 . S
C259 H243 0.959 . S
C259 H244 0.959 . S
C259 H245 0.961 . S
C259 C258 1.502 . S
C260 H246 0.960 . S
C260 H247 0.961 . S
C260 H248 0.959 . S
C260 C258 1.561 . S
C261 C258 1.526 . S
C261 C262 1.396 . S
C261 C266 1.390 . S
C262 C256 1.465 . S
C262 C261 1.396 . S
C262 C263 1.399 . S
C263 H249 0.929 . S
C263 C262 1.399 . S
C263 C264 1.385 . S
C264 H250 0.931 . S
C264 C263 1.385 . S
C264 C265 1.389 . S
C265 C264 1.389 . S
C265 C266 1.387 . S
C266 H251 0.930 . S
C266 C261 1.390 . S
C266 C265 1.387 . S
H267 C279 0.930 . S
H268 C281 0.930 . S
H269 C282 0.930 . S
H270 C286 0.959 . S
H271 C286 0.959 . S
H272 C286 0.961 . S
H273 C287 0.960 . S
H274 C287 0.961 . S
H275 C287 0.959 . S
H276 C290 0.929 . S
H277 C291 0.931 . S
H278 C293 0.930 . S
C279 H267 0.930 . S
C279 C280 1.399 . S
C279 C284 1.399 . S
C280 C279 1.399 . S
C280 C281 1.376 . S
C281 H268 0.930 . S
C281 C280 1.376 . S
C281 C282 1.388 . S
C282 H269 0.930 . S
C282 C281 1.388 . S
C282 C283 1.390 . S
C283 C282 1.390 . S
C283 C284 1.394 . S
C283 C289 1.465 . S
C284 C279 1.399 . S
C284 C283 1.394 . S
C284 C285 1.516 . S
C285 C284 1.516 . S
C285 C286 1.502 . S
C285 C287 1.561 . S
C285 C288 1.526 . S
C286 H270 0.959 . S
C286 H271 0.959 . S
C286 H272 0.961 . S
C286 C285 1.502 . S
C287 H273 0.960 . S
C287 H274 0.961 . S
C287 H275 0.959 . S
C287 C285 1.561 . S
C288 C285 1.526 . S
C288 C289 1.396 . S
C288 C293 1.390 . S
C289 C283 1.465 . S
C289 C288 1.396 . S
C289 C290 1.399 . S
C290 H276 0.929 . S
C290 C289 1.399 . S
C290 C291 1.385 . S
C291 H277 0.931 . S
C291 C290 1.385 . S
C291 C292 1.389 . S
C292 C291 1.389 . S
C292 C293 1.387 . S
C293 H278 0.930 . S
C293 C288 1.390 . S
C293 C292 1.387 . S
H294 C306 0.930 . S
H295 C308 0.930 . S
H296 C309 0.930 . S
H297 C313 0.959 . S
H298 C313 0.959 . S
H299 C313 0.961 . S
H300 C314 0.960 . S
H301 C314 0.961 . S
H302 C314 0.959 . S
H303 C317 0.929 . S
H304 C318 0.931 . S
H305 C320 0.930 . S
C306 H294 0.930 . S
C306 C307 1.399 . S
C306 C311 1.399 . S
C307 C306 1.399 . S
C307 C308 1.376 . S
C308 H295 0.930 . S
C308 C307 1.376 . S
C308 C309 1.388 . S
C309 H296 0.930 . S
C309 C308 1.388 . S
C309 C310 1.390 . S
C310 C309 1.390 . S
C310 C311 1.394 . S
C310 C316 1.465 . S
C311 C306 1.399 . S
C311 C310 1.394 . S
C311 C312 1.516 . S
C312 C311 1.516 . S
C312 C313 1.502 . S
C312 C314 1.561 . S
C312 C315 1.526 . S
C313 H297 0.959 . S
C313 H298 0.959 . S
C313 H299 0.961 . S
C313 C312 1.502 . S
C314 H300 0.960 . S
C314 H301 0.961 . S
C314 H302 0.959 . S
C314 C312 1.561 . S
C315 C312 1.526 . S
C315 C316 1.396 . S
C315 C320 1.390 . S
C316 C310 1.465 . S
C316 C315 1.396 . S
C316 C317 1.399 . S
C317 H303 0.929 . S
C317 C316 1.399 . S
C317 C318 1.385 . S
C318 H304 0.931 . S
C318 C317 1.385 . S
C318 C319 1.389 . S
C319 C318 1.389 . S
C319 C320 1.387 . S
C320 H305 0.930 . S
C320 C315 1.390 . S
C320 C319 1.387 . S
H321 C333 0.930 . S
H322 C335 0.930 . S
H323 C336 0.930 . S
H324 C340 0.959 . S
H325 C340 0.959 . S
H326 C340 0.961 . S
H327 C341 0.960 . S
H328 C341 0.961 . S
H329 C341 0.959 . S
H330 C344 0.929 . S
H331 C345 0.931 . S
H332 C347 0.930 . S
C333 H321 0.930 . S
C333 C334 1.399 . S
C333 C338 1.399 . S
C334 C333 1.399 . S
C334 C335 1.376 . S
C335 H322 0.930 . S
C335 C334 1.376 . S
C335 C336 1.388 . S
C336 H323 0.930 . S
C336 C335 1.388 . S
C336 C337 1.390 . S
C337 C336 1.390 . S
C337 C338 1.394 . S
C337 C343 1.465 . S
C338 C333 1.399 . S
C338 C337 1.394 . S
C338 C339 1.516 . S
C339 C338 1.516 . S
C339 C340 1.502 . S
C339 C341 1.561 . S
C339 C342 1.526 . S
C340 H324 0.959 . S
C340 H325 0.959 . S
C340 H326 0.961 . S
C340 C339 1.502 . S
C341 H327 0.960 . S
C341 H328 0.961 . S
C341 H329 0.959 . S
C341 C339 1.561 . S
C342 C339 1.526 . S
C342 C343 1.396 . S
C342 C347 1.390 . S
C343 C337 1.465 . S
C343 C342 1.396 . S
C343 C344 1.399 . S
C344 H330 0.929 . S
C344 C343 1.399 . S
C344 C345 1.385 . S
C345 H331 0.931 . S
C345 C344 1.385 . S
C345 C346 1.389 . S
C346 C345 1.389 . S
C346 C347 1.387 . S
C347 H332 0.930 . S
C347 C342 1.390 . S
C347 C346 1.387 . S
H348 C360 0.930 . S
H349 C362 0.930 . S
H350 C363 0.930 . S
H351 C367 0.959 . S
H352 C367 0.959 . S
H353 C367 0.961 . S
H354 C368 0.960 . S
H355 C368 0.961 . S
H356 C368 0.959 . S
H357 C371 0.929 . S
H358 C372 0.979 . S
H359 C374 0.930 . S
C360 H348 0.930 . S
C360 C361 1.399 . S
C360 C365 1.399 . S
C361 C360 1.399 . S
C361 C362 1.376 . S
C362 H349 0.930 . S
C362 C361 1.376 . S
C362 C363 1.388 . S
C363 H350 0.930 . S
C363 C362 1.388 . S
C363 C364 1.390 . S
C364 C363 1.390 . S
C364 C365 1.394 . S
C364 C370 1.465 . S
C365 C360 1.399 . S
C365 C364 1.394 . S
C365 C366 1.516 . S
C366 C365 1.516 . S
C366 C367 1.502 . S
C366 C368 1.561 . S
C366 C369 1.526 . S
C367 H351 0.959 . S
C367 H352 0.959 . S
C367 H353 0.961 . S
C367 C366 1.502 . S
C368 H354 0.960 . S
C368 H355 0.961 . S
C368 H356 0.959 . S
C368 C366 1.561 . S
C369 C366 1.526 . S
C369 C370 1.396 . S
C369 C374 1.390 . S
C370 C364 1.465 . S
C370 C369 1.396 . S
C370 C371 1.399 . S
C371 H357 0.929 . S
C371 C370 1.399 . S
C371 C372 1.385 . S
C372 H358 0.979 . S
C372 C371 1.385 . S
C372 C373 1.389 . S
C373 C372 1.389 . S
C373 C374 1.387 . S
C374 H359 0.930 . S
C374 C369 1.390 . S
C374 C373 1.387 . S
H375 C387 0.930 . S
H376 C389 0.930 . S
H377 C390 0.930 . S
H378 C394 0.959 . S
H379 C394 0.959 . S
H380 C394 0.961 . S
H381 C395 0.960 . S
H382 C395 0.961 . S
H383 C395 0.959 . S
H384 C398 0.929 . S
H385 C399 0.931 . S
H386 C401 0.930 . S
C387 H375 0.930 . S
C387 C388 1.399 . S
C387 C392 1.399 . S
C388 C387 1.399 . S
C388 C389 1.376 . S
C389 H376 0.930 . S
C389 C388 1.376 . S
C389 C390 1.388 . S
C390 H377 0.930 . S
C390 C389 1.388 . S
C390 C391 1.390 . S
C391 C390 1.390 . S
C391 C392 1.394 . S
C391 C397 1.465 . S
C392 C387 1.399 . S
C392 C391 1.394 . S
C392 C393 1.516 . S
C393 C392 1.516 . S
C393 C394 1.502 . S
C393 C395 1.561 . S
C393 C396 1.526 . S
C394 H378 0.959 . S
C394 H379 0.959 . S
C394 H380 0.961 . S
C394 C393 1.502 . S
C395 H381 0.960 . S
C395 H382 0.961 . S
C395 H383 0.959 . S
C395 C393 1.561 . S
C396 C393 1.526 . S
C396 C397 1.396 . S
C396 C401 1.390 . S
C397 C391 1.465 . S
C397 C396 1.396 . S
C397 C398 1.399 . S
C398 H384 0.929 . S
C398 C397 1.399 . S
C398 C399 1.385 . S
C399 H385 0.931 . S
C399 C398 1.385 . S
C399 C400 1.389 . S
C400 C399 1.389 . S
C400 C401 1.387 . S
C401 H386 0.930 . S
C401 C396 1.390 . S
C401 C400 1.387 . S
H402 C414 0.930 . S
H403 C416 0.930 . S
H404 C417 0.930 . S
H405 C421 0.959 . S
H406 C421 0.959 . S
H407 C421 0.961 . S
H408 C422 0.960 . S
H409 C422 0.961 . S
H410 C422 0.959 . S
H411 C425 0.929 . S
H412 C426 0.931 . S
H413 C428 0.930 . S
C414 H402 0.930 . S
C414 C415 1.399 . S
C414 C419 1.399 . S
C415 C414 1.399 . S
C415 C416 1.376 . S
C416 H403 0.930 . S
C416 C415 1.376 . S
C416 C417 1.388 . S
C417 H404 0.930 . S
C417 C416 1.388 . S
C417 C418 1.390 . S
C418 C417 1.390 . S
C418 C419 1.394 . S
C418 C424 1.465 . S
C419 C414 1.399 . S
C419 C418 1.394 . S
C419 C420 1.516 . S
C420 C419 1.516 . S
C420 C421 1.502 . S
C420 C422 1.561 . S
C420 C423 1.526 . S
C421 H405 0.959 . S
C421 H406 0.959 . S
C421 H407 0.961 . S
C421 C420 1.502 . S
C422 H408 0.960 . S
C422 H409 0.961 . S
C422 H410 0.959 . S
C422 C420 1.561 . S
C423 C420 1.526 . S
C423 C424 1.396 . S
C423 C428 1.390 . S
C424 C418 1.465 . S
C424 C423 1.396 . S
C424 C425 1.399 . S
C425 H411 0.929 . S
C425 C424 1.399 . S
C425 C426 1.385 . S
C426 H412 0.931 . S
C426 C425 1.385 . S
C426 C427 1.389 . S
C427 C426 1.389 . S
C427 C428 1.387 . S
C428 H413 0.930 . S
C428 C423 1.390 . S
C428 C427 1.387 . S
H429 C441 0.930 . S
H430 C443 0.930 . S
H431 C444 0.930 . S
H432 C448 0.959 . S
H433 C448 0.959 . S
H434 C448 0.961 . S
H435 C449 0.960 . S
H436 C449 0.961 . S
H437 C449 0.959 . S
H438 C452 0.929 . S
H439 C453 0.931 . S
H440 C455 0.930 . S
C441 H429 0.930 . S
C441 C442 1.399 . S
C441 C446 1.399 . S
C442 C441 1.399 . S
C442 C443 1.376 . S
C443 H430 0.930 . S
C443 C442 1.376 . S
C443 C444 1.388 . S
C444 H431 0.930 . S
C444 C443 1.388 . S
C444 C445 1.390 . S
C445 C444 1.390 . S
C445 C446 1.394 . S
C445 C451 1.465 . S
C446 C441 1.399 . S
C446 C445 1.394 . S
C446 C447 1.516 . S
C447 C446 1.516 . S
C447 C448 1.502 . S
C447 C449 1.561 . S
C447 C450 1.526 . S
C448 H432 0.959 . S
C448 H433 0.959 . S
C448 H434 0.961 . S
C448 C447 1.502 . S
C449 H435 0.960 . S
C449 H436 0.961 . S
C449 H437 0.959 . S
C449 C447 1.561 . S
C450 C447 1.526 . S
C450 C451 1.396 . S
C450 C455 1.390 . S
C451 C445 1.465 . S
C451 C450 1.396 . S
C451 C452 1.399 . S
C452 H438 0.929 . S
C452 C451 1.399 . S
C452 C453 1.385 . S
C453 H439 0.931 . S
C453 C452 1.385 . S
C453 C454 1.389 . S
C454 C453 1.389 . S
C454 C455 1.387 . S
C455 H440 0.930 . S
C455 C450 1.390 . S
C455 C454 1.387 . S
H456 C468 0.930 . S
H457 C470 0.930 . S
H458 C471 0.930 . S
H459 C475 0.959 . S
H460 C475 0.959 . S
H461 C475 0.961 . S
H462 C476 0.960 . S
H463 C476 0.961 . S
H464 C476 0.959 . S
H465 C479 0.929 . S
H466 C480 0.931 . S
H467 C482 0.930 . S
C468 H456 0.930 . S
C468 C469 1.399 . S
C468 C473 1.399 . S
C469 C468 1.399 . S
C469 C470 1.376 . S
C470 H457 0.930 . S
C470 C469 1.376 . S
C470 C471 1.388 . S
C471 H458 0.930 . S
C471 C470 1.388 . S
C471 C472 1.390 . S
C472 C471 1.390 . S
C472 C473 1.394 . S
C472 C478 1.465 . S
C473 C468 1.399 . S
C473 C472 1.394 . S
C473 C474 1.516 . S
C474 C473 1.516 . S
C474 C475 1.502 . S
C474 C476 1.561 . S
C474 C477 1.526 . S
C475 H459 0.959 . S
C475 H460 0.959 . S
C475 H461 0.961 . S
C475 C474 1.502 . S
C476 H462 0.960 . S
C476 H463 0.961 . S
C476 H464 0.959 . S
C476 C474 1.561 . S
C477 C474 1.526 . S
C477 C478 1.396 . S
C477 C482 1.390 . S
C478 C472 1.465 . S
C478 C477 1.396 . S
C478 C479 1.399 . S
C479 H465 0.929 . S
C479 C478 1.399 . S
C479 C480 1.385 . S
C480 H466 0.931 . S
C480 C479 1.385 . S
C480 C481 1.389 . S
C481 C480 1.389 . S
C481 C482 1.387 . S
C482 H467 0.930 . S
C482 C477 1.390 . S
C482 C481 1.387 . S
H483 C495 0.930 . S
H484 C497 0.930 . S
H485 C498 0.930 . S
H486 C502 0.959 . S
H487 C502 0.959 . S
H488 C502 0.961 . S
H489 C503 0.960 . S
H490 C503 0.961 . S
H491 C503 0.959 . S
H492 C506 0.929 . S
H493 C507 0.931 1_556 S
H494 C509 0.930 . S
C495 H483 0.930 . S
C495 C496 1.399 . S
C495 C500 1.399 . S
C496 C495 1.399 . S
C496 C497 1.376 . S
C497 H484 0.930 . S
C497 C496 1.376 . S
C497 C498 1.388 . S
C498 H485 0.930 . S
C498 C497 1.388 . S
C498 C499 1.390 . S
C499 C498 1.390 . S
C499 C500 1.394 . S
C499 C505 1.465 . S
C500 C495 1.399 . S
C500 C499 1.394 . S
C500 C501 1.516 . S
C501 C500 1.516 . S
C501 C502 1.502 . S
C501 C503 1.561 . S
C501 C504 1.526 . S
C502 H486 0.959 . S
C502 H487 0.959 . S
C502 H488 0.961 . S
C502 C501 1.502 . S
C503 H489 0.960 . S
C503 H490 0.961 . S
C503 H491 0.959 . S
C503 C501 1.561 . S
C504 C501 1.526 . S
C504 C505 1.396 . S
C504 C509 1.390 . S
C505 C499 1.465 . S
C505 C504 1.396 . S
C505 C506 1.399 . S
C506 H492 0.929 . S
C506 C505 1.399 . S
C506 C507 1.385 . S
C507 H493 0.931 1_554 S
C507 C506 1.385 . S
C507 C508 1.389 . S
C508 C507 1.389 . S
C508 C509 1.387 . S
C509 H494 0.930 . S
C509 C504 1.390 . S
C509 C508 1.387 . S
H510 C522 0.930 . S
H511 C524 0.930 . S
H512 C525 0.930 . S
H513 C529 0.959 . S
H514 C529 0.959 . S
H515 C529 0.961 . S
H516 C530 0.960 . S
H517 C530 0.961 . S
H518 C530 0.959 . S
H519 C533 0.929 . S
H520 C534 0.931 . S
H521 C536 0.930 . S
C522 H510 0.930 . S
C522 C523 1.399 . S
C522 C527 1.399 . S
C523 C522 1.399 . S
C523 C524 1.376 . S
C524 H511 0.930 . S
C524 C523 1.376 . S
C524 C525 1.388 . S
C525 H512 0.930 . S
C525 C524 1.388 . S
C525 C526 1.390 . S
C526 C525 1.390 . S
C526 C527 1.394 . S
C526 C532 1.465 . S
C527 C522 1.399 . S
C527 C526 1.394 . S
C527 C528 1.516 . S
C528 C527 1.516 . S
C528 C529 1.502 . S
C528 C530 1.561 . S
C528 C531 1.526 . S
C529 H513 0.959 . S
C529 H514 0.959 . S
C529 H515 0.961 . S
C529 C528 1.502 . S
C530 H516 0.960 . S
C530 H517 0.961 . S
C530 H518 0.959 . S
C530 C528 1.561 . S
C531 C528 1.526 . S
C531 C532 1.396 . S
C531 C536 1.390 . S
C532 C526 1.465 . S
C532 C531 1.396 . S
C532 C533 1.399 . S
C533 H519 0.929 . S
C533 C532 1.399 . S
C533 C534 1.385 . S
C534 H520 0.931 . S
C534 C533 1.385 . S
C534 C535 1.389 . S
C535 C534 1.389 . S
C535 C536 1.387 . S
C536 H521 0.930 . S
C536 C531 1.390 . S
C536 C535 1.387 . S
H537 C549 0.930 . S
H538 C551 0.930 . S
H539 C552 0.930 . S
H540 C556 0.959 . S
H541 C556 0.959 . S
H542 C556 0.961 . S
H543 C557 0.960 . S
H544 C557 0.961 . S
H545 C557 0.959 . S
H546 C560 0.929 . S
H547 C561 0.931 . S
H548 C563 0.930 . S
C549 H537 0.930 . S
C549 C550 1.399 . S
C549 C554 1.399 . S
C550 C549 1.399 . S
C550 C551 1.376 . S
C551 H538 0.930 . S
C551 C550 1.376 . S
C551 C552 1.388 . S
C552 H539 0.930 . S
C552 C551 1.388 . S
C552 C553 1.390 . S
C553 C552 1.390 . S
C553 C554 1.394 . S
C553 C559 1.465 . S
C554 C549 1.399 . S
C554 C553 1.394 . S
C554 C555 1.516 . S
C555 C554 1.516 . S
C555 C556 1.502 . S
C555 C557 1.561 . S
C555 C558 1.526 . S
C556 H540 0.959 . S
C556 H541 0.959 . S
C556 H542 0.961 . S
C556 C555 1.502 . S
C557 H543 0.960 . S
C557 H544 0.961 . S
C557 H545 0.959 . S
C557 C555 1.561 . S
C558 C555 1.526 . S
C558 C559 1.396 . S
C558 C563 1.390 . S
C559 C553 1.465 . S
C559 C558 1.396 . S
C559 C560 1.399 . S
C560 H546 0.929 . S
C560 C559 1.399 . S
C560 C561 1.385 . S
C561 H547 0.931 . S
C561 C560 1.385 . S
C561 C562 1.389 . S
C562 C561 1.389 . S
C562 C563 1.387 . S
C563 H548 0.930 . S
C563 C558 1.390 . S
C563 C562 1.387 . S
H564 C576 0.930 . S
H565 C578 0.930 . S
H566 C579 0.930 . S
H567 C583 0.959 . S
H568 C583 0.959 . S
H569 C583 0.961 . S
H570 C584 0.960 . S
H571 C584 0.961 . S
H572 C584 0.959 . S
H573 C587 0.929 . S
H574 C588 0.931 . S
H575 C590 0.930 . S
C576 H564 0.930 . S
C576 C577 1.399 . S
C576 C581 1.399 . S
C577 C576 1.399 . S
C577 C578 1.376 . S
C578 H565 0.930 . S
C578 C577 1.376 . S
C578 C579 1.388 . S
C579 H566 0.930 . S
C579 C578 1.388 . S
C579 C580 1.390 . S
C580 C579 1.390 . S
C580 C581 1.394 . S
C580 C586 1.465 . S
C581 C576 1.399 . S
C581 C580 1.394 . S
C581 C582 1.516 . S
C582 C581 1.516 . S
C582 C583 1.502 . S
C582 C584 1.561 . S
C582 C585 1.526 . S
C583 H567 0.959 . S
C583 H568 0.959 . S
C583 H569 0.961 . S
C583 C582 1.502 . S
C584 H570 0.960 . S
C584 H571 0.961 . S
C584 H572 0.959 . S
C584 C582 1.561 . S
C585 C582 1.526 . S
C585 C586 1.396 . S
C585 C590 1.390 . S
C586 C580 1.465 . S
C586 C585 1.396 . S
C586 C587 1.399 . S
C587 H573 0.929 . S
C587 C586 1.399 . S
C587 C588 1.385 . S
C588 H574 0.931 . S
C588 C587 1.385 . S
C588 C589 1.389 . S
C589 C588 1.389 . S
C589 C590 1.387 . S
C590 H575 0.930 . S
C590 C585 1.390 . S
C590 C589 1.387 . S
H591 C603 0.930 . S
H592 C605 0.930 . S
H593 C606 0.930 . S
H594 C610 0.959 . S
H595 C610 0.959 . S
H596 C610 0.961 . S
H597 C611 0.960 . S
H598 C611 0.961 . S
H599 C611 0.959 . S
H600 C614 0.929 . S
H601 C615 0.931 . S
H602 C617 0.930 . S
C603 H591 0.930 . S
C603 C604 1.399 . S
C603 C608 1.399 . S
C604 C603 1.399 . S
C604 C605 1.376 . S
C605 H592 0.930 . S
C605 C604 1.376 . S
C605 C606 1.388 . S
C606 H593 0.930 . S
C606 C605 1.388 . S
C606 C607 1.390 . S
C607 C606 1.390 . S
C607 C608 1.394 . S
C607 C613 1.465 . S
C608 C603 1.399 . S
C608 C607 1.394 . S
C608 C609 1.516 . S
C609 C608 1.516 . S
C609 C610 1.502 . S
C609 C611 1.561 . S
C609 C612 1.526 . S
C610 H594 0.959 . S
C610 H595 0.959 . S
C610 H596 0.961 . S
C610 C609 1.502 . S
C611 H597 0.960 . S
C611 H598 0.961 . S
C611 H599 0.959 . S
C611 C609 1.561 . S
C612 C609 1.526 . S
C612 C613 1.396 . S
C612 C617 1.390 . S
C613 C607 1.465 . S
C613 C612 1.396 . S
C613 C614 1.399 . S
C614 H600 0.929 . S
C614 C613 1.399 . S
C614 C615 1.385 . S
C615 H601 0.931 . S
C615 C614 1.385 . S
C615 C616 1.389 . S
C616 C615 1.389 . S
C616 C617 1.387 . S
C617 H602 0.930 . S
C617 C612 1.390 . S
C617 C616 1.387 . S
H618 C630 0.930 . S
H619 C632 0.930 . S
H620 C633 0.930 . S
H621 C637 0.959 . S
H622 C637 0.959 . S
H623 C637 0.961 . S
H624 C638 0.960 . S
H625 C638 0.961 . S
H626 C638 0.959 . S
H627 C641 0.929 . S
H628 C642 0.931 . S
H629 C644 0.930 . S
C630 H618 0.930 . S
C630 C631 1.399 . S
C630 C635 1.399 . S
C631 C630 1.399 . S
C631 C632 1.376 . S
C632 H619 0.930 . S
C632 C631 1.376 . S
C632 C633 1.388 . S
C633 H620 0.930 . S
C633 C632 1.388 . S
C633 C634 1.390 . S
C634 C633 1.390 . S
C634 C635 1.394 . S
C634 C640 1.465 . S
C635 C630 1.399 . S
C635 C634 1.394 . S
C635 C636 1.516 . S
C636 C635 1.516 . S
C636 C637 1.502 . S
C636 C638 1.561 . S
C636 C639 1.526 . S
C637 H621 0.959 . S
C637 H622 0.959 . S
C637 H623 0.961 . S
C637 C636 1.502 . S
C638 H624 0.960 . S
C638 H625 0.961 . S
C638 H626 0.959 . S
C638 C636 1.561 . S
C639 C636 1.526 . S
C639 C640 1.396 . S
C639 C644 1.390 . S
C640 C634 1.465 . S
C640 C639 1.396 . S
C640 C641 1.399 . S
C641 H627 0.929 . S
C641 C640 1.399 . S
C641 C642 1.385 . S
C642 H628 0.931 . S
C642 C641 1.385 . S
C642 C643 1.389 . S
C643 C642 1.389 . S
C643 C644 1.387 . S
C644 H629 0.930 . S
C644 C639 1.390 . S
C644 C643 1.387 . S
H645 C657 0.930 . S
H646 C659 0.930 . S
H647 C660 0.930 . S
H648 C664 0.959 . S
H649 C664 0.959 . S
H650 C664 0.961 . S
H651 C665 0.960 . S
H652 C665 0.961 . S
H653 C665 0.959 . S
H654 C668 0.929 . S
H655 C669 0.931 . S
H656 C671 0.930 . S
C657 H645 0.930 . S
C657 C658 1.399 . S
C657 C662 1.399 . S
C658 C657 1.399 . S
C658 C659 1.376 . S
C659 H646 0.930 . S
C659 C658 1.376 . S
C659 C660 1.388 . S
C660 H647 0.930 . S
C660 C659 1.388 . S
C660 C661 1.390 . S
C661 C660 1.390 . S
C661 C662 1.394 . S
C661 C667 1.465 . S
C662 C657 1.399 . S
C662 C661 1.394 . S
C662 C663 1.516 . S
C663 C662 1.516 . S
C663 C664 1.502 . S
C663 C665 1.561 . S
C663 C666 1.526 . S
C664 H648 0.959 . S
C664 H649 0.959 . S
C664 H650 0.961 . S
C664 C663 1.502 . S
C665 H651 0.960 . S
C665 H652 0.961 . S
C665 H653 0.959 . S
C665 C663 1.561 . S
C666 C663 1.526 . S
C666 C667 1.396 . S
C666 C671 1.390 . S
C667 C661 1.465 . S
C667 C666 1.396 . S
C667 C668 1.399 . S
C668 H654 0.929 . S
C668 C667 1.399 . S
C668 C669 1.385 . S
C669 H655 0.931 . S
C669 C668 1.385 . S
C669 C670 1.389 . S
C670 C669 1.389 . S
C670 C671 1.387 . S
C671 H656 0.930 . S
C671 C666 1.390 . S
C671 C670 1.387 . S
H672 C684 0.930 . S
H673 C686 0.930 . S
H674 C687 0.930 1_554 S
H675 C691 0.959 . S
H676 C691 0.959 . S
H677 C691 0.961 . S
H678 C692 0.960 1_556 S
H679 C692 0.961 . S
H680 C692 0.959 . S
H681 C695 0.929 . S
H682 C696 0.931 . S
H683 C698 0.930 . S
C684 H672 0.930 . S
C684 C685 1.399 . S
C684 C689 1.399 . S
C685 C684 1.399 . S
C685 C686 1.376 . S
C686 H673 0.930 . S
C686 C685 1.376 . S
C686 C687 1.388 . S
C687 H674 0.930 1_556 S
C687 C686 1.388 . S
C687 C688 1.390 . S
C688 C687 1.390 . S
C688 C689 1.394 . S
C688 C694 1.465 1_556 S
C689 C684 1.399 . S
C689 C688 1.394 . S
C689 C690 1.516 . S
C690 C689 1.516 . S
C690 C691 1.502 . S
C690 C692 1.561 1_556 S
C690 C693 1.487 1_556 S
C691 H675 0.959 . S
C691 H676 0.959 . S
C691 H677 0.961 . S
C691 C690 1.502 . S
C692 H678 0.960 1_554 S
C692 H679 0.961 . S
C692 H680 0.959 . S
C692 C690 1.561 1_554 S
C693 C690 1.487 1_554 S
C693 C694 1.416 . S
C693 C698 1.414 . S
C694 C688 1.465 1_554 S
C694 C693 1.416 . S
C694 C695 1.399 . S
C695 H681 0.929 . S
C695 C694 1.399 . S
C695 C696 1.385 . S
C696 H682 0.931 . S
C696 C695 1.385 . S
C696 C697 1.389 . S
C697 C696 1.389 . S
C697 C698 1.387 . S
C698 H683 0.930 . S
C698 C693 1.414 . S
C698 C697 1.387 . S
H699 C711 0.930 . S
H700 C713 0.930 . S
H701 C714 0.930 . S
H702 C718 0.959 . S
H703 C718 0.959 . S
H704 C718 0.961 . S
H705 C719 0.960 . S
H706 C719 0.961 . S
H707 C719 0.959 . S
H708 C722 0.929 . S
H709 C723 0.931 . S
H710 C725 0.930 . S
C711 H699 0.930 . S
C711 C712 1.399 . S
C711 C716 1.399 . S
C712 C711 1.399 . S
C712 C713 1.376 . S
C713 H700 0.930 . S
C713 C712 1.376 . S
C713 C714 1.388 . S
C714 H701 0.930 . S
C714 C713 1.388 . S
C714 C715 1.390 . S
C715 C714 1.390 . S
C715 C716 1.394 . S
C715 C721 1.465 . S
C716 C711 1.399 . S
C716 C715 1.394 . S
C716 C717 1.516 . S
C717 C716 1.516 . S
C717 C718 1.502 . S
C717 C719 1.561 . S
C717 C720 1.526 . S
C718 H702 0.959 . S
C718 H703 0.959 . S
C718 H704 0.961 . S
C718 C717 1.502 . S
C719 H705 0.960 . S
C719 H706 0.961 . S
C719 H707 0.959 . S
C719 C717 1.561 . S
C720 C717 1.526 . S
C720 C721 1.396 . S
C720 C725 1.390 . S
C721 C715 1.465 . S
C721 C720 1.396 . S
C721 C722 1.399 . S
C722 H708 0.929 . S
C722 C721 1.399 . S
C722 C723 1.385 . S
C723 H709 0.931 . S
C723 C722 1.385 . S
C723 C724 1.389 . S
C724 C723 1.389 . S
C724 C725 1.387 . S
C725 H710 0.930 . S
C725 C720 1.390 . S
C725 C724 1.387 . S
H726 C738 0.930 . S
H727 C740 0.930 . S
H728 C741 0.930 . S
H729 C745 0.959 . S
H730 C745 0.959 . S
H731 C745 0.961 . S
H732 C746 0.960 . S
H733 C746 0.961 . S
H734 C746 0.959 . S
H735 C749 0.929 . S
H736 C750 0.931 . S
H737 C752 0.930 . S
C738 H726 0.930 . S
C738 C739 1.399 . S
C738 C743 1.399 . S
C739 C738 1.399 . S
C739 C740 1.376 . S
C740 H727 0.930 . S
C740 C739 1.376 . S
C740 C741 1.388 . S
C741 H728 0.930 . S
C741 C740 1.388 . S
C741 C742 1.390 . S
C742 C741 1.390 . S
C742 C743 1.394 . S
C742 C748 1.465 . S
C743 C738 1.399 . S
C743 C742 1.394 . S
C743 C744 1.516 . S
C744 C743 1.516 . S
C744 C745 1.502 . S
C744 C746 1.561 . S
C744 C747 1.526 . S
C745 H729 0.959 . S
C745 H730 0.959 . S
C745 H731 0.961 . S
C745 C744 1.502 . S
C746 H732 0.960 . S
C746 H733 0.961 . S
C746 H734 0.959 . S
C746 C744 1.561 . S
C747 C744 1.526 . S
C747 C748 1.396 . S
C747 C752 1.390 . S
C748 C742 1.465 . S
C748 C747 1.396 . S
C748 C749 1.399 . S
C749 H735 0.929 . S
C749 C748 1.399 . S
C749 C750 1.385 . S
C750 H736 0.931 . S
C750 C749 1.385 . S
C750 C751 1.389 . S
C751 C750 1.389 . S
C751 C752 1.387 . S
C752 H737 0.930 . S
C752 C747 1.390 . S
C752 C751 1.387 . S
H753 C765 0.930 . S
H754 C767 0.930 . S
H755 C768 0.930 . S
H756 C772 0.959 . S
H757 C772 0.959 . S
H758 C772 0.961 . S
H759 C773 0.960 . S
H760 C773 0.961 . S
H761 C773 0.959 . S
H762 C776 0.929 . S
H763 C777 0.931 . S
H764 C779 0.930 . S
C765 H753 0.930 . S
C765 C766 1.399 . S
C765 C770 1.399 . S
C766 C765 1.399 . S
C766 C767 1.376 . S
C767 H754 0.930 . S
C767 C766 1.376 . S
C767 C768 1.388 . S
C768 H755 0.930 . S
C768 C767 1.388 . S
C768 C769 1.390 . S
C769 C768 1.390 . S
C769 C770 1.394 . S
C769 C775 1.465 . S
C770 C765 1.399 . S
C770 C769 1.394 . S
C770 C771 1.516 . S
C771 C770 1.516 . S
C771 C772 1.502 . S
C771 C773 1.561 . S
C771 C774 1.526 . S
C772 H756 0.959 . S
C772 H757 0.959 . S
C772 H758 0.961 . S
C772 C771 1.502 . S
C773 H759 0.960 . S
C773 H760 0.961 . S
C773 H761 0.959 . S
C773 C771 1.561 . S
C774 C771 1.526 . S
C774 C775 1.396 . S
C774 C779 1.390 . S
C775 C769 1.465 . S
C775 C774 1.396 . S
C775 C776 1.399 . S
C776 H762 0.929 . S
C776 C775 1.399 . S
C776 C777 1.385 . S
C777 H763 0.931 . S
C777 C776 1.385 . S
C777 C778 1.389 . S
C778 C777 1.389 . S
C778 C779 1.387 . S
C779 H764 0.930 . S
C779 C774 1.390 . S
C779 C778 1.387 . S
H780 C792 0.930 . S
H781 C794 0.930 . S
H782 C795 0.930 . S
H783 C799 0.959 . S
H784 C799 0.959 . S
H785 C799 0.961 . S
H786 C800 0.960 . S
H787 C800 0.961 . S
H788 C800 0.959 . S
H789 C803 0.929 . S
H790 C804 0.931 . S
H791 C806 0.930 . S
C792 H780 0.930 . S
C792 C793 1.399 . S
C792 C797 1.399 . S
C793 C792 1.399 . S
C793 C794 1.376 . S
C794 H781 0.930 . S
C794 C793 1.376 . S
C794 C795 1.388 . S
C795 H782 0.930 . S
C795 C794 1.388 . S
C795 C796 1.390 . S
C796 C795 1.390 . S
C796 C797 1.394 . S
C796 C802 1.465 . S
C797 C792 1.399 . S
C797 C796 1.394 . S
C797 C798 1.516 . S
C798 C797 1.516 . S
C798 C799 1.502 . S
C798 C800 1.561 . S
C798 C801 1.526 . S
C799 H783 0.959 . S
C799 H784 0.959 . S
C799 H785 0.961 . S
C799 C798 1.502 . S
C800 H786 0.960 . S
C800 H787 0.961 . S
C800 H788 0.959 . S
C800 C798 1.561 . S
C801 C798 1.526 . S
C801 C802 1.396 . S
C801 C806 1.390 . S
C802 C796 1.465 . S
C802 C801 1.396 . S
C802 C803 1.399 . S
C803 H789 0.929 . S
C803 C802 1.399 . S
C803 C804 1.385 . S
C804 H790 0.931 . S
C804 C803 1.385 . S
C804 C805 1.389 . S
C805 C804 1.389 . S
C805 C806 1.387 . S
C806 H791 0.930 . S
C806 C801 1.390 . S
C806 C805 1.387 . S
H807 C819 0.930 . S
H808 C821 0.930 . S
H809 C822 0.930 . S
H810 C826 0.959 . S
H811 C826 0.959 . S
H812 C826 0.961 . S
H813 C827 0.960 . S
H814 C827 0.961 . S
H815 C827 0.959 . S
H816 C830 0.929 . S
H817 C831 0.931 . S
H818 C833 0.930 . S
C819 H807 0.930 . S
C819 C820 1.399 . S
C819 C824 1.399 . S
C820 C819 1.399 . S
C820 C821 1.376 . S
C821 H808 0.930 . S
C821 C820 1.376 . S
C821 C822 1.388 . S
C822 H809 0.930 . S
C822 C821 1.388 . S
C822 C823 1.390 . S
C823 C822 1.390 . S
C823 C824 1.394 . S
C823 C829 1.468 1_554 S
C824 C819 1.399 . S
C824 C823 1.394 . S
C824 C825 1.516 . S
C825 C824 1.516 . S
C825 C826 1.502 . S
C825 C827 1.561 1_554 S
C825 C828 1.507 1_554 S
C826 H810 0.959 . S
C826 H811 0.959 . S
C826 H812 0.961 . S
C826 C825 1.502 . S
C827 H813 0.960 . S
C827 H814 0.961 . S
C827 H815 0.959 . S
C827 C825 1.561 1_556 S
C828 C825 1.507 1_556 S
C828 C829 1.394 . S
C828 C833 1.413 . S
C829 C823 1.468 1_556 S
C829 C828 1.394 . S
C829 C830 1.396 . S
C830 H816 0.929 . S
C830 C829 1.396 . S
C830 C831 1.385 . S
C831 H817 0.931 . S
C831 C830 1.385 . S
C831 C832 1.389 . S
C832 C831 1.389 . S
C832 C833 1.387 . S
C833 H818 0.930 . S
C833 C828 1.413 . S
C833 C832 1.387 . S
H834 C846 0.930 . S
H835 C848 0.930 . S
H836 C849 0.930 . S
H837 C853 0.959 . S
H838 C853 0.959 . S
H839 C853 0.961 . S
H840 C854 0.960 . S
H841 C854 0.961 . S
H842 C854 0.959 . S
H843 C857 0.929 . S
H844 C858 0.931 . S
H845 C860 0.930 . S
C846 H834 0.930 . S
C846 C847 1.399 . S
C846 C851 1.399 . S
C847 C846 1.399 . S
C847 C848 1.376 . S
C848 H835 0.930 . S
C848 C847 1.376 . S
C848 C849 1.388 . S
C849 H836 0.930 . S
C849 C848 1.388 . S
C849 C850 1.390 . S
C850 C849 1.390 . S
C850 C851 1.394 . S
C850 C856 1.465 . S
C851 C846 1.399 . S
C851 C850 1.394 . S
C851 C852 1.516 . S
C852 C851 1.516 . S
C852 C853 1.502 . S
C852 C854 1.561 . S
C852 C855 1.526 . S
C853 H837 0.959 . S
C853 H838 0.959 . S
C853 H839 0.961 . S
C853 C852 1.502 . S
C854 H840 0.960 . S
C854 H841 0.961 . S
C854 H842 0.959 . S
C854 C852 1.561 . S
C855 C852 1.526 . S
C855 C856 1.396 . S
C855 C860 1.390 . S
C856 C850 1.465 . S
C856 C855 1.396 . S
C856 C857 1.399 . S
C857 H843 0.929 . S
C857 C856 1.399 . S
C857 C858 1.385 . S
C858 H844 0.931 . S
C858 C857 1.385 . S
C858 C859 1.389 . S
C859 C858 1.389 . S
C859 C860 1.387 . S
C860 H845 0.930 . S
C860 C855 1.390 . S
C860 C859 1.387 . S
H861 C873 0.930 . S
H862 C875 0.930 . S
H863 C876 0.930 . S
H864 C880 0.959 . S
H865 C880 0.959 . S
H866 C880 0.961 . S
H867 C881 0.960 . S
H868 C881 0.961 . S
H869 C881 0.959 . S
H870 C884 0.929 . S
H871 C885 0.931 . S
H872 C887 0.930 . S
C873 H861 0.930 . S
C873 C874 1.399 . S
C873 C878 1.399 . S
C874 C873 1.399 . S
C874 C875 1.376 . S
C875 H862 0.930 . S
C875 C874 1.376 . S
C875 C876 1.388 . S
C876 H863 0.930 . S
C876 C875 1.388 . S
C876 C877 1.390 . S
C877 C876 1.390 . S
C877 C878 1.394 . S
C877 C883 1.465 . S
C878 C873 1.399 . S
C878 C877 1.394 . S
C878 C879 1.516 . S
C879 C878 1.516 . S
C879 C880 1.502 . S
C879 C881 1.561 . S
C879 C882 1.526 . S
C880 H864 0.959 . S
C880 H865 0.959 . S
C880 H866 0.961 . S
C880 C879 1.502 . S
C881 H867 0.960 . S
C881 H868 0.961 . S
C881 H869 0.959 . S
C881 C879 1.561 . S
C882 C879 1.526 . S
C882 C883 1.396 . S
C882 C887 1.390 . S
C883 C877 1.465 . S
C883 C882 1.396 . S
C883 C884 1.399 . S
C884 H870 0.929 . S
C884 C883 1.399 . S
C884 C885 1.385 . S
C885 H871 0.931 . S
C885 C884 1.385 . S
C885 C886 1.389 . S
C886 C885 1.389 . S
C886 C887 1.387 . S
C887 H872 0.930 . S
C887 C882 1.390 . S
C887 C886 1.387 . S
H888 C900 0.930 . S
H889 C902 0.930 . S
H890 C903 0.930 . S
H891 C907 0.959 . S
H892 C907 0.959 . S
H893 C907 0.961 . S
H894 C908 0.960 . S
H895 C908 0.961 . S
H896 C908 0.959 . S
H897 C911 0.929 . S
H898 C912 0.931 . S
H899 C914 0.930 . S
C900 H888 0.930 . S
C900 C901 1.399 . S
C900 C905 1.399 . S
C901 C900 1.399 . S
C901 C902 1.376 . S
C902 H889 0.930 . S
C902 C901 1.376 . S
C902 C903 1.388 . S
C903 H890 0.930 . S
C903 C902 1.388 . S
C903 C904 1.390 . S
C904 C903 1.390 . S
C904 C905 1.394 . S
C904 C910 1.465 . S
C905 C900 1.399 . S
C905 C904 1.394 . S
C905 C906 1.516 . S
C906 C905 1.516 . S
C906 C907 1.502 . S
C906 C908 1.561 . S
C906 C909 1.526 . S
C907 H891 0.959 . S
C907 H892 0.959 . S
C907 H893 0.961 . S
C907 C906 1.502 . S
C908 H894 0.960 . S
C908 H895 0.961 . S
C908 H896 0.959 . S
C908 C906 1.561 . S
C909 C906 1.526 . S
C909 C910 1.396 . S
C909 C914 1.390 . S
C910 C904 1.465 . S
C910 C909 1.396 . S
C910 C911 1.399 . S
C911 H897 0.929 . S
C911 C910 1.399 . S
C911 C912 1.385 . S
C912 H898 0.931 . S
C912 C911 1.385 . S
C912 C913 1.389 . S
C913 C912 1.389 . S
C913 C914 1.387 . S
C914 H899 0.930 . S
C914 C909 1.390 . S
C914 C913 1.387 . S
H915 C927 0.930 . S
H916 C929 0.930 . S
H917 C930 0.930 . S
H918 C934 0.959 . S
H919 C934 0.959 . S
H920 C934 0.961 . S
H921 C935 0.960 . S
H922 C935 0.961 . S
H923 C935 0.959 . S
H924 C938 0.929 . S
H925 C939 0.931 . S
H926 C941 0.930 . S
C927 H915 0.930 . S
C927 C928 1.399 . S
C927 C932 1.399 . S
C928 C927 1.399 . S
C928 C929 1.376 . S
C929 H916 0.930 . S
C929 C928 1.376 . S
C929 C930 1.388 . S
C930 H917 0.930 . S
C930 C929 1.388 . S
C930 C931 1.390 . S
C931 C930 1.390 . S
C931 C932 1.394 . S
C931 C937 1.465 . S
C932 C927 1.399 . S
C932 C931 1.394 . S
C932 C933 1.516 . S
C933 C932 1.516 . S
C933 C934 1.502 . S
C933 C935 1.561 . S
C933 C936 1.526 . S
C934 H918 0.959 . S
C934 H919 0.959 . S
C934 H920 0.961 . S
C934 C933 1.502 . S
C935 H921 0.960 . S
C935 H922 0.961 . S
C935 H923 0.959 . S
C935 C933 1.561 . S
C936 C933 1.526 . S
C936 C937 1.396 . S
C936 C941 1.390 . S
C937 C931 1.465 . S
C937 C936 1.396 . S
C937 C938 1.399 . S
C938 H924 0.929 . S
C938 C937 1.399 . S
C938 C939 1.385 . S
C939 H925 0.931 . S
C939 C938 1.385 . S
C939 C940 1.389 . S
C940 C939 1.389 . S
C940 C941 1.387 . S
C941 H926 0.930 . S
C941 C936 1.390 . S
C941 C940 1.387 . S
H942 C954 0.930 . S
H943 C956 0.930 . S
H944 C957 0.930 . S
H945 C961 0.959 . S
H946 C961 0.959 . S
H947 C961 0.961 . S
H948 C962 0.960 . S
H949 C962 0.961 . S
H950 C962 0.959 . S
H951 C965 0.929 . S
H952 C966 0.931 . S
H953 C968 0.930 . S
C954 H942 0.930 . S
C954 C955 1.399 . S
C954 C959 1.399 . S
C955 C954 1.399 . S
C955 C956 1.376 . S
C956 H943 0.930 . S
C956 C955 1.376 . S
C956 C957 1.388 . S
C957 H944 0.930 . S
C957 C956 1.388 . S
C957 C958 1.390 . S
C958 C957 1.390 . S
C958 C959 1.394 . S
C958 C964 1.465 . S
C959 C954 1.399 . S
C959 C958 1.394 . S
C959 C960 1.516 . S
C960 C959 1.516 . S
C960 C961 1.502 . S
C960 C962 1.561 . S
C960 C963 1.526 . S
C961 H945 0.959 . S
C961 H946 0.959 . S
C961 H947 0.961 . S
C961 C960 1.502 . S
C962 H948 0.960 . S
C962 H949 0.961 . S
C962 H950 0.959 . S
C962 C960 1.561 . S
C963 C960 1.526 . S
C963 C964 1.396 . S
C963 C968 1.390 . S
C964 C958 1.465 . S
C964 C963 1.396 . S
C964 C965 1.399 . S
C965 H951 0.929 . S
C965 C964 1.399 . S
C965 C966 1.385 . S
C966 H952 0.931 . S
C966 C965 1.385 . S
C966 C967 1.389 . S
C967 C966 1.389 . S
C967 C968 1.387 . S
C968 H953 0.930 . S
C968 C963 1.390 . S
C968 C967 1.387 . S
H969 C981 0.930 . S
H970 C983 0.930 . S
H971 C984 0.930 . S
H972 C988 0.959 . S
H973 C988 0.959 . S
H974 C988 0.961 . S
H975 C989 0.960 . S
H976 C989 0.961 . S
H977 C989 0.959 . S
H978 C992 0.929 . S
H979 C993 0.931 . S
H980 C995 0.930 . S
C981 H969 0.930 . S
C981 C982 1.399 . S
C981 C986 1.399 . S
C982 C981 1.399 . S
C982 C983 1.376 . S
C983 H970 0.930 . S
C983 C982 1.376 . S
C983 C984 1.388 . S
C984 H971 0.930 . S
C984 C983 1.388 . S
C984 C985 1.390 . S
C985 C984 1.390 . S
C985 C986 1.394 . S
C985 C991 1.465 . S
C986 C981 1.399 . S
C986 C985 1.394 . S
C986 C987 1.516 . S
C987 C986 1.516 . S
C987 C988 1.502 . S
C987 C989 1.561 . S
C987 C990 1.526 . S
C988 H972 0.959 . S
C988 H973 0.959 . S
C988 H974 0.961 . S
C988 C987 1.502 . S
C989 H975 0.960 . S
C989 H976 0.961 . S
C989 H977 0.959 . S
C989 C987 1.561 . S
C990 C987 1.526 . S
C990 C991 1.396 . S
C990 C995 1.390 . S
C991 C985 1.465 . S
C991 C990 1.396 . S
C991 C992 1.399 . S
C992 H978 0.929 . S
C992 C991 1.399 . S
C992 C993 1.385 . S
C993 H979 0.931 . S
C993 C992 1.385 . S
C993 C994 1.389 . S
C994 C993 1.389 . S
C994 C995 1.387 . S
C995 H980 0.930 . S
C995 C990 1.390 . S
C995 C994 1.387 . S
H996 C1008 0.930 . S
H997 C1010 0.930 . S
H998 C1011 0.930 . S
H999 C1015 0.959 . S
H1000 C1015 0.959 . S
H1001 C1015 0.961 . S
H1002 C1016 0.960 . S
H1003 C1016 0.961 . S
H1004 C1016 0.959 . S
H1005 C1019 0.929 . S
H1006 C1020 0.931 . S
H1007 C1022 0.930 . S
C1008 H996 0.930 . S
C1008 C1009 1.399 . S
C1008 C1013 1.399 . S
C1009 C1008 1.399 . S
C1009 C1010 1.376 . S
C1010 H997 0.930 . S
C1010 C1009 1.376 . S
C1010 C1011 1.388 . S
C1011 H998 0.930 . S
C1011 C1010 1.388 . S
C1011 C1012 1.390 . S
C1012 C1011 1.390 . S
C1012 C1013 1.394 . S
C1012 C1018 1.465 . S
C1013 C1008 1.399 . S
C1013 C1012 1.394 . S
C1013 C1014 1.516 . S
C1014 C1013 1.516 . S
C1014 C1015 1.502 . S
C1014 C1016 1.561 . S
C1014 C1017 1.526 . S
C1015 H999 0.959 . S
C1015 H1000 0.959 . S
C1015 H1001 0.961 . S
C1015 C1014 1.502 . S
C1016 H1002 0.960 . S
C1016 H1003 0.961 . S
C1016 H1004 0.959 . S
C1016 C1014 1.561 . S
C1017 C1014 1.526 . S
C1017 C1018 1.396 . S
C1017 C1022 1.390 . S
C1018 C1012 1.465 . S
C1018 C1017 1.396 . S
C1018 C1019 1.399 . S
C1019 H1005 0.929 . S
C1019 C1018 1.399 . S
C1019 C1020 1.385 . S
C1020 H1006 0.931 . S
C1020 C1019 1.385 . S
C1020 C1021 1.389 . S
C1021 C1020 1.389 . S
C1021 C1022 1.387 . S
C1022 H1007 0.930 . S
C1022 C1017 1.390 . S
C1022 C1021 1.387 . S
H1023 C1035 0.930 . S
H1024 C1037 0.930 . S
H1025 C1038 0.930 . S
H1026 C1042 0.959 . S
H1027 C1042 0.959 . S
H1028 C1042 0.961 . S
H1029 C1043 0.960 . S
H1030 C1043 0.961 . S
H1031 C1043 0.959 . S
H1032 C1046 0.929 . S
H1033 C1047 0.931 . S
H1034 C1049 0.930 . S
C1035 H1023 0.930 . S
C1035 C1036 1.399 . S
C1035 C1040 1.399 . S
C1036 C1035 1.399 . S
C1036 C1037 1.376 . S
C1037 H1024 0.930 . S
C1037 C1036 1.376 . S
C1037 C1038 1.388 . S
C1038 H1025 0.930 . S
C1038 C1037 1.388 . S
C1038 C1039 1.390 . S
C1039 C1038 1.390 . S
C1039 C1040 1.394 . S
C1039 C1045 1.465 . S
C1040 C1035 1.399 . S
C1040 C1039 1.394 . S
C1040 C1041 1.516 . S
C1041 C1040 1.516 . S
C1041 C1042 1.502 . S
C1041 C1043 1.561 . S
C1041 C1044 1.526 . S
C1042 H1026 0.959 . S
C1042 H1027 0.959 . S
C1042 H1028 0.961 . S
C1042 C1041 1.502 . S
C1043 H1029 0.960 . S
C1043 H1030 0.961 . S
C1043 H1031 0.959 . S
C1043 C1041 1.561 . S
C1044 C1041 1.526 . S
C1044 C1045 1.396 . S
C1044 C1049 1.390 . S
C1045 C1039 1.465 . S
C1045 C1044 1.396 . S
C1045 C1046 1.399 . S
C1046 H1032 0.929 . S
C1046 C1045 1.399 . S
C1046 C1047 1.385 . S
C1047 H1033 0.931 . S
C1047 C1046 1.385 . S
C1047 C1048 1.389 . S
C1048 C1047 1.389 . S
C1048 C1049 1.387 . S
C1049 H1034 0.930 . S
C1049 C1044 1.390 . S
C1049 C1048 1.387 . S
H1050 C1062 0.930 . S
H1051 C1064 0.930 . S
H1052 C1065 0.930 . S
H1053 C1069 0.959 . S
H1054 C1069 0.959 . S
H1055 C1069 0.961 . S
H1056 C1070 0.960 . S
H1057 C1070 0.961 . S
H1058 C1070 0.959 . S
H1059 C1073 0.929 . S
H1060 C1074 0.931 . S
H1061 C1076 0.930 . S
C1062 H1050 0.930 . S
C1062 C1063 1.399 . S
C1062 C1067 1.399 . S
C1063 C1062 1.399 . S
C1063 C1064 1.376 . S
C1064 H1051 0.930 . S
C1064 C1063 1.376 . S
C1064 C1065 1.388 . S
C1065 H1052 0.930 . S
C1065 C1064 1.388 . S
C1065 C1066 1.390 . S
C1066 C1065 1.390 . S
C1066 C1067 1.394 . S
C1066 C1072 1.465 . S
C1067 C1062 1.399 . S
C1067 C1066 1.394 . S
C1067 C1068 1.516 . S
C1068 C1067 1.516 . S
C1068 C1069 1.502 . S
C1068 C1070 1.561 . S
C1068 C1071 1.526 . S
C1069 H1053 0.959 . S
C1069 H1054 0.959 . S
C1069 H1055 0.961 . S
C1069 C1068 1.502 . S
C1070 H1056 0.960 . S
C1070 H1057 0.961 . S
C1070 H1058 0.959 . S
C1070 C1068 1.561 . S
C1071 C1068 1.526 . S
C1071 C1072 1.396 . S
C1071 C1076 1.390 . S
C1072 C1066 1.465 . S
C1072 C1071 1.396 . S
C1072 C1073 1.399 . S
C1073 H1059 0.929 . S
C1073 C1072 1.399 . S
C1073 C1074 1.385 . S
C1074 H1060 0.931 . S
C1074 C1073 1.385 . S
C1074 C1075 1.389 . S
C1075 C1074 1.389 . S
C1075 C1076 1.387 . S
C1076 H1061 0.930 . S
C1076 C1071 1.390 . S
C1076 C1075 1.387 . S
H1077 C1089 0.930 . S
H1078 C1091 0.930 . S
H1079 C1092 0.930 . S
H1080 C1096 0.959 . S
H1081 C1096 0.959 . S
H1082 C1096 0.961 . S
H1083 C1097 0.960 . S
H1084 C1097 0.961 . S
H1085 C1097 0.959 . S
H1086 C1100 0.929 . S
H1087 C1101 0.931 . S
H1088 C1103 0.930 . S
C1089 H1077 0.930 . S
C1089 C1090 1.399 . S
C1089 C1094 1.399 . S
C1090 C1089 1.399 . S
C1090 C1091 1.376 . S
C1091 H1078 0.930 . S
C1091 C1090 1.376 . S
C1091 C1092 1.388 . S
C1092 H1079 0.930 . S
C1092 C1091 1.388 . S
C1092 C1093 1.390 . S
C1093 C1092 1.390 . S
C1093 C1094 1.394 . S
C1093 C1099 1.465 . S
C1094 C1089 1.399 . S
C1094 C1093 1.394 . S
C1094 C1095 1.516 . S
C1095 C1094 1.516 . S
C1095 C1096 1.502 . S
C1095 C1097 1.561 . S
C1095 C1098 1.526 . S
C1096 H1080 0.959 . S
C1096 H1081 0.959 . S
C1096 H1082 0.961 . S
C1096 C1095 1.502 . S
C1097 H1083 0.960 . S
C1097 H1084 0.961 . S
C1097 H1085 0.959 . S
C1097 C1095 1.561 . S
C1098 C1095 1.526 . S
C1098 C1099 1.396 . S
C1098 C1103 1.390 . S
C1099 C1093 1.465 . S
C1099 C1098 1.396 . S
C1099 C1100 1.399 . S
C1100 H1086 0.929 . S
C1100 C1099 1.399 . S
C1100 C1101 1.385 . S
C1101 H1087 0.931 . S
C1101 C1100 1.385 . S
C1101 C1102 1.389 . S
C1102 C1101 1.389 . S
C1102 C1103 1.387 . S
C1103 H1088 0.930 . S
C1103 C1098 1.390 . S
C1103 C1102 1.387 . S
H1104 C1116 0.930 . S
H1105 C1118 0.930 . S
H1106 C1119 0.930 . S
H1107 C1123 0.959 . S
H1108 C1123 0.959 . S
H1109 C1123 0.961 . S
H1110 C1124 0.960 . S
H1111 C1124 0.961 . S
H1112 C1124 0.959 . S
H1113 C1127 0.929 . S
H1114 C1128 0.931 . S
H1115 C1130 0.930 . S
C1116 H1104 0.930 . S
C1116 C1117 1.399 . S
C1116 C1121 1.399 . S
C1117 C1116 1.399 . S
C1117 C1118 1.376 . S
C1118 H1105 0.930 . S
C1118 C1117 1.376 . S
C1118 C1119 1.388 . S
C1119 H1106 0.930 . S
C1119 C1118 1.388 . S
C1119 C1120 1.390 . S
C1120 C1119 1.390 . S
C1120 C1121 1.394 . S
C1120 C1126 1.465 . S
C1121 C1116 1.399 . S
C1121 C1120 1.394 . S
C1121 C1122 1.516 . S
C1122 C1121 1.516 . S
C1122 C1123 1.502 . S
C1122 C1124 1.561 . S
C1122 C1125 1.526 . S
C1123 H1107 0.959 . S
C1123 H1108 0.959 . S
C1123 H1109 0.961 . S
C1123 C1122 1.502 . S
C1124 H1110 0.960 . S
C1124 H1111 0.961 . S
C1124 H1112 0.959 . S
C1124 C1122 1.561 . S
C1125 C1122 1.526 . S
C1125 C1126 1.396 . S
C1125 C1130 1.390 . S
C1126 C1120 1.465 . S
C1126 C1125 1.396 . S
C1126 C1127 1.399 . S
C1127 H1113 0.929 . S
C1127 C1126 1.399 . S
C1127 C1128 1.385 . S
C1128 H1114 0.931 . S
C1128 C1127 1.385 . S
C1128 C1129 1.389 . S
C1129 C1128 1.389 . S
C1129 C1130 1.387 . S
C1130 H1115 0.930 . S
C1130 C1125 1.390 . S
C1130 C1129 1.387 . S
H1131 C1143 0.930 . S
H1132 C1145 0.930 . S
H1133 C1146 0.930 . S
H1134 C1150 0.959 . S
H1135 C1150 0.959 . S
H1136 C1150 0.961 . S
H1137 C1151 0.960 . S
H1138 C1151 0.961 . S
H1139 C1151 0.959 . S
H1140 C1154 0.929 . S
H1141 C1155 0.931 . S
H1142 C1157 0.930 . S
C1143 H1131 0.930 . S
C1143 C1144 1.399 . S
C1143 C1148 1.399 . S
C1144 C1143 1.399 . S
C1144 C1145 1.376 . S
C1145 H1132 0.930 . S
C1145 C1144 1.376 . S
C1145 C1146 1.388 . S
C1146 H1133 0.930 . S
C1146 C1145 1.388 . S
C1146 C1147 1.390 . S
C1147 C1146 1.390 . S
C1147 C1148 1.394 . S
C1147 C1153 1.465 . S
C1148 C1143 1.399 . S
C1148 C1147 1.394 . S
C1148 C1149 1.516 . S
C1149 C1148 1.516 . S
C1149 C1150 1.502 . S
C1149 C1151 1.561 . S
C1149 C1152 1.526 . S
C1150 H1134 0.959 . S
C1150 H1135 0.959 . S
C1150 H1136 0.961 . S
C1150 C1149 1.502 . S
C1151 H1137 0.960 . S
C1151 H1138 0.961 . S
C1151 H1139 0.959 . S
C1151 C1149 1.561 . S
C1152 C1149 1.526 . S
C1152 C1153 1.396 . S
C1152 C1157 1.390 . S
C1153 C1147 1.465 . S
C1153 C1152 1.396 . S
C1153 C1154 1.399 . S
C1154 H1140 0.929 . S
C1154 C1153 1.399 . S
C1154 C1155 1.385 . S
C1155 H1141 0.931 . S
C1155 C1154 1.385 . S
C1155 C1156 1.389 . S
C1156 C1155 1.389 . S
C1156 C1157 1.387 . S
C1157 H1142 0.930 . S
C1157 C1152 1.390 . S
C1157 C1156 1.387 . S
H1158 C1170 0.930 . S
H1159 C1172 0.930 . S
H1160 C1173 0.930 . S
H1161 C1177 0.959 . S
H1162 C1177 0.959 . S
H1163 C1177 0.961 . S
H1164 C1178 0.960 . S
H1165 C1178 0.961 . S
H1166 C1178 0.959 . S
H1167 C1181 0.929 . S
H1168 C1182 0.931 . S
H1169 C1184 0.930 . S
C1170 H1158 0.930 . S
C1170 C1171 1.399 . S
C1170 C1175 1.399 . S
C1171 C1170 1.399 . S
C1171 C1172 1.376 . S
C1172 H1159 0.930 . S
C1172 C1171 1.376 . S
C1172 C1173 1.388 . S
C1173 H1160 0.930 . S
C1173 C1172 1.388 . S
C1173 C1174 1.390 . S
C1174 C1173 1.390 . S
C1174 C1175 1.394 . S
C1174 C1180 1.465 . S
C1175 C1170 1.399 . S
C1175 C1174 1.394 . S
C1175 C1176 1.516 . S
C1176 C1175 1.516 . S
C1176 C1177 1.502 . S
C1176 C1178 1.561 . S
C1176 C1179 1.526 . S
C1177 H1161 0.959 . S
C1177 H1162 0.959 . S
C1177 H1163 0.961 . S
C1177 C1176 1.502 . S
C1178 H1164 0.960 . S
C1178 H1165 0.961 . S
C1178 H1166 0.959 . S
C1178 C1176 1.561 . S
C1179 C1176 1.526 . S
C1179 C1180 1.396 . S
C1179 C1184 1.390 . S
C1180 C1174 1.465 . S
C1180 C1179 1.396 . S
C1180 C1181 1.399 . S
C1181 H1167 0.929 . S
C1181 C1180 1.399 . S
C1181 C1182 1.385 . S
C1182 H1168 0.931 . S
C1182 C1181 1.385 . S
C1182 C1183 1.389 . S
C1183 C1182 1.389 . S
C1183 C1184 1.387 . S
C1184 H1169 0.930 . S
C1184 C1179 1.390 . S
C1184 C1183 1.387 . S
H1185 C1197 0.930 . S
H1186 C1199 0.930 . S
H1187 C1200 0.930 . S
H1188 C1204 0.959 . S
H1189 C1204 0.959 . S
H1190 C1204 0.961 . S
H1191 C1205 0.960 . S
H1192 C1205 0.961 . S
H1193 C1205 0.959 . S
H1194 C1208 0.929 . S
H1195 C1209 0.931 . S
H1196 C1211 0.930 . S
C1197 H1185 0.930 . S
C1197 C1198 1.399 . S
C1197 C1202 1.399 . S
C1198 C1197 1.399 . S
C1198 C1199 1.376 . S
C1199 H1186 0.930 . S
C1199 C1198 1.376 . S
C1199 C1200 1.388 . S
C1200 H1187 0.930 . S
C1200 C1199 1.388 . S
C1200 C1201 1.390 . S
C1201 C1200 1.390 . S
C1201 C1202 1.394 . S
C1201 C1207 1.465 . S
C1202 C1197 1.399 . S
C1202 C1201 1.394 . S
C1202 C1203 1.516 . S
C1203 C1202 1.516 . S
C1203 C1204 1.502 . S
C1203 C1205 1.561 . S
C1203 C1206 1.526 . S
C1204 H1188 0.959 . S
C1204 H1189 0.959 . S
C1204 H1190 0.961 . S
C1204 C1203 1.502 . S
C1205 H1191 0.960 . S
C1205 H1192 0.961 . S
C1205 H1193 0.959 . S
C1205 C1203 1.561 . S
C1206 C1203 1.526 . S
C1206 C1207 1.396 . S
C1206 C1211 1.390 . S
C1207 C1201 1.465 . S
C1207 C1206 1.396 . S
C1207 C1208 1.399 . S
C1208 H1194 0.929 . S
C1208 C1207 1.399 . S
C1208 C1209 1.385 . S
C1209 H1195 0.931 . S
C1209 C1208 1.385 . S
C1209 C1210 1.389 . S
C1210 C1209 1.389 . S
C1210 C1211 1.387 . S
C1211 H1196 0.930 . S
C1211 C1206 1.390 . S
C1211 C1210 1.387 . S
C253 C105 1.573 . S
C265 C5 1.553 . S
C280 C34 1.505 . S
C292 C14 1.469 . S
C307 C45 1.583 . S
C319 C25 1.582 . S
C334 C54 1.566 . S
C346 C74 1.565 . S
C361 C65 1.466 . S
C373 C85 1.476 . S
C388 C114 1.607 . S
C400 C94 1.584 . S
C415 C145 1.549 . S
C427 C125 1.539 . S
C442 C154 1.607 . S
C454 C174 1.591 . S
C469 C185 1.489 . S
C481 C165 1.456 . S
C496 C214 1.538 . S
C508 C194 1.570 . S
C523 C225 1.606 . S
C535 C205 1.570 . S
C550 C134 1.474 . S
C562 C234 1.466 . S
C577 C233 2.059 . S
C589 C8 2.006 . S
C604 C37 1.875 . S
C616 C122 1.912 . S
C631 C153 1.944 . S
C643 C48 1.894 . S
C658 C162 2.058 . S
C670 C77 2.005 . S
C685 C193 1.866 . S
C697 C88 1.815 . S
C712 C117 1.951 . S
C724 C202 1.988 . S
C739 C128 1.999 . S
C751 C33 2.059 . S
C766 C157 1.929 . S
C778 C42 1.973 . S
C793 C73 1.888 . S
C805 C168 1.844 . S
C820 C82 2.058 . S
C832 C197 2.010 . S
C847 C208 1.902 . S
C859 C113 1.946 . S
C874 C237 1.868 . S
C886 C2 1.910 . S
C901 C133 2.790 . S
C913 C13 2.792 . S
C928 C22 2.477 . S
C940 C142 2.491 . S
C955 C173 2.493 . S
C967 C53 2.504 . S
C982 C62 2.772 . S
C994 C182 2.779 . S
C1009 C213 2.456 . S
C1021 C93 2.453 . S
C1036 C222 2.498 . S
C1048 C102 2.508 . S
C1063 C137 1.217 . S
C1075 C17 1.210 . S
C1090 C148 1.406 . S
C1102 C28 1.393 . S
C1117 C177 1.395 . S
C1129 C57 1.389 . S
C1144 C68 1.281 . S
C1156 C188 1.302 . S
C1171 C217 1.410 . S
C1183 C97 1.440 . S
C1198 C228 1.445 . S
C1210 C108 1.410 . S
