# Generated by pormake.
# Topology zfw, (5)-cn, num edge types: 1
# Building blocks:
#     Node 0, Type 0, BuildingBlock: BEQFEK_clean_sbu_0, # of connection points: 5
#     Node 1, Type 0, BuildingBlock: BEQFEK_clean_sbu_0, # of connection points: 5
#     Node 2, Type 0, BuildingBlock: BEQFEK_clean_sbu_0, # of connection points: 5
#     Node 3, Type 0, BuildingBlock: BEQFEK_clean_sbu_0, # of connection points: 5
#     Node 4, Type 0, BuildingBlock: BEQFEK_clean_sbu_0, # of connection points: 5
#     Node 5, Type 0, BuildingBlock: BEQFEK_clean_sbu_0, # of connection points: 5
#     Node 6, Type 0, BuildingBlock: BEQFEK_clean_sbu_0, # of connection points: 5
#     Node 7, Type 0, BuildingBlock: BEQFEK_clean_sbu_0, # of connection points: 5
#     Node 8, Type 0, BuildingBlock: BEQFEK_clean_sbu_0, # of connection points: 5
#     Node 9, Type 0, BuildingBlock: BEQFEK_clean_sbu_0, # of connection points: 5
#     Node 10, Type 0, BuildingBlock: BEQFEK_clean_sbu_0, # of connection points: 5
#     Node 11, Type 0, BuildingBlock: BEQFEK_clean_sbu_0, # of connection points: 5
#     Node 12, Type 0, BuildingBlock: BEQFEK_clean_sbu_0, # of connection points: 5
#     Node 13, Type 0, BuildingBlock: BEQFEK_clean_sbu_0, # of connection points: 5
#     Node 14, Type 0, BuildingBlock: BEQFEK_clean_sbu_0, # of connection points: 5
#     Node 15, Type 0, BuildingBlock: BEQFEK_clean_sbu_0, # of connection points: 5
#     Edge 16, Type (0, 0), BuildingBlock: EZIPEK_clean_linker_0, # of connection points: 2
#     Edge 17, Type (0, 0), BuildingBlock: EZIPEK_clean_linker_0, # of connection points: 2
#     Edge 18, Type (0, 0), BuildingBlock: EZIPEK_clean_linker_0, # of connection points: 2
#     Edge 19, Type (0, 0), BuildingBlock: EZIPEK_clean_linker_0, # of connection points: 2
#     Edge 20, Type (0, 0), BuildingBlock: EZIPEK_clean_linker_0, # of connection points: 2
#     Edge 21, Type (0, 0), BuildingBlock: EZIPEK_clean_linker_0, # of connection points: 2
#     Edge 22, Type (0, 0), BuildingBlock: EZIPEK_clean_linker_0, # of connection points: 2
#     Edge 23, Type (0, 0), BuildingBlock: EZIPEK_clean_linker_0, # of connection points: 2
#     Edge 24, Type (0, 0), BuildingBlock: EZIPEK_clean_linker_0, # of connection points: 2
#     Edge 25, Type (0, 0), BuildingBlock: EZIPEK_clean_linker_0, # of connection points: 2
#     Edge 26, Type (0, 0), BuildingBlock: EZIPEK_clean_linker_0, # of connection points: 2
#     Edge 27, Type (0, 0), BuildingBlock: EZIPEK_clean_linker_0, # of connection points: 2
#     Edge 28, Type (0, 0), BuildingBlock: EZIPEK_clean_linker_0, # of connection points: 2
#     Edge 29, Type (0, 0), BuildingBlock: EZIPEK_clean_linker_0, # of connection points: 2
#     Edge 30, Type (0, 0), BuildingBlock: EZIPEK_clean_linker_0, # of connection points: 2
#     Edge 31, Type (0, 0), BuildingBlock: EZIPEK_clean_linker_0, # of connection points: 2
#     Edge 32, Type (0, 0), BuildingBlock: EZIPEK_clean_linker_0, # of connection points: 2
#     Edge 33, Type (0, 0), BuildingBlock: EZIPEK_clean_linker_0, # of connection points: 2
#     Edge 34, Type (0, 0), BuildingBlock: EZIPEK_clean_linker_0, # of connection points: 2
#     Edge 35, Type (0, 0), BuildingBlock: EZIPEK_clean_linker_0, # of connection points: 2
#     Edge 36, Type (0, 0), BuildingBlock: EZIPEK_clean_linker_0, # of connection points: 2
#     Edge 37, Type (0, 0), BuildingBlock: EZIPEK_clean_linker_0, # of connection points: 2
#     Edge 38, Type (0, 0), BuildingBlock: EZIPEK_clean_linker_0, # of connection points: 2
#     Edge 39, Type (0, 0), BuildingBlock: EZIPEK_clean_linker_0, # of connection points: 2
#     Edge 40, Type (0, 0), BuildingBlock: EZIPEK_clean_linker_0, # of connection points: 2
#     Edge 41, Type (0, 0), BuildingBlock: EZIPEK_clean_linker_0, # of connection points: 2
#     Edge 42, Type (0, 0), BuildingBlock: EZIPEK_clean_linker_0, # of connection points: 2
#     Edge 43, Type (0, 0), BuildingBlock: EZIPEK_clean_linker_0, # of connection points: 2
#     Edge 44, Type (0, 0), BuildingBlock: EZIPEK_clean_linker_0, # of connection points: 2
#     Edge 45, Type (0, 0), BuildingBlock: EZIPEK_clean_linker_0, # of connection points: 2
#     Edge 46, Type (0, 0), BuildingBlock: EZIPEK_clean_linker_0, # of connection points: 2
#     Edge 47, Type (0, 0), BuildingBlock: EZIPEK_clean_linker_0, # of connection points: 2
#     Edge 48, Type (0, 0), BuildingBlock: EZIPEK_clean_linker_0, # of connection points: 2
#     Edge 49, Type (0, 0), BuildingBlock: EZIPEK_clean_linker_0, # of connection points: 2
#     Edge 50, Type (0, 0), BuildingBlock: EZIPEK_clean_linker_0, # of connection points: 2
#     Edge 51, Type (0, 0), BuildingBlock: EZIPEK_clean_linker_0, # of connection points: 2
#     Edge 52, Type (0, 0), BuildingBlock: EZIPEK_clean_linker_0, # of connection points: 2
#     Edge 53, Type (0, 0), BuildingBlock: EZIPEK_clean_linker_0, # of connection points: 2
#     Edge 54, Type (0, 0), BuildingBlock: EZIPEK_clean_linker_0, # of connection points: 2
#     Edge 55, Type (0, 0), BuildingBlock: EZIPEK_clean_linker_0, # of connection points: 2
# Relax obj value: 0.430
# Max RMSD: 0.240
# Mean RMSD: 0.240
data_MOF--net-zfw--node1-BEQFEK_clean_sbu_0--edge1-EZIPEK_clean_linker_0
_symmetry_space_group_name_H-M    P1
_symmetry_Int_Tables_number       1
_symmetry_cell_setting            triclinic
loop_
_symmetry_equiv_pos_as_xyz
'x, y, z'
_cell_length_a     50.830654
_cell_length_b     50.854156
_cell_length_c     14.167759
_cell_angle_alpha  90.014039
_cell_angle_beta   90.068566
_cell_angle_gamma 89.976164
loop_
_atom_site_label
_atom_site_type_symbol
_atom_site_fract_x
_atom_site_fract_y
_atom_site_fract_z
_atom_type_partial_charge
Co0 Co 0.00799 0.09715 0.35562 0.0
Co1 Co 0.00659 0.12399 0.15717 0.0
C2 C 0.96821 0.13826 0.30846 0.0
O3 O 0.97927 0.12243 0.36465 0.0
O4 O 0.97573 0.14041 0.22308 0.0
C5 C 0.98441 0.07715 0.51804 0.0
O6 O 0.96337 0.08074 0.4659 0.0
C7 C 0.98891 0.12139 0.96206 0.0
C8 C 0.01891 0.14476 0.88725 0.0
C9 C 0.99849 0.1271 0.8729 0.0
N10 N 0.00414 0.13346 0.02642 0.0
N11 N 0.02143 0.14822 0.98119 0.0
C12 C 0.9666 0.10331 0.9858 0.0
H13 H 0.96613 0.09891 0.06242 0.0
H14 H 0.96779 0.08489 0.94404 0.0
H15 H 0.94782 0.11305 0.96645 0.0
C16 C 0.0061 0.04855 0.23723 0.0
N17 N 0.0054 0.0749 0.24906 0.0
N18 N 0.00867 0.08638 0.16672 0.0
C19 C 0.01381 0.06772 0.10169 0.0
C20 C 0.01125 0.04327 0.14278 0.0
C21 C 0.00389 0.02907 0.31575 0.0
H22 H 0.98597 0.03332 0.35772 0.0
H23 H 0.00314 0.00862 0.28841 0.0
H24 H 0.02109 0.03125 0.36344 0.0
O25 O 0.04117 0.11816 0.35034 0.0
O26 O 0.03904 0.1387 0.21299 0.0
H27 H 0.03387 0.09296 0.00453 0.0
H28 H 0.04221 0.05898 0.99352 0.0
C29 C 0.0258 0.0728 0.00726 0.0
H30 H 0.01101 0.06948 0.95112 0.0
H31 H 0.03619 0.1591 0.01429 0.0
O32 O 0.00674 0.07877 0.47782 0.0
C33 C 0.05116 0.13387 0.28992 0.0
Co34 Co 0.15842 0.74447 0.5775 0.0
Co35 Co 0.13031 0.75271 0.38882 0.0
C36 C 0.12134 0.70541 0.5183 0.0
O37 O 0.14155 0.71033 0.56677 0.0
O38 O 0.11447 0.72053 0.45091 0.0
C39 C 0.17643 0.72299 0.74725 0.0
O40 O 0.17618 0.70077 0.70018 0.0
C41 C 0.13327 0.73056 0.20505 0.0
C42 C 0.12099 0.76344 0.11328 0.0
C43 C 0.13313 0.73897 0.11232 0.0
N44 N 0.12314 0.74981 0.2588 0.0
N45 N 0.11513 0.76914 0.2036 0.0
C46 C 0.14357 0.70514 0.24361 0.0
H47 H 0.12748 0.69481 0.28129 0.0
H48 H 0.15927 0.70917 0.29611 0.0
H49 H 0.15125 0.69226 0.18669 0.0
C50 C 0.20636 0.75137 0.45343 0.0
N51 N 0.18037 0.75056 0.47295 0.0
N52 N 0.16728 0.75762 0.39727 0.0
C53 C 0.18428 0.76581 0.33089 0.0
C54 C 0.20959 0.76093 0.36193 0.0
C55 C 0.22756 0.7432 0.52039 0.0
H56 H 0.21942 0.73042 0.57673 0.0
H57 H 0.24352 0.73283 0.48202 0.0
H58 H 0.23618 0.76102 0.55337 0.0
O59 O 0.12991 0.77261 0.58783 0.0
O60 O 0.11383 0.78299 0.44648 0.0
H61 H 0.15812 0.79325 0.26387 0.0
H62 H 0.19222 0.79763 0.23402 0.0
C63 C 0.17679 0.78281 0.24868 0.0
H64 H 0.17437 0.77103 0.18414 0.0
H65 H 0.10765 0.787 0.22804 0.0
O66 O 0.1757 0.74461 0.70228 0.0
C67 C 0.11475 0.78645 0.53532 0.0
Co68 Co 0.51136 0.90039 0.8262 0.0
Co69 Co 0.5052 0.87417 0.63166 0.0
C70 C 0.55016 0.86104 0.76242 0.0
O71 O 0.54291 0.87844 0.8203 0.0
O72 O 0.5377 0.85759 0.68573 0.0
C73 C 0.53492 0.91741 0.99127 0.0
O74 O 0.55654 0.91546 0.94125 0.0
C75 C 0.52709 0.87522 0.4485 0.0
C76 C 0.49295 0.86679 0.35685 0.0
C77 C 0.51863 0.87611 0.35613 0.0
N78 N 0.50685 0.86729 0.5021 0.0
N79 N 0.48669 0.86152 0.44708 0.0
C80 C 0.5536 0.88248 0.4867 0.0
H81 H 0.56259 0.86493 0.52023 0.0
H82 H 0.55137 0.89772 0.54225 0.0
H83 H 0.56688 0.88965 0.43018 0.0
C84 C 0.50842 0.94929 0.70789 0.0
N85 N 0.5087 0.92305 0.72177 0.0
N86 N 0.50226 0.91128 0.64263 0.0
C87 C 0.49522 0.92953 0.57859 0.0
C88 C 0.49995 0.95414 0.61608 0.0
C89 C 0.51509 0.96912 0.78191 0.0
H90 H 0.49859 0.97035 0.83297 0.0
H91 H 0.53284 0.96267 0.82129 0.0
H92 H 0.51836 0.98884 0.75043 0.0
O93 O 0.48019 0.87591 0.83336 0.0
O94 O 0.47469 0.85798 0.69123 0.0
H95 H 0.46626 0.90671 0.50501 0.0
H96 H 0.46667 0.94096 0.47274 0.0
C97 C 0.47914 0.92392 0.49219 0.0
H98 H 0.49192 0.91967 0.43157 0.0
H99 H 0.46814 0.85602 0.47162 0.0
O100 O 0.51285 0.91814 0.94925 0.0
C101 C 0.46784 0.86062 0.77715 0.0
Co102 Co 0.34318 0.25299 0.11896 0.0
Co103 Co 0.37214 0.24583 0.92733 0.0
C104 C 0.38132 0.2919 0.0629 0.0
O105 O 0.36111 0.28682 0.11131 0.0
O106 O 0.38757 0.2774 0.99306 0.0
C107 C 0.32364 0.27392 0.29078 0.0
O108 O 0.32702 0.29624 0.24609 0.0
C109 C 0.36827 0.2634 0.73371 0.0
C110 C 0.39297 0.23508 0.65591 0.0
C111 C 0.37428 0.25472 0.64362 0.0
N112 N 0.38138 0.24853 0.79654 0.0
N113 N 0.39681 0.23219 0.74963 0.0
C114 C 0.34854 0.28406 0.75984 0.0
H115 H 0.34587 0.28509 0.83743 0.0
H116 H 0.32944 0.28022 0.72446 0.0
H117 H 0.35558 0.30347 0.73468 0.0
C118 C 0.2957 0.24688 0.99281 0.0
N119 N 0.32176 0.24738 0.01178 0.0
N120 N 0.33473 0.241 0.93487 0.0
C121 C 0.31733 0.23389 0.86783 0.0
C122 C 0.29217 0.23855 0.89996 0.0
C123 C 0.27478 0.25506 0.06073 0.0
H124 H 0.27949 0.24757 0.13233 0.0
H125 H 0.27427 0.27685 0.06439 0.0
H126 H 0.25519 0.24781 0.03777 0.0
O127 O 0.37108 0.22455 0.12997 0.0
O128 O 0.38889 0.21623 0.98916 0.0
H129 H 0.31142 0.20335 0.76561 0.0
H130 H 0.32026 0.2344 0.7175 0.0
C131 C 0.32416 0.22076 0.7768 0.0
H132 H 0.34484 0.214 0.77717 0.0
H133 H 0.40846 0.21779 0.78137 0.0
O134 O 0.32506 0.25276 0.24286 0.0
C135 C 0.38684 0.21159 0.07716 0.0
Co136 Co 1.00015 0.90095 0.68274 0.0
Co137 Co 0.00982 0.87254 0.87181 0.0
C138 C 0.96249 0.86155 0.74653 0.0
O139 O 0.96789 0.88062 0.69303 0.0
O140 O 0.9769 0.85645 0.81759 0.0
C141 C 0.97713 0.91698 0.51341 0.0
O142 O 0.95498 0.91397 0.55962 0.0
C143 C 0.98893 0.8743 0.05665 0.0
C144 C 0.02291 0.8642 0.14675 0.0
C145 C 0.99773 0.87479 0.14878 0.0
N146 N 0.00853 0.86533 0.00194 0.0
N147 N 0.02859 0.85862 0.05613 0.0
C148 C 0.96276 0.88312 0.01959 0.0
H149 H 0.95272 0.86618 0.9859 0.0
H150 H 0.96566 0.8983 0.96431 0.0
H151 H 0.95006 0.89096 0.07673 0.0
C152 C 0.00508 0.94859 0.80803 0.0
N153 N 0.00524 0.92261 0.78857 0.0
N154 N 0.01347 0.90982 0.8634 0.0
C155 C 0.0213 0.92722 0.92929 0.0
C156 C 0.01513 0.95228 0.89858 0.0
C157 C 0.99583 0.96942 0.74147 0.0
H158 H 0.01319 0.97966 0.71144 0.0
H159 H 0.98418 0.96064 0.68315 0.0
H160 H 0.98389 0.98425 0.77979 0.0
O161 O 0.0301 0.87518 0.6694 0.0
O162 O 0.03929 0.85587 0.80681 0.0
H163 H 0.05059 0.90264 0.99378 0.0
H164 H 0.05292 0.93685 0.0253 0.0
C165 C 0.03907 0.92056 0.01038 0.0
H166 H 0.02771 0.91716 0.07526 0.0
H167 H 0.04677 0.85224 0.03078 0.0
O168 O 0.99857 0.91875 0.55922 0.0
C169 C 0.04375 0.85929 0.71926 0.0
Co170 Co 0.34842 0.74863 0.88272 0.0
Co171 Co 0.37735 0.75149 0.07727 0.0
C172 C 0.38802 0.70842 0.93697 0.0
O173 O 0.37141 0.71791 0.87969 0.0
O174 O 0.39156 0.71848 0.01841 0.0
C175 C 0.33009 0.72694 0.71401 0.0
O176 O 0.32668 0.70448 0.75802 0.0
C177 C 0.37693 0.73626 0.27431 0.0
C178 C 0.4 0.76773 0.34269 0.0
C179 C 0.38349 0.74666 0.36142 0.0
N180 N 0.3878 0.75128 0.20685 0.0
N181 N 0.40227 0.76959 0.24808 0.0
C182 C 0.3589 0.71356 0.25553 0.0
H183 H 0.35334 0.71263 0.17987 0.0
H184 H 0.34108 0.71483 0.30046 0.0
H185 H 0.3692 0.69506 0.27453 0.0
C186 C 0.30101 0.75124 0.00781 0.0
N187 N 0.32718 0.7504 0.99167 0.0
N188 N 0.33976 0.75533 0.07093 0.0
C189 C 0.32196 0.76154 0.13767 0.0
C190 C 0.29698 0.75815 0.10166 0.0
C191 C 0.2805 0.74632 0.93431 0.0
H192 H 0.28279 0.76083 0.87644 0.0
H193 H 0.28351 0.72648 0.90347 0.0
H194 H 0.26038 0.74779 0.96433 0.0
O195 O 0.37207 0.7797 0.8749 0.0
O196 O 0.39431 0.78096 0.01044 0.0
H197 H 0.3144 0.78983 0.24713 0.0
H198 H 0.32569 0.75865 0.28705 0.0
C199 C 0.32822 0.77358 0.23101 0.0
H200 H 0.34834 0.7818 0.23085 0.0
H201 H 0.41213 0.78447 0.21185 0.0
O202 O 0.32995 0.74819 0.7613 0.0
C203 C 0.3896 0.78979 0.92804 0.0
Co204 Co 0.50548 0.10065 0.16951 0.0
Co205 Co 0.50651 0.12807 0.36772 0.0
C206 C 0.54652 0.14029 0.22004 0.0
O207 O 0.53488 0.12504 0.16336 0.0
O208 O 0.539 0.14263 0.30541 0.0
C209 C 0.52892 0.0807 0.00616 0.0
O210 O 0.55014 0.08448 0.05716 0.0
C211 C 0.52343 0.1253 0.56308 0.0
C212 C 0.49331 0.14866 0.63743 0.0
C213 C 0.51372 0.13098 0.65209 0.0
N214 N 0.50834 0.13746 0.49852 0.0
N215 N 0.49094 0.15217 0.54343 0.0
C216 C 0.54559 0.10699 0.53952 0.0
H217 H 0.54584 0.1023 0.46309 0.0
H218 H 0.54438 0.08872 0.58209 0.0
H219 H 0.56446 0.11668 0.55782 0.0
C220 C 0.50569 0.0525 0.28918 0.0
N221 N 0.50642 0.0788 0.27672 0.0
N222 N 0.50278 0.09051 0.35847 0.0
C223 C 0.49741 0.07198 0.42374 0.0
C224 C 0.50013 0.04744 0.38338 0.0
C225 C 0.50895 0.03286 0.21165 0.0
H226 H 0.52729 0.03717 0.17214 0.0
H227 H 0.50958 0.01247 0.23964 0.0
H228 H 0.49228 0.03478 0.16146 0.0
O229 O 0.47339 0.123 0.17037 0.0
O230 O 0.47572 0.14499 0.30659 0.0
H231 H 0.47775 0.09742 0.52141 0.0
H232 H 0.46942 0.0634 0.53315 0.0
C233 C 0.48576 0.07723 0.51858 0.0
H234 H 0.50075 0.07394 0.57407 0.0
H235 H 0.4762 0.16302 0.51002 0.0
O236 O 0.50675 0.08207 0.04762 0.0
C237 C 0.46458 0.14021 0.22771 0.0
Co238 Co 0.15811 0.25827 0.40696 0.0
Co239 Co 0.12749 0.2509 0.59358 0.0
C240 C 0.11802 0.29685 0.46297 0.0
O241 O 0.1376 0.29053 0.4134 0.0
O242 O 0.11144 0.28324 0.53439 0.0
C243 C 0.17446 0.28074 0.2364 0.0
O244 O 0.17183 0.30299 0.28235 0.0
C245 C 0.13067 0.27218 0.7783 0.0
C246 C 0.11778 0.23937 0.86901 0.0
C247 C 0.13051 0.26353 0.87073 0.0
N248 N 0.12001 0.25334 0.72385 0.0
N249 N 0.11164 0.23405 0.7785 0.0
C250 C 0.14156 0.29746 0.74079 0.0
H251 H 0.12579 0.3082 0.70269 0.0
H252 H 0.15735 0.29327 0.68895 0.0
H253 H 0.14935 0.31007 0.79837 0.0
C254 C 0.20469 0.25258 0.53789 0.0
N255 N 0.17891 0.254 0.51533 0.0
N256 N 0.16497 0.24666 0.58869 0.0
C257 C 0.18127 0.2377 0.65633 0.0
C258 C 0.20694 0.24242 0.6289 0.0
C259 C 0.22671 0.25972 0.47306 0.0
H260 H 0.21905 0.26902 0.40769 0.0
H261 H 0.24046 0.27332 0.50947 0.0
H262 H 0.23793 0.24171 0.45466 0.0
O263 O 0.13356 0.22722 0.3968 0.0
O264 O 0.11158 0.2205 0.53076 0.0
H265 H 0.15391 0.21 0.71521 0.0
H266 H 0.18762 0.20381 0.74556 0.0
C267 C 0.17285 0.21947 0.73387 0.0
H268 H 0.17067 0.23002 0.80125 0.0
H269 H 0.10379 0.21641 0.75353 0.0
O270 O 0.17598 0.25936 0.28273 0.0
C271 C 0.11688 0.21426 0.44572 0.0
Co272 Co 0.85762 0.24888 0.42608 0.0
Co273 Co 0.88216 0.25357 0.62553 0.0
C274 C 0.8955 0.20976 0.48708 0.0
O275 O 0.87777 0.21687 0.43032 0.0
O276 O 0.89984 0.22245 0.56297 0.0
C277 C 0.83667 0.22439 0.2667 0.0
O278 O 0.83263 0.2047 0.32486 0.0
C279 C 0.87739 0.23031 0.809 0.0
C280 C 0.89167 0.26157 0.9043 0.0
C281 C 0.87833 0.23778 0.90284 0.0
N282 N 0.88838 0.24947 0.75693 0.0
N283 N 0.89764 0.26775 0.81432 0.0
C284 C 0.86492 0.20617 0.76817 0.0
H285 H 0.84863 0.21186 0.7202 0.0
H286 H 0.85732 0.19301 0.82436 0.0
H287 H 0.87966 0.19547 0.7251 0.0
C288 C 0.80752 0.25194 0.53678 0.0
N289 N 0.83394 0.25137 0.52772 0.0
N290 N 0.84478 0.25723 0.60935 0.0
C291 C 0.82561 0.26414 0.67035 0.0
C292 C 0.80149 0.25983 0.62816 0.0
C293 C 0.78859 0.24568 0.45919 0.0
H294 H 0.79409 0.25674 0.39467 0.0
H295 H 0.78992 0.22441 0.4424 0.0
H296 H 0.76808 0.25054 0.47979 0.0
O297 O 0.88366 0.27884 0.42656 0.0
O298 O 0.89903 0.28481 0.57267 0.0
H299 H 0.82913 0.3016 0.73622 0.0
H300 H 0.81348 0.27749 0.80872 0.0
C301 C 0.82956 0.28057 0.75708 0.0
H302 H 0.84861 0.27697 0.7907 0.0
H303 H 0.90609 0.28536 0.79179 0.0
O304 O 0.84189 0.24706 0.29963 0.0
C305 C 0.89828 0.29106 0.48559 0.0
Co306 Co 0.66061 0.75023 0.89356 0.0
Co307 Co 0.63157 0.74686 0.08753 0.0
C308 C 0.62147 0.79061 0.9506 0.0
O309 O 0.63774 0.78081 0.89299 0.0
O310 O 0.61781 0.78056 0.03193 0.0
C311 C 0.67756 0.77237 0.72432 0.0
O312 O 0.67995 0.79512 0.7673 0.0
C313 C 0.63113 0.76128 0.28524 0.0
C314 C 0.609 0.72882 0.35138 0.0
C315 C 0.62467 0.75042 0.37164 0.0
N316 N 0.62098 0.7461 0.21674 0.0
N317 N 0.60707 0.72715 0.2566 0.0
C318 C 0.6484 0.78465 0.26805 0.0
H319 H 0.65485 0.78545 0.19335 0.0
H320 H 0.66569 0.78437 0.31596 0.0
H321 H 0.63708 0.80276 0.28401 0.0
C322 C 0.70789 0.74818 0.01888 0.0
N323 N 0.68173 0.74811 0.00243 0.0
N324 N 0.66925 0.74294 0.08158 0.0
C325 C 0.68725 0.73749 0.14872 0.0
C326 C 0.71211 0.74159 0.11288 0.0
C327 C 0.72821 0.75411 0.94583 0.0
H328 H 0.72825 0.73814 0.89241 0.0
H329 H 0.72299 0.77263 0.90887 0.0
H330 H 0.74812 0.75578 0.97768 0.0
O331 O 0.63685 0.71943 0.883 0.0
O332 O 0.61402 0.71823 0.017 0.0
H333 H 0.69599 0.71037 0.26057 0.0
H334 H 0.6832 0.74124 0.29773 0.0
C335 C 0.68142 0.72584 0.24292 0.0
H336 H 0.66166 0.71678 0.24297 0.0
H337 H 0.59782 0.71205 0.21934 0.0
O338 O 0.67908 0.7513 0.77233 0.0
C339 C 0.61877 0.70966 0.93428 0.0
Co340 Co 0.65633 0.24795 0.07679 0.0
Co341 Co 0.62836 0.25302 0.88393 0.0
C342 C 0.6168 0.20866 0.01813 0.0
O343 O 0.6348 0.21621 0.0731 0.0
O344 O 0.61241 0.22059 0.94092 0.0
C345 C 0.67387 0.22509 0.24321 0.0
O346 O 0.67222 0.20332 0.19385 0.0
C347 C 0.63069 0.23091 0.70082 0.0
C348 C 0.62018 0.26431 0.60868 0.0
C349 C 0.63117 0.2393 0.60825 0.0
N350 N 0.62136 0.25064 0.75415 0.0
N351 N 0.61438 0.27031 0.69877 0.0
C352 C 0.63964 0.205 0.73955 0.0
H353 H 0.62283 0.1952 0.77488 0.0
H354 H 0.65505 0.20827 0.79388 0.0
H355 H 0.64725 0.19194 0.68302 0.0
C356 C 0.70433 0.25137 0.95367 0.0
N357 N 0.67822 0.25072 0.97061 0.0
N358 N 0.66562 0.25713 0.89306 0.0
C359 C 0.68319 0.26465 0.82732 0.0
C360 C 0.70824 0.26015 0.86173 0.0
C361 C 0.72505 0.24476 0.02469 0.0
H362 H 0.7318 0.26316 0.05917 0.0
H363 H 0.71699 0.23146 0.07958 0.0
H364 H 0.74227 0.23553 0.98971 0.0
O365 O 0.63134 0.27872 0.08337 0.0
O366 O 0.61114 0.28299 0.94429 0.0
H367 H 0.65854 0.29285 0.75729 0.0
H368 H 0.69277 0.29485 0.72557 0.0
C369 C 0.67653 0.28118 0.74303 0.0
H370 H 0.67316 0.26882 0.68052 0.0
H371 H 0.60771 0.28851 0.72298 0.0
O372 O 0.67423 0.24704 0.20033 0.0
C373 C 0.61484 0.29027 0.02927 0.0
Co374 Co 0.85283 0.75317 0.58363 0.0
Co375 Co 0.8819 0.75478 0.38764 0.0
C376 C 0.8927 0.79446 0.53808 0.0
O377 O 0.87692 0.78268 0.59223 0.0
O378 O 0.89583 0.78722 0.45268 0.0
C379 C 0.83291 0.77582 0.74885 0.0
O380 O 0.83658 0.79725 0.69906 0.0
C381 C 0.87874 0.77156 0.19191 0.0
C382 C 0.90352 0.74251 0.11802 0.0
C383 C 0.88487 0.76204 0.10292 0.0
N384 N 0.8916 0.75714 0.25681 0.0
N385 N 0.90713 0.74042 0.2121 0.0
C386 C 0.85927 0.79274 0.21509 0.0
H387 H 0.85539 0.79356 0.29203 0.0
H388 H 0.84068 0.78982 0.1754 0.0
H389 H 0.86744 0.81198 0.19276 0.0
C390 C 0.80562 0.75228 0.45795 0.0
N391 N 0.83177 0.75375 0.47405 0.0
N392 N 0.8444 0.75002 0.39413 0.0
C393 C 0.82671 0.7437 0.3269 0.0
C394 C 0.80172 0.74605 0.36345 0.0
C395 C 0.78508 0.75501 0.53261 0.0
H396 H 0.78956 0.77235 0.57745 0.0
H397 H 0.76515 0.75696 0.50116 0.0
H398 H 0.78557 0.73735 0.57858 0.0
O399 O 0.87597 0.72167 0.58352 0.0
O400 O 0.89925 0.72446 0.45014 0.0
H401 H 0.85374 0.72403 0.23438 0.0
H402 H 0.8202 0.71389 0.2221 0.0
C403 C 0.83316 0.73108 0.23463 0.0
H404 H 0.82939 0.7451 0.17645 0.0
H405 H 0.91862 0.72621 0.24569 0.0
O406 O 0.83394 0.75388 0.70551 0.0
C407 C 0.89411 0.71339 0.52882 0.0
Co408 Co 0.49882 0.5982 0.8073 0.0
Co409 Co 0.50555 0.62736 0.61898 0.0
C410 C 0.45947 0.63633 0.75286 0.0
O411 O 0.46491 0.61611 0.80055 0.0
O412 O 0.47398 0.64337 0.68415 0.0
C413 C 0.4778 0.57981 0.97696 0.0
O414 O 0.45547 0.58023 0.93044 0.0
C415 C 0.48331 0.62438 0.43485 0.0
C416 C 0.51616 0.63716 0.34408 0.0
C417 C 0.49195 0.62451 0.3423 0.0
N418 N 0.50225 0.63492 0.48917 0.0
N419 N 0.52152 0.64328 0.43447 0.0
C420 C 0.45791 0.61387 0.47273 0.0
H421 H 0.44757 0.62973 0.51169 0.0
H422 H 0.46198 0.5979 0.52409 0.0
H423 H 0.44503 0.60647 0.41526 0.0
C424 C 0.50526 0.55094 0.68016 0.0
N425 N 0.50388 0.57683 0.70064 0.0
N426 N 0.51043 0.59028 0.62526 0.0
C427 C 0.5189 0.57363 0.55808 0.0
C428 C 0.51472 0.54815 0.58836 0.0
C429 C 0.49815 0.52941 0.74708 0.0
H430 H 0.51642 0.52155 0.7794 0.0
H431 H 0.48521 0.537 0.80396 0.0
H432 H 0.48831 0.51308 0.70886 0.0
O433 O 0.52798 0.62559 0.81658 0.0
O434 O 0.5362 0.64339 0.676 0.0
H435 H 0.54572 0.60061 0.49225 0.0
H436 H 0.55125 0.56674 0.46239 0.0
C437 C 0.53588 0.58166 0.47655 0.0
H438 H 0.52422 0.58365 0.41149 0.0
H439 H 0.53921 0.65105 0.45938 0.0
O440 O 0.4993 0.58026 0.93118 0.0
C441 C 0.54119 0.64114 0.76366 0.0
Co442 Co 0.01211 0.40773 0.34068 0.0
Co443 Co 1.00045 0.37908 0.15396 0.0
C444 C 0.05003 0.36964 0.2718 0.0
O445 O 0.04528 0.38887 0.32564 0.0
O446 O 0.03386 0.36393 0.20656 0.0
C447 C 0.03483 0.42365 0.51164 0.0
O448 O 0.05718 0.42039 0.4669 0.0
C449 C 0.02069 0.38172 0.96812 0.0
C450 C 0.98714 0.36998 0.87858 0.0
C451 C 0.01182 0.38165 0.87602 0.0
N452 N 0.00157 0.37198 0.02332 0.0
N453 N 0.98179 0.36431 0.96945 0.0
C454 C 0.04644 0.39182 0.00464 0.0
H455 H 0.05733 0.37541 0.03833 0.0
H456 H 0.04288 0.4069 0.05978 0.0
H457 H 0.05867 0.40021 0.94724 0.0
C458 C 0.00402 0.45522 0.21489 0.0
N459 N 0.00471 0.42932 0.23578 0.0
N460 N 0.99577 0.4161 0.163 0.0
C461 C 0.98677 0.433 0.09751 0.0
C462 C 0.99287 0.45832 0.12553 0.0
C463 C 0.01445 0.47643 0.2775 0.0
H464 H 0.01216 0.47081 0.35271 0.0
H465 H 0.03573 0.47907 0.26308 0.0
H466 H 0.00425 0.49534 0.2632 0.0
O467 O 0.98323 0.38077 0.3575 0.0
O468 O 0.97196 0.36193 0.2211 0.0
H469 H 0.95838 0.40681 0.03607 0.0
H470 H 0.95358 0.4408 0.00623 0.0
C471 C 0.96861 0.42541 0.01858 0.0
H472 H 0.97944 0.42291 0.95196 0.0
H473 H 0.96395 0.35712 -0.00488 0.0
O474 O 0.01361 0.42542 0.4645 0.0
C475 C 0.96897 0.36494 0.30961 0.0
Co476 Co 0.4975 0.40679 0.12121 0.0
Co477 Co 0.50383 0.3818 0.31823 0.0
C478 C 0.45828 0.36969 0.18365 0.0
O479 O 0.46408 0.38838 0.12868 0.0
O480 O 0.47216 0.36506 0.25666 0.0
C481 C 0.47465 0.43013 0.96072 0.0
O482 O 0.45507 0.43569 0.01771 0.0
C483 C 0.48208 0.39194 0.50131 0.0
C484 C 0.51028 0.37338 0.59923 0.0
C485 C 0.48886 0.39024 0.59551 0.0
N486 N 0.49925 0.37753 0.45086 0.0
N487 N 0.51572 0.36592 0.50993 0.0
C488 C 0.46042 0.40812 0.45944 0.0
H489 H 0.46118 0.4077 0.38121 0.0
H490 H 0.46159 0.42869 0.48497 0.0
H491 H 0.44123 0.40011 0.48324 0.0
C492 C 0.50379 0.45655 0.23598 0.0
N493 N 0.50226 0.4303 0.22244 0.0
N494 N 0.50971 0.41842 0.30015 0.0
C495 C 0.51895 0.43634 0.36157 0.0
C496 C 0.51415 0.46112 0.32568 0.0
C497 C 0.49568 0.47668 0.1649 0.0
H498 H 0.4739 0.47684 0.15945 0.0
H499 H 0.50261 0.49658 0.18553 0.0
H500 H 0.50363 0.47134 0.09455 0.0
O501 O 0.52695 0.37963 0.11992 0.0
O502 O 0.53385 0.36365 0.26492 0.0
H503 H 0.54053 0.44637 0.48918 0.0
H504 H 0.53466 0.41164 0.47289 0.0
C505 C 0.53885 0.43027 0.43682 0.0
H506 H 0.55836 0.42806 0.40268 0.0
H507 H 0.53178 0.35455 0.48898 0.0
O508 O 0.49651 0.42253 -0.00524 0.0
C509 C 0.53954 0.36476 0.17737 0.0
Co510 Co 0.0097 0.59491 0.63985 0.0
Co511 Co 0.00341 0.62326 0.82892 0.0
C512 C 0.04963 0.63178 0.69468 0.0
O513 O 0.04424 0.61146 0.64753 0.0
O514 O 0.03504 0.6389 0.76312 0.0
C515 C 0.03051 0.57606 0.47055 0.0
O516 O 0.05263 0.57522 0.5183 0.0
C517 C 0.02613 0.61979 0.01218 0.0
C518 C 0.99378 0.63319 0.10425 0.0
C519 C 0.01782 0.6202 0.10509 0.0
N520 N 0.00714 0.63055 0.95862 0.0
N521 N 0.98818 0.63925 0.01402 0.0
C522 C 0.05123 0.60885 0.97327 0.0
H523 H 0.06163 0.6245 0.9335 0.0
H524 H 0.04673 0.59287 0.92242 0.0
H525 H 0.06423 0.60136 0.03025 0.0
C526 C 0.00229 0.54711 0.7649 0.0
N527 N 0.00394 0.57305 0.74521 0.0
N528 N 0.99775 0.58636 0.82129 0.0
C529 C 0.98929 0.56966 0.88825 0.0
C530 C 0.99313 0.5442 0.85712 0.0
C531 C 0.00984 0.52568 0.69807 0.0
H532 H 0.00411 0.5311 0.62502 0.0
H533 H 0.03154 0.52325 0.6997 0.0
H534 H 1.00057 0.50676 0.7186 0.0
O535 O 0.98166 0.62371 0.63162 0.0
O536 O 0.97307 0.64014 0.77399 0.0
H537 H 0.96325 0.59688 0.95691 0.0
H538 H 0.95754 0.56307 0.98689 0.0
C539 C 0.97298 0.5778 0.97143 0.0
H540 H 0.98515 0.57961 0.03535 0.0
H541 H 0.97054 0.6473 0.98977 0.0
O542 O 0.00885 0.57762 0.515 0.0
C543 C 0.96862 0.63912 0.68573 0.0
C544 C 0.09064 0.19522 0.31222 0.0
C545 C 0.10312 0.19171 0.40092 0.0
C546 C 0.08887 0.14548 0.40202 0.0
C547 C 0.07495 0.14998 0.31614 0.0
N548 N 0.07779 0.1735 0.16841 0.0
N549 N 0.12045 0.16178 0.51753 0.0
C550 C 0.08056 0.17309 0.2642 0.0
C551 C 0.10409 0.16627 0.44252 0.0
N552 N 0.08718 0.21978 0.2753 0.0
N553 N 0.08832 0.12114 0.44259 0.0
H554 H 0.1325 0.17629 0.54645 0.0
H555 H 0.12376 0.14334 0.547 0.0
H556 H 0.08231 0.10448 0.40543 0.0
H557 H 0.09437 0.1173 0.51141 0.0
H558 H 0.07612 0.22322 0.21446 0.0
H559 H 0.09275 0.23682 0.31081 0.0
H560 H 0.08319 0.18964 0.12735 0.0
H561 H 0.07431 0.15642 0.12959 0.0
C562 C 0.10718 0.82642 0.63721 0.0
C563 C 0.09676 0.80593 0.57963 0.0
C564 C 0.05177 0.82054 0.6155 0.0
C565 C 0.06221 0.84137 0.67058 0.0
N566 N 0.09906 0.86647 0.72701 0.0
N567 N 0.05919 0.78502 0.50534 0.0
C568 C 0.08973 0.84488 0.68001 0.0
C569 C 0.06909 0.80354 0.56586 0.0
N570 N 0.13379 0.82832 0.65013 0.0
N571 N 0.02518 0.81623 0.61448 0.0
H572 H 0.07037 0.77021 0.47453 0.0
H573 H 0.03985 0.78498 0.48119 0.0
H574 H 0.01169 0.82866 0.64725 0.0
H575 H 0.01635 0.79945 0.58686 0.0
H576 H 0.14263 0.84048 0.69997 0.0
H577 H 0.14736 0.81708 0.61254 0.0
H578 H 0.11877 0.87191 0.72939 0.0
H579 H 0.08673 0.88013 0.7596 0.0
C580 C 0.4253 0.8534 0.86557 0.0
C581 C 0.44714 0.84303 0.8152 0.0
C582 C 0.42848 0.7988 0.82673 0.0
C583 C 0.40832 0.80864 0.88612 0.0
N584 N 0.38876 0.84461 0.97146 0.0
N585 N 0.47275 0.80495 0.77028 0.0
C586 C 0.40713 0.83577 0.90869 0.0
C587 C 0.44958 0.81548 0.80151 0.0
N588 N 0.42133 0.87996 0.86883 0.0
N589 N 0.42759 0.77351 0.79401 0.0
H590 H 0.48936 0.81624 0.75626 0.0
H591 H 0.47648 0.7848 0.76886 0.0
H592 H 0.41283 0.76022 0.81196 0.0
H593 H 0.44029 0.76641 0.74222 0.0
H594 H 0.40444 0.88858 0.89656 0.0
H595 H 0.43387 0.89339 0.83618 0.0
H596 H 0.38867 0.86364 -0.00133 0.0
H597 H 0.37454 0.83234 0.0011 0.0
C598 C 0.41721 0.15377 0.21076 0.0
C599 C 0.44423 0.15857 0.1932 0.0
C600 C 0.43332 0.19989 0.11398 0.0
C601 C 0.4062 0.19361 0.12113 0.0
N602 N 0.37191 0.16371 0.16875 0.0
N603 N 0.47813 0.18398 0.11619 0.0
C604 C 0.39795 0.17038 0.16815 0.0
C605 C 0.45232 0.181 0.14135 0.0
N606 N 0.41006 0.13352 0.26868 0.0
N607 N 0.44094 0.2244 0.08499 0.0
H608 H 0.49284 0.17075 0.13571 0.0
H609 H 0.48463 0.19835 0.06933 0.0
H610 H 0.42764 0.2392 0.06705 0.0
H611 H 0.46032 0.23099 0.08813 0.0
H612 H 0.3909 0.13051 0.29215 0.0
H613 H 0.42374 0.12072 0.29887 0.0
H614 H 0.36488 0.14575 0.19327 0.0
H615 H 0.35736 0.17546 0.13834 0.0
C616 C 0.93616 0.80419 0.61055 0.0
C617 C 0.91088 0.81336 0.58386 0.0
C618 C 0.91737 0.85279 0.68163 0.0
C619 C 0.94212 0.84281 0.71193 0.0
N620 N 0.97028 0.80466 0.72889 0.0
N621 N 0.87555 0.84441 0.60386 0.0
C622 C 0.95006 0.81719 0.68387 0.0
C623 C 0.90089 0.83709 0.62265 0.0
N624 N 0.94711 0.78302 0.56588 0.0
N625 N 0.90981 0.87743 0.70892 0.0
H626 H 0.86364 0.83427 0.5561 0.0
H627 H 0.86595 0.85969 0.63856 0.0
H628 H 0.92033 0.88834 0.75868 0.0
H629 H 0.89372 0.88732 0.68043 0.0
H630 H 0.96667 0.77744 0.57509 0.0
H631 H 0.93755 0.7724 0.51315 0.0
H632 H 0.97497 0.78498 0.71713 0.0
H633 H 0.98043 0.81254 0.78592 0.0
C634 C 0.93649 0.20149 0.39553 0.0
C635 C 0.91529 0.19124 0.44949 0.0
C636 C 0.92618 0.14672 0.39617 0.0
C637 C 0.94873 0.15675 0.34912 0.0
N638 N 0.97855 0.19307 0.32234 0.0
N639 N 0.8917 0.15423 0.51203 0.0
C640 C 0.95476 0.18398 0.35352 0.0
C641 C 0.91069 0.16383 0.4532 0.0
N642 N 0.93874 0.22801 0.38166 0.0
N643 N 0.91912 0.12103 0.38345 0.0
H644 H 0.88006 0.16646 0.55395 0.0
H645 H 0.889 0.13428 0.52535 0.0
H646 H 0.92963 0.10826 0.33985 0.0
H647 H 0.9017 0.11298 0.40894 0.0
H648 H 0.95178 0.23631 0.33344 0.0
H649 H 0.92619 0.24171 0.41269 0.0
H650 H 0.98512 0.21218 0.33435 0.0
H651 H 0.99288 0.18106 0.29223 0.0
C652 C 0.5899 0.14761 0.13968 0.0
C653 C 0.56642 0.15817 0.17864 0.0
C654 C 0.5729 0.19875 0.08846 0.0
C655 C 0.59775 0.1894 0.05704 0.0
N656 N 0.63109 0.15576 0.05783 0.0
N657 N 0.53833 0.19575 0.20495 0.0
C658 C 0.60659 0.16401 0.08427 0.0
C659 C 0.55884 0.18436 0.15778 0.0
N660 N 0.59603 0.12179 0.15495 0.0
N661 N 0.56229 0.22117 0.0511 0.0
H662 H 0.52712 0.18595 0.25534 0.0
H663 H 0.53395 0.21573 0.20075 0.0
H664 H 0.57167 0.23278 0.00103 0.0
H665 H 0.54296 0.22706 0.06329 0.0
H666 H 0.61099 0.11192 0.11943 0.0
H667 H 0.58525 0.10983 0.20062 0.0
H668 H 0.64008 0.13891 0.08438 0.0
H669 H 0.64293 0.1665 0.01171 0.0
C670 C 0.59486 0.85231 0.83173 0.0
C671 C 0.5708 0.84232 0.79495 0.0
C672 C 0.57794 0.80095 0.87992 0.0
C673 C 0.60278 0.81014 0.9115 0.0
N674 N 0.63669 0.84313 0.90843 0.0
N675 N 0.54399 0.80405 0.76158 0.0
C676 C 0.61179 0.83545 0.88464 0.0
C677 C 0.56372 0.81572 0.81202 0.0
N678 N 0.60141 0.87801 0.81614 0.0
N679 N 0.56772 0.77806 0.91478 0.0
H680 H 0.53389 0.81327 0.70712 0.0
H681 H 0.53989 0.784 0.76506 0.0
H682 H 0.57755 0.76603 0.96266 0.0
H683 H 0.54839 0.77213 0.90267 0.0
H684 H 0.61683 0.88754 0.85038 0.0
H685 H 0.5907 0.89011 0.77065 0.0
H686 H 0.64569 0.85995 0.88194 0.0
H687 H 0.6489 0.83184 0.95171 0.0
C688 C 0.59923 0.66458 0.91316 0.0
C689 C 0.59966 0.69164 0.88948 0.0
C690 C 0.56061 0.68594 0.79017 0.0
C691 C 0.56158 0.65836 0.80641 0.0
N692 N 0.58489 0.6208 0.86893 0.0
N693 N 0.58372 0.72742 0.79239 0.0
C694 C 0.58168 0.64747 0.86436 0.0
C695 C 0.58136 0.70207 0.8236 0.0
N696 N 0.61556 0.65526 0.98216 0.0
N697 N 0.53915 0.69712 0.74773 0.0
H698 H 0.59772 0.74059 0.8179 0.0
H699 H 0.573 0.73489 0.73566 0.0
H700 H 0.52306 0.68645 0.72324 0.0
H701 H 0.53601 0.71736 0.74514 0.0
H702 H 0.61414 0.63636 0.01 0.0
H703 H 0.62941 0.66705 0.01629 0.0
H704 H 0.60074 0.61179 0.90245 0.0
H705 H 0.57313 0.60765 0.83139 0.0
C706 C 0.55528 0.31875 0.15265 0.0
C707 C 0.55931 0.34612 0.1397 0.0
C708 C 0.59948 0.33698 0.04928 0.0
C709 C 0.59667 0.30986 0.07041 0.0
N710 N 0.57444 0.2753 0.15592 0.0
N711 N 0.58698 0.3818 0.08788 0.0
C712 C 0.57543 0.30091 0.1268 0.0
C713 C 0.58187 0.35543 0.09098 0.0
N714 N 0.53155 0.30963 0.18431 0.0
N715 N 0.61884 0.34501 0.98899 0.0
H716 H 0.57469 0.39581 0.11863 0.0
H717 H 0.60442 0.38969 0.06182 0.0
H718 H 0.63274 0.33214 0.96069 0.0
H719 H 0.62014 0.36405 0.9624 0.0
H720 H 0.52653 0.28977 0.18505 0.0
H721 H 0.51574 0.32189 0.20047 0.0
H722 H 0.56113 0.26847 0.2061 0.0
H723 H 0.58824 0.26124 0.13593 0.0
C724 C 0.96126 0.32428 0.40349 0.0
C725 C 0.95089 0.34721 0.36038 0.0
C726 C 0.9061 0.33432 0.40473 0.0
C727 C 0.91645 0.31151 0.44937 0.0
N728 N 0.95405 0.28634 0.50329 0.0
N729 N 0.91474 0.37657 0.33031 0.0
C730 C 0.94411 0.30707 0.45302 0.0
C731 C 0.92364 0.35296 0.36393 0.0
N732 N 0.98739 0.31833 0.39312 0.0
N733 N 0.87945 0.338 0.40098 0.0
H734 H 0.92712 0.39041 0.29899 0.0
H735 H 0.89558 0.38334 0.33864 0.0
H736 H 0.86615 0.32596 0.43656 0.0
H737 H 0.87032 0.35234 0.36008 0.0
H738 H 0.99571 0.30037 0.41193 0.0
H739 H 1.00079 0.33072 0.3595 0.0
H740 H 0.97392 0.2841 0.51913 0.0
H741 H 0.94249 0.27191 0.53466 0.0
C742 C 0.91255 0.66754 0.53708 0.0
C743 C 0.91303 0.69409 0.56712 0.0
C744 C 0.95149 0.68514 0.66629 0.0
C745 C 0.94941 0.65791 0.64424 0.0
N746 N 0.9251 0.62252 0.57119 0.0
N747 N 0.93039 0.72772 0.67051 0.0
C748 C 0.92925 0.64889 0.58247 0.0
C749 C 0.93167 0.70271 0.63501 0.0
N750 N 0.89617 0.66016 0.46525 0.0
N751 N 0.9731 0.69464 0.71284 0.0
H752 H 0.91716 0.74187 0.64649 0.0
H753 H 0.94121 0.73394 0.72889 0.0
H754 H 0.98842 0.68289 0.73724 0.0
H755 H 0.97721 0.71462 0.7195 0.0
H756 H 0.89693 0.64176 0.4331 0.0
H757 H 0.88306 0.67317 0.43301 0.0
H758 H 0.90911 0.61475 0.53462 0.0
H759 H 0.93619 0.60824 0.60593 0.0
C760 C 0.41425 0.32752 0.02729 0.0
C761 C 0.39943 0.3133 0.09469 0.0
C762 C 0.4196 0.3401 0.21993 0.0
C763 C 0.43749 0.3508 0.15372 0.0
N764 N 0.45671 0.34659 -0.00247 0.0
N765 N 0.39495 0.30135 0.26061 0.0
C766 C 0.43623 0.34232 0.05801 0.0
C767 C 0.40381 0.3183 0.19287 0.0
N768 N 0.40727 0.32742 0.93423 0.0
N769 N 0.41742 0.35067 0.30818 0.0
H770 H 0.38634 0.28325 0.24568 0.0
H771 H 0.39953 0.30357 0.33192 0.0
H772 H 0.42804 0.36717 0.32959 0.0
H773 H 0.40297 0.34475 0.35587 0.0
H774 H 0.41681 0.33901 0.88425 0.0
H775 H 0.39013 0.3185 0.90942 0.0
H776 H 0.45714 0.33873 0.92953 0.0
H777 H 0.47447 0.35503 0.01826 0.0
C778 C 0.39712 0.66462 0.86172 0.0
C779 C 0.40677 0.68867 0.89919 0.0
C780 C 0.45106 0.67768 0.84336 0.0
C781 C 0.44084 0.65522 0.79622 0.0
N782 N 0.40388 0.62835 0.75242 0.0
N783 N 0.44228 0.72028 0.91114 0.0
C784 C 0.41375 0.64892 0.8034 0.0
C785 C 0.43357 0.69578 0.88634 0.0
N786 N 0.37219 0.65665 0.88353 0.0
N787 N 0.47765 0.68114 0.85142 0.0
H788 H 0.43063 0.73431 0.94451 0.0
H789 H 0.46059 0.7276 0.89125 0.0
H790 H 0.49135 0.66804 0.82376 0.0
H791 H 0.48617 0.69546 0.89426 0.0
H792 H 0.36464 0.63828 0.86574 0.0
H793 H 0.35974 0.66765 0.92679 0.0
H794 H 0.38388 0.62422 0.74684 0.0
H795 H 0.41564 0.61665 0.70906 0.0
C796 C 0.0773 0.6941 0.58627 0.0
C797 C 0.10268 0.68577 0.55729 0.0
C798 C 0.0949 0.64301 0.63346 0.0
C799 C 0.06853 0.65059 0.65209 0.0
N800 N 0.03281 0.68029 0.6147 0.0
N801 N 0.13454 0.65094 0.5419 0.0
C802 C 0.05916 0.67524 0.61944 0.0
C803 C 0.1112 0.65976 0.57767 0.0
N804 N 0.0708 0.72017 0.58794 0.0
N805 N 0.10448 0.62017 0.67082 0.0
H806 H 0.14661 0.66262 0.49968 0.0
H807 H 0.14075 0.63147 0.54687 0.0
H808 H 0.09305 0.60769 0.7124 0.0
H809 H 0.12421 0.61474 0.66742 0.0
H810 H 0.05323 0.72705 0.61672 0.0
H811 H 0.08411 0.73506 0.57195 0.0
H812 H 0.02518 0.69724 0.5835 0.0
H813 H 0.01861 0.66621 0.63041 0.0
C814 C 0.10834 0.34305 0.41094 0.0
C815 C 0.09993 0.31659 0.42123 0.0
C816 C 0.06664 0.32356 0.29847 0.0
C817 C 0.0715 0.35101 0.30076 0.0
N818 N 0.09994 0.38663 0.34663 0.0
N819 N 0.0684 0.28253 0.38365 0.0
C820 C 0.09337 0.36065 0.35337 0.0
C821 C 0.07809 0.30723 0.36845 0.0
N822 N 0.13081 0.35112 0.45543 0.0
N823 N 0.05273 0.31261 0.22588 0.0
H824 H 0.07639 0.26946 0.43246 0.0
H825 H 0.05083 0.27593 0.35394 0.0
H826 H 0.04777 0.323 0.16512 0.0
H827 H 0.05016 0.2924 0.21806 0.0
H828 H 0.1398 0.36921 0.44407 0.0
H829 H 0.1411 0.33912 0.50251 0.0
H830 H 0.1133 0.39602 0.3909 0.0
H831 H 0.0917 0.39893 0.29552 0.0
C832 C 0.03678 0.0082 0.05895 0.0
C833 C 0.01223 0.01779 0.09136 0.0
C834 C 0.98952 0.98342 0.00121 0.0
C835 C 0.01387 0.97602 0.95973 0.0
N836 N 0.06013 0.98398 0.93764 0.0
N837 N 0.96482 0.01675 0.08532 0.0
C838 C 0.03738 0.98916 0.98547 0.0
C839 C 0.98846 0.00594 0.06061 0.0
N840 N 0.05949 0.01716 0.09931 0.0
N841 N 0.96753 0.96847 0.98652 0.0
H842 H 0.96311 0.03268 0.13129 0.0
H843 H 0.94699 0.01104 0.05539 0.0
H844 H 0.96725 0.95199 0.94278 0.0
H845 H 0.9501 0.97107 0.02393 0.0
H846 H 0.07794 0.00922 0.08494 0.0
H847 H 0.05952 0.03104 0.15363 0.0
H848 H 0.07736 0.99478 0.94674 0.0
H849 H 0.06111 0.97027 0.88293 0.0
C850 C 0.2623 0.73466 0.19524 0.0
C851 C 0.27249 0.75857 0.15887 0.0
C852 C 0.24495 0.78351 0.26909 0.0
C853 C 0.23305 0.7598 0.2995 0.0
N854 N 0.22701 0.71299 0.27924 0.0
N855 N 0.27011 0.8057 0.14744 0.0
C856 C 0.24079 0.73539 0.25926 0.0
C857 C 0.26266 0.783 0.19151 0.0
N858 N 0.27374 0.71126 0.17138 0.0
N859 N 0.2398 0.8064 0.31611 0.0
H860 H 0.28297 0.80581 0.09006 0.0
H861 H 0.26181 0.82397 0.16217 0.0
H862 H 0.22708 0.80726 0.37381 0.0
H863 H 0.24978 0.82391 0.30324 0.0
H864 H 0.26934 0.69357 0.20488 0.0
H865 H 0.289 0.7097 0.12257 0.0
H866 H 0.22968 0.69538 0.24292 0.0
H867 H 0.21137 0.7124 0.32667 0.0
C868 C 0.47599 0.01165 0.46862 0.0
C869 C 0.50012 0.02213 0.43568 0.0
C870 C 0.52428 0.98771 0.52046 0.0
C871 C 0.50032 0.97901 0.56128 0.0
N872 N 0.45388 0.98497 0.58627 0.0
N873 N 0.54759 0.02281 0.44102 0.0
C874 C 0.47629 0.99171 0.53896 0.0
C875 C 0.52439 0.01087 0.46437 0.0
N876 N 0.45283 0.02044 0.43108 0.0
N877 N 0.54681 0.9734 0.53266 0.0
H878 H 0.54866 0.03945 0.3982 0.0
H879 H 0.56566 0.01736 0.46967 0.0
H880 H 0.54783 0.95668 0.57507 0.0
H881 H 0.56404 0.97695 0.49501 0.0
H882 H 0.43466 0.01189 0.44549 0.0
H883 H 0.45208 0.03494 0.37899 0.0
H884 H 0.43623 0.99521 0.57986 0.0
H885 H 0.45356 0.97041 0.63817 0.0
C886 C 0.25765 0.21635 0.8019 0.0
C887 C 0.26856 0.23996 0.83787 0.0
C888 C 0.23921 0.26552 0.73521 0.0
C889 C 0.23018 0.24184 0.69293 0.0
N890 N 0.23498 0.19515 0.67183 0.0
N891 N 0.27335 0.28711 0.82572 0.0
C892 C 0.24068 0.21735 0.72211 0.0
C893 C 0.26035 0.2646 0.80098 0.0
N894 N 0.26321 0.19299 0.84514 0.0
N895 N 0.22695 0.28883 0.71567 0.0
H896 H 0.28868 0.28754 0.87459 0.0
H897 H 0.27031 0.30508 0.79213 0.0
H898 H 0.21157 0.2906 0.66739 0.0
H899 H 0.23056 0.30606 0.75329 0.0
H900 H 0.25394 0.17538 0.82769 0.0
H901 H 0.27543 0.19173 0.90426 0.0
H902 H 0.24403 0.17709 0.6841 0.0
H903 H 0.22287 0.19542 0.61226 0.0
C904 C 0.74168 0.23582 0.7651 0.0
C905 C 0.73267 0.2599 0.80419 0.0
C906 C 0.76491 0.28399 0.70914 0.0
C907 C 0.77582 0.2598 0.67846 0.0
N908 N 0.77738 0.21242 0.68967 0.0
N909 N 0.73809 0.30654 0.82541 0.0
C910 C 0.76492 0.23561 0.7095 0.0
C911 C 0.745 0.28392 0.77964 0.0
N912 N 0.72764 0.2132 0.77871 0.0
N913 N 0.77338 0.30699 0.66967 0.0
H914 H 0.72361 0.30703 0.87753 0.0
H915 H 0.74813 0.32424 0.81744 0.0
H916 H 0.78775 0.30752 0.61712 0.0
H917 H 0.76458 0.32512 0.68261 0.0
H918 H 0.73149 0.19581 0.74236 0.0
H919 H 0.71077 0.21226 0.82034 0.0
H920 H 0.77215 0.19458 0.72045 0.0
H921 H 0.79425 0.21119 0.64816 0.0
C922 C 0.7484 0.71947 0.20261 0.0
C923 C 0.73648 0.74306 0.17072 0.0
C924 C 0.76682 0.76882 0.26873 0.0
C925 C 0.77713 0.74514 0.30679 0.0
N926 N 0.77506 0.69811 0.32248 0.0
N927 N 0.73121 0.79009 0.18446 0.0
C928 C 0.76705 0.72049 0.27748 0.0
C929 C 0.74484 0.76774 0.20673 0.0
N930 N 0.74217 0.69619 0.15994 0.0
N931 N 0.77856 0.79233 0.28928 0.0
H932 H 0.71544 0.79036 0.13735 0.0
H933 H 0.73433 0.80808 0.21779 0.0
H934 H 0.79412 0.79416 0.33688 0.0
H935 H 0.77407 0.80978 0.25433 0.0
H936 H 0.75195 0.6786 0.17361 0.0
H937 H 0.72864 0.69494 0.10466 0.0
H938 H 0.76669 0.67972 0.3107 0.0
H939 H 0.78865 0.69836 0.37778 0.0
C940 C 0.53825 0.51376 0.49347 0.0
C941 C 0.51425 0.52474 0.52547 0.0
C942 C 0.48977 0.49448 0.42307 0.0
C943 C 0.51387 0.48545 0.38398 0.0
N944 N 0.56081 0.48983 0.36946 0.0
N945 N 0.46713 0.52901 0.50778 0.0
C946 C 0.53806 0.49624 0.41523 0.0
C947 C 0.48998 0.51607 0.48674 0.0
N948 N 0.56113 0.51956 0.53963 0.0
N949 N 0.46672 0.48181 0.40288 0.0
H950 H 0.46615 0.54474 0.55478 0.0
H951 H 0.44949 0.52559 0.47234 0.0
H952 H 0.46535 0.46618 0.35565 0.0
H953 H 0.44923 0.48546 0.43885 0.0
H954 H 0.57894 0.51024 0.52543 0.0
H955 H 0.56175 0.53212 0.59789 0.0
H956 H 0.5788 0.49882 0.38344 0.0
H957 H 0.56113 0.47717 0.31143 0.0
C958 C 0.0176 0.51115 0.9561 0.0
C959 C 0.99337 0.52062 0.9193 0.0
C960 C 0.96941 0.49316 0.0323 0.0
C961 C 0.9934 0.48155 0.06167 0.0
N962 N 0.04017 0.47597 0.03762 0.0
N963 N 0.94629 0.51665 0.90859 0.0
C964 C 0.01749 0.48957 0.01984 0.0
C965 C 0.96928 0.51036 0.95323 0.0
N966 N 0.0407 0.52335 0.93336 0.0
N967 N 0.94686 0.48826 0.08156 0.0
H968 H 0.94568 0.52901 0.84981 0.0
H969 H 0.92835 0.50783 0.92465 0.0
H970 H 0.94647 0.476 0.14061 0.0
H971 H 0.92923 0.49811 0.06891 0.0
H972 H 0.05844 0.51927 0.96723 0.0
H973 H 0.04187 0.53912 0.88659 0.0
H974 H 0.05753 0.47905 0.0002 0.0
H975 H 0.04116 0.45998 0.08347 0.0
C976 C 0.01268 0.09318 0.75265 0.0
C977 C 0.99342 0.11141 0.78602 0.0
C978 C 0.96276 0.09611 0.66375 0.0
C979 C 0.98344 0.08138 0.6224 0.0
N980 N 0.02204 0.05577 0.65132 0.0
N981 N 0.95067 0.13158 0.7695 0.0
C982 C 0.00656 0.07674 0.67476 0.0
C983 C 0.96843 0.11297 0.74131 0.0
N984 N 0.03726 0.09229 0.79175 0.0
N985 N 0.93752 0.09263 0.63319 0.0
H986 H 0.95428 0.14456 0.82505 0.0
H987 H 0.9334 0.13571 0.73278 0.0
H988 H 0.93245 0.07771 0.58609 0.0
H989 H 0.92128 0.10156 0.66441 0.0
H990 H 0.05285 0.08186 0.76232 0.0
H991 H 0.04298 0.10332 0.84988 0.0
H992 H 0.03794 0.04937 0.69169 0.0
H993 H 0.01687 0.04288 0.59692 0.0
C994 C 0.12773 0.72292 0.94976 0.0
C995 C 0.14478 0.72679 0.02697 0.0
C996 C 0.18286 0.72096 0.9222 0.0
C997 C 0.16572 0.72281 0.84389 0.0
N998 N 0.12146 0.72773 0.7824 0.0
N999 N 0.18922 0.72841 0.08892 0.0
C1000 C 0.138 0.72405 0.85729 0.0
C1001 C 0.17257 0.72501 0.01439 0.0
N1002 N 0.10162 0.71825 0.96546 0.0
N1003 N 0.20888 0.71536 0.90838 0.0
H1004 H 0.18289 0.72905 0.15841 0.0
H1005 H 0.20935 0.73151 0.0815 0.0
H1006 H 0.21705 0.71303 0.84134 0.0
H1007 H 0.22189 0.71097 0.963 0.0
H1008 H 0.08851 0.71282 0.91234 0.0
H1009 H 0.0938 0.71695 0.03344 0.0
H1010 H 0.10142 0.73152 0.78947 0.0
H1011 H 0.12806 0.72956 0.71351 0.0
C1012 C 0.54001 0.92372 0.16535 0.0
C1013 C 0.53534 0.90682 0.08791 0.0
C1014 C 0.53361 0.86911 0.19433 0.0
C1015 C 0.53196 0.88644 0.27136 0.0
N1016 N 0.53515 0.9308 0.33306 0.0
N1017 N 0.52436 0.86328 0.02969 0.0
C1018 C 0.53614 0.91392 0.25828 0.0
C1019 C 0.53161 0.87937 0.1023 0.0
N1020 N 0.54789 0.94906 0.14999 0.0
N1021 N 0.53641 0.84274 0.20985 0.0
H1022 H 0.5204 0.87017 0.96239 0.0
H1023 H 0.51916 0.84362 0.03879 0.0
H1024 H 0.53806 0.83496 0.27783 0.0
H1025 H 0.54001 0.82925 0.15601 0.0
H1026 H 0.55411 0.96163 0.20359 0.0
H1027 H 0.55017 0.9569 0.08241 0.0
H1028 H 0.53411 0.95116 0.32601 0.0
H1029 H 0.53452 0.92454 0.40269 0.0
C1030 C 0.34189 0.29268 0.44287 0.0
C1031 C 0.32837 0.27226 0.39503 0.0
C1032 C 0.34164 0.24102 0.51763 0.0
C1033 C 0.35879 0.26044 0.55663 0.0
N1034 N 0.37718 0.30414 0.55003 0.0
N1035 N 0.30501 0.23173 0.41219 0.0
C1036 C 0.35921 0.28622 0.51817 0.0
C1037 C 0.3251 0.24777 0.44037 0.0
N1038 N 0.33671 0.31831 0.42109 0.0
N1039 N 0.34178 0.21583 0.55132 0.0
H1040 H 0.29172 0.23742 0.35975 0.0
H1041 H 0.29957 0.21462 0.44747 0.0
H1042 H 0.35266 0.2098 0.60951 0.0
H1043 H 0.3323 0.20027 0.51782 0.0
H1044 H 0.34465 0.33415 0.45804 0.0
H1045 H 0.32135 0.32362 0.37614 0.0
H1046 H 0.38041 0.32221 0.51737 0.0
H1047 H 0.39062 0.3 0.60375 0.0
C1048 C 0.98173 0.87878 0.40346 0.0
C1049 C 0.97851 0.90634 0.41678 0.0
C1050 C 0.98151 0.91334 0.24658 0.0
C1051 C 0.985 0.88571 0.23419 0.0
N1052 N 0.97886 0.8421 0.29508 0.0
N1053 N 0.9691 0.94902 0.35178 0.0
C1054 C 0.98178 0.86845 0.31101 0.0
C1055 C 0.97626 0.92336 0.33839 0.0
N1056 N 0.98631 0.86257 0.47848 0.0
N1057 N 0.98431 0.93013 0.17224 0.0
H1058 H 0.96579 0.95699 0.4186 0.0
H1059 H 0.96448 0.96182 0.29686 0.0
H1060 H 0.98562 0.92383 0.1028 0.0
H1061 H 0.98616 0.95042 0.17971 0.0
H1062 H 0.99136 0.84281 0.47159 0.0
H1063 H 0.98783 0.86937 0.54719 0.0
H1064 H 0.97393 0.82871 0.34784 0.0
H1065 H 0.97847 0.83416 0.22711 0.0
C1066 C 0.36426 0.71314 0.59171 0.0
C1067 C 0.34149 0.72806 0.61736 0.0
C1068 C 0.34907 0.75722 0.48312 0.0
C1069 C 0.37003 0.74089 0.45201 0.0
N1070 N 0.39464 0.7006 0.46781 0.0
N1071 N 0.30828 0.75921 0.5703 0.0
C1072 C 0.37649 0.71784 0.50301 0.0
C1073 C 0.33263 0.74842 0.5572 0.0
N1074 N 0.3756 0.6959 0.65354 0.0
N1075 N 0.34523 0.78158 0.44496 0.0
H1076 H 0.29541 0.75264 0.62263 0.0
H1077 H 0.29983 0.77242 0.52283 0.0
H1078 H 0.35713 0.78946 0.39252 0.0
H1079 H 0.33173 0.79502 0.4721 0.0
H1080 H 0.39401 0.68746 0.64234 0.0
H1081 H 0.36807 0.69148 0.71954 0.0
H1082 H 0.39773 0.68195 0.49626 0.0
H1083 H 0.4053 0.70417 0.40627 0.0
C1084 C 0.54404 0.11682 0.78281 0.0
C1085 C 0.5189 0.11539 0.73915 0.0
C1086 C 0.50602 0.0807 0.85065 0.0
C1087 C 0.52939 0.08513 0.90184 0.0
N1088 N 0.57531 0.09609 0.88854 0.0
N1089 N 0.47498 0.09648 0.73516 0.0
C1090 C 0.54996 0.09981 0.85963 0.0
C1091 C 0.49969 0.09724 0.77323 0.0
N1092 N 0.56172 0.13544 0.75434 0.0
N1093 N 0.49054 0.05978 0.8745 0.0
H1094 H 0.46911 0.10755 0.67733 0.0
H1095 H 0.45945 0.08611 0.76516 0.0
H1096 H 0.4959 0.04676 0.92824 0.0
H1097 H 0.47444 0.05353 0.83491 0.0
H1098 H 0.57913 0.13944 0.79042 0.0
H1099 H 0.55793 0.14858 0.69944 0.0
H1100 H 0.59144 0.10494 0.85637 0.0
H1101 H 0.58052 0.08108 0.93506 0.0
C1102 C 0.17042 0.2763 0.96891 0.0
C1103 C 0.14259 0.27533 0.95624 0.0
C1104 C 0.13609 0.27865 0.1257 0.0
C1105 C 0.16381 0.27951 0.13938 0.0
N1106 N 0.20711 0.28531 0.07436 0.0
N1107 N 0.09974 0.28524 0.0176 0.0
C1108 C 0.18093 0.2804 0.06094 0.0
C1109 C 0.12574 0.27992 0.03328 0.0
N1110 N 0.1869 0.27225 0.89451 0.0
N1111 N 0.11959 0.27489 0.20029 0.0
H1112 H 0.09186 0.28655 0.94966 0.0
H1113 H 0.08687 0.29123 0.07059 0.0
H1114 H 0.12643 0.27116 0.26788 0.0
H1115 H 0.09938 0.27219 0.19323 0.0
H1116 H 0.20689 0.26837 0.90224 0.0
H1117 H 0.18049 0.27191 0.82501 0.0
H1118 H 0.22018 0.28908 0.01945 0.0
H1119 H 0.21542 0.28761 0.14125 0.0
C1120 C 0.82778 0.22913 0.09434 0.0
C1121 C 0.84391 0.21923 0.16742 0.0
C1122 C 0.88078 0.21435 0.05745 0.0
C1123 C 0.86513 0.2258 0.98577 0.0
N1124 N 0.8215 0.23495 0.9265 0.0
N1125 N 0.88256 0.19445 0.21259 0.0
C1126 C 0.83782 0.23014 0.00097 0.0
C1127 C 0.86934 0.20904 0.14687 0.0
N1128 N 0.8032 0.23841 0.11502 0.0
N1129 N 0.90681 0.20942 0.04075 0.0
H1130 H 0.8746 0.1895 0.27773 0.0
H1131 H 0.90026 0.18484 0.19927 0.0
H1132 H 0.91524 0.21142 0.97399 0.0
H1133 H 0.92025 0.20443 0.09327 0.0
H1134 H 0.79168 0.24898 0.06748 0.0
H1135 H 0.79481 0.2365 0.1819 0.0
H1136 H 0.80111 0.23616 0.93221 0.0
H1137 H 0.82805 0.23481 0.85719 0.0
C1138 C 0.67541 0.75046 0.56802 0.0
C1139 C 0.66574 0.77039 0.6284 0.0
C1140 C 0.63011 0.77905 0.51469 0.0
C1141 C 0.63764 0.75645 0.46301 0.0
N1142 N 0.66413 0.71687 0.45542 0.0
N1143 N 0.63007 0.80068 0.66592 0.0
C1144 C 0.6593 0.74101 0.49392 0.0
C1145 C 0.64219 0.78417 0.60347 0.0
N1146 N 0.70024 0.74075 0.58067 0.0
N1147 N 0.61115 0.79549 0.47991 0.0
H1148 H 0.63738 0.80529 0.73217 0.0
H1149 H 0.61125 0.80823 0.65501 0.0
H1150 H 0.60067 0.79156 0.41814 0.0
H1151 H 0.60715 0.81389 0.509 0.0
H1152 H 0.70917 0.72795 0.53294 0.0
H1153 H 0.71291 0.74783 0.63286 0.0
H1154 H 0.67824 0.704 0.48228 0.0
H1155 H 0.65246 0.70851 0.40315 0.0
C1156 C 0.62546 0.22391 0.44601 0.0
C1157 C 0.64252 0.22665 0.52351 0.0
C1158 C 0.68045 0.22121 0.41794 0.0
C1159 C 0.66336 0.22471 0.34014 0.0
N1160 N 0.61931 0.23316 0.28157 0.0
N1161 N 0.68693 0.22625 0.586 0.0
C1162 C 0.63571 0.2267 0.35423 0.0
C1163 C 0.67026 0.22433 0.51081 0.0
N1164 N 0.5993 0.21937 0.46083 0.0
N1165 N 0.70631 0.21512 0.40301 0.0
H1166 H 0.6805 0.22629 0.65545 0.0
H1167 H 0.70719 0.22866 0.57947 0.0
H1168 H 0.71439 0.2135 0.33557 0.0
H1169 H 0.71923 0.20975 0.45676 0.0
H1170 H 0.58616 0.2149 0.4066 0.0
H1171 H 0.59153 0.21716 0.5286 0.0
H1172 H 0.59928 0.23675 0.2902 0.0
H1173 H 0.62619 0.23834 0.21536 0.0
C1174 C 0.8693 0.79172 0.97232 0.0
C1175 C 0.86915 0.76649 0.01538 0.0
C1176 C 0.83504 0.75212 0.90331 0.0
C1177 C 0.83812 0.77586 0.85301 0.0
N1178 N 0.84671 0.82222 0.8688 0.0
N1179 N 0.8526 0.72165 0.01739 0.0
C1180 C 0.85184 0.79698 0.89604 0.0
C1181 C 0.85202 0.74645 0.98035 0.0
N1182 N 0.88715 0.81019 0.0008 0.0
N1183 N 0.81476 0.73574 0.8799 0.0
H1184 H 0.8639 0.71625 0.0753 0.0
H1185 H 0.84312 0.70567 0.98648 0.0
H1186 H 0.80116 0.74067 0.82743 0.0
H1187 H 0.80947 0.71927 0.91917 0.0
H1188 H 0.89026 0.8278 0.96498 0.0
H1189 H 0.90061 0.80691 0.05518 0.0
H1190 H 0.85477 0.83864 0.90185 0.0
H1191 H 0.8313 0.82682 0.82304 0.0
C1192 C 0.47853 0.58464 0.24459 0.0
C1193 C 0.48039 0.61247 0.25626 0.0
C1194 C 0.47973 0.61848 0.08604 0.0
C1195 C 0.47786 0.59079 0.07345 0.0
N1196 N 0.46905 0.54809 0.13926 0.0
N1197 N 0.47276 0.65535 0.19096 0.0
C1198 C 0.47501 0.57405 0.15239 0.0
C1199 C 0.47751 0.62915 0.17763 0.0
N1200 N 0.48141 0.5682 0.31988 0.0
N1201 N 0.48507 0.63463 0.01161 0.0
H1202 H 0.47062 0.66351 0.25819 0.0
H1203 H 0.46806 0.66817 0.13607 0.0
H1204 H 0.48785 0.62777 0.94344 0.0
H1205 H 0.4896 0.65448 0.01951 0.0
H1206 H 0.48435 0.54802 0.31321 0.0
H1207 H 0.48199 0.57472 0.38916 0.0
H1208 H 0.46394 0.53544 0.19407 0.0
H1209 H 0.46723 0.53964 0.07243 0.0
C1210 C 0.02887 0.37538 0.71448 0.0
C1211 C 0.02426 0.39276 0.79027 0.0
C1212 C 0.03321 0.43043 0.68635 0.0
C1213 C 0.03285 0.41314 0.60831 0.0
N1214 N 0.0279 0.36903 0.54619 0.0
N1215 N 0.02267 0.43733 0.8506 0.0
C1216 C 0.03032 0.38553 0.6218 0.0
C1217 C 0.02702 0.42045 0.77743 0.0
N1218 N 0.03211 0.34912 0.73165 0.0
N1219 N 0.03963 0.45629 0.67337 0.0
H1220 H 0.02078 0.43118 0.92004 0.0
H1221 H 0.02016 0.45751 0.84204 0.0
H1222 H 0.04367 0.4642 0.60699 0.0
H1223 H 0.04299 0.46939 0.72857 0.0
H1224 H 0.03809 0.33572 0.68033 0.0
H1225 H 0.03163 0.34126 0.79969 0.0
H1226 H 0.02298 0.34922 0.55213 0.0
H1227 H 0.0284 0.37554 0.47685 0.0
C1228 C 0.45963 0.39345 0.7366 0.0
C1229 C 0.47815 0.40538 0.6764 0.0
C1230 C 0.48644 0.43981 0.7938 0.0
C1231 C 0.47024 0.4261 0.85842 0.0
N1232 N 0.4366 0.39248 0.88225 0.0
N1233 N 0.50073 0.445 0.63186 0.0
C1234 C 0.45495 0.4043 0.82681 0.0
C1235 C 0.48891 0.43027 0.69996 0.0
N1236 N 0.44656 0.37135 0.70831 0.0
N1237 N 0.50025 0.46132 0.82359 0.0
H1238 H 0.50093 0.43899 0.56188 0.0
H1239 H 0.50729 0.46419 0.64191 0.0
H1240 H 0.49738 0.46975 0.89 0.0
H1241 H 0.51513 0.47012 0.78431 0.0
H1242 H 0.43281 0.36184 0.7509 0.0
H1243 H 0.44904 0.36305 0.64152 0.0
H1244 H 0.43141 0.39875 0.94972 0.0
H1245 H 0.43141 0.39875 0.94972 0.0
C1246 C 0.03398 0.5699 0.29562 0.0
C1247 C 0.03141 0.5869 0.37401 0.0
C1248 C 0.03302 0.62498 0.26874 0.0
C1249 C 0.02952 0.60815 0.19075 0.0
N1250 N 0.02756 0.56377 0.12826 0.0
N1251 N 0.02615 0.63114 0.43507 0.0
C1252 C 0.03077 0.58033 0.20314 0.0
C1253 C 0.03061 0.61463 0.36078 0.0
N1254 N 0.03942 0.54386 0.30954 0.0
N1255 N 0.03844 0.65098 0.25421 0.0
H1256 H 0.02316 0.62452 0.50341 0.0
H1257 H 0.02272 0.65122 0.42739 0.0
H1258 H 0.04066 0.65883 0.18656 0.0
H1259 H 0.04359 0.66387 0.30835 0.0
H1260 H 0.04443 0.53105 0.25509 0.0
H1261 H 0.04104 0.53553 0.37662 0.0
H1262 H 0.02423 0.54367 0.13538 0.0
H1263 H 0.0272 0.57013 0.05878 0.0
loop_
_geom_bond_atom_site_label_1
_geom_bond_atom_site_label_2
_geom_bond_distance
_geom_bond_site_symmetry_2
_ccdc_geom_bond_type
Co0 O3 1.970 1_455 S
Co0 N17 1.989 . S
Co0 O25 1.967 . S
Co0 O32 1.920 . S
Co1 O4 1.966 1_455 S
Co1 N10 2.016 1_554 S
Co1 N18 1.993 . S
Co1 O26 1.941 . S
C2 O3 1.258 . S
C2 O4 1.263 . S
O3 Co0 1.970 1_655 S
O3 C2 1.258 . S
O4 Co1 1.966 1_655 S
O4 C2 1.263 . S
C5 O6 1.235 . S
C5 O32 1.289 1_655 S
O6 C5 1.235 . S
C7 C9 1.400 . S
C7 N10 1.355 1_655 S
C7 C12 1.501 . S
C8 C9 1.387 1_455 S
C8 N11 1.341 . S
C9 C7 1.400 . S
C9 C8 1.387 1_655 S
N10 Co1 2.016 1_556 S
N10 C7 1.355 1_455 S
N10 N11 1.369 . S
N11 C8 1.341 . S
N11 N10 1.369 . S
N11 H31 0.862 . S
C12 C7 1.501 . S
C12 H13 0.961 1_556 S
C12 H14 0.961 . S
C12 H15 0.960 . S
H13 C12 0.961 1_554 S
H14 C12 0.961 . S
H15 C12 0.960 . S
C16 N17 1.342 . S
C16 C20 1.401 . S
C16 C21 1.499 . S
N17 Co0 1.989 . S
N17 C16 1.342 . S
N17 N18 1.388 . S
N18 Co1 1.993 . S
N18 N17 1.388 . S
N18 C19 1.346 . S
C19 N18 1.346 . S
C19 C20 1.396 . S
C19 C29 1.510 . S
C20 C16 1.401 . S
C20 C19 1.396 . S
C21 C16 1.499 . S
C21 H22 0.959 . S
C21 H23 0.960 . S
C21 H24 0.961 . S
H22 C21 0.959 . S
H23 C21 0.960 . S
H24 C21 0.961 . S
O25 Co0 1.967 . S
O25 C33 1.258 . S
O26 Co1 1.941 . S
O26 C33 1.266 . S
H27 C29 0.959 1_556 S
H28 C29 0.961 1_656 S
C29 C19 1.510 . S
C29 H27 0.959 1_554 S
C29 H28 0.961 1_454 S
C29 H30 0.960 1_554 S
H30 C29 0.960 1_556 S
H31 N11 0.862 . S
O32 Co0 1.920 . S
O32 C5 1.289 1_455 S
C33 O25 1.258 . S
C33 O26 1.266 . S
Co34 O37 1.970 . S
Co34 N51 1.989 . S
Co34 O59 1.967 . S
Co34 O66 1.920 . S
Co35 O38 1.966 . S
Co35 N44 2.022 . S
Co35 N52 1.993 . S
Co35 O60 1.941 . S
C36 O37 1.258 . S
C36 O38 1.263 . S
O37 Co34 1.970 . S
O37 C36 1.258 . S
O38 Co35 1.966 . S
O38 C36 1.263 . S
C39 O40 1.235 . S
C39 O66 1.289 . S
O40 C39 1.235 . S
C41 C43 1.400 . S
C41 N44 1.351 . S
C41 C46 1.501 . S
C42 C43 1.387 . S
C42 N45 1.341 . S
C43 C41 1.400 . S
C43 C42 1.387 . S
N44 Co35 2.022 . S
N44 C41 1.351 . S
N44 N45 1.365 . S
N45 C42 1.341 . S
N45 N44 1.365 . S
N45 H65 0.862 . S
C46 C41 1.501 . S
C46 H47 0.961 . S
C46 H48 0.961 . S
C46 H49 0.960 . S
H47 C46 0.961 . S
H48 C46 0.961 . S
H49 C46 0.960 . S
C50 N51 1.342 . S
C50 C54 1.401 . S
C50 C55 1.499 . S
N51 Co34 1.989 . S
N51 C50 1.342 . S
N51 N52 1.388 . S
N52 Co35 1.993 . S
N52 N51 1.388 . S
N52 C53 1.346 . S
C53 N52 1.346 . S
C53 C54 1.396 . S
C53 C63 1.510 . S
C54 C50 1.401 . S
C54 C53 1.396 . S
C55 C50 1.499 . S
C55 H56 0.959 . S
C55 H57 0.960 . S
C55 H58 0.961 . S
H56 C55 0.959 . S
H57 C55 0.960 . S
H58 C55 0.961 . S
O59 Co34 1.967 . S
O59 C67 1.258 . S
O60 Co35 1.941 . S
O60 C67 1.266 . S
H61 C63 0.959 . S
H62 C63 0.961 . S
C63 C53 1.510 . S
C63 H61 0.959 . S
C63 H62 0.961 . S
C63 H64 0.960 . S
H64 C63 0.960 . S
H65 N45 0.862 . S
O66 Co34 1.920 . S
O66 C39 1.289 . S
C67 O59 1.258 . S
C67 O60 1.266 . S
Co68 O71 1.970 . S
Co68 N85 1.989 . S
Co68 O93 1.967 . S
Co68 O100 1.920 . S
Co69 O72 1.966 . S
Co69 N78 2.022 . S
Co69 N86 1.993 . S
Co69 O94 1.941 . S
C70 O71 1.258 . S
C70 O72 1.263 . S
O71 Co68 1.970 . S
O71 C70 1.258 . S
O72 Co69 1.966 . S
O72 C70 1.263 . S
C73 O74 1.235 1_554 S
C73 O100 1.289 1_554 S
O74 C73 1.235 1_556 S
C75 C77 1.400 . S
C75 N78 1.351 . S
C75 C80 1.501 . S
C76 C77 1.387 . S
C76 N79 1.341 . S
C77 C75 1.400 . S
C77 C76 1.387 . S
N78 Co69 2.022 . S
N78 C75 1.351 . S
N78 N79 1.365 . S
N79 C76 1.341 . S
N79 N78 1.365 . S
N79 H99 0.862 . S
C80 C75 1.501 . S
C80 H81 0.961 . S
C80 H82 0.961 . S
C80 H83 0.960 . S
H81 C80 0.961 . S
H82 C80 0.961 . S
H83 C80 0.960 . S
C84 N85 1.342 . S
C84 C88 1.401 . S
C84 C89 1.499 . S
N85 Co68 1.989 . S
N85 C84 1.342 . S
N85 N86 1.388 . S
N86 Co69 1.993 . S
N86 N85 1.388 . S
N86 C87 1.346 . S
C87 N86 1.346 . S
C87 C88 1.396 . S
C87 C97 1.510 . S
C88 C84 1.401 . S
C88 C87 1.396 . S
C89 C84 1.499 . S
C89 H90 0.959 . S
C89 H91 0.960 . S
C89 H92 0.961 . S
H90 C89 0.959 . S
H91 C89 0.960 . S
H92 C89 0.961 . S
O93 Co68 1.967 . S
O93 C101 1.258 . S
O94 Co69 1.941 . S
O94 C101 1.266 . S
H95 C97 0.959 . S
H96 C97 0.961 . S
C97 C87 1.510 . S
C97 H95 0.959 . S
C97 H96 0.961 . S
C97 H98 0.960 . S
H98 C97 0.960 . S
H99 N79 0.862 . S
O100 Co68 1.920 . S
O100 C73 1.289 1_556 S
C101 O93 1.258 . S
C101 O94 1.266 . S
Co102 O105 1.970 . S
Co102 N119 1.989 . S
Co102 O127 1.967 . S
Co102 O134 1.920 . S
Co103 O106 1.966 . S
Co103 N112 2.022 . S
Co103 N120 1.993 . S
Co103 O128 1.941 . S
C104 O105 1.258 . S
C104 O106 1.263 1_554 S
O105 Co102 1.970 . S
O105 C104 1.258 . S
O106 Co103 1.966 . S
O106 C104 1.263 1_556 S
C107 O108 1.235 . S
C107 O134 1.289 . S
O108 C107 1.235 . S
C109 C111 1.400 . S
C109 N112 1.351 . S
C109 C114 1.501 . S
C110 C111 1.387 . S
C110 N113 1.341 . S
C111 C109 1.400 . S
C111 C110 1.387 . S
N112 Co103 2.022 . S
N112 C109 1.351 . S
N112 N113 1.365 . S
N113 C110 1.341 . S
N113 N112 1.365 . S
N113 H133 0.862 . S
C114 C109 1.501 . S
C114 H115 0.961 . S
C114 H116 0.961 . S
C114 H117 0.960 . S
H115 C114 0.961 . S
H116 C114 0.961 . S
H117 C114 0.960 . S
C118 N119 1.342 . S
C118 C122 1.401 1_554 S
C118 C123 1.499 . S
N119 Co102 1.989 . S
N119 C118 1.342 . S
N119 N120 1.388 1_554 S
N120 Co103 1.993 . S
N120 N119 1.388 1_556 S
N120 C121 1.346 . S
C121 N120 1.346 . S
C121 C122 1.396 . S
C121 C131 1.510 . S
C122 C118 1.401 1_556 S
C122 C121 1.396 . S
C123 C118 1.499 . S
C123 H124 0.959 . S
C123 H125 0.960 . S
C123 H126 0.961 . S
H124 C123 0.959 . S
H125 C123 0.960 . S
H126 C123 0.961 . S
O127 Co102 1.967 . S
O127 C135 1.258 . S
O128 Co103 1.941 . S
O128 C135 1.266 1_556 S
H129 C131 0.959 . S
H130 C131 0.961 . S
C131 C121 1.510 . S
C131 H129 0.959 . S
C131 H130 0.961 . S
C131 H132 0.960 . S
H132 C131 0.960 . S
H133 N113 0.862 . S
O134 Co102 1.920 . S
O134 C107 1.289 . S
C135 O127 1.258 . S
C135 O128 1.266 1_554 S
Co136 O139 1.970 1_455 S
Co136 N153 1.989 . S
Co136 O161 1.967 . S
Co136 O168 1.920 . S
Co137 O140 1.966 1_455 S
Co137 N146 2.016 1_556 S
Co137 N154 1.993 . S
Co137 O162 1.941 . S
C138 O139 1.258 . S
C138 O140 1.263 . S
O139 Co136 1.970 1_655 S
O139 C138 1.258 . S
O140 Co137 1.966 1_655 S
O140 C138 1.263 . S
C141 O142 1.235 . S
C141 O168 1.289 1_655 S
O142 C141 1.235 . S
C143 C145 1.400 . S
C143 N146 1.355 1_655 S
C143 C148 1.501 . S
C144 C145 1.387 1_455 S
C144 N147 1.341 . S
C145 C143 1.400 . S
C145 C144 1.387 1_655 S
N146 Co137 2.016 1_554 S
N146 C143 1.355 1_455 S
N146 N147 1.369 . S
N147 C144 1.341 . S
N147 N146 1.369 . S
N147 H167 0.862 . S
C148 C143 1.501 . S
C148 H149 0.961 1_554 S
C148 H150 0.961 . S
C148 H151 0.960 . S
H149 C148 0.961 1_556 S
H150 C148 0.961 . S
H151 C148 0.960 . S
C152 N153 1.342 . S
C152 C156 1.401 . S
C152 C157 1.499 . S
N153 Co136 1.989 . S
N153 C152 1.342 . S
N153 N154 1.388 . S
N154 Co137 1.993 . S
N154 N153 1.388 . S
N154 C155 1.346 . S
C155 N154 1.346 . S
C155 C156 1.396 . S
C155 C165 1.510 . S
C156 C152 1.401 . S
C156 C155 1.396 . S
C157 C152 1.499 . S
C157 H158 0.959 . S
C157 H159 0.960 . S
C157 H160 0.961 . S
H158 C157 0.959 . S
H159 C157 0.960 . S
H160 C157 0.961 . S
O161 Co136 1.967 . S
O161 C169 1.258 . S
O162 Co137 1.941 . S
O162 C169 1.266 . S
H163 C165 0.959 1_554 S
H164 C165 0.961 1_654 S
C165 C155 1.510 . S
C165 H163 0.959 1_556 S
C165 H164 0.961 1_456 S
C165 H166 0.960 1_556 S
H166 C165 0.960 1_554 S
H167 N147 0.862 . S
O168 Co136 1.920 . S
O168 C141 1.289 1_455 S
C169 O161 1.258 . S
C169 O162 1.266 . S
Co170 O173 1.970 . S
Co170 N187 1.989 . S
Co170 O195 1.967 . S
Co170 O202 1.920 . S
Co171 O174 1.966 . S
Co171 N180 2.022 . S
Co171 N188 1.993 . S
Co171 O196 1.941 . S
C172 O173 1.258 . S
C172 O174 1.263 1_556 S
O173 Co170 1.970 . S
O173 C172 1.258 . S
O174 Co171 1.966 . S
O174 C172 1.263 1_554 S
C175 O176 1.235 . S
C175 O202 1.289 . S
O176 C175 1.235 . S
C177 C179 1.400 . S
C177 N180 1.351 . S
C177 C182 1.501 . S
C178 C179 1.387 . S
C178 N181 1.341 . S
C179 C177 1.400 . S
C179 C178 1.387 . S
N180 Co171 2.022 . S
N180 C177 1.351 . S
N180 N181 1.365 . S
N181 C178 1.341 . S
N181 N180 1.365 . S
N181 H201 0.862 . S
C182 C177 1.501 . S
C182 H183 0.961 . S
C182 H184 0.961 . S
C182 H185 0.960 . S
H183 C182 0.961 . S
H184 C182 0.961 . S
H185 C182 0.960 . S
C186 N187 1.342 . S
C186 C190 1.401 1_556 S
C186 C191 1.499 . S
N187 Co170 1.989 . S
N187 C186 1.342 . S
N187 N188 1.388 1_556 S
N188 Co171 1.993 . S
N188 N187 1.388 1_554 S
N188 C189 1.346 . S
C189 N188 1.346 . S
C189 C190 1.396 . S
C189 C199 1.510 . S
C190 C186 1.401 1_554 S
C190 C189 1.396 . S
C191 C186 1.499 . S
C191 H192 0.959 . S
C191 H193 0.960 . S
C191 H194 0.961 . S
H192 C191 0.959 . S
H193 C191 0.960 . S
H194 C191 0.961 . S
O195 Co170 1.967 . S
O195 C203 1.258 . S
O196 Co171 1.941 . S
O196 C203 1.266 1_554 S
H197 C199 0.959 . S
H198 C199 0.961 . S
C199 C189 1.510 . S
C199 H197 0.959 . S
C199 H198 0.961 . S
C199 H200 0.960 . S
H200 C199 0.960 . S
H201 N181 0.862 . S
O202 Co170 1.920 . S
O202 C175 1.289 . S
C203 O195 1.258 . S
C203 O196 1.266 1_556 S
Co204 O207 1.970 . S
Co204 N221 1.989 . S
Co204 O229 1.967 . S
Co204 O236 1.920 . S
Co205 O208 1.966 . S
Co205 N214 2.022 . S
Co205 N222 1.993 . S
Co205 O230 1.941 . S
C206 O207 1.258 . S
C206 O208 1.263 . S
O207 Co204 1.970 . S
O207 C206 1.258 . S
O208 Co205 1.966 . S
O208 C206 1.263 . S
C209 O210 1.235 1_556 S
C209 O236 1.289 1_556 S
O210 C209 1.235 1_554 S
C211 C213 1.400 . S
C211 N214 1.351 . S
C211 C216 1.501 . S
C212 C213 1.387 . S
C212 N215 1.341 . S
C213 C211 1.400 . S
C213 C212 1.387 . S
N214 Co205 2.022 . S
N214 C211 1.351 . S
N214 N215 1.365 . S
N215 C212 1.341 . S
N215 N214 1.365 . S
N215 H235 0.862 . S
C216 C211 1.501 . S
C216 H217 0.961 . S
C216 H218 0.961 . S
C216 H219 0.960 . S
H217 C216 0.961 . S
H218 C216 0.961 . S
H219 C216 0.960 . S
C220 N221 1.342 . S
C220 C224 1.401 . S
C220 C225 1.499 . S
N221 Co204 1.989 . S
N221 C220 1.342 . S
N221 N222 1.388 . S
N222 Co205 1.993 . S
N222 N221 1.388 . S
N222 C223 1.346 . S
C223 N222 1.346 . S
C223 C224 1.396 . S
C223 C233 1.510 . S
C224 C220 1.401 . S
C224 C223 1.396 . S
C225 C220 1.499 . S
C225 H226 0.959 . S
C225 H227 0.960 . S
C225 H228 0.961 . S
H226 C225 0.959 . S
H227 C225 0.960 . S
H228 C225 0.961 . S
O229 Co204 1.967 . S
O229 C237 1.258 . S
O230 Co205 1.941 . S
O230 C237 1.266 . S
H231 C233 0.959 . S
H232 C233 0.961 . S
C233 C223 1.510 . S
C233 H231 0.959 . S
C233 H232 0.961 . S
C233 H234 0.960 . S
H234 C233 0.960 . S
H235 N215 0.862 . S
O236 Co204 1.920 . S
O236 C209 1.289 1_554 S
C237 O229 1.258 . S
C237 O230 1.266 . S
Co238 O241 1.970 . S
Co238 N255 1.989 . S
Co238 O263 1.967 . S
Co238 O270 1.920 . S
Co239 O242 1.966 . S
Co239 N248 2.022 . S
Co239 N256 1.993 . S
Co239 O264 1.941 . S
C240 O241 1.258 . S
C240 O242 1.263 . S
O241 Co238 1.970 . S
O241 C240 1.258 . S
O242 Co239 1.966 . S
O242 C240 1.263 . S
C243 O244 1.235 . S
C243 O270 1.289 . S
O244 C243 1.235 . S
C245 C247 1.400 . S
C245 N248 1.351 . S
C245 C250 1.501 . S
C246 C247 1.387 . S
C246 N249 1.341 . S
C247 C245 1.400 . S
C247 C246 1.387 . S
N248 Co239 2.022 . S
N248 C245 1.351 . S
N248 N249 1.365 . S
N249 C246 1.341 . S
N249 N248 1.365 . S
N249 H269 0.862 . S
C250 C245 1.501 . S
C250 H251 0.961 . S
C250 H252 0.961 . S
C250 H253 0.960 . S
H251 C250 0.961 . S
H252 C250 0.961 . S
H253 C250 0.960 . S
C254 N255 1.342 . S
C254 C258 1.401 . S
C254 C259 1.499 . S
N255 Co238 1.989 . S
N255 C254 1.342 . S
N255 N256 1.388 . S
N256 Co239 1.993 . S
N256 N255 1.388 . S
N256 C257 1.346 . S
C257 N256 1.346 . S
C257 C258 1.396 . S
C257 C267 1.510 . S
C258 C254 1.401 . S
C258 C257 1.396 . S
C259 C254 1.499 . S
C259 H260 0.959 . S
C259 H261 0.960 . S
C259 H262 0.961 . S
H260 C259 0.959 . S
H261 C259 0.960 . S
H262 C259 0.961 . S
O263 Co238 1.967 . S
O263 C271 1.258 . S
O264 Co239 1.941 . S
O264 C271 1.266 . S
H265 C267 0.959 . S
H266 C267 0.961 . S
C267 C257 1.510 . S
C267 H265 0.959 . S
C267 H266 0.961 . S
C267 H268 0.960 . S
H268 C267 0.960 . S
H269 N249 0.862 . S
O270 Co238 1.920 . S
O270 C243 1.289 . S
C271 O263 1.258 . S
C271 O264 1.266 . S
Co272 O275 1.970 . S
Co272 N289 1.989 . S
Co272 O297 1.967 . S
Co272 O304 1.920 . S
Co273 O276 1.966 . S
Co273 N282 2.022 . S
Co273 N290 1.993 . S
Co273 O298 1.941 . S
C274 O275 1.258 . S
C274 O276 1.263 . S
O275 Co272 1.970 . S
O275 C274 1.258 . S
O276 Co273 1.966 . S
O276 C274 1.263 . S
C277 O278 1.235 . S
C277 O304 1.289 . S
O278 C277 1.235 . S
C279 C281 1.400 . S
C279 N282 1.351 . S
C279 C284 1.501 . S
C280 C281 1.387 . S
C280 N283 1.341 . S
C281 C279 1.400 . S
C281 C280 1.387 . S
N282 Co273 2.022 . S
N282 C279 1.351 . S
N282 N283 1.365 . S
N283 C280 1.341 . S
N283 N282 1.365 . S
N283 H303 0.862 . S
C284 C279 1.501 . S
C284 H285 0.961 . S
C284 H286 0.961 . S
C284 H287 0.960 . S
H285 C284 0.961 . S
H286 C284 0.961 . S
H287 C284 0.960 . S
C288 N289 1.342 . S
C288 C292 1.401 . S
C288 C293 1.499 . S
N289 Co272 1.989 . S
N289 C288 1.342 . S
N289 N290 1.388 . S
N290 Co273 1.993 . S
N290 N289 1.388 . S
N290 C291 1.346 . S
C291 N290 1.346 . S
C291 C292 1.396 . S
C291 C301 1.510 . S
C292 C288 1.401 . S
C292 C291 1.396 . S
C293 C288 1.499 . S
C293 H294 0.959 . S
C293 H295 0.960 . S
C293 H296 0.961 . S
H294 C293 0.959 . S
H295 C293 0.960 . S
H296 C293 0.961 . S
O297 Co272 1.967 . S
O297 C305 1.258 . S
O298 Co273 1.941 . S
O298 C305 1.266 . S
H299 C301 0.959 . S
H300 C301 0.961 . S
C301 C291 1.510 . S
C301 H299 0.959 . S
C301 H300 0.961 . S
C301 H302 0.960 . S
H302 C301 0.960 . S
H303 N283 0.862 . S
O304 Co272 1.920 . S
O304 C277 1.289 . S
C305 O297 1.258 . S
C305 O298 1.266 . S
Co306 O309 1.970 . S
Co306 N323 1.989 . S
Co306 O331 1.967 . S
Co306 O338 1.920 . S
Co307 O310 1.966 . S
Co307 N316 2.022 . S
Co307 N324 1.993 . S
Co307 O332 1.941 . S
C308 O309 1.258 . S
C308 O310 1.263 1_556 S
O309 Co306 1.970 . S
O309 C308 1.258 . S
O310 Co307 1.966 . S
O310 C308 1.263 1_554 S
C311 O312 1.235 . S
C311 O338 1.289 . S
O312 C311 1.235 . S
C313 C315 1.400 . S
C313 N316 1.351 . S
C313 C318 1.501 . S
C314 C315 1.387 . S
C314 N317 1.341 . S
C315 C313 1.400 . S
C315 C314 1.387 . S
N316 Co307 2.022 . S
N316 C313 1.351 . S
N316 N317 1.365 . S
N317 C314 1.341 . S
N317 N316 1.365 . S
N317 H337 0.862 . S
C318 C313 1.501 . S
C318 H319 0.961 . S
C318 H320 0.961 . S
C318 H321 0.960 . S
H319 C318 0.961 . S
H320 C318 0.961 . S
H321 C318 0.960 . S
C322 N323 1.342 . S
C322 C326 1.401 1_556 S
C322 C327 1.499 . S
N323 Co306 1.989 . S
N323 C322 1.342 . S
N323 N324 1.388 1_556 S
N324 Co307 1.993 . S
N324 N323 1.388 1_554 S
N324 C325 1.346 . S
C325 N324 1.346 . S
C325 C326 1.396 . S
C325 C335 1.510 . S
C326 C322 1.401 1_554 S
C326 C325 1.396 . S
C327 C322 1.499 . S
C327 H328 0.959 . S
C327 H329 0.960 . S
C327 H330 0.961 . S
H328 C327 0.959 . S
H329 C327 0.960 . S
H330 C327 0.961 . S
O331 Co306 1.967 . S
O331 C339 1.258 . S
O332 Co307 1.941 . S
O332 C339 1.266 1_554 S
H333 C335 0.959 . S
H334 C335 0.961 . S
C335 C325 1.510 . S
C335 H333 0.959 . S
C335 H334 0.961 . S
C335 H336 0.960 . S
H336 C335 0.960 . S
H337 N317 0.862 . S
O338 Co306 1.920 . S
O338 C311 1.289 . S
C339 O331 1.258 . S
C339 O332 1.266 1_556 S
Co340 O343 1.970 . S
Co340 N357 1.989 . S
Co340 O365 1.967 . S
Co340 O372 1.920 . S
Co341 O344 1.966 . S
Co341 N350 2.022 . S
Co341 N358 1.993 . S
Co341 O366 1.941 . S
C342 O343 1.258 . S
C342 O344 1.263 1_554 S
O343 Co340 1.970 . S
O343 C342 1.258 . S
O344 Co341 1.966 . S
O344 C342 1.263 1_556 S
C345 O346 1.235 . S
C345 O372 1.289 . S
O346 C345 1.235 . S
C347 C349 1.400 . S
C347 N350 1.351 . S
C347 C352 1.501 . S
C348 C349 1.387 . S
C348 N351 1.341 . S
C349 C347 1.400 . S
C349 C348 1.387 . S
N350 Co341 2.022 . S
N350 C347 1.351 . S
N350 N351 1.365 . S
N351 C348 1.341 . S
N351 N350 1.365 . S
N351 H371 0.862 . S
C352 C347 1.501 . S
C352 H353 0.961 . S
C352 H354 0.961 . S
C352 H355 0.960 . S
H353 C352 0.961 . S
H354 C352 0.961 . S
H355 C352 0.960 . S
C356 N357 1.342 . S
C356 C360 1.401 1_554 S
C356 C361 1.499 . S
N357 Co340 1.989 . S
N357 C356 1.342 . S
N357 N358 1.388 1_554 S
N358 Co341 1.993 . S
N358 N357 1.388 1_556 S
N358 C359 1.346 . S
C359 N358 1.346 . S
C359 C360 1.396 . S
C359 C369 1.510 . S
C360 C356 1.401 1_556 S
C360 C359 1.396 . S
C361 C356 1.499 . S
C361 H362 0.959 . S
C361 H363 0.960 . S
C361 H364 0.961 . S
H362 C361 0.959 . S
H363 C361 0.960 . S
H364 C361 0.961 . S
O365 Co340 1.967 . S
O365 C373 1.258 . S
O366 Co341 1.941 . S
O366 C373 1.266 1_556 S
H367 C369 0.959 . S
H368 C369 0.961 . S
C369 C359 1.510 . S
C369 H367 0.959 . S
C369 H368 0.961 . S
C369 H370 0.960 . S
H370 C369 0.960 . S
H371 N351 0.862 . S
O372 Co340 1.920 . S
O372 C345 1.289 . S
C373 O365 1.258 . S
C373 O366 1.266 1_554 S
Co374 O377 1.970 . S
Co374 N391 1.989 . S
Co374 O399 1.967 . S
Co374 O406 1.920 . S
Co375 O378 1.966 . S
Co375 N384 2.022 . S
Co375 N392 1.993 . S
Co375 O400 1.941 . S
C376 O377 1.258 . S
C376 O378 1.263 . S
O377 Co374 1.970 . S
O377 C376 1.258 . S
O378 Co375 1.966 . S
O378 C376 1.263 . S
C379 O380 1.235 . S
C379 O406 1.289 . S
O380 C379 1.235 . S
C381 C383 1.400 . S
C381 N384 1.351 . S
C381 C386 1.501 . S
C382 C383 1.387 . S
C382 N385 1.341 . S
C383 C381 1.400 . S
C383 C382 1.387 . S
N384 Co375 2.022 . S
N384 C381 1.351 . S
N384 N385 1.365 . S
N385 C382 1.341 . S
N385 N384 1.365 . S
N385 H405 0.862 . S
C386 C381 1.501 . S
C386 H387 0.961 . S
C386 H388 0.961 . S
C386 H389 0.960 . S
H387 C386 0.961 . S
H388 C386 0.961 . S
H389 C386 0.960 . S
C390 N391 1.342 . S
C390 C394 1.401 . S
C390 C395 1.499 . S
N391 Co374 1.989 . S
N391 C390 1.342 . S
N391 N392 1.388 . S
N392 Co375 1.993 . S
N392 N391 1.388 . S
N392 C393 1.346 . S
C393 N392 1.346 . S
C393 C394 1.396 . S
C393 C403 1.510 . S
C394 C390 1.401 . S
C394 C393 1.396 . S
C395 C390 1.499 . S
C395 H396 0.959 . S
C395 H397 0.960 . S
C395 H398 0.961 . S
H396 C395 0.959 . S
H397 C395 0.960 . S
H398 C395 0.961 . S
O399 Co374 1.967 . S
O399 C407 1.258 . S
O400 Co375 1.941 . S
O400 C407 1.266 . S
H401 C403 0.959 . S
H402 C403 0.961 . S
C403 C393 1.510 . S
C403 H401 0.959 . S
C403 H402 0.961 . S
C403 H404 0.960 . S
H404 C403 0.960 . S
H405 N385 0.862 . S
O406 Co374 1.920 . S
O406 C379 1.289 . S
C407 O399 1.258 . S
C407 O400 1.266 . S
Co408 O411 1.970 . S
Co408 N425 1.989 . S
Co408 O433 1.967 . S
Co408 O440 1.920 . S
Co409 O412 1.966 . S
Co409 N418 2.022 . S
Co409 N426 1.993 . S
Co409 O434 1.941 . S
C410 O411 1.258 . S
C410 O412 1.263 . S
O411 Co408 1.970 . S
O411 C410 1.258 . S
O412 Co409 1.966 . S
O412 C410 1.263 . S
C413 O414 1.235 1_554 S
C413 O440 1.289 1_554 S
O414 C413 1.235 1_556 S
C415 C417 1.400 . S
C415 N418 1.351 . S
C415 C420 1.501 . S
C416 C417 1.387 . S
C416 N419 1.341 . S
C417 C415 1.400 . S
C417 C416 1.387 . S
N418 Co409 2.022 . S
N418 C415 1.351 . S
N418 N419 1.365 . S
N419 C416 1.341 . S
N419 N418 1.365 . S
N419 H439 0.862 . S
C420 C415 1.501 . S
C420 H421 0.961 . S
C420 H422 0.961 . S
C420 H423 0.960 . S
H421 C420 0.961 . S
H422 C420 0.961 . S
H423 C420 0.960 . S
C424 N425 1.342 . S
C424 C428 1.401 . S
C424 C429 1.499 . S
N425 Co408 1.989 . S
N425 C424 1.342 . S
N425 N426 1.388 . S
N426 Co409 1.993 . S
N426 N425 1.388 . S
N426 C427 1.346 . S
C427 N426 1.346 . S
C427 C428 1.396 . S
C427 C437 1.510 . S
C428 C424 1.401 . S
C428 C427 1.396 . S
C429 C424 1.499 . S
C429 H430 0.959 . S
C429 H431 0.960 . S
C429 H432 0.961 . S
H430 C429 0.959 . S
H431 C429 0.960 . S
H432 C429 0.961 . S
O433 Co408 1.967 . S
O433 C441 1.258 . S
O434 Co409 1.941 . S
O434 C441 1.266 . S
H435 C437 0.959 . S
H436 C437 0.961 . S
C437 C427 1.510 . S
C437 H435 0.959 . S
C437 H436 0.961 . S
C437 H438 0.960 . S
H438 C437 0.960 . S
H439 N419 0.862 . S
O440 Co408 1.920 . S
O440 C413 1.289 1_556 S
C441 O433 1.258 . S
C441 O434 1.266 . S
Co442 O445 1.970 . S
Co442 N459 1.989 1_455 S
Co442 O467 1.967 1_455 S
Co442 O474 1.920 1_455 S
Co443 O446 1.966 1_655 S
Co443 N452 2.016 1_554 S
Co443 N460 1.993 . S
Co443 O468 1.941 . S
C444 O445 1.258 . S
C444 O446 1.263 . S
O445 Co442 1.970 . S
O445 C444 1.258 . S
O446 Co443 1.966 1_455 S
O446 C444 1.263 . S
C447 O448 1.235 . S
C447 O474 1.289 1_455 S
O448 C447 1.235 . S
C449 C451 1.400 . S
C449 N452 1.355 1_455 S
C449 C454 1.501 . S
C450 C451 1.387 1_655 S
C450 N453 1.341 . S
C451 C449 1.400 . S
C451 C450 1.387 1_455 S
N452 Co443 2.016 1_556 S
N452 C449 1.355 1_655 S
N452 N453 1.369 . S
N453 C450 1.341 . S
N453 N452 1.369 . S
N453 H473 0.862 . S
C454 C449 1.501 . S
C454 H455 0.961 1_556 S
C454 H456 0.961 . S
C454 H457 0.960 . S
H455 C454 0.961 1_554 S
H456 C454 0.961 . S
H457 C454 0.960 . S
C458 N459 1.342 . S
C458 C462 1.401 . S
C458 C463 1.499 . S
N459 Co442 1.989 1_655 S
N459 C458 1.342 . S
N459 N460 1.388 . S
N460 Co443 1.993 . S
N460 N459 1.388 . S
N460 C461 1.346 . S
C461 N460 1.346 . S
C461 C462 1.396 . S
C461 C471 1.510 . S
C462 C458 1.401 . S
C462 C461 1.396 . S
C463 C458 1.499 . S
C463 H464 0.959 . S
C463 H465 0.960 1_655 S
C463 H466 0.961 . S
H464 C463 0.959 . S
H465 C463 0.960 1_455 S
H466 C463 0.961 . S
O467 Co442 1.967 1_655 S
O467 C475 1.258 . S
O468 Co443 1.941 . S
O468 C475 1.266 . S
H469 C471 0.959 1_556 S
H470 C471 0.961 1_456 S
C471 C461 1.510 . S
C471 H469 0.959 1_554 S
C471 H470 0.961 1_654 S
C471 H472 0.960 1_554 S
H472 C471 0.960 1_556 S
H473 N453 0.862 . S
O474 Co442 1.920 1_655 S
O474 C447 1.289 1_655 S
C475 O467 1.258 . S
C475 O468 1.266 . S
Co476 O479 1.970 . S
Co476 N493 1.989 . S
Co476 O501 1.967 . S
Co476 O508 1.920 . S
Co477 O480 1.966 . S
Co477 N486 2.022 . S
Co477 N494 1.993 . S
Co477 O502 1.941 . S
C478 O479 1.258 . S
C478 O480 1.263 . S
O479 Co476 1.970 . S
O479 C478 1.258 . S
O480 Co477 1.966 . S
O480 C478 1.263 . S
C481 O482 1.235 1_556 S
C481 O508 1.289 1_556 S
O482 C481 1.235 1_554 S
C483 C485 1.400 . S
C483 N486 1.351 . S
C483 C488 1.501 . S
C484 C485 1.387 . S
C484 N487 1.341 . S
C485 C483 1.400 . S
C485 C484 1.387 . S
N486 Co477 2.022 . S
N486 C483 1.351 . S
N486 N487 1.365 . S
N487 C484 1.341 . S
N487 N486 1.365 . S
N487 H507 0.862 . S
C488 C483 1.501 . S
C488 H489 0.961 . S
C488 H490 0.961 . S
C488 H491 0.960 . S
H489 C488 0.961 . S
H490 C488 0.961 . S
H491 C488 0.960 . S
C492 N493 1.342 . S
C492 C496 1.401 . S
C492 C497 1.499 . S
N493 Co476 1.989 . S
N493 C492 1.342 . S
N493 N494 1.388 . S
N494 Co477 1.993 . S
N494 N493 1.388 . S
N494 C495 1.346 . S
C495 N494 1.346 . S
C495 C496 1.396 . S
C495 C505 1.510 . S
C496 C492 1.401 . S
C496 C495 1.396 . S
C497 C492 1.499 . S
C497 H498 0.959 . S
C497 H499 0.960 . S
C497 H500 0.961 . S
H498 C497 0.959 . S
H499 C497 0.960 . S
H500 C497 0.961 . S
O501 Co476 1.967 . S
O501 C509 1.258 . S
O502 Co477 1.941 . S
O502 C509 1.266 . S
H503 C505 0.959 . S
H504 C505 0.961 . S
C505 C495 1.510 . S
C505 H503 0.959 . S
C505 H504 0.961 . S
C505 H506 0.960 . S
H506 C505 0.960 . S
H507 N487 0.862 . S
O508 Co476 1.920 . S
O508 C481 1.289 1_554 S
C509 O501 1.258 . S
C509 O502 1.266 . S
Co510 O513 1.970 . S
Co510 N527 1.989 1_455 S
Co510 O535 1.967 1_455 S
Co510 O542 1.920 1_455 S
Co511 O514 1.966 1_655 S
Co511 N520 2.016 1_556 S
Co511 N528 1.993 . S
Co511 O536 1.941 . S
C512 O513 1.258 . S
C512 O514 1.263 . S
O513 Co510 1.970 . S
O513 C512 1.258 . S
O514 Co511 1.966 1_455 S
O514 C512 1.263 . S
C515 O516 1.235 . S
C515 O542 1.289 1_455 S
O516 C515 1.235 . S
C517 C519 1.400 . S
C517 N520 1.355 1_455 S
C517 C522 1.501 . S
C518 C519 1.387 1_655 S
C518 N521 1.341 . S
C519 C517 1.400 . S
C519 C518 1.387 1_455 S
N520 Co511 2.016 1_554 S
N520 C517 1.355 1_655 S
N520 N521 1.369 . S
N521 C518 1.341 . S
N521 N520 1.369 . S
N521 H541 0.862 . S
C522 C517 1.501 . S
C522 H523 0.961 1_554 S
C522 H524 0.961 . S
C522 H525 0.960 . S
H523 C522 0.961 1_556 S
H524 C522 0.961 . S
H525 C522 0.960 . S
C526 N527 1.342 . S
C526 C530 1.401 . S
C526 C531 1.499 . S
N527 Co510 1.989 1_655 S
N527 C526 1.342 . S
N527 N528 1.388 . S
N528 Co511 1.993 . S
N528 N527 1.388 . S
N528 C529 1.346 . S
C529 N528 1.346 . S
C529 C530 1.396 . S
C529 C539 1.510 . S
C530 C526 1.401 . S
C530 C529 1.396 . S
C531 C526 1.499 . S
C531 H532 0.959 . S
C531 H533 0.960 1_655 S
C531 H534 0.961 . S
H532 C531 0.959 . S
H533 C531 0.960 1_455 S
H534 C531 0.961 . S
O535 Co510 1.967 1_655 S
O535 C543 1.258 . S
O536 Co511 1.941 . S
O536 C543 1.266 . S
H537 C539 0.959 1_554 S
H538 C539 0.961 1_454 S
C539 C529 1.510 . S
C539 H537 0.959 1_556 S
C539 H538 0.961 1_656 S
C539 H540 0.960 1_556 S
H540 C539 0.960 1_554 S
H541 N521 0.862 . S
O542 Co510 1.920 1_655 S
O542 C515 1.289 1_655 S
C543 O535 1.258 . S
C543 O536 1.266 . S
C544 C545 1.363 . S
C544 C550 1.379 . S
C544 N552 1.356 . S
C545 C544 1.363 . S
C545 C551 1.363 . S
C546 C547 1.363 . S
C546 C551 1.379 . S
C546 N553 1.356 . S
C547 C546 1.363 . S
C547 C550 1.363 . S
N548 C550 1.356 . S
N548 H560 0.984 . S
N548 H561 0.985 . S
N549 C551 1.356 . S
N549 H554 0.984 . S
N549 H555 0.985 . S
C550 C544 1.379 . S
C550 C547 1.363 . S
C550 N548 1.356 . S
C551 C545 1.363 . S
C551 C546 1.379 . S
C551 N549 1.356 . S
N552 C544 1.356 . S
N552 H558 0.984 . S
N552 H559 0.984 . S
N553 C546 1.356 . S
N553 H556 0.984 . S
N553 H557 0.985 . S
H554 N549 0.984 . S
H555 N549 0.985 . S
H556 N553 0.984 . S
H557 N553 0.985 . S
H558 N552 0.984 . S
H559 N552 0.984 . S
H560 N548 0.984 . S
H561 N548 0.985 . S
C562 C563 1.363 . S
C562 C568 1.379 . S
C562 N570 1.356 . S
C563 C562 1.363 . S
C563 C569 1.363 . S
C564 C565 1.363 . S
C564 C569 1.379 . S
C564 N571 1.356 . S
C565 C564 1.363 . S
C565 C568 1.363 . S
N566 C568 1.356 . S
N566 H578 0.984 . S
N566 H579 0.985 . S
N567 C569 1.356 . S
N567 H572 0.984 . S
N567 H573 0.985 . S
C568 C562 1.379 . S
C568 C565 1.363 . S
C568 N566 1.356 . S
C569 C563 1.363 . S
C569 C564 1.379 . S
C569 N567 1.356 . S
N570 C562 1.356 . S
N570 H576 0.984 . S
N570 H577 0.984 . S
N571 C564 1.356 . S
N571 H574 0.984 . S
N571 H575 0.985 . S
H572 N567 0.984 . S
H573 N567 0.985 . S
H574 N571 0.984 . S
H575 N571 0.985 . S
H576 N570 0.984 . S
H577 N570 0.984 . S
H578 N566 0.984 . S
H579 N566 0.985 . S
C580 C581 1.363 . S
C580 C586 1.379 . S
C580 N588 1.356 . S
C581 C580 1.363 . S
C581 C587 1.363 . S
C582 C583 1.363 . S
C582 C587 1.379 . S
C582 N589 1.356 1_556 S
C583 C582 1.363 . S
C583 C586 1.363 . S
N584 C586 1.356 . S
N584 H596 0.984 . S
N584 H597 0.985 . S
N585 C587 1.356 . S
N585 H590 0.984 . S
N585 H591 0.985 . S
C586 C580 1.379 . S
C586 C583 1.363 . S
C586 N584 1.356 . S
C587 C581 1.363 . S
C587 C582 1.379 . S
C587 N585 1.356 . S
N588 C580 1.356 . S
N588 H594 0.984 . S
N588 H595 0.984 . S
N589 C582 1.356 1_554 S
N589 H592 0.984 . S
N589 H593 0.985 . S
H590 N585 0.984 . S
H591 N585 0.985 . S
H592 N589 0.984 . S
H593 N589 0.985 . S
H594 N588 0.984 . S
H595 N588 0.984 . S
H596 N584 0.984 . S
H597 N584 0.985 . S
C598 C599 1.363 . S
C598 C604 1.379 . S
C598 N606 1.356 . S
C599 C598 1.363 . S
C599 C605 1.363 . S
C600 C601 1.363 . S
C600 C605 1.379 . S
C600 N607 1.356 . S
C601 C600 1.363 . S
C601 C604 1.363 . S
N602 C604 1.356 . S
N602 H614 0.984 . S
N602 H615 0.985 . S
N603 C605 1.356 . S
N603 H608 0.984 . S
N603 H609 0.985 . S
C604 C598 1.379 . S
C604 C601 1.363 . S
C604 N602 1.356 . S
C605 C599 1.363 . S
C605 C600 1.379 . S
C605 N603 1.356 . S
N606 C598 1.356 . S
N606 H612 0.984 . S
N606 H613 0.984 . S
N607 C600 1.356 . S
N607 H610 0.984 1_554 S
N607 H611 0.985 . S
H608 N603 0.984 . S
H609 N603 0.985 . S
H610 N607 0.984 1_556 S
H611 N607 0.985 . S
H612 N606 0.984 . S
H613 N606 0.984 . S
H614 N602 0.984 . S
H615 N602 0.985 . S
C616 C617 1.363 . S
C616 C622 1.379 . S
C616 N624 1.356 . S
C617 C616 1.363 . S
C617 C623 1.363 . S
C618 C619 1.363 . S
C618 C623 1.379 . S
C618 N625 1.356 . S
C619 C618 1.363 . S
C619 C622 1.363 . S
N620 C622 1.356 . S
N620 H632 0.984 . S
N620 H633 0.985 . S
N621 C623 1.356 . S
N621 H626 0.984 . S
N621 H627 0.985 . S
C622 C616 1.379 . S
C622 C619 1.363 . S
C622 N620 1.356 . S
C623 C617 1.363 . S
C623 C618 1.379 . S
C623 N621 1.356 . S
N624 C616 1.356 . S
N624 H630 0.984 . S
N624 H631 0.984 . S
N625 C618 1.356 . S
N625 H628 0.984 . S
N625 H629 0.985 . S
H626 N621 0.984 . S
H627 N621 0.985 . S
H628 N625 0.984 . S
H629 N625 0.985 . S
H630 N624 0.984 . S
H631 N624 0.984 . S
H632 N620 0.984 . S
H633 N620 0.985 . S
C634 C635 1.363 . S
C634 C640 1.379 . S
C634 N642 1.356 . S
C635 C634 1.363 . S
C635 C641 1.363 . S
C636 C637 1.363 . S
C636 C641 1.379 . S
C636 N643 1.356 . S
C637 C636 1.363 . S
C637 C640 1.363 . S
N638 C640 1.356 . S
N638 H650 0.984 . S
N638 H651 0.985 . S
N639 C641 1.356 . S
N639 H644 0.984 . S
N639 H645 0.985 . S
C640 C634 1.379 . S
C640 C637 1.363 . S
C640 N638 1.356 . S
C641 C635 1.363 . S
C641 C636 1.379 . S
C641 N639 1.356 . S
N642 C634 1.356 . S
N642 H648 0.984 . S
N642 H649 0.984 . S
N643 C636 1.356 . S
N643 H646 0.984 . S
N643 H647 0.985 . S
H644 N639 0.984 . S
H645 N639 0.985 . S
H646 N643 0.984 . S
H647 N643 0.985 . S
H648 N642 0.984 . S
H649 N642 0.984 . S
H650 N638 0.984 . S
H651 N638 0.985 . S
C652 C653 1.363 . S
C652 C658 1.379 . S
C652 N660 1.356 . S
C653 C652 1.363 . S
C653 C659 1.363 . S
C654 C655 1.363 . S
C654 C659 1.379 . S
C654 N661 1.356 . S
C655 C654 1.363 . S
C655 C658 1.363 . S
N656 C658 1.356 . S
N656 H668 0.984 . S
N656 H669 0.985 . S
N657 C659 1.356 . S
N657 H662 0.984 . S
N657 H663 0.985 . S
C658 C652 1.379 . S
C658 C655 1.363 . S
C658 N656 1.356 . S
C659 C653 1.363 . S
C659 C654 1.379 . S
C659 N657 1.356 . S
N660 C652 1.356 . S
N660 H666 0.984 . S
N660 H667 0.984 . S
N661 C654 1.356 . S
N661 H664 0.984 . S
N661 H665 0.985 . S
H662 N657 0.984 . S
H663 N657 0.985 . S
H664 N661 0.984 . S
H665 N661 0.985 . S
H666 N660 0.984 . S
H667 N660 0.984 . S
H668 N656 0.984 . S
H669 N656 0.985 . S
C670 C671 1.363 . S
C670 C676 1.379 . S
C670 N678 1.356 . S
C671 C670 1.363 . S
C671 C677 1.363 . S
C672 C673 1.363 . S
C672 C677 1.379 . S
C672 N679 1.356 . S
C673 C672 1.363 . S
C673 C676 1.363 . S
N674 C676 1.356 . S
N674 H686 0.984 . S
N674 H687 0.985 . S
N675 C677 1.356 . S
N675 H680 0.984 . S
N675 H681 0.985 . S
C676 C670 1.379 . S
C676 C673 1.363 . S
C676 N674 1.356 . S
C677 C671 1.363 . S
C677 C672 1.379 . S
C677 N675 1.356 . S
N678 C670 1.356 . S
N678 H684 0.984 . S
N678 H685 0.984 . S
N679 C672 1.356 . S
N679 H682 0.984 . S
N679 H683 0.985 . S
H680 N675 0.984 . S
H681 N675 0.985 . S
H682 N679 0.984 . S
H683 N679 0.985 . S
H684 N678 0.984 . S
H685 N678 0.984 . S
H686 N674 0.984 . S
H687 N674 0.985 . S
C688 C689 1.363 . S
C688 C694 1.379 . S
C688 N696 1.356 . S
C689 C688 1.363 . S
C689 C695 1.363 . S
C690 C691 1.363 . S
C690 C695 1.379 . S
C690 N697 1.356 . S
C691 C690 1.363 . S
C691 C694 1.363 . S
N692 C694 1.356 . S
N692 H704 0.984 . S
N692 H705 0.985 . S
N693 C695 1.356 . S
N693 H698 0.984 . S
N693 H699 0.985 . S
C694 C688 1.379 . S
C694 C691 1.363 . S
C694 N692 1.356 . S
C695 C689 1.363 . S
C695 C690 1.379 . S
C695 N693 1.356 . S
N696 C688 1.356 . S
N696 H702 0.984 1_556 S
N696 H703 0.984 1_556 S
N697 C690 1.356 . S
N697 H700 0.984 . S
N697 H701 0.985 . S
H698 N693 0.984 . S
H699 N693 0.985 . S
H700 N697 0.984 . S
H701 N697 0.985 . S
H702 N696 0.984 1_554 S
H703 N696 0.984 1_554 S
H704 N692 0.984 . S
H705 N692 0.985 . S
C706 C707 1.363 . S
C706 C712 1.379 . S
C706 N714 1.356 . S
C707 C706 1.363 . S
C707 C713 1.363 . S
C708 C709 1.363 . S
C708 C713 1.379 . S
C708 N715 1.356 1_554 S
C709 C708 1.363 . S
C709 C712 1.363 . S
N710 C712 1.356 . S
N710 H722 0.984 . S
N710 H723 0.985 . S
N711 C713 1.356 . S
N711 H716 0.984 . S
N711 H717 0.985 . S
C712 C706 1.379 . S
C712 C709 1.363 . S
C712 N710 1.356 . S
C713 C707 1.363 . S
C713 C708 1.379 . S
C713 N711 1.356 . S
N714 C706 1.356 . S
N714 H720 0.984 . S
N714 H721 0.984 . S
N715 C708 1.356 1_556 S
N715 H718 0.984 . S
N715 H719 0.985 . S
H716 N711 0.984 . S
H717 N711 0.985 . S
H718 N715 0.984 . S
H719 N715 0.985 . S
H720 N714 0.984 . S
H721 N714 0.984 . S
H722 N710 0.984 . S
H723 N710 0.985 . S
C724 C725 1.363 . S
C724 C730 1.379 . S
C724 N732 1.356 . S
C725 C724 1.363 . S
C725 C731 1.363 . S
C726 C727 1.363 . S
C726 C731 1.379 . S
C726 N733 1.356 . S
C727 C726 1.363 . S
C727 C730 1.363 . S
N728 C730 1.356 . S
N728 H740 0.984 . S
N728 H741 0.985 . S
N729 C731 1.356 . S
N729 H734 0.984 . S
N729 H735 0.985 . S
C730 C724 1.379 . S
C730 C727 1.363 . S
C730 N728 1.356 . S
C731 C725 1.363 . S
C731 C726 1.379 . S
C731 N729 1.356 . S
N732 C724 1.356 . S
N732 H738 0.984 . S
N732 H739 0.984 . S
N733 C726 1.356 . S
N733 H736 0.984 . S
N733 H737 0.985 . S
H734 N729 0.984 . S
H735 N729 0.985 . S
H736 N733 0.984 . S
H737 N733 0.985 . S
H738 N732 0.984 . S
H739 N732 0.984 . S
H740 N728 0.984 . S
H741 N728 0.985 . S
C742 C743 1.363 . S
C742 C748 1.379 . S
C742 N750 1.356 . S
C743 C742 1.363 . S
C743 C749 1.363 . S
C744 C745 1.363 . S
C744 C749 1.379 . S
C744 N751 1.356 . S
C745 C744 1.363 . S
C745 C748 1.363 . S
N746 C748 1.356 . S
N746 H758 0.984 . S
N746 H759 0.985 . S
N747 C749 1.356 . S
N747 H752 0.984 . S
N747 H753 0.985 . S
C748 C742 1.379 . S
C748 C745 1.363 . S
C748 N746 1.356 . S
C749 C743 1.363 . S
C749 C744 1.379 . S
C749 N747 1.356 . S
N750 C742 1.356 . S
N750 H756 0.984 . S
N750 H757 0.984 . S
N751 C744 1.356 . S
N751 H754 0.984 . S
N751 H755 0.985 . S
H752 N747 0.984 . S
H753 N747 0.985 . S
H754 N751 0.984 . S
H755 N751 0.985 . S
H756 N750 0.984 . S
H757 N750 0.984 . S
H758 N746 0.984 . S
H759 N746 0.985 . S
C760 C761 1.363 . S
C760 C766 1.379 . S
C760 N768 1.356 1_554 S
C761 C760 1.363 . S
C761 C767 1.363 . S
C762 C763 1.363 . S
C762 C767 1.379 . S
C762 N769 1.356 . S
C763 C762 1.363 . S
C763 C766 1.363 . S
N764 C766 1.356 . S
N764 H776 0.984 . S
N764 H777 0.985 . S
N765 C767 1.356 . S
N765 H770 0.984 . S
N765 H771 0.985 . S
C766 C760 1.379 . S
C766 C763 1.363 . S
C766 N764 1.356 . S
C767 C761 1.363 . S
C767 C762 1.379 . S
C767 N765 1.356 . S
N768 C760 1.356 1_556 S
N768 H774 0.984 . S
N768 H775 0.984 . S
N769 C762 1.356 . S
N769 H772 0.984 . S
N769 H773 0.985 . S
H770 N765 0.984 . S
H771 N765 0.985 . S
H772 N769 0.984 . S
H773 N769 0.985 . S
H774 N768 0.984 . S
H775 N768 0.984 . S
H776 N764 0.984 . S
H777 N764 0.985 . S
C778 C779 1.363 . S
C778 C784 1.379 . S
C778 N786 1.356 . S
C779 C778 1.363 . S
C779 C785 1.363 . S
C780 C781 1.363 . S
C780 C785 1.379 . S
C780 N787 1.356 . S
C781 C780 1.363 . S
C781 C784 1.363 . S
N782 C784 1.356 . S
N782 H794 0.984 . S
N782 H795 0.985 . S
N783 C785 1.356 . S
N783 H788 0.984 1_556 S
N783 H789 0.985 1_556 S
C784 C778 1.379 . S
C784 C781 1.363 . S
C784 N782 1.356 . S
C785 C779 1.363 . S
C785 C780 1.379 . S
C785 N783 1.356 . S
N786 C778 1.356 . S
N786 H792 0.984 . S
N786 H793 0.984 . S
N787 C780 1.356 . S
N787 H790 0.984 . S
N787 H791 0.985 . S
H788 N783 0.984 1_554 S
H789 N783 0.985 1_554 S
H790 N787 0.984 . S
H791 N787 0.985 . S
H792 N786 0.984 . S
H793 N786 0.984 . S
H794 N782 0.984 . S
H795 N782 0.985 . S
C796 C797 1.363 . S
C796 C802 1.379 . S
C796 N804 1.356 . S
C797 C796 1.363 . S
C797 C803 1.363 . S
C798 C799 1.363 . S
C798 C803 1.379 . S
C798 N805 1.356 . S
C799 C798 1.363 . S
C799 C802 1.363 . S
N800 C802 1.356 . S
N800 H812 0.984 . S
N800 H813 0.985 . S
N801 C803 1.356 . S
N801 H806 0.984 . S
N801 H807 0.985 . S
C802 C796 1.379 . S
C802 C799 1.363 . S
C802 N800 1.356 . S
C803 C797 1.363 . S
C803 C798 1.379 . S
C803 N801 1.356 . S
N804 C796 1.356 . S
N804 H810 0.984 . S
N804 H811 0.984 . S
N805 C798 1.356 . S
N805 H808 0.984 . S
N805 H809 0.985 . S
H806 N801 0.984 . S
H807 N801 0.985 . S
H808 N805 0.984 . S
H809 N805 0.985 . S
H810 N804 0.984 . S
H811 N804 0.984 . S
H812 N800 0.984 . S
H813 N800 0.985 . S
C814 C815 1.363 . S
C814 C820 1.379 . S
C814 N822 1.356 . S
C815 C814 1.363 . S
C815 C821 1.363 . S
C816 C817 1.363 . S
C816 C821 1.379 . S
C816 N823 1.356 . S
C817 C816 1.363 . S
C817 C820 1.363 . S
N818 C820 1.356 . S
N818 H830 0.984 . S
N818 H831 0.985 . S
N819 C821 1.356 . S
N819 H824 0.984 . S
N819 H825 0.985 . S
C820 C814 1.379 . S
C820 C817 1.363 . S
C820 N818 1.356 . S
C821 C815 1.363 . S
C821 C816 1.379 . S
C821 N819 1.356 . S
N822 C814 1.356 . S
N822 H828 0.984 . S
N822 H829 0.984 . S
N823 C816 1.356 . S
N823 H826 0.984 . S
N823 H827 0.985 . S
H824 N819 0.984 . S
H825 N819 0.985 . S
H826 N823 0.984 . S
H827 N823 0.985 . S
H828 N822 0.984 . S
H829 N822 0.984 . S
H830 N818 0.984 . S
H831 N818 0.985 . S
C832 C833 1.363 1_565 S
C832 C838 1.379 1_554 S
C832 N840 1.356 . S
C833 C832 1.363 1_545 S
C833 C839 1.363 . S
C834 C835 1.363 1_545 S
C834 C839 1.379 1_556 S
C834 N841 1.370 . S
C835 C834 1.363 1_565 S
C835 C838 1.363 . S
N836 C838 1.356 . S
N836 H848 0.984 1_556 S
N836 H849 0.985 . S
N837 C839 1.370 . S
N837 H842 0.991 . S
N837 H843 0.967 1_454 S
C838 C832 1.379 1_556 S
C838 C835 1.363 . S
C838 N836 1.356 . S
C839 C833 1.363 . S
C839 C834 1.379 1_554 S
C839 N837 1.370 . S
N840 C832 1.356 . S
N840 H846 0.984 . S
N840 H847 1.005 . S
N841 C834 1.370 . S
N841 H844 1.012 . S
N841 H845 0.967 1_455 S
H842 N837 0.991 . S
H843 N837 0.967 1_656 S
H844 N841 1.012 . S
H845 N841 0.967 1_655 S
H846 N840 0.984 . S
H847 N840 1.005 . S
H848 N836 0.984 1_554 S
H849 N836 0.985 . S
C850 C851 1.363 . S
C850 C856 1.379 . S
C850 N858 1.356 . S
C851 C850 1.363 . S
C851 C857 1.363 . S
C852 C853 1.363 . S
C852 C857 1.379 . S
C852 N859 1.356 . S
C853 C852 1.363 . S
C853 C856 1.363 . S
N854 C856 1.356 . S
N854 H866 0.984 . S
N854 H867 0.985 . S
N855 C857 1.356 . S
N855 H860 0.984 . S
N855 H861 0.985 . S
C856 C850 1.379 . S
C856 C853 1.363 . S
C856 N854 1.356 . S
C857 C851 1.363 . S
C857 C852 1.379 . S
C857 N855 1.356 . S
N858 C850 1.356 . S
N858 H864 0.984 . S
N858 H865 0.984 . S
N859 C852 1.356 . S
N859 H862 0.984 . S
N859 H863 0.985 . S
H860 N855 0.984 . S
H861 N855 0.985 . S
H862 N859 0.984 . S
H863 N859 0.985 . S
H864 N858 0.984 . S
H865 N858 0.984 . S
H866 N854 0.984 . S
H867 N854 0.985 . S
C868 C869 1.363 1_565 S
C868 C874 1.379 . S
C868 N876 1.356 . S
C869 C868 1.363 1_545 S
C869 C875 1.363 . S
C870 C871 1.363 1_545 S
C870 C875 1.379 . S
C870 N877 1.356 . S
C871 C870 1.363 1_565 S
C871 C874 1.363 . S
N872 C874 1.356 . S
N872 H884 0.984 . S
N872 H885 0.985 . S
N873 C875 1.356 . S
N873 H878 0.984 . S
N873 H879 0.985 . S
C874 C868 1.379 . S
C874 C871 1.363 . S
C874 N872 1.356 . S
C875 C869 1.363 . S
C875 C870 1.379 . S
C875 N873 1.356 . S
N876 C868 1.356 . S
N876 H882 0.984 . S
N876 H883 0.984 1_565 S
N877 C870 1.356 . S
N877 H880 0.984 1_545 S
N877 H881 0.985 . S
H878 N873 0.984 . S
H879 N873 0.985 . S
H880 N877 0.984 1_565 S
H881 N877 0.985 . S
H882 N876 0.984 . S
H883 N876 0.984 1_545 S
H884 N872 0.984 . S
H885 N872 0.985 . S
C886 C887 1.363 . S
C886 C892 1.379 . S
C886 N894 1.356 . S
C887 C886 1.363 . S
C887 C893 1.363 . S
C888 C889 1.363 . S
C888 C893 1.379 . S
C888 N895 1.356 . S
C889 C888 1.363 . S
C889 C892 1.363 . S
N890 C892 1.356 . S
N890 H902 0.984 . S
N890 H903 0.985 . S
N891 C893 1.356 . S
N891 H896 0.984 . S
N891 H897 0.985 . S
C892 C886 1.379 . S
C892 C889 1.363 . S
C892 N890 1.356 . S
C893 C887 1.363 . S
C893 C888 1.379 . S
C893 N891 1.356 . S
N894 C886 1.356 . S
N894 H900 0.984 . S
N894 H901 0.984 . S
N895 C888 1.356 . S
N895 H898 0.984 . S
N895 H899 0.985 . S
H896 N891 0.984 . S
H897 N891 0.985 . S
H898 N895 0.984 . S
H899 N895 0.985 . S
H900 N894 0.984 . S
H901 N894 0.984 . S
H902 N890 0.984 . S
H903 N890 0.985 . S
C904 C905 1.363 . S
C904 C910 1.379 . S
C904 N912 1.356 . S
C905 C904 1.363 . S
C905 C911 1.363 . S
C906 C907 1.363 . S
C906 C911 1.379 . S
C906 N913 1.356 . S
C907 C906 1.363 . S
C907 C910 1.363 . S
N908 C910 1.356 . S
N908 H920 0.984 . S
N908 H921 0.985 . S
N909 C911 1.356 . S
N909 H914 0.984 . S
N909 H915 0.985 . S
C910 C904 1.379 . S
C910 C907 1.363 . S
C910 N908 1.356 . S
C911 C905 1.363 . S
C911 C906 1.379 . S
C911 N909 1.356 . S
N912 C904 1.356 . S
N912 H918 0.984 . S
N912 H919 0.984 . S
N913 C906 1.356 . S
N913 H916 0.984 . S
N913 H917 0.985 . S
H914 N909 0.984 . S
H915 N909 0.985 . S
H916 N913 0.984 . S
H917 N913 0.985 . S
H918 N912 0.984 . S
H919 N912 0.984 . S
H920 N908 0.984 . S
H921 N908 0.985 . S
C922 C923 1.363 . S
C922 C928 1.379 . S
C922 N930 1.356 . S
C923 C922 1.363 . S
C923 C929 1.363 . S
C924 C925 1.363 . S
C924 C929 1.379 . S
C924 N931 1.356 . S
C925 C924 1.363 . S
C925 C928 1.363 . S
N926 C928 1.356 . S
N926 H938 0.984 . S
N926 H939 0.985 . S
N927 C929 1.356 . S
N927 H932 0.984 . S
N927 H933 0.985 . S
C928 C922 1.379 . S
C928 C925 1.363 . S
C928 N926 1.356 . S
C929 C923 1.363 . S
C929 C924 1.379 . S
C929 N927 1.356 . S
N930 C922 1.356 . S
N930 H936 0.984 . S
N930 H937 0.984 . S
N931 C924 1.356 . S
N931 H934 0.984 . S
N931 H935 0.985 . S
H932 N927 0.984 . S
H933 N927 0.985 . S
H934 N931 0.984 . S
H935 N931 0.985 . S
H936 N930 0.984 . S
H937 N930 0.984 . S
H938 N926 0.984 . S
H939 N926 0.985 . S
C940 C941 1.363 . S
C940 C946 1.379 . S
C940 N948 1.356 . S
C941 C940 1.363 . S
C941 C947 1.363 . S
C942 C943 1.363 . S
C942 C947 1.379 . S
C942 N949 1.356 . S
C943 C942 1.363 . S
C943 C946 1.363 . S
N944 C946 1.356 . S
N944 H956 0.984 . S
N944 H957 0.985 . S
N945 C947 1.356 . S
N945 H950 0.984 . S
N945 H951 0.985 . S
C946 C940 1.379 . S
C946 C943 1.363 . S
C946 N944 1.356 . S
C947 C941 1.363 . S
C947 C942 1.379 . S
C947 N945 1.356 . S
N948 C940 1.356 . S
N948 H954 0.984 . S
N948 H955 0.984 . S
N949 C942 1.356 . S
N949 H952 0.984 . S
N949 H953 0.985 . S
H950 N945 0.984 . S
H951 N945 0.985 . S
H952 N949 0.984 . S
H953 N949 0.985 . S
H954 N948 0.984 . S
H955 N948 0.984 . S
H956 N944 0.984 . S
H957 N944 0.985 . S
C958 C959 1.363 1_455 S
C958 C964 1.379 1_556 S
C958 N966 1.356 . S
C959 C958 1.363 1_655 S
C959 C965 1.363 . S
C960 C961 1.363 . S
C960 C965 1.379 1_554 S
C960 N967 1.356 . S
C961 C960 1.363 . S
C961 C964 1.363 1_655 S
N962 C964 1.356 . S
N962 H974 0.984 . S
N962 H975 0.985 . S
N963 C965 1.356 . S
N963 H968 0.984 . S
N963 H969 0.985 . S
C964 C958 1.379 1_554 S
C964 C961 1.363 1_455 S
C964 N962 1.356 . S
C965 C959 1.363 . S
C965 C960 1.379 1_556 S
C965 N963 1.356 . S
N966 C958 1.356 . S
N966 H972 0.984 . S
N966 H973 0.984 . S
N967 C960 1.356 . S
N967 H970 0.984 . S
N967 H971 0.985 . S
H968 N963 0.984 . S
H969 N963 0.985 . S
H970 N967 0.984 . S
H971 N967 0.985 . S
H972 N966 0.984 . S
H973 N966 0.984 . S
H974 N962 0.984 . S
H975 N962 0.985 . S
C976 C977 1.363 1_455 S
C976 C982 1.379 . S
C976 N984 1.356 . S
C977 C976 1.363 1_655 S
C977 C983 1.363 . S
C978 C979 1.363 . S
C978 C983 1.379 . S
C978 N985 1.356 . S
C979 C978 1.363 . S
C979 C982 1.363 1_655 S
N980 C982 1.356 . S
N980 H992 0.984 . S
N980 H993 0.985 . S
N981 C983 1.356 . S
N981 H986 0.984 . S
N981 H987 0.985 . S
C982 C976 1.379 . S
C982 C979 1.363 1_455 S
C982 N980 1.356 . S
C983 C977 1.363 . S
C983 C978 1.379 . S
C983 N981 1.356 . S
N984 C976 1.356 . S
N984 H990 0.984 . S
N984 H991 0.984 . S
N985 C978 1.356 . S
N985 H988 0.984 . S
N985 H989 0.985 . S
H986 N981 0.984 . S
H987 N981 0.985 . S
H988 N985 0.984 . S
H989 N985 0.985 . S
H990 N984 0.984 . S
H991 N984 0.984 . S
H992 N980 0.984 . S
H993 N980 0.985 . S
C994 C995 1.363 1_556 S
C994 C1000 1.379 . S
C994 N1002 1.356 . S
C995 C994 1.363 1_554 S
C995 C1001 1.363 . S
C996 C997 1.363 . S
C996 C1001 1.379 1_556 S
C996 N1003 1.356 . S
C997 C996 1.363 . S
C997 C1000 1.363 . S
N998 C1000 1.356 . S
N998 H1010 0.984 . S
N998 H1011 0.985 . S
N999 C1001 1.356 . S
N999 H1004 0.984 . S
N999 H1005 0.985 . S
C1000 C994 1.379 . S
C1000 C997 1.363 . S
C1000 N998 1.356 . S
C1001 C995 1.363 . S
C1001 C996 1.379 1_554 S
C1001 N999 1.356 . S
N1002 C994 1.356 . S
N1002 H1008 0.984 . S
N1002 H1009 0.984 1_556 S
N1003 C996 1.356 . S
N1003 H1006 0.984 . S
N1003 H1007 0.985 . S
H1004 N999 0.984 . S
H1005 N999 0.985 . S
H1006 N1003 0.984 . S
H1007 N1003 0.985 . S
H1008 N1002 0.984 . S
H1009 N1002 0.984 1_554 S
H1010 N998 0.984 . S
H1011 N998 0.985 . S
C1012 C1013 1.363 . S
C1012 C1018 1.379 . S
C1012 N1020 1.356 . S
C1013 C1012 1.363 . S
C1013 C1019 1.363 . S
C1014 C1015 1.363 . S
C1014 C1019 1.379 . S
C1014 N1021 1.356 . S
C1015 C1014 1.363 . S
C1015 C1018 1.363 . S
N1016 C1018 1.356 . S
N1016 H1028 0.984 . S
N1016 H1029 0.985 . S
N1017 C1019 1.356 . S
N1017 H1022 0.984 . S
N1017 H1023 0.985 . S
C1018 C1012 1.379 . S
C1018 C1015 1.363 . S
C1018 N1016 1.356 . S
C1019 C1013 1.363 . S
C1019 C1014 1.379 . S
C1019 N1017 1.356 . S
N1020 C1012 1.356 . S
N1020 H1026 0.984 . S
N1020 H1027 0.984 . S
N1021 C1014 1.356 . S
N1021 H1024 0.984 . S
N1021 H1025 0.985 . S
H1022 N1017 0.984 . S
H1023 N1017 0.985 . S
H1024 N1021 0.984 . S
H1025 N1021 0.985 . S
H1026 N1020 0.984 . S
H1027 N1020 0.984 . S
H1028 N1016 0.984 . S
H1029 N1016 0.985 . S
C1030 C1031 1.363 . S
C1030 C1036 1.379 . S
C1030 N1038 1.356 . S
C1031 C1030 1.363 . S
C1031 C1037 1.363 . S
C1032 C1033 1.363 . S
C1032 C1037 1.379 . S
C1032 N1039 1.356 . S
C1033 C1032 1.363 . S
C1033 C1036 1.363 . S
N1034 C1036 1.356 . S
N1034 H1046 0.984 . S
N1034 H1047 0.985 . S
N1035 C1037 1.356 . S
N1035 H1040 0.984 . S
N1035 H1041 0.985 . S
C1036 C1030 1.379 . S
C1036 C1033 1.363 . S
C1036 N1034 1.356 . S
C1037 C1031 1.363 . S
C1037 C1032 1.379 . S
C1037 N1035 1.356 . S
N1038 C1030 1.356 . S
N1038 H1044 0.984 . S
N1038 H1045 0.984 . S
N1039 C1032 1.356 . S
N1039 H1042 0.984 . S
N1039 H1043 0.985 . S
H1040 N1035 0.984 . S
H1041 N1035 0.985 . S
H1042 N1039 0.984 . S
H1043 N1039 0.985 . S
H1044 N1038 0.984 . S
H1045 N1038 0.984 . S
H1046 N1034 0.984 . S
H1047 N1034 0.985 . S
C1048 C1049 1.363 1_455 S
C1048 C1054 1.379 . S
C1048 N1056 1.356 . S
C1049 C1048 1.363 1_655 S
C1049 C1055 1.363 . S
C1050 C1051 1.363 . S
C1050 C1055 1.379 . S
C1050 N1057 1.356 . S
C1051 C1050 1.363 . S
C1051 C1054 1.363 1_655 S
N1052 C1054 1.356 . S
N1052 H1064 0.984 . S
N1052 H1065 0.985 . S
N1053 C1055 1.356 . S
N1053 H1058 0.984 . S
N1053 H1059 0.985 . S
C1054 C1048 1.379 . S
C1054 C1051 1.363 1_455 S
C1054 N1052 1.356 . S
C1055 C1049 1.363 . S
C1055 C1050 1.379 . S
C1055 N1053 1.356 . S
N1056 C1048 1.356 . S
N1056 H1062 0.984 . S
N1056 H1063 0.984 . S
N1057 C1050 1.356 . S
N1057 H1060 0.984 . S
N1057 H1061 0.985 . S
H1058 N1053 0.984 . S
H1059 N1053 0.985 . S
H1060 N1057 0.984 . S
H1061 N1057 0.985 . S
H1062 N1056 0.984 . S
H1063 N1056 0.984 . S
H1064 N1052 0.984 . S
H1065 N1052 0.985 . S
C1066 C1067 1.363 . S
C1066 C1072 1.379 . S
C1066 N1074 1.356 . S
C1067 C1066 1.363 . S
C1067 C1073 1.363 . S
C1068 C1069 1.363 . S
C1068 C1073 1.379 . S
C1068 N1075 1.356 . S
C1069 C1068 1.363 . S
C1069 C1072 1.363 . S
N1070 C1072 1.356 . S
N1070 H1082 0.984 . S
N1070 H1083 0.985 . S
N1071 C1073 1.356 . S
N1071 H1076 0.984 . S
N1071 H1077 0.985 . S
C1072 C1066 1.379 . S
C1072 C1069 1.363 . S
C1072 N1070 1.356 . S
C1073 C1067 1.363 . S
C1073 C1068 1.379 . S
C1073 N1071 1.356 . S
N1074 C1066 1.356 . S
N1074 H1080 0.984 . S
N1074 H1081 0.984 . S
N1075 C1068 1.356 . S
N1075 H1078 0.984 . S
N1075 H1079 0.985 . S
H1076 N1071 0.984 . S
H1077 N1071 0.985 . S
H1078 N1075 0.984 . S
H1079 N1075 0.985 . S
H1080 N1074 0.984 . S
H1081 N1074 0.984 . S
H1082 N1070 0.984 . S
H1083 N1070 0.985 . S
C1084 C1085 1.363 . S
C1084 C1090 1.379 . S
C1084 N1092 1.356 . S
C1085 C1084 1.363 . S
C1085 C1091 1.363 . S
C1086 C1087 1.363 . S
C1086 C1091 1.379 . S
C1086 N1093 1.356 . S
C1087 C1086 1.363 . S
C1087 C1090 1.363 . S
N1088 C1090 1.356 . S
N1088 H1100 0.984 . S
N1088 H1101 0.985 . S
N1089 C1091 1.356 . S
N1089 H1094 0.984 . S
N1089 H1095 0.985 . S
C1090 C1084 1.379 . S
C1090 C1087 1.363 . S
C1090 N1088 1.356 . S
C1091 C1085 1.363 . S
C1091 C1086 1.379 . S
C1091 N1089 1.356 . S
N1092 C1084 1.356 . S
N1092 H1098 0.984 . S
N1092 H1099 0.984 . S
N1093 C1086 1.356 . S
N1093 H1096 0.984 . S
N1093 H1097 0.985 . S
H1094 N1089 0.984 . S
H1095 N1089 0.985 . S
H1096 N1093 0.984 . S
H1097 N1093 0.985 . S
H1098 N1092 0.984 . S
H1099 N1092 0.984 . S
H1100 N1088 0.984 . S
H1101 N1088 0.985 . S
C1102 C1103 1.363 . S
C1102 C1108 1.379 1_556 S
C1102 N1110 1.356 . S
C1103 C1102 1.363 . S
C1103 C1109 1.363 1_556 S
C1104 C1105 1.363 . S
C1104 C1109 1.379 . S
C1104 N1111 1.356 . S
C1105 C1104 1.363 . S
C1105 C1108 1.363 . S
N1106 C1108 1.356 . S
N1106 H1118 0.984 . S
N1106 H1119 0.985 . S
N1107 C1109 1.356 . S
N1107 H1112 0.984 1_554 S
N1107 H1113 0.985 . S
C1108 C1102 1.379 1_554 S
C1108 C1105 1.363 . S
C1108 N1106 1.356 . S
C1109 C1103 1.363 1_554 S
C1109 C1104 1.379 . S
C1109 N1107 1.356 . S
N1110 C1102 1.356 . S
N1110 H1116 0.984 . S
N1110 H1117 0.984 . S
N1111 C1104 1.356 . S
N1111 H1114 0.984 . S
N1111 H1115 0.985 . S
H1112 N1107 0.984 1_556 S
H1113 N1107 0.985 . S
H1114 N1111 0.984 . S
H1115 N1111 0.985 . S
H1116 N1110 0.984 . S
H1117 N1110 0.984 . S
H1118 N1106 0.984 . S
H1119 N1106 0.985 . S
C1120 C1121 1.363 . S
C1120 C1126 1.379 1_554 S
C1120 N1128 1.356 . S
C1121 C1120 1.363 . S
C1121 C1127 1.363 . S
C1122 C1123 1.363 1_554 S
C1122 C1127 1.379 . S
C1122 N1129 1.356 . S
C1123 C1122 1.363 1_556 S
C1123 C1126 1.363 . S
N1124 C1126 1.356 . S
N1124 H1136 0.984 . S
N1124 H1137 0.985 . S
N1125 C1127 1.356 . S
N1125 H1130 0.984 . S
N1125 H1131 0.985 . S
C1126 C1120 1.379 1_556 S
C1126 C1123 1.363 . S
C1126 N1124 1.356 . S
C1127 C1121 1.363 . S
C1127 C1122 1.379 . S
C1127 N1125 1.356 . S
N1128 C1120 1.356 . S
N1128 H1134 0.984 . S
N1128 H1135 0.984 . S
N1129 C1122 1.356 . S
N1129 H1132 0.984 1_554 S
N1129 H1133 0.985 . S
H1130 N1125 0.984 . S
H1131 N1125 0.985 . S
H1132 N1129 0.984 1_556 S
H1133 N1129 0.985 . S
H1134 N1128 0.984 . S
H1135 N1128 0.984 . S
H1136 N1124 0.984 . S
H1137 N1124 0.985 . S
C1138 C1139 1.363 . S
C1138 C1144 1.379 . S
C1138 N1146 1.356 . S
C1139 C1138 1.363 . S
C1139 C1145 1.363 . S
C1140 C1141 1.363 . S
C1140 C1145 1.379 . S
C1140 N1147 1.356 . S
C1141 C1140 1.363 . S
C1141 C1144 1.363 . S
N1142 C1144 1.356 . S
N1142 H1154 0.984 . S
N1142 H1155 0.985 . S
N1143 C1145 1.356 . S
N1143 H1148 0.984 . S
N1143 H1149 0.985 . S
C1144 C1138 1.379 . S
C1144 C1141 1.363 . S
C1144 N1142 1.356 . S
C1145 C1139 1.363 . S
C1145 C1140 1.379 . S
C1145 N1143 1.356 . S
N1146 C1138 1.356 . S
N1146 H1152 0.984 . S
N1146 H1153 0.984 . S
N1147 C1140 1.356 . S
N1147 H1150 0.984 . S
N1147 H1151 0.985 . S
H1148 N1143 0.984 . S
H1149 N1143 0.985 . S
H1150 N1147 0.984 . S
H1151 N1147 0.985 . S
H1152 N1146 0.984 . S
H1153 N1146 0.984 . S
H1154 N1142 0.984 . S
H1155 N1142 0.985 . S
C1156 C1157 1.363 . S
C1156 C1162 1.379 . S
C1156 N1164 1.356 . S
C1157 C1156 1.363 . S
C1157 C1163 1.363 . S
C1158 C1159 1.363 . S
C1158 C1163 1.379 . S
C1158 N1165 1.356 . S
C1159 C1158 1.363 . S
C1159 C1162 1.363 . S
N1160 C1162 1.356 . S
N1160 H1172 0.984 . S
N1160 H1173 0.985 . S
N1161 C1163 1.356 . S
N1161 H1166 0.984 . S
N1161 H1167 0.985 . S
C1162 C1156 1.379 . S
C1162 C1159 1.363 . S
C1162 N1160 1.356 . S
C1163 C1157 1.363 . S
C1163 C1158 1.379 . S
C1163 N1161 1.356 . S
N1164 C1156 1.356 . S
N1164 H1170 0.984 . S
N1164 H1171 0.984 . S
N1165 C1158 1.356 . S
N1165 H1168 0.984 . S
N1165 H1169 0.985 . S
H1166 N1161 0.984 . S
H1167 N1161 0.985 . S
H1168 N1165 0.984 . S
H1169 N1165 0.985 . S
H1170 N1164 0.984 . S
H1171 N1164 0.984 . S
H1172 N1160 0.984 . S
H1173 N1160 0.985 . S
C1174 C1175 1.363 1_556 S
C1174 C1180 1.379 . S
C1174 N1182 1.356 1_556 S
C1175 C1174 1.363 1_554 S
C1175 C1181 1.363 1_554 S
C1176 C1177 1.363 . S
C1176 C1181 1.379 . S
C1176 N1183 1.356 . S
C1177 C1176 1.363 . S
C1177 C1180 1.363 . S
N1178 C1180 1.356 . S
N1178 H1190 0.984 . S
N1178 H1191 0.985 . S
N1179 C1181 1.356 1_554 S
N1179 H1184 0.984 . S
N1179 H1185 0.985 . S
C1180 C1174 1.379 . S
C1180 C1177 1.363 . S
C1180 N1178 1.356 . S
C1181 C1175 1.363 1_556 S
C1181 C1176 1.379 . S
C1181 N1179 1.356 1_556 S
N1182 C1174 1.356 1_554 S
N1182 H1188 0.984 . S
N1182 H1189 0.984 . S
N1183 C1176 1.356 . S
N1183 H1186 0.984 . S
N1183 H1187 0.985 . S
H1184 N1179 0.984 . S
H1185 N1179 0.985 . S
H1186 N1183 0.984 . S
H1187 N1183 0.985 . S
H1188 N1182 0.984 . S
H1189 N1182 0.984 . S
H1190 N1178 0.984 . S
H1191 N1178 0.985 . S
C1192 C1193 1.363 . S
C1192 C1198 1.379 . S
C1192 N1200 1.356 . S
C1193 C1192 1.363 . S
C1193 C1199 1.363 . S
C1194 C1195 1.363 . S
C1194 C1199 1.379 . S
C1194 N1201 1.356 . S
C1195 C1194 1.363 . S
C1195 C1198 1.363 . S
N1196 C1198 1.356 . S
N1196 H1208 0.984 . S
N1196 H1209 0.985 . S
N1197 C1199 1.356 . S
N1197 H1202 0.984 . S
N1197 H1203 0.985 . S
C1198 C1192 1.379 . S
C1198 C1195 1.363 . S
C1198 N1196 1.356 . S
C1199 C1193 1.363 . S
C1199 C1194 1.379 . S
C1199 N1197 1.356 . S
N1200 C1192 1.356 . S
N1200 H1206 0.984 . S
N1200 H1207 0.984 . S
N1201 C1194 1.356 . S
N1201 H1204 0.984 . S
N1201 H1205 0.985 . S
H1202 N1197 0.984 . S
H1203 N1197 0.985 . S
H1204 N1201 0.984 . S
H1205 N1201 0.985 . S
H1206 N1200 0.984 . S
H1207 N1200 0.984 . S
H1208 N1196 0.984 . S
H1209 N1196 0.985 . S
C1210 C1211 1.363 . S
C1210 C1216 1.379 . S
C1210 N1218 1.356 1_455 S
C1211 C1210 1.363 . S
C1211 C1217 1.363 . S
C1212 C1213 1.363 . S
C1212 C1217 1.379 . S
C1212 N1219 1.356 . S
C1213 C1212 1.363 . S
C1213 C1216 1.363 . S
N1214 C1216 1.356 1_655 S
N1214 H1226 0.984 . S
N1214 H1227 0.985 . S
N1215 C1217 1.356 . S
N1215 H1220 0.984 . S
N1215 H1221 0.985 . S
C1216 C1210 1.379 . S
C1216 C1213 1.363 . S
C1216 N1214 1.356 1_455 S
C1217 C1211 1.363 . S
C1217 C1212 1.379 . S
C1217 N1215 1.356 . S
N1218 C1210 1.356 1_655 S
N1218 H1224 0.984 . S
N1218 H1225 0.984 1_655 S
N1219 C1212 1.356 . S
N1219 H1222 0.984 . S
N1219 H1223 0.985 . S
H1220 N1215 0.984 . S
H1221 N1215 0.985 . S
H1222 N1219 0.984 . S
H1223 N1219 0.985 . S
H1224 N1218 0.984 . S
H1225 N1218 0.984 1_455 S
H1226 N1214 0.984 . S
H1227 N1214 0.985 . S
C1228 C1229 1.363 . S
C1228 C1234 1.379 . S
C1228 N1236 1.356 . S
C1229 C1228 1.363 . S
C1229 C1235 1.363 . S
C1230 C1231 1.363 . S
C1230 C1235 1.379 . S
C1230 N1237 1.356 . S
C1231 C1230 1.363 . S
C1231 C1234 1.363 . S
N1232 C1234 1.356 . S
N1232 H1244 0.984 1_556 S
N1232 H1245 0.985 1_556 S
N1233 C1235 1.356 . S
N1233 H1238 0.984 . S
N1233 H1239 0.985 . S
C1234 C1228 1.379 . S
C1234 C1231 1.363 . S
C1234 N1232 1.356 . S
C1235 C1229 1.363 . S
C1235 C1230 1.379 . S
C1235 N1233 1.356 . S
N1236 C1228 1.356 . S
N1236 H1242 0.984 . S
N1236 H1243 0.984 . S
N1237 C1230 1.356 . S
N1237 H1240 0.984 . S
N1237 H1241 0.985 . S
H1238 N1233 0.984 . S
H1239 N1233 0.985 . S
H1240 N1237 0.984 . S
H1241 N1237 0.985 . S
H1242 N1236 0.984 . S
H1243 N1236 0.984 . S
H1244 N1232 0.984 1_554 S
H1245 N1232 0.985 1_554 S
C1246 C1247 1.363 . S
C1246 C1252 1.379 . S
C1246 N1254 1.356 . S
C1247 C1246 1.363 . S
C1247 C1253 1.363 . S
C1248 C1249 1.363 . S
C1248 C1253 1.379 . S
C1248 N1255 1.356 1_455 S
C1249 C1248 1.363 . S
C1249 C1252 1.363 . S
N1250 C1252 1.356 . S
N1250 H1262 0.984 . S
N1250 H1263 0.985 . S
N1251 C1253 1.356 1_655 S
N1251 H1256 0.984 . S
N1251 H1257 0.985 . S
C1252 C1246 1.379 . S
C1252 C1249 1.363 . S
C1252 N1250 1.356 . S
C1253 C1247 1.363 . S
C1253 C1248 1.379 . S
C1253 N1251 1.356 1_455 S
N1254 C1246 1.356 . S
N1254 H1260 0.984 . S
N1254 H1261 0.984 . S
N1255 C1248 1.356 1_655 S
N1255 H1258 0.984 1_655 S
N1255 H1259 0.985 . S
H1256 N1251 0.984 . S
H1257 N1251 0.985 . S
H1258 N1255 0.984 1_455 S
H1259 N1255 0.985 . S
H1260 N1254 0.984 . S
H1261 N1254 0.984 . S
H1262 N1250 0.984 . S
H1263 N1250 0.985 . S
C545 C271 1.317 . S
C547 C33 1.317 . S
C563 C67 1.317 . S
C565 C169 1.317 . S
C581 C101 1.317 . S
C583 C203 1.317 . S
C599 C237 1.317 . S
C601 C135 1.317 . S
C617 C376 1.639 . S
C619 C138 1.639 . S
C635 C274 1.639 . S
C637 C2 1.639 . S
C653 C206 1.639 . S
C655 C342 1.639 . S
C671 C70 1.639 . S
C673 C308 1.639 . S
C689 C339 1.316 . S
C691 C441 1.316 . S
C707 C509 1.316 . S
C709 C373 1.316 . S
C725 C475 1.316 . S
C727 C305 1.316 . S
C743 C407 1.316 . S
C745 C543 1.316 . S
C761 C104 1.639 . S
C763 C478 1.639 . S
C779 C172 1.639 . S
C781 C410 1.639 . S
C797 C36 1.639 . S
C799 C512 1.639 . S
C815 C240 1.639 . S
C817 C444 1.639 . S
C833 C20 1.818 . S
C835 C156 1.818 . S
C851 C190 1.818 . S
C853 C54 1.818 . S
C869 C224 1.818 . S
C871 C88 1.818 . S
C887 C122 1.818 . S
C889 C258 1.818 . S
C905 C360 1.819 . S
C907 C292 1.819 . S
C923 C326 1.819 . S
C925 C394 1.819 . S
C941 C428 1.818 . S
C943 C496 1.818 . S
C959 C530 1.818 . S
C961 C462 1.818 . S
C977 C9 1.166 . S
C979 C5 1.202 . S
C995 C43 1.166 . S
C997 C39 1.202 . S
C1013 C73 1.202 . S
C1015 C77 1.166 . S
C1031 C107 1.202 . S
C1033 C111 1.166 . S
C1049 C141 1.202 . S
C1051 C145 1.166 . S
C1067 C175 1.202 . S
C1069 C179 1.166 . S
C1085 C213 1.166 . S
C1087 C209 1.202 . S
C1103 C247 1.166 . S
C1105 C243 1.202 . S
C1121 C277 1.202 . S
C1123 C281 1.166 . S
C1139 C311 1.202 . S
C1141 C315 1.166 . S
C1157 C349 1.166 . S
C1159 C345 1.202 . S
C1175 C383 1.166 . S
C1177 C379 1.202 . S
C1193 C417 1.166 . S
C1195 C413 1.202 . S
C1211 C451 1.166 . S
C1213 C447 1.202 . S
C1229 C485 1.166 . S
C1231 C481 1.202 . S
C1247 C515 1.202 . S
C1249 C519 1.166 . S
