# Generated by pormake.
# Topology dia, (4)-cn, num edge types: 1
# Building blocks:
#     Node 0, Type 0, BuildingBlock: KUFVIS_clean_sbu_0, # of connection points: 4
#     Node 1, Type 0, BuildingBlock: KUFVIS_clean_sbu_0, # of connection points: 4
#     Node 2, Type 0, BuildingBlock: KUFVIS_clean_sbu_0, # of connection points: 4
#     Node 3, Type 0, BuildingBlock: KUFVIS_clean_sbu_0, # of connection points: 4
#     Node 4, Type 0, BuildingBlock: KUFVIS_clean_sbu_0, # of connection points: 4
#     Node 5, Type 0, BuildingBlock: KUFVIS_clean_sbu_0, # of connection points: 4
#     Node 6, Type 0, BuildingBlock: KUFVIS_clean_sbu_0, # of connection points: 4
#     Node 7, Type 0, BuildingBlock: KUFVIS_clean_sbu_0, # of connection points: 4
#     Edge 8, Type (0, 0), None
#     Edge 9, Type (0, 0), None
#     Edge 10, Type (0, 0), None
#     Edge 11, Type (0, 0), None
#     Edge 12, Type (0, 0), None
#     Edge 13, Type (0, 0), None
#     Edge 14, Type (0, 0), None
#     Edge 15, Type (0, 0), None
#     Edge 16, Type (0, 0), None
#     Edge 17, Type (0, 0), None
#     Edge 18, Type (0, 0), None
#     Edge 19, Type (0, 0), None
#     Edge 20, Type (0, 0), None
#     Edge 21, Type (0, 0), None
#     Edge 22, Type (0, 0), None
#     Edge 23, Type (0, 0), None
# Relax obj value: 0.071
# Max RMSD: 0.123
# Mean RMSD: 0.123
data_MOF--net-dia--node1-KUFVIS_clean_sbu_0--edge1-none
_symmetry_space_group_name_H-M    P1
_symmetry_Int_Tables_number       1
_symmetry_cell_setting            triclinic
loop_
_symmetry_equiv_pos_as_xyz
'x, y, z'
_cell_length_a     16.914769
_cell_length_b     14.928441
_cell_length_c     14.92841
_cell_angle_alpha  83.393319
_cell_angle_beta   93.591837
_cell_angle_gamma 93.592056
loop_
_atom_site_label
_atom_site_type_symbol
_atom_site_fract_x
_atom_site_fract_y
_atom_site_fract_z
_atom_type_partial_charge
Mn0 Mn 0.11105 0.15213 0.61439 0.0
Mn1 Mn 0.21426 0.00552 0.52074 0.0
C2 C 0.04677 0.06863 0.49704 0.0
C3 C 0.04494 0.2225 0.72574 0.0
C4 C 0.24585 0.208 0.48605 0.0
O5 O 0.20128 0.11404 0.71248 0.0
O6 O 0.25479 0.00672 0.6467 0.0
C7 C 0.15559 0.83567 0.62529 0.0
N8 N 0.17317 0.88478 0.54588 0.0
C9 C 0.16467 0.75342 0.46747 0.0
C10 C 0.1442 0.70052 0.54722 0.0
C11 C 0.13762 0.74237 0.62628 0.0
C12 C 0.17245 0.84664 0.4688 0.0
H13 H 0.15566 0.86761 0.68673 0.0
C14 C 0.24856 0.04969 0.71444 0.0
O15 O 0.09051 0.26445 0.66829 0.0
O16 O 0.03169 0.13694 0.71665 0.0
N17 N 0.18502 0.99321 0.39841 0.0
C18 C 0.18933 0.0553 0.32448 0.0
C19 C 0.1934 0.02518 0.23927 0.0
C20 C 0.19886 0.93298 0.23239 0.0
C21 C 0.1939 0.87134 0.31012 0.0
C22 C 0.18213 0.90414 0.39107 0.0
H23 H 0.19286 0.12672 0.33107 0.0
O24 O 1.02227 0.14544 0.5142 0.0
O25 O 0.10842 0.04393 0.54857 0.0
O26 O 0.1854 0.22338 0.52636 0.0
O27 O 0.26746 0.12794 0.4858 0.0
C28 C 0.2029 0.7788 0.31147 0.0
C29 C 0.1816 0.71849 0.38756 0.0
H30 H 0.13376 0.62816 0.5482 0.0
H31 H 0.1213 0.70272 0.68825 0.0
H32 H 0.19965 0.0729 0.18022 0.0
H33 H 0.20721 0.91046 0.16738 0.0
H34 H 0.22406 0.75547 0.25256 0.0
H35 H 0.18137 0.64638 0.38527 0.0
Mn36 Mn 0.93486 0.3896 0.85185 0.0
Mn37 Mn 0.83165 0.48324 0.99845 0.0
C38 C 0.99914 0.50694 0.93535 0.0
C39 C 1.00103 0.27829 0.78149 0.0
C40 C 0.80006 0.51793 0.79597 0.0
O41 O 0.84464 0.2915 0.88994 0.0
O42 O 0.79112 0.35728 0.99725 0.0
C43 C 0.89032 0.37869 0.1683 0.0
N44 N 0.87274 0.45811 0.1192 0.0
C45 C 0.88123 0.53651 0.25055 0.0
C46 C 0.90169 0.45676 0.30345 0.0
C47 C 0.90828 0.37771 0.26161 0.0
C48 C 0.87345 0.53518 0.15734 0.0
H49 H 0.89026 0.31725 0.13637 0.0
C50 C 0.79736 0.28954 0.95429 0.0
O51 O 0.95542 0.33569 0.73953 0.0
O52 O 1.01423 0.28734 0.86707 0.0
N53 N 0.8609 0.60557 0.01076 0.0
C54 C 0.85659 0.6795 0.94868 0.0
C55 C 0.85251 0.76471 0.97879 0.0
C56 C 0.84705 0.77159 0.07099 0.0
C57 C 0.852 0.69386 0.13264 0.0
C58 C 0.86378 0.61291 0.09984 0.0
H59 H 0.85306 0.67291 0.87725 0.0
O60 O 0.02365 0.48979 0.85854 0.0
O61 O 0.9375 0.45542 0.96004 0.0
O62 O 0.86051 0.47761 0.7806 0.0
O63 O 0.77846 0.51819 0.87604 0.0
C64 C 0.84299 0.69251 0.22517 0.0
C65 C 0.86429 0.61642 0.28549 0.0
H66 H 0.91213 0.45579 0.37582 0.0
H67 H 0.9246 0.31573 0.30126 0.0
H68 H 0.84627 0.82376 0.93108 0.0
H69 H 0.8387 0.8366 0.09351 0.0
H70 H 0.82183 0.75142 0.2485 0.0
H71 H 0.86451 0.61871 0.35759 0.0
Mn72 Mn 0.61105 0.15213 0.11438 0.0
Mn73 Mn 0.71427 0.00552 0.02074 0.0
C74 C 0.54677 0.06863 0.99704 0.0
C75 C 0.54494 0.2225 0.22574 0.0
C76 C 0.74585 0.208 0.98604 0.0
O77 O 0.70129 0.11405 0.21248 0.0
O78 O 0.75479 0.00673 0.1467 0.0
C79 C 0.65559 0.83567 0.12529 0.0
N80 N 0.67317 0.88478 0.04587 0.0
C81 C 0.66467 0.75342 0.96747 0.0
C82 C 0.6442 0.70053 0.04722 0.0
C83 C 0.63762 0.74237 0.12628 0.0
C84 C 0.67245 0.84664 0.9688 0.0
H85 H 0.65566 0.86761 0.18673 0.0
C86 C 0.74856 0.04969 0.21444 0.0
O87 O 0.59051 0.26445 0.16829 0.0
O88 O 0.53169 0.13694 0.21665 0.0
N89 N 0.68502 0.99321 0.89841 0.0
C90 C 0.68933 0.0553 0.82448 0.0
C91 C 0.6934 0.02519 0.73927 0.0
C92 C 0.69886 0.93298 0.73239 0.0
C93 C 0.6939 0.87134 0.81012 0.0
C94 C 0.68213 0.90414 0.89107 0.0
H95 H 0.69286 0.12672 0.83107 0.0
O96 O 0.52227 0.14544 0.0142 0.0
O97 O 0.60842 0.04393 0.04856 0.0
O98 O 0.6854 0.22338 0.02636 0.0
O99 O 0.76746 0.12794 0.9858 0.0
C100 C 0.7029 0.7788 0.81147 0.0
C101 C 0.6816 0.71849 0.88756 0.0
H102 H 0.63375 0.62816 0.04819 0.0
H103 H 0.6213 0.70272 0.18825 0.0
H104 H 0.69965 0.0729 0.68022 0.0
H105 H 0.70721 0.91046 0.66738 0.0
H106 H 0.72406 0.75547 0.75255 0.0
H107 H 0.68138 0.64638 0.88526 0.0
Mn108 Mn 0.93486 0.8896 0.35184 0.0
Mn109 Mn 0.83166 0.98324 0.49846 0.0
C110 C 0.99918 0.0069 0.43535 0.0
C111 C 1.00098 0.77824 0.28147 0.0
C112 C 0.80008 0.01795 0.29598 0.0
O113 O 0.84463 0.79151 0.38993 0.0
O114 O 0.79113 0.85729 0.49725 0.0
C115 C 0.89033 0.87869 0.66831 0.0
N116 N 0.87275 0.95811 0.6192 0.0
C117 C 0.88125 0.03651 0.75056 0.0
C118 C 0.90171 0.95676 0.80346 0.0
C119 C 0.90829 0.8777 0.76161 0.0
C120 C 0.87347 0.03518 0.65734 0.0
H121 H 0.89026 0.81725 0.63637 0.0
C122 C 0.79735 0.78955 0.45428 0.0
O123 O 0.95541 0.83569 0.23952 0.0
O124 O 1.01422 0.78733 0.36704 0.0
N125 N 0.86092 0.10557 0.51077 0.0
C126 C 0.85661 0.1795 0.44869 0.0
C127 C 0.85253 0.26471 0.4788 0.0
C128 C 0.84708 0.27159 0.571 0.0
C129 C 0.85203 0.19386 0.63264 0.0
C130 C 0.8638 0.11291 0.59984 0.0
H131 H 0.85308 0.17292 0.37726 0.0
O132 O 0.02365 0.98978 0.35852 0.0
O133 O 0.93751 0.95541 0.46005 0.0
O134 O 0.86052 0.97762 0.2806 0.0
O135 O 0.77847 0.01819 0.37604 0.0
C136 C 0.84302 0.19251 0.72518 0.0
C137 C 0.86431 0.11642 0.78549 0.0
H138 H 0.91214 0.95578 0.87582 0.0
H139 H 0.9246 0.81573 0.80127 0.0
H140 H 0.84629 0.32376 0.43108 0.0
H141 H 0.83872 0.3366 0.59352 0.0
H142 H 0.82186 0.25142 0.74851 0.0
H143 H 0.86453 0.11871 0.8576 0.0
Mn144 Mn 0.11105 0.65214 0.11438 0.0
Mn145 Mn 0.21425 0.50552 0.02073 0.0
C146 C 0.04674 0.56863 0.99708 0.0
C147 C 0.04489 0.72249 0.22569 0.0
C148 C 0.24585 0.70801 0.98604 0.0
O149 O 0.20128 0.61404 0.21248 0.0
O150 O 0.25479 0.50673 0.14669 0.0
C151 C 0.1556 0.33567 0.12529 0.0
N152 N 0.17317 0.38478 0.04587 0.0
C153 C 0.16469 0.25342 0.96747 0.0
C154 C 0.14423 0.20052 0.04722 0.0
C155 C 0.13764 0.24237 0.12628 0.0
C156 C 0.17246 0.34664 0.9688 0.0
H157 H 0.15566 0.36761 0.18673 0.0
C158 C 0.24856 0.54969 0.21443 0.0
O159 O 0.0905 0.76445 0.16829 0.0
O160 O 0.03169 0.63691 0.21664 0.0
N161 N 0.185 0.49321 0.89841 0.0
C162 C 0.18931 0.5553 0.82447 0.0
C163 C 0.19338 0.52519 0.73927 0.0
C164 C 0.19885 0.43299 0.73239 0.0
C165 C 0.19391 0.37134 0.81012 0.0
C166 C 0.18213 0.40414 0.89107 0.0
H167 H 0.19283 0.62672 0.83106 0.0
O168 O 1.02227 0.64546 0.0142 0.0
O169 O 0.10841 0.54393 0.04857 0.0
O170 O 0.18541 0.72338 0.02637 0.0
O171 O 0.26745 0.62794 0.98578 0.0
C172 C 0.20293 0.27881 0.81147 0.0
C173 C 0.18163 0.21849 0.88756 0.0
H174 H 0.1338 0.12816 0.0482 0.0
H175 H 0.12133 0.20271 0.18825 0.0
H176 H 0.19962 0.5729 0.68021 0.0
H177 H 0.20721 0.41046 0.66737 0.0
H178 H 0.22409 0.25548 0.75256 0.0
H179 H 0.18142 0.14639 0.88527 0.0
Mn180 Mn 0.43486 0.3896 0.35184 0.0
Mn181 Mn 0.33165 0.48324 0.49845 0.0
C182 C 0.49914 0.50695 0.43534 0.0
C183 C 0.50103 0.27829 0.28149 0.0
C184 C 0.30007 0.51794 0.29598 0.0
O185 O 0.34464 0.2915 0.38994 0.0
O186 O 0.29112 0.35729 0.49725 0.0
C187 C 0.39032 0.37869 0.6683 0.0
N188 N 0.37274 0.45811 0.61919 0.0
C189 C 0.38123 0.53651 0.75055 0.0
C190 C 0.40169 0.45676 0.80345 0.0
C191 C 0.40828 0.37771 0.76161 0.0
C192 C 0.37345 0.53518 0.65733 0.0
H193 H 0.39026 0.31725 0.63637 0.0
C194 C 0.29736 0.28955 0.45428 0.0
O195 O 0.45542 0.33569 0.23953 0.0
O196 O 0.51423 0.28734 0.36707 0.0
N197 N 0.3609 0.60557 0.51076 0.0
C198 C 0.35659 0.67951 0.44868 0.0
C199 C 0.35251 0.76471 0.47879 0.0
C200 C 0.34705 0.77159 0.57099 0.0
C201 C 0.352 0.69386 0.63264 0.0
C202 C 0.36378 0.61291 0.59984 0.0
H203 H 0.35306 0.67292 0.37725 0.0
O204 O 0.52365 0.48979 0.35853 0.0
O205 O 0.43749 0.45542 0.46004 0.0
O206 O 0.36051 0.47762 0.28059 0.0
O207 O 0.27846 0.51819 0.37603 0.0
C208 C 0.34298 0.69251 0.72517 0.0
C209 C 0.36428 0.61642 0.78549 0.0
H210 H 0.41213 0.45579 0.87582 0.0
H211 H 0.4246 0.31574 0.80126 0.0
H212 H 0.34627 0.82377 0.43108 0.0
H213 H 0.33869 0.8366 0.59352 0.0
H214 H 0.32183 0.75142 0.7485 0.0
H215 H 0.36451 0.61871 0.85759 0.0
Mn216 Mn 0.43486 0.8896 0.85184 0.0
Mn217 Mn 0.33166 0.98324 0.99846 0.0
C218 C 0.49918 0.0069 0.93535 0.0
C219 C 0.50098 0.77824 0.78148 0.0
C220 C 0.30008 0.01794 0.79598 0.0
O221 O 0.34464 0.79151 0.88994 0.0
O222 O 0.29113 0.85729 0.99725 0.0
C223 C 0.39033 0.87869 0.16831 0.0
N224 N 0.37275 0.95811 0.1192 0.0
C225 C 0.38125 0.03651 0.25056 0.0
C226 C 0.40171 0.95676 0.30346 0.0
C227 C 0.40829 0.8777 0.26161 0.0
C228 C 0.37348 0.03518 0.15734 0.0
H229 H 0.39026 0.81725 0.13637 0.0
C230 C 0.29736 0.78955 0.95428 0.0
O231 O 0.45541 0.83569 0.73952 0.0
O232 O 0.51422 0.78733 0.86704 0.0
N233 N 0.36092 0.10557 0.01077 0.0
C234 C 0.35661 0.17951 0.94868 0.0
C235 C 0.35253 0.26471 0.9788 0.0
C236 C 0.34708 0.27159 0.071 0.0
C237 C 0.35203 0.19386 0.13264 0.0
C238 C 0.3638 0.11291 0.09984 0.0
H239 H 0.35308 0.17292 0.87726 0.0
O240 O 0.52365 0.98978 0.85852 0.0
O241 O 0.43751 0.95541 0.96005 0.0
O242 O 0.36052 0.97762 0.7806 0.0
O243 O 0.27847 0.0182 0.87604 0.0
C244 C 0.34302 0.19251 0.22518 0.0
C245 C 0.36431 0.11642 0.28549 0.0
H246 H 0.41214 0.95578 0.37582 0.0
H247 H 0.4246 0.81573 0.30127 0.0
H248 H 0.34629 0.32377 0.93108 0.0
H249 H 0.33872 0.3366 0.09352 0.0
H250 H 0.32186 0.25143 0.24851 0.0
H251 H 0.36453 0.11872 0.3576 0.0
Mn252 Mn 0.61105 0.65214 0.61438 0.0
Mn253 Mn 0.71426 0.50553 0.52073 0.0
C254 C 0.54674 0.56863 0.49707 0.0
C255 C 0.54489 0.72249 0.72569 0.0
C256 C 0.74584 0.70801 0.48603 0.0
O257 O 0.70128 0.61404 0.71247 0.0
O258 O 0.75479 0.50674 0.64668 0.0
C259 C 0.6556 0.33568 0.62528 0.0
N260 N 0.67317 0.38479 0.54586 0.0
C261 C 0.66469 0.25343 0.46746 0.0
C262 C 0.64423 0.20053 0.54722 0.0
C263 C 0.63764 0.24237 0.62627 0.0
C264 C 0.67246 0.34664 0.46879 0.0
H265 H 0.65566 0.36761 0.68673 0.0
C266 C 0.74856 0.5497 0.71443 0.0
O267 O 0.5905 0.76446 0.66829 0.0
O268 O 0.53169 0.63691 0.71664 0.0
N269 N 0.685 0.49322 0.3984 0.0
C270 C 0.68931 0.5553 0.32447 0.0
C271 C 0.69338 0.52519 0.23926 0.0
C272 C 0.69885 0.43299 0.23238 0.0
C273 C 0.69391 0.37134 0.31012 0.0
C274 C 0.68213 0.40414 0.39106 0.0
H275 H 0.69283 0.62673 0.33105 0.0
O276 O 0.52227 0.64547 0.5142 0.0
O277 O 0.60841 0.54394 0.54856 0.0
O278 O 0.6854 0.72339 0.52636 0.0
O279 O 0.76745 0.62795 0.48577 0.0
C280 C 0.70293 0.27881 0.31147 0.0
C281 C 0.68164 0.21849 0.38756 0.0
H282 H 0.6338 0.12816 0.5482 0.0
H283 H 0.62133 0.20272 0.68825 0.0
H284 H 0.69962 0.5729 0.18021 0.0
H285 H 0.70721 0.41047 0.16737 0.0
H286 H 0.72409 0.25548 0.25255 0.0
H287 H 0.68142 0.14639 0.38527 0.0
loop_
_geom_bond_atom_site_label_1
_geom_bond_atom_site_label_2
_geom_bond_distance
_geom_bond_site_symmetry_2
_ccdc_geom_bond_type
Mn0 O5 2.095 . S
Mn0 O15 2.162 . S
Mn0 O16 2.297 . S
Mn0 O24 2.385 . S
Mn0 O25 2.209 . S
Mn0 O26 2.094 . S
Mn1 O6 2.121 . S
Mn1 N8 2.257 . S
Mn1 N17 2.282 . S
Mn1 O25 2.215 1_565 S
Mn1 O27 2.117 1_565 S
C2 O24 1.234 . S
C2 O25 1.283 . S
C3 O15 1.281 . S
C3 O16 1.236 . S
C4 O26 1.240 . S
C4 O27 1.264 . S
O5 Mn0 2.095 . S
O5 C14 1.250 . S
O6 Mn1 2.121 . S
O6 C14 1.258 1_565 S
C7 N8 1.326 . S
C7 C11 1.460 . S
C7 H13 0.929 . S
N8 Mn1 2.257 . S
N8 C7 1.326 . S
N8 C12 1.362 . S
C9 C10 1.258 . S
C9 C12 1.431 . S
C9 C29 1.449 . S
C10 C9 1.258 . S
C10 C11 1.477 . S
C10 H30 0.931 . S
C11 C7 1.460 . S
C11 C10 1.477 . S
C11 H31 0.930 . S
C12 N8 1.362 . S
C12 C9 1.431 . S
C12 C22 1.476 . S
H13 C7 0.929 . S
C14 O5 1.250 . S
C14 O6 1.258 1_545 S
O15 Mn0 2.162 . S
O15 C3 1.281 . S
O16 Mn0 2.297 . S
O16 C3 1.236 . S
N17 Mn1 2.282 . S
N17 C18 1.328 1_565 S
N17 C22 1.318 . S
C18 N17 1.328 1_545 S
C18 C19 1.457 1_545 S
C18 H23 0.929 . S
C19 C18 1.457 1_565 S
C19 C20 1.292 . S
C19 H32 0.930 1_565 S
C20 C19 1.292 . S
C20 C21 1.373 . S
C20 H33 0.929 . S
C21 C20 1.373 . S
C21 C22 1.396 . S
C21 C28 1.403 . S
C22 C12 1.476 . S
C22 N17 1.318 . S
C22 C21 1.396 . S
H23 C18 0.929 . S
O24 Mn0 2.385 . S
O24 C2 1.234 . S
O25 Mn0 2.209 . S
O25 Mn1 2.215 1_545 S
O25 C2 1.283 . S
O26 Mn0 2.094 . S
O26 C4 1.240 . S
O27 Mn1 2.117 1_545 S
O27 C4 1.264 . S
C28 C21 1.403 . S
C28 C29 1.399 . S
C28 H34 0.929 . S
C29 C9 1.449 . S
C29 C28 1.399 . S
C29 H35 0.930 . S
H30 C10 0.931 . S
H31 C11 0.930 . S
H32 C19 0.930 1_545 S
H33 C20 0.929 . S
H34 C28 0.929 . S
H35 C29 0.930 . S
Mn36 O41 2.095 . S
Mn36 O51 2.162 . S
Mn36 O52 2.297 . S
Mn36 O60 2.385 . S
Mn36 O61 2.209 . S
Mn36 O62 2.094 . S
Mn37 O42 2.121 . S
Mn37 N44 2.257 . S
Mn37 N53 2.282 . S
Mn37 O61 2.215 1_554 S
Mn37 O63 2.117 1_554 S
C38 O60 1.234 . S
C38 O61 1.283 . S
C39 O51 1.281 . S
C39 O52 1.236 . S
C40 O62 1.240 . S
C40 O63 1.264 . S
O41 Mn36 2.095 . S
O41 C50 1.250 . S
O42 Mn37 2.121 . S
O42 C50 1.258 1_554 S
C43 N44 1.326 . S
C43 C47 1.460 . S
C43 H49 0.929 . S
N44 Mn37 2.257 . S
N44 C43 1.326 . S
N44 C48 1.362 . S
C45 C46 1.258 . S
C45 C48 1.431 . S
C45 C65 1.449 . S
C46 C45 1.258 . S
C46 C47 1.477 . S
C46 H66 0.931 . S
C47 C43 1.460 . S
C47 C46 1.477 . S
C47 H67 0.930 . S
C48 N44 1.362 . S
C48 C45 1.431 . S
C48 C58 1.476 . S
H49 C43 0.929 . S
C50 O41 1.250 . S
C50 O42 1.258 1_556 S
O51 Mn36 2.162 . S
O51 C39 1.281 . S
O52 Mn36 2.297 . S
O52 C39 1.236 . S
N53 Mn37 2.282 . S
N53 C54 1.328 1_554 S
N53 C58 1.318 . S
C54 N53 1.328 1_556 S
C54 C55 1.457 1_556 S
C54 H59 0.929 . S
C55 C54 1.457 1_554 S
C55 C56 1.292 . S
C55 H68 0.930 1_554 S
C56 C55 1.292 . S
C56 C57 1.373 . S
C56 H69 0.929 . S
C57 C56 1.373 . S
C57 C58 1.396 . S
C57 C64 1.403 . S
C58 C48 1.476 . S
C58 N53 1.318 . S
C58 C57 1.396 . S
H59 C54 0.929 . S
O60 Mn36 2.385 . S
O60 C38 1.234 . S
O61 Mn36 2.209 . S
O61 Mn37 2.215 1_556 S
O61 C38 1.283 . S
O62 Mn36 2.094 . S
O62 C40 1.240 . S
O63 Mn37 2.117 1_556 S
O63 C40 1.264 . S
C64 C57 1.403 . S
C64 C65 1.399 . S
C64 H70 0.929 . S
C65 C45 1.449 . S
C65 C64 1.399 . S
C65 H71 0.930 . S
H66 C46 0.931 . S
H67 C47 0.930 . S
H68 C55 0.930 1_556 S
H69 C56 0.929 . S
H70 C64 0.929 . S
H71 C65 0.930 . S
Mn72 O77 2.095 . S
Mn72 O87 2.162 . S
Mn72 O88 2.297 . S
Mn72 O96 2.385 . S
Mn72 O97 2.209 . S
Mn72 O98 2.094 . S
Mn73 O78 2.121 . S
Mn73 N80 2.257 . S
Mn73 N89 2.282 1_554 S
Mn73 O97 2.215 1_565 S
Mn73 O99 2.117 1_564 S
C74 O96 1.234 . S
C74 O97 1.283 . S
C75 O87 1.281 . S
C75 O88 1.236 . S
C76 O98 1.247 . S
C76 O99 1.262 1_554 S
O77 Mn72 2.095 . S
O77 C86 1.250 . S
O78 Mn73 2.121 . S
O78 C86 1.258 1_565 S
C79 N80 1.326 . S
C79 C83 1.460 . S
C79 H85 0.929 . S
N80 Mn73 2.257 . S
N80 C79 1.326 . S
N80 C84 1.362 1_554 S
C81 C82 1.258 . S
C81 C84 1.431 . S
C81 C101 1.449 . S
C82 C81 1.258 . S
C82 C83 1.477 1_556 S
C82 H102 0.931 . S
C83 C79 1.460 . S
C83 C82 1.477 1_554 S
C83 H103 0.930 . S
C84 N80 1.362 1_556 S
C84 C81 1.431 . S
C84 C94 1.476 . S
H85 C79 0.929 . S
C86 O77 1.250 . S
C86 O78 1.258 1_545 S
O87 Mn72 2.162 . S
O87 C75 1.281 . S
O88 Mn72 2.297 . S
O88 C75 1.236 . S
N89 Mn73 2.282 1_556 S
N89 C90 1.328 1_565 S
N89 C94 1.318 . S
C90 N89 1.328 1_545 S
C90 C91 1.457 1_545 S
C90 H95 0.929 . S
C91 C90 1.457 1_565 S
C91 C92 1.292 . S
C91 H104 0.930 1_565 S
C92 C91 1.292 . S
C92 C93 1.373 . S
C92 H105 0.929 . S
C93 C92 1.373 . S
C93 C94 1.396 . S
C93 C100 1.403 . S
C94 C84 1.476 . S
C94 N89 1.318 . S
C94 C93 1.396 . S
H95 C90 0.929 . S
O96 Mn72 2.385 . S
O96 C74 1.234 . S
O97 Mn72 2.209 . S
O97 Mn73 2.215 1_545 S
O97 C74 1.283 . S
O98 Mn72 2.094 . S
O98 C76 1.247 . S
O99 Mn73 2.117 1_546 S
O99 C76 1.262 1_556 S
C100 C93 1.403 . S
C100 C101 1.399 . S
C100 H106 0.929 . S
C101 C81 1.449 . S
C101 C100 1.399 . S
C101 H107 0.930 . S
H102 C82 0.931 . S
H103 C83 0.930 . S
H104 C91 0.930 1_545 S
H105 C92 0.929 . S
H106 C100 0.929 . S
H107 C101 0.930 . S
Mn108 O113 2.095 . S
Mn108 O123 2.162 . S
Mn108 O124 2.297 . S
Mn108 O132 2.385 . S
Mn108 O133 2.209 . S
Mn108 O134 2.094 . S
Mn109 O114 2.121 . S
Mn109 N116 2.257 . S
Mn109 N125 2.282 1_565 S
Mn109 O133 2.215 . S
Mn109 O135 2.117 1_565 S
C110 O132 1.234 . S
C110 O133 1.283 . S
C111 O123 1.281 . S
C111 O124 1.236 . S
C112 O134 1.247 . S
C112 O135 1.262 1_565 S
O113 Mn108 2.095 . S
O113 C122 1.250 . S
O114 Mn109 2.121 . S
O114 C122 1.258 . S
C115 N116 1.326 . S
C115 C119 1.460 . S
C115 H121 0.929 . S
N116 Mn109 2.257 . S
N116 C115 1.326 . S
N116 C120 1.362 1_565 S
C117 C118 1.258 . S
C117 C120 1.431 . S
C117 C137 1.449 . S
C118 C117 1.258 . S
C118 C119 1.477 1_545 S
C118 H138 0.931 . S
C119 C115 1.460 . S
C119 C118 1.477 1_565 S
C119 H139 0.930 . S
C120 N116 1.362 1_545 S
C120 C117 1.431 . S
C120 C130 1.476 . S
H121 C115 0.929 . S
C122 O113 1.250 . S
C122 O114 1.258 . S
O123 Mn108 2.162 . S
O123 C111 1.281 . S
O124 Mn108 2.297 . S
O124 C111 1.236 . S
N125 Mn109 2.282 1_545 S
N125 C126 1.328 . S
N125 C130 1.318 . S
C126 N125 1.328 . S
C126 C127 1.457 . S
C126 H131 0.929 . S
C127 C126 1.457 . S
C127 C128 1.291 . S
C127 H140 0.931 . S
C128 C127 1.291 . S
C128 C129 1.373 . S
C128 H141 0.929 . S
C129 C128 1.373 . S
C129 C130 1.396 . S
C129 C136 1.403 . S
C130 C120 1.476 . S
C130 N125 1.318 . S
C130 C129 1.396 . S
H131 C126 0.929 . S
O132 Mn108 2.385 . S
O132 C110 1.234 . S
O133 Mn108 2.209 . S
O133 Mn109 2.215 . S
O133 C110 1.283 . S
O134 Mn108 2.094 . S
O134 C112 1.247 . S
O135 Mn109 2.117 1_545 S
O135 C112 1.262 1_545 S
C136 C129 1.403 . S
C136 C137 1.399 . S
C136 H142 0.929 . S
C137 C117 1.449 . S
C137 C136 1.399 . S
C137 H143 0.930 . S
H138 C118 0.931 . S
H139 C119 0.930 . S
H140 C127 0.931 . S
H141 C128 0.929 . S
H142 C136 0.929 . S
H143 C137 0.930 . S
Mn144 O149 2.095 . S
Mn144 O159 2.162 . S
Mn144 O160 2.297 . S
Mn144 O168 2.385 . S
Mn144 O169 2.209 . S
Mn144 O170 2.094 . S
Mn145 O150 2.121 . S
Mn145 N152 2.257 . S
Mn145 N161 2.282 1_554 S
Mn145 O169 2.215 . S
Mn145 O171 2.117 1_554 S
C146 O168 1.234 . S
C146 O169 1.283 . S
C147 O159 1.281 . S
C147 O160 1.236 . S
C148 O170 1.247 . S
C148 O171 1.262 1_554 S
O149 Mn144 2.095 . S
O149 C158 1.250 . S
O150 Mn145 2.121 . S
O150 C158 1.258 . S
C151 N152 1.326 . S
C151 C155 1.460 . S
C151 H157 0.929 . S
N152 Mn145 2.257 . S
N152 C151 1.326 . S
N152 C156 1.362 1_554 S
C153 C154 1.258 . S
C153 C156 1.431 . S
C153 C173 1.449 . S
C154 C153 1.258 . S
C154 C155 1.477 1_556 S
C154 H174 0.931 . S
C155 C151 1.460 . S
C155 C154 1.477 1_554 S
C155 H175 0.930 . S
C156 N152 1.362 1_556 S
C156 C153 1.431 . S
C156 C166 1.476 . S
H157 C151 0.929 . S
C158 O149 1.250 . S
C158 O150 1.258 . S
O159 Mn144 2.162 . S
O159 C147 1.281 . S
O160 Mn144 2.297 . S
O160 C147 1.236 . S
N161 Mn145 2.282 1_556 S
N161 C162 1.328 . S
N161 C166 1.318 . S
C162 N161 1.328 . S
C162 C163 1.457 . S
C162 H167 0.929 . S
C163 C162 1.457 . S
C163 C164 1.291 . S
C163 H176 0.931 . S
C164 C163 1.291 . S
C164 C165 1.373 . S
C164 H177 0.929 . S
C165 C164 1.373 . S
C165 C166 1.396 . S
C165 C172 1.403 . S
C166 C156 1.476 . S
C166 N161 1.318 . S
C166 C165 1.396 . S
H167 C162 0.929 . S
O168 Mn144 2.385 . S
O168 C146 1.234 . S
O169 Mn144 2.209 . S
O169 Mn145 2.215 . S
O169 C146 1.283 . S
O170 Mn144 2.094 . S
O170 C148 1.247 . S
O171 Mn145 2.117 1_556 S
O171 C148 1.262 1_556 S
C172 C165 1.403 . S
C172 C173 1.399 . S
C172 H178 0.929 . S
C173 C153 1.449 . S
C173 C172 1.399 . S
C173 H179 0.930 . S
H174 C154 0.931 . S
H175 C155 0.930 . S
H176 C163 0.931 . S
H177 C164 0.929 . S
H178 C172 0.929 . S
H179 C173 0.930 . S
Mn180 O185 2.095 . S
Mn180 O195 2.162 . S
Mn180 O196 2.297 . S
Mn180 O204 2.385 . S
Mn180 O205 2.209 . S
Mn180 O206 2.094 . S
Mn181 O186 2.121 . S
Mn181 N188 2.257 . S
Mn181 N197 2.282 . S
Mn181 O205 2.215 . S
Mn181 O207 2.117 . S
C182 O204 1.234 . S
C182 O205 1.283 . S
C183 O195 1.281 . S
C183 O196 1.236 . S
C184 O206 1.240 . S
C184 O207 1.264 . S
O185 Mn180 2.095 . S
O185 C194 1.250 . S
O186 Mn181 2.121 . S
O186 C194 1.258 . S
C187 N188 1.326 . S
C187 C191 1.460 . S
C187 H193 0.929 . S
N188 Mn181 2.257 . S
N188 C187 1.326 . S
N188 C192 1.362 . S
C189 C190 1.258 . S
C189 C192 1.431 . S
C189 C209 1.449 . S
C190 C189 1.258 . S
C190 C191 1.477 . S
C190 H210 0.931 . S
C191 C187 1.460 . S
C191 C190 1.477 . S
C191 H211 0.930 . S
C192 N188 1.362 . S
C192 C189 1.431 . S
C192 C202 1.476 . S
H193 C187 0.929 . S
C194 O185 1.250 . S
C194 O186 1.258 . S
O195 Mn180 2.162 . S
O195 C183 1.281 . S
O196 Mn180 2.297 . S
O196 C183 1.236 . S
N197 Mn181 2.282 . S
N197 C198 1.328 . S
N197 C202 1.318 . S
C198 N197 1.328 . S
C198 C199 1.457 . S
C198 H203 0.929 . S
C199 C198 1.457 . S
C199 C200 1.291 . S
C199 H212 0.931 . S
C200 C199 1.291 . S
C200 C201 1.373 . S
C200 H213 0.929 . S
C201 C200 1.373 . S
C201 C202 1.396 . S
C201 C208 1.403 . S
C202 C192 1.476 . S
C202 N197 1.318 . S
C202 C201 1.396 . S
H203 C198 0.929 . S
O204 Mn180 2.385 . S
O204 C182 1.234 . S
O205 Mn180 2.209 . S
O205 Mn181 2.215 . S
O205 C182 1.283 . S
O206 Mn180 2.094 . S
O206 C184 1.240 . S
O207 Mn181 2.117 . S
O207 C184 1.264 . S
C208 C201 1.403 . S
C208 C209 1.399 . S
C208 H214 0.929 . S
C209 C189 1.449 . S
C209 C208 1.399 . S
C209 H215 0.930 . S
H210 C190 0.931 . S
H211 C191 0.930 . S
H212 C199 0.931 . S
H213 C200 0.929 . S
H214 C208 0.929 . S
H215 C209 0.930 . S
Mn216 O221 2.095 . S
Mn216 O231 2.162 . S
Mn216 O232 2.297 . S
Mn216 O240 2.385 . S
Mn216 O241 2.209 . S
Mn216 O242 2.094 . S
Mn217 O222 2.121 . S
Mn217 N224 2.257 . S
Mn217 N233 2.282 1_565 S
Mn217 O241 2.215 1_554 S
Mn217 O243 2.117 1_564 S
C218 O240 1.234 . S
C218 O241 1.283 . S
C219 O231 1.281 . S
C219 O232 1.236 . S
C220 O242 1.247 . S
C220 O243 1.262 1_565 S
O221 Mn216 2.095 . S
O221 C230 1.250 . S
O222 Mn217 2.121 . S
O222 C230 1.258 1_554 S
C223 N224 1.326 . S
C223 C227 1.460 . S
C223 H229 0.929 . S
N224 Mn217 2.257 . S
N224 C223 1.326 . S
N224 C228 1.362 1_565 S
C225 C226 1.258 . S
C225 C228 1.431 . S
C225 C245 1.449 . S
C226 C225 1.258 . S
C226 C227 1.477 1_545 S
C226 H246 0.931 . S
C227 C223 1.460 . S
C227 C226 1.477 1_565 S
C227 H247 0.930 . S
C228 N224 1.362 1_545 S
C228 C225 1.431 . S
C228 C238 1.476 . S
H229 C223 0.929 . S
C230 O221 1.250 . S
C230 O222 1.258 1_556 S
O231 Mn216 2.162 . S
O231 C219 1.281 . S
O232 Mn216 2.297 . S
O232 C219 1.236 . S
N233 Mn217 2.282 1_545 S
N233 C234 1.328 1_554 S
N233 C238 1.318 . S
C234 N233 1.328 1_556 S
C234 C235 1.457 1_556 S
C234 H239 0.929 . S
C235 C234 1.457 1_554 S
C235 C236 1.292 . S
C235 H248 0.930 1_554 S
C236 C235 1.292 . S
C236 C237 1.373 . S
C236 H249 0.929 . S
C237 C236 1.373 . S
C237 C238 1.396 . S
C237 C244 1.403 . S
C238 C228 1.476 . S
C238 N233 1.318 . S
C238 C237 1.396 . S
H239 C234 0.929 . S
O240 Mn216 2.385 . S
O240 C218 1.234 . S
O241 Mn216 2.209 . S
O241 Mn217 2.215 1_556 S
O241 C218 1.283 . S
O242 Mn216 2.094 . S
O242 C220 1.247 . S
O243 Mn217 2.117 1_546 S
O243 C220 1.262 1_545 S
C244 C237 1.403 . S
C244 C245 1.399 . S
C244 H250 0.929 . S
C245 C225 1.449 . S
C245 C244 1.399 . S
C245 H251 0.930 . S
H246 C226 0.931 . S
H247 C227 0.930 . S
H248 C235 0.930 1_556 S
H249 C236 0.929 . S
H250 C244 0.929 . S
H251 C245 0.930 . S
Mn252 O257 2.095 . S
Mn252 O267 2.162 . S
Mn252 O268 2.297 . S
Mn252 O276 2.385 . S
Mn252 O277 2.209 . S
Mn252 O278 2.094 . S
Mn253 O258 2.121 . S
Mn253 N260 2.257 . S
Mn253 N269 2.282 . S
Mn253 O277 2.215 . S
Mn253 O279 2.117 . S
C254 O276 1.234 . S
C254 O277 1.283 . S
C255 O267 1.281 . S
C255 O268 1.236 . S
C256 O278 1.240 . S
C256 O279 1.264 . S
O257 Mn252 2.095 . S
O257 C266 1.250 . S
O258 Mn253 2.121 . S
O258 C266 1.258 . S
C259 N260 1.326 . S
C259 C263 1.460 . S
C259 H265 0.929 . S
N260 Mn253 2.257 . S
N260 C259 1.326 . S
N260 C264 1.362 . S
C261 C262 1.258 . S
C261 C264 1.431 . S
C261 C281 1.449 . S
C262 C261 1.258 . S
C262 C263 1.477 . S
C262 H282 0.931 . S
C263 C259 1.460 . S
C263 C262 1.477 . S
C263 H283 0.930 . S
C264 N260 1.362 . S
C264 C261 1.431 . S
C264 C274 1.476 . S
H265 C259 0.929 . S
C266 O257 1.250 . S
C266 O258 1.258 . S
O267 Mn252 2.162 . S
O267 C255 1.281 . S
O268 Mn252 2.297 . S
O268 C255 1.236 . S
N269 Mn253 2.282 . S
N269 C270 1.328 . S
N269 C274 1.318 . S
C270 N269 1.328 . S
C270 C271 1.457 . S
C270 H275 0.929 . S
C271 C270 1.457 . S
C271 C272 1.291 . S
C271 H284 0.931 . S
C272 C271 1.291 . S
C272 C273 1.373 . S
C272 H285 0.929 . S
C273 C272 1.373 . S
C273 C274 1.396 . S
C273 C280 1.403 . S
C274 C264 1.476 . S
C274 N269 1.318 . S
C274 C273 1.396 . S
H275 C270 0.929 . S
O276 Mn252 2.385 . S
O276 C254 1.234 . S
O277 Mn252 2.209 . S
O277 Mn253 2.215 . S
O277 C254 1.283 . S
O278 Mn252 2.094 . S
O278 C256 1.240 . S
O279 Mn253 2.117 . S
O279 C256 1.264 . S
C280 C273 1.403 . S
C280 C281 1.399 . S
C280 H286 0.929 . S
C281 C261 1.449 . S
C281 C280 1.399 . S
C281 H287 0.930 . S
H282 C262 0.931 . S
H283 C263 0.930 . S
H284 C271 0.931 . S
H285 C272 0.929 . S
H286 C280 0.929 . S
H287 C281 0.930 . S
C194 C4 1.519 . S
C266 C40 1.519 . S
C74 C218 1.532 1_544 S
C111 C147 1.551 1_655 S
C220 C14 1.514 1_565 S
C38 C146 1.532 1_656 S
C183 C75 1.551 . S
C122 C256 1.519 . S
C158 C184 1.519 . S
C50 C76 1.514 1_556 S
C112 C86 1.514 1_565 S
C110 C2 1.532 1_665 S
C39 C3 1.551 1_655 S
C255 C219 1.551 . S
C148 C230 1.514 1_554 S
C182 C254 1.532 . S
