# Generated by pormake.
# Topology tsi, (8)-cn, num edge types: 1
# Building blocks:
#     Node 0, Type 0, BuildingBlock: TAGTUT_clean_sbu_1, # of connection points: 8
#     Node 1, Type 0, BuildingBlock: TAGTUT_clean_sbu_1, # of connection points: 8
#     Node 2, Type 0, BuildingBlock: TAGTUT_clean_sbu_1, # of connection points: 8
#     Node 3, Type 0, BuildingBlock: TAGTUT_clean_sbu_1, # of connection points: 8
#     Edge 4, Type (0, 0), BuildingBlock: FUNLAD_clean_linker_1, # of connection points: 2
#     Edge 5, Type (0, 0), BuildingBlock: FUNLAD_clean_linker_1, # of connection points: 2
#     Edge 6, Type (0, 0), BuildingBlock: FUNLAD_clean_linker_1, # of connection points: 2
#     Edge 7, Type (0, 0), BuildingBlock: FUNLAD_clean_linker_1, # of connection points: 2
#     Edge 8, Type (0, 0), BuildingBlock: FUNLAD_clean_linker_1, # of connection points: 2
#     Edge 9, Type (0, 0), BuildingBlock: FUNLAD_clean_linker_1, # of connection points: 2
#     Edge 10, Type (0, 0), BuildingBlock: FUNLAD_clean_linker_1, # of connection points: 2
#     Edge 11, Type (0, 0), BuildingBlock: FUNLAD_clean_linker_1, # of connection points: 2
#     Edge 12, Type (0, 0), BuildingBlock: FUNLAD_clean_linker_1, # of connection points: 2
#     Edge 13, Type (0, 0), BuildingBlock: FUNLAD_clean_linker_1, # of connection points: 2
#     Edge 14, Type (0, 0), BuildingBlock: FUNLAD_clean_linker_1, # of connection points: 2
#     Edge 15, Type (0, 0), BuildingBlock: FUNLAD_clean_linker_1, # of connection points: 2
#     Edge 16, Type (0, 0), BuildingBlock: FUNLAD_clean_linker_1, # of connection points: 2
#     Edge 17, Type (0, 0), BuildingBlock: FUNLAD_clean_linker_1, # of connection points: 2
#     Edge 18, Type (0, 0), BuildingBlock: FUNLAD_clean_linker_1, # of connection points: 2
#     Edge 19, Type (0, 0), BuildingBlock: FUNLAD_clean_linker_1, # of connection points: 2
# Relax obj value: 0.135
# Max RMSD: 0.248
# Mean RMSD: 0.248
data_MOF--net-tsi--node1-TAGTUT_clean_sbu_1--edge1-FUNLAD_clean_linker_1
_symmetry_space_group_name_H-M    P1
_symmetry_Int_Tables_number       1
_symmetry_cell_setting            triclinic
loop_
_symmetry_equiv_pos_as_xyz
'x, y, z'
_cell_length_a     15.737889
_cell_length_b     16.453916
_cell_length_c     68.892951
_cell_angle_alpha  93.102408
_cell_angle_beta   92.541558
_cell_angle_gamma 110.98917
loop_
_atom_site_label
_atom_site_type_symbol
_atom_site_fract_x
_atom_site_fract_y
_atom_site_fract_z
_atom_type_partial_charge
C0 C 0.01298 0.18736 0.43146 0.0
C1 C 0.98194 0.42759 0.42289 0.0
C2 C 0.79963 0.24277 0.35251 0.0
Mg3 Mg 0.11777 0.34506 0.40866 0.0
O4 O 0.02884 0.28723 0.38917 0.0
Mg5 Mg 0.8977 0.23715 0.39445 0.0
Mg6 Mg 0.01793 0.3295 0.36328 0.0
O7 O 0.00627 0.3662 0.33683 0.0
Mg8 Mg 0.93796 0.27393 0.31898 0.0
Mg9 Mg 0.13706 0.42943 0.33197 0.0
C10 C 0.24268 0.39356 0.3729 0.0
C11 C 0.07577 0.54091 0.36539 0.0
O12 O 0.94021 0.18189 0.42153 0.0
O13 O 0.092 0.24213 0.42839 0.0
O14 O 0.91388 0.36287 0.41476 0.0
O15 O 0.06463 0.43668 0.42028 0.0
O16 O 0.23647 0.38647 0.3913 0.0
O17 O 0.17207 0.37576 0.36101 0.0
C18 C 0.94828 0.11765 0.36103 0.0
O19 O 0.99637 0.187 0.3532 0.0
O20 O 0.90126 0.12039 0.37563 0.0
O21 O 0.07837 0.46685 0.30303 0.0
O22 O 0.93849 0.36099 0.29754 0.0
O23 O 0.14923 0.31801 0.31334 0.0
C24 C 0.00105 0.43073 0.29309 0.0
O25 O 0.02002 0.20355 0.30711 0.0
O26 O 0.81457 0.22434 0.33491 0.0
C27 C 0.10487 0.2427 0.30499 0.0
O28 O 0.8644 0.28778 0.36518 0.0
O29 O 0.03624 0.47089 0.37383 0.0
O30 O 0.1185 0.54052 0.35004 0.0
C31 C 0.9841 0.61481 0.69165 0.0
C32 C 0.87227 0.79723 0.6767 0.0
C33 C 0.75497 0.64877 0.6093 0.0
Mg34 Mg 0.04628 0.77145 0.66567 0.0
O35 O 0.98475 0.67618 0.64779 0.0
Mg36 Mg 0.85333 0.61 0.65127 0.0
Mg37 Mg 0.97804 0.7115 0.62107 0.0
O38 O 0.97198 0.75302 0.59482 0.0
Mg39 Mg 0.8874 0.69165 0.57468 0.0
Mg40 Mg 0.10502 0.80058 0.59124 0.0
C41 C 0.19353 0.79975 0.63426 0.0
C42 C 0.04738 0.9228 0.62279 0.0
O43 O 0.90942 0.57518 0.68098 0.0
O44 O 0.04283 0.68838 0.68802 0.0
O45 O 0.83291 0.72053 0.66863 0.0
O46 O 0.95761 0.83852 0.67554 0.0
O47 O 0.17488 0.82079 0.65137 0.0
O48 O 0.13132 0.75377 0.62121 0.0
C49 C 0.92468 0.50095 0.61916 0.0
O50 O 0.96423 0.57155 0.61098 0.0
O51 O 0.87882 0.49966 0.63409 0.0
O52 O 0.07158 0.85105 0.56295 0.0
O53 O 0.9224 0.78925 0.55335 0.0
O54 O 0.09089 0.67221 0.57235 0.0
C55 C 0.00329 0.84307 0.55127 0.0
O56 O 0.94083 0.59577 0.56578 0.0
O57 O 0.76445 0.65613 0.59098 0.0
C58 C 0.02439 0.60546 0.56438 0.0
O59 O 0.82335 0.66265 0.6216 0.0
O60 O 0.99701 0.85376 0.63043 0.0
O61 O 0.09771 0.91952 0.60882 0.0
C62 C 0.57298 0.66765 0.93244 0.0
C63 C 0.50291 0.8843 0.92152 0.0
C64 C 0.29944 0.67348 0.85775 0.0
Mg65 Mg 0.64374 0.81628 0.90492 0.0
O66 O 0.55122 0.7377 0.88825 0.0
Mg67 Mg 0.42563 0.68436 0.89708 0.0
Mg68 Mg 0.52016 0.76688 0.86207 0.0
O69 O 0.48861 0.79207 0.83558 0.0
Mg70 Mg 0.4133 0.6934 0.82013 0.0
Mg71 Mg 0.61242 0.85573 0.82675 0.0
C72 C 0.74608 0.8444 0.86556 0.0
C73 C 0.56973 0.97548 0.86122 0.0
O74 O 0.49309 0.64686 0.92386 0.0
O75 O 0.64307 0.72857 0.92711 0.0
O76 O 0.43974 0.81191 0.91541 0.0
O77 O 0.58524 0.90447 0.91685 0.0
O78 O 0.75006 0.85128 0.8843 0.0
O79 O 0.66948 0.8163 0.8554 0.0
C80 C 0.45946 0.55728 0.86312 0.0
O81 O 0.499 0.62349 0.85346 0.0
O82 O 0.42443 0.5645 0.87925 0.0
O83 O 0.53189 0.87828 0.79882 0.0
O84 O 0.39408 0.76914 0.79781 0.0
O85 O 0.6195 0.73953 0.80914 0.0
C86 C 0.44969 0.83815 0.79128 0.0
O87 O 0.49111 0.62316 0.80628 0.0
O88 O 0.3031 0.64929 0.8398 0.0
C89 C 0.57377 0.66194 0.80223 0.0
O90 O 0.37095 0.72148 0.86833 0.0
O91 O 0.53875 0.90868 0.87112 0.0
O92 O 0.60069 0.97084 0.84449 0.0
C93 C 0.56292 0.15459 0.19599 0.0
C94 C 0.45085 0.3305 0.17783 0.0
C95 C 0.28656 0.12732 0.11725 0.0
Mg96 Mg 0.61195 0.28802 0.16427 0.0
O97 O 0.53768 0.18517 0.14997 0.0
Mg98 Mg 0.41067 0.12689 0.1581 0.0
Mg99 Mg 0.51212 0.2004 0.12233 0.0
O100 O 0.48618 0.2195 0.09495 0.0
Mg101 Mg 0.39388 0.13668 0.07892 0.0
Mg102 Mg 0.61395 0.2662 0.08694 0.0
C103 C 0.73221 0.29207 0.12818 0.0
C104 C 0.57915 0.411 0.11628 0.0
O105 O 0.48281 0.11164 0.18775 0.0
O106 O 0.62156 0.22001 0.18888 0.0
O107 O 0.40542 0.25071 0.17256 0.0
O108 O 0.5344 0.36655 0.17417 0.0
O109 O 0.72663 0.32137 0.14561 0.0
O110 O 0.66195 0.24163 0.1176 0.0
C111 C 0.45487 0.98992 0.12809 0.0
O112 O 0.49333 0.05209 0.11719 0.0
O113 O 0.41864 1.0029 0.14361 0.0
O114 O 0.5533 0.29272 0.05787 0.0
O115 O 0.40275 0.21352 0.05411 0.0
O116 O 0.59783 0.13029 0.07238 0.0
C117 C 0.47528 0.26981 0.04834 0.0
O118 O 0.45104 0.041 0.07117 0.0
O119 O 0.28347 0.11487 0.09859 0.0
C120 C 0.53405 0.05663 0.06745 0.0
O121 O 0.36232 0.15552 0.1276 0.0
O122 O 0.53394 0.34998 0.12692 0.0
O123 O 0.61797 0.39527 0.10135 0.0
H124 H 0.89999 0.45685 0.44569 0.0
C125 C 0.96758 0.47744 0.4402 0.0
H126 H 0.10859 0.54756 0.44665 0.0
H127 H 0.07263 0.41757 0.53195 0.0
H128 H 0.01125 0.27061 0.51684 0.0
H129 H 0.97238 0.24355 0.48147 0.0
H130 H 0.98773 0.36258 0.46138 0.0
C131 C 0.04091 0.52563 0.45212 0.0
C132 C 0.04045 0.53725 0.47367 0.0
C133 C 0.03242 0.46602 0.48523 0.0
C134 C 0.05581 0.48146 0.50568 0.0
C135 C 0.05118 0.40966 0.51663 0.0
C136 C 0.01835 0.32481 0.50803 0.0
C137 C 0.99584 0.30959 0.48815 0.0
C138 C 0.00439 0.37909 0.47677 0.0
H139 H 0.97939 0.49569 0.54277 0.0
C140 C 0.03971 0.55068 0.54838 0.0
H141 H 0.16461 0.64203 0.54158 0.0
H142 H 0.05965 0.68598 0.4558 0.0
H143 H 0.11012 0.83302 0.47117 0.0
H144 H 0.14465 0.86024 0.50662 0.0
H145 H 0.1294 0.74161 0.52701 0.0
C146 C 0.10577 0.58517 0.53626 0.0
C147 C 0.08513 0.5677 0.51466 0.0
C148 C 0.08997 0.63837 0.50311 0.0
C149 C 0.06858 0.62292 0.48263 0.0
C150 C 0.07604 0.69447 0.47138 0.0
C151 C 0.10419 0.77908 0.48002 0.0
C152 C 0.1234 0.79432 0.50001 0.0
C153 C 0.11538 0.72519 0.51152 0.0
H154 H 0.55665 0.58336 0.77438 0.0
C155 C 0.60683 0.6323 0.78436 0.0
H156 H 0.73512 0.73478 0.78755 0.0
H157 H 0.75865 0.6166 0.69553 0.0
H158 H 0.76959 0.48378 0.70678 0.0
H159 H 0.74652 0.44916 0.74097 0.0
H160 H 0.7112 0.54728 0.76409 0.0
C161 C 0.68558 0.68499 0.77761 0.0
C162 C 0.69327 0.70172 0.75661 0.0
C163 C 0.7128 0.6436 0.74326 0.0
C164 C 0.7271 0.66443 0.72359 0.0
C165 C 0.74738 0.60499 0.71063 0.0
C166 C 0.7539 0.52821 0.7169 0.0
C167 C 0.74084 0.50866 0.73615 0.0
C168 C 0.72051 0.56545 0.74925 0.0
H169 H 0.86801 0.86978 0.70416 0.0
C170 C 0.82533 0.82243 0.69282 0.0
H171 H 0.69996 0.71915 0.68566 0.0
H172 H 0.65332 0.82703 0.77819 0.0
H173 H 0.64058 0.95924 0.76688 0.0
H174 H 0.66369 0.99389 0.73268 0.0
H175 H 0.70106 0.89672 0.70967 0.0
C176 C 0.74245 0.76675 0.69698 0.0
C177 C 0.72296 0.74423 0.71737 0.0
C178 C 0.70101 0.80119 0.73059 0.0
C179 C 0.6866 0.7803 0.75024 0.0
C180 C 0.66506 0.8391 0.76313 0.0
C181 C 0.65735 0.91533 0.7568 0.0
C182 C 0.67042 0.93491 0.73756 0.0
C183 C 0.69208 0.87876 0.72453 0.0
H184 H 0.65299 0.63584 0.95602 0.0
C185 C 0.58477 0.62032 0.94924 0.0
H186 H 0.44491 0.54279 0.9497 0.0
H187 H 0.49444 0.24264 -0.00459 0.0
H188 H 0.46155 0.17272 0.96265 0.0
H189 H 0.4578 0.25758 0.93437 0.0
H190 H 0.48596 0.41255 0.93877 0.0
C191 C 0.51327 0.56053 0.95657 0.0
C192 C 0.52474 0.51245 0.97344 0.0
C193 C 0.50757 0.42189 0.9706 0.0
C194 C 0.5113 0.37341 0.98684 0.0
C195 C 0.49354 0.28291 0.9836 0.0
C196 C 0.47435 0.24187 0.96484 0.0
C197 C 0.47207 0.28957 0.94893 0.0
C198 C 0.4881 0.37846 0.95168 0.0
H199 H 0.40093 0.29652 0.02298 0.0
C200 C 0.46808 0.31124 0.03025 0.0
H201 H 0.60914 0.38479 0.03022 0.0
H202 H 0.56191 0.68586 0.98393 0.0
H203 H 0.59759 0.75619 0.01658 0.0
H204 H 0.60455 0.67204 0.0448 0.0
H205 H 0.57622 0.51711 0.04042 0.0
C206 C 0.54188 0.36761 0.02285 0.0
C207 C 0.53373 0.41623 0.00582 0.0
C208 C 0.55203 0.50706 0.00863 0.0
C209 C 0.5475 0.55537 -0.00759 0.0
C210 C 0.56451 0.64577 -0.00432 0.0
C211 C 0.5851 0.6871 0.01439 0.0
C212 C 0.58908 0.63977 0.03026 0.0
C213 C 0.57291 0.55085 0.02751 0.0
H214 H 0.93097 0.49255 0.27568 0.0
C215 C 0.98221 0.46272 0.27458 0.0
H216 H 0.02843 0.38185 0.25727 0.0
H217 H 0.64223 0.08623 0.25051 0.0
H218 H 0.73639 0.02185 0.26798 0.0
H219 H 0.89847 0.10695 0.27715 0.0
H220 H 0.96639 0.25701 0.26957 0.0
C221 C 0.97511 0.40887 0.25867 0.0
C222 C 0.88188 0.35293 0.25015 0.0
C223 C 0.84385 0.26353 0.25432 0.0
C224 C 0.75104 0.21307 0.24847 0.0
C225 C 0.71324 0.12618 0.25392 0.0
C226 C 0.76628 0.08858 0.26409 0.0
C227 C 0.85742 0.1366 0.2693 0.0
C228 C 0.89577 0.22304 0.26469 0.0
H229 H 0.64219 0.10394 0.21409 0.0
C230 C 0.59136 0.13431 0.21504 0.0
H231 H 0.55125 0.22466 0.23071 0.0
H232 H 0.93576 0.51838 0.2383 0.0
H233 H 0.84386 0.5804 0.2193 0.0
H234 H 0.68488 0.49179 0.208 0.0
H235 H 0.61703 0.34205 0.21565 0.0
C236 C 0.60276 0.19516 0.22976 0.0
C237 C 0.69741 0.25007 0.23761 0.0
C238 C 0.73639 0.33857 0.23286 0.0
C239 C 0.82836 0.38986 0.23924 0.0
C240 C 0.86581 0.47724 0.2341 0.0
C241 C 0.81407 0.51349 0.22308 0.0
C242 C 0.72465 0.46365 0.21673 0.0
C243 C 0.68622 0.37731 0.22139 0.0
H244 H 0.39028 0.41597 0.19392 0.0
C245 C 0.41664 0.36362 0.19488 0.0
H246 H 0.4328 0.26325 0.21063 0.0
H247 H 0.33624 0.32379 0.29386 0.0
H248 H 0.50131 0.38868 0.29865 0.0
H249 H 0.5966 0.42327 0.27053 0.0
H250 H 0.52697 0.39332 0.23747 0.0
C251 C 0.40396 0.31428 0.21031 0.0
C252 C 0.34559 0.31607 0.22653 0.0
C253 C 0.3866 0.3362 0.24578 0.0
C254 C 0.33164 0.31768 0.26196 0.0
C255 C 0.37479 0.33751 0.28103 0.0
C256 C 0.46945 0.37456 0.284 0.0
C257 C 0.52312 0.39372 0.26817 0.0
C258 C 0.48249 0.37533 0.24927 0.0
H259 H 0.14802 0.15535 0.28478 0.0
C260 C 0.14541 0.21994 0.28759 0.0
H261 H 0.17182 0.34652 0.27829 0.0
H262 H 0.24323 0.26438 0.19153 0.0
H263 H 0.07873 0.19935 0.18695 0.0
H264 H 0.98382 0.17037 0.21519 0.0
H265 H 0.05407 0.2049 0.24822 0.0
C266 C 0.1794 0.28385 0.27541 0.0
C267 C 0.23541 0.28043 0.2589 0.0
C268 C 0.19413 0.25992 0.2397 0.0
C269 C 0.24908 0.27741 0.22346 0.0
C270 C 0.20548 0.25397 0.20445 0.0
C271 C 0.11077 0.21635 0.20159 0.0
C272 C 0.05732 0.20013 0.21748 0.0
C273 C 0.09824 0.22111 0.23634 0.0
H274 H 0.97054 0.60072 0.72206 0.0
C275 C 0.0036 0.58188 0.71002 0.0
H276 H 0.11816 0.55898 0.70127 0.0
H277 H 0.39061 0.91957 0.73737 0.0
H278 H 0.41776 0.9229 0.70305 0.0
H279 H 0.3262 0.80109 0.67965 0.0
H280 H 0.20728 0.67629 0.69023 0.0
C281 C 0.08892 0.58254 0.71333 0.0
C282 C 0.15401 0.64938 0.7279 0.0
C283 C 0.22694 0.72085 0.72136 0.0
C284 C 0.28226 0.79023 0.73491 0.0
C285 C 0.34977 0.86339 0.72785 0.0
C286 C 0.36546 0.86665 0.70814 0.0
C287 C 0.3138 0.79815 0.69497 0.0
C288 C 0.24521 0.72637 0.70137 0.0
H289 H 0.45271 0.84112 0.76023 0.0
C290 C 0.4199 0.85947 0.77236 0.0
H291 H 0.30339 0.87602 0.78197 0.0
H292 H 0.02835 0.5184 0.74543 0.0
H293 H 0.00074 0.51538 0.77972 0.0
H294 H 0.09466 0.6356 0.8032 0.0
H295 H 0.2173 0.75769 0.79284 0.0
C296 C 0.33251 0.85368 0.76972 0.0
C297 C 0.26813 0.78663 0.75508 0.0
C298 C 0.19553 0.71489 0.76161 0.0
C299 C 0.13945 0.6461 0.74803 0.0
C300 C 0.07043 0.57384 0.75501 0.0
C301 C 0.05442 0.57074 0.77469 0.0
C302 C 0.10755 0.63825 0.78792 0.0
C303 C 0.17787 0.70883 0.78162 0.0
H304 H 0.41776 0.92007 0.94253 0.0
C305 C 0.48743 0.92879 0.93939 0.0
H306 H 0.62235 0.95809 0.95132 0.0
H307 H 0.58472 0.14007 0.03157 0.0
H308 H 0.67573 0.26612 0.0157 0.0
H309 H 0.70255 0.25436 0.98086 0.0
H310 H 0.63748 0.11562 0.96174 0.0
C311 C 0.55316 0.95292 0.95405 0.0
C312 C 0.53398 0.95916 0.97486 0.0
C313 C 0.57366 0.0402 0.98594 0.0
C314 C 0.56042 0.04619 0.00617 0.0
C315 C 0.59629 0.12962 0.0165 0.0
C316 C 0.64818 0.20328 0.00748 0.0
C317 C 0.66316 0.19671 0.98786 0.0
C318 C 0.6256 0.11655 0.97709 0.0
H319 H 0.62093 0.01185 0.04866 0.0
C320 C 0.55076 0.00413 0.05109 0.0
H321 H 0.41758 0.97182 0.03792 0.0
H322 H 0.4595 0.78974 0.95854 0.0
H323 H 0.3721 0.66241 0.97462 0.0
H324 H 0.34764 0.67336 0.00963 0.0
H325 H 0.41102 0.81243 0.02872 0.0
C326 C 0.48736 0.97665 0.03598 0.0
C327 C 0.51038 0.96981 0.01543 0.0
C328 C 0.47214 0.88847 0.0044 0.0
C329 C 0.48473 0.8827 0.98414 0.0
C330 C 0.44897 0.79946 0.97374 0.0
C331 C 0.39904 0.72529 0.98285 0.0
C332 C 0.38546 0.73139 0.00256 0.0
C333 C 0.42198 0.8117 0.01332 0.0
H334 H 0.93284 0.09229 0.45087 0.0
C335 C 0.00211 0.12827 0.44712 0.0
H336 H 0.142 0.15262 0.45364 0.0
H337 H 0.03751 0.06165 0.54043 0.0
H338 H 0.14475 0.21053 0.54539 0.0
H339 H 0.21351 0.29208 0.51748 0.0
H340 H 0.17194 0.2261 0.48443 0.0
C341 C 0.07203 0.11673 0.45685 0.0
C342 C 0.05342 0.06033 0.47346 0.0
C343 C 0.08078 0.09905 0.49264 0.0
C344 C 0.04522 0.05041 0.50875 0.0
C345 C 0.06706 0.09339 0.52771 0.0
C346 C 0.12792 0.17929 0.53076 0.0
C347 C 0.16645 0.22523 0.51506 0.0
C348 C 0.14189 0.18656 0.49616 0.0
H349 H 0.0946 0.93349 0.53272 0.0
C350 C 0.023 0.89767 0.53475 0.0
H351 H 0.88739 0.87034 0.52387 0.0
H352 H 0.00324 0.96285 0.4386 0.0
H353 H 0.91081 0.80862 0.4336 0.0
H354 H 0.8521 0.72225 0.46154 0.0
H355 H 0.88571 0.78943 0.49455 0.0
C356 C 0.95935 0.90669 0.52245 0.0
C357 C 0.98806 0.96089 0.50563 0.0
C358 C 0.96571 0.92066 0.48643 0.0
C359 C 0.99881 0.97041 0.47032 0.0
C360 C 0.978 0.92833 0.4513 0.0
C361 C 0.92549 0.83977 0.44825 0.0
C362 C 0.89249 0.79118 0.46397 0.0
C363 C 0.91217 0.83071 0.48287 0.0
H364 H 0.00065 0.03258 0.34307 0.0
C365 C 0.96003 0.03459 0.35532 0.0
H366 H 0.89993 0.97174 0.37991 0.0
H367 H 0.97044 0.64543 0.33064 0.0
H368 H 0.85895 0.65301 0.3061 0.0
H369 H 0.79613 0.77039 0.30857 0.0
H370 H 0.84553 0.8817 0.3355 0.0
C371 C 0.93574 0.96787 0.36697 0.0
C372 C 0.97265 0.89639 0.36524 0.0
C373 C 0.94256 0.83161 0.34948 0.0
C374 C 0.97811 0.76339 0.34821 0.0
C375 C 0.9466 0.69931 0.3323 0.0
C376 C 0.88226 0.70262 0.31812 0.0
C377 C 0.84687 0.76869 0.31952 0.0
C378 C 0.87614 0.83241 0.33501 0.0
H379 H 0.01847 0.62002 0.38399 0.0
C380 C 0.05964 0.62131 0.37166 0.0
H381 H 0.11969 0.68979 0.34771 0.0
H382 H 0.04576 0.01092 0.39733 0.0
H383 H 0.15766 0.00357 0.4218 0.0
H384 H 0.21841 0.88471 0.41963 0.0
H385 H 0.16808 0.77275 0.39284 0.0
C386 C 0.08247 0.6901 0.36061 0.0
C387 C 0.04281 0.75945 0.36282 0.0
C388 C 0.0723 0.82378 0.37867 0.0
C389 C 0.0371 0.89228 0.3799 0.0
C390 C 0.06924 0.9568 0.39572 0.0
C391 C 0.13379 0.95359 0.40986 0.0
C392 C 0.16803 0.8867 0.40863 0.0
C393 C 0.13823 0.8226 0.39322 0.0
H394 H 0.34239 0.86319 0.64049 0.0
C395 C 0.28946 0.81169 0.63158 0.0
H396 H 0.25684 0.69217 0.61469 0.0
H397 H 0.69053 0.8051 0.60291 0.0
H398 H 0.66164 0.89232 0.57796 0.0
H399 H 0.51328 0.91125 0.57427 0.0
H400 H 0.39316 0.84366 0.59568 0.0
C401 C 0.31029 0.74815 0.62225 0.0
C402 C 0.40189 0.74227 0.62526 0.0
C403 C 0.4708 0.78156 0.61259 0.0
C404 C 0.55561 0.76925 0.61452 0.0
C405 C 0.62405 0.81062 0.60185 0.0
C406 C 0.60853 0.86124 0.58752 0.0
C407 C 0.52505 0.872 0.58546 0.0
C408 C 0.45672 0.83283 0.59781 0.0
H409 H 0.60553 0.59864 0.60647 0.0
C410 C 0.66456 0.63771 0.61604 0.0
H411 H 0.71497 0.74168 0.63787 0.0
H412 H 0.28645 0.66331 0.65296 0.0
H413 H 0.31792 0.5812 0.67877 0.0
H414 H 0.46526 0.55986 0.682 0.0
H415 H 0.58194 0.62023 0.65932 0.0
C416 C 0.65545 0.69609 0.6294 0.0
C417 C 0.57037 0.71599 0.62888 0.0
C418 C 0.50327 0.68042 0.64218 0.0
C419 C 0.41862 0.69321 0.64033 0.0
C420 C 0.35211 0.65593 0.6537 0.0
C421 C 0.36929 0.60864 0.66859 0.0
C422 C 0.45224 0.5966 0.67041 0.0
C423 C 0.51856 0.63153 0.65732 0.0
H424 H 0.501 0.46773 0.84404 0.0
C425 C 0.46565 0.47252 0.85701 0.0
H426 H 0.40954 0.41194 0.8822 0.0
H427 H 0.45055 0.07919 0.82955 0.0
H428 H 0.32741 0.08669 0.8082 0.0
H429 H 0.26883 0.20619 0.81311 0.0
H430 H 0.33338 0.31911 0.83944 0.0
C431 C 0.44115 0.40631 0.86873 0.0
C432 C 0.47305 0.33227 0.86603 0.0
C433 C 0.43505 0.26751 0.85049 0.0
C434 C 0.46871 0.19866 0.84772 0.0
C435 C 0.42851 0.13372 0.83224 0.0
C436 C 0.35741 0.13696 0.81991 0.0
C437 C 0.32446 0.20426 0.82267 0.0
C438 C 0.36244 0.26888 0.83777 0.0
H439 H 0.52458 0.05813 0.8815 0.0
C440 C 0.5583 0.05703 0.8681 0.0
H441 H 0.6067 0.12236 0.84298 0.0
H442 H 0.55687 0.44373 0.89807 0.0
H443 H 0.67692 0.43405 0.92 0.0
H444 H 0.73777 0.31628 0.91475 0.0
H445 H 0.678 0.2069 0.8876 0.0
C446 C 0.57684 0.12462 0.85684 0.0
C447 C 0.54014 0.19491 0.86055 0.0
C448 C 0.5766 0.25852 0.87639 0.0
C449 C 0.54235 0.32696 0.87925 0.0
C450 C 0.57998 0.39002 0.89519 0.0
C451 C 0.64922 0.38545 0.90789 0.0
C452 C 0.68339 0.3191 0.90494 0.0
C453 C 0.64812 0.25646 0.88935 0.0
H454 H 0.21203 0.15229 0.14175 0.0
C455 C 0.20439 0.12859 0.12648 0.0
H456 H 0.12425 0.10531 0.09999 0.0
H457 H 0.84104 0.18875 0.15952 0.0
H458 H 0.82867 0.05494 0.17424 0.0
H459 H 0.92752 0.97372 0.16513 0.0
H460 H 0.0398 0.02637 0.14123 0.0
C461 C 0.13038 0.12493 0.11547 0.0
C462 C 0.07349 0.17473 0.12198 0.0
C463 C 0.00913 0.14339 0.13606 0.0
C464 C 0.95202 0.19012 0.14121 0.0
C465 C 0.88678 0.15648 0.15508 0.0
C466 C 0.87875 0.07949 0.16364 0.0
C467 C 0.93445 0.03379 0.15852 0.0
C468 C 0.99878 0.06487 0.14484 0.0
H469 H 0.82532 0.26889 0.10763 0.0
C470 C 0.82212 0.29623 0.12219 0.0
H471 H 0.88668 0.33102 0.15056 0.0
H472 H 0.19789 0.25822 0.09606 0.0
H473 H 0.21386 0.3946 0.08223 0.0
H474 H 0.11437 0.47544 0.09119 0.0
H475 H 0.99762 0.41936 0.11407 0.0
C476 C 0.89115 0.30884 0.13563 0.0
C477 C 0.95919 0.2675 0.13207 0.0
C478 C 0.0266 0.30105 0.11873 0.0
C479 C 0.08389 0.25458 0.11364 0.0
C480 C 0.15151 0.29002 0.10034 0.0
C481 C 0.1618 0.36868 0.09234 0.0
C482 C 0.10571 0.41408 0.09737 0.0
C483 C 0.03877 0.38099 0.11042 0.0
H484 H 0.98953 0.007 0.63939 0.0
C485 C 0.03573 0.00617 0.62817 0.0
H486 H 0.11088 0.07355 0.60558 0.0
H487 H 0.85436 0.28213 0.58808 0.0
H488 H 0.82844 0.18628 0.5587 0.0
H489 H 0.89495 0.07159 0.55639 0.0
H490 H 0.98778 0.05207 0.58339 0.0
C491 C 0.06824 0.0755 0.61744 0.0
C492 C 0.03301 0.14835 0.61868 0.0
C493 C 0.98 0.15984 0.60255 0.0
C494 C 0.94221 0.22654 0.60378 0.0
C495 C 0.88667 0.23418 0.58776 0.0
C496 C 0.87068 0.17914 0.57083 0.0
C497 C 0.90814 0.11457 0.56953 0.0
C498 C 0.96167 0.10434 0.58517 0.0
H499 H 0.99032 0.42695 0.60146 0.0
C500 C 0.94403 0.42226 0.61296 0.0
H501 H 0.87399 0.34717 0.63512 0.0
H502 H 0.14042 0.15089 0.65125 0.0
H503 H 0.17038 0.24971 0.68027 0.0
H504 H 0.10465 0.36507 0.68251 0.0
H505 H 0.00879 0.38232 0.6558 0.0
C506 C 0.91698 0.35052 0.62304 0.0
C507 C 0.95869 0.28249 0.62103 0.0
C508 C 0.01389 0.27257 0.63694 0.0
C509 C 0.05138 0.20571 0.63573 0.0
C510 C 0.10837 0.19908 0.65159 0.0
C511 C 0.1267 0.25582 0.66829 0.0
C512 C 0.08973 0.32077 0.66955 0.0
C513 C 0.03431 0.3296 0.6541 0.0
H514 H 0.82027 0.81916 0.84092 0.0
C515 C 0.82849 0.84435 0.85609 0.0
H516 H 0.91021 0.87111 0.88246 0.0
H517 H 0.02466 0.54817 0.87146 0.0
H518 H 0.89549 0.49036 0.89134 0.0
H519 H 0.79403 0.57209 0.89771 0.0
H520 H 0.82078 0.71166 0.88431 0.0
C521 C 0.90319 0.84916 0.86711 0.0
C522 C 0.95894 0.79687 0.86138 0.0
C523 C 0.94233 0.71528 0.86946 0.0
C524 C 0.00059 0.66803 0.86583 0.0
C525 C 0.98252 0.58674 0.87394 0.0
C526 C 0.90864 0.55281 0.88532 0.0
C527 C 0.85151 0.59882 0.8889 0.0
C528 C 0.86785 0.67911 0.88114 0.0
H529 H 0.2092 0.69968 0.87872 0.0
C530 C 0.21031 0.6702 0.86426 0.0
H531 H 0.14202 0.63163 0.83634 0.0
H532 H 0.00637 0.94869 0.84315 0.0
H533 H 0.13304 0.00433 0.82251 0.0
H534 H 0.23381 0.92195 0.81599 0.0
H535 H 0.20938 0.78434 0.83013 0.0
C536 C 0.13983 0.65674 0.85113 0.0
C537 C 0.075 0.70237 0.85417 0.0
C538 C 0.08948 0.7822 0.84545 0.0
C539 C 0.03139 0.82965 0.84912 0.0
C540 C 0.04849 0.91009 0.8407 0.0
C541 C 0.12084 0.94269 0.82885 0.0
C542 C 0.17761 0.89635 0.82518 0.0
C543 C 0.16263 0.8172 0.83337 0.0
H544 H 0.64723 0.55314 0.11589 0.0
C545 C 0.58614 0.50268 0.12021 0.0
H546 H 0.45052 0.47495 0.12745 0.0
H547 H 0.64487 0.90994 0.14566 0.0
H548 H 0.73561 0.87934 0.17162 0.0
H549 H 0.72641 0.72872 0.17601 0.0
H550 H 0.62686 0.60764 0.15436 0.0
C551 C 0.51529 0.5254 0.12499 0.0
C552 C 0.51838 0.61698 0.12309 0.0
C553 C 0.5761 0.68723 0.136 0.0
C554 C 0.58026 0.77425 0.13365 0.0
C555 C 0.63876 0.84276 0.14677 0.0
C556 C 0.69122 0.82613 0.16176 0.0
C557 C 0.68614 0.74131 0.16421 0.0
C558 C 0.6291 0.67242 0.1516 0.0
H559 H 0.39441 0.8472 0.12841 0.0
C560 C 0.45215 0.89996 0.12358 0.0
H561 H 0.58566 0.93405 0.11437 0.0
H562 H 0.40386 0.49946 0.09509 0.0
H563 H 0.31719 0.53135 0.06851 0.0
H564 H 0.32461 0.6817 0.06457 0.0
H565 H 0.41926 0.80162 0.08716 0.0
C566 C 0.52365 0.88146 0.11749 0.0
C567 C 0.52528 0.79116 0.11865 0.0
C568 C 0.46906 0.72132 0.10551 0.0
C569 C 0.46524 0.63436 0.10776 0.0
C570 C 0.40918 0.56653 0.09418 0.0
C571 C 0.35905 0.58388 0.07883 0.0
C572 C 0.36322 0.66859 0.07661 0.0
C573 C 0.41744 0.73674 0.08974 0.0
H574 H 0.65139 0.18243 0.34621 0.0
C575 C 0.70414 0.22933 0.35611 0.0
H576 H 0.73695 0.3411 0.37552 0.0
H577 H 0.45368 0.47811 0.3359 0.0
H578 H 0.59778 0.58229 0.32704 0.0
H579 H 0.74192 0.5589 0.33421 0.0
H580 H 0.74335 0.43196 0.35017 0.0
C581 C 0.6832 0.28923 0.36686 0.0
C582 C 0.59525 0.30204 0.36266 0.0
C583 C 0.59588 0.37721 0.35332 0.0
C584 C 0.51286 0.39095 0.34921 0.0
C585 C 0.51518 0.46567 0.33966 0.0
C586 C 0.59724 0.52559 0.33439 0.0
C587 C 0.67839 0.5124 0.3384 0.0
C588 C 0.67818 0.43919 0.34767 0.0
H589 H 0.39151 0.44994 0.37507 0.0
C590 C 0.33293 0.40836 0.36569 0.0
H591 H 0.28456 0.30149 0.34473 0.0
H592 H 0.56992 0.1519 0.38076 0.0
H593 H 0.42537 0.04607 0.38876 0.0
H594 H 0.28109 0.06853 0.38117 0.0
H595 H 0.28033 0.19677 0.36564 0.0
C596 C 0.34398 0.34927 0.35282 0.0
C597 C 0.42942 0.32988 0.35449 0.0
C598 C 0.42829 0.25312 0.36319 0.0
C599 C 0.51139 0.23958 0.36742 0.0
C600 C 0.50865 0.16436 0.37683 0.0
C601 C 0.42619 0.10334 0.38162 0.0
C602 C 0.34496 0.11603 0.37737 0.0
C603 C 0.34559 0.19007 0.36838 0.0
loop_
_geom_bond_atom_site_label_1
_geom_bond_atom_site_label_2
_geom_bond_distance
_geom_bond_site_symmetry_2
_ccdc_geom_bond_type
C0 O12 1.241 1_455 S
C0 O13 1.280 . S
C1 O14 1.277 . S
C1 O15 1.245 1_655 S
C2 O26 1.247 . S
C2 O28 1.289 . S
Mg3 O4 1.926 . S
Mg3 O13 1.984 . S
Mg3 O15 1.988 . S
Mg3 O16 2.061 . S
O4 Mg3 1.926 . S
O4 Mg5 1.986 1_455 S
O4 Mg6 1.917 . S
Mg5 O4 1.986 1_655 S
Mg5 O12 2.042 . S
Mg5 O14 2.041 . S
Mg5 O20 2.038 . S
Mg5 O28 2.238 . S
Mg6 O4 1.917 . S
Mg6 O7 1.917 1_455 S
Mg6 O17 2.106 . S
Mg6 O19 2.079 . S
Mg6 O28 2.106 1_455 S
Mg6 O29 2.079 . S
O7 Mg6 1.917 1_655 S
O7 Mg8 1.926 . S
O7 Mg9 1.986 1_655 S
Mg8 O7 1.926 . S
Mg8 O22 1.984 . S
Mg8 O25 1.988 . S
Mg8 O26 2.061 . S
Mg9 O7 1.986 1_455 S
Mg9 O17 2.238 . S
Mg9 O21 2.042 . S
Mg9 O23 2.041 . S
Mg9 O30 2.038 . S
C10 O16 1.247 . S
C10 O17 1.289 . S
C11 O29 1.245 . S
C11 O30 1.274 . S
O12 C0 1.241 1_655 S
O12 Mg5 2.042 . S
O13 C0 1.280 . S
O13 Mg3 1.984 . S
O14 C1 1.277 . S
O14 Mg5 2.041 . S
O15 C1 1.245 1_455 S
O15 Mg3 1.988 . S
O16 Mg3 2.061 . S
O16 C10 1.247 . S
O17 Mg6 2.106 . S
O17 Mg9 2.238 . S
O17 C10 1.289 . S
C18 O19 1.245 1_655 S
C18 O20 1.274 . S
O19 Mg6 2.079 . S
O19 C18 1.245 1_455 S
O20 Mg5 2.038 . S
O20 C18 1.274 . S
O21 Mg9 2.042 . S
O21 C24 1.241 1_455 S
O22 Mg8 1.984 . S
O22 C24 1.280 . S
O23 Mg9 2.041 . S
O23 C27 1.277 . S
C24 O21 1.241 1_655 S
C24 O22 1.280 . S
O25 Mg8 1.988 . S
O25 C27 1.245 1_655 S
O26 C2 1.247 . S
O26 Mg8 2.061 . S
C27 O23 1.277 . S
C27 O25 1.245 1_455 S
O28 C2 1.289 . S
O28 Mg5 2.238 . S
O28 Mg6 2.106 1_655 S
O29 Mg6 2.079 . S
O29 C11 1.245 . S
O30 Mg9 2.038 . S
O30 C11 1.274 . S
C31 O43 1.241 1_455 S
C31 O44 1.280 . S
C32 O45 1.277 . S
C32 O46 1.245 1_655 S
C33 O57 1.247 . S
C33 O59 1.289 . S
Mg34 O35 1.926 . S
Mg34 O44 1.984 . S
Mg34 O46 1.988 . S
Mg34 O47 2.061 . S
O35 Mg34 1.926 . S
O35 Mg36 1.986 1_455 S
O35 Mg37 1.917 . S
Mg36 O35 1.986 1_655 S
Mg36 O43 2.042 . S
Mg36 O45 2.041 . S
Mg36 O51 2.038 . S
Mg36 O59 2.238 . S
Mg37 O35 1.917 . S
Mg37 O38 1.917 1_455 S
Mg37 O48 2.106 . S
Mg37 O50 2.079 1_455 S
Mg37 O59 2.106 1_455 S
Mg37 O60 2.079 . S
O38 Mg37 1.917 1_655 S
O38 Mg39 1.926 . S
O38 Mg40 1.986 1_655 S
Mg39 O38 1.926 . S
Mg39 O53 1.984 . S
Mg39 O56 1.988 . S
Mg39 O57 2.061 . S
Mg40 O38 1.986 1_455 S
Mg40 O48 2.238 . S
Mg40 O52 2.042 . S
Mg40 O54 2.041 . S
Mg40 O61 2.038 . S
C41 O47 1.247 . S
C41 O48 1.289 . S
C42 O60 1.245 . S
C42 O61 1.274 . S
O43 C31 1.241 1_655 S
O43 Mg36 2.042 . S
O44 C31 1.280 . S
O44 Mg34 1.984 . S
O45 C32 1.277 . S
O45 Mg36 2.041 . S
O46 C32 1.245 1_455 S
O46 Mg34 1.988 . S
O47 Mg34 2.061 . S
O47 C41 1.247 . S
O48 Mg37 2.106 . S
O48 Mg40 2.238 . S
O48 C41 1.289 . S
C49 O50 1.245 . S
C49 O51 1.274 . S
O50 Mg37 2.079 1_655 S
O50 C49 1.245 . S
O51 Mg36 2.038 . S
O51 C49 1.274 . S
O52 Mg40 2.042 . S
O52 C55 1.241 1_455 S
O53 Mg39 1.984 . S
O53 C55 1.280 . S
O54 Mg40 2.041 . S
O54 C58 1.277 . S
C55 O52 1.241 1_655 S
C55 O53 1.280 . S
O56 Mg39 1.988 . S
O56 C58 1.245 1_655 S
O57 C33 1.247 . S
O57 Mg39 2.061 . S
C58 O54 1.277 . S
C58 O56 1.245 1_455 S
O59 C33 1.289 . S
O59 Mg36 2.238 . S
O59 Mg37 2.106 1_655 S
O60 Mg37 2.079 . S
O60 C42 1.245 . S
O61 Mg40 2.038 . S
O61 C42 1.274 . S
C62 O74 1.241 . S
C62 O75 1.280 . S
C63 O76 1.277 . S
C63 O77 1.245 . S
C64 O88 1.247 . S
C64 O90 1.289 . S
Mg65 O66 1.926 . S
Mg65 O75 1.984 . S
Mg65 O77 1.988 . S
Mg65 O78 2.061 . S
O66 Mg65 1.926 . S
O66 Mg67 1.986 . S
O66 Mg68 1.917 . S
Mg67 O66 1.986 . S
Mg67 O74 2.042 . S
Mg67 O76 2.041 . S
Mg67 O82 2.038 . S
Mg67 O90 2.238 . S
Mg68 O66 1.917 . S
Mg68 O69 1.917 . S
Mg68 O79 2.106 . S
Mg68 O81 2.079 . S
Mg68 O90 2.106 . S
Mg68 O91 2.079 . S
O69 Mg68 1.917 . S
O69 Mg70 1.926 . S
O69 Mg71 1.986 . S
Mg70 O69 1.926 . S
Mg70 O84 1.984 . S
Mg70 O87 1.988 . S
Mg70 O88 2.061 . S
Mg71 O69 1.986 . S
Mg71 O79 2.238 . S
Mg71 O83 2.042 . S
Mg71 O85 2.041 . S
Mg71 O92 2.038 . S
C72 O78 1.247 . S
C72 O79 1.289 . S
C73 O91 1.245 . S
C73 O92 1.274 . S
O74 C62 1.241 . S
O74 Mg67 2.042 . S
O75 C62 1.280 . S
O75 Mg65 1.984 . S
O76 C63 1.277 . S
O76 Mg67 2.041 . S
O77 C63 1.245 . S
O77 Mg65 1.988 . S
O78 Mg65 2.061 . S
O78 C72 1.247 . S
O79 Mg68 2.106 . S
O79 Mg71 2.238 . S
O79 C72 1.289 . S
C80 O81 1.245 . S
C80 O82 1.274 . S
O81 Mg68 2.079 . S
O81 C80 1.245 . S
O82 Mg67 2.038 . S
O82 C80 1.274 . S
O83 Mg71 2.042 . S
O83 C86 1.241 . S
O84 Mg70 1.984 . S
O84 C86 1.280 . S
O85 Mg71 2.041 . S
O85 C89 1.277 . S
C86 O83 1.241 . S
C86 O84 1.280 . S
O87 Mg70 1.988 . S
O87 C89 1.245 . S
O88 C64 1.247 . S
O88 Mg70 2.061 . S
C89 O85 1.277 . S
C89 O87 1.245 . S
O90 C64 1.289 . S
O90 Mg67 2.238 . S
O90 Mg68 2.106 . S
O91 Mg68 2.079 . S
O91 C73 1.245 . S
O92 Mg71 2.038 . S
O92 C73 1.274 . S
C93 O105 1.241 . S
C93 O106 1.280 . S
C94 O107 1.277 . S
C94 O108 1.245 . S
C95 O119 1.247 . S
C95 O121 1.289 . S
Mg96 O97 1.926 . S
Mg96 O106 1.984 . S
Mg96 O108 1.988 . S
Mg96 O109 2.061 . S
O97 Mg96 1.926 . S
O97 Mg98 1.986 . S
O97 Mg99 1.917 . S
Mg98 O97 1.986 . S
Mg98 O105 2.042 . S
Mg98 O107 2.041 . S
Mg98 O113 2.038 . S
Mg98 O121 2.238 . S
Mg99 O97 1.917 . S
Mg99 O100 1.917 . S
Mg99 O110 2.106 . S
Mg99 O112 2.079 . S
Mg99 O121 2.106 . S
Mg99 O122 2.079 . S
O100 Mg99 1.917 . S
O100 Mg101 1.926 . S
O100 Mg102 1.986 . S
Mg101 O100 1.926 . S
Mg101 O115 1.984 . S
Mg101 O118 1.988 . S
Mg101 O119 2.061 . S
Mg102 O100 1.986 . S
Mg102 O110 2.238 . S
Mg102 O114 2.042 . S
Mg102 O116 2.041 . S
Mg102 O123 2.038 . S
C103 O109 1.247 . S
C103 O110 1.289 . S
C104 O122 1.245 . S
C104 O123 1.274 . S
O105 C93 1.241 . S
O105 Mg98 2.042 . S
O106 C93 1.280 . S
O106 Mg96 1.984 . S
O107 C94 1.277 . S
O107 Mg98 2.041 . S
O108 C94 1.245 . S
O108 Mg96 1.988 . S
O109 Mg96 2.061 . S
O109 C103 1.247 . S
O110 Mg99 2.106 . S
O110 Mg102 2.238 . S
O110 C103 1.289 . S
C111 O112 1.245 . S
C111 O113 1.274 . S
O112 Mg99 2.079 . S
O112 C111 1.245 . S
O113 Mg98 2.038 . S
O113 C111 1.274 . S
O114 Mg102 2.042 . S
O114 C117 1.241 . S
O115 Mg101 1.984 . S
O115 C117 1.280 . S
O116 Mg102 2.041 . S
O116 C120 1.277 . S
C117 O114 1.241 . S
C117 O115 1.280 . S
O118 Mg101 1.988 . S
O118 C120 1.245 . S
O119 C95 1.247 . S
O119 Mg101 2.061 . S
C120 O116 1.277 . S
C120 O118 1.245 . S
O121 C95 1.289 . S
O121 Mg98 2.238 . S
O121 Mg99 2.106 . S
O122 Mg99 2.079 . S
O122 C104 1.245 . S
O123 Mg102 2.038 . S
O123 C104 1.274 . S
H124 C125 0.951 1_455 S
C125 H124 0.951 1_655 S
C125 C131 1.265 . S
H126 C131 0.950 . S
H127 C135 0.949 . S
H128 C136 0.950 . S
H129 C137 0.951 . S
H130 C138 0.951 . S
C131 C125 1.265 . S
C131 H126 0.950 . S
C131 C132 1.478 . S
C132 C131 1.478 . S
C132 C133 1.397 . S
C132 C149 1.394 1_655 S
C133 C132 1.397 . S
C133 C134 1.438 . S
C133 C138 1.429 . S
C134 C133 1.438 . S
C134 C135 1.428 . S
C134 C147 1.394 1_655 S
C135 H127 0.949 . S
C135 C134 1.428 . S
C135 C136 1.345 . S
C136 H128 0.950 . S
C136 C135 1.345 . S
C136 C137 1.424 . S
C137 H129 0.951 . S
C137 C136 1.424 . S
C137 C138 1.347 . S
C138 H130 0.951 . S
C138 C133 1.429 . S
C138 C137 1.347 . S
H139 C140 0.951 1_655 S
C140 H139 0.951 1_455 S
C140 C146 1.265 . S
H141 C146 0.950 . S
H142 C150 0.949 . S
H143 C151 0.950 . S
H144 C152 0.951 . S
H145 C153 0.951 . S
C146 C140 1.265 . S
C146 H141 0.950 . S
C146 C147 1.478 . S
C147 C134 1.394 1_455 S
C147 C146 1.478 . S
C147 C148 1.397 . S
C148 C147 1.397 . S
C148 C149 1.438 . S
C148 C153 1.429 . S
C149 C132 1.394 1_455 S
C149 C148 1.438 . S
C149 C150 1.428 . S
C150 H142 0.949 . S
C150 C149 1.428 . S
C150 C151 1.345 . S
C151 H143 0.950 . S
C151 C150 1.345 . S
C151 C152 1.424 . S
C152 H144 0.951 . S
C152 C151 1.424 . S
C152 C153 1.347 . S
C153 H145 0.951 . S
C153 C148 1.429 . S
C153 C152 1.347 . S
H154 C155 0.951 . S
C155 H154 0.951 . S
C155 C161 1.265 . S
H156 C161 0.950 . S
H157 C165 0.949 . S
H158 C166 0.950 . S
H159 C167 0.951 . S
H160 C168 0.951 . S
C161 C155 1.265 . S
C161 H156 0.950 . S
C161 C162 1.478 . S
C162 C161 1.478 . S
C162 C163 1.397 . S
C162 C179 1.394 . S
C163 C162 1.397 . S
C163 C164 1.438 . S
C163 C168 1.429 . S
C164 C163 1.438 . S
C164 C165 1.428 . S
C164 C177 1.394 . S
C165 H157 0.949 . S
C165 C164 1.428 . S
C165 C166 1.345 . S
C166 H158 0.950 . S
C166 C165 1.345 . S
C166 C167 1.424 . S
C167 H159 0.951 . S
C167 C166 1.424 . S
C167 C168 1.347 . S
C168 H160 0.951 . S
C168 C163 1.429 . S
C168 C167 1.347 . S
H169 C170 0.951 . S
C170 H169 0.951 . S
C170 C176 1.265 . S
H171 C176 0.950 . S
H172 C180 0.949 . S
H173 C181 0.950 . S
H174 C182 0.951 1_545 S
H175 C183 0.951 . S
C176 C170 1.265 . S
C176 H171 0.950 . S
C176 C177 1.478 . S
C177 C164 1.394 . S
C177 C176 1.478 . S
C177 C178 1.397 . S
C178 C177 1.397 . S
C178 C179 1.438 . S
C178 C183 1.429 . S
C179 C162 1.394 . S
C179 C178 1.438 . S
C179 C180 1.428 . S
C180 H172 0.949 . S
C180 C179 1.428 . S
C180 C181 1.345 . S
C181 H173 0.950 . S
C181 C180 1.345 . S
C181 C182 1.424 . S
C182 H174 0.951 1_565 S
C182 C181 1.424 . S
C182 C183 1.347 . S
C183 H175 0.951 . S
C183 C178 1.429 . S
C183 C182 1.347 . S
H184 C185 0.951 . S
C185 H184 0.951 . S
C185 C191 1.265 . S
H186 C191 0.950 . S
H187 C195 0.949 . S
H188 C196 0.950 . S
H189 C197 0.951 . S
H190 C198 0.951 . S
C191 C185 1.265 . S
C191 H186 0.950 . S
C191 C192 1.478 . S
C192 C191 1.478 . S
C192 C193 1.397 . S
C192 C209 1.394 . S
C193 C192 1.397 . S
C193 C194 1.438 1_556 S
C193 C198 1.429 . S
C194 C193 1.438 1_554 S
C194 C195 1.428 . S
C194 C207 1.394 . S
C195 H187 0.949 . S
C195 C194 1.428 . S
C195 C196 1.345 1_554 S
C196 H188 0.950 . S
C196 C195 1.345 1_556 S
C196 C197 1.424 . S
C197 H189 0.951 . S
C197 C196 1.424 . S
C197 C198 1.347 . S
C198 H190 0.951 . S
C198 C193 1.429 . S
C198 C197 1.347 . S
H199 C200 0.951 . S
C200 H199 0.951 . S
C200 C206 1.265 . S
H201 C206 0.950 . S
H202 C210 0.949 . S
H203 C211 0.950 . S
H204 C212 0.951 . S
H205 C213 0.951 . S
C206 C200 1.265 . S
C206 H201 0.950 . S
C206 C207 1.478 . S
C207 C194 1.394 . S
C207 C206 1.478 . S
C207 C208 1.397 . S
C208 C207 1.397 . S
C208 C209 1.438 1_554 S
C208 C213 1.429 . S
C209 C192 1.394 . S
C209 C208 1.438 1_556 S
C209 C210 1.428 . S
C210 H202 0.949 . S
C210 C209 1.428 . S
C210 C211 1.345 1_556 S
C211 H203 0.950 . S
C211 C210 1.345 1_554 S
C211 C212 1.424 . S
C212 H204 0.951 . S
C212 C211 1.424 . S
C212 C213 1.347 . S
C213 H205 0.951 . S
C213 C208 1.429 . S
C213 C212 1.347 . S
H214 C215 0.951 . S
C215 H214 0.951 . S
C215 C221 1.265 . S
H216 C221 0.950 . S
H217 C225 0.949 . S
H218 C226 0.950 1_565 S
H219 C227 0.951 . S
H220 C228 0.951 . S
C221 C215 1.265 . S
C221 H216 0.950 . S
C221 C222 1.478 . S
C222 C221 1.478 . S
C222 C223 1.397 . S
C222 C239 1.394 . S
C223 C222 1.397 . S
C223 C224 1.438 . S
C223 C228 1.429 . S
C224 C223 1.438 . S
C224 C225 1.428 . S
C224 C237 1.394 . S
C225 H217 0.949 . S
C225 C224 1.428 . S
C225 C226 1.345 . S
C226 H218 0.950 1_545 S
C226 C225 1.345 . S
C226 C227 1.424 . S
C227 H219 0.951 . S
C227 C226 1.424 . S
C227 C228 1.347 . S
C228 H220 0.951 . S
C228 C223 1.429 . S
C228 C227 1.347 . S
H229 C230 0.951 . S
C230 H229 0.951 . S
C230 C236 1.265 . S
H231 C236 0.950 . S
H232 C240 0.949 . S
H233 C241 0.950 . S
H234 C242 0.951 . S
H235 C243 0.951 . S
C236 C230 1.265 . S
C236 H231 0.950 . S
C236 C237 1.478 . S
C237 C224 1.394 . S
C237 C236 1.478 . S
C237 C238 1.397 . S
C238 C237 1.397 . S
C238 C239 1.438 . S
C238 C243 1.429 . S
C239 C222 1.394 . S
C239 C238 1.438 . S
C239 C240 1.428 . S
C240 H232 0.949 . S
C240 C239 1.428 . S
C240 C241 1.345 . S
C241 H233 0.950 . S
C241 C240 1.345 . S
C241 C242 1.424 . S
C242 H234 0.951 . S
C242 C241 1.424 . S
C242 C243 1.347 . S
C243 H235 0.951 . S
C243 C238 1.429 . S
C243 C242 1.347 . S
H244 C245 0.951 . S
C245 H244 0.951 . S
C245 C251 1.265 . S
H246 C251 0.950 . S
H247 C255 0.949 . S
H248 C256 0.950 . S
H249 C257 0.951 . S
H250 C258 0.951 . S
C251 C245 1.265 . S
C251 H246 0.950 . S
C251 C252 1.478 . S
C252 C251 1.478 . S
C252 C253 1.397 . S
C252 C269 1.394 . S
C253 C252 1.397 . S
C253 C254 1.438 . S
C253 C258 1.429 . S
C254 C253 1.438 . S
C254 C255 1.428 . S
C254 C267 1.394 . S
C255 H247 0.949 . S
C255 C254 1.428 . S
C255 C256 1.345 . S
C256 H248 0.950 . S
C256 C255 1.345 . S
C256 C257 1.424 . S
C257 H249 0.951 . S
C257 C256 1.424 . S
C257 C258 1.347 . S
C258 H250 0.951 . S
C258 C253 1.429 . S
C258 C257 1.347 . S
H259 C260 0.951 . S
C260 H259 0.951 . S
C260 C266 1.265 . S
H261 C266 0.950 . S
H262 C270 0.949 . S
H263 C271 0.950 . S
H264 C272 0.951 1_655 S
H265 C273 0.951 . S
C266 C260 1.265 . S
C266 H261 0.950 . S
C266 C267 1.478 . S
C267 C254 1.394 . S
C267 C266 1.478 . S
C267 C268 1.397 . S
C268 C267 1.397 . S
C268 C269 1.438 . S
C268 C273 1.429 . S
C269 C252 1.394 . S
C269 C268 1.438 . S
C269 C270 1.428 . S
C270 H262 0.949 . S
C270 C269 1.428 . S
C270 C271 1.345 . S
C271 H263 0.950 . S
C271 C270 1.345 . S
C271 C272 1.424 . S
C272 H264 0.951 1_455 S
C272 C271 1.424 . S
C272 C273 1.347 . S
C273 H265 0.951 . S
C273 C268 1.429 . S
C273 C272 1.347 . S
H274 C275 0.951 . S
C275 H274 0.951 . S
C275 C281 1.265 . S
H276 C281 0.950 . S
H277 C285 0.949 . S
H278 C286 0.950 . S
H279 C287 0.951 . S
H280 C288 0.951 . S
C281 C275 1.265 . S
C281 H276 0.950 . S
C281 C282 1.478 . S
C282 C281 1.478 . S
C282 C283 1.397 . S
C282 C299 1.394 . S
C283 C282 1.397 . S
C283 C284 1.438 . S
C283 C288 1.429 . S
C284 C283 1.438 . S
C284 C285 1.428 . S
C284 C297 1.394 . S
C285 H277 0.949 . S
C285 C284 1.428 . S
C285 C286 1.345 . S
C286 H278 0.950 . S
C286 C285 1.345 . S
C286 C287 1.424 . S
C287 H279 0.951 . S
C287 C286 1.424 . S
C287 C288 1.347 . S
C288 H280 0.951 . S
C288 C283 1.429 . S
C288 C287 1.347 . S
H289 C290 0.951 . S
C290 H289 0.951 . S
C290 C296 1.265 . S
H291 C296 0.950 . S
H292 C300 0.949 . S
H293 C301 0.950 . S
H294 C302 0.951 . S
H295 C303 0.951 . S
C296 C290 1.265 . S
C296 H291 0.950 . S
C296 C297 1.478 . S
C297 C284 1.394 . S
C297 C296 1.478 . S
C297 C298 1.397 . S
C298 C297 1.397 . S
C298 C299 1.438 . S
C298 C303 1.429 . S
C299 C282 1.394 . S
C299 C298 1.438 . S
C299 C300 1.428 . S
C300 H292 0.949 . S
C300 C299 1.428 . S
C300 C301 1.345 . S
C301 H293 0.950 . S
C301 C300 1.345 . S
C301 C302 1.424 . S
C302 H294 0.951 . S
C302 C301 1.424 . S
C302 C303 1.347 . S
C303 H295 0.951 . S
C303 C298 1.429 . S
C303 C302 1.347 . S
H304 C305 0.951 . S
C305 H304 0.951 . S
C305 C311 1.265 . S
H306 C311 0.950 . S
H307 C315 0.949 . S
H308 C316 0.960 . S
H309 C317 0.951 . S
H310 C318 0.951 . S
C311 C305 1.265 . S
C311 H306 0.950 . S
C311 C312 1.478 . S
C312 C311 1.478 . S
C312 C313 1.397 1_565 S
C312 C329 1.394 . S
C313 C312 1.397 1_545 S
C313 C314 1.438 1_556 S
C313 C318 1.429 . S
C314 C313 1.438 1_554 S
C314 C315 1.428 . S
C314 C327 1.394 . S
C315 H307 0.949 . S
C315 C314 1.428 . S
C315 C316 1.370 . S
C316 H308 0.960 . S
C316 C315 1.370 . S
C316 C317 1.390 1_554 S
C317 H309 0.951 . S
C317 C316 1.390 1_556 S
C317 C318 1.347 . S
C318 H310 0.951 . S
C318 C313 1.429 . S
C318 C317 1.347 . S
H319 C320 0.951 . S
C320 H319 0.951 . S
C320 C326 1.265 . S
H321 C326 0.950 . S
H322 C330 0.949 . S
H323 C331 0.960 . S
H324 C332 0.951 . S
H325 C333 0.951 . S
C326 C320 1.265 . S
C326 H321 0.950 . S
C326 C327 1.478 . S
C327 C314 1.394 . S
C327 C326 1.478 . S
C327 C328 1.397 1_545 S
C328 C327 1.397 1_565 S
C328 C329 1.438 1_554 S
C328 C333 1.429 . S
C329 C312 1.394 . S
C329 C328 1.438 1_556 S
C329 C330 1.428 . S
C330 H322 0.949 . S
C330 C329 1.428 . S
C330 C331 1.370 . S
C331 H323 0.960 . S
C331 C330 1.370 . S
C331 C332 1.389 1_556 S
C332 H324 0.951 . S
C332 C331 1.389 1_554 S
C332 C333 1.347 . S
C333 H325 0.951 . S
C333 C328 1.429 . S
C333 C332 1.347 . S
H334 C335 0.963 . S
C335 H334 0.963 . S
C335 C341 1.265 . S
H336 C341 0.950 . S
H337 C345 0.949 1_655 S
H338 C346 0.950 . S
H339 C347 0.951 . S
H340 C348 0.951 . S
C341 C335 1.265 . S
C341 H336 0.950 . S
C341 C342 1.478 . S
C342 C341 1.478 . S
C342 C343 1.397 . S
C342 C359 1.394 1_545 S
C343 C342 1.397 . S
C343 C344 1.438 . S
C343 C348 1.429 . S
C344 C343 1.438 . S
C344 C345 1.428 . S
C344 C357 1.394 1_445 S
C345 H337 0.949 1_455 S
C345 C344 1.428 . S
C345 C346 1.345 . S
C346 H338 0.950 . S
C346 C345 1.345 . S
C346 C347 1.424 . S
C347 H339 0.951 . S
C347 C346 1.424 . S
C347 C348 1.347 . S
C348 H340 0.951 . S
C348 C343 1.429 . S
C348 C347 1.347 . S
H349 C350 0.951 1_455 S
C350 H349 0.951 1_655 S
C350 C356 1.265 . S
H351 C356 0.950 . S
H352 C360 0.949 1_455 S
H353 C361 0.950 . S
H354 C362 0.951 . S
H355 C363 0.951 . S
C356 C350 1.265 . S
C356 H351 0.950 . S
C356 C357 1.478 . S
C357 C344 1.394 1_665 S
C357 C356 1.478 . S
C357 C358 1.397 . S
C358 C357 1.397 . S
C358 C359 1.438 1_655 S
C358 C363 1.429 . S
C359 C342 1.394 1_565 S
C359 C358 1.438 1_455 S
C359 C360 1.428 1_455 S
C360 H352 0.949 1_655 S
C360 C359 1.428 1_655 S
C360 C361 1.345 . S
C361 H353 0.950 . S
C361 C360 1.345 . S
C361 C362 1.424 . S
C362 H354 0.951 . S
C362 C361 1.424 . S
C362 C363 1.347 . S
C363 H355 0.951 . S
C363 C358 1.429 . S
C363 C362 1.347 . S
H364 C365 0.951 . S
C365 H364 0.951 . S
C365 C371 1.265 1_455 S
H366 C371 0.950 . S
H367 C375 0.949 1_455 S
H368 C376 0.950 . S
H369 C377 0.951 . S
H370 C378 0.951 . S
C371 C365 1.265 1_655 S
C371 H366 0.950 . S
C371 C372 1.478 . S
C372 C371 1.478 . S
C372 C373 1.397 . S
C372 C389 1.394 1_655 S
C373 C372 1.397 . S
C373 C374 1.438 1_655 S
C373 C378 1.429 . S
C374 C373 1.438 1_455 S
C374 C375 1.428 1_455 S
C374 C387 1.394 . S
C375 H367 0.949 1_655 S
C375 C374 1.428 1_655 S
C375 C376 1.345 . S
C376 H368 0.950 . S
C376 C375 1.345 . S
C376 C377 1.424 . S
C377 H369 0.951 . S
C377 C376 1.424 . S
C377 C378 1.347 . S
C378 H370 0.951 . S
C378 C373 1.429 . S
C378 C377 1.347 . S
H379 C380 0.951 1_655 S
C380 H379 0.951 1_455 S
C380 C386 1.265 . S
H381 C386 0.950 . S
H382 C390 0.949 . S
H383 C391 0.950 . S
H384 C392 0.951 . S
H385 C393 0.951 . S
C386 C380 1.265 . S
C386 H381 0.950 . S
C386 C387 1.478 . S
C387 C374 1.394 . S
C387 C386 1.478 . S
C387 C388 1.397 . S
C388 C387 1.397 . S
C388 C389 1.438 . S
C388 C393 1.429 . S
C389 C372 1.394 1_455 S
C389 C388 1.438 . S
C389 C390 1.428 . S
C390 H382 0.949 . S
C390 C389 1.428 . S
C390 C391 1.345 . S
C391 H383 0.950 . S
C391 C390 1.345 . S
C391 C392 1.424 . S
C392 H384 0.951 . S
C392 C391 1.424 . S
C392 C393 1.347 . S
C393 H385 0.951 . S
C393 C388 1.429 . S
C393 C392 1.347 . S
H394 C395 0.951 . S
C395 H394 0.951 . S
C395 C401 1.265 . S
H396 C401 0.950 . S
H397 C405 0.949 . S
H398 C406 0.950 . S
H399 C407 0.951 . S
H400 C408 0.951 . S
C401 C395 1.265 . S
C401 H396 0.950 . S
C401 C402 1.478 . S
C402 C401 1.478 . S
C402 C403 1.397 . S
C402 C419 1.394 . S
C403 C402 1.397 . S
C403 C404 1.438 . S
C403 C408 1.429 . S
C404 C403 1.438 . S
C404 C405 1.428 . S
C404 C417 1.394 . S
C405 H397 0.949 . S
C405 C404 1.428 . S
C405 C406 1.345 . S
C406 H398 0.950 . S
C406 C405 1.345 . S
C406 C407 1.424 . S
C407 H399 0.951 . S
C407 C406 1.424 . S
C407 C408 1.347 . S
C408 H400 0.951 . S
C408 C403 1.429 . S
C408 C407 1.347 . S
H409 C410 0.951 . S
C410 H409 0.951 . S
C410 C416 1.265 . S
H411 C416 0.950 . S
H412 C420 0.949 . S
H413 C421 0.950 . S
H414 C422 0.951 . S
H415 C423 0.951 . S
C416 C410 1.265 . S
C416 H411 0.950 . S
C416 C417 1.478 . S
C417 C404 1.394 . S
C417 C416 1.478 . S
C417 C418 1.397 . S
C418 C417 1.397 . S
C418 C419 1.438 . S
C418 C423 1.429 . S
C419 C402 1.394 . S
C419 C418 1.438 . S
C419 C420 1.428 . S
C420 H412 0.949 . S
C420 C419 1.428 . S
C420 C421 1.345 . S
C421 H413 0.950 . S
C421 C420 1.345 . S
C421 C422 1.424 . S
C422 H414 0.951 . S
C422 C421 1.424 . S
C422 C423 1.347 . S
C423 H415 0.951 . S
C423 C418 1.429 . S
C423 C422 1.347 . S
H424 C425 0.951 . S
C425 H424 0.951 . S
C425 C431 1.265 . S
H426 C431 0.950 . S
H427 C435 0.949 . S
H428 C436 0.950 . S
H429 C437 0.951 . S
H430 C438 0.951 . S
C431 C425 1.265 . S
C431 H426 0.950 . S
C431 C432 1.478 . S
C432 C431 1.478 . S
C432 C433 1.397 . S
C432 C449 1.394 . S
C433 C432 1.397 . S
C433 C434 1.438 . S
C433 C438 1.429 . S
C434 C433 1.438 . S
C434 C435 1.428 . S
C434 C447 1.394 . S
C435 H427 0.949 . S
C435 C434 1.428 . S
C435 C436 1.345 . S
C436 H428 0.950 . S
C436 C435 1.345 . S
C436 C437 1.424 . S
C437 H429 0.951 . S
C437 C436 1.424 . S
C437 C438 1.347 . S
C438 H430 0.951 . S
C438 C433 1.429 . S
C438 C437 1.347 . S
H439 C440 0.951 . S
C440 H439 0.951 . S
C440 C446 1.265 . S
H441 C446 0.950 . S
H442 C450 0.949 . S
H443 C451 0.950 . S
H444 C452 0.951 . S
H445 C453 0.951 . S
C446 C440 1.265 . S
C446 H441 0.950 . S
C446 C447 1.478 . S
C447 C434 1.394 . S
C447 C446 1.478 . S
C447 C448 1.397 . S
C448 C447 1.397 . S
C448 C449 1.438 . S
C448 C453 1.429 . S
C449 C432 1.394 . S
C449 C448 1.438 . S
C449 C450 1.428 . S
C450 H442 0.949 . S
C450 C449 1.428 . S
C450 C451 1.345 . S
C451 H443 0.950 . S
C451 C450 1.345 . S
C451 C452 1.424 . S
C452 H444 0.951 . S
C452 C451 1.424 . S
C452 C453 1.347 . S
C453 H445 0.951 . S
C453 C448 1.429 . S
C453 C452 1.347 . S
H454 C455 0.951 . S
C455 H454 0.951 . S
C455 C461 1.265 . S
H456 C461 0.950 . S
H457 C465 0.949 . S
H458 C466 0.950 . S
H459 C467 0.951 . S
H460 C468 0.951 . S
C461 C455 1.265 . S
C461 H456 0.950 . S
C461 C462 1.478 . S
C462 C461 1.478 . S
C462 C463 1.397 . S
C462 C479 1.394 . S
C463 C462 1.397 . S
C463 C464 1.438 1_455 S
C463 C468 1.429 . S
C464 C463 1.438 1_655 S
C464 C465 1.428 . S
C464 C477 1.394 . S
C465 H457 0.949 . S
C465 C464 1.428 . S
C465 C466 1.345 . S
C466 H458 0.950 . S
C466 C465 1.345 . S
C466 C467 1.424 . S
C467 H459 0.951 . S
C467 C466 1.424 . S
C467 C468 1.347 1_655 S
C468 H460 0.951 . S
C468 C463 1.429 . S
C468 C467 1.347 1_455 S
H469 C470 0.951 . S
C470 H469 0.951 . S
C470 C476 1.265 . S
H471 C476 0.950 . S
H472 C480 0.949 . S
H473 C481 0.950 . S
H474 C482 0.951 . S
H475 C483 0.951 . S
C476 C470 1.265 . S
C476 H471 0.950 . S
C476 C477 1.478 . S
C477 C464 1.394 . S
C477 C476 1.478 . S
C477 C478 1.397 . S
C478 C477 1.397 . S
C478 C479 1.438 1_655 S
C478 C483 1.429 . S
C479 C462 1.394 . S
C479 C478 1.438 1_455 S
C479 C480 1.428 . S
C480 H472 0.949 . S
C480 C479 1.428 . S
C480 C481 1.345 . S
C481 H473 0.950 . S
C481 C480 1.345 . S
C481 C482 1.424 . S
C482 H474 0.951 . S
C482 C481 1.424 . S
C482 C483 1.347 1_455 S
C483 H475 0.951 . S
C483 C478 1.429 . S
C483 C482 1.347 1_655 S
H484 C485 0.951 1_655 S
C485 H484 0.951 1_455 S
C485 C491 1.265 . S
H486 C491 0.950 . S
H487 C495 0.949 1_655 S
H488 C496 0.950 . S
H489 C497 0.951 . S
H490 C498 0.951 . S
C491 C485 1.265 . S
C491 H486 0.950 . S
C491 C492 1.478 . S
C492 C491 1.478 . S
C492 C493 1.397 . S
C492 C509 1.394 . S
C493 C492 1.397 . S
C493 C494 1.438 . S
C493 C498 1.429 . S
C494 C493 1.438 . S
C494 C495 1.428 . S
C494 C507 1.394 1_455 S
C495 H487 0.949 1_455 S
C495 C494 1.428 . S
C495 C496 1.345 . S
C496 H488 0.950 . S
C496 C495 1.345 . S
C496 C497 1.424 . S
C497 H489 0.951 . S
C497 C496 1.424 . S
C497 C498 1.347 . S
C498 H490 0.951 . S
C498 C493 1.429 . S
C498 C497 1.347 . S
H499 C500 0.951 1_455 S
C500 H499 0.951 1_655 S
C500 C506 1.265 . S
H501 C506 0.950 . S
H502 C510 0.949 1_455 S
H503 C511 0.950 . S
H504 C512 0.951 . S
H505 C513 0.951 . S
C506 C500 1.265 . S
C506 H501 0.950 . S
C506 C507 1.478 . S
C507 C494 1.394 1_655 S
C507 C506 1.478 . S
C507 C508 1.397 . S
C508 C507 1.397 . S
C508 C509 1.438 1_655 S
C508 C513 1.429 . S
C509 C492 1.394 . S
C509 C508 1.438 1_455 S
C509 C510 1.428 1_455 S
C510 H502 0.949 1_655 S
C510 C509 1.428 1_655 S
C510 C511 1.345 . S
C511 H503 0.950 . S
C511 C510 1.345 . S
C511 C512 1.424 . S
C512 H504 0.951 . S
C512 C511 1.424 . S
C512 C513 1.347 . S
C513 H505 0.951 . S
C513 C508 1.429 . S
C513 C512 1.347 . S
H514 C515 0.951 . S
C515 H514 0.951 . S
C515 C521 1.265 . S
H516 C521 0.950 . S
H517 C525 0.949 . S
H518 C526 0.950 . S
H519 C527 0.951 . S
H520 C528 0.951 . S
C521 C515 1.265 . S
C521 H516 0.950 . S
C521 C522 1.478 . S
C522 C521 1.478 . S
C522 C523 1.397 1_655 S
C522 C539 1.394 . S
C523 C522 1.397 1_455 S
C523 C524 1.438 . S
C523 C528 1.429 1_455 S
C524 C523 1.438 . S
C524 C525 1.428 . S
C524 C537 1.394 . S
C525 H517 0.949 . S
C525 C524 1.428 . S
C525 C526 1.345 . S
C526 H518 0.950 . S
C526 C525 1.345 . S
C526 C527 1.424 . S
C527 H519 0.951 . S
C527 C526 1.424 . S
C527 C528 1.347 1_455 S
C528 H520 0.951 . S
C528 C523 1.429 1_655 S
C528 C527 1.347 1_655 S
H529 C530 0.951 . S
C530 H529 0.951 . S
C530 C536 1.265 . S
H531 C536 0.950 . S
H532 C540 0.949 . S
H533 C541 0.950 . S
H534 C542 0.951 . S
H535 C543 0.951 . S
C536 C530 1.265 . S
C536 H531 0.950 . S
C536 C537 1.478 . S
C537 C524 1.394 . S
C537 C536 1.478 . S
C537 C538 1.397 . S
C538 C537 1.397 . S
C538 C539 1.438 1_455 S
C538 C543 1.429 . S
C539 C522 1.394 . S
C539 C538 1.438 1_655 S
C539 C540 1.428 . S
C540 H532 0.949 . S
C540 C539 1.428 . S
C540 C541 1.345 . S
C541 H533 0.950 . S
C541 C540 1.345 . S
C541 C542 1.424 . S
C542 H534 0.951 . S
C542 C541 1.424 . S
C542 C543 1.347 1_655 S
C543 H535 0.951 . S
C543 C538 1.429 . S
C543 C542 1.347 1_455 S
H544 C545 0.951 . S
C545 H544 0.951 . S
C545 C551 1.265 . S
H546 C551 0.950 . S
H547 C555 0.949 . S
H548 C556 0.950 . S
H549 C557 0.951 . S
H550 C558 0.951 . S
C551 C545 1.265 . S
C551 H546 0.950 . S
C551 C552 1.478 . S
C552 C551 1.478 . S
C552 C553 1.397 . S
C552 C569 1.394 . S
C553 C552 1.397 . S
C553 C554 1.438 . S
C553 C558 1.429 . S
C554 C553 1.438 . S
C554 C555 1.428 . S
C554 C567 1.394 . S
C555 H547 0.949 . S
C555 C554 1.428 . S
C555 C556 1.345 . S
C556 H548 0.950 . S
C556 C555 1.345 . S
C556 C557 1.424 . S
C557 H549 0.951 . S
C557 C556 1.424 . S
C557 C558 1.347 . S
C558 H550 0.951 . S
C558 C553 1.429 . S
C558 C557 1.347 . S
H559 C560 0.951 . S
C560 H559 0.951 . S
C560 C566 1.265 . S
H561 C566 0.950 . S
H562 C570 0.949 . S
H563 C571 0.950 . S
H564 C572 0.951 . S
H565 C573 0.951 . S
C566 C560 1.265 . S
C566 H561 0.950 . S
C566 C567 1.478 . S
C567 C554 1.394 . S
C567 C566 1.478 . S
C567 C568 1.397 . S
C568 C567 1.397 . S
C568 C569 1.438 . S
C568 C573 1.429 . S
C569 C552 1.394 . S
C569 C568 1.438 . S
C569 C570 1.428 . S
C570 H562 0.949 . S
C570 C569 1.428 . S
C570 C571 1.345 . S
C571 H563 0.950 . S
C571 C570 1.345 . S
C571 C572 1.424 . S
C572 H564 0.951 . S
C572 C571 1.424 . S
C572 C573 1.347 . S
C573 H565 0.951 . S
C573 C568 1.429 . S
C573 C572 1.347 . S
H574 C575 0.951 . S
C575 H574 0.951 . S
C575 C581 1.265 . S
H576 C581 0.950 . S
H577 C585 0.949 . S
H578 C586 0.950 . S
H579 C587 0.951 . S
H580 C588 0.951 . S
C581 C575 1.265 . S
C581 H576 0.950 . S
C581 C582 1.478 . S
C582 C581 1.478 . S
C582 C583 1.397 . S
C582 C599 1.394 . S
C583 C582 1.397 . S
C583 C584 1.438 . S
C583 C588 1.429 . S
C584 C583 1.438 . S
C584 C585 1.428 . S
C584 C597 1.394 . S
C585 H577 0.949 . S
C585 C584 1.428 . S
C585 C586 1.345 . S
C586 H578 0.950 . S
C586 C585 1.345 . S
C586 C587 1.424 . S
C587 H579 0.951 . S
C587 C586 1.424 . S
C587 C588 1.347 . S
C588 H580 0.951 . S
C588 C583 1.429 . S
C588 C587 1.347 . S
H589 C590 0.951 . S
C590 H589 0.951 . S
C590 C596 1.265 . S
H591 C596 0.950 . S
H592 C600 0.949 . S
H593 C601 0.950 . S
H594 C602 0.951 . S
H595 C603 0.951 . S
C596 C590 1.265 . S
C596 H591 0.950 . S
C596 C597 1.478 . S
C597 C584 1.394 . S
C597 C596 1.478 . S
C597 C598 1.397 . S
C598 C597 1.397 . S
C598 C599 1.438 . S
C598 C603 1.429 . S
C599 C582 1.394 . S
C599 C598 1.438 . S
C599 C600 1.428 . S
C600 H592 0.949 . S
C600 C599 1.428 . S
C600 C601 1.345 . S
C601 H593 0.950 . S
C601 C600 1.345 . S
C601 C602 1.424 . S
C602 H594 0.951 . S
C602 C601 1.424 . S
C602 C603 1.347 . S
C603 H595 0.951 . S
C603 C598 1.429 . S
C603 C602 1.347 . S
C125 C1 1.182 . S
C140 C58 1.182 . S
C155 C89 1.824 . S
C170 C32 1.824 . S
C185 C62 1.351 . S
C200 C117 1.351 . S
C215 C24 1.442 . S
C230 C93 1.442 . S
C245 C94 1.915 . S
C260 C27 1.915 . S
C275 C31 1.322 . S
C290 C86 1.322 . S
C305 C63 1.269 . S
C320 C120 1.269 . S
C335 C0 1.244 . S
C350 C55 1.244 . S
C365 C18 1.657 1_465 S
C380 C11 1.657 . S
C395 C41 1.334 . S
C410 C33 1.334 . S
C425 C80 1.641 . S
C440 C73 1.641 1_545 S
C455 C95 1.331 . S
C470 C103 1.331 . S
C485 C42 1.662 1_545 S
C500 C49 1.662 . S
C515 C72 1.330 . S
C530 C64 1.330 . S
C545 C104 1.626 . S
C560 C111 1.626 1_565 S
C575 C2 1.331 . S
C590 C10 1.331 . S
