# Generated by pormake.
# Topology uli, (4)-cn, num edge types: 1
# Building blocks:
#     Node 0, Type 0, BuildingBlock: CEKHIL_clean_sbu_0, # of connection points: 4
#     Node 1, Type 0, BuildingBlock: CEKHIL_clean_sbu_0, # of connection points: 4
#     Node 2, Type 0, BuildingBlock: CEKHIL_clean_sbu_0, # of connection points: 4
#     Node 3, Type 0, BuildingBlock: CEKHIL_clean_sbu_0, # of connection points: 4
#     Node 4, Type 0, BuildingBlock: CEKHIL_clean_sbu_0, # of connection points: 4
#     Node 5, Type 0, BuildingBlock: CEKHIL_clean_sbu_0, # of connection points: 4
#     Node 6, Type 0, BuildingBlock: CEKHIL_clean_sbu_0, # of connection points: 4
#     Node 7, Type 0, BuildingBlock: CEKHIL_clean_sbu_0, # of connection points: 4
#     Node 8, Type 0, BuildingBlock: CEKHIL_clean_sbu_0, # of connection points: 4
#     Node 9, Type 0, BuildingBlock: CEKHIL_clean_sbu_0, # of connection points: 4
#     Node 10, Type 0, BuildingBlock: CEKHIL_clean_sbu_0, # of connection points: 4
#     Node 11, Type 0, BuildingBlock: CEKHIL_clean_sbu_0, # of connection points: 4
#     Node 12, Type 0, BuildingBlock: CEKHIL_clean_sbu_0, # of connection points: 4
#     Node 13, Type 0, BuildingBlock: CEKHIL_clean_sbu_0, # of connection points: 4
#     Node 14, Type 0, BuildingBlock: CEKHIL_clean_sbu_0, # of connection points: 4
#     Node 15, Type 0, BuildingBlock: CEKHIL_clean_sbu_0, # of connection points: 4
#     Node 16, Type 0, BuildingBlock: CEKHIL_clean_sbu_0, # of connection points: 4
#     Node 17, Type 0, BuildingBlock: CEKHIL_clean_sbu_0, # of connection points: 4
#     Node 18, Type 0, BuildingBlock: CEKHIL_clean_sbu_0, # of connection points: 4
#     Node 19, Type 0, BuildingBlock: CEKHIL_clean_sbu_0, # of connection points: 4
#     Node 20, Type 0, BuildingBlock: CEKHIL_clean_sbu_0, # of connection points: 4
#     Node 21, Type 0, BuildingBlock: CEKHIL_clean_sbu_0, # of connection points: 4
#     Node 22, Type 0, BuildingBlock: CEKHIL_clean_sbu_0, # of connection points: 4
#     Node 23, Type 0, BuildingBlock: CEKHIL_clean_sbu_0, # of connection points: 4
#     Node 24, Type 0, BuildingBlock: CEKHIL_clean_sbu_0, # of connection points: 4
#     Node 25, Type 0, BuildingBlock: CEKHIL_clean_sbu_0, # of connection points: 4
#     Node 26, Type 0, BuildingBlock: CEKHIL_clean_sbu_0, # of connection points: 4
#     Node 27, Type 0, BuildingBlock: CEKHIL_clean_sbu_0, # of connection points: 4
#     Node 28, Type 0, BuildingBlock: CEKHIL_clean_sbu_0, # of connection points: 4
#     Node 29, Type 0, BuildingBlock: CEKHIL_clean_sbu_0, # of connection points: 4
#     Node 30, Type 0, BuildingBlock: CEKHIL_clean_sbu_0, # of connection points: 4
#     Node 31, Type 0, BuildingBlock: CEKHIL_clean_sbu_0, # of connection points: 4
#     Node 32, Type 0, BuildingBlock: CEKHIL_clean_sbu_0, # of connection points: 4
#     Node 33, Type 0, BuildingBlock: CEKHIL_clean_sbu_0, # of connection points: 4
#     Node 34, Type 0, BuildingBlock: CEKHIL_clean_sbu_0, # of connection points: 4
#     Node 35, Type 0, BuildingBlock: CEKHIL_clean_sbu_0, # of connection points: 4
#     Node 36, Type 0, BuildingBlock: CEKHIL_clean_sbu_0, # of connection points: 4
#     Node 37, Type 0, BuildingBlock: CEKHIL_clean_sbu_0, # of connection points: 4
#     Node 38, Type 0, BuildingBlock: CEKHIL_clean_sbu_0, # of connection points: 4
#     Node 39, Type 0, BuildingBlock: CEKHIL_clean_sbu_0, # of connection points: 4
#     Node 40, Type 0, BuildingBlock: CEKHIL_clean_sbu_0, # of connection points: 4
#     Node 41, Type 0, BuildingBlock: CEKHIL_clean_sbu_0, # of connection points: 4
#     Node 42, Type 0, BuildingBlock: CEKHIL_clean_sbu_0, # of connection points: 4
#     Node 43, Type 0, BuildingBlock: CEKHIL_clean_sbu_0, # of connection points: 4
#     Node 44, Type 0, BuildingBlock: CEKHIL_clean_sbu_0, # of connection points: 4
#     Node 45, Type 0, BuildingBlock: CEKHIL_clean_sbu_0, # of connection points: 4
#     Node 46, Type 0, BuildingBlock: CEKHIL_clean_sbu_0, # of connection points: 4
#     Node 47, Type 0, BuildingBlock: CEKHIL_clean_sbu_0, # of connection points: 4
#     Edge 48, Type (0, 0), BuildingBlock: XIVTED_clean_linker_0, # of connection points: 2
#     Edge 49, Type (0, 0), BuildingBlock: XIVTED_clean_linker_0, # of connection points: 2
#     Edge 50, Type (0, 0), BuildingBlock: XIVTED_clean_linker_0, # of connection points: 2
#     Edge 51, Type (0, 0), BuildingBlock: XIVTED_clean_linker_0, # of connection points: 2
#     Edge 52, Type (0, 0), BuildingBlock: XIVTED_clean_linker_0, # of connection points: 2
#     Edge 53, Type (0, 0), BuildingBlock: XIVTED_clean_linker_0, # of connection points: 2
#     Edge 54, Type (0, 0), BuildingBlock: XIVTED_clean_linker_0, # of connection points: 2
#     Edge 55, Type (0, 0), BuildingBlock: XIVTED_clean_linker_0, # of connection points: 2
#     Edge 56, Type (0, 0), BuildingBlock: XIVTED_clean_linker_0, # of connection points: 2
#     Edge 57, Type (0, 0), BuildingBlock: XIVTED_clean_linker_0, # of connection points: 2
#     Edge 58, Type (0, 0), BuildingBlock: XIVTED_clean_linker_0, # of connection points: 2
#     Edge 59, Type (0, 0), BuildingBlock: XIVTED_clean_linker_0, # of connection points: 2
#     Edge 60, Type (0, 0), BuildingBlock: XIVTED_clean_linker_0, # of connection points: 2
#     Edge 61, Type (0, 0), BuildingBlock: XIVTED_clean_linker_0, # of connection points: 2
#     Edge 62, Type (0, 0), BuildingBlock: XIVTED_clean_linker_0, # of connection points: 2
#     Edge 63, Type (0, 0), BuildingBlock: XIVTED_clean_linker_0, # of connection points: 2
#     Edge 64, Type (0, 0), BuildingBlock: XIVTED_clean_linker_0, # of connection points: 2
#     Edge 65, Type (0, 0), BuildingBlock: XIVTED_clean_linker_0, # of connection points: 2
#     Edge 66, Type (0, 0), BuildingBlock: XIVTED_clean_linker_0, # of connection points: 2
#     Edge 67, Type (0, 0), BuildingBlock: XIVTED_clean_linker_0, # of connection points: 2
#     Edge 68, Type (0, 0), BuildingBlock: XIVTED_clean_linker_0, # of connection points: 2
#     Edge 69, Type (0, 0), BuildingBlock: XIVTED_clean_linker_0, # of connection points: 2
#     Edge 70, Type (0, 0), BuildingBlock: XIVTED_clean_linker_0, # of connection points: 2
#     Edge 71, Type (0, 0), BuildingBlock: XIVTED_clean_linker_0, # of connection points: 2
#     Edge 72, Type (0, 0), BuildingBlock: XIVTED_clean_linker_0, # of connection points: 2
#     Edge 73, Type (0, 0), BuildingBlock: XIVTED_clean_linker_0, # of connection points: 2
#     Edge 74, Type (0, 0), BuildingBlock: XIVTED_clean_linker_0, # of connection points: 2
#     Edge 75, Type (0, 0), BuildingBlock: XIVTED_clean_linker_0, # of connection points: 2
#     Edge 76, Type (0, 0), BuildingBlock: XIVTED_clean_linker_0, # of connection points: 2
#     Edge 77, Type (0, 0), BuildingBlock: XIVTED_clean_linker_0, # of connection points: 2
#     Edge 78, Type (0, 0), BuildingBlock: XIVTED_clean_linker_0, # of connection points: 2
#     Edge 79, Type (0, 0), BuildingBlock: XIVTED_clean_linker_0, # of connection points: 2
#     Edge 80, Type (0, 0), BuildingBlock: XIVTED_clean_linker_0, # of connection points: 2
#     Edge 81, Type (0, 0), BuildingBlock: XIVTED_clean_linker_0, # of connection points: 2
#     Edge 82, Type (0, 0), BuildingBlock: XIVTED_clean_linker_0, # of connection points: 2
#     Edge 83, Type (0, 0), BuildingBlock: XIVTED_clean_linker_0, # of connection points: 2
#     Edge 84, Type (0, 0), BuildingBlock: XIVTED_clean_linker_0, # of connection points: 2
#     Edge 85, Type (0, 0), BuildingBlock: XIVTED_clean_linker_0, # of connection points: 2
#     Edge 86, Type (0, 0), BuildingBlock: XIVTED_clean_linker_0, # of connection points: 2
#     Edge 87, Type (0, 0), BuildingBlock: XIVTED_clean_linker_0, # of connection points: 2
#     Edge 88, Type (0, 0), BuildingBlock: XIVTED_clean_linker_0, # of connection points: 2
#     Edge 89, Type (0, 0), BuildingBlock: XIVTED_clean_linker_0, # of connection points: 2
#     Edge 90, Type (0, 0), BuildingBlock: XIVTED_clean_linker_0, # of connection points: 2
#     Edge 91, Type (0, 0), BuildingBlock: XIVTED_clean_linker_0, # of connection points: 2
#     Edge 92, Type (0, 0), BuildingBlock: XIVTED_clean_linker_0, # of connection points: 2
#     Edge 93, Type (0, 0), BuildingBlock: XIVTED_clean_linker_0, # of connection points: 2
#     Edge 94, Type (0, 0), BuildingBlock: XIVTED_clean_linker_0, # of connection points: 2
#     Edge 95, Type (0, 0), BuildingBlock: XIVTED_clean_linker_0, # of connection points: 2
#     Edge 96, Type (0, 0), BuildingBlock: XIVTED_clean_linker_0, # of connection points: 2
#     Edge 97, Type (0, 0), BuildingBlock: XIVTED_clean_linker_0, # of connection points: 2
#     Edge 98, Type (0, 0), BuildingBlock: XIVTED_clean_linker_0, # of connection points: 2
#     Edge 99, Type (0, 0), BuildingBlock: XIVTED_clean_linker_0, # of connection points: 2
#     Edge 100, Type (0, 0), BuildingBlock: XIVTED_clean_linker_0, # of connection points: 2
#     Edge 101, Type (0, 0), BuildingBlock: XIVTED_clean_linker_0, # of connection points: 2
#     Edge 102, Type (0, 0), BuildingBlock: XIVTED_clean_linker_0, # of connection points: 2
#     Edge 103, Type (0, 0), BuildingBlock: XIVTED_clean_linker_0, # of connection points: 2
#     Edge 104, Type (0, 0), BuildingBlock: XIVTED_clean_linker_0, # of connection points: 2
#     Edge 105, Type (0, 0), BuildingBlock: XIVTED_clean_linker_0, # of connection points: 2
#     Edge 106, Type (0, 0), BuildingBlock: XIVTED_clean_linker_0, # of connection points: 2
#     Edge 107, Type (0, 0), BuildingBlock: XIVTED_clean_linker_0, # of connection points: 2
#     Edge 108, Type (0, 0), BuildingBlock: XIVTED_clean_linker_0, # of connection points: 2
#     Edge 109, Type (0, 0), BuildingBlock: XIVTED_clean_linker_0, # of connection points: 2
#     Edge 110, Type (0, 0), BuildingBlock: XIVTED_clean_linker_0, # of connection points: 2
#     Edge 111, Type (0, 0), BuildingBlock: XIVTED_clean_linker_0, # of connection points: 2
#     Edge 112, Type (0, 0), BuildingBlock: XIVTED_clean_linker_0, # of connection points: 2
#     Edge 113, Type (0, 0), BuildingBlock: XIVTED_clean_linker_0, # of connection points: 2
#     Edge 114, Type (0, 0), BuildingBlock: XIVTED_clean_linker_0, # of connection points: 2
#     Edge 115, Type (0, 0), BuildingBlock: XIVTED_clean_linker_0, # of connection points: 2
#     Edge 116, Type (0, 0), BuildingBlock: XIVTED_clean_linker_0, # of connection points: 2
#     Edge 117, Type (0, 0), BuildingBlock: XIVTED_clean_linker_0, # of connection points: 2
#     Edge 118, Type (0, 0), BuildingBlock: XIVTED_clean_linker_0, # of connection points: 2
#     Edge 119, Type (0, 0), BuildingBlock: XIVTED_clean_linker_0, # of connection points: 2
#     Edge 120, Type (0, 0), BuildingBlock: XIVTED_clean_linker_0, # of connection points: 2
#     Edge 121, Type (0, 0), BuildingBlock: XIVTED_clean_linker_0, # of connection points: 2
#     Edge 122, Type (0, 0), BuildingBlock: XIVTED_clean_linker_0, # of connection points: 2
#     Edge 123, Type (0, 0), BuildingBlock: XIVTED_clean_linker_0, # of connection points: 2
#     Edge 124, Type (0, 0), BuildingBlock: XIVTED_clean_linker_0, # of connection points: 2
#     Edge 125, Type (0, 0), BuildingBlock: XIVTED_clean_linker_0, # of connection points: 2
#     Edge 126, Type (0, 0), BuildingBlock: XIVTED_clean_linker_0, # of connection points: 2
#     Edge 127, Type (0, 0), BuildingBlock: XIVTED_clean_linker_0, # of connection points: 2
#     Edge 128, Type (0, 0), BuildingBlock: XIVTED_clean_linker_0, # of connection points: 2
#     Edge 129, Type (0, 0), BuildingBlock: XIVTED_clean_linker_0, # of connection points: 2
#     Edge 130, Type (0, 0), BuildingBlock: XIVTED_clean_linker_0, # of connection points: 2
#     Edge 131, Type (0, 0), BuildingBlock: XIVTED_clean_linker_0, # of connection points: 2
#     Edge 132, Type (0, 0), BuildingBlock: XIVTED_clean_linker_0, # of connection points: 2
#     Edge 133, Type (0, 0), BuildingBlock: XIVTED_clean_linker_0, # of connection points: 2
#     Edge 134, Type (0, 0), BuildingBlock: XIVTED_clean_linker_0, # of connection points: 2
#     Edge 135, Type (0, 0), BuildingBlock: XIVTED_clean_linker_0, # of connection points: 2
#     Edge 136, Type (0, 0), BuildingBlock: XIVTED_clean_linker_0, # of connection points: 2
#     Edge 137, Type (0, 0), BuildingBlock: XIVTED_clean_linker_0, # of connection points: 2
#     Edge 138, Type (0, 0), BuildingBlock: XIVTED_clean_linker_0, # of connection points: 2
#     Edge 139, Type (0, 0), BuildingBlock: XIVTED_clean_linker_0, # of connection points: 2
#     Edge 140, Type (0, 0), BuildingBlock: XIVTED_clean_linker_0, # of connection points: 2
#     Edge 141, Type (0, 0), BuildingBlock: XIVTED_clean_linker_0, # of connection points: 2
#     Edge 142, Type (0, 0), BuildingBlock: XIVTED_clean_linker_0, # of connection points: 2
#     Edge 143, Type (0, 0), BuildingBlock: XIVTED_clean_linker_0, # of connection points: 2
# Relax obj value: 0.463
# Max RMSD: 0.155
# Mean RMSD: 0.155
data_MOF--net-uli--node1-CEKHIL_clean_sbu_0--edge1-XIVTED_clean_linker_0
_symmetry_space_group_name_H-M    P1
_symmetry_Int_Tables_number       1
_symmetry_cell_setting            triclinic
loop_
_symmetry_equiv_pos_as_xyz
'x, y, z'
_cell_length_a     66.732078
_cell_length_b     66.730611
_cell_length_c     66.72451
_cell_angle_alpha  89.990549
_cell_angle_beta   90.002981
_cell_angle_gamma 89.983104
loop_
_atom_site_label
_atom_site_type_symbol
_atom_site_fract_x
_atom_site_fract_y
_atom_site_fract_z
_atom_type_partial_charge
Co0 Co 0.10865 0.25894 0.26367 0.0
O1 O 0.08413 0.25343 0.27778 0.0
O2 O 0.08646 0.25955 0.24518 0.0
C3 C 0.12774 0.23434 0.2766 0.0
O4 O 0.13124 0.26447 0.24395 0.0
Co5 Co 0.14614 0.27289 0.28758 0.0
O6 O 0.15957 0.27114 0.26105 0.0
C7 C 0.11471 0.30217 0.27816 0.0
C8 C 0.07524 0.25544 0.26057 0.0
C9 C 0.15011 0.26847 0.24464 0.0
O10 O 0.10545 0.28866 0.26803 0.0
O11 O 0.1302 0.29837 0.28883 0.0
O12 O 0.11493 0.23049 0.26246 0.0
O13 O 0.12628 0.252 0.28448 0.0
Co14 Co 0.73974 0.11134 0.27931 0.0
O15 O 0.74441 0.08658 0.29335 0.0
O16 O 0.73843 0.08924 0.26076 0.0
C17 C 0.76513 0.12924 0.29234 0.0
O18 O 0.73496 0.1342 0.25961 0.0
Co19 Co 0.72718 0.14934 0.30314 0.0
O20 O 0.73005 0.16282 0.27678 0.0
C21 C 0.6964 0.11971 0.29224 0.0
C22 C 0.7423 0.07784 0.27609 0.0
C23 C 0.73199 0.15328 0.26034 0.0
O24 O 0.70998 0.10918 0.28354 0.0
O25 O 0.70038 0.13559 0.30226 0.0
O26 O 0.76832 0.11637 0.27811 0.0
O27 O 0.74739 0.12868 0.30023 0.0
Co28 Co 0.88563 0.73267 0.26388 0.0
O29 O 0.91026 0.73672 0.27811 0.0
O30 O 0.90793 0.73012 0.2456 0.0
C31 C 0.8688 0.75908 0.2763 0.0
O32 O 0.86264 0.72847 0.24422 0.0
Co33 Co 0.84731 0.72228 0.28826 0.0
O34 O 0.83401 0.72474 0.26175 0.0
C35 C 0.87623 0.69035 0.27923 0.0
C36 C 0.91918 0.73406 0.26104 0.0
C37 C 0.84348 0.72616 0.2452 0.0
O38 O 0.88659 0.70293 0.26896 0.0
O39 O 0.86099 0.6955 0.28969 0.0
O40 O 0.88169 0.76145 0.26194 0.0
O41 O 0.86867 0.74151 0.28453 0.0
Co42 Co 0.25223 0.89913 0.25667 0.0
O43 O 0.24928 0.92319 0.27209 0.0
O44 O 0.25539 0.92217 0.23941 0.0
C45 C 0.22566 0.88239 0.26912 0.0
O46 O 0.25555 0.87703 0.2359 0.0
Co47 Co 0.26116 0.85886 0.27853 0.0
O48 O 0.25421 0.84731 0.25192 0.0
C49 C 0.2942 0.88719 0.27077 0.0
C50 C 0.25244 0.93281 0.25549 0.0
C51 C 0.25457 0.85776 0.23592 0.0
O52 O 0.28207 0.89882 0.26134 0.0
O53 O 0.28845 0.87147 0.28017 0.0
O54 O 0.22314 0.8958 0.25521 0.0
O55 O 0.24344 0.88165 0.27672 0.0
Co56 Co 0.11165 0.73872 0.72605 0.0
O57 O 0.08646 0.74455 0.71329 0.0
O58 O 0.09028 0.73654 0.74533 0.0
C59 C 0.12939 0.76469 0.71395 0.0
O60 O 0.13509 0.73246 0.74456 0.0
Co61 Co 0.14878 0.72752 0.7002 0.0
O62 O 0.16312 0.72827 0.72627 0.0
C63 C 0.11913 0.69633 0.70997 0.0
C64 C 0.07837 0.74157 0.73075 0.0
C65 C 0.15407 0.72925 0.74307 0.0
O66 O 0.10902 0.70927 0.72004 0.0
O67 O 0.13458 0.70099 0.69958 0.0
O68 O 0.11711 0.76713 0.72883 0.0
O69 O 0.1283 0.74749 0.70503 0.0
Co70 Co 0.25633 0.10252 0.7389 0.0
O71 O 0.24987 0.07697 0.72741 0.0
O72 O 0.25929 0.08182 0.75894 0.0
C73 C 0.23017 0.12021 0.72699 0.0
O74 O 0.26361 0.12673 0.75591 0.0
Co75 Co 0.26704 0.13787 0.71044 0.0
O76 O 0.268 0.15347 0.73576 0.0
C77 C 0.29834 0.10878 0.72125 0.0
C78 C 0.25391 0.06942 0.74488 0.0
C79 C 0.26741 0.14546 0.75311 0.0
O80 O 0.28552 0.09925 0.73201 0.0
O81 O 0.29356 0.12364 0.71008 0.0
O82 O 0.22803 0.10868 0.74253 0.0
O83 O 0.24696 0.11818 0.71748 0.0
Co84 Co 0.89456 0.25937 0.74457 0.0
O85 O 0.9193 0.25832 0.73001 0.0
O86 O 0.91641 0.2666 0.76213 0.0
C87 C 0.88165 0.22978 0.73503 0.0
O88 O 0.87144 0.26155 0.76438 0.0
Co89 Co 0.85496 0.26157 0.7201 0.0
O90 O 0.84251 0.25938 0.74705 0.0
C91 C 0.87907 0.298 0.72503 0.0
C92 C 0.92787 0.26364 0.74663 0.0
C93 C 0.85217 0.2608 0.7635 0.0
O94 O 0.89078 0.28838 0.73694 0.0
O95 O 0.865 0.2895 0.71513 0.0
O96 O 0.89508 0.23062 0.74907 0.0
O97 O 0.87902 0.24623 0.7251 0.0
Co98 Co 0.73418 0.87919 0.71874 0.0
O99 O 0.73856 0.90401 0.70469 0.0
O100 O 0.73138 0.9012 0.73705 0.0
C101 C 0.76078 0.86238 0.70692 0.0
O102 O 0.7296 0.85654 0.73864 0.0
Co103 Co 0.72414 0.84019 0.69562 0.0
O104 O 0.72558 0.82727 0.72241 0.0
C105 C 0.69202 0.86936 0.70342 0.0
C106 C 0.73573 0.91266 0.72192 0.0
C107 C 0.72696 0.83743 0.73853 0.0
O108 O 0.7046 0.88021 0.71313 0.0
O109 O 0.69714 0.85351 0.69389 0.0
O110 O 0.76278 0.8754 0.72121 0.0
O111 O 0.74333 0.86189 0.69837 0.0
Co112 Co 0.27453 0.11468 0.26469 0.0
O113 O 0.28796 0.08948 0.2605 0.0
O114 O 0.25583 0.09303 0.26827 0.0
C115 C 0.28624 0.13091 0.23759 0.0
O116 O 0.25525 0.13785 0.26923 0.0
Co117 Co 0.29881 0.15335 0.27351 0.0
O118 O 0.2723 0.16681 0.27182 0.0
C119 C 0.2911 0.1249 0.30631 0.0
C120 C 0.27068 0.0812 0.26392 0.0
C121 C 0.2559 0.15703 0.27116 0.0
O122 O 0.28069 0.11411 0.29422 0.0
O123 O 0.30101 0.14032 0.30059 0.0
O124 O 0.27166 0.11815 0.23599 0.0
O125 O 0.29508 0.13136 0.25488 0.0
Co126 Co 0.89274 0.2659 0.26418 0.0
O127 O 0.91808 0.27808 0.25803 0.0
O128 O 0.91388 0.24635 0.26705 0.0
C129 C 0.8752 0.27763 0.23785 0.0
O130 O 0.86892 0.24814 0.27108 0.0
Co131 Co 0.85631 0.29314 0.27456 0.0
O132 O 0.84153 0.26733 0.27575 0.0
C133 C 0.88529 0.28287 0.3062 0.0
C134 C 0.92598 0.26067 0.2617 0.0
C135 C 0.85012 0.25027 0.27501 0.0
O136 O 0.89545 0.2726 0.29346 0.0
O137 O 0.87022 0.29368 0.30123 0.0
O138 O 0.88712 0.2624 0.2358 0.0
O139 O 0.87657 0.287 0.25478 0.0
Co140 Co 0.73558 0.89502 0.26861 0.0
O141 O 0.72265 0.92042 0.26516 0.0
O142 O 0.75489 0.91639 0.27218 0.0
C143 C 0.72277 0.87951 0.24151 0.0
O144 O 0.75383 0.87083 0.27251 0.0
Co145 Co 0.70859 0.85797 0.2775 0.0
O146 O 0.7344 0.84333 0.27546 0.0
C147 C 0.72016 0.88451 0.31068 0.0
C148 C 0.74001 0.92847 0.26849 0.0
C149 C 0.75154 0.85175 0.27459 0.0
O150 O 0.73032 0.89525 0.29834 0.0
O151 O 0.70892 0.87 0.30508 0.0
O152 O 0.73774 0.89179 0.2397 0.0
O153 O 0.71422 0.87946 0.25892 0.0
Co154 Co 0.10227 0.73736 0.26098 0.0
O155 O 0.07801 0.72239 0.25757 0.0
O156 O 0.07949 0.75489 0.26444 0.0
C157 C 0.11861 0.72559 0.23393 0.0
O158 O 0.12475 0.75771 0.26469 0.0
Co159 Co 0.14169 0.71395 0.26964 0.0
O160 O 0.15397 0.74092 0.26686 0.0
C161 C 0.11337 0.72116 0.30254 0.0
C162 C 0.06863 0.73912 0.26071 0.0
C163 C 0.144 0.75723 0.26616 0.0
O164 O 0.10253 0.73184 0.29071 0.0
O165 O 0.12849 0.711 0.2965 0.0
O166 O 0.1053 0.73965 0.23203 0.0
O167 O 0.11946 0.71732 0.25143 0.0
Co168 Co 0.27043 0.88762 0.74088 0.0
O169 O 0.28288 0.91284 0.74742 0.0
O170 O 0.25076 0.90867 0.73996 0.0
C171 C 0.28334 0.8688 0.76572 0.0
O172 O 0.25213 0.86427 0.73405 0.0
Co173 Co 0.29644 0.8514 0.72734 0.0
O174 O 0.27046 0.83686 0.72693 0.0
C175 C 0.2855 0.88222 0.6978 0.0
C176 C 0.26522 0.9207 0.74498 0.0
C177 C 0.25364 0.84566 0.72918 0.0
O178 O 0.2756 0.89157 0.71142 0.0
O179 O 0.29639 0.86686 0.70153 0.0
O180 O 0.26844 0.88084 0.76911 0.0
O181 O 0.29186 0.87085 0.7484 0.0
Co182 Co 0.11059 0.26821 0.73884 0.0
O183 O 0.08693 0.28403 0.74289 0.0
O184 O 0.08729 0.25101 0.7388 0.0
C185 C 0.12963 0.28118 0.76345 0.0
O186 O 0.13244 0.24721 0.73456 0.0
Co187 Co 0.14906 0.29053 0.72475 0.0
O188 O 0.16125 0.26357 0.72791 0.0
C189 C 0.11766 0.28151 0.69538 0.0
C190 C 0.07703 0.26734 0.74171 0.0
C191 C 0.15143 0.24743 0.73088 0.0
O192 O 0.10822 0.2716 0.70892 0.0
O193 O 0.13328 0.29199 0.69916 0.0
O194 O 0.11606 0.26784 0.76747 0.0
O195 O 0.12897 0.28842 0.74547 0.0
Co196 Co 0.74677 0.09402 0.74441 0.0
O197 O 0.73193 0.0697 0.74707 0.0
O198 O 0.76335 0.07161 0.73634 0.0
C199 C 0.73848 0.10724 0.77425 0.0
O200 O 0.76677 0.11675 0.74061 0.0
Co201 Co 0.72358 0.13445 0.74342 0.0
O202 O 0.75082 0.14552 0.74839 0.0
C203 C 0.72708 0.11049 0.70642 0.0
C204 C 0.74788 0.06058 0.74078 0.0
C205 C 0.76669 0.13568 0.74434 0.0
O206 O 0.7377 0.09747 0.71585 0.0
O207 O 0.71875 0.12546 0.71509 0.0
O208 O 0.75276 0.09408 0.773 0.0
O209 O 0.72814 0.10994 0.7581 0.0
Co210 Co 0.89666 0.73465 0.73973 0.0
O211 O 0.92214 0.72316 0.74636 0.0
O212 O 0.91738 0.75475 0.73712 0.0
C213 C 0.87898 0.72253 0.76579 0.0
O214 O 0.87233 0.75153 0.73228 0.0
Co215 Co 0.86178 0.70572 0.7286 0.0
O216 O 0.846 0.73089 0.7276 0.0
C217 C 0.89019 0.71835 0.69728 0.0
C218 C 0.92972 0.74066 0.7426 0.0
C219 C 0.8537 0.74837 0.72822 0.0
O220 O 0.90019 0.72809 0.71053 0.0
O221 O 0.87517 0.70724 0.70167 0.0
O222 O 0.89042 0.73811 0.76797 0.0
O223 O 0.88103 0.71308 0.74897 0.0
Co224 Co 0.25971 0.26168 0.10253 0.0
O225 O 0.2528 0.27396 0.07751 0.0
O226 O 0.26242 0.24233 0.08113 0.0
C227 C 0.23371 0.27299 0.12073 0.0
O228 O 0.2674 0.24405 0.12628 0.0
Co229 Co 0.27086 0.28959 0.13821 0.0
O230 O 0.27231 0.26391 0.15317 0.0
C231 C 0.30164 0.2797 0.10833 0.0
C232 C 0.25672 0.25678 0.06932 0.0
C233 C 0.27158 0.24665 0.14497 0.0
O234 O 0.28877 0.26884 0.09902 0.0
O235 O 0.29702 0.29067 0.12339 0.0
O236 O 0.23154 0.25773 0.10885 0.0
O237 O 0.25044 0.28262 0.11886 0.0
Co238 Co 0.26159 0.7226 0.88512 0.0
O239 O 0.25592 0.70849 0.90967 0.0
O240 O 0.26325 0.74083 0.90736 0.0
C241 C 0.236 0.71091 0.86658 0.0
O242 O 0.26752 0.74243 0.86274 0.0
Co243 Co 0.27366 0.69903 0.84681 0.0
O244 O 0.27276 0.72583 0.83385 0.0
C245 C 0.30427 0.7074 0.87739 0.0
C246 C 0.25848 0.72562 0.91856 0.0
C247 C 0.27111 0.74208 0.84378 0.0
O248 O 0.29115 0.71707 0.88765 0.0
O249 O 0.29988 0.69754 0.86152 0.0
O250 O 0.23315 0.72505 0.87962 0.0
O251 O 0.25339 0.7023 0.86732 0.0
Co252 Co 0.27244 0.26204 0.88716 0.0
O253 O 0.28569 0.25731 0.9123 0.0
O254 O 0.2535 0.26483 0.90877 0.0
C255 C 0.28456 0.23544 0.87042 0.0
O256 O 0.2535 0.26713 0.86377 0.0
Co257 Co 0.29765 0.27197 0.84925 0.0
O258 O 0.27137 0.27051 0.83536 0.0
C259 C 0.28845 0.30413 0.87801 0.0
C260 C 0.26832 0.26026 0.92057 0.0
C261 C 0.2547 0.26962 0.84466 0.0
O262 O 0.27825 0.29161 0.88852 0.0
O263 O 0.29879 0.29889 0.86271 0.0
O264 O 0.26984 0.23342 0.88295 0.0
O265 O 0.2933 0.25277 0.87056 0.0
Co266 Co 0.73692 0.25105 0.90006 0.0
O267 O 0.7384 0.26752 0.92357 0.0
O268 O 0.73283 0.23472 0.92356 0.0
C269 C 0.76435 0.26309 0.88443 0.0
O270 O 0.73527 0.22918 0.87895 0.0
Co271 Co 0.73048 0.27055 0.85815 0.0
O272 O 0.73859 0.24347 0.84854 0.0
C273 C 0.69605 0.26545 0.88538 0.0
C274 C 0.73536 0.25118 0.93369 0.0
C275 C 0.73777 0.2281 0.85987 0.0
O276 O 0.70707 0.25549 0.8977 0.0
O277 O 0.70303 0.27436 0.86988 0.0
O278 O 0.76618 0.24984 0.89859 0.0
O279 O 0.74655 0.27033 0.88217 0.0
Co280 Co 0.73486 0.7395 0.88908 0.0
O281 O 0.72033 0.74616 0.91309 0.0
O282 O 0.75284 0.7394 0.91171 0.0
C283 C 0.72269 0.76368 0.86893 0.0
O284 O 0.75498 0.73283 0.86712 0.0
Co285 Co 0.71149 0.72489 0.85146 0.0
O286 O 0.73835 0.72571 0.83862 0.0
C287 C 0.71936 0.69651 0.88414 0.0
C288 C 0.73731 0.74431 0.92242 0.0
C289 C 0.75461 0.72829 0.84835 0.0
O290 O 0.72982 0.70996 0.89314 0.0
O291 O 0.70898 0.7002 0.86843 0.0
O292 O 0.73671 0.76771 0.88183 0.0
O293 O 0.71453 0.74621 0.87082 0.0
Co294 Co 0.73262 0.74595 0.10521 0.0
O295 O 0.73711 0.73237 0.0803 0.0
O296 O 0.73127 0.76496 0.08329 0.0
C297 C 0.75806 0.73217 0.1226 0.0
O298 O 0.72802 0.76487 0.12878 0.0
Co299 Co 0.72027 0.72018 0.14215 0.0
O300 O 0.72259 0.74619 0.15642 0.0
C301 C 0.68955 0.7317 0.1128 0.0
C302 C 0.73506 0.7497 0.07173 0.0
C303 C 0.72474 0.7631 0.14775 0.0
O304 O 0.70277 0.74186 0.10315 0.0
O305 O 0.69393 0.72032 0.12763 0.0
O306 O 0.76135 0.74688 0.1103 0.0
O307 O 0.74029 0.7245 0.12169 0.0
Co308 Co 0.25417 0.73966 0.10113 0.0
O309 O 0.26771 0.74471 0.07636 0.0
O310 O 0.2368 0.73275 0.07894 0.0
C311 C 0.26167 0.76855 0.11669 0.0
O312 O 0.23545 0.73344 0.12438 0.0
Co313 Co 0.28009 0.73564 0.13965 0.0
O314 O 0.25349 0.73445 0.15294 0.0
C315 C 0.27558 0.70074 0.11323 0.0
C316 C 0.25156 0.73848 0.06754 0.0
C317 C 0.23692 0.73248 0.14362 0.0
O318 O 0.26407 0.71114 0.10181 0.0
O319 O 0.28496 0.70826 0.12819 0.0
O320 O 0.24717 0.76782 0.10374 0.0
O321 O 0.273 0.75283 0.11741 0.0
Co322 Co 0.72982 0.26057 0.11662 0.0
O323 O 0.71523 0.25418 0.09265 0.0
O324 O 0.74754 0.26201 0.09387 0.0
C325 C 0.71874 0.23536 0.13602 0.0
O326 O 0.74993 0.26723 0.13858 0.0
Co327 Co 0.70628 0.27347 0.15469 0.0
O328 O 0.73325 0.27315 0.16733 0.0
C329 C 0.71328 0.30302 0.12289 0.0
C330 C 0.73202 0.25694 0.08322 0.0
C331 C 0.74951 0.27129 0.15745 0.0
O332 O 0.72379 0.28996 0.11342 0.0
O333 O 0.70334 0.29884 0.13876 0.0
O334 O 0.73274 0.23228 0.12286 0.0
O335 O 0.70993 0.25261 0.13486 0.0
Co336 Co 0.60354 0.75911 0.75574 0.0
O337 O 0.5784 0.75302 0.7681 0.0
O338 O 0.58247 0.7599 0.73581 0.0
C339 C 0.62151 0.73421 0.76968 0.0
O340 O 0.62761 0.76547 0.73797 0.0
Co341 Co 0.63905 0.77245 0.78293 0.0
O342 O 0.65474 0.7682 0.758 0.0
C343 C 0.60939 0.80242 0.76967 0.0
C344 C 0.57051 0.75517 0.75048 0.0
C345 C 0.64663 0.76744 0.74071 0.0
O346 O 0.59976 0.78862 0.76033 0.0
O347 O 0.6246 0.79881 0.78083 0.0
O348 O 0.61004 0.73074 0.75435 0.0
O349 O 0.61948 0.75175 0.77772 0.0
Co350 Co 0.23425 0.6073 0.7655 0.0
O351 O 0.23721 0.58241 0.77961 0.0
O352 O 0.23325 0.58518 0.74672 0.0
C353 C 0.2597 0.62437 0.77971 0.0
O354 O 0.23087 0.63074 0.74612 0.0
Co355 Co 0.22199 0.64477 0.79064 0.0
O356 O 0.22508 0.65855 0.76446 0.0
C357 C 0.19089 0.61629 0.77807 0.0
C358 C 0.23567 0.57369 0.76231 0.0
C359 C 0.22757 0.64974 0.74767 0.0
O360 O 0.20421 0.60619 0.76849 0.0
O361 O 0.19525 0.63105 0.78953 0.0
O362 O 0.26312 0.61152 0.76552 0.0
O363 O 0.24171 0.62396 0.78694 0.0
Co364 Co 0.38599 0.23099 0.76307 0.0
O365 O 0.41093 0.2365 0.77614 0.0
O366 O 0.40773 0.22744 0.74429 0.0
C367 C 0.36913 0.25809 0.77391 0.0
O368 O 0.36254 0.22484 0.74462 0.0
Co369 Co 0.34854 0.22204 0.78933 0.0
O370 O 0.33443 0.22233 0.76315 0.0
C371 C 0.37684 0.18939 0.78034 0.0
C372 C 0.41935 0.23281 0.75901 0.0
C373 C 0.34347 0.22234 0.7463 0.0
O374 O 0.38757 0.2017 0.77014 0.0
O375 O 0.36151 0.19488 0.79051 0.0
O376 O 0.38155 0.25944 0.75903 0.0
O377 O 0.3695 0.24122 0.78353 0.0
Co378 Co 0.75594 0.40297 0.74177 0.0
O379 O 0.75151 0.4282 0.75437 0.0
O380 O 0.76063 0.42427 0.72258 0.0
C381 C 0.72809 0.38785 0.75337 0.0
O382 O 0.76113 0.37873 0.72403 0.0
Co383 Co 0.76271 0.3661 0.76973 0.0
O384 O 0.7629 0.3514 0.74385 0.0
C385 C 0.79641 0.3931 0.76105 0.0
C386 C 0.75578 0.43622 0.73722 0.0
C387 C 0.76328 0.35971 0.72662 0.0
O388 O 0.78525 0.40323 0.74904 0.0
O389 O 0.78964 0.37919 0.77241 0.0
O390 O 0.72714 0.3996 0.73789 0.0
O391 O 0.74505 0.38783 0.76268 0.0
Co392 Co 0.60547 0.2278 0.2262 0.0
O393 O 0.58119 0.23019 0.211 0.0
O394 O 0.58261 0.22694 0.24406 0.0
C395 C 0.62267 0.25323 0.21213 0.0
O396 O 0.62811 0.22496 0.24657 0.0
Co397 Co 0.64393 0.2154 0.20262 0.0
O398 O 0.65638 0.21751 0.22952 0.0
C399 C 0.61588 0.18415 0.21601 0.0
C400 C 0.57178 0.22896 0.22796 0.0
C401 C 0.64696 0.22067 0.24586 0.0
O402 O 0.60477 0.19773 0.22395 0.0
O403 O 0.63123 0.18823 0.20523 0.0
O404 O 0.60927 0.25668 0.22578 0.0
O405 O 0.62291 0.23509 0.20527 0.0
Co406 Co 0.75587 0.60572 0.23443 0.0
O407 O 0.75011 0.58106 0.22077 0.0
O408 O 0.75655 0.58379 0.25327 0.0
C409 C 0.73092 0.62424 0.22134 0.0
O410 O 0.76174 0.62872 0.25365 0.0
Co411 Co 0.76925 0.64276 0.20947 0.0
O412 O 0.76829 0.65662 0.23579 0.0
C413 C 0.79896 0.61188 0.2197 0.0
C414 C 0.75197 0.57243 0.23811 0.0
C415 C 0.76596 0.64753 0.25245 0.0
O416 O 0.78552 0.60247 0.22978 0.0
O417 O 0.79502 0.62723 0.20887 0.0
O418 O 0.72745 0.61186 0.23593 0.0
O419 O 0.74853 0.62288 0.21332 0.0
Co420 Co 0.39136 0.76637 0.23524 0.0
O421 O 0.41619 0.7633 0.22111 0.0
O422 O 0.41344 0.7704 0.25349 0.0
C423 C 0.37588 0.7389 0.22332 0.0
O424 O 0.36825 0.76983 0.25486 0.0
Co425 Co 0.35234 0.77399 0.21085 0.0
O426 O 0.33932 0.77161 0.23753 0.0
C427 C 0.37974 0.80757 0.21858 0.0
C428 C 0.42491 0.7667 0.23815 0.0
C429 C 0.349 0.77115 0.25402 0.0
O430 O 0.39067 0.79604 0.22949 0.0
O431 O 0.36499 0.80114 0.20813 0.0
O432 O 0.38884 0.73742 0.23775 0.0
O433 O 0.37492 0.75629 0.2148 0.0
Co434 Co 0.23319 0.38756 0.234 0.0
O435 O 0.23855 0.41203 0.2199 0.0
O436 O 0.2317 0.40984 0.25236 0.0
C437 C 0.2588 0.36937 0.22177 0.0
O438 O 0.22773 0.36478 0.25356 0.0
Co439 Co 0.22108 0.34984 0.20943 0.0
O440 O 0.2228 0.33641 0.23593 0.0
C441 C 0.19048 0.38013 0.21859 0.0
C442 C 0.2363 0.42097 0.23702 0.0
C443 C 0.22453 0.34577 0.25252 0.0
O444 O 0.20352 0.38996 0.22882 0.0
O445 O 0.19497 0.36472 0.20807 0.0
O446 O 0.26173 0.38218 0.2361 0.0
O447 O 0.24132 0.37019 0.21338 0.0
Co448 Co 0.76886 0.61513 0.76568 0.0
O449 O 0.78295 0.59051 0.76068 0.0
O450 O 0.75014 0.59326 0.76545 0.0
C451 C 0.78301 0.63324 0.74109 0.0
O452 O 0.74896 0.63774 0.77017 0.0
Co453 Co 0.79178 0.65323 0.77939 0.0
O454 O 0.76534 0.66656 0.77627 0.0
C455 C 0.78181 0.62209 0.80912 0.0
C456 C 0.76546 0.58199 0.76119 0.0
C457 C 0.74919 0.65674 0.77348 0.0
O458 O 0.77227 0.61226 0.79556 0.0
O459 O 0.79218 0.63778 0.80524 0.0
O460 O 0.76862 0.62077 0.73722 0.0
O461 O 0.7901 0.63253 0.75915 0.0
Co462 Co 0.38901 0.76314 0.76235 0.0
O463 O 0.41402 0.77646 0.7574 0.0
O464 O 0.41051 0.74382 0.76271 0.0
C465 C 0.37128 0.77738 0.73747 0.0
O466 O 0.36555 0.7442 0.7672 0.0
Co467 Co 0.35212 0.78829 0.77581 0.0
O468 O 0.33774 0.76238 0.77312 0.0
C469 C 0.38195 0.77599 0.8059 0.0
C470 C 0.42222 0.75886 0.75864 0.0
C471 C 0.3466 0.74562 0.77069 0.0
O472 O 0.39179 0.7667 0.79219 0.0
O473 O 0.36668 0.787 0.80213 0.0
O474 O 0.38345 0.76267 0.73382 0.0
O475 O 0.37237 0.78482 0.75536 0.0
Co476 Co 0.23166 0.39026 0.76087 0.0
O477 O 0.21711 0.41485 0.75775 0.0
O478 O 0.25008 0.41273 0.76129 0.0
C479 C 0.21736 0.37244 0.73598 0.0
O480 O 0.25133 0.36709 0.76438 0.0
Co481 Co 0.20688 0.35298 0.77439 0.0
O482 O 0.23315 0.33941 0.77132 0.0
C483 C 0.21988 0.38209 0.80467 0.0
C484 C 0.23424 0.42391 0.75911 0.0
C485 C 0.24987 0.34819 0.76826 0.0
O486 O 0.22911 0.39193 0.79093 0.0
O487 O 0.20845 0.36715 0.80086 0.0
O488 O 0.23128 0.38545 0.73206 0.0
O489 O 0.21034 0.37322 0.75404 0.0
Co490 Co 0.60171 0.24519 0.75555 0.0
O491 O 0.57833 0.22909 0.75114 0.0
O492 O 0.57807 0.26156 0.75839 0.0
C493 C 0.61984 0.23475 0.72911 0.0
O494 O 0.62288 0.26656 0.76015 0.0
Co495 Co 0.64198 0.22382 0.76547 0.0
O496 O 0.65291 0.25144 0.76329 0.0
C497 C 0.61172 0.2281 0.79697 0.0
C498 C 0.56809 0.24534 0.75421 0.0
C499 C 0.64205 0.26716 0.76219 0.0
O500 O 0.60124 0.2393 0.78528 0.0
O501 O 0.62719 0.21843 0.79105 0.0
O502 O 0.60579 0.24801 0.72671 0.0
O503 O 0.62026 0.22625 0.74651 0.0
Co504 Co 0.75231 0.39033 0.23644 0.0
O505 O 0.76456 0.41539 0.24307 0.0
O506 O 0.73286 0.41169 0.23375 0.0
C507 C 0.76388 0.37255 0.26263 0.0
O508 O 0.73472 0.36638 0.22916 0.0
Co509 Co 0.78026 0.35458 0.22566 0.0
O510 O 0.7547 0.33934 0.22581 0.0
C511 C 0.77083 0.38447 0.19473 0.0
C512 C 0.74729 0.42352 0.23943 0.0
C513 C 0.73739 0.34747 0.22611 0.0
O514 O 0.75942 0.39356 0.20731 0.0
O515 O 0.78196 0.36962 0.19964 0.0
O516 O 0.74853 0.38431 0.26472 0.0
O517 O 0.77336 0.37423 0.24579 0.0
Co518 Co 0.60798 0.76723 0.23908 0.0
O519 O 0.58359 0.78113 0.24535 0.0
O520 O 0.58549 0.74947 0.23533 0.0
C521 C 0.62598 0.7767 0.26594 0.0
O522 O 0.63051 0.74792 0.23202 0.0
Co523 Co 0.64626 0.79203 0.22972 0.0
O524 O 0.65927 0.76528 0.22867 0.0
C525 C 0.6162 0.7864 0.19807 0.0
C526 C 0.57445 0.76453 0.24097 0.0
C527 C 0.64954 0.74883 0.22884 0.0
O528 O 0.60605 0.77528 0.21006 0.0
O529 O 0.63185 0.79604 0.20359 0.0
O530 O 0.61294 0.76233 0.26737 0.0
O531 O 0.62553 0.7867 0.24931 0.0
Co532 Co 0.24195 0.6035 0.23731 0.0
O533 O 0.22793 0.57884 0.24139 0.0
O534 O 0.26029 0.58124 0.23411 0.0
C535 C 0.22993 0.61999 0.26419 0.0
O536 O 0.26115 0.62677 0.2328 0.0
Co537 Co 0.21629 0.64146 0.22808 0.0
O538 O 0.24276 0.65496 0.22954 0.0
C539 C 0.22604 0.61366 0.19536 0.0
C540 C 0.24492 0.56996 0.23826 0.0
C541 C 0.25957 0.64588 0.23037 0.0
O542 O 0.23641 0.60299 0.2076 0.0
O543 O 0.21519 0.62846 0.20099 0.0
O544 O 0.24448 0.60723 0.26617 0.0
O545 O 0.22133 0.62002 0.24683 0.0
Co546 Co 0.38853 0.2291 0.23076 0.0
O547 O 0.41318 0.21442 0.23236 0.0
O548 O 0.41092 0.24738 0.22846 0.0
C549 C 0.37268 0.21535 0.25717 0.0
O550 O 0.36538 0.24899 0.22868 0.0
Co551 Co 0.34991 0.205 0.22048 0.0
O552 O 0.33682 0.23136 0.22471 0.0
C553 C 0.37722 0.2165 0.18795 0.0
C554 C 0.42216 0.23153 0.23027 0.0
C555 C 0.34617 0.24791 0.2267 0.0
O556 O 0.38805 0.22594 0.20076 0.0
O557 O 0.36223 0.20563 0.19299 0.0
O558 O 0.38599 0.22928 0.25975 0.0
O559 O 0.37181 0.20805 0.23921 0.0
Co560 Co 0.77052 0.76989 0.61052 0.0
O561 O 0.76506 0.7828 0.58534 0.0
O562 O 0.77533 0.75139 0.58882 0.0
C563 C 0.74277 0.77928 0.62709 0.0
O564 O 0.7768 0.75139 0.63393 0.0
Co565 Co 0.77746 0.79551 0.64875 0.0
O566 O 0.77606 0.76919 0.66257 0.0
C567 C 0.81144 0.78727 0.62167 0.0
C568 C 0.76973 0.76585 0.57701 0.0
C569 C 0.77755 0.75262 0.65318 0.0
O570 O 0.79953 0.77803 0.60969 0.0
O571 O 0.80537 0.79641 0.63743 0.0
O572 O 0.74228 0.76457 0.61438 0.0
O573 O 0.75906 0.78985 0.62703 0.0
Co574 Co 0.75852 0.2262 0.38466 0.0
O575 O 0.75647 0.21078 0.40879 0.0
O576 O 0.76023 0.24383 0.40753 0.0
C577 C 0.73256 0.21283 0.36788 0.0
O578 O 0.76089 0.24687 0.36231 0.0
Co579 Co 0.76962 0.20369 0.34537 0.0
O580 O 0.76542 0.23046 0.33313 0.0
C581 C 0.80163 0.21444 0.37364 0.0
C582 C 0.75821 0.22767 0.41826 0.0
C583 C 0.76316 0.2466 0.34312 0.0
O584 O 0.78855 0.2232 0.38471 0.0
O585 O 0.79694 0.20427 0.35805 0.0
O586 O 0.7296 0.22635 0.38152 0.0
O587 O 0.75058 0.20564 0.36715 0.0
Co588 Co 0.76611 0.75729 0.39402 0.0
O589 O 0.78035 0.75239 0.41852 0.0
O590 O 0.74815 0.76038 0.41656 0.0
C591 C 0.77722 0.73077 0.37638 0.0
O592 O 0.74659 0.76278 0.37115 0.0
Co593 Co 0.79113 0.76753 0.35598 0.0
O594 O 0.76449 0.7669 0.34277 0.0
C595 C 0.78242 0.79941 0.38498 0.0
C596 C 0.76357 0.75599 0.42767 0.0
C597 C 0.74783 0.76587 0.3521 0.0
O598 O 0.7722 0.78683 0.39537 0.0
O599 O 0.79274 0.79428 0.36963 0.0
O600 O 0.76302 0.72864 0.38951 0.0
O601 O 0.78625 0.74792 0.37675 0.0
Co602 Co 0.2381 0.76021 0.39425 0.0
O603 O 0.24062 0.77559 0.41834 0.0
O604 O 0.23707 0.74253 0.41723 0.0
C605 C 0.26345 0.77402 0.37676 0.0
O606 O 0.23527 0.73974 0.37175 0.0
Co607 Co 0.22585 0.78351 0.35561 0.0
O608 O 0.22934 0.75673 0.34311 0.0
C609 C 0.19494 0.77313 0.38504 0.0
C610 C 0.23908 0.75874 0.4279 0.0
C611 C 0.23213 0.7404 0.35268 0.0
O612 O 0.208 0.76304 0.39499 0.0
O613 O 0.19954 0.7843 0.37013 0.0
O614 O 0.26705 0.7604 0.39018 0.0
O615 O 0.24536 0.78094 0.37678 0.0
Co616 Co 0.24349 0.23906 0.39524 0.0
O617 O 0.23101 0.24544 0.42022 0.0
O618 O 0.26331 0.23843 0.41647 0.0
C619 C 0.22957 0.26376 0.37698 0.0
O620 O 0.26126 0.23241 0.37125 0.0
Co621 Co 0.21585 0.22532 0.36021 0.0
O622 O 0.24124 0.22627 0.34472 0.0
C623 C 0.22876 0.19581 0.39032 0.0
C624 C 0.24854 0.24329 0.42827 0.0
C625 C 0.25857 0.22817 0.35257 0.0
O626 O 0.23884 0.20954 0.3993 0.0
O627 O 0.21707 0.19944 0.37553 0.0
O628 O 0.24495 0.26738 0.38834 0.0
O629 O 0.22152 0.24629 0.3793 0.0
Co630 Co 0.23069 0.23077 0.60911 0.0
O631 O 0.23582 0.21727 0.58421 0.0
O632 O 0.23079 0.24997 0.5875 0.0
C633 C 0.25525 0.2163 0.62705 0.0
O634 O 0.22584 0.24996 0.63239 0.0
Co635 Co 0.21684 0.20625 0.64625 0.0
O636 O 0.21956 0.23229 0.66044 0.0
C637 C 0.18728 0.21736 0.61544 0.0
C638 C 0.23496 0.23485 0.57592 0.0
C639 C 0.22224 0.24889 0.65134 0.0
O640 O 0.20087 0.22727 0.60606 0.0
O641 O 0.19107 0.20629 0.63067 0.0
O642 O 0.25916 0.23101 0.61495 0.0
O643 O 0.23727 0.20911 0.62591 0.0
Co644 Co 0.76124 0.23702 0.60067 0.0
O645 O 0.77558 0.23512 0.57587 0.0
O646 O 0.74251 0.23283 0.57905 0.0
C647 C 0.77618 0.26459 0.61308 0.0
O648 O 0.74156 0.23857 0.62392 0.0
Co649 Co 0.78526 0.23101 0.64022 0.0
O650 O 0.7591 0.23764 0.65278 0.0
C651 C 0.77358 0.19579 0.61665 0.0
C652 C 0.7582 0.23283 0.56747 0.0
C653 C 0.7426 0.23902 0.64321 0.0
O654 O 0.76345 0.20718 0.60487 0.0
O655 O 0.7851 0.20258 0.63041 0.0
O656 O 0.76217 0.26616 0.59969 0.0
O657 O 0.78279 0.24659 0.61597 0.0
Co658 Co 0.23051 0.76397 0.61082 0.0
O659 O 0.21636 0.76137 0.58595 0.0
O660 O 0.24915 0.76626 0.58876 0.0
C661 C 0.2173 0.73749 0.62701 0.0
O662 O 0.24993 0.76716 0.63417 0.0
Co663 Co 0.20564 0.77416 0.64897 0.0
O664 O 0.23191 0.77089 0.66251 0.0
C665 C 0.21702 0.80666 0.62149 0.0
C666 C 0.23361 0.76363 0.57728 0.0
C667 C 0.24861 0.76938 0.65332 0.0
O668 O 0.22655 0.79389 0.61066 0.0
O669 O 0.20618 0.80156 0.63649 0.0
O670 O 0.23151 0.73504 0.61398 0.0
O671 O 0.20944 0.75524 0.62737 0.0
H672 H 0.94881 0.23126 0.27901 0.0
H673 H 0.05137 0.26886 0.23011 0.0
H674 H 0.95263 0.28306 0.24048 0.0
H675 H 0.0492 0.23836 0.28711 0.0
H676 H 0.01467 0.26815 0.22881 0.0
H677 H 0.98543 0.22783 0.27727 0.0
C678 C 0.95734 0.24178 0.27006 0.0
C679 C 0.94777 0.25756 0.26 0.0
C680 C 0.02228 0.26152 0.24152 0.0
C681 C 0.98936 0.25358 0.25776 0.0
C682 C 0.04318 0.26185 0.24225 0.0
C683 C 0.05327 0.25382 0.25883 0.0
C684 C 0.01148 0.25281 0.25734 0.0
C685 C 0.04195 0.2449 0.27415 0.0
C686 C 0.97817 0.23986 0.26914 0.0
C687 C 0.95948 0.2708 0.24862 0.0
N688 N 0.02162 0.24462 0.27304 0.0
N689 N 0.97967 0.26849 0.24777 0.0
H690 H 0.71688 0.95514 0.24839 0.0
H691 H 0.75903 0.05144 0.30256 0.0
H692 H 0.76825 0.95163 0.28749 0.0
H693 H 0.72955 0.05438 0.24507 0.0
H694 H 0.76066 0.01487 0.29944 0.0
H695 H 0.71926 0.99164 0.24897 0.0
C696 C 0.72872 0.96209 0.25706 0.0
C697 C 0.74236 0.95042 0.26797 0.0
C698 C 0.75399 0.02357 0.28747 0.0
C699 C 0.74499 0.99215 0.2689 0.0
C700 C 0.75294 0.04439 0.28927 0.0
C701 C 0.74404 0.0559 0.27408 0.0
C702 C 0.74571 0.01423 0.27055 0.0
C703 C 0.73651 0.04604 0.25713 0.0
C704 C 0.73011 0.9829 0.2573 0.0
C705 C 0.75748 0.96015 0.27885 0.0
N706 N 0.73731 0.02574 0.25592 0.0
N707 N 0.75825 0.98054 0.27926 0.0
H708 H 0.04354 0.76747 0.27663 0.0
H709 H 0.9438 0.71904 0.23181 0.0
H710 H 0.04376 0.71266 0.2423 0.0
H711 H 0.9443 0.75331 0.28666 0.0
H712 H 0.9805 0.72155 0.23048 0.0
H713 H 0.00674 0.76747 0.27548 0.0
C714 C 0.03584 0.75554 0.26877 0.0
C715 C 0.04661 0.73996 0.25969 0.0
C716 C 0.9725 0.72855 0.24274 0.0
C717 C 0.00484 0.74003 0.25808 0.0
C718 C 0.95163 0.72718 0.24348 0.0
C719 C 0.94111 0.73584 0.25945 0.0
C720 C 0.98275 0.739 0.25787 0.0
C721 C 0.95191 0.74624 0.2742 0.0
C722 C 0.01492 0.75551 0.26816 0.0
C723 C 0.03597 0.72484 0.24967 0.0
N724 N 0.97217 0.74759 0.27302 0.0
N725 N 0.01565 0.72527 0.24907 0.0
H726 H 0.23541 0.95841 0.28219 0.0
H727 H 0.29516 0.05409 0.24543 0.0
H728 H 0.27191 0.95721 0.22883 0.0
H729 H 0.23963 0.05874 0.27826 0.0
H730 H 0.28963 0.01795 0.24196 0.0
H731 H 0.23918 0.99482 0.28357 0.0
C732 C 0.24414 0.96586 0.2707 0.0
C733 C 0.25339 0.95486 0.25537 0.0
C734 C 0.27865 0.02693 0.24986 0.0
C735 C 0.25803 0.99637 0.25708 0.0
C736 C 0.28186 0.04748 0.25198 0.0
C737 C 0.26784 0.05936 0.2622 0.0
C738 C 0.26151 0.0182 0.25834 0.0
C739 C 0.25079 0.0501 0.27027 0.0
C740 C 0.24623 0.98661 0.27148 0.0
C741 C 0.26447 0.96521 0.24083 0.0
N742 N 0.24817 0.03001 0.2683 0.0
N743 N 0.2667 0.98543 0.24217 0.0
H744 H 0.95658 0.71962 0.76476 0.0
H745 H 0.0512 0.75925 0.70573 0.0
H746 H 0.9524 0.76846 0.72261 0.0
H747 H 0.05609 0.72924 0.76283 0.0
H748 H 0.01495 0.76191 0.71065 0.0
H749 H 0.99306 0.72215 0.76366 0.0
C750 C 0.96338 0.731 0.7554 0.0
C751 C 0.95153 0.74378 0.74366 0.0
C752 C 0.02399 0.7549 0.72216 0.0
C753 C 0.99322 0.74654 0.74207 0.0
C754 C 0.04464 0.75326 0.71932 0.0
C755 C 0.05661 0.74386 0.73384 0.0
C756 C 0.01524 0.74679 0.73948 0.0
C757 C 0.04738 0.73652 0.75123 0.0
C758 C 0.98419 0.73248 0.75482 0.0
C759 C 0.96105 0.75835 0.73189 0.0
N760 N 0.0272 0.73794 0.75347 0.0
N761 N 0.98142 0.75915 0.73115 0.0
H762 H 0.27387 0.0474 0.77322 0.0
H763 H 0.23261 0.94236 0.73315 0.0
H764 H 0.23287 0.04185 0.72353 0.0
H765 H 0.29 0.94836 0.76237 0.0
H766 H 0.22793 0.97864 0.73573 0.0
H767 H 0.27525 0.01066 0.7756 0.0
C768 C 0.26495 0.03845 0.76302 0.0
C769 C 0.25335 0.04758 0.74806 0.0
C770 C 0.24149 0.97197 0.74166 0.0
C771 C 0.25476 0.00586 0.75077 0.0
C772 C 0.24416 0.9513 0.74023 0.0
C773 C 0.2618 0.94241 0.74738 0.0
C774 C 0.25645 0.98378 0.75054 0.0
C775 C 0.27626 0.95468 0.75648 0.0
C776 C 0.26584 0.01756 0.76431 0.0
C777 C 0.24215 0.03536 0.73515 0.0
N778 N 0.27327 0.97479 0.7578 0.0
N779 N 0.24312 0.01512 0.7368 0.0
H780 H 0.05161 0.2968 0.73003 0.0
H781 H 0.95277 0.25331 0.77747 0.0
H782 H 0.05268 0.23798 0.75685 0.0
H783 H 0.95245 0.27832 0.71787 0.0
H784 H 0.98973 0.25421 0.77714 0.0
H785 H 0.01493 0.29682 0.73237 0.0
C786 C 0.04409 0.28395 0.73651 0.0
C787 C 0.05505 0.2673 0.74316 0.0
C788 C 0.98144 0.25959 0.76425 0.0
C789 C 0.01344 0.26752 0.74633 0.0
C790 C 0.9605 0.25924 0.76448 0.0
C791 C 0.94974 0.26573 0.74765 0.0
C792 C 0.99144 0.26708 0.74734 0.0
C793 C 0.96032 0.27312 0.73108 0.0
C794 C 0.02327 0.28398 0.7378 0.0
C795 C 0.04466 0.251 0.75141 0.0
N796 N 0.98064 0.27376 0.73139 0.0
N797 N 0.02434 0.25157 0.75295 0.0
H798 H 0.72514 0.03446 0.76174 0.0
H799 H 0.75189 0.93949 0.69541 0.0
H800 H 0.77056 0.03693 0.71579 0.0
H801 H 0.72551 0.93528 0.75433 0.0
H802 H 0.75671 0.97555 0.7006 0.0
H803 H 0.72314 0.99827 0.75749 0.0
C804 C 0.73475 0.02732 0.75077 0.0
C805 C 0.74798 0.03862 0.73902 0.0
C806 C 0.74994 0.96667 0.71238 0.0
C807 C 0.74558 0.99724 0.7339 0.0
C808 C 0.74704 0.94617 0.70939 0.0
C809 C 0.7382 0.93444 0.72444 0.0
C810 C 0.74368 0.97546 0.73042 0.0
C811 C 0.73235 0.94378 0.74232 0.0
C812 C 0.73365 0.00666 0.7484 0.0
C813 C 0.76021 0.02866 0.72515 0.0
N814 N 0.73509 0.96376 0.74476 0.0
N815 N 0.75856 0.00846 0.72278 0.0
H816 H 0.23421 0.27846 0.04326 0.0
H817 H 0.29389 0.24291 0.94736 0.0
H818 H 0.2771 0.23014 0.04564 0.0
H819 H 0.23631 0.2721 0.94329 0.0
H820 H 0.28915 0.23936 0.98353 0.0
H821 H 0.23544 0.27738 0.00669 0.0
C822 C 0.24376 0.26749 0.03604 0.0
C823 C 0.25567 0.25444 0.04741 0.0
C824 C 0.2775 0.24641 0.97469 0.0
C825 C 0.25741 0.25336 0.00566 0.0
C826 C 0.28026 0.24859 0.95409 0.0
C827 C 0.26552 0.25796 0.94237 0.0
C828 C 0.26005 0.25396 0.98366 0.0
C829 C 0.24807 0.26486 0.95181 0.0
C830 C 0.24441 0.26685 0.01519 0.0
C831 C 0.26768 0.24044 0.03736 0.0
N832 N 0.24589 0.2629 0.97196 0.0
N833 N 0.26848 0.24046 0.01699 0.0
H834 H 0.24189 0.69882 0.94484 0.0
H835 H 0.27368 0.76028 0.0414 0.0
H836 H 0.2691 0.75743 0.94192 0.0
H837 H 0.22734 0.71526 0.04365 0.0
H838 H 0.27389 0.75788 0.00496 0.0
H839 H 0.23814 0.70282 0.98118 0.0
C840 C 0.24707 0.71252 0.95184 0.0
C841 C 0.25592 0.72779 0.9404 0.0
C842 C 0.26356 0.74862 0.01338 0.0
C843 C 0.25174 0.73238 0.98179 0.0
C844 C 0.26348 0.74992 0.03418 0.0
C845 C 0.25052 0.73789 0.0455 0.0
C846 C 0.25085 0.7349 0.0038 0.0
C847 C 0.23752 0.72483 0.0354 0.0
C848 C 0.24481 0.71482 0.97252 0.0
C849 C 0.26224 0.74527 0.95018 0.0
N850 N 0.23817 0.72349 0.01505 0.0
N851 N 0.26017 0.74701 0.97034 0.0
H852 H 0.75134 0.27963 0.95807 0.0
H853 H 0.70641 0.23652 0.05882 0.0
H854 H 0.71965 0.22328 0.95938 0.0
H855 H 0.76023 0.27234 0.05788 0.0
H856 H 0.70788 0.23403 0.02221 0.0
H857 H 0.75151 0.28 0.9947 0.0
C858 C 0.74437 0.26736 0.96609 0.0
C859 C 0.73542 0.25141 0.95575 0.0
C860 C 0.71941 0.24231 0.03007 0.0
C861 C 0.73544 0.25185 0.99753 0.0
C862 C 0.71855 0.24383 0.05089 0.0
C863 C 0.73321 0.2547 0.06131 0.0
C864 C 0.73479 0.25211 0.01963 0.0
C865 C 0.74867 0.26379 0.05038 0.0
C866 C 0.74459 0.26753 0.98696 0.0
C867 C 0.72672 0.23583 0.96684 0.0
N868 N 0.74894 0.26248 0.03007 0.0
N869 N 0.72678 0.23652 0.9872 0.0
H870 H 0.76721 0.73206 0.94758 0.0
H871 H 0.71877 0.77822 0.0469 0.0
H872 H 0.71064 0.76341 0.94694 0.0
H873 H 0.75582 0.72523 0.04681 0.0
H874 H 0.72063 0.77897 0.01005 0.0
H875 H 0.76825 0.73557 0.98413 0.0
C876 C 0.75511 0.73982 0.95512 0.0
C877 C 0.73873 0.7473 0.94429 0.0
C878 C 0.72843 0.76729 0.01819 0.0
C879 C 0.73994 0.75154 0.98591 0.0
C880 C 0.72745 0.76691 0.03914 0.0
C881 C 0.73703 0.75156 0.04981 0.0
C882 C 0.73942 0.75247 0.00804 0.0
C883 C 0.74805 0.73721 0.0391 0.0
C884 C 0.75568 0.74177 0.97593 0.0
C885 C 0.72344 0.75725 0.95478 0.0
N886 N 0.74899 0.73804 0.01881 0.0
N887 N 0.72442 0.75912 0.97505 0.0
H888 H 0.54618 0.77358 0.72297 0.0
H889 H 0.44557 0.72646 0.76801 0.0
H890 H 0.54553 0.73164 0.77217 0.0
H891 H 0.4479 0.78507 0.74073 0.0
H892 H 0.48179 0.72306 0.76271 0.0
H893 H 0.50933 0.77256 0.72224 0.0
C894 C 0.53828 0.76392 0.73335 0.0
C895 C 0.54876 0.75285 0.74779 0.0
C896 C 0.47429 0.73659 0.7578 0.0
C897 C 0.50701 0.75149 0.74697 0.0
C898 C 0.45369 0.73854 0.76082 0.0
C899 C 0.44384 0.75617 0.75504 0.0
C900 C 0.48498 0.75225 0.74866 0.0
C901 C 0.455 0.77134 0.74566 0.0
C902 C 0.51734 0.76342 0.73301 0.0
C903 C 0.53792 0.7406 0.76097 0.0
N904 N 0.47501 0.76904 0.74277 0.0
N905 N 0.51761 0.74026 0.76028 0.0
H906 H 0.20594 0.44938 0.77298 0.0
H907 H 0.2489 0.55041 0.73101 0.0
H908 H 0.26438 0.44851 0.74535 0.0
H909 H 0.22357 0.54699 0.79038 0.0
H910 H 0.24985 0.51343 0.72985 0.0
H911 H 0.20696 0.48602 0.77325 0.0
C912 C 0.21895 0.45694 0.76688 0.0
C913 C 0.23514 0.44598 0.75919 0.0
C914 C 0.24416 0.52091 0.74308 0.0
C915 C 0.23614 0.48777 0.75908 0.0
C916 C 0.24347 0.54188 0.7437 0.0
C917 C 0.23614 0.55166 0.76082 0.0
C918 C 0.23686 0.50986 0.75942 0.0
C919 C 0.22939 0.54 0.77695 0.0
C920 C 0.21952 0.47778 0.76711 0.0
C921 C 0.25168 0.45649 0.75153 0.0
N922 N 0.22968 0.51971 0.77576 0.0
N923 N 0.25169 0.47692 0.75146 0.0
H924 H 0.44366 0.21694 0.7299 0.0
H925 H 0.54182 0.27322 0.76881 0.0
H926 H 0.44432 0.25492 0.78224 0.0
H927 H 0.54436 0.21701 0.73692 0.0
H928 H 0.50513 0.27136 0.76824 0.0
H929 H 0.48011 0.22133 0.72687 0.0
C930 C 0.45147 0.22625 0.74066 0.0
C931 C 0.44109 0.23543 0.75645 0.0
C932 C 0.51378 0.2595 0.76131 0.0
C933 C 0.48238 0.24075 0.7529 0.0
C934 C 0.53465 0.26058 0.76158 0.0
C935 C 0.54606 0.24514 0.75309 0.0
C936 C 0.50435 0.24303 0.75221 0.0
C937 C 0.53607 0.22911 0.74384 0.0
C938 C 0.47219 0.22871 0.73896 0.0
C939 C 0.45183 0.24739 0.76999 0.0
N940 N 0.51574 0.22846 0.74363 0.0
N941 N 0.47189 0.24976 0.76787 0.0
H942 H 0.78188 0.4609 0.71723 0.0
H943 H 0.73132 0.55956 0.76311 0.0
H944 H 0.72817 0.46088 0.75313 0.0
H945 H 0.7936 0.5565 0.74584 0.0
H946 H 0.72714 0.52473 0.75266 0.0
H947 H 0.78325 0.49769 0.7202 0.0
C948 C 0.77016 0.46872 0.72529 0.0
C949 C 0.75501 0.45806 0.73514 0.0
C950 C 0.74171 0.53171 0.75114 0.0
C951 C 0.75646 0.49959 0.73864 0.0
C952 C 0.74413 0.55154 0.75718 0.0
C953 C 0.7629 0.5608 0.75561 0.0
C954 C 0.75816 0.52113 0.74335 0.0
C955 C 0.77893 0.5498 0.74757 0.0
C956 C 0.77102 0.48959 0.72713 0.0
C957 C 0.74021 0.46868 0.74554 0.0
N958 N 0.77621 0.53048 0.74176 0.0
N959 N 0.74135 0.48887 0.74711 0.0
H960 H 0.4467 0.26132 0.2444 0.0
H961 H 0.54617 0.21695 0.19883 0.0
H962 H 0.44746 0.20382 0.2149 0.0
H963 H 0.5474 0.24267 0.25813 0.0
H964 H 0.50952 0.21845 0.19931 0.0
H965 H 0.4837 0.26117 0.24452 0.0
C966 C 0.45467 0.2488 0.23781 0.0
C967 C 0.44417 0.23253 0.22966 0.0
C968 C 0.51785 0.22377 0.21218 0.0
C969 C 0.48595 0.23245 0.22946 0.0
C970 C 0.53869 0.22296 0.21193 0.0
C971 C 0.54973 0.22959 0.22853 0.0
C972 C 0.50801 0.23177 0.22892 0.0
C973 C 0.53935 0.23725 0.24513 0.0
C974 C 0.47564 0.24866 0.23802 0.0
C975 C 0.45507 0.21658 0.22142 0.0
N976 N 0.51897 0.23833 0.24486 0.0
N977 N 0.47539 0.21702 0.22134 0.0
H978 H 0.71981 0.44774 0.22073 0.0
H979 H 0.76291 0.54843 0.26951 0.0
H980 H 0.76908 0.44881 0.26259 0.0
H981 H 0.7339 0.54702 0.21172 0.0
H982 H 0.75899 0.51197 0.27187 0.0
H983 H 0.7185 0.48455 0.22208 0.0
C984 C 0.73013 0.45571 0.23039 0.0
C985 C 0.7447 0.44534 0.24141 0.0
C986 C 0.7534 0.51971 0.25874 0.0
C987 C 0.74318 0.48708 0.24316 0.0
C988 C 0.75561 0.54046 0.2574 0.0
C989 C 0.74892 0.55066 0.2403 0.0
C990 C 0.74419 0.50919 0.243 0.0
C991 C 0.73948 0.53966 0.22506 0.0
C992 C 0.72945 0.47664 0.23108 0.0
C993 C 0.75778 0.4563 0.25367 0.0
N994 N 0.7374 0.51949 0.22675 0.0
N995 N 0.75673 0.47659 0.25421 0.0
H996 H 0.55003 0.73701 0.22293 0.0
H997 H 0.44862 0.78138 0.26832 0.0
H998 H 0.54894 0.78901 0.26137 0.0
H999 H 0.4511 0.74955 0.21206 0.0
H1000 H 0.48532 0.77958 0.27039 0.0
H1001 H 0.51328 0.73648 0.22338 0.0
C1002 C 0.54205 0.74819 0.23159 0.0
C1003 C 0.55246 0.76316 0.24201 0.0
C1004 C 0.47775 0.77299 0.25764 0.0
C1005 C 0.51067 0.76255 0.24271 0.0
C1006 C 0.45688 0.77398 0.25646 0.0
C1007 C 0.44689 0.76573 0.23993 0.0
C1008 C 0.48856 0.76337 0.24235 0.0
C1009 C 0.45826 0.75627 0.22498 0.0
C1010 C 0.52114 0.74793 0.23177 0.0
C1011 C 0.54144 0.77732 0.25298 0.0
N1012 N 0.4785 0.75527 0.22658 0.0
N1013 N 0.52111 0.77666 0.25308 0.0
H1014 H 0.27197 0.54482 0.22011 0.0
H1015 H 0.22469 0.44556 0.26772 0.0
H1016 H 0.22088 0.54532 0.25972 0.0
H1017 H 0.2549 0.44583 0.21052 0.0
H1018 H 0.22906 0.482 0.26967 0.0
H1019 H 0.27178 0.50794 0.22116 0.0
C1020 C 0.26089 0.53716 0.22917 0.0
C1021 C 0.2463 0.548 0.23968 0.0
C1022 C 0.23478 0.47401 0.25675 0.0
C1023 C 0.24614 0.50623 0.24116 0.0
C1024 C 0.23232 0.45328 0.25565 0.0
C1025 C 0.23926 0.44276 0.23885 0.0
C1026 C 0.24453 0.48418 0.2411 0.0
C1027 C 0.24912 0.45344 0.22363 0.0
C1028 C 0.26073 0.51622 0.2297 0.0
C1029 C 0.23223 0.53746 0.2512 0.0
N1030 N 0.25149 0.4736 0.22512 0.0
N1031 N 0.23251 0.51715 0.25166 0.0
H1032 H 0.78584 0.7359 0.55401 0.0
H1033 H 0.7355 0.7735 0.45201 0.0
H1034 H 0.74975 0.78946 0.5503 0.0
H1035 H 0.78948 0.73791 0.45349 0.0
H1036 H 0.73594 0.77483 0.48878 0.0
H1037 H 0.78293 0.73197 0.51757 0.0
C1038 C 0.77728 0.74679 0.54554 0.0
C1039 C 0.76815 0.76311 0.55512 0.0
C1040 C 0.7476 0.76666 0.481 0.0
C1041 C 0.76454 0.75855 0.51366 0.0
C1042 C 0.7473 0.76581 0.46008 0.0
C1043 C 0.76255 0.7557 0.44975 0.0
C1044 C 0.76307 0.75706 0.49159 0.0
C1045 C 0.77753 0.74602 0.4609 0.0
C1046 C 0.77565 0.74456 0.52479 0.0
C1047 C 0.75718 0.77676 0.54346 0.0
N1048 N 0.77741 0.74691 0.48123 0.0
N1049 N 0.75562 0.77414 0.52333 0.0
H1050 H 0.77037 0.19837 0.44366 0.0
H1051 H 0.72825 0.24645 0.5431 0.0
H1052 H 0.74525 0.25795 0.44268 0.0
H1053 H 0.7848 0.21512 0.5424 0.0
H1054 H 0.72773 0.24536 0.50619 0.0
H1055 H 0.76941 0.19894 0.48036 0.0
C1056 C 0.7646 0.21154 0.45121 0.0
C1057 C 0.75796 0.22819 0.44026 0.0
C1058 C 0.74014 0.23867 0.51423 0.0
C1059 C 0.7564 0.22869 0.48194 0.0
C1060 C 0.74037 0.23913 0.53516 0.0
C1061 C 0.75661 0.23088 0.54563 0.0
C1062 C 0.75595 0.22938 0.50395 0.0
C1063 C 0.77208 0.22172 0.53478 0.0
C1064 C 0.7641 0.21185 0.47206 0.0
C1065 C 0.75065 0.2449 0.45068 0.0
N1066 N 0.7713 0.22106 0.51448 0.0
N1067 N 0.74987 0.24468 0.47105 0.0
H1068 H 0.25205 0.72907 0.45338 0.0
H1069 H 0.20597 0.7766 0.55059 0.0
H1070 H 0.22564 0.78809 0.45238 0.0
H1071 H 0.26449 0.74937 0.55424 0.0
H1072 H 0.20786 0.77494 0.51397 0.0
H1073 H 0.2519 0.73021 0.49037 0.0
C1074 C 0.24615 0.74216 0.46095 0.0
C1075 C 0.23887 0.75853 0.44995 0.0
C1076 C 0.22026 0.76935 0.52283 0.0
C1077 C 0.23834 0.75973 0.4917 0.0
C1078 C 0.2192 0.77026 0.54363 0.0
C1079 C 0.23516 0.76322 0.55531 0.0
C1080 C 0.23713 0.7608 0.5137 0.0
C1081 C 0.25199 0.75512 0.54564 0.0
C1082 C 0.24621 0.74285 0.48192 0.0
C1083 C 0.23148 0.77521 0.46036 0.0
N1084 N 0.25247 0.75391 0.52528 0.0
N1085 N 0.23118 0.7753 0.48067 0.0
H1086 H 0.2523 0.20791 0.55056 0.0
H1087 H 0.22835 0.26877 0.45246 0.0
H1088 H 0.22812 0.26787 0.55254 0.0
H1089 H 0.27339 0.22244 0.45347 0.0
H1090 H 0.22781 0.26872 0.48905 0.0
H1091 H 0.25947 0.21233 0.51491 0.0
C1092 C 0.24849 0.22201 0.54348 0.0
C1093 C 0.23941 0.23749 0.55444 0.0
C1094 C 0.23805 0.25877 0.48132 0.0
C1095 C 0.2476 0.24262 0.51373 0.0
C1096 C 0.23834 0.25878 0.46047 0.0
C1097 C 0.25085 0.24551 0.45006 0.0
C1098 C 0.24997 0.24501 0.49182 0.0
C1099 C 0.26358 0.23293 0.46104 0.0
C1100 C 0.25276 0.22458 0.52319 0.0
C1101 C 0.23501 0.25552 0.54459 0.0
N1102 N 0.26255 0.2327 0.48141 0.0
N1103 N 0.23894 0.25752 0.5247 0.0
H1104 H 0.25062 0.19638 0.28182 0.0
H1105 H 0.13294 0.19608 0.26343 0.0
H1106 H 0.21761 0.14308 0.26578 0.0
H1107 H 0.16302 0.24318 0.29595 0.0
H1108 H 0.16388 0.17658 0.26372 0.0
H1109 H 0.21894 0.21425 0.28609 0.0
C1110 C 0.23673 0.18842 0.27919 0.0
C1111 C 0.23682 0.16817 0.27341 0.0
C1112 C 0.16368 0.19109 0.27098 0.0
C1113 C 0.20049 0.18861 0.27818 0.0
C1114 C 0.146 0.20222 0.27085 0.0
C1115 C 0.14545 0.22136 0.27952 0.0
C1116 C 0.18104 0.19925 0.27961 0.0
C1117 C 0.1628 0.22855 0.28898 0.0
C1118 C 0.21864 0.19862 0.28173 0.0
C1119 C 0.21832 0.15866 0.27024 0.0
N1120 N 0.17999 0.21759 0.28854 0.0
N1121 N 0.20093 0.169 0.27254 0.0
H1122 H 0.81173 0.24874 0.28962 0.0
H1123 H 0.80443 0.13006 0.28226 0.0
H1124 H 0.86115 0.21075 0.27216 0.0
H1125 H 0.75805 0.16647 0.30879 0.0
H1126 H 0.8262 0.15929 0.28084 0.0
H1127 H 0.79233 0.21891 0.29818 0.0
C1128 C 0.81851 0.23414 0.28751 0.0
C1129 C 0.83807 0.23228 0.27991 0.0
C1130 C 0.81136 0.16091 0.2872 0.0
C1131 C 0.8159 0.19807 0.28986 0.0
C1132 C 0.79893 0.14419 0.28807 0.0
C1133 C 0.77931 0.14592 0.29537 0.0
C1134 C 0.80405 0.17961 0.29342 0.0
C1135 C 0.77302 0.16452 0.30288 0.0
C1136 C 0.80744 0.21713 0.29257 0.0
C1137 C 0.8461 0.21296 0.2778 0.0
N1138 N 0.78526 0.18077 0.3014 0.0
N1139 N 0.83494 0.19663 0.28261 0.0
H1140 H 0.86838 0.79773 0.26342 0.0
H1141 H 0.75293 0.81319 0.28831 0.0
H1142 H 0.83338 0.75484 0.29684 0.0
H1143 H 0.79093 0.86081 0.26646 0.0
H1144 H 0.78226 0.79178 0.29183 0.0
H1145 H 0.84052 0.82136 0.26514 0.0
C1146 C 0.85489 0.79337 0.27133 0.0
C1147 C 0.8531 0.77423 0.27985 0.0
C1148 C 0.78422 0.80693 0.28634 0.0
C1149 C 0.82106 0.80112 0.28164 0.0
C1150 C 0.76745 0.81916 0.28419 0.0
C1151 C 0.76942 0.83882 0.27686 0.0
C1152 C 0.80316 0.81426 0.28094 0.0
C1153 C 0.78868 0.84576 0.27207 0.0
C1154 C 0.83899 0.80687 0.27229 0.0
C1155 C 0.83535 0.76941 0.29 0.0
N1156 N 0.80479 0.83342 0.27403 0.0
N1157 N 0.8199 0.78269 0.2904 0.0
H1158 H 0.2276 0.85258 0.29691 0.0
H1159 H 0.18279 0.76207 0.27809 0.0
H1160 H 0.19106 0.87447 0.24823 0.0
H1161 H 0.13111 0.7958 0.2585 0.0
H1162 H 0.20144 0.7931 0.28135 0.0
H1163 H 0.20683 0.82258 0.29857 0.0
C1164 C 0.21512 0.85111 0.28663 0.0
C1165 C 0.21125 0.86588 0.27219 0.0
C1166 C 0.18592 0.79383 0.27671 0.0
C1167 C 0.18778 0.83124 0.27357 0.0
C1168 C 0.17529 0.77603 0.27455 0.0
C1169 C 0.15528 0.77627 0.26802 0.0
C1170 C 0.17658 0.81215 0.27229 0.0
C1171 C 0.14646 0.79491 0.26368 0.0
C1172 C 0.20341 0.83386 0.28743 0.0
C1173 C 0.19467 0.86334 0.25948 0.0
N1174 N 0.15724 0.81213 0.26571 0.0
N1175 N 0.1836 0.84623 0.26035 0.0
H1176 H 0.13207 0.8029 0.72753 0.0
H1177 H 0.2502 0.80809 0.71298 0.0
H1178 H 0.16535 0.75819 0.69474 0.0
H1179 H 0.21473 0.85734 0.7354 0.0
H1180 H 0.21936 0.78983 0.70541 0.0
H1181 H 0.16199 0.82374 0.72891 0.0
C1182 C 0.14564 0.79759 0.72037 0.0
C1183 C 0.14631 0.77866 0.71127 0.0
C1184 C 0.21836 0.80466 0.7119 0.0
C1185 C 0.18078 0.8023 0.71313 0.0
C1186 C 0.23595 0.81504 0.71637 0.0
C1187 C 0.23509 0.83422 0.72502 0.0
C1188 C 0.19975 0.81343 0.71626 0.0
C1189 C 0.21617 0.84256 0.72887 0.0
C1190 C 0.16275 0.80948 0.72121 0.0
C1191 C 0.16422 0.7726 0.70207 0.0
N1192 N 0.19927 0.83206 0.72458 0.0
N1193 N 0.18088 0.78426 0.70352 0.0
H1194 H 0.2342 0.15077 0.69983 0.0
H1195 H 0.19017 0.24218 0.71893 0.0
H1196 H 0.19548 0.12909 0.74689 0.0
H1197 H 0.13822 0.20888 0.73842 0.0
H1198 H 0.20834 0.211 0.71482 0.0
H1199 H 0.21437 0.1815 0.69823 0.0
C1200 C 0.22147 0.15243 0.70976 0.0
C1201 C 0.2167 0.1375 0.72375 0.0
C1202 C 0.19286 0.21039 0.7196 0.0
C1203 C 0.19427 0.17287 0.72245 0.0
C1204 C 0.18247 0.22829 0.72221 0.0
C1205 C 0.16252 0.22824 0.72893 0.0
C1206 C 0.18334 0.19214 0.72386 0.0
C1207 C 0.15353 0.20967 0.73313 0.0
C1208 C 0.21029 0.17009 0.70902 0.0
C1209 C 0.19984 0.14034 0.73605 0.0
N1210 N 0.16408 0.19235 0.7307 0.0
N1211 N 0.1893 0.15775 0.73519 0.0
H1212 H 0.85627 0.21884 0.7045 0.0
H1213 H 0.78233 0.1602 0.77262 0.0
H1214 H 0.87313 0.20378 0.7651 0.0
H1215 H 0.79314 0.13719 0.71323 0.0
H1216 H 0.81232 0.18129 0.76951 0.0
H1217 H 0.82957 0.19334 0.7062 0.0
C1218 C 0.8545 0.21003 0.71801 0.0
C1219 C 0.86693 0.21331 0.73464 0.0
C1220 C 0.80819 0.17147 0.75725 0.0
C1221 C 0.83639 0.18486 0.73683 0.0
C1222 C 0.79118 0.15951 0.75901 0.0
C1223 C 0.78555 0.14691 0.74323 0.0
C1224 C 0.81917 0.17128 0.73933 0.0
C1225 C 0.79728 0.1466 0.72579 0.0
C1226 C 0.83937 0.19553 0.71895 0.0
C1227 C 0.86398 0.20162 0.75188 0.0
N1228 N 0.81346 0.15891 0.72413 0.0
N1229 N 0.84878 0.18815 0.75266 0.0
H1230 H 0.81509 0.7472 0.7144 0.0
H1231 H 0.80005 0.86502 0.71665 0.0
H1232 H 0.86267 0.78862 0.72901 0.0
H1233 H 0.75654 0.82435 0.69151 0.0
H1234 H 0.82404 0.83758 0.71892 0.0
H1235 H 0.79403 0.77539 0.70473 0.0
C1236 C 0.82115 0.76221 0.71563 0.0
C1237 C 0.84069 0.76551 0.72279 0.0
C1238 C 0.80937 0.83466 0.71264 0.0
C1239 C 0.81653 0.79785 0.71142 0.0
C1240 C 0.79567 0.85033 0.7113 0.0
C1241 C 0.77621 0.84685 0.70416 0.0
C1242 C 0.80346 0.81528 0.70709 0.0
C1243 C 0.77135 0.82763 0.69724 0.0
C1244 C 0.80912 0.77827 0.7099 0.0
C1245 C 0.84768 0.78533 0.72377 0.0
N1246 N 0.78481 0.81244 0.69921 0.0
N1247 N 0.83555 0.80075 0.71829 0.0
H1248 H 0.27368 0.12958 0.19894 0.0
H1249 H 0.28848 0.24651 0.18231 0.0
H1250 H 0.30492 0.16754 0.24094 0.0
H1251 H 0.26636 0.20667 0.13637 0.0
H1252 H 0.29614 0.2176 0.20327 0.0
H1253 H 0.27303 0.15712 0.17495 0.0
C1254 C 0.28065 0.14367 0.20301 0.0
C1255 C 0.28913 0.14637 0.22206 0.0
C1256 C 0.28971 0.21517 0.18857 0.0
C1257 C 0.28815 0.1781 0.19475 0.0
C1258 C 0.28518 0.23168 0.17661 0.0
C1259 C 0.27649 0.22906 0.1576 0.0
C1260 C 0.28535 0.19582 0.18163 0.0
C1261 C 0.27289 0.20944 0.15095 0.0
C1262 C 0.28025 0.1594 0.1893 0.0
C1263 C 0.29811 0.16485 0.22647 0.0
N1264 N 0.27717 0.19359 0.16303 0.0
N1265 N 0.29711 0.18014 0.21302 0.0
H1266 H 0.75497 0.28778 0.1945 0.0
H1267 H 0.87087 0.26164 0.20056 0.0
H1268 H 0.78774 0.26227 0.14493 0.0
H1269 H 0.84117 0.30018 0.24316 0.0
H1270 H 0.84093 0.26236 0.17954 0.0
H1271 H 0.78642 0.29267 0.21243 0.0
C1272 C 0.76878 0.2832 0.18737 0.0
C1273 C 0.76866 0.27446 0.16823 0.0
C1274 C 0.84103 0.27086 0.19336 0.0
C1275 C 0.80483 0.27998 0.18874 0.0
C1276 C 0.85812 0.27047 0.20537 0.0
C1277 C 0.85842 0.28069 0.22375 0.0
C1278 C 0.824 0.28133 0.1999 0.0
C1279 C 0.84155 0.29198 0.22918 0.0
C1280 C 0.78677 0.28611 0.19758 0.0
C1281 C 0.78708 0.26899 0.15968 0.0
N1282 N 0.82489 0.29177 0.21744 0.0
N1283 N 0.80441 0.27167 0.17007 0.0
H1284 H 0.6997 0.84558 0.24462 0.0
H1285 H 0.73499 0.80195 0.13836 0.0
H1286 H 0.73775 0.87797 0.20358 0.0
H1287 H 0.7093 0.76589 0.18559 0.0
H1288 H 0.73158 0.83156 0.15983 0.0
H1289 H 0.69808 0.81791 0.22058 0.0
C1290 C 0.70748 0.84699 0.23046 0.0
C1291 C 0.71906 0.86399 0.22618 0.0
C1292 C 0.72665 0.81714 0.16543 0.0
C1293 C 0.71734 0.83243 0.19867 0.0
C1294 C 0.7286 0.80025 0.15319 0.0
C1295 C 0.72265 0.78135 0.16023 0.0
C1296 C 0.71851 0.81515 0.18476 0.0
C1297 C 0.71436 0.78008 0.17957 0.0
C1298 C 0.70664 0.83116 0.21678 0.0
C1299 C 0.7288 0.86504 0.20755 0.0
N1300 N 0.71256 0.79672 0.19114 0.0
N1301 N 0.72782 0.84943 0.19453 0.0
H1302 H 0.11931 0.74032 0.19581 0.0
H1303 H 0.235 0.71774 0.18168 0.0
H1304 H 0.15356 0.70429 0.2372 0.0
H1305 H 0.19752 0.73821 0.13306 0.0
H1306 H 0.2052 0.71268 0.20214 0.0
H1307 H 0.14735 0.7393 0.17227 0.0
C1308 C 0.13265 0.73199 0.19984 0.0
C1309 C 0.13422 0.72257 0.21858 0.0
C1310 C 0.20345 0.71814 0.18695 0.0
C1311 C 0.1664 0.72157 0.19185 0.0
C1312 C 0.22048 0.72117 0.17529 0.0
C1313 C 0.21876 0.72861 0.15568 0.0
C1314 C 0.18452 0.72284 0.1791 0.0
C1315 C 0.19953 0.7325 0.14811 0.0
C1316 C 0.14863 0.73141 0.18639 0.0
C1317 C 0.15177 0.71189 0.22299 0.0
N1318 N 0.18314 0.72979 0.15993 0.0
N1319 N 0.1673 0.71191 0.20982 0.0
H1320 H 0.30251 0.83336 0.75675 0.0
H1321 H 0.26847 0.78031 0.85883 0.0
H1322 H 0.2707 0.86387 0.80409 0.0
H1323 H 0.28158 0.74772 0.8045 0.0
H1324 H 0.27501 0.81166 0.84107 0.0
H1325 H 0.30152 0.80245 0.77661 0.0
C1326 C 0.29562 0.83366 0.77143 0.0
C1327 C 0.28641 0.85112 0.77868 0.0
C1328 C 0.27652 0.79762 0.83307 0.0
C1329 C 0.28523 0.81594 0.80138 0.0
C1330 C 0.27273 0.77971 0.84318 0.0
C1331 C 0.27444 0.7613 0.83314 0.0
C1332 C 0.28223 0.79716 0.81282 0.0
C1333 C 0.28012 0.76153 0.81286 0.0
C1334 C 0.29494 0.81599 0.78269 0.0
C1335 C 0.27778 0.85067 0.79785 0.0
N1336 N 0.28384 0.77916 0.80337 0.0
N1337 N 0.2773 0.83334 0.80849 0.0
H1338 H 0.13248 0.27006 0.80252 0.0
H1339 H 0.25106 0.27858 0.80477 0.0
H1340 H 0.16646 0.29762 0.75489 0.0
H1341 H 0.21572 0.26765 0.85786 0.0
H1342 H 0.22034 0.28478 0.78598 0.0
H1343 H 0.16271 0.26898 0.82305 0.0
C1344 C 0.14627 0.27614 0.79648 0.0
C1345 C 0.14701 0.28374 0.77689 0.0
C1346 C 0.21932 0.28113 0.80176 0.0
C1347 C 0.18176 0.28222 0.80019 0.0
C1348 C 0.23686 0.27749 0.81251 0.0
C1349 C 0.23604 0.2726 0.83298 0.0
C1350 C 0.20072 0.27958 0.81144 0.0
C1351 C 0.21714 0.27133 0.84213 0.0
C1352 C 0.16353 0.27548 0.8082 0.0
C1353 C 0.16524 0.2915 0.76986 0.0
N1354 N 0.20023 0.27469 0.83126 0.0
N1355 N 0.18199 0.29027 0.78141 0.0
H1356 H 0.70557 0.1255 0.79002 0.0
H1357 H 0.71558 0.19506 0.86913 0.0
H1358 H 0.76995 0.12278 0.79485 0.0
H1359 H 0.76173 0.21617 0.82909 0.0
H1360 H 0.71513 0.16295 0.85097 0.0
H1361 H 0.70535 0.15317 0.8144 0.0
C1362 C 0.71958 0.13052 0.79651 0.0
C1363 C 0.73777 0.12182 0.79071 0.0
C1364 C 0.72542 0.17462 0.84636 0.0
C1365 C 0.73768 0.15348 0.81786 0.0
C1366 C 0.72579 0.1928 0.85671 0.0
C1367 C 0.73861 0.20821 0.85041 0.0
C1368 C 0.73834 0.17181 0.83002 0.0
C1369 C 0.7515 0.20466 0.83421 0.0
C1370 C 0.71944 0.14617 0.81038 0.0
C1371 C 0.7556 0.12894 0.79926 0.0
N1372 N 0.75114 0.18672 0.82461 0.0
N1373 N 0.75516 0.14472 0.81211 0.0
H1374 H 0.79266 0.73793 0.8609 0.0
H1375 H 0.84535 0.69941 0.76004 0.0
H1376 H 0.76041 0.71183 0.81129 0.0
H1377 H 0.8741 0.73814 0.8031 0.0
H1378 H 0.81548 0.69857 0.78141 0.0
H1379 H 0.82396 0.73333 0.84236 0.0
C1380 C 0.79213 0.73119 0.84614 0.0
C1381 C 0.77381 0.72544 0.83756 0.0
C1382 C 0.82842 0.70709 0.78624 0.0
C1383 C 0.80961 0.71996 0.81635 0.0
C1384 C 0.8455 0.70748 0.77411 0.0
C1385 C 0.86212 0.71905 0.7797 0.0
C1386 C 0.82809 0.71822 0.80414 0.0
C1387 C 0.86152 0.72918 0.79813 0.0
C1388 C 0.81001 0.72855 0.83557 0.0
C1389 C 0.77412 0.71668 0.8184 0.0
N1390 N 0.84475 0.72863 0.80962 0.0
N1391 N 0.7917 0.71424 0.80844 0.0
H1392 H 0.13802 0.25832 0.20664 0.0
H1393 H 0.23931 0.29597 0.15441 0.0
H1394 H 0.18773 0.28389 0.23923 0.0
H1395 H 0.19671 0.25665 0.12577 0.0
H1396 H 0.21793 0.2967 0.18425 0.0
H1397 H 0.15703 0.26216 0.17554 0.0
C1398 C 0.1529 0.26477 0.20728 0.0
C1399 C 0.16134 0.27065 0.22562 0.0
C1400 C 0.21321 0.28805 0.17135 0.0
C1401 C 0.18307 0.27526 0.19006 0.0
C1402 C 0.22534 0.28773 0.15429 0.0
C1403 C 0.21985 0.27607 0.13769 0.0
C1404 C 0.19541 0.27679 0.17167 0.0
C1405 C 0.20158 0.2657 0.13832 0.0
C1406 C 0.16373 0.26696 0.18952 0.0
C1407 C 0.18068 0.27898 0.22549 0.0
N1408 N 0.19005 0.26622 0.15507 0.0
N1409 N 0.19088 0.28104 0.20799 0.0
H1410 H 0.19718 0.72287 0.86469 0.0
H1411 H 0.1941 0.72071 0.74619 0.0
H1412 H 0.2435 0.69485 0.82932 0.0
H1413 H 0.14086 0.72868 0.7821 0.0
H1414 H 0.21289 0.71255 0.77647 0.0
H1415 H 0.17633 0.72548 0.83476 0.0
C1416 C 0.20285 0.717 0.85066 0.0
C1417 C 0.2222 0.70887 0.84943 0.0
C1418 C 0.19706 0.71593 0.77768 0.0
C1419 C 0.19858 0.7122 0.81505 0.0
C1420 C 0.18632 0.72071 0.76041 0.0
C1421 C 0.16581 0.72534 0.76152 0.0
C1422 C 0.18734 0.71606 0.79631 0.0
C1423 C 0.15663 0.72526 0.78046 0.0
C1424 C 0.19095 0.71853 0.83358 0.0
C1425 C 0.22875 0.70138 0.83091 0.0
N1426 N 0.16749 0.72079 0.79712 0.0
N1427 N 0.21708 0.70354 0.81433 0.0
H1428 H 0.27343 0.19643 0.87119 0.0
H1429 H 0.28146 0.18402 0.75317 0.0
H1430 H 0.30181 0.24042 0.83325 0.0
H1431 H 0.26494 0.13578 0.79303 0.0
H1432 H 0.28998 0.2046 0.78218 0.0
H1433 H 0.27203 0.17337 0.84293 0.0
C1434 C 0.27964 0.20112 0.85693 0.0
C1435 C 0.28748 0.22045 0.85446 0.0
C1436 C 0.2846 0.18948 0.78457 0.0
C1437 C 0.28556 0.19427 0.8219 0.0
C1438 C 0.27958 0.17774 0.76802 0.0
C1439 C 0.27227 0.15816 0.77064 0.0
C1440 C 0.28209 0.18168 0.80394 0.0
C1441 C 0.27036 0.15081 0.79025 0.0
C1442 C 0.2788 0.18796 0.84079 0.0
C1443 C 0.29549 0.22571 0.83575 0.0
N1444 N 0.27509 0.16262 0.80613 0.0
N1445 N 0.29401 0.21278 0.82005 0.0
H1446 H 0.80137 0.24522 0.88201 0.0
H1447 H 0.81342 0.2729 0.76731 0.0
H1448 H 0.76242 0.28661 0.85111 0.0
H1449 H 0.86401 0.25267 0.80223 0.0
H1450 H 0.79378 0.27566 0.79789 0.0
H1451 H 0.82433 0.2461 0.85327 0.0
C1452 C 0.79779 0.2547 0.86933 0.0
C1453 C 0.77985 0.2657 0.86884 0.0
C1454 C 0.80921 0.27071 0.79892 0.0
C1455 C 0.80577 0.26648 0.83596 0.0
C1456 C 0.82041 0.26898 0.78143 0.0
C1457 C 0.84039 0.26245 0.7822 0.0
C1458 C 0.81787 0.2656 0.81738 0.0
C1459 C 0.84866 0.25778 0.80098 0.0
C1460 C 0.81087 0.25516 0.85295 0.0
C1461 C 0.77595 0.27773 0.85206 0.0
N1462 N 0.83729 0.25926 0.81787 0.0
N1463 N 0.78866 0.27759 0.83619 0.0
H1464 H 0.71298 0.79933 0.7453 0.0
H1465 H 0.73739 0.80116 0.8622 0.0
H1466 H 0.73577 0.8515 0.77608 0.0
H1467 H 0.70227 0.75454 0.83437 0.0
H1468 H 0.73688 0.81983 0.83075 0.0
H1469 H 0.70938 0.78236 0.77756 0.0
C1470 C 0.7173 0.80721 0.75882 0.0
C1471 C 0.72484 0.82686 0.75794 0.0
C1472 C 0.72912 0.8056 0.83155 0.0
C1473 C 0.72069 0.80749 0.79493 0.0
C1474 C 0.72938 0.79495 0.84952 0.0
C1475 C 0.72 0.77619 0.85086 0.0
C1476 C 0.71961 0.79735 0.81469 0.0
C1477 C 0.70979 0.76889 0.83398 0.0
C1478 C 0.71511 0.79755 0.77725 0.0
C1479 C 0.72995 0.83637 0.776 0.0
N1480 N 0.71007 0.77939 0.8165 0.0
N1481 N 0.7279 0.82655 0.79372 0.0
H1482 H 0.79669 0.74488 0.12619 0.0
H1483 H 0.80501 0.71282 0.24065 0.0
H1484 H 0.75172 0.70955 0.15637 0.0
H1485 H 0.85514 0.73597 0.2069 0.0
H1486 H 0.78542 0.71126 0.20987 0.0
H1487 H 0.81862 0.74118 0.15525 0.0
C1488 C 0.79151 0.73615 0.13886 0.0
C1489 C 0.77228 0.72766 0.13895 0.0
C1490 C 0.80073 0.71658 0.20916 0.0
C1491 C 0.79722 0.72359 0.17237 0.0
C1492 C 0.81193 0.71759 0.22676 0.0
C1493 C 0.83174 0.72472 0.22642 0.0
C1494 C 0.80927 0.72297 0.19104 0.0
C1495 C 0.83992 0.73045 0.2079 0.0
C1496 C 0.80405 0.73405 0.15545 0.0
C1497 C 0.76639 0.71643 0.15571 0.0
N1498 N 0.82859 0.72962 0.19098 0.0
N1499 N 0.77872 0.71493 0.17186 0.0
H1500 H 0.2938 0.78292 0.13785 0.0
H1501 H 0.27945 0.86478 0.2043 0.0
H1502 H 0.22964 0.78829 0.13202 0.0
H1503 H 0.23173 0.82609 0.22431 0.0
H1504 H 0.28271 0.84426 0.17376 0.0
H1505 H 0.29275 0.80711 0.16578 0.0
C1506 C 0.27958 0.78934 0.14234 0.0
C1507 C 0.26182 0.78387 0.13256 0.0
C1508 C 0.2715 0.84042 0.18485 0.0
C1509 C 0.26047 0.81086 0.16441 0.0
C1510 C 0.26949 0.85215 0.20208 0.0
C1511 C 0.25531 0.84701 0.21671 0.0
C1512 C 0.25886 0.82385 0.18215 0.0
C1513 C 0.24288 0.83042 0.21334 0.0
C1514 C 0.279 0.80312 0.15812 0.0
C1515 C 0.2437 0.79239 0.13901 0.0
N1516 N 0.2448 0.81951 0.19627 0.0
N1517 N 0.24344 0.80521 0.15479 0.0
H1518 H 0.73381 0.1391 0.22167 0.0
H1519 H 0.7004 0.24296 0.1721 0.0
H1520 H 0.72416 0.19334 0.25567 0.0
H1521 H 0.73266 0.19724 0.13966 0.0
H1522 H 0.70223 0.22216 0.20233 0.0
H1523 H 0.72767 0.15799 0.19082 0.0
C1524 C 0.73042 0.15493 0.2227 0.0
C1525 C 0.72942 0.16458 0.24138 0.0
C1526 C 0.70876 0.21666 0.18853 0.0
C1527 C 0.722 0.18612 0.20616 0.0
C1528 C 0.70761 0.22845 0.17126 0.0
C1529 C 0.71664 0.22191 0.15344 0.0
C1530 C 0.71876 0.19813 0.18782 0.0
C1531 C 0.72569 0.20292 0.15316 0.0
C1532 C 0.72684 0.16567 0.20509 0.0
C1533 C 0.7249 0.18516 0.24171 0.0
N1534 N 0.7266 0.19173 0.17012 0.0
N1535 N 0.72126 0.19521 0.22439 0.0
H1536 H 0.74271 0.69558 0.78507 0.0
H1537 H 0.62757 0.69628 0.75598 0.0
H1538 H 0.71151 0.64265 0.7648 0.0
H1539 H 0.65442 0.74186 0.79319 0.0
H1540 H 0.6581 0.67636 0.75892 0.0
H1541 H 0.71071 0.7131 0.78752 0.0
C1542 C 0.72914 0.6876 0.78119 0.0
C1543 C 0.72986 0.66759 0.77473 0.0
C1544 C 0.65724 0.69061 0.76664 0.0
C1545 C 0.69313 0.68765 0.77731 0.0
C1546 C 0.63981 0.70199 0.76498 0.0
C1547 C 0.63856 0.72087 0.77415 0.0
C1548 C 0.67366 0.69829 0.77731 0.0
C1549 C 0.65481 0.72747 0.78573 0.0
C1550 C 0.71086 0.69761 0.78267 0.0
C1551 C 0.71174 0.65807 0.76983 0.0
N1552 N 0.67183 0.71631 0.78674 0.0
N1553 N 0.69414 0.66824 0.77108 0.0
H1554 H 0.25253 0.66053 0.79827 0.0
H1555 H 0.35921 0.70643 0.76807 0.0
H1556 H 0.29879 0.62654 0.76847 0.0
H1557 H 0.30664 0.74248 0.7792 0.0
H1558 H 0.33912 0.67627 0.77366 0.0
H1559 H 0.27448 0.68996 0.79782 0.0
C1560 C 0.26739 0.65915 0.79192 0.0
C1561 C 0.27374 0.64114 0.78311 0.0
C1562 C 0.33203 0.69081 0.77493 0.0
C1563 C 0.29886 0.67466 0.78255 0.0
C1564 C 0.34346 0.70804 0.77166 0.0
C1565 C 0.33461 0.72707 0.77316 0.0
C1566 C 0.31165 0.69261 0.7799 0.0
C1567 C 0.31413 0.72816 0.77798 0.0
C1568 C 0.27985 0.67598 0.79155 0.0
C1569 C 0.29322 0.6402 0.77522 0.0
N1570 N 0.30336 0.7112 0.78122 0.0
N1571 N 0.30504 0.65675 0.77501 0.0
H1572 H 0.3677 0.29539 0.75755 0.0
H1573 H 0.253 0.31129 0.78538 0.0
H1574 H 0.33445 0.25537 0.79596 0.0
H1575 H 0.28864 0.35713 0.75685 0.0
H1576 H 0.28293 0.29095 0.78958 0.0
H1577 H 0.33951 0.31869 0.75787 0.0
C1578 C 0.35453 0.29161 0.76626 0.0
C1579 C 0.35333 0.27332 0.77661 0.0
C1580 C 0.28425 0.30547 0.78245 0.0
C1581 C 0.32091 0.29984 0.77682 0.0
C1582 C 0.26713 0.31708 0.77989 0.0
C1583 C 0.26823 0.33591 0.77052 0.0
C1584 C 0.30273 0.31256 0.77544 0.0
C1585 C 0.28706 0.34268 0.76404 0.0
C1586 C 0.33844 0.30493 0.76642 0.0
C1587 C 0.33598 0.26925 0.78772 0.0
N1588 N 0.30356 0.33092 0.76648 0.0
N1589 N 0.32034 0.28232 0.78733 0.0
H1590 H 0.62663 0.30428 0.75306 0.0
H1591 H 0.69166 0.38415 0.73509 0.0
H1592 H 0.68042 0.275 0.77406 0.0
H1593 H 0.72875 0.35762 0.78097 0.0
H1594 H 0.66781 0.35675 0.739 0.0
H1595 H 0.64444 0.33631 0.75347 0.0
C1596 C 0.64218 0.30457 0.75773 0.0
C1597 C 0.65214 0.28685 0.76319 0.0
C1598 C 0.68085 0.35716 0.74862 0.0
C1599 C 0.67268 0.32335 0.76341 0.0
C1600 C 0.69458 0.37274 0.74627 0.0
C1601 C 0.71228 0.37304 0.7576 0.0
C1602 C 0.68495 0.34174 0.76236 0.0
C1603 C 0.71535 0.3579 0.77183 0.0
C1604 C 0.65239 0.32285 0.75779 0.0
C1605 C 0.67221 0.28818 0.76937 0.0
N1606 N 0.70196 0.34269 0.77359 0.0
N1607 N 0.6818 0.30609 0.76927 0.0
H1608 H 0.69752 0.35798 0.22378 0.0
H1609 H 0.66073 0.24665 0.19755 0.0
H1610 H 0.73726 0.30716 0.21874 0.0
H1611 H 0.62149 0.29319 0.21939 0.0
H1612 H 0.6887 0.27049 0.19841 0.0
H1613 H 0.66919 0.33591 0.21626 0.0
C1614 C 0.70033 0.34223 0.22108 0.0
C1615 C 0.71985 0.33445 0.22195 0.0
C1616 C 0.6739 0.27551 0.20277 0.0
C1617 C 0.68753 0.30918 0.21305 0.0
C1618 C 0.65792 0.26195 0.20214 0.0
C1619 C 0.63884 0.26791 0.20865 0.0
C1620 C 0.67065 0.29514 0.20975 0.0
C1621 C 0.63604 0.28793 0.21446 0.0
C1622 C 0.68416 0.32965 0.21671 0.0
C1623 C 0.72253 0.31388 0.21816 0.0
N1624 N 0.65178 0.30079 0.215 0.0
N1625 N 0.70659 0.30199 0.21389 0.0
H1626 H 0.69193 0.62726 0.23254 0.0
H1627 H 0.68773 0.74482 0.21429 0.0
H1628 H 0.73874 0.6598 0.20204 0.0
H1629 H 0.63678 0.71005 0.2339 0.0
H1630 H 0.70623 0.71383 0.20852 0.0
H1631 H 0.67087 0.65709 0.23143 0.0
C1632 C 0.69768 0.64064 0.22537 0.0
C1633 C 0.71719 0.64114 0.21759 0.0
C1634 C 0.69096 0.71297 0.21397 0.0
C1635 C 0.69328 0.67548 0.21656 0.0
C1636 C 0.6804 0.73068 0.2174 0.0
C1637 C 0.6607 0.73008 0.22484 0.0
C1638 C 0.68187 0.69448 0.21819 0.0
C1639 C 0.65195 0.71127 0.22829 0.0
C1640 C 0.68565 0.65769 0.22476 0.0
C1641 C 0.72383 0.65881 0.20834 0.0
N1642 N 0.66266 0.69424 0.22511 0.0
N1643 N 0.71199 0.6754 0.20834 0.0
H1644 H 0.29868 0.63583 0.23892 0.0
H1645 H 0.34178 0.74107 0.20056 0.0
H1646 H 0.2622 0.68357 0.2148 0.0
H1647 H 0.37491 0.70132 0.23939 0.0
H1648 H 0.31425 0.71692 0.20001 0.0
H1649 H 0.32845 0.65687 0.2341 0.0
C1650 C 0.29693 0.65067 0.23259 0.0
C1651 C 0.27789 0.65803 0.22751 0.0
C1652 C 0.32763 0.71342 0.20851 0.0
C1653 C 0.31179 0.68197 0.22172 0.0
C1654 C 0.34338 0.72716 0.20875 0.0
C1655 C 0.36052 0.72331 0.22026 0.0
C1656 C 0.32911 0.69567 0.21975 0.0
C1657 C 0.36184 0.70496 0.23049 0.0
C1658 C 0.3139 0.66265 0.22984 0.0
C1659 C 0.27651 0.67735 0.21924 0.0
N1660 N 0.34627 0.69186 0.23011 0.0
N1661 N 0.29321 0.68862 0.21662 0.0
H1662 H 0.35836 0.28685 0.23324 0.0
H1663 H 0.2524 0.33387 0.20193 0.0
H1664 H 0.30666 0.25162 0.21665 0.0
H1665 H 0.29719 0.36661 0.23516 0.0
H1666 H 0.27454 0.3046 0.20181 0.0
H1667 H 0.33812 0.31729 0.22943 0.0
C1668 C 0.3428 0.28548 0.22884 0.0
C1669 C 0.33422 0.26659 0.22535 0.0
C1670 C 0.27956 0.31826 0.20899 0.0
C1671 C 0.31114 0.30132 0.22065 0.0
C1672 C 0.26698 0.335 0.20894 0.0
C1673 C 0.2729 0.35261 0.21875 0.0
C1674 C 0.29822 0.31926 0.21872 0.0
C1675 C 0.29199 0.35325 0.22757 0.0
C1676 C 0.33128 0.30285 0.22662 0.0
C1677 C 0.31396 0.26578 0.21959 0.0
N1678 N 0.30395 0.33678 0.22744 0.0
N1679 N 0.30316 0.28286 0.21737 0.0
H1680 H 0.77744 0.63244 0.70097 0.0
H1681 H 0.78868 0.71551 0.63946 0.0
H1682 H 0.79854 0.67065 0.74866 0.0
H1683 H 0.77463 0.74769 0.69383 0.0
H1684 H 0.79482 0.68543 0.65939 0.0
H1685 H 0.77909 0.66068 0.67794 0.0
C1686 C 0.78287 0.64672 0.70647 0.0
C1687 C 0.78776 0.64928 0.72673 0.0
C1688 C 0.79026 0.69905 0.66692 0.0
C1689 C 0.78973 0.6817 0.70046 0.0
C1690 C 0.78677 0.71625 0.65556 0.0
C1691 C 0.78101 0.73416 0.66496 0.0
C1692 C 0.78789 0.69976 0.68783 0.0
C1693 C 0.77915 0.73428 0.68593 0.0
C1694 C 0.78393 0.66282 0.69327 0.0
C1695 C 0.79464 0.66807 0.73313 0.0
N1696 N 0.78258 0.71734 0.69666 0.0
N1697 N 0.79503 0.68373 0.72008 0.0
H1698 H 0.36988 0.76907 0.69773 0.0
H1699 H 0.25176 0.77484 0.69382 0.0
H1700 H 0.33467 0.79451 0.74563 0.0
H1701 H 0.28776 0.76965 0.64027 0.0
H1702 H 0.28201 0.7811 0.7132 0.0
H1703 H 0.34029 0.76932 0.67624 0.0
C1704 C 0.35596 0.775 0.70363 0.0
C1705 C 0.35462 0.78149 0.72357 0.0
C1706 C 0.28328 0.77871 0.6972 0.0
C1707 C 0.32064 0.7814 0.69923 0.0
C1708 C 0.26601 0.77502 0.68609 0.0
C1709 C 0.26714 0.77175 0.66531 0.0
C1710 C 0.30195 0.77882 0.68757 0.0
C1711 C 0.28612 0.772 0.65624 0.0
C1712 C 0.33908 0.77511 0.69136 0.0
C1713 C 0.3363 0.78918 0.73041 0.0
N1714 N 0.3028 0.77537 0.66746 0.0
N1715 N 0.31989 0.78858 0.71835 0.0
H1716 H 0.19784 0.33696 0.74385 0.0
H1717 H 0.22933 0.28755 0.63897 0.0
H1718 H 0.22956 0.36866 0.69725 0.0
H1719 H 0.21033 0.25319 0.6904 0.0
H1720 H 0.22528 0.31824 0.65855 0.0
H1721 H 0.19743 0.30702 0.72259 0.0
C1722 C 0.20446 0.33772 0.72906 0.0
C1723 C 0.21394 0.35527 0.7224 0.0
C1724 C 0.22197 0.30397 0.66553 0.0
C1725 C 0.21359 0.32112 0.69806 0.0
C1726 C 0.22432 0.28642 0.65436 0.0
C1727 C 0.22028 0.26769 0.66305 0.0
C1728 C 0.21539 0.30284 0.68551 0.0
C1729 C 0.21372 0.26724 0.68308 0.0
C1730 C 0.20433 0.3206 0.71698 0.0
C1731 C 0.22223 0.3554 0.70306 0.0
N1732 N 0.21147 0.28453 0.69361 0.0
N1733 N 0.22196 0.33857 0.69163 0.0
H1734 H 0.70423 0.24758 0.63045 0.0
H1735 H 0.65484 0.21409 0.73398 0.0
H1736 H 0.73818 0.23102 0.68305 0.0
H1737 H 0.62356 0.25231 0.69218 0.0
H1738 H 0.68437 0.21537 0.71249 0.0
H1739 H 0.67337 0.24556 0.65042 0.0
C1740 C 0.70523 0.24363 0.64616 0.0
C1741 C 0.72386 0.23948 0.65506 0.0
C1742 C 0.67101 0.22341 0.70798 0.0
C1743 C 0.68871 0.23678 0.67775 0.0
C1744 C 0.6541 0.22259 0.72019 0.0
C1745 C 0.63677 0.23326 0.71495 0.0
C1746 C 0.67053 0.23476 0.69027 0.0
C1747 C 0.63666 0.24394 0.69681 0.0
C1748 C 0.68764 0.24247 0.65751 0.0
C1749 C 0.72423 0.23443 0.6755 0.0
N1750 N 0.65334 0.24446 0.68509 0.0
N1751 N 0.70694 0.23308 0.68607 0.0
H1752 H 0.74762 0.36758 0.29974 0.0
H1753 H 0.77596 0.25243 0.30471 0.0
H1754 H 0.78723 0.33916 0.25724 0.0
H1755 H 0.75354 0.28455 0.35624 0.0
H1756 H 0.779 0.28396 0.28671 0.0
H1757 H 0.74903 0.33753 0.32064 0.0
C1758 C 0.75681 0.3551 0.29493 0.0
C1759 C 0.76716 0.35576 0.27663 0.0
C1760 C 0.7735 0.28415 0.30198 0.0
C1761 C 0.76857 0.32128 0.30029 0.0
C1762 C 0.77161 0.2661 0.31227 0.0
C1763 C 0.7644 0.26578 0.33205 0.0
C1764 C 0.76783 0.30207 0.31136 0.0
C1765 C 0.75913 0.28407 0.34102 0.0
C1766 C 0.7576 0.33796 0.30686 0.0
C1767 C 0.77892 0.33924 0.27116 0.0
N1768 N 0.7608 0.30148 0.33054 0.0
N1769 N 0.77908 0.32254 0.28282 0.0
H1770 H 0.62843 0.75919 0.30272 0.0
H1771 H 0.74454 0.78264 0.31493 0.0
H1772 H 0.66118 0.79768 0.26237 0.0
H1773 H 0.7089 0.75699 0.36248 0.0
H1774 H 0.71418 0.78793 0.2954 0.0
H1775 H 0.65749 0.7583 0.32496 0.0
C1776 C 0.64168 0.76765 0.29865 0.0
C1777 C 0.64246 0.77841 0.28059 0.0
C1778 C 0.71296 0.78122 0.31013 0.0
C1779 C 0.67585 0.77723 0.30585 0.0
C1780 C 0.73032 0.77805 0.32127 0.0
C1781 C 0.72931 0.76917 0.34035 0.0
C1782 C 0.69439 0.77526 0.31795 0.0
C1783 C 0.7104 0.76381 0.34784 0.0
C1784 C 0.65825 0.76712 0.31136 0.0
C1785 C 0.65995 0.78914 0.2761 0.0
N1786 N 0.69369 0.76679 0.33654 0.0
N1787 N 0.67606 0.78808 0.28854 0.0
H1788 H 0.24434 0.70243 0.3636 0.0
H1789 H 0.20584 0.65306 0.2611 0.0
H1790 H 0.21594 0.73524 0.31555 0.0
H1791 H 0.24705 0.62342 0.3012 0.0
H1792 H 0.20461 0.68154 0.28408 0.0
H1793 H 0.24127 0.67166 0.34365 0.0
C1794 C 0.23746 0.70318 0.34892 0.0
C1795 C 0.23061 0.7215 0.34117 0.0
C1796 C 0.21381 0.66873 0.28792 0.0
C1797 C 0.2268 0.68643 0.31848 0.0
C1798 C 0.21444 0.65244 0.27485 0.0
C1799 C 0.22674 0.63597 0.27914 0.0
C1800 C 0.2255 0.66851 0.30545 0.0
C1801 C 0.23749 0.63592 0.29724 0.0
C1802 C 0.2357 0.68564 0.33756 0.0
C1803 C 0.22171 0.72155 0.32207 0.0
N1804 N 0.23673 0.65201 0.30969 0.0
N1805 N 0.22007 0.70433 0.31143 0.0
H1806 H 0.29858 0.23317 0.36139 0.0
H1807 H 0.33584 0.19718 0.25292 0.0
H1808 H 0.25877 0.21391 0.31414 0.0
H1809 H 0.37378 0.22661 0.29624 0.0
H1810 H 0.30832 0.19787 0.27725 0.0
H1811 H 0.32714 0.22626 0.33944 0.0
C1812 C 0.29582 0.22751 0.34644 0.0
C1813 C 0.2762 0.22434 0.33957 0.0
C1814 C 0.32275 0.20399 0.28148 0.0
C1815 C 0.30883 0.21617 0.31444 0.0
C1816 C 0.33849 0.20348 0.26763 0.0
C1817 C 0.35702 0.21211 0.27248 0.0
C1818 C 0.32568 0.21309 0.30028 0.0
C1819 C 0.35964 0.22001 0.2918 0.0
C1820 C 0.31213 0.2235 0.33392 0.0
C1821 C 0.27359 0.2168 0.32005 0.0
N1822 N 0.34411 0.22046 0.30492 0.0
N1823 N 0.28968 0.21302 0.30819 0.0
H1824 H 0.72724 0.81183 0.64722 0.0
H1825 H 0.64173 0.79271 0.70889 0.0
H1826 H 0.72644 0.74722 0.64541 0.0
H1827 H 0.68189 0.74854 0.73365 0.0
H1828 H 0.66575 0.79848 0.68137 0.0
H1829 H 0.70274 0.81076 0.67506 0.0
C1830 C 0.72189 0.79751 0.65267 0.0
C1831 C 0.72848 0.7796 0.64388 0.0
C1832 C 0.66922 0.78759 0.6929 0.0
C1833 C 0.70124 0.77827 0.67553 0.0
C1834 C 0.65548 0.78409 0.70835 0.0
C1835 C 0.65987 0.76998 0.7233 0.0
C1836 C 0.68706 0.77648 0.69229 0.0
C1837 C 0.678 0.75945 0.72228 0.0
C1838 C 0.70794 0.79692 0.66837 0.0
C1839 C 0.72137 0.76136 0.65154 0.0
N1840 N 0.69082 0.76267 0.70681 0.0
N1841 N 0.70831 0.76116 0.66708 0.0
H1842 H 0.69453 0.22752 0.36621 0.0
H1843 H 0.68103 0.1989 0.25099 0.0
H1844 H 0.73687 0.19196 0.33264 0.0
H1845 H 0.63835 0.23485 0.28375 0.0
H1846 H 0.69971 0.19348 0.28182 0.0
H1847 H 0.672 0.22738 0.33742 0.0
C1848 C 0.69898 0.21944 0.35285 0.0
C1849 C 0.71772 0.20992 0.35173 0.0
C1850 C 0.68637 0.20268 0.28226 0.0
C1851 C 0.69203 0.20988 0.31864 0.0
C1852 C 0.67569 0.20588 0.26464 0.0
C1853 C 0.65825 0.2177 0.2647 0.0
C1854 C 0.67986 0.21159 0.30011 0.0
C1855 C 0.65181 0.22582 0.28298 0.0
C1856 C 0.68611 0.21942 0.3364 0.0
C1857 C 0.72263 0.19959 0.33412 0.0
N1858 N 0.66274 0.22279 0.29995 0.0
N1859 N 0.70995 0.20003 0.31818 0.0
H1860 H 0.78271 0.68476 0.2564 0.0
H1861 H 0.76074 0.69356 0.37332 0.0
H1862 H 0.75684 0.63668 0.29116 0.0
H1863 H 0.79772 0.73562 0.341 0.0
H1864 H 0.75965 0.67221 0.34364 0.0
H1865 H 0.78826 0.70359 0.28719 0.0
C1866 C 0.77811 0.67816 0.2705 0.0
C1867 C 0.76912 0.65912 0.27113 0.0
C1868 C 0.76819 0.686 0.34308 0.0
C1869 C 0.77554 0.68069 0.30655 0.0
C1870 C 0.76885 0.69819 0.36004 0.0
C1871 C 0.77918 0.7165 0.35957 0.0
C1872 C 0.77775 0.69225 0.32542 0.0
C1873 C 0.78948 0.7217 0.342 0.0
C1874 C 0.78143 0.6889 0.28811 0.0
C1875 C 0.76374 0.6513 0.28991 0.0
N1876 N 0.7883 0.70975 0.32552 0.0
N1877 N 0.7669 0.66218 0.30685 0.0
H1878 H 0.25683 0.79484 0.34196 0.0
H1879 H 0.36167 0.7637 0.29253 0.0
H1880 H 0.3019 0.76052 0.37319 0.0
H1881 H 0.31005 0.78305 0.25859 0.0
H1882 H 0.34203 0.76704 0.32337 0.0
H1883 H 0.27857 0.79581 0.31248 0.0
C1884 C 0.27139 0.78773 0.34272 0.0
C1885 C 0.27748 0.7774 0.35998 0.0
C1886 C 0.33506 0.77058 0.30915 0.0
C1887 C 0.3024 0.77841 0.32632 0.0
C1888 C 0.34625 0.76867 0.29154 0.0
C1889 C 0.33747 0.77294 0.2729 0.0
C1890 C 0.31504 0.77702 0.30812 0.0
C1891 C 0.31742 0.77938 0.27257 0.0
C1892 C 0.28376 0.7882 0.32585 0.0
C1893 C 0.29656 0.76853 0.36013 0.0
N1894 N 0.30691 0.78124 0.28989 0.0
N1895 N 0.30831 0.76914 0.34351 0.0
H1896 H 0.20182 0.25766 0.34733 0.0
H1897 H 0.21161 0.30712 0.25663 0.0
H1898 H 0.24592 0.30013 0.36812 0.0
H1899 H 0.23256 0.35768 0.29117 0.0
H1900 H 0.20912 0.2876 0.28722 0.0
H1901 H 0.19689 0.27804 0.31732 0.0
C1902 C 0.21042 0.2713 0.34559 0.0
C1903 C 0.22454 0.27704 0.36004 0.0
C1904 C 0.21382 0.30307 0.28827 0.0
C1905 C 0.2195 0.30014 0.32549 0.0
C1906 C 0.21551 0.31421 0.2707 0.0
C1907 C 0.22239 0.33409 0.27127 0.0
C1908 C 0.2191 0.31184 0.30666 0.0
C1909 C 0.22721 0.34241 0.28998 0.0
C1910 C 0.20779 0.28283 0.32832 0.0
C1911 C 0.23506 0.29502 0.3572 0.0
N1912 N 0.22568 0.33116 0.30691 0.0
N1913 N 0.23242 0.30587 0.34019 0.0
H1914 H 0.3559 0.2229 0.70707 0.0
H1915 H 0.24722 0.19776 0.66297 0.0
H1916 H 0.30363 0.21285 0.74393 0.0
H1917 H 0.29505 0.22418 0.6284 0.0
H1918 H 0.26976 0.19592 0.69193 0.0
H1919 H 0.33549 0.21677 0.67729 0.0
C1920 C 0.34016 0.21938 0.70894 0.0
C1921 C 0.33144 0.2186 0.72805 0.0
C1922 C 0.27535 0.20189 0.67791 0.0
C1923 C 0.30809 0.21134 0.69404 0.0
C1924 C 0.26254 0.20283 0.66137 0.0
C1925 C 0.26923 0.21144 0.64341 0.0
C1926 C 0.29496 0.20943 0.6763 0.0
C1927 C 0.28924 0.2177 0.64209 0.0
C1928 C 0.32854 0.21582 0.69193 0.0
C1929 C 0.31099 0.21376 0.72951 0.0
N1930 N 0.30136 0.21672 0.65837 0.0
N1931 N 0.29999 0.21037 0.71273 0.0
H1932 H 0.76316 0.30323 0.61049 0.0
H1933 H 0.77796 0.32155 0.72678 0.0
H1934 H 0.79649 0.26318 0.64881 0.0
H1935 H 0.75869 0.36845 0.68652 0.0
H1936 H 0.78517 0.30028 0.6981 0.0
H1937 H 0.76264 0.32802 0.63741 0.0
C1938 C 0.77066 0.29977 0.62446 0.0
C1939 C 0.77956 0.28096 0.62755 0.0
C1940 C 0.77948 0.31526 0.6955 0.0
C1941 C 0.77872 0.30912 0.6585 0.0
C1942 C 0.77516 0.32739 0.7119 0.0
C1943 C 0.76747 0.34679 0.70909 0.0
C1944 C 0.77588 0.3224 0.67606 0.0
C1945 C 0.76448 0.35357 0.6894 0.0
C1946 C 0.77032 0.31392 0.63983 0.0
C1947 C 0.78921 0.27736 0.64586 0.0
N1948 N 0.76852 0.3413 0.67361 0.0
N1949 N 0.78824 0.29119 0.66078 0.0
H1950 H 0.2157 0.68879 0.74522 0.0
H1951 H 0.23049 0.69893 0.6277 0.0
H1952 H 0.23341 0.63878 0.70817 0.0
H1953 H 0.19828 0.74229 0.66327 0.0
H1954 H 0.23144 0.67642 0.65654 0.0
H1955 H 0.21 0.70867 0.71521 0.0
C1956 C 0.21846 0.68196 0.73078 0.0
C1957 C 0.22513 0.66203 0.7293 0.0
C1958 C 0.22395 0.69074 0.65798 0.0
C1959 C 0.21846 0.68487 0.69472 0.0
C1960 C 0.22335 0.7036 0.64152 0.0
C1961 C 0.21451 0.72263 0.64317 0.0
C1962 C 0.21586 0.69705 0.67631 0.0
C1963 C 0.20539 0.72784 0.66136 0.0
C1964 C 0.21503 0.69332 0.71363 0.0
C1965 C 0.22834 0.65407 0.71008 0.0
N1966 N 0.20656 0.71523 0.67733 0.0
N1967 N 0.22508 0.66556 0.69353 0.0
H1968 H 0.17439 0.40087 0.25025 0.0
H1969 H 0.09371 0.31712 0.24613 0.0
H1970 H 0.15732 0.36599 0.19854 0.0
H1971 H 0.12735 0.33603 0.29802 0.0
H1972 H 0.10188 0.34871 0.22976 0.0
H1973 H 0.14294 0.3917 0.26636 0.0
C1974 C 0.16369 0.39203 0.24183 0.0
C1975 C 0.169 0.38327 0.22341 0.0
C1976 C 0.10677 0.34629 0.24506 0.0
C1977 C 0.13305 0.37273 0.2419 0.0
C1978 C 0.10205 0.32823 0.25452 0.0
C1979 C 0.11081 0.32345 0.27308 0.0
C1980 C 0.12021 0.35956 0.25431 0.0
C1981 C 0.12102 0.33873 0.28333 0.0
C1982 C 0.14571 0.38675 0.25115 0.0
C1983 C 0.15422 0.37238 0.21313 0.0
N1984 N 0.126 0.35588 0.27355 0.0
N1985 N 0.13716 0.36687 0.22278 0.0
H1986 H 0.68234 0.09436 0.26306 0.0
H1987 H 0.59505 0.17178 0.24921 0.0
H1988 H 0.66213 0.13755 0.30681 0.0
H1989 H 0.63409 0.14958 0.20264 0.0
H1990 H 0.60624 0.14471 0.27099 0.0
H1991 H 0.65183 0.10012 0.24383 0.0
C1992 C 0.67117 0.10445 0.26914 0.0
C1993 C 0.67529 0.11623 0.28615 0.0
C1994 C 0.61171 0.1453 0.25572 0.0
C1995 C 0.6403 0.12267 0.26416 0.0
C1996 C 0.60527 0.16072 0.24314 0.0
C1997 C 0.61443 0.16358 0.22435 0.0
C1998 C 0.62713 0.13255 0.24931 0.0
C1999 C 0.6272 0.14842 0.21728 0.0
C2000 C 0.65373 0.10773 0.25805 0.0
C2001 C 0.65994 0.12865 0.29342 0.0
N2002 N 0.63365 0.13387 0.22999 0.0
N2003 N 0.64334 0.13198 0.28208 0.0
H2004 H 0.8138 0.59173 0.25231 0.0
H2005 H 0.89723 0.67325 0.24829 0.0
H2006 H 0.83289 0.62488 0.20016 0.0
H2007 H 0.8605 0.65791 0.29927 0.0
H2008 H 0.88817 0.64151 0.23268 0.0
H2009 H 0.84483 0.60102 0.26914 0.0
C2010 C 0.82487 0.60018 0.24397 0.0
C2011 C 0.82024 0.60847 0.22515 0.0
C2012 C 0.88277 0.64474 0.24764 0.0
C2013 C 0.85572 0.6191 0.24444 0.0
C2014 C 0.88797 0.66288 0.25667 0.0
C2015 C 0.87876 0.66873 0.27471 0.0
C2016 C 0.86842 0.63241 0.25681 0.0
C2017 C 0.8673 0.65438 0.28497 0.0
C2018 C 0.8426 0.60554 0.2537 0.0
C2019 C 0.83547 0.61886 0.21501 0.0
N2020 N 0.86195 0.63711 0.27561 0.0
N2021 N 0.85229 0.62444 0.22502 0.0
H2022 H 0.36444 0.83801 0.19551 0.0
H2023 H 0.3125 0.90803 0.24036 0.0
H2024 H 0.39631 0.82705 0.25068 0.0
H2025 H 0.32566 0.87033 0.29125 0.0
H2026 H 0.34472 0.89885 0.22571 0.0
H2027 H 0.35244 0.86952 0.20907 0.0
C2028 C 0.36966 0.84265 0.21017 0.0
C2029 C 0.38068 0.82945 0.22227 0.0
C2030 C 0.34076 0.89294 0.24029 0.0
C2031 C 0.36672 0.86551 0.23817 0.0
C2032 C 0.32243 0.89837 0.24884 0.0
C2033 C 0.31593 0.88912 0.26663 0.0
C2034 C 0.35247 0.87812 0.2496 0.0
C2035 C 0.32971 0.87718 0.27711 0.0
C2036 C 0.36281 0.8608 0.21798 0.0
C2037 C 0.38732 0.83646 0.24099 0.0
N2038 N 0.3471 0.87157 0.26817 0.0
N2039 N 0.37953 0.85362 0.24871 0.0
H2040 H 0.094 0.67985 0.73825 0.0
H2041 H 0.15711 0.63199 0.79565 0.0
H2042 H 0.13769 0.66339 0.69346 0.0
H2043 H 0.17639 0.59721 0.74467 0.0
H2044 H 0.12771 0.64236 0.77704 0.0
H2045 H 0.1012 0.64882 0.75613 0.0
C2046 C 0.10465 0.66945 0.73176 0.0
C2047 C 0.11613 0.67483 0.7149 0.0
C2048 C 0.13778 0.63172 0.77009 0.0
C2049 C 0.12486 0.63965 0.73572 0.0
C2050 C 0.15474 0.6258 0.78083 0.0
C2051 C 0.16975 0.61447 0.77142 0.0
C2052 C 0.13607 0.62652 0.74971 0.0
C2053 C 0.16556 0.60655 0.75234 0.0
C2054 C 0.10894 0.6518 0.74218 0.0
C2055 C 0.12912 0.66034 0.7069 0.0
N2056 N 0.14954 0.6134 0.7418 0.0
N2057 N 0.13361 0.6437 0.71772 0.0
H2058 H 0.39737 0.172 0.74929 0.0
H2059 H 0.31454 0.08901 0.75346 0.0
H2060 H 0.36034 0.15721 0.80023 0.0
H2061 H 0.3314 0.12366 0.70149 0.0
H2062 H 0.34529 0.09958 0.77004 0.0
H2063 H 0.38754 0.14059 0.73348 0.0
C2064 C 0.3879 0.1618 0.75763 0.0
C2065 C 0.37891 0.16772 0.77577 0.0
C2066 C 0.34264 0.10417 0.75469 0.0
C2067 C 0.36777 0.13172 0.75766 0.0
C2068 C 0.32508 0.09808 0.74509 0.0
C2069 C 0.31984 0.10633 0.72639 0.0
C2070 C 0.35508 0.11831 0.74538 0.0
C2071 C 0.33443 0.11757 0.71622 0.0
C2072 C 0.38225 0.14385 0.74848 0.0
C2073 C 0.36708 0.15359 0.78592 0.0
N2074 N 0.35114 0.12376 0.7261 0.0
N2075 N 0.36138 0.13648 0.77648 0.0
H2076 H 0.82652 0.38169 0.78665 0.0
H2077 H 0.86274 0.32471 0.69831 0.0
H2078 H 0.81611 0.40347 0.72669 0.0
H2079 H 0.89442 0.32189 0.75462 0.0
H2080 H 0.85207 0.35867 0.70646 0.0
H2081 H 0.85769 0.36646 0.77529 0.0
C2082 C 0.83121 0.38401 0.77128 0.0
C2083 C 0.81829 0.39316 0.75744 0.0
C2084 C 0.86192 0.35093 0.71678 0.0
C2085 C 0.85351 0.37508 0.74413 0.0
C2086 C 0.86801 0.33147 0.7121 0.0
C2087 C 0.87892 0.32017 0.7261 0.0
C2088 C 0.86628 0.35887 0.73581 0.0
C2089 C 0.88562 0.32986 0.74356 0.0
C2090 C 0.84902 0.3752 0.76472 0.0
C2091 C 0.82533 0.39605 0.73779 0.0
N2092 N 0.8786 0.34839 0.74826 0.0
N2093 N 0.84206 0.3863 0.7315 0.0
H2094 H 0.67497 0.89459 0.73106 0.0
H2095 H 0.58913 0.81527 0.73628 0.0
H2096 H 0.6595 0.85113 0.68568 0.0
H2097 H 0.62409 0.83738 0.786 0.0
H2098 H 0.60037 0.84359 0.71623 0.0
H2099 H 0.64276 0.88866 0.7472 0.0
C2100 C 0.66453 0.88441 0.72394 0.0
C2101 C 0.67039 0.87259 0.70749 0.0
C2102 C 0.60485 0.84271 0.73182 0.0
C2103 C 0.63346 0.86598 0.72591 0.0
C2104 C 0.59838 0.82655 0.7434 0.0
C2105 C 0.60667 0.8233 0.76253 0.0
C2106 C 0.61936 0.85575 0.73959 0.0
C2107 C 0.61805 0.83881 0.77101 0.0
C2108 C 0.6461 0.88107 0.73324 0.0
C2109 C 0.65594 0.86005 0.69876 0.0
N2110 N 0.62464 0.85407 0.75925 0.0
N2111 N 0.63833 0.85664 0.70841 0.0
H2112 H 0.21035 0.16116 0.37762 0.0
H2113 H 0.3114 0.14218 0.33777 0.0
H2114 H 0.26312 0.18228 0.40841 0.0
H2115 H 0.26215 0.10232 0.32481 0.0
H2116 H 0.29665 0.14913 0.37039 0.0
H2117 H 0.22905 0.13193 0.36646 0.0
C2118 C 0.22564 0.15928 0.38275 0.0
C2119 C 0.23547 0.17478 0.393 0.0
C2120 C 0.28936 0.13831 0.36074 0.0
C2121 C 0.25722 0.14173 0.37965 0.0
C2122 C 0.29784 0.13432 0.34203 0.0
C2123 C 0.28753 0.12239 0.32812 0.0
C2124 C 0.27019 0.13078 0.36525 0.0
C2125 C 0.2703 0.11221 0.33475 0.0
C2126 C 0.23642 0.14256 0.37627 0.0
C2127 C 0.25511 0.17114 0.39976 0.0
N2128 N 0.26175 0.11724 0.35253 0.0
N2129 N 0.26564 0.15544 0.3922 0.0
H2130 H 0.86848 0.30116 0.33912 0.0
H2131 H 0.81738 0.24253 0.39936 0.0
H2132 H 0.90514 0.25063 0.32229 0.0
H2133 H 0.83478 0.19989 0.3539 0.0
H2134 H 0.84871 0.26055 0.3939 0.0
H2135 H 0.85623 0.2823 0.36766 0.0
C2136 C 0.87472 0.28643 0.34193 0.0
C2137 C 0.88699 0.2771 0.32762 0.0
C2138 C 0.84586 0.247 0.38545 0.0
C2139 C 0.87276 0.25516 0.3602 0.0
C2140 C 0.82801 0.23654 0.38865 0.0
C2141 C 0.82296 0.22017 0.37636 0.0
C2142 C 0.85862 0.24104 0.36982 0.0
C2143 C 0.83766 0.21286 0.36321 0.0
C2144 C 0.86767 0.27555 0.35835 0.0
C2145 C 0.89498 0.25819 0.33244 0.0
N2146 N 0.8546 0.22365 0.35992 0.0
N2147 N 0.88699 0.24745 0.34778 0.0
H2148 H 0.7009 0.86775 0.34307 0.0
H2149 H 0.8024 0.8319 0.36933 0.0
H2150 H 0.75339 0.90206 0.3273 0.0
H2151 H 0.75123 0.81634 0.40569 0.0
H2152 H 0.7864 0.86366 0.36115 0.0
H2153 H 0.7182 0.85575 0.37286 0.0
C2154 C 0.71578 0.8734 0.34624 0.0
C2155 C 0.726 0.88519 0.33213 0.0
C2156 C 0.77892 0.85364 0.3715 0.0
C2157 C 0.74618 0.87095 0.36588 0.0
C2158 C 0.78813 0.83545 0.37622 0.0
C2159 C 0.77778 0.82101 0.38748 0.0
C2160 C 0.75905 0.8571 0.37763 0.0
C2161 C 0.75953 0.82671 0.39637 0.0
C2162 C 0.72574 0.86647 0.3633 0.0
C2163 C 0.7451 0.89241 0.33737 0.0
N2164 N 0.75037 0.84396 0.39061 0.0
N2165 N 0.7549 0.88452 0.35339 0.0
H2166 H 0.17923 0.73903 0.40161 0.0
H2167 H 0.0949 0.75246 0.32168 0.0
H2168 H 0.16176 0.79432 0.37298 0.0
H2169 H 0.12851 0.69845 0.33342 0.0
H2170 H 0.10551 0.76564 0.35406 0.0
H2171 H 0.1476 0.72404 0.39113 0.0
C2172 C 0.1684 0.74837 0.39392 0.0
C2173 C 0.17354 0.76771 0.38734 0.0
C2174 C 0.1099 0.75058 0.34989 0.0
C2175 C 0.13742 0.75054 0.37528 0.0
C2176 C 0.10377 0.74294 0.3314 0.0
C2177 C 0.11163 0.72468 0.32441 0.0
C2178 C 0.12384 0.73982 0.36139 0.0
C2179 C 0.12272 0.71294 0.33789 0.0
C2180 C 0.15034 0.73971 0.38786 0.0
C2181 C 0.1587 0.77911 0.37773 0.0
N2182 N 0.12901 0.72095 0.35552 0.0
N2183 N 0.14152 0.77018 0.37146 0.0
H2184 H 0.19935 0.83957 0.63896 0.0
H2185 H 0.30346 0.86803 0.66347 0.0
H2186 H 0.24871 0.82265 0.60075 0.0
H2187 H 0.25323 0.90343 0.68362 0.0
H2188 H 0.28478 0.8594 0.63338 0.0
H2189 H 0.21725 0.87005 0.6479 0.0
C2190 C 0.21363 0.84258 0.63186 0.0
C2191 C 0.2229 0.82804 0.61982 0.0
C2192 C 0.27804 0.86965 0.64401 0.0
C2193 C 0.24382 0.86265 0.6305 0.0
C2194 C 0.28881 0.87467 0.66124 0.0
C2195 C 0.27951 0.88557 0.67664 0.0
C2196 C 0.25775 0.87518 0.64253 0.0
C2197 C 0.26074 0.89425 0.67255 0.0
C2198 C 0.22393 0.86005 0.63701 0.0
C2199 C 0.24122 0.83307 0.61067 0.0
N2200 N 0.2501 0.88817 0.65629 0.0
N2201 N 0.25145 0.84957 0.61682 0.0
H2202 H 0.1531 0.19835 0.62853 0.0
H2203 H 0.13063 0.30117 0.66155 0.0
H2204 H 0.17283 0.25038 0.59562 0.0
H2205 H 0.09545 0.25032 0.68042 0.0
H2206 H 0.13631 0.28485 0.62946 0.0
H2207 H 0.12291 0.21634 0.63812 0.0
C2208 C 0.15075 0.2133 0.62264 0.0
C2209 C 0.16609 0.22327 0.61226 0.0
C2210 C 0.12676 0.27747 0.64031 0.0
C2211 C 0.13191 0.24425 0.62384 0.0
C2212 C 0.12349 0.28687 0.65871 0.0
C2213 C 0.11346 0.27664 0.67411 0.0
C2214 C 0.12051 0.25751 0.63764 0.0
C2215 C 0.104 0.25845 0.66929 0.0
C2216 C 0.13346 0.22368 0.62821 0.0
C2217 C 0.16182 0.24236 0.60444 0.0
N2218 N 0.10843 0.24907 0.65177 0.0
N2219 N 0.14553 0.25258 0.61112 0.0
H2220 H 0.75399 0.09074 0.68237 0.0
H2221 H 0.79604 0.16467 0.63129 0.0
H2222 H 0.70429 0.13209 0.67977 0.0
H2223 H 0.73843 0.1782 0.60526 0.0
H2224 H 0.78237 0.13357 0.6445 0.0
H2225 H 0.76546 0.1031 0.64992 0.0
C2226 C 0.74503 0.10191 0.6747 0.0
C2227 C 0.72865 0.1111 0.68428 0.0
C2228 C 0.77288 0.14281 0.63512 0.0
C2229 C 0.74202 0.12552 0.64742 0.0
C2230 C 0.78072 0.16069 0.62764 0.0
C2231 C 0.76824 0.17429 0.61761 0.0
C2232 C 0.75229 0.13881 0.63297 0.0
C2233 C 0.74854 0.1683 0.61319 0.0
C2234 C 0.75178 0.1091 0.65624 0.0
C2235 C 0.71744 0.12512 0.67331 0.0
N2236 N 0.74094 0.15136 0.62158 0.0
N2237 N 0.72464 0.1323 0.65568 0.0
H2238 H 0.84301 0.80497 0.64147 0.0
H2239 H 0.87378 0.7015 0.66337 0.0
H2240 H 0.82935 0.75761 0.59959 0.0
H2241 H 0.91057 0.75101 0.68282 0.0
H2242 H 0.86386 0.72094 0.63413 0.0
H2243 H 0.87359 0.78733 0.65075 0.0
C2244 C 0.8468 0.79126 0.63362 0.0
C2245 C 0.83311 0.78238 0.62035 0.0
C2246 C 0.87469 0.72733 0.64439 0.0
C2247 C 0.8678 0.76175 0.6314 0.0
C2248 C 0.88044 0.71613 0.66112 0.0
C2249 C 0.89227 0.72494 0.67613 0.0
C2250 C 0.88043 0.74756 0.64299 0.0
C2251 C 0.90079 0.74381 0.67206 0.0
C2252 C 0.86431 0.78111 0.63898 0.0
C2253 C 0.8391 0.76477 0.61039 0.0
N2254 N 0.89403 0.75485 0.65633 0.0
N2255 N 0.85558 0.75461 0.61672 0.0
H2256 H 0.31771 0.24838 0.08704 0.0
H2257 H 0.39831 0.24802 0.17214 0.0
H2258 H 0.33486 0.29887 0.12365 0.0
H2259 H 0.36011 0.19875 0.15487 0.0
H2260 H 0.38985 0.26503 0.14093 0.0
H2261 H 0.34799 0.23094 0.09754 0.0
C2262 C 0.32824 0.25627 0.09654 0.0
C2263 C 0.32312 0.27469 0.10546 0.0
C2264 C 0.38399 0.25014 0.14363 0.0
C2265 C 0.35781 0.25475 0.11732 0.0
C2266 C 0.38881 0.24032 0.16147 0.0
C2267 C 0.37918 0.22227 0.16657 0.0
C2268 C 0.36964 0.24173 0.1308 0.0
C2269 C 0.36734 0.21296 0.15189 0.0
C2270 C 0.34554 0.24618 0.10258 0.0
C2271 C 0.33775 0.2843 0.11712 0.0
N2272 N 0.36247 0.22304 0.13487 0.0
N2273 N 0.35417 0.27394 0.12328 0.0
H2274 H 0.36732 0.7931 0.84046 0.0
H2275 H 0.33765 0.68894 0.86168 0.0
H2276 H 0.40237 0.74298 0.81948 0.0
H2277 H 0.32 0.73769 0.90032 0.0
H2278 H 0.36879 0.70645 0.85448 0.0
H2279 H 0.35829 0.77387 0.87009 0.0
C2280 C 0.37377 0.77833 0.84242 0.0
C2281 C 0.38475 0.76929 0.82693 0.0
C2282 C 0.35846 0.71307 0.8651 0.0
C2283 C 0.37388 0.74688 0.86049 0.0
C2284 C 0.34062 0.70298 0.86928 0.0
C2285 C 0.32569 0.71232 0.88078 0.0
C2286 C 0.36105 0.73281 0.87204 0.0
C2287 C 0.33071 0.73023 0.89068 0.0
C2288 C 0.36854 0.76725 0.85939 0.0
C2289 C 0.39318 0.75033 0.83065 0.0
N2290 N 0.34759 0.74032 0.88543 0.0
N2291 N 0.38688 0.73941 0.84664 0.0
H2292 H 0.30732 0.33638 0.86064 0.0
H2293 H 0.25151 0.40467 0.8185 0.0
H2294 H 0.25837 0.32139 0.90015 0.0
H2295 H 0.2049 0.36477 0.83897 0.0
H2296 H 0.27146 0.39576 0.84778 0.0
H2297 H 0.29051 0.36743 0.85215 0.0
C2298 C 0.29342 0.33999 0.86822 0.0
C2299 C 0.28382 0.32576 0.88037 0.0
C2300 C 0.2567 0.38926 0.84608 0.0
C2301 C 0.26419 0.36137 0.87053 0.0
C2302 C 0.24511 0.39453 0.82945 0.0
C2303 C 0.22694 0.38453 0.82563 0.0
C2304 C 0.25005 0.37384 0.85877 0.0
C2305 C 0.21922 0.37216 0.84079 0.0
C2306 C 0.28374 0.3579 0.86339 0.0
C2307 C 0.26605 0.33156 0.89011 0.0
N2308 N 0.23109 0.36666 0.85639 0.0
N2309 N 0.25638 0.34853 0.88432 0.0
H2310 H 0.62168 0.20147 0.82661 0.0
H2311 H 0.66693 0.29168 0.87331 0.0
H2312 H 0.59739 0.26062 0.81734 0.0
H2313 H 0.67526 0.23263 0.89816 0.0
H2314 H 0.63402 0.28161 0.86117 0.0
H2315 H 0.63248 0.21149 0.86 0.0
C2316 C 0.61789 0.21634 0.83192 0.0
C2317 C 0.60937 0.23047 0.81889 0.0
C2318 C 0.64266 0.27099 0.8699 0.0
C2319 C 0.62244 0.24234 0.85675 0.0
C2320 C 0.66148 0.27681 0.8769 0.0
C2321 C 0.67409 0.26277 0.88615 0.0
C2322 C 0.63682 0.2508 0.87152 0.0
C2323 C 0.66617 0.24382 0.8907 0.0
C2324 C 0.62415 0.22213 0.85102 0.0
C2325 C 0.60443 0.24938 0.82669 0.0
N2326 N 0.64834 0.23812 0.88266 0.0
N2327 N 0.61176 0.25504 0.84483 0.0
H2328 H 0.75165 0.59836 0.8243 0.0
H2329 H 0.69864 0.66307 0.87198 0.0
H2330 H 0.79959 0.63752 0.84293 0.0
H2331 H 0.75089 0.68095 0.90553 0.0
H2332 H 0.71491 0.63172 0.86389 0.0
H2333 H 0.73429 0.60529 0.85567 0.0
C2334 C 0.75888 0.60794 0.83522 0.0
C2335 C 0.77655 0.61838 0.83041 0.0
C2336 C 0.72267 0.64195 0.87377 0.0
C2337 C 0.75628 0.62706 0.8659 0.0
C2338 C 0.71324 0.66004 0.87842 0.0
C2339 C 0.72386 0.67517 0.88845 0.0
C2340 C 0.74296 0.63924 0.87891 0.0
C2341 C 0.74243 0.67007 0.89697 0.0
C2342 C 0.74876 0.61213 0.85308 0.0
C2343 C 0.7855 0.62993 0.84554 0.0
N2344 N 0.75178 0.65289 0.89127 0.0
N2345 N 0.77495 0.6345 0.86233 0.0
H2346 H 0.67459 0.76574 0.09536 0.0
H2347 H 0.59365 0.75766 0.17922 0.0
H2348 H 0.65581 0.71189 0.12585 0.0
H2349 H 0.63165 0.80853 0.16685 0.0
H2350 H 0.60138 0.74431 0.14612 0.0
H2351 H 0.64427 0.78245 0.10696 0.0
C2352 C 0.66368 0.75706 0.10367 0.0
C2353 C 0.66826 0.73766 0.11055 0.0
C2354 C 0.60734 0.75881 0.15034 0.0
C2355 C 0.6336 0.7568 0.12379 0.0
C2356 C 0.60292 0.76654 0.16928 0.0
C2357 C 0.61288 0.78377 0.17625 0.0
C2358 C 0.62164 0.76848 0.13836 0.0
C2359 C 0.62428 0.79477 0.16241 0.0
C2360 C 0.64637 0.76672 0.11036 0.0
C2361 C 0.65327 0.72713 0.12088 0.0
N2362 N 0.62885 0.78664 0.14431 0.0
N2363 N 0.63686 0.73703 0.12775 0.0
H2364 H 0.20408 0.62707 0.1632 0.0
H2365 H 0.29955 0.67224 0.13092 0.0
H2366 H 0.26029 0.59894 0.17833 0.0
H2367 H 0.24642 0.67863 0.09461 0.0
H2368 H 0.28759 0.63957 0.14194 0.0
H2369 H 0.21896 0.63922 0.13216 0.0
C2370 C 0.21931 0.62274 0.15963 0.0
C2371 C 0.23115 0.61263 0.17377 0.0
C2372 C 0.27884 0.64775 0.13099 0.0
C2373 C 0.24855 0.62714 0.13862 0.0
C2374 C 0.28574 0.66647 0.12464 0.0
C2375 C 0.27359 0.67861 0.1125 0.0
C2376 C 0.25947 0.64148 0.12557 0.0
C2377 C 0.25603 0.6701 0.1045 0.0
C2378 C 0.22789 0.62975 0.14187 0.0
C2379 C 0.25071 0.60716 0.16813 0.0
N2380 N 0.24908 0.65241 0.11181 0.0
N2381 N 0.25907 0.61518 0.15138 0.0
H2382 H 0.79194 0.37026 0.16224 0.0
H2383 H 0.69213 0.33597 0.13581 0.0
H2384 H 0.7395 0.40487 0.1775 0.0
H2385 H 0.74364 0.31931 0.10047 0.0
H2386 H 0.70732 0.36851 0.14191 0.0
H2387 H 0.7758 0.36026 0.13116 0.0
C2388 C 0.77734 0.37643 0.15872 0.0
C2389 C 0.76658 0.38739 0.1731 0.0
C2390 C 0.71507 0.35806 0.1322 0.0
C2391 C 0.7477 0.37539 0.13787 0.0
C2392 C 0.7063 0.3394 0.12868 0.0
C2393 C 0.71709 0.32448 0.11853 0.0
C2394 C 0.73496 0.36146 0.12608 0.0
C2395 C 0.73511 0.33005 0.10912 0.0
C2396 C 0.76802 0.37064 0.14091 0.0
C2397 C 0.74802 0.39555 0.16731 0.0
N2398 N 0.7439 0.3478 0.11383 0.0
N2399 N 0.73876 0.38865 0.15055 0.0
loop_
_geom_bond_atom_site_label_1
_geom_bond_atom_site_label_2
_geom_bond_distance
_geom_bond_site_symmetry_2
_ccdc_geom_bond_type
Co0 O1 2.216 . S
Co0 O2 2.091 . S
Co0 O4 2.004 . S
Co0 O10 2.021 . S
Co0 O12 2.137 . S
Co0 O13 2.244 . S
O1 Co0 2.216 . S
O1 C8 1.247 . S
O2 Co0 2.091 . S
O2 C8 1.261 . S
C3 O12 1.247 . S
C3 O13 1.272 . S
O4 Co0 2.004 . S
O4 C9 1.259 . S
Co5 O6 2.061 . S
Co5 O11 2.052 . S
Co5 O13 2.135 . S
O6 Co5 2.061 . S
O6 C9 1.235 . S
C7 O10 1.238 . S
C7 O11 1.241 . S
C8 O1 1.247 . S
C8 O2 1.261 . S
C9 O4 1.259 . S
C9 O6 1.235 . S
O10 Co0 2.021 . S
O10 C7 1.238 . S
O11 Co5 2.052 . S
O11 C7 1.241 . S
O12 Co0 2.137 . S
O12 C3 1.247 . S
O13 Co0 2.244 . S
O13 C3 1.272 . S
O13 Co5 2.135 . S
Co14 O15 2.216 . S
Co14 O16 2.091 . S
Co14 O18 2.004 . S
Co14 O24 2.021 . S
Co14 O26 2.137 . S
Co14 O27 2.244 . S
O15 Co14 2.216 . S
O15 C22 1.247 . S
O16 Co14 2.091 . S
O16 C22 1.261 . S
C17 O26 1.247 . S
C17 O27 1.272 . S
O18 Co14 2.004 . S
O18 C23 1.259 . S
Co19 O20 2.061 . S
Co19 O25 2.052 . S
Co19 O27 2.135 . S
O20 Co19 2.061 . S
O20 C23 1.235 . S
C21 O24 1.238 . S
C21 O25 1.241 . S
C22 O15 1.247 . S
C22 O16 1.261 . S
C23 O18 1.259 . S
C23 O20 1.235 . S
O24 Co14 2.021 . S
O24 C21 1.238 . S
O25 Co19 2.052 . S
O25 C21 1.241 . S
O26 Co14 2.137 . S
O26 C17 1.247 . S
O27 Co14 2.244 . S
O27 C17 1.272 . S
O27 Co19 2.135 . S
Co28 O29 2.216 . S
Co28 O30 2.091 . S
Co28 O32 2.004 . S
Co28 O38 2.021 . S
Co28 O40 2.137 . S
Co28 O41 2.244 . S
O29 Co28 2.216 . S
O29 C36 1.247 . S
O30 Co28 2.091 . S
O30 C36 1.261 . S
C31 O40 1.247 . S
C31 O41 1.272 . S
O32 Co28 2.004 . S
O32 C37 1.259 . S
Co33 O34 2.061 . S
Co33 O39 2.052 . S
Co33 O41 2.135 . S
O34 Co33 2.061 . S
O34 C37 1.235 . S
C35 O38 1.238 . S
C35 O39 1.241 . S
C36 O29 1.247 . S
C36 O30 1.261 . S
C37 O32 1.259 . S
C37 O34 1.235 . S
O38 Co28 2.021 . S
O38 C35 1.238 . S
O39 Co33 2.052 . S
O39 C35 1.241 . S
O40 Co28 2.137 . S
O40 C31 1.247 . S
O41 Co28 2.244 . S
O41 C31 1.272 . S
O41 Co33 2.135 . S
Co42 O43 2.216 . S
Co42 O44 2.091 . S
Co42 O46 2.004 . S
Co42 O52 2.021 . S
Co42 O54 2.137 . S
Co42 O55 2.244 . S
O43 Co42 2.216 . S
O43 C50 1.247 . S
O44 Co42 2.091 . S
O44 C50 1.261 . S
C45 O54 1.247 . S
C45 O55 1.272 . S
O46 Co42 2.004 . S
O46 C51 1.259 . S
Co47 O48 2.061 . S
Co47 O53 2.052 . S
Co47 O55 2.135 . S
O48 Co47 2.061 . S
O48 C51 1.235 . S
C49 O52 1.238 . S
C49 O53 1.241 . S
C50 O43 1.247 . S
C50 O44 1.261 . S
C51 O46 1.259 . S
C51 O48 1.235 . S
O52 Co42 2.021 . S
O52 C49 1.238 . S
O53 Co47 2.052 . S
O53 C49 1.241 . S
O54 Co42 2.137 . S
O54 C45 1.247 . S
O55 Co42 2.244 . S
O55 C45 1.272 . S
O55 Co47 2.135 . S
Co56 O57 2.216 . S
Co56 O58 2.091 . S
Co56 O60 2.004 . S
Co56 O66 2.021 . S
Co56 O68 2.137 . S
Co56 O69 2.244 . S
O57 Co56 2.216 . S
O57 C64 1.247 . S
O58 Co56 2.091 . S
O58 C64 1.261 . S
C59 O68 1.247 . S
C59 O69 1.272 . S
O60 Co56 2.004 . S
O60 C65 1.259 . S
Co61 O62 2.061 . S
Co61 O67 2.052 . S
Co61 O69 2.135 . S
O62 Co61 2.061 . S
O62 C65 1.235 . S
C63 O66 1.238 . S
C63 O67 1.241 . S
C64 O57 1.247 . S
C64 O58 1.261 . S
C65 O60 1.259 . S
C65 O62 1.235 . S
O66 Co56 2.021 . S
O66 C63 1.238 . S
O67 Co61 2.052 . S
O67 C63 1.241 . S
O68 Co56 2.137 . S
O68 C59 1.247 . S
O69 Co56 2.244 . S
O69 C59 1.272 . S
O69 Co61 2.135 . S
Co70 O71 2.216 . S
Co70 O72 2.091 . S
Co70 O74 2.004 . S
Co70 O80 2.021 . S
Co70 O82 2.137 . S
Co70 O83 2.244 . S
O71 Co70 2.216 . S
O71 C78 1.247 . S
O72 Co70 2.091 . S
O72 C78 1.261 . S
C73 O82 1.247 . S
C73 O83 1.272 . S
O74 Co70 2.004 . S
O74 C79 1.259 . S
Co75 O76 2.061 . S
Co75 O81 2.052 . S
Co75 O83 2.135 . S
O76 Co75 2.061 . S
O76 C79 1.235 . S
C77 O80 1.238 . S
C77 O81 1.241 . S
C78 O71 1.247 . S
C78 O72 1.261 . S
C79 O74 1.259 . S
C79 O76 1.235 . S
O80 Co70 2.021 . S
O80 C77 1.238 . S
O81 Co75 2.052 . S
O81 C77 1.241 . S
O82 Co70 2.137 . S
O82 C73 1.247 . S
O83 Co70 2.244 . S
O83 C73 1.272 . S
O83 Co75 2.135 . S
Co84 O85 2.216 . S
Co84 O86 2.091 . S
Co84 O88 2.004 . S
Co84 O94 2.021 . S
Co84 O96 2.137 . S
Co84 O97 2.244 . S
O85 Co84 2.216 . S
O85 C92 1.247 . S
O86 Co84 2.091 . S
O86 C92 1.261 . S
C87 O96 1.247 . S
C87 O97 1.272 . S
O88 Co84 2.004 . S
O88 C93 1.259 . S
Co89 O90 2.061 . S
Co89 O95 2.052 . S
Co89 O97 2.135 . S
O90 Co89 2.061 . S
O90 C93 1.235 . S
C91 O94 1.238 . S
C91 O95 1.241 . S
C92 O85 1.247 . S
C92 O86 1.261 . S
C93 O88 1.259 . S
C93 O90 1.235 . S
O94 Co84 2.021 . S
O94 C91 1.238 . S
O95 Co89 2.052 . S
O95 C91 1.241 . S
O96 Co84 2.137 . S
O96 C87 1.247 . S
O97 Co84 2.244 . S
O97 C87 1.272 . S
O97 Co89 2.135 . S
Co98 O99 2.216 . S
Co98 O100 2.091 . S
Co98 O102 2.004 . S
Co98 O108 2.021 . S
Co98 O110 2.137 . S
Co98 O111 2.244 . S
O99 Co98 2.216 . S
O99 C106 1.247 . S
O100 Co98 2.091 . S
O100 C106 1.261 . S
C101 O110 1.247 . S
C101 O111 1.272 . S
O102 Co98 2.004 . S
O102 C107 1.259 . S
Co103 O104 2.061 . S
Co103 O109 2.052 . S
Co103 O111 2.135 . S
O104 Co103 2.061 . S
O104 C107 1.235 . S
C105 O108 1.238 . S
C105 O109 1.241 . S
C106 O99 1.247 . S
C106 O100 1.261 . S
C107 O102 1.259 . S
C107 O104 1.235 . S
O108 Co98 2.021 . S
O108 C105 1.238 . S
O109 Co103 2.052 . S
O109 C105 1.241 . S
O110 Co98 2.137 . S
O110 C101 1.247 . S
O111 Co98 2.244 . S
O111 C101 1.272 . S
O111 Co103 2.135 . S
Co112 O113 2.216 . S
Co112 O114 2.091 . S
Co112 O116 2.004 . S
Co112 O122 2.021 . S
Co112 O124 2.137 . S
Co112 O125 2.244 . S
O113 Co112 2.216 . S
O113 C120 1.247 . S
O114 Co112 2.091 . S
O114 C120 1.261 . S
C115 O124 1.247 . S
C115 O125 1.272 . S
O116 Co112 2.004 . S
O116 C121 1.259 . S
Co117 O118 2.061 . S
Co117 O123 2.052 . S
Co117 O125 2.135 . S
O118 Co117 2.061 . S
O118 C121 1.235 . S
C119 O122 1.238 . S
C119 O123 1.241 . S
C120 O113 1.247 . S
C120 O114 1.261 . S
C121 O116 1.259 . S
C121 O118 1.235 . S
O122 Co112 2.021 . S
O122 C119 1.238 . S
O123 Co117 2.052 . S
O123 C119 1.241 . S
O124 Co112 2.137 . S
O124 C115 1.247 . S
O125 Co112 2.244 . S
O125 C115 1.272 . S
O125 Co117 2.135 . S
Co126 O127 2.216 . S
Co126 O128 2.091 . S
Co126 O130 2.004 . S
Co126 O136 2.021 . S
Co126 O138 2.137 . S
Co126 O139 2.244 . S
O127 Co126 2.216 . S
O127 C134 1.247 . S
O128 Co126 2.091 . S
O128 C134 1.261 . S
C129 O138 1.247 . S
C129 O139 1.272 . S
O130 Co126 2.004 . S
O130 C135 1.259 . S
Co131 O132 2.061 . S
Co131 O137 2.052 . S
Co131 O139 2.135 . S
O132 Co131 2.061 . S
O132 C135 1.235 . S
C133 O136 1.238 . S
C133 O137 1.241 . S
C134 O127 1.247 . S
C134 O128 1.261 . S
C135 O130 1.259 . S
C135 O132 1.235 . S
O136 Co126 2.021 . S
O136 C133 1.238 . S
O137 Co131 2.052 . S
O137 C133 1.241 . S
O138 Co126 2.137 . S
O138 C129 1.247 . S
O139 Co126 2.244 . S
O139 C129 1.272 . S
O139 Co131 2.135 . S
Co140 O141 2.216 . S
Co140 O142 2.091 . S
Co140 O144 2.004 . S
Co140 O150 2.021 . S
Co140 O152 2.137 . S
Co140 O153 2.244 . S
O141 Co140 2.216 . S
O141 C148 1.247 . S
O142 Co140 2.091 . S
O142 C148 1.261 . S
C143 O152 1.247 . S
C143 O153 1.272 . S
O144 Co140 2.004 . S
O144 C149 1.259 . S
Co145 O146 2.061 . S
Co145 O151 2.052 . S
Co145 O153 2.135 . S
O146 Co145 2.061 . S
O146 C149 1.235 . S
C147 O150 1.238 . S
C147 O151 1.241 . S
C148 O141 1.247 . S
C148 O142 1.261 . S
C149 O144 1.259 . S
C149 O146 1.235 . S
O150 Co140 2.021 . S
O150 C147 1.238 . S
O151 Co145 2.052 . S
O151 C147 1.241 . S
O152 Co140 2.137 . S
O152 C143 1.247 . S
O153 Co140 2.244 . S
O153 C143 1.272 . S
O153 Co145 2.135 . S
Co154 O155 2.216 . S
Co154 O156 2.091 . S
Co154 O158 2.004 . S
Co154 O164 2.021 . S
Co154 O166 2.137 . S
Co154 O167 2.244 . S
O155 Co154 2.216 . S
O155 C162 1.247 . S
O156 Co154 2.091 . S
O156 C162 1.261 . S
C157 O166 1.247 . S
C157 O167 1.272 . S
O158 Co154 2.004 . S
O158 C163 1.259 . S
Co159 O160 2.061 . S
Co159 O165 2.052 . S
Co159 O167 2.135 . S
O160 Co159 2.061 . S
O160 C163 1.235 . S
C161 O164 1.238 . S
C161 O165 1.241 . S
C162 O155 1.247 . S
C162 O156 1.261 . S
C163 O158 1.259 . S
C163 O160 1.235 . S
O164 Co154 2.021 . S
O164 C161 1.238 . S
O165 Co159 2.052 . S
O165 C161 1.241 . S
O166 Co154 2.137 . S
O166 C157 1.247 . S
O167 Co154 2.244 . S
O167 C157 1.272 . S
O167 Co159 2.135 . S
Co168 O169 2.216 . S
Co168 O170 2.091 . S
Co168 O172 2.004 . S
Co168 O178 2.021 . S
Co168 O180 2.137 . S
Co168 O181 2.244 . S
O169 Co168 2.216 . S
O169 C176 1.247 . S
O170 Co168 2.091 . S
O170 C176 1.261 . S
C171 O180 1.247 . S
C171 O181 1.272 . S
O172 Co168 2.004 . S
O172 C177 1.259 . S
Co173 O174 2.061 . S
Co173 O179 2.052 . S
Co173 O181 2.135 . S
O174 Co173 2.061 . S
O174 C177 1.235 . S
C175 O178 1.238 . S
C175 O179 1.241 . S
C176 O169 1.247 . S
C176 O170 1.261 . S
C177 O172 1.259 . S
C177 O174 1.235 . S
O178 Co168 2.021 . S
O178 C175 1.238 . S
O179 Co173 2.052 . S
O179 C175 1.241 . S
O180 Co168 2.137 . S
O180 C171 1.247 . S
O181 Co168 2.244 . S
O181 C171 1.272 . S
O181 Co173 2.135 . S
Co182 O183 2.216 . S
Co182 O184 2.091 . S
Co182 O186 2.004 . S
Co182 O192 2.021 . S
Co182 O194 2.137 . S
Co182 O195 2.244 . S
O183 Co182 2.216 . S
O183 C190 1.247 . S
O184 Co182 2.091 . S
O184 C190 1.261 . S
C185 O194 1.247 . S
C185 O195 1.272 . S
O186 Co182 2.004 . S
O186 C191 1.259 . S
Co187 O188 2.061 . S
Co187 O193 2.052 . S
Co187 O195 2.135 . S
O188 Co187 2.061 . S
O188 C191 1.235 . S
C189 O192 1.238 . S
C189 O193 1.241 . S
C190 O183 1.247 . S
C190 O184 1.261 . S
C191 O186 1.259 . S
C191 O188 1.235 . S
O192 Co182 2.021 . S
O192 C189 1.238 . S
O193 Co187 2.052 . S
O193 C189 1.241 . S
O194 Co182 2.137 . S
O194 C185 1.247 . S
O195 Co182 2.244 . S
O195 C185 1.272 . S
O195 Co187 2.135 . S
Co196 O197 2.216 . S
Co196 O198 2.091 . S
Co196 O200 2.004 . S
Co196 O206 2.021 . S
Co196 O208 2.137 . S
Co196 O209 2.244 . S
O197 Co196 2.216 . S
O197 C204 1.247 . S
O198 Co196 2.091 . S
O198 C204 1.261 . S
C199 O208 1.247 . S
C199 O209 1.272 . S
O200 Co196 2.004 . S
O200 C205 1.259 . S
Co201 O202 2.061 . S
Co201 O207 2.052 . S
Co201 O209 2.135 . S
O202 Co201 2.061 . S
O202 C205 1.235 . S
C203 O206 1.238 . S
C203 O207 1.241 . S
C204 O197 1.247 . S
C204 O198 1.261 . S
C205 O200 1.259 . S
C205 O202 1.235 . S
O206 Co196 2.021 . S
O206 C203 1.238 . S
O207 Co201 2.052 . S
O207 C203 1.241 . S
O208 Co196 2.137 . S
O208 C199 1.247 . S
O209 Co196 2.244 . S
O209 C199 1.272 . S
O209 Co201 2.135 . S
Co210 O211 2.216 . S
Co210 O212 2.091 . S
Co210 O214 2.004 . S
Co210 O220 2.021 . S
Co210 O222 2.137 . S
Co210 O223 2.244 . S
O211 Co210 2.216 . S
O211 C218 1.247 . S
O212 Co210 2.091 . S
O212 C218 1.261 . S
C213 O222 1.247 . S
C213 O223 1.272 . S
O214 Co210 2.004 . S
O214 C219 1.259 . S
Co215 O216 2.061 . S
Co215 O221 2.052 . S
Co215 O223 2.135 . S
O216 Co215 2.061 . S
O216 C219 1.235 . S
C217 O220 1.238 . S
C217 O221 1.241 . S
C218 O211 1.247 . S
C218 O212 1.261 . S
C219 O214 1.259 . S
C219 O216 1.235 . S
O220 Co210 2.021 . S
O220 C217 1.238 . S
O221 Co215 2.052 . S
O221 C217 1.241 . S
O222 Co210 2.137 . S
O222 C213 1.247 . S
O223 Co210 2.244 . S
O223 C213 1.272 . S
O223 Co215 2.135 . S
Co224 O225 2.216 . S
Co224 O226 2.091 . S
Co224 O228 2.004 . S
Co224 O234 2.021 . S
Co224 O236 2.137 . S
Co224 O237 2.244 . S
O225 Co224 2.216 . S
O225 C232 1.247 . S
O226 Co224 2.091 . S
O226 C232 1.261 . S
C227 O236 1.247 . S
C227 O237 1.272 . S
O228 Co224 2.004 . S
O228 C233 1.259 . S
Co229 O230 2.061 . S
Co229 O235 2.052 . S
Co229 O237 2.135 . S
O230 Co229 2.061 . S
O230 C233 1.235 . S
C231 O234 1.238 . S
C231 O235 1.241 . S
C232 O225 1.247 . S
C232 O226 1.261 . S
C233 O228 1.259 . S
C233 O230 1.235 . S
O234 Co224 2.021 . S
O234 C231 1.238 . S
O235 Co229 2.052 . S
O235 C231 1.241 . S
O236 Co224 2.137 . S
O236 C227 1.247 . S
O237 Co224 2.244 . S
O237 C227 1.272 . S
O237 Co229 2.135 . S
Co238 O239 2.216 . S
Co238 O240 2.091 . S
Co238 O242 2.004 . S
Co238 O248 2.021 . S
Co238 O250 2.137 . S
Co238 O251 2.244 . S
O239 Co238 2.216 . S
O239 C246 1.247 . S
O240 Co238 2.091 . S
O240 C246 1.261 . S
C241 O250 1.247 . S
C241 O251 1.272 . S
O242 Co238 2.004 . S
O242 C247 1.259 . S
Co243 O244 2.061 . S
Co243 O249 2.052 . S
Co243 O251 2.135 . S
O244 Co243 2.061 . S
O244 C247 1.235 . S
C245 O248 1.238 . S
C245 O249 1.241 . S
C246 O239 1.247 . S
C246 O240 1.261 . S
C247 O242 1.259 . S
C247 O244 1.235 . S
O248 Co238 2.021 . S
O248 C245 1.238 . S
O249 Co243 2.052 . S
O249 C245 1.241 . S
O250 Co238 2.137 . S
O250 C241 1.247 . S
O251 Co238 2.244 . S
O251 C241 1.272 . S
O251 Co243 2.135 . S
Co252 O253 2.216 . S
Co252 O254 2.091 . S
Co252 O256 2.004 . S
Co252 O262 2.021 . S
Co252 O264 2.137 . S
Co252 O265 2.244 . S
O253 Co252 2.216 . S
O253 C260 1.247 . S
O254 Co252 2.091 . S
O254 C260 1.261 . S
C255 O264 1.247 . S
C255 O265 1.272 . S
O256 Co252 2.004 . S
O256 C261 1.259 . S
Co257 O258 2.061 . S
Co257 O263 2.052 . S
Co257 O265 2.135 . S
O258 Co257 2.061 . S
O258 C261 1.235 . S
C259 O262 1.238 . S
C259 O263 1.241 . S
C260 O253 1.247 . S
C260 O254 1.261 . S
C261 O256 1.259 . S
C261 O258 1.235 . S
O262 Co252 2.021 . S
O262 C259 1.238 . S
O263 Co257 2.052 . S
O263 C259 1.241 . S
O264 Co252 2.137 . S
O264 C255 1.247 . S
O265 Co252 2.244 . S
O265 C255 1.272 . S
O265 Co257 2.135 . S
Co266 O267 2.216 . S
Co266 O268 2.091 . S
Co266 O270 2.004 . S
Co266 O276 2.021 . S
Co266 O278 2.137 . S
Co266 O279 2.244 . S
O267 Co266 2.216 . S
O267 C274 1.247 . S
O268 Co266 2.091 . S
O268 C274 1.261 . S
C269 O278 1.247 . S
C269 O279 1.272 . S
O270 Co266 2.004 . S
O270 C275 1.259 . S
Co271 O272 2.061 . S
Co271 O277 2.052 . S
Co271 O279 2.135 . S
O272 Co271 2.061 . S
O272 C275 1.235 . S
C273 O276 1.238 . S
C273 O277 1.241 . S
C274 O267 1.247 . S
C274 O268 1.261 . S
C275 O270 1.259 . S
C275 O272 1.235 . S
O276 Co266 2.021 . S
O276 C273 1.238 . S
O277 Co271 2.052 . S
O277 C273 1.241 . S
O278 Co266 2.137 . S
O278 C269 1.247 . S
O279 Co266 2.244 . S
O279 C269 1.272 . S
O279 Co271 2.135 . S
Co280 O281 2.216 . S
Co280 O282 2.091 . S
Co280 O284 2.004 . S
Co280 O290 2.021 . S
Co280 O292 2.137 . S
Co280 O293 2.244 . S
O281 Co280 2.216 . S
O281 C288 1.247 . S
O282 Co280 2.091 . S
O282 C288 1.261 . S
C283 O292 1.247 . S
C283 O293 1.272 . S
O284 Co280 2.004 . S
O284 C289 1.259 . S
Co285 O286 2.061 . S
Co285 O291 2.052 . S
Co285 O293 2.135 . S
O286 Co285 2.061 . S
O286 C289 1.235 . S
C287 O290 1.238 . S
C287 O291 1.241 . S
C288 O281 1.247 . S
C288 O282 1.261 . S
C289 O284 1.259 . S
C289 O286 1.235 . S
O290 Co280 2.021 . S
O290 C287 1.238 . S
O291 Co285 2.052 . S
O291 C287 1.241 . S
O292 Co280 2.137 . S
O292 C283 1.247 . S
O293 Co280 2.244 . S
O293 C283 1.272 . S
O293 Co285 2.135 . S
Co294 O295 2.216 . S
Co294 O296 2.091 . S
Co294 O298 2.004 . S
Co294 O304 2.021 . S
Co294 O306 2.137 . S
Co294 O307 2.244 . S
O295 Co294 2.216 . S
O295 C302 1.247 . S
O296 Co294 2.091 . S
O296 C302 1.261 . S
C297 O306 1.247 . S
C297 O307 1.272 . S
O298 Co294 2.004 . S
O298 C303 1.259 . S
Co299 O300 2.061 . S
Co299 O305 2.052 . S
Co299 O307 2.135 . S
O300 Co299 2.061 . S
O300 C303 1.235 . S
C301 O304 1.238 . S
C301 O305 1.241 . S
C302 O295 1.247 . S
C302 O296 1.261 . S
C303 O298 1.259 . S
C303 O300 1.235 . S
O304 Co294 2.021 . S
O304 C301 1.238 . S
O305 Co299 2.052 . S
O305 C301 1.241 . S
O306 Co294 2.137 . S
O306 C297 1.247 . S
O307 Co294 2.244 . S
O307 C297 1.272 . S
O307 Co299 2.135 . S
Co308 O309 2.216 . S
Co308 O310 2.091 . S
Co308 O312 2.004 . S
Co308 O318 2.021 . S
Co308 O320 2.137 . S
Co308 O321 2.244 . S
O309 Co308 2.216 . S
O309 C316 1.247 . S
O310 Co308 2.091 . S
O310 C316 1.261 . S
C311 O320 1.247 . S
C311 O321 1.272 . S
O312 Co308 2.004 . S
O312 C317 1.259 . S
Co313 O314 2.061 . S
Co313 O319 2.052 . S
Co313 O321 2.135 . S
O314 Co313 2.061 . S
O314 C317 1.235 . S
C315 O318 1.238 . S
C315 O319 1.241 . S
C316 O309 1.247 . S
C316 O310 1.261 . S
C317 O312 1.259 . S
C317 O314 1.235 . S
O318 Co308 2.021 . S
O318 C315 1.238 . S
O319 Co313 2.052 . S
O319 C315 1.241 . S
O320 Co308 2.137 . S
O320 C311 1.247 . S
O321 Co308 2.244 . S
O321 C311 1.272 . S
O321 Co313 2.135 . S
Co322 O323 2.216 . S
Co322 O324 2.091 . S
Co322 O326 2.004 . S
Co322 O332 2.021 . S
Co322 O334 2.137 . S
Co322 O335 2.244 . S
O323 Co322 2.216 . S
O323 C330 1.247 . S
O324 Co322 2.091 . S
O324 C330 1.261 . S
C325 O334 1.247 . S
C325 O335 1.272 . S
O326 Co322 2.004 . S
O326 C331 1.259 . S
Co327 O328 2.061 . S
Co327 O333 2.052 . S
Co327 O335 2.135 . S
O328 Co327 2.061 . S
O328 C331 1.235 . S
C329 O332 1.238 . S
C329 O333 1.241 . S
C330 O323 1.247 . S
C330 O324 1.261 . S
C331 O326 1.259 . S
C331 O328 1.235 . S
O332 Co322 2.021 . S
O332 C329 1.238 . S
O333 Co327 2.052 . S
O333 C329 1.241 . S
O334 Co322 2.137 . S
O334 C325 1.247 . S
O335 Co322 2.244 . S
O335 C325 1.272 . S
O335 Co327 2.135 . S
Co336 O337 2.216 . S
Co336 O338 2.091 . S
Co336 O340 2.004 . S
Co336 O346 2.021 . S
Co336 O348 2.137 . S
Co336 O349 2.244 . S
O337 Co336 2.216 . S
O337 C344 1.247 . S
O338 Co336 2.091 . S
O338 C344 1.261 . S
C339 O348 1.247 . S
C339 O349 1.272 . S
O340 Co336 2.004 . S
O340 C345 1.259 . S
Co341 O342 2.061 . S
Co341 O347 2.052 . S
Co341 O349 2.135 . S
O342 Co341 2.061 . S
O342 C345 1.235 . S
C343 O346 1.238 . S
C343 O347 1.241 . S
C344 O337 1.247 . S
C344 O338 1.261 . S
C345 O340 1.259 . S
C345 O342 1.235 . S
O346 Co336 2.021 . S
O346 C343 1.238 . S
O347 Co341 2.052 . S
O347 C343 1.241 . S
O348 Co336 2.137 . S
O348 C339 1.247 . S
O349 Co336 2.244 . S
O349 C339 1.272 . S
O349 Co341 2.135 . S
Co350 O351 2.216 . S
Co350 O352 2.091 . S
Co350 O354 2.004 . S
Co350 O360 2.021 . S
Co350 O362 2.137 . S
Co350 O363 2.244 . S
O351 Co350 2.216 . S
O351 C358 1.247 . S
O352 Co350 2.091 . S
O352 C358 1.261 . S
C353 O362 1.247 . S
C353 O363 1.272 . S
O354 Co350 2.004 . S
O354 C359 1.259 . S
Co355 O356 2.061 . S
Co355 O361 2.052 . S
Co355 O363 2.135 . S
O356 Co355 2.061 . S
O356 C359 1.235 . S
C357 O360 1.238 . S
C357 O361 1.241 . S
C358 O351 1.247 . S
C358 O352 1.261 . S
C359 O354 1.259 . S
C359 O356 1.235 . S
O360 Co350 2.021 . S
O360 C357 1.238 . S
O361 Co355 2.052 . S
O361 C357 1.241 . S
O362 Co350 2.137 . S
O362 C353 1.247 . S
O363 Co350 2.244 . S
O363 C353 1.272 . S
O363 Co355 2.135 . S
Co364 O365 2.216 . S
Co364 O366 2.091 . S
Co364 O368 2.004 . S
Co364 O374 2.021 . S
Co364 O376 2.137 . S
Co364 O377 2.244 . S
O365 Co364 2.216 . S
O365 C372 1.247 . S
O366 Co364 2.091 . S
O366 C372 1.261 . S
C367 O376 1.247 . S
C367 O377 1.272 . S
O368 Co364 2.004 . S
O368 C373 1.259 . S
Co369 O370 2.061 . S
Co369 O375 2.052 . S
Co369 O377 2.135 . S
O370 Co369 2.061 . S
O370 C373 1.235 . S
C371 O374 1.238 . S
C371 O375 1.241 . S
C372 O365 1.247 . S
C372 O366 1.261 . S
C373 O368 1.259 . S
C373 O370 1.235 . S
O374 Co364 2.021 . S
O374 C371 1.238 . S
O375 Co369 2.052 . S
O375 C371 1.241 . S
O376 Co364 2.137 . S
O376 C367 1.247 . S
O377 Co364 2.244 . S
O377 C367 1.272 . S
O377 Co369 2.135 . S
Co378 O379 2.216 . S
Co378 O380 2.091 . S
Co378 O382 2.004 . S
Co378 O388 2.021 . S
Co378 O390 2.137 . S
Co378 O391 2.244 . S
O379 Co378 2.216 . S
O379 C386 1.247 . S
O380 Co378 2.091 . S
O380 C386 1.261 . S
C381 O390 1.247 . S
C381 O391 1.272 . S
O382 Co378 2.004 . S
O382 C387 1.259 . S
Co383 O384 2.061 . S
Co383 O389 2.052 . S
Co383 O391 2.135 . S
O384 Co383 2.061 . S
O384 C387 1.235 . S
C385 O388 1.238 . S
C385 O389 1.241 . S
C386 O379 1.247 . S
C386 O380 1.261 . S
C387 O382 1.259 . S
C387 O384 1.235 . S
O388 Co378 2.021 . S
O388 C385 1.238 . S
O389 Co383 2.052 . S
O389 C385 1.241 . S
O390 Co378 2.137 . S
O390 C381 1.247 . S
O391 Co378 2.244 . S
O391 C381 1.272 . S
O391 Co383 2.135 . S
Co392 O393 2.216 . S
Co392 O394 2.091 . S
Co392 O396 2.004 . S
Co392 O402 2.021 . S
Co392 O404 2.137 . S
Co392 O405 2.244 . S
O393 Co392 2.216 . S
O393 C400 1.247 . S
O394 Co392 2.091 . S
O394 C400 1.261 . S
C395 O404 1.247 . S
C395 O405 1.272 . S
O396 Co392 2.004 . S
O396 C401 1.259 . S
Co397 O398 2.061 . S
Co397 O403 2.052 . S
Co397 O405 2.135 . S
O398 Co397 2.061 . S
O398 C401 1.235 . S
C399 O402 1.238 . S
C399 O403 1.241 . S
C400 O393 1.247 . S
C400 O394 1.261 . S
C401 O396 1.259 . S
C401 O398 1.235 . S
O402 Co392 2.021 . S
O402 C399 1.238 . S
O403 Co397 2.052 . S
O403 C399 1.241 . S
O404 Co392 2.137 . S
O404 C395 1.247 . S
O405 Co392 2.244 . S
O405 C395 1.272 . S
O405 Co397 2.135 . S
Co406 O407 2.216 . S
Co406 O408 2.091 . S
Co406 O410 2.004 . S
Co406 O416 2.021 . S
Co406 O418 2.137 . S
Co406 O419 2.244 . S
O407 Co406 2.216 . S
O407 C414 1.247 . S
O408 Co406 2.091 . S
O408 C414 1.261 . S
C409 O418 1.247 . S
C409 O419 1.272 . S
O410 Co406 2.004 . S
O410 C415 1.259 . S
Co411 O412 2.061 . S
Co411 O417 2.052 . S
Co411 O419 2.135 . S
O412 Co411 2.061 . S
O412 C415 1.235 . S
C413 O416 1.238 . S
C413 O417 1.241 . S
C414 O407 1.247 . S
C414 O408 1.261 . S
C415 O410 1.259 . S
C415 O412 1.235 . S
O416 Co406 2.021 . S
O416 C413 1.238 . S
O417 Co411 2.052 . S
O417 C413 1.241 . S
O418 Co406 2.137 . S
O418 C409 1.247 . S
O419 Co406 2.244 . S
O419 C409 1.272 . S
O419 Co411 2.135 . S
Co420 O421 2.216 . S
Co420 O422 2.091 . S
Co420 O424 2.004 . S
Co420 O430 2.021 . S
Co420 O432 2.137 . S
Co420 O433 2.244 . S
O421 Co420 2.216 . S
O421 C428 1.247 . S
O422 Co420 2.091 . S
O422 C428 1.261 . S
C423 O432 1.247 . S
C423 O433 1.272 . S
O424 Co420 2.004 . S
O424 C429 1.259 . S
Co425 O426 2.061 . S
Co425 O431 2.052 . S
Co425 O433 2.135 . S
O426 Co425 2.061 . S
O426 C429 1.235 . S
C427 O430 1.238 . S
C427 O431 1.241 . S
C428 O421 1.247 . S
C428 O422 1.261 . S
C429 O424 1.259 . S
C429 O426 1.235 . S
O430 Co420 2.021 . S
O430 C427 1.238 . S
O431 Co425 2.052 . S
O431 C427 1.241 . S
O432 Co420 2.137 . S
O432 C423 1.247 . S
O433 Co420 2.244 . S
O433 C423 1.272 . S
O433 Co425 2.135 . S
Co434 O435 2.216 . S
Co434 O436 2.091 . S
Co434 O438 2.004 . S
Co434 O444 2.021 . S
Co434 O446 2.137 . S
Co434 O447 2.244 . S
O435 Co434 2.216 . S
O435 C442 1.247 . S
O436 Co434 2.091 . S
O436 C442 1.261 . S
C437 O446 1.247 . S
C437 O447 1.272 . S
O438 Co434 2.004 . S
O438 C443 1.259 . S
Co439 O440 2.061 . S
Co439 O445 2.052 . S
Co439 O447 2.135 . S
O440 Co439 2.061 . S
O440 C443 1.235 . S
C441 O444 1.238 . S
C441 O445 1.241 . S
C442 O435 1.247 . S
C442 O436 1.261 . S
C443 O438 1.259 . S
C443 O440 1.235 . S
O444 Co434 2.021 . S
O444 C441 1.238 . S
O445 Co439 2.052 . S
O445 C441 1.241 . S
O446 Co434 2.137 . S
O446 C437 1.247 . S
O447 Co434 2.244 . S
O447 C437 1.272 . S
O447 Co439 2.135 . S
Co448 O449 2.216 . S
Co448 O450 2.091 . S
Co448 O452 2.004 . S
Co448 O458 2.021 . S
Co448 O460 2.137 . S
Co448 O461 2.244 . S
O449 Co448 2.216 . S
O449 C456 1.247 . S
O450 Co448 2.091 . S
O450 C456 1.261 . S
C451 O460 1.247 . S
C451 O461 1.272 . S
O452 Co448 2.004 . S
O452 C457 1.259 . S
Co453 O454 2.061 . S
Co453 O459 2.052 . S
Co453 O461 2.135 . S
O454 Co453 2.061 . S
O454 C457 1.235 . S
C455 O458 1.238 . S
C455 O459 1.241 . S
C456 O449 1.247 . S
C456 O450 1.261 . S
C457 O452 1.259 . S
C457 O454 1.235 . S
O458 Co448 2.021 . S
O458 C455 1.238 . S
O459 Co453 2.052 . S
O459 C455 1.241 . S
O460 Co448 2.137 . S
O460 C451 1.247 . S
O461 Co448 2.244 . S
O461 C451 1.272 . S
O461 Co453 2.135 . S
Co462 O463 2.216 . S
Co462 O464 2.091 . S
Co462 O466 2.004 . S
Co462 O472 2.021 . S
Co462 O474 2.137 . S
Co462 O475 2.244 . S
O463 Co462 2.216 . S
O463 C470 1.247 . S
O464 Co462 2.091 . S
O464 C470 1.261 . S
C465 O474 1.247 . S
C465 O475 1.272 . S
O466 Co462 2.004 . S
O466 C471 1.259 . S
Co467 O468 2.061 . S
Co467 O473 2.052 . S
Co467 O475 2.135 . S
O468 Co467 2.061 . S
O468 C471 1.235 . S
C469 O472 1.238 . S
C469 O473 1.241 . S
C470 O463 1.247 . S
C470 O464 1.261 . S
C471 O466 1.259 . S
C471 O468 1.235 . S
O472 Co462 2.021 . S
O472 C469 1.238 . S
O473 Co467 2.052 . S
O473 C469 1.241 . S
O474 Co462 2.137 . S
O474 C465 1.247 . S
O475 Co462 2.244 . S
O475 C465 1.272 . S
O475 Co467 2.135 . S
Co476 O477 2.216 . S
Co476 O478 2.091 . S
Co476 O480 2.004 . S
Co476 O486 2.021 . S
Co476 O488 2.137 . S
Co476 O489 2.244 . S
O477 Co476 2.216 . S
O477 C484 1.247 . S
O478 Co476 2.091 . S
O478 C484 1.261 . S
C479 O488 1.247 . S
C479 O489 1.272 . S
O480 Co476 2.004 . S
O480 C485 1.259 . S
Co481 O482 2.061 . S
Co481 O487 2.052 . S
Co481 O489 2.135 . S
O482 Co481 2.061 . S
O482 C485 1.235 . S
C483 O486 1.238 . S
C483 O487 1.241 . S
C484 O477 1.247 . S
C484 O478 1.261 . S
C485 O480 1.259 . S
C485 O482 1.235 . S
O486 Co476 2.021 . S
O486 C483 1.238 . S
O487 Co481 2.052 . S
O487 C483 1.241 . S
O488 Co476 2.137 . S
O488 C479 1.247 . S
O489 Co476 2.244 . S
O489 C479 1.272 . S
O489 Co481 2.135 . S
Co490 O491 2.216 . S
Co490 O492 2.091 . S
Co490 O494 2.004 . S
Co490 O500 2.021 . S
Co490 O502 2.137 . S
Co490 O503 2.244 . S
O491 Co490 2.216 . S
O491 C498 1.247 . S
O492 Co490 2.091 . S
O492 C498 1.261 . S
C493 O502 1.247 . S
C493 O503 1.272 . S
O494 Co490 2.004 . S
O494 C499 1.259 . S
Co495 O496 2.061 . S
Co495 O501 2.052 . S
Co495 O503 2.135 . S
O496 Co495 2.061 . S
O496 C499 1.235 . S
C497 O500 1.238 . S
C497 O501 1.241 . S
C498 O491 1.247 . S
C498 O492 1.261 . S
C499 O494 1.259 . S
C499 O496 1.235 . S
O500 Co490 2.021 . S
O500 C497 1.238 . S
O501 Co495 2.052 . S
O501 C497 1.241 . S
O502 Co490 2.137 . S
O502 C493 1.247 . S
O503 Co490 2.244 . S
O503 C493 1.272 . S
O503 Co495 2.135 . S
Co504 O505 2.216 . S
Co504 O506 2.091 . S
Co504 O508 2.004 . S
Co504 O514 2.021 . S
Co504 O516 2.137 . S
Co504 O517 2.244 . S
O505 Co504 2.216 . S
O505 C512 1.247 . S
O506 Co504 2.091 . S
O506 C512 1.261 . S
C507 O516 1.247 . S
C507 O517 1.272 . S
O508 Co504 2.004 . S
O508 C513 1.259 . S
Co509 O510 2.061 . S
Co509 O515 2.052 . S
Co509 O517 2.135 . S
O510 Co509 2.061 . S
O510 C513 1.235 . S
C511 O514 1.238 . S
C511 O515 1.241 . S
C512 O505 1.247 . S
C512 O506 1.261 . S
C513 O508 1.259 . S
C513 O510 1.235 . S
O514 Co504 2.021 . S
O514 C511 1.238 . S
O515 Co509 2.052 . S
O515 C511 1.241 . S
O516 Co504 2.137 . S
O516 C507 1.247 . S
O517 Co504 2.244 . S
O517 C507 1.272 . S
O517 Co509 2.135 . S
Co518 O519 2.216 . S
Co518 O520 2.091 . S
Co518 O522 2.004 . S
Co518 O528 2.021 . S
Co518 O530 2.137 . S
Co518 O531 2.244 . S
O519 Co518 2.216 . S
O519 C526 1.247 . S
O520 Co518 2.091 . S
O520 C526 1.261 . S
C521 O530 1.247 . S
C521 O531 1.272 . S
O522 Co518 2.004 . S
O522 C527 1.259 . S
Co523 O524 2.061 . S
Co523 O529 2.052 . S
Co523 O531 2.135 . S
O524 Co523 2.061 . S
O524 C527 1.235 . S
C525 O528 1.238 . S
C525 O529 1.241 . S
C526 O519 1.247 . S
C526 O520 1.261 . S
C527 O522 1.259 . S
C527 O524 1.235 . S
O528 Co518 2.021 . S
O528 C525 1.238 . S
O529 Co523 2.052 . S
O529 C525 1.241 . S
O530 Co518 2.137 . S
O530 C521 1.247 . S
O531 Co518 2.244 . S
O531 C521 1.272 . S
O531 Co523 2.135 . S
Co532 O533 2.216 . S
Co532 O534 2.091 . S
Co532 O536 2.004 . S
Co532 O542 2.021 . S
Co532 O544 2.137 . S
Co532 O545 2.244 . S
O533 Co532 2.216 . S
O533 C540 1.247 . S
O534 Co532 2.091 . S
O534 C540 1.261 . S
C535 O544 1.247 . S
C535 O545 1.272 . S
O536 Co532 2.004 . S
O536 C541 1.259 . S
Co537 O538 2.061 . S
Co537 O543 2.052 . S
Co537 O545 2.135 . S
O538 Co537 2.061 . S
O538 C541 1.235 . S
C539 O542 1.238 . S
C539 O543 1.241 . S
C540 O533 1.247 . S
C540 O534 1.261 . S
C541 O536 1.259 . S
C541 O538 1.235 . S
O542 Co532 2.021 . S
O542 C539 1.238 . S
O543 Co537 2.052 . S
O543 C539 1.241 . S
O544 Co532 2.137 . S
O544 C535 1.247 . S
O545 Co532 2.244 . S
O545 C535 1.272 . S
O545 Co537 2.135 . S
Co546 O547 2.216 . S
Co546 O548 2.091 . S
Co546 O550 2.004 . S
Co546 O556 2.021 . S
Co546 O558 2.137 . S
Co546 O559 2.244 . S
O547 Co546 2.216 . S
O547 C554 1.247 . S
O548 Co546 2.091 . S
O548 C554 1.261 . S
C549 O558 1.247 . S
C549 O559 1.272 . S
O550 Co546 2.004 . S
O550 C555 1.259 . S
Co551 O552 2.061 . S
Co551 O557 2.052 . S
Co551 O559 2.135 . S
O552 Co551 2.061 . S
O552 C555 1.235 . S
C553 O556 1.238 . S
C553 O557 1.241 . S
C554 O547 1.247 . S
C554 O548 1.261 . S
C555 O550 1.259 . S
C555 O552 1.235 . S
O556 Co546 2.021 . S
O556 C553 1.238 . S
O557 Co551 2.052 . S
O557 C553 1.241 . S
O558 Co546 2.137 . S
O558 C549 1.247 . S
O559 Co546 2.244 . S
O559 C549 1.272 . S
O559 Co551 2.135 . S
Co560 O561 2.216 . S
Co560 O562 2.091 . S
Co560 O564 2.004 . S
Co560 O570 2.021 . S
Co560 O572 2.137 . S
Co560 O573 2.244 . S
O561 Co560 2.216 . S
O561 C568 1.247 . S
O562 Co560 2.091 . S
O562 C568 1.261 . S
C563 O572 1.247 . S
C563 O573 1.272 . S
O564 Co560 2.004 . S
O564 C569 1.259 . S
Co565 O566 2.061 . S
Co565 O571 2.052 . S
Co565 O573 2.135 . S
O566 Co565 2.061 . S
O566 C569 1.235 . S
C567 O570 1.238 . S
C567 O571 1.241 . S
C568 O561 1.247 . S
C568 O562 1.261 . S
C569 O564 1.259 . S
C569 O566 1.235 . S
O570 Co560 2.021 . S
O570 C567 1.238 . S
O571 Co565 2.052 . S
O571 C567 1.241 . S
O572 Co560 2.137 . S
O572 C563 1.247 . S
O573 Co560 2.244 . S
O573 C563 1.272 . S
O573 Co565 2.135 . S
Co574 O575 2.216 . S
Co574 O576 2.091 . S
Co574 O578 2.004 . S
Co574 O584 2.021 . S
Co574 O586 2.137 . S
Co574 O587 2.244 . S
O575 Co574 2.216 . S
O575 C582 1.247 . S
O576 Co574 2.091 . S
O576 C582 1.261 . S
C577 O586 1.247 . S
C577 O587 1.272 . S
O578 Co574 2.004 . S
O578 C583 1.259 . S
Co579 O580 2.061 . S
Co579 O585 2.052 . S
Co579 O587 2.135 . S
O580 Co579 2.061 . S
O580 C583 1.235 . S
C581 O584 1.238 . S
C581 O585 1.241 . S
C582 O575 1.247 . S
C582 O576 1.261 . S
C583 O578 1.259 . S
C583 O580 1.235 . S
O584 Co574 2.021 . S
O584 C581 1.238 . S
O585 Co579 2.052 . S
O585 C581 1.241 . S
O586 Co574 2.137 . S
O586 C577 1.247 . S
O587 Co574 2.244 . S
O587 C577 1.272 . S
O587 Co579 2.135 . S
Co588 O589 2.216 . S
Co588 O590 2.091 . S
Co588 O592 2.004 . S
Co588 O598 2.021 . S
Co588 O600 2.137 . S
Co588 O601 2.244 . S
O589 Co588 2.216 . S
O589 C596 1.247 . S
O590 Co588 2.091 . S
O590 C596 1.261 . S
C591 O600 1.247 . S
C591 O601 1.272 . S
O592 Co588 2.004 . S
O592 C597 1.259 . S
Co593 O594 2.061 . S
Co593 O599 2.052 . S
Co593 O601 2.135 . S
O594 Co593 2.061 . S
O594 C597 1.235 . S
C595 O598 1.238 . S
C595 O599 1.241 . S
C596 O589 1.247 . S
C596 O590 1.261 . S
C597 O592 1.259 . S
C597 O594 1.235 . S
O598 Co588 2.021 . S
O598 C595 1.238 . S
O599 Co593 2.052 . S
O599 C595 1.241 . S
O600 Co588 2.137 . S
O600 C591 1.247 . S
O601 Co588 2.244 . S
O601 C591 1.272 . S
O601 Co593 2.135 . S
Co602 O603 2.216 . S
Co602 O604 2.091 . S
Co602 O606 2.004 . S
Co602 O612 2.021 . S
Co602 O614 2.137 . S
Co602 O615 2.244 . S
O603 Co602 2.216 . S
O603 C610 1.247 . S
O604 Co602 2.091 . S
O604 C610 1.261 . S
C605 O614 1.247 . S
C605 O615 1.272 . S
O606 Co602 2.004 . S
O606 C611 1.259 . S
Co607 O608 2.061 . S
Co607 O613 2.052 . S
Co607 O615 2.135 . S
O608 Co607 2.061 . S
O608 C611 1.235 . S
C609 O612 1.238 . S
C609 O613 1.241 . S
C610 O603 1.247 . S
C610 O604 1.261 . S
C611 O606 1.259 . S
C611 O608 1.235 . S
O612 Co602 2.021 . S
O612 C609 1.238 . S
O613 Co607 2.052 . S
O613 C609 1.241 . S
O614 Co602 2.137 . S
O614 C605 1.247 . S
O615 Co602 2.244 . S
O615 C605 1.272 . S
O615 Co607 2.135 . S
Co616 O617 2.216 . S
Co616 O618 2.091 . S
Co616 O620 2.004 . S
Co616 O626 2.021 . S
Co616 O628 2.137 . S
Co616 O629 2.244 . S
O617 Co616 2.216 . S
O617 C624 1.247 . S
O618 Co616 2.091 . S
O618 C624 1.261 . S
C619 O628 1.247 . S
C619 O629 1.272 . S
O620 Co616 2.004 . S
O620 C625 1.259 . S
Co621 O622 2.061 . S
Co621 O627 2.052 . S
Co621 O629 2.135 . S
O622 Co621 2.061 . S
O622 C625 1.235 . S
C623 O626 1.238 . S
C623 O627 1.241 . S
C624 O617 1.247 . S
C624 O618 1.261 . S
C625 O620 1.259 . S
C625 O622 1.235 . S
O626 Co616 2.021 . S
O626 C623 1.238 . S
O627 Co621 2.052 . S
O627 C623 1.241 . S
O628 Co616 2.137 . S
O628 C619 1.247 . S
O629 Co616 2.244 . S
O629 C619 1.272 . S
O629 Co621 2.135 . S
Co630 O631 2.216 . S
Co630 O632 2.091 . S
Co630 O634 2.004 . S
Co630 O640 2.021 . S
Co630 O642 2.137 . S
Co630 O643 2.244 . S
O631 Co630 2.216 . S
O631 C638 1.247 . S
O632 Co630 2.091 . S
O632 C638 1.261 . S
C633 O642 1.247 . S
C633 O643 1.272 . S
O634 Co630 2.004 . S
O634 C639 1.259 . S
Co635 O636 2.061 . S
Co635 O641 2.052 . S
Co635 O643 2.135 . S
O636 Co635 2.061 . S
O636 C639 1.235 . S
C637 O640 1.238 . S
C637 O641 1.241 . S
C638 O631 1.247 . S
C638 O632 1.261 . S
C639 O634 1.259 . S
C639 O636 1.235 . S
O640 Co630 2.021 . S
O640 C637 1.238 . S
O641 Co635 2.052 . S
O641 C637 1.241 . S
O642 Co630 2.137 . S
O642 C633 1.247 . S
O643 Co630 2.244 . S
O643 C633 1.272 . S
O643 Co635 2.135 . S
Co644 O645 2.216 . S
Co644 O646 2.091 . S
Co644 O648 2.004 . S
Co644 O654 2.021 . S
Co644 O656 2.137 . S
Co644 O657 2.244 . S
O645 Co644 2.216 . S
O645 C652 1.247 . S
O646 Co644 2.091 . S
O646 C652 1.261 . S
C647 O656 1.247 . S
C647 O657 1.272 . S
O648 Co644 2.004 . S
O648 C653 1.259 . S
Co649 O650 2.061 . S
Co649 O655 2.052 . S
Co649 O657 2.135 . S
O650 Co649 2.061 . S
O650 C653 1.235 . S
C651 O654 1.238 . S
C651 O655 1.241 . S
C652 O645 1.247 . S
C652 O646 1.261 . S
C653 O648 1.259 . S
C653 O650 1.235 . S
O654 Co644 2.021 . S
O654 C651 1.238 . S
O655 Co649 2.052 . S
O655 C651 1.241 . S
O656 Co644 2.137 . S
O656 C647 1.247 . S
O657 Co644 2.244 . S
O657 C647 1.272 . S
O657 Co649 2.135 . S
Co658 O659 2.216 . S
Co658 O660 2.091 . S
Co658 O662 2.004 . S
Co658 O668 2.021 . S
Co658 O670 2.137 . S
Co658 O671 2.244 . S
O659 Co658 2.216 . S
O659 C666 1.247 . S
O660 Co658 2.091 . S
O660 C666 1.261 . S
C661 O670 1.247 . S
C661 O671 1.272 . S
O662 Co658 2.004 . S
O662 C667 1.259 . S
Co663 O664 2.061 . S
Co663 O669 2.052 . S
Co663 O671 2.135 . S
O664 Co663 2.061 . S
O664 C667 1.235 . S
C665 O668 1.238 . S
C665 O669 1.241 . S
C666 O659 1.247 . S
C666 O660 1.261 . S
C667 O662 1.259 . S
C667 O664 1.235 . S
O668 Co658 2.021 . S
O668 C665 1.238 . S
O669 Co663 2.052 . S
O669 C665 1.241 . S
O670 Co658 2.137 . S
O670 C661 1.247 . S
O671 Co658 2.244 . S
O671 C661 1.272 . S
O671 Co663 2.135 . S
H672 C678 0.930 . S
H673 C682 0.930 . S
H674 C687 0.929 . S
H675 C685 0.929 . S
H676 C680 0.929 1_655 S
H677 C686 0.929 1_455 S
C678 H672 0.930 . S
C678 C679 1.367 . S
C678 C686 1.378 . S
C679 C678 1.367 . S
C679 C687 1.433 . S
C680 H676 0.929 1_455 S
C680 C682 1.378 . S
C680 C684 1.350 . S
C681 C684 1.463 1_655 S
C681 C686 1.350 . S
C681 N689 1.427 . S
C682 H673 0.930 . S
C682 C680 1.378 . S
C682 C683 1.367 . S
C683 C682 1.367 . S
C683 C685 1.433 . S
C684 C680 1.350 . S
C684 C681 1.463 1_455 S
C684 N688 1.427 . S
C685 H675 0.929 . S
C685 C683 1.433 . S
C685 N688 1.384 . S
C686 H677 0.929 1_655 S
C686 C678 1.378 . S
C686 C681 1.350 . S
C687 H674 0.929 . S
C687 C679 1.433 . S
C687 N689 1.384 . S
N688 C684 1.427 . S
N688 C685 1.384 . S
N689 C681 1.427 . S
N689 C687 1.384 . S
H690 C696 0.930 . S
H691 C700 0.930 . S
H692 C705 0.929 . S
H693 C703 0.929 . S
H694 C698 0.929 . S
H695 C704 0.929 . S
C696 H690 0.930 . S
C696 C697 1.367 . S
C696 C704 1.378 . S
C697 C696 1.367 . S
C697 C705 1.433 . S
C698 H694 0.929 . S
C698 C700 1.378 . S
C698 C702 1.350 . S
C699 C702 1.463 1_565 S
C699 C704 1.350 . S
C699 N707 1.427 . S
C700 H691 0.930 . S
C700 C698 1.378 . S
C700 C701 1.367 . S
C701 C700 1.367 . S
C701 C703 1.433 . S
C702 C698 1.350 . S
C702 C699 1.463 1_545 S
C702 N706 1.427 . S
C703 H693 0.929 . S
C703 C701 1.433 . S
C703 N706 1.384 . S
C704 H695 0.929 . S
C704 C696 1.378 . S
C704 C699 1.350 . S
C705 H692 0.929 . S
C705 C697 1.433 . S
C705 N707 1.384 . S
N706 C702 1.427 . S
N706 C703 1.384 . S
N707 C699 1.427 . S
N707 C705 1.384 . S
H708 C714 0.930 . S
H709 C718 0.930 . S
H710 C723 0.929 . S
H711 C721 0.929 . S
H712 C716 0.929 1_455 S
H713 C722 0.929 1_655 S
C714 H708 0.930 . S
C714 C715 1.367 . S
C714 C722 1.378 . S
C715 C714 1.367 . S
C715 C723 1.433 . S
C716 H712 0.929 1_655 S
C716 C718 1.378 . S
C716 C720 1.350 . S
C717 C720 1.463 1_455 S
C717 C722 1.350 . S
C717 N725 1.427 . S
C718 H709 0.930 . S
C718 C716 1.378 . S
C718 C719 1.367 . S
C719 C718 1.367 . S
C719 C721 1.433 . S
C720 C716 1.350 . S
C720 C717 1.463 1_655 S
C720 N724 1.427 . S
C721 H711 0.929 . S
C721 C719 1.433 . S
C721 N724 1.384 . S
C722 H713 0.929 1_455 S
C722 C714 1.378 . S
C722 C717 1.350 . S
C723 H710 0.929 . S
C723 C715 1.433 . S
C723 N725 1.384 . S
N724 C720 1.427 . S
N724 C721 1.384 . S
N725 C717 1.427 . S
N725 C723 1.384 . S
H726 C732 0.930 . S
H727 C736 0.930 . S
H728 C741 0.929 . S
H729 C739 0.929 . S
H730 C734 0.929 . S
H731 C740 0.929 . S
C732 H726 0.930 . S
C732 C733 1.367 . S
C732 C740 1.378 . S
C733 C732 1.367 . S
C733 C741 1.433 . S
C734 H730 0.929 . S
C734 C736 1.378 . S
C734 C738 1.350 . S
C735 C738 1.463 1_565 S
C735 C740 1.350 . S
C735 N743 1.427 . S
C736 H727 0.930 . S
C736 C734 1.378 . S
C736 C737 1.367 . S
C737 C736 1.367 . S
C737 C739 1.433 . S
C738 C734 1.350 . S
C738 C735 1.463 1_545 S
C738 N742 1.427 . S
C739 H729 0.929 . S
C739 C737 1.433 . S
C739 N742 1.384 . S
C740 H731 0.929 . S
C740 C732 1.378 . S
C740 C735 1.350 . S
C741 H728 0.929 . S
C741 C733 1.433 . S
C741 N743 1.384 . S
N742 C738 1.427 . S
N742 C739 1.384 . S
N743 C735 1.427 . S
N743 C741 1.384 . S
H744 C750 0.930 . S
H745 C754 0.930 . S
H746 C759 0.929 . S
H747 C757 0.929 . S
H748 C752 0.929 1_655 S
H749 C758 0.929 1_455 S
C750 H744 0.930 . S
C750 C751 1.367 . S
C750 C758 1.378 . S
C751 C750 1.367 . S
C751 C759 1.433 . S
C752 H748 0.929 1_455 S
C752 C754 1.378 . S
C752 C756 1.350 . S
C753 C756 1.463 1_655 S
C753 C758 1.350 . S
C753 N761 1.427 . S
C754 H745 0.930 . S
C754 C752 1.378 . S
C754 C755 1.367 . S
C755 C754 1.367 . S
C755 C757 1.433 . S
C756 C752 1.350 . S
C756 C753 1.463 1_455 S
C756 N760 1.427 . S
C757 H747 0.929 . S
C757 C755 1.433 . S
C757 N760 1.384 . S
C758 H749 0.929 1_655 S
C758 C750 1.378 . S
C758 C753 1.350 . S
C759 H746 0.929 . S
C759 C751 1.433 . S
C759 N761 1.384 . S
N760 C756 1.427 . S
N760 C757 1.384 . S
N761 C753 1.427 . S
N761 C759 1.384 . S
H762 C768 0.930 . S
H763 C772 0.930 . S
H764 C777 0.929 . S
H765 C775 0.929 . S
H766 C770 0.929 . S
H767 C776 0.929 . S
C768 H762 0.930 . S
C768 C769 1.367 . S
C768 C776 1.378 . S
C769 C768 1.367 . S
C769 C777 1.433 . S
C770 H766 0.929 . S
C770 C772 1.378 . S
C770 C774 1.350 . S
C771 C774 1.463 1_545 S
C771 C776 1.350 . S
C771 N779 1.427 . S
C772 H763 0.930 . S
C772 C770 1.378 . S
C772 C773 1.367 . S
C773 C772 1.367 . S
C773 C775 1.433 . S
C774 C770 1.350 . S
C774 C771 1.463 1_565 S
C774 N778 1.427 . S
C775 H765 0.929 . S
C775 C773 1.433 . S
C775 N778 1.384 . S
C776 H767 0.929 . S
C776 C768 1.378 . S
C776 C771 1.350 . S
C777 H764 0.929 . S
C777 C769 1.433 . S
C777 N779 1.384 . S
N778 C774 1.427 . S
N778 C775 1.384 . S
N779 C771 1.427 . S
N779 C777 1.384 . S
H780 C786 0.930 . S
H781 C790 0.930 . S
H782 C795 0.929 . S
H783 C793 0.929 . S
H784 C788 0.929 1_455 S
H785 C794 0.929 1_655 S
C786 H780 0.930 . S
C786 C787 1.367 . S
C786 C794 1.378 . S
C787 C786 1.367 . S
C787 C795 1.433 . S
C788 H784 0.929 1_655 S
C788 C790 1.378 . S
C788 C792 1.350 . S
C789 C792 1.463 1_455 S
C789 C794 1.350 . S
C789 N797 1.427 . S
C790 H781 0.930 . S
C790 C788 1.378 . S
C790 C791 1.367 . S
C791 C790 1.367 . S
C791 C793 1.433 . S
C792 C788 1.350 . S
C792 C789 1.463 1_655 S
C792 N796 1.427 . S
C793 H783 0.929 . S
C793 C791 1.433 . S
C793 N796 1.384 . S
C794 H785 0.929 1_455 S
C794 C786 1.378 . S
C794 C789 1.350 . S
C795 H782 0.929 . S
C795 C787 1.433 . S
C795 N797 1.384 . S
N796 C792 1.427 . S
N796 C793 1.384 . S
N797 C789 1.427 . S
N797 C795 1.384 . S
H798 C804 0.930 . S
H799 C808 0.930 . S
H800 C813 0.929 . S
H801 C811 0.929 . S
H802 C806 0.929 . S
H803 C812 0.929 . S
C804 H798 0.930 . S
C804 C805 1.367 . S
C804 C812 1.378 . S
C805 C804 1.367 . S
C805 C813 1.433 . S
C806 H802 0.929 . S
C806 C808 1.378 . S
C806 C810 1.350 . S
C807 C810 1.463 1_545 S
C807 C812 1.350 . S
C807 N815 1.427 . S
C808 H799 0.930 . S
C808 C806 1.378 . S
C808 C809 1.367 . S
C809 C808 1.367 . S
C809 C811 1.433 . S
C810 C806 1.350 . S
C810 C807 1.463 1_565 S
C810 N814 1.427 . S
C811 H801 0.929 . S
C811 C809 1.433 . S
C811 N814 1.384 . S
C812 H803 0.929 . S
C812 C804 1.378 . S
C812 C807 1.350 . S
C813 H800 0.929 . S
C813 C805 1.433 . S
C813 N815 1.384 . S
N814 C810 1.427 . S
N814 C811 1.384 . S
N815 C807 1.427 . S
N815 C813 1.384 . S
H816 C822 0.930 . S
H817 C826 0.930 . S
H818 C831 0.929 . S
H819 C829 0.929 . S
H820 C824 0.929 . S
H821 C830 0.929 . S
C822 H816 0.930 . S
C822 C823 1.367 . S
C822 C830 1.378 . S
C823 C822 1.367 . S
C823 C831 1.433 . S
C824 H820 0.929 . S
C824 C826 1.378 . S
C824 C828 1.350 . S
C825 C828 1.463 1_554 S
C825 C830 1.350 . S
C825 N833 1.427 . S
C826 H817 0.930 . S
C826 C824 1.378 . S
C826 C827 1.367 . S
C827 C826 1.367 . S
C827 C829 1.433 . S
C828 C824 1.350 . S
C828 C825 1.463 1_556 S
C828 N832 1.427 . S
C829 H819 0.929 . S
C829 C827 1.433 . S
C829 N832 1.384 . S
C830 H821 0.929 . S
C830 C822 1.378 . S
C830 C825 1.350 . S
C831 H818 0.929 . S
C831 C823 1.433 . S
C831 N833 1.384 . S
N832 C828 1.427 . S
N832 C829 1.384 . S
N833 C825 1.427 . S
N833 C831 1.384 . S
H834 C840 0.930 . S
H835 C844 0.930 . S
H836 C849 0.929 . S
H837 C847 0.929 . S
H838 C842 0.929 . S
H839 C848 0.929 . S
C840 H834 0.930 . S
C840 C841 1.367 . S
C840 C848 1.378 . S
C841 C840 1.367 . S
C841 C849 1.433 . S
C842 H838 0.929 . S
C842 C844 1.378 . S
C842 C846 1.350 . S
C843 C846 1.463 1_556 S
C843 C848 1.350 . S
C843 N851 1.427 . S
C844 H835 0.930 . S
C844 C842 1.378 . S
C844 C845 1.367 . S
C845 C844 1.367 . S
C845 C847 1.433 . S
C846 C842 1.350 . S
C846 C843 1.463 1_554 S
C846 N850 1.427 . S
C847 H837 0.929 . S
C847 C845 1.433 . S
C847 N850 1.384 . S
C848 H839 0.929 . S
C848 C840 1.378 . S
C848 C843 1.350 . S
C849 H836 0.929 . S
C849 C841 1.433 . S
C849 N851 1.384 . S
N850 C846 1.427 . S
N850 C847 1.384 . S
N851 C843 1.427 . S
N851 C849 1.384 . S
H852 C858 0.930 . S
H853 C862 0.930 . S
H854 C867 0.929 . S
H855 C865 0.929 . S
H856 C860 0.929 . S
H857 C866 0.929 . S
C858 H852 0.930 . S
C858 C859 1.367 . S
C858 C866 1.378 . S
C859 C858 1.367 . S
C859 C867 1.433 . S
C860 H856 0.929 . S
C860 C862 1.378 . S
C860 C864 1.350 . S
C861 C864 1.463 1_556 S
C861 C866 1.350 . S
C861 N869 1.427 . S
C862 H853 0.930 . S
C862 C860 1.378 . S
C862 C863 1.367 . S
C863 C862 1.367 . S
C863 C865 1.433 . S
C864 C860 1.350 . S
C864 C861 1.463 1_554 S
C864 N868 1.427 . S
C865 H855 0.929 . S
C865 C863 1.433 . S
C865 N868 1.384 . S
C866 H857 0.929 . S
C866 C858 1.378 . S
C866 C861 1.350 . S
C867 H854 0.929 . S
C867 C859 1.433 . S
C867 N869 1.384 . S
N868 C864 1.427 . S
N868 C865 1.384 . S
N869 C861 1.427 . S
N869 C867 1.384 . S
H870 C876 0.930 . S
H871 C880 0.930 . S
H872 C885 0.929 . S
H873 C883 0.929 . S
H874 C878 0.929 1_556 S
H875 C884 0.929 1_554 S
C876 H870 0.930 . S
C876 C877 1.367 . S
C876 C884 1.378 . S
C877 C876 1.367 . S
C877 C885 1.433 . S
C878 H874 0.929 1_554 S
C878 C880 1.378 . S
C878 C882 1.350 . S
C879 C882 1.463 1_556 S
C879 C884 1.350 . S
C879 N887 1.427 . S
C880 H871 0.930 . S
C880 C878 1.378 . S
C880 C881 1.367 . S
C881 C880 1.367 . S
C881 C883 1.433 . S
C882 C878 1.350 . S
C882 C879 1.463 1_554 S
C882 N886 1.427 . S
C883 H873 0.929 . S
C883 C881 1.433 . S
C883 N886 1.384 . S
C884 H875 0.929 1_556 S
C884 C876 1.378 . S
C884 C879 1.350 . S
C885 H872 0.929 . S
C885 C877 1.433 . S
C885 N887 1.384 . S
N886 C882 1.427 . S
N886 C883 1.384 . S
N887 C879 1.427 . S
N887 C885 1.384 . S
H888 C894 0.930 . S
H889 C898 0.930 . S
H890 C903 0.929 . S
H891 C901 0.929 . S
H892 C896 0.929 . S
H893 C902 0.929 . S
C894 H888 0.930 . S
C894 C895 1.367 . S
C894 C902 1.378 . S
C895 C894 1.367 . S
C895 C903 1.433 . S
C896 H892 0.929 . S
C896 C898 1.378 . S
C896 C900 1.350 . S
C897 C900 1.463 . S
C897 C902 1.350 . S
C897 N905 1.427 . S
C898 H889 0.930 . S
C898 C896 1.378 . S
C898 C899 1.367 . S
C899 C898 1.367 . S
C899 C901 1.433 . S
C900 C896 1.350 . S
C900 C897 1.463 . S
C900 N904 1.427 . S
C901 H891 0.929 . S
C901 C899 1.433 . S
C901 N904 1.384 . S
C902 H893 0.929 . S
C902 C894 1.378 . S
C902 C897 1.350 . S
C903 H890 0.929 . S
C903 C895 1.433 . S
C903 N905 1.384 . S
N904 C900 1.427 . S
N904 C901 1.384 . S
N905 C897 1.427 . S
N905 C903 1.384 . S
H906 C912 0.930 . S
H907 C916 0.930 . S
H908 C921 0.929 . S
H909 C919 0.929 . S
H910 C914 0.929 . S
H911 C920 0.929 . S
C912 H906 0.930 . S
C912 C913 1.367 . S
C912 C920 1.378 . S
C913 C912 1.367 . S
C913 C921 1.433 . S
C914 H910 0.929 . S
C914 C916 1.378 . S
C914 C918 1.350 . S
C915 C918 1.463 . S
C915 C920 1.350 . S
C915 N923 1.427 . S
C916 H907 0.930 . S
C916 C914 1.378 . S
C916 C917 1.367 . S
C917 C916 1.367 . S
C917 C919 1.433 . S
C918 C914 1.350 . S
C918 C915 1.463 . S
C918 N922 1.427 . S
C919 H909 0.929 . S
C919 C917 1.433 . S
C919 N922 1.384 . S
C920 H911 0.929 . S
C920 C912 1.378 . S
C920 C915 1.350 . S
C921 H908 0.929 . S
C921 C913 1.433 . S
C921 N923 1.384 . S
N922 C918 1.427 . S
N922 C919 1.384 . S
N923 C915 1.427 . S
N923 C921 1.384 . S
H924 C930 0.930 . S
H925 C934 0.930 . S
H926 C939 0.929 . S
H927 C937 0.929 . S
H928 C932 0.929 . S
H929 C938 0.929 . S
C930 H924 0.930 . S
C930 C931 1.367 . S
C930 C938 1.378 . S
C931 C930 1.367 . S
C931 C939 1.433 . S
C932 H928 0.929 . S
C932 C934 1.378 . S
C932 C936 1.350 . S
C933 C936 1.463 . S
C933 C938 1.350 . S
C933 N941 1.427 . S
C934 H925 0.930 . S
C934 C932 1.378 . S
C934 C935 1.367 . S
C935 C934 1.367 . S
C935 C937 1.433 . S
C936 C932 1.350 . S
C936 C933 1.463 . S
C936 N940 1.427 . S
C937 H927 0.929 . S
C937 C935 1.433 . S
C937 N940 1.384 . S
C938 H929 0.929 . S
C938 C930 1.378 . S
C938 C933 1.350 . S
C939 H926 0.929 . S
C939 C931 1.433 . S
C939 N941 1.384 . S
N940 C936 1.427 . S
N940 C937 1.384 . S
N941 C933 1.427 . S
N941 C939 1.384 . S
H942 C948 0.930 . S
H943 C952 0.930 . S
H944 C957 0.929 . S
H945 C955 0.929 . S
H946 C950 0.929 . S
H947 C956 0.929 . S
C948 H942 0.930 . S
C948 C949 1.367 . S
C948 C956 1.378 . S
C949 C948 1.367 . S
C949 C957 1.433 . S
C950 H946 0.929 . S
C950 C952 1.378 . S
C950 C954 1.350 . S
C951 C954 1.463 . S
C951 C956 1.350 . S
C951 N959 1.427 . S
C952 H943 0.930 . S
C952 C950 1.378 . S
C952 C953 1.367 . S
C953 C952 1.367 . S
C953 C955 1.433 . S
C954 C950 1.350 . S
C954 C951 1.463 . S
C954 N958 1.427 . S
C955 H945 0.929 . S
C955 C953 1.433 . S
C955 N958 1.384 . S
C956 H947 0.929 . S
C956 C948 1.378 . S
C956 C951 1.350 . S
C957 H944 0.929 . S
C957 C949 1.433 . S
C957 N959 1.384 . S
N958 C954 1.427 . S
N958 C955 1.384 . S
N959 C951 1.427 . S
N959 C957 1.384 . S
H960 C966 0.930 . S
H961 C970 0.930 . S
H962 C975 0.929 . S
H963 C973 0.929 . S
H964 C968 0.929 . S
H965 C974 0.929 . S
C966 H960 0.930 . S
C966 C967 1.367 . S
C966 C974 1.378 . S
C967 C966 1.367 . S
C967 C975 1.433 . S
C968 H964 0.929 . S
C968 C970 1.378 . S
C968 C972 1.350 . S
C969 C972 1.463 . S
C969 C974 1.350 . S
C969 N977 1.427 . S
C970 H961 0.930 . S
C970 C968 1.378 . S
C970 C971 1.367 . S
C971 C970 1.367 . S
C971 C973 1.433 . S
C972 C968 1.350 . S
C972 C969 1.463 . S
C972 N976 1.427 . S
C973 H963 0.929 . S
C973 C971 1.433 . S
C973 N976 1.384 . S
C974 H965 0.929 . S
C974 C966 1.378 . S
C974 C969 1.350 . S
C975 H962 0.929 . S
C975 C967 1.433 . S
C975 N977 1.384 . S
N976 C972 1.427 . S
N976 C973 1.384 . S
N977 C969 1.427 . S
N977 C975 1.384 . S
H978 C984 0.930 . S
H979 C988 0.930 . S
H980 C993 0.929 . S
H981 C991 0.929 . S
H982 C986 0.929 . S
H983 C992 0.929 . S
C984 H978 0.930 . S
C984 C985 1.367 . S
C984 C992 1.378 . S
C985 C984 1.367 . S
C985 C993 1.433 . S
C986 H982 0.929 . S
C986 C988 1.378 . S
C986 C990 1.350 . S
C987 C990 1.463 . S
C987 C992 1.350 . S
C987 N995 1.427 . S
C988 H979 0.930 . S
C988 C986 1.378 . S
C988 C989 1.367 . S
C989 C988 1.367 . S
C989 C991 1.433 . S
C990 C986 1.350 . S
C990 C987 1.463 . S
C990 N994 1.427 . S
C991 H981 0.929 . S
C991 C989 1.433 . S
C991 N994 1.384 . S
C992 H983 0.929 . S
C992 C984 1.378 . S
C992 C987 1.350 . S
C993 H980 0.929 . S
C993 C985 1.433 . S
C993 N995 1.384 . S
N994 C990 1.427 . S
N994 C991 1.384 . S
N995 C987 1.427 . S
N995 C993 1.384 . S
H996 C1002 0.930 . S
H997 C1006 0.930 . S
H998 C1011 0.929 . S
H999 C1009 0.929 . S
H1000 C1004 0.929 . S
H1001 C1010 0.929 . S
C1002 H996 0.930 . S
C1002 C1003 1.367 . S
C1002 C1010 1.378 . S
C1003 C1002 1.367 . S
C1003 C1011 1.433 . S
C1004 H1000 0.929 . S
C1004 C1006 1.378 . S
C1004 C1008 1.350 . S
C1005 C1008 1.463 . S
C1005 C1010 1.350 . S
C1005 N1013 1.427 . S
C1006 H997 0.930 . S
C1006 C1004 1.378 . S
C1006 C1007 1.367 . S
C1007 C1006 1.367 . S
C1007 C1009 1.433 . S
C1008 C1004 1.350 . S
C1008 C1005 1.463 . S
C1008 N1012 1.427 . S
C1009 H999 0.929 . S
C1009 C1007 1.433 . S
C1009 N1012 1.384 . S
C1010 H1001 0.929 . S
C1010 C1002 1.378 . S
C1010 C1005 1.350 . S
C1011 H998 0.929 . S
C1011 C1003 1.433 . S
C1011 N1013 1.384 . S
N1012 C1008 1.427 . S
N1012 C1009 1.384 . S
N1013 C1005 1.427 . S
N1013 C1011 1.384 . S
H1014 C1020 0.930 . S
H1015 C1024 0.930 . S
H1016 C1029 0.929 . S
H1017 C1027 0.929 . S
H1018 C1022 0.929 . S
H1019 C1028 0.929 . S
C1020 H1014 0.930 . S
C1020 C1021 1.367 . S
C1020 C1028 1.378 . S
C1021 C1020 1.367 . S
C1021 C1029 1.433 . S
C1022 H1018 0.929 . S
C1022 C1024 1.378 . S
C1022 C1026 1.350 . S
C1023 C1026 1.463 . S
C1023 C1028 1.350 . S
C1023 N1031 1.427 . S
C1024 H1015 0.930 . S
C1024 C1022 1.378 . S
C1024 C1025 1.367 . S
C1025 C1024 1.367 . S
C1025 C1027 1.433 . S
C1026 C1022 1.350 . S
C1026 C1023 1.463 . S
C1026 N1030 1.427 . S
C1027 H1017 0.929 . S
C1027 C1025 1.433 . S
C1027 N1030 1.384 . S
C1028 H1019 0.929 . S
C1028 C1020 1.378 . S
C1028 C1023 1.350 . S
C1029 H1016 0.929 . S
C1029 C1021 1.433 . S
C1029 N1031 1.384 . S
N1030 C1026 1.427 . S
N1030 C1027 1.384 . S
N1031 C1023 1.427 . S
N1031 C1029 1.384 . S
H1032 C1038 0.930 . S
H1033 C1042 0.930 . S
H1034 C1047 0.929 . S
H1035 C1045 0.929 . S
H1036 C1040 0.929 . S
H1037 C1046 0.929 . S
C1038 H1032 0.930 . S
C1038 C1039 1.367 . S
C1038 C1046 1.378 . S
C1039 C1038 1.367 . S
C1039 C1047 1.433 . S
C1040 H1036 0.929 . S
C1040 C1042 1.378 . S
C1040 C1044 1.350 . S
C1041 C1044 1.463 . S
C1041 C1046 1.350 . S
C1041 N1049 1.427 . S
C1042 H1033 0.930 . S
C1042 C1040 1.378 . S
C1042 C1043 1.367 . S
C1043 C1042 1.367 . S
C1043 C1045 1.433 . S
C1044 C1040 1.350 . S
C1044 C1041 1.463 . S
C1044 N1048 1.427 . S
C1045 H1035 0.929 . S
C1045 C1043 1.433 . S
C1045 N1048 1.384 . S
C1046 H1037 0.929 . S
C1046 C1038 1.378 . S
C1046 C1041 1.350 . S
C1047 H1034 0.929 . S
C1047 C1039 1.433 . S
C1047 N1049 1.384 . S
N1048 C1044 1.427 . S
N1048 C1045 1.384 . S
N1049 C1041 1.427 . S
N1049 C1047 1.384 . S
H1050 C1056 0.930 . S
H1051 C1060 0.930 . S
H1052 C1065 0.929 . S
H1053 C1063 0.929 . S
H1054 C1058 0.929 . S
H1055 C1064 0.929 . S
C1056 H1050 0.930 . S
C1056 C1057 1.367 . S
C1056 C1064 1.378 . S
C1057 C1056 1.367 . S
C1057 C1065 1.433 . S
C1058 H1054 0.929 . S
C1058 C1060 1.378 . S
C1058 C1062 1.350 . S
C1059 C1062 1.463 . S
C1059 C1064 1.350 . S
C1059 N1067 1.427 . S
C1060 H1051 0.930 . S
C1060 C1058 1.378 . S
C1060 C1061 1.367 . S
C1061 C1060 1.367 . S
C1061 C1063 1.433 . S
C1062 C1058 1.350 . S
C1062 C1059 1.463 . S
C1062 N1066 1.427 . S
C1063 H1053 0.929 . S
C1063 C1061 1.433 . S
C1063 N1066 1.384 . S
C1064 H1055 0.929 . S
C1064 C1056 1.378 . S
C1064 C1059 1.350 . S
C1065 H1052 0.929 . S
C1065 C1057 1.433 . S
C1065 N1067 1.384 . S
N1066 C1062 1.427 . S
N1066 C1063 1.384 . S
N1067 C1059 1.427 . S
N1067 C1065 1.384 . S
H1068 C1074 0.930 . S
H1069 C1078 0.930 . S
H1070 C1083 0.929 . S
H1071 C1081 0.929 . S
H1072 C1076 0.929 . S
H1073 C1082 0.929 . S
C1074 H1068 0.930 . S
C1074 C1075 1.367 . S
C1074 C1082 1.378 . S
C1075 C1074 1.367 . S
C1075 C1083 1.433 . S
C1076 H1072 0.929 . S
C1076 C1078 1.378 . S
C1076 C1080 1.350 . S
C1077 C1080 1.463 . S
C1077 C1082 1.350 . S
C1077 N1085 1.427 . S
C1078 H1069 0.930 . S
C1078 C1076 1.378 . S
C1078 C1079 1.367 . S
C1079 C1078 1.367 . S
C1079 C1081 1.433 . S
C1080 C1076 1.350 . S
C1080 C1077 1.463 . S
C1080 N1084 1.427 . S
C1081 H1071 0.929 . S
C1081 C1079 1.433 . S
C1081 N1084 1.384 . S
C1082 H1073 0.929 . S
C1082 C1074 1.378 . S
C1082 C1077 1.350 . S
C1083 H1070 0.929 . S
C1083 C1075 1.433 . S
C1083 N1085 1.384 . S
N1084 C1080 1.427 . S
N1084 C1081 1.384 . S
N1085 C1077 1.427 . S
N1085 C1083 1.384 . S
H1086 C1092 0.930 . S
H1087 C1096 0.930 . S
H1088 C1101 0.929 . S
H1089 C1099 0.929 . S
H1090 C1094 0.929 . S
H1091 C1100 0.929 . S
C1092 H1086 0.930 . S
C1092 C1093 1.367 . S
C1092 C1100 1.378 . S
C1093 C1092 1.367 . S
C1093 C1101 1.433 . S
C1094 H1090 0.929 . S
C1094 C1096 1.378 . S
C1094 C1098 1.350 . S
C1095 C1098 1.463 . S
C1095 C1100 1.350 . S
C1095 N1103 1.427 . S
C1096 H1087 0.930 . S
C1096 C1094 1.378 . S
C1096 C1097 1.367 . S
C1097 C1096 1.367 . S
C1097 C1099 1.433 . S
C1098 C1094 1.350 . S
C1098 C1095 1.463 . S
C1098 N1102 1.427 . S
C1099 H1089 0.929 . S
C1099 C1097 1.433 . S
C1099 N1102 1.384 . S
C1100 H1091 0.929 . S
C1100 C1092 1.378 . S
C1100 C1095 1.350 . S
C1101 H1088 0.929 . S
C1101 C1093 1.433 . S
C1101 N1103 1.384 . S
N1102 C1098 1.427 . S
N1102 C1099 1.384 . S
N1103 C1095 1.427 . S
N1103 C1101 1.384 . S
H1104 C1110 0.930 . S
H1105 C1114 0.930 . S
H1106 C1119 0.929 . S
H1107 C1117 0.929 . S
H1108 C1112 0.929 . S
H1109 C1118 0.929 . S
C1110 H1104 0.930 . S
C1110 C1111 1.367 . S
C1110 C1118 1.378 . S
C1111 C1110 1.367 . S
C1111 C1119 1.433 . S
C1112 H1108 0.929 . S
C1112 C1114 1.378 . S
C1112 C1116 1.350 . S
C1113 C1116 1.463 . S
C1113 C1118 1.350 . S
C1113 N1121 1.427 . S
C1114 H1105 0.930 . S
C1114 C1112 1.378 . S
C1114 C1115 1.367 . S
C1115 C1114 1.367 . S
C1115 C1117 1.433 . S
C1116 C1112 1.350 . S
C1116 C1113 1.463 . S
C1116 N1120 1.427 . S
C1117 H1107 0.929 . S
C1117 C1115 1.433 . S
C1117 N1120 1.384 . S
C1118 H1109 0.929 . S
C1118 C1110 1.378 . S
C1118 C1113 1.350 . S
C1119 H1106 0.929 . S
C1119 C1111 1.433 . S
C1119 N1121 1.384 . S
N1120 C1116 1.427 . S
N1120 C1117 1.384 . S
N1121 C1113 1.427 . S
N1121 C1119 1.384 . S
H1122 C1128 0.930 . S
H1123 C1132 0.930 . S
H1124 C1137 0.929 . S
H1125 C1135 0.929 . S
H1126 C1130 0.929 . S
H1127 C1136 0.929 . S
C1128 H1122 0.930 . S
C1128 C1129 1.367 . S
C1128 C1136 1.378 . S
C1129 C1128 1.367 . S
C1129 C1137 1.433 . S
C1130 H1126 0.929 . S
C1130 C1132 1.378 . S
C1130 C1134 1.350 . S
C1131 C1134 1.463 . S
C1131 C1136 1.350 . S
C1131 N1139 1.427 . S
C1132 H1123 0.930 . S
C1132 C1130 1.378 . S
C1132 C1133 1.367 . S
C1133 C1132 1.367 . S
C1133 C1135 1.433 . S
C1134 C1130 1.350 . S
C1134 C1131 1.463 . S
C1134 N1138 1.427 . S
C1135 H1125 0.929 . S
C1135 C1133 1.433 . S
C1135 N1138 1.384 . S
C1136 H1127 0.929 . S
C1136 C1128 1.378 . S
C1136 C1131 1.350 . S
C1137 H1124 0.929 . S
C1137 C1129 1.433 . S
C1137 N1139 1.384 . S
N1138 C1134 1.427 . S
N1138 C1135 1.384 . S
N1139 C1131 1.427 . S
N1139 C1137 1.384 . S
H1140 C1146 0.930 . S
H1141 C1150 0.930 . S
H1142 C1155 0.929 . S
H1143 C1153 0.929 . S
H1144 C1148 0.929 . S
H1145 C1154 0.929 . S
C1146 H1140 0.930 . S
C1146 C1147 1.367 . S
C1146 C1154 1.378 . S
C1147 C1146 1.367 . S
C1147 C1155 1.433 . S
C1148 H1144 0.929 . S
C1148 C1150 1.378 . S
C1148 C1152 1.350 . S
C1149 C1152 1.463 . S
C1149 C1154 1.350 . S
C1149 N1157 1.427 . S
C1150 H1141 0.930 . S
C1150 C1148 1.378 . S
C1150 C1151 1.367 . S
C1151 C1150 1.367 . S
C1151 C1153 1.433 . S
C1152 C1148 1.350 . S
C1152 C1149 1.463 . S
C1152 N1156 1.427 . S
C1153 H1143 0.929 . S
C1153 C1151 1.433 . S
C1153 N1156 1.384 . S
C1154 H1145 0.929 . S
C1154 C1146 1.378 . S
C1154 C1149 1.350 . S
C1155 H1142 0.929 . S
C1155 C1147 1.433 . S
C1155 N1157 1.384 . S
N1156 C1152 1.427 . S
N1156 C1153 1.384 . S
N1157 C1149 1.427 . S
N1157 C1155 1.384 . S
H1158 C1164 0.930 . S
H1159 C1168 0.930 . S
H1160 C1173 0.929 . S
H1161 C1171 0.929 . S
H1162 C1166 0.929 . S
H1163 C1172 0.929 . S
C1164 H1158 0.930 . S
C1164 C1165 1.367 . S
C1164 C1172 1.378 . S
C1165 C1164 1.367 . S
C1165 C1173 1.433 . S
C1166 H1162 0.929 . S
C1166 C1168 1.378 . S
C1166 C1170 1.350 . S
C1167 C1170 1.463 . S
C1167 C1172 1.350 . S
C1167 N1175 1.427 . S
C1168 H1159 0.930 . S
C1168 C1166 1.378 . S
C1168 C1169 1.367 . S
C1169 C1168 1.367 . S
C1169 C1171 1.433 . S
C1170 C1166 1.350 . S
C1170 C1167 1.463 . S
C1170 N1174 1.427 . S
C1171 H1161 0.929 . S
C1171 C1169 1.433 . S
C1171 N1174 1.384 . S
C1172 H1163 0.929 . S
C1172 C1164 1.378 . S
C1172 C1167 1.350 . S
C1173 H1160 0.929 . S
C1173 C1165 1.433 . S
C1173 N1175 1.384 . S
N1174 C1170 1.427 . S
N1174 C1171 1.384 . S
N1175 C1167 1.427 . S
N1175 C1173 1.384 . S
H1176 C1182 0.930 . S
H1177 C1186 0.930 . S
H1178 C1191 0.929 . S
H1179 C1189 0.929 . S
H1180 C1184 0.929 . S
H1181 C1190 0.929 . S
C1182 H1176 0.930 . S
C1182 C1183 1.367 . S
C1182 C1190 1.378 . S
C1183 C1182 1.367 . S
C1183 C1191 1.433 . S
C1184 H1180 0.929 . S
C1184 C1186 1.378 . S
C1184 C1188 1.350 . S
C1185 C1188 1.463 . S
C1185 C1190 1.350 . S
C1185 N1193 1.427 . S
C1186 H1177 0.930 . S
C1186 C1184 1.378 . S
C1186 C1187 1.367 . S
C1187 C1186 1.367 . S
C1187 C1189 1.433 . S
C1188 C1184 1.350 . S
C1188 C1185 1.463 . S
C1188 N1192 1.427 . S
C1189 H1179 0.929 . S
C1189 C1187 1.433 . S
C1189 N1192 1.384 . S
C1190 H1181 0.929 . S
C1190 C1182 1.378 . S
C1190 C1185 1.350 . S
C1191 H1178 0.929 . S
C1191 C1183 1.433 . S
C1191 N1193 1.384 . S
N1192 C1188 1.427 . S
N1192 C1189 1.384 . S
N1193 C1185 1.427 . S
N1193 C1191 1.384 . S
H1194 C1200 0.930 . S
H1195 C1204 0.930 . S
H1196 C1209 0.929 . S
H1197 C1207 0.929 . S
H1198 C1202 0.929 . S
H1199 C1208 0.929 . S
C1200 H1194 0.930 . S
C1200 C1201 1.367 . S
C1200 C1208 1.378 . S
C1201 C1200 1.367 . S
C1201 C1209 1.433 . S
C1202 H1198 0.929 . S
C1202 C1204 1.378 . S
C1202 C1206 1.350 . S
C1203 C1206 1.463 . S
C1203 C1208 1.350 . S
C1203 N1211 1.427 . S
C1204 H1195 0.930 . S
C1204 C1202 1.378 . S
C1204 C1205 1.367 . S
C1205 C1204 1.367 . S
C1205 C1207 1.433 . S
C1206 C1202 1.350 . S
C1206 C1203 1.463 . S
C1206 N1210 1.427 . S
C1207 H1197 0.929 . S
C1207 C1205 1.433 . S
C1207 N1210 1.384 . S
C1208 H1199 0.929 . S
C1208 C1200 1.378 . S
C1208 C1203 1.350 . S
C1209 H1196 0.929 . S
C1209 C1201 1.433 . S
C1209 N1211 1.384 . S
N1210 C1206 1.427 . S
N1210 C1207 1.384 . S
N1211 C1203 1.427 . S
N1211 C1209 1.384 . S
H1212 C1218 0.930 . S
H1213 C1222 0.930 . S
H1214 C1227 0.929 . S
H1215 C1225 0.929 . S
H1216 C1220 0.929 . S
H1217 C1226 0.929 . S
C1218 H1212 0.930 . S
C1218 C1219 1.367 . S
C1218 C1226 1.378 . S
C1219 C1218 1.367 . S
C1219 C1227 1.433 . S
C1220 H1216 0.929 . S
C1220 C1222 1.378 . S
C1220 C1224 1.350 . S
C1221 C1224 1.463 . S
C1221 C1226 1.350 . S
C1221 N1229 1.427 . S
C1222 H1213 0.930 . S
C1222 C1220 1.378 . S
C1222 C1223 1.367 . S
C1223 C1222 1.367 . S
C1223 C1225 1.433 . S
C1224 C1220 1.350 . S
C1224 C1221 1.463 . S
C1224 N1228 1.427 . S
C1225 H1215 0.929 . S
C1225 C1223 1.433 . S
C1225 N1228 1.384 . S
C1226 H1217 0.929 . S
C1226 C1218 1.378 . S
C1226 C1221 1.350 . S
C1227 H1214 0.929 . S
C1227 C1219 1.433 . S
C1227 N1229 1.384 . S
N1228 C1224 1.427 . S
N1228 C1225 1.384 . S
N1229 C1221 1.427 . S
N1229 C1227 1.384 . S
H1230 C1236 0.930 . S
H1231 C1240 0.930 . S
H1232 C1245 0.929 . S
H1233 C1243 0.929 . S
H1234 C1238 0.929 . S
H1235 C1244 0.929 . S
C1236 H1230 0.930 . S
C1236 C1237 1.367 . S
C1236 C1244 1.378 . S
C1237 C1236 1.367 . S
C1237 C1245 1.433 . S
C1238 H1234 0.929 . S
C1238 C1240 1.378 . S
C1238 C1242 1.350 . S
C1239 C1242 1.463 . S
C1239 C1244 1.350 . S
C1239 N1247 1.427 . S
C1240 H1231 0.930 . S
C1240 C1238 1.378 . S
C1240 C1241 1.367 . S
C1241 C1240 1.367 . S
C1241 C1243 1.433 . S
C1242 C1238 1.350 . S
C1242 C1239 1.463 . S
C1242 N1246 1.427 . S
C1243 H1233 0.929 . S
C1243 C1241 1.433 . S
C1243 N1246 1.384 . S
C1244 H1235 0.929 . S
C1244 C1236 1.378 . S
C1244 C1239 1.350 . S
C1245 H1232 0.929 . S
C1245 C1237 1.433 . S
C1245 N1247 1.384 . S
N1246 C1242 1.427 . S
N1246 C1243 1.384 . S
N1247 C1239 1.427 . S
N1247 C1245 1.384 . S
H1248 C1254 0.930 . S
H1249 C1258 0.930 . S
H1250 C1263 0.929 . S
H1251 C1261 0.929 . S
H1252 C1256 0.929 . S
H1253 C1262 0.929 . S
C1254 H1248 0.930 . S
C1254 C1255 1.367 . S
C1254 C1262 1.378 . S
C1255 C1254 1.367 . S
C1255 C1263 1.433 . S
C1256 H1252 0.929 . S
C1256 C1258 1.378 . S
C1256 C1260 1.350 . S
C1257 C1260 1.463 . S
C1257 C1262 1.350 . S
C1257 N1265 1.427 . S
C1258 H1249 0.930 . S
C1258 C1256 1.378 . S
C1258 C1259 1.367 . S
C1259 C1258 1.367 . S
C1259 C1261 1.433 . S
C1260 C1256 1.350 . S
C1260 C1257 1.463 . S
C1260 N1264 1.427 . S
C1261 H1251 0.929 . S
C1261 C1259 1.433 . S
C1261 N1264 1.384 . S
C1262 H1253 0.929 . S
C1262 C1254 1.378 . S
C1262 C1257 1.350 . S
C1263 H1250 0.929 . S
C1263 C1255 1.433 . S
C1263 N1265 1.384 . S
N1264 C1260 1.427 . S
N1264 C1261 1.384 . S
N1265 C1257 1.427 . S
N1265 C1263 1.384 . S
H1266 C1272 0.930 . S
H1267 C1276 0.930 . S
H1268 C1281 0.929 . S
H1269 C1279 0.929 . S
H1270 C1274 0.929 . S
H1271 C1280 0.929 . S
C1272 H1266 0.930 . S
C1272 C1273 1.367 . S
C1272 C1280 1.378 . S
C1273 C1272 1.367 . S
C1273 C1281 1.433 . S
C1274 H1270 0.929 . S
C1274 C1276 1.378 . S
C1274 C1278 1.350 . S
C1275 C1278 1.463 . S
C1275 C1280 1.350 . S
C1275 N1283 1.427 . S
C1276 H1267 0.930 . S
C1276 C1274 1.378 . S
C1276 C1277 1.367 . S
C1277 C1276 1.367 . S
C1277 C1279 1.433 . S
C1278 C1274 1.350 . S
C1278 C1275 1.463 . S
C1278 N1282 1.427 . S
C1279 H1269 0.929 . S
C1279 C1277 1.433 . S
C1279 N1282 1.384 . S
C1280 H1271 0.929 . S
C1280 C1272 1.378 . S
C1280 C1275 1.350 . S
C1281 H1268 0.929 . S
C1281 C1273 1.433 . S
C1281 N1283 1.384 . S
N1282 C1278 1.427 . S
N1282 C1279 1.384 . S
N1283 C1275 1.427 . S
N1283 C1281 1.384 . S
H1284 C1290 0.930 . S
H1285 C1294 0.930 . S
H1286 C1299 0.929 . S
H1287 C1297 0.929 . S
H1288 C1292 0.929 . S
H1289 C1298 0.929 . S
C1290 H1284 0.930 . S
C1290 C1291 1.367 . S
C1290 C1298 1.378 . S
C1291 C1290 1.367 . S
C1291 C1299 1.433 . S
C1292 H1288 0.929 . S
C1292 C1294 1.378 . S
C1292 C1296 1.350 . S
C1293 C1296 1.463 . S
C1293 C1298 1.350 . S
C1293 N1301 1.427 . S
C1294 H1285 0.930 . S
C1294 C1292 1.378 . S
C1294 C1295 1.367 . S
C1295 C1294 1.367 . S
C1295 C1297 1.433 . S
C1296 C1292 1.350 . S
C1296 C1293 1.463 . S
C1296 N1300 1.427 . S
C1297 H1287 0.929 . S
C1297 C1295 1.433 . S
C1297 N1300 1.384 . S
C1298 H1289 0.929 . S
C1298 C1290 1.378 . S
C1298 C1293 1.350 . S
C1299 H1286 0.929 . S
C1299 C1291 1.433 . S
C1299 N1301 1.384 . S
N1300 C1296 1.427 . S
N1300 C1297 1.384 . S
N1301 C1293 1.427 . S
N1301 C1299 1.384 . S
H1302 C1308 0.930 . S
H1303 C1312 0.930 . S
H1304 C1317 0.929 . S
H1305 C1315 0.929 . S
H1306 C1310 0.929 . S
H1307 C1316 0.929 . S
C1308 H1302 0.930 . S
C1308 C1309 1.367 . S
C1308 C1316 1.378 . S
C1309 C1308 1.367 . S
C1309 C1317 1.433 . S
C1310 H1306 0.929 . S
C1310 C1312 1.378 . S
C1310 C1314 1.350 . S
C1311 C1314 1.463 . S
C1311 C1316 1.350 . S
C1311 N1319 1.427 . S
C1312 H1303 0.930 . S
C1312 C1310 1.378 . S
C1312 C1313 1.367 . S
C1313 C1312 1.367 . S
C1313 C1315 1.433 . S
C1314 C1310 1.350 . S
C1314 C1311 1.463 . S
C1314 N1318 1.427 . S
C1315 H1305 0.929 . S
C1315 C1313 1.433 . S
C1315 N1318 1.384 . S
C1316 H1307 0.929 . S
C1316 C1308 1.378 . S
C1316 C1311 1.350 . S
C1317 H1304 0.929 . S
C1317 C1309 1.433 . S
C1317 N1319 1.384 . S
N1318 C1314 1.427 . S
N1318 C1315 1.384 . S
N1319 C1311 1.427 . S
N1319 C1317 1.384 . S
H1320 C1326 0.930 . S
H1321 C1330 0.930 . S
H1322 C1335 0.929 . S
H1323 C1333 0.929 . S
H1324 C1328 0.929 . S
H1325 C1334 0.929 . S
C1326 H1320 0.930 . S
C1326 C1327 1.367 . S
C1326 C1334 1.378 . S
C1327 C1326 1.367 . S
C1327 C1335 1.433 . S
C1328 H1324 0.929 . S
C1328 C1330 1.378 . S
C1328 C1332 1.350 . S
C1329 C1332 1.463 . S
C1329 C1334 1.350 . S
C1329 N1337 1.427 . S
C1330 H1321 0.930 . S
C1330 C1328 1.378 . S
C1330 C1331 1.367 . S
C1331 C1330 1.367 . S
C1331 C1333 1.433 . S
C1332 C1328 1.350 . S
C1332 C1329 1.463 . S
C1332 N1336 1.427 . S
C1333 H1323 0.929 . S
C1333 C1331 1.433 . S
C1333 N1336 1.384 . S
C1334 H1325 0.929 . S
C1334 C1326 1.378 . S
C1334 C1329 1.350 . S
C1335 H1322 0.929 . S
C1335 C1327 1.433 . S
C1335 N1337 1.384 . S
N1336 C1332 1.427 . S
N1336 C1333 1.384 . S
N1337 C1329 1.427 . S
N1337 C1335 1.384 . S
H1338 C1344 0.930 . S
H1339 C1348 0.930 . S
H1340 C1353 0.929 . S
H1341 C1351 0.929 . S
H1342 C1346 0.929 . S
H1343 C1352 0.929 . S
C1344 H1338 0.930 . S
C1344 C1345 1.367 . S
C1344 C1352 1.378 . S
C1345 C1344 1.367 . S
C1345 C1353 1.433 . S
C1346 H1342 0.929 . S
C1346 C1348 1.378 . S
C1346 C1350 1.350 . S
C1347 C1350 1.463 . S
C1347 C1352 1.350 . S
C1347 N1355 1.427 . S
C1348 H1339 0.930 . S
C1348 C1346 1.378 . S
C1348 C1349 1.367 . S
C1349 C1348 1.367 . S
C1349 C1351 1.433 . S
C1350 C1346 1.350 . S
C1350 C1347 1.463 . S
C1350 N1354 1.427 . S
C1351 H1341 0.929 . S
C1351 C1349 1.433 . S
C1351 N1354 1.384 . S
C1352 H1343 0.929 . S
C1352 C1344 1.378 . S
C1352 C1347 1.350 . S
C1353 H1340 0.929 . S
C1353 C1345 1.433 . S
C1353 N1355 1.384 . S
N1354 C1350 1.427 . S
N1354 C1351 1.384 . S
N1355 C1347 1.427 . S
N1355 C1353 1.384 . S
H1356 C1362 0.930 . S
H1357 C1366 0.930 . S
H1358 C1371 0.929 . S
H1359 C1369 0.929 . S
H1360 C1364 0.929 . S
H1361 C1370 0.929 . S
C1362 H1356 0.930 . S
C1362 C1363 1.367 . S
C1362 C1370 1.378 . S
C1363 C1362 1.367 . S
C1363 C1371 1.433 . S
C1364 H1360 0.929 . S
C1364 C1366 1.378 . S
C1364 C1368 1.350 . S
C1365 C1368 1.463 . S
C1365 C1370 1.350 . S
C1365 N1373 1.427 . S
C1366 H1357 0.930 . S
C1366 C1364 1.378 . S
C1366 C1367 1.367 . S
C1367 C1366 1.367 . S
C1367 C1369 1.433 . S
C1368 C1364 1.350 . S
C1368 C1365 1.463 . S
C1368 N1372 1.427 . S
C1369 H1359 0.929 . S
C1369 C1367 1.433 . S
C1369 N1372 1.384 . S
C1370 H1361 0.929 . S
C1370 C1362 1.378 . S
C1370 C1365 1.350 . S
C1371 H1358 0.929 . S
C1371 C1363 1.433 . S
C1371 N1373 1.384 . S
N1372 C1368 1.427 . S
N1372 C1369 1.384 . S
N1373 C1365 1.427 . S
N1373 C1371 1.384 . S
H1374 C1380 0.930 . S
H1375 C1384 0.930 . S
H1376 C1389 0.929 . S
H1377 C1387 0.929 . S
H1378 C1382 0.929 . S
H1379 C1388 0.929 . S
C1380 H1374 0.930 . S
C1380 C1381 1.367 . S
C1380 C1388 1.378 . S
C1381 C1380 1.367 . S
C1381 C1389 1.433 . S
C1382 H1378 0.929 . S
C1382 C1384 1.378 . S
C1382 C1386 1.350 . S
C1383 C1386 1.463 . S
C1383 C1388 1.350 . S
C1383 N1391 1.427 . S
C1384 H1375 0.930 . S
C1384 C1382 1.378 . S
C1384 C1385 1.367 . S
C1385 C1384 1.367 . S
C1385 C1387 1.433 . S
C1386 C1382 1.350 . S
C1386 C1383 1.463 . S
C1386 N1390 1.427 . S
C1387 H1377 0.929 . S
C1387 C1385 1.433 . S
C1387 N1390 1.384 . S
C1388 H1379 0.929 . S
C1388 C1380 1.378 . S
C1388 C1383 1.350 . S
C1389 H1376 0.929 . S
C1389 C1381 1.433 . S
C1389 N1391 1.384 . S
N1390 C1386 1.427 . S
N1390 C1387 1.384 . S
N1391 C1383 1.427 . S
N1391 C1389 1.384 . S
H1392 C1398 0.930 . S
H1393 C1402 0.930 . S
H1394 C1407 0.929 . S
H1395 C1405 0.929 . S
H1396 C1400 0.929 . S
H1397 C1406 0.929 . S
C1398 H1392 0.930 . S
C1398 C1399 1.367 . S
C1398 C1406 1.378 . S
C1399 C1398 1.367 . S
C1399 C1407 1.433 . S
C1400 H1396 0.929 . S
C1400 C1402 1.378 . S
C1400 C1404 1.350 . S
C1401 C1404 1.463 . S
C1401 C1406 1.350 . S
C1401 N1409 1.427 . S
C1402 H1393 0.930 . S
C1402 C1400 1.378 . S
C1402 C1403 1.367 . S
C1403 C1402 1.367 . S
C1403 C1405 1.433 . S
C1404 C1400 1.350 . S
C1404 C1401 1.463 . S
C1404 N1408 1.427 . S
C1405 H1395 0.929 . S
C1405 C1403 1.433 . S
C1405 N1408 1.384 . S
C1406 H1397 0.929 . S
C1406 C1398 1.378 . S
C1406 C1401 1.350 . S
C1407 H1394 0.929 . S
C1407 C1399 1.433 . S
C1407 N1409 1.384 . S
N1408 C1404 1.427 . S
N1408 C1405 1.384 . S
N1409 C1401 1.427 . S
N1409 C1407 1.384 . S
H1410 C1416 0.930 . S
H1411 C1420 0.930 . S
H1412 C1425 0.929 . S
H1413 C1423 0.929 . S
H1414 C1418 0.929 . S
H1415 C1424 0.929 . S
C1416 H1410 0.930 . S
C1416 C1417 1.367 . S
C1416 C1424 1.378 . S
C1417 C1416 1.367 . S
C1417 C1425 1.433 . S
C1418 H1414 0.929 . S
C1418 C1420 1.378 . S
C1418 C1422 1.350 . S
C1419 C1422 1.463 . S
C1419 C1424 1.350 . S
C1419 N1427 1.427 . S
C1420 H1411 0.930 . S
C1420 C1418 1.378 . S
C1420 C1421 1.367 . S
C1421 C1420 1.367 . S
C1421 C1423 1.433 . S
C1422 C1418 1.350 . S
C1422 C1419 1.463 . S
C1422 N1426 1.427 . S
C1423 H1413 0.929 . S
C1423 C1421 1.433 . S
C1423 N1426 1.384 . S
C1424 H1415 0.929 . S
C1424 C1416 1.378 . S
C1424 C1419 1.350 . S
C1425 H1412 0.929 . S
C1425 C1417 1.433 . S
C1425 N1427 1.384 . S
N1426 C1422 1.427 . S
N1426 C1423 1.384 . S
N1427 C1419 1.427 . S
N1427 C1425 1.384 . S
H1428 C1434 0.930 . S
H1429 C1438 0.930 . S
H1430 C1443 0.929 . S
H1431 C1441 0.929 . S
H1432 C1436 0.929 . S
H1433 C1442 0.929 . S
C1434 H1428 0.930 . S
C1434 C1435 1.367 . S
C1434 C1442 1.378 . S
C1435 C1434 1.367 . S
C1435 C1443 1.433 . S
C1436 H1432 0.929 . S
C1436 C1438 1.378 . S
C1436 C1440 1.350 . S
C1437 C1440 1.463 . S
C1437 C1442 1.350 . S
C1437 N1445 1.427 . S
C1438 H1429 0.930 . S
C1438 C1436 1.378 . S
C1438 C1439 1.367 . S
C1439 C1438 1.367 . S
C1439 C1441 1.433 . S
C1440 C1436 1.350 . S
C1440 C1437 1.463 . S
C1440 N1444 1.427 . S
C1441 H1431 0.929 . S
C1441 C1439 1.433 . S
C1441 N1444 1.384 . S
C1442 H1433 0.929 . S
C1442 C1434 1.378 . S
C1442 C1437 1.350 . S
C1443 H1430 0.929 . S
C1443 C1435 1.433 . S
C1443 N1445 1.384 . S
N1444 C1440 1.427 . S
N1444 C1441 1.384 . S
N1445 C1437 1.427 . S
N1445 C1443 1.384 . S
H1446 C1452 0.930 . S
H1447 C1456 0.930 . S
H1448 C1461 0.929 . S
H1449 C1459 0.929 . S
H1450 C1454 0.929 . S
H1451 C1460 0.929 . S
C1452 H1446 0.930 . S
C1452 C1453 1.367 . S
C1452 C1460 1.378 . S
C1453 C1452 1.367 . S
C1453 C1461 1.433 . S
C1454 H1450 0.929 . S
C1454 C1456 1.378 . S
C1454 C1458 1.350 . S
C1455 C1458 1.463 . S
C1455 C1460 1.350 . S
C1455 N1463 1.427 . S
C1456 H1447 0.930 . S
C1456 C1454 1.378 . S
C1456 C1457 1.367 . S
C1457 C1456 1.367 . S
C1457 C1459 1.433 . S
C1458 C1454 1.350 . S
C1458 C1455 1.463 . S
C1458 N1462 1.427 . S
C1459 H1449 0.929 . S
C1459 C1457 1.433 . S
C1459 N1462 1.384 . S
C1460 H1451 0.929 . S
C1460 C1452 1.378 . S
C1460 C1455 1.350 . S
C1461 H1448 0.929 . S
C1461 C1453 1.433 . S
C1461 N1463 1.384 . S
N1462 C1458 1.427 . S
N1462 C1459 1.384 . S
N1463 C1455 1.427 . S
N1463 C1461 1.384 . S
H1464 C1470 0.930 . S
H1465 C1474 0.930 . S
H1466 C1479 0.929 . S
H1467 C1477 0.929 . S
H1468 C1472 0.929 . S
H1469 C1478 0.929 . S
C1470 H1464 0.930 . S
C1470 C1471 1.367 . S
C1470 C1478 1.378 . S
C1471 C1470 1.367 . S
C1471 C1479 1.433 . S
C1472 H1468 0.929 . S
C1472 C1474 1.378 . S
C1472 C1476 1.350 . S
C1473 C1476 1.463 . S
C1473 C1478 1.350 . S
C1473 N1481 1.427 . S
C1474 H1465 0.930 . S
C1474 C1472 1.378 . S
C1474 C1475 1.367 . S
C1475 C1474 1.367 . S
C1475 C1477 1.433 . S
C1476 C1472 1.350 . S
C1476 C1473 1.463 . S
C1476 N1480 1.427 . S
C1477 H1467 0.929 . S
C1477 C1475 1.433 . S
C1477 N1480 1.384 . S
C1478 H1469 0.929 . S
C1478 C1470 1.378 . S
C1478 C1473 1.350 . S
C1479 H1466 0.929 . S
C1479 C1471 1.433 . S
C1479 N1481 1.384 . S
N1480 C1476 1.427 . S
N1480 C1477 1.384 . S
N1481 C1473 1.427 . S
N1481 C1479 1.384 . S
H1482 C1488 0.930 . S
H1483 C1492 0.930 . S
H1484 C1497 0.929 . S
H1485 C1495 0.929 . S
H1486 C1490 0.929 . S
H1487 C1496 0.929 . S
C1488 H1482 0.930 . S
C1488 C1489 1.367 . S
C1488 C1496 1.378 . S
C1489 C1488 1.367 . S
C1489 C1497 1.433 . S
C1490 H1486 0.929 . S
C1490 C1492 1.378 . S
C1490 C1494 1.350 . S
C1491 C1494 1.463 . S
C1491 C1496 1.350 . S
C1491 N1499 1.427 . S
C1492 H1483 0.930 . S
C1492 C1490 1.378 . S
C1492 C1493 1.367 . S
C1493 C1492 1.367 . S
C1493 C1495 1.433 . S
C1494 C1490 1.350 . S
C1494 C1491 1.463 . S
C1494 N1498 1.427 . S
C1495 H1485 0.929 . S
C1495 C1493 1.433 . S
C1495 N1498 1.384 . S
C1496 H1487 0.929 . S
C1496 C1488 1.378 . S
C1496 C1491 1.350 . S
C1497 H1484 0.929 . S
C1497 C1489 1.433 . S
C1497 N1499 1.384 . S
N1498 C1494 1.427 . S
N1498 C1495 1.384 . S
N1499 C1491 1.427 . S
N1499 C1497 1.384 . S
H1500 C1506 0.930 . S
H1501 C1510 0.930 . S
H1502 C1515 0.929 . S
H1503 C1513 0.929 . S
H1504 C1508 0.929 . S
H1505 C1514 0.929 . S
C1506 H1500 0.930 . S
C1506 C1507 1.367 . S
C1506 C1514 1.378 . S
C1507 C1506 1.367 . S
C1507 C1515 1.433 . S
C1508 H1504 0.929 . S
C1508 C1510 1.378 . S
C1508 C1512 1.350 . S
C1509 C1512 1.463 . S
C1509 C1514 1.350 . S
C1509 N1517 1.427 . S
C1510 H1501 0.930 . S
C1510 C1508 1.378 . S
C1510 C1511 1.367 . S
C1511 C1510 1.367 . S
C1511 C1513 1.433 . S
C1512 C1508 1.350 . S
C1512 C1509 1.463 . S
C1512 N1516 1.427 . S
C1513 H1503 0.929 . S
C1513 C1511 1.433 . S
C1513 N1516 1.384 . S
C1514 H1505 0.929 . S
C1514 C1506 1.378 . S
C1514 C1509 1.350 . S
C1515 H1502 0.929 . S
C1515 C1507 1.433 . S
C1515 N1517 1.384 . S
N1516 C1512 1.427 . S
N1516 C1513 1.384 . S
N1517 C1509 1.427 . S
N1517 C1515 1.384 . S
H1518 C1524 0.930 . S
H1519 C1528 0.930 . S
H1520 C1533 0.929 . S
H1521 C1531 0.929 . S
H1522 C1526 0.929 . S
H1523 C1532 0.929 . S
C1524 H1518 0.930 . S
C1524 C1525 1.367 . S
C1524 C1532 1.378 . S
C1525 C1524 1.367 . S
C1525 C1533 1.433 . S
C1526 H1522 0.929 . S
C1526 C1528 1.378 . S
C1526 C1530 1.350 . S
C1527 C1530 1.463 . S
C1527 C1532 1.350 . S
C1527 N1535 1.427 . S
C1528 H1519 0.930 . S
C1528 C1526 1.378 . S
C1528 C1529 1.367 . S
C1529 C1528 1.367 . S
C1529 C1531 1.433 . S
C1530 C1526 1.350 . S
C1530 C1527 1.463 . S
C1530 N1534 1.427 . S
C1531 H1521 0.929 . S
C1531 C1529 1.433 . S
C1531 N1534 1.384 . S
C1532 H1523 0.929 . S
C1532 C1524 1.378 . S
C1532 C1527 1.350 . S
C1533 H1520 0.929 . S
C1533 C1525 1.433 . S
C1533 N1535 1.384 . S
N1534 C1530 1.427 . S
N1534 C1531 1.384 . S
N1535 C1527 1.427 . S
N1535 C1533 1.384 . S
H1536 C1542 0.930 . S
H1537 C1546 0.930 . S
H1538 C1551 0.929 . S
H1539 C1549 0.929 . S
H1540 C1544 0.929 . S
H1541 C1550 0.929 . S
C1542 H1536 0.930 . S
C1542 C1543 1.367 . S
C1542 C1550 1.378 . S
C1543 C1542 1.367 . S
C1543 C1551 1.433 . S
C1544 H1540 0.929 . S
C1544 C1546 1.378 . S
C1544 C1548 1.350 . S
C1545 C1548 1.463 . S
C1545 C1550 1.350 . S
C1545 N1553 1.427 . S
C1546 H1537 0.930 . S
C1546 C1544 1.378 . S
C1546 C1547 1.367 . S
C1547 C1546 1.367 . S
C1547 C1549 1.433 . S
C1548 C1544 1.350 . S
C1548 C1545 1.463 . S
C1548 N1552 1.427 . S
C1549 H1539 0.929 . S
C1549 C1547 1.433 . S
C1549 N1552 1.384 . S
C1550 H1541 0.929 . S
C1550 C1542 1.378 . S
C1550 C1545 1.350 . S
C1551 H1538 0.929 . S
C1551 C1543 1.433 . S
C1551 N1553 1.384 . S
N1552 C1548 1.427 . S
N1552 C1549 1.384 . S
N1553 C1545 1.427 . S
N1553 C1551 1.384 . S
H1554 C1560 0.930 . S
H1555 C1564 0.930 . S
H1556 C1569 0.929 . S
H1557 C1567 0.929 . S
H1558 C1562 0.929 . S
H1559 C1568 0.929 . S
C1560 H1554 0.930 . S
C1560 C1561 1.367 . S
C1560 C1568 1.378 . S
C1561 C1560 1.367 . S
C1561 C1569 1.433 . S
C1562 H1558 0.929 . S
C1562 C1564 1.378 . S
C1562 C1566 1.350 . S
C1563 C1566 1.463 . S
C1563 C1568 1.350 . S
C1563 N1571 1.427 . S
C1564 H1555 0.930 . S
C1564 C1562 1.378 . S
C1564 C1565 1.367 . S
C1565 C1564 1.367 . S
C1565 C1567 1.433 . S
C1566 C1562 1.350 . S
C1566 C1563 1.463 . S
C1566 N1570 1.427 . S
C1567 H1557 0.929 . S
C1567 C1565 1.433 . S
C1567 N1570 1.384 . S
C1568 H1559 0.929 . S
C1568 C1560 1.378 . S
C1568 C1563 1.350 . S
C1569 H1556 0.929 . S
C1569 C1561 1.433 . S
C1569 N1571 1.384 . S
N1570 C1566 1.427 . S
N1570 C1567 1.384 . S
N1571 C1563 1.427 . S
N1571 C1569 1.384 . S
H1572 C1578 0.930 . S
H1573 C1582 0.930 . S
H1574 C1587 0.929 . S
H1575 C1585 0.929 . S
H1576 C1580 0.929 . S
H1577 C1586 0.929 . S
C1578 H1572 0.930 . S
C1578 C1579 1.367 . S
C1578 C1586 1.378 . S
C1579 C1578 1.367 . S
C1579 C1587 1.433 . S
C1580 H1576 0.929 . S
C1580 C1582 1.378 . S
C1580 C1584 1.350 . S
C1581 C1584 1.463 . S
C1581 C1586 1.350 . S
C1581 N1589 1.427 . S
C1582 H1573 0.930 . S
C1582 C1580 1.378 . S
C1582 C1583 1.367 . S
C1583 C1582 1.367 . S
C1583 C1585 1.433 . S
C1584 C1580 1.350 . S
C1584 C1581 1.463 . S
C1584 N1588 1.427 . S
C1585 H1575 0.929 . S
C1585 C1583 1.433 . S
C1585 N1588 1.384 . S
C1586 H1577 0.929 . S
C1586 C1578 1.378 . S
C1586 C1581 1.350 . S
C1587 H1574 0.929 . S
C1587 C1579 1.433 . S
C1587 N1589 1.384 . S
N1588 C1584 1.427 . S
N1588 C1585 1.384 . S
N1589 C1581 1.427 . S
N1589 C1587 1.384 . S
H1590 C1596 0.930 . S
H1591 C1600 0.930 . S
H1592 C1605 0.929 . S
H1593 C1603 0.929 . S
H1594 C1598 0.929 . S
H1595 C1604 0.929 . S
C1596 H1590 0.930 . S
C1596 C1597 1.367 . S
C1596 C1604 1.378 . S
C1597 C1596 1.367 . S
C1597 C1605 1.433 . S
C1598 H1594 0.929 . S
C1598 C1600 1.378 . S
C1598 C1602 1.350 . S
C1599 C1602 1.463 . S
C1599 C1604 1.350 . S
C1599 N1607 1.427 . S
C1600 H1591 0.930 . S
C1600 C1598 1.378 . S
C1600 C1601 1.367 . S
C1601 C1600 1.367 . S
C1601 C1603 1.433 . S
C1602 C1598 1.350 . S
C1602 C1599 1.463 . S
C1602 N1606 1.427 . S
C1603 H1593 0.929 . S
C1603 C1601 1.433 . S
C1603 N1606 1.384 . S
C1604 H1595 0.929 . S
C1604 C1596 1.378 . S
C1604 C1599 1.350 . S
C1605 H1592 0.929 . S
C1605 C1597 1.433 . S
C1605 N1607 1.384 . S
N1606 C1602 1.427 . S
N1606 C1603 1.384 . S
N1607 C1599 1.427 . S
N1607 C1605 1.384 . S
H1608 C1614 0.930 . S
H1609 C1618 0.930 . S
H1610 C1623 0.929 . S
H1611 C1621 0.929 . S
H1612 C1616 0.929 . S
H1613 C1622 0.929 . S
C1614 H1608 0.930 . S
C1614 C1615 1.367 . S
C1614 C1622 1.378 . S
C1615 C1614 1.367 . S
C1615 C1623 1.433 . S
C1616 H1612 0.929 . S
C1616 C1618 1.378 . S
C1616 C1620 1.350 . S
C1617 C1620 1.463 . S
C1617 C1622 1.350 . S
C1617 N1625 1.427 . S
C1618 H1609 0.930 . S
C1618 C1616 1.378 . S
C1618 C1619 1.367 . S
C1619 C1618 1.367 . S
C1619 C1621 1.433 . S
C1620 C1616 1.350 . S
C1620 C1617 1.463 . S
C1620 N1624 1.427 . S
C1621 H1611 0.929 . S
C1621 C1619 1.433 . S
C1621 N1624 1.384 . S
C1622 H1613 0.929 . S
C1622 C1614 1.378 . S
C1622 C1617 1.350 . S
C1623 H1610 0.929 . S
C1623 C1615 1.433 . S
C1623 N1625 1.384 . S
N1624 C1620 1.427 . S
N1624 C1621 1.384 . S
N1625 C1617 1.427 . S
N1625 C1623 1.384 . S
H1626 C1632 0.930 . S
H1627 C1636 0.930 . S
H1628 C1641 0.929 . S
H1629 C1639 0.929 . S
H1630 C1634 0.929 . S
H1631 C1640 0.929 . S
C1632 H1626 0.930 . S
C1632 C1633 1.367 . S
C1632 C1640 1.378 . S
C1633 C1632 1.367 . S
C1633 C1641 1.433 . S
C1634 H1630 0.929 . S
C1634 C1636 1.378 . S
C1634 C1638 1.350 . S
C1635 C1638 1.463 . S
C1635 C1640 1.350 . S
C1635 N1643 1.427 . S
C1636 H1627 0.930 . S
C1636 C1634 1.378 . S
C1636 C1637 1.367 . S
C1637 C1636 1.367 . S
C1637 C1639 1.433 . S
C1638 C1634 1.350 . S
C1638 C1635 1.463 . S
C1638 N1642 1.427 . S
C1639 H1629 0.929 . S
C1639 C1637 1.433 . S
C1639 N1642 1.384 . S
C1640 H1631 0.929 . S
C1640 C1632 1.378 . S
C1640 C1635 1.350 . S
C1641 H1628 0.929 . S
C1641 C1633 1.433 . S
C1641 N1643 1.384 . S
N1642 C1638 1.427 . S
N1642 C1639 1.384 . S
N1643 C1635 1.427 . S
N1643 C1641 1.384 . S
H1644 C1650 0.930 . S
H1645 C1654 0.930 . S
H1646 C1659 0.929 . S
H1647 C1657 0.929 . S
H1648 C1652 0.929 . S
H1649 C1658 0.929 . S
C1650 H1644 0.930 . S
C1650 C1651 1.367 . S
C1650 C1658 1.378 . S
C1651 C1650 1.367 . S
C1651 C1659 1.433 . S
C1652 H1648 0.929 . S
C1652 C1654 1.378 . S
C1652 C1656 1.350 . S
C1653 C1656 1.463 . S
C1653 C1658 1.350 . S
C1653 N1661 1.427 . S
C1654 H1645 0.930 . S
C1654 C1652 1.378 . S
C1654 C1655 1.367 . S
C1655 C1654 1.367 . S
C1655 C1657 1.433 . S
C1656 C1652 1.350 . S
C1656 C1653 1.463 . S
C1656 N1660 1.427 . S
C1657 H1647 0.929 . S
C1657 C1655 1.433 . S
C1657 N1660 1.384 . S
C1658 H1649 0.929 . S
C1658 C1650 1.378 . S
C1658 C1653 1.350 . S
C1659 H1646 0.929 . S
C1659 C1651 1.433 . S
C1659 N1661 1.384 . S
N1660 C1656 1.427 . S
N1660 C1657 1.384 . S
N1661 C1653 1.427 . S
N1661 C1659 1.384 . S
H1662 C1668 0.930 . S
H1663 C1672 0.930 . S
H1664 C1677 0.929 . S
H1665 C1675 0.929 . S
H1666 C1670 0.929 . S
H1667 C1676 0.929 . S
C1668 H1662 0.930 . S
C1668 C1669 1.367 . S
C1668 C1676 1.378 . S
C1669 C1668 1.367 . S
C1669 C1677 1.433 . S
C1670 H1666 0.929 . S
C1670 C1672 1.378 . S
C1670 C1674 1.350 . S
C1671 C1674 1.463 . S
C1671 C1676 1.350 . S
C1671 N1679 1.427 . S
C1672 H1663 0.930 . S
C1672 C1670 1.378 . S
C1672 C1673 1.367 . S
C1673 C1672 1.367 . S
C1673 C1675 1.433 . S
C1674 C1670 1.350 . S
C1674 C1671 1.463 . S
C1674 N1678 1.427 . S
C1675 H1665 0.929 . S
C1675 C1673 1.433 . S
C1675 N1678 1.384 . S
C1676 H1667 0.929 . S
C1676 C1668 1.378 . S
C1676 C1671 1.350 . S
C1677 H1664 0.929 . S
C1677 C1669 1.433 . S
C1677 N1679 1.384 . S
N1678 C1674 1.427 . S
N1678 C1675 1.384 . S
N1679 C1671 1.427 . S
N1679 C1677 1.384 . S
H1680 C1686 0.930 . S
H1681 C1690 0.930 . S
H1682 C1695 0.929 . S
H1683 C1693 0.929 . S
H1684 C1688 0.929 . S
H1685 C1694 0.929 . S
C1686 H1680 0.930 . S
C1686 C1687 1.367 . S
C1686 C1694 1.378 . S
C1687 C1686 1.367 . S
C1687 C1695 1.433 . S
C1688 H1684 0.929 . S
C1688 C1690 1.378 . S
C1688 C1692 1.350 . S
C1689 C1692 1.463 . S
C1689 C1694 1.350 . S
C1689 N1697 1.427 . S
C1690 H1681 0.930 . S
C1690 C1688 1.378 . S
C1690 C1691 1.367 . S
C1691 C1690 1.367 . S
C1691 C1693 1.433 . S
C1692 C1688 1.350 . S
C1692 C1689 1.463 . S
C1692 N1696 1.427 . S
C1693 H1683 0.929 . S
C1693 C1691 1.433 . S
C1693 N1696 1.384 . S
C1694 H1685 0.929 . S
C1694 C1686 1.378 . S
C1694 C1689 1.350 . S
C1695 H1682 0.929 . S
C1695 C1687 1.433 . S
C1695 N1697 1.384 . S
N1696 C1692 1.427 . S
N1696 C1693 1.384 . S
N1697 C1689 1.427 . S
N1697 C1695 1.384 . S
H1698 C1704 0.930 . S
H1699 C1708 0.930 . S
H1700 C1713 0.929 . S
H1701 C1711 0.929 . S
H1702 C1706 0.929 . S
H1703 C1712 0.929 . S
C1704 H1698 0.930 . S
C1704 C1705 1.367 . S
C1704 C1712 1.378 . S
C1705 C1704 1.367 . S
C1705 C1713 1.433 . S
C1706 H1702 0.929 . S
C1706 C1708 1.378 . S
C1706 C1710 1.350 . S
C1707 C1710 1.463 . S
C1707 C1712 1.350 . S
C1707 N1715 1.427 . S
C1708 H1699 0.930 . S
C1708 C1706 1.378 . S
C1708 C1709 1.367 . S
C1709 C1708 1.367 . S
C1709 C1711 1.433 . S
C1710 C1706 1.350 . S
C1710 C1707 1.463 . S
C1710 N1714 1.427 . S
C1711 H1701 0.929 . S
C1711 C1709 1.433 . S
C1711 N1714 1.384 . S
C1712 H1703 0.929 . S
C1712 C1704 1.378 . S
C1712 C1707 1.350 . S
C1713 H1700 0.929 . S
C1713 C1705 1.433 . S
C1713 N1715 1.384 . S
N1714 C1710 1.427 . S
N1714 C1711 1.384 . S
N1715 C1707 1.427 . S
N1715 C1713 1.384 . S
H1716 C1722 0.930 . S
H1717 C1726 0.930 . S
H1718 C1731 0.929 . S
H1719 C1729 0.929 . S
H1720 C1724 0.929 . S
H1721 C1730 0.929 . S
C1722 H1716 0.930 . S
C1722 C1723 1.367 . S
C1722 C1730 1.378 . S
C1723 C1722 1.367 . S
C1723 C1731 1.433 . S
C1724 H1720 0.929 . S
C1724 C1726 1.378 . S
C1724 C1728 1.350 . S
C1725 C1728 1.463 . S
C1725 C1730 1.350 . S
C1725 N1733 1.427 . S
C1726 H1717 0.930 . S
C1726 C1724 1.378 . S
C1726 C1727 1.367 . S
C1727 C1726 1.367 . S
C1727 C1729 1.433 . S
C1728 C1724 1.350 . S
C1728 C1725 1.463 . S
C1728 N1732 1.427 . S
C1729 H1719 0.929 . S
C1729 C1727 1.433 . S
C1729 N1732 1.384 . S
C1730 H1721 0.929 . S
C1730 C1722 1.378 . S
C1730 C1725 1.350 . S
C1731 H1718 0.929 . S
C1731 C1723 1.433 . S
C1731 N1733 1.384 . S
N1732 C1728 1.427 . S
N1732 C1729 1.384 . S
N1733 C1725 1.427 . S
N1733 C1731 1.384 . S
H1734 C1740 0.930 . S
H1735 C1744 0.930 . S
H1736 C1749 0.929 . S
H1737 C1747 0.929 . S
H1738 C1742 0.929 . S
H1739 C1748 0.929 . S
C1740 H1734 0.930 . S
C1740 C1741 1.367 . S
C1740 C1748 1.378 . S
C1741 C1740 1.367 . S
C1741 C1749 1.433 . S
C1742 H1738 0.929 . S
C1742 C1744 1.378 . S
C1742 C1746 1.350 . S
C1743 C1746 1.463 . S
C1743 C1748 1.350 . S
C1743 N1751 1.427 . S
C1744 H1735 0.930 . S
C1744 C1742 1.378 . S
C1744 C1745 1.367 . S
C1745 C1744 1.367 . S
C1745 C1747 1.433 . S
C1746 C1742 1.350 . S
C1746 C1743 1.463 . S
C1746 N1750 1.427 . S
C1747 H1737 0.929 . S
C1747 C1745 1.433 . S
C1747 N1750 1.384 . S
C1748 H1739 0.929 . S
C1748 C1740 1.378 . S
C1748 C1743 1.350 . S
C1749 H1736 0.929 . S
C1749 C1741 1.433 . S
C1749 N1751 1.384 . S
N1750 C1746 1.427 . S
N1750 C1747 1.384 . S
N1751 C1743 1.427 . S
N1751 C1749 1.384 . S
H1752 C1758 0.930 . S
H1753 C1762 0.930 . S
H1754 C1767 0.929 . S
H1755 C1765 0.929 . S
H1756 C1760 0.929 . S
H1757 C1766 0.929 . S
C1758 H1752 0.930 . S
C1758 C1759 1.367 . S
C1758 C1766 1.378 . S
C1759 C1758 1.367 . S
C1759 C1767 1.433 . S
C1760 H1756 0.929 . S
C1760 C1762 1.378 . S
C1760 C1764 1.350 . S
C1761 C1764 1.463 . S
C1761 C1766 1.350 . S
C1761 N1769 1.427 . S
C1762 H1753 0.930 . S
C1762 C1760 1.378 . S
C1762 C1763 1.367 . S
C1763 C1762 1.367 . S
C1763 C1765 1.433 . S
C1764 C1760 1.350 . S
C1764 C1761 1.463 . S
C1764 N1768 1.427 . S
C1765 H1755 0.929 . S
C1765 C1763 1.433 . S
C1765 N1768 1.384 . S
C1766 H1757 0.929 . S
C1766 C1758 1.378 . S
C1766 C1761 1.350 . S
C1767 H1754 0.929 . S
C1767 C1759 1.433 . S
C1767 N1769 1.384 . S
N1768 C1764 1.427 . S
N1768 C1765 1.384 . S
N1769 C1761 1.427 . S
N1769 C1767 1.384 . S
H1770 C1776 0.930 . S
H1771 C1780 0.930 . S
H1772 C1785 0.929 . S
H1773 C1783 0.929 . S
H1774 C1778 0.929 . S
H1775 C1784 0.929 . S
C1776 H1770 0.930 . S
C1776 C1777 1.367 . S
C1776 C1784 1.378 . S
C1777 C1776 1.367 . S
C1777 C1785 1.433 . S
C1778 H1774 0.929 . S
C1778 C1780 1.378 . S
C1778 C1782 1.350 . S
C1779 C1782 1.463 . S
C1779 C1784 1.350 . S
C1779 N1787 1.427 . S
C1780 H1771 0.930 . S
C1780 C1778 1.378 . S
C1780 C1781 1.367 . S
C1781 C1780 1.367 . S
C1781 C1783 1.433 . S
C1782 C1778 1.350 . S
C1782 C1779 1.463 . S
C1782 N1786 1.427 . S
C1783 H1773 0.929 . S
C1783 C1781 1.433 . S
C1783 N1786 1.384 . S
C1784 H1775 0.929 . S
C1784 C1776 1.378 . S
C1784 C1779 1.350 . S
C1785 H1772 0.929 . S
C1785 C1777 1.433 . S
C1785 N1787 1.384 . S
N1786 C1782 1.427 . S
N1786 C1783 1.384 . S
N1787 C1779 1.427 . S
N1787 C1785 1.384 . S
H1788 C1794 0.930 . S
H1789 C1798 0.930 . S
H1790 C1803 0.929 . S
H1791 C1801 0.929 . S
H1792 C1796 0.929 . S
H1793 C1802 0.929 . S
C1794 H1788 0.930 . S
C1794 C1795 1.367 . S
C1794 C1802 1.378 . S
C1795 C1794 1.367 . S
C1795 C1803 1.433 . S
C1796 H1792 0.929 . S
C1796 C1798 1.378 . S
C1796 C1800 1.350 . S
C1797 C1800 1.463 . S
C1797 C1802 1.350 . S
C1797 N1805 1.427 . S
C1798 H1789 0.930 . S
C1798 C1796 1.378 . S
C1798 C1799 1.367 . S
C1799 C1798 1.367 . S
C1799 C1801 1.433 . S
C1800 C1796 1.350 . S
C1800 C1797 1.463 . S
C1800 N1804 1.427 . S
C1801 H1791 0.929 . S
C1801 C1799 1.433 . S
C1801 N1804 1.384 . S
C1802 H1793 0.929 . S
C1802 C1794 1.378 . S
C1802 C1797 1.350 . S
C1803 H1790 0.929 . S
C1803 C1795 1.433 . S
C1803 N1805 1.384 . S
N1804 C1800 1.427 . S
N1804 C1801 1.384 . S
N1805 C1797 1.427 . S
N1805 C1803 1.384 . S
H1806 C1812 0.930 . S
H1807 C1816 0.930 . S
H1808 C1821 0.929 . S
H1809 C1819 0.929 . S
H1810 C1814 0.929 . S
H1811 C1820 0.929 . S
C1812 H1806 0.930 . S
C1812 C1813 1.367 . S
C1812 C1820 1.378 . S
C1813 C1812 1.367 . S
C1813 C1821 1.433 . S
C1814 H1810 0.929 . S
C1814 C1816 1.378 . S
C1814 C1818 1.350 . S
C1815 C1818 1.463 . S
C1815 C1820 1.350 . S
C1815 N1823 1.427 . S
C1816 H1807 0.930 . S
C1816 C1814 1.378 . S
C1816 C1817 1.367 . S
C1817 C1816 1.367 . S
C1817 C1819 1.433 . S
C1818 C1814 1.350 . S
C1818 C1815 1.463 . S
C1818 N1822 1.427 . S
C1819 H1809 0.929 . S
C1819 C1817 1.433 . S
C1819 N1822 1.384 . S
C1820 H1811 0.929 . S
C1820 C1812 1.378 . S
C1820 C1815 1.350 . S
C1821 H1808 0.929 . S
C1821 C1813 1.433 . S
C1821 N1823 1.384 . S
N1822 C1818 1.427 . S
N1822 C1819 1.384 . S
N1823 C1815 1.427 . S
N1823 C1821 1.384 . S
H1824 C1830 0.930 . S
H1825 C1834 0.930 . S
H1826 C1839 0.929 . S
H1827 C1837 0.929 . S
H1828 C1832 0.929 . S
H1829 C1838 0.929 . S
C1830 H1824 0.930 . S
C1830 C1831 1.367 . S
C1830 C1838 1.378 . S
C1831 C1830 1.367 . S
C1831 C1839 1.433 . S
C1832 H1828 0.929 . S
C1832 C1834 1.378 . S
C1832 C1836 1.350 . S
C1833 C1836 1.463 . S
C1833 C1838 1.350 . S
C1833 N1841 1.427 . S
C1834 H1825 0.930 . S
C1834 C1832 1.378 . S
C1834 C1835 1.367 . S
C1835 C1834 1.367 . S
C1835 C1837 1.433 . S
C1836 C1832 1.350 . S
C1836 C1833 1.463 . S
C1836 N1840 1.427 . S
C1837 H1827 0.929 . S
C1837 C1835 1.433 . S
C1837 N1840 1.384 . S
C1838 H1829 0.929 . S
C1838 C1830 1.378 . S
C1838 C1833 1.350 . S
C1839 H1826 0.929 . S
C1839 C1831 1.433 . S
C1839 N1841 1.384 . S
N1840 C1836 1.427 . S
N1840 C1837 1.384 . S
N1841 C1833 1.427 . S
N1841 C1839 1.384 . S
H1842 C1848 0.930 . S
H1843 C1852 0.930 . S
H1844 C1857 0.929 . S
H1845 C1855 0.929 . S
H1846 C1850 0.929 . S
H1847 C1856 0.929 . S
C1848 H1842 0.930 . S
C1848 C1849 1.367 . S
C1848 C1856 1.378 . S
C1849 C1848 1.367 . S
C1849 C1857 1.433 . S
C1850 H1846 0.929 . S
C1850 C1852 1.378 . S
C1850 C1854 1.350 . S
C1851 C1854 1.463 . S
C1851 C1856 1.350 . S
C1851 N1859 1.427 . S
C1852 H1843 0.930 . S
C1852 C1850 1.378 . S
C1852 C1853 1.367 . S
C1853 C1852 1.367 . S
C1853 C1855 1.433 . S
C1854 C1850 1.350 . S
C1854 C1851 1.463 . S
C1854 N1858 1.427 . S
C1855 H1845 0.929 . S
C1855 C1853 1.433 . S
C1855 N1858 1.384 . S
C1856 H1847 0.929 . S
C1856 C1848 1.378 . S
C1856 C1851 1.350 . S
C1857 H1844 0.929 . S
C1857 C1849 1.433 . S
C1857 N1859 1.384 . S
N1858 C1854 1.427 . S
N1858 C1855 1.384 . S
N1859 C1851 1.427 . S
N1859 C1857 1.384 . S
H1860 C1866 0.930 . S
H1861 C1870 0.930 . S
H1862 C1875 0.929 . S
H1863 C1873 0.929 . S
H1864 C1868 0.929 . S
H1865 C1874 0.929 . S
C1866 H1860 0.930 . S
C1866 C1867 1.367 . S
C1866 C1874 1.378 . S
C1867 C1866 1.367 . S
C1867 C1875 1.433 . S
C1868 H1864 0.929 . S
C1868 C1870 1.378 . S
C1868 C1872 1.350 . S
C1869 C1872 1.463 . S
C1869 C1874 1.350 . S
C1869 N1877 1.427 . S
C1870 H1861 0.930 . S
C1870 C1868 1.378 . S
C1870 C1871 1.367 . S
C1871 C1870 1.367 . S
C1871 C1873 1.433 . S
C1872 C1868 1.350 . S
C1872 C1869 1.463 . S
C1872 N1876 1.427 . S
C1873 H1863 0.929 . S
C1873 C1871 1.433 . S
C1873 N1876 1.384 . S
C1874 H1865 0.929 . S
C1874 C1866 1.378 . S
C1874 C1869 1.350 . S
C1875 H1862 0.929 . S
C1875 C1867 1.433 . S
C1875 N1877 1.384 . S
N1876 C1872 1.427 . S
N1876 C1873 1.384 . S
N1877 C1869 1.427 . S
N1877 C1875 1.384 . S
H1878 C1884 0.930 . S
H1879 C1888 0.930 . S
H1880 C1893 0.929 . S
H1881 C1891 0.929 . S
H1882 C1886 0.929 . S
H1883 C1892 0.929 . S
C1884 H1878 0.930 . S
C1884 C1885 1.367 . S
C1884 C1892 1.378 . S
C1885 C1884 1.367 . S
C1885 C1893 1.433 . S
C1886 H1882 0.929 . S
C1886 C1888 1.378 . S
C1886 C1890 1.350 . S
C1887 C1890 1.463 . S
C1887 C1892 1.350 . S
C1887 N1895 1.427 . S
C1888 H1879 0.930 . S
C1888 C1886 1.378 . S
C1888 C1889 1.367 . S
C1889 C1888 1.367 . S
C1889 C1891 1.433 . S
C1890 C1886 1.350 . S
C1890 C1887 1.463 . S
C1890 N1894 1.427 . S
C1891 H1881 0.929 . S
C1891 C1889 1.433 . S
C1891 N1894 1.384 . S
C1892 H1883 0.929 . S
C1892 C1884 1.378 . S
C1892 C1887 1.350 . S
C1893 H1880 0.929 . S
C1893 C1885 1.433 . S
C1893 N1895 1.384 . S
N1894 C1890 1.427 . S
N1894 C1891 1.384 . S
N1895 C1887 1.427 . S
N1895 C1893 1.384 . S
H1896 C1902 0.930 . S
H1897 C1906 0.930 . S
H1898 C1911 0.929 . S
H1899 C1909 0.929 . S
H1900 C1904 0.929 . S
H1901 C1910 0.929 . S
C1902 H1896 0.930 . S
C1902 C1903 1.367 . S
C1902 C1910 1.378 . S
C1903 C1902 1.367 . S
C1903 C1911 1.433 . S
C1904 H1900 0.929 . S
C1904 C1906 1.378 . S
C1904 C1908 1.350 . S
C1905 C1908 1.463 . S
C1905 C1910 1.350 . S
C1905 N1913 1.427 . S
C1906 H1897 0.930 . S
C1906 C1904 1.378 . S
C1906 C1907 1.367 . S
C1907 C1906 1.367 . S
C1907 C1909 1.433 . S
C1908 C1904 1.350 . S
C1908 C1905 1.463 . S
C1908 N1912 1.427 . S
C1909 H1899 0.929 . S
C1909 C1907 1.433 . S
C1909 N1912 1.384 . S
C1910 H1901 0.929 . S
C1910 C1902 1.378 . S
C1910 C1905 1.350 . S
C1911 H1898 0.929 . S
C1911 C1903 1.433 . S
C1911 N1913 1.384 . S
N1912 C1908 1.427 . S
N1912 C1909 1.384 . S
N1913 C1905 1.427 . S
N1913 C1911 1.384 . S
H1914 C1920 0.930 . S
H1915 C1924 0.930 . S
H1916 C1929 0.929 . S
H1917 C1927 0.929 . S
H1918 C1922 0.929 . S
H1919 C1928 0.929 . S
C1920 H1914 0.930 . S
C1920 C1921 1.367 . S
C1920 C1928 1.378 . S
C1921 C1920 1.367 . S
C1921 C1929 1.433 . S
C1922 H1918 0.929 . S
C1922 C1924 1.378 . S
C1922 C1926 1.350 . S
C1923 C1926 1.463 . S
C1923 C1928 1.350 . S
C1923 N1931 1.427 . S
C1924 H1915 0.930 . S
C1924 C1922 1.378 . S
C1924 C1925 1.367 . S
C1925 C1924 1.367 . S
C1925 C1927 1.433 . S
C1926 C1922 1.350 . S
C1926 C1923 1.463 . S
C1926 N1930 1.427 . S
C1927 H1917 0.929 . S
C1927 C1925 1.433 . S
C1927 N1930 1.384 . S
C1928 H1919 0.929 . S
C1928 C1920 1.378 . S
C1928 C1923 1.350 . S
C1929 H1916 0.929 . S
C1929 C1921 1.433 . S
C1929 N1931 1.384 . S
N1930 C1926 1.427 . S
N1930 C1927 1.384 . S
N1931 C1923 1.427 . S
N1931 C1929 1.384 . S
H1932 C1938 0.930 . S
H1933 C1942 0.930 . S
H1934 C1947 0.929 . S
H1935 C1945 0.929 . S
H1936 C1940 0.929 . S
H1937 C1946 0.929 . S
C1938 H1932 0.930 . S
C1938 C1939 1.367 . S
C1938 C1946 1.378 . S
C1939 C1938 1.367 . S
C1939 C1947 1.433 . S
C1940 H1936 0.929 . S
C1940 C1942 1.378 . S
C1940 C1944 1.350 . S
C1941 C1944 1.463 . S
C1941 C1946 1.350 . S
C1941 N1949 1.427 . S
C1942 H1933 0.930 . S
C1942 C1940 1.378 . S
C1942 C1943 1.367 . S
C1943 C1942 1.367 . S
C1943 C1945 1.433 . S
C1944 C1940 1.350 . S
C1944 C1941 1.463 . S
C1944 N1948 1.427 . S
C1945 H1935 0.929 . S
C1945 C1943 1.433 . S
C1945 N1948 1.384 . S
C1946 H1937 0.929 . S
C1946 C1938 1.378 . S
C1946 C1941 1.350 . S
C1947 H1934 0.929 . S
C1947 C1939 1.433 . S
C1947 N1949 1.384 . S
N1948 C1944 1.427 . S
N1948 C1945 1.384 . S
N1949 C1941 1.427 . S
N1949 C1947 1.384 . S
H1950 C1956 0.930 . S
H1951 C1960 0.930 . S
H1952 C1965 0.929 . S
H1953 C1963 0.929 . S
H1954 C1958 0.929 . S
H1955 C1964 0.929 . S
C1956 H1950 0.930 . S
C1956 C1957 1.367 . S
C1956 C1964 1.378 . S
C1957 C1956 1.367 . S
C1957 C1965 1.433 . S
C1958 H1954 0.929 . S
C1958 C1960 1.378 . S
C1958 C1962 1.350 . S
C1959 C1962 1.463 . S
C1959 C1964 1.350 . S
C1959 N1967 1.427 . S
C1960 H1951 0.930 . S
C1960 C1958 1.378 . S
C1960 C1961 1.367 . S
C1961 C1960 1.367 . S
C1961 C1963 1.433 . S
C1962 C1958 1.350 . S
C1962 C1959 1.463 . S
C1962 N1966 1.427 . S
C1963 H1953 0.929 . S
C1963 C1961 1.433 . S
C1963 N1966 1.384 . S
C1964 H1955 0.929 . S
C1964 C1956 1.378 . S
C1964 C1959 1.350 . S
C1965 H1952 0.929 . S
C1965 C1957 1.433 . S
C1965 N1967 1.384 . S
N1966 C1962 1.427 . S
N1966 C1963 1.384 . S
N1967 C1959 1.427 . S
N1967 C1965 1.384 . S
H1968 C1974 0.930 . S
H1969 C1978 0.930 . S
H1970 C1983 0.929 . S
H1971 C1981 0.929 . S
H1972 C1976 0.929 . S
H1973 C1982 0.929 . S
C1974 H1968 0.930 . S
C1974 C1975 1.367 . S
C1974 C1982 1.378 . S
C1975 C1974 1.367 . S
C1975 C1983 1.433 . S
C1976 H1972 0.929 . S
C1976 C1978 1.378 . S
C1976 C1980 1.350 . S
C1977 C1980 1.463 . S
C1977 C1982 1.350 . S
C1977 N1985 1.427 . S
C1978 H1969 0.930 . S
C1978 C1976 1.378 . S
C1978 C1979 1.367 . S
C1979 C1978 1.367 . S
C1979 C1981 1.433 . S
C1980 C1976 1.350 . S
C1980 C1977 1.463 . S
C1980 N1984 1.427 . S
C1981 H1971 0.929 . S
C1981 C1979 1.433 . S
C1981 N1984 1.384 . S
C1982 H1973 0.929 . S
C1982 C1974 1.378 . S
C1982 C1977 1.350 . S
C1983 H1970 0.929 . S
C1983 C1975 1.433 . S
C1983 N1985 1.384 . S
N1984 C1980 1.427 . S
N1984 C1981 1.384 . S
N1985 C1977 1.427 . S
N1985 C1983 1.384 . S
H1986 C1992 0.930 . S
H1987 C1996 0.930 . S
H1988 C2001 0.929 . S
H1989 C1999 0.929 . S
H1990 C1994 0.929 . S
H1991 C2000 0.929 . S
C1992 H1986 0.930 . S
C1992 C1993 1.367 . S
C1992 C2000 1.378 . S
C1993 C1992 1.367 . S
C1993 C2001 1.433 . S
C1994 H1990 0.929 . S
C1994 C1996 1.378 . S
C1994 C1998 1.350 . S
C1995 C1998 1.463 . S
C1995 C2000 1.350 . S
C1995 N2003 1.427 . S
C1996 H1987 0.930 . S
C1996 C1994 1.378 . S
C1996 C1997 1.367 . S
C1997 C1996 1.367 . S
C1997 C1999 1.433 . S
C1998 C1994 1.350 . S
C1998 C1995 1.463 . S
C1998 N2002 1.427 . S
C1999 H1989 0.929 . S
C1999 C1997 1.433 . S
C1999 N2002 1.384 . S
C2000 H1991 0.929 . S
C2000 C1992 1.378 . S
C2000 C1995 1.350 . S
C2001 H1988 0.929 . S
C2001 C1993 1.433 . S
C2001 N2003 1.384 . S
N2002 C1998 1.427 . S
N2002 C1999 1.384 . S
N2003 C1995 1.427 . S
N2003 C2001 1.384 . S
H2004 C2010 0.930 . S
H2005 C2014 0.930 . S
H2006 C2019 0.929 . S
H2007 C2017 0.929 . S
H2008 C2012 0.929 . S
H2009 C2018 0.929 . S
C2010 H2004 0.930 . S
C2010 C2011 1.367 . S
C2010 C2018 1.378 . S
C2011 C2010 1.367 . S
C2011 C2019 1.433 . S
C2012 H2008 0.929 . S
C2012 C2014 1.378 . S
C2012 C2016 1.350 . S
C2013 C2016 1.463 . S
C2013 C2018 1.350 . S
C2013 N2021 1.427 . S
C2014 H2005 0.930 . S
C2014 C2012 1.378 . S
C2014 C2015 1.367 . S
C2015 C2014 1.367 . S
C2015 C2017 1.433 . S
C2016 C2012 1.350 . S
C2016 C2013 1.463 . S
C2016 N2020 1.427 . S
C2017 H2007 0.929 . S
C2017 C2015 1.433 . S
C2017 N2020 1.384 . S
C2018 H2009 0.929 . S
C2018 C2010 1.378 . S
C2018 C2013 1.350 . S
C2019 H2006 0.929 . S
C2019 C2011 1.433 . S
C2019 N2021 1.384 . S
N2020 C2016 1.427 . S
N2020 C2017 1.384 . S
N2021 C2013 1.427 . S
N2021 C2019 1.384 . S
H2022 C2028 0.930 . S
H2023 C2032 0.930 . S
H2024 C2037 0.929 . S
H2025 C2035 0.929 . S
H2026 C2030 0.929 . S
H2027 C2036 0.929 . S
C2028 H2022 0.930 . S
C2028 C2029 1.367 . S
C2028 C2036 1.378 . S
C2029 C2028 1.367 . S
C2029 C2037 1.433 . S
C2030 H2026 0.929 . S
C2030 C2032 1.378 . S
C2030 C2034 1.350 . S
C2031 C2034 1.463 . S
C2031 C2036 1.350 . S
C2031 N2039 1.427 . S
C2032 H2023 0.930 . S
C2032 C2030 1.378 . S
C2032 C2033 1.367 . S
C2033 C2032 1.367 . S
C2033 C2035 1.433 . S
C2034 C2030 1.350 . S
C2034 C2031 1.463 . S
C2034 N2038 1.427 . S
C2035 H2025 0.929 . S
C2035 C2033 1.433 . S
C2035 N2038 1.384 . S
C2036 H2027 0.929 . S
C2036 C2028 1.378 . S
C2036 C2031 1.350 . S
C2037 H2024 0.929 . S
C2037 C2029 1.433 . S
C2037 N2039 1.384 . S
N2038 C2034 1.427 . S
N2038 C2035 1.384 . S
N2039 C2031 1.427 . S
N2039 C2037 1.384 . S
H2040 C2046 0.930 . S
H2041 C2050 0.930 . S
H2042 C2055 0.929 . S
H2043 C2053 0.929 . S
H2044 C2048 0.929 . S
H2045 C2054 0.929 . S
C2046 H2040 0.930 . S
C2046 C2047 1.367 . S
C2046 C2054 1.378 . S
C2047 C2046 1.367 . S
C2047 C2055 1.433 . S
C2048 H2044 0.929 . S
C2048 C2050 1.378 . S
C2048 C2052 1.350 . S
C2049 C2052 1.463 . S
C2049 C2054 1.350 . S
C2049 N2057 1.427 . S
C2050 H2041 0.930 . S
C2050 C2048 1.378 . S
C2050 C2051 1.367 . S
C2051 C2050 1.367 . S
C2051 C2053 1.433 . S
C2052 C2048 1.350 . S
C2052 C2049 1.463 . S
C2052 N2056 1.427 . S
C2053 H2043 0.929 . S
C2053 C2051 1.433 . S
C2053 N2056 1.384 . S
C2054 H2045 0.929 . S
C2054 C2046 1.378 . S
C2054 C2049 1.350 . S
C2055 H2042 0.929 . S
C2055 C2047 1.433 . S
C2055 N2057 1.384 . S
N2056 C2052 1.427 . S
N2056 C2053 1.384 . S
N2057 C2049 1.427 . S
N2057 C2055 1.384 . S
H2058 C2064 0.930 . S
H2059 C2068 0.930 . S
H2060 C2073 0.929 . S
H2061 C2071 0.929 . S
H2062 C2066 0.929 . S
H2063 C2072 0.929 . S
C2064 H2058 0.930 . S
C2064 C2065 1.367 . S
C2064 C2072 1.378 . S
C2065 C2064 1.367 . S
C2065 C2073 1.433 . S
C2066 H2062 0.929 . S
C2066 C2068 1.378 . S
C2066 C2070 1.350 . S
C2067 C2070 1.463 . S
C2067 C2072 1.350 . S
C2067 N2075 1.427 . S
C2068 H2059 0.930 . S
C2068 C2066 1.378 . S
C2068 C2069 1.367 . S
C2069 C2068 1.367 . S
C2069 C2071 1.433 . S
C2070 C2066 1.350 . S
C2070 C2067 1.463 . S
C2070 N2074 1.427 . S
C2071 H2061 0.929 . S
C2071 C2069 1.433 . S
C2071 N2074 1.384 . S
C2072 H2063 0.929 . S
C2072 C2064 1.378 . S
C2072 C2067 1.350 . S
C2073 H2060 0.929 . S
C2073 C2065 1.433 . S
C2073 N2075 1.384 . S
N2074 C2070 1.427 . S
N2074 C2071 1.384 . S
N2075 C2067 1.427 . S
N2075 C2073 1.384 . S
H2076 C2082 0.930 . S
H2077 C2086 0.930 . S
H2078 C2091 0.929 . S
H2079 C2089 0.929 . S
H2080 C2084 0.929 . S
H2081 C2090 0.929 . S
C2082 H2076 0.930 . S
C2082 C2083 1.367 . S
C2082 C2090 1.378 . S
C2083 C2082 1.367 . S
C2083 C2091 1.433 . S
C2084 H2080 0.929 . S
C2084 C2086 1.378 . S
C2084 C2088 1.350 . S
C2085 C2088 1.463 . S
C2085 C2090 1.350 . S
C2085 N2093 1.427 . S
C2086 H2077 0.930 . S
C2086 C2084 1.378 . S
C2086 C2087 1.367 . S
C2087 C2086 1.367 . S
C2087 C2089 1.433 . S
C2088 C2084 1.350 . S
C2088 C2085 1.463 . S
C2088 N2092 1.427 . S
C2089 H2079 0.929 . S
C2089 C2087 1.433 . S
C2089 N2092 1.384 . S
C2090 H2081 0.929 . S
C2090 C2082 1.378 . S
C2090 C2085 1.350 . S
C2091 H2078 0.929 . S
C2091 C2083 1.433 . S
C2091 N2093 1.384 . S
N2092 C2088 1.427 . S
N2092 C2089 1.384 . S
N2093 C2085 1.427 . S
N2093 C2091 1.384 . S
H2094 C2100 0.930 . S
H2095 C2104 0.930 . S
H2096 C2109 0.929 . S
H2097 C2107 0.929 . S
H2098 C2102 0.929 . S
H2099 C2108 0.929 . S
C2100 H2094 0.930 . S
C2100 C2101 1.367 . S
C2100 C2108 1.378 . S
C2101 C2100 1.367 . S
C2101 C2109 1.433 . S
C2102 H2098 0.929 . S
C2102 C2104 1.378 . S
C2102 C2106 1.350 . S
C2103 C2106 1.463 . S
C2103 C2108 1.350 . S
C2103 N2111 1.427 . S
C2104 H2095 0.930 . S
C2104 C2102 1.378 . S
C2104 C2105 1.367 . S
C2105 C2104 1.367 . S
C2105 C2107 1.433 . S
C2106 C2102 1.350 . S
C2106 C2103 1.463 . S
C2106 N2110 1.427 . S
C2107 H2097 0.929 . S
C2107 C2105 1.433 . S
C2107 N2110 1.384 . S
C2108 H2099 0.929 . S
C2108 C2100 1.378 . S
C2108 C2103 1.350 . S
C2109 H2096 0.929 . S
C2109 C2101 1.433 . S
C2109 N2111 1.384 . S
N2110 C2106 1.427 . S
N2110 C2107 1.384 . S
N2111 C2103 1.427 . S
N2111 C2109 1.384 . S
H2112 C2118 0.930 . S
H2113 C2122 0.930 . S
H2114 C2127 0.929 . S
H2115 C2125 0.929 . S
H2116 C2120 0.929 . S
H2117 C2126 0.929 . S
C2118 H2112 0.930 . S
C2118 C2119 1.367 . S
C2118 C2126 1.378 . S
C2119 C2118 1.367 . S
C2119 C2127 1.433 . S
C2120 H2116 0.929 . S
C2120 C2122 1.378 . S
C2120 C2124 1.350 . S
C2121 C2124 1.463 . S
C2121 C2126 1.350 . S
C2121 N2129 1.427 . S
C2122 H2113 0.930 . S
C2122 C2120 1.378 . S
C2122 C2123 1.367 . S
C2123 C2122 1.367 . S
C2123 C2125 1.433 . S
C2124 C2120 1.350 . S
C2124 C2121 1.463 . S
C2124 N2128 1.427 . S
C2125 H2115 0.929 . S
C2125 C2123 1.433 . S
C2125 N2128 1.384 . S
C2126 H2117 0.929 . S
C2126 C2118 1.378 . S
C2126 C2121 1.350 . S
C2127 H2114 0.929 . S
C2127 C2119 1.433 . S
C2127 N2129 1.384 . S
N2128 C2124 1.427 . S
N2128 C2125 1.384 . S
N2129 C2121 1.427 . S
N2129 C2127 1.384 . S
H2130 C2136 0.930 . S
H2131 C2140 0.930 . S
H2132 C2145 0.929 . S
H2133 C2143 0.929 . S
H2134 C2138 0.929 . S
H2135 C2144 0.929 . S
C2136 H2130 0.930 . S
C2136 C2137 1.367 . S
C2136 C2144 1.378 . S
C2137 C2136 1.367 . S
C2137 C2145 1.433 . S
C2138 H2134 0.929 . S
C2138 C2140 1.378 . S
C2138 C2142 1.350 . S
C2139 C2142 1.463 . S
C2139 C2144 1.350 . S
C2139 N2147 1.427 . S
C2140 H2131 0.930 . S
C2140 C2138 1.378 . S
C2140 C2141 1.367 . S
C2141 C2140 1.367 . S
C2141 C2143 1.433 . S
C2142 C2138 1.350 . S
C2142 C2139 1.463 . S
C2142 N2146 1.427 . S
C2143 H2133 0.929 . S
C2143 C2141 1.433 . S
C2143 N2146 1.384 . S
C2144 H2135 0.929 . S
C2144 C2136 1.378 . S
C2144 C2139 1.350 . S
C2145 H2132 0.929 . S
C2145 C2137 1.433 . S
C2145 N2147 1.384 . S
N2146 C2142 1.427 . S
N2146 C2143 1.384 . S
N2147 C2139 1.427 . S
N2147 C2145 1.384 . S
H2148 C2154 0.930 . S
H2149 C2158 0.930 . S
H2150 C2163 0.929 . S
H2151 C2161 0.929 . S
H2152 C2156 0.929 . S
H2153 C2162 0.929 . S
C2154 H2148 0.930 . S
C2154 C2155 1.367 . S
C2154 C2162 1.378 . S
C2155 C2154 1.367 . S
C2155 C2163 1.433 . S
C2156 H2152 0.929 . S
C2156 C2158 1.378 . S
C2156 C2160 1.350 . S
C2157 C2160 1.463 . S
C2157 C2162 1.350 . S
C2157 N2165 1.427 . S
C2158 H2149 0.930 . S
C2158 C2156 1.378 . S
C2158 C2159 1.367 . S
C2159 C2158 1.367 . S
C2159 C2161 1.433 . S
C2160 C2156 1.350 . S
C2160 C2157 1.463 . S
C2160 N2164 1.427 . S
C2161 H2151 0.929 . S
C2161 C2159 1.433 . S
C2161 N2164 1.384 . S
C2162 H2153 0.929 . S
C2162 C2154 1.378 . S
C2162 C2157 1.350 . S
C2163 H2150 0.929 . S
C2163 C2155 1.433 . S
C2163 N2165 1.384 . S
N2164 C2160 1.427 . S
N2164 C2161 1.384 . S
N2165 C2157 1.427 . S
N2165 C2163 1.384 . S
H2166 C2172 0.930 . S
H2167 C2176 0.930 . S
H2168 C2181 0.929 . S
H2169 C2179 0.929 . S
H2170 C2174 0.929 . S
H2171 C2180 0.929 . S
C2172 H2166 0.930 . S
C2172 C2173 1.367 . S
C2172 C2180 1.378 . S
C2173 C2172 1.367 . S
C2173 C2181 1.433 . S
C2174 H2170 0.929 . S
C2174 C2176 1.378 . S
C2174 C2178 1.350 . S
C2175 C2178 1.463 . S
C2175 C2180 1.350 . S
C2175 N2183 1.427 . S
C2176 H2167 0.930 . S
C2176 C2174 1.378 . S
C2176 C2177 1.367 . S
C2177 C2176 1.367 . S
C2177 C2179 1.433 . S
C2178 C2174 1.350 . S
C2178 C2175 1.463 . S
C2178 N2182 1.427 . S
C2179 H2169 0.929 . S
C2179 C2177 1.433 . S
C2179 N2182 1.384 . S
C2180 H2171 0.929 . S
C2180 C2172 1.378 . S
C2180 C2175 1.350 . S
C2181 H2168 0.929 . S
C2181 C2173 1.433 . S
C2181 N2183 1.384 . S
N2182 C2178 1.427 . S
N2182 C2179 1.384 . S
N2183 C2175 1.427 . S
N2183 C2181 1.384 . S
H2184 C2190 0.930 . S
H2185 C2194 0.930 . S
H2186 C2199 0.929 . S
H2187 C2197 0.929 . S
H2188 C2192 0.929 . S
H2189 C2198 0.929 . S
C2190 H2184 0.930 . S
C2190 C2191 1.367 . S
C2190 C2198 1.378 . S
C2191 C2190 1.367 . S
C2191 C2199 1.433 . S
C2192 H2188 0.929 . S
C2192 C2194 1.378 . S
C2192 C2196 1.350 . S
C2193 C2196 1.463 . S
C2193 C2198 1.350 . S
C2193 N2201 1.427 . S
C2194 H2185 0.930 . S
C2194 C2192 1.378 . S
C2194 C2195 1.367 . S
C2195 C2194 1.367 . S
C2195 C2197 1.433 . S
C2196 C2192 1.350 . S
C2196 C2193 1.463 . S
C2196 N2200 1.427 . S
C2197 H2187 0.929 . S
C2197 C2195 1.433 . S
C2197 N2200 1.384 . S
C2198 H2189 0.929 . S
C2198 C2190 1.378 . S
C2198 C2193 1.350 . S
C2199 H2186 0.929 . S
C2199 C2191 1.433 . S
C2199 N2201 1.384 . S
N2200 C2196 1.427 . S
N2200 C2197 1.384 . S
N2201 C2193 1.427 . S
N2201 C2199 1.384 . S
H2202 C2208 0.930 . S
H2203 C2212 0.930 . S
H2204 C2217 0.929 . S
H2205 C2215 0.929 . S
H2206 C2210 0.929 . S
H2207 C2216 0.929 . S
C2208 H2202 0.930 . S
C2208 C2209 1.367 . S
C2208 C2216 1.378 . S
C2209 C2208 1.367 . S
C2209 C2217 1.433 . S
C2210 H2206 0.929 . S
C2210 C2212 1.378 . S
C2210 C2214 1.350 . S
C2211 C2214 1.463 . S
C2211 C2216 1.350 . S
C2211 N2219 1.427 . S
C2212 H2203 0.930 . S
C2212 C2210 1.378 . S
C2212 C2213 1.367 . S
C2213 C2212 1.367 . S
C2213 C2215 1.433 . S
C2214 C2210 1.350 . S
C2214 C2211 1.463 . S
C2214 N2218 1.427 . S
C2215 H2205 0.929 . S
C2215 C2213 1.433 . S
C2215 N2218 1.384 . S
C2216 H2207 0.929 . S
C2216 C2208 1.378 . S
C2216 C2211 1.350 . S
C2217 H2204 0.929 . S
C2217 C2209 1.433 . S
C2217 N2219 1.384 . S
N2218 C2214 1.427 . S
N2218 C2215 1.384 . S
N2219 C2211 1.427 . S
N2219 C2217 1.384 . S
H2220 C2226 0.930 . S
H2221 C2230 0.930 . S
H2222 C2235 0.929 . S
H2223 C2233 0.929 . S
H2224 C2228 0.929 . S
H2225 C2234 0.929 . S
C2226 H2220 0.930 . S
C2226 C2227 1.367 . S
C2226 C2234 1.378 . S
C2227 C2226 1.367 . S
C2227 C2235 1.433 . S
C2228 H2224 0.929 . S
C2228 C2230 1.378 . S
C2228 C2232 1.350 . S
C2229 C2232 1.463 . S
C2229 C2234 1.350 . S
C2229 N2237 1.427 . S
C2230 H2221 0.930 . S
C2230 C2228 1.378 . S
C2230 C2231 1.367 . S
C2231 C2230 1.367 . S
C2231 C2233 1.433 . S
C2232 C2228 1.350 . S
C2232 C2229 1.463 . S
C2232 N2236 1.427 . S
C2233 H2223 0.929 . S
C2233 C2231 1.433 . S
C2233 N2236 1.384 . S
C2234 H2225 0.929 . S
C2234 C2226 1.378 . S
C2234 C2229 1.350 . S
C2235 H2222 0.929 . S
C2235 C2227 1.433 . S
C2235 N2237 1.384 . S
N2236 C2232 1.427 . S
N2236 C2233 1.384 . S
N2237 C2229 1.427 . S
N2237 C2235 1.384 . S
H2238 C2244 0.930 . S
H2239 C2248 0.930 . S
H2240 C2253 0.929 . S
H2241 C2251 0.929 . S
H2242 C2246 0.929 . S
H2243 C2252 0.929 . S
C2244 H2238 0.930 . S
C2244 C2245 1.367 . S
C2244 C2252 1.378 . S
C2245 C2244 1.367 . S
C2245 C2253 1.433 . S
C2246 H2242 0.929 . S
C2246 C2248 1.378 . S
C2246 C2250 1.350 . S
C2247 C2250 1.463 . S
C2247 C2252 1.350 . S
C2247 N2255 1.427 . S
C2248 H2239 0.930 . S
C2248 C2246 1.378 . S
C2248 C2249 1.367 . S
C2249 C2248 1.367 . S
C2249 C2251 1.433 . S
C2250 C2246 1.350 . S
C2250 C2247 1.463 . S
C2250 N2254 1.427 . S
C2251 H2241 0.929 . S
C2251 C2249 1.433 . S
C2251 N2254 1.384 . S
C2252 H2243 0.929 . S
C2252 C2244 1.378 . S
C2252 C2247 1.350 . S
C2253 H2240 0.929 . S
C2253 C2245 1.433 . S
C2253 N2255 1.384 . S
N2254 C2250 1.427 . S
N2254 C2251 1.384 . S
N2255 C2247 1.427 . S
N2255 C2253 1.384 . S
H2256 C2262 0.930 . S
H2257 C2266 0.930 . S
H2258 C2271 0.929 . S
H2259 C2269 0.929 . S
H2260 C2264 0.929 . S
H2261 C2270 0.929 . S
C2262 H2256 0.930 . S
C2262 C2263 1.367 . S
C2262 C2270 1.378 . S
C2263 C2262 1.367 . S
C2263 C2271 1.433 . S
C2264 H2260 0.929 . S
C2264 C2266 1.378 . S
C2264 C2268 1.350 . S
C2265 C2268 1.463 . S
C2265 C2270 1.350 . S
C2265 N2273 1.427 . S
C2266 H2257 0.930 . S
C2266 C2264 1.378 . S
C2266 C2267 1.367 . S
C2267 C2266 1.367 . S
C2267 C2269 1.433 . S
C2268 C2264 1.350 . S
C2268 C2265 1.463 . S
C2268 N2272 1.427 . S
C2269 H2259 0.929 . S
C2269 C2267 1.433 . S
C2269 N2272 1.384 . S
C2270 H2261 0.929 . S
C2270 C2262 1.378 . S
C2270 C2265 1.350 . S
C2271 H2258 0.929 . S
C2271 C2263 1.433 . S
C2271 N2273 1.384 . S
N2272 C2268 1.427 . S
N2272 C2269 1.384 . S
N2273 C2265 1.427 . S
N2273 C2271 1.384 . S
H2274 C2280 0.930 . S
H2275 C2284 0.930 . S
H2276 C2289 0.929 . S
H2277 C2287 0.929 . S
H2278 C2282 0.929 . S
H2279 C2288 0.929 . S
C2280 H2274 0.930 . S
C2280 C2281 1.367 . S
C2280 C2288 1.378 . S
C2281 C2280 1.367 . S
C2281 C2289 1.433 . S
C2282 H2278 0.929 . S
C2282 C2284 1.378 . S
C2282 C2286 1.350 . S
C2283 C2286 1.463 . S
C2283 C2288 1.350 . S
C2283 N2291 1.427 . S
C2284 H2275 0.930 . S
C2284 C2282 1.378 . S
C2284 C2285 1.367 . S
C2285 C2284 1.367 . S
C2285 C2287 1.433 . S
C2286 C2282 1.350 . S
C2286 C2283 1.463 . S
C2286 N2290 1.427 . S
C2287 H2277 0.929 . S
C2287 C2285 1.433 . S
C2287 N2290 1.384 . S
C2288 H2279 0.929 . S
C2288 C2280 1.378 . S
C2288 C2283 1.350 . S
C2289 H2276 0.929 . S
C2289 C2281 1.433 . S
C2289 N2291 1.384 . S
N2290 C2286 1.427 . S
N2290 C2287 1.384 . S
N2291 C2283 1.427 . S
N2291 C2289 1.384 . S
H2292 C2298 0.930 . S
H2293 C2302 0.930 . S
H2294 C2307 0.929 . S
H2295 C2305 0.929 . S
H2296 C2300 0.929 . S
H2297 C2306 0.929 . S
C2298 H2292 0.930 . S
C2298 C2299 1.367 . S
C2298 C2306 1.378 . S
C2299 C2298 1.367 . S
C2299 C2307 1.433 . S
C2300 H2296 0.929 . S
C2300 C2302 1.378 . S
C2300 C2304 1.350 . S
C2301 C2304 1.463 . S
C2301 C2306 1.350 . S
C2301 N2309 1.427 . S
C2302 H2293 0.930 . S
C2302 C2300 1.378 . S
C2302 C2303 1.367 . S
C2303 C2302 1.367 . S
C2303 C2305 1.433 . S
C2304 C2300 1.350 . S
C2304 C2301 1.463 . S
C2304 N2308 1.427 . S
C2305 H2295 0.929 . S
C2305 C2303 1.433 . S
C2305 N2308 1.384 . S
C2306 H2297 0.929 . S
C2306 C2298 1.378 . S
C2306 C2301 1.350 . S
C2307 H2294 0.929 . S
C2307 C2299 1.433 . S
C2307 N2309 1.384 . S
N2308 C2304 1.427 . S
N2308 C2305 1.384 . S
N2309 C2301 1.427 . S
N2309 C2307 1.384 . S
H2310 C2316 0.930 . S
H2311 C2320 0.930 . S
H2312 C2325 0.929 . S
H2313 C2323 0.929 . S
H2314 C2318 0.929 . S
H2315 C2324 0.929 . S
C2316 H2310 0.930 . S
C2316 C2317 1.367 . S
C2316 C2324 1.378 . S
C2317 C2316 1.367 . S
C2317 C2325 1.433 . S
C2318 H2314 0.929 . S
C2318 C2320 1.378 . S
C2318 C2322 1.350 . S
C2319 C2322 1.463 . S
C2319 C2324 1.350 . S
C2319 N2327 1.427 . S
C2320 H2311 0.930 . S
C2320 C2318 1.378 . S
C2320 C2321 1.367 . S
C2321 C2320 1.367 . S
C2321 C2323 1.433 . S
C2322 C2318 1.350 . S
C2322 C2319 1.463 . S
C2322 N2326 1.427 . S
C2323 H2313 0.929 . S
C2323 C2321 1.433 . S
C2323 N2326 1.384 . S
C2324 H2315 0.929 . S
C2324 C2316 1.378 . S
C2324 C2319 1.350 . S
C2325 H2312 0.929 . S
C2325 C2317 1.433 . S
C2325 N2327 1.384 . S
N2326 C2322 1.427 . S
N2326 C2323 1.384 . S
N2327 C2319 1.427 . S
N2327 C2325 1.384 . S
H2328 C2334 0.930 . S
H2329 C2338 0.930 . S
H2330 C2343 0.929 . S
H2331 C2341 0.929 . S
H2332 C2336 0.929 . S
H2333 C2342 0.929 . S
C2334 H2328 0.930 . S
C2334 C2335 1.367 . S
C2334 C2342 1.378 . S
C2335 C2334 1.367 . S
C2335 C2343 1.433 . S
C2336 H2332 0.929 . S
C2336 C2338 1.378 . S
C2336 C2340 1.350 . S
C2337 C2340 1.463 . S
C2337 C2342 1.350 . S
C2337 N2345 1.427 . S
C2338 H2329 0.930 . S
C2338 C2336 1.378 . S
C2338 C2339 1.367 . S
C2339 C2338 1.367 . S
C2339 C2341 1.433 . S
C2340 C2336 1.350 . S
C2340 C2337 1.463 . S
C2340 N2344 1.427 . S
C2341 H2331 0.929 . S
C2341 C2339 1.433 . S
C2341 N2344 1.384 . S
C2342 H2333 0.929 . S
C2342 C2334 1.378 . S
C2342 C2337 1.350 . S
C2343 H2330 0.929 . S
C2343 C2335 1.433 . S
C2343 N2345 1.384 . S
N2344 C2340 1.427 . S
N2344 C2341 1.384 . S
N2345 C2337 1.427 . S
N2345 C2343 1.384 . S
H2346 C2352 0.930 . S
H2347 C2356 0.930 . S
H2348 C2361 0.929 . S
H2349 C2359 0.929 . S
H2350 C2354 0.929 . S
H2351 C2360 0.929 . S
C2352 H2346 0.930 . S
C2352 C2353 1.367 . S
C2352 C2360 1.378 . S
C2353 C2352 1.367 . S
C2353 C2361 1.433 . S
C2354 H2350 0.929 . S
C2354 C2356 1.378 . S
C2354 C2358 1.350 . S
C2355 C2358 1.463 . S
C2355 C2360 1.350 . S
C2355 N2363 1.427 . S
C2356 H2347 0.930 . S
C2356 C2354 1.378 . S
C2356 C2357 1.367 . S
C2357 C2356 1.367 . S
C2357 C2359 1.433 . S
C2358 C2354 1.350 . S
C2358 C2355 1.463 . S
C2358 N2362 1.427 . S
C2359 H2349 0.929 . S
C2359 C2357 1.433 . S
C2359 N2362 1.384 . S
C2360 H2351 0.929 . S
C2360 C2352 1.378 . S
C2360 C2355 1.350 . S
C2361 H2348 0.929 . S
C2361 C2353 1.433 . S
C2361 N2363 1.384 . S
N2362 C2358 1.427 . S
N2362 C2359 1.384 . S
N2363 C2355 1.427 . S
N2363 C2361 1.384 . S
H2364 C2370 0.930 . S
H2365 C2374 0.930 . S
H2366 C2379 0.929 . S
H2367 C2377 0.929 . S
H2368 C2372 0.929 . S
H2369 C2378 0.929 . S
C2370 H2364 0.930 . S
C2370 C2371 1.367 . S
C2370 C2378 1.378 . S
C2371 C2370 1.367 . S
C2371 C2379 1.433 . S
C2372 H2368 0.929 . S
C2372 C2374 1.378 . S
C2372 C2376 1.350 . S
C2373 C2376 1.463 . S
C2373 C2378 1.350 . S
C2373 N2381 1.427 . S
C2374 H2365 0.930 . S
C2374 C2372 1.378 . S
C2374 C2375 1.367 . S
C2375 C2374 1.367 . S
C2375 C2377 1.433 . S
C2376 C2372 1.350 . S
C2376 C2373 1.463 . S
C2376 N2380 1.427 . S
C2377 H2367 0.929 . S
C2377 C2375 1.433 . S
C2377 N2380 1.384 . S
C2378 H2369 0.929 . S
C2378 C2370 1.378 . S
C2378 C2373 1.350 . S
C2379 H2366 0.929 . S
C2379 C2371 1.433 . S
C2379 N2381 1.384 . S
N2380 C2376 1.427 . S
N2380 C2377 1.384 . S
N2381 C2373 1.427 . S
N2381 C2379 1.384 . S
H2382 C2388 0.930 . S
H2383 C2392 0.930 . S
H2384 C2397 0.929 . S
H2385 C2395 0.929 . S
H2386 C2390 0.929 . S
H2387 C2396 0.929 . S
C2388 H2382 0.930 . S
C2388 C2389 1.367 . S
C2388 C2396 1.378 . S
C2389 C2388 1.367 . S
C2389 C2397 1.433 . S
C2390 H2386 0.929 . S
C2390 C2392 1.378 . S
C2390 C2394 1.350 . S
C2391 C2394 1.463 . S
C2391 C2396 1.350 . S
C2391 N2399 1.427 . S
C2392 H2383 0.930 . S
C2392 C2390 1.378 . S
C2392 C2393 1.367 . S
C2393 C2392 1.367 . S
C2393 C2395 1.433 . S
C2394 C2390 1.350 . S
C2394 C2391 1.463 . S
C2394 N2398 1.427 . S
C2395 H2385 0.929 . S
C2395 C2393 1.433 . S
C2395 N2398 1.384 . S
C2396 H2387 0.929 . S
C2396 C2388 1.378 . S
C2396 C2391 1.350 . S
C2397 H2384 0.929 . S
C2397 C2389 1.433 . S
C2397 N2399 1.384 . S
N2398 C2394 1.427 . S
N2398 C2395 1.384 . S
N2399 C2391 1.427 . S
N2399 C2397 1.384 . S
C679 C134 1.598 . S
C683 C8 1.594 . S
C697 C148 1.581 . S
C701 C22 1.583 . S
C715 C162 1.598 . S
C719 C36 1.599 . S
C733 C50 1.590 . S
C737 C120 1.595 . S
C751 C218 1.595 . S
C755 C64 1.598 . S
C769 C78 1.590 . S
C773 C176 1.585 . S
C787 C190 1.599 . S
C791 C92 1.597 . S
C805 C204 1.581 . S
C809 C106 1.583 . S
C823 C232 1.584 . S
C827 C260 1.588 . S
C841 C246 1.596 . S
C845 C316 1.591 . S
C859 C274 1.582 . S
C863 C330 1.582 . S
C877 C288 1.598 . S
C881 C302 1.598 . S
C895 C344 1.598 . S
C899 C470 1.595 . S
C913 C484 1.582 . S
C917 C358 1.582 . S
C931 C372 1.598 . S
C935 C498 1.595 . S
C949 C386 1.588 . S
C953 C456 1.583 . S
C967 C554 1.590 . S
C971 C400 1.595 . S
C985 C512 1.599 . S
C989 C414 1.596 . S
C1003 C526 1.599 . S
C1007 C428 1.597 . S
C1021 C540 1.599 . S
C1025 C442 1.598 . S
C1039 C568 1.595 . S
C1043 C596 1.598 . S
C1057 C582 1.592 . S
C1061 C652 1.587 . S
C1075 C610 1.595 . S
C1079 C666 1.598 . S
C1093 C638 1.589 . S
C1097 C624 1.584 . S
C1111 C121 1.108 . S
C1115 C3 1.250 . S
C1129 C135 1.106 . S
C1133 C17 1.249 . S
C1147 C31 1.250 . S
C1151 C149 1.107 . S
C1165 C45 1.248 . S
C1169 C163 1.136 . S
C1183 C59 1.249 . S
C1187 C177 1.127 . S
C1201 C73 1.248 . S
C1205 C191 1.136 . S
C1219 C87 1.249 . S
C1223 C205 1.107 . S
C1237 C219 1.116 . S
C1241 C101 1.250 . S
C1255 C115 1.249 . S
C1259 C233 1.122 . S
C1273 C331 1.108 . S
C1277 C129 1.250 . S
C1291 C143 1.248 . S
C1295 C303 1.119 . S
C1309 C157 1.249 . S
C1313 C317 1.125 . S
C1327 C171 1.248 . S
C1331 C247 1.129 . S
C1345 C185 1.249 . S
C1349 C261 1.126 . S
C1363 C199 1.248 . S
C1367 C275 1.136 . S
C1381 C289 1.111 . S
C1385 C213 1.248 . S
C1399 C9 1.115 . S
C1403 C227 1.248 . S
C1417 C241 1.250 . S
C1421 C65 1.107 . S
C1435 C255 1.250 . S
C1439 C79 1.110 . S
C1453 C269 1.248 . S
C1457 C93 1.135 . S
C1471 C107 1.124 . S
C1475 C283 1.249 . S
C1489 C297 1.250 . S
C1493 C37 1.113 . S
C1507 C311 1.248 . S
C1511 C51 1.135 . S
C1525 C23 1.106 . S
C1529 C325 1.249 . S
C1543 C457 1.113 . S
C1547 C339 1.250 . S
C1561 C353 1.248 . S
C1565 C471 1.128 . S
C1579 C367 1.250 . S
C1583 C485 1.110 . S
C1597 C499 1.106 . S
C1601 C381 1.249 . S
C1615 C513 1.126 . S
C1619 C395 1.248 . S
C1633 C409 1.249 . S
C1637 C527 1.135 . S
C1651 C541 1.120 . S
C1655 C423 1.248 . S
C1669 C555 1.132 . S
C1673 C437 1.248 . S
C1687 C451 1.249 . S
C1691 C569 1.106 . S
C1705 C465 1.249 . S
C1709 C667 1.121 . S
C1723 C479 1.248 . S
C1727 C639 1.121 . S
C1741 C653 1.136 . S
C1745 C493 1.248 . S
C1759 C507 1.250 . S
C1763 C583 1.116 . S
C1777 C521 1.249 . S
C1781 C597 1.135 . S
C1795 C611 1.106 . S
C1799 C535 1.249 . S
C1813 C625 1.133 . S
C1817 C549 1.248 . S
C1831 C563 1.248 . S
C1835 C345 1.136 . S
C1849 C577 1.250 . S
C1853 C401 1.112 . S
C1867 C415 1.134 . S
C1871 C591 1.249 . S
C1885 C605 1.249 . S
C1889 C429 1.107 . S
C1903 C619 1.248 . S
C1907 C443 1.135 . S
C1921 C373 1.108 . S
C1925 C633 1.249 . S
C1939 C647 1.249 . S
C1943 C387 1.107 . S
C1957 C359 1.112 . S
C1961 C661 1.250 . S
C1975 C441 1.357 . S
C1979 C7 1.351 . S
C1993 C21 1.349 . S
C1997 C399 1.358 . S
C2011 C413 1.361 . S
C2015 C35 1.347 . S
C2029 C427 1.365 . S
C2033 C49 1.341 . S
C2047 C63 1.341 . S
C2051 C357 1.365 . S
C2065 C371 1.350 . S
C2069 C77 1.358 . S
C2083 C385 1.357 . S
C2087 C91 1.348 . S
C2101 C105 1.354 . S
C2105 C343 1.354 . S
C2119 C623 1.354 . S
C2123 C119 1.351 . S
C2137 C133 1.365 . S
C2141 C581 1.341 . S
C2155 C147 1.346 . S
C2159 C595 1.359 . S
C2173 C609 1.343 . S
C2177 C161 1.364 . S
C2191 C665 1.363 . S
C2195 C175 1.343 . S
C2209 C637 1.356 . S
C2213 C189 1.349 . S
C2227 C203 1.341 . S
C2231 C651 1.365 . S
C2245 C567 1.363 . S
C2249 C217 1.342 . S
C2263 C231 1.364 . S
C2267 C553 1.343 . S
C2281 C469 1.364 . S
C2285 C245 1.342 . S
C2299 C259 1.365 . S
C2303 C483 1.341 . S
C2317 C497 1.345 . S
C2321 C273 1.361 . S
C2335 C455 1.341 . S
C2339 C287 1.365 . S
C2353 C301 1.342 . S
C2357 C525 1.365 . S
C2371 C539 1.353 . S
C2375 C315 1.352 . S
C2389 C511 1.361 . S
C2393 C329 1.345 . S
