# Generated by pormake.
# Topology ume, (4)-cn, num edge types: 1
# Building blocks:
#     Node 0, Type 0, BuildingBlock: CEKHIL_clean_sbu_0, # of connection points: 4
#     Node 1, Type 0, BuildingBlock: CEKHIL_clean_sbu_0, # of connection points: 4
#     Node 2, Type 0, BuildingBlock: CEKHIL_clean_sbu_0, # of connection points: 4
#     Node 3, Type 0, BuildingBlock: CEKHIL_clean_sbu_0, # of connection points: 4
#     Node 4, Type 0, BuildingBlock: CEKHIL_clean_sbu_0, # of connection points: 4
#     Node 5, Type 0, BuildingBlock: CEKHIL_clean_sbu_0, # of connection points: 4
#     Node 6, Type 0, BuildingBlock: CEKHIL_clean_sbu_0, # of connection points: 4
#     Node 7, Type 0, BuildingBlock: CEKHIL_clean_sbu_0, # of connection points: 4
#     Node 8, Type 0, BuildingBlock: CEKHIL_clean_sbu_0, # of connection points: 4
#     Node 9, Type 0, BuildingBlock: CEKHIL_clean_sbu_0, # of connection points: 4
#     Node 10, Type 0, BuildingBlock: CEKHIL_clean_sbu_0, # of connection points: 4
#     Node 11, Type 0, BuildingBlock: CEKHIL_clean_sbu_0, # of connection points: 4
#     Node 12, Type 0, BuildingBlock: CEKHIL_clean_sbu_0, # of connection points: 4
#     Node 13, Type 0, BuildingBlock: CEKHIL_clean_sbu_0, # of connection points: 4
#     Node 14, Type 0, BuildingBlock: CEKHIL_clean_sbu_0, # of connection points: 4
#     Node 15, Type 0, BuildingBlock: CEKHIL_clean_sbu_0, # of connection points: 4
#     Edge 16, Type (0, 0), BuildingBlock: CIFDUS_clean_linker_0, # of connection points: 2
#     Edge 17, Type (0, 0), BuildingBlock: CIFDUS_clean_linker_0, # of connection points: 2
#     Edge 18, Type (0, 0), BuildingBlock: CIFDUS_clean_linker_0, # of connection points: 2
#     Edge 19, Type (0, 0), BuildingBlock: CIFDUS_clean_linker_0, # of connection points: 2
#     Edge 20, Type (0, 0), BuildingBlock: CIFDUS_clean_linker_0, # of connection points: 2
#     Edge 21, Type (0, 0), BuildingBlock: CIFDUS_clean_linker_0, # of connection points: 2
#     Edge 22, Type (0, 0), BuildingBlock: CIFDUS_clean_linker_0, # of connection points: 2
#     Edge 23, Type (0, 0), BuildingBlock: CIFDUS_clean_linker_0, # of connection points: 2
#     Edge 24, Type (0, 0), BuildingBlock: CIFDUS_clean_linker_0, # of connection points: 2
#     Edge 25, Type (0, 0), BuildingBlock: CIFDUS_clean_linker_0, # of connection points: 2
#     Edge 26, Type (0, 0), BuildingBlock: CIFDUS_clean_linker_0, # of connection points: 2
#     Edge 27, Type (0, 0), BuildingBlock: CIFDUS_clean_linker_0, # of connection points: 2
#     Edge 28, Type (0, 0), BuildingBlock: CIFDUS_clean_linker_0, # of connection points: 2
#     Edge 29, Type (0, 0), BuildingBlock: CIFDUS_clean_linker_0, # of connection points: 2
#     Edge 30, Type (0, 0), BuildingBlock: CIFDUS_clean_linker_0, # of connection points: 2
#     Edge 31, Type (0, 0), BuildingBlock: CIFDUS_clean_linker_0, # of connection points: 2
#     Edge 32, Type (0, 0), BuildingBlock: CIFDUS_clean_linker_0, # of connection points: 2
#     Edge 33, Type (0, 0), BuildingBlock: CIFDUS_clean_linker_0, # of connection points: 2
#     Edge 34, Type (0, 0), BuildingBlock: CIFDUS_clean_linker_0, # of connection points: 2
#     Edge 35, Type (0, 0), BuildingBlock: CIFDUS_clean_linker_0, # of connection points: 2
#     Edge 36, Type (0, 0), BuildingBlock: CIFDUS_clean_linker_0, # of connection points: 2
#     Edge 37, Type (0, 0), BuildingBlock: CIFDUS_clean_linker_0, # of connection points: 2
#     Edge 38, Type (0, 0), BuildingBlock: CIFDUS_clean_linker_0, # of connection points: 2
#     Edge 39, Type (0, 0), BuildingBlock: CIFDUS_clean_linker_0, # of connection points: 2
#     Edge 40, Type (0, 0), BuildingBlock: CIFDUS_clean_linker_0, # of connection points: 2
#     Edge 41, Type (0, 0), BuildingBlock: CIFDUS_clean_linker_0, # of connection points: 2
#     Edge 42, Type (0, 0), BuildingBlock: CIFDUS_clean_linker_0, # of connection points: 2
#     Edge 43, Type (0, 0), BuildingBlock: CIFDUS_clean_linker_0, # of connection points: 2
#     Edge 44, Type (0, 0), BuildingBlock: CIFDUS_clean_linker_0, # of connection points: 2
#     Edge 45, Type (0, 0), BuildingBlock: CIFDUS_clean_linker_0, # of connection points: 2
#     Edge 46, Type (0, 0), BuildingBlock: CIFDUS_clean_linker_0, # of connection points: 2
#     Edge 47, Type (0, 0), BuildingBlock: CIFDUS_clean_linker_0, # of connection points: 2
# Relax obj value: 0.096
# Max RMSD: 0.135
# Mean RMSD: 0.135
data_MOF--net-ume--node1-CEKHIL_clean_sbu_0--edge1-CIFDUS_clean_linker_0
_symmetry_space_group_name_H-M    P1
_symmetry_Int_Tables_number       1
_symmetry_cell_setting            triclinic
loop_
_symmetry_equiv_pos_as_xyz
'x, y, z'
_cell_length_a     24.243794
_cell_length_b     24.124061
_cell_length_c     96.086016
_cell_angle_alpha  90.012003
_cell_angle_beta   90.009507
_cell_angle_gamma 90.03967
loop_
_atom_site_label
_atom_site_type_symbol
_atom_site_fract_x
_atom_site_fract_y
_atom_site_fract_z
_atom_type_partial_charge
Co0 Co 0.22467 0.09604 0.30152 0.0
O1 O 0.14623 0.10668 0.30324 0.0
O2 O 0.19101 0.02913 0.3083 0.0
C3 C 0.2347 0.1327 0.28016 0.0
O4 O 0.30323 0.06771 0.30054 0.0
Co5 Co 0.30577 0.19486 0.2995 0.0
O6 O 0.36191 0.13691 0.29552 0.0
C7 C 0.25471 0.1685 0.32641 0.0
C8 C 0.14438 0.05536 0.30736 0.0
C9 C 0.35166 0.08567 0.29749 0.0
O10 O 0.23607 0.12314 0.32116 0.0
O11 O 0.27921 0.20566 0.31917 0.0
O12 O 0.21672 0.08235 0.28167 0.0
O13 O 0.24018 0.16115 0.29151 0.0
Co14 Co 0.89528 0.73521 0.55172 0.0
O15 O 0.88814 0.6557 0.55196 0.0
O16 O 0.96588 0.70065 0.55602 0.0
C17 C 0.84929 0.74919 0.53172 0.0
O18 O 0.91681 0.81789 0.55181 0.0
Co19 Co 0.78728 0.80525 0.55394 0.0
O20 O 0.8383 0.8678 0.55029 0.0
C21 C 0.83088 0.74927 0.57867 0.0
C22 C 0.94028 0.65334 0.55481 0.0
C23 C 0.89082 0.86459 0.55067 0.0
O24 O 0.87584 0.7385 0.5721 0.0
O25 O 0.78823 0.77022 0.57286 0.0
O26 O 0.90084 0.73462 0.53146 0.0
O27 O 0.82624 0.74839 0.54382 0.0
Co28 Co 0.25482 0.40877 0.80339 0.0
O29 O 0.33363 0.39811 0.80512 0.0
O30 O 0.29003 0.47802 0.8078 0.0
C31 C 0.24335 0.3608 0.78345 0.0
O32 O 0.17656 0.43866 0.80178 0.0
Co33 Co 0.16917 0.31338 0.80408 0.0
O34 O 0.11603 0.37025 0.79767 0.0
C35 C 0.21729 0.35397 0.83043 0.0
C36 C 0.33638 0.45115 0.80751 0.0
C37 C 0.12778 0.42153 0.79872 0.0
O38 O 0.24429 0.39169 0.82382 0.0
O39 O 0.18695 0.31765 0.82444 0.0
O40 O 0.26174 0.41139 0.78318 0.0
O41 O 0.23733 0.33921 0.79568 0.0
Co42 Co 0.59602 0.76735 0.05066 0.0
O43 O 0.60437 0.84654 0.05191 0.0
O44 O 0.52539 0.8021 0.05466 0.0
C45 C 0.64464 0.75582 0.03098 0.0
O46 O 0.57329 0.68523 0.04965 0.0
Co47 Co 0.7017 0.69474 0.05334 0.0
O48 O 0.6511 0.63496 0.04724 0.0
C49 C 0.65197 0.74256 0.0785 0.0
C50 C 0.5519 0.84913 0.05433 0.0
C51 C 0.59865 0.63874 0.04754 0.0
O52 O 0.61127 0.75996 0.07114 0.0
O53 O 0.69469 0.71945 0.07324 0.0
O54 O 0.59351 0.77163 0.03045 0.0
O55 O 0.66619 0.75421 0.04328 0.0
Co56 Co 0.23642 0.38905 0.93928 0.0
O57 O 0.15988 0.36858 0.93759 0.0
O58 O 0.19096 0.45382 0.93495 0.0
C59 C 0.2517 0.34269 0.95925 0.0
O60 O 0.31431 0.42401 0.94085 0.0
Co61 Co 0.32543 0.29644 0.93786 0.0
O62 O 0.37187 0.35419 0.94658 0.0
C63 C 0.27809 0.34002 0.91182 0.0
C64 C 0.14883 0.42016 0.93521 0.0
C65 C 0.3617 0.40561 0.9451 0.0
O66 O 0.24809 0.37394 0.91884 0.0
O67 O 0.31069 0.30468 0.91738 0.0
O68 O 0.22928 0.3915 0.95944 0.0
O69 O 0.2588 0.32128 0.94703 0.0
Co70 Co 0.60685 0.74337 0.18735 0.0
O71 O 0.61367 0.66373 0.18694 0.0
O72 O 0.53677 0.70909 0.18232 0.0
C73 C 0.64978 0.75634 0.20783 0.0
O74 O 0.58551 0.82618 0.18733 0.0
Co75 Co 0.71513 0.81357 0.18645 0.0
O76 O 0.66371 0.87582 0.19002 0.0
C77 C 0.67581 0.75833 0.16115 0.0
C78 C 0.56192 0.66163 0.18364 0.0
C79 C 0.6113 0.87277 0.18905 0.0
O80 O 0.62968 0.74749 0.1672 0.0
O81 O 0.71745 0.77907 0.16748 0.0
O82 O 0.59819 0.74186 0.20756 0.0
O83 O 0.67467 0.7561 0.19597 0.0
Co84 Co 0.27113 0.11033 0.43757 0.0
O85 O 0.34917 0.1219 0.43534 0.0
O86 O 0.3065 0.04068 0.43394 0.0
C87 C 0.25882 0.16135 0.45689 0.0
O88 O 0.19341 0.08112 0.43986 0.0
Co89 Co 0.18796 0.20676 0.43463 0.0
O90 O 0.13382 0.15184 0.44185 0.0
C91 C 0.23743 0.15937 0.40945 0.0
C92 C 0.35234 0.06855 0.43354 0.0
C93 C 0.14489 0.10021 0.44226 0.0
O94 O 0.25915 0.12133 0.41703 0.0
O95 O 0.2111 0.20068 0.41453 0.0
O96 O 0.27896 0.11158 0.45766 0.0
O97 O 0.25343 0.1812 0.44442 0.0
Co98 Co 0.91503 0.76536 0.6889 0.0
O99 O 0.90585 0.8442 0.6865 0.0
O100 O 0.9856 0.79929 0.68581 0.0
C101 C 0.86068 0.75509 0.70768 0.0
O102 O 0.94264 0.68684 0.69142 0.0
Co103 Co 0.81843 0.68144 0.68614 0.0
O104 O 0.87272 0.62615 0.69294 0.0
C105 C 0.86613 0.73229 0.66099 0.0
C106 C 0.95923 0.84602 0.68511 0.0
C107 C 0.92397 0.63771 0.69348 0.0
O108 O 0.90537 0.75323 0.66832 0.0
O109 O 0.825 0.70658 0.66631 0.0
O110 O 0.91075 0.77364 0.70904 0.0
O111 O 0.8434 0.74907 0.69505 0.0
Co112 Co 0.72467 0.61194 0.80045 0.0
O113 O 0.64566 0.62088 0.80197 0.0
O114 O 0.69088 0.54205 0.80501 0.0
C115 C 0.7371 0.65919 0.7805 0.0
O116 O 0.80368 0.58453 0.79923 0.0
Co117 Co 0.80663 0.71103 0.80145 0.0
O118 O 0.86347 0.65488 0.79661 0.0
C119 C 0.7504 0.67491 0.82695 0.0
C120 C 0.64401 0.56803 0.80465 0.0
C121 C 0.85267 0.6032 0.79714 0.0
O122 O 0.73393 0.6305 0.82078 0.0
O123 O 0.7747 0.7148 0.82067 0.0
O124 O 0.71929 0.60834 0.78019 0.0
O125 O 0.7409 0.68124 0.7927 0.0
Co126 Co 0.40433 0.24549 0.05427 0.0
O127 O 0.39717 0.16623 0.0551 0.0
O128 O 0.47577 0.2113 0.05784 0.0
C129 C 0.35501 0.25726 0.03469 0.0
O130 O 0.42546 0.3281 0.05355 0.0
Co131 Co 0.297 0.31446 0.05784 0.0
O132 O 0.34609 0.37679 0.05267 0.0
C133 C 0.34923 0.26612 0.08254 0.0
C134 C 0.44982 0.16398 0.05722 0.0
C135 C 0.39863 0.37428 0.05238 0.0
O136 O 0.38994 0.25091 0.07487 0.0
O137 O 0.30536 0.28814 0.07761 0.0
O138 O 0.40646 0.24275 0.03407 0.0
O139 O 0.33352 0.25764 0.04702 0.0
Co140 Co 0.75641 0.89925 0.30317 0.0
O141 O 0.83505 0.8898 0.30482 0.0
O142 O 0.79003 0.96884 0.30794 0.0
C143 C 0.74482 0.85313 0.28312 0.0
O144 O 0.67757 0.92672 0.30181 0.0
Co145 Co 0.6751 0.79989 0.3041 0.0
O146 O 0.61854 0.85586 0.29894 0.0
C147 C 0.73091 0.83609 0.32965 0.0
C148 C 0.83674 0.94254 0.3076 0.0
C149 C 0.62892 0.90763 0.29949 0.0
O150 O 0.74696 0.88033 0.32339 0.0
O151 O 0.7064 0.79608 0.32345 0.0
O152 O 0.76264 0.90396 0.28302 0.0
O153 O 0.74044 0.83019 0.29523 0.0
Co154 Co 0.09054 0.25712 0.55067 0.0
O155 O 0.09795 0.33656 0.55167 0.0
O156 O 0.0193 0.2915 0.55427 0.0
C157 C 0.14078 0.24581 0.53113 0.0
O158 O 0.06833 0.17475 0.54983 0.0
Co159 Co 0.1962 0.18524 0.55385 0.0
O160 O 0.14628 0.12441 0.54799 0.0
C161 C 0.14676 0.23616 0.57867 0.0
C162 C 0.04529 0.3388 0.55384 0.0
C163 C 0.0938 0.12811 0.54805 0.0
O164 O 0.10507 0.25111 0.57129 0.0
O165 O 0.18992 0.2137 0.57346 0.0
O166 O 0.08935 0.26045 0.53037 0.0
O167 O 0.16136 0.24445 0.54353 0.0
Co168 Co 0.74141 0.91594 0.43941 0.0
O169 O 0.66337 0.90593 0.43688 0.0
O170 O 0.70736 0.98658 0.43609 0.0
C171 C 0.75117 0.86228 0.45828 0.0
O172 O 0.81964 0.94349 0.44201 0.0
Co173 Co 0.82365 0.81803 0.43654 0.0
O174 O 0.87885 0.87221 0.44356 0.0
C175 C 0.77266 0.86574 0.41154 0.0
C176 C 0.66115 0.95943 0.43532 0.0
C177 C 0.86816 0.92389 0.44416 0.0
O178 O 0.75379 0.90587 0.41892 0.0
O179 O 0.79718 0.82358 0.41675 0.0
O180 O 0.73262 0.91259 0.45949 0.0
O181 O 0.75726 0.84422 0.44571 0.0
Co182 Co 0.11688 0.23601 0.68782 0.0
O183 O 0.12736 0.15699 0.68637 0.0
O184 O 0.04837 0.20121 0.68291 0.0
C185 C 0.16142 0.24936 0.70811 0.0
O186 O 0.08809 0.3145 0.689 0.0
Co187 Co 0.21384 0.31966 0.68707 0.0
O188 O 0.15708 0.37469 0.69276 0.0
C189 C 0.1784 0.26532 0.66116 0.0
C190 C 0.07495 0.15457 0.68349 0.0
C191 C 0.10585 0.36336 0.69183 0.0
O192 O 0.13598 0.2457 0.66753 0.0
O193 O 0.21713 0.29165 0.66737 0.0
O194 O 0.11129 0.23029 0.70798 0.0
O195 O 0.18498 0.25363 0.69607 0.0
Co196 Co 0.76243 0.59778 0.9377 0.0
O197 O 0.83979 0.61512 0.93741 0.0
O198 O 0.80665 0.53103 0.93419 0.0
C199 C 0.74307 0.64555 0.95722 0.0
O200 O 0.68267 0.56731 0.93765 0.0
Co201 Co 0.68273 0.69893 0.93407 0.0
O202 O 0.62563 0.64171 0.93731 0.0
C203 C 0.73868 0.65233 0.90961 0.0
C204 C 0.84973 0.56335 0.93504 0.0
C205 C 0.63393 0.58954 0.93777 0.0
O206 O 0.75724 0.61243 0.91714 0.0
O207 O 0.71247 0.69386 0.91462 0.0
O208 O 0.76322 0.59581 0.95802 0.0
O209 O 0.74142 0.66652 0.94488 0.0
Co210 Co 0.41268 0.26601 0.19055 0.0
O211 O 0.40593 0.34564 0.19 0.0
O212 O 0.48088 0.29977 0.18391 0.0
C213 C 0.37695 0.25478 0.21203 0.0
O214 O 0.43365 0.18319 0.19029 0.0
Co215 Co 0.30462 0.19651 0.19205 0.0
O216 O 0.35653 0.13393 0.19471 0.0
C217 C 0.33678 0.24759 0.16555 0.0
C218 C 0.45634 0.34739 0.18558 0.0
C219 C 0.40841 0.13672 0.19259 0.0
O220 O 0.38363 0.26075 0.17092 0.0
O221 O 0.29722 0.22649 0.17261 0.0
O222 O 0.4283 0.2687 0.21046 0.0
O223 O 0.34785 0.25423 0.20076 0.0
H224 H 0.93841 0.89737 0.31095 0.0
H225 H 0.85334 0.05415 0.30843 0.0
H226 H 0.94128 0.10336 0.30913 0.0
H227 H 0.04246 0.10151 0.30864 0.0
H228 H 0.12759 0.94483 0.31139 0.0
H229 H 0.0395 0.89601 0.31257 0.0
C230 C 0.93914 0.94231 0.31067 0.0
C231 C 0.88956 0.97204 0.30948 0.0
C232 C 0.98983 0.97037 0.31107 0.0
C233 C 0.89101 0.03028 0.30929 0.0
C234 C 0.94127 0.05848 0.30965 0.0
C235 C 0.04172 0.05673 0.30963 0.0
C236 C 0.0914 0.0268 0.30977 0.0
C237 C 0.99096 0.0289 0.31026 0.0
C238 C 0.08987 0.96884 0.31121 0.0
C239 C 0.03952 0.94084 0.31184 0.0
H240 H 0.89279 0.55131 0.55543 0.0
H241 H 0.05123 0.63275 0.55687 0.0
H242 H 0.09734 0.54247 0.55719 0.0
H243 H 0.09267 0.44063 0.55601 0.0
H244 H 0.93416 0.35928 0.55473 0.0
H245 H 0.888 0.44945 0.55546 0.0
C246 C 0.93745 0.54942 0.55589 0.0
C247 C 0.96853 0.59889 0.55604 0.0
C248 C 0.96361 0.49738 0.55606 0.0
C249 C 0.0263 0.59548 0.55673 0.0
C250 C 0.05267 0.54382 0.55688 0.0
C251 C 0.04798 0.44252 0.55596 0.0
C252 C 0.01691 0.39312 0.55523 0.0
C253 C 0.02176 0.49453 0.55638 0.0
C254 C 0.95908 0.3965 0.55528 0.0
C255 C 0.93268 0.4481 0.55566 0.0
H256 H 0.54139 0.61224 0.80749 0.0
H257 H 0.62829 0.45629 0.80611 0.0
H258 H 0.54104 0.4061 0.80762 0.0
H259 H 0.43957 0.40642 0.80803 0.0
H260 H 0.3529 0.5625 0.80971 0.0
H261 H 0.44036 0.61248 0.80951 0.0
C262 C 0.54124 0.56728 0.8076 0.0
C263 C 0.59124 0.53811 0.80657 0.0
C264 C 0.49088 0.5386 0.8085 0.0
C265 C 0.59038 0.47983 0.80685 0.0
C266 C 0.54046 0.45103 0.80769 0.0
C267 C 0.43985 0.45134 0.80848 0.0
C268 C 0.38973 0.48061 0.80878 0.0
C269 C 0.49039 0.47997 0.80833 0.0
C270 C 0.39084 0.53885 0.80943 0.0
C271 C 0.44088 0.56756 0.80928 0.0
H272 H 0.40189 0.0625 0.05837 0.0
H273 H 0.56102 0.14279 0.05807 0.0
H274 H 0.60644 0.05211 0.05769 0.0
H275 H 0.60062 0.95036 0.05628 0.0
H276 H 0.44128 0.87043 0.05654 0.0
H277 H 0.39616 0.96092 0.05814 0.0
C278 C 0.44657 0.0603 0.05831 0.0
C279 C 0.47804 0.1095 0.05817 0.0
C280 C 0.47227 0.00811 0.05802 0.0
C281 C 0.53583 0.10569 0.05818 0.0
C282 C 0.56178 0.05382 0.05791 0.0
C283 C 0.55599 0.95262 0.05675 0.0
C284 C 0.52433 0.90357 0.05619 0.0
C285 C 0.53038 0.00481 0.05765 0.0
C286 C 0.46662 0.9074 0.05692 0.0
C287 C 0.44081 0.95917 0.05781 0.0
H288 H 0.10846 0.52624 0.9335 0.0
H289 H 0.05734 0.35495 0.93356 0.0
H290 H 0.96081 0.38293 0.9329 0.0
H291 H 0.88961 0.45641 0.93347 0.0
H292 H 0.94148 0.62757 0.93369 0.0
H293 H 0.03768 0.59938 0.93302 0.0
C294 C 0.07623 0.49507 0.93324 0.0
C295 C 0.09048 0.4386 0.93364 0.0
C296 C 0.02032 0.51142 0.93298 0.0
C297 C 0.04789 0.39881 0.93332 0.0
C298 C 0.9924 0.41474 0.93295 0.0
C299 C 0.92196 0.48746 0.93326 0.0
C300 C 0.90791 0.54402 0.93372 0.0
C301 C 0.97793 0.47097 0.93297 0.0
C302 C 0.95068 0.58365 0.93345 0.0
C303 C 0.00602 0.56763 0.93305 0.0
H304 H 0.40878 0.44926 0.184 0.0
H305 H 0.56682 0.36747 0.18219 0.0
H306 H 0.61308 0.45757 0.18076 0.0
H307 H 0.60885 0.55961 0.18146 0.0
H308 H 0.45072 0.64135 0.18285 0.0
H309 H 0.40423 0.5512 0.1829 0.0
C310 C 0.45336 0.45106 0.18319 0.0
C311 C 0.48433 0.40154 0.18332 0.0
C312 C 0.47963 0.50304 0.18234 0.0
C313 C 0.54199 0.40477 0.18212 0.0
C314 C 0.56846 0.45635 0.18136 0.0
C315 C 0.56417 0.55778 0.18167 0.0
C316 C 0.53332 0.60732 0.18226 0.0
C317 C 0.53775 0.50576 0.18168 0.0
C318 C 0.47547 0.60404 0.18239 0.0
C319 C 0.44889 0.55243 0.18248 0.0
H320 H 0.45387 0.11584 0.43266 0.0
H321 H 0.37074 0.95767 0.43088 0.0
H322 H 0.45941 0.90997 0.43044 0.0
H323 H 0.56017 0.91295 0.43214 0.0
H324 H 0.64347 0.07096 0.43415 0.0
H325 H 0.55501 0.11898 0.43283 0.0
C326 C 0.45516 0.07096 0.43205 0.0
C327 C 0.40587 0.04033 0.43193 0.0
C328 C 0.50625 0.04377 0.43192 0.0
C329 C 0.40815 0.98222 0.43106 0.0
C330 C 0.45882 0.95488 0.43083 0.0
C331 C 0.559 0.95789 0.43219 0.0
C332 C 0.60817 0.98834 0.43337 0.0
C333 C 0.50807 0.9852 0.43152 0.0
C334 C 0.60609 0.04655 0.43331 0.0
C335 C 0.55555 0.07406 0.43258 0.0
H336 H 0.11965 0.05136 0.68352 0.0
H337 H 0.96465 0.13813 0.67992 0.0
H338 H 0.91515 0.05008 0.67944 0.0
H339 H 0.91541 0.94864 0.68148 0.0
H340 H 0.07045 0.86192 0.68503 0.0
H341 H 0.1203 0.94969 0.68403 0.0
C342 C 0.07509 0.05097 0.68251 0.0
C343 C 0.04589 0.10117 0.68186 0.0
C344 C 0.04681 1.00021 0.68231 0.0
C345 C 0.98816 0.10003 0.68048 0.0
C346 C 0.95975 0.0497 0.68024 0.0
C347 C 0.96011 0.94895 0.68194 0.0
C348 C 0.98912 0.89893 0.68344 0.0
C349 C 0.98858 0.99958 0.68138 0.0
C350 C 0.04708 0.89991 0.68392 0.0
C351 C 0.07567 0.95008 0.68337 0.0
H352 H 0.51876 0.88544 0.29855 0.0
H353 H 0.63599 0.0202 0.29677 0.0
H354 H 0.5607 0.0868 0.29529 0.0
H355 H 0.46174 0.10727 0.29552 0.0
H356 H 0.34455 0.97261 0.29788 0.0
H357 H 0.41981 0.90573 0.29804 0.0
C358 C 0.52795 0.92933 0.29775 0.0
C359 C 0.58305 0.94764 0.29785 0.0
C360 C 0.48446 0.96759 0.29705 0.0
C361 C 0.59402 0.00479 0.29681 0.0
C362 C 0.55097 0.04302 0.29595 0.0
C363 C 0.45255 0.0633 0.29597 0.0
C364 C 0.39748 0.04518 0.29676 0.0
C365 C 0.49604 0.02494 0.29622 0.0
C366 C 0.38651 0.98793 0.29736 0.0
C367 C 0.42954 0.94953 0.29744 0.0
H368 H 0.00082 0.88242 0.54507 0.0
H369 H 0.8498 0.96805 0.55529 0.0
H370 H 0.89767 0.05648 0.55477 0.0
H371 H 0.98292 0.11055 0.55201 0.0
H372 H 0.13392 0.02552 0.54148 0.0
H373 H 0.08565 0.93713 0.54142 0.0
C374 C 0.97843 0.92039 0.5472 0.0
C375 C 0.92171 0.91805 0.55023 0.0
C376 C 0.0062 0.97184 0.54679 0.0
C377 C 0.89342 0.96809 0.55285 0.0
C378 C 0.92077 0.01903 0.55258 0.0
C379 C 0.00522 0.07283 0.54957 0.0
C380 C 0.06217 0.07521 0.54684 0.0
C381 C 0.97721 0.02154 0.5496 0.0
C382 C 0.09015 0.02544 0.54373 0.0
C383 C 0.06259 0.97452 0.5437 0.0
H384 H 0.01795 0.40165 0.79545 0.0
H385 H 0.13663 0.53472 0.79854 0.0
H386 H 0.06226 0.60268 0.79755 0.0
H387 H 0.96333 0.62428 0.79702 0.0
H388 H 0.84493 0.49071 0.79453 0.0
H389 H 0.91959 0.42325 0.79402 0.0
C390 C 0.02775 0.4455 0.7958 0.0
C391 C 0.08293 0.46286 0.79715 0.0
C392 C 0.98479 0.48441 0.7954 0.0
C393 C 0.09459 0.51999 0.79758 0.0
C394 C 0.05205 0.55898 0.79703 0.0
C395 C 0.95378 0.58047 0.79625 0.0
C396 C 0.89845 0.56277 0.7959 0.0
C397 C 0.99695 0.54165 0.79612 0.0
C398 C 0.88703 0.50569 0.79492 0.0
C399 C 0.92974 0.46695 0.79462 0.0
H400 H 0.48842 0.62085 0.05223 0.0
H401 H 0.63828 0.53679 0.04025 0.0
H402 H 0.59061 0.44811 0.04063 0.0
H403 H 0.50706 0.39285 0.04534 0.0
H404 H 0.35708 0.47751 0.05695 0.0
H405 H 0.40398 0.56633 0.05574 0.0
C406 C 0.51055 0.58328 0.04955 0.0
C407 C 0.56706 0.58594 0.04634 0.0
C408 C 0.48293 0.53186 0.04983 0.0
C409 C 0.59486 0.53642 0.0429 0.0
C410 C 0.56766 0.48535 0.04313 0.0
C411 C 0.48468 0.4307 0.0476 0.0
C412 C 0.42861 0.42801 0.05128 0.0
C413 C 0.51185 0.48234 0.04679 0.0
C414 C 0.40023 0.47786 0.05404 0.0
C415 C 0.42703 0.52901 0.05337 0.0
H416 H 0.39722 0.48772 0.92783 0.0
H417 H 0.43631 0.4033 0.96606 0.0
H418 H 0.52626 0.44918 0.96692 0.0
H419 H 0.59613 0.51132 0.95624 0.0
H420 H 0.55674 0.59436 0.91783 0.0
H421 H 0.46594 0.55056 0.91741 0.0
C422 C 0.42488 0.48064 0.93652 0.0
C423 C 0.4097 0.443 0.94699 0.0
C424 C 0.47748 0.50574 0.9367 0.0
C425 C 0.44677 0.43282 0.95798 0.0
C426 C 0.49852 0.45853 0.9584 0.0
C427 C 0.56795 0.51878 0.94768 0.0
C428 C 0.58347 0.55507 0.93694 0.0
C429 C 0.51493 0.49427 0.94766 0.0
C430 C 0.54595 0.56579 0.9261 0.0
C431 C 0.49377 0.54122 0.92592 0.0
H432 H 0.49911 0.88983 0.19091 0.0
H433 H 0.6543 0.97735 0.18852 0.0
H434 H 0.60647 0.06562 0.18943 0.0
H435 H 0.52045 0.11945 0.19081 0.0
H436 H 0.36529 0.03211 0.19362 0.0
H437 H 0.41306 0.94375 0.19266 0.0
C438 C 0.52248 0.92815 0.19057 0.0
C439 C 0.58038 0.92628 0.18964 0.0
C440 C 0.49467 0.97953 0.19119 0.0
C441 C 0.60973 0.97684 0.18928 0.0
C442 C 0.5824 0.02776 0.18978 0.0
C443 C 0.49705 0.08116 0.19123 0.0
C444 C 0.4392 0.08309 0.19229 0.0
C445 C 0.52485 0.02978 0.19073 0.0
C446 C 0.40985 0.03256 0.19285 0.0
C447 C 0.43714 0.9816 0.19227 0.0
H448 H 0.97794 0.90094 0.44572 0.0
H449 H 0.86151 0.03628 0.44744 0.0
H450 H 0.93721 0.10268 0.44816 0.0
H451 H 0.0359 0.1227 0.44623 0.0
H452 H 0.15215 0.98731 0.4439 0.0
H453 H 0.07689 0.92079 0.4456 0.0
C454 C 0.969 0.9449 0.44642 0.0
C455 C 0.91403 0.96347 0.44634 0.0
C456 C 0.01268 0.98301 0.44661 0.0
C457 C 0.90339 0.02069 0.44733 0.0
C458 C 0.94667 0.0588 0.44773 0.0
C459 C 0.04494 0.07867 0.44621 0.0
C460 C 0.09963 0.0602 0.44474 0.0
C461 C 0.00142 0.04048 0.44703 0.0
C462 C 0.11044 1.00289 0.44488 0.0
C463 C 0.06741 0.96468 0.44584 0.0
H464 H 0.12537 0.47344 0.69606 0.0
H465 H 0.99359 0.35407 0.69152 0.0
H466 H 0.92565 0.42805 0.6928 0.0
H467 H 0.90364 0.52681 0.69365 0.0
H468 H 0.03521 0.64665 0.69762 0.0
H469 H 0.10294 0.5721 0.69826 0.0
C470 C 0.08181 0.46349 0.69544 0.0
C471 C 0.06484 0.40825 0.69355 0.0
C472 C 0.04275 0.5063 0.69606 0.0
C473 C 0.00807 0.39622 0.69285 0.0
C474 C 0.96903 0.43851 0.69359 0.0
C475 C 0.94704 0.53672 0.69482 0.0
C476 C 0.96421 0.59231 0.69546 0.0
C477 C 0.98593 0.49375 0.69497 0.0
C478 C 0.02073 0.60423 0.69699 0.0
C479 C 0.0596 0.56163 0.69734 0.0
H480 H 0.25172 0.08928 0.34631 0.0
H481 H 0.24744 0.26654 0.34062 0.0
H482 H 0.24011 0.27977 0.36583 0.0
H483 H 0.23572 0.24053 0.38958 0.0
H484 H 0.24684 0.06325 0.39497 0.0
H485 H 0.25078 0.05052 0.36983 0.0
C486 C 0.24885 0.13081 0.35058 0.0
C487 C 0.24966 0.17683 0.34162 0.0
C488 C 0.2461 0.1381 0.36505 0.0
C489 C 0.2469 0.23043 0.34732 0.0
C490 C 0.24266 0.238 0.36172 0.0
C491 C 0.23892 0.19918 0.38523 0.0
C492 C 0.24085 0.15295 0.39414 0.0
C493 C 0.24235 0.19211 0.37071 0.0
C494 C 0.24561 0.0996 0.38836 0.0
C495 C 0.24767 0.09221 0.37397 0.0
H496 H 0.91621 0.75638 0.5968 0.0
H497 H 0.74144 0.72368 0.59451 0.0
H498 H 0.73726 0.71455 0.61981 0.0
H499 H 0.78262 0.71839 0.64253 0.0
H500 H 0.95643 0.75635 0.64502 0.0
H501 H 0.96152 0.76141 0.61966 0.0
C502 C 0.87737 0.74667 0.60185 0.0
C503 C 0.82926 0.74036 0.59384 0.0
C504 C 0.87499 0.743 0.61641 0.0
C505 C 0.77899 0.72875 0.60049 0.0
C506 C 0.77657 0.72359 0.61494 0.0
C507 C 0.8217 0.72762 0.63754 0.0
C508 C 0.86907 0.73682 0.64566 0.0
C509 C 0.8242 0.73112 0.623 0.0
C510 C 0.91924 0.74933 0.63902 0.0
C511 C 0.92227 0.75201 0.62452 0.0
H512 H 0.30844 0.3602 0.84675 0.0
H513 H 0.13149 0.34415 0.84823 0.0
H514 H 0.1342 0.34069 0.87367 0.0
H515 H 0.1872 0.34108 0.89554 0.0
H516 H 0.36471 0.34631 0.89403 0.0
H517 H 0.3619 0.3551 0.86862 0.0
C518 C 0.27063 0.35625 0.85271 0.0
C519 C 0.21983 0.35296 0.84574 0.0
C520 C 0.27273 0.35211 0.8673 0.0
C521 C 0.17102 0.34682 0.85346 0.0
C522 C 0.17255 0.34486 0.86797 0.0
C523 C 0.22512 0.3441 0.88959 0.0
C524 C 0.27603 0.34327 0.89653 0.0
C525 C 0.22316 0.34725 0.875 0.0
C526 C 0.32509 0.34658 0.88881 0.0
C527 C 0.32347 0.3518 0.87433 0.0
H528 H 0.73411 0.73067 0.09763 0.0
H529 H 0.55978 0.76443 0.09383 0.0
H530 H 0.55132 0.76877 0.11906 0.0
H531 H 0.59334 0.76409 0.14223 0.0
H532 H 0.76829 0.73538 0.1461 0.0
H533 H 0.77642 0.72731 0.12082 0.0
C534 C 0.69426 0.73896 0.10231 0.0
C535 C 0.64773 0.74717 0.09382 0.0
C536 C 0.68968 0.74197 0.11685 0.0
C537 C 0.59644 0.75825 0.10008 0.0
C538 C 0.59143 0.7605 0.11453 0.0
C539 C 0.63312 0.75548 0.13754 0.0
C540 C 0.68007 0.74999 0.14599 0.0
C541 C 0.63773 0.7524 0.12301 0.0
C542 C 0.73155 0.7398 0.13978 0.0
C543 C 0.73624 0.73526 0.12534 0.0
H544 H 0.75726 0.59216 0.84587 0.0
H545 H 0.7307 0.76822 0.84198 0.0
H546 H 0.72497 0.77704 0.86729 0.0
H547 H 0.72872 0.73483 0.89049 0.0
H548 H 0.76091 0.55948 0.8944 0.0
H549 H 0.76401 0.55042 0.86914 0.0
C550 C 0.74968 0.6323 0.8506 0.0
C551 C 0.74388 0.67938 0.84214 0.0
C552 C 0.74813 0.6373 0.86514 0.0
C553 C 0.73518 0.7314 0.84834 0.0
C554 C 0.73202 0.73648 0.86278 0.0
C555 C 0.73655 0.69466 0.88582 0.0
C556 C 0.74446 0.64796 0.89433 0.0
C557 C 0.73878 0.68976 0.87128 0.0
C558 C 0.75502 0.59625 0.8881 0.0
C559 C 0.75647 0.5909 0.87365 0.0
H560 H 0.41645 0.24634 0.14581 0.0
H561 H 0.24048 0.26195 0.15116 0.0
H562 H 0.22853 0.26933 0.12594 0.0
H563 H 0.26826 0.27054 0.10233 0.0
H564 H 0.44405 0.24975 0.09722 0.0
H565 H 0.45567 0.24481 0.12235 0.0
C566 C 0.37551 0.25181 0.14147 0.0
C567 C 0.32948 0.25407 0.15035 0.0
C568 C 0.36883 0.25466 0.12698 0.0
C569 C 0.2766 0.26015 0.14454 0.0
C570 C 0.26974 0.26433 0.13013 0.0
C571 C 0.30909 0.26487 0.10671 0.0
C572 C 0.35514 0.26063 0.09785 0.0
C573 C 0.31556 0.26142 0.12123 0.0
C574 C 0.40774 0.25287 0.10374 0.0
C575 C 0.41455 0.25027 0.11814 0.0
H576 H 0.74193 0.92061 0.34795 0.0
H577 H 0.73991 0.74205 0.34529 0.0
H578 H 0.7548 0.73537 0.3704 0.0
H579 H 0.76713 0.78046 0.39314 0.0
H580 H 0.76335 0.95902 0.39583 0.0
H581 H 0.75206 0.96552 0.37065 0.0
C582 C 0.74503 0.88023 0.35286 0.0
C583 C 0.74007 0.83192 0.34479 0.0
C584 C 0.75244 0.87672 0.36729 0.0
C585 C 0.7434 0.77987 0.3513 0.0
C586 C 0.75203 0.77601 0.36564 0.0
C587 C 0.7641 0.82075 0.38819 0.0
C588 C 0.76626 0.86915 0.3963 0.0
C589 C 0.75645 0.82418 0.37374 0.0
C590 C 0.76157 0.92112 0.3898 0.0
C591 C 0.75523 0.9249 0.37541 0.0
H592 H 0.09351 0.2576 0.64282 0.0
H593 H 0.27119 0.25948 0.64519 0.0
H594 H 0.2772 0.25021 0.6199 0.0
H595 H 0.23195 0.24183 0.5971 0.0
H596 H 0.05421 0.24571 0.59465 0.0
H597 H 0.04828 0.25285 0.61995 0.0
C598 C 0.13353 0.25565 0.6378 0.0
C599 C 0.18183 0.25878 0.64587 0.0
C600 C 0.13667 0.25168 0.62323 0.0
C601 C 0.2334 0.25717 0.6392 0.0
C602 C 0.23687 0.25184 0.62475 0.0
C603 C 0.19192 0.24424 0.6021 0.0
C604 C 0.14363 0.243 0.59398 0.0
C605 C 0.18878 0.24917 0.61665 0.0
C606 C 0.09208 0.24682 0.60063 0.0
C607 C 0.08861 0.25066 0.61511 0.0
H608 H 0.31366 0.20944 0.27465 0.0
H609 H 0.19526 0.10162 0.25492 0.0
H610 H 0.22646 0.13233 0.23197 0.0
H611 H 0.2898 0.1875 0.21751 0.0
H612 H 0.41415 0.28821 0.23729 0.0
H613 H 0.37849 0.26271 0.26021 0.0
C614 C 0.29446 0.19309 0.26532 0.0
C615 C 0.25205 0.15368 0.26643 0.0
C616 C 0.31392 0.20946 0.25218 0.0
C617 C 0.22801 0.13208 0.25428 0.0
C618 C 0.24583 0.14958 0.24117 0.0
C619 C 0.30877 0.20406 0.22685 0.0
C620 C 0.35426 0.23984 0.22576 0.0
C621 C 0.2891 0.18789 0.23999 0.0
C622 C 0.37908 0.26047 0.23791 0.0
C623 C 0.35868 0.246 0.25101 0.0
H624 H 0.71877 0.87542 0.48493 0.0
H625 H 0.8276 0.77939 0.45887 0.0
H626 H 0.86717 0.73496 0.47941 0.0
H627 H 0.87425 0.72745 0.50488 0.0
H628 H 0.76095 0.81876 0.5308 0.0
H629 H 0.71942 0.86087 0.51022 0.0
C630 C 0.75089 0.84446 0.48377 0.0
C631 C 0.77086 0.83121 0.47047 0.0
C632 C 0.77273 0.81848 0.49559 0.0
C633 C 0.81177 0.79045 0.46903 0.0
C634 C 0.83452 0.76515 0.48077 0.0
C635 C 0.84026 0.75635 0.50598 0.0
C636 C 0.82115 0.77069 0.51929 0.0
C637 C 0.8159 0.77952 0.4941 0.0
C638 C 0.77653 0.80735 0.52064 0.0
C639 C 0.75283 0.83152 0.50889 0.0
H640 H 0.13266 0.22566 0.73467 0.0
H641 H 0.24586 0.32389 0.71035 0.0
H642 H 0.28111 0.36736 0.73154 0.0
H643 H 0.27726 0.37994 0.75698 0.0
H644 H 0.16861 0.27682 0.78135 0.0
H645 H 0.13416 0.23275 0.76019 0.0
C646 C 0.16527 0.25637 0.73403 0.0
C647 C 0.18621 0.27198 0.72097 0.0
C648 C 0.18599 0.28047 0.74627 0.0
C649 C 0.22893 0.31126 0.72028 0.0
C650 C 0.24901 0.33627 0.73239 0.0
C651 C 0.24616 0.3477 0.75763 0.0
C652 C 0.22505 0.33209 0.77068 0.0
C653 C 0.22741 0.32164 0.74543 0.0
C654 C 0.1854 0.2897 0.77143 0.0
C655 C 0.16561 0.26452 0.75933 0.0
H656 H 0.77474 0.63069 0.98386 0.0
H657 H 0.66423 0.72584 0.95807 0.0
H658 H 0.62492 0.76983 0.97875 0.0
H659 H 0.61935 0.77782 0.0042 0.0
H660 H 0.73395 0.68713 0.0299 0.0
H661 H 0.77482 0.64505 0.00919 0.0
C662 C 0.74216 0.66121 0.9828 0.0
C663 C 0.72182 0.67465 0.96954 0.0
C664 C 0.72064 0.68702 0.99468 0.0
C665 C 0.68035 0.71484 0.9682 0.0
C666 C 0.65784 0.73987 0.98001 0.0
C667 C 0.65353 0.7491 0.00524 0.0
C668 C 0.67318 0.73494 0.01852 0.0
C669 C 0.67727 0.72579 0.9933 0.0
C670 C 0.71797 0.69843 0.01977 0.0
C671 C 0.74123 0.67424 0.00795 0.0
H672 H 0.37642 0.22496 0.00845 0.0
H673 H 0.26671 0.32724 0.03269 0.0
H674 H 0.22372 0.3618 0.01129 0.0
H675 H 0.22135 0.36649 0.98568 0.0
H676 H 0.32791 0.26007 0.96162 0.0
H677 H 0.36813 0.22314 0.98301 0.0
C678 C 0.34282 0.25457 0.00903 0.0
C679 C 0.32502 0.27411 0.02206 0.0
C680 C 0.31804 0.27352 -0.00325 0.0
C681 C 0.28101 0.31173 0.02274 0.0
C682 C 0.25665 0.33159 0.01053 0.0
C683 C 0.25316 0.33496 0.98514 0.0
C684 C 0.27228 0.31657 0.97211 0.0
C685 C 0.27544 0.31336 -0.00252 0.0
C686 C 0.31279 0.27511 0.97152 0.0
C687 C 0.33585 0.25407 0.98374 0.0
H688 H 0.77639 0.87455 0.25673 0.0
H689 H 0.66795 0.77107 0.28105 0.0
H690 H 0.62873 0.73189 0.25981 0.0
H691 H 0.62286 0.72983 0.23427 0.0
H692 H 0.73654 0.82759 0.20998 0.0
H693 H 0.77636 0.86614 0.23123 0.0
C694 C 0.74436 0.84322 0.25734 0.0
C695 C 0.72454 0.82618 0.27038 0.0
C696 C 0.7229 0.82002 0.24511 0.0
C697 C 0.68371 0.78497 0.27111 0.0
C698 C 0.66117 0.76265 0.25898 0.0
C699 C 0.65649 0.75943 0.23367 0.0
C700 C 0.67632 0.77648 0.22063 0.0
C701 C 0.68004 0.78034 0.24592 0.0
C702 C 0.72047 0.81406 0.21992 0.0
C703 C 0.74319 0.83618 0.23206 0.0
H704 H 0.2861 0.14089 0.48363 0.0
H705 H 0.18051 0.24284 0.45816 0.0
H706 H 0.1349 0.27865 0.47902 0.0
H707 H 0.12147 0.27641 0.50446 0.0
H708 H 0.23073 0.17834 0.52991 0.0
H709 H 0.27866 0.14552 0.5091 0.0
C710 C 0.25343 0.17136 0.48266 0.0
C711 C 0.23618 0.18872 0.46939 0.0
C712 C 0.22789 0.19208 0.49468 0.0
C713 C 0.1944 0.22873 0.46826 0.0
C714 C 0.16816 0.24901 0.48018 0.0
C715 C 0.15596 0.24804 0.50542 0.0
C716 C 0.17218 0.2292 0.51866 0.0
C717 C 0.18392 0.2302 0.49343 0.0
C718 C 0.21742 0.19323 0.51983 0.0
C719 C 0.24475 0.17441 0.50793 0.0
H720 H 0.87098 0.78744 0.73448 0.0
H721 H 0.77861 0.67764 0.70779 0.0
H722 H 0.73144 0.63848 0.72796 0.0
H723 H 0.71958 0.63256 0.75339 0.0
H724 H 0.80673 0.74781 0.7798 0.0
H725 H 0.8524 0.78785 0.7596 0.0
C726 C 0.8403 0.75514 0.73311 0.0
C727 C 0.82884 0.73491 0.71972 0.0
C728 C 0.81247 0.73367 0.74471 0.0
C729 C 0.78839 0.69372 0.71801 0.0
C730 C 0.76144 0.67121 0.72954 0.0
C731 C 0.74833 0.66664 0.75469 0.0
C732 C 0.76043 0.6865 0.76808 0.0
C733 C 0.77366 0.69039 0.74297 0.0
C734 C 0.79705 0.7313 0.76962 0.0
C735 C 0.82328 0.75428 0.75806 0.0
loop_
_geom_bond_atom_site_label_1
_geom_bond_atom_site_label_2
_geom_bond_distance
_geom_bond_site_symmetry_2
_ccdc_geom_bond_type
Co0 O1 2.216 . S
Co0 O2 2.091 . S
Co0 O4 2.004 . S
Co0 O10 2.021 . S
Co0 O12 2.137 . S
Co0 O13 2.244 . S
O1 Co0 2.216 . S
O1 C8 1.247 . S
O2 Co0 2.091 . S
O2 C8 1.261 . S
C3 O12 1.247 . S
C3 O13 1.272 . S
O4 Co0 2.004 . S
O4 C9 1.259 . S
Co5 O6 2.061 . S
Co5 O11 2.052 . S
Co5 O13 2.135 . S
O6 Co5 2.061 . S
O6 C9 1.235 . S
C7 O10 1.238 . S
C7 O11 1.241 . S
C8 O1 1.247 . S
C8 O2 1.261 . S
C9 O4 1.259 . S
C9 O6 1.235 . S
O10 Co0 2.021 . S
O10 C7 1.238 . S
O11 Co5 2.052 . S
O11 C7 1.241 . S
O12 Co0 2.137 . S
O12 C3 1.247 . S
O13 Co0 2.244 . S
O13 C3 1.272 . S
O13 Co5 2.135 . S
Co14 O15 2.216 . S
Co14 O16 2.091 . S
Co14 O18 2.004 . S
Co14 O24 2.021 . S
Co14 O26 2.137 . S
Co14 O27 2.244 . S
O15 Co14 2.216 . S
O15 C22 1.247 . S
O16 Co14 2.091 . S
O16 C22 1.261 . S
C17 O26 1.247 . S
C17 O27 1.272 . S
O18 Co14 2.004 . S
O18 C23 1.259 . S
Co19 O20 2.061 . S
Co19 O25 2.052 . S
Co19 O27 2.135 . S
O20 Co19 2.061 . S
O20 C23 1.235 . S
C21 O24 1.238 . S
C21 O25 1.241 . S
C22 O15 1.247 . S
C22 O16 1.261 . S
C23 O18 1.259 . S
C23 O20 1.235 . S
O24 Co14 2.021 . S
O24 C21 1.238 . S
O25 Co19 2.052 . S
O25 C21 1.241 . S
O26 Co14 2.137 . S
O26 C17 1.247 . S
O27 Co14 2.244 . S
O27 C17 1.272 . S
O27 Co19 2.135 . S
Co28 O29 2.216 . S
Co28 O30 2.091 . S
Co28 O32 2.004 . S
Co28 O38 2.021 . S
Co28 O40 2.137 . S
Co28 O41 2.244 . S
O29 Co28 2.216 . S
O29 C36 1.247 . S
O30 Co28 2.091 . S
O30 C36 1.261 . S
C31 O40 1.247 . S
C31 O41 1.272 . S
O32 Co28 2.004 . S
O32 C37 1.259 . S
Co33 O34 2.061 . S
Co33 O39 2.052 . S
Co33 O41 2.135 . S
O34 Co33 2.061 . S
O34 C37 1.235 . S
C35 O38 1.238 . S
C35 O39 1.241 . S
C36 O29 1.247 . S
C36 O30 1.261 . S
C37 O32 1.259 . S
C37 O34 1.235 . S
O38 Co28 2.021 . S
O38 C35 1.238 . S
O39 Co33 2.052 . S
O39 C35 1.241 . S
O40 Co28 2.137 . S
O40 C31 1.247 . S
O41 Co28 2.244 . S
O41 C31 1.272 . S
O41 Co33 2.135 . S
Co42 O43 2.216 . S
Co42 O44 2.091 . S
Co42 O46 2.004 . S
Co42 O52 2.021 . S
Co42 O54 2.137 . S
Co42 O55 2.244 . S
O43 Co42 2.216 . S
O43 C50 1.247 . S
O44 Co42 2.091 . S
O44 C50 1.261 . S
C45 O54 1.247 . S
C45 O55 1.272 . S
O46 Co42 2.004 . S
O46 C51 1.259 . S
Co47 O48 2.061 . S
Co47 O53 2.052 . S
Co47 O55 2.135 . S
O48 Co47 2.061 . S
O48 C51 1.235 . S
C49 O52 1.238 . S
C49 O53 1.241 . S
C50 O43 1.247 . S
C50 O44 1.261 . S
C51 O46 1.259 . S
C51 O48 1.235 . S
O52 Co42 2.021 . S
O52 C49 1.238 . S
O53 Co47 2.052 . S
O53 C49 1.241 . S
O54 Co42 2.137 . S
O54 C45 1.247 . S
O55 Co42 2.244 . S
O55 C45 1.272 . S
O55 Co47 2.135 . S
Co56 O57 2.216 . S
Co56 O58 2.091 . S
Co56 O60 2.004 . S
Co56 O66 2.021 . S
Co56 O68 2.137 . S
Co56 O69 2.244 . S
O57 Co56 2.216 . S
O57 C64 1.247 . S
O58 Co56 2.091 . S
O58 C64 1.261 . S
C59 O68 1.247 . S
C59 O69 1.272 . S
O60 Co56 2.004 . S
O60 C65 1.259 . S
Co61 O62 2.061 . S
Co61 O67 2.052 . S
Co61 O69 2.135 . S
O62 Co61 2.061 . S
O62 C65 1.235 . S
C63 O66 1.238 . S
C63 O67 1.241 . S
C64 O57 1.247 . S
C64 O58 1.261 . S
C65 O60 1.259 . S
C65 O62 1.235 . S
O66 Co56 2.021 . S
O66 C63 1.238 . S
O67 Co61 2.052 . S
O67 C63 1.241 . S
O68 Co56 2.137 . S
O68 C59 1.247 . S
O69 Co56 2.244 . S
O69 C59 1.272 . S
O69 Co61 2.135 . S
Co70 O71 2.216 . S
Co70 O72 2.091 . S
Co70 O74 2.004 . S
Co70 O80 2.021 . S
Co70 O82 2.137 . S
Co70 O83 2.244 . S
O71 Co70 2.216 . S
O71 C78 1.247 . S
O72 Co70 2.091 . S
O72 C78 1.261 . S
C73 O82 1.247 . S
C73 O83 1.272 . S
O74 Co70 2.004 . S
O74 C79 1.259 . S
Co75 O76 2.061 . S
Co75 O81 2.052 . S
Co75 O83 2.135 . S
O76 Co75 2.061 . S
O76 C79 1.235 . S
C77 O80 1.238 . S
C77 O81 1.241 . S
C78 O71 1.247 . S
C78 O72 1.261 . S
C79 O74 1.259 . S
C79 O76 1.235 . S
O80 Co70 2.021 . S
O80 C77 1.238 . S
O81 Co75 2.052 . S
O81 C77 1.241 . S
O82 Co70 2.137 . S
O82 C73 1.247 . S
O83 Co70 2.244 . S
O83 C73 1.272 . S
O83 Co75 2.135 . S
Co84 O85 2.216 . S
Co84 O86 2.091 . S
Co84 O88 2.004 . S
Co84 O94 2.021 . S
Co84 O96 2.137 . S
Co84 O97 2.244 . S
O85 Co84 2.216 . S
O85 C92 1.247 . S
O86 Co84 2.091 . S
O86 C92 1.261 . S
C87 O96 1.247 . S
C87 O97 1.272 . S
O88 Co84 2.004 . S
O88 C93 1.259 . S
Co89 O90 2.061 . S
Co89 O95 2.052 . S
Co89 O97 2.135 . S
O90 Co89 2.061 . S
O90 C93 1.235 . S
C91 O94 1.238 . S
C91 O95 1.241 . S
C92 O85 1.247 . S
C92 O86 1.261 . S
C93 O88 1.259 . S
C93 O90 1.235 . S
O94 Co84 2.021 . S
O94 C91 1.238 . S
O95 Co89 2.052 . S
O95 C91 1.241 . S
O96 Co84 2.137 . S
O96 C87 1.247 . S
O97 Co84 2.244 . S
O97 C87 1.272 . S
O97 Co89 2.135 . S
Co98 O99 2.216 . S
Co98 O100 2.091 . S
Co98 O102 2.004 . S
Co98 O108 2.021 . S
Co98 O110 2.137 . S
Co98 O111 2.244 . S
O99 Co98 2.216 . S
O99 C106 1.247 . S
O100 Co98 2.091 . S
O100 C106 1.261 . S
C101 O110 1.247 . S
C101 O111 1.272 . S
O102 Co98 2.004 . S
O102 C107 1.259 . S
Co103 O104 2.061 . S
Co103 O109 2.052 . S
Co103 O111 2.135 . S
O104 Co103 2.061 . S
O104 C107 1.235 . S
C105 O108 1.238 . S
C105 O109 1.241 . S
C106 O99 1.247 . S
C106 O100 1.261 . S
C107 O102 1.259 . S
C107 O104 1.235 . S
O108 Co98 2.021 . S
O108 C105 1.238 . S
O109 Co103 2.052 . S
O109 C105 1.241 . S
O110 Co98 2.137 . S
O110 C101 1.247 . S
O111 Co98 2.244 . S
O111 C101 1.272 . S
O111 Co103 2.135 . S
Co112 O113 2.216 . S
Co112 O114 2.091 . S
Co112 O116 2.004 . S
Co112 O122 2.021 . S
Co112 O124 2.137 . S
Co112 O125 2.244 . S
O113 Co112 2.216 . S
O113 C120 1.247 . S
O114 Co112 2.091 . S
O114 C120 1.261 . S
C115 O124 1.247 . S
C115 O125 1.272 . S
O116 Co112 2.004 . S
O116 C121 1.259 . S
Co117 O118 2.061 . S
Co117 O123 2.052 . S
Co117 O125 2.135 . S
O118 Co117 2.061 . S
O118 C121 1.235 . S
C119 O122 1.238 . S
C119 O123 1.241 . S
C120 O113 1.247 . S
C120 O114 1.261 . S
C121 O116 1.259 . S
C121 O118 1.235 . S
O122 Co112 2.021 . S
O122 C119 1.238 . S
O123 Co117 2.052 . S
O123 C119 1.241 . S
O124 Co112 2.137 . S
O124 C115 1.247 . S
O125 Co112 2.244 . S
O125 C115 1.272 . S
O125 Co117 2.135 . S
Co126 O127 2.216 . S
Co126 O128 2.091 . S
Co126 O130 2.004 . S
Co126 O136 2.021 . S
Co126 O138 2.137 . S
Co126 O139 2.244 . S
O127 Co126 2.216 . S
O127 C134 1.247 . S
O128 Co126 2.091 . S
O128 C134 1.261 . S
C129 O138 1.247 . S
C129 O139 1.272 . S
O130 Co126 2.004 . S
O130 C135 1.259 . S
Co131 O132 2.061 . S
Co131 O137 2.052 . S
Co131 O139 2.135 . S
O132 Co131 2.061 . S
O132 C135 1.235 . S
C133 O136 1.238 . S
C133 O137 1.241 . S
C134 O127 1.247 . S
C134 O128 1.261 . S
C135 O130 1.259 . S
C135 O132 1.235 . S
O136 Co126 2.021 . S
O136 C133 1.238 . S
O137 Co131 2.052 . S
O137 C133 1.241 . S
O138 Co126 2.137 . S
O138 C129 1.247 . S
O139 Co126 2.244 . S
O139 C129 1.272 . S
O139 Co131 2.135 . S
Co140 O141 2.216 . S
Co140 O142 2.091 . S
Co140 O144 2.004 . S
Co140 O150 2.021 . S
Co140 O152 2.137 . S
Co140 O153 2.244 . S
O141 Co140 2.216 . S
O141 C148 1.247 . S
O142 Co140 2.091 . S
O142 C148 1.261 . S
C143 O152 1.247 . S
C143 O153 1.272 . S
O144 Co140 2.004 . S
O144 C149 1.259 . S
Co145 O146 2.061 . S
Co145 O151 2.052 . S
Co145 O153 2.135 . S
O146 Co145 2.061 . S
O146 C149 1.235 . S
C147 O150 1.238 . S
C147 O151 1.241 . S
C148 O141 1.247 . S
C148 O142 1.261 . S
C149 O144 1.259 . S
C149 O146 1.235 . S
O150 Co140 2.021 . S
O150 C147 1.238 . S
O151 Co145 2.052 . S
O151 C147 1.241 . S
O152 Co140 2.137 . S
O152 C143 1.247 . S
O153 Co140 2.244 . S
O153 C143 1.272 . S
O153 Co145 2.135 . S
Co154 O155 2.216 . S
Co154 O156 2.091 . S
Co154 O158 2.004 . S
Co154 O164 2.021 . S
Co154 O166 2.137 . S
Co154 O167 2.244 . S
O155 Co154 2.216 . S
O155 C162 1.247 . S
O156 Co154 2.091 . S
O156 C162 1.261 . S
C157 O166 1.247 . S
C157 O167 1.272 . S
O158 Co154 2.004 . S
O158 C163 1.259 . S
Co159 O160 2.061 . S
Co159 O165 2.052 . S
Co159 O167 2.135 . S
O160 Co159 2.061 . S
O160 C163 1.235 . S
C161 O164 1.238 . S
C161 O165 1.241 . S
C162 O155 1.247 . S
C162 O156 1.261 . S
C163 O158 1.259 . S
C163 O160 1.235 . S
O164 Co154 2.021 . S
O164 C161 1.238 . S
O165 Co159 2.052 . S
O165 C161 1.241 . S
O166 Co154 2.137 . S
O166 C157 1.247 . S
O167 Co154 2.244 . S
O167 C157 1.272 . S
O167 Co159 2.135 . S
Co168 O169 2.216 . S
Co168 O170 2.091 . S
Co168 O172 2.004 . S
Co168 O178 2.021 . S
Co168 O180 2.137 . S
Co168 O181 2.244 . S
O169 Co168 2.216 . S
O169 C176 1.247 . S
O170 Co168 2.091 . S
O170 C176 1.261 . S
C171 O180 1.247 . S
C171 O181 1.272 . S
O172 Co168 2.004 . S
O172 C177 1.259 . S
Co173 O174 2.061 . S
Co173 O179 2.052 . S
Co173 O181 2.135 . S
O174 Co173 2.061 . S
O174 C177 1.235 . S
C175 O178 1.238 . S
C175 O179 1.241 . S
C176 O169 1.247 . S
C176 O170 1.261 . S
C177 O172 1.259 . S
C177 O174 1.235 . S
O178 Co168 2.021 . S
O178 C175 1.238 . S
O179 Co173 2.052 . S
O179 C175 1.241 . S
O180 Co168 2.137 . S
O180 C171 1.247 . S
O181 Co168 2.244 . S
O181 C171 1.272 . S
O181 Co173 2.135 . S
Co182 O183 2.216 . S
Co182 O184 2.091 . S
Co182 O186 2.004 . S
Co182 O192 2.021 . S
Co182 O194 2.137 . S
Co182 O195 2.244 . S
O183 Co182 2.216 . S
O183 C190 1.247 . S
O184 Co182 2.091 . S
O184 C190 1.261 . S
C185 O194 1.247 . S
C185 O195 1.272 . S
O186 Co182 2.004 . S
O186 C191 1.259 . S
Co187 O188 2.061 . S
Co187 O193 2.052 . S
Co187 O195 2.135 . S
O188 Co187 2.061 . S
O188 C191 1.235 . S
C189 O192 1.238 . S
C189 O193 1.241 . S
C190 O183 1.247 . S
C190 O184 1.261 . S
C191 O186 1.259 . S
C191 O188 1.235 . S
O192 Co182 2.021 . S
O192 C189 1.238 . S
O193 Co187 2.052 . S
O193 C189 1.241 . S
O194 Co182 2.137 . S
O194 C185 1.247 . S
O195 Co182 2.244 . S
O195 C185 1.272 . S
O195 Co187 2.135 . S
Co196 O197 2.216 . S
Co196 O198 2.091 . S
Co196 O200 2.004 . S
Co196 O206 2.021 . S
Co196 O208 2.137 . S
Co196 O209 2.244 . S
O197 Co196 2.216 . S
O197 C204 1.247 . S
O198 Co196 2.091 . S
O198 C204 1.261 . S
C199 O208 1.247 . S
C199 O209 1.272 . S
O200 Co196 2.004 . S
O200 C205 1.259 . S
Co201 O202 2.061 . S
Co201 O207 2.052 . S
Co201 O209 2.135 . S
O202 Co201 2.061 . S
O202 C205 1.235 . S
C203 O206 1.238 . S
C203 O207 1.241 . S
C204 O197 1.247 . S
C204 O198 1.261 . S
C205 O200 1.259 . S
C205 O202 1.235 . S
O206 Co196 2.021 . S
O206 C203 1.238 . S
O207 Co201 2.052 . S
O207 C203 1.241 . S
O208 Co196 2.137 . S
O208 C199 1.247 . S
O209 Co196 2.244 . S
O209 C199 1.272 . S
O209 Co201 2.135 . S
Co210 O211 2.216 . S
Co210 O212 2.091 . S
Co210 O214 2.004 . S
Co210 O220 2.021 . S
Co210 O222 2.137 . S
Co210 O223 2.244 . S
O211 Co210 2.216 . S
O211 C218 1.247 . S
O212 Co210 2.091 . S
O212 C218 1.261 . S
C213 O222 1.247 . S
C213 O223 1.272 . S
O214 Co210 2.004 . S
O214 C219 1.259 . S
Co215 O216 2.061 . S
Co215 O221 2.052 . S
Co215 O223 2.135 . S
O216 Co215 2.061 . S
O216 C219 1.235 . S
C217 O220 1.238 . S
C217 O221 1.241 . S
C218 O211 1.247 . S
C218 O212 1.261 . S
C219 O214 1.259 . S
C219 O216 1.235 . S
O220 Co210 2.021 . S
O220 C217 1.238 . S
O221 Co215 2.052 . S
O221 C217 1.241 . S
O222 Co210 2.137 . S
O222 C213 1.247 . S
O223 Co210 2.244 . S
O223 C213 1.272 . S
O223 Co215 2.135 . S
H224 C230 0.930 . S
H225 C233 0.930 . S
H226 C234 0.930 . S
H227 C235 0.930 . S
H228 C238 0.930 . S
H229 C239 0.930 . S
C230 H224 0.930 . S
C230 C231 1.355 . S
C230 C232 1.415 1_655 S
C231 C230 1.355 . S
C231 C233 1.419 1_565 S
C232 C230 1.415 1_455 S
C232 C237 1.425 1_465 S
C232 C239 1.409 . S
C233 H225 0.930 . S
C233 C231 1.419 1_545 S
C233 C234 1.362 . S
C234 H226 0.930 . S
C234 C233 1.362 . S
C234 C237 1.409 . S
C235 H227 0.930 . S
C235 C236 1.355 . S
C235 C237 1.415 1_455 S
C236 C235 1.355 . S
C236 C238 1.419 1_545 S
C237 C232 1.425 1_645 S
C237 C234 1.409 . S
C237 C235 1.415 1_655 S
C238 H228 0.930 . S
C238 C236 1.419 1_565 S
C238 C239 1.362 . S
C239 H229 0.930 . S
C239 C232 1.409 . S
C239 C238 1.362 . S
H240 C246 0.930 . S
H241 C249 0.930 1_455 S
H242 C250 0.930 . S
H243 C251 0.930 . S
H244 C254 0.930 1_655 S
H245 C255 0.930 . S
C246 H240 0.930 . S
C246 C247 1.355 . S
C246 C248 1.415 . S
C247 C246 1.355 . S
C247 C249 1.419 . S
C248 C246 1.415 . S
C248 C253 1.425 1_655 S
C248 C255 1.409 . S
C249 H241 0.930 1_655 S
C249 C247 1.419 . S
C249 C250 1.362 1_655 S
C250 H242 0.930 . S
C250 C249 1.362 1_455 S
C250 C253 1.409 . S
C251 H243 0.930 . S
C251 C252 1.355 . S
C251 C253 1.415 . S
C252 C251 1.355 . S
C252 C254 1.419 . S
C253 C248 1.425 1_455 S
C253 C250 1.409 . S
C253 C251 1.415 . S
C254 H244 0.930 1_455 S
C254 C252 1.419 . S
C254 C255 1.362 1_455 S
C255 H245 0.930 . S
C255 C248 1.409 . S
C255 C254 1.362 1_655 S
H256 C262 0.930 . S
H257 C265 0.930 . S
H258 C266 0.930 . S
H259 C267 0.930 . S
H260 C270 0.930 . S
H261 C271 0.930 . S
C262 H256 0.930 . S
C262 C263 1.355 . S
C262 C264 1.415 . S
C263 C262 1.355 . S
C263 C265 1.419 . S
C264 C262 1.415 . S
C264 C269 1.425 . S
C264 C271 1.409 . S
C265 H257 0.930 . S
C265 C263 1.419 . S
C265 C266 1.362 . S
C266 H258 0.930 . S
C266 C265 1.362 . S
C266 C269 1.409 . S
C267 H259 0.930 . S
C267 C268 1.355 . S
C267 C269 1.415 . S
C268 C267 1.355 . S
C268 C270 1.419 . S
C269 C264 1.425 . S
C269 C266 1.409 . S
C269 C267 1.415 . S
C270 H260 0.930 . S
C270 C268 1.419 . S
C270 C271 1.362 . S
C271 H261 0.930 . S
C271 C264 1.409 . S
C271 C270 1.362 . S
H272 C278 0.930 . S
H273 C281 0.930 . S
H274 C282 0.930 . S
H275 C283 0.930 . S
H276 C286 0.930 . S
H277 C287 0.930 . S
C278 H272 0.930 . S
C278 C279 1.355 . S
C278 C280 1.415 1_545 S
C279 C278 1.355 . S
C279 C281 1.419 . S
C280 C278 1.415 1_565 S
C280 C285 1.425 1_565 S
C280 C287 1.409 . S
C281 H273 0.930 . S
C281 C279 1.419 . S
C281 C282 1.362 . S
C282 H274 0.930 . S
C282 C281 1.362 . S
C282 C285 1.409 . S
C283 H275 0.930 . S
C283 C284 1.355 . S
C283 C285 1.415 1_565 S
C284 C283 1.355 . S
C284 C286 1.419 . S
C285 C280 1.425 1_545 S
C285 C282 1.409 . S
C285 C283 1.415 1_545 S
C286 H276 0.930 . S
C286 C284 1.419 . S
C286 C287 1.362 . S
C287 H277 0.930 . S
C287 C280 1.409 . S
C287 C286 1.362 . S
H288 C294 0.930 . S
H289 C297 0.930 . S
H290 C298 0.930 1_655 S
H291 C299 0.930 . S
H292 C302 0.930 . S
H293 C303 0.930 1_455 S
C294 H288 0.930 . S
C294 C295 1.355 . S
C294 C296 1.415 . S
C295 C294 1.355 . S
C295 C297 1.419 . S
C296 C294 1.415 . S
C296 C301 1.425 1_455 S
C296 C303 1.409 1_455 S
C297 H289 0.930 . S
C297 C295 1.419 . S
C297 C298 1.362 . S
C298 H290 0.930 1_455 S
C298 C297 1.362 . S
C298 C301 1.409 1_455 S
C299 H291 0.930 . S
C299 C300 1.355 . S
C299 C301 1.415 . S
C300 C299 1.355 . S
C300 C302 1.419 . S
C301 C296 1.425 1_655 S
C301 C298 1.409 1_655 S
C301 C299 1.415 . S
C302 H292 0.930 . S
C302 C300 1.419 . S
C302 C303 1.362 . S
C303 H293 0.930 1_655 S
C303 C296 1.409 1_655 S
C303 C302 1.362 . S
H304 C310 0.930 . S
H305 C313 0.930 . S
H306 C314 0.930 . S
H307 C315 0.930 . S
H308 C318 0.930 . S
H309 C319 0.930 . S
C310 H304 0.930 . S
C310 C311 1.355 . S
C310 C312 1.415 . S
C311 C310 1.355 . S
C311 C313 1.419 . S
C312 C310 1.415 . S
C312 C317 1.425 . S
C312 C319 1.409 . S
C313 H305 0.930 . S
C313 C311 1.419 . S
C313 C314 1.362 . S
C314 H306 0.930 . S
C314 C313 1.362 . S
C314 C317 1.409 . S
C315 H307 0.930 . S
C315 C316 1.355 . S
C315 C317 1.415 . S
C316 C315 1.355 . S
C316 C318 1.419 . S
C317 C312 1.425 . S
C317 C314 1.409 . S
C317 C315 1.415 . S
C318 H308 0.930 . S
C318 C316 1.419 . S
C318 C319 1.362 . S
C319 H309 0.930 . S
C319 C312 1.409 . S
C319 C318 1.362 . S
H320 C326 0.930 . S
H321 C329 0.930 1_565 S
H322 C330 0.930 . S
H323 C331 0.930 . S
H324 C334 0.930 1_545 S
H325 C335 0.930 . S
C326 H320 0.930 . S
C326 C327 1.355 . S
C326 C328 1.415 . S
C327 C326 1.355 . S
C327 C329 1.419 . S
C328 C326 1.415 . S
C328 C333 1.425 1_545 S
C328 C335 1.409 . S
C329 H321 0.930 1_545 S
C329 C327 1.419 . S
C329 C330 1.362 1_545 S
C330 H322 0.930 . S
C330 C329 1.362 1_565 S
C330 C333 1.409 . S
C331 H323 0.930 . S
C331 C332 1.355 . S
C331 C333 1.415 . S
C332 C331 1.355 . S
C332 C334 1.419 . S
C333 C328 1.425 1_565 S
C333 C330 1.409 . S
C333 C331 1.415 . S
C334 H324 0.930 1_565 S
C334 C332 1.419 . S
C334 C335 1.362 1_565 S
C335 H325 0.930 . S
C335 C328 1.409 . S
C335 C334 1.362 1_545 S
H336 C342 0.930 . S
H337 C345 0.930 . S
H338 C346 0.930 . S
H339 C347 0.930 . S
H340 C350 0.930 . S
H341 C351 0.930 . S
C342 H336 0.930 . S
C342 C343 1.355 . S
C342 C344 1.412 1_545 S
C343 C342 1.355 . S
C343 C345 1.419 . S
C344 C342 1.412 1_565 S
C344 C349 1.425 1_465 S
C344 C351 1.411 . S
C345 H337 0.930 . S
C345 C343 1.419 . S
C345 C346 1.362 1_455 S
C346 H338 0.930 . S
C346 C345 1.362 1_655 S
C346 C349 1.411 . S
C347 H339 0.930 . S
C347 C348 1.355 . S
C347 C349 1.413 1_565 S
C348 C347 1.355 . S
C348 C350 1.419 . S
C349 C344 1.425 1_645 S
C349 C346 1.411 . S
C349 C347 1.413 1_545 S
C350 H340 0.930 . S
C350 C348 1.419 . S
C350 C351 1.362 1_655 S
C351 H341 0.930 . S
C351 C344 1.411 . S
C351 C350 1.362 1_455 S
H352 C358 0.930 . S
H353 C361 0.930 . S
H354 C362 0.930 . S
H355 C363 0.930 . S
H356 C366 0.930 . S
H357 C367 0.930 . S
C358 H352 0.930 . S
C358 C359 1.355 . S
C358 C360 1.415 . S
C359 C358 1.355 . S
C359 C361 1.419 . S
C360 C358 1.415 . S
C360 C365 1.425 1_565 S
C360 C367 1.409 . S
C361 H353 0.930 . S
C361 C359 1.419 . S
C361 C362 1.362 1_565 S
C362 H354 0.930 . S
C362 C361 1.362 1_545 S
C362 C365 1.409 . S
C363 H355 0.930 . S
C363 C364 1.355 . S
C363 C365 1.415 . S
C364 C363 1.355 . S
C364 C366 1.419 . S
C365 C360 1.425 1_545 S
C365 C362 1.409 . S
C365 C363 1.415 . S
C366 H356 0.930 . S
C366 C364 1.419 . S
C366 C367 1.362 1_545 S
C367 H357 0.930 . S
C367 C360 1.409 . S
C367 C366 1.362 1_565 S
H368 C374 0.930 1_455 S
H369 C377 0.930 . S
H370 C378 0.930 1_545 S
H371 C379 0.930 1_655 S
H372 C382 0.930 . S
H373 C383 0.930 1_565 S
C374 H368 0.930 1_655 S
C374 C375 1.355 . S
C374 C376 1.415 1_655 S
C375 C374 1.355 . S
C375 C377 1.419 . S
C376 C374 1.415 1_455 S
C376 C381 1.425 1_465 S
C376 C383 1.409 1_565 S
C377 H369 0.930 . S
C377 C375 1.419 . S
C377 C378 1.362 . S
C378 H370 0.930 1_565 S
C378 C377 1.362 . S
C378 C381 1.409 1_565 S
C379 H371 0.930 1_455 S
C379 C380 1.355 . S
C379 C381 1.415 1_455 S
C380 C379 1.355 . S
C380 C382 1.419 . S
C381 C376 1.425 1_645 S
C381 C378 1.409 1_545 S
C381 C379 1.415 1_655 S
C382 H372 0.930 . S
C382 C380 1.419 . S
C382 C383 1.362 . S
C383 H373 0.930 1_545 S
C383 C376 1.409 1_545 S
C383 C382 1.362 . S
H384 C390 0.930 . S
H385 C393 0.930 . S
H386 C394 0.930 . S
H387 C395 0.930 . S
H388 C398 0.930 . S
H389 C399 0.930 . S
C390 H384 0.930 . S
C390 C391 1.355 . S
C390 C392 1.415 1_455 S
C391 C390 1.355 . S
C391 C393 1.419 . S
C392 C390 1.415 1_655 S
C392 C397 1.425 1_655 S
C392 C399 1.409 . S
C393 H385 0.930 . S
C393 C391 1.419 . S
C393 C394 1.362 . S
C394 H386 0.930 . S
C394 C393 1.362 . S
C394 C397 1.409 . S
C395 H387 0.930 . S
C395 C396 1.355 . S
C395 C397 1.415 1_655 S
C396 C395 1.355 . S
C396 C398 1.419 . S
C397 C392 1.425 1_455 S
C397 C394 1.409 . S
C397 C395 1.415 1_455 S
C398 H388 0.930 . S
C398 C396 1.419 . S
C398 C399 1.362 . S
C399 H389 0.930 . S
C399 C392 1.409 . S
C399 C398 1.362 . S
H400 C406 0.930 . S
H401 C409 0.930 . S
H402 C410 0.930 . S
H403 C411 0.930 . S
H404 C414 0.930 . S
H405 C415 0.930 . S
C406 H400 0.930 . S
C406 C407 1.355 . S
C406 C408 1.415 . S
C407 C406 1.355 . S
C407 C409 1.419 . S
C408 C406 1.415 . S
C408 C413 1.425 . S
C408 C415 1.409 . S
C409 H401 0.930 . S
C409 C407 1.419 . S
C409 C410 1.362 . S
C410 H402 0.930 . S
C410 C409 1.362 . S
C410 C413 1.409 . S
C411 H403 0.930 . S
C411 C412 1.355 . S
C411 C413 1.415 . S
C412 C411 1.355 . S
C412 C414 1.419 . S
C413 C408 1.425 . S
C413 C410 1.409 . S
C413 C411 1.415 . S
C414 H404 0.930 . S
C414 C412 1.419 . S
C414 C415 1.362 . S
C415 H405 0.930 . S
C415 C408 1.409 . S
C415 C414 1.362 . S
H416 C422 0.930 . S
H417 C425 0.930 . S
H418 C426 0.930 . S
H419 C427 0.930 . S
H420 C430 0.930 . S
H421 C431 0.930 . S
C422 H416 0.930 . S
C422 C423 1.355 . S
C422 C424 1.415 . S
C423 C422 1.355 . S
C423 C425 1.419 . S
C424 C422 1.415 . S
C424 C429 1.425 . S
C424 C431 1.409 . S
C425 H417 0.930 . S
C425 C423 1.419 . S
C425 C426 1.362 . S
C426 H418 0.930 . S
C426 C425 1.362 . S
C426 C429 1.409 . S
C427 H419 0.930 . S
C427 C428 1.355 . S
C427 C429 1.415 . S
C428 C427 1.355 . S
C428 C430 1.419 . S
C429 C424 1.425 . S
C429 C426 1.409 . S
C429 C427 1.415 . S
C430 H420 0.930 . S
C430 C428 1.419 . S
C430 C431 1.362 . S
C431 H421 0.930 . S
C431 C424 1.409 . S
C431 C430 1.362 . S
H432 C438 0.930 . S
H433 C441 0.930 . S
H434 C442 0.930 . S
H435 C443 0.930 . S
H436 C446 0.930 . S
H437 C447 0.930 . S
C438 H432 0.930 . S
C438 C439 1.355 . S
C438 C440 1.415 . S
C439 C438 1.355 . S
C439 C441 1.419 . S
C440 C438 1.415 . S
C440 C445 1.425 1_565 S
C440 C447 1.409 . S
C441 H433 0.930 . S
C441 C439 1.419 . S
C441 C442 1.362 1_565 S
C442 H434 0.930 . S
C442 C441 1.362 1_545 S
C442 C445 1.409 . S
C443 H435 0.930 . S
C443 C444 1.355 . S
C443 C445 1.415 . S
C444 C443 1.355 . S
C444 C446 1.419 . S
C445 C440 1.425 1_545 S
C445 C442 1.409 . S
C445 C443 1.415 . S
C446 H436 0.930 . S
C446 C444 1.419 . S
C446 C447 1.362 1_545 S
C447 H437 0.930 . S
C447 C440 1.409 . S
C447 C446 1.362 1_565 S
H448 C454 0.930 . S
H449 C457 0.930 . S
H450 C458 0.930 . S
H451 C459 0.930 . S
H452 C462 0.930 . S
H453 C463 0.930 . S
C454 H448 0.930 . S
C454 C455 1.355 . S
C454 C456 1.408 1_655 S
C455 C454 1.355 . S
C455 C457 1.419 . S
C456 C454 1.408 1_455 S
C456 C461 1.425 1_465 S
C456 C463 1.416 . S
C457 H449 0.930 . S
C457 C455 1.419 . S
C457 C458 1.362 1_565 S
C458 H450 0.930 . S
C458 C457 1.362 1_545 S
C458 C461 1.417 . S
C459 H451 0.930 . S
C459 C460 1.355 . S
C459 C461 1.407 1_455 S
C460 C459 1.355 . S
C460 C462 1.419 . S
C461 C456 1.425 1_645 S
C461 C458 1.417 . S
C461 C459 1.407 1_655 S
C462 H452 0.930 . S
C462 C460 1.419 . S
C462 C463 1.362 1_545 S
C463 H453 0.930 . S
C463 C456 1.416 . S
C463 C462 1.362 1_565 S
H464 C470 0.930 . S
H465 C473 0.930 . S
H466 C474 0.930 . S
H467 C475 0.930 . S
H468 C478 0.930 . S
H469 C479 0.930 . S
C470 H464 0.930 . S
C470 C471 1.355 . S
C470 C472 1.415 . S
C471 C470 1.355 . S
C471 C473 1.418 1_455 S
C472 C470 1.415 . S
C472 C477 1.425 1_455 S
C472 C479 1.409 . S
C473 H465 0.930 . S
C473 C471 1.418 1_655 S
C473 C474 1.363 . S
C474 H466 0.930 . S
C474 C473 1.363 . S
C474 C477 1.409 . S
C475 H467 0.930 . S
C475 C476 1.355 . S
C475 C477 1.415 . S
C476 C475 1.355 . S
C476 C478 1.418 1_655 S
C477 C472 1.425 1_655 S
C477 C474 1.409 . S
C477 C475 1.415 . S
C478 H468 0.930 . S
C478 C476 1.418 1_455 S
C478 C479 1.363 . S
C479 H469 0.930 . S
C479 C472 1.409 . S
C479 C478 1.363 . S
H480 C486 0.930 . S
H481 C489 0.930 . S
H482 C490 0.930 . S
H483 C491 0.930 . S
H484 C494 0.930 . S
H485 C495 0.930 . S
C486 H480 0.930 . S
C486 C487 1.355 . S
C486 C488 1.415 . S
C487 C486 1.355 . S
C487 C489 1.419 . S
C488 C486 1.415 . S
C488 C493 1.425 . S
C488 C495 1.409 . S
C489 H481 0.930 . S
C489 C487 1.419 . S
C489 C490 1.362 . S
C490 H482 0.930 . S
C490 C489 1.362 . S
C490 C493 1.409 . S
C491 H483 0.930 . S
C491 C492 1.355 . S
C491 C493 1.415 . S
C492 C491 1.355 . S
C492 C494 1.419 . S
C493 C488 1.425 . S
C493 C490 1.409 . S
C493 C491 1.415 . S
C494 H484 0.930 . S
C494 C492 1.419 . S
C494 C495 1.362 . S
C495 H485 0.930 . S
C495 C488 1.409 . S
C495 C494 1.362 . S
H496 C502 0.930 . S
H497 C505 0.930 . S
H498 C506 0.930 . S
H499 C507 0.930 . S
H500 C510 0.930 . S
H501 C511 0.930 . S
C502 H496 0.930 . S
C502 C503 1.355 . S
C502 C504 1.415 . S
C503 C502 1.355 . S
C503 C505 1.419 . S
C504 C502 1.415 . S
C504 C509 1.425 . S
C504 C511 1.409 . S
C505 H497 0.930 . S
C505 C503 1.419 . S
C505 C506 1.362 . S
C506 H498 0.930 . S
C506 C505 1.362 . S
C506 C509 1.409 . S
C507 H499 0.930 . S
C507 C508 1.355 . S
C507 C509 1.415 . S
C508 C507 1.355 . S
C508 C510 1.419 . S
C509 C504 1.425 . S
C509 C506 1.409 . S
C509 C507 1.415 . S
C510 H500 0.930 . S
C510 C508 1.419 . S
C510 C511 1.362 . S
C511 H501 0.930 . S
C511 C504 1.409 . S
C511 C510 1.362 . S
H512 C518 0.930 . S
H513 C521 0.930 . S
H514 C522 0.930 . S
H515 C523 0.930 . S
H516 C526 0.930 . S
H517 C527 0.930 . S
C518 H512 0.930 . S
C518 C519 1.355 . S
C518 C520 1.415 . S
C519 C518 1.355 . S
C519 C521 1.419 . S
C520 C518 1.415 . S
C520 C525 1.425 . S
C520 C527 1.409 . S
C521 H513 0.930 . S
C521 C519 1.419 . S
C521 C522 1.362 . S
C522 H514 0.930 . S
C522 C521 1.362 . S
C522 C525 1.409 . S
C523 H515 0.930 . S
C523 C524 1.355 . S
C523 C525 1.415 . S
C524 C523 1.355 . S
C524 C526 1.419 . S
C525 C520 1.425 . S
C525 C522 1.409 . S
C525 C523 1.415 . S
C526 H516 0.930 . S
C526 C524 1.419 . S
C526 C527 1.362 . S
C527 H517 0.930 . S
C527 C520 1.409 . S
C527 C526 1.362 . S
H528 C534 0.930 . S
H529 C537 0.930 . S
H530 C538 0.930 . S
H531 C539 0.930 . S
H532 C542 0.930 . S
H533 C543 0.930 . S
C534 H528 0.930 . S
C534 C535 1.355 . S
C534 C536 1.415 . S
C535 C534 1.355 . S
C535 C537 1.419 . S
C536 C534 1.415 . S
C536 C541 1.425 . S
C536 C543 1.409 . S
C537 H529 0.930 . S
C537 C535 1.419 . S
C537 C538 1.362 . S
C538 H530 0.930 . S
C538 C537 1.362 . S
C538 C541 1.409 . S
C539 H531 0.930 . S
C539 C540 1.355 . S
C539 C541 1.415 . S
C540 C539 1.355 . S
C540 C542 1.419 . S
C541 C536 1.425 . S
C541 C538 1.409 . S
C541 C539 1.415 . S
C542 H532 0.930 . S
C542 C540 1.419 . S
C542 C543 1.362 . S
C543 H533 0.930 . S
C543 C536 1.409 . S
C543 C542 1.362 . S
H544 C550 0.930 . S
H545 C553 0.930 . S
H546 C554 0.930 . S
H547 C555 0.930 . S
H548 C558 0.930 . S
H549 C559 0.930 . S
C550 H544 0.930 . S
C550 C551 1.355 . S
C550 C552 1.415 . S
C551 C550 1.355 . S
C551 C553 1.419 . S
C552 C550 1.415 . S
C552 C557 1.425 . S
C552 C559 1.409 . S
C553 H545 0.930 . S
C553 C551 1.419 . S
C553 C554 1.362 . S
C554 H546 0.930 . S
C554 C553 1.362 . S
C554 C557 1.409 . S
C555 H547 0.930 . S
C555 C556 1.355 . S
C555 C557 1.415 . S
C556 C555 1.355 . S
C556 C558 1.419 . S
C557 C552 1.425 . S
C557 C554 1.409 . S
C557 C555 1.415 . S
C558 H548 0.930 . S
C558 C556 1.419 . S
C558 C559 1.362 . S
C559 H549 0.930 . S
C559 C552 1.409 . S
C559 C558 1.362 . S
H560 C566 0.930 . S
H561 C569 0.930 . S
H562 C570 0.930 . S
H563 C571 0.930 . S
H564 C574 0.930 . S
H565 C575 0.930 . S
C566 H560 0.930 . S
C566 C567 1.355 . S
C566 C568 1.415 . S
C567 C566 1.355 . S
C567 C569 1.419 . S
C568 C566 1.415 . S
C568 C573 1.425 . S
C568 C575 1.409 . S
C569 H561 0.930 . S
C569 C567 1.419 . S
C569 C570 1.362 . S
C570 H562 0.930 . S
C570 C569 1.362 . S
C570 C573 1.409 . S
C571 H563 0.930 . S
C571 C572 1.355 . S
C571 C573 1.415 . S
C572 C571 1.355 . S
C572 C574 1.419 . S
C573 C568 1.425 . S
C573 C570 1.409 . S
C573 C571 1.415 . S
C574 H564 0.930 . S
C574 C572 1.419 . S
C574 C575 1.362 . S
C575 H565 0.930 . S
C575 C568 1.409 . S
C575 C574 1.362 . S
H576 C582 0.930 . S
H577 C585 0.930 . S
H578 C586 0.930 . S
H579 C587 0.930 . S
H580 C590 0.930 . S
H581 C591 0.930 . S
C582 H576 0.930 . S
C582 C583 1.355 . S
C582 C584 1.415 . S
C583 C582 1.355 . S
C583 C585 1.419 . S
C584 C582 1.415 . S
C584 C589 1.425 . S
C584 C591 1.409 . S
C585 H577 0.930 . S
C585 C583 1.419 . S
C585 C586 1.362 . S
C586 H578 0.930 . S
C586 C585 1.362 . S
C586 C589 1.409 . S
C587 H579 0.930 . S
C587 C588 1.355 . S
C587 C589 1.415 . S
C588 C587 1.355 . S
C588 C590 1.419 . S
C589 C584 1.425 . S
C589 C586 1.409 . S
C589 C587 1.415 . S
C590 H580 0.930 . S
C590 C588 1.419 . S
C590 C591 1.362 . S
C591 H581 0.930 . S
C591 C584 1.409 . S
C591 C590 1.362 . S
H592 C598 0.930 . S
H593 C601 0.930 . S
H594 C602 0.930 . S
H595 C603 0.930 . S
H596 C606 0.930 . S
H597 C607 0.930 . S
C598 H592 0.930 . S
C598 C599 1.355 . S
C598 C600 1.415 . S
C599 C598 1.355 . S
C599 C601 1.419 . S
C600 C598 1.415 . S
C600 C605 1.425 . S
C600 C607 1.409 . S
C601 H593 0.930 . S
C601 C599 1.419 . S
C601 C602 1.362 . S
C602 H594 0.930 . S
C602 C601 1.362 . S
C602 C605 1.409 . S
C603 H595 0.930 . S
C603 C604 1.355 . S
C603 C605 1.415 . S
C604 C603 1.355 . S
C604 C606 1.419 . S
C605 C600 1.425 . S
C605 C602 1.409 . S
C605 C603 1.415 . S
C606 H596 0.930 . S
C606 C604 1.419 . S
C606 C607 1.362 . S
C607 H597 0.930 . S
C607 C600 1.409 . S
C607 C606 1.362 . S
H608 C614 0.930 . S
H609 C617 0.930 . S
H610 C618 0.930 . S
H611 C619 0.930 . S
H612 C622 0.930 . S
H613 C623 0.930 . S
C614 H608 0.930 . S
C614 C615 1.355 . S
C614 C616 1.415 . S
C615 C614 1.355 . S
C615 C617 1.419 . S
C616 C614 1.415 . S
C616 C621 1.425 . S
C616 C623 1.409 . S
C617 H609 0.930 . S
C617 C615 1.419 . S
C617 C618 1.362 . S
C618 H610 0.930 . S
C618 C617 1.362 . S
C618 C621 1.409 . S
C619 H611 0.930 . S
C619 C620 1.355 . S
C619 C621 1.415 . S
C620 C619 1.355 . S
C620 C622 1.419 . S
C621 C616 1.425 . S
C621 C618 1.409 . S
C621 C619 1.415 . S
C622 H612 0.930 . S
C622 C620 1.419 . S
C622 C623 1.362 . S
C623 H613 0.930 . S
C623 C616 1.409 . S
C623 C622 1.362 . S
H624 C630 0.930 . S
H625 C633 0.930 . S
H626 C634 0.930 . S
H627 C635 0.930 . S
H628 C638 0.930 . S
H629 C639 0.930 . S
C630 H624 0.930 . S
C630 C631 1.355 . S
C630 C632 1.415 . S
C631 C630 1.355 . S
C631 C633 1.419 . S
C632 C630 1.415 . S
C632 C637 1.425 . S
C632 C639 1.409 . S
C633 H625 0.930 . S
C633 C631 1.419 . S
C633 C634 1.362 . S
C634 H626 0.930 . S
C634 C633 1.362 . S
C634 C637 1.409 . S
C635 H627 0.930 . S
C635 C636 1.355 . S
C635 C637 1.415 . S
C636 C635 1.355 . S
C636 C638 1.419 . S
C637 C632 1.425 . S
C637 C634 1.409 . S
C637 C635 1.415 . S
C638 H628 0.930 . S
C638 C636 1.419 . S
C638 C639 1.362 . S
C639 H629 0.930 . S
C639 C632 1.409 . S
C639 C638 1.362 . S
H640 C646 0.930 . S
H641 C649 0.930 . S
H642 C650 0.930 . S
H643 C651 0.930 . S
H644 C654 0.930 . S
H645 C655 0.930 . S
C646 H640 0.930 . S
C646 C647 1.355 . S
C646 C648 1.415 . S
C647 C646 1.355 . S
C647 C649 1.419 . S
C648 C646 1.415 . S
C648 C653 1.425 . S
C648 C655 1.409 . S
C649 H641 0.930 . S
C649 C647 1.419 . S
C649 C650 1.362 . S
C650 H642 0.930 . S
C650 C649 1.362 . S
C650 C653 1.409 . S
C651 H643 0.930 . S
C651 C652 1.355 . S
C651 C653 1.415 . S
C652 C651 1.355 . S
C652 C654 1.419 . S
C653 C648 1.425 . S
C653 C650 1.409 . S
C653 C651 1.415 . S
C654 H644 0.930 . S
C654 C652 1.419 . S
C654 C655 1.362 . S
C655 H645 0.930 . S
C655 C648 1.409 . S
C655 C654 1.362 . S
H656 C662 0.930 . S
H657 C665 0.930 . S
H658 C666 0.930 . S
H659 C667 0.930 . S
H660 C670 0.930 . S
H661 C671 0.930 . S
C662 H656 0.930 . S
C662 C663 1.355 . S
C662 C664 1.415 . S
C663 C662 1.355 . S
C663 C665 1.419 . S
C664 C662 1.415 . S
C664 C669 1.425 1_556 S
C664 C671 1.409 1_556 S
C665 H657 0.930 . S
C665 C663 1.419 . S
C665 C666 1.362 . S
C666 H658 0.930 . S
C666 C665 1.362 . S
C666 C669 1.409 1_556 S
C667 H659 0.930 . S
C667 C668 1.355 . S
C667 C669 1.415 . S
C668 C667 1.355 . S
C668 C670 1.419 . S
C669 C664 1.425 1_554 S
C669 C666 1.409 1_554 S
C669 C667 1.415 . S
C670 H660 0.930 . S
C670 C668 1.419 . S
C670 C671 1.362 . S
C671 H661 0.930 . S
C671 C664 1.409 1_554 S
C671 C670 1.362 . S
H672 C678 0.930 . S
H673 C681 0.930 . S
H674 C682 0.930 . S
H675 C683 0.930 . S
H676 C686 0.930 . S
H677 C687 0.930 . S
C678 H672 0.930 . S
C678 C679 1.355 . S
C678 C680 1.415 . S
C679 C678 1.355 . S
C679 C681 1.419 . S
C680 C678 1.415 . S
C680 C685 1.425 1_554 S
C680 C687 1.409 1_554 S
C681 H673 0.930 . S
C681 C679 1.419 . S
C681 C682 1.362 . S
C682 H674 0.930 . S
C682 C681 1.362 . S
C682 C685 1.409 1_554 S
C683 H675 0.930 . S
C683 C684 1.355 . S
C683 C685 1.415 . S
C684 C683 1.355 . S
C684 C686 1.419 . S
C685 C680 1.425 1_556 S
C685 C682 1.409 1_556 S
C685 C683 1.415 . S
C686 H676 0.930 . S
C686 C684 1.419 . S
C686 C687 1.362 . S
C687 H677 0.930 . S
C687 C680 1.409 1_556 S
C687 C686 1.362 . S
H688 C694 0.930 . S
H689 C697 0.930 . S
H690 C698 0.930 . S
H691 C699 0.930 . S
H692 C702 0.930 . S
H693 C703 0.930 . S
C694 H688 0.930 . S
C694 C695 1.355 . S
C694 C696 1.415 . S
C695 C694 1.355 . S
C695 C697 1.419 . S
C696 C694 1.415 . S
C696 C701 1.425 . S
C696 C703 1.409 . S
C697 H689 0.930 . S
C697 C695 1.419 . S
C697 C698 1.362 . S
C698 H690 0.930 . S
C698 C697 1.362 . S
C698 C701 1.409 . S
C699 H691 0.930 . S
C699 C700 1.355 . S
C699 C701 1.415 . S
C700 C699 1.355 . S
C700 C702 1.419 . S
C701 C696 1.425 . S
C701 C698 1.409 . S
C701 C699 1.415 . S
C702 H692 0.930 . S
C702 C700 1.419 . S
C702 C703 1.362 . S
C703 H693 0.930 . S
C703 C696 1.409 . S
C703 C702 1.362 . S
H704 C710 0.930 . S
H705 C713 0.930 . S
H706 C714 0.930 . S
H707 C715 0.930 . S
H708 C718 0.930 . S
H709 C719 0.930 . S
C710 H704 0.930 . S
C710 C711 1.355 . S
C710 C712 1.415 . S
C711 C710 1.355 . S
C711 C713 1.419 . S
C712 C710 1.415 . S
C712 C717 1.425 . S
C712 C719 1.409 . S
C713 H705 0.930 . S
C713 C711 1.419 . S
C713 C714 1.362 . S
C714 H706 0.930 . S
C714 C713 1.362 . S
C714 C717 1.409 . S
C715 H707 0.930 . S
C715 C716 1.355 . S
C715 C717 1.415 . S
C716 C715 1.355 . S
C716 C718 1.419 . S
C717 C712 1.425 . S
C717 C714 1.409 . S
C717 C715 1.415 . S
C718 H708 0.930 . S
C718 C716 1.419 . S
C718 C719 1.362 . S
C719 H709 0.930 . S
C719 C712 1.409 . S
C719 C718 1.362 . S
H720 C726 0.930 . S
H721 C729 0.930 . S
H722 C730 0.930 . S
H723 C731 0.930 . S
H724 C734 0.930 . S
H725 C735 0.930 . S
C726 H720 0.930 . S
C726 C727 1.355 . S
C726 C728 1.415 . S
C727 C726 1.355 . S
C727 C729 1.419 . S
C728 C726 1.415 . S
C728 C733 1.425 . S
C728 C735 1.409 . S
C729 H721 0.930 . S
C729 C727 1.419 . S
C729 C730 1.362 . S
C730 H722 0.930 . S
C730 C729 1.362 . S
C730 C733 1.409 . S
C731 H723 0.930 . S
C731 C732 1.355 . S
C731 C733 1.415 . S
C732 C731 1.355 . S
C732 C734 1.419 . S
C733 C728 1.425 . S
C733 C730 1.409 . S
C733 C731 1.415 . S
C734 H724 0.930 . S
C734 C732 1.419 . S
C734 C735 1.362 . S
C735 H725 0.930 . S
C735 C728 1.409 . S
C735 C734 1.362 . S
C231 C148 1.566 . S
C236 C8 1.567 . S
C247 C22 1.570 . S
C252 C162 1.572 . S
C263 C120 1.576 . S
C268 C36 1.578 . S
C279 C134 1.566 . S
C284 C50 1.567 . S
C295 C64 1.582 . S
C300 C204 1.580 . S
C311 C218 1.570 . S
C316 C78 1.572 . S
C327 C92 1.570 . S
C332 C176 1.571 . S
C343 C190 1.575 . S
C348 C106 1.577 . S
C359 C149 1.487 . S
C364 C9 1.488 . S
C375 C23 1.477 . S
C380 C163 1.476 . S
C391 C37 1.493 . S
C396 C121 1.495 . S
C407 C51 1.467 . S
C412 C135 1.467 . S
C423 C65 1.467 . S
C428 C205 1.467 . S
C439 C79 1.467 . S
C444 C219 1.467 . S
C455 C177 1.487 . S
C460 C93 1.489 . S
C471 C191 1.497 . S
C476 C107 1.496 . S
C487 C7 1.331 . S
C492 C91 1.315 . S
C503 C21 1.344 . S
C508 C105 1.341 . S
C519 C35 1.297 . S
C524 C63 1.288 . S
C535 C49 1.323 . S
C540 C77 1.337 . S
C551 C119 1.321 . S
C556 C203 1.304 . S
C567 C217 1.318 . S
C572 C133 1.302 . S
C583 C147 1.328 . S
C588 C175 1.312 . S
C599 C189 1.304 . S
C604 C161 1.291 . S
C615 C3 1.253 . S
C620 C213 1.247 . S
C631 C171 1.304 . S
C636 C17 1.310 . S
C647 C185 1.316 . S
C652 C31 1.270 . S
C663 C199 1.276 . S
C668 C45 1.318 . S
C679 C129 1.243 . S
C684 C59 1.293 . S
C695 C143 1.266 . S
C700 C73 1.315 . S
C711 C87 1.317 . S
C716 C157 1.276 . S
C727 C101 1.313 . S
C732 C115 1.299 . S
