# Generated by pormake.
# Topology upb, (4)-cn, num edge types: 1
# Building blocks:
#     Node 0, Type 0, BuildingBlock: AZAVOO_clean_sbu_0, # of connection points: 4
#     Node 1, Type 0, BuildingBlock: AZAVOO_clean_sbu_0, # of connection points: 4
#     Node 2, Type 0, BuildingBlock: AZAVOO_clean_sbu_0, # of connection points: 4
#     Node 3, Type 0, BuildingBlock: AZAVOO_clean_sbu_0, # of connection points: 4
#     Node 4, Type 0, BuildingBlock: AZAVOO_clean_sbu_0, # of connection points: 4
#     Node 5, Type 0, BuildingBlock: AZAVOO_clean_sbu_0, # of connection points: 4
#     Node 6, Type 0, BuildingBlock: AZAVOO_clean_sbu_0, # of connection points: 4
#     Node 7, Type 0, BuildingBlock: AZAVOO_clean_sbu_0, # of connection points: 4
#     Node 8, Type 0, BuildingBlock: AZAVOO_clean_sbu_0, # of connection points: 4
#     Node 9, Type 0, BuildingBlock: AZAVOO_clean_sbu_0, # of connection points: 4
#     Node 10, Type 0, BuildingBlock: AZAVOO_clean_sbu_0, # of connection points: 4
#     Node 11, Type 0, BuildingBlock: AZAVOO_clean_sbu_0, # of connection points: 4
#     Node 12, Type 0, BuildingBlock: AZAVOO_clean_sbu_0, # of connection points: 4
#     Node 13, Type 0, BuildingBlock: AZAVOO_clean_sbu_0, # of connection points: 4
#     Node 14, Type 0, BuildingBlock: AZAVOO_clean_sbu_0, # of connection points: 4
#     Node 15, Type 0, BuildingBlock: AZAVOO_clean_sbu_0, # of connection points: 4
#     Edge 16, Type (0, 0), BuildingBlock: KIFKEQ_clean_linker_1, # of connection points: 2
#     Edge 17, Type (0, 0), BuildingBlock: KIFKEQ_clean_linker_1, # of connection points: 2
#     Edge 18, Type (0, 0), BuildingBlock: KIFKEQ_clean_linker_1, # of connection points: 2
#     Edge 19, Type (0, 0), BuildingBlock: KIFKEQ_clean_linker_1, # of connection points: 2
#     Edge 20, Type (0, 0), BuildingBlock: KIFKEQ_clean_linker_1, # of connection points: 2
#     Edge 21, Type (0, 0), BuildingBlock: KIFKEQ_clean_linker_1, # of connection points: 2
#     Edge 22, Type (0, 0), BuildingBlock: KIFKEQ_clean_linker_1, # of connection points: 2
#     Edge 23, Type (0, 0), BuildingBlock: KIFKEQ_clean_linker_1, # of connection points: 2
#     Edge 24, Type (0, 0), BuildingBlock: KIFKEQ_clean_linker_1, # of connection points: 2
#     Edge 25, Type (0, 0), BuildingBlock: KIFKEQ_clean_linker_1, # of connection points: 2
#     Edge 26, Type (0, 0), BuildingBlock: KIFKEQ_clean_linker_1, # of connection points: 2
#     Edge 27, Type (0, 0), BuildingBlock: KIFKEQ_clean_linker_1, # of connection points: 2
#     Edge 28, Type (0, 0), BuildingBlock: KIFKEQ_clean_linker_1, # of connection points: 2
#     Edge 29, Type (0, 0), BuildingBlock: KIFKEQ_clean_linker_1, # of connection points: 2
#     Edge 30, Type (0, 0), BuildingBlock: KIFKEQ_clean_linker_1, # of connection points: 2
#     Edge 31, Type (0, 0), BuildingBlock: KIFKEQ_clean_linker_1, # of connection points: 2
#     Edge 32, Type (0, 0), BuildingBlock: KIFKEQ_clean_linker_1, # of connection points: 2
#     Edge 33, Type (0, 0), BuildingBlock: KIFKEQ_clean_linker_1, # of connection points: 2
#     Edge 34, Type (0, 0), BuildingBlock: KIFKEQ_clean_linker_1, # of connection points: 2
#     Edge 35, Type (0, 0), BuildingBlock: KIFKEQ_clean_linker_1, # of connection points: 2
#     Edge 36, Type (0, 0), BuildingBlock: KIFKEQ_clean_linker_1, # of connection points: 2
#     Edge 37, Type (0, 0), BuildingBlock: KIFKEQ_clean_linker_1, # of connection points: 2
#     Edge 38, Type (0, 0), BuildingBlock: KIFKEQ_clean_linker_1, # of connection points: 2
#     Edge 39, Type (0, 0), BuildingBlock: KIFKEQ_clean_linker_1, # of connection points: 2
#     Edge 40, Type (0, 0), BuildingBlock: KIFKEQ_clean_linker_1, # of connection points: 2
#     Edge 41, Type (0, 0), BuildingBlock: KIFKEQ_clean_linker_1, # of connection points: 2
#     Edge 42, Type (0, 0), BuildingBlock: KIFKEQ_clean_linker_1, # of connection points: 2
#     Edge 43, Type (0, 0), BuildingBlock: KIFKEQ_clean_linker_1, # of connection points: 2
#     Edge 44, Type (0, 0), BuildingBlock: KIFKEQ_clean_linker_1, # of connection points: 2
#     Edge 45, Type (0, 0), BuildingBlock: KIFKEQ_clean_linker_1, # of connection points: 2
#     Edge 46, Type (0, 0), BuildingBlock: KIFKEQ_clean_linker_1, # of connection points: 2
#     Edge 47, Type (0, 0), BuildingBlock: KIFKEQ_clean_linker_1, # of connection points: 2
# Relax obj value: 0.288
# Max RMSD: 0.142
# Mean RMSD: 0.142
data_MOF--net-upb--node1-AZAVOO_clean_sbu_0--edge1-KIFKEQ_clean_linker_1
_symmetry_space_group_name_H-M    P1
_symmetry_Int_Tables_number       1
_symmetry_cell_setting            triclinic
loop_
_symmetry_equiv_pos_as_xyz
'x, y, z'
_cell_length_a     34.617785
_cell_length_b     34.635361
_cell_length_c     53.29729
_cell_angle_alpha  90.086601
_cell_angle_beta   90.038282
_cell_angle_gamma 89.903659
loop_
_atom_site_label
_atom_site_type_symbol
_atom_site_fract_x
_atom_site_fract_y
_atom_site_fract_z
_atom_type_partial_charge
Mg0 Mg 0.04318 0.31614 0.3594 0.0
O1 O 0.99148 0.27624 0.35203 0.0
O2 O 0.00325 0.24286 0.31701 0.0
Mg3 Mg 0.06301 0.26027 0.30282 0.0
C4 C 0.98152 0.25142 0.33553 0.0
C5 C 0.98527 0.36858 0.40167 0.0
O6 O 0.95965 0.39325 0.39306 0.0
O7 O 0.02527 0.35616 0.32762 0.0
O8 O 0.04055 0.32131 0.29374 0.0
O9 O 0.07191 0.2693 0.38172 0.0
O10 O 0.07994 0.27837 0.34104 0.0
C11 C 0.02773 0.35228 0.30386 0.0
C12 C 0.08711 0.25809 0.36072 0.0
O13 O 0.00609 0.34973 0.38643 0.0
Mg14 Mg 0.68436 0.04529 0.3604 0.0
O15 O 0.7252 0.99431 0.3518 0.0
O16 O 0.75421 0.0061 0.31516 0.0
Mg17 Mg 0.73237 0.06391 0.30044 0.0
C18 C 0.7486 0.98474 0.3343 0.0
C19 C 0.63735 0.03267 0.40782 0.0
O20 O 0.63033 0.06885 0.40195 0.0
O21 O 0.64039 0.02309 0.3317 0.0
O22 O 0.67186 0.03752 0.29632 0.0
O23 O 0.73247 0.07655 0.37914 0.0
O24 O 0.71861 0.0823 0.33886 0.0
C25 C 0.64245 0.0239 0.30776 0.0
C26 C 0.74091 0.09084 0.35741 0.0
O27 O 0.65746 0.01233 0.39284 0.0
Mg28 Mg 0.95301 0.68463 0.35587 0.0
O29 O 0.00455 0.72442 0.34717 0.0
O30 O 0.99325 0.75385 0.31063 0.0
Mg31 Mg 0.93587 0.73167 0.29543 0.0
C32 C 0.01439 0.74796 0.32987 0.0
C33 C 0.97745 0.62849 0.40038 0.0
O34 O 0.95429 0.60349 0.38957 0.0
O35 O 0.97526 0.63934 0.32798 0.0
O36 O 0.96191 0.67068 0.29238 0.0
O37 O 0.92289 0.73386 0.37393 0.0
O38 O 0.91645 0.71932 0.33379 0.0
C39 C 0.97494 0.64114 0.30403 0.0
C40 C 0.90894 0.74244 0.35213 0.0
O41 O 0.9852 0.66007 0.38937 0.0
Mg42 Mg 0.31257 0.95247 0.3587 0.0
O43 O 0.27247 0.00553 0.35445 0.0
O44 O 0.242 -0.00158 0.31778 0.0
Mg45 Mg 0.26275 0.9436 0.29844 0.0
C46 C 0.24814 0.01714 0.33803 0.0
C47 C 0.35373 0.95362 0.40808 0.0
O48 O 0.35105 0.91709 0.4016 0.0
O49 O 0.35645 0.97764 0.33109 0.0
O50 O 0.32398 0.96889 0.29529 0.0
O51 O 0.26424 0.91992 0.37599 0.0
O52 O 0.2766 0.91955 0.33536 0.0
C53 C 0.35402 0.98006 0.30722 0.0
C54 C 0.25453 0.90922 0.3536 0.0
O55 O 0.34172 0.97908 0.39277 0.0
Mg56 Mg 0.043 0.68356 0.6334 0.0
O57 O 0.99064 0.7225 0.64175 0.0
O58 O -0.00191 0.74768 0.68009 0.0
Mg59 Mg 0.05492 0.72519 0.69596 0.0
C60 C 0.97893 0.74383 0.6598 0.0
C61 C 0.01583 0.62822 0.5881 0.0
O62 O 0.03232 0.59957 0.60017 0.0
O63 O 0.01985 0.6361 0.65894 0.0
O64 O 0.02966 0.66358 0.69644 0.0
O65 O 0.07331 0.73379 0.61773 0.0
O66 O 0.0776 0.71675 0.65763 0.0
C67 C 0.01809 0.6354 0.68287 0.0
C68 C 0.08584 0.74107 0.6401 0.0
O69 O 0.01337 0.66128 0.59833 0.0
Mg70 Mg 0.31442 0.04027 0.63694 0.0
O71 O 0.2732 0.9892 0.64437 0.0
O72 O 0.24538 -0.00084 0.6817 0.0
Mg73 Mg 0.26681 0.05623 0.69761 0.0
C74 C 0.25033 0.97885 0.66196 0.0
C75 C 0.36177 0.02814 0.58886 0.0
O76 O 0.37017 0.064 0.59478 0.0
O77 O 0.35837 0.01652 0.66514 0.0
O78 O 0.32764 0.0304 0.70092 0.0
O79 O 0.26725 0.07361 0.61865 0.0
O80 O 0.27953 0.0756 0.65933 0.0
C81 C 0.35687 0.01704 0.6891 0.0
C82 C 0.25796 0.08582 0.64079 0.0
O83 O 0.34114 0.00848 0.60385 0.0
Mg84 Mg 0.95684 0.30984 0.63517 0.0
O85 O 0.00697 0.26942 0.64445 0.0
O86 O 0.99621 0.24176 0.68163 0.0
Mg87 Mg 0.93805 0.26432 0.69569 0.0
C88 C 0.01696 0.24674 0.66214 0.0
C89 C 0.97044 0.35397 0.58805 0.0
O90 O 0.93571 0.36398 0.59564 0.0
O91 O 0.97857 0.35536 0.66308 0.0
O92 O 0.96382 0.32533 0.6989 0.0
O93 O 0.92642 0.26124 0.6169 0.0
O94 O 0.91926 0.2764 0.65695 0.0
C95 C 0.97731 0.3544 0.68703 0.0
C96 C 0.91161 0.25337 0.63856 0.0
O97 O 0.99107 0.33345 0.60249 0.0
Mg98 Mg 0.68209 0.95264 0.6373 0.0
O99 O 0.72346 0.00442 0.64256 0.0
O100 O 0.75326 0.99549 0.67938 0.0
Mg101 Mg 0.73331 0.93926 0.69694 0.0
C102 C 0.74726 0.01525 0.65956 0.0
C103 C 0.63969 0.95664 0.58835 0.0
O104 O 0.64135 0.91987 0.5943 0.0
O105 O 0.64007 0.97801 0.6662 0.0
O106 O 0.67278 0.96547 0.70144 0.0
O107 O 0.72806 0.91854 0.61829 0.0
O108 O 0.71875 0.91853 0.65927 0.0
C109 C 0.64295 0.97856 0.69011 0.0
C110 C 0.739 0.9074 0.64031 0.0
O111 O 0.65246 0.98125 0.60402 0.0
Mg112 Mg 0.54359 0.81034 0.85827 0.0
O113 O 0.49293 0.76903 0.84993 0.0
O114 O 0.50512 0.73935 0.81348 0.0
Mg115 Mg 0.56228 0.76172 0.7983 0.0
C116 C 0.48373 0.74508 0.83263 0.0
C117 C 0.52848 0.86043 0.90489 0.0
O118 O 0.56343 0.87136 0.89848 0.0
O119 O 0.52062 0.85354 0.82945 0.0
O120 O 0.53544 0.82216 0.79406 0.0
O121 O 0.57603 0.76352 0.87757 0.0
O122 O 0.57996 0.77506 0.83687 0.0
C123 C 0.52154 0.85152 0.80553 0.0
C124 C 0.58911 0.75371 0.85575 0.0
O125 O 0.51033 0.83734 0.89058 0.0
Mg126 Mg 0.18302 0.54295 0.85558 0.0
O127 O 0.22282 0.49099 0.84749 0.0
O128 O 0.25326 0.50201 0.81119 0.0
Mg129 Mg 0.22963 0.55787 0.79479 0.0
C130 C 0.24717 0.48134 0.83057 0.0
C131 C 0.13438 0.53091 0.9029 0.0
O132 O 0.12504 0.56619 0.89615 0.0
O133 O 0.13822 0.52075 0.82789 0.0
O134 O 0.1685 0.53126 0.79147 0.0
O135 O 0.23164 0.57365 0.87358 0.0
O136 O 0.21798 0.57849 0.8332 0.0
C137 C 0.13936 0.51933 0.80398 0.0
C138 C 0.24068 0.5868 0.85165 0.0
O139 O 0.15626 0.51124 0.88861 0.0
Mg140 Mg 0.45389 0.18654 0.85878 0.0
O141 O 0.50501 0.22746 0.85184 0.0
O142 O 0.49471 0.25782 0.81544 0.0
Mg143 Mg 0.43734 0.23702 0.79936 0.0
C144 C 0.51521 0.25143 0.83491 0.0
C145 C 0.4653 0.13843 0.90608 0.0
O146 O 0.42937 0.13119 0.89968 0.0
O147 O 0.47709 0.14359 0.8295 0.0
O148 O 0.46365 0.17668 0.79456 0.0
O149 O 0.42234 0.2346 0.87757 0.0
O150 O 0.4176 0.22134 0.83709 0.0
C151 C 0.47691 0.14669 0.80558 0.0
C152 C 0.4088 0.24341 0.85568 0.0
O153 O 0.4859 0.15878 0.89145 0.0
Mg154 Mg 0.81683 0.45171 0.85694 0.0
O155 O 0.77372 0.50181 0.85137 0.0
O156 O 0.74371 0.49241 0.81463 0.0
Mg157 Mg 0.76498 0.43593 0.79768 0.0
C158 C 0.74955 0.51217 0.8345 0.0
C159 C 0.86373 0.4631 0.9052 0.0
O160 O 0.87031 0.42667 0.89974 0.0
O161 O 0.8578 0.47743 0.8274 0.0
O162 O 0.82462 0.46346 0.79258 0.0
O163 O 0.77183 0.41711 0.87646 0.0
O164 O 0.78088 0.41627 0.83542 0.0
C165 C 0.85436 0.47745 0.80351 0.0
C166 C 0.7608 0.40558 0.85453 0.0
O167 O 0.84478 0.48354 0.88966 0.0
Mg168 Mg 0.53948 0.1812 0.13663 0.0
O169 O 0.48718 0.22105 0.1422 0.0
O170 O 0.49504 0.25212 0.17871 0.0
Mg171 Mg 0.55246 0.23375 0.19575 0.0
C172 C 0.47557 0.24482 0.15893 0.0
C173 C 0.5355 0.13966 0.08794 0.0
O174 O 0.57215 0.14216 0.09417 0.0
O175 O 0.51598 0.13897 0.16592 0.0
O176 O 0.52756 0.17294 0.20084 0.0
O177 O 0.57063 0.22866 0.11745 0.0
O178 O 0.57373 0.21809 0.15827 0.0
C179 C 0.51526 0.14255 0.1898 0.0
C180 C 0.58291 0.23923 0.13932 0.0
O181 O 0.51038 0.15141 0.10359 0.0
Mg182 Mg 0.81107 0.54076 0.13546 0.0
O183 O 0.76977 0.48912 0.14141 0.0
O184 O 0.73995 0.49949 0.17802 0.0
Mg185 Mg 0.76077 0.55585 0.19512 0.0
C186 C 0.74578 0.47905 0.15845 0.0
C187 C 0.85181 0.53684 0.08645 0.0
O188 O 0.84915 0.57347 0.09273 0.0
O189 O 0.85374 0.5163 0.16432 0.0
O190 O 0.82129 0.52939 0.19958 0.0
O191 O 0.76428 0.57392 0.11666 0.0
O192 O 0.77545 0.57619 0.15739 0.0
C193 C 0.85105 0.51616 0.18825 0.0
C194 C 0.75442 0.58652 0.13859 0.0
O195 O 0.84007 0.51167 0.10204 0.0
Mg196 Mg 0.45552 0.81919 0.13544 0.0
O197 O 0.50795 0.77871 0.14202 0.0
O198 O 0.49634 0.7478 0.17807 0.0
Mg199 Mg 0.43954 0.76827 0.19466 0.0
C200 C 0.51748 0.7542 0.15892 0.0
C201 C 0.45813 0.85849 0.08674 0.0
O202 O 0.42182 0.85401 0.09331 0.0
O203 O 0.47827 0.86204 0.16457 0.0
O204 O 0.46516 0.82905 0.19953 0.0
O205 O 0.4245 0.77256 0.11551 0.0
O206 O 0.42054 0.78182 0.15642 0.0
C207 C 0.47809 0.85908 0.18845 0.0
C208 C 0.41182 0.76119 0.13705 0.0
O209 O 0.48423 0.84906 0.10242 0.0
Mg210 Mg 0.18473 0.45849 0.13296 0.0
O211 O 0.22891 0.50828 0.13647 0.0
O212 O 0.26298 0.49691 0.17143 0.0
Mg213 Mg 0.24059 0.44319 0.19087 0.0
C214 C 0.25585 0.51702 0.15192 0.0
C215 C 0.141 0.46251 0.08481 0.0
O216 O 0.14249 0.42599 0.0914 0.0
O217 O 0.14627 0.48596 0.16324 0.0
O218 O 0.18189 0.4718 0.19699 0.0
O219 O 0.22789 0.4215 0.11305 0.0
O220 O 0.2209 0.423 0.15422 0.0
C221 C 0.15147 0.48601 0.18702 0.0
C222 C 0.23949 0.41047 0.13496 0.0
O223 O 0.15432 0.4876 0.09998 0.0
H224 H 0.10202 0.20373 0.39715 0.0
H225 H 0.12761 0.23336 0.32021 0.0
H226 H 0.14178 0.14533 0.39297 0.0
H227 H 0.16717 0.17594 0.3162 0.0
H228 H 0.19443 0.04964 0.30714 0.0
H229 H 0.15565 0.10686 0.31429 0.0
H230 H 0.21044 0.12339 0.38632 0.0
H231 H 0.24928 0.06512 0.37938 0.0
C232 C 0.11609 0.19783 0.3794 0.0
C233 C 0.11116 0.22286 0.35888 0.0
C234 C 0.13902 0.16457 0.37707 0.0
C235 C 0.15729 0.15583 0.35417 0.0
C236 C 0.15285 0.18137 0.33393 0.0
C237 C 0.13011 0.21438 0.33624 0.0
C238 C 0.19845 0.06533 0.32454 0.0
C239 C 0.22525 0.05276 0.34262 0.0
C240 C 0.17621 0.09831 0.32859 0.0
C241 C 0.18016 0.11985 0.35079 0.0
C242 C 0.20659 0.10723 0.36909 0.0
C243 C 0.22902 0.07404 0.36501 0.0
H244 H 0.94317 0.20905 0.30017 0.0
H245 H 0.93542 0.24724 0.37725 0.0
H246 H 0.88423 0.17171 0.30541 0.0
H247 H 0.87603 0.21021 0.38237 0.0
H248 H 0.80068 0.10152 0.39009 0.0
H249 H 0.85728 0.14246 0.38462 0.0
H250 H 0.81506 0.17744 0.31179 0.0
H251 H 0.75891 0.13572 0.31702 0.0
C252 C 0.92877 0.20967 0.31821 0.0
C253 C 0.94422 0.23091 0.33834 0.0
C254 C 0.89479 0.18847 0.32115 0.0
C255 C 0.87552 0.18778 0.34435 0.0
C256 C 0.89048 0.2097 0.36435 0.0
C257 C 0.92436 0.23115 0.36135 0.0
C258 C 0.80351 0.11793 0.37291 0.0
C259 C 0.77547 0.11524 0.35392 0.0
C260 C 0.8358 0.14163 0.36985 0.0
C261 C 0.84065 0.16333 0.3478 0.0
C262 C 0.81246 0.16072 0.32886 0.0
C263 C 0.78027 0.13685 0.33186 0.0
H264 H 0.75957 0.94008 0.37605 0.0
H265 H 0.78765 0.94658 0.29717 0.0
H266 H 0.79802 0.8813 0.37965 0.0
H267 H 0.82652 0.88816 0.30088 0.0
H268 H 0.86206 0.7612 0.31265 0.0
H269 H 0.82193 0.81891 0.30805 0.0
H270 H 0.86555 0.86244 0.37859 0.0
H271 H 0.90468 0.80443 0.38348 0.0
C272 C 0.77381 0.92891 0.35946 0.0
C273 C 0.77065 0.94816 0.33636 0.0
C274 C 0.79612 0.89538 0.36156 0.0
C275 C 0.81558 0.88015 0.34058 0.0
C276 C 0.81173 0.89895 0.31737 0.0
C277 C 0.78965 0.93262 0.3153 0.0
C278 C 0.86317 0.78323 0.32708 0.0
C279 C 0.88635 0.77824 0.34847 0.0
C280 C 0.84026 0.81632 0.32443 0.0
C281 C 0.8403 0.84518 0.34305 0.0
C282 C 0.86418 0.84042 0.36417 0.0
C283 C 0.8868 0.80728 0.3669 0.0
H284 H 0.0474 0.79676 0.29568 0.0
H285 H 0.06395 0.7496 0.36999 0.0
H286 H 0.10513 0.83601 0.30084 0.0
H287 H 0.12215 0.7883 0.37489 0.0
H288 H 0.19665 0.89473 0.38687 0.0
H289 H 0.13922 0.85545 0.38043 0.0
H290 H 0.17496 0.83246 0.30418 0.0
H291 H 0.23205 0.87265 0.31047 0.0
C292 C 0.06345 0.79453 0.31307 0.0
C293 C 0.05081 0.77015 0.33249 0.0
C294 C 0.09673 0.81691 0.31595 0.0
C295 C 0.11814 0.81552 0.33834 0.0
C296 C 0.10594 0.79057 0.35756 0.0
C297 C 0.0727 0.76813 0.35468 0.0
C298 C 0.1922 0.8814 0.3687 0.0
C299 C 0.21891 0.88673 0.34919 0.0
C300 C 0.15941 0.85865 0.36506 0.0
C301 C 0.15265 0.84047 0.34187 0.0
C302 C 0.17911 0.8463 0.32221 0.0
C303 C 0.21186 0.86927 0.32582 0.0
H304 H 0.0891 0.80535 0.61111 0.0
H305 H 0.13369 0.75644 0.67978 0.0
H306 H 0.1295 0.86205 0.61697 0.0
H307 H 0.17522 0.81294 0.68534 0.0
H308 H 0.21288 0.93907 0.69882 0.0
H309 H 0.17284 0.88175 0.69439 0.0
H310 H 0.19732 0.87898 0.61493 0.0
H311 H 0.23694 0.93679 0.61926 0.0
C312 C 0.10764 0.80673 0.62747 0.0
C313 C 0.10837 0.77644 0.64496 0.0
C314 C 0.13102 0.8391 0.63072 0.0
C315 C 0.15598 0.84183 0.65144 0.0
C316 C 0.15611 0.81185 0.66926 0.0
C317 C 0.13238 0.77951 0.6661 0.0
C318 C 0.20978 0.92622 0.68038 0.0
C319 C 0.22795 0.94266 0.65935 0.0
C320 C 0.18703 0.89317 0.6779 0.0
C321 C 0.18168 0.8759 0.6543 0.0
C322 C 0.2004 0.89192 0.63333 0.0
C323 C 0.22338 0.92487 0.63584 0.0
H324 H 0.23129 0.14192 0.61008 0.0
H325 H 0.20671 0.08368 0.67969 0.0
H326 H 0.17495 0.18298 0.61599 0.0
H327 H 0.14879 0.1228 0.68505 0.0
H328 H 0.06413 0.21996 0.69936 0.0
H329 H 0.12361 0.18288 0.69473 0.0
H330 H 0.10878 0.18396 0.61407 0.0
H331 H 0.05103 0.22309 0.61885 0.0
C332 C 0.21344 0.13769 0.62654 0.0
C333 C 0.22335 0.10987 0.6445 0.0
C334 C 0.18093 0.16102 0.6299 0.0
C335 C 0.15688 0.15628 0.65098 0.0
C336 C 0.16688 0.12804 0.66886 0.0
C337 C 0.20002 0.10539 0.66578 0.0
C338 C 0.07387 0.21237 0.68068 0.0
C339 C 0.05311 0.22449 0.65947 0.0
C340 C 0.10782 0.19084 0.67797 0.0
C341 C 0.12127 0.18017 0.65399 0.0
C342 C 0.10011 0.19225 0.63283 0.0
C343 C 0.06674 0.21452 0.63553 0.0
H344 H 0.9043 0.19212 0.60677 0.0
H345 H 0.86414 0.23649 0.67792 0.0
H346 H 0.86325 0.13555 0.61173 0.0
H347 H 0.82216 0.18042 0.68258 0.0
H348 H 0.78776 0.0544 0.69529 0.0
H349 H 0.82684 0.11197 0.69017 0.0
H350 H 0.79558 0.11663 0.61173 0.0
H351 H 0.75682 0.05823 0.61673 0.0
C352 C 0.88655 0.18985 0.62343 0.0
C353 C 0.88751 0.21865 0.64201 0.0
C354 C 0.86279 0.15757 0.62617 0.0
C355 C 0.83926 0.15353 0.64748 0.0
C356 C 0.84029 0.1824 0.66608 0.0
C357 C 0.86429 0.21455 0.66342 0.0
C358 C 0.78912 0.06764 0.67691 0.0
C359 C 0.76928 0.05155 0.65637 0.0
C360 C 0.81133 0.1009 0.67404 0.0
C361 C 0.8144 0.11891 0.65055 0.0
C362 C 0.79417 0.10317 0.63003 0.0
C363 C 0.77172 0.06989 0.63293 0.0
H364 H 0.791 0.90807 0.67895 0.0
H365 H 0.7656 0.85275 0.60831 0.0
H366 H 0.84873 0.86849 0.68341 0.0
H367 H 0.82193 0.81135 0.61326 0.0
H368 H 0.94574 0.76892 0.61633 0.0
H369 H 0.88848 0.80907 0.61168 0.0
H370 H 0.87193 0.80725 0.69215 0.0
H371 H 0.93059 0.76912 0.69672 0.0
C372 C 0.79747 0.88696 0.66459 0.0
C373 C 0.77384 0.88335 0.64335 0.0
C374 C 0.83053 0.86403 0.66714 0.0
C375 C 0.8402 0.83637 0.64875 0.0
C376 C 0.8161 0.83274 0.62759 0.0
C377 C 0.7836 0.85629 0.62479 0.0
C378 C 0.92971 0.77702 0.63299 0.0
C379 C 0.94267 0.76597 0.65688 0.0
C380 C 0.89668 0.79993 0.63035 0.0
C381 C 0.8753 0.81164 0.65154 0.0
C382 C 0.88796 0.7997 0.67541 0.0
C383 C 0.92145 0.7775 0.67806 0.0
H384 H 0.58577 0.70095 0.8178 0.0
H385 H 0.64446 0.72691 0.88715 0.0
H386 H 0.6239 0.6423 0.81324 0.0
H387 H 0.68466 0.66966 0.88202 0.0
H388 H 0.72712 0.54584 0.87854 0.0
H389 H 0.68726 0.60329 0.88391 0.0
H390 H 0.68387 0.61821 0.80331 0.0
H391 H 0.72143 0.55946 0.79814 0.0
C392 C 0.60741 0.69439 0.83182 0.0
C393 C 0.61245 0.71846 0.85271 0.0
C394 C 0.62949 0.6608 0.82921 0.0
C395 C 0.65781 0.65106 0.84715 0.0
C396 C 0.66277 0.67555 0.86803 0.0
C397 C 0.63997 0.70858 0.87092 0.0
C398 C 0.7178 0.56154 0.86203 0.0
C399 C 0.72721 0.54814 0.83794 0.0
C400 C 0.6951 0.59467 0.86506 0.0
C401 C 0.68205 0.61567 0.84405 0.0
C402 C 0.69236 0.60248 0.81996 0.0
C403 C 0.71425 0.56891 0.81696 0.0
H404 H 0.4581 0.68696 0.80205 0.0
H405 H 0.42695 0.75239 0.8682 0.0
H406 H 0.39936 0.649 0.80618 0.0
H407 H 0.36782 0.7147 0.87201 0.0
H408 H 0.29155 0.60972 0.88765 0.0
H409 H 0.3496 0.64837 0.88257 0.0
H410 H 0.32863 0.65495 0.80278 0.0
H411 H 0.27043 0.61595 0.80783 0.0
C412 C 0.43864 0.69348 0.81738 0.0
C413 C 0.44739 0.72271 0.83486 0.0
C414 C 0.40483 0.67179 0.81965 0.0
C415 C 0.37896 0.67877 0.83943 0.0
C416 C 0.38746 0.70825 0.85675 0.0
C417 C 0.42129 0.72996 0.85451 0.0
C418 C 0.2993 0.61928 0.86898 0.0
C419 C 0.27638 0.60961 0.84812 0.0
C420 C 0.33246 0.6417 0.86611 0.0
C421 C 0.34363 0.6549 0.8423 0.0
C422 C 0.32095 0.64494 0.82136 0.0
C423 C 0.28756 0.62265 0.82426 0.0
H424 H 0.22772 0.4162 0.85659 0.0
H425 H 0.31908 0.46654 0.81218 0.0
H426 H 0.26716 0.35785 0.86243 0.0
H427 H 0.35844 0.40853 0.81854 0.0
H428 H 0.4113 0.31062 0.88237 0.0
H429 H 0.37158 0.36862 0.87586 0.0
H430 H 0.31311 0.3125 0.81441 0.0
H431 H 0.35338 0.25484 0.82036 0.0
C432 C 0.25617 0.41485 0.84818 0.0
C433 C 0.27032 0.44584 0.83391 0.0
C434 C 0.27856 0.38158 0.8515 0.0
C435 C 0.31558 0.37918 0.84095 0.0
C436 C 0.32985 0.41001 0.82677 0.0
C437 C 0.30729 0.44299 0.8231 0.0
C438 C 0.38996 0.31072 0.8675 0.0
C439 C 0.38532 0.2784 0.85184 0.0
C440 C 0.3674 0.34376 0.8638 0.0
C441 C 0.33945 0.34453 0.84476 0.0
C442 C 0.3346 0.31226 0.8292 0.0
C443 C 0.35764 0.27952 0.83256 0.0
H444 H 0.73579 0.34747 0.88432 0.0
H445 H 0.70536 0.41316 0.81855 0.0
H446 H 0.67758 0.3087 0.87942 0.0
H447 H 0.64592 0.3764 0.81433 0.0
H448 H 0.56023 0.28201 0.79809 0.0
H449 H 0.62007 0.31783 0.80276 0.0
H450 H 0.61127 0.30744 0.88347 0.0
H451 H 0.55265 0.26946 0.87851 0.0
C452 C 0.71633 0.35375 0.86892 0.0
C453 C 0.7252 0.38284 0.8516 0.0
C454 C 0.68276 0.33178 0.86618 0.0
C455 C 0.65676 0.33915 0.84641 0.0
C456 C 0.66556 0.36897 0.82938 0.0
C457 C 0.69962 0.39024 0.8318 0.0
C458 C 0.57123 0.28729 0.81681 0.0
C459 C 0.55179 0.27291 0.83793 0.0
C460 C 0.60546 0.30816 0.81955 0.0
C461 C 0.6207 0.31596 0.84352 0.0
C462 C 0.60104 0.30152 0.86466 0.0
C463 C 0.56722 0.2799 0.86187 0.0
H464 H 0.70048 0.44407 0.19353 0.0
H465 H 0.73982 0.43222 0.11692 0.0
H466 H 0.66112 0.38665 0.18879 0.0
H467 H 0.70083 0.37388 0.11238 0.0
H468 H 0.59347 0.29705 0.10532 0.0
H469 H 0.63355 0.3545 0.10985 0.0
H470 H 0.66612 0.31785 0.18442 0.0
H471 H 0.62514 0.26107 0.18013 0.0
C472 C 0.70093 0.42911 0.17567 0.0
C473 C 0.72328 0.44292 0.15556 0.0
C474 C 0.67851 0.39593 0.17303 0.0
C475 C 0.67778 0.37562 0.15022 0.0
C476 C 0.70038 0.38914 0.13012 0.0
C477 C 0.72297 0.4224 0.13278 0.0
C478 C 0.60911 0.30137 0.1227 0.0
C479 C 0.6061 0.27465 0.14241 0.0
C480 C 0.63231 0.33413 0.12523 0.0
C481 C 0.6532 0.34072 0.14745 0.0
C482 C 0.65002 0.31395 0.16718 0.0
C483 C 0.62659 0.28137 0.16472 0.0
H484 H 0.54232 0.69503 0.18863 0.0
H485 H 0.57409 0.76095 0.12297 0.0
H486 H 0.59966 0.65541 0.18369 0.0
H487 H 0.63222 0.72139 0.11836 0.0
H488 H 0.70549 0.61265 0.10221 0.0
H489 H 0.64935 0.65452 0.10723 0.0
H490 H 0.66978 0.65923 0.18714 0.0
H491 H 0.72575 0.61716 0.18218 0.0
C492 C 0.56169 0.70138 0.17324 0.0
C493 C 0.55346 0.73126 0.15615 0.0
C494 C 0.59474 0.67867 0.1705 0.0
C495 C 0.62053 0.68524 0.15066 0.0
C496 C 0.61262 0.71532 0.13368 0.0
C497 C 0.57942 0.7381 0.13639 0.0
C498 C 0.69795 0.62251 0.12088 0.0
C499 C 0.71992 0.61128 0.14183 0.0
C500 C 0.66596 0.64678 0.12371 0.0
C501 C 0.65513 0.66025 0.14757 0.0
C502 C 0.67711 0.64899 0.16853 0.0
C503 C 0.70921 0.62486 0.16569 0.0
H504 H 0.40001 0.71578 0.17852 0.0
H505 H 0.37256 0.72527 0.09971 0.0
H506 H 0.3628 0.65616 0.18085 0.0
H507 H 0.33547 0.66562 0.102 0.0
H508 H 0.23727 0.58175 0.12491 0.0
H509 H 0.27528 0.64095 0.12104 0.0
H510 H 0.36654 0.58926 0.16501 0.0
H511 H 0.32842 0.53064 0.16929 0.0
C512 C 0.386 0.70524 0.16174 0.0
C513 C 0.38924 0.7252 0.13895 0.0
C514 C 0.3649 0.67093 0.16301 0.0
C515 C 0.34623 0.65619 0.14158 0.0
C516 C 0.34925 0.67639 0.11886 0.0
C517 C 0.37072 0.7104 0.11753 0.0
C518 C 0.26558 0.58298 0.13353 0.0
C519 C 0.27968 0.55175 0.14762 0.0
C520 C 0.28736 0.61681 0.13131 0.0
C521 C 0.32371 0.61986 0.14297 0.0
C522 C 0.33827 0.5881 0.15631 0.0
C523 C 0.31647 0.55448 0.15866 0.0
H524 H 0.26287 0.35256 0.10404 0.0
H525 H 0.29358 0.41275 0.17207 0.0
H526 H 0.31769 0.30899 0.10991 0.0
H527 H 0.34872 0.37057 0.17766 0.0
H528 H 0.42563 0.27033 0.19469 0.0
H529 H 0.36677 0.30772 0.1886 0.0
H530 H 0.38545 0.30564 0.10835 0.0
H531 H 0.44311 0.26632 0.11453 0.0
C532 C 0.28154 0.35659 0.12015 0.0
C533 C 0.27365 0.38556 0.13784 0.0
C534 C 0.31299 0.33175 0.12351 0.0
C535 C 0.33753 0.33594 0.14442 0.0
C536 C 0.32988 0.36562 0.16176 0.0
C537 C 0.29819 0.38997 0.15856 0.0
C538 C 0.41688 0.27766 0.17575 0.0
C539 C 0.43891 0.26561 0.15507 0.0
C540 C 0.38331 0.29931 0.17224 0.0
C541 C 0.3715 0.31019 0.14798 0.0
C542 C 0.39327 0.29741 0.12727 0.0
C543 C 0.42644 0.27503 0.13078 0.0
H544 H 0.03004 0.42865 0.31727 0.0
H545 H 0.01368 0.35329 0.25353 0.0
H546 H 0.04338 0.48232 0.28898 0.0
H547 H 0.02716 0.40648 0.22542 0.0
H548 H 0.07392 0.48727 0.17606 0.0
H549 H 0.02357 0.4703 0.20606 0.0
H550 H 0.10513 0.48385 0.26679 0.0
H551 H 0.15485 0.50112 0.23711 0.0
C552 C 0.02773 0.42385 0.29724 0.0
C553 C 0.02215 0.38645 0.28759 0.0
C554 C 0.03543 0.45465 0.28103 0.0
C555 C 0.0374 0.44851 0.25497 0.0
C556 C 0.02605 0.41239 0.24537 0.0
C557 C 0.0187 0.38162 0.26153 0.0
C558 C 0.08054 0.4886 0.1959 0.0
C559 C 0.11873 0.49397 0.20415 0.0
C560 C 0.05165 0.47875 0.21311 0.0
C561 C 0.06055 0.47457 0.23873 0.0
C562 C 0.09707 0.48659 0.24723 0.0
C563 C 0.12586 0.4963 0.23009 0.0
H564 H 0.5659 0.02799 0.32116 0.0
H565 H 0.64125 0.0 0.25928 0.0
H566 H 0.51261 0.03769 0.29189 0.0
H567 H 0.58927 0.01077 0.23015 0.0
H568 H 0.52055 0.0657 0.17767 0.0
H569 H 0.5332 0.01445 0.20773 0.0
H570 H 0.50485 0.09266 0.2684 0.0
H571 H 0.49139 0.14288 0.23841 0.0
C572 C 0.57073 0.02246 0.3014 0.0
C573 C 0.60807 0.01488 0.29235 0.0
C574 C 0.54023 0.02834 0.28452 0.0
C575 C 0.5468 0.02703 0.25842 0.0
C576 C 0.58265 0.01282 0.24993 0.0
C577 C 0.61294 0.00692 0.26673 0.0
C578 C 0.5153 0.0713 0.19737 0.0
C579 C 0.50678 0.10876 0.20581 0.0
C580 C 0.52285 0.04194 0.21472 0.0
C581 C 0.52213 0.04971 0.2407 0.0
C582 C 0.5066 0.08527 0.24871 0.0
C583 C 0.49909 0.11451 0.23141 0.0
H584 H 0.92769 0.51932 0.17506 0.0
H585 H 0.852 0.49334 0.23704 0.0
H586 H 0.98059 0.53033 0.20435 0.0
H587 H 0.90376 0.50547 0.26623 0.0
H588 H 0.97103 0.56468 0.31785 0.0
H589 H 0.96049 0.51111 0.28882 0.0
H590 H 0.98616 0.58691 0.22659 0.0
H591 H -0.00182 0.63901 0.25543 0.0
C592 C 0.92271 0.51443 0.19487 0.0
C593 C 0.8853 0.50718 0.20387 0.0
C594 C 0.95303 0.52102 0.21176 0.0
C595 C 0.94623 0.52085 0.23786 0.0
C596 C 0.91046 0.50672 0.24642 0.0
C597 C 0.88032 0.50004 0.22959 0.0
C598 C 0.97614 0.56925 0.29802 0.0
C599 C 0.98366 0.60644 0.28876 0.0
C600 C 0.96975 0.5386 0.2813 0.0
C601 C 0.97022 0.54499 0.25516 0.0
C602 C 0.98461 0.58053 0.24642 0.0
C603 C 0.9912 0.61089 0.26306 0.0
H604 H 0.35624 0.00802 0.25966 0.0
H605 H 0.43048 0.97236 0.3204 0.0
H606 H 0.40727 0.99641 0.23008 0.0
H607 H 0.48312 0.96241 0.29083 0.0
H608 H 0.50384 0.8596 0.2366 0.0
H609 H 0.49168 0.90998 0.26668 0.0
H610 H 0.45972 0.98739 0.20635 0.0
H611 H 0.47076 0.93569 0.1763 0.0
C612 C 0.3842 -0.00083 0.2668 0.0
C613 C 0.38873 0.98916 0.29213 0.0
C614 C 0.41402 0.99269 0.24973 0.0
C615 C 0.44911 0.97593 0.25765 0.0
C616 C 0.45585 0.97312 0.28372 0.0
C617 C 0.42576 0.97934 0.30084 0.0
C618 C 0.49542 0.88781 0.22971 0.0
C619 C 0.48648 0.89317 0.20428 0.0
C620 C 0.48862 0.91723 0.24706 0.0
C621 C 0.47242 0.95266 0.23933 0.0
C622 C 0.47022 0.95999 0.21331 0.0
C623 C 0.47704 0.93041 0.19592 0.0
H624 H 0.12937 0.47333 0.7627 0.0
H625 H 0.0686 0.54871 0.81345 0.0
H626 H 0.07703 0.47866 0.73262 0.0
H627 H 0.01861 0.55815 0.78298 0.0
H628 H 0.97103 0.62233 0.72313 0.0
H629 H 0.97921 0.57027 0.75304 0.0
H630 H 0.06126 0.51618 0.70244 0.0
H631 H 0.04917 0.56575 0.67212 0.0
C632 C 0.10436 0.49069 0.76746 0.0
C633 C 0.1035 0.51168 0.78994 0.0
C634 C 0.07447 0.49463 0.74995 0.0
C635 C 0.04464 0.52196 0.75378 0.0
C636 C 0.04123 0.53804 0.77811 0.0
C637 C 0.0702 0.53264 0.79602 0.0
C638 C 0.98949 0.59819 0.71821 0.0
C639 C 0.01062 0.59863 0.69581 0.0
C640 C 0.99514 0.56857 0.73566 0.0
C641 C 0.02426 0.54051 0.7318 0.0
C642 C 0.04004 0.53771 0.70737 0.0
C643 C 0.03301 0.56638 0.68953 0.0
H644 H 0.49778 0.14732 0.75647 0.0
H645 H 0.47644 0.06966 0.81814 0.0
H646 H 0.48733 0.09567 0.72704 0.0
H647 H 0.46736 0.01675 0.78853 0.0
H648 H 0.36046 0.9919 0.73725 0.0
H649 H 0.41166 0.00707 0.76621 0.0
H650 H 0.48517 0.03962 0.70412 0.0
H651 H 0.43264 0.02548 0.67509 0.0
C652 C 0.4924 0.11866 0.76379 0.0
C653 C 0.48615 0.11296 0.78955 0.0
C654 C 0.48676 0.08856 0.7468 0.0
C655 C 0.47468 0.05198 0.7552 0.0
C656 C 0.47511 0.04484 0.78126 0.0
C657 C 0.4806 0.07516 0.79833 0.0
C658 C 0.38808 0.00087 0.7297 0.0
C659 C 0.39198 0.00919 0.70407 0.0
C660 C 0.4179 0.00942 0.74638 0.0
C661 C 0.45222 0.02667 0.73774 0.0
C662 C 0.45851 0.02809 0.7116 0.0
C663 C 0.42851 0.01955 0.69485 0.0
H664 H 0.00165 0.35799 0.73536 0.0
H665 H 0.97104 0.43039 0.6726 0.0
H666 H 0.98941 0.41061 0.76387 0.0
H667 H 0.95993 0.48437 0.70127 0.0
H668 H 0.85252 0.49954 0.75461 0.0
H669 H 0.90352 0.48867 0.72469 0.0
H670 H 0.98395 0.46854 0.78543 0.0
H671 H 0.93172 0.47791 0.81556 0.0
C672 C 0.99386 0.38582 0.72757 0.0
C673 C 0.98559 0.38957 0.70191 0.0
C674 C 0.98711 0.41646 0.74399 0.0
C675 C 0.97164 0.4515 0.7351 0.0
C676 C 0.97016 0.45726 0.70891 0.0
C677 C 0.97686 0.42639 0.6924 0.0
C678 C 0.88139 0.49408 0.76166 0.0
C679 C 0.88766 0.48757 0.78735 0.0
C680 C 0.91107 0.48817 0.74439 0.0
C681 C 0.94768 0.47553 0.7525 0.0
C682 C 0.95564 0.47644 0.77846 0.0
C683 C 0.92573 0.48211 0.79581 0.0
H684 H 0.64226 0.00178 0.73886 0.0
H685 H 0.56624 0.97534 0.67701 0.0
H686 H 0.591 0.98878 0.76816 0.0
H687 H 0.51384 0.96336 0.70644 0.0
H688 H 0.4991 0.85342 0.75671 0.0
H689 H 0.51022 0.90604 0.72816 0.0
H690 H 0.53485 0.98157 0.79089 0.0
H691 H 0.52461 0.92779 0.81957 0.0
C692 C 0.61394 0.99482 0.73147 0.0
C693 C 0.6088 0.98766 0.70575 0.0
C694 C 0.58409 0.98762 0.74837 0.0
C695 C 0.5485 0.97293 0.73984 0.0
C696 C 0.54135 0.97299 0.71378 0.0
C697 C 0.57138 0.98015 0.69682 0.0
C698 C 0.50552 0.88161 0.76449 0.0
C699 C 0.51267 0.88605 0.79024 0.0
C700 C 0.51161 0.91226 0.74804 0.0
C701 C 0.52528 0.948 0.75702 0.0
C702 C 0.52581 0.95409 0.78319 0.0
C703 C 0.51967 0.92327 0.79971 0.0
H704 H 0.92518 0.35698 0.43275 0.0
H705 H 0.04971 0.36062 0.43083 0.0
H706 H 0.92691 0.35031 0.47823 0.0
H707 H 0.05159 0.35581 0.47688 0.0
H708 H 0.02759 0.31682 0.5614 0.0
H709 H 0.03482 0.3157 0.51562 0.0
H710 H 0.94382 0.40056 0.50908 0.0
H711 H 0.93618 0.40127 0.5543 0.0
C712 C 0.95291 0.3564 0.44219 0.0
C713 C 0.98722 0.36029 0.42861 0.0
C714 C 0.95397 0.35267 0.46816 0.0
C715 C 0.98933 0.35389 0.48112 0.0
C716 C 0.02395 0.35511 0.46736 0.0
C717 C 0.02287 0.35802 0.44114 0.0
C718 C 0.0097 0.33576 0.55015 0.0
C719 C 0.9809 0.35879 0.56139 0.0
C720 C 0.01377 0.33498 0.52398 0.0
C721 C 0.98909 0.3572 0.50882 0.0
C722 C 0.9624 0.38219 0.52027 0.0
C723 C 0.95827 0.3829 0.54621 0.0
H724 H 0.61577 0.90974 0.55026 0.0
H725 H 0.64037 0.02911 0.56766 0.0
H726 H 0.60738 0.92644 0.50624 0.0
H727 H 0.63248 0.04571 0.52349 0.0
H728 H 0.59536 0.0693 0.44415 0.0
H729 H 0.58802 0.05032 0.48793 0.0
H730 H 0.65181 0.94544 0.47307 0.0
H731 H 0.65857 0.96404 0.42925 0.0
C732 C 0.61891 0.93966 0.54477 0.0
C733 C 0.6291 0.96806 0.56246 0.0
C734 C 0.61431 0.94916 0.51948 0.0
C735 C 0.61965 0.9873 0.51129 0.0
C736 C 0.62785 0.01608 0.52919 0.0
C737 C 0.63254 0.00655 0.55452 0.0
C738 C 0.60728 0.04188 0.45012 0.0
C739 C 0.62784 0.01833 0.43324 0.0
C740 C 0.60326 0.03114 0.47526 0.0
C741 C 0.61965 0.99659 0.48406 0.0
C742 C 0.6385 0.9721 0.46688 0.0
C743 C 0.64251 0.98283 0.44174 0.0
H744 H 0.98941 0.56655 0.56022 0.0
H745 H 0.02983 0.68396 0.55429 0.0
H746 H 0.97981 0.56452 0.51459 0.0
H747 H 0.02367 0.68122 0.50933 0.0
H748 H 0.97287 0.6867 0.43362 0.0
H749 H 0.9792 0.68416 0.4786 0.0
H750 H 0.00612 0.56221 0.47415 0.0
H751 H 0.99616 0.56455 0.42856 0.0
C752 C 0.99634 0.59177 0.54912 0.0
C753 C 0.00942 0.62568 0.56078 0.0
C754 C 0.99128 0.59057 0.52297 0.0
C755 C 0.00027 0.62296 0.50805 0.0
C756 C 0.01479 0.65618 0.51998 0.0
C757 C 0.01861 0.65774 0.54591 0.0
C758 C 0.98052 0.65938 0.44219 0.0
C759 C 0.9848 0.62596 0.42758 0.0
C760 C 0.9844 0.65787 0.46813 0.0
C761 C 0.99415 0.62314 0.48029 0.0
C762 C -0.00162 0.58947 0.4656 0.0
C763 C 0.99316 0.59079 0.43947 0.0
H764 H 0.40691 0.06153 0.55285 0.0
H765 H 0.33493 0.96206 0.56688 0.0
H766 H 0.41293 0.04233 0.50892 0.0
H767 H 0.34029 0.94342 0.52301 0.0
H768 H 0.37335 0.90475 0.44607 0.0
H769 H 0.38326 0.92065 0.49009 0.0
H770 H 0.36851 0.04172 0.47311 0.0
H771 H 0.3591 0.02587 0.42891 0.0
C772 C 0.39276 0.03533 0.54665 0.0
C773 C 0.37023 0.01346 0.56333 0.0
C774 C 0.39604 0.02448 0.52145 0.0
C775 C 0.37685 0.99155 0.51241 0.0
C776 C 0.35583 0.96871 0.52939 0.0
C777 C 0.35264 0.97948 0.55457 0.0
C778 C 0.37282 0.93485 0.45161 0.0
C779 C 0.36502 0.96404 0.43401 0.0
C780 C 0.37829 0.94391 0.4769 0.0
C781 C 0.37625 0.98238 0.48516 0.0
C782 C 0.37053 0.01179 0.46734 0.0
C783 C 0.36493 0.0027 0.44201 0.0
H784 H 0.46636 0.828 0.92834 0.0
H785 H 0.55813 0.91073 0.93948 0.0
H786 H 0.44865 0.83376 0.97234 0.0
H787 H 0.53981 0.91705 0.98355 0.0
H788 H 0.52972 0.8678 0.06535 0.0
H789 H 0.54428 0.87469 0.02071 0.0
H790 H 0.42219 0.87723 0.00399 0.0
H791 H 0.40764 0.87005 0.04832 0.0
C792 C 0.48221 0.8481 0.94003 0.0
C793 C 0.51382 0.86873 0.93042 0.0
C794 C 0.472 0.85146 0.96528 0.0
C795 C 0.49301 0.8757 0.98149 0.0
C796 C 0.52348 0.89769 0.97162 0.0
C797 C 0.53378 0.89425 0.94634 0.0
C798 C 0.50604 0.87043 0.05217 0.0
C799 C 0.46757 0.86808 0.06039 0.0
C800 C 0.51435 0.87454 0.02661 0.0
C801 C 0.48435 0.87615 0.00879 0.0
C802 C 0.44593 0.87549 0.01719 0.0
C803 C 0.43765 0.87162 0.04267 0.0
H804 H 0.15904 0.46448 0.92565 0.0
H805 H 0.09056 0.56705 0.93858 0.0
H806 H 0.15348 0.44772 0.96985 0.0
H807 H 0.08464 0.54993 0.98281 0.0
H808 H 0.1398 0.53429 0.06285 0.0
H809 H 0.13084 0.54887 0.01837 0.0
H810 H 0.10887 0.42833 0.00335 0.0
H811 H 0.11802 0.41368 0.04758 0.0
C812 C 0.14211 0.48304 0.93779 0.0
C813 C 0.12558 0.51732 0.92861 0.0
C814 C 0.13883 0.47337 0.96315 0.0
C815 C 0.11891 0.49772 0.9799 0.0
C816 C 0.1007 0.53094 0.97046 0.0
C817 C 0.10392 0.54059 0.94508 0.0
C818 C 0.13242 0.51102 0.05013 0.0
C819 C 0.13 0.47279 0.05876 0.0
C820 C 0.12714 0.51938 0.02465 0.0
C821 C 0.1195 0.48966 0.00729 0.0
C822 C 0.11529 0.45176 0.01617 0.0
C823 C 0.12034 0.44345 0.04159 0.0
H824 H 0.58379 0.11783 0.05018 0.0
H825 H 0.46335 0.13936 0.06641 0.0
H826 H 0.56844 0.11025 0.00592 0.0
H827 H 0.44806 0.13216 0.0219 0.0
H828 H 0.42859 0.09504 0.94156 0.0
H829 H 0.44595 0.08802 0.9857 0.0
H830 H 0.5491 0.15524 0.97309 0.0
H831 H 0.53215 0.16173 0.92895 0.0
C832 C 0.55391 0.12046 0.04437 0.0
C833 C 0.52482 0.12954 0.06183 0.0
C834 C 0.54519 0.11633 0.01894 0.0
C835 C 0.50714 0.12102 0.01032 0.0
C836 C 0.47767 0.12811 0.02794 0.0
C837 C 0.48643 0.13237 0.05345 0.0
C838 C 0.4553 0.1078 0.94812 0.0
C839 C 0.47886 0.12917 0.93175 0.0
C840 C 0.46508 0.10397 0.97345 0.0
C841 C 0.49869 0.12135 0.98297 0.0
C842 C 0.52318 0.14115 0.96633 0.0
C843 C 0.51342 0.14496 0.941 0.0
H844 H 0.90624 0.4283 0.94203 0.0
H845 H 0.83802 0.53017 0.92669 0.0
H846 H 0.91059 0.44701 0.9861 0.0
H847 H 0.84166 0.54836 0.97074 0.0
H848 H 0.87277 0.58533 0.04865 0.0
H849 H 0.88308 0.56953 0.00469 0.0
H850 H 0.86519 0.44877 0.02112 0.0
H851 H 0.85538 0.46454 0.06533 0.0
C852 C 0.89257 0.45493 0.94798 0.0
C853 C 0.87158 0.47761 0.93086 0.0
C854 C 0.89485 0.46549 0.97328 0.0
C855 C 0.87615 0.49894 0.98202 0.0
C856 C 0.85675 0.5226 0.96463 0.0
C857 C 0.85459 0.51212 0.93933 0.0
C858 C 0.87157 0.5553 0.04301 0.0
C859 C 0.86293 0.5262 0.0605 0.0
C860 C 0.87727 0.54631 0.01773 0.0
C861 C 0.87459 0.50796 0.00931 0.0
C862 C 0.86776 0.4786 0.027 0.0
C863 C 0.86195 0.48763 0.05234 0.0
loop_
_geom_bond_atom_site_label_1
_geom_bond_atom_site_label_2
_geom_bond_distance
_geom_bond_site_symmetry_2
_ccdc_geom_bond_type
Mg0 O1 2.028 1_455 S
Mg0 O7 1.986 . S
Mg0 O9 2.114 . S
Mg0 O10 2.251 . S
Mg0 O13 2.010 . S
O1 Mg0 2.028 1_655 S
O1 C4 1.250 . S
O2 Mg3 2.028 1_655 S
O2 C4 1.248 . S
Mg3 O2 2.028 1_455 S
Mg3 O8 2.032 . S
Mg3 O10 2.079 . S
C4 O1 1.250 . S
C4 O2 1.248 . S
C5 O6 1.264 . S
C5 O13 1.249 . S
O6 C5 1.264 . S
O7 Mg0 1.986 . S
O7 C11 1.246 . S
O8 Mg3 2.032 . S
O8 C11 1.259 . S
O9 Mg0 2.114 . S
O9 C12 1.252 . S
O10 Mg0 2.251 . S
O10 Mg3 2.079 . S
O10 C12 1.273 . S
C11 O7 1.246 . S
C11 O8 1.259 . S
C12 O9 1.252 . S
C12 O10 1.273 . S
O13 Mg0 2.010 . S
O13 C5 1.249 . S
Mg14 O15 2.028 1_545 S
Mg14 O21 1.986 . S
Mg14 O23 2.114 . S
Mg14 O24 2.251 . S
Mg14 O27 2.010 . S
O15 Mg14 2.028 1_565 S
O15 C18 1.250 . S
O16 Mg17 2.028 1_565 S
O16 C18 1.248 . S
Mg17 O16 2.028 1_545 S
Mg17 O22 2.032 . S
Mg17 O24 2.079 . S
C18 O15 1.250 . S
C18 O16 1.248 . S
C19 O20 1.264 . S
C19 O27 1.249 . S
O20 C19 1.264 . S
O21 Mg14 1.986 . S
O21 C25 1.246 . S
O22 Mg17 2.032 . S
O22 C25 1.259 . S
O23 Mg14 2.114 . S
O23 C26 1.252 . S
O24 Mg14 2.251 . S
O24 Mg17 2.079 . S
O24 C26 1.273 . S
C25 O21 1.246 . S
C25 O22 1.259 . S
C26 O23 1.252 . S
C26 O24 1.273 . S
O27 Mg14 2.010 . S
O27 C19 1.249 . S
Mg28 O29 2.028 1_655 S
Mg28 O35 1.986 . S
Mg28 O37 2.114 . S
Mg28 O38 2.251 . S
Mg28 O41 2.010 . S
O29 Mg28 2.028 1_455 S
O29 C32 1.250 . S
O30 Mg31 2.028 1_455 S
O30 C32 1.248 . S
Mg31 O30 2.028 1_655 S
Mg31 O36 2.032 . S
Mg31 O38 2.079 . S
C32 O29 1.250 . S
C32 O30 1.248 . S
C33 O34 1.264 . S
C33 O41 1.249 . S
O34 C33 1.264 . S
O35 Mg28 1.986 . S
O35 C39 1.246 . S
O36 Mg31 2.032 . S
O36 C39 1.259 . S
O37 Mg28 2.114 . S
O37 C40 1.252 . S
O38 Mg28 2.251 . S
O38 Mg31 2.079 . S
O38 C40 1.273 . S
C39 O35 1.246 . S
C39 O36 1.259 . S
C40 O37 1.252 . S
C40 O38 1.273 . S
O41 Mg28 2.010 . S
O41 C33 1.249 . S
Mg42 O43 2.028 1_565 S
Mg42 O49 1.986 . S
Mg42 O51 2.114 . S
Mg42 O52 2.251 . S
Mg42 O55 2.010 . S
O43 Mg42 2.028 1_545 S
O43 C46 1.250 . S
O44 Mg45 2.028 1_545 S
O44 C46 1.248 . S
Mg45 O44 2.028 1_565 S
Mg45 O50 2.032 . S
Mg45 O52 2.079 . S
C46 O43 1.250 . S
C46 O44 1.248 . S
C47 O48 1.264 . S
C47 O55 1.249 . S
O48 C47 1.264 . S
O49 Mg42 1.986 . S
O49 C53 1.246 . S
O50 Mg45 2.032 . S
O50 C53 1.259 . S
O51 Mg42 2.114 . S
O51 C54 1.252 . S
O52 Mg42 2.251 . S
O52 Mg45 2.079 . S
O52 C54 1.273 . S
C53 O49 1.246 . S
C53 O50 1.259 . S
C54 O51 1.252 . S
C54 O52 1.273 . S
O55 Mg42 2.010 . S
O55 C47 1.249 . S
Mg56 O57 2.028 1_455 S
Mg56 O63 1.986 . S
Mg56 O65 2.114 . S
Mg56 O66 2.251 . S
Mg56 O69 2.010 . S
O57 Mg56 2.028 1_655 S
O57 C60 1.250 . S
O58 Mg59 2.028 1_655 S
O58 C60 1.248 . S
Mg59 O58 2.028 1_455 S
Mg59 O64 2.032 . S
Mg59 O66 2.079 . S
C60 O57 1.250 . S
C60 O58 1.248 . S
C61 O62 1.264 . S
C61 O69 1.249 . S
O62 C61 1.264 . S
O63 Mg56 1.986 . S
O63 C67 1.246 . S
O64 Mg59 2.032 . S
O64 C67 1.259 . S
O65 Mg56 2.114 . S
O65 C68 1.252 . S
O66 Mg56 2.251 . S
O66 Mg59 2.079 . S
O66 C68 1.273 . S
C67 O63 1.246 . S
C67 O64 1.259 . S
C68 O65 1.252 . S
C68 O66 1.273 . S
O69 Mg56 2.010 . S
O69 C61 1.249 . S
Mg70 O71 2.028 1_545 S
Mg70 O77 1.986 . S
Mg70 O79 2.114 . S
Mg70 O80 2.251 . S
Mg70 O83 2.010 . S
O71 Mg70 2.028 1_565 S
O71 C74 1.250 . S
O72 Mg73 2.028 1_565 S
O72 C74 1.248 . S
Mg73 O72 2.028 1_545 S
Mg73 O78 2.032 . S
Mg73 O80 2.079 . S
C74 O71 1.250 . S
C74 O72 1.248 . S
C75 O76 1.264 . S
C75 O83 1.249 . S
O76 C75 1.264 . S
O77 Mg70 1.986 . S
O77 C81 1.246 . S
O78 Mg73 2.032 . S
O78 C81 1.259 . S
O79 Mg70 2.114 . S
O79 C82 1.252 . S
O80 Mg70 2.251 . S
O80 Mg73 2.079 . S
O80 C82 1.273 . S
C81 O77 1.246 . S
C81 O78 1.259 . S
C82 O79 1.252 . S
C82 O80 1.273 . S
O83 Mg70 2.010 . S
O83 C75 1.249 . S
Mg84 O85 2.028 1_655 S
Mg84 O91 1.986 . S
Mg84 O93 2.114 . S
Mg84 O94 2.251 . S
Mg84 O97 2.010 . S
O85 Mg84 2.028 1_455 S
O85 C88 1.250 . S
O86 Mg87 2.028 1_455 S
O86 C88 1.248 . S
Mg87 O86 2.028 1_655 S
Mg87 O92 2.032 . S
Mg87 O94 2.079 . S
C88 O85 1.250 . S
C88 O86 1.248 . S
C89 O90 1.264 . S
C89 O97 1.249 . S
O90 C89 1.264 . S
O91 Mg84 1.986 . S
O91 C95 1.246 . S
O92 Mg87 2.032 . S
O92 C95 1.259 . S
O93 Mg84 2.114 . S
O93 C96 1.252 . S
O94 Mg84 2.251 . S
O94 Mg87 2.079 . S
O94 C96 1.273 . S
C95 O91 1.246 . S
C95 O92 1.259 . S
C96 O93 1.252 . S
C96 O94 1.273 . S
O97 Mg84 2.010 . S
O97 C89 1.249 . S
Mg98 O99 2.028 1_565 S
Mg98 O105 1.986 . S
Mg98 O107 2.114 . S
Mg98 O108 2.251 . S
Mg98 O111 2.010 . S
O99 Mg98 2.028 1_545 S
O99 C102 1.250 . S
O100 Mg101 2.028 1_545 S
O100 C102 1.248 . S
Mg101 O100 2.028 1_565 S
Mg101 O106 2.032 . S
Mg101 O108 2.079 . S
C102 O99 1.250 . S
C102 O100 1.248 . S
C103 O104 1.264 . S
C103 O111 1.249 . S
O104 C103 1.264 . S
O105 Mg98 1.986 . S
O105 C109 1.246 . S
O106 Mg101 2.032 . S
O106 C109 1.259 . S
O107 Mg98 2.114 . S
O107 C110 1.252 . S
O108 Mg98 2.251 . S
O108 Mg101 2.079 . S
O108 C110 1.273 . S
C109 O105 1.246 . S
C109 O106 1.259 . S
C110 O107 1.252 . S
C110 O108 1.273 . S
O111 Mg98 2.010 . S
O111 C103 1.249 . S
Mg112 O113 2.028 . S
Mg112 O119 1.986 . S
Mg112 O121 2.114 . S
Mg112 O122 2.251 . S
Mg112 O125 2.010 . S
O113 Mg112 2.028 . S
O113 C116 1.250 . S
O114 Mg115 2.028 . S
O114 C116 1.248 . S
Mg115 O114 2.028 . S
Mg115 O120 2.032 . S
Mg115 O122 2.079 . S
C116 O113 1.250 . S
C116 O114 1.248 . S
C117 O118 1.264 . S
C117 O125 1.249 . S
O118 C117 1.264 . S
O119 Mg112 1.986 . S
O119 C123 1.246 . S
O120 Mg115 2.032 . S
O120 C123 1.259 . S
O121 Mg112 2.114 . S
O121 C124 1.252 . S
O122 Mg112 2.251 . S
O122 Mg115 2.079 . S
O122 C124 1.273 . S
C123 O119 1.246 . S
C123 O120 1.259 . S
C124 O121 1.252 . S
C124 O122 1.273 . S
O125 Mg112 2.010 . S
O125 C117 1.249 . S
Mg126 O127 2.028 . S
Mg126 O133 1.986 . S
Mg126 O135 2.114 . S
Mg126 O136 2.251 . S
Mg126 O139 2.010 . S
O127 Mg126 2.028 . S
O127 C130 1.250 . S
O128 Mg129 2.028 . S
O128 C130 1.248 . S
Mg129 O128 2.028 . S
Mg129 O134 2.032 . S
Mg129 O136 2.079 . S
C130 O127 1.250 . S
C130 O128 1.248 . S
C131 O132 1.264 . S
C131 O139 1.249 . S
O132 C131 1.264 . S
O133 Mg126 1.986 . S
O133 C137 1.246 . S
O134 Mg129 2.032 . S
O134 C137 1.259 . S
O135 Mg126 2.114 . S
O135 C138 1.252 . S
O136 Mg126 2.251 . S
O136 Mg129 2.079 . S
O136 C138 1.273 . S
C137 O133 1.246 . S
C137 O134 1.259 . S
C138 O135 1.252 . S
C138 O136 1.273 . S
O139 Mg126 2.010 . S
O139 C131 1.249 . S
Mg140 O141 2.028 . S
Mg140 O147 1.986 . S
Mg140 O149 2.114 . S
Mg140 O150 2.251 . S
Mg140 O153 2.010 . S
O141 Mg140 2.028 . S
O141 C144 1.250 . S
O142 Mg143 2.028 . S
O142 C144 1.248 . S
Mg143 O142 2.028 . S
Mg143 O148 2.032 . S
Mg143 O150 2.079 . S
C144 O141 1.250 . S
C144 O142 1.248 . S
C145 O146 1.264 . S
C145 O153 1.249 . S
O146 C145 1.264 . S
O147 Mg140 1.986 . S
O147 C151 1.246 . S
O148 Mg143 2.032 . S
O148 C151 1.259 . S
O149 Mg140 2.114 . S
O149 C152 1.252 . S
O150 Mg140 2.251 . S
O150 Mg143 2.079 . S
O150 C152 1.273 . S
C151 O147 1.246 . S
C151 O148 1.259 . S
C152 O149 1.252 . S
C152 O150 1.273 . S
O153 Mg140 2.010 . S
O153 C145 1.249 . S
Mg154 O155 2.028 . S
Mg154 O161 1.986 . S
Mg154 O163 2.114 . S
Mg154 O164 2.251 . S
Mg154 O167 2.010 . S
O155 Mg154 2.028 . S
O155 C158 1.250 . S
O156 Mg157 2.028 . S
O156 C158 1.248 . S
Mg157 O156 2.028 . S
Mg157 O162 2.032 . S
Mg157 O164 2.079 . S
C158 O155 1.250 . S
C158 O156 1.248 . S
C159 O160 1.264 . S
C159 O167 1.249 . S
O160 C159 1.264 . S
O161 Mg154 1.986 . S
O161 C165 1.246 . S
O162 Mg157 2.032 . S
O162 C165 1.259 . S
O163 Mg154 2.114 . S
O163 C166 1.252 . S
O164 Mg154 2.251 . S
O164 Mg157 2.079 . S
O164 C166 1.273 . S
C165 O161 1.246 . S
C165 O162 1.259 . S
C166 O163 1.252 . S
C166 O164 1.273 . S
O167 Mg154 2.010 . S
O167 C159 1.249 . S
Mg168 O169 2.028 . S
Mg168 O175 1.986 . S
Mg168 O177 2.114 . S
Mg168 O178 2.251 . S
Mg168 O181 2.010 . S
O169 Mg168 2.028 . S
O169 C172 1.250 . S
O170 Mg171 2.028 . S
O170 C172 1.248 . S
Mg171 O170 2.028 . S
Mg171 O176 2.032 . S
Mg171 O178 2.079 . S
C172 O169 1.250 . S
C172 O170 1.248 . S
C173 O174 1.264 . S
C173 O181 1.249 . S
O174 C173 1.264 . S
O175 Mg168 1.986 . S
O175 C179 1.246 . S
O176 Mg171 2.032 . S
O176 C179 1.259 . S
O177 Mg168 2.114 . S
O177 C180 1.252 . S
O178 Mg168 2.251 . S
O178 Mg171 2.079 . S
O178 C180 1.273 . S
C179 O175 1.246 . S
C179 O176 1.259 . S
C180 O177 1.252 . S
C180 O178 1.273 . S
O181 Mg168 2.010 . S
O181 C173 1.249 . S
Mg182 O183 2.028 . S
Mg182 O189 1.986 . S
Mg182 O191 2.114 . S
Mg182 O192 2.251 . S
Mg182 O195 2.010 . S
O183 Mg182 2.028 . S
O183 C186 1.250 . S
O184 Mg185 2.028 . S
O184 C186 1.248 . S
Mg185 O184 2.028 . S
Mg185 O190 2.032 . S
Mg185 O192 2.079 . S
C186 O183 1.250 . S
C186 O184 1.248 . S
C187 O188 1.264 . S
C187 O195 1.249 . S
O188 C187 1.264 . S
O189 Mg182 1.986 . S
O189 C193 1.246 . S
O190 Mg185 2.032 . S
O190 C193 1.259 . S
O191 Mg182 2.114 . S
O191 C194 1.252 . S
O192 Mg182 2.251 . S
O192 Mg185 2.079 . S
O192 C194 1.273 . S
C193 O189 1.246 . S
C193 O190 1.259 . S
C194 O191 1.252 . S
C194 O192 1.273 . S
O195 Mg182 2.010 . S
O195 C187 1.249 . S
Mg196 O197 2.028 . S
Mg196 O203 1.986 . S
Mg196 O205 2.114 . S
Mg196 O206 2.251 . S
Mg196 O209 2.010 . S
O197 Mg196 2.028 . S
O197 C200 1.250 . S
O198 Mg199 2.028 . S
O198 C200 1.248 . S
Mg199 O198 2.028 . S
Mg199 O204 2.032 . S
Mg199 O206 2.079 . S
C200 O197 1.250 . S
C200 O198 1.248 . S
C201 O202 1.264 . S
C201 O209 1.249 . S
O202 C201 1.264 . S
O203 Mg196 1.986 . S
O203 C207 1.246 . S
O204 Mg199 2.032 . S
O204 C207 1.259 . S
O205 Mg196 2.114 . S
O205 C208 1.252 . S
O206 Mg196 2.251 . S
O206 Mg199 2.079 . S
O206 C208 1.273 . S
C207 O203 1.246 . S
C207 O204 1.259 . S
C208 O205 1.252 . S
C208 O206 1.273 . S
O209 Mg196 2.010 . S
O209 C201 1.249 . S
Mg210 O211 2.028 . S
Mg210 O217 1.986 . S
Mg210 O219 2.114 . S
Mg210 O220 2.251 . S
Mg210 O223 2.010 . S
O211 Mg210 2.028 . S
O211 C214 1.250 . S
O212 Mg213 2.028 . S
O212 C214 1.248 . S
Mg213 O212 2.028 . S
Mg213 O218 2.032 . S
Mg213 O220 2.079 . S
C214 O211 1.250 . S
C214 O212 1.248 . S
C215 O216 1.264 . S
C215 O223 1.249 . S
O216 C215 1.264 . S
O217 Mg210 1.986 . S
O217 C221 1.246 . S
O218 Mg213 2.032 . S
O218 C221 1.259 . S
O219 Mg210 2.114 . S
O219 C222 1.252 . S
O220 Mg210 2.251 . S
O220 Mg213 2.079 . S
O220 C222 1.273 . S
C221 O217 1.246 . S
C221 O218 1.259 . S
C222 O219 1.252 . S
C222 O220 1.273 . S
O223 Mg210 2.010 . S
O223 C215 1.249 . S
H224 C232 0.950 . S
H225 C237 0.950 . S
H226 C234 0.950 . S
H227 C236 0.950 . S
H228 C238 0.950 . S
H229 C240 0.950 . S
H230 C242 0.950 . S
H231 C243 0.950 . S
C232 H224 0.950 . S
C232 C233 1.386 . S
C232 C234 1.391 . S
C233 C232 1.386 . S
C233 C237 1.393 . S
C234 H226 0.950 . S
C234 C232 1.391 . S
C234 C235 1.400 . S
C235 C234 1.400 . S
C235 C236 1.398 . S
C235 C241 1.491 . S
C236 H227 0.950 . S
C236 C235 1.398 . S
C236 C237 1.391 . S
C237 H225 0.950 . S
C237 C233 1.393 . S
C237 C236 1.391 . S
C238 H228 0.950 . S
C238 C239 1.386 . S
C238 C240 1.391 . S
C239 C238 1.386 . S
C239 C243 1.393 . S
C240 H229 0.950 . S
C240 C238 1.391 . S
C240 C241 1.400 . S
C241 C235 1.491 . S
C241 C240 1.400 . S
C241 C242 1.398 . S
C242 H230 0.950 . S
C242 C241 1.398 . S
C242 C243 1.391 . S
C243 H231 0.950 . S
C243 C239 1.393 . S
C243 C242 1.391 . S
H244 C252 0.950 . S
H245 C257 0.950 . S
H246 C254 0.950 . S
H247 C256 0.950 . S
H248 C258 0.950 . S
H249 C260 0.950 . S
H250 C262 0.950 . S
H251 C263 0.950 . S
C252 H244 0.950 . S
C252 C253 1.386 . S
C252 C254 1.391 . S
C253 C252 1.386 . S
C253 C257 1.393 . S
C254 H246 0.950 . S
C254 C252 1.391 . S
C254 C255 1.400 . S
C255 C254 1.400 . S
C255 C256 1.398 . S
C255 C261 1.491 . S
C256 H247 0.950 . S
C256 C255 1.398 . S
C256 C257 1.391 . S
C257 H245 0.950 . S
C257 C253 1.393 . S
C257 C256 1.391 . S
C258 H248 0.950 . S
C258 C259 1.386 . S
C258 C260 1.391 . S
C259 C258 1.386 . S
C259 C263 1.393 . S
C260 H249 0.950 . S
C260 C258 1.391 . S
C260 C261 1.400 . S
C261 C255 1.491 . S
C261 C260 1.400 . S
C261 C262 1.398 . S
C262 H250 0.950 . S
C262 C261 1.398 . S
C262 C263 1.391 . S
C263 H251 0.950 . S
C263 C259 1.393 . S
C263 C262 1.391 . S
H264 C272 0.950 . S
H265 C277 0.950 . S
H266 C274 0.950 . S
H267 C276 0.950 . S
H268 C278 0.950 . S
H269 C280 0.950 . S
H270 C282 0.950 . S
H271 C283 0.950 . S
C272 H264 0.950 . S
C272 C273 1.386 . S
C272 C274 1.391 . S
C273 C272 1.386 . S
C273 C277 1.393 . S
C274 H266 0.950 . S
C274 C272 1.391 . S
C274 C275 1.400 . S
C275 C274 1.400 . S
C275 C276 1.398 . S
C275 C281 1.491 . S
C276 H267 0.950 . S
C276 C275 1.398 . S
C276 C277 1.391 . S
C277 H265 0.950 . S
C277 C273 1.393 . S
C277 C276 1.391 . S
C278 H268 0.950 . S
C278 C279 1.386 . S
C278 C280 1.391 . S
C279 C278 1.386 . S
C279 C283 1.393 . S
C280 H269 0.950 . S
C280 C278 1.391 . S
C280 C281 1.400 . S
C281 C275 1.491 . S
C281 C280 1.400 . S
C281 C282 1.398 . S
C282 H270 0.950 . S
C282 C281 1.398 . S
C282 C283 1.391 . S
C283 H271 0.950 . S
C283 C279 1.393 . S
C283 C282 1.391 . S
H284 C292 0.950 . S
H285 C297 0.950 . S
H286 C294 0.950 . S
H287 C296 0.950 . S
H288 C298 0.950 . S
H289 C300 0.950 . S
H290 C302 0.950 . S
H291 C303 0.950 . S
C292 H284 0.950 . S
C292 C293 1.386 . S
C292 C294 1.391 . S
C293 C292 1.386 . S
C293 C297 1.393 . S
C294 H286 0.950 . S
C294 C292 1.391 . S
C294 C295 1.400 . S
C295 C294 1.400 . S
C295 C296 1.398 . S
C295 C301 1.491 . S
C296 H287 0.950 . S
C296 C295 1.398 . S
C296 C297 1.391 . S
C297 H285 0.950 . S
C297 C293 1.393 . S
C297 C296 1.391 . S
C298 H288 0.950 . S
C298 C299 1.386 . S
C298 C300 1.391 . S
C299 C298 1.386 . S
C299 C303 1.393 . S
C300 H289 0.950 . S
C300 C298 1.391 . S
C300 C301 1.400 . S
C301 C295 1.491 . S
C301 C300 1.400 . S
C301 C302 1.398 . S
C302 H290 0.950 . S
C302 C301 1.398 . S
C302 C303 1.391 . S
C303 H291 0.950 . S
C303 C299 1.393 . S
C303 C302 1.391 . S
H304 C312 0.950 . S
H305 C317 0.950 . S
H306 C314 0.950 . S
H307 C316 0.950 . S
H308 C318 0.950 . S
H309 C320 0.950 . S
H310 C322 0.950 . S
H311 C323 0.950 . S
C312 H304 0.950 . S
C312 C313 1.386 . S
C312 C314 1.391 . S
C313 C312 1.386 . S
C313 C317 1.393 . S
C314 H306 0.950 . S
C314 C312 1.391 . S
C314 C315 1.400 . S
C315 C314 1.400 . S
C315 C316 1.398 . S
C315 C321 1.491 . S
C316 H307 0.950 . S
C316 C315 1.398 . S
C316 C317 1.391 . S
C317 H305 0.950 . S
C317 C313 1.393 . S
C317 C316 1.391 . S
C318 H308 0.950 . S
C318 C319 1.386 . S
C318 C320 1.391 . S
C319 C318 1.386 . S
C319 C323 1.393 . S
C320 H309 0.950 . S
C320 C318 1.391 . S
C320 C321 1.400 . S
C321 C315 1.491 . S
C321 C320 1.400 . S
C321 C322 1.398 . S
C322 H310 0.950 . S
C322 C321 1.398 . S
C322 C323 1.391 . S
C323 H311 0.950 . S
C323 C319 1.393 . S
C323 C322 1.391 . S
H324 C332 0.950 . S
H325 C337 0.950 . S
H326 C334 0.950 . S
H327 C336 0.950 . S
H328 C338 0.950 . S
H329 C340 0.950 . S
H330 C342 0.950 . S
H331 C343 0.950 . S
C332 H324 0.950 . S
C332 C333 1.386 . S
C332 C334 1.391 . S
C333 C332 1.386 . S
C333 C337 1.393 . S
C334 H326 0.950 . S
C334 C332 1.391 . S
C334 C335 1.400 . S
C335 C334 1.400 . S
C335 C336 1.398 . S
C335 C341 1.491 . S
C336 H327 0.950 . S
C336 C335 1.398 . S
C336 C337 1.391 . S
C337 H325 0.950 . S
C337 C333 1.393 . S
C337 C336 1.391 . S
C338 H328 0.950 . S
C338 C339 1.386 . S
C338 C340 1.391 . S
C339 C338 1.386 . S
C339 C343 1.393 . S
C340 H329 0.950 . S
C340 C338 1.391 . S
C340 C341 1.400 . S
C341 C335 1.491 . S
C341 C340 1.400 . S
C341 C342 1.398 . S
C342 H330 0.950 . S
C342 C341 1.398 . S
C342 C343 1.391 . S
C343 H331 0.950 . S
C343 C339 1.393 . S
C343 C342 1.391 . S
H344 C352 0.950 . S
H345 C357 0.950 . S
H346 C354 0.950 . S
H347 C356 0.950 . S
H348 C358 0.950 . S
H349 C360 0.950 . S
H350 C362 0.950 . S
H351 C363 0.950 . S
C352 H344 0.950 . S
C352 C353 1.386 . S
C352 C354 1.391 . S
C353 C352 1.386 . S
C353 C357 1.393 . S
C354 H346 0.950 . S
C354 C352 1.391 . S
C354 C355 1.400 . S
C355 C354 1.400 . S
C355 C356 1.398 . S
C355 C361 1.491 . S
C356 H347 0.950 . S
C356 C355 1.398 . S
C356 C357 1.391 . S
C357 H345 0.950 . S
C357 C353 1.393 . S
C357 C356 1.391 . S
C358 H348 0.950 . S
C358 C359 1.386 . S
C358 C360 1.391 . S
C359 C358 1.386 . S
C359 C363 1.393 . S
C360 H349 0.950 . S
C360 C358 1.391 . S
C360 C361 1.400 . S
C361 C355 1.491 . S
C361 C360 1.400 . S
C361 C362 1.398 . S
C362 H350 0.950 . S
C362 C361 1.398 . S
C362 C363 1.391 . S
C363 H351 0.950 . S
C363 C359 1.393 . S
C363 C362 1.391 . S
H364 C372 0.950 . S
H365 C377 0.950 . S
H366 C374 0.950 . S
H367 C376 0.950 . S
H368 C378 0.950 . S
H369 C380 0.950 . S
H370 C382 0.950 . S
H371 C383 0.950 . S
C372 H364 0.950 . S
C372 C373 1.386 . S
C372 C374 1.391 . S
C373 C372 1.386 . S
C373 C377 1.393 . S
C374 H366 0.950 . S
C374 C372 1.391 . S
C374 C375 1.400 . S
C375 C374 1.400 . S
C375 C376 1.398 . S
C375 C381 1.491 . S
C376 H367 0.950 . S
C376 C375 1.398 . S
C376 C377 1.391 . S
C377 H365 0.950 . S
C377 C373 1.393 . S
C377 C376 1.391 . S
C378 H368 0.950 . S
C378 C379 1.386 . S
C378 C380 1.391 . S
C379 C378 1.386 . S
C379 C383 1.393 . S
C380 H369 0.950 . S
C380 C378 1.391 . S
C380 C381 1.400 . S
C381 C375 1.491 . S
C381 C380 1.400 . S
C381 C382 1.398 . S
C382 H370 0.950 . S
C382 C381 1.398 . S
C382 C383 1.391 . S
C383 H371 0.950 . S
C383 C379 1.393 . S
C383 C382 1.391 . S
H384 C392 0.950 . S
H385 C397 0.950 . S
H386 C394 0.950 . S
H387 C396 0.950 . S
H388 C398 0.950 . S
H389 C400 0.950 . S
H390 C402 0.950 . S
H391 C403 0.950 . S
C392 H384 0.950 . S
C392 C393 1.386 . S
C392 C394 1.391 . S
C393 C392 1.386 . S
C393 C397 1.393 . S
C394 H386 0.950 . S
C394 C392 1.391 . S
C394 C395 1.400 . S
C395 C394 1.400 . S
C395 C396 1.398 . S
C395 C401 1.491 . S
C396 H387 0.950 . S
C396 C395 1.398 . S
C396 C397 1.391 . S
C397 H385 0.950 . S
C397 C393 1.393 . S
C397 C396 1.391 . S
C398 H388 0.950 . S
C398 C399 1.386 . S
C398 C400 1.391 . S
C399 C398 1.386 . S
C399 C403 1.393 . S
C400 H389 0.950 . S
C400 C398 1.391 . S
C400 C401 1.400 . S
C401 C395 1.491 . S
C401 C400 1.400 . S
C401 C402 1.398 . S
C402 H390 0.950 . S
C402 C401 1.398 . S
C402 C403 1.391 . S
C403 H391 0.950 . S
C403 C399 1.393 . S
C403 C402 1.391 . S
H404 C412 0.950 . S
H405 C417 0.950 . S
H406 C414 0.950 . S
H407 C416 0.950 . S
H408 C418 0.950 . S
H409 C420 0.950 . S
H410 C422 0.950 . S
H411 C423 0.950 . S
C412 H404 0.950 . S
C412 C413 1.386 . S
C412 C414 1.391 . S
C413 C412 1.386 . S
C413 C417 1.393 . S
C414 H406 0.950 . S
C414 C412 1.391 . S
C414 C415 1.400 . S
C415 C414 1.400 . S
C415 C416 1.398 . S
C415 C421 1.491 . S
C416 H407 0.950 . S
C416 C415 1.398 . S
C416 C417 1.391 . S
C417 H405 0.950 . S
C417 C413 1.393 . S
C417 C416 1.391 . S
C418 H408 0.950 . S
C418 C419 1.386 . S
C418 C420 1.391 . S
C419 C418 1.386 . S
C419 C423 1.393 . S
C420 H409 0.950 . S
C420 C418 1.391 . S
C420 C421 1.400 . S
C421 C415 1.491 . S
C421 C420 1.400 . S
C421 C422 1.398 . S
C422 H410 0.950 . S
C422 C421 1.398 . S
C422 C423 1.391 . S
C423 H411 0.950 . S
C423 C419 1.393 . S
C423 C422 1.391 . S
H424 C432 0.950 . S
H425 C437 0.950 . S
H426 C434 0.950 . S
H427 C436 0.950 . S
H428 C438 0.950 . S
H429 C440 0.950 . S
H430 C442 0.950 . S
H431 C443 0.950 . S
C432 H424 0.950 . S
C432 C433 1.386 . S
C432 C434 1.391 . S
C433 C432 1.386 . S
C433 C437 1.393 . S
C434 H426 0.950 . S
C434 C432 1.391 . S
C434 C435 1.400 . S
C435 C434 1.400 . S
C435 C436 1.398 . S
C435 C441 1.491 . S
C436 H427 0.950 . S
C436 C435 1.398 . S
C436 C437 1.391 . S
C437 H425 0.950 . S
C437 C433 1.393 . S
C437 C436 1.391 . S
C438 H428 0.950 . S
C438 C439 1.386 . S
C438 C440 1.391 . S
C439 C438 1.386 . S
C439 C443 1.393 . S
C440 H429 0.950 . S
C440 C438 1.391 . S
C440 C441 1.400 . S
C441 C435 1.491 . S
C441 C440 1.400 . S
C441 C442 1.398 . S
C442 H430 0.950 . S
C442 C441 1.398 . S
C442 C443 1.391 . S
C443 H431 0.950 . S
C443 C439 1.393 . S
C443 C442 1.391 . S
H444 C452 0.950 . S
H445 C457 0.950 . S
H446 C454 0.950 . S
H447 C456 0.950 . S
H448 C458 0.950 . S
H449 C460 0.950 . S
H450 C462 0.950 . S
H451 C463 0.950 . S
C452 H444 0.950 . S
C452 C453 1.386 . S
C452 C454 1.391 . S
C453 C452 1.386 . S
C453 C457 1.393 . S
C454 H446 0.950 . S
C454 C452 1.391 . S
C454 C455 1.400 . S
C455 C454 1.400 . S
C455 C456 1.398 . S
C455 C461 1.491 . S
C456 H447 0.950 . S
C456 C455 1.398 . S
C456 C457 1.391 . S
C457 H445 0.950 . S
C457 C453 1.393 . S
C457 C456 1.391 . S
C458 H448 0.950 . S
C458 C459 1.386 . S
C458 C460 1.391 . S
C459 C458 1.386 . S
C459 C463 1.393 . S
C460 H449 0.950 . S
C460 C458 1.391 . S
C460 C461 1.400 . S
C461 C455 1.491 . S
C461 C460 1.400 . S
C461 C462 1.398 . S
C462 H450 0.950 . S
C462 C461 1.398 . S
C462 C463 1.391 . S
C463 H451 0.950 . S
C463 C459 1.393 . S
C463 C462 1.391 . S
H464 C472 0.950 . S
H465 C477 0.950 . S
H466 C474 0.950 . S
H467 C476 0.950 . S
H468 C478 0.950 . S
H469 C480 0.950 . S
H470 C482 0.950 . S
H471 C483 0.950 . S
C472 H464 0.950 . S
C472 C473 1.386 . S
C472 C474 1.391 . S
C473 C472 1.386 . S
C473 C477 1.393 . S
C474 H466 0.950 . S
C474 C472 1.391 . S
C474 C475 1.400 . S
C475 C474 1.400 . S
C475 C476 1.398 . S
C475 C481 1.491 . S
C476 H467 0.950 . S
C476 C475 1.398 . S
C476 C477 1.391 . S
C477 H465 0.950 . S
C477 C473 1.393 . S
C477 C476 1.391 . S
C478 H468 0.950 . S
C478 C479 1.386 . S
C478 C480 1.391 . S
C479 C478 1.386 . S
C479 C483 1.393 . S
C480 H469 0.950 . S
C480 C478 1.391 . S
C480 C481 1.400 . S
C481 C475 1.491 . S
C481 C480 1.400 . S
C481 C482 1.398 . S
C482 H470 0.950 . S
C482 C481 1.398 . S
C482 C483 1.391 . S
C483 H471 0.950 . S
C483 C479 1.393 . S
C483 C482 1.391 . S
H484 C492 0.950 . S
H485 C497 0.950 . S
H486 C494 0.950 . S
H487 C496 0.950 . S
H488 C498 0.950 . S
H489 C500 0.950 . S
H490 C502 0.950 . S
H491 C503 0.950 . S
C492 H484 0.950 . S
C492 C493 1.386 . S
C492 C494 1.391 . S
C493 C492 1.386 . S
C493 C497 1.393 . S
C494 H486 0.950 . S
C494 C492 1.391 . S
C494 C495 1.400 . S
C495 C494 1.400 . S
C495 C496 1.398 . S
C495 C501 1.491 . S
C496 H487 0.950 . S
C496 C495 1.398 . S
C496 C497 1.391 . S
C497 H485 0.950 . S
C497 C493 1.393 . S
C497 C496 1.391 . S
C498 H488 0.950 . S
C498 C499 1.386 . S
C498 C500 1.391 . S
C499 C498 1.386 . S
C499 C503 1.393 . S
C500 H489 0.950 . S
C500 C498 1.391 . S
C500 C501 1.400 . S
C501 C495 1.491 . S
C501 C500 1.400 . S
C501 C502 1.398 . S
C502 H490 0.950 . S
C502 C501 1.398 . S
C502 C503 1.391 . S
C503 H491 0.950 . S
C503 C499 1.393 . S
C503 C502 1.391 . S
H504 C512 0.950 . S
H505 C517 0.950 . S
H506 C514 0.950 . S
H507 C516 0.950 . S
H508 C518 0.950 . S
H509 C520 0.950 . S
H510 C522 0.950 . S
H511 C523 0.950 . S
C512 H504 0.950 . S
C512 C513 1.386 . S
C512 C514 1.391 . S
C513 C512 1.386 . S
C513 C517 1.393 . S
C514 H506 0.950 . S
C514 C512 1.391 . S
C514 C515 1.400 . S
C515 C514 1.400 . S
C515 C516 1.398 . S
C515 C521 1.491 . S
C516 H507 0.950 . S
C516 C515 1.398 . S
C516 C517 1.391 . S
C517 H505 0.950 . S
C517 C513 1.393 . S
C517 C516 1.391 . S
C518 H508 0.950 . S
C518 C519 1.386 . S
C518 C520 1.391 . S
C519 C518 1.386 . S
C519 C523 1.393 . S
C520 H509 0.950 . S
C520 C518 1.391 . S
C520 C521 1.400 . S
C521 C515 1.491 . S
C521 C520 1.400 . S
C521 C522 1.398 . S
C522 H510 0.950 . S
C522 C521 1.398 . S
C522 C523 1.391 . S
C523 H511 0.950 . S
C523 C519 1.393 . S
C523 C522 1.391 . S
H524 C532 0.950 . S
H525 C537 0.950 . S
H526 C534 0.950 . S
H527 C536 0.950 . S
H528 C538 0.950 . S
H529 C540 0.950 . S
H530 C542 0.950 . S
H531 C543 0.950 . S
C532 H524 0.950 . S
C532 C533 1.386 . S
C532 C534 1.391 . S
C533 C532 1.386 . S
C533 C537 1.393 . S
C534 H526 0.950 . S
C534 C532 1.391 . S
C534 C535 1.400 . S
C535 C534 1.400 . S
C535 C536 1.398 . S
C535 C541 1.491 . S
C536 H527 0.950 . S
C536 C535 1.398 . S
C536 C537 1.391 . S
C537 H525 0.950 . S
C537 C533 1.393 . S
C537 C536 1.391 . S
C538 H528 0.950 . S
C538 C539 1.386 . S
C538 C540 1.391 . S
C539 C538 1.386 . S
C539 C543 1.393 . S
C540 H529 0.950 . S
C540 C538 1.391 . S
C540 C541 1.400 . S
C541 C535 1.491 . S
C541 C540 1.400 . S
C541 C542 1.398 . S
C542 H530 0.950 . S
C542 C541 1.398 . S
C542 C543 1.391 . S
C543 H531 0.950 . S
C543 C539 1.393 . S
C543 C542 1.391 . S
H544 C552 0.950 . S
H545 C557 0.950 1_655 S
H546 C554 0.950 . S
H547 C556 0.950 . S
H548 C558 0.950 . S
H549 C560 0.950 . S
H550 C562 0.950 . S
H551 C563 0.950 . S
C552 H544 0.950 . S
C552 C553 1.386 . S
C552 C554 1.391 . S
C553 C552 1.386 . S
C553 C557 1.393 . S
C554 H546 0.950 . S
C554 C552 1.391 . S
C554 C555 1.400 . S
C555 C554 1.400 . S
C555 C556 1.398 . S
C555 C561 1.491 . S
C556 H547 0.950 . S
C556 C555 1.398 . S
C556 C557 1.391 . S
C557 H545 0.950 1_455 S
C557 C553 1.393 . S
C557 C556 1.391 . S
C558 H548 0.950 . S
C558 C559 1.386 . S
C558 C560 1.391 . S
C559 C558 1.386 . S
C559 C563 1.393 . S
C560 H549 0.950 . S
C560 C558 1.391 . S
C560 C561 1.400 . S
C561 C555 1.491 . S
C561 C560 1.400 . S
C561 C562 1.398 . S
C562 H550 0.950 . S
C562 C561 1.398 . S
C562 C563 1.391 . S
C563 H551 0.950 . S
C563 C559 1.393 . S
C563 C562 1.391 . S
H564 C572 0.950 . S
H565 C577 0.950 1_565 S
H566 C574 0.950 . S
H567 C576 0.950 . S
H568 C578 0.950 . S
H569 C580 0.950 . S
H570 C582 0.950 . S
H571 C583 0.950 . S
C572 H564 0.950 . S
C572 C573 1.386 . S
C572 C574 1.391 . S
C573 C572 1.386 . S
C573 C577 1.393 . S
C574 H566 0.950 . S
C574 C572 1.391 . S
C574 C575 1.400 . S
C575 C574 1.400 . S
C575 C576 1.398 . S
C575 C581 1.491 . S
C576 H567 0.950 . S
C576 C575 1.398 . S
C576 C577 1.391 . S
C577 H565 0.950 1_545 S
C577 C573 1.393 . S
C577 C576 1.391 . S
C578 H568 0.950 . S
C578 C579 1.386 . S
C578 C580 1.391 . S
C579 C578 1.386 . S
C579 C583 1.393 . S
C580 H569 0.950 . S
C580 C578 1.391 . S
C580 C581 1.400 . S
C581 C575 1.491 . S
C581 C580 1.400 . S
C581 C582 1.398 . S
C582 H570 0.950 . S
C582 C581 1.398 . S
C582 C583 1.391 . S
C583 H571 0.950 . S
C583 C579 1.393 . S
C583 C582 1.391 . S
H584 C592 0.950 . S
H585 C597 0.950 . S
H586 C594 0.950 . S
H587 C596 0.950 . S
H588 C598 0.950 . S
H589 C600 0.950 . S
H590 C602 0.950 . S
H591 C603 0.950 1_455 S
C592 H584 0.950 . S
C592 C593 1.386 . S
C592 C594 1.391 . S
C593 C592 1.386 . S
C593 C597 1.393 . S
C594 H586 0.950 . S
C594 C592 1.391 . S
C594 C595 1.400 . S
C595 C594 1.400 . S
C595 C596 1.398 . S
C595 C601 1.491 . S
C596 H587 0.950 . S
C596 C595 1.398 . S
C596 C597 1.391 . S
C597 H585 0.950 . S
C597 C593 1.393 . S
C597 C596 1.391 . S
C598 H588 0.950 . S
C598 C599 1.386 . S
C598 C600 1.391 . S
C599 C598 1.386 . S
C599 C603 1.393 . S
C600 H589 0.950 . S
C600 C598 1.391 . S
C600 C601 1.400 . S
C601 C595 1.491 . S
C601 C600 1.400 . S
C601 C602 1.398 . S
C602 H590 0.950 . S
C602 C601 1.398 . S
C602 C603 1.391 . S
C603 H591 0.950 1_655 S
C603 C599 1.393 . S
C603 C602 1.391 . S
H604 C612 0.950 . S
H605 C617 0.950 . S
H606 C614 0.950 . S
H607 C616 0.950 . S
H608 C618 0.950 . S
H609 C620 0.950 . S
H610 C622 0.950 . S
H611 C623 0.950 . S
C612 H604 0.950 . S
C612 C613 1.386 . S
C612 C614 1.391 . S
C613 C612 1.386 . S
C613 C617 1.393 . S
C614 H606 0.950 . S
C614 C612 1.391 . S
C614 C615 1.400 . S
C615 C614 1.400 . S
C615 C616 1.398 . S
C615 C621 1.491 . S
C616 H607 0.950 . S
C616 C615 1.398 . S
C616 C617 1.391 . S
C617 H605 0.950 . S
C617 C613 1.393 . S
C617 C616 1.391 . S
C618 H608 0.950 . S
C618 C619 1.386 . S
C618 C620 1.391 . S
C619 C618 1.386 . S
C619 C623 1.393 . S
C620 H609 0.950 . S
C620 C618 1.391 . S
C620 C621 1.400 . S
C621 C615 1.491 . S
C621 C620 1.400 . S
C621 C622 1.398 . S
C622 H610 0.950 . S
C622 C621 1.398 . S
C622 C623 1.391 . S
C623 H611 0.950 . S
C623 C619 1.393 . S
C623 C622 1.391 . S
H624 C632 0.950 . S
H625 C637 0.950 . S
H626 C634 0.950 . S
H627 C636 0.950 . S
H628 C638 0.950 . S
H629 C640 0.950 . S
H630 C642 0.950 . S
H631 C643 0.950 . S
C632 H624 0.950 . S
C632 C633 1.386 . S
C632 C634 1.391 . S
C633 C632 1.386 . S
C633 C637 1.393 . S
C634 H626 0.950 . S
C634 C632 1.391 . S
C634 C635 1.400 . S
C635 C634 1.400 . S
C635 C636 1.398 . S
C635 C641 1.491 . S
C636 H627 0.950 . S
C636 C635 1.398 . S
C636 C637 1.391 . S
C637 H625 0.950 . S
C637 C633 1.393 . S
C637 C636 1.391 . S
C638 H628 0.950 . S
C638 C639 1.386 . S
C638 C640 1.391 . S
C639 C638 1.386 . S
C639 C643 1.393 . S
C640 H629 0.950 . S
C640 C638 1.391 . S
C640 C641 1.400 . S
C641 C635 1.491 . S
C641 C640 1.400 . S
C641 C642 1.398 . S
C642 H630 0.950 . S
C642 C641 1.398 . S
C642 C643 1.391 . S
C643 H631 0.950 . S
C643 C639 1.393 . S
C643 C642 1.391 . S
H644 C652 0.950 . S
H645 C657 0.950 . S
H646 C654 0.950 . S
H647 C656 0.950 . S
H648 C658 0.950 1_565 S
H649 C660 0.950 . S
H650 C662 0.950 . S
H651 C663 0.950 . S
C652 H644 0.950 . S
C652 C653 1.386 . S
C652 C654 1.391 . S
C653 C652 1.386 . S
C653 C657 1.393 . S
C654 H646 0.950 . S
C654 C652 1.391 . S
C654 C655 1.400 . S
C655 C654 1.400 . S
C655 C656 1.398 . S
C655 C661 1.491 . S
C656 H647 0.950 . S
C656 C655 1.398 . S
C656 C657 1.391 . S
C657 H645 0.950 . S
C657 C653 1.393 . S
C657 C656 1.391 . S
C658 H648 0.950 1_545 S
C658 C659 1.386 . S
C658 C660 1.391 . S
C659 C658 1.386 . S
C659 C663 1.393 . S
C660 H649 0.950 . S
C660 C658 1.391 . S
C660 C661 1.400 . S
C661 C655 1.491 . S
C661 C660 1.400 . S
C661 C662 1.398 . S
C662 H650 0.950 . S
C662 C661 1.398 . S
C662 C663 1.391 . S
C663 H651 0.950 . S
C663 C659 1.393 . S
C663 C662 1.391 . S
H664 C672 0.950 1_455 S
H665 C677 0.950 . S
H666 C674 0.950 . S
H667 C676 0.950 . S
H668 C678 0.950 . S
H669 C680 0.950 . S
H670 C682 0.950 . S
H671 C683 0.950 . S
C672 H664 0.950 1_655 S
C672 C673 1.386 . S
C672 C674 1.391 . S
C673 C672 1.386 . S
C673 C677 1.393 . S
C674 H666 0.950 . S
C674 C672 1.391 . S
C674 C675 1.400 . S
C675 C674 1.400 . S
C675 C676 1.398 . S
C675 C681 1.491 . S
C676 H667 0.950 . S
C676 C675 1.398 . S
C676 C677 1.391 . S
C677 H665 0.950 . S
C677 C673 1.393 . S
C677 C676 1.391 . S
C678 H668 0.950 . S
C678 C679 1.386 . S
C678 C680 1.391 . S
C679 C678 1.386 . S
C679 C683 1.393 . S
C680 H669 0.950 . S
C680 C678 1.391 . S
C680 C681 1.400 . S
C681 C675 1.491 . S
C681 C680 1.400 . S
C681 C682 1.398 . S
C682 H670 0.950 . S
C682 C681 1.398 . S
C682 C683 1.391 . S
C683 H671 0.950 . S
C683 C679 1.393 . S
C683 C682 1.391 . S
H684 C692 0.950 . S
H685 C697 0.950 . S
H686 C694 0.950 . S
H687 C696 0.950 . S
H688 C698 0.950 . S
H689 C700 0.950 . S
H690 C702 0.950 . S
H691 C703 0.950 . S
C692 H684 0.950 . S
C692 C693 1.386 . S
C692 C694 1.391 . S
C693 C692 1.386 . S
C693 C697 1.393 . S
C694 H686 0.950 . S
C694 C692 1.391 . S
C694 C695 1.400 . S
C695 C694 1.400 . S
C695 C696 1.398 . S
C695 C701 1.491 . S
C696 H687 0.950 . S
C696 C695 1.398 . S
C696 C697 1.391 . S
C697 H685 0.950 . S
C697 C693 1.393 . S
C697 C696 1.391 . S
C698 H688 0.950 . S
C698 C699 1.386 . S
C698 C700 1.391 . S
C699 C698 1.386 . S
C699 C703 1.393 . S
C700 H689 0.950 . S
C700 C698 1.391 . S
C700 C701 1.400 . S
C701 C695 1.491 . S
C701 C700 1.400 . S
C701 C702 1.398 . S
C702 H690 0.950 . S
C702 C701 1.398 . S
C702 C703 1.391 . S
C703 H691 0.950 . S
C703 C699 1.393 . S
C703 C702 1.391 . S
H704 C712 0.950 . S
H705 C717 0.950 . S
H706 C714 0.950 . S
H707 C716 0.950 . S
H708 C718 0.950 . S
H709 C720 0.950 . S
H710 C722 0.950 . S
H711 C723 0.950 . S
C712 H704 0.950 . S
C712 C713 1.386 1_655 S
C712 C714 1.391 . S
C713 C712 1.386 1_455 S
C713 C717 1.393 . S
C714 H706 0.950 . S
C714 C712 1.391 . S
C714 C715 1.389 1_655 S
C715 C714 1.389 1_455 S
C715 C716 1.410 . S
C715 C721 1.490 1_455 S
C716 H707 0.950 . S
C716 C715 1.410 . S
C716 C717 1.391 . S
C717 H705 0.950 . S
C717 C713 1.393 . S
C717 C716 1.391 . S
C718 H708 0.950 . S
C718 C719 1.386 1_455 S
C718 C720 1.391 . S
C719 C718 1.386 1_655 S
C719 C723 1.393 . S
C720 H709 0.950 . S
C720 C718 1.391 . S
C720 C721 1.389 1_455 S
C721 C715 1.490 1_655 S
C721 C720 1.389 1_655 S
C721 C722 1.410 . S
C722 H710 0.950 . S
C722 C721 1.410 . S
C722 C723 1.391 . S
C723 H711 0.950 . S
C723 C719 1.393 . S
C723 C722 1.391 . S
H724 C732 0.950 . S
H725 C737 0.950 . S
H726 C734 0.950 . S
H727 C736 0.950 . S
H728 C738 0.950 . S
H729 C740 0.950 . S
H730 C742 0.950 . S
H731 C743 0.950 . S
C732 H724 0.950 . S
C732 C733 1.386 . S
C732 C734 1.391 . S
C733 C732 1.386 . S
C733 C737 1.393 1_565 S
C734 H726 0.950 . S
C734 C732 1.391 . S
C734 C735 1.400 . S
C735 C734 1.400 . S
C735 C736 1.398 1_565 S
C735 C741 1.491 1_565 S
C736 H727 0.950 . S
C736 C735 1.398 1_545 S
C736 C737 1.391 . S
C737 H725 0.950 . S
C737 C733 1.393 1_545 S
C737 C736 1.391 . S
C738 H728 0.950 . S
C738 C739 1.386 . S
C738 C740 1.391 . S
C739 C738 1.386 . S
C739 C743 1.393 1_545 S
C740 H729 0.950 . S
C740 C738 1.391 . S
C740 C741 1.400 . S
C741 C735 1.491 1_545 S
C741 C740 1.400 . S
C741 C742 1.398 1_545 S
C742 H730 0.950 . S
C742 C741 1.398 1_565 S
C742 C743 1.391 . S
C743 H731 0.950 . S
C743 C739 1.393 1_565 S
C743 C742 1.391 . S
H744 C752 0.949 . S
H745 C757 0.950 . S
H746 C754 0.950 . S
H747 C756 0.950 . S
H748 C758 0.949 . S
H749 C760 0.950 . S
H750 C762 0.950 . S
H751 C763 0.950 . S
C752 H744 0.949 . S
C752 C753 1.386 1_655 S
C752 C754 1.391 . S
C753 C752 1.386 1_455 S
C753 C757 1.393 . S
C754 H746 0.950 . S
C754 C752 1.391 . S
C754 C755 1.400 1_655 S
C755 C754 1.400 1_455 S
C755 C756 1.398 . S
C755 C761 1.491 1_455 S
C756 H747 0.950 . S
C756 C755 1.398 . S
C756 C757 1.391 . S
C757 H745 0.950 . S
C757 C753 1.393 . S
C757 C756 1.391 . S
C758 H748 0.949 . S
C758 C759 1.386 1_455 S
C758 C760 1.391 . S
C759 C758 1.386 1_655 S
C759 C763 1.393 . S
C760 H749 0.950 . S
C760 C758 1.391 . S
C760 C761 1.400 1_455 S
C761 C755 1.491 1_655 S
C761 C760 1.400 1_655 S
C761 C762 1.398 . S
C762 H750 0.950 . S
C762 C761 1.398 . S
C762 C763 1.391 . S
C763 H751 0.950 . S
C763 C759 1.393 . S
C763 C762 1.391 . S
H764 C772 0.950 . S
H765 C777 0.950 . S
H766 C774 0.950 . S
H767 C776 0.950 . S
H768 C778 0.950 . S
H769 C780 0.950 . S
H770 C782 0.950 . S
H771 C783 0.950 . S
C772 H764 0.950 . S
C772 C773 1.386 . S
C772 C774 1.391 . S
C773 C772 1.386 . S
C773 C777 1.393 1_545 S
C774 H766 0.950 . S
C774 C772 1.391 . S
C774 C775 1.400 . S
C775 C774 1.400 . S
C775 C776 1.398 1_545 S
C775 C781 1.491 1_545 S
C776 H767 0.950 . S
C776 C775 1.398 1_565 S
C776 C777 1.391 . S
C777 H765 0.950 . S
C777 C773 1.393 1_565 S
C777 C776 1.391 . S
C778 H768 0.950 . S
C778 C779 1.386 . S
C778 C780 1.391 . S
C779 C778 1.386 . S
C779 C783 1.393 1_565 S
C780 H769 0.950 . S
C780 C778 1.391 . S
C780 C781 1.400 . S
C781 C775 1.491 1_565 S
C781 C780 1.400 . S
C781 C782 1.398 1_565 S
C782 H770 0.950 . S
C782 C781 1.398 1_545 S
C782 C783 1.391 . S
C783 H771 0.950 . S
C783 C779 1.393 1_545 S
C783 C782 1.391 . S
H784 C792 0.950 . S
H785 C797 0.950 . S
H786 C794 0.950 . S
H787 C796 0.950 . S
H788 C798 0.950 . S
H789 C800 0.950 . S
H790 C802 0.950 . S
H791 C803 0.950 . S
C792 H784 0.950 . S
C792 C793 1.386 . S
C792 C794 1.391 . S
C793 C792 1.386 . S
C793 C797 1.393 . S
C794 H786 0.950 . S
C794 C792 1.391 . S
C794 C795 1.400 . S
C795 C794 1.400 . S
C795 C796 1.398 . S
C795 C801 1.491 1_556 S
C796 H787 0.950 . S
C796 C795 1.398 . S
C796 C797 1.391 . S
C797 H785 0.950 . S
C797 C793 1.393 . S
C797 C796 1.391 . S
C798 H788 0.950 . S
C798 C799 1.386 . S
C798 C800 1.391 . S
C799 C798 1.386 . S
C799 C803 1.393 . S
C800 H789 0.950 . S
C800 C798 1.391 . S
C800 C801 1.400 . S
C801 C795 1.491 1_554 S
C801 C800 1.400 . S
C801 C802 1.398 . S
C802 H790 0.950 . S
C802 C801 1.398 . S
C802 C803 1.391 . S
C803 H791 0.950 . S
C803 C799 1.393 . S
C803 C802 1.391 . S
H804 C812 0.950 . S
H805 C817 0.950 . S
H806 C814 0.950 . S
H807 C816 0.950 . S
H808 C818 0.950 . S
H809 C820 0.950 . S
H810 C822 0.950 . S
H811 C823 0.950 . S
C812 H804 0.950 . S
C812 C813 1.386 . S
C812 C814 1.391 . S
C813 C812 1.386 . S
C813 C817 1.393 . S
C814 H806 0.950 . S
C814 C812 1.391 . S
C814 C815 1.400 . S
C815 C814 1.400 . S
C815 C816 1.398 . S
C815 C821 1.491 1_556 S
C816 H807 0.950 . S
C816 C815 1.398 . S
C816 C817 1.391 . S
C817 H805 0.950 . S
C817 C813 1.393 . S
C817 C816 1.391 . S
C818 H808 0.950 . S
C818 C819 1.386 . S
C818 C820 1.391 . S
C819 C818 1.386 . S
C819 C823 1.393 . S
C820 H809 0.950 . S
C820 C818 1.391 . S
C820 C821 1.400 . S
C821 C815 1.491 1_554 S
C821 C820 1.400 . S
C821 C822 1.398 . S
C822 H810 0.950 . S
C822 C821 1.398 . S
C822 C823 1.391 . S
C823 H811 0.950 . S
C823 C819 1.393 . S
C823 C822 1.391 . S
H824 C832 0.950 . S
H825 C837 0.950 . S
H826 C834 0.950 . S
H827 C836 0.950 . S
H828 C838 0.950 . S
H829 C840 0.950 . S
H830 C842 0.950 . S
H831 C843 0.950 . S
C832 H824 0.950 . S
C832 C833 1.386 . S
C832 C834 1.391 . S
C833 C832 1.386 . S
C833 C837 1.393 . S
C834 H826 0.950 . S
C834 C832 1.391 . S
C834 C835 1.400 . S
C835 C834 1.400 . S
C835 C836 1.398 . S
C835 C841 1.491 1_554 S
C836 H827 0.950 . S
C836 C835 1.398 . S
C836 C837 1.391 . S
C837 H825 0.950 . S
C837 C833 1.393 . S
C837 C836 1.391 . S
C838 H828 0.950 . S
C838 C839 1.386 . S
C838 C840 1.391 . S
C839 C838 1.386 . S
C839 C843 1.393 . S
C840 H829 0.950 . S
C840 C838 1.391 . S
C840 C841 1.400 . S
C841 C835 1.491 1_556 S
C841 C840 1.400 . S
C841 C842 1.398 . S
C842 H830 0.950 . S
C842 C841 1.398 . S
C842 C843 1.391 . S
C843 H831 0.950 . S
C843 C839 1.393 . S
C843 C842 1.391 . S
H844 C852 0.950 . S
H845 C857 0.950 . S
H846 C854 0.950 . S
H847 C856 0.950 . S
H848 C858 0.950 . S
H849 C860 0.950 . S
H850 C862 0.950 . S
H851 C863 0.950 . S
C852 H844 0.950 . S
C852 C853 1.386 . S
C852 C854 1.391 . S
C853 C852 1.386 . S
C853 C857 1.393 . S
C854 H846 0.950 . S
C854 C852 1.391 . S
C854 C855 1.400 . S
C855 C854 1.400 . S
C855 C856 1.398 . S
C855 C861 1.491 1_556 S
C856 H847 0.950 . S
C856 C855 1.398 . S
C856 C857 1.391 . S
C857 H845 0.950 . S
C857 C853 1.393 . S
C857 C856 1.391 . S
C858 H848 0.950 . S
C858 C859 1.386 . S
C858 C860 1.391 . S
C859 C858 1.386 . S
C859 C863 1.393 . S
C860 H849 0.950 . S
C860 C858 1.391 . S
C860 C861 1.400 . S
C861 C855 1.491 1_554 S
C861 C860 1.400 . S
C861 C862 1.398 . S
C862 H850 0.950 . S
C862 C861 1.398 . S
C862 C863 1.391 . S
C863 H851 0.950 . S
C863 C859 1.393 . S
C863 C862 1.391 . S
C233 C12 1.452 . S
C239 C46 1.416 . S
C253 C4 1.392 . S
C259 C26 1.449 . S
C273 C18 1.411 . S
C279 C40 1.452 . S
C293 C32 1.390 . S
C299 C54 1.449 . S
C313 C68 1.452 . S
C319 C74 1.408 . S
C333 C82 1.452 . S
C339 C88 1.414 . S
C353 C96 1.452 . S
C359 C102 1.410 . S
C373 C110 1.450 . S
C379 C60 1.391 . S
C393 C124 1.450 . S
C399 C158 1.392 . S
C413 C116 1.400 . S
C419 C138 1.451 . S
C433 C130 1.397 . S
C439 C152 1.449 . S
C453 C166 1.451 . S
C459 C144 1.412 . S
C473 C186 1.391 . S
C479 C180 1.449 . S
C493 C200 1.400 . S
C499 C194 1.451 . S
C513 C208 1.452 . S
C519 C214 1.405 . S
C533 C222 1.451 . S
C539 C172 1.414 . S
C553 C11 0.903 . S
C559 C221 0.909 . S
C573 C25 0.895 . S
C579 C179 0.925 . S
C593 C193 0.909 . S
C599 C39 0.945 . S
C613 C53 0.940 . S
C619 C207 0.899 . S
C633 C137 0.945 . S
C639 C67 0.910 . S
C653 C151 0.916 . S
C659 C81 0.899 . S
C673 C95 0.941 . S
C679 C165 0.926 . S
C693 C109 0.926 . S
C699 C123 0.895 . S
C713 C5 1.169 . S
C719 C89 1.161 . S
C733 C103 1.137 . S
C739 C19 1.145 . S
C753 C61 1.185 . S
C759 C33 1.183 . S
C773 C75 1.182 . S
C779 C47 1.185 . S
C793 C117 1.128 . S
C799 C201 1.127 . S
C813 C131 1.133 . S
C819 C215 1.129 . S
C833 C173 1.134 . S
C839 C145 1.141 . S
C853 C159 1.180 . S
C859 C187 1.183 . S
