# Generated by pormake.
# Topology ukg, (4)-cn, num edge types: 1
# Building blocks:
#     Node 0, Type 0, BuildingBlock: QUQFOY_clean_sbu_3, # of connection points: 4
#     Node 1, Type 0, BuildingBlock: QUQFOY_clean_sbu_3, # of connection points: 4
#     Node 2, Type 0, BuildingBlock: QUQFOY_clean_sbu_3, # of connection points: 4
#     Node 3, Type 0, BuildingBlock: QUQFOY_clean_sbu_3, # of connection points: 4
#     Node 4, Type 0, BuildingBlock: QUQFOY_clean_sbu_3, # of connection points: 4
#     Node 5, Type 0, BuildingBlock: QUQFOY_clean_sbu_3, # of connection points: 4
#     Node 6, Type 0, BuildingBlock: QUQFOY_clean_sbu_3, # of connection points: 4
#     Node 7, Type 0, BuildingBlock: QUQFOY_clean_sbu_3, # of connection points: 4
#     Edge 8, Type (0, 0), BuildingBlock: ZUJKAS_clean_linker_0, # of connection points: 2
#     Edge 9, Type (0, 0), BuildingBlock: ZUJKAS_clean_linker_0, # of connection points: 2
#     Edge 10, Type (0, 0), BuildingBlock: ZUJKAS_clean_linker_0, # of connection points: 2
#     Edge 11, Type (0, 0), BuildingBlock: ZUJKAS_clean_linker_0, # of connection points: 2
#     Edge 12, Type (0, 0), BuildingBlock: ZUJKAS_clean_linker_0, # of connection points: 2
#     Edge 13, Type (0, 0), BuildingBlock: ZUJKAS_clean_linker_0, # of connection points: 2
#     Edge 14, Type (0, 0), BuildingBlock: ZUJKAS_clean_linker_0, # of connection points: 2
#     Edge 15, Type (0, 0), BuildingBlock: ZUJKAS_clean_linker_0, # of connection points: 2
#     Edge 16, Type (0, 0), BuildingBlock: ZUJKAS_clean_linker_0, # of connection points: 2
#     Edge 17, Type (0, 0), BuildingBlock: ZUJKAS_clean_linker_0, # of connection points: 2
#     Edge 18, Type (0, 0), BuildingBlock: ZUJKAS_clean_linker_0, # of connection points: 2
#     Edge 19, Type (0, 0), BuildingBlock: ZUJKAS_clean_linker_0, # of connection points: 2
#     Edge 20, Type (0, 0), BuildingBlock: ZUJKAS_clean_linker_0, # of connection points: 2
#     Edge 21, Type (0, 0), BuildingBlock: ZUJKAS_clean_linker_0, # of connection points: 2
#     Edge 22, Type (0, 0), BuildingBlock: ZUJKAS_clean_linker_0, # of connection points: 2
#     Edge 23, Type (0, 0), BuildingBlock: ZUJKAS_clean_linker_0, # of connection points: 2
# Relax obj value: 0.116
# Max RMSD: 0.204
# Mean RMSD: 0.201
data_MOF--net-ukg--node1-QUQFOY_clean_sbu_3--edge1-ZUJKAS_clean_linker_0
_symmetry_space_group_name_H-M    P1
_symmetry_Int_Tables_number       1
_symmetry_cell_setting            triclinic
loop_
_symmetry_equiv_pos_as_xyz
'x, y, z'
_cell_length_a     40.158274
_cell_length_b     40.342288
_cell_length_c     51.563507
_cell_angle_alpha  90.056573
_cell_angle_beta   90.116923
_cell_angle_gamma 89.927843
loop_
_atom_site_label
_atom_site_type_symbol
_atom_site_fract_x
_atom_site_fract_y
_atom_site_fract_z
_atom_type_partial_charge
C0 C 0.07903 0.64794 0.18511 0.0
O1 O 0.06471 0.64428 0.20686 0.0
Cd2 Cd 0.00565 0.63732 0.21168 0.0
O3 O 0.06256 0.64516 0.16408 0.0
Cd4 Cd 0.00527 0.6324 0.14931 0.0
C5 C 0.98254 0.70568 0.17536 0.0
O6 O -0.01398 0.59501 0.18352 0.0
O7 O 0.94812 0.6178 0.1597 0.0
O8 O 0.02643 0.59114 0.11895 0.0
C9 C 0.95538 0.59771 0.17775 0.0
O10 O 0.98362 0.69042 0.19698 0.0
C11 C 0.01244 0.60328 0.09899 0.0
O12 O -0.00852 0.6915 0.15437 0.0
O13 O -0.00426 0.62977 0.10223 0.0
C14 C 0.30434 0.568 0.67734 0.0
O15 O 0.30705 0.55308 0.69892 0.0
Cd16 Cd 0.3123 0.49401 0.7029 0.0
O17 O 0.30728 0.55207 0.65611 0.0
Cd18 Cd 0.31923 0.4949 0.64088 0.0
C19 C 0.24435 0.47353 0.66466 0.0
O20 O 0.35523 0.47372 0.67558 0.0
O21 O 0.33148 0.43727 0.65111 0.0
O22 O 0.36253 0.51608 0.61242 0.0
C23 C 0.35157 0.44344 0.66949 0.0
O24 O 0.25914 0.47369 0.68655 0.0
C25 C 0.3516 0.50265 0.59182 0.0
O26 O 0.25927 0.48278 0.64407 0.0
O27 O 0.32469 0.48622 0.59375 0.0
C28 C 0.3979 0.80733 0.18717 0.0
O29 O 0.41247 0.81037 0.20893 0.0
Cd30 Cd 0.47092 0.82061 0.21394 0.0
O31 O 0.41361 0.81261 0.16612 0.0
Cd32 Cd 0.46977 0.83002 0.15139 0.0
C33 C 0.4972 0.7564 0.1743 0.0
O34 O 0.48644 0.86582 0.18736 0.0
O35 O 0.52583 0.8494 0.16209 0.0
O36 O 0.44485 0.87111 0.12257 0.0
C37 C 0.5171 0.86652 0.18157 0.0
O38 O 0.49535 0.77003 0.19657 0.0
C39 C 0.45983 0.8615 0.10223 0.0
O40 O 0.48747 0.77158 0.15394 0.0
O41 O 0.4788 0.83639 0.10452 0.0
C42 C 0.16749 0.8967 0.67907 0.0
O43 O 0.16409 0.91102 0.70085 0.0
Cd44 Cd 0.15729 0.96981 0.70546 0.0
O45 O 0.16459 0.91311 0.65807 0.0
Cd46 Cd 0.15176 0.9705 0.64371 0.0
C47 C 0.22575 -0.00764 0.66892 0.0
O48 O 0.11349 -0.01133 0.67809 0.0
O49 O 0.13614 0.02698 0.65496 0.0
O50 O 0.11416 0.94541 0.61189 0.0
C51 C 0.11565 0.01926 0.67259 0.0
O52 O 0.21054 -0.00833 0.69059 0.0
C53 C 0.12273 0.96401 0.59323 0.0
O54 O 0.2113 -0.01668 0.64803 0.0
O55 O 0.1456 -0.015 0.59774 0.0
C56 C 0.94454 0.39134 0.76812 0.0
O57 O 0.91798 0.37689 0.76095 0.0
Cd58 Cd 0.88815 0.3388 0.78853 0.0
O59 O 0.95529 0.38799 0.79123 0.0
Cd60 Cd 0.9415 0.36124 0.83287 0.0
C61 C 0.95547 0.28803 0.80292 0.0
O62 O 0.88076 0.35998 0.83117 0.0
O63 O 0.90457 0.32723 0.85861 0.0
O64 O 0.94805 0.41435 0.85431 0.0
C65 C 0.87777 0.33815 0.84876 0.0
O66 O 0.92703 0.29287 0.79256 0.0
C67 C 0.96869 0.40462 0.87136 0.0
O68 O 0.96903 0.31007 0.81729 0.0
O69 O 0.97783 0.37442 0.87018 0.0
C70 C 0.57802 0.44592 0.265 0.0
O71 O 0.59219 0.42002 0.25628 0.0
Cd72 Cd 0.62773 0.38422 0.28196 0.0
O73 O 0.58017 0.45345 0.28895 0.0
Cd74 Cd 0.60372 0.43459 0.33062 0.0
C75 C 0.67987 0.44723 0.30384 0.0
O76 O 0.60451 0.37529 0.3234 0.0
O77 O 0.63305 0.39304 0.35598 0.0
O78 O 0.54987 0.44122 0.35138 0.0
C79 C 0.62449 0.36876 0.34184 0.0
O80 O 0.6744 0.42066 0.29111 0.0
C81 C 0.55983 0.46065 0.36918 0.0
O82 O 0.65758 0.46012 0.31841 0.0
O83 O 0.59043 0.46886 0.36874 0.0
C84 C 0.52553 0.07293 0.7739 0.0
O85 O 0.55199 0.08761 0.76688 0.0
Cd86 Cd 0.57975 0.12814 0.79373 0.0
O87 O 0.51397 0.07716 0.79665 0.0
Cd88 Cd 0.52536 0.10594 0.83801 0.0
C89 C 0.5095 0.17654 0.80482 0.0
O90 O 0.58575 0.10974 0.83719 0.0
O91 O 0.56033 0.14269 0.86353 0.0
O92 O 0.52014 0.05371 0.86087 0.0
C93 C 0.58767 0.13267 0.85404 0.0
O94 O 0.53836 0.17216 0.79513 0.0
C95 C 0.49814 0.06335 0.87685 0.0
O96 O 0.49659 0.15509 0.82 0.0
O97 O 0.48782 0.09306 0.87445 0.0
C98 C 0.8969 0.01533 0.2687 0.0
O99 O 0.88372 0.04133 0.25926 0.0
Cd100 Cd 0.8473 0.0777 0.28333 0.0
O101 O 0.89323 0.00813 0.29259 0.0
Cd102 Cd 0.86809 0.02788 0.33358 0.0
C103 C 0.79322 0.0155 0.30424 0.0
O104 O 0.8704 0.08693 0.32494 0.0
O105 O 0.84222 0.07218 0.35841 0.0
O106 O 0.92157 0.01335 0.35294 0.0
C107 C 0.85136 0.09531 0.34345 0.0
O108 O 0.80027 0.04113 0.29087 0.0
C109 C 0.90939 -0.00021 0.37301 0.0
O110 O 0.81397 0.00357 0.32062 0.0
O111 O 0.87782 -0.00158 0.37455 0.0
H112 H 0.00723 0.38978 0.91386 0.0
H113 H 0.0195 0.42596 0.95096 0.0
H114 H 0.96698 0.50617 0.91371 0.0
H115 H 0.9544 0.47032 0.8768 0.0
H116 H 0.05151 0.49053 0.95458 0.0
H117 H 0.91842 0.49337 0.98377 0.0
H118 H 0.93471 0.46329 0.96116 0.0
H119 H 0.92614 0.50491 0.95068 0.0
C120 C -0.00138 0.41523 0.91346 0.0
C121 C 0.97955 0.42707 0.8925 0.0
C122 C 0.00565 0.43585 0.93465 0.0
C123 C -0.00636 0.46854 0.93524 0.0
C124 C 0.97597 0.48084 0.91383 0.0
H125 H 0.98331 0.62206 0.05323 0.0
H126 H 0.98174 0.59092 0.01246 0.0
C127 C 0.96891 0.46031 0.89271 0.0
C128 C -0.0018 0.48943 0.95864 0.0
H129 H 0.95502 0.52866 0.0067 0.0
C130 C 0.03048 0.49884 0.96605 0.0
C131 C 0.97067 0.5002 0.97353 0.0
C132 C 0.93552 0.48974 0.96709 0.0
C133 C 0.03591 0.5193 -0.01225 0.0
C134 C 0.00834 0.53007 0.00263 0.0
C135 C 0.9761 0.52058 -0.00482 0.0
C136 C 0.01218 0.55039 0.02647 0.0
C137 C 0.07101 0.5297 -0.00575 0.0
C138 C 0.02996 0.53805 0.04784 0.0
C139 C 0.03096 0.55581 0.07112 0.0
C140 C 0.01394 0.58616 0.07357 0.0
C141 C -0.00327 0.59881 0.05197 0.0
C142 C -0.00422 0.58103 0.02867 0.0
H143 H 0.08774 0.5275 0.9772 0.0
H144 H 0.07172 0.55567 0.0014 0.0
H145 H 0.08093 0.51337 0.00975 0.0
H146 H 0.04217 0.51413 0.04681 0.0
H147 H 0.04431 0.54527 0.08743 0.0
H148 H 0.33695 0.47307 0.54527 0.0
H149 H 0.37163 0.47182 0.50619 0.0
H150 H 0.44373 0.53488 0.54372 0.0
H151 H 0.4095 0.53607 0.58285 0.0
H152 H 0.39788 0.52438 0.47415 0.0
H153 H 0.49727 0.45136 0.52304 0.0
H154 H 0.45598 0.45573 0.53639 0.0
H155 H 0.48545 0.48901 0.53925 0.0
C156 C 0.36004 0.48691 0.54512 0.0
C157 C 0.37061 0.50442 0.56725 0.0
C158 C 0.3798 0.48619 0.52278 0.0
C159 C 0.41048 0.50281 0.52225 0.0
C160 C 0.42041 0.5214 0.54391 0.0
H161 H 0.57431 0.49975 0.41124 0.0
H162 H 0.53749 0.51372 0.4475 0.0
C163 C 0.40072 0.52216 0.56622 0.0
C164 C 0.43268 0.49972 0.49942 0.0
H165 H 0.50802 0.46903 0.48029 0.0
C166 C 0.42198 0.51231 0.47544 0.0
C167 C 0.46413 0.48403 0.50122 0.0
C168 C 0.4764 0.46898 0.52628 0.0
C169 C 0.44205 0.50982 0.45321 0.0
C170 C 0.47333 0.49374 0.45495 0.0
C171 C 0.48412 0.48149 0.47901 0.0
C172 C 0.49469 0.48789 0.43191 0.0
C173 C 0.42975 0.52481 0.42816 0.0
C174 C 0.48285 0.46882 0.41108 0.0
C175 C 0.50377 0.46087 0.39036 0.0
C176 C 0.5371 0.47159 0.39013 0.0
C177 C 0.54877 0.49118 0.41079 0.0
C178 C 0.52777 0.49915 0.43154 0.0
H179 H 0.41092 0.5445 0.43172 0.0
H180 H 0.45059 0.53554 0.41682 0.0
H181 H 0.41778 0.50521 0.41627 0.0
H182 H 0.4577 0.45918 0.41121 0.0
H183 H 0.49402 0.44558 0.37483 0.0
H184 H 0.49143 0.84889 0.05623 0.0
H185 H 0.49054 0.88287 0.01689 0.0
H186 H 0.42081 0.94986 0.05291 0.0
H187 H 0.42177 0.91629 0.09238 0.0
H188 H 0.43681 0.90386 0.98391 0.0
H189 H 0.49982 0.00972 0.03265 0.0
H190 H 0.49859 0.96874 0.04661 0.0
H191 H 0.46258 -0.00488 0.04813 0.0
C192 C 0.47568 0.87069 0.05571 0.0
C193 C 0.45689 0.88004 0.07752 0.0
C194 C 0.47519 0.89006 0.03321 0.0
C195 C 0.45603 0.91916 0.03216 0.0
C196 C 0.43622 0.92782 0.0535 0.0
H197 H 0.45479 0.07791 0.91636 0.0
H198 H 0.43998 0.04249 0.95321 0.0
C199 C 0.4367 0.9085 0.076 0.0
C200 C 0.45776 0.94101 0.00908 0.0
H201 H 0.4839 0.01733 -0.01091 0.0
C202 C 0.447 0.92872 0.98502 0.0
C203 C 0.47094 0.97347 0.01063 0.0
C204 C 0.48392 -0.01242 0.03582 0.0
C205 C 0.44914 0.94802 0.96241 0.0
C206 C 0.46303 0.9802 0.96386 0.0
C207 C 0.47315 -0.00729 -0.01197 0.0
C208 C 0.46935 0.00057 0.9404 0.0
C209 C 0.43634 0.93382 0.93722 0.0
C210 C 0.49071 -0.01124 0.92097 0.0
C211 C 0.49916 0.00886 0.89996 0.0
C212 C 0.48664 0.04135 0.89801 0.0
C213 C 0.46476 0.05297 0.91725 0.0
C214 C 0.45631 0.03279 0.93832 0.0
H215 H 0.4174 0.91426 0.94063 0.0
H216 H 0.42517 0.9534 0.92481 0.0
H217 H 0.45735 0.92237 0.9265 0.0
H218 H 0.50173 0.96432 0.92245 0.0
H219 H 0.5162 -0.00083 0.88556 0.0
H220 H 0.97157 0.97321 0.36916 0.0
H221 H 0.00928 0.95817 0.40461 0.0
H222 H 0.93512 -0.01075 0.46013 0.0
H223 H 0.89662 0.00169 0.42474 0.0
H224 H 0.03823 -0.00696 0.43714 0.0
H225 H 0.96171 0.90767 0.49497 0.0
H226 H 0.94903 0.92102 0.46311 0.0
H227 H 0.93979 0.94601 0.49129 0.0
C228 C 0.96315 0.97603 0.38899 0.0
C229 C 0.93112 -0.01176 0.39428 0.0
C230 C -0.01527 0.96757 0.40926 0.0
C231 C 0.97503 0.97194 0.43525 0.0
C232 C 0.94294 -0.0157 0.44043 0.0
H233 H 0.11179 0.01501 0.55989 0.0
H234 H 0.07769 0.01463 0.52067 0.0
C235 C 0.92097 -0.00829 0.42016 0.0
C236 C -0.00071 0.96616 0.45674 0.0
H237 H 0.0065 0.93497 0.51802 0.0
C238 C 0.03138 0.9798 0.45462 0.0
C239 C -0.009 0.94825 0.47946 0.0
C240 C 0.95863 0.92961 0.48217 0.0
C241 C 0.05479 0.9771 0.47477 0.0
C242 C 0.04536 0.96195 0.49842 0.0
C243 C 0.01374 0.9472 0.50018 0.0
C244 C 0.06734 0.9619 0.52178 0.0
C245 C 0.0895 -0.0099 0.47013 0.0
C246 C 0.07203 0.93273 0.53627 0.0
C247 C 0.0905 0.93324 0.55932 0.0
C248 C 0.10525 0.96277 0.56803 0.0
C249 C 0.10122 -0.00824 0.55333 0.0
C250 C 0.08191 -0.00852 0.53074 0.0
H251 H 0.09623 -0.0116 0.44927 0.0
H252 H 0.09054 0.01667 0.47564 0.0
H253 H 0.1084 0.97625 0.48154 0.0
H254 H 0.06104 0.90958 0.52995 0.0
H255 H 0.09315 0.91056 0.57037 0.0
H256 H 0.1206 0.66059 0.22609 0.0
H257 H 0.17548 0.68659 0.2247 0.0
H258 H 0.17198 0.68684 0.14112 0.0
H259 H 0.11688 0.66119 0.14223 0.0
H260 H 0.23597 0.66786 0.20066 0.0
H261 H 0.18515 0.78519 0.16011 0.0
H262 H 0.1589 0.75348 0.17386 0.0
H263 H 0.17559 0.7485 0.14178 0.0
C264 C 0.1316 0.6658 0.20738 0.0
C265 C 0.11413 0.65913 0.18427 0.0
C266 C 0.16297 0.68069 0.20664 0.0
C267 C 0.17739 0.68927 0.18283 0.0
C268 C 0.16089 0.68106 0.15971 0.0
H269 H 0.36011 0.79346 0.1442 0.0
H270 H 0.30629 0.76513 0.14285 0.0
C271 C 0.1295 0.66619 0.1604 0.0
C272 C 0.2092 0.70773 0.18232 0.0
H273 H 0.24357 0.78194 0.16518 0.0
C274 C 0.23768 0.6928 0.19292 0.0
C275 C 0.21124 0.74027 0.17222 0.0
C276 C 0.18108 0.75801 0.16153 0.0
C277 C 0.26832 0.70946 0.19348 0.0
C278 C 0.27028 0.74211 0.1836 0.0
C279 C 0.24189 0.75692 0.17277 0.0
C280 C 0.30162 0.7613 0.18452 0.0
C281 C 0.29845 0.69183 0.20431 0.0
C282 C 0.31615 0.76954 0.20842 0.0
C283 C 0.34682 0.78578 0.20929 0.0
C284 C 0.36348 0.79419 0.18624 0.0
C285 C 0.34804 0.78726 0.16232 0.0
C286 C 0.31732 0.77101 0.16149 0.0
H287 H 0.29474 0.66456 0.20504 0.0
H288 H 0.32092 0.69716 0.19252 0.0
H289 H 0.30316 0.70068 0.22436 0.0
H290 H 0.30401 0.76288 0.22642 0.0
H291 H 0.35785 0.7909 0.22806 0.0
H292 H 0.29305 0.60724 0.63487 0.0
H293 H 0.27036 0.66348 0.63429 0.0
H294 H 0.27018 0.66518 0.7179 0.0
H295 H 0.29257 0.60884 0.71876 0.0
H296 H 0.20886 0.68274 0.69499 0.0
H297 H 0.31381 0.75303 0.65169 0.0
H298 H 0.30122 0.7169 0.6338 0.0
H299 H 0.31903 0.71227 0.66558 0.0
C300 C 0.28871 0.61973 0.65316 0.0
C301 C 0.2946 0.60345 0.67687 0.0
C302 C 0.27584 0.65194 0.65277 0.0
C303 C 0.26882 0.66854 0.67605 0.0
C304 C 0.2755 0.65277 0.69972 0.0
H305 H 0.17879 0.85496 0.71996 0.0
H306 H 0.2014 0.79881 0.71855 0.0
C307 C 0.28839 0.62059 0.70015 0.0
C308 C 0.25251 0.70147 0.67576 0.0
H309 H 0.2627 0.78177 0.65663 0.0
C310 C 0.22065 0.70445 0.68669 0.0
C311 C 0.26789 0.72962 0.66474 0.0
C312 C 0.30249 0.72802 0.65346 0.0
C313 C 0.2036 0.73483 0.68672 0.0
C314 C 0.2191 0.76307 0.67593 0.0
C315 C 0.25086 0.76003 0.66482 0.0
C316 C 0.20328 0.79625 0.67665 0.0
C317 C 0.16893 0.73629 0.69791 0.0
C318 C 0.197 0.81354 0.65356 0.0
C319 C 0.18419 0.84576 0.65428 0.0
C320 C 0.17765 0.86139 0.67815 0.0
C321 C 0.18334 0.84366 0.70124 0.0
C322 C 0.19616 0.81147 0.70048 0.0
H323 H 0.1572 0.71137 0.69856 0.0
H324 H 0.17026 0.7459 0.71805 0.0
H325 H 0.15271 0.75312 0.68644 0.0
H326 H 0.20245 0.80224 0.63497 0.0
H327 H 0.1802 0.85869 0.63613 0.0
H328 H 0.59466 0.19049 0.88086 0.0
H329 H 0.64315 0.22675 0.88215 0.0
H330 H 0.69897 0.15559 0.83727 0.0
H331 H 0.64999 0.11954 0.83509 0.0
H332 H 0.70494 0.22086 0.90039 0.0
H333 H 0.70885 0.23791 0.79378 0.0
H334 H 0.67452 0.21789 0.8099 0.0
H335 H 0.71224 0.19528 0.80328 0.0
C336 C 0.6173 0.18239 0.87138 0.0
C337 C 0.61839 0.1523 0.8576 0.0
C338 C 0.64501 0.20318 0.87215 0.0
C339 C 0.67442 0.19426 0.85927 0.0
C340 C 0.6762 0.16341 0.84669 0.0
H341 H 0.86765 0.28339 0.87849 0.0
H342 H 0.81693 0.25082 0.8823 0.0
C343 C 0.64832 0.1427 0.84567 0.0
C344 C 0.70286 0.21765 0.85871 0.0
H345 H 0.75465 0.25933 0.81776 0.0
C346 C 0.71573 0.22939 0.88232 0.0
C347 C 0.71638 0.22941 0.83512 0.0
C348 C 0.70208 0.21977 0.80909 0.0
C349 C 0.74227 0.25197 0.88301 0.0
C350 C 0.75693 0.26235 0.85944 0.0
C351 C 0.74356 0.25119 0.83583 0.0
C352 C 0.78691 0.28374 0.85873 0.0
C353 C 0.75394 0.26482 0.90898 0.0
C354 C 0.78715 0.31292 0.84386 0.0
C355 C 0.8164 0.3314 0.84127 0.0
C356 C 0.84589 0.32097 0.85352 0.0
C357 C 0.8453 0.29225 0.86895 0.0
C358 C 0.81621 0.27368 0.87131 0.0
H359 H 0.73373 0.26374 0.92364 0.0
H360 H 0.77473 0.2491 0.91607 0.0
H361 H 0.76287 0.29079 0.90758 0.0
H362 H 0.76483 0.32105 0.83388 0.0
H363 H 0.81611 0.35337 0.82921 0.0
H364 H 0.62577 0.31854 0.30592 0.0
H365 H 0.66471 0.27167 0.30457 0.0
H366 H 0.70676 0.30258 0.3777 0.0
H367 H 0.66828 0.3494 0.37915 0.0
H368 H 0.75413 0.29239 0.3375 0.0
H369 H 0.66748 0.1858 0.34858 0.0
H370 H 0.65709 0.21533 0.32373 0.0
H371 H 0.6559 0.22766 0.35717 0.0
C372 C 0.64287 0.31495 0.32195 0.0
C373 C 0.64402 0.33769 0.34262 0.0
C374 C 0.6651 0.28821 0.32113 0.0
C375 C 0.68857 0.28374 0.34105 0.0
C376 C 0.68891 0.30571 0.36211 0.0
H377 H 0.81218 0.11941 0.38196 0.0
H378 H 0.77469 0.16698 0.37999 0.0
C379 C 0.6668 0.33237 0.36294 0.0
C380 C 0.71394 0.25719 0.33957 0.0
H381 H 0.72419 0.1733 0.34169 0.0
C382 C 0.74765 0.26632 0.33829 0.0
C383 C 0.70529 0.2233 0.34072 0.0
C384 C 0.66952 0.21225 0.34282 0.0
C385 C 0.77304 0.24238 0.33847 0.0
C386 C 0.76439 0.2085 0.33974 0.0
C387 C 0.73067 0.19936 0.34065 0.0
C388 C 0.78983 0.18204 0.34154 0.0
C389 C 0.8089 0.25347 0.33812 0.0
C390 C 0.8114 0.17529 0.32079 0.0
C391 C 0.83309 0.14812 0.32191 0.0
C392 C 0.83322 0.12721 0.34372 0.0
C393 C 0.81258 0.13498 0.36486 0.0
C394 C 0.79105 0.16207 0.36374 0.0
H395 H 0.81139 0.28043 0.3421 0.0
H396 H 0.82374 0.23955 0.35269 0.0
H397 H 0.81966 0.24836 0.31872 0.0
H398 H 0.81056 0.19025 0.30337 0.0
H399 H 0.84854 0.14261 0.30525 0.0
H400 H 0.73865 0.41785 0.29244 0.0
H401 H 0.78944 0.44448 0.27727 0.0
H402 H 0.74472 0.54055 0.2893 0.0
H403 H 0.69376 0.51385 0.30517 0.0
H404 H 0.78806 0.48174 0.23352 0.0
H405 H 0.84012 0.55488 0.31532 0.0
H406 H 0.81013 0.52208 0.31996 0.0
H407 H 0.79671 0.5622 0.309 0.0
C408 C 0.7399 0.44469 0.29247 0.0
C409 C 0.71218 0.46382 0.29977 0.0
C410 C 0.76895 0.45985 0.28382 0.0
C411 C 0.77089 0.49447 0.28214 0.0
C412 C 0.74397 0.5138 0.29084 0.0
H413 H 0.88828 0.60173 0.17047 0.0
H414 H 0.84448 0.5769 0.19683 0.0
C415 C 0.71485 0.49855 0.29983 0.0
C416 C 0.79919 0.50967 0.26811 0.0
H417 H 0.86305 0.56512 0.27341 0.0
C418 C 0.80456 0.49983 0.24233 0.0
C419 C 0.82079 0.53308 0.27967 0.0
C420 C 0.81693 0.54353 0.30759 0.0
C421 C 0.83068 0.51301 0.22766 0.0
C422 C 0.85164 0.5372 0.23891 0.0
C423 C 0.84673 0.54672 0.26483 0.0
C424 C 0.87837 0.55318 0.22371 0.0
C425 C 0.83577 0.50074 0.20028 0.0
C426 C 0.91193 0.5485 0.23039 0.0
C427 C 0.93711 0.56269 0.21533 0.0
C428 C 0.92905 0.58195 0.19347 0.0
C429 C 0.89535 0.58686 0.18708 0.0
C430 C 0.87027 0.57268 0.2021 0.0
H431 H 0.82325 0.47657 0.19691 0.0
H432 H 0.82507 0.519 0.1865 0.0
H433 H 0.86269 0.49794 0.19587 0.0
H434 H 0.91861 0.53353 0.24704 0.0
H435 H 0.96284 0.55863 0.22084 0.0
H436 H 0.34131 0.377 0.66401 0.0
H437 H 0.36373 0.33225 0.69071 0.0
H438 H 0.41716 0.40357 0.73718 0.0
H439 H 0.39421 0.44868 0.71084 0.0
H440 H 0.42799 0.315 0.69746 0.0
H441 H 0.3721 0.34745 0.7924 0.0
H442 H 0.3582 0.36567 0.76228 0.0
H443 H 0.39518 0.38079 0.77805 0.0
C444 C 0.35772 0.38323 0.67998 0.0
C445 C 0.36595 0.41641 0.68535 0.0
C446 C 0.37045 0.35761 0.69526 0.0
C447 C 0.39163 0.36459 0.71623 0.0
C448 C 0.40018 0.39767 0.72151 0.0
H449 H 0.53444 0.23289 0.78368 0.0
H450 H 0.50367 0.2786 0.7642 0.0
C451 C 0.38732 0.42339 0.70628 0.0
C452 C 0.40623 0.33703 0.73151 0.0
H453 H 0.41498 0.30623 0.79291 0.0
C454 C 0.42492 0.31298 0.7183 0.0
C455 C 0.40182 0.33416 0.75866 0.0
C456 C 0.38046 0.3582 0.77368 0.0
C457 C 0.44009 0.28667 0.73154 0.0
C458 C 0.43702 0.28467 0.75881 0.0
C459 C 0.41753 0.30808 0.77202 0.0
C460 C 0.45513 0.25905 0.77376 0.0
C461 C 0.45934 0.26119 0.7162 0.0
C462 C 0.43797 0.23369 0.78672 0.0
C463 C 0.45558 0.2074 0.79811 0.0
C464 C 0.49053 0.20621 0.79656 0.0
C465 C 0.50751 0.23275 0.78487 0.0
C466 C 0.48999 0.25892 0.77369 0.0
H467 H 0.4521 0.26127 0.69539 0.0
H468 H 0.48632 0.26691 0.71743 0.0
H469 H 0.4554 0.23591 0.72411 0.0
H470 H 0.411 0.23354 0.78708 0.0
H471 H 0.44182 0.18736 0.80702 0.0
H472 H 0.58247 0.87805 0.17121 0.0
H473 H 0.62483 0.89981 0.20061 0.0
H474 H 0.55137 0.90911 0.26114 0.0
H475 H 0.50848 0.88828 0.23143 0.0
H476 H 0.58955 0.9622 0.25984 0.0
H477 H 0.67126 0.85232 0.25848 0.0
H478 H 0.66382 0.8665 0.22607 0.0
H479 H 0.62957 0.85157 0.24535 0.0
C480 C 0.57531 0.88474 0.19078 0.0
C481 C 0.5422 0.88131 0.19906 0.0
C482 C 0.59963 0.89683 0.20767 0.0
C483 C 0.59152 0.90513 0.23335 0.0
C484 C 0.55829 0.90246 0.24151 0.0
H485 H 0.76795 0.95872 0.32665 0.0
H486 H 0.7154 0.93076 0.31577 0.0
C487 C 0.5338 0.89069 0.2245 0.0
C488 C 0.61762 0.91801 0.2511 0.0
H489 H 0.69776 0.90424 0.27045 0.0
C490 C 0.61297 0.94923 0.26258 0.0
C491 C 0.64783 0.90072 0.25545 0.0
C492 C 0.65324 0.86575 0.24592 0.0
C493 C 0.63868 0.9647 0.2765 0.0
C494 C 0.67012 0.94895 0.27832 0.0
C495 C 0.67387 0.91663 0.26867 0.0
C496 C 0.70028 0.96699 0.2871 0.0
C497 C 0.63204 -0.00188 0.2886 0.0
C498 C 0.70927 -0.00357 0.27455 0.0
C499 C 0.73894 0.01239 0.28074 0.0
C500 C 0.76077 -0.00093 0.29941 0.0
C501 C 0.75168 0.96968 0.31223 0.0
C502 C 0.72169 0.9537 0.30605 0.0
H503 H 0.60555 0.00041 0.29454 0.0
H504 H 0.64808 0.00246 0.30583 0.0
H505 H 0.637 0.01782 0.27411 0.0
H506 H 0.6938 0.00663 0.25928 0.0
H507 H 0.74505 0.03487 0.27032 0.0
H508 H 0.92776 0.23004 0.78741 0.0
H509 H 0.95601 0.18126 0.77033 0.0
H510 H 0.05118 0.22682 0.78559 0.0
H511 H 0.02287 0.27583 0.80331 0.0
H512 H -0.00502 0.18429 0.72748 0.0
H513 H 0.06626 0.13145 0.81008 0.0
H514 H 0.03269 0.16077 0.81446 0.0
H515 H 0.07315 0.17489 0.80462 0.0
C516 C 0.95473 0.2295 0.7876 0.0
C517 C 0.97312 0.25689 0.79651 0.0
C518 C 0.97083 0.20155 0.77786 0.0
C519 C 0.00568 0.20034 0.77671 0.0
C520 C 0.02426 0.22699 0.78668 0.0
H521 H 0.11847 0.08613 0.6657 0.0
H522 H 0.09194 0.12918 0.69179 0.0
C523 C 0.00808 0.25501 0.79672 0.0
C524 C 0.02197 0.17279 0.7625 0.0
H525 H 0.07812 0.10952 0.76815 0.0
C526 C 0.01306 0.16786 0.73644 0.0
C527 C 0.04532 0.15123 0.77426 0.0
C528 C 0.05477 0.15456 0.80246 0.0
C529 C 0.02706 0.14221 0.72171 0.0
C530 C 0.05115 0.12127 0.7332 0.0
C531 C 0.05978 0.1258 0.75938 0.0
C532 C 0.06797 0.09497 0.71806 0.0
C533 C 0.01567 0.13753 0.69403 0.0
C534 C 0.06374 0.06144 0.72449 0.0
C535 C 0.07894 0.03667 0.7096 0.0
C536 C 0.09877 0.04511 0.68814 0.0
C537 C 0.10318 0.07876 0.68198 0.0
C538 C 0.08801 0.10343 0.69684 0.0
H539 H -0.00868 0.14977 0.69036 0.0
H540 H 0.03428 0.14868 0.68077 0.0
H541 H 0.0134 0.1108 0.68918 0.0
H542 H 0.04839 0.05447 0.74085 0.0
H543 H 0.07523 0.01097 0.71491 0.0
H544 H -0.0032 0.43261 0.77783 0.0
H545 H 0.03775 0.45272 0.74687 0.0
H546 H 0.98165 0.4094 0.68402 0.0
H547 H 0.94039 0.3889 0.71505 0.0
H548 H 0.04648 0.38797 0.68579 0.0
H549 H 0.04406 0.52449 0.69178 0.0
H550 H 0.04479 0.50638 0.72352 0.0
H551 H 0.00966 0.49911 0.70249 0.0
C552 C -0.00736 0.42804 0.75737 0.0
C553 C 0.96544 0.40894 0.74894 0.0
C554 C 0.01597 0.43984 0.73963 0.0
C555 C 0.01259 0.43288 0.71308 0.0
C556 C 0.98456 0.41529 0.7044 0.0
H557 H 0.19553 0.49423 0.6309 0.0
H558 H 0.13533 0.48358 0.63455 0.0
C559 C 0.96099 0.40364 0.72217 0.0
C560 C 0.04087 0.43969 0.69545 0.0
H561 H 0.09795 0.49952 0.68128 0.0
C562 C 0.05721 0.41254 0.6841 0.0
C563 C 0.05468 0.47175 0.69288 0.0
C564 C 0.03714 0.50212 0.7031 0.0
C565 C 0.08859 0.41616 0.67255 0.0
C566 C 0.10399 0.44762 0.67256 0.0
C567 C 0.08623 0.47531 0.68155 0.0
C568 C 0.14011 0.45122 0.66779 0.0
C569 C 0.10587 0.38594 0.66179 0.0
C570 C 0.16252 0.43642 0.68515 0.0
C571 C 0.19651 0.44271 0.68333 0.0
C572 C 0.2089 0.46384 0.66399 0.0
C573 C 0.18664 0.47764 0.64586 0.0
C574 C 0.15234 0.47168 0.64796 0.0
H575 H 0.0876 0.36687 0.65553 0.0
H576 H 0.12197 0.39249 0.64508 0.0
H577 H 0.12178 0.37485 0.67713 0.0
H578 H 0.15355 0.42101 0.70085 0.0
H579 H 0.21306 0.43168 0.69753 0.0
H580 H 0.58171 0.44731 0.2118 0.0
H581 H 0.56458 0.49289 0.18328 0.0
H582 H 0.52295 0.54462 0.24887 0.0
H583 H 0.53955 0.49935 0.27736 0.0
H584 H 0.48444 0.54966 0.202 0.0
H585 H 0.61868 0.58033 0.18847 0.0
H586 H 0.60506 0.53926 0.17998 0.0
H587 H 0.60491 0.55206 0.21331 0.0
C588 C 0.56823 0.46805 0.22005 0.0
C589 C 0.5624 0.4699 0.24694 0.0
C590 C 0.55863 0.49412 0.20373 0.0
C591 C 0.54302 0.52232 0.21407 0.0
C592 C 0.53508 0.52311 0.24053 0.0
H593 H 0.53525 0.72385 0.20958 0.0
H594 H 0.54713 0.66471 0.21146 0.0
C595 C 0.5447 0.49722 0.25681 0.0
C596 C 0.5377 0.55257 0.19834 0.0
H597 H 0.57965 0.61982 0.1751 0.0
C598 C 0.50514 0.56469 0.19543 0.0
C599 C 0.56488 0.57211 0.18998 0.0
C600 C 0.60042 0.56055 0.19312 0.0
C601 C 0.49914 0.59675 0.18589 0.0
C602 C 0.52644 0.61699 0.17898 0.0
C603 C 0.55883 0.60405 0.18027 0.0
C604 C 0.52238 0.65314 0.17528 0.0
C605 C 0.46388 0.60971 0.18516 0.0
C606 C 0.50538 0.66638 0.15383 0.0
C607 C 0.49862 0.70047 0.15262 0.0
C608 C 0.50855 0.72155 0.17297 0.0
C609 C 0.52699 0.70826 0.1937 0.0
C610 C 0.53391 0.67446 0.19478 0.0
H611 H 0.44572 0.59158 0.19301 0.0
H612 H 0.46201 0.63302 0.19655 0.0
H613 H 0.45683 0.61547 0.16484 0.0
H614 H 0.49654 0.65028 0.13848 0.0
H615 H 0.48434 0.71002 0.13642 0.0
H616 H 0.47416 0.03061 0.78342 0.0
H617 H 0.43322 0.01039 0.75232 0.0
H618 H 0.48892 0.05425 0.68973 0.0
H619 H 0.53017 0.0748 0.72088 0.0
H620 H 0.42419 0.0763 0.69232 0.0
H621 H 0.42567 0.93962 0.69626 0.0
H622 H 0.42563 0.95716 0.72823 0.0
H623 H 0.46046 0.96452 0.70705 0.0
C624 C 0.47828 0.03517 0.76298 0.0
C625 C 0.50528 0.05455 0.75466 0.0
C626 C 0.45495 0.02334 0.74516 0.0
C627 C 0.45816 0.03055 0.71866 0.0
C628 C 0.48615 0.04818 0.71007 0.0
H629 H 0.27464 0.97314 0.6349 0.0
H630 H 0.33482 -0.01666 0.63919 0.0
C631 C 0.50972 0.05984 0.72791 0.0
C632 C 0.42961 0.02431 0.70108 0.0
H633 H 0.37195 0.96522 0.68619 0.0
C634 C 0.41328 0.05185 0.69027 0.0
C635 C 0.41553 -0.00758 0.6981 0.0
C636 C 0.43297 0.96173 0.70781 0.0
C637 C 0.38174 0.04872 0.67883 0.0
C638 C 0.36617 0.01736 0.67834 0.0
C639 C 0.38382 -0.01066 0.68683 0.0
C640 C 0.33005 0.01405 0.67339 0.0
C641 C 0.36447 0.0793 0.66868 0.0
C642 C 0.30765 0.02811 0.69109 0.0
C643 C 0.27363 0.02206 0.6889 0.0
C644 C 0.26123 0.00196 0.66884 0.0
C645 C 0.28352 -0.01106 0.65042 0.0
C646 C 0.31782 -0.00536 0.65288 0.0
H647 H 0.38272 0.09865 0.663 0.0
H648 H 0.34849 0.07332 0.65171 0.0
H649 H 0.34841 0.08977 0.68416 0.0
H650 H 0.31666 0.04275 0.70728 0.0
H651 H 0.25708 0.03247 0.70335 0.0
H652 H 0.94324 0.73648 0.21068 0.0
H653 H 0.93119 0.79554 0.21422 0.0
H654 H -0.01267 0.81413 0.14456 0.0
H655 H -0.00068 0.75448 0.14065 0.0
H656 H 0.00549 0.85282 0.19176 0.0
H657 H 0.87075 0.85755 0.16865 0.0
H658 H 0.88202 0.82433 0.19015 0.0
H659 H 0.89771 0.82455 0.15752 0.0
C660 C 0.95263 0.753 0.19585 0.0
C661 C 0.97227 0.74087 0.1754 0.0
C662 C 0.94557 0.78672 0.19784 0.0
C663 C 0.95815 0.80907 0.17954 0.0
C664 C 0.9772 0.79712 0.15874 0.0
H665 H 0.89453 0.01214 0.21561 0.0
H666 H 0.91446 0.96673 0.18809 0.0
C667 C 0.98392 0.76313 0.1565 0.0
C668 C 0.95339 0.84498 0.18388 0.0
H669 H 0.89215 0.90165 0.19542 0.0
C670 C 0.98085 0.86388 0.19192 0.0
C671 C 0.92131 0.85937 0.18384 0.0
C672 C 0.89126 0.84052 0.17434 0.0
C673 C 0.97662 0.89599 0.20193 0.0
C674 C 0.94413 0.90924 0.20405 0.0
C675 C 0.91705 0.89136 0.19398 0.0
C676 C 0.93701 0.9393 0.21958 0.0
C677 C 0.00677 0.91492 0.21112 0.0
C678 C 0.94353 0.93911 0.24632 0.0
C679 C 0.93201 0.96479 0.2621 0.0
C680 C 0.9137 -0.00879 0.25143 0.0
C681 C 0.90868 -0.00777 0.22442 0.0
C682 C 0.91999 0.9663 0.20866 0.0
H683 H 0.02959 0.90679 0.20074 0.0
H684 H 0.00346 0.94201 0.20831 0.0
H685 H 0.01059 0.91016 0.23211 0.0
H686 H 0.95604 0.91821 0.25524 0.0
H687 H 0.93634 0.96325 0.2828 0.0
loop_
_geom_bond_atom_site_label_1
_geom_bond_atom_site_label_2
_geom_bond_distance
_geom_bond_site_symmetry_2
_ccdc_geom_bond_type
C0 O1 1.306 . S
C0 O3 1.160 . S
O1 C0 1.306 . S
O1 Cd2 2.228 . S
Cd2 O1 2.228 . S
Cd2 O6 2.273 . S
Cd2 O10 2.277 . S
O3 C0 1.160 . S
O3 Cd4 2.203 . S
Cd4 O3 2.203 . S
Cd4 O6 2.411 . S
Cd4 O7 2.333 1_455 S
Cd4 O8 2.352 . S
Cd4 O12 2.277 1_455 S
Cd4 O13 2.356 1_455 S
C5 O10 1.208 . S
C5 O12 1.226 1_455 S
O6 Cd2 2.273 . S
O6 Cd4 2.411 . S
O6 C9 1.320 1_455 S
O7 Cd4 2.333 1_655 S
O7 C9 1.214 . S
O8 Cd4 2.352 . S
O8 C11 1.258 . S
C9 O6 1.320 1_655 S
C9 O7 1.214 . S
O10 Cd2 2.277 . S
O10 C5 1.208 . S
C11 O8 1.258 . S
C11 O13 1.282 1_455 S
O12 Cd4 2.277 1_655 S
O12 C5 1.226 1_655 S
O13 Cd4 2.356 1_655 S
O13 C11 1.282 1_655 S
C14 O15 1.306 . S
C14 O17 1.160 . S
O15 C14 1.306 . S
O15 Cd16 2.228 . S
Cd16 O15 2.228 . S
Cd16 O20 2.273 . S
Cd16 O24 2.277 . S
O17 C14 1.160 . S
O17 Cd18 2.203 . S
Cd18 O17 2.203 . S
Cd18 O20 2.411 . S
Cd18 O21 2.333 . S
Cd18 O22 2.352 . S
Cd18 O26 2.277 . S
Cd18 O27 2.356 . S
C19 O24 1.209 . S
C19 O26 1.226 . S
O20 Cd16 2.273 . S
O20 Cd18 2.411 . S
O20 C23 1.320 . S
O21 Cd18 2.333 . S
O21 C23 1.214 . S
O22 Cd18 2.352 . S
O22 C25 1.258 . S
C23 O20 1.320 . S
C23 O21 1.214 . S
O24 Cd16 2.277 . S
O24 C19 1.209 . S
C25 O22 1.258 . S
C25 O27 1.282 . S
O26 Cd18 2.277 . S
O26 C19 1.226 . S
O27 Cd18 2.356 . S
O27 C25 1.282 . S
C28 O29 1.306 . S
C28 O31 1.160 . S
O29 C28 1.306 . S
O29 Cd30 2.228 . S
Cd30 O29 2.228 . S
Cd30 O34 2.273 . S
Cd30 O38 2.277 . S
O31 C28 1.160 . S
O31 Cd32 2.203 . S
Cd32 O31 2.203 . S
Cd32 O34 2.411 . S
Cd32 O35 2.333 . S
Cd32 O36 2.352 . S
Cd32 O40 2.277 . S
Cd32 O41 2.356 . S
C33 O38 1.209 . S
C33 O40 1.226 . S
O34 Cd30 2.273 . S
O34 Cd32 2.411 . S
O34 C37 1.320 . S
O35 Cd32 2.333 . S
O35 C37 1.214 . S
O36 Cd32 2.352 . S
O36 C39 1.258 . S
C37 O34 1.320 . S
C37 O35 1.214 . S
O38 Cd30 2.277 . S
O38 C33 1.209 . S
C39 O36 1.258 . S
C39 O41 1.282 . S
O40 Cd32 2.277 . S
O40 C33 1.226 . S
O41 Cd32 2.356 . S
O41 C39 1.282 . S
C42 O43 1.306 . S
C42 O45 1.160 . S
O43 C42 1.306 . S
O43 Cd44 2.228 . S
Cd44 O43 2.228 . S
Cd44 O48 2.273 . S
Cd44 O52 2.277 . S
O45 C42 1.160 . S
O45 Cd46 2.203 . S
Cd46 O45 2.203 . S
Cd46 O48 2.411 . S
Cd46 O49 2.333 1_565 S
Cd46 O50 2.352 . S
Cd46 O54 2.277 1_565 S
Cd46 O55 2.356 1_565 S
C47 O52 1.208 . S
C47 O54 1.226 1_565 S
O48 Cd44 2.273 . S
O48 Cd46 2.411 . S
O48 C51 1.320 1_565 S
O49 Cd46 2.333 1_545 S
O49 C51 1.214 . S
O50 Cd46 2.352 . S
O50 C53 1.258 . S
C51 O48 1.320 1_545 S
C51 O49 1.214 . S
O52 Cd44 2.277 . S
O52 C47 1.208 . S
C53 O50 1.258 . S
C53 O55 1.282 1_565 S
O54 Cd46 2.277 1_545 S
O54 C47 1.226 1_545 S
O55 Cd46 2.356 1_545 S
O55 C53 1.282 1_545 S
C56 O57 1.306 1_455 S
C56 O59 1.160 . S
O57 C56 1.306 1_655 S
O57 Cd58 2.228 . S
Cd58 O57 2.228 . S
Cd58 O62 2.273 . S
Cd58 O66 2.277 . S
O59 C56 1.160 . S
O59 Cd60 2.203 1_455 S
Cd60 O59 2.203 1_655 S
Cd60 O62 2.411 . S
Cd60 O63 2.333 . S
Cd60 O64 2.352 . S
Cd60 O68 2.277 1_655 S
Cd60 O69 2.356 . S
C61 O66 1.209 . S
C61 O68 1.226 1_655 S
O62 Cd58 2.273 . S
O62 Cd60 2.411 . S
O62 C65 1.320 . S
O63 Cd60 2.333 . S
O63 C65 1.214 . S
O64 Cd60 2.352 . S
O64 C67 1.258 . S
C65 O62 1.320 . S
C65 O63 1.214 . S
O66 Cd58 2.277 . S
O66 C61 1.209 . S
C67 O64 1.258 . S
C67 O69 1.282 . S
O68 Cd60 2.277 1_455 S
O68 C61 1.226 1_455 S
O69 Cd60 2.356 . S
O69 C67 1.282 . S
C70 O71 1.306 . S
C70 O73 1.160 . S
O71 C70 1.306 . S
O71 Cd72 2.228 . S
Cd72 O71 2.228 . S
Cd72 O76 2.273 . S
Cd72 O80 2.277 . S
O73 C70 1.160 . S
O73 Cd74 2.203 . S
Cd74 O73 2.203 . S
Cd74 O76 2.411 . S
Cd74 O77 2.333 . S
Cd74 O78 2.352 . S
Cd74 O82 2.277 . S
Cd74 O83 2.356 . S
C75 O80 1.209 . S
C75 O82 1.226 . S
O76 Cd72 2.273 . S
O76 Cd74 2.411 . S
O76 C79 1.320 . S
O77 Cd74 2.333 . S
O77 C79 1.214 . S
O78 Cd74 2.352 . S
O78 C81 1.258 . S
C79 O76 1.320 . S
C79 O77 1.214 . S
O80 Cd72 2.277 . S
O80 C75 1.209 . S
C81 O78 1.258 . S
C81 O83 1.282 . S
O82 Cd74 2.277 . S
O82 C75 1.226 . S
O83 Cd74 2.356 . S
O83 C81 1.282 . S
C84 O85 1.306 . S
C84 O87 1.160 . S
O85 C84 1.306 . S
O85 Cd86 2.228 . S
Cd86 O85 2.228 . S
Cd86 O90 2.273 . S
Cd86 O94 2.277 . S
O87 C84 1.160 . S
O87 Cd88 2.203 . S
Cd88 O87 2.203 . S
Cd88 O90 2.411 . S
Cd88 O91 2.333 . S
Cd88 O92 2.352 . S
Cd88 O96 2.277 . S
Cd88 O97 2.356 . S
C89 O94 1.209 . S
C89 O96 1.226 . S
O90 Cd86 2.273 . S
O90 Cd88 2.411 . S
O90 C93 1.320 . S
O91 Cd88 2.333 . S
O91 C93 1.214 . S
O92 Cd88 2.352 . S
O92 C95 1.258 . S
C93 O90 1.320 . S
C93 O91 1.214 . S
O94 Cd86 2.277 . S
O94 C89 1.209 . S
C95 O92 1.258 . S
C95 O97 1.282 . S
O96 Cd88 2.277 . S
O96 C89 1.226 . S
O97 Cd88 2.356 . S
O97 C95 1.282 . S
C98 O99 1.306 1_565 S
C98 O101 1.160 . S
O99 C98 1.306 1_545 S
O99 Cd100 2.228 . S
Cd100 O99 2.228 . S
Cd100 O104 2.273 . S
Cd100 O108 2.277 . S
O101 C98 1.160 . S
O101 Cd102 2.203 1_565 S
Cd102 O101 2.203 1_545 S
Cd102 O104 2.411 . S
Cd102 O105 2.333 . S
Cd102 O106 2.352 . S
Cd102 O110 2.277 1_545 S
Cd102 O111 2.356 . S
C103 O108 1.209 . S
C103 O110 1.226 1_545 S
O104 Cd100 2.273 . S
O104 Cd102 2.411 . S
O104 C107 1.320 . S
O105 Cd102 2.333 . S
O105 C107 1.214 . S
O106 Cd102 2.352 . S
O106 C109 1.258 . S
C107 O104 1.320 . S
C107 O105 1.214 . S
O108 Cd100 2.277 . S
O108 C103 1.209 . S
C109 O106 1.258 . S
C109 O111 1.282 . S
O110 Cd102 2.277 1_565 S
O110 C103 1.226 1_565 S
O111 Cd102 2.356 . S
O111 C109 1.282 . S
H112 C120 0.929 . S
H113 C122 0.930 . S
H114 C124 0.930 . S
H115 C127 0.929 . S
H116 C130 0.930 . S
H117 C132 0.960 . S
H118 C132 0.960 . S
H119 C132 0.960 1_556 S
C120 H112 0.929 . S
C120 C121 1.377 1_455 S
C120 C122 1.384 . S
C121 C120 1.377 1_655 S
C121 C127 1.390 . S
C122 H113 0.930 . S
C122 C120 1.384 . S
C122 C123 1.372 1_455 S
C123 C122 1.372 1_655 S
C123 C124 1.400 . S
C123 C128 1.490 . S
C124 H114 0.930 . S
C124 C123 1.400 . S
C124 C127 1.386 . S
H125 C141 0.930 . S
H126 C142 0.931 . S
C127 H115 0.929 . S
C127 C121 1.390 . S
C127 C124 1.386 . S
C128 C123 1.490 . S
C128 C130 1.395 1_655 S
C128 C131 1.403 1_556 S
H129 C135 0.930 . S
C130 H116 0.930 . S
C130 C128 1.395 1_455 S
C130 C133 1.403 . S
C131 C128 1.403 1_554 S
C131 C132 1.524 . S
C131 C135 1.400 . S
C132 H117 0.960 . S
C132 H118 0.960 . S
C132 H119 0.960 1_554 S
C132 C131 1.524 . S
C133 C130 1.403 . S
C133 C134 1.392 1_556 S
C133 C137 1.495 . S
C134 C133 1.392 1_554 S
C134 C135 1.385 1_455 S
C134 C136 1.478 . S
C135 H129 0.930 . S
C135 C131 1.400 . S
C135 C134 1.385 1_655 S
C136 C134 1.478 . S
C136 C138 1.381 . S
C136 C142 1.383 1_455 S
C137 C133 1.495 . S
C137 H143 0.959 . S
C137 H144 0.961 . S
C137 H145 0.960 1_556 S
C138 C136 1.381 . S
C138 C139 1.394 . S
C138 H146 0.930 . S
C139 C138 1.394 . S
C139 C140 1.383 . S
C139 H147 0.929 . S
C140 C139 1.383 . S
C140 C141 1.377 1_455 S
C141 H125 0.930 . S
C141 C140 1.377 1_655 S
C141 C142 1.379 . S
C142 H126 0.931 . S
C142 C136 1.383 1_655 S
C142 C141 1.379 . S
H143 C137 0.959 . S
H144 C137 0.961 . S
H145 C137 0.960 1_554 S
H146 C138 0.930 . S
H147 C139 0.929 . S
H148 C156 0.929 . S
H149 C158 0.930 . S
H150 C160 0.930 . S
H151 C163 0.929 . S
H152 C166 0.930 . S
H153 C168 0.960 . S
H154 C168 0.960 . S
H155 C168 0.960 . S
C156 H148 0.929 . S
C156 C157 1.377 . S
C156 C158 1.384 . S
C157 C156 1.377 . S
C157 C163 1.390 . S
C158 H149 0.930 . S
C158 C156 1.384 . S
C158 C159 1.372 . S
C159 C158 1.372 . S
C159 C160 1.400 . S
C159 C164 1.490 . S
C160 H150 0.930 . S
C160 C159 1.400 . S
C160 C163 1.386 . S
H161 C177 0.930 . S
H162 C178 0.931 . S
C163 H151 0.929 . S
C163 C157 1.390 . S
C163 C160 1.386 . S
C164 C159 1.490 . S
C164 C166 1.395 . S
C164 C167 1.403 . S
H165 C171 0.930 . S
C166 H152 0.930 . S
C166 C164 1.395 . S
C166 C169 1.403 . S
C167 C164 1.403 . S
C167 C168 1.524 . S
C167 C171 1.400 . S
C168 H153 0.960 . S
C168 H154 0.960 . S
C168 H155 0.960 . S
C168 C167 1.524 . S
C169 C166 1.403 . S
C169 C170 1.392 . S
C169 C173 1.495 . S
C170 C169 1.392 . S
C170 C171 1.385 . S
C170 C172 1.478 . S
C171 H165 0.930 . S
C171 C167 1.400 . S
C171 C170 1.385 . S
C172 C170 1.478 . S
C172 C174 1.381 . S
C172 C178 1.383 . S
C173 C169 1.495 . S
C173 H179 0.959 . S
C173 H180 0.961 . S
C173 H181 0.960 . S
C174 C172 1.381 . S
C174 C175 1.394 . S
C174 H182 0.930 . S
C175 C174 1.394 . S
C175 C176 1.383 . S
C175 H183 0.929 . S
C176 C175 1.383 . S
C176 C177 1.377 . S
C177 H161 0.930 . S
C177 C176 1.377 . S
C177 C178 1.379 . S
C178 H162 0.931 . S
C178 C172 1.383 . S
C178 C177 1.379 . S
H179 C173 0.959 . S
H180 C173 0.961 . S
H181 C173 0.960 . S
H182 C174 0.930 . S
H183 C175 0.929 . S
H184 C192 0.929 . S
H185 C194 0.930 . S
H186 C196 0.930 . S
H187 C199 0.929 . S
H188 C202 0.930 . S
H189 C204 0.960 . S
H190 C204 0.960 . S
H191 C204 0.960 . S
C192 H184 0.929 . S
C192 C193 1.377 . S
C192 C194 1.384 . S
C193 C192 1.377 . S
C193 C199 1.390 . S
C194 H185 0.930 . S
C194 C192 1.384 . S
C194 C195 1.372 . S
C195 C194 1.372 . S
C195 C196 1.400 . S
C195 C200 1.490 . S
C196 H186 0.930 . S
C196 C195 1.400 . S
C196 C199 1.386 . S
H197 C213 0.930 . S
H198 C214 0.931 . S
C199 H187 0.929 . S
C199 C193 1.390 . S
C199 C196 1.386 . S
C200 C195 1.490 . S
C200 C202 1.395 1_554 S
C200 C203 1.403 1_565 S
H201 C207 0.930 . S
C202 H188 0.930 . S
C202 C200 1.395 1_556 S
C202 C205 1.403 . S
C203 C200 1.403 1_545 S
C203 C204 1.524 . S
C203 C207 1.400 1_554 S
C204 H189 0.960 . S
C204 H190 0.960 . S
C204 H191 0.960 . S
C204 C203 1.524 . S
C205 C202 1.403 . S
C205 C206 1.392 1_565 S
C205 C209 1.495 . S
C206 C205 1.392 1_545 S
C206 C207 1.385 . S
C206 C208 1.478 . S
C207 H201 0.930 . S
C207 C203 1.400 1_556 S
C207 C206 1.385 . S
C208 C206 1.478 . S
C208 C210 1.381 . S
C208 C214 1.383 . S
C209 C205 1.495 . S
C209 H215 0.959 . S
C209 H216 0.961 . S
C209 H217 0.960 . S
C210 C208 1.381 . S
C210 C211 1.394 . S
C210 H218 0.930 . S
C211 C210 1.394 . S
C211 C212 1.383 . S
C211 H219 0.929 . S
C212 C211 1.383 . S
C212 C213 1.377 . S
C213 H197 0.930 . S
C213 C212 1.377 . S
C213 C214 1.379 . S
C214 H198 0.931 . S
C214 C208 1.383 . S
C214 C213 1.379 . S
H215 C209 0.959 . S
H216 C209 0.961 . S
H217 C209 0.960 . S
H218 C210 0.930 . S
H219 C211 0.929 . S
H220 C228 0.929 . S
H221 C230 0.930 . S
H222 C232 0.930 . S
H223 C235 0.929 . S
H224 C238 0.930 . S
H225 C240 0.960 . S
H226 C240 0.960 . S
H227 C240 0.960 1_545 S
C228 H220 0.929 . S
C228 C229 1.377 1_565 S
C228 C230 1.384 . S
C229 C228 1.377 1_545 S
C229 C235 1.390 . S
C230 H221 0.930 . S
C230 C228 1.384 . S
C230 C231 1.372 1_565 S
C231 C230 1.372 1_545 S
C231 C232 1.400 . S
C231 C236 1.490 . S
C232 H222 0.930 . S
C232 C231 1.400 . S
C232 C235 1.386 . S
H233 C249 0.930 . S
H234 C250 0.931 . S
C235 H223 0.929 . S
C235 C229 1.390 . S
C235 C232 1.386 . S
C236 C231 1.490 . S
C236 C238 1.395 1_655 S
C236 C239 1.403 1_545 S
H237 C243 0.930 . S
C238 H224 0.930 . S
C238 C236 1.395 1_455 S
C238 C241 1.403 . S
C239 C236 1.403 1_565 S
C239 C240 1.524 . S
C239 C243 1.400 . S
C240 H225 0.960 . S
C240 H226 0.960 . S
C240 H227 0.960 1_565 S
C240 C239 1.524 . S
C241 C238 1.403 . S
C241 C242 1.392 1_545 S
C241 C245 1.495 . S
C242 C241 1.392 1_565 S
C242 C243 1.385 1_455 S
C242 C244 1.478 . S
C243 H237 0.930 . S
C243 C239 1.400 . S
C243 C242 1.385 1_655 S
C244 C242 1.478 . S
C244 C246 1.381 . S
C244 C250 1.383 1_565 S
C245 C241 1.495 . S
C245 H251 0.959 . S
C245 H252 0.961 . S
C245 H253 0.960 1_545 S
C246 C244 1.381 . S
C246 C247 1.394 . S
C246 H254 0.930 . S
C247 C246 1.394 . S
C247 C248 1.383 . S
C247 H255 0.929 . S
C248 C247 1.383 . S
C248 C249 1.377 1_565 S
C249 H233 0.930 . S
C249 C248 1.377 1_545 S
C249 C250 1.379 . S
C250 H234 0.931 . S
C250 C244 1.383 1_545 S
C250 C249 1.379 . S
H251 C245 0.959 . S
H252 C245 0.961 . S
H253 C245 0.960 1_565 S
H254 C246 0.930 . S
H255 C247 0.929 . S
H256 C264 0.929 . S
H257 C266 0.930 . S
H258 C268 0.930 . S
H259 C271 0.929 . S
H260 C274 0.930 . S
H261 C276 0.960 . S
H262 C276 0.960 . S
H263 C276 0.960 . S
C264 H256 0.929 . S
C264 C265 1.377 . S
C264 C266 1.384 . S
C265 C264 1.377 . S
C265 C271 1.390 . S
C266 H257 0.930 . S
C266 C264 1.384 . S
C266 C267 1.372 . S
C267 C266 1.372 . S
C267 C268 1.400 . S
C267 C272 1.490 . S
C268 H258 0.930 . S
C268 C267 1.400 . S
C268 C271 1.386 . S
H269 C285 0.930 . S
H270 C286 0.931 . S
C271 H259 0.929 . S
C271 C265 1.390 . S
C271 C268 1.386 . S
C272 C267 1.490 . S
C272 C274 1.395 . S
C272 C275 1.403 . S
H273 C279 0.930 . S
C274 H260 0.930 . S
C274 C272 1.395 . S
C274 C277 1.403 . S
C275 C272 1.403 . S
C275 C276 1.524 . S
C275 C279 1.400 . S
C276 H261 0.960 . S
C276 H262 0.960 . S
C276 H263 0.960 . S
C276 C275 1.524 . S
C277 C274 1.403 . S
C277 C278 1.392 . S
C277 C281 1.495 . S
C278 C277 1.392 . S
C278 C279 1.385 . S
C278 C280 1.478 . S
C279 H273 0.930 . S
C279 C275 1.400 . S
C279 C278 1.385 . S
C280 C278 1.478 . S
C280 C282 1.381 . S
C280 C286 1.383 . S
C281 C277 1.495 . S
C281 H287 0.959 . S
C281 H288 0.961 . S
C281 H289 0.960 . S
C282 C280 1.381 . S
C282 C283 1.394 . S
C282 H290 0.930 . S
C283 C282 1.394 . S
C283 C284 1.383 . S
C283 H291 0.929 . S
C284 C283 1.383 . S
C284 C285 1.377 . S
C285 H269 0.930 . S
C285 C284 1.377 . S
C285 C286 1.379 . S
C286 H270 0.931 . S
C286 C280 1.383 . S
C286 C285 1.379 . S
H287 C281 0.959 . S
H288 C281 0.961 . S
H289 C281 0.960 . S
H290 C282 0.930 . S
H291 C283 0.929 . S
H292 C300 0.929 . S
H293 C302 0.930 . S
H294 C304 0.930 . S
H295 C307 0.929 . S
H296 C310 0.930 . S
H297 C312 0.960 . S
H298 C312 0.960 . S
H299 C312 0.960 . S
C300 H292 0.929 . S
C300 C301 1.377 . S
C300 C302 1.384 . S
C301 C300 1.377 . S
C301 C307 1.390 . S
C302 H293 0.930 . S
C302 C300 1.384 . S
C302 C303 1.372 . S
C303 C302 1.372 . S
C303 C304 1.400 . S
C303 C308 1.490 . S
C304 H294 0.930 . S
C304 C303 1.400 . S
C304 C307 1.386 . S
H305 C321 0.930 . S
H306 C322 0.931 . S
C307 H295 0.929 . S
C307 C301 1.390 . S
C307 C304 1.386 . S
C308 C303 1.490 . S
C308 C310 1.395 . S
C308 C311 1.403 . S
H309 C315 0.930 . S
C310 H296 0.930 . S
C310 C308 1.395 . S
C310 C313 1.403 . S
C311 C308 1.403 . S
C311 C312 1.524 . S
C311 C315 1.400 . S
C312 H297 0.960 . S
C312 H298 0.960 . S
C312 H299 0.960 . S
C312 C311 1.524 . S
C313 C310 1.403 . S
C313 C314 1.392 . S
C313 C317 1.495 . S
C314 C313 1.392 . S
C314 C315 1.385 . S
C314 C316 1.478 . S
C315 H309 0.930 . S
C315 C311 1.400 . S
C315 C314 1.385 . S
C316 C314 1.478 . S
C316 C318 1.381 . S
C316 C322 1.383 . S
C317 C313 1.495 . S
C317 H323 0.959 . S
C317 H324 0.961 . S
C317 H325 0.960 . S
C318 C316 1.381 . S
C318 C319 1.394 . S
C318 H326 0.930 . S
C319 C318 1.394 . S
C319 C320 1.383 . S
C319 H327 0.929 . S
C320 C319 1.383 . S
C320 C321 1.377 . S
C321 H305 0.930 . S
C321 C320 1.377 . S
C321 C322 1.379 . S
C322 H306 0.931 . S
C322 C316 1.383 . S
C322 C321 1.379 . S
H323 C317 0.959 . S
H324 C317 0.961 . S
H325 C317 0.960 . S
H326 C318 0.930 . S
H327 C319 0.929 . S
H328 C336 0.929 . S
H329 C338 0.930 . S
H330 C340 0.930 . S
H331 C343 0.929 . S
H332 C346 0.930 . S
H333 C348 0.960 . S
H334 C348 0.960 . S
H335 C348 0.960 . S
C336 H328 0.929 . S
C336 C337 1.377 . S
C336 C338 1.384 . S
C337 C336 1.377 . S
C337 C343 1.390 . S
C338 H329 0.930 . S
C338 C336 1.384 . S
C338 C339 1.372 . S
C339 C338 1.372 . S
C339 C340 1.400 . S
C339 C344 1.490 . S
C340 H330 0.930 . S
C340 C339 1.400 . S
C340 C343 1.386 . S
H341 C357 0.930 . S
H342 C358 0.931 . S
C343 H331 0.929 . S
C343 C337 1.390 . S
C343 C340 1.386 . S
C344 C339 1.490 . S
C344 C346 1.395 . S
C344 C347 1.403 . S
H345 C351 0.930 . S
C346 H332 0.930 . S
C346 C344 1.395 . S
C346 C349 1.403 . S
C347 C344 1.403 . S
C347 C348 1.524 . S
C347 C351 1.400 . S
C348 H333 0.960 . S
C348 H334 0.960 . S
C348 H335 0.960 . S
C348 C347 1.524 . S
C349 C346 1.403 . S
C349 C350 1.392 . S
C349 C353 1.495 . S
C350 C349 1.392 . S
C350 C351 1.385 . S
C350 C352 1.478 . S
C351 H345 0.930 . S
C351 C347 1.400 . S
C351 C350 1.385 . S
C352 C350 1.478 . S
C352 C354 1.381 . S
C352 C358 1.383 . S
C353 C349 1.495 . S
C353 H359 0.959 . S
C353 H360 0.961 . S
C353 H361 0.960 . S
C354 C352 1.381 . S
C354 C355 1.394 . S
C354 H362 0.930 . S
C355 C354 1.394 . S
C355 C356 1.383 . S
C355 H363 0.929 . S
C356 C355 1.383 . S
C356 C357 1.377 . S
C357 H341 0.930 . S
C357 C356 1.377 . S
C357 C358 1.379 . S
C358 H342 0.931 . S
C358 C352 1.383 . S
C358 C357 1.379 . S
H359 C353 0.959 . S
H360 C353 0.961 . S
H361 C353 0.960 . S
H362 C354 0.930 . S
H363 C355 0.929 . S
H364 C372 0.929 . S
H365 C374 0.930 . S
H366 C376 0.930 . S
H367 C379 0.929 . S
H368 C382 0.930 . S
H369 C384 0.960 . S
H370 C384 0.960 . S
H371 C384 0.960 . S
C372 H364 0.929 . S
C372 C373 1.377 . S
C372 C374 1.384 . S
C373 C372 1.377 . S
C373 C379 1.390 . S
C374 H365 0.930 . S
C374 C372 1.384 . S
C374 C375 1.372 . S
C375 C374 1.372 . S
C375 C376 1.400 . S
C375 C380 1.490 . S
C376 H366 0.930 . S
C376 C375 1.400 . S
C376 C379 1.386 . S
H377 C393 0.930 . S
H378 C394 0.931 . S
C379 H367 0.929 . S
C379 C373 1.390 . S
C379 C376 1.386 . S
C380 C375 1.490 . S
C380 C382 1.395 . S
C380 C383 1.403 . S
H381 C387 0.930 . S
C382 H368 0.930 . S
C382 C380 1.395 . S
C382 C385 1.403 . S
C383 C380 1.403 . S
C383 C384 1.524 . S
C383 C387 1.400 . S
C384 H369 0.960 . S
C384 H370 0.960 . S
C384 H371 0.960 . S
C384 C383 1.524 . S
C385 C382 1.403 . S
C385 C386 1.392 . S
C385 C389 1.495 . S
C386 C385 1.392 . S
C386 C387 1.385 . S
C386 C388 1.478 . S
C387 H381 0.930 . S
C387 C383 1.400 . S
C387 C386 1.385 . S
C388 C386 1.478 . S
C388 C390 1.381 . S
C388 C394 1.383 . S
C389 C385 1.495 . S
C389 H395 0.959 . S
C389 H396 0.961 . S
C389 H397 0.960 . S
C390 C388 1.381 . S
C390 C391 1.394 . S
C390 H398 0.930 . S
C391 C390 1.394 . S
C391 C392 1.383 . S
C391 H399 0.929 . S
C392 C391 1.383 . S
C392 C393 1.377 . S
C393 H377 0.930 . S
C393 C392 1.377 . S
C393 C394 1.379 . S
C394 H378 0.931 . S
C394 C388 1.383 . S
C394 C393 1.379 . S
H395 C389 0.959 . S
H396 C389 0.961 . S
H397 C389 0.960 . S
H398 C390 0.930 . S
H399 C391 0.929 . S
H400 C408 0.929 . S
H401 C410 0.930 . S
H402 C412 0.930 . S
H403 C415 0.929 . S
H404 C418 0.930 . S
H405 C420 0.960 . S
H406 C420 0.960 . S
H407 C420 0.960 . S
C408 H400 0.929 . S
C408 C409 1.377 . S
C408 C410 1.384 . S
C409 C408 1.377 . S
C409 C415 1.390 . S
C410 H401 0.930 . S
C410 C408 1.384 . S
C410 C411 1.372 . S
C411 C410 1.372 . S
C411 C412 1.400 . S
C411 C416 1.490 . S
C412 H402 0.930 . S
C412 C411 1.400 . S
C412 C415 1.386 . S
H413 C429 0.930 . S
H414 C430 0.931 . S
C415 H403 0.929 . S
C415 C409 1.390 . S
C415 C412 1.386 . S
C416 C411 1.490 . S
C416 C418 1.395 . S
C416 C419 1.403 . S
H417 C423 0.930 . S
C418 H404 0.930 . S
C418 C416 1.395 . S
C418 C421 1.403 . S
C419 C416 1.403 . S
C419 C420 1.524 . S
C419 C423 1.400 . S
C420 H405 0.960 . S
C420 H406 0.960 . S
C420 H407 0.960 . S
C420 C419 1.524 . S
C421 C418 1.403 . S
C421 C422 1.392 . S
C421 C425 1.495 . S
C422 C421 1.392 . S
C422 C423 1.385 . S
C422 C424 1.478 . S
C423 H417 0.930 . S
C423 C419 1.400 . S
C423 C422 1.385 . S
C424 C422 1.478 . S
C424 C426 1.381 . S
C424 C430 1.383 . S
C425 C421 1.495 . S
C425 H431 0.959 . S
C425 H432 0.961 . S
C425 H433 0.960 . S
C426 C424 1.381 . S
C426 C427 1.394 . S
C426 H434 0.930 . S
C427 C426 1.394 . S
C427 C428 1.383 . S
C427 H435 0.929 . S
C428 C427 1.383 . S
C428 C429 1.377 . S
C429 H413 0.930 . S
C429 C428 1.377 . S
C429 C430 1.379 . S
C430 H414 0.931 . S
C430 C424 1.383 . S
C430 C429 1.379 . S
H431 C425 0.959 . S
H432 C425 0.961 . S
H433 C425 0.960 . S
H434 C426 0.930 . S
H435 C427 0.929 . S
H436 C444 0.929 . S
H437 C446 0.930 . S
H438 C448 0.930 . S
H439 C451 0.929 . S
H440 C454 0.930 . S
H441 C456 0.960 . S
H442 C456 0.960 . S
H443 C456 0.960 . S
C444 H436 0.929 . S
C444 C445 1.377 . S
C444 C446 1.384 . S
C445 C444 1.377 . S
C445 C451 1.390 . S
C446 H437 0.930 . S
C446 C444 1.384 . S
C446 C447 1.372 . S
C447 C446 1.372 . S
C447 C448 1.400 . S
C447 C452 1.490 . S
C448 H438 0.930 . S
C448 C447 1.400 . S
C448 C451 1.386 . S
H449 C465 0.930 . S
H450 C466 0.931 . S
C451 H439 0.929 . S
C451 C445 1.390 . S
C451 C448 1.386 . S
C452 C447 1.490 . S
C452 C454 1.395 . S
C452 C455 1.403 . S
H453 C459 0.930 . S
C454 H440 0.930 . S
C454 C452 1.395 . S
C454 C457 1.403 . S
C455 C452 1.403 . S
C455 C456 1.524 . S
C455 C459 1.400 . S
C456 H441 0.960 . S
C456 H442 0.960 . S
C456 H443 0.960 . S
C456 C455 1.524 . S
C457 C454 1.403 . S
C457 C458 1.392 . S
C457 C461 1.495 . S
C458 C457 1.392 . S
C458 C459 1.385 . S
C458 C460 1.478 . S
C459 H453 0.930 . S
C459 C455 1.400 . S
C459 C458 1.385 . S
C460 C458 1.478 . S
C460 C462 1.381 . S
C460 C466 1.383 . S
C461 C457 1.495 . S
C461 H467 0.959 . S
C461 H468 0.961 . S
C461 H469 0.960 . S
C462 C460 1.381 . S
C462 C463 1.394 . S
C462 H470 0.930 . S
C463 C462 1.394 . S
C463 C464 1.383 . S
C463 H471 0.929 . S
C464 C463 1.383 . S
C464 C465 1.377 . S
C465 H449 0.930 . S
C465 C464 1.377 . S
C465 C466 1.379 . S
C466 H450 0.931 . S
C466 C460 1.383 . S
C466 C465 1.379 . S
H467 C461 0.959 . S
H468 C461 0.961 . S
H469 C461 0.960 . S
H470 C462 0.930 . S
H471 C463 0.929 . S
H472 C480 0.929 . S
H473 C482 0.930 . S
H474 C484 0.930 . S
H475 C487 0.929 . S
H476 C490 0.930 . S
H477 C492 0.960 . S
H478 C492 0.960 . S
H479 C492 0.960 . S
C480 H472 0.929 . S
C480 C481 1.377 . S
C480 C482 1.384 . S
C481 C480 1.377 . S
C481 C487 1.390 . S
C482 H473 0.930 . S
C482 C480 1.384 . S
C482 C483 1.372 . S
C483 C482 1.372 . S
C483 C484 1.400 . S
C483 C488 1.490 . S
C484 H474 0.930 . S
C484 C483 1.400 . S
C484 C487 1.386 . S
H485 C501 0.930 . S
H486 C502 0.931 . S
C487 H475 0.929 . S
C487 C481 1.390 . S
C487 C484 1.386 . S
C488 C483 1.490 . S
C488 C490 1.395 . S
C488 C491 1.403 . S
H489 C495 0.930 . S
C490 H476 0.930 . S
C490 C488 1.395 . S
C490 C493 1.403 . S
C491 C488 1.403 . S
C491 C492 1.524 . S
C491 C495 1.400 . S
C492 H477 0.960 . S
C492 H478 0.960 . S
C492 H479 0.960 . S
C492 C491 1.524 . S
C493 C490 1.403 . S
C493 C494 1.392 . S
C493 C497 1.495 1_565 S
C494 C493 1.392 . S
C494 C495 1.385 . S
C494 C496 1.478 . S
C495 H489 0.930 . S
C495 C491 1.400 . S
C495 C494 1.385 . S
C496 C494 1.478 . S
C496 C498 1.381 . S
C496 C502 1.383 . S
C497 C493 1.495 1_545 S
C497 H503 0.959 . S
C497 H504 0.961 . S
C497 H505 0.960 . S
C498 C496 1.381 . S
C498 C499 1.394 . S
C498 H506 0.930 . S
C499 C498 1.394 . S
C499 C500 1.383 . S
C499 H507 0.929 . S
C500 C499 1.383 . S
C500 C501 1.377 . S
C501 H485 0.930 . S
C501 C500 1.377 . S
C501 C502 1.379 . S
C502 H486 0.931 . S
C502 C496 1.383 . S
C502 C501 1.379 . S
H503 C497 0.959 . S
H504 C497 0.961 . S
H505 C497 0.960 . S
H506 C498 0.930 . S
H507 C499 0.929 . S
H508 C516 0.929 . S
H509 C518 0.930 . S
H510 C520 0.930 . S
H511 C523 0.929 . S
H512 C526 0.930 1_655 S
H513 C528 0.960 . S
H514 C528 0.960 . S
H515 C528 0.960 . S
C516 H508 0.929 . S
C516 C517 1.377 1_655 S
C516 C518 1.384 . S
C517 C516 1.377 1_455 S
C517 C523 1.390 . S
C518 H509 0.930 . S
C518 C516 1.384 . S
C518 C519 1.372 1_655 S
C519 C518 1.372 1_455 S
C519 C520 1.400 . S
C519 C524 1.490 . S
C520 H510 0.930 . S
C520 C519 1.400 . S
C520 C523 1.386 . S
H521 C537 0.930 . S
H522 C538 0.931 . S
C523 H511 0.929 . S
C523 C517 1.390 . S
C523 C520 1.386 . S
C524 C519 1.490 . S
C524 C526 1.395 . S
C524 C527 1.403 . S
H525 C531 0.930 . S
C526 H512 0.930 1_455 S
C526 C524 1.395 . S
C526 C529 1.403 . S
C527 C524 1.403 . S
C527 C528 1.524 . S
C527 C531 1.400 . S
C528 H513 0.960 . S
C528 H514 0.960 . S
C528 H515 0.960 . S
C528 C527 1.524 . S
C529 C526 1.403 . S
C529 C530 1.392 . S
C529 C533 1.495 . S
C530 C529 1.392 . S
C530 C531 1.385 . S
C530 C532 1.478 . S
C531 H525 0.930 . S
C531 C527 1.400 . S
C531 C530 1.385 . S
C532 C530 1.478 . S
C532 C534 1.381 . S
C532 C538 1.383 . S
C533 C529 1.495 . S
C533 H539 0.959 1_455 S
C533 H540 0.961 . S
C533 H541 0.960 1_455 S
C534 C532 1.381 . S
C534 C535 1.394 . S
C534 H542 0.930 . S
C535 C534 1.394 . S
C535 C536 1.383 . S
C535 H543 0.929 . S
C536 C535 1.383 . S
C536 C537 1.377 . S
C537 H521 0.930 . S
C537 C536 1.377 . S
C537 C538 1.379 . S
C538 H522 0.931 . S
C538 C532 1.383 . S
C538 C537 1.379 . S
H539 C533 0.959 1_655 S
H540 C533 0.961 . S
H541 C533 0.960 1_655 S
H542 C534 0.930 . S
H543 C535 0.929 . S
H544 C552 0.929 . S
H545 C554 0.930 . S
H546 C556 0.930 . S
H547 C559 0.929 . S
H548 C562 0.930 . S
H549 C564 0.960 . S
H550 C564 0.960 . S
H551 C564 0.960 . S
C552 H544 0.929 . S
C552 C553 1.377 . S
C552 C554 1.384 . S
C553 C552 1.377 . S
C553 C559 1.390 . S
C554 H545 0.930 . S
C554 C552 1.384 . S
C554 C555 1.372 . S
C555 C554 1.372 . S
C555 C556 1.400 . S
C555 C560 1.490 . S
C556 H546 0.930 . S
C556 C555 1.400 . S
C556 C559 1.386 . S
H557 C573 0.930 . S
H558 C574 0.931 . S
C559 H547 0.929 . S
C559 C553 1.390 . S
C559 C556 1.386 . S
C560 C555 1.490 . S
C560 C562 1.395 . S
C560 C563 1.403 . S
H561 C567 0.930 . S
C562 H548 0.930 . S
C562 C560 1.395 . S
C562 C565 1.403 . S
C563 C560 1.403 . S
C563 C564 1.524 . S
C563 C567 1.400 . S
C564 H549 0.960 . S
C564 H550 0.960 . S
C564 H551 0.960 . S
C564 C563 1.524 . S
C565 C562 1.403 . S
C565 C566 1.392 . S
C565 C569 1.495 . S
C566 C565 1.392 . S
C566 C567 1.385 . S
C566 C568 1.478 . S
C567 H561 0.930 . S
C567 C563 1.400 . S
C567 C566 1.385 . S
C568 C566 1.478 . S
C568 C570 1.381 . S
C568 C574 1.383 . S
C569 C565 1.495 . S
C569 H575 0.959 . S
C569 H576 0.961 . S
C569 H577 0.960 . S
C570 C568 1.381 . S
C570 C571 1.394 . S
C570 H578 0.930 . S
C571 C570 1.394 . S
C571 C572 1.383 . S
C571 H579 0.929 . S
C572 C571 1.383 . S
C572 C573 1.377 . S
C573 H557 0.930 . S
C573 C572 1.377 . S
C573 C574 1.379 . S
C574 H558 0.931 . S
C574 C568 1.383 . S
C574 C573 1.379 . S
H575 C569 0.959 . S
H576 C569 0.961 . S
H577 C569 0.960 . S
H578 C570 0.930 . S
H579 C571 0.929 . S
H580 C588 0.929 . S
H581 C590 0.930 . S
H582 C592 0.930 . S
H583 C595 0.929 . S
H584 C598 0.930 . S
H585 C600 0.960 . S
H586 C600 0.960 . S
H587 C600 0.960 . S
C588 H580 0.929 . S
C588 C589 1.377 . S
C588 C590 1.384 . S
C589 C588 1.377 . S
C589 C595 1.390 . S
C590 H581 0.930 . S
C590 C588 1.384 . S
C590 C591 1.372 . S
C591 C590 1.372 . S
C591 C592 1.400 . S
C591 C596 1.490 . S
C592 H582 0.930 . S
C592 C591 1.400 . S
C592 C595 1.386 . S
H593 C609 0.930 . S
H594 C610 0.931 . S
C595 H583 0.929 . S
C595 C589 1.390 . S
C595 C592 1.386 . S
C596 C591 1.490 . S
C596 C598 1.395 . S
C596 C599 1.403 . S
H597 C603 0.930 . S
C598 H584 0.930 . S
C598 C596 1.395 . S
C598 C601 1.403 . S
C599 C596 1.403 . S
C599 C600 1.524 . S
C599 C603 1.400 . S
C600 H585 0.960 . S
C600 H586 0.960 . S
C600 H587 0.960 . S
C600 C599 1.524 . S
C601 C598 1.403 . S
C601 C602 1.392 . S
C601 C605 1.495 . S
C602 C601 1.392 . S
C602 C603 1.385 . S
C602 C604 1.478 . S
C603 H597 0.930 . S
C603 C599 1.400 . S
C603 C602 1.385 . S
C604 C602 1.478 . S
C604 C606 1.381 . S
C604 C610 1.383 . S
C605 C601 1.495 . S
C605 H611 0.959 . S
C605 H612 0.961 . S
C605 H613 0.960 . S
C606 C604 1.381 . S
C606 C607 1.394 . S
C606 H614 0.930 . S
C607 C606 1.394 . S
C607 C608 1.383 . S
C607 H615 0.929 . S
C608 C607 1.383 . S
C608 C609 1.377 . S
C609 H593 0.930 . S
C609 C608 1.377 . S
C609 C610 1.379 . S
C610 H594 0.931 . S
C610 C604 1.383 . S
C610 C609 1.379 . S
H611 C605 0.959 . S
H612 C605 0.961 . S
H613 C605 0.960 . S
H614 C606 0.930 . S
H615 C607 0.929 . S
H616 C624 0.929 . S
H617 C626 0.930 . S
H618 C628 0.930 . S
H619 C631 0.929 . S
H620 C634 0.930 . S
H621 C636 0.960 1_565 S
H622 C636 0.960 . S
H623 C636 0.960 . S
C624 H616 0.929 . S
C624 C625 1.377 . S
C624 C626 1.384 . S
C625 C624 1.377 . S
C625 C631 1.390 . S
C626 H617 0.930 . S
C626 C624 1.384 . S
C626 C627 1.372 . S
C627 C626 1.372 . S
C627 C628 1.400 . S
C627 C632 1.490 . S
C628 H618 0.930 . S
C628 C627 1.400 . S
C628 C631 1.386 . S
H629 C645 0.930 . S
H630 C646 0.930 . S
C631 H619 0.929 . S
C631 C625 1.390 . S
C631 C628 1.386 . S
C632 C627 1.490 . S
C632 C634 1.395 . S
C632 C635 1.403 . S
H633 C639 0.930 . S
C634 H620 0.930 . S
C634 C632 1.395 . S
C634 C637 1.403 . S
C635 C632 1.403 . S
C635 C636 1.524 . S
C635 C639 1.400 . S
C636 H621 0.960 1_545 S
C636 H622 0.960 . S
C636 H623 0.960 . S
C636 C635 1.524 . S
C637 C634 1.403 . S
C637 C638 1.392 . S
C637 C641 1.495 . S
C638 C637 1.392 . S
C638 C639 1.385 . S
C638 C640 1.478 . S
C639 H633 0.930 . S
C639 C635 1.400 . S
C639 C638 1.385 . S
C640 C638 1.478 . S
C640 C642 1.381 . S
C640 C646 1.383 . S
C641 C637 1.495 . S
C641 H647 0.959 . S
C641 H648 0.961 . S
C641 H649 0.960 . S
C642 C640 1.381 . S
C642 C643 1.394 . S
C642 H650 0.930 . S
C643 C642 1.394 . S
C643 C644 1.383 . S
C643 H651 0.929 . S
C644 C643 1.383 . S
C644 C645 1.377 1_545 S
C645 H629 0.930 . S
C645 C644 1.377 1_565 S
C645 C646 1.379 1_565 S
C646 H630 0.930 . S
C646 C640 1.383 . S
C646 C645 1.379 1_545 S
H647 C641 0.959 . S
H648 C641 0.961 . S
H649 C641 0.960 . S
H650 C642 0.930 . S
H651 C643 0.929 . S
H652 C660 0.929 . S
H653 C662 0.930 1_455 S
H654 C664 0.930 . S
H655 C667 0.929 . S
H656 C670 0.930 1_455 S
H657 C672 0.960 . S
H658 C672 0.960 . S
H659 C672 0.960 . S
C660 H652 0.929 . S
C660 C661 1.377 1_455 S
C660 C662 1.384 1_455 S
C661 C660 1.377 1_655 S
C661 C667 1.390 . S
C662 H653 0.930 1_655 S
C662 C660 1.384 1_655 S
C662 C663 1.372 . S
C663 C662 1.372 . S
C663 C664 1.400 . S
C663 C668 1.490 . S
C664 H654 0.930 . S
C664 C663 1.400 . S
C664 C667 1.386 . S
H665 C681 0.930 . S
H666 C682 0.931 . S
C667 H655 0.929 . S
C667 C661 1.390 . S
C667 C664 1.386 . S
C668 C663 1.490 . S
C668 C670 1.395 . S
C668 C671 1.403 . S
H669 C675 0.930 . S
C670 H656 0.930 1_655 S
C670 C668 1.395 . S
C670 C673 1.403 . S
C671 C668 1.403 . S
C671 C672 1.524 . S
C671 C675 1.400 . S
C672 H657 0.960 . S
C672 H658 0.960 . S
C672 H659 0.960 . S
C672 C671 1.524 . S
C673 C670 1.403 . S
C673 C674 1.392 . S
C673 C677 1.484 1_655 S
C674 C673 1.392 . S
C674 C675 1.385 . S
C674 C676 1.478 . S
C675 H669 0.930 . S
C675 C671 1.400 . S
C675 C674 1.385 . S
C676 C674 1.478 . S
C676 C678 1.381 . S
C676 C682 1.383 . S
C677 C673 1.484 1_455 S
C677 H683 0.973 . S
C677 H684 0.957 1_455 S
C677 H685 0.961 . S
C678 C676 1.381 . S
C678 C679 1.394 . S
C678 H686 0.930 . S
C679 C678 1.394 . S
C679 C680 1.383 . S
C679 H687 0.929 . S
C680 C679 1.383 . S
C680 C681 1.377 . S
C681 H665 0.930 . S
C681 C680 1.377 . S
C681 C682 1.379 . S
C682 H666 0.931 . S
C682 C676 1.383 . S
C682 C681 1.379 . S
H683 C677 0.973 . S
H684 C677 0.957 1_655 S
H685 C677 0.961 . S
H686 C678 0.930 . S
H687 C679 0.929 . S
C121 C67 1.614 . S
C140 C11 1.614 . S
C157 C25 1.607 . S
C176 C81 1.604 . S
C193 C39 1.606 . S
C212 C95 1.608 . S
C229 C109 1.613 . S
C248 C53 1.608 . S
C265 C0 1.366 . S
C284 C28 1.347 . S
C301 C14 1.369 . S
C320 C42 1.374 . S
C337 C93 1.302 . S
C356 C65 1.304 . S
C373 C79 1.304 . S
C392 C107 1.316 . S
C409 C75 0.878 . S
C428 C9 0.858 . S
C445 C23 0.870 . S
C464 C89 0.857 . S
C481 C37 0.860 . S
C500 C103 0.863 1_565 S
C517 C61 0.879 1_455 S
C536 C51 0.869 . S
C553 C56 0.892 . S
C572 C19 0.898 . S
C589 C70 0.886 . S
C608 C33 0.897 . S
C625 C84 0.888 . S
C644 C47 0.909 1_545 S
C661 C5 0.892 1_655 S
C680 C98 0.920 . S
