# Generated by pormake.
# Topology whj, (6)-cn, num edge types: 1
# Building blocks:
#     Node 0, Type 0, BuildingBlock: IZENUY_clean_sbu_0, # of connection points: 6
#     Node 1, Type 0, BuildingBlock: IZENUY_clean_sbu_0, # of connection points: 6
#     Node 2, Type 0, BuildingBlock: IZENUY_clean_sbu_0, # of connection points: 6
#     Node 3, Type 0, BuildingBlock: IZENUY_clean_sbu_0, # of connection points: 6
#     Node 4, Type 0, BuildingBlock: IZENUY_clean_sbu_0, # of connection points: 6
#     Node 5, Type 0, BuildingBlock: IZENUY_clean_sbu_0, # of connection points: 6
#     Node 6, Type 0, BuildingBlock: IZENUY_clean_sbu_0, # of connection points: 6
#     Node 7, Type 0, BuildingBlock: IZENUY_clean_sbu_0, # of connection points: 6
#     Node 8, Type 0, BuildingBlock: IZENUY_clean_sbu_0, # of connection points: 6
#     Node 9, Type 0, BuildingBlock: IZENUY_clean_sbu_0, # of connection points: 6
#     Node 10, Type 0, BuildingBlock: IZENUY_clean_sbu_0, # of connection points: 6
#     Node 11, Type 0, BuildingBlock: IZENUY_clean_sbu_0, # of connection points: 6
#     Node 12, Type 0, BuildingBlock: IZENUY_clean_sbu_0, # of connection points: 6
#     Node 13, Type 0, BuildingBlock: IZENUY_clean_sbu_0, # of connection points: 6
#     Node 14, Type 0, BuildingBlock: IZENUY_clean_sbu_0, # of connection points: 6
#     Node 15, Type 0, BuildingBlock: IZENUY_clean_sbu_0, # of connection points: 6
#     Edge 16, Type (0, 0), BuildingBlock: XIVTED_clean_linker_0, # of connection points: 2
#     Edge 17, Type (0, 0), BuildingBlock: XIVTED_clean_linker_0, # of connection points: 2
#     Edge 18, Type (0, 0), BuildingBlock: XIVTED_clean_linker_0, # of connection points: 2
#     Edge 19, Type (0, 0), BuildingBlock: XIVTED_clean_linker_0, # of connection points: 2
#     Edge 20, Type (0, 0), BuildingBlock: XIVTED_clean_linker_0, # of connection points: 2
#     Edge 21, Type (0, 0), BuildingBlock: XIVTED_clean_linker_0, # of connection points: 2
#     Edge 22, Type (0, 0), BuildingBlock: XIVTED_clean_linker_0, # of connection points: 2
#     Edge 23, Type (0, 0), BuildingBlock: XIVTED_clean_linker_0, # of connection points: 2
#     Edge 24, Type (0, 0), BuildingBlock: XIVTED_clean_linker_0, # of connection points: 2
#     Edge 25, Type (0, 0), BuildingBlock: XIVTED_clean_linker_0, # of connection points: 2
#     Edge 26, Type (0, 0), BuildingBlock: XIVTED_clean_linker_0, # of connection points: 2
#     Edge 27, Type (0, 0), BuildingBlock: XIVTED_clean_linker_0, # of connection points: 2
#     Edge 28, Type (0, 0), BuildingBlock: XIVTED_clean_linker_0, # of connection points: 2
#     Edge 29, Type (0, 0), BuildingBlock: XIVTED_clean_linker_0, # of connection points: 2
#     Edge 30, Type (0, 0), BuildingBlock: XIVTED_clean_linker_0, # of connection points: 2
#     Edge 31, Type (0, 0), BuildingBlock: XIVTED_clean_linker_0, # of connection points: 2
#     Edge 32, Type (0, 0), BuildingBlock: XIVTED_clean_linker_0, # of connection points: 2
#     Edge 33, Type (0, 0), BuildingBlock: XIVTED_clean_linker_0, # of connection points: 2
#     Edge 34, Type (0, 0), BuildingBlock: XIVTED_clean_linker_0, # of connection points: 2
#     Edge 35, Type (0, 0), BuildingBlock: XIVTED_clean_linker_0, # of connection points: 2
#     Edge 36, Type (0, 0), BuildingBlock: XIVTED_clean_linker_0, # of connection points: 2
#     Edge 37, Type (0, 0), BuildingBlock: XIVTED_clean_linker_0, # of connection points: 2
#     Edge 38, Type (0, 0), BuildingBlock: XIVTED_clean_linker_0, # of connection points: 2
#     Edge 39, Type (0, 0), BuildingBlock: XIVTED_clean_linker_0, # of connection points: 2
#     Edge 40, Type (0, 0), BuildingBlock: XIVTED_clean_linker_0, # of connection points: 2
#     Edge 41, Type (0, 0), BuildingBlock: XIVTED_clean_linker_0, # of connection points: 2
#     Edge 42, Type (0, 0), BuildingBlock: XIVTED_clean_linker_0, # of connection points: 2
#     Edge 43, Type (0, 0), BuildingBlock: XIVTED_clean_linker_0, # of connection points: 2
#     Edge 44, Type (0, 0), BuildingBlock: XIVTED_clean_linker_0, # of connection points: 2
#     Edge 45, Type (0, 0), BuildingBlock: XIVTED_clean_linker_0, # of connection points: 2
#     Edge 46, Type (0, 0), BuildingBlock: XIVTED_clean_linker_0, # of connection points: 2
#     Edge 47, Type (0, 0), BuildingBlock: XIVTED_clean_linker_0, # of connection points: 2
#     Edge 48, Type (0, 0), BuildingBlock: XIVTED_clean_linker_0, # of connection points: 2
#     Edge 49, Type (0, 0), BuildingBlock: XIVTED_clean_linker_0, # of connection points: 2
#     Edge 50, Type (0, 0), BuildingBlock: XIVTED_clean_linker_0, # of connection points: 2
#     Edge 51, Type (0, 0), BuildingBlock: XIVTED_clean_linker_0, # of connection points: 2
#     Edge 52, Type (0, 0), BuildingBlock: XIVTED_clean_linker_0, # of connection points: 2
#     Edge 53, Type (0, 0), BuildingBlock: XIVTED_clean_linker_0, # of connection points: 2
#     Edge 54, Type (0, 0), BuildingBlock: XIVTED_clean_linker_0, # of connection points: 2
#     Edge 55, Type (0, 0), BuildingBlock: XIVTED_clean_linker_0, # of connection points: 2
#     Edge 56, Type (0, 0), BuildingBlock: XIVTED_clean_linker_0, # of connection points: 2
#     Edge 57, Type (0, 0), BuildingBlock: XIVTED_clean_linker_0, # of connection points: 2
#     Edge 58, Type (0, 0), BuildingBlock: XIVTED_clean_linker_0, # of connection points: 2
#     Edge 59, Type (0, 0), BuildingBlock: XIVTED_clean_linker_0, # of connection points: 2
#     Edge 60, Type (0, 0), BuildingBlock: XIVTED_clean_linker_0, # of connection points: 2
#     Edge 61, Type (0, 0), BuildingBlock: XIVTED_clean_linker_0, # of connection points: 2
#     Edge 62, Type (0, 0), BuildingBlock: XIVTED_clean_linker_0, # of connection points: 2
#     Edge 63, Type (0, 0), BuildingBlock: XIVTED_clean_linker_0, # of connection points: 2
# Relax obj value: 0.270
# Max RMSD: 0.261
# Mean RMSD: 0.261
data_MOF--net-whj--node1-IZENUY_clean_sbu_0--edge1-XIVTED_clean_linker_0
_symmetry_space_group_name_H-M    P1
_symmetry_Int_Tables_number       1
_symmetry_cell_setting            triclinic
loop_
_symmetry_equiv_pos_as_xyz
'x, y, z'
_cell_length_a     37.179915
_cell_length_b     37.272518
_cell_length_c     47.331559
_cell_angle_alpha  90.005586
_cell_angle_beta   89.893642
_cell_angle_gamma 90.064363
loop_
_atom_site_label
_atom_site_type_symbol
_atom_site_fract_x
_atom_site_fract_y
_atom_site_fract_z
_atom_type_partial_charge
Fe0 Fe 0.68816 1.00356 0.08508 0.0
Fe1 Fe 0.62939 0.0427 0.11827 0.0
O2 O 0.67473 0.04033 0.10636 0.0
Fe3 Fe 0.70543 0.07515 0.11507 0.0
O4 O 0.71617 0.08402 0.07853 0.0
O5 O 0.72039 0.02879 0.06293 0.0
O6 O 0.65398 0.01363 0.05852 0.0
C7 C 0.62092 0.01373 0.06435 0.0
C8 C 0.74752 0.01069 0.11927 0.0
O9 O 0.61036 0.01694 0.08942 0.0
C10 C 0.66659 0.07493 0.16384 0.0
O11 O 0.65879 0.97146 0.10388 0.0
O12 O 0.63428 1.00188 0.13911 0.0
O13 O 0.74454 0.04472 0.11917 0.0
O14 O 0.72293 0.99089 0.10962 0.0
C15 C 0.6415 0.11063 0.09806 0.0
O16 O 0.63862 0.06961 0.14951 0.0
O17 O 0.69723 0.07035 0.15299 0.0
C18 C 0.64287 0.97224 0.12774 0.0
O19 O 0.62218 0.08272 0.09741 0.0
O20 O 0.67141 0.11103 0.11116 0.0
C21 C 0.7258 0.06211 0.05983 0.0
Fe22 Fe 0.44257 0.71247 0.11485 0.0
Fe23 Fe 0.51125 0.68786 0.0839 0.0
O24 O 0.47273 0.67784 0.1045 0.0
Fe25 Fe 0.46356 0.63293 0.11418 0.0
O26 O 0.41431 0.63765 0.11239 0.0
O27 O 0.40627 0.69153 0.09516 0.0
O28 O 0.45016 0.74021 0.08333 0.0
C29 C 0.46142 0.73175 0.05896 0.0
C30 C 0.44334 0.6657 0.16274 0.0
O31 O 0.48403 0.70683 0.05573 0.0
C32 C 0.54014 0.63748 0.11903 0.0
O33 O 0.4778 0.73626 0.13429 0.0
O34 O 0.51827 0.73189 0.10022 0.0
O35 O 0.46492 0.64419 0.15119 0.0
O36 O 0.42868 0.69047 0.14836 0.0
C37 C 0.48706 0.62164 0.06067 0.0
O38 O 0.54137 0.66953 0.11042 0.0
O39 O 0.51119 0.61957 0.11723 0.0
C40 C 0.50746 0.74569 0.12322 0.0
O41 O 0.51122 0.64522 0.06419 0.0
O42 O 0.46142 0.61886 0.07785 0.0
C43 C 0.39633 0.6593 0.09741 0.0
Fe44 Fe 0.81557 0.44281 0.11676 0.0
Fe45 Fe 0.83571 0.51271 0.08507 0.0
O46 O 0.84763 0.47645 0.10759 0.0
Fe47 Fe 0.8926 0.47353 0.12019 0.0
O48 O 0.89913 0.43158 0.10178 0.0
O49 O 0.84827 0.40563 0.11461 0.0
O50 O 0.80563 0.43277 0.08015 0.0
C51 C 0.79663 0.45449 0.06111 0.0
C52 C 0.85288 0.44734 0.1667 0.0
O53 O 0.80271 0.48769 0.06382 0.0
C54 C 0.88146 0.54516 0.12634 0.0
O55 O 0.77751 0.47477 0.11946 0.0
O56 O 0.80123 0.52762 0.10932 0.0
O57 O 0.88155 0.45059 0.1528 0.0
O58 O 0.82262 0.44876 0.15473 0.0
C59 C 0.9025 0.49626 0.06476 0.0
O60 O 0.86609 0.54487 0.10239 0.0
O61 O 0.88902 0.51612 0.13886 0.0
C62 C 0.77577 0.5089 0.11909 0.0
O63 O 0.86965 0.50017 0.05888 0.0
O64 O 0.91282 0.49543 0.09001 0.0
C65 C 0.87892 0.40441 0.10267 0.0
Fe66 Fe 0.01149 0.83075 0.08161 0.0
Fe67 Fe 0.0584 0.88565 0.1124 0.0
O68 O 0.04975 0.84079 0.10237 0.0
Fe69 Fe 0.08012 0.80633 0.11253 0.0
O70 O 0.07336 0.7791 0.08059 0.0
O71 O 0.03912 0.81248 0.05336 0.0
O72 O 0.01147 0.87361 0.06229 0.0
C73 C 0.03576 0.89707 0.05883 0.0
C74 C 0.01541 0.77246 0.12037 0.0
O75 O 0.06114 0.89992 0.07616 0.0
C76 C 0.07753 0.85219 0.16088 0.0
O77 O 0.98099 0.84852 0.10825 0.0
O78 O 1.01067 0.8987 0.1151 0.0
O79 O 0.04494 0.78187 0.13152 0.0
O80 O 1.00468 0.78646 0.09746 0.0
C81 C 0.12615 0.86025 0.09606 0.0
O82 O 0.05632 0.87395 0.14927 0.0
O83 O 0.09299 0.82794 0.1464 0.0
C84 C 0.98191 0.88054 0.11697 0.0
O85 O 0.10768 0.88141 0.11113 0.0
O86 O 0.11655 0.82799 0.09334 0.0
C87 C 0.06213 0.78791 0.05629 0.0
Fe88 Fe 0.18877 0.01215 0.42579 0.0
Fe89 Fe 0.13379 0.96513 0.39492 0.0
O90 O 0.17872 0.97395 0.40501 0.0
Fe91 Fe 0.21351 0.94394 0.39476 0.0
O92 O 0.241 0.95135 0.42643 0.0
O93 O 0.2071 0.98464 0.45406 0.0
O94 O 0.14562 0.01247 0.44517 0.0
C95 C 0.12176 0.9885 0.44843 0.0
C96 C 0.24679 1.00856 0.38658 0.0
O97 O 0.11896 0.96316 0.4311 0.0
C98 C 0.16733 0.9448 0.34663 0.0
O99 O 0.17123 0.04229 0.39912 0.0
O100 O 0.12094 0.01283 0.39152 0.0
O101 O 0.23738 0.97909 0.37544 0.0
O102 O 0.23323 0.01895 0.40981 0.0
C103 C 0.16002 0.8978 0.4118 0.0
O104 O 0.14561 0.9663 0.35799 0.0
O105 O 0.19191 0.93018 0.3612 0.0
C106 C 0.1395 0.04135 0.38973 0.0
O107 O 0.13821 0.9159 0.397 0.0
O108 O 0.19229 0.90776 0.41421 0.0
C109 C 0.2321 0.96209 0.45085 0.0
Fe110 Fe 0.50235 0.18598 0.42344 0.0
Fe111 Fe 0.54248 0.12588 0.39324 0.0
O112 O 0.54075 0.17124 0.40466 0.0
Fe113 Fe 0.57756 0.20057 0.3981 0.0
O114 O 0.58287 0.21179 0.43514 0.0
O115 O 0.52603 0.21823 0.44631 0.0
O116 O 0.50923 0.15231 0.45104 0.0
C117 C 0.50889 0.11921 0.44559 0.0
C118 C 0.51465 0.24393 0.38885 0.0
O119 O 0.51326 0.10826 0.42073 0.0
C120 C 0.58072 0.1612 0.34958 0.0
O121 O 0.47121 0.15707 0.40344 0.0
O122 O 0.504 0.13194 0.36993 0.0
O123 O 0.5486 0.24044 0.39156 0.0
O124 O 0.49325 0.22007 0.39753 0.0
C125 C 0.60867 0.13557 0.41769 0.0
O126 O 0.5728 0.13364 0.36363 0.0
O127 O 0.57659 0.19202 0.36006 0.0
C128 C 0.47358 0.14119 0.37968 0.0
O129 O 0.57984 0.11768 0.4165 0.0
O130 O 0.61193 0.16533 0.40461 0.0
C131 C 0.55899 0.22291 0.45181 0.0
Fe132 Fe 0.39426 0.54641 0.39816 0.0
Fe133 Fe 0.31742 0.57746 0.39849 0.0
O134 O 0.34835 0.54321 0.40829 0.0
Fe135 Fe 0.33409 0.50605 0.42904 0.0
O136 O 0.36528 0.51725 0.45737 0.0
O137 O 0.41155 0.52347 0.429 0.0
O138 O 0.39946 0.5876 0.41771 0.0
C139 C 0.37998 0.61516 0.41615 0.0
C140 C 0.38407 0.47507 0.38993 0.0
O141 O 0.35026 0.61453 0.40283 0.0
C142 C 0.27712 0.5117 0.39278 0.0
O143 O 0.38599 0.57045 0.36546 0.0
O144 O 0.32729 0.57264 0.36079 0.0
O145 O 0.36602 0.47432 0.41274 0.0
O146 O 0.39231 0.5046 0.37845 0.0
C147 C 0.29435 0.5638 0.45278 0.0
O148 O 0.27908 0.54586 0.39363 0.0
O149 O 0.30212 0.49248 0.40248 0.0
C150 C 0.35849 0.57429 0.35026 0.0
O151 O 0.30524 0.58617 0.43484 0.0
O152 O 0.29933 0.53054 0.44908 0.0
C153 C 0.39856 0.52126 0.45347 0.0
Fe154 Fe 0.96531 0.38527 0.39782 0.0
Fe155 Fe 0.94445 0.30572 0.39692 0.0
O156 O 0.9742 0.34046 0.40778 0.0
Fe157 Fe 0.01183 0.33051 0.42931 0.0
O158 O 0.01112 0.37315 0.4489 0.0
O159 O 0.96206 0.39956 0.43404 0.0
O160 O 0.91605 0.38042 0.39894 0.0
C161 C 0.89763 0.35864 0.41356 0.0
C162 C 0.04213 0.38093 0.39455 0.0
O163 O 0.90755 0.32645 0.41602 0.0
C164 C 1.00931 0.27255 0.38994 0.0
O165 O 0.96766 0.37388 0.36081 0.0
O166 O 0.93131 0.32767 0.36336 0.0
O167 O 0.04323 0.34897 0.40351 0.0
O168 O 0.013 0.39861 0.39547 0.0
C169 C 0.96044 0.28691 0.45313 0.0
O170 O 0.98031 0.28225 0.37811 0.0
O171 O 0.01937 0.28643 0.41313 0.0
C172 C 0.94587 0.35269 0.34915 0.0
O173 O 0.95121 0.27792 0.4284 0.0
O174 O 0.98312 0.3117 0.45693 0.0
C175 C 0.98694 0.39676 0.45179 0.0
Fe176 Fe 0.31825 0.94453 0.89647 0.0
Fe177 Fe 0.39444 0.97675 0.89373 0.0
O178 O 0.34891 0.97942 0.90512 0.0
Fe179 Fe 0.33525 0.01663 0.92584 0.0
O180 O 0.30259 0.99193 0.94792 0.0
O181 O 0.3068 0.93638 0.93302 0.0
O182 O 0.35205 0.90863 0.90115 0.0
C183 C 0.38183 0.90913 0.91442 0.0
C184 C 0.2764 1.00906 0.8912 0.0
O185 O 0.4012 0.93703 0.91505 0.0
C186 C 0.38136 0.04707 0.88336 0.0
O187 O 0.32716 0.94846 0.85855 0.0
O188 O 0.3857 0.94935 0.8627 0.0
O189 O 0.30096 0.02894 0.90078 0.0
O190 O 0.27931 0.97502 0.89163 0.0
C191 C 0.40207 1.00666 0.94741 0.0
O192 O 0.39 0.0172 0.87239 0.0
O193 O 0.36504 0.0483 0.90703 0.0
C194 C 0.35802 0.94353 0.84815 0.0
O195 O 0.41306 1.00293 0.9225 0.0
O196 O 0.36891 1.00696 0.95288 0.0
C197 C 0.29698 0.9587 0.95136 0.0
Fe198 Fe 0.55885 0.38686 0.89877 0.0
Fe199 Fe 0.51106 0.33171 0.92869 0.0
O200 O 0.54957 0.34185 0.9081 0.0
Fe201 Fe 0.57958 0.30724 0.89741 0.0
O202 O 0.61606 0.32783 0.91708 0.0
O203 O 0.60809 0.38198 0.90036 0.0
O204 O 0.5612 0.40042 0.93522 0.0
C205 C 0.53557 0.39755 0.95239 0.0
C206 C 0.57841 0.35445 0.84984 0.0
O207 O 0.5113 0.37413 0.94871 0.0
C208 C 0.51454 0.27439 0.88893 0.0
O209 O 0.51125 0.40043 0.89594 0.0
O210 O 0.48092 0.35048 0.90235 0.0
O211 O 0.59328 0.32957 0.86397 0.0
O212 O 0.55724 0.37609 0.86169 0.0
C213 C 0.56088 0.28742 0.95325 0.0
O214 O 0.50382 0.28792 0.91206 0.0
O215 O 0.54423 0.28377 0.87793 0.0
C216 C 0.48226 0.38262 0.89396 0.0
O217 O 0.53829 0.31232 0.95667 0.0
O218 O 0.5721 0.2792 0.92881 0.0
C219 C 0.62613 0.36003 0.91503 0.0
Fe220 Fe 0.20713 0.57809 0.89415 0.0
Fe221 Fe 0.13012 0.54728 0.8914 0.0
O222 O 0.17519 0.54453 0.90374 0.0
Fe223 Fe 0.18732 0.50852 0.92645 0.0
O224 O 0.22046 0.53381 0.94741 0.0
O225 O 0.21741 0.5885 0.93063 0.0
O226 O 0.1744 0.61526 0.89633 0.0
C227 C 0.14389 0.61652 0.9085 0.0
C228 C 0.247 0.512 0.89213 0.0
O229 O 0.12372 0.58934 0.90964 0.0
C230 C 0.14116 0.47563 0.88561 0.0
O231 O 0.19968 0.57184 0.85623 0.0
O232 O 0.14081 0.57002 0.85864 0.0
O233 O 0.22163 0.49338 0.90216 0.0
O234 O 0.24519 0.54612 0.89143 0.0
C235 C 0.12069 0.52512 0.94698 0.0
O236 O 0.13365 0.50457 0.87292 0.0
O237 O 0.15679 0.47616 0.90946 0.0
C238 C 0.16927 0.57326 0.84449 0.0
O239 O 0.11019 0.52559 0.92178 0.0
O240 O 0.15358 0.52132 0.95274 0.0
C241 C 0.22651 0.56706 0.94982 0.0
Fe242 Fe 0.01236 0.18889 0.93082 0.0
Fe243 Fe 0.9439 0.21342 0.8997 0.0
O244 O 0.97428 0.17896 0.90983 0.0
Fe245 Fe 0.96578 0.13418 0.89949 0.0
O246 O 0.96271 0.11957 0.93563 0.0
O247 O 0.01214 0.14595 0.95 0.0
O248 O 0.98454 0.20709 0.959 0.0
C249 C 0.96155 0.2317 0.95602 0.0
C250 C 0.04225 0.13931 0.89536 0.0
O251 O 0.95045 0.24053 0.93171 0.0
C252 C 0.94691 0.16796 0.85114 0.0
O253 O 0.01932 0.23322 0.91508 0.0
O254 O 0.97917 0.23805 0.88093 0.0
O255 O 0.01349 0.12114 0.89701 0.0
O256 O 0.04313 0.17123 0.9043 0.0
C257 C 0.8979 0.15926 0.91567 0.0
O258 O 0.93125 0.192 0.86572 0.0
O259 O 0.96822 0.14626 0.86271 0.0
C260 C 1.00872 0.24727 0.89215 0.0
O261 O 0.9074 0.19152 0.91871 0.0
O262 O 0.9165 0.1384 0.90045 0.0
C263 C 0.98786 0.1224 0.95317 0.0
Fe264 Fe 0.88882 0.05596 0.61771 0.0
Fe265 Fe 0.83443 1.00963 0.58563 0.0
O266 O 0.84405 0.04688 0.60743 0.0
Fe267 Fe 0.80884 0.076 0.61833 0.0
O268 O 0.82941 0.11285 0.5991 0.0
O269 O 0.8835 0.10513 0.6165 0.0
O270 O 0.90394 0.05929 0.58164 0.0
C271 C 0.90129 0.03467 0.56367 0.0
C272 C 0.85519 0.07473 0.66625 0.0
O273 O 0.87744 0.01057 0.5662 0.0
C274 C 0.77647 0.01091 0.62529 0.0
O275 O 0.90222 1.00834 0.62022 0.0
O276 O 0.85247 0.97842 0.61136 0.0
O277 O 0.83059 0.08957 0.65186 0.0
O278 O 0.87685 0.05345 0.65459 0.0
C279 C 0.7895 0.05926 0.56222 0.0
O280 O 0.79009 1.00158 0.60174 0.0
O281 O 0.78586 0.03991 0.63725 0.0
C282 C 0.88408 0.97948 0.62106 0.0
O283 O 0.81578 0.03847 0.55814 0.0
O284 O 0.78077 0.06848 0.58702 0.0
C285 C 0.86164 0.12307 0.6016 0.0
Fe286 Fe 0.51766 0.83502 0.58555 0.0
Fe287 Fe 0.44472 0.817 0.61359 0.0
O288 O 0.47955 0.84813 0.60555 0.0
Fe289 Fe 0.47609 0.89355 0.61686 0.0
O290 O 0.5028 0.91236 0.58837 0.0
O291 O 0.50812 0.8683 0.55817 0.0
O292 O 0.49426 0.80184 0.5634 0.0
C293 C 0.4613 0.79544 0.55918 0.0
C294 C 0.5465 0.88121 0.6283 0.0
O295 O 0.43794 0.80505 0.57685 0.0
C296 C 0.44192 0.85685 0.6619 0.0
O297 O 0.52973 0.80126 0.61108 0.0
O298 O 0.47578 0.77873 0.61941 0.0
O299 O 0.51622 0.88965 0.6388 0.0
O300 O 0.54843 0.86527 0.60457 0.0
C301 C 0.40895 0.8802 0.59512 0.0
O302 O 0.44718 0.82612 0.65155 0.0
O303 O 0.44797 0.88456 0.64749 0.0
C304 C 0.50993 0.77662 0.6207 0.0
O305 O 0.40845 0.85019 0.60802 0.0
O306 O 0.43669 0.89986 0.59503 0.0
C307 C 0.50713 0.90141 0.56351 0.0
Fe308 Fe 0.62658 0.47246 0.61306 0.0
Fe309 Fe 0.68739 0.51202 0.58236 0.0
O310 O 0.67256 0.47502 0.60302 0.0
Fe311 Fe 0.70295 0.4403 0.61281 0.0
O312 O 0.66959 0.40373 0.60831 0.0
O313 O 0.62083 0.43141 0.59338 0.0
O314 O 0.60974 0.4958 0.58224 0.0
C315 C 0.62282 0.49777 0.55779 0.0
C316 C 0.66176 0.44367 0.66096 0.0
O317 O 0.65616 0.50127 0.55395 0.0
C318 C 0.74413 0.50548 0.61875 0.0
O319 O 0.62914 0.51421 0.63287 0.0
O320 O 0.65585 0.54413 0.5986 0.0
O321 O 0.69301 0.4451 0.65051 0.0
O322 O 0.6344 0.44812 0.64569 0.0
C323 C 0.72642 0.45384 0.55861 0.0
O324 O 0.71945 0.52508 0.60902 0.0
O325 O 0.74168 0.47135 0.61784 0.0
C326 C 0.63779 0.54366 0.62142 0.0
O327 O 0.72188 0.48714 0.56239 0.0
O328 O 0.71516 0.43154 0.57647 0.0
C329 C 0.63993 0.40357 0.5949 0.0
Fe330 Fe 1.00833 0.68804 0.58173 0.0
Fe331 Fe 0.07601 0.71268 0.61382 0.0
O332 O 0.04603 0.67804 0.60315 0.0
Fe333 Fe 0.05469 0.63323 0.61325 0.0
O334 O 0.05778 0.61875 0.57707 0.0
O335 O 1.00874 0.64527 0.56229 0.0
O336 O 0.0369 0.70658 0.55395 0.0
C337 C 0.05965 0.73133 0.55756 0.0
C338 C 0.97796 0.63802 0.61675 0.0
O339 O 0.06933 0.74028 0.5822 0.0
C340 C 0.0743 0.66605 0.66179 0.0
O341 O 1.00107 0.73223 0.59773 0.0
O342 O 0.04036 0.73656 0.63259 0.0
O343 O 1.00692 0.62011 0.61571 0.0
O344 O 0.97705 0.66994 0.60774 0.0
C345 C 0.1225 0.65937 0.59734 0.0
O346 O 0.08908 0.69086 0.64749 0.0
O347 O 0.05246 0.64485 0.6502 0.0
C348 C 0.01129 0.74622 0.62082 0.0
O349 O 0.11275 0.69159 0.59476 0.0
O350 O 0.10398 0.63778 0.61205 0.0
C351 C 0.03284 0.62158 0.55937 0.0
H352 H 0.70347 0.06464 0.21379 0.0
H353 H 0.5768 0.20077 0.30039 0.0
H354 H 0.61932 0.12774 0.17577 0.0
H355 H 0.629 0.10909 0.33776 0.0
H356 H 0.60465 0.18518 0.2547 0.0
H357 H 0.68866 0.09183 0.2599 0.0
C358 C 0.68237 0.08459 0.2151 0.0
C359 C 0.66221 0.09358 0.19117 0.0
C360 C 0.6103 0.16882 0.27306 0.0
C361 C 0.64546 0.12492 0.24328 0.0
C362 C 0.59453 0.17779 0.29905 0.0
C363 C 0.60018 0.15586 0.32265 0.0
C364 C 0.63229 0.13816 0.27098 0.0
C365 C 0.62344 0.12634 0.31988 0.0
C366 C 0.67383 0.09998 0.24131 0.0
C367 C 0.6351 0.11962 0.19389 0.0
N368 N 0.63852 0.11828 0.29454 0.0
N369 N 0.62743 0.13425 0.21944 0.0
H370 H 0.38161 0.68876 0.19007 0.0
H371 H 0.41079 0.54884 0.3165 0.0
H372 H 0.47434 0.62052 0.20067 0.0
H373 H 0.32211 0.62326 0.31671 0.0
H374 H 0.43033 0.57245 0.27124 0.0
H375 H 0.35698 0.66519 0.23472 0.0
C376 C 0.39704 0.66929 0.20193 0.0
C377 C 0.43008 0.65652 0.19148 0.0
C378 C 0.40642 0.58364 0.2809 0.0
C379 C 0.40174 0.62902 0.2421 0.0
C380 C 0.39507 0.5699 0.3067 0.0
C381 C 0.36484 0.58415 0.3204 0.0
C382 C 0.38769 0.61227 0.2685 0.0
C383 C 0.34543 0.61137 0.3067 0.0
C384 C 0.38279 0.65563 0.22726 0.0
C385 C 0.44869 0.63105 0.20766 0.0
N386 N 0.35741 0.62489 0.28153 0.0
N387 N 0.43421 0.61812 0.23192 0.0
H388 H 0.88666 0.32537 0.32107 0.0
H389 H 0.89504 0.48074 0.20442 0.0
H390 H 0.97083 0.40475 0.31366 0.0
H391 H 0.82258 0.39108 0.19621 0.0
H392 H 0.9161 0.45673 0.24923 0.0
H393 H 0.8584 0.35021 0.27839 0.0
C394 C 0.8995 0.34762 0.31032 0.0
C395 C 0.93119 0.36303 0.32112 0.0
C396 C 0.89524 0.44238 0.23796 0.0
C397 C 0.8985 0.39201 0.27282 0.0
C398 C 0.88286 0.45639 0.21256 0.0
C399 C 0.85691 0.43797 0.19677 0.0
C400 C 0.88197 0.40931 0.24767 0.0
C401 C 0.84228 0.4063 0.20803 0.0
C402 C 0.88315 0.36195 0.28612 0.0
C403 C 0.94639 0.392 0.30635 0.0
N404 N 0.85535 0.39264 0.23274 0.0
N405 N 0.92981 0.40559 0.28321 0.0
H406 H 0.19682 0.88745 0.31762 0.0
H407 H 0.0446 0.89616 0.19877 0.0
H408 H 0.11717 0.97116 0.31023 0.0
H409 H 0.13793 0.82836 0.1893 0.0
H410 H 0.06842 0.9181 0.24325 0.0
H411 H 0.17497 0.86164 0.27298 0.0
C412 C 0.17513 0.90068 0.3065 0.0
C413 C 0.15868 0.93144 0.31787 0.0
C414 C 0.08375 0.89833 0.23158 0.0
C415 C 0.13321 0.90165 0.26728 0.0
C416 C 0.07002 0.88556 0.20618 0.0
C417 C 0.08943 0.86059 0.19005 0.0
C418 C 0.11726 0.88614 0.24122 0.0
C419 C 0.12207 0.84764 0.20103 0.0
C420 C 0.16256 0.88579 0.28114 0.0
C421 C 0.13058 0.9473 0.30254 0.0
N422 N 0.13513 0.86075 0.2259 0.0
N423 N 0.11864 0.93209 0.27828 0.0
H424 H 0.40709 0.89192 0.83755 0.0
H425 H 0.38855 0.90411 0.67219 0.0
H426 H 0.32096 0.95042 0.79777 0.0
H427 H 0.45097 0.82149 0.71274 0.0
H428 H 0.36141 0.9193 0.71755 0.0
H429 H 0.4215 0.86393 0.79244 0.0
C430 C 0.39099 0.89869 0.81924 0.0
C431 C 0.36307 0.92395 0.82127 0.0
C432 C 0.3806 0.8975 0.71658 0.0
C433 C 0.37973 0.89203 0.76934 0.0
C434 C 0.39626 0.88888 0.69072 0.0
C435 C 0.42238 0.86176 0.68883 0.0
C436 C 0.3916 0.87939 0.74101 0.0
C437 C 0.43103 0.84261 0.71334 0.0
C438 C 0.39915 0.88248 0.79352 0.0
C439 C 0.34277 0.93123 0.79705 0.0
N440 N 0.41612 0.85225 0.73858 0.0
N441 N 0.35192 0.9158 0.7719 0.0
H442 H 0.54369 0.39566 0.81131 0.0
H443 H 0.70169 0.39867 0.69559 0.0
H444 H 0.64121 0.33465 0.82244 0.0
H445 H 0.60572 0.46351 0.69356 0.0
H446 H 0.6822 0.37432 0.74171 0.0
H447 H 0.56667 0.41811 0.76672 0.0
C448 C 0.56991 0.38667 0.80422 0.0
C449 C 0.59057 0.36331 0.82078 0.0
C450 C 0.66569 0.39412 0.73119 0.0
C451 C 0.61763 0.38958 0.76942 0.0
C452 C 0.67698 0.40827 0.70507 0.0
C453 C 0.65519 0.43301 0.69068 0.0
C454 C 0.6325 0.40494 0.74277 0.0
C455 C 0.62323 0.44425 0.70373 0.0
C456 C 0.58319 0.39972 0.77872 0.0
C457 C 0.62431 0.35251 0.81029 0.0
N458 N 0.61285 0.43004 0.72879 0.0
N459 N 0.63695 0.36593 0.78532 0.0
H460 H 0.20271 0.62696 0.81385 0.0
H461 H 0.0456 0.61812 0.69896 0.0
H462 H 0.12316 0.54313 0.80788 0.0
H463 H 0.13597 0.68979 0.68863 0.0
H464 H 0.07328 0.59392 0.74122 0.0
H465 H 0.18067 0.65178 0.7687 0.0
C466 C 0.18149 0.61315 0.80257 0.0
C467 C 0.16474 0.58292 0.81446 0.0
C468 C 0.08719 0.61499 0.72984 0.0
C469 C 0.1387 0.61165 0.76379 0.0
C470 C 0.07117 0.6291 0.70574 0.0
C471 C 0.0885 0.65595 0.69001 0.0
C472 C 0.12094 0.62773 0.73863 0.0
C473 C 0.12158 0.66915 0.70011 0.0
C474 C 0.16859 0.62757 0.77708 0.0
C475 C 0.13679 0.56649 0.79941 0.0
N476 N 0.13685 0.6548 0.72375 0.0
N477 N 0.12447 0.58122 0.77512 0.0
H478 H 0.97973 0.1241 0.8131 0.0
H479 H 0.82567 0.13167 0.69566 0.0
H480 H 0.88622 0.19153 0.82305 0.0
H481 H 0.90618 0.04865 0.7021 0.0
H482 H 0.84809 0.15762 0.74005 0.0
H483 H 0.9555 0.10189 0.76882 0.0
C484 C 0.9542 0.13457 0.80583 0.0
C485 C 0.93485 0.15951 0.82204 0.0
C486 C 0.86057 0.13359 0.73174 0.0
C487 C 0.90654 0.13365 0.77115 0.0
C488 C 0.84767 0.11861 0.70653 0.0
C489 C 0.86419 0.08801 0.69496 0.0
C490 C 0.89031 0.11798 0.74526 0.0
C491 C 0.8927 0.07237 0.70997 0.0
C492 C 0.94022 0.12164 0.78056 0.0
C493 C 0.90204 0.17229 0.81126 0.0
N494 N 0.90495 0.08767 0.73409 0.0
N495 N 0.88875 0.15902 0.78652 0.0
H496 H 0.61182 0.04837 0.01405 0.0
H497 H 0.41083 0.97247 0.99791 0.0
H498 H 0.5658 0.9673 0.06813 0.0
H499 H 0.45674 0.05363 0.94387 0.0
H500 H 0.46676 0.97184 0.02541 0.0
H501 H 0.5557 0.0494 0.98678 0.0
C502 C 0.59031 0.02998 0.0195 0.0
C503 C 0.59319 1.00759 0.04306 0.0
C504 C 0.46437 0.99022 0.0078 0.0
C505 C 0.52892 1.00948 0.01308 0.0
C506 C 0.43226 0.991 0.99254 0.0
C507 C 0.42943 0.01327 0.9689 0.0
C508 C 0.4935 0.01181 0.99913 0.0
C509 C 0.45813 0.03616 0.96213 0.0
C510 C 0.5581 0.03098 1.00436 0.0
C511 C 0.56438 0.98487 0.04992 0.0
N512 N 0.48914 0.03464 0.97702 0.0
N513 N 0.5333 0.98658 0.03514 0.0
H514 H 0.54874 0.60502 0.03174 0.0
H515 H 0.47398 0.41402 0.9815 0.0
H516 H 0.43973 0.56887 0.04583 0.0
H517 H 0.58301 0.45013 0.96745 0.0
H518 H 0.46141 0.46995 0.00646 0.0
H519 H 0.56139 0.54899 0.00693 0.0
C520 C 0.52728 0.58561 0.02918 0.0
C521 C 0.49321 0.59153 0.04105 0.0
C522 C 0.48816 0.4655 0.99809 0.0
C523 C 0.50771 0.52709 0.01325 0.0
C524 C 0.49546 0.4334 0.9841 0.0
C525 C 0.52951 0.42751 0.97218 0.0
C526 C 0.5151 0.49184 1.00016 0.0
C527 C 0.55626 0.45368 0.9761 0.0
C528 C 0.53463 0.55345 0.01529 0.0
C529 C 0.46649 0.56531 0.03721 0.0
N530 N 0.54839 0.48482 0.98956 0.0
N531 N 0.4744 0.53412 0.02383 0.0
H532 H 0.11408 0.48071 0.993 0.0
H533 H 0.90925 0.54089 0.01887 0.0
H534 H 0.06242 0.56736 0.94847 0.0
H535 H 0.96096 0.45428 0.06342 0.0
H536 H 0.96473 0.54997 0.99148 0.0
H537 H 0.05867 0.47181 0.02052 0.0
C538 C 0.09141 0.49844 0.98966 0.0
C539 C 0.09253 0.52473 0.96862 0.0
C540 C 0.96376 0.52869 0.00703 0.0
C541 C 0.02916 0.51419 0.99896 0.0
C542 C 0.93195 0.52322 0.02225 0.0
C543 C 0.93082 0.49688 0.04325 0.0
C544 C 0.99426 0.50761 0.01304 0.0
C545 C 0.96105 0.47501 0.04736 0.0
C546 C 0.05965 0.49307 1.00495 0.0
C547 C 0.06234 0.54668 0.96456 0.0
N548 N 0.99165 0.48102 0.03256 0.0
N549 N 0.03177 0.54075 0.97941 0.0
H550 H 0.049 0.10576 0.98248 0.0
H551 H 0.97422 0.91385 0.03007 0.0
H552 H 0.94025 0.06961 0.96739 0.0
H553 H 0.08335 0.94957 0.04402 0.0
H554 H 0.96162 0.97024 0.00588 0.0
H555 H 0.06147 0.04937 0.00667 0.0
C556 C 0.02755 0.08626 0.98471 0.0
C557 C 0.99364 0.09223 0.97268 0.0
C558 C 0.9884 0.9656 0.01405 0.0
C559 C 1.00794 0.02743 0.99974 0.0
C560 C 0.99572 0.93324 0.02758 0.0
C561 C 0.02979 0.92717 0.03929 0.0
C562 C 0.01535 0.99195 0.01225 0.0
C563 C 0.05658 0.95331 0.03555 0.0
C564 C 0.0348 0.0539 0.99824 0.0
C565 C 0.9669 0.06595 0.97612 0.0
N566 N 0.04869 0.98472 0.02255 0.0
N567 N 0.97473 0.03455 0.98914 0.0
H568 H 0.0707 0.9399 0.46439 0.0
H569 H 0.95321 0.08342 0.54945 0.0
H570 H 0.1039 0.04971 0.4775 0.0
H571 H 0.91863 0.97478 0.53291 0.0
H572 H 1.00825 0.07193 0.52283 0.0
H573 H 0.01582 0.95183 0.49094 0.0
C574 C 0.06666 0.96645 0.47316 0.0
C575 C 0.09187 0.99394 0.46856 0.0
C576 C 0.98853 0.05067 0.52485 0.0
C577 C 0.02871 1.00789 0.49868 0.0
C578 C 0.95697 0.05726 0.53991 0.0
C579 C 0.93133 0.02993 0.54356 0.0
C580 C 0.9946 0.01647 0.51343 0.0
C581 C 0.93759 0.99665 0.53061 0.0
C582 C 0.03517 0.97329 0.48817 0.0
C583 C 0.08526 0.02772 0.48057 0.0
N584 N 0.96875 0.99078 0.51632 0.0
N585 N 0.05415 0.03382 0.49491 0.0
H586 H 0.54254 0.1118 0.49641 0.0
H587 H 0.47366 0.90867 0.51252 0.0
H588 H 0.46379 0.06297 0.44182 0.0
H589 H 0.55198 0.95778 0.56735 0.0
H590 H 0.47137 0.96436 0.48485 0.0
H591 H 0.54498 0.05607 0.52396 0.0
C592 C 0.52484 0.08977 0.49095 0.0
C593 C 0.50273 0.0918 0.46715 0.0
C594 C 0.4895 0.96274 0.50268 0.0
C595 C 0.50633 0.02788 0.49744 0.0
C596 C 0.49125 0.93077 0.51805 0.0
C597 C 0.51318 0.92886 0.54196 0.0
C598 C 0.50977 0.99266 0.51152 0.0
C599 C 0.53481 0.95842 0.54889 0.0
C600 C 0.5267 0.05776 0.50623 0.0
C601 C 0.48105 0.06227 0.46024 0.0
N602 N 0.53234 0.98925 0.5339 0.0
N603 N 0.4836 0.03138 0.47516 0.0
H604 H 0.60126 0.55806 0.53089 0.0
H605 H 0.42 0.46123 0.48082 0.0
H606 H 0.58333 0.44412 0.53646 0.0
H607 H 0.43838 0.57501 0.47425 0.0
H608 H 0.47878 0.45458 0.50355 0.0
H609 H 0.54249 0.56478 0.50815 0.0
C610 C 0.58555 0.53433 0.52604 0.0
C611 C 0.59712 0.50045 0.5348 0.0
C612 C 0.46964 0.48114 0.49774 0.0
C613 C 0.52945 0.5079 0.51063 0.0
C614 C 0.43581 0.48495 0.48544 0.0
C615 C 0.42438 0.51876 0.4764 0.0
C616 C 0.49204 0.51137 0.50058 0.0
C617 C 0.44624 0.54863 0.48159 0.0
C618 C 0.55173 0.53818 0.51374 0.0
C619 C 0.57539 0.47057 0.52934 0.0
N620 N 0.47928 0.54422 0.49311 0.0
N621 N 0.54233 0.475 0.51784 0.0
H622 H 0.97213 0.60503 0.52934 0.0
H623 H 0.04742 0.41319 0.48213 0.0
H624 H 0.08045 0.5687 0.54558 0.0
H625 H 0.93926 0.44966 0.46544 0.0
H626 H 0.05943 0.46936 0.50687 0.0
H627 H 0.96002 0.54881 0.50467 0.0
C628 C 0.99357 0.58554 0.52728 0.0
C629 C 0.02725 0.59143 0.53973 0.0
C630 C 0.03299 0.46495 0.49797 0.0
C631 C 0.01335 0.52681 0.51211 0.0
C632 C 0.02599 0.4327 0.48411 0.0
C633 C 0.99239 0.42686 0.4715 0.0
C634 C 1.00618 0.49144 0.49921 0.0
C635 C 0.96568 0.45319 0.47463 0.0
C636 C 0.98651 0.55327 0.51346 0.0
C637 C 0.05397 0.56513 0.53651 0.0
N638 N 0.97326 0.48446 0.48798 0.0
N639 N 0.04634 0.53384 0.5232 0.0
H640 H 0.67102 0.90535 0.12305 0.0
H641 H 0.4833 0.80666 0.15085 0.0
H642 H 0.5777 0.9613 0.15436 0.0
H643 H 0.57951 0.75529 0.12002 0.0
H644 H 0.5186 0.86147 0.15999 0.0
H645 H 0.63982 0.84848 0.12993 0.0
C646 C 0.64414 0.90557 0.13195 0.0
C647 C 0.62695 0.93812 0.13805 0.0
C648 C 0.53204 0.83795 0.1517 0.0
C649 C 0.59032 0.87284 0.14526 0.0
C650 C 0.51194 0.80662 0.14666 0.0
C651 C 0.52843 0.7765 0.13438 0.0
C652 C 0.56883 0.83895 0.14453 0.0
C653 C 0.56558 0.77802 0.12916 0.0
C654 C 0.62618 0.87305 0.13576 0.0
C655 C 0.59204 0.93679 0.14953 0.0
N656 N 0.58432 0.80867 0.134 0.0
N657 N 0.57461 0.90471 0.15229 0.0
H658 H 0.55021 0.56582 0.13035 0.0
H659 H 0.76498 0.58095 0.12636 0.0
H660 H 0.60828 0.66581 0.12346 0.0
H661 H 0.70828 0.47985 0.12796 0.0
H662 H 0.70788 0.61228 0.13165 0.0
H663 H 0.6074 0.53421 0.13573 0.0
C664 C 0.5749 0.58127 0.13035 0.0
C665 C 0.57427 0.61864 0.1262 0.0
C666 C 0.70785 0.58324 0.1311 0.0
C667 C 0.6401 0.58234 0.1322 0.0
C668 C 0.74055 0.56523 0.12812 0.0
C669 C 0.74158 0.52757 0.12642 0.0
C670 C 0.6756 0.56364 0.13229 0.0
C671 C 0.7089 0.50885 0.12909 0.0
C672 C 0.60762 0.5631 0.13333 0.0
C673 C 0.60729 0.63702 0.12641 0.0
N674 N 0.67726 0.52707 0.1316 0.0
N675 N 0.63876 0.61869 0.12912 0.0
H676 H 0.03937 0.71214 0.14884 0.0
H677 H 0.85335 0.61167 0.11956 0.0
H678 H 0.94353 0.7623 0.11636 0.0
H679 H 0.94566 0.55719 0.1539 0.0
H680 H 0.88391 0.66889 0.12609 0.0
H681 H 1.0042 0.65733 0.15831 0.0
C682 C 1.01083 0.71191 0.14432 0.0
C683 C 0.99443 0.74164 0.13147 0.0
C684 C 0.89748 0.64458 0.13263 0.0
C685 C 0.9542 0.67924 0.14201 0.0
C686 C 0.87989 0.61186 0.12899 0.0
C687 C 0.89704 0.57963 0.13604 0.0
C688 C 0.93294 0.64527 0.1429 0.0
C689 C 0.93143 0.58148 0.14826 0.0
C690 C 0.99081 0.68059 0.14956 0.0
C691 C 0.95741 0.73983 0.12589 0.0
N692 N 0.94856 0.61372 0.15083 0.0
N693 N 0.93875 0.70919 0.13094 0.0
H694 H 0.91445 0.85129 0.12358 0.0
H695 H 0.81454 0.04153 0.12651 0.0
H696 H 0.97102 0.9524 0.12681 0.0
H697 H 0.75977 0.9394 0.12873 0.0
H698 H 0.87211 0.00997 0.13137 0.0
H699 H 0.85773 0.88338 0.12995 0.0
C700 C 0.91505 0.88019 0.12594 0.0
C701 C 0.9477 0.89908 0.12443 0.0
C702 C 0.84743 0.99453 0.13114 0.0
C703 C 0.8825 0.93624 0.13146 0.0
C704 C 0.8145 0.01258 0.12852 0.0
C705 C 0.78216 0.99316 0.12691 0.0
C706 C 0.84805 0.95678 0.13212 0.0
C707 C 0.78394 0.95559 0.12952 0.0
C708 C 0.88257 0.89857 0.12955 0.0
C709 C 0.9466 0.93661 0.12774 0.0
N710 N 0.8162 0.93872 0.13171 0.0
N711 N 0.91459 0.95394 0.13079 0.0
H712 H 0.17021 0.10805 0.38526 0.0
H713 H 0.98291 0.21126 0.3647 0.0
H714 H 0.06874 0.05313 0.37507 0.0
H715 H 0.08104 0.26057 0.3938 0.0
H716 H 0.01576 0.15457 0.35793 0.0
H717 H 0.13966 0.16513 0.3779 0.0
C718 C 0.14155 0.10787 0.38115 0.0
C719 C 0.12201 0.07559 0.38121 0.0
C720 C 0.03017 0.178 0.36533 0.0
C721 C 0.08668 0.14129 0.37283 0.0
C722 C 0.01152 0.21041 0.36894 0.0
C723 C 0.02928 0.24057 0.37997 0.0
C724 C 0.06683 0.176 0.37252 0.0
C725 C 0.06626 0.23787 0.38546 0.0
C726 C 0.12408 0.14058 0.37699 0.0
C727 C 0.08492 0.07729 0.37547 0.0
N728 N 0.0837 0.2062 0.38185 0.0
N729 N 0.0684 0.10959 0.3718 0.0
H730 H 0.46433 0.07599 0.35313 0.0
H731 H 0.25463 0.08067 0.38815 0.0
H732 H 0.4063 0.16921 0.3819 0.0
H733 H 0.30837 0.98487 0.35953 0.0
H734 H 0.30834 0.11544 0.37726 0.0
H735 H 0.40678 0.04456 0.34654 0.0
C736 C 0.43948 0.09024 0.35718 0.0
C737 C 0.44009 0.12522 0.36826 0.0
C738 C 0.30847 0.08691 0.37297 0.0
C739 C 0.37432 0.08928 0.36126 0.0
C740 C 0.27771 0.06703 0.37917 0.0
C741 C 0.27716 0.02978 0.37501 0.0
C742 C 0.33947 0.06947 0.36297 0.0
C743 C 0.3077 0.01356 0.36306 0.0
C744 C 0.40664 0.07216 0.35368 0.0
C745 C 0.40709 0.14218 0.37352 0.0
N746 N 0.33792 0.03341 0.35793 0.0
N747 N 0.37571 0.12397 0.37029 0.0
H748 H 0.35713 0.40727 0.39181 0.0
H749 H 0.54603 0.31125 0.38427 0.0
H750 H 0.45242 0.4665 0.36878 0.0
H751 H 0.44536 0.25541 0.37266 0.0
H752 H 0.51416 0.36854 0.37774 0.0
H753 H 0.38998 0.35127 0.38457 0.0
C754 C 0.38485 0.40842 0.38473 0.0
C755 C 0.402 0.44153 0.38075 0.0
C756 C 0.49929 0.34363 0.37614 0.0
C757 C 0.44029 0.37744 0.37321 0.0
C758 C 0.51749 0.31092 0.37976 0.0
C759 C 0.49833 0.27839 0.37945 0.0
C760 C 0.46172 0.34369 0.37247 0.0
C761 C 0.46127 0.27973 0.3736 0.0
C762 C 0.40365 0.37645 0.38062 0.0
C763 C 0.43809 0.44148 0.37177 0.0
N764 N 0.4442 0.3117 0.3708 0.0
N765 N 0.45627 0.40993 0.36879 0.0
H766 H 0.05164 0.45254 0.38278 0.0
H767 H 0.26674 0.44019 0.38262 0.0
H768 H 0.11085 0.35352 0.39085 0.0
H769 H 0.20908 0.54052 0.38612 0.0
H770 H 0.20975 0.40837 0.37815 0.0
H771 H 0.10843 0.48486 0.37693 0.0
C772 C 0.07651 0.43743 0.38297 0.0
C773 C 0.07627 0.4001 0.38752 0.0
C774 C 0.20947 0.43736 0.37961 0.0
C775 C 0.14171 0.4373 0.38087 0.0
C776 C 0.24211 0.45568 0.38207 0.0
C777 C 0.24289 0.49324 0.38503 0.0
C778 C 0.17701 0.45653 0.38013 0.0
C779 C 0.20993 0.51163 0.38393 0.0
C780 C 0.10899 0.45603 0.37972 0.0
C781 C 0.10953 0.38223 0.38756 0.0
N782 N 0.17835 0.49309 0.38186 0.0
N783 N 0.14079 0.40097 0.38446 0.0
H784 H 0.44601 0.05693 0.85568 0.0
H785 H 0.44222 0.26684 0.88994 0.0
H786 H 0.35462 0.11453 0.88866 0.0
H787 H 0.53848 0.21232 0.86287 0.0
H788 H 0.40744 0.2129 0.88014 0.0
H789 H 0.4776 0.11437 0.84906 0.0
C790 C 0.4322 0.08168 0.86075 0.0
C791 C 0.39766 0.08094 0.87289 0.0
C792 C 0.43608 0.21264 0.87594 0.0
C793 C 0.43376 0.14658 0.86572 0.0
C794 C 0.45596 0.24356 0.88147 0.0
C795 C 0.49334 0.24398 0.87745 0.0
C796 C 0.45363 0.18139 0.86672 0.0
C797 C 0.50969 0.21312 0.86623 0.0
C798 C 0.45037 0.11443 0.8572 0.0
C799 C 0.38128 0.1138 0.87943 0.0
N800 N 0.48981 0.1828 0.8617 0.0
N801 N 0.39953 0.14509 0.876 0.0
H802 H 0.25765 0.43992 0.88497 0.0
H803 H 0.47251 0.45435 0.88272 0.0
H804 H 0.31465 0.54085 0.88357 0.0
H805 H 0.41404 0.35456 0.88917 0.0
H806 H 0.4155 0.48615 0.87691 0.0
H807 H 0.31473 0.4084 0.88022 0.0
C808 C 0.28214 0.45557 0.88335 0.0
C809 C 0.2812 0.49323 0.88496 0.0
C810 C 0.41516 0.45727 0.87931 0.0
C811 C 0.34715 0.45695 0.87972 0.0
C812 C 0.44777 0.43899 0.88255 0.0
C813 C 0.44824 0.40161 0.88669 0.0
C814 C 0.3826 0.43814 0.88017 0.0
C815 C 0.41515 0.38334 0.88624 0.0
C816 C 0.31483 0.43745 0.88068 0.0
C817 C 0.31396 0.51185 0.88249 0.0
N818 N 0.38379 0.40178 0.88328 0.0
N819 N 0.34559 0.49353 0.88029 0.0
H820 H 0.08091 0.25529 0.89451 0.0
H821 H 0.07843 0.46417 0.85582 0.0
H822 H 0.98531 0.30904 0.86536 0.0
H823 H 0.16674 0.40853 0.89521 0.0
H824 H 0.04728 0.40638 0.84976 0.0
H825 H 0.11574 0.30926 0.88496 0.0
C826 C 0.06732 0.27843 0.88569 0.0
C827 C 0.03008 0.2778 0.88104 0.0
C828 C 0.07375 0.40682 0.85925 0.0
C829 C 0.06986 0.34037 0.87051 0.0
C830 C 0.09166 0.43974 0.86252 0.0
C831 C 0.12514 0.44116 0.87624 0.0
C832 C 0.08963 0.3752 0.86956 0.0
C833 C 0.14085 0.40874 0.88476 0.0
C834 C 0.08723 0.30934 0.8803 0.0
C835 C 0.01397 0.30843 0.86928 0.0
N836 N 0.1229 0.37728 0.88148 0.0
N837 N 0.03387 0.33876 0.86484 0.0
H838 H 0.20929 0.97827 0.88445 0.0
H839 H 0.10977 0.16855 0.88891 0.0
H840 H 0.26425 0.08026 0.88125 0.0
H841 H 0.05299 0.0676 0.88486 0.0
H842 H 0.16638 0.13646 0.88193 0.0
H843 H 0.15172 0.00994 0.88005 0.0
C844 C 0.20936 1.0072 0.8823 0.0
C845 C 0.24177 0.02656 0.88352 0.0
C846 C 0.14152 0.12131 0.88229 0.0
C847 C 0.17589 0.06307 0.87888 0.0
C848 C 0.1091 0.13969 0.88626 0.0
C849 C 0.07643 0.12084 0.88771 0.0
C850 C 0.14149 0.08367 0.87996 0.0
C851 C 0.07743 0.08337 0.884 0.0
C852 C 0.17644 0.02532 0.87995 0.0
C853 C 0.24003 0.06411 0.88075 0.0
N854 N 0.10938 0.06603 0.88061 0.0
N855 N 0.20777 0.08105 0.87887 0.0
H856 H 0.95452 0.96853 0.63693 0.0
H857 H 0.9393 0.75675 0.61886 0.0
H858 H 0.85459 0.91202 0.62346 0.0
H859 H 0.03776 0.80888 0.64387 0.0
H860 H 0.9071 0.81307 0.62549 0.0
H861 H 0.98474 0.91088 0.64413 0.0
C862 C 0.93878 0.9441 0.63585 0.0
C863 C 0.90193 0.94527 0.62922 0.0
C864 C 0.93563 0.81226 0.62999 0.0
C865 C 0.93655 0.87905 0.6373 0.0
C866 C 0.95402 0.78001 0.6263 0.0
C867 C 0.99126 0.77817 0.63076 0.0
C868 C 0.95466 0.84334 0.63769 0.0
C869 C 1.00899 0.80912 0.64037 0.0
C870 C 0.95612 0.91115 0.63996 0.0
C871 C 0.88305 0.91262 0.62821 0.0
N872 N 0.99064 0.84064 0.64305 0.0
N873 N 0.90061 0.88098 0.63188 0.0
H874 H 0.55674 0.94611 0.65532 0.0
H875 H 0.76684 0.93912 0.62099 0.0
H876 H 0.6135 0.85287 0.6251 0.0
H877 H 0.71507 0.03444 0.65268 0.0
H878 H 0.71213 0.90511 0.63018 0.0
H879 H 0.6148 0.97661 0.66235 0.0
C880 C 0.58141 0.93168 0.65099 0.0
C881 C 0.5803 0.89695 0.63945 0.0
C882 C 0.71264 0.93335 0.63553 0.0
C883 C 0.64664 0.93179 0.64698 0.0
C884 C 0.744 0.95279 0.63031 0.0
C885 C 0.74545 0.98971 0.63588 0.0
C886 C 0.68194 0.95094 0.64595 0.0
C887 C 0.7151 1.00598 0.64812 0.0
C888 C 0.61453 0.94921 0.65475 0.0
C889 C 0.61307 0.87973 0.63383 0.0
N890 N 0.68432 0.98662 0.65231 0.0
N891 N 0.64471 0.89739 0.63737 0.0
H892 H 0.58124 0.76677 0.63178 0.0
H893 H 0.57096 0.55286 0.64545 0.0
H894 H 0.48036 0.70932 0.63016 0.0
H895 H 0.66412 0.61157 0.61678 0.0
H896 H 0.53884 0.61003 0.65173 0.0
H897 H 0.61275 0.71028 0.63867 0.0
C898 C 0.56555 0.74232 0.63322 0.0
C899 C 0.52798 0.74292 0.6299 0.0
C900 C 0.56649 0.61032 0.64451 0.0
C901 C 0.56434 0.67769 0.63781 0.0
C902 C 0.58496 0.57778 0.64118 0.0
C903 C 0.62029 0.57749 0.63055 0.0
C904 C 0.58374 0.64274 0.63762 0.0
C905 C 0.6369 0.61054 0.62494 0.0
C906 C 0.58369 0.70999 0.6371 0.0
C907 C 0.50931 0.71022 0.63242 0.0
N908 N 0.6185 0.64172 0.62847 0.0
N909 N 0.52772 0.67884 0.63592 0.0
H910 H 0.91001 0.66661 0.622 0.0
H911 H 0.81147 0.47541 0.62605 0.0
H912 H 0.96735 0.56621 0.62724 0.0
H913 H 0.7558 0.57692 0.62836 0.0
H914 H 0.86878 0.50763 0.6307 0.0
H915 H 0.85343 0.63403 0.62815 0.0
C916 C 0.91081 0.63777 0.62474 0.0
C917 C 0.94367 0.61924 0.62391 0.0
C918 C 0.84396 0.52279 0.63054 0.0
C919 C 0.8786 0.58148 0.6307 0.0
C920 C 0.81117 0.50436 0.62806 0.0
C921 C 0.77862 0.52339 0.62655 0.0
C922 C 0.84428 0.56056 0.63146 0.0
C923 C 0.78011 0.56099 0.62912 0.0
C924 C 0.8784 0.61911 0.62824 0.0
C925 C 0.94279 0.58176 0.62767 0.0
N926 N 0.81225 0.57824 0.63114 0.0
N927 N 0.91086 0.56414 0.6306 0.0
H928 H 0.68362 0.16239 0.07383 0.0
H929 H 0.52293 0.2703 1.00126 0.0
H930 H 0.5728 0.13063 0.08438 0.0
H931 H 0.62581 0.25507 0.96077 0.0
H932 H 0.54264 0.23101 0.04005 0.0
H933 H 0.66433 0.20918 0.04068 0.0
C934 C 0.65519 0.16578 0.06968 0.0
C935 C 0.62977 0.14255 0.08185 0.0
C936 C 0.56089 0.23656 0.02273 0.0
C937 C 0.60762 0.19603 0.04414 0.0
C938 C 0.54975 0.25899 1.00069 0.0
C939 C 0.57269 0.26563 0.97769 0.0
C940 C 0.59551 0.22152 0.02206 0.0
C941 C 0.60715 0.25027 0.97796 0.0
C942 C 0.64427 0.19225 0.05061 0.0
C943 C 0.59328 0.14789 0.07541 0.0
N944 N 0.61758 0.22906 0.99984 0.0
N945 N 0.58327 0.1741 0.05701 0.0
H946 H 0.2407 0.6372 0.96333 0.0
H947 H 0.37096 0.5902 0.09277 0.0
H948 H 0.25952 0.52915 0.99258 0.0
H949 H 0.35209 0.69766 0.06221 0.0
H950 H 0.32622 0.56772 0.0593 0.0
H951 H 0.27749 0.6599 1.002 0.0
C952 C 0.25243 0.61817 0.97793 0.0
C953 C 0.24712 0.58108 0.97444 0.0
C954 C 0.33156 0.59626 0.06014 0.0
C955 C 0.28962 0.60714 0.01904 0.0
C956 C 0.35701 0.6092 0.07939 0.0
C957 C 0.36544 0.64596 0.0804 0.0
C958 C 0.31437 0.62019 0.04162 0.0
C959 C 0.34656 0.66913 0.06229 0.0
C960 C 0.27348 0.63122 1.0001 0.0
C961 C 0.26291 0.55791 0.99429 0.0
N962 N 0.32219 0.65584 0.04359 0.0
N963 N 0.2836 0.57129 0.01559 0.0
H964 H 0.83619 0.35462 0.07667 0.0
H965 H 0.99781 0.24569 1.00534 0.0
H966 H 0.94742 0.38126 0.09189 0.0
H967 H 0.89672 0.26453 0.96334 0.0
H968 H 0.97708 0.28295 0.04505 0.0
H969 H 0.85565 0.30814 0.04324 0.0
C970 C 0.86469 0.35004 0.07358 0.0
C971 C 0.89023 0.37183 0.08709 0.0
C972 C 0.95943 0.27864 0.02719 0.0
C973 C 0.91257 0.31885 0.04893 0.0
C974 C 0.97116 0.25737 1.00461 0.0
C975 C 0.94907 0.25236 0.98091 0.0
C976 C 0.92505 0.29419 0.02635 0.0
C977 C 0.91477 0.26811 0.98105 0.0
C978 C 0.87573 0.3238 0.0543 0.0
C979 C 0.92684 0.36509 0.0819 0.0
N980 N 0.90376 0.28822 1.00343 0.0
N981 N 0.93693 0.33923 0.06321 0.0
H982 H 0.26079 0.99766 0.99217 0.0
H983 H 0.17351 0.82244 0.063 0.0
H984 H 0.28543 0.88902 0.96718 0.0
H985 H 0.14881 0.93016 0.09028 0.0
H986 H 0.21851 0.84668 0.0306 0.0
H987 H 0.2233 0.97397 0.03063 0.0
C988 C 0.25859 0.96889 0.99485 0.0
C989 C 0.27614 0.94538 0.97616 0.0
C990 C 0.20355 0.86506 0.04387 0.0
C991 C 0.23319 0.91804 0.02017 0.0
C992 C 0.1779 0.85117 0.06253 0.0
C993 C 0.15722 0.87422 0.07949 0.0
C994 C 0.20856 0.90238 0.04185 0.0
C995 C 0.16413 0.91129 0.07773 0.0
C996 C 0.23713 0.95536 0.01682 0.0
C997 C 0.27223 0.90829 0.9808 0.0
N998 N 0.18893 0.92421 0.05909 0.0
N999 N 0.25112 0.89587 1.00215 0.0
H1000 H 0.1977 0.85793 0.45014 0.0
H1001 H 0.03017 0.74141 0.50458 0.0
H1002 H 0.09227 0.86743 0.41276 0.0
H1003 H 0.12322 0.76716 0.55503 0.0
H1004 H 0.05546 0.77766 0.46577 0.0
H1005 H 0.17389 0.81365 0.48314 0.0
C1006 C 0.16965 0.8503 0.44849 0.0
C1007 C 0.14696 0.8667 0.42863 0.0
C1008 C 0.07029 0.77516 0.48534 0.0
C1009 C 0.11941 0.81596 0.46676 0.0
C1010 C 0.05595 0.75446 0.50742 0.0
C1011 C 0.07444 0.7516 0.53319 0.0
C1012 C 0.10364 0.79239 0.48891 0.0
C1013 C 0.10778 0.76902 0.53571 0.0
C1014 C 0.15602 0.82514 0.46753 0.0
C1015 C 0.11078 0.85561 0.42772 0.0
N1016 N 0.12128 0.78853 0.51391 0.0
N1017 N 0.09805 0.83107 0.44663 0.0
H1018 H 0.80663 0.0736 0.5066 0.0
H1019 H 0.60295 0.08471 0.45849 0.0
H1020 H 0.71715 0.06723 0.56453 0.0
H1021 H 0.68078 0.15508 0.41929 0.0
H1022 H 0.64866 0.06496 0.49162 0.0
H1023 H 0.76449 0.09175 0.46884 0.0
C1024 C 0.77819 0.07577 0.51128 0.0
C1025 C 0.76528 0.06895 0.53868 0.0
C1026 C 0.65584 0.08452 0.47563 0.0
C1027 C 0.71742 0.08892 0.49589 0.0
C1028 C 0.62982 0.09572 0.45653 0.0
C1029 C 0.63795 0.12173 0.43598 0.0
C1030 C 0.69062 0.09885 0.47414 0.0
C1031 C 0.67332 0.13509 0.43482 0.0
C1032 C 0.75433 0.08631 0.48987 0.0
C1033 C 0.72827 0.0724 0.54376 0.0
N1034 N 0.69852 0.12342 0.45367 0.0
N1035 N 0.70567 0.08179 0.52256 0.0
H1036 H 0.50397 0.75856 0.52165 0.0
H1037 H 0.33893 0.67104 0.43649 0.0
H1038 H 0.39273 0.78226 0.54 0.0
H1039 H 0.44828 0.63284 0.43205 0.0
H1040 H 0.3588 0.71896 0.46859 0.0
H1041 H 0.48453 0.71928 0.4832 0.0
C1042 C 0.47546 0.75578 0.51749 0.0
C1043 C 0.45 0.77359 0.53435 0.0
C1044 C 0.37847 0.70033 0.46027 0.0
C1045 C 0.42747 0.72849 0.49014 0.0
C1046 C 0.3672 0.67318 0.44174 0.0
C1047 C 0.39194 0.64784 0.43153 0.0
C1048 C 0.4148 0.70232 0.46846 0.0
C1049 C 0.42819 0.65166 0.43943 0.0
C1050 C 0.46436 0.73323 0.49553 0.0
C1051 C 0.41338 0.76886 0.52779 0.0
N1052 N 0.43844 0.67817 0.45743 0.0
N1053 N 0.40324 0.74671 0.50632 0.0
H1054 H 0.85099 0.31962 0.44641 0.0
H1055 H 0.76235 0.49311 0.51805 0.0
H1056 H 0.87361 0.42794 0.41931 0.0
H1057 H 0.73889 0.38416 0.54309 0.0
H1058 H 0.79963 0.46998 0.47941 0.0
H1059 H 0.80582 0.34286 0.47908 0.0
C1060 C 0.84608 0.34826 0.44696 0.0
C1061 C 0.86627 0.37182 0.43003 0.0
C1062 C 0.78614 0.45117 0.49328 0.0
C1063 C 0.81481 0.39876 0.46793 0.0
C1064 C 0.76485 0.46436 0.51538 0.0
C1065 C 0.74766 0.44061 0.5341 0.0
C1066 C 0.79033 0.41392 0.48982 0.0
C1067 C 0.75185 0.40359 0.52943 0.0
C1068 C 0.82035 0.36156 0.46577 0.0
C1069 C 0.85871 0.40871 0.43186 0.0
N1070 N 0.77284 0.39146 0.50793 0.0
N1071 N 0.83387 0.42105 0.45065 0.0
H1072 H 0.49971 0.74888 0.01111 0.0
H1073 H 0.33953 0.85739 0.93841 0.0
H1074 H 0.39648 0.76383 0.05112 0.0
H1075 H 0.45045 0.88911 0.92837 0.0
H1076 H 0.35859 0.81026 0.97132 0.0
H1077 H 0.48028 0.78834 0.97233 0.0
C1078 C 0.47287 0.76014 0.01156 0.0
C1079 C 0.44975 0.7534 0.03443 0.0
C1080 C 0.37873 0.82727 0.96156 0.0
C1081 C 0.42727 0.79771 0.9901 0.0
C1082 C 0.36794 0.85394 0.94263 0.0
C1083 C 0.39345 0.87723 0.93067 0.0
C1084 C 0.41534 0.82338 0.96812 0.0
C1085 C 0.4299 0.87181 0.9372 0.0
C1086 C 0.46189 0.78268 0.98955 0.0
C1087 C 0.41526 0.7687 0.03402 0.0
N1088 N 0.43979 0.84542 0.95547 0.0
N1089 N 0.40501 0.79002 0.01218 0.0
H1090 H 0.67113 0.32065 0.94885 0.0
H1091 H 0.76446 0.49327 0.01853 0.0
H1092 H 0.65141 0.42904 0.92078 0.0
H1093 H 0.7813 0.38465 0.04722 0.0
H1094 H 0.7273 0.47016 0.97991 0.0
H1095 H 0.71614 0.34339 0.98182 0.0
C1096 C 0.67662 0.34919 0.94926 0.0
C1097 C 0.6573 0.37291 0.93192 0.0
C1098 C 0.73931 0.45138 0.99456 0.0
C1099 C 0.70868 0.3993 0.97016 0.0
C1100 C 0.7606 0.46457 0.01664 0.0
C1101 C 0.7759 0.44096 0.0364 0.0
C1102 C 0.73325 0.41426 0.99211 0.0
C1103 C 0.7699 0.40399 0.03272 0.0
C1104 C 0.70227 0.36221 0.96825 0.0
C1105 C 0.66562 0.40967 0.93362 0.0
N1106 N 0.74898 0.39187 0.01118 0.0
N1107 N 0.69041 0.42174 0.95254 0.0
H1108 H 0.02578 0.77444 0.00697 0.0
H1109 H 0.1869 0.66603 0.93455 0.0
H1110 H 0.12684 0.75479 0.04879 0.0
H1111 H 0.07554 0.63987 0.91941 0.0
H1112 H 0.1677 0.71215 0.9684 0.0
H1113 H 0.04636 0.73765 0.96697 0.0
C1114 C 0.05238 0.76266 0.00762 0.0
C1115 C 0.0745 0.76731 0.03134 0.0
C1116 C 0.14753 0.69668 0.95725 0.0
C1117 C 0.09837 0.72603 0.98555 0.0
C1118 C 0.15842 0.67065 0.93774 0.0
C1119 C 0.13277 0.64909 0.92415 0.0
C1120 C 0.11073 0.70165 0.96276 0.0
C1121 C 0.0962 0.65588 0.92946 0.0
C1122 C 0.06403 0.74167 0.98486 0.0
C1123 C 0.10875 0.75146 0.03107 0.0
N1124 N 0.08625 0.68153 0.94836 0.0
N1125 N 0.11969 0.73162 0.00852 0.0
H1126 H 0.73553 0.13213 0.04437 0.0
H1127 H 0.87473 0.08937 0.91955 0.0
H1128 H 0.76309 0.0244 0.01883 0.0
H1129 H 0.85093 0.19594 0.94995 0.0
H1130 H 0.82928 0.06518 0.95182 0.0
H1131 H 0.77285 0.15563 0.00635 0.0
C1132 C 0.7493 0.1133 0.03069 0.0
C1133 C 0.74631 0.07611 0.0351 0.0
C1134 C 0.83371 0.09388 0.95119 0.0
C1135 C 0.78951 0.10317 0.99119 0.0
C1136 C 0.85954 0.1078 0.93262 0.0
C1137 C 0.86678 0.14485 0.93194 0.0
C1138 C 0.81486 0.11711 0.96929 0.0
C1139 C 0.84636 0.16725 0.94963 0.0
C1140 C 0.77067 0.12684 0.00889 0.0
C1141 C 0.76463 0.05323 0.01636 0.0
N1142 N 0.82158 0.15302 0.96763 0.0
N1143 N 0.78564 0.06713 0.99537 0.0
H1144 H 0.89688 0.25106 0.45469 0.0
H1145 H 0.92885 0.15443 0.60186 0.0
H1146 H 0.98839 0.27719 0.50673 0.0
H1147 H 0.82508 0.16114 0.56143 0.0
H1148 H 0.95235 0.19831 0.56787 0.0
H1149 H 0.87159 0.21623 0.49348 0.0
C1150 C 0.91173 0.24941 0.47432 0.0
C1151 C 0.94499 0.26682 0.47736 0.0
C1152 C 0.92432 0.19055 0.56677 0.0
C1153 C 0.91606 0.22668 0.52209 0.0
C1154 C 0.91081 0.16555 0.58621 0.0
C1155 C 0.87488 0.15391 0.58455 0.0
C1156 C 0.90189 0.2036 0.54526 0.0
C1157 C 0.85291 0.16921 0.56365 0.0
C1158 C 0.89712 0.22968 0.49657 0.0
C1159 C 0.96271 0.26412 0.50347 0.0
N1160 N 0.86687 0.19282 0.54468 0.0
N1161 N 0.94823 0.24403 0.52476 0.0
H1162 H 0.35794 0.83816 0.56996 0.0
H1163 H 0.24857 0.99926 0.49931 0.0
H1164 H 0.38829 0.94882 0.58223 0.0
H1165 H 0.26416 0.8972 0.45814 0.0
H1166 H 0.28782 0.9791 0.53803 0.0
H1167 H 0.31074 0.8577 0.53722 0.0
C1168 C 0.35417 0.86659 0.56626 0.0
C1169 C 0.37709 0.89191 0.5788 0.0
C1170 C 0.28233 0.96113 0.52058 0.0
C1171 C 0.32319 0.91434 0.54154 0.0
C1172 C 0.25991 0.97251 0.4986 0.0
C1173 C 0.25344 0.94995 0.47542 0.0
C1174 C 0.29753 0.92664 0.51965 0.0
C1175 C 0.26884 0.91557 0.47549 0.0
C1176 C 0.32746 0.87766 0.54743 0.0
C1177 C 0.37129 0.92841 0.57293 0.0
N1178 N 0.29005 0.90491 0.49728 0.0
N1179 N 0.34489 0.93856 0.55473 0.0
H1180 H 0.68013 0.34635 0.5758 0.0
H1181 H 0.51595 0.26221 0.48755 0.0
H1182 H 0.57175 0.38754 0.57749 0.0
H1183 H 0.62699 0.23391 0.47298 0.0
H1184 H 0.53499 0.30177 0.52594 0.0
H1185 H 0.66009 0.29845 0.54378 0.0
C1186 C 0.65202 0.34491 0.56995 0.0
C1187 C 0.62763 0.37108 0.57939 0.0
C1188 C 0.5552 0.28674 0.51446 0.0
C1189 C 0.60457 0.31657 0.54252 0.0
C1190 C 0.54431 0.26402 0.49254 0.0
C1191 C 0.56986 0.24481 0.47674 0.0
C1192 C 0.59195 0.29029 0.52088 0.0
C1193 C 0.60629 0.24837 0.48435 0.0
C1194 C 0.64065 0.31774 0.55147 0.0
C1195 C 0.59158 0.36809 0.57073 0.0
N1196 N 0.61623 0.27073 0.50574 0.0
N1197 N 0.58124 0.34155 0.55277 0.0
H1198 H 0.16978 0.69812 0.56486 0.0
H1199 H 0.25803 0.52441 0.49311 0.0
H1200 H 0.14586 0.58984 0.59136 0.0
H1201 H 0.28199 0.63339 0.46848 0.0
H1202 H 0.22048 0.54751 0.53165 0.0
H1203 H 0.21504 0.67468 0.53237 0.0
C1204 C 0.17441 0.66944 0.56421 0.0
C1205 C 0.15385 0.64597 0.58093 0.0
C1206 C 0.23414 0.56633 0.51789 0.0
C1207 C 0.20543 0.61878 0.54322 0.0
C1208 C 0.25559 0.55315 0.49586 0.0
C1209 C 0.27299 0.57693 0.47728 0.0
C1210 C 0.23003 0.60358 0.52141 0.0
C1211 C 0.26887 0.61395 0.48202 0.0
C1212 C 0.2002 0.65602 0.5455 0.0
C1213 C 0.16107 0.60901 0.57898 0.0
N1214 N 0.24775 0.62605 0.50345 0.0
N1215 N 0.18598 0.59656 0.56029 0.0
loop_
_geom_bond_atom_site_label_1
_geom_bond_atom_site_label_2
_geom_bond_distance
_geom_bond_site_symmetry_2
_ccdc_geom_bond_type
Fe0 O2 1.918 1_565 S
Fe0 O5 1.997 1_565 S
Fe0 O6 2.002 . S
Fe0 O11 1.976 . S
Fe0 O14 1.996 . S
Fe1 O2 1.918 . S
Fe1 O9 1.997 . S
Fe1 O12 1.996 1_545 S
Fe1 O16 1.976 . S
Fe1 O19 2.002 . S
O2 Fe0 1.918 1_545 S
O2 Fe1 1.918 . S
O2 Fe3 1.918 . S
Fe3 O2 1.918 . S
Fe3 O4 2.002 . S
Fe3 O13 1.976 . S
Fe3 O17 1.996 . S
Fe3 O20 1.997 . S
O4 Fe3 2.002 . S
O4 C21 1.295 . S
O5 Fe0 1.997 1_545 S
O5 C21 1.235 . S
O6 Fe0 2.002 . S
O6 C7 1.295 1_565 S
C7 O6 1.295 1_545 S
C7 O9 1.235 . S
C8 O13 1.283 . S
C8 O14 1.256 1_545 S
O9 Fe1 1.997 . S
O9 C7 1.235 . S
C10 O16 1.287 . S
C10 O17 1.255 . S
O11 Fe0 1.976 . S
O11 C18 1.287 . S
O12 Fe1 1.996 1_565 S
O12 C18 1.255 . S
O13 Fe3 1.976 . S
O13 C8 1.283 . S
O14 Fe0 1.996 . S
O14 C8 1.256 1_565 S
C15 O19 1.295 . S
C15 O20 1.235 . S
O16 Fe1 1.976 . S
O16 C10 1.287 . S
O17 Fe3 1.996 . S
O17 C10 1.255 . S
C18 O11 1.287 . S
C18 O12 1.255 . S
O19 Fe1 2.002 . S
O19 C15 1.295 . S
O20 Fe3 1.997 . S
O20 C15 1.235 . S
C21 O4 1.295 . S
C21 O5 1.235 . S
Fe22 O24 1.918 . S
Fe22 O27 1.997 . S
Fe22 O28 2.002 . S
Fe22 O33 1.976 . S
Fe22 O36 1.996 . S
Fe23 O24 1.918 . S
Fe23 O31 1.997 . S
Fe23 O34 1.996 . S
Fe23 O38 1.976 . S
Fe23 O41 2.002 . S
O24 Fe22 1.918 . S
O24 Fe23 1.918 . S
O24 Fe25 1.918 . S
Fe25 O24 1.918 . S
Fe25 O26 2.002 . S
Fe25 O35 1.976 . S
Fe25 O39 1.996 . S
Fe25 O42 1.997 . S
O26 Fe25 2.002 . S
O26 C43 1.295 . S
O27 Fe22 1.997 . S
O27 C43 1.235 . S
O28 Fe22 2.002 . S
O28 C29 1.295 . S
C29 O28 1.295 . S
C29 O31 1.235 . S
C30 O35 1.287 . S
C30 O36 1.255 . S
O31 Fe23 1.997 . S
O31 C29 1.235 . S
C32 O38 1.287 . S
C32 O39 1.255 . S
O33 Fe22 1.976 . S
O33 C40 1.287 . S
O34 Fe23 1.996 . S
O34 C40 1.255 . S
O35 Fe25 1.976 . S
O35 C30 1.287 . S
O36 Fe22 1.996 . S
O36 C30 1.255 . S
C37 O41 1.295 . S
C37 O42 1.235 . S
O38 Fe23 1.976 . S
O38 C32 1.287 . S
O39 Fe25 1.996 . S
O39 C32 1.255 . S
C40 O33 1.287 . S
C40 O34 1.255 . S
O41 Fe23 2.002 . S
O41 C37 1.295 . S
O42 Fe25 1.997 . S
O42 C37 1.235 . S
C43 O26 1.295 . S
C43 O27 1.235 . S
Fe44 O46 1.918 . S
Fe44 O49 1.997 . S
Fe44 O50 2.002 . S
Fe44 O55 1.976 . S
Fe44 O58 1.996 . S
Fe45 O46 1.918 . S
Fe45 O53 1.997 . S
Fe45 O56 1.996 . S
Fe45 O60 1.976 . S
Fe45 O63 2.002 . S
O46 Fe44 1.918 . S
O46 Fe45 1.918 . S
O46 Fe47 1.918 . S
Fe47 O46 1.918 . S
Fe47 O48 2.002 . S
Fe47 O57 1.976 . S
Fe47 O61 1.996 . S
Fe47 O64 1.997 . S
O48 Fe47 2.002 . S
O48 C65 1.295 . S
O49 Fe44 1.997 . S
O49 C65 1.235 . S
O50 Fe44 2.002 . S
O50 C51 1.295 . S
C51 O50 1.295 . S
C51 O53 1.235 . S
C52 O57 1.287 . S
C52 O58 1.255 . S
O53 Fe45 1.997 . S
O53 C51 1.235 . S
C54 O60 1.287 . S
C54 O61 1.255 . S
O55 Fe44 1.976 . S
O55 C62 1.287 . S
O56 Fe45 1.996 . S
O56 C62 1.255 . S
O57 Fe47 1.976 . S
O57 C52 1.287 . S
O58 Fe44 1.996 . S
O58 C52 1.255 . S
C59 O63 1.295 . S
C59 O64 1.235 . S
O60 Fe45 1.976 . S
O60 C54 1.287 . S
O61 Fe47 1.996 . S
O61 C54 1.255 . S
C62 O55 1.287 . S
C62 O56 1.255 . S
O63 Fe45 2.002 . S
O63 C59 1.295 . S
O64 Fe47 1.997 . S
O64 C59 1.235 . S
C65 O48 1.295 . S
C65 O49 1.235 . S
Fe66 O68 1.918 1_655 S
Fe66 O71 1.997 1_655 S
Fe66 O72 2.002 . S
Fe66 O77 1.976 . S
Fe66 O80 1.996 . S
Fe67 O68 1.918 . S
Fe67 O75 1.997 . S
Fe67 O78 1.996 1_455 S
Fe67 O82 1.976 . S
Fe67 O85 2.002 . S
O68 Fe66 1.918 1_455 S
O68 Fe67 1.918 . S
O68 Fe69 1.918 . S
Fe69 O68 1.918 . S
Fe69 O70 2.002 . S
Fe69 O79 1.976 . S
Fe69 O83 1.996 . S
Fe69 O86 1.997 . S
O70 Fe69 2.002 . S
O70 C87 1.295 . S
O71 Fe66 1.997 1_455 S
O71 C87 1.235 . S
O72 Fe66 2.002 . S
O72 C73 1.295 1_655 S
C73 O72 1.295 1_455 S
C73 O75 1.235 . S
C74 O79 1.283 . S
C74 O80 1.256 1_455 S
O75 Fe67 1.997 . S
O75 C73 1.235 . S
C76 O82 1.287 . S
C76 O83 1.255 . S
O77 Fe66 1.976 . S
O77 C84 1.287 . S
O78 Fe67 1.996 1_655 S
O78 C84 1.255 . S
O79 Fe69 1.976 . S
O79 C74 1.283 . S
O80 Fe66 1.996 . S
O80 C74 1.256 1_655 S
C81 O85 1.295 . S
C81 O86 1.235 . S
O82 Fe67 1.976 . S
O82 C76 1.287 . S
O83 Fe69 1.996 . S
O83 C76 1.255 . S
C84 O77 1.287 . S
C84 O78 1.255 . S
O85 Fe67 2.002 . S
O85 C81 1.295 . S
O86 Fe69 1.997 . S
O86 C81 1.235 . S
C87 O70 1.295 . S
C87 O71 1.235 . S
Fe88 O90 1.918 1_545 S
Fe88 O93 1.997 1_545 S
Fe88 O94 2.002 . S
Fe88 O99 1.976 . S
Fe88 O102 1.996 . S
Fe89 O90 1.918 . S
Fe89 O97 1.997 . S
Fe89 O100 1.996 1_565 S
Fe89 O104 1.976 . S
Fe89 O107 2.002 . S
O90 Fe88 1.918 1_565 S
O90 Fe89 1.918 . S
O90 Fe91 1.918 . S
Fe91 O90 1.918 . S
Fe91 O92 2.002 . S
Fe91 O101 1.976 . S
Fe91 O105 1.996 . S
Fe91 O108 1.997 . S
O92 Fe91 2.002 . S
O92 C109 1.295 . S
O93 Fe88 1.997 1_565 S
O93 C109 1.235 . S
O94 Fe88 2.002 . S
O94 C95 1.295 1_545 S
C95 O94 1.295 1_565 S
C95 O97 1.235 . S
C96 O101 1.283 . S
C96 O102 1.256 1_565 S
O97 Fe89 1.997 . S
O97 C95 1.235 . S
C98 O104 1.287 . S
C98 O105 1.255 . S
O99 Fe88 1.976 . S
O99 C106 1.287 . S
O100 Fe89 1.996 1_545 S
O100 C106 1.255 . S
O101 Fe91 1.976 . S
O101 C96 1.283 . S
O102 Fe88 1.996 . S
O102 C96 1.256 1_545 S
C103 O107 1.295 . S
C103 O108 1.235 . S
O104 Fe89 1.976 . S
O104 C98 1.287 . S
O105 Fe91 1.996 . S
O105 C98 1.255 . S
C106 O99 1.287 . S
C106 O100 1.255 . S
O107 Fe89 2.002 . S
O107 C103 1.295 . S
O108 Fe91 1.997 . S
O108 C103 1.235 . S
C109 O92 1.295 . S
C109 O93 1.235 . S
Fe110 O112 1.918 . S
Fe110 O115 1.997 . S
Fe110 O116 2.002 . S
Fe110 O121 1.976 . S
Fe110 O124 1.996 . S
Fe111 O112 1.918 . S
Fe111 O119 1.997 . S
Fe111 O122 1.996 . S
Fe111 O126 1.976 . S
Fe111 O129 2.002 . S
O112 Fe110 1.918 . S
O112 Fe111 1.918 . S
O112 Fe113 1.918 . S
Fe113 O112 1.918 . S
Fe113 O114 2.002 . S
Fe113 O123 1.976 . S
Fe113 O127 1.996 . S
Fe113 O130 1.997 . S
O114 Fe113 2.002 . S
O114 C131 1.295 . S
O115 Fe110 1.997 . S
O115 C131 1.235 . S
O116 Fe110 2.002 . S
O116 C117 1.295 . S
C117 O116 1.295 . S
C117 O119 1.235 . S
C118 O123 1.287 . S
C118 O124 1.255 . S
O119 Fe111 1.997 . S
O119 C117 1.235 . S
C120 O126 1.287 . S
C120 O127 1.255 . S
O121 Fe110 1.976 . S
O121 C128 1.287 . S
O122 Fe111 1.996 . S
O122 C128 1.255 . S
O123 Fe113 1.976 . S
O123 C118 1.287 . S
O124 Fe110 1.996 . S
O124 C118 1.255 . S
C125 O129 1.295 . S
C125 O130 1.235 . S
O126 Fe111 1.976 . S
O126 C120 1.287 . S
O127 Fe113 1.996 . S
O127 C120 1.255 . S
C128 O121 1.287 . S
C128 O122 1.255 . S
O129 Fe111 2.002 . S
O129 C125 1.295 . S
O130 Fe113 1.997 . S
O130 C125 1.235 . S
C131 O114 1.295 . S
C131 O115 1.235 . S
Fe132 O134 1.918 . S
Fe132 O137 1.997 . S
Fe132 O138 2.002 . S
Fe132 O143 1.976 . S
Fe132 O146 1.996 . S
Fe133 O134 1.918 . S
Fe133 O141 1.997 . S
Fe133 O144 1.996 . S
Fe133 O148 1.976 . S
Fe133 O151 2.002 . S
O134 Fe132 1.918 . S
O134 Fe133 1.918 . S
O134 Fe135 1.918 . S
Fe135 O134 1.918 . S
Fe135 O136 2.002 . S
Fe135 O145 1.976 . S
Fe135 O149 1.996 . S
Fe135 O152 1.997 . S
O136 Fe135 2.002 . S
O136 C153 1.295 . S
O137 Fe132 1.997 . S
O137 C153 1.235 . S
O138 Fe132 2.002 . S
O138 C139 1.295 . S
C139 O138 1.295 . S
C139 O141 1.235 . S
C140 O145 1.287 . S
C140 O146 1.255 . S
O141 Fe133 1.997 . S
O141 C139 1.235 . S
C142 O148 1.287 . S
C142 O149 1.255 . S
O143 Fe132 1.976 . S
O143 C150 1.287 . S
O144 Fe133 1.996 . S
O144 C150 1.255 . S
O145 Fe135 1.976 . S
O145 C140 1.287 . S
O146 Fe132 1.996 . S
O146 C140 1.255 . S
C147 O151 1.295 . S
C147 O152 1.235 . S
O148 Fe133 1.976 . S
O148 C142 1.287 . S
O149 Fe135 1.996 . S
O149 C142 1.255 . S
C150 O143 1.287 . S
C150 O144 1.255 . S
O151 Fe133 2.002 . S
O151 C147 1.295 . S
O152 Fe135 1.997 . S
O152 C147 1.235 . S
C153 O136 1.295 . S
C153 O137 1.235 . S
Fe154 O156 1.918 . S
Fe154 O159 1.997 . S
Fe154 O160 2.002 . S
Fe154 O165 1.976 . S
Fe154 O168 1.996 1_655 S
Fe155 O156 1.918 . S
Fe155 O163 1.997 . S
Fe155 O166 1.996 . S
Fe155 O170 1.976 . S
Fe155 O173 2.002 . S
O156 Fe154 1.918 . S
O156 Fe155 1.918 . S
O156 Fe157 1.918 1_655 S
Fe157 O156 1.918 1_455 S
Fe157 O158 2.002 . S
Fe157 O167 1.976 . S
Fe157 O171 1.996 . S
Fe157 O174 1.997 1_455 S
O158 Fe157 2.002 . S
O158 C175 1.295 1_455 S
O159 Fe154 1.997 . S
O159 C175 1.235 . S
O160 Fe154 2.002 . S
O160 C161 1.295 . S
C161 O160 1.295 . S
C161 O163 1.235 . S
C162 O167 1.287 . S
C162 O168 1.255 . S
O163 Fe155 1.997 . S
O163 C161 1.235 . S
C164 O170 1.283 . S
C164 O171 1.256 1_655 S
O165 Fe154 1.976 . S
O165 C172 1.287 . S
O166 Fe155 1.996 . S
O166 C172 1.255 . S
O167 Fe157 1.976 . S
O167 C162 1.287 . S
O168 Fe154 1.996 1_455 S
O168 C162 1.255 . S
C169 O173 1.295 . S
C169 O174 1.235 . S
O170 Fe155 1.976 . S
O170 C164 1.283 . S
O171 Fe157 1.996 . S
O171 C164 1.256 1_455 S
C172 O165 1.287 . S
C172 O166 1.255 . S
O173 Fe155 2.002 . S
O173 C169 1.295 . S
O174 Fe157 1.997 1_655 S
O174 C169 1.235 . S
C175 O158 1.295 1_655 S
C175 O159 1.235 . S
Fe176 O178 1.918 . S
Fe176 O181 1.997 . S
Fe176 O182 2.002 . S
Fe176 O187 1.976 . S
Fe176 O190 1.996 . S
Fe177 O178 1.918 . S
Fe177 O185 1.997 . S
Fe177 O188 1.996 . S
Fe177 O192 1.976 1_565 S
Fe177 O195 2.002 . S
O178 Fe176 1.918 . S
O178 Fe177 1.918 . S
O178 Fe179 1.918 1_565 S
Fe179 O178 1.918 1_545 S
Fe179 O180 2.002 1_545 S
Fe179 O189 1.976 . S
Fe179 O193 1.996 . S
Fe179 O196 1.997 . S
O180 Fe179 2.002 1_565 S
O180 C197 1.295 . S
O181 Fe176 1.997 . S
O181 C197 1.235 . S
O182 Fe176 2.002 . S
O182 C183 1.295 . S
C183 O182 1.295 . S
C183 O185 1.235 . S
C184 O189 1.287 1_565 S
C184 O190 1.255 . S
O185 Fe177 1.997 . S
O185 C183 1.235 . S
C186 O192 1.287 . S
C186 O193 1.255 . S
O187 Fe176 1.976 . S
O187 C194 1.287 . S
O188 Fe177 1.996 . S
O188 C194 1.255 . S
O189 Fe179 1.976 . S
O189 C184 1.287 1_545 S
O190 Fe176 1.996 . S
O190 C184 1.255 . S
C191 O195 1.295 . S
C191 O196 1.235 1_565 S
O192 Fe177 1.976 1_545 S
O192 C186 1.287 . S
O193 Fe179 1.996 . S
O193 C186 1.255 . S
C194 O187 1.287 . S
C194 O188 1.255 . S
O195 Fe177 2.002 . S
O195 C191 1.295 . S
O196 Fe179 1.997 . S
O196 C191 1.235 1_545 S
C197 O180 1.295 . S
C197 O181 1.235 . S
Fe198 O200 1.918 . S
Fe198 O203 1.997 . S
Fe198 O204 2.002 . S
Fe198 O209 1.976 . S
Fe198 O212 1.996 . S
Fe199 O200 1.918 . S
Fe199 O207 1.997 . S
Fe199 O210 1.996 . S
Fe199 O214 1.976 . S
Fe199 O217 2.002 . S
O200 Fe198 1.918 . S
O200 Fe199 1.918 . S
O200 Fe201 1.918 . S
Fe201 O200 1.918 . S
Fe201 O202 2.002 . S
Fe201 O211 1.976 . S
Fe201 O215 1.996 . S
Fe201 O218 1.997 . S
O202 Fe201 2.002 . S
O202 C219 1.295 . S
O203 Fe198 1.997 . S
O203 C219 1.235 . S
O204 Fe198 2.002 . S
O204 C205 1.295 . S
C205 O204 1.295 . S
C205 O207 1.235 . S
C206 O211 1.287 . S
C206 O212 1.255 . S
O207 Fe199 1.997 . S
O207 C205 1.235 . S
C208 O214 1.287 . S
C208 O215 1.255 . S
O209 Fe198 1.976 . S
O209 C216 1.287 . S
O210 Fe199 1.996 . S
O210 C216 1.255 . S
O211 Fe201 1.976 . S
O211 C206 1.287 . S
O212 Fe198 1.996 . S
O212 C206 1.255 . S
C213 O217 1.295 . S
C213 O218 1.235 . S
O214 Fe199 1.976 . S
O214 C208 1.287 . S
O215 Fe201 1.996 . S
O215 C208 1.255 . S
C216 O209 1.287 . S
C216 O210 1.255 . S
O217 Fe199 2.002 . S
O217 C213 1.295 . S
O218 Fe201 1.997 . S
O218 C213 1.235 . S
C219 O202 1.295 . S
C219 O203 1.235 . S
Fe220 O222 1.918 . S
Fe220 O225 1.997 . S
Fe220 O226 2.002 . S
Fe220 O231 1.976 . S
Fe220 O234 1.996 . S
Fe221 O222 1.918 . S
Fe221 O229 1.997 . S
Fe221 O232 1.996 . S
Fe221 O236 1.976 . S
Fe221 O239 2.002 . S
O222 Fe220 1.918 . S
O222 Fe221 1.918 . S
O222 Fe223 1.918 . S
Fe223 O222 1.918 . S
Fe223 O224 2.002 . S
Fe223 O233 1.976 . S
Fe223 O237 1.996 . S
Fe223 O240 1.997 . S
O224 Fe223 2.002 . S
O224 C241 1.295 . S
O225 Fe220 1.997 . S
O225 C241 1.235 . S
O226 Fe220 2.002 . S
O226 C227 1.295 . S
C227 O226 1.295 . S
C227 O229 1.235 . S
C228 O233 1.287 . S
C228 O234 1.255 . S
O229 Fe221 1.997 . S
O229 C227 1.235 . S
C230 O236 1.287 . S
C230 O237 1.255 . S
O231 Fe220 1.976 . S
O231 C238 1.287 . S
O232 Fe221 1.996 . S
O232 C238 1.255 . S
O233 Fe223 1.976 . S
O233 C228 1.287 . S
O234 Fe220 1.996 . S
O234 C228 1.255 . S
C235 O239 1.295 . S
C235 O240 1.235 . S
O236 Fe221 1.976 . S
O236 C230 1.287 . S
O237 Fe223 1.996 . S
O237 C230 1.255 . S
C238 O231 1.287 . S
C238 O232 1.255 . S
O239 Fe221 2.002 . S
O239 C235 1.295 . S
O240 Fe223 1.997 . S
O240 C235 1.235 . S
C241 O224 1.295 . S
C241 O225 1.235 . S
Fe242 O244 1.918 1_455 S
Fe242 O247 1.997 . S
Fe242 O248 2.002 1_455 S
Fe242 O253 1.976 . S
Fe242 O256 1.996 . S
Fe243 O244 1.918 . S
Fe243 O251 1.997 . S
Fe243 O254 1.996 . S
Fe243 O258 1.976 . S
Fe243 O261 2.002 . S
O244 Fe242 1.918 1_655 S
O244 Fe243 1.918 . S
O244 Fe245 1.918 . S
Fe245 O244 1.918 . S
Fe245 O246 2.002 . S
Fe245 O255 1.976 1_655 S
Fe245 O259 1.996 . S
Fe245 O262 1.997 . S
O246 Fe245 2.002 . S
O246 C263 1.295 . S
O247 Fe242 1.997 . S
O247 C263 1.235 1_455 S
O248 Fe242 2.002 1_655 S
O248 C249 1.295 . S
C249 O248 1.295 . S
C249 O251 1.235 . S
C250 O255 1.287 . S
C250 O256 1.255 . S
O251 Fe243 1.997 . S
O251 C249 1.235 . S
C252 O258 1.287 . S
C252 O259 1.255 . S
O253 Fe242 1.976 . S
O253 C260 1.287 1_455 S
O254 Fe243 1.996 . S
O254 C260 1.255 . S
O255 Fe245 1.976 1_455 S
O255 C250 1.287 . S
O256 Fe242 1.996 . S
O256 C250 1.255 . S
C257 O261 1.295 . S
C257 O262 1.235 . S
O258 Fe243 1.976 . S
O258 C252 1.287 . S
O259 Fe245 1.996 . S
O259 C252 1.255 . S
C260 O253 1.287 1_655 S
C260 O254 1.255 . S
O261 Fe243 2.002 . S
O261 C257 1.295 . S
O262 Fe245 1.997 . S
O262 C257 1.235 . S
C263 O246 1.295 . S
C263 O247 1.235 1_655 S
Fe264 O266 1.918 . S
Fe264 O269 1.997 . S
Fe264 O270 2.002 . S
Fe264 O275 1.976 1_545 S
Fe264 O278 1.996 . S
Fe265 O266 1.918 1_565 S
Fe265 O273 1.997 . S
Fe265 O276 1.996 . S
Fe265 O280 1.976 . S
Fe265 O283 2.002 1_565 S
O266 Fe264 1.918 . S
O266 Fe265 1.918 1_545 S
O266 Fe267 1.918 . S
Fe267 O266 1.918 . S
Fe267 O268 2.002 . S
Fe267 O277 1.976 . S
Fe267 O281 1.996 . S
Fe267 O284 1.997 . S
O268 Fe267 2.002 . S
O268 C285 1.295 . S
O269 Fe264 1.997 . S
O269 C285 1.235 . S
O270 Fe264 2.002 . S
O270 C271 1.295 . S
C271 O270 1.295 . S
C271 O273 1.235 1_545 S
C272 O277 1.287 . S
C272 O278 1.255 . S
O273 Fe265 1.997 . S
O273 C271 1.235 1_565 S
C274 O280 1.287 1_545 S
C274 O281 1.255 . S
O275 Fe264 1.976 1_565 S
O275 C282 1.287 . S
O276 Fe265 1.996 . S
O276 C282 1.255 . S
O277 Fe267 1.976 . S
O277 C272 1.287 . S
O278 Fe264 1.996 . S
O278 C272 1.255 . S
C279 O283 1.295 . S
C279 O284 1.235 . S
O280 Fe265 1.976 . S
O280 C274 1.287 1_565 S
O281 Fe267 1.996 . S
O281 C274 1.255 . S
C282 O275 1.287 . S
C282 O276 1.255 . S
O283 Fe265 2.002 1_545 S
O283 C279 1.295 . S
O284 Fe267 1.997 . S
O284 C279 1.235 . S
C285 O268 1.295 . S
C285 O269 1.235 . S
Fe286 O288 1.918 . S
Fe286 O291 1.997 . S
Fe286 O292 2.002 . S
Fe286 O297 1.976 . S
Fe286 O300 1.996 . S
Fe287 O288 1.918 . S
Fe287 O295 1.997 . S
Fe287 O298 1.996 . S
Fe287 O302 1.976 . S
Fe287 O305 2.002 . S
O288 Fe286 1.918 . S
O288 Fe287 1.918 . S
O288 Fe289 1.918 . S
Fe289 O288 1.918 . S
Fe289 O290 2.002 . S
Fe289 O299 1.976 . S
Fe289 O303 1.996 . S
Fe289 O306 1.997 . S
O290 Fe289 2.002 . S
O290 C307 1.295 . S
O291 Fe286 1.997 . S
O291 C307 1.235 . S
O292 Fe286 2.002 . S
O292 C293 1.295 . S
C293 O292 1.295 . S
C293 O295 1.235 . S
C294 O299 1.287 . S
C294 O300 1.255 . S
O295 Fe287 1.997 . S
O295 C293 1.235 . S
C296 O302 1.287 . S
C296 O303 1.255 . S
O297 Fe286 1.976 . S
O297 C304 1.287 . S
O298 Fe287 1.996 . S
O298 C304 1.255 . S
O299 Fe289 1.976 . S
O299 C294 1.287 . S
O300 Fe286 1.996 . S
O300 C294 1.255 . S
C301 O305 1.295 . S
C301 O306 1.235 . S
O302 Fe287 1.976 . S
O302 C296 1.287 . S
O303 Fe289 1.996 . S
O303 C296 1.255 . S
C304 O297 1.287 . S
C304 O298 1.255 . S
O305 Fe287 2.002 . S
O305 C301 1.295 . S
O306 Fe289 1.997 . S
O306 C301 1.235 . S
C307 O290 1.295 . S
C307 O291 1.235 . S
Fe308 O310 1.918 . S
Fe308 O313 1.997 . S
Fe308 O314 2.002 . S
Fe308 O319 1.976 . S
Fe308 O322 1.996 . S
Fe309 O310 1.918 . S
Fe309 O317 1.997 . S
Fe309 O320 1.996 . S
Fe309 O324 1.976 . S
Fe309 O327 2.002 . S
O310 Fe308 1.918 . S
O310 Fe309 1.918 . S
O310 Fe311 1.918 . S
Fe311 O310 1.918 . S
Fe311 O312 2.002 . S
Fe311 O321 1.976 . S
Fe311 O325 1.996 . S
Fe311 O328 1.997 . S
O312 Fe311 2.002 . S
O312 C329 1.295 . S
O313 Fe308 1.997 . S
O313 C329 1.235 . S
O314 Fe308 2.002 . S
O314 C315 1.295 . S
C315 O314 1.295 . S
C315 O317 1.235 . S
C316 O321 1.287 . S
C316 O322 1.255 . S
O317 Fe309 1.997 . S
O317 C315 1.235 . S
C318 O324 1.287 . S
C318 O325 1.255 . S
O319 Fe308 1.976 . S
O319 C326 1.287 . S
O320 Fe309 1.996 . S
O320 C326 1.255 . S
O321 Fe311 1.976 . S
O321 C316 1.287 . S
O322 Fe308 1.996 . S
O322 C316 1.255 . S
C323 O327 1.295 . S
C323 O328 1.235 . S
O324 Fe309 1.976 . S
O324 C318 1.287 . S
O325 Fe311 1.996 . S
O325 C318 1.255 . S
C326 O319 1.287 . S
C326 O320 1.255 . S
O327 Fe309 2.002 . S
O327 C323 1.295 . S
O328 Fe311 1.997 . S
O328 C323 1.235 . S
C329 O312 1.295 . S
C329 O313 1.235 . S
Fe330 O332 1.918 1_655 S
Fe330 O335 1.997 . S
Fe330 O336 2.002 1_655 S
Fe330 O341 1.976 . S
Fe330 O344 1.996 . S
Fe331 O332 1.918 . S
Fe331 O339 1.997 . S
Fe331 O342 1.996 . S
Fe331 O346 1.976 . S
Fe331 O349 2.002 . S
O332 Fe330 1.918 1_455 S
O332 Fe331 1.918 . S
O332 Fe333 1.918 . S
Fe333 O332 1.918 . S
Fe333 O334 2.002 . S
Fe333 O343 1.976 1_455 S
Fe333 O347 1.996 . S
Fe333 O350 1.997 . S
O334 Fe333 2.002 . S
O334 C351 1.295 . S
O335 Fe330 1.997 . S
O335 C351 1.235 1_655 S
O336 Fe330 2.002 1_455 S
O336 C337 1.295 . S
C337 O336 1.295 . S
C337 O339 1.235 . S
C338 O343 1.287 . S
C338 O344 1.255 . S
O339 Fe331 1.997 . S
O339 C337 1.235 . S
C340 O346 1.287 . S
C340 O347 1.255 . S
O341 Fe330 1.976 . S
O341 C348 1.287 1_655 S
O342 Fe331 1.996 . S
O342 C348 1.255 . S
O343 Fe333 1.976 1_655 S
O343 C338 1.287 . S
O344 Fe330 1.996 . S
O344 C338 1.255 . S
C345 O349 1.295 . S
C345 O350 1.235 . S
O346 Fe331 1.976 . S
O346 C340 1.287 . S
O347 Fe333 1.996 . S
O347 C340 1.255 . S
C348 O341 1.287 1_455 S
C348 O342 1.255 . S
O349 Fe331 2.002 . S
O349 C345 1.295 . S
O350 Fe333 1.997 . S
O350 C345 1.235 . S
C351 O334 1.295 . S
C351 O335 1.235 1_455 S
H352 C358 0.930 . S
H353 C362 0.930 . S
H354 C367 0.929 . S
H355 C365 0.929 . S
H356 C360 0.929 . S
H357 C366 0.929 . S
C358 H352 0.930 . S
C358 C359 1.367 . S
C358 C366 1.378 . S
C359 C358 1.367 . S
C359 C367 1.433 . S
C360 H356 0.929 . S
C360 C362 1.378 . S
C360 C364 1.350 . S
C361 C364 1.463 . S
C361 C366 1.350 . S
C361 N369 1.427 . S
C362 H353 0.930 . S
C362 C360 1.378 . S
C362 C363 1.367 . S
C363 C362 1.367 . S
C363 C365 1.433 . S
C364 C360 1.350 . S
C364 C361 1.463 . S
C364 N368 1.427 . S
C365 H355 0.929 . S
C365 C363 1.433 . S
C365 N368 1.384 . S
C366 H357 0.929 . S
C366 C358 1.378 . S
C366 C361 1.350 . S
C367 H354 0.929 . S
C367 C359 1.433 . S
C367 N369 1.384 . S
N368 C364 1.427 . S
N368 C365 1.384 . S
N369 C361 1.427 . S
N369 C367 1.384 . S
H370 C376 0.930 . S
H371 C380 0.930 . S
H372 C385 0.929 . S
H373 C383 0.929 . S
H374 C378 0.929 . S
H375 C384 0.929 . S
C376 H370 0.930 . S
C376 C377 1.367 . S
C376 C384 1.378 . S
C377 C376 1.367 . S
C377 C385 1.433 . S
C378 H374 0.929 . S
C378 C380 1.378 . S
C378 C382 1.350 . S
C379 C382 1.463 . S
C379 C384 1.350 . S
C379 N387 1.427 . S
C380 H371 0.930 . S
C380 C378 1.378 . S
C380 C381 1.367 . S
C381 C380 1.367 . S
C381 C383 1.433 . S
C382 C378 1.350 . S
C382 C379 1.463 . S
C382 N386 1.427 . S
C383 H373 0.929 . S
C383 C381 1.433 . S
C383 N386 1.384 . S
C384 H375 0.929 . S
C384 C376 1.378 . S
C384 C379 1.350 . S
C385 H372 0.929 . S
C385 C377 1.433 . S
C385 N387 1.384 . S
N386 C382 1.427 . S
N386 C383 1.384 . S
N387 C379 1.427 . S
N387 C385 1.384 . S
H388 C394 0.930 . S
H389 C398 0.930 . S
H390 C403 0.929 . S
H391 C401 0.929 . S
H392 C396 0.929 . S
H393 C402 0.929 . S
C394 H388 0.930 . S
C394 C395 1.367 . S
C394 C402 1.378 . S
C395 C394 1.367 . S
C395 C403 1.433 . S
C396 H392 0.929 . S
C396 C398 1.378 . S
C396 C400 1.350 . S
C397 C400 1.463 . S
C397 C402 1.350 . S
C397 N405 1.427 . S
C398 H389 0.930 . S
C398 C396 1.378 . S
C398 C399 1.367 . S
C399 C398 1.367 . S
C399 C401 1.433 . S
C400 C396 1.350 . S
C400 C397 1.463 . S
C400 N404 1.427 . S
C401 H391 0.929 . S
C401 C399 1.433 . S
C401 N404 1.384 . S
C402 H393 0.929 . S
C402 C394 1.378 . S
C402 C397 1.350 . S
C403 H390 0.929 . S
C403 C395 1.433 . S
C403 N405 1.384 . S
N404 C400 1.427 . S
N404 C401 1.384 . S
N405 C397 1.427 . S
N405 C403 1.384 . S
H406 C412 0.930 . S
H407 C416 0.930 . S
H408 C421 0.929 . S
H409 C419 0.929 . S
H410 C414 0.929 . S
H411 C420 0.929 . S
C412 H406 0.930 . S
C412 C413 1.367 . S
C412 C420 1.378 . S
C413 C412 1.367 . S
C413 C421 1.433 . S
C414 H410 0.929 . S
C414 C416 1.378 . S
C414 C418 1.350 . S
C415 C418 1.463 . S
C415 C420 1.350 . S
C415 N423 1.427 . S
C416 H407 0.930 . S
C416 C414 1.378 . S
C416 C417 1.367 . S
C417 C416 1.367 . S
C417 C419 1.433 . S
C418 C414 1.350 . S
C418 C415 1.463 . S
C418 N422 1.427 . S
C419 H409 0.929 . S
C419 C417 1.433 . S
C419 N422 1.384 . S
C420 H411 0.929 . S
C420 C412 1.378 . S
C420 C415 1.350 . S
C421 H408 0.929 . S
C421 C413 1.433 . S
C421 N423 1.384 . S
N422 C418 1.427 . S
N422 C419 1.384 . S
N423 C415 1.427 . S
N423 C421 1.384 . S
H424 C430 0.930 . S
H425 C434 0.930 . S
H426 C439 0.929 . S
H427 C437 0.929 . S
H428 C432 0.929 . S
H429 C438 0.929 . S
C430 H424 0.930 . S
C430 C431 1.367 . S
C430 C438 1.378 . S
C431 C430 1.367 . S
C431 C439 1.433 . S
C432 H428 0.929 . S
C432 C434 1.378 . S
C432 C436 1.350 . S
C433 C436 1.463 . S
C433 C438 1.350 . S
C433 N441 1.427 . S
C434 H425 0.930 . S
C434 C432 1.378 . S
C434 C435 1.367 . S
C435 C434 1.367 . S
C435 C437 1.433 . S
C436 C432 1.350 . S
C436 C433 1.463 . S
C436 N440 1.427 . S
C437 H427 0.929 . S
C437 C435 1.433 . S
C437 N440 1.384 . S
C438 H429 0.929 . S
C438 C430 1.378 . S
C438 C433 1.350 . S
C439 H426 0.929 . S
C439 C431 1.433 . S
C439 N441 1.384 . S
N440 C436 1.427 . S
N440 C437 1.384 . S
N441 C433 1.427 . S
N441 C439 1.384 . S
H442 C448 0.930 . S
H443 C452 0.930 . S
H444 C457 0.929 . S
H445 C455 0.929 . S
H446 C450 0.929 . S
H447 C456 0.929 . S
C448 H442 0.930 . S
C448 C449 1.367 . S
C448 C456 1.378 . S
C449 C448 1.367 . S
C449 C457 1.433 . S
C450 H446 0.929 . S
C450 C452 1.378 . S
C450 C454 1.350 . S
C451 C454 1.463 . S
C451 C456 1.350 . S
C451 N459 1.427 . S
C452 H443 0.930 . S
C452 C450 1.378 . S
C452 C453 1.367 . S
C453 C452 1.367 . S
C453 C455 1.433 . S
C454 C450 1.350 . S
C454 C451 1.463 . S
C454 N458 1.427 . S
C455 H445 0.929 . S
C455 C453 1.433 . S
C455 N458 1.384 . S
C456 H447 0.929 . S
C456 C448 1.378 . S
C456 C451 1.350 . S
C457 H444 0.929 . S
C457 C449 1.433 . S
C457 N459 1.384 . S
N458 C454 1.427 . S
N458 C455 1.384 . S
N459 C451 1.427 . S
N459 C457 1.384 . S
H460 C466 0.930 . S
H461 C470 0.930 . S
H462 C475 0.929 . S
H463 C473 0.929 . S
H464 C468 0.929 . S
H465 C474 0.929 . S
C466 H460 0.930 . S
C466 C467 1.367 . S
C466 C474 1.378 . S
C467 C466 1.367 . S
C467 C475 1.433 . S
C468 H464 0.929 . S
C468 C470 1.378 . S
C468 C472 1.350 . S
C469 C472 1.463 . S
C469 C474 1.350 . S
C469 N477 1.427 . S
C470 H461 0.930 . S
C470 C468 1.378 . S
C470 C471 1.367 . S
C471 C470 1.367 . S
C471 C473 1.433 . S
C472 C468 1.350 . S
C472 C469 1.463 . S
C472 N476 1.427 . S
C473 H463 0.929 . S
C473 C471 1.433 . S
C473 N476 1.384 . S
C474 H465 0.929 . S
C474 C466 1.378 . S
C474 C469 1.350 . S
C475 H462 0.929 . S
C475 C467 1.433 . S
C475 N477 1.384 . S
N476 C472 1.427 . S
N476 C473 1.384 . S
N477 C469 1.427 . S
N477 C475 1.384 . S
H478 C484 0.930 . S
H479 C488 0.930 . S
H480 C493 0.929 . S
H481 C491 0.929 . S
H482 C486 0.929 . S
H483 C492 0.929 . S
C484 H478 0.930 . S
C484 C485 1.367 . S
C484 C492 1.378 . S
C485 C484 1.367 . S
C485 C493 1.433 . S
C486 H482 0.929 . S
C486 C488 1.378 . S
C486 C490 1.350 . S
C487 C490 1.463 . S
C487 C492 1.350 . S
C487 N495 1.427 . S
C488 H479 0.930 . S
C488 C486 1.378 . S
C488 C489 1.367 . S
C489 C488 1.367 . S
C489 C491 1.433 . S
C490 C486 1.350 . S
C490 C487 1.463 . S
C490 N494 1.427 . S
C491 H481 0.929 . S
C491 C489 1.433 . S
C491 N494 1.384 . S
C492 H483 0.929 . S
C492 C484 1.378 . S
C492 C487 1.350 . S
C493 H480 0.929 . S
C493 C485 1.433 . S
C493 N495 1.384 . S
N494 C490 1.427 . S
N494 C491 1.384 . S
N495 C487 1.427 . S
N495 C493 1.384 . S
H496 C502 0.930 . S
H497 C506 0.930 . S
H498 C511 0.929 . S
H499 C509 0.929 . S
H500 C504 0.929 . S
H501 C510 0.929 . S
C502 H496 0.930 . S
C502 C503 1.367 . S
C502 C510 1.378 . S
C503 C502 1.367 . S
C503 C511 1.433 1_545 S
C504 H500 0.929 . S
C504 C506 1.378 . S
C504 C508 1.350 . S
C505 C508 1.463 1_544 S
C505 C510 1.350 . S
C505 N513 1.427 1_545 S
C506 H497 0.930 . S
C506 C504 1.378 . S
C506 C507 1.367 . S
C507 C506 1.367 . S
C507 C509 1.433 1_565 S
C508 C504 1.350 . S
C508 C505 1.463 1_566 S
C508 N512 1.427 1_565 S
C509 H499 0.929 . S
C509 C507 1.433 1_545 S
C509 N512 1.384 . S
C510 H501 0.929 . S
C510 C502 1.378 . S
C510 C505 1.350 . S
C511 H498 0.929 . S
C511 C503 1.433 1_565 S
C511 N513 1.384 . S
N512 C508 1.427 1_545 S
N512 C509 1.384 . S
N513 C505 1.427 1_565 S
N513 C511 1.384 . S
H514 C520 0.930 1_556 S
H515 C524 0.930 1_554 S
H516 C529 0.929 . S
H517 C527 0.929 . S
H518 C522 0.929 . S
H519 C528 0.929 . S
C520 H514 0.930 1_554 S
C520 C521 1.367 . S
C520 C528 1.378 1_554 S
C521 C520 1.367 . S
C521 C529 1.433 . S
C522 H518 0.929 . S
C522 C524 1.378 1_554 S
C522 C526 1.350 1_554 S
C523 C526 1.463 1_554 S
C523 C528 1.350 1_554 S
C523 N531 1.427 . S
C524 H515 0.930 1_556 S
C524 C522 1.378 1_556 S
C524 C525 1.367 . S
C525 C524 1.367 . S
C525 C527 1.433 . S
C526 C522 1.350 1_556 S
C526 C523 1.463 1_556 S
C526 N530 1.427 . S
C527 H517 0.929 . S
C527 C525 1.433 . S
C527 N530 1.384 . S
C528 H519 0.929 . S
C528 C520 1.378 1_556 S
C528 C523 1.350 1_556 S
C529 H516 0.929 . S
C529 C521 1.433 . S
C529 N531 1.384 . S
N530 C526 1.427 . S
N530 C527 1.384 . S
N531 C523 1.427 . S
N531 C529 1.384 . S
H532 C538 0.930 . S
H533 C542 0.930 . S
H534 C547 0.929 . S
H535 C545 0.929 . S
H536 C540 0.929 . S
H537 C546 0.929 . S
C538 H532 0.930 . S
C538 C539 1.367 . S
C538 C546 1.378 . S
C539 C538 1.367 . S
C539 C547 1.433 . S
C540 H536 0.929 . S
C540 C542 1.378 . S
C540 C544 1.350 . S
C541 C544 1.463 1_456 S
C541 C546 1.350 . S
C541 N549 1.427 . S
C542 H533 0.930 . S
C542 C540 1.378 . S
C542 C543 1.367 . S
C543 C542 1.367 . S
C543 C545 1.433 . S
C544 C540 1.350 . S
C544 C541 1.463 1_654 S
C544 N548 1.427 . S
C545 H535 0.929 . S
C545 C543 1.433 . S
C545 N548 1.384 . S
C546 H537 0.929 . S
C546 C538 1.378 . S
C546 C541 1.350 . S
C547 H534 0.929 . S
C547 C539 1.433 . S
C547 N549 1.384 . S
N548 C544 1.427 . S
N548 C545 1.384 . S
N549 C541 1.427 . S
N549 C547 1.384 . S
H550 C556 0.932 . S
H551 C560 0.930 . S
H552 C565 0.929 1_554 S
H553 C563 0.929 1_556 S
H554 C558 0.929 . S
H555 C564 0.929 . S
C556 H550 0.932 . S
C556 C557 1.365 1_455 S
C556 C564 1.379 . S
C557 C556 1.365 1_655 S
C557 C565 1.433 . S
C558 H554 0.929 . S
C558 C560 1.378 . S
C558 C562 1.350 1_655 S
C559 C562 1.463 1_646 S
C559 C564 1.350 1_655 S
C559 N567 1.427 1_556 S
C560 H551 0.930 . S
C560 C558 1.378 . S
C560 C561 1.367 1_655 S
C561 C560 1.367 1_455 S
C561 C563 1.433 . S
C562 C558 1.350 1_455 S
C562 C559 1.463 1_464 S
C562 N566 1.427 1_554 S
C563 H553 0.929 1_554 S
C563 C561 1.433 . S
C563 N566 1.384 1_554 S
C564 H555 0.929 . S
C564 C556 1.379 . S
C564 C559 1.350 1_455 S
C565 H552 0.929 1_556 S
C565 C557 1.433 . S
C565 N567 1.384 1_556 S
N566 C562 1.427 1_556 S
N566 C563 1.384 1_556 S
N567 C559 1.427 1_554 S
N567 C565 1.384 1_554 S
H568 C574 0.930 . S
H569 C578 0.930 . S
H570 C583 0.928 1_545 S
H571 C581 0.929 1_565 S
H572 C576 0.929 1_455 S
H573 C582 0.929 1_655 S
C574 H568 0.930 . S
C574 C575 1.367 . S
C574 C582 1.378 . S
C575 C574 1.367 . S
C575 C583 1.436 . S
C576 H572 0.929 1_655 S
C576 C578 1.378 . S
C576 C580 1.350 . S
C577 C580 1.463 1_465 S
C577 C582 1.350 . S
C577 N585 1.427 1_565 S
C578 H569 0.930 . S
C578 C576 1.378 . S
C578 C579 1.367 . S
C579 C578 1.367 . S
C579 C581 1.434 . S
C580 C576 1.350 . S
C580 C577 1.463 1_645 S
C580 N584 1.427 1_545 S
C581 H571 0.929 1_545 S
C581 C579 1.434 . S
C581 N584 1.383 1_545 S
C582 H573 0.929 1_455 S
C582 C574 1.378 . S
C582 C577 1.350 . S
C583 H570 0.928 1_565 S
C583 C575 1.436 . S
C583 N585 1.383 1_565 S
N584 C580 1.427 1_565 S
N584 C581 1.383 1_565 S
N585 C577 1.427 1_545 S
N585 C583 1.383 1_545 S
H586 C592 0.930 . S
H587 C596 0.930 . S
H588 C601 0.929 . S
H589 C599 0.929 . S
H590 C594 0.929 . S
H591 C600 0.929 . S
C592 H586 0.930 . S
C592 C593 1.367 . S
C592 C600 1.378 . S
C593 C592 1.367 . S
C593 C601 1.433 . S
C594 H590 0.929 . S
C594 C596 1.378 . S
C594 C598 1.350 . S
C595 C598 1.463 1_545 S
C595 C600 1.350 . S
C595 N603 1.427 . S
C596 H587 0.930 . S
C596 C594 1.378 . S
C596 C597 1.367 . S
C597 C596 1.367 . S
C597 C599 1.433 . S
C598 C594 1.350 . S
C598 C595 1.463 1_565 S
C598 N602 1.427 . S
C599 H589 0.929 . S
C599 C597 1.433 . S
C599 N602 1.384 . S
C600 H591 0.929 . S
C600 C592 1.378 . S
C600 C595 1.350 . S
C601 H588 0.929 . S
C601 C593 1.433 . S
C601 N603 1.384 . S
N602 C598 1.427 . S
N602 C599 1.384 . S
N603 C595 1.427 . S
N603 C601 1.384 . S
H604 C610 0.930 . S
H605 C614 0.930 . S
H606 C619 0.929 . S
H607 C617 0.929 . S
H608 C612 0.929 . S
H609 C618 0.929 . S
C610 H604 0.930 . S
C610 C611 1.367 . S
C610 C618 1.378 . S
C611 C610 1.367 . S
C611 C619 1.433 . S
C612 H608 0.929 . S
C612 C614 1.378 . S
C612 C616 1.350 . S
C613 C616 1.463 . S
C613 C618 1.350 . S
C613 N621 1.427 . S
C614 H605 0.930 . S
C614 C612 1.378 . S
C614 C615 1.367 . S
C615 C614 1.367 . S
C615 C617 1.433 . S
C616 C612 1.350 . S
C616 C613 1.463 . S
C616 N620 1.427 . S
C617 H607 0.929 . S
C617 C615 1.433 . S
C617 N620 1.384 . S
C618 H609 0.929 . S
C618 C610 1.378 . S
C618 C613 1.350 . S
C619 H606 0.929 . S
C619 C611 1.433 . S
C619 N621 1.384 . S
N620 C616 1.427 . S
N620 C617 1.384 . S
N621 C613 1.427 . S
N621 C619 1.384 . S
H622 C628 0.930 1_655 S
H623 C632 0.930 1_455 S
H624 C637 0.929 . S
H625 C635 0.929 . S
H626 C630 0.929 . S
H627 C636 0.929 . S
C628 H622 0.930 1_455 S
C628 C629 1.367 . S
C628 C636 1.378 1_455 S
C629 C628 1.367 . S
C629 C637 1.433 . S
C630 H626 0.929 . S
C630 C632 1.378 1_455 S
C630 C634 1.350 1_455 S
C631 C634 1.463 1_455 S
C631 C636 1.350 1_455 S
C631 N639 1.427 . S
C632 H623 0.930 1_655 S
C632 C630 1.378 1_655 S
C632 C633 1.367 . S
C633 C632 1.367 . S
C633 C635 1.433 . S
C634 C630 1.350 1_655 S
C634 C631 1.463 1_655 S
C634 N638 1.427 . S
C635 H625 0.929 . S
C635 C633 1.433 . S
C635 N638 1.384 . S
C636 H627 0.929 . S
C636 C628 1.378 1_655 S
C636 C631 1.350 1_655 S
C637 H624 0.929 . S
C637 C629 1.433 . S
C637 N639 1.384 . S
N638 C634 1.427 . S
N638 C635 1.384 . S
N639 C631 1.427 . S
N639 C637 1.384 . S
H640 C646 0.930 . S
H641 C650 0.930 . S
H642 C655 0.929 . S
H643 C653 0.929 . S
H644 C648 0.929 . S
H645 C654 0.929 . S
C646 H640 0.930 . S
C646 C647 1.367 . S
C646 C654 1.378 . S
C647 C646 1.367 . S
C647 C655 1.433 . S
C648 H644 0.929 . S
C648 C650 1.378 . S
C648 C652 1.350 . S
C649 C652 1.463 . S
C649 C654 1.350 . S
C649 N657 1.427 . S
C650 H641 0.930 . S
C650 C648 1.378 . S
C650 C651 1.367 . S
C651 C650 1.367 . S
C651 C653 1.433 . S
C652 C648 1.350 . S
C652 C649 1.463 . S
C652 N656 1.427 . S
C653 H643 0.929 . S
C653 C651 1.433 . S
C653 N656 1.384 . S
C654 H645 0.929 . S
C654 C646 1.378 . S
C654 C649 1.350 . S
C655 H642 0.929 . S
C655 C647 1.433 . S
C655 N657 1.384 . S
N656 C652 1.427 . S
N656 C653 1.384 . S
N657 C649 1.427 . S
N657 C655 1.384 . S
H658 C664 0.930 . S
H659 C668 0.930 . S
H660 C673 0.929 . S
H661 C671 0.929 . S
H662 C666 0.929 . S
H663 C672 0.929 . S
C664 H658 0.930 . S
C664 C665 1.367 . S
C664 C672 1.378 . S
C665 C664 1.367 . S
C665 C673 1.433 . S
C666 H662 0.929 . S
C666 C668 1.378 . S
C666 C670 1.350 . S
C667 C670 1.463 . S
C667 C672 1.350 . S
C667 N675 1.427 . S
C668 H659 0.930 . S
C668 C666 1.378 . S
C668 C669 1.367 . S
C669 C668 1.367 . S
C669 C671 1.433 . S
C670 C666 1.350 . S
C670 C667 1.463 . S
C670 N674 1.427 . S
C671 H661 0.929 . S
C671 C669 1.433 . S
C671 N674 1.384 . S
C672 H663 0.929 . S
C672 C664 1.378 . S
C672 C667 1.350 . S
C673 H660 0.929 . S
C673 C665 1.433 . S
C673 N675 1.384 . S
N674 C670 1.427 . S
N674 C671 1.384 . S
N675 C667 1.427 . S
N675 C673 1.384 . S
H676 C682 0.930 . S
H677 C686 0.930 . S
H678 C691 0.929 . S
H679 C689 0.929 . S
H680 C684 0.929 . S
H681 C690 0.929 . S
C682 H676 0.930 . S
C682 C683 1.367 . S
C682 C690 1.378 . S
C683 C682 1.367 . S
C683 C691 1.433 . S
C684 H680 0.929 . S
C684 C686 1.378 . S
C684 C688 1.350 . S
C685 C688 1.463 . S
C685 C690 1.350 . S
C685 N693 1.427 . S
C686 H677 0.930 . S
C686 C684 1.378 . S
C686 C687 1.367 . S
C687 C686 1.367 . S
C687 C689 1.433 . S
C688 C684 1.350 . S
C688 C685 1.463 . S
C688 N692 1.427 . S
C689 H679 0.929 . S
C689 C687 1.433 . S
C689 N692 1.384 . S
C690 H681 0.929 . S
C690 C682 1.378 . S
C690 C685 1.350 . S
C691 H678 0.929 . S
C691 C683 1.433 . S
C691 N693 1.384 . S
N692 C688 1.427 . S
N692 C689 1.384 . S
N693 C685 1.427 . S
N693 C691 1.384 . S
H694 C700 0.930 . S
H695 C704 0.930 . S
H696 C709 0.929 . S
H697 C707 0.929 . S
H698 C702 0.929 . S
H699 C708 0.929 . S
C700 H694 0.930 . S
C700 C701 1.367 . S
C700 C708 1.378 . S
C701 C700 1.367 . S
C701 C709 1.433 . S
C702 H698 0.929 . S
C702 C704 1.378 . S
C702 C706 1.350 . S
C703 C706 1.463 . S
C703 C708 1.350 . S
C703 N711 1.427 . S
C704 H695 0.930 . S
C704 C702 1.378 . S
C704 C705 1.367 . S
C705 C704 1.367 . S
C705 C707 1.433 . S
C706 C702 1.350 . S
C706 C703 1.463 . S
C706 N710 1.427 . S
C707 H697 0.929 . S
C707 C705 1.433 . S
C707 N710 1.384 . S
C708 H699 0.929 . S
C708 C700 1.378 . S
C708 C703 1.350 . S
C709 H696 0.929 . S
C709 C701 1.433 . S
C709 N711 1.384 . S
N710 C706 1.427 . S
N710 C707 1.384 . S
N711 C703 1.427 . S
N711 C709 1.384 . S
H712 C718 0.930 . S
H713 C722 0.930 1_655 S
H714 C727 0.929 . S
H715 C725 0.929 . S
H716 C720 0.929 . S
H717 C726 0.929 . S
C718 H712 0.930 . S
C718 C719 1.367 . S
C718 C726 1.378 . S
C719 C718 1.367 . S
C719 C727 1.433 . S
C720 H716 0.929 . S
C720 C722 1.378 . S
C720 C724 1.350 . S
C721 C724 1.463 . S
C721 C726 1.350 . S
C721 N729 1.427 . S
C722 H713 0.930 1_455 S
C722 C720 1.378 . S
C722 C723 1.367 . S
C723 C722 1.367 . S
C723 C725 1.433 . S
C724 C720 1.350 . S
C724 C721 1.463 . S
C724 N728 1.427 . S
C725 H715 0.929 . S
C725 C723 1.433 . S
C725 N728 1.384 . S
C726 H717 0.929 . S
C726 C718 1.378 . S
C726 C721 1.350 . S
C727 H714 0.929 . S
C727 C719 1.433 . S
C727 N729 1.384 . S
N728 C724 1.427 . S
N728 C725 1.384 . S
N729 C721 1.427 . S
N729 C727 1.384 . S
H730 C736 0.930 . S
H731 C740 0.930 . S
H732 C745 0.929 . S
H733 C743 0.929 . S
H734 C738 0.929 . S
H735 C744 0.929 . S
C736 H730 0.930 . S
C736 C737 1.367 . S
C736 C744 1.378 . S
C737 C736 1.367 . S
C737 C745 1.433 . S
C738 H734 0.929 . S
C738 C740 1.378 . S
C738 C742 1.350 . S
C739 C742 1.463 . S
C739 C744 1.350 . S
C739 N747 1.427 . S
C740 H731 0.930 . S
C740 C738 1.378 . S
C740 C741 1.367 . S
C741 C740 1.367 . S
C741 C743 1.433 . S
C742 C738 1.350 . S
C742 C739 1.463 . S
C742 N746 1.427 . S
C743 H733 0.929 . S
C743 C741 1.433 . S
C743 N746 1.384 . S
C744 H735 0.929 . S
C744 C736 1.378 . S
C744 C739 1.350 . S
C745 H732 0.929 . S
C745 C737 1.433 . S
C745 N747 1.384 . S
N746 C742 1.427 . S
N746 C743 1.384 . S
N747 C739 1.427 . S
N747 C745 1.384 . S
H748 C754 0.930 . S
H749 C758 0.930 . S
H750 C763 0.929 . S
H751 C761 0.929 . S
H752 C756 0.929 . S
H753 C762 0.929 . S
C754 H748 0.930 . S
C754 C755 1.367 . S
C754 C762 1.378 . S
C755 C754 1.367 . S
C755 C763 1.433 . S
C756 H752 0.929 . S
C756 C758 1.378 . S
C756 C760 1.350 . S
C757 C760 1.463 . S
C757 C762 1.350 . S
C757 N765 1.427 . S
C758 H749 0.930 . S
C758 C756 1.378 . S
C758 C759 1.367 . S
C759 C758 1.367 . S
C759 C761 1.433 . S
C760 C756 1.350 . S
C760 C757 1.463 . S
C760 N764 1.427 . S
C761 H751 0.929 . S
C761 C759 1.433 . S
C761 N764 1.384 . S
C762 H753 0.929 . S
C762 C754 1.378 . S
C762 C757 1.350 . S
C763 H750 0.929 . S
C763 C755 1.433 . S
C763 N765 1.384 . S
N764 C760 1.427 . S
N764 C761 1.384 . S
N765 C757 1.427 . S
N765 C763 1.384 . S
H766 C772 0.930 . S
H767 C776 0.930 . S
H768 C781 0.929 . S
H769 C779 0.929 . S
H770 C774 0.929 . S
H771 C780 0.929 . S
C772 H766 0.930 . S
C772 C773 1.367 . S
C772 C780 1.378 . S
C773 C772 1.367 . S
C773 C781 1.433 . S
C774 H770 0.929 . S
C774 C776 1.378 . S
C774 C778 1.350 . S
C775 C778 1.463 . S
C775 C780 1.350 . S
C775 N783 1.427 . S
C776 H767 0.930 . S
C776 C774 1.378 . S
C776 C777 1.367 . S
C777 C776 1.367 . S
C777 C779 1.433 . S
C778 C774 1.350 . S
C778 C775 1.463 . S
C778 N782 1.427 . S
C779 H769 0.929 . S
C779 C777 1.433 . S
C779 N782 1.384 . S
C780 H771 0.929 . S
C780 C772 1.378 . S
C780 C775 1.350 . S
C781 H768 0.929 . S
C781 C773 1.433 . S
C781 N783 1.384 . S
N782 C778 1.427 . S
N782 C779 1.384 . S
N783 C775 1.427 . S
N783 C781 1.384 . S
H784 C790 0.930 . S
H785 C794 0.930 . S
H786 C799 0.929 . S
H787 C797 0.929 . S
H788 C792 0.929 . S
H789 C798 0.929 . S
C790 H784 0.930 . S
C790 C791 1.367 . S
C790 C798 1.378 . S
C791 C790 1.367 . S
C791 C799 1.433 . S
C792 H788 0.929 . S
C792 C794 1.378 . S
C792 C796 1.350 . S
C793 C796 1.463 . S
C793 C798 1.350 . S
C793 N801 1.427 . S
C794 H785 0.930 . S
C794 C792 1.378 . S
C794 C795 1.367 . S
C795 C794 1.367 . S
C795 C797 1.433 . S
C796 C792 1.350 . S
C796 C793 1.463 . S
C796 N800 1.427 . S
C797 H787 0.929 . S
C797 C795 1.433 . S
C797 N800 1.384 . S
C798 H789 0.929 . S
C798 C790 1.378 . S
C798 C793 1.350 . S
C799 H786 0.929 . S
C799 C791 1.433 . S
C799 N801 1.384 . S
N800 C796 1.427 . S
N800 C797 1.384 . S
N801 C793 1.427 . S
N801 C799 1.384 . S
H802 C808 0.930 . S
H803 C812 0.930 . S
H804 C817 0.929 . S
H805 C815 0.929 . S
H806 C810 0.929 . S
H807 C816 0.929 . S
C808 H802 0.930 . S
C808 C809 1.367 . S
C808 C816 1.378 . S
C809 C808 1.367 . S
C809 C817 1.433 . S
C810 H806 0.929 . S
C810 C812 1.378 . S
C810 C814 1.350 . S
C811 C814 1.463 . S
C811 C816 1.350 . S
C811 N819 1.427 . S
C812 H803 0.930 . S
C812 C810 1.378 . S
C812 C813 1.367 . S
C813 C812 1.367 . S
C813 C815 1.433 . S
C814 C810 1.350 . S
C814 C811 1.463 . S
C814 N818 1.427 . S
C815 H805 0.929 . S
C815 C813 1.433 . S
C815 N818 1.384 . S
C816 H807 0.929 . S
C816 C808 1.378 . S
C816 C811 1.350 . S
C817 H804 0.929 . S
C817 C809 1.433 . S
C817 N819 1.384 . S
N818 C814 1.427 . S
N818 C815 1.384 . S
N819 C811 1.427 . S
N819 C817 1.384 . S
H820 C826 0.930 . S
H821 C830 0.930 . S
H822 C835 0.929 . S
H823 C833 0.929 . S
H824 C828 0.929 . S
H825 C834 0.929 . S
C826 H820 0.930 . S
C826 C827 1.367 . S
C826 C834 1.378 . S
C827 C826 1.367 . S
C827 C835 1.433 1_455 S
C828 H824 0.929 . S
C828 C830 1.378 . S
C828 C832 1.350 . S
C829 C832 1.463 . S
C829 C834 1.350 . S
C829 N837 1.427 . S
C830 H821 0.930 . S
C830 C828 1.378 . S
C830 C831 1.367 . S
C831 C830 1.367 . S
C831 C833 1.433 . S
C832 C828 1.350 . S
C832 C829 1.463 . S
C832 N836 1.427 . S
C833 H823 0.929 . S
C833 C831 1.433 . S
C833 N836 1.384 . S
C834 H825 0.929 . S
C834 C826 1.378 . S
C834 C829 1.350 . S
C835 H822 0.929 . S
C835 C827 1.433 1_655 S
C835 N837 1.384 1_655 S
N836 C832 1.427 . S
N836 C833 1.384 . S
N837 C829 1.427 . S
N837 C835 1.384 1_455 S
H838 C844 0.930 . S
H839 C848 0.930 . S
H840 C853 0.929 . S
H841 C851 0.929 . S
H842 C846 0.929 . S
H843 C852 0.929 . S
C844 H838 0.930 . S
C844 C845 1.367 . S
C844 C852 1.378 . S
C845 C844 1.367 . S
C845 C853 1.433 . S
C846 H842 0.929 . S
C846 C848 1.378 . S
C846 C850 1.350 . S
C847 C850 1.463 . S
C847 C852 1.350 . S
C847 N855 1.427 . S
C848 H839 0.930 . S
C848 C846 1.378 . S
C848 C849 1.367 . S
C849 C848 1.367 . S
C849 C851 1.433 . S
C850 C846 1.350 . S
C850 C847 1.463 . S
C850 N854 1.427 . S
C851 H841 0.929 . S
C851 C849 1.433 . S
C851 N854 1.384 . S
C852 H843 0.929 . S
C852 C844 1.378 . S
C852 C847 1.350 . S
C853 H840 0.929 . S
C853 C845 1.433 . S
C853 N855 1.384 . S
N854 C850 1.427 . S
N854 C851 1.384 . S
N855 C847 1.427 . S
N855 C853 1.384 . S
H856 C862 0.930 . S
H857 C866 0.930 . S
H858 C871 0.929 . S
H859 C869 0.929 . S
H860 C864 0.929 . S
H861 C870 0.929 . S
C862 H856 0.930 . S
C862 C863 1.367 . S
C862 C870 1.378 . S
C863 C862 1.367 . S
C863 C871 1.433 . S
C864 H860 0.929 . S
C864 C866 1.378 . S
C864 C868 1.350 . S
C865 C868 1.463 . S
C865 C870 1.350 . S
C865 N873 1.427 . S
C866 H857 0.930 . S
C866 C864 1.378 . S
C866 C867 1.367 . S
C867 C866 1.367 . S
C867 C869 1.433 . S
C868 C864 1.350 . S
C868 C865 1.463 . S
C868 N872 1.427 . S
C869 H859 0.929 . S
C869 C867 1.433 . S
C869 N872 1.384 . S
C870 H861 0.929 . S
C870 C862 1.378 . S
C870 C865 1.350 . S
C871 H858 0.929 . S
C871 C863 1.433 . S
C871 N873 1.384 . S
N872 C868 1.427 . S
N872 C869 1.384 . S
N873 C865 1.427 . S
N873 C871 1.384 . S
H874 C880 0.930 . S
H875 C884 0.930 . S
H876 C889 0.929 . S
H877 C887 0.929 . S
H878 C882 0.929 . S
H879 C888 0.929 . S
C880 H874 0.930 . S
C880 C881 1.367 . S
C880 C888 1.378 . S
C881 C880 1.367 . S
C881 C889 1.433 . S
C882 H878 0.929 . S
C882 C884 1.378 . S
C882 C886 1.350 . S
C883 C886 1.463 . S
C883 C888 1.350 . S
C883 N891 1.427 . S
C884 H875 0.930 . S
C884 C882 1.378 . S
C884 C885 1.367 . S
C885 C884 1.367 . S
C885 C887 1.433 . S
C886 C882 1.350 . S
C886 C883 1.463 . S
C886 N890 1.427 . S
C887 H877 0.929 . S
C887 C885 1.433 . S
C887 N890 1.384 . S
C888 H879 0.929 . S
C888 C880 1.378 . S
C888 C883 1.350 . S
C889 H876 0.929 . S
C889 C881 1.433 . S
C889 N891 1.384 . S
N890 C886 1.427 . S
N890 C887 1.384 . S
N891 C883 1.427 . S
N891 C889 1.384 . S
H892 C898 0.930 . S
H893 C902 0.930 . S
H894 C907 0.929 . S
H895 C905 0.929 . S
H896 C900 0.929 . S
H897 C906 0.929 . S
C898 H892 0.930 . S
C898 C899 1.367 . S
C898 C906 1.378 . S
C899 C898 1.367 . S
C899 C907 1.433 . S
C900 H896 0.929 . S
C900 C902 1.378 . S
C900 C904 1.350 . S
C901 C904 1.463 . S
C901 C906 1.350 . S
C901 N909 1.427 . S
C902 H893 0.930 . S
C902 C900 1.378 . S
C902 C903 1.367 . S
C903 C902 1.367 . S
C903 C905 1.433 . S
C904 C900 1.350 . S
C904 C901 1.463 . S
C904 N908 1.427 . S
C905 H895 0.929 . S
C905 C903 1.433 . S
C905 N908 1.384 . S
C906 H897 0.929 . S
C906 C898 1.378 . S
C906 C901 1.350 . S
C907 H894 0.929 . S
C907 C899 1.433 . S
C907 N909 1.384 . S
N908 C904 1.427 . S
N908 C905 1.384 . S
N909 C901 1.427 . S
N909 C907 1.384 . S
H910 C916 0.930 . S
H911 C920 0.930 . S
H912 C925 0.929 . S
H913 C923 0.929 . S
H914 C918 0.929 . S
H915 C924 0.929 . S
C916 H910 0.930 . S
C916 C917 1.367 . S
C916 C924 1.378 . S
C917 C916 1.367 . S
C917 C925 1.433 . S
C918 H914 0.929 . S
C918 C920 1.378 . S
C918 C922 1.350 . S
C919 C922 1.463 . S
C919 C924 1.350 . S
C919 N927 1.427 . S
C920 H911 0.930 . S
C920 C918 1.378 . S
C920 C921 1.367 . S
C921 C920 1.367 . S
C921 C923 1.433 . S
C922 C918 1.350 . S
C922 C919 1.463 . S
C922 N926 1.427 . S
C923 H913 0.929 . S
C923 C921 1.433 . S
C923 N926 1.384 . S
C924 H915 0.929 . S
C924 C916 1.378 . S
C924 C919 1.350 . S
C925 H912 0.929 . S
C925 C917 1.433 . S
C925 N927 1.384 . S
N926 C922 1.427 . S
N926 C923 1.384 . S
N927 C919 1.427 . S
N927 C925 1.384 . S
H928 C934 0.930 . S
H929 C938 0.930 . S
H930 C943 0.929 . S
H931 C941 0.929 . S
H932 C936 0.929 . S
H933 C942 0.929 . S
C934 H928 0.930 . S
C934 C935 1.367 . S
C934 C942 1.378 . S
C935 C934 1.367 . S
C935 C943 1.433 . S
C936 H932 0.929 . S
C936 C938 1.378 1_554 S
C936 C940 1.350 . S
C937 C940 1.463 . S
C937 C942 1.350 . S
C937 N945 1.427 . S
C938 H929 0.930 . S
C938 C936 1.378 1_556 S
C938 C939 1.367 . S
C939 C938 1.367 . S
C939 C941 1.433 . S
C940 C936 1.350 . S
C940 C937 1.463 . S
C940 N944 1.427 1_554 S
C941 H931 0.929 . S
C941 C939 1.433 . S
C941 N944 1.384 . S
C942 H933 0.929 . S
C942 C934 1.378 . S
C942 C937 1.350 . S
C943 H930 0.929 . S
C943 C935 1.433 . S
C943 N945 1.384 . S
N944 C940 1.427 1_556 S
N944 C941 1.384 . S
N945 C937 1.427 . S
N945 C943 1.384 . S
H946 C952 0.930 . S
H947 C956 0.930 . S
H948 C961 0.929 . S
H949 C959 0.929 . S
H950 C954 0.929 . S
H951 C960 0.929 . S
C952 H946 0.930 . S
C952 C953 1.367 . S
C952 C960 1.378 . S
C953 C952 1.367 . S
C953 C961 1.433 . S
C954 H950 0.929 . S
C954 C956 1.378 . S
C954 C958 1.350 . S
C955 C958 1.463 . S
C955 C960 1.350 1_554 S
C955 N963 1.427 . S
C956 H947 0.930 . S
C956 C954 1.378 . S
C956 C957 1.367 . S
C957 C956 1.367 . S
C957 C959 1.433 . S
C958 C954 1.350 . S
C958 C955 1.463 . S
C958 N962 1.427 . S
C959 H949 0.929 . S
C959 C957 1.433 . S
C959 N962 1.384 . S
C960 H951 0.929 . S
C960 C952 1.378 . S
C960 C955 1.350 1_556 S
C961 H948 0.929 . S
C961 C953 1.433 . S
C961 N963 1.384 1_556 S
N962 C958 1.427 . S
N962 C959 1.384 . S
N963 C955 1.427 . S
N963 C961 1.384 1_554 S
H964 C970 0.930 . S
H965 C974 0.930 . S
H966 C979 0.929 . S
H967 C977 0.929 . S
H968 C972 0.929 . S
H969 C978 0.929 . S
C970 H964 0.930 . S
C970 C971 1.367 . S
C970 C978 1.378 . S
C971 C970 1.367 . S
C971 C979 1.433 . S
C972 H968 0.929 . S
C972 C974 1.378 . S
C972 C976 1.350 1_556 S
C973 C976 1.463 . S
C973 C978 1.350 . S
C973 N981 1.427 . S
C974 H965 0.930 . S
C974 C972 1.378 . S
C974 C975 1.367 . S
C975 C974 1.367 . S
C975 C977 1.433 . S
C976 C972 1.350 1_554 S
C976 C973 1.463 . S
C976 N980 1.427 . S
C977 H967 0.929 . S
C977 C975 1.433 . S
C977 N980 1.384 1_556 S
C978 H969 0.929 . S
C978 C970 1.378 . S
C978 C973 1.350 . S
C979 H966 0.929 . S
C979 C971 1.433 . S
C979 N981 1.384 . S
N980 C976 1.427 . S
N980 C977 1.384 1_554 S
N981 C973 1.427 . S
N981 C979 1.384 . S
H982 C988 0.930 . S
H983 C992 0.930 . S
H984 C997 0.929 . S
H985 C995 0.929 . S
H986 C990 0.929 . S
H987 C996 0.929 . S
C988 H982 0.930 . S
C988 C989 1.367 1_554 S
C988 C996 1.378 . S
C989 C988 1.367 1_556 S
C989 C997 1.433 . S
C990 H986 0.929 . S
C990 C992 1.378 . S
C990 C994 1.350 . S
C991 C994 1.463 . S
C991 C996 1.350 . S
C991 N999 1.427 1_554 S
C992 H983 0.930 . S
C992 C990 1.378 . S
C992 C993 1.367 . S
C993 C992 1.367 . S
C993 C995 1.433 . S
C994 C990 1.350 . S
C994 C991 1.463 . S
C994 N998 1.427 . S
C995 H985 0.929 . S
C995 C993 1.433 . S
C995 N998 1.384 . S
C996 H987 0.929 . S
C996 C988 1.378 . S
C996 C991 1.350 . S
C997 H984 0.929 . S
C997 C989 1.433 . S
C997 N999 1.384 . S
N998 C994 1.427 . S
N998 C995 1.384 . S
N999 C991 1.427 1_556 S
N999 C997 1.384 . S
H1000 C1006 0.930 . S
H1001 C1010 0.930 . S
H1002 C1015 0.929 . S
H1003 C1013 0.929 . S
H1004 C1008 0.929 . S
H1005 C1014 0.929 . S
C1006 H1000 0.930 . S
C1006 C1007 1.367 . S
C1006 C1014 1.378 . S
C1007 C1006 1.367 . S
C1007 C1015 1.433 . S
C1008 H1004 0.929 . S
C1008 C1010 1.378 . S
C1008 C1012 1.350 . S
C1009 C1012 1.463 . S
C1009 C1014 1.350 . S
C1009 N1017 1.427 . S
C1010 H1001 0.930 . S
C1010 C1008 1.378 . S
C1010 C1011 1.367 . S
C1011 C1010 1.367 . S
C1011 C1013 1.433 . S
C1012 C1008 1.350 . S
C1012 C1009 1.463 . S
C1012 N1016 1.427 . S
C1013 H1003 0.929 . S
C1013 C1011 1.433 . S
C1013 N1016 1.384 . S
C1014 H1005 0.929 . S
C1014 C1006 1.378 . S
C1014 C1009 1.350 . S
C1015 H1002 0.929 . S
C1015 C1007 1.433 . S
C1015 N1017 1.384 . S
N1016 C1012 1.427 . S
N1016 C1013 1.384 . S
N1017 C1009 1.427 . S
N1017 C1015 1.384 . S
H1018 C1024 0.930 . S
H1019 C1028 0.930 . S
H1020 C1033 0.929 . S
H1021 C1031 0.929 . S
H1022 C1026 0.929 . S
H1023 C1032 0.929 . S
C1024 H1018 0.930 . S
C1024 C1025 1.367 . S
C1024 C1032 1.378 . S
C1025 C1024 1.367 . S
C1025 C1033 1.433 . S
C1026 H1022 0.929 . S
C1026 C1028 1.378 . S
C1026 C1030 1.350 . S
C1027 C1030 1.463 . S
C1027 C1032 1.350 . S
C1027 N1035 1.427 . S
C1028 H1019 0.930 . S
C1028 C1026 1.378 . S
C1028 C1029 1.367 . S
C1029 C1028 1.367 . S
C1029 C1031 1.433 . S
C1030 C1026 1.350 . S
C1030 C1027 1.463 . S
C1030 N1034 1.427 . S
C1031 H1021 0.929 . S
C1031 C1029 1.433 . S
C1031 N1034 1.384 . S
C1032 H1023 0.929 . S
C1032 C1024 1.378 . S
C1032 C1027 1.350 . S
C1033 H1020 0.929 . S
C1033 C1025 1.433 . S
C1033 N1035 1.384 . S
N1034 C1030 1.427 . S
N1034 C1031 1.384 . S
N1035 C1027 1.427 . S
N1035 C1033 1.384 . S
H1036 C1042 0.930 . S
H1037 C1046 0.930 . S
H1038 C1051 0.929 . S
H1039 C1049 0.929 . S
H1040 C1044 0.929 . S
H1041 C1050 0.929 . S
C1042 H1036 0.930 . S
C1042 C1043 1.367 . S
C1042 C1050 1.378 . S
C1043 C1042 1.367 . S
C1043 C1051 1.433 . S
C1044 H1040 0.929 . S
C1044 C1046 1.378 . S
C1044 C1048 1.350 . S
C1045 C1048 1.463 . S
C1045 C1050 1.350 . S
C1045 N1053 1.427 . S
C1046 H1037 0.930 . S
C1046 C1044 1.378 . S
C1046 C1047 1.367 . S
C1047 C1046 1.367 . S
C1047 C1049 1.433 . S
C1048 C1044 1.350 . S
C1048 C1045 1.463 . S
C1048 N1052 1.427 . S
C1049 H1039 0.929 . S
C1049 C1047 1.433 . S
C1049 N1052 1.384 . S
C1050 H1041 0.929 . S
C1050 C1042 1.378 . S
C1050 C1045 1.350 . S
C1051 H1038 0.929 . S
C1051 C1043 1.433 . S
C1051 N1053 1.384 . S
N1052 C1048 1.427 . S
N1052 C1049 1.384 . S
N1053 C1045 1.427 . S
N1053 C1051 1.384 . S
H1054 C1060 0.930 . S
H1055 C1064 0.930 . S
H1056 C1069 0.929 . S
H1057 C1067 0.929 . S
H1058 C1062 0.929 . S
H1059 C1068 0.929 . S
C1060 H1054 0.930 . S
C1060 C1061 1.367 . S
C1060 C1068 1.378 . S
C1061 C1060 1.367 . S
C1061 C1069 1.433 . S
C1062 H1058 0.929 . S
C1062 C1064 1.378 . S
C1062 C1066 1.350 . S
C1063 C1066 1.463 . S
C1063 C1068 1.350 . S
C1063 N1071 1.427 . S
C1064 H1055 0.930 . S
C1064 C1062 1.378 . S
C1064 C1065 1.367 . S
C1065 C1064 1.367 . S
C1065 C1067 1.433 . S
C1066 C1062 1.350 . S
C1066 C1063 1.463 . S
C1066 N1070 1.427 . S
C1067 H1057 0.929 . S
C1067 C1065 1.433 . S
C1067 N1070 1.384 . S
C1068 H1059 0.929 . S
C1068 C1060 1.378 . S
C1068 C1063 1.350 . S
C1069 H1056 0.929 . S
C1069 C1061 1.433 . S
C1069 N1071 1.384 . S
N1070 C1066 1.427 . S
N1070 C1067 1.384 . S
N1071 C1063 1.427 . S
N1071 C1069 1.384 . S
H1072 C1078 0.930 . S
H1073 C1082 0.930 . S
H1074 C1087 0.929 . S
H1075 C1085 0.929 . S
H1076 C1080 0.929 . S
H1077 C1086 0.929 . S
C1078 H1072 0.930 . S
C1078 C1079 1.367 . S
C1078 C1086 1.378 . S
C1079 C1078 1.367 . S
C1079 C1087 1.433 . S
C1080 H1076 0.929 . S
C1080 C1082 1.378 . S
C1080 C1084 1.350 . S
C1081 C1084 1.463 . S
C1081 C1086 1.350 1_556 S
C1081 N1089 1.427 . S
C1082 H1073 0.930 . S
C1082 C1080 1.378 . S
C1082 C1083 1.367 . S
C1083 C1082 1.367 . S
C1083 C1085 1.433 . S
C1084 C1080 1.350 . S
C1084 C1081 1.463 . S
C1084 N1088 1.427 . S
C1085 H1075 0.929 . S
C1085 C1083 1.433 . S
C1085 N1088 1.384 . S
C1086 H1077 0.929 . S
C1086 C1078 1.378 . S
C1086 C1081 1.350 1_554 S
C1087 H1074 0.929 . S
C1087 C1079 1.433 . S
C1087 N1089 1.384 1_554 S
N1088 C1084 1.427 . S
N1088 C1085 1.384 . S
N1089 C1081 1.427 . S
N1089 C1087 1.384 1_556 S
H1090 C1096 0.930 . S
H1091 C1100 0.930 . S
H1092 C1105 0.929 . S
H1093 C1103 0.929 . S
H1094 C1098 0.929 . S
H1095 C1104 0.929 . S
C1096 H1090 0.930 . S
C1096 C1097 1.367 . S
C1096 C1104 1.378 . S
C1097 C1096 1.367 . S
C1097 C1105 1.433 . S
C1098 H1094 0.929 . S
C1098 C1100 1.378 . S
C1098 C1102 1.350 . S
C1099 C1102 1.463 . S
C1099 C1104 1.350 . S
C1099 N1107 1.427 . S
C1100 H1091 0.930 . S
C1100 C1098 1.378 . S
C1100 C1101 1.367 1_556 S
C1101 C1100 1.367 1_554 S
C1101 C1103 1.433 . S
C1102 C1098 1.350 . S
C1102 C1099 1.463 . S
C1102 N1106 1.427 1_556 S
C1103 H1093 0.929 . S
C1103 C1101 1.433 . S
C1103 N1106 1.384 . S
C1104 H1095 0.929 . S
C1104 C1096 1.378 . S
C1104 C1099 1.350 . S
C1105 H1092 0.929 . S
C1105 C1097 1.433 . S
C1105 N1107 1.384 . S
N1106 C1102 1.427 1_554 S
N1106 C1103 1.384 . S
N1107 C1099 1.427 . S
N1107 C1105 1.384 . S
H1108 C1114 0.930 . S
H1109 C1118 0.930 . S
H1110 C1123 0.929 . S
H1111 C1121 0.929 . S
H1112 C1116 0.929 . S
H1113 C1122 0.929 . S
C1114 H1108 0.930 . S
C1114 C1115 1.367 . S
C1114 C1122 1.378 . S
C1115 C1114 1.367 . S
C1115 C1123 1.433 . S
C1116 H1112 0.929 . S
C1116 C1118 1.378 . S
C1116 C1120 1.350 . S
C1117 C1120 1.463 . S
C1117 C1122 1.350 1_556 S
C1117 N1125 1.427 . S
C1118 H1109 0.930 . S
C1118 C1116 1.378 . S
C1118 C1119 1.367 . S
C1119 C1118 1.367 . S
C1119 C1121 1.433 . S
C1120 C1116 1.350 . S
C1120 C1117 1.463 . S
C1120 N1124 1.427 . S
C1121 H1111 0.929 . S
C1121 C1119 1.433 . S
C1121 N1124 1.384 . S
C1122 H1113 0.929 . S
C1122 C1114 1.378 . S
C1122 C1117 1.350 1_554 S
C1123 H1110 0.929 . S
C1123 C1115 1.433 . S
C1123 N1125 1.384 1_554 S
N1124 C1120 1.427 . S
N1124 C1121 1.384 . S
N1125 C1117 1.427 . S
N1125 C1123 1.384 1_556 S
H1126 C1132 0.930 . S
H1127 C1136 0.930 . S
H1128 C1141 0.929 . S
H1129 C1139 0.929 . S
H1130 C1134 0.929 . S
H1131 C1140 0.929 . S
C1132 H1126 0.930 . S
C1132 C1133 1.367 . S
C1132 C1140 1.378 1_554 S
C1133 C1132 1.367 . S
C1133 C1141 1.433 . S
C1134 H1130 0.929 . S
C1134 C1136 1.378 . S
C1134 C1138 1.350 . S
C1135 C1138 1.463 . S
C1135 C1140 1.350 . S
C1135 N1143 1.427 . S
C1136 H1127 0.930 . S
C1136 C1134 1.378 . S
C1136 C1137 1.367 . S
C1137 C1136 1.367 . S
C1137 C1139 1.433 . S
C1138 C1134 1.350 . S
C1138 C1135 1.463 . S
C1138 N1142 1.427 . S
C1139 H1129 0.929 . S
C1139 C1137 1.433 . S
C1139 N1142 1.384 . S
C1140 H1131 0.929 . S
C1140 C1132 1.378 1_556 S
C1140 C1135 1.350 . S
C1141 H1128 0.929 . S
C1141 C1133 1.433 . S
C1141 N1143 1.384 1_554 S
N1142 C1138 1.427 . S
N1142 C1139 1.384 . S
N1143 C1135 1.427 . S
N1143 C1141 1.384 1_556 S
H1144 C1150 0.930 . S
H1145 C1154 0.930 . S
H1146 C1159 0.929 . S
H1147 C1157 0.929 . S
H1148 C1152 0.929 . S
H1149 C1158 0.929 . S
C1150 H1144 0.930 . S
C1150 C1151 1.367 . S
C1150 C1158 1.378 . S
C1151 C1150 1.367 . S
C1151 C1159 1.433 . S
C1152 H1148 0.929 . S
C1152 C1154 1.378 . S
C1152 C1156 1.350 . S
C1153 C1156 1.463 . S
C1153 C1158 1.350 . S
C1153 N1161 1.427 . S
C1154 H1145 0.930 . S
C1154 C1152 1.378 . S
C1154 C1155 1.367 . S
C1155 C1154 1.367 . S
C1155 C1157 1.433 . S
C1156 C1152 1.350 . S
C1156 C1153 1.463 . S
C1156 N1160 1.427 . S
C1157 H1147 0.929 . S
C1157 C1155 1.433 . S
C1157 N1160 1.384 . S
C1158 H1149 0.929 . S
C1158 C1150 1.378 . S
C1158 C1153 1.350 . S
C1159 H1146 0.929 . S
C1159 C1151 1.433 . S
C1159 N1161 1.384 . S
N1160 C1156 1.427 . S
N1160 C1157 1.384 . S
N1161 C1153 1.427 . S
N1161 C1159 1.384 . S
H1162 C1168 0.930 . S
H1163 C1172 0.930 . S
H1164 C1177 0.929 . S
H1165 C1175 0.929 . S
H1166 C1170 0.929 . S
H1167 C1176 0.929 . S
C1168 H1162 0.930 . S
C1168 C1169 1.367 . S
C1168 C1176 1.378 . S
C1169 C1168 1.367 . S
C1169 C1177 1.433 . S
C1170 H1166 0.929 . S
C1170 C1172 1.378 . S
C1170 C1174 1.350 . S
C1171 C1174 1.463 . S
C1171 C1176 1.350 . S
C1171 N1179 1.427 . S
C1172 H1163 0.930 . S
C1172 C1170 1.378 . S
C1172 C1173 1.367 . S
C1173 C1172 1.367 . S
C1173 C1175 1.433 . S
C1174 C1170 1.350 . S
C1174 C1171 1.463 . S
C1174 N1178 1.427 . S
C1175 H1165 0.929 . S
C1175 C1173 1.433 . S
C1175 N1178 1.384 . S
C1176 H1167 0.929 . S
C1176 C1168 1.378 . S
C1176 C1171 1.350 . S
C1177 H1164 0.929 . S
C1177 C1169 1.433 . S
C1177 N1179 1.384 . S
N1178 C1174 1.427 . S
N1178 C1175 1.384 . S
N1179 C1171 1.427 . S
N1179 C1177 1.384 . S
H1180 C1186 0.930 . S
H1181 C1190 0.930 . S
H1182 C1195 0.929 . S
H1183 C1193 0.929 . S
H1184 C1188 0.929 . S
H1185 C1194 0.929 . S
C1186 H1180 0.930 . S
C1186 C1187 1.367 . S
C1186 C1194 1.378 . S
C1187 C1186 1.367 . S
C1187 C1195 1.433 . S
C1188 H1184 0.929 . S
C1188 C1190 1.378 . S
C1188 C1192 1.350 . S
C1189 C1192 1.463 . S
C1189 C1194 1.350 . S
C1189 N1197 1.427 . S
C1190 H1181 0.930 . S
C1190 C1188 1.378 . S
C1190 C1191 1.367 . S
C1191 C1190 1.367 . S
C1191 C1193 1.433 . S
C1192 C1188 1.350 . S
C1192 C1189 1.463 . S
C1192 N1196 1.427 . S
C1193 H1183 0.929 . S
C1193 C1191 1.433 . S
C1193 N1196 1.384 . S
C1194 H1185 0.929 . S
C1194 C1186 1.378 . S
C1194 C1189 1.350 . S
C1195 H1182 0.929 . S
C1195 C1187 1.433 . S
C1195 N1197 1.384 . S
N1196 C1192 1.427 . S
N1196 C1193 1.384 . S
N1197 C1189 1.427 . S
N1197 C1195 1.384 . S
H1198 C1204 0.930 . S
H1199 C1208 0.930 . S
H1200 C1213 0.929 . S
H1201 C1211 0.929 . S
H1202 C1206 0.929 . S
H1203 C1212 0.929 . S
C1204 H1198 0.930 . S
C1204 C1205 1.367 . S
C1204 C1212 1.378 . S
C1205 C1204 1.367 . S
C1205 C1213 1.433 . S
C1206 H1202 0.929 . S
C1206 C1208 1.378 . S
C1206 C1210 1.350 . S
C1207 C1210 1.463 . S
C1207 C1212 1.350 . S
C1207 N1215 1.427 . S
C1208 H1199 0.930 . S
C1208 C1206 1.378 . S
C1208 C1209 1.367 . S
C1209 C1208 1.367 . S
C1209 C1211 1.433 . S
C1210 C1206 1.350 . S
C1210 C1207 1.463 . S
C1210 N1214 1.427 . S
C1211 H1201 0.929 . S
C1211 C1209 1.433 . S
C1211 N1214 1.384 . S
C1212 H1203 0.929 . S
C1212 C1204 1.378 . S
C1212 C1207 1.350 . S
C1213 H1200 0.929 . S
C1213 C1205 1.433 . S
C1213 N1215 1.384 . S
N1214 C1210 1.427 . S
N1214 C1211 1.384 . S
N1215 C1207 1.427 . S
N1215 C1213 1.384 . S
C359 C10 1.372 . S
C363 C120 1.372 . S
C377 C30 1.371 . S
C381 C150 1.370 . S
C395 C172 1.370 . S
C399 C52 1.369 . S
C413 C98 1.371 . S
C417 C76 1.370 . S
C431 C194 1.361 . S
C435 C296 1.361 . S
C449 C206 1.361 . S
C453 C316 1.362 . S
C467 C238 1.367 . S
C471 C340 1.366 . S
C485 C252 1.366 . S
C489 C272 1.367 . S
C503 C7 0.836 . S
C507 C191 0.834 . S
C521 C37 0.845 . S
C525 C205 0.844 . S
C539 C235 0.828 . S
C543 C59 0.829 . S
C557 C263 0.815 . S
C561 C73 0.818 . S
C575 C95 0.820 . S
C579 C271 0.817 . S
C593 C117 0.837 . S
C597 C307 0.834 . S
C611 C315 0.832 . S
C615 C153 0.833 . S
C629 C351 0.815 . S
C633 C175 0.818 . S
C647 C18 1.580 . S
C651 C40 1.561 . S
C665 C32 1.585 . S
C669 C62 1.554 . S
C683 C74 1.565 1_655 S
C687 C54 1.578 . S
C701 C84 1.579 . S
C705 C8 1.565 1_565 S
C719 C106 1.580 . S
C723 C164 1.563 1_455 S
C737 C128 1.586 . S
C741 C96 1.553 1_545 S
C755 C140 1.585 . S
C759 C118 1.554 . S
C773 C162 1.586 . S
C777 C142 1.552 . S
C791 C186 1.575 . S
C795 C208 1.548 . S
C809 C228 1.551 . S
C813 C216 1.574 . S
C827 C260 1.557 1_455 S
C831 C230 1.570 . S
C845 C184 1.559 1_545 S
C849 C250 1.566 . S
C863 C282 1.566 . S
C867 C348 1.560 1_655 S
C881 C294 1.575 . S
C885 C274 1.548 1_565 S
C899 C304 1.548 . S
C903 C326 1.575 . S
C917 C338 1.566 . S
C921 C318 1.559 . S
C935 C15 1.556 . S
C939 C213 1.579 . S
C953 C241 1.580 . S
C957 C43 1.562 . S
C971 C65 1.562 . S
C975 C249 1.576 . S
C989 C197 1.582 . S
C993 C81 1.553 . S
C1007 C103 1.561 . S
C1011 C337 1.576 . S
C1025 C279 1.583 . S
C1029 C125 1.555 . S
C1043 C293 1.576 . S
C1047 C139 1.562 . S
C1061 C161 1.564 . S
C1065 C323 1.576 . S
C1079 C29 1.574 . S
C1083 C183 1.559 . S
C1097 C219 1.550 . S
C1101 C51 1.579 . S
C1115 C87 1.574 . S
C1119 C227 1.558 . S
C1133 C21 1.579 . S
C1137 C257 1.556 . S
C1151 C169 1.576 . S
C1155 C285 1.561 . S
C1169 C301 1.555 . S
C1173 C109 1.575 . S
C1187 C329 1.551 . S
C1191 C131 1.578 . S
C1205 C345 1.555 . S
C1209 C147 1.575 . S
