# Generated by pormake.
# Topology wme, (6)-cn, num edge types: 1
# Building blocks:
#     Node 0, Type 0, BuildingBlock: MIFKUJ_clean_sbu_0, # of connection points: 6
#     Node 1, Type 0, BuildingBlock: MIFKUJ_clean_sbu_0, # of connection points: 6
#     Node 2, Type 0, BuildingBlock: MIFKUJ_clean_sbu_0, # of connection points: 6
#     Node 3, Type 0, BuildingBlock: MIFKUJ_clean_sbu_0, # of connection points: 6
#     Node 4, Type 0, BuildingBlock: MIFKUJ_clean_sbu_0, # of connection points: 6
#     Node 5, Type 0, BuildingBlock: MIFKUJ_clean_sbu_0, # of connection points: 6
#     Node 6, Type 0, BuildingBlock: MIFKUJ_clean_sbu_0, # of connection points: 6
#     Node 7, Type 0, BuildingBlock: MIFKUJ_clean_sbu_0, # of connection points: 6
#     Node 8, Type 0, BuildingBlock: MIFKUJ_clean_sbu_0, # of connection points: 6
#     Node 9, Type 0, BuildingBlock: MIFKUJ_clean_sbu_0, # of connection points: 6
#     Node 10, Type 0, BuildingBlock: MIFKUJ_clean_sbu_0, # of connection points: 6
#     Node 11, Type 0, BuildingBlock: MIFKUJ_clean_sbu_0, # of connection points: 6
#     Edge 12, Type (0, 0), BuildingBlock: CIFDUS_clean_linker_0, # of connection points: 2
#     Edge 13, Type (0, 0), BuildingBlock: CIFDUS_clean_linker_0, # of connection points: 2
#     Edge 14, Type (0, 0), BuildingBlock: CIFDUS_clean_linker_0, # of connection points: 2
#     Edge 15, Type (0, 0), BuildingBlock: CIFDUS_clean_linker_0, # of connection points: 2
#     Edge 16, Type (0, 0), BuildingBlock: CIFDUS_clean_linker_0, # of connection points: 2
#     Edge 17, Type (0, 0), BuildingBlock: CIFDUS_clean_linker_0, # of connection points: 2
#     Edge 18, Type (0, 0), BuildingBlock: CIFDUS_clean_linker_0, # of connection points: 2
#     Edge 19, Type (0, 0), BuildingBlock: CIFDUS_clean_linker_0, # of connection points: 2
#     Edge 20, Type (0, 0), BuildingBlock: CIFDUS_clean_linker_0, # of connection points: 2
#     Edge 21, Type (0, 0), BuildingBlock: CIFDUS_clean_linker_0, # of connection points: 2
#     Edge 22, Type (0, 0), BuildingBlock: CIFDUS_clean_linker_0, # of connection points: 2
#     Edge 23, Type (0, 0), BuildingBlock: CIFDUS_clean_linker_0, # of connection points: 2
#     Edge 24, Type (0, 0), BuildingBlock: CIFDUS_clean_linker_0, # of connection points: 2
#     Edge 25, Type (0, 0), BuildingBlock: CIFDUS_clean_linker_0, # of connection points: 2
#     Edge 26, Type (0, 0), BuildingBlock: CIFDUS_clean_linker_0, # of connection points: 2
#     Edge 27, Type (0, 0), BuildingBlock: CIFDUS_clean_linker_0, # of connection points: 2
#     Edge 28, Type (0, 0), BuildingBlock: CIFDUS_clean_linker_0, # of connection points: 2
#     Edge 29, Type (0, 0), BuildingBlock: CIFDUS_clean_linker_0, # of connection points: 2
#     Edge 30, Type (0, 0), BuildingBlock: CIFDUS_clean_linker_0, # of connection points: 2
#     Edge 31, Type (0, 0), BuildingBlock: CIFDUS_clean_linker_0, # of connection points: 2
#     Edge 32, Type (0, 0), BuildingBlock: CIFDUS_clean_linker_0, # of connection points: 2
#     Edge 33, Type (0, 0), BuildingBlock: CIFDUS_clean_linker_0, # of connection points: 2
#     Edge 34, Type (0, 0), BuildingBlock: CIFDUS_clean_linker_0, # of connection points: 2
#     Edge 35, Type (0, 0), BuildingBlock: CIFDUS_clean_linker_0, # of connection points: 2
#     Edge 36, Type (0, 0), BuildingBlock: CIFDUS_clean_linker_0, # of connection points: 2
#     Edge 37, Type (0, 0), BuildingBlock: CIFDUS_clean_linker_0, # of connection points: 2
#     Edge 38, Type (0, 0), BuildingBlock: CIFDUS_clean_linker_0, # of connection points: 2
#     Edge 39, Type (0, 0), BuildingBlock: CIFDUS_clean_linker_0, # of connection points: 2
#     Edge 40, Type (0, 0), BuildingBlock: CIFDUS_clean_linker_0, # of connection points: 2
#     Edge 41, Type (0, 0), BuildingBlock: CIFDUS_clean_linker_0, # of connection points: 2
#     Edge 42, Type (0, 0), BuildingBlock: CIFDUS_clean_linker_0, # of connection points: 2
#     Edge 43, Type (0, 0), BuildingBlock: CIFDUS_clean_linker_0, # of connection points: 2
#     Edge 44, Type (0, 0), BuildingBlock: CIFDUS_clean_linker_0, # of connection points: 2
#     Edge 45, Type (0, 0), BuildingBlock: CIFDUS_clean_linker_0, # of connection points: 2
#     Edge 46, Type (0, 0), BuildingBlock: CIFDUS_clean_linker_0, # of connection points: 2
#     Edge 47, Type (0, 0), BuildingBlock: CIFDUS_clean_linker_0, # of connection points: 2
# Relax obj value: 0.080
# Max RMSD: 0.174
# Mean RMSD: 0.174
data_MOF--net-wme--node1-MIFKUJ_clean_sbu_0--edge1-CIFDUS_clean_linker_0
_symmetry_space_group_name_H-M    P1
_symmetry_Int_Tables_number       1
_symmetry_cell_setting            triclinic
loop_
_symmetry_equiv_pos_as_xyz
'x, y, z'
_cell_length_a     30.605784
_cell_length_b     30.795527
_cell_length_c     46.21953
_cell_angle_alpha  89.720095
_cell_angle_beta   90.446392
_cell_angle_gamma 119.64596
loop_
_atom_site_label
_atom_site_type_symbol
_atom_site_fract_x
_atom_site_fract_y
_atom_site_fract_z
_atom_type_partial_charge
Zn0 Zn 0.19593 0.23609 0.10262 0.0
Zn1 Zn 0.23125 0.37401 0.09156 0.0
C2 C 0.10168 0.19368 0.12678 0.0
O3 O 0.12883 0.18645 0.14635 0.0
C4 C 0.32125 0.46658 0.07482 0.0
O5 O 0.30727 0.45147 0.0481 0.0
O6 O 0.19423 0.16972 0.10479 0.0
O7 O 0.22897 0.26633 0.06525 0.0
O8 O 0.24366 0.34337 0.05659 0.0
C9 C 0.18157 0.14184 0.08253 0.0
O10 O 0.17187 0.15789 0.05825 0.0
O11 O 0.12319 0.21799 0.10398 0.0
C12 C 0.176 0.42291 0.10388 0.0
O13 O 0.20145 0.43021 0.12811 0.0
O14 O 0.17886 0.39495 0.08466 0.0
O15 O 0.2275 0.34429 0.13093 0.0
O16 O 0.22871 0.27358 0.13871 0.0
O17 O 0.29483 0.4396 0.09569 0.0
C18 C 0.24426 0.30417 0.04886 0.0
C19 C 0.22951 0.31272 0.14793 0.0
Zn20 Zn 0.96282 0.23001 0.60195 0.0
Zn21 Zn 0.85994 0.22593 0.58397 0.0
C22 C 0.91335 0.12465 0.61048 0.0
O23 O 0.93355 0.14013 0.63621 0.0
C24 C 0.87718 0.32372 0.5724 0.0
O25 O 0.86349 0.30376 0.54654 0.0
O26 O 0.02934 0.23527 0.61233 0.0
O27 O 0.97352 0.27341 0.56802 0.0
O28 O 0.89876 0.22446 0.54889 0.0
C29 C 0.05246 0.22627 0.59256 0.0
O30 O 0.03391 0.21772 0.56615 0.0
O31 O 0.91897 0.15696 0.5914 0.0
C32 C 0.75935 0.19374 0.59589 0.0
O33 O 0.78133 0.2086 0.62126 0.0
O34 O 0.78599 0.19647 0.57419 0.0
O35 O 0.86088 0.19142 0.62119 0.0
O36 O 0.93609 0.24684 0.6365 0.0
O37 O 0.88146 0.29793 0.59267 0.0
C38 C 0.94548 0.25524 0.54596 0.0
C39 C 0.89056 0.21565 0.64181 0.0
Zn40 Zn 0.72985 0.93901 0.1008 0.0
Zn41 Zn 0.62552 0.84267 0.07762 0.0
C42 C 0.77739 0.88067 0.11275 0.0
O43 O 0.78009 0.89992 0.13846 0.0
C44 C 0.53758 0.85137 0.06875 0.0
O45 O 0.54117 0.83565 0.04296 0.0
O46 O 0.7918 1.00048 0.1152 0.0
O47 O 0.70877 0.95893 0.065 0.0
O48 O 0.66674 0.8854 0.04367 0.0
C49 C 0.80614 0.04429 0.10569 0.0
O50 O 0.77682 0.05173 0.08791 0.0
O51 O 0.75533 0.89048 0.09235 0.0
C52 C 0.55525 0.74243 0.0834 0.0
O53 O 0.55656 0.7606 0.10927 0.0
O54 O 0.58454 0.77154 0.06406 0.0
O55 O 0.65714 0.83806 0.11556 0.0
O56 O 0.67842 0.91281 0.13162 0.0
O57 O 0.57204 0.86072 0.08733 0.0
C58 C 0.69164 0.93289 0.0423 0.0
C59 C 0.6627 0.86698 0.13651 0.0
Zn60 Zn 0.81245 0.73865 0.60075 0.0
Zn61 Zn 0.79593 0.62343 0.57832 0.0
C62 C 0.9153 0.78249 0.61567 0.0
O63 O 0.895 0.78102 0.64086 0.0
C64 C 0.69799 0.54462 0.56426 0.0
O65 O 0.71722 0.55911 0.53834 0.0
O66 O 0.81242 0.80119 0.61403 0.0
O67 O 0.77324 0.71838 0.56425 0.0
O68 O 0.79342 0.66511 0.54461 0.0
C69 C 0.82188 0.8346 0.59494 0.0
O70 O 0.82793 0.82538 0.56799 0.0
O71 O 0.88653 0.76336 0.59381 0.0
C72 C 0.8357 0.55823 0.58415 0.0
O73 O 0.82425 0.56151 0.61109 0.0
O74 O 0.82853 0.58371 0.56482 0.0
O75 O 0.83115 0.65523 0.61624 0.0
O76 O 0.7859 0.6875 0.63218 0.0
O77 O 0.72419 0.56871 0.58615 0.0
C78 C 0.77614 0.6951 0.54247 0.0
C79 C 0.81248 0.66717 0.63714 0.0
Zn80 Zn 0.04957 0.75966 0.11477 0.0
Zn81 Zn 0.1496 0.75347 0.09267 0.0
C82 C 0.10268 0.86206 0.12425 0.0
O83 O 0.08416 0.84353 0.14981 0.0
C84 C 0.12555 0.65065 0.08585 0.0
O85 O 0.12794 0.66221 0.05829 0.0
O86 O 0.98593 0.7597 0.12698 0.0
O87 O 0.03097 0.71328 0.08134 0.0
O88 O 0.10455 0.75167 0.05961 0.0
C89 C 0.96305 0.76903 0.10686 0.0
O90 O 0.97943 0.77333 0.08022 0.0
O91 O 0.09446 0.83206 0.10338 0.0
C92 C 0.25664 0.79395 0.09486 0.0
O93 O 0.24718 0.78931 0.12273 0.0
O94 O 0.22043 0.7819 0.07709 0.0
O95 O 0.1561 0.79277 0.12896 0.0
O96 O 0.08173 0.74443 0.14824 0.0
O97 O 0.13075 0.683 0.10463 0.0
C98 C 0.05679 0.72591 0.05839 0.0
C99 C 0.12863 0.77414 0.15114 0.0
Zn100 Zn 0.29047 0.06634 0.6002 0.0
Zn101 Zn 0.40975 0.17274 0.58781 0.0
C102 C 0.24789 0.12878 0.60735 0.0
O103 O 0.24439 0.11144 0.63376 0.0
C104 C 0.49102 0.16468 0.56288 0.0
O105 O 0.47681 0.17925 0.53962 0.0
O106 O 0.22571 0.99992 0.60144 0.0
O107 O 0.33708 0.06214 0.57231 0.0
O108 O 0.3646 0.1365 0.55315 0.0
C109 C 0.19771 0.98518 0.57902 0.0
O110 O 0.21309 0.01229 0.55534 0.0
O111 O 0.26931 0.11647 0.58815 0.0
C112 C 0.47456 0.27311 0.60401 0.0
O113 O 0.47455 0.24865 0.62739 0.0
O114 O 0.44647 0.24845 0.5828 0.0
O115 O 0.38418 0.15737 0.62937 0.0
O116 O 0.31935 0.08256 0.63939 0.0
O117 O 0.4664 0.15734 0.58615 0.0
C118 C 0.3461 0.08954 0.55017 0.0
C119 C 0.35483 0.12472 0.64741 0.0
Zn120 Zn 0.73407 0.81102 0.34565 0.0
Zn121 Zn 0.63587 0.81437 0.36302 0.0
C122 C 0.79282 0.9161 0.33768 0.0
O123 O 0.79565 0.90026 0.31179 0.0
C124 C 0.56206 0.71334 0.37304 0.0
O125 O 0.5666 0.73182 0.39916 0.0
O126 O 0.7937 0.8031 0.33532 0.0
O127 O 0.70079 0.76721 0.37939 0.0
O128 O 0.67677 0.81723 0.39866 0.0
C129 C 0.82483 0.80882 0.35536 0.0
O130 O 0.81489 0.81594 0.38197 0.0
O131 O 0.76589 0.88415 0.35671 0.0
C132 C 0.55932 0.83616 0.35055 0.0
O133 O 0.56714 0.82115 0.32554 0.0
O134 O 0.58629 0.83806 0.37219 0.0
O135 O 0.67083 0.85195 0.32663 0.0
O136 O 0.69071 0.79696 0.31075 0.0
O137 O 0.59048 0.74163 0.35311 0.0
C138 C 0.69176 0.7855 0.40156 0.0
C139 C 0.67659 0.82864 0.30575 0.0
Zn140 Zn 0.96163 0.75217 0.84175 0.0
Zn141 Zn 0.8621 0.64981 0.86321 0.0
C142 C 0.90724 0.80348 0.8366 0.0
O143 O 0.92366 0.80643 0.81008 0.0
C144 C 0.88328 0.5712 0.8726 0.0
O145 O 0.87404 0.57928 0.89916 0.0
O146 O 0.02513 0.81456 0.82913 0.0
O147 O 0.98021 0.72201 0.87419 0.0
O148 O 0.90732 0.69085 0.89656 0.0
C149 C 0.05158 0.84585 0.84864 0.0
O150 O 0.03841 0.8347 0.87584 0.0
O151 O 0.917 0.77905 0.85537 0.0
C152 C 0.75744 0.57947 0.85956 0.0
O153 O 0.76951 0.58489 0.83205 0.0
O154 O 0.79118 0.60568 0.87814 0.0
O155 O 0.85513 0.6824 0.82647 0.0
O156 O 0.92986 0.70726 0.80787 0.0
O157 O 0.88299 0.59929 0.85239 0.0
C158 C 0.95468 0.70787 0.89724 0.0
C159 C 0.88296 0.69011 0.80458 0.0
Zn160 Zn 0.21749 0.92755 0.35266 0.0
Zn161 Zn 0.21654 0.82823 0.3762 0.0
C162 C 0.11213 0.88049 0.34422 0.0
O163 O 0.12815 0.89678 0.31795 0.0
C164 C 0.316 0.85409 0.39067 0.0
O165 O 0.2946 0.84437 0.41621 0.0
O166 O 0.22446 0.99322 0.33906 0.0
O167 O 0.26138 0.94206 0.38747 0.0
O168 O 0.21268 0.86983 0.4088 0.0
C169 C 0.21903 0.02016 0.3579 0.0
O170 O 0.21267 1.00566 0.38507 0.0
O171 O 0.14424 0.88748 0.36392 0.0
C172 C 0.19012 0.72751 0.37024 0.0
O173 O 0.20247 0.74444 0.34369 0.0
O174 O 0.19145 0.75716 0.38978 0.0
O175 O 0.17865 0.82122 0.33897 0.0
O176 O 0.23037 0.89398 0.31948 0.0
O177 O 0.29009 0.85241 0.36856 0.0
C178 C 0.24371 0.91648 0.41034 0.0
C179 C 0.19849 0.84793 0.3167 0.0
Zn180 Zn 0.31534 0.23944 0.84727 0.0
Zn181 Zn 0.41159 0.2333 0.86466 0.0
C182 C 0.25812 0.13431 0.83624 0.0
O183 O 0.25412 0.1516 0.81089 0.0
C184 C 0.49158 0.33277 0.87722 0.0
O185 O 0.48886 0.31237 0.90265 0.0
O186 O 0.25448 0.24562 0.83672 0.0
O187 O 0.34548 0.27932 0.88296 0.0
O188 O 0.36716 0.22521 0.89877 0.0
C189 C 0.22226 0.23659 0.85643 0.0
O190 O 0.2321 0.22791 0.88288 0.0
O191 O 0.28505 0.16524 0.85578 0.0
C192 C 0.48401 0.20153 0.85757 0.0
O193 O 0.48024 0.21294 0.83058 0.0
O194 O 0.45648 0.20563 0.8766 0.0
O195 O 0.38047 0.20154 0.8262 0.0
O196 O 0.36111 0.25881 0.8133 0.0
O197 O 0.46013 0.30672 0.85761 0.0
C198 C 0.35205 0.25616 0.90377 0.0
C199 C 0.37492 0.22757 0.80662 0.0
Zn200 Zn 0.09842 0.29182 0.3474 0.0
Zn201 Zn 0.19979 0.38618 0.36723 0.0
C202 C 0.14676 0.23399 0.33911 0.0
O203 O 0.12787 0.23105 0.31309 0.0
C204 C 0.17635 0.46292 0.37898 0.0
O205 O 0.18902 0.45587 0.40509 0.0
O206 O 0.03228 0.23273 0.33487 0.0
O207 O 0.08539 0.32115 0.38187 0.0
O208 O 0.15953 0.34409 0.40147 0.0
C209 C 1.00634 0.20067 0.35408 0.0
O210 O 0.02195 0.20922 0.3811 0.0
O211 O 0.14106 0.26053 0.35811 0.0
C212 C 0.302 0.45944 0.36037 0.0
O213 O 0.28554 0.45477 0.33359 0.0
O214 O 0.27185 0.43148 0.37982 0.0
O215 O 0.20281 0.35427 0.32949 0.0
O216 O 0.12824 0.33916 0.31454 0.0
O217 O 0.1756 0.43512 0.35847 0.0
C218 C 0.11297 0.32991 0.4041 0.0
C219 C 0.17349 0.35174 0.30915 0.0
Zn220 Zn 0.82512 0.10066 0.84935 0.0
Zn221 Zn 0.83102 0.20066 0.869 0.0
C222 C 0.93083 0.14852 0.84266 0.0
O223 O 0.91547 0.13087 0.81647 0.0
C224 C 0.73007 0.17844 0.87684 0.0
O225 O 0.74652 0.18919 0.90364 0.0
O226 O 0.81871 0.03525 0.8367 0.0
O227 O 0.77923 0.08642 0.88218 0.0
O228 O 0.82912 0.15814 0.90351 0.0
C229 C 0.82394 1.00838 0.85589 0.0
O230 O 0.82967 0.02272 0.88305 0.0
O231 O 0.89819 0.14172 0.8617 0.0
C232 C 0.85986 0.3024 0.86221 0.0
O233 O 0.84801 0.28601 0.83551 0.0
O234 O 0.85718 0.2721 0.88189 0.0
O235 O 0.86879 0.20511 0.83223 0.0
O236 O 0.81106 0.13215 0.8158 0.0
O237 O 0.75942 0.17838 0.85755 0.0
C238 C 0.79614 0.112 0.90506 0.0
C239 C 0.84457 0.17698 0.8111 0.0
H240 H 0.11534 0.91291 0.07366 0.0
H241 H 0.1459 0.93375 0.16536 0.0
H242 H 0.177 0.02312 0.16017 0.0
H243 H 0.18838 0.09397 0.13051 0.0
H244 H 0.15513 0.07331 0.03904 0.0
H245 H 0.13264 0.98562 0.0432 0.0
C246 C 0.12964 0.93721 0.09238 0.0
C247 C 0.12796 0.91671 0.11987 0.0
C248 C 0.14653 0.98859 0.08936 0.0
C249 C 0.14634 0.94857 0.14399 0.0
C250 C 0.1641 0.9997 0.14106 0.0
C251 C 0.17676 0.07049 0.1114 0.0
C252 C 0.17303 0.09016 0.08457 0.0
C253 C 0.16318 0.01991 0.114 0.0
C254 C 0.15802 0.05912 0.06003 0.0
C255 C 0.1451 0.00888 0.06237 0.0
H256 H 0.2068 0.16713 0.6439 0.0
H257 H 0.22742 0.15067 0.55314 0.0
H258 H 0.17193 0.18393 0.54049 0.0
H259 H 0.1111 0.20964 0.55535 0.0
H260 H 0.08983 0.2248 0.64623 0.0
H261 H 0.15242 0.2005 0.65862 0.0
C262 C 0.19966 0.17134 0.62132 0.0
C263 C 0.22074 0.15584 0.59951 0.0
C264 C 0.16731 0.18994 0.61422 0.0
C265 C 0.21157 0.16215 0.57037 0.0
C266 C 0.17963 0.18095 0.56312 0.0
C267 C 0.12055 0.20821 0.57787 0.0
C268 C 0.09529 0.21844 0.59983 0.0
C269 C 0.15627 0.19372 0.58488 0.0
C270 C 0.10845 0.2169 0.62888 0.0
C271 C 0.14415 0.20283 0.63601 0.0
H272 H 0.87154 0.04694 0.14645 0.0
H273 H 0.85966 0.12957 0.07404 0.0
H274 H 0.95042 0.18609 0.07543 0.0
H275 H 0.03418 0.20621 0.09388 0.0
H276 H 0.04497 0.12348 0.16668 0.0
H277 H 0.95381 0.0732 0.16849 0.0
C278 C 0.88871 0.07779 0.13125 0.0
C279 C 0.85902 0.08364 0.10997 0.0
C280 C 0.94088 0.10988 0.13201 0.0
C281 C 0.88168 0.12416 0.09065 0.0
C282 C 0.93367 0.15633 0.09128 0.0
C283 C 1.01652 0.17756 0.11033 0.0
C284 C 0.04641 0.16816 0.1298 0.0
C285 C 0.96382 0.14862 0.11133 0.0
C286 C 0.02296 0.13136 0.15126 0.0
C287 C 0.97073 0.10242 0.15232 0.0
H288 H 0.83152 0.90876 0.55894 0.0
H289 H 0.83446 0.87414 0.6493 0.0
H290 H 0.85991 0.96036 0.66218 0.0
H291 H 0.88739 0.04687 0.64747 0.0
H292 H 0.88443 0.08138 0.55708 0.0
H293 H 0.85253 0.99376 0.54458 0.0
C294 C 0.8373 0.91992 0.58149 0.0
C295 C 0.83154 0.88511 0.6031 0.0
C296 C 0.85216 0.9696 0.58873 0.0
C297 C 0.83867 0.90013 0.63222 0.0
C298 C 0.85343 0.94951 0.6396 0.0
C299 C 0.87939 0.0352 0.62504 0.0
C300 C 0.88881 0.0708 0.60322 0.0
C301 C 0.86124 0.98477 0.61799 0.0
C302 C 0.87768 0.05486 0.57431 0.0
C303 C 0.85958 1.00475 0.56713 0.0
H304 H 0.9034 0.78291 0.06842 0.0
H305 H 0.93351 0.78432 0.1599 0.0
H306 H 0.87575 0.8157 0.16989 0.0
H307 H 0.82217 0.84919 0.1523 0.0
H308 H 0.79278 0.84836 0.06074 0.0
H309 H 0.84451 0.80994 0.0512 0.0
C310 C 0.89699 0.78958 0.0906 0.0
C311 C 0.92319 0.78166 0.11336 0.0
C312 C 0.86408 0.80805 0.09616 0.0
C313 C 0.91397 0.7901 0.14196 0.0
C314 C 0.88108 0.80828 0.14767 0.0
C315 C 0.82669 0.84024 0.13026 0.0
C316 C 0.80401 0.85224 0.10724 0.0
C317 C 0.85679 0.81842 0.12489 0.0
C318 C 0.80991 0.83981 0.07886 0.0
C319 C 0.83963 0.81794 0.07337 0.0
H320 H 0.96924 0.82047 0.56612 0.0
H321 H 0.98568 0.81204 0.65847 0.0
H322 H 0.0756 0.87081 0.65498 0.0
H323 H 0.14806 0.93053 0.62648 0.0
H324 H 0.13128 0.94153 0.53436 0.0
H325 H 0.04345 0.87579 0.537 0.0
C326 C 0.99267 0.83082 0.5854 0.0
C327 C 0.97066 0.81213 0.61253 0.0
C328 C 0.04434 0.86558 0.58335 0.0
C329 C 1.00155 0.82616 0.63733 0.0
C330 C 0.05303 0.85987 0.63538 0.0
C331 C 0.12542 0.91814 0.6069 0.0
C332 C 0.14624 0.94136 0.58032 0.0
C333 C 0.07461 0.8808 0.60862 0.0
C334 C 0.11622 0.92468 0.55518 0.0
C335 C 0.06588 0.88704 0.55665 0.0
H336 H 0.03472 0.8539 0.30641 0.0
H337 H 0.06838 0.86005 0.39766 0.0
H338 H 0.98113 0.83466 0.40909 0.0
H339 H 0.89718 0.81734 0.39322 0.0
H340 H 0.86399 0.81195 0.30191 0.0
H341 H 0.9491 0.83002 0.2905 0.0
C342 C 0.02292 0.84927 0.32881 0.0
C343 C 0.0582 0.8594 0.35115 0.0
C344 C 0.97282 0.83502 0.33523 0.0
C345 C 0.04208 0.85267 0.38004 0.0
C346 C 0.99221 0.83831 0.3866 0.0
C347 C 0.90836 0.81962 0.37081 0.0
C348 C 0.87431 0.81376 0.34847 0.0
C349 C 0.95753 0.83041 0.36438 0.0
C350 C 0.88938 0.81642 0.31956 0.0
C351 C 0.93815 0.82693 0.313 0.0
H352 H 0.11889 0.91704 0.8851 0.0
H353 H 0.07765 0.88831 0.79483 0.0
H354 H 0.14037 0.97424 0.78285 0.0
H355 H 0.20266 0.05905 0.79842 0.0
H356 H 0.24368 0.0878 0.88873 0.0
H357 H 0.18562 1.00025 0.90018 0.0
C358 C 0.12386 0.92939 0.86276 0.0
C359 C 0.09322 0.89626 0.84094 0.0
C360 C 0.15985 0.97896 0.85602 0.0
C361 C 0.10058 0.91291 0.81208 0.0
C362 C 0.13637 0.96216 0.80521 0.0
C363 C 0.19927 0.04613 0.82059 0.0
C364 C 0.22723 0.08017 0.84271 0.0
C365 C 0.16556 0.99575 0.82707 0.0
C366 C 0.22261 0.06255 0.87127 0.0
C367 C 0.18925 0.01247 0.87787 0.0
H368 H 0.16965 0.17883 0.30292 0.0
H369 H 0.17316 0.21722 0.39295 0.0
H370 H 0.19964 0.15692 0.40644 0.0
H371 H 0.21488 0.08848 0.39308 0.0
H372 H 0.21079 0.04959 0.3031 0.0
H373 H 0.19189 0.11521 0.28922 0.0
C374 C 0.17665 0.17438 0.32548 0.0
C375 C 0.16884 0.20214 0.34691 0.0
C376 C 0.19152 0.13934 0.33313 0.0
C377 C 0.17867 0.19626 0.376 0.0
C378 C 0.19365 0.16162 0.38376 0.0
C379 C 0.21033 0.09463 0.37039 0.0
C380 C 0.21374 0.06375 0.3492 0.0
C381 C 0.19911 0.13219 0.36257 0.0
C382 C 0.20825 0.07265 0.31989 0.0
C383 C 0.19724 0.11008 0.31193 0.0
H384 H 0.14794 0.22248 0.8937 0.0
H385 H 0.18267 0.23314 0.80269 0.0
H386 H 0.09612 0.21011 0.79053 0.0
H387 H 1.00916 0.18036 0.80564 0.0
H388 H 0.97406 0.16942 0.89656 0.0
H389 H 0.06231 0.19956 0.90882 0.0
C390 C 0.13675 0.22029 0.87119 0.0
C391 C 0.17171 0.22906 0.84915 0.0
C392 C 0.08677 0.20667 0.86433 0.0
C393 C 0.15661 0.22649 0.82011 0.0
C394 C 0.10702 0.21311 0.81312 0.0
C395 C 0.02084 0.18492 0.82815 0.0
C396 C 0.98494 0.17207 0.85015 0.0
C397 C 0.07155 0.20206 0.83503 0.0
C398 C 1.00086 0.17887 0.8792 0.0
C399 C 0.05131 0.19595 0.88623 0.0
H400 H 0.93962 0.12855 0.39006 0.0
H401 H 0.97528 0.16267 0.29968 0.0
H402 H 0.90968 0.07851 0.28658 0.0
H403 H 0.84687 0.99337 0.301 0.0
H404 H 0.81132 0.95903 0.39136 0.0
H405 H 0.8719 0.04529 0.40418 0.0
C406 C 0.93276 0.11777 0.36746 0.0
C407 C 0.96272 0.1518 0.34592 0.0
C408 C 0.89515 0.06918 0.36007 0.0
C409 C 0.95293 0.13729 0.31673 0.0
C410 C 0.9155 0.08906 0.30921 0.0
C411 C 0.852 1.00481 0.32349 0.0
C412 C 0.82493 0.96958 0.3452 0.0
C413 C 0.88711 0.0544 0.33073 0.0
C414 C 0.83171 0.98526 0.3742 0.0
C415 C 0.86651 0.03458 0.38158 0.0
H416 H 0.87616 0.85315 0.80091 0.0
H417 H 0.88481 0.82082 0.89108 0.0
H418 H 0.8555 0.87857 0.90491 0.0
H419 H 0.83485 0.94372 0.89151 0.0
H420 H 0.8276 0.97672 0.80127 0.0
H421 H 0.84854 0.91287 0.7874 0.0
C422 C 0.87118 0.85832 0.8236 0.0
C423 C 0.88326 0.83314 0.84493 0.0
C424 C 0.85485 0.89193 0.8314 0.0
C425 C 0.876 0.83986 0.87421 0.0
C426 C 0.85942 0.87304 0.88215 0.0
C427 C 0.83731 0.93661 0.86879 0.0
C428 C 0.83021 0.96542 0.84748 0.0
C429 C 0.84988 0.90014 0.86095 0.0
C430 C 0.8331 0.95533 0.81814 0.0
C431 C 0.84523 0.91889 0.81017 0.0
H432 H 0.11366 0.5736 0.05159 0.0
H433 H 0.13677 0.62296 0.14049 0.0
H434 H 0.14877 0.55305 0.15441 0.0
H435 H 0.16192 0.48357 0.14055 0.0
H436 H 0.14007 0.43463 0.05163 0.0
H437 H 0.11756 0.49812 0.03869 0.0
C438 C 0.12063 0.56872 0.07409 0.0
C439 C 0.12498 0.60401 0.09486 0.0
C440 C 0.128 0.52859 0.08196 0.0
C441 C 0.13351 0.59667 0.12397 0.0
C442 C 0.14056 0.55672 0.13197 0.0
C443 C 0.1515 0.48622 0.1184 0.0
C444 C 0.15336 0.45472 0.09704 0.0
C445 C 0.13929 0.52329 0.11102 0.0
C446 C 0.13918 0.45843 0.06852 0.0
C447 C 0.12656 0.49497 0.06105 0.0
H448 H 0.70756 0.19116 0.54686 0.0
H449 H 0.69028 0.16186 0.63868 0.0
H450 H 0.60399 0.14566 0.63602 0.0
H451 H 0.53607 0.14697 0.6087 0.0
H452 H 0.55343 0.17958 0.51724 0.0
H453 H 0.6366 0.18678 0.51864 0.0
C454 C 0.68458 0.18046 0.56615 0.0
C455 C 0.70542 0.17808 0.59294 0.0
C456 C 0.63507 0.17215 0.56461 0.0
C457 C 0.6753 0.16442 0.61782 0.0
C458 C 0.62591 0.15514 0.61635 0.0
C459 C 0.55771 0.15506 0.58897 0.0
C460 C 0.53864 0.16312 0.56298 0.0
C461 C 0.60581 0.16005 0.59002 0.0
C462 C 0.56727 0.17346 0.53761 0.0
C463 C 0.61493 0.17769 0.53839 0.0
H464 H 0.49568 0.67129 0.12145 0.0
H465 H 0.52887 0.69662 0.03034 0.0
H466 H 0.46017 0.61241 0.01957 0.0
H467 H 0.38785 0.53326 0.03607 0.0
H468 H 0.35564 0.50976 0.12747 0.0
H469 H 0.42689 0.59173 0.13801 0.0
C470 C 0.48816 0.6584 0.09921 0.0
C471 C 0.51709 0.69028 0.07672 0.0
C472 C 0.44857 0.61035 0.09321 0.0
C473 C 0.5071 0.67278 0.04806 0.0
C474 C 0.46771 0.62472 0.04189 0.0
C475 C 0.39656 0.546 0.05829 0.0
C476 C 0.36616 0.51548 0.0809 0.0
C477 C 0.43772 0.59344 0.06428 0.0
C478 C 0.37819 0.53246 0.1096 0.0
C479 C 0.41897 0.57939 0.11569 0.0
H480 H 0.86429 0.5077 0.62079 0.0
H481 H 0.84149 0.52513 0.53015 0.0
H482 H 0.8568 0.45652 0.51827 0.0
H483 H 0.86917 0.38696 0.53413 0.0
H484 H 0.89092 0.36929 0.62494 0.0
H485 H 0.884 0.443 0.63617 0.0
C486 C 0.86312 0.49685 0.59838 0.0
C487 C 0.85119 0.52118 0.57643 0.0
C488 C 0.87155 0.45717 0.59175 0.0
C489 C 0.85044 0.50699 0.54749 0.0
C490 C 0.85901 0.46761 0.54069 0.0
C491 C 0.873 0.39953 0.55635 0.0
C492 C 0.88001 0.37222 0.57868 0.0
C493 C 0.86847 0.44172 0.56272 0.0
C494 C 0.8853 0.38938 0.60732 0.0
C495 C 0.88116 0.43147 0.61379 0.0
H496 H 0.45673 0.83105 0.03462 0.0
H497 H 0.51212 0.86889 0.12231 0.0
H498 H 0.43083 0.85711 0.1377 0.0
H499 H 0.34234 0.83021 0.12702 0.0
H500 H 0.28661 0.79181 0.03945 0.0
H501 H 0.3698 0.80992 0.0233 0.0
C502 C 0.45127 0.83729 0.05705 0.0
C503 C 0.49051 0.85052 0.0773 0.0
C504 C 0.40421 0.82999 0.06584 0.0
C505 C 0.48269 0.85865 0.10624 0.0
C506 C 0.43608 0.85171 0.11511 0.0
C507 C 0.3484 0.82611 0.10435 0.0
C508 C 0.30806 0.80922 0.08454 0.0
C509 C 0.3963 0.83642 0.09522 0.0
C510 C 0.31685 0.80461 0.0552 0.0
C511 C 0.36443 0.81486 0.04594 0.0
H512 H 0.65524 0.4937 0.61415 0.0
H513 H 0.63199 0.4886 0.52173 0.0
H514 H 0.55795 0.40595 0.52599 0.0
H515 H 0.50391 0.33174 0.55541 0.0
H516 H 0.52885 0.33627 0.64765 0.0
H517 H 0.59736 0.42218 0.64397 0.0
C518 C 0.63359 0.47485 0.59498 0.0
C519 C 0.64955 0.49733 0.56765 0.0
C520 C 0.59131 0.42682 0.59749 0.0
C521 C 0.62091 0.47217 0.54306 0.0
C522 C 0.57849 0.42476 0.54544 0.0
C523 C 0.5238 0.35178 0.57476 0.0
C524 C 0.51138 0.32731 0.60172 0.0
C525 C 0.56394 0.40119 0.57247 0.0
C526 C 0.53777 0.35393 0.62655 0.0
C527 C 0.5771 0.40316 0.6245 0.0
H528 H 0.36444 0.85625 0.34095 0.0
H529 H 0.38164 0.86426 0.43386 0.0
H530 H 0.46045 0.86308 0.42974 0.0
H531 H 0.5212 0.85286 0.39998 0.0
H532 H 0.50247 0.84292 0.30713 0.0
H533 H 0.42813 0.85203 0.31108 0.0
C534 C 0.38576 0.85845 0.36028 0.0
C535 C 0.36685 0.85995 0.38765 0.0
C536 C 0.43077 0.85697 0.35782 0.0
C537 C 0.39506 0.86275 0.41248 0.0
C538 C 0.44018 0.86197 0.41018 0.0
C539 C 0.50118 0.85327 0.38061 0.0
C540 C 0.51724 0.84673 0.35335 0.0
C541 C 0.45787 0.85798 0.38299 0.0
C542 C 0.4908 0.84741 0.32845 0.0
C543 C 0.44818 0.85264 0.33064 0.0
H544 H 0.67574 0.52552 0.82531 0.0
H545 H 0.72589 0.54268 0.91417 0.0
H546 H 0.64616 0.46988 0.92789 0.0
H547 H 0.56513 0.39738 0.91389 0.0
H548 H 0.51565 0.38037 0.82484 0.0
H549 H 0.59199 0.45732 0.81208 0.0
C550 C 0.66911 0.51368 0.84775 0.0
C551 C 0.70702 0.53931 0.86862 0.0
C552 C 0.62334 0.47161 0.85544 0.0
C553 C 0.69748 0.52367 0.89764 0.0
C554 C 0.65193 0.48188 0.90548 0.0
C555 C 0.57073 0.41075 0.89173 0.0
C556 C 0.5348 0.38271 0.87032 0.0
C557 C 0.61502 0.45495 0.88446 0.0
C558 C 0.54264 0.40094 0.84177 0.0
C559 C 0.58643 0.44493 0.83441 0.0
H560 H 0.1725 0.6535 0.33247 0.0
H561 H 0.18515 0.68664 0.42378 0.0
H562 H 0.17801 0.60554 0.43466 0.0
H563 H 0.17508 0.52838 0.41792 0.0
H564 H 0.16322 0.49616 0.32645 0.0
H565 H 0.16272 0.57366 0.31602 0.0
C566 C 0.17328 0.64288 0.3548 0.0
C567 C 0.17988 0.67634 0.37727 0.0
C568 C 0.16952 0.59645 0.36086 0.0
C569 C 0.18021 0.66167 0.40607 0.0
C570 C 0.17632 0.61537 0.4123 0.0
C571 C 0.17185 0.53801 0.39571 0.0
C572 C 0.16971 0.50665 0.37299 0.0
C573 C 0.17201 0.58292 0.38982 0.0
C574 C 0.16512 0.51959 0.34436 0.0
C575 C 0.16499 0.56404 0.33836 0.0
H576 H 0.65925 0.17671 0.91271 0.0
H577 H 0.69073 0.16976 0.82247 0.0
H578 H 0.61507 0.17264 0.80867 0.0
H579 H 0.54405 0.18421 0.82204 0.0
H580 H 0.51305 0.19204 0.91225 0.0
H581 H 0.58427 0.18136 0.92619 0.0
C582 C 0.64932 0.17527 0.89002 0.0
C583 C 0.68096 0.17356 0.86867 0.0
C584 C 0.60601 0.17743 0.8822 0.0
C585 C 0.66722 0.17129 0.83938 0.0
C586 C 0.62402 0.17312 0.83144 0.0
C587 C 0.55256 0.18313 0.84476 0.0
C588 C 0.52354 0.18945 0.86604 0.0
C589 C 0.59378 0.17733 0.85264 0.0
C590 C 0.53483 0.18745 0.8954 0.0
C591 C 0.57567 0.18149 0.9034 0.0
H592 H 0.3767 0.51873 0.32346 0.0
H593 H 0.34139 0.49321 0.41436 0.0
H594 H 0.42109 0.56763 0.42639 0.0
H595 H 0.49721 0.64368 0.41085 0.0
H596 H 0.53189 0.66946 0.31987 0.0
H597 H 0.45621 0.59088 0.30819 0.0
C598 C 0.3866 0.52911 0.34594 0.0
C599 C 0.35283 0.50067 0.36795 0.0
C600 C 0.43229 0.57214 0.35269 0.0
C601 C 0.36657 0.51444 0.39697 0.0
C602 C 0.41209 0.55713 0.40387 0.0
C603 C 0.48855 0.6319 0.38847 0.0
C604 C 0.51997 0.66276 0.36626 0.0
C605 C 0.4447 0.58685 0.38187 0.0
C606 C 0.50835 0.6466 0.33741 0.0
C607 C 0.46494 0.60171 0.33069 0.0
H608 H 0.88482 0.50452 0.91086 0.0
H609 H 0.8902 0.5364 0.81946 0.0
H610 H 0.8868 0.45734 0.80841 0.0
H611 H 0.87591 0.3766 0.82449 0.0
H612 H 0.8695 0.34399 0.9158 0.0
H613 H 0.88006 0.42615 0.92706 0.0
C614 C 0.88576 0.49447 0.88851 0.0
C615 C 0.88732 0.52624 0.86602 0.0
C616 C 0.88331 0.44868 0.88228 0.0
C617 C 0.88886 0.51268 0.83721 0.0
C618 C 0.88674 0.46735 0.83085 0.0
C619 C 0.87721 0.38754 0.84688 0.0
C620 C 0.87144 0.35393 0.86926 0.0
C621 C 0.88293 0.43465 0.85319 0.0
C622 C 0.87372 0.36901 0.89814 0.0
C623 C 0.87961 0.41596 0.9046 0.0
H624 H 0.22443 0.31111 0.28419 0.0
H625 H 0.15551 0.40143 0.26685 0.0
H626 H 0.17259 0.40207 0.21522 0.0
H627 H 0.19968 0.37059 0.17507 0.0
H628 H 0.2605 0.27267 0.19119 0.0
H629 H 0.25412 0.28121 0.24342 0.0
C630 C 0.21407 0.33156 0.26903 0.0
C631 C 0.18906 0.35639 0.27895 0.0
C632 C 0.22205 0.32989 0.23932 0.0
C633 C 0.17479 0.3821 0.25939 0.0
C634 C 0.18445 0.38238 0.22999 0.0
C635 C 0.21237 0.35177 0.18997 0.0
C636 C 0.23066 0.32119 0.17934 0.0
C637 C 0.20698 0.35546 0.21969 0.0
C638 C 0.24618 0.29636 0.19892 0.0
C639 C 0.24252 0.30121 0.22872 0.0
H640 H 0.94015 0.26648 0.69007 0.0
H641 H 0.80234 0.13824 0.6611 0.0
H642 H 0.7753 0.11637 0.71108 0.0
H643 H 0.79206 0.13174 0.76277 0.0
H644 H 0.92924 0.26004 0.79219 0.0
H645 H 0.95514 0.28411 0.74205 0.0
C646 C 0.90418 0.23378 0.6947 0.0
C647 C 0.87352 0.20378 0.67197 0.0
C648 C 0.88877 0.22147 0.72346 0.0
C649 C 0.82674 0.16187 0.67824 0.0
C650 C 0.81124 0.14929 0.70679 0.0
C651 C 0.8276 0.16506 0.75824 0.0
C652 C 0.85893 0.19382 0.78108 0.0
C653 C 0.84218 0.17854 0.72953 0.0
C654 C 0.90452 0.23725 0.77492 0.0
C655 C 0.9194 0.25093 0.7463 0.0
H656 H 0.66007 0.91438 0.18495 0.0
H657 H 0.6606 0.78182 0.15549 0.0
H658 H 0.66399 0.75775 0.20554 0.0
H659 H 0.6705 0.77639 0.25743 0.0
H660 H 0.6687 0.90843 0.28674 0.0
H661 H 0.66206 0.93069 0.2368 0.0
C662 C 0.66074 0.88012 0.18948 0.0
C663 C 0.66055 0.85016 0.16661 0.0
C664 C 0.66269 0.86657 0.2182 0.0
C665 C 0.66075 0.80554 0.17277 0.0
C666 C 0.66289 0.79185 0.20135 0.0
C667 C 0.66863 0.81003 0.25289 0.0
C668 C 0.67062 0.84099 0.27568 0.0
C669 C 0.66453 0.82244 0.22419 0.0
C670 C 0.66743 0.88407 0.26953 0.0
C671 C 0.66368 0.89686 0.24101 0.0
H672 H 0.7698 0.67302 0.68709 0.0
H673 H 0.89527 0.66175 0.65387 0.0
H674 H 0.928 0.66769 0.70285 0.0
H675 H 0.92241 0.67867 0.75492 0.0
H676 H 0.7955 0.6869 0.78847 0.0
H677 H 0.76182 0.67944 0.73951 0.0
C678 C 0.80421 0.67169 0.69062 0.0
C679 C 0.83021 0.66726 0.66692 0.0
C680 C 0.82263 0.67472 0.71884 0.0
C681 C 0.87445 0.66502 0.67177 0.0
C682 C 0.89333 0.66862 0.69975 0.0
C683 C 0.88739 0.67883 0.75149 0.0
C684 C 0.8617 0.68375 0.77517 0.0
C685 C 0.86797 0.67393 0.7234 0.0
C686 C 0.81598 0.68317 0.77053 0.0
C687 C 0.79676 0.67901 0.74257 0.0
H688 H 0.08837 0.73267 0.20296 0.0
H689 H 0.2163 0.85887 0.16417 0.0
H690 H 0.24946 0.89279 0.21203 0.0
H691 H 0.24115 0.88758 0.26487 0.0
H692 H 0.11438 0.76005 0.30359 0.0
H693 H 0.08188 0.7257 0.25577 0.0
C694 C 0.12353 0.76755 0.205 0.0
C695 C 0.14967 0.7933 0.18011 0.0
C696 C 0.1426 0.78667 0.23255 0.0
C697 C 0.19548 0.83822 0.18304 0.0
C698 C 0.21442 0.85776 0.21038 0.0
C699 C 0.20645 0.85226 0.26282 0.0
C700 C 0.18012 0.82659 0.28771 0.0
C701 C 0.18813 0.83245 0.23528 0.0
C702 C 0.13544 0.78059 0.28476 0.0
C703 C 0.11672 0.76092 0.25742 0.0
H704 H 0.35437 0.13945 0.78302 0.0
H705 H 0.40279 0.29317 0.76184 0.0
H706 H 0.40516 0.27562 0.71047 0.0
H707 H 0.38911 0.21554 0.67157 0.0
H708 H 0.33321 0.06029 0.6925 0.0
H709 H 0.3383 0.07938 0.74413 0.0
C710 C 0.36595 0.16913 0.76713 0.0
C711 C 0.37859 0.21748 0.77599 0.0
C712 C 0.36567 0.15842 0.7377 0.0
C713 C 0.39276 0.2556 0.75532 0.0
C714 C 0.39416 0.24562 0.72604 0.0
C715 C 0.37868 0.18608 0.68749 0.0
C716 C 0.36109 0.13672 0.67843 0.0
C717 C 0.38012 0.19704 0.71698 0.0
C718 C 0.34679 0.09859 0.69912 0.0
C719 C 0.34969 0.10946 0.72856 0.0
H720 H 0.32552 0.32342 0.922 0.0
H721 H 0.34272 0.19926 0.9513 0.0
H722 H 0.3104 0.20315 -0.00126 0.0
H723 H 0.2753 0.24019 0.03129 0.0
H724 H 0.25971 0.36551 0.0025 0.0
H725 H 0.29336 0.36258 0.95523 0.0
C726 C 0.32246 0.29734 0.9388 0.0
C727 C 0.33628 0.26096 0.93309 0.0
C728 C 0.30389 0.29977 0.96598 0.0
C729 C 0.33239 0.22767 0.95514 0.0
C730 C 0.31373 0.22972 -0.01777 0.0
C731 C 0.27909 0.26681 0.01466 0.0
C732 C 0.26466 0.30276 0.0203 0.0
C733 C 0.29894 0.2653 -0.01224 0.0
C734 C 0.2705 0.33742 -0.00133 0.0
C735 C 0.28971 0.33577 0.97167 0.0
H736 H 1.01359 0.28536 0.41592 0.0
H737 H 0.16002 0.35502 0.45688 0.0
H738 H 0.12056 0.33937 0.50443 0.0
H739 H 0.04491 0.30485 0.534 0.0
H740 H 0.89838 0.23273 0.49315 0.0
H741 H 0.93788 0.25081 0.44553 0.0
C742 C 0.03701 0.29733 0.43521 0.0
C743 C 0.08971 0.32133 0.43289 0.0
C744 C 1.01414 0.28783 0.46235 0.0
C745 C 0.1194 0.33635 0.45811 0.0
C746 C 0.09688 0.32748 0.48526 0.0
C747 C 0.02146 0.29322 0.51471 0.0
C748 C 0.96873 0.26747 0.51709 0.0
C749 C 0.04433 0.30311 0.48757 0.0
C750 C 0.93903 0.25251 0.49188 0.0
C751 C 0.96157 0.26283 0.46469 0.0
H752 H 0.74861 0.03247 0.03294 0.0
H753 H 0.66195 0.89209 -0.01182 0.0
H754 H 0.68564 0.93592 0.94175 0.0
H755 H 0.73287 0.01334 0.91423 0.0
H756 H 0.82104 0.15333 0.95917 0.0
H757 H 0.79459 0.10987 0.00558 0.0
C758 C 0.73464 0.01125 0.01311 0.0
C759 C 0.70365 0.95895 0.01409 0.0
C760 C 0.74877 0.03654 -0.01336 0.0
C761 C 0.68593 0.93231 -0.01193 0.0
C762 C 0.69949 0.95734 0.96154 0.0
C763 C 0.74621 0.03455 0.93414 0.0
C764 C 0.77902 0.08658 0.93324 0.0
C765 C 0.7312 0.00935 0.96063 0.0
C766 C 0.7959 0.1133 0.95926 0.0
C767 C 0.78078 0.08849 -0.01423 0.0
H768 H 0.73716 0.75573 0.53101 0.0
H769 H 0.77871 0.65574 0.48989 0.0
H770 H 0.75441 0.67389 0.44286 0.0
H771 H 0.72383 0.71963 0.41354 0.0
H772 H 0.68291 0.82018 0.45447 0.0
H773 H 0.70445 0.79987 0.50178 0.0
C774 C 0.74086 0.73771 0.51182 0.0
C775 C 0.76003 0.70456 0.514 0.0
C776 C 0.72697 0.74837 0.48491 0.0
C777 C 0.76426 0.6815 0.48886 0.0
C778 C 0.75037 0.69185 0.46196 0.0
C779 C 0.71933 0.73704 0.43278 0.0
C780 C 0.70192 0.77156 0.43044 0.0
C781 C 0.73203 0.72546 0.45976 0.0
C782 C 0.69626 0.79355 0.45564 0.0
C783 C 0.70865 0.78202 0.48267 0.0
H784 H 0.913 0.67295 0.95006 0.0
H785 H 0.05588 0.75418 0.90672 0.0
H786 H 0.09999 0.76461 0.95244 0.0
H787 H 0.09831 0.75334 0.00495 0.0
H788 H 0.95555 0.67269 0.04847 0.0
H789 H 0.91136 0.65914 0.00244 0.0
C790 C 0.95378 0.69291 0.95062 0.0
C791 C 0.98098 0.71295 0.92502 0.0
C792 C 0.97907 0.69885 -0.02299 0.0
C793 C 0.03387 0.73836 0.92609 0.0
C794 C 0.05924 0.74441 0.95224 0.0
C795 C 0.05755 0.73248 0.00437 0.0
C796 C 0.03041 0.71433 0.03016 0.0
C797 C 0.03224 0.72512 -0.02214 0.0
C798 C 0.97752 0.68727 0.02896 0.0
C799 C 0.95211 0.67956 0.00265 0.0
H800 H 0.29718 0.01628 0.42073 0.0
H801 H 0.22494 0.87285 0.46373 0.0
H802 H 0.25084 0.91427 0.51063 0.0
H803 H 0.29391 0.99047 0.53914 0.0
H804 H 0.36459 0.1344 0.49679 0.0
H805 H 0.33927 0.09316 0.4496 0.0
C806 C 0.28713 0.99401 0.44035 0.0
C807 C 0.25924 0.9415 0.43873 0.0
C808 C 0.30184 0.01805 0.46722 0.0
C809 C 0.24631 0.91328 0.46436 0.0
C810 C 0.26115 0.93692 0.49117 0.0
C811 C 0.30394 0.01302 0.51964 0.0
C812 C 0.33119 0.0655 0.52148 0.0
C813 C 0.28894 0.98919 0.4928 0.0
C814 C 0.34357 0.09397 0.49596 0.0
C815 C 0.32914 0.07042 0.46901 0.0
loop_
_geom_bond_atom_site_label_1
_geom_bond_atom_site_label_2
_geom_bond_distance
_geom_bond_site_symmetry_2
_ccdc_geom_bond_type
Zn0 O6 1.969 . S
Zn0 O7 1.965 . S
Zn0 O11 2.024 . S
Zn0 O16 1.969 . S
Zn1 O8 1.969 . S
Zn1 O14 1.969 . S
Zn1 O15 1.965 . S
Zn1 O17 2.024 . S
C2 O3 1.229 . S
C2 O11 1.058 . S
O3 C2 1.229 . S
C4 O5 1.229 . S
C4 O17 1.058 . S
O5 C4 1.229 . S
O6 Zn0 1.969 . S
O6 C9 1.267 . S
O7 Zn0 1.965 . S
O7 C18 1.260 . S
O8 Zn1 1.969 . S
O8 C18 1.258 . S
C9 O6 1.267 . S
C9 O10 1.228 . S
O10 C9 1.228 . S
O11 Zn0 2.024 . S
O11 C2 1.058 . S
C12 O13 1.228 . S
C12 O14 1.267 . S
O13 C12 1.228 . S
O14 Zn1 1.969 . S
O14 C12 1.267 . S
O15 Zn1 1.965 . S
O15 C19 1.260 . S
O16 Zn0 1.969 . S
O16 C19 1.258 . S
O17 Zn1 2.024 . S
O17 C4 1.058 . S
C18 O7 1.260 . S
C18 O8 1.258 . S
C19 O15 1.260 . S
C19 O16 1.258 . S
Zn20 O26 1.969 . S
Zn20 O27 1.965 . S
Zn20 O31 2.024 . S
Zn20 O36 1.969 . S
Zn21 O28 1.969 . S
Zn21 O34 1.969 . S
Zn21 O35 1.965 . S
Zn21 O37 2.024 . S
C22 O23 1.229 . S
C22 O31 1.058 . S
O23 C22 1.229 . S
C24 O25 1.229 . S
C24 O37 1.058 . S
O25 C24 1.229 . S
O26 Zn20 1.969 . S
O26 C29 1.267 1_655 S
O27 Zn20 1.965 . S
O27 C38 1.260 . S
O28 Zn21 1.969 . S
O28 C38 1.258 . S
C29 O26 1.267 1_455 S
C29 O30 1.228 1_455 S
O30 C29 1.228 1_655 S
O31 Zn20 2.024 . S
O31 C22 1.058 . S
C32 O33 1.228 . S
C32 O34 1.267 . S
O33 C32 1.228 . S
O34 Zn21 1.969 . S
O34 C32 1.267 . S
O35 Zn21 1.965 . S
O35 C39 1.260 . S
O36 Zn20 1.969 . S
O36 C39 1.258 . S
O37 Zn21 2.024 . S
O37 C24 1.058 . S
C38 O27 1.260 . S
C38 O28 1.258 . S
C39 O35 1.260 . S
C39 O36 1.258 . S
Zn40 O46 1.969 . S
Zn40 O47 1.965 . S
Zn40 O51 2.024 . S
Zn40 O56 1.969 . S
Zn41 O48 1.969 . S
Zn41 O54 1.969 . S
Zn41 O55 1.965 . S
Zn41 O57 2.024 . S
C42 O43 1.229 . S
C42 O51 1.058 . S
O43 C42 1.229 . S
C44 O45 1.229 . S
C44 O57 1.058 . S
O45 C44 1.229 . S
O46 Zn40 1.969 . S
O46 C49 1.267 1_565 S
O47 Zn40 1.965 . S
O47 C58 1.260 . S
O48 Zn41 1.969 . S
O48 C58 1.258 . S
C49 O46 1.267 1_545 S
C49 O50 1.228 1_545 S
O50 C49 1.228 1_565 S
O51 Zn40 2.024 . S
O51 C42 1.058 . S
C52 O53 1.228 . S
C52 O54 1.267 . S
O53 C52 1.228 . S
O54 Zn41 1.969 . S
O54 C52 1.267 . S
O55 Zn41 1.965 . S
O55 C59 1.260 . S
O56 Zn40 1.969 . S
O56 C59 1.258 . S
O57 Zn41 2.024 . S
O57 C44 1.058 . S
C58 O47 1.260 . S
C58 O48 1.258 . S
C59 O55 1.260 . S
C59 O56 1.258 . S
Zn60 O66 1.969 . S
Zn60 O67 1.965 . S
Zn60 O71 2.024 . S
Zn60 O76 1.969 . S
Zn61 O68 1.969 . S
Zn61 O74 1.969 . S
Zn61 O75 1.965 . S
Zn61 O77 2.024 . S
C62 O63 1.229 . S
C62 O71 1.058 . S
O63 C62 1.229 . S
C64 O65 1.229 . S
C64 O77 1.058 . S
O65 C64 1.229 . S
O66 Zn60 1.969 . S
O66 C69 1.267 . S
O67 Zn60 1.965 . S
O67 C78 1.260 . S
O68 Zn61 1.969 . S
O68 C78 1.258 . S
C69 O66 1.267 . S
C69 O70 1.228 . S
O70 C69 1.228 . S
O71 Zn60 2.024 . S
O71 C62 1.058 . S
C72 O73 1.228 . S
C72 O74 1.267 . S
O73 C72 1.228 . S
O74 Zn61 1.969 . S
O74 C72 1.267 . S
O75 Zn61 1.965 . S
O75 C79 1.260 . S
O76 Zn60 1.969 . S
O76 C79 1.258 . S
O77 Zn61 2.024 . S
O77 C64 1.058 . S
C78 O67 1.260 . S
C78 O68 1.258 . S
C79 O75 1.260 . S
C79 O76 1.258 . S
Zn80 O86 1.969 . S
Zn80 O87 1.965 . S
Zn80 O91 2.024 . S
Zn80 O96 1.969 . S
Zn81 O88 1.969 . S
Zn81 O94 1.969 . S
Zn81 O95 1.965 . S
Zn81 O97 2.024 . S
C82 O83 1.229 . S
C82 O91 1.058 . S
O83 C82 1.229 . S
C84 O85 1.229 . S
C84 O97 1.058 . S
O85 C84 1.229 . S
O86 Zn80 1.969 . S
O86 C89 1.267 1_455 S
O87 Zn80 1.965 . S
O87 C98 1.260 . S
O88 Zn81 1.969 . S
O88 C98 1.258 . S
C89 O86 1.267 1_655 S
C89 O90 1.228 1_655 S
O90 C89 1.228 1_455 S
O91 Zn80 2.024 . S
O91 C82 1.058 . S
C92 O93 1.228 . S
C92 O94 1.267 . S
O93 C92 1.228 . S
O94 Zn81 1.969 . S
O94 C92 1.267 . S
O95 Zn81 1.965 . S
O95 C99 1.260 . S
O96 Zn80 1.969 . S
O96 C99 1.258 . S
O97 Zn81 2.024 . S
O97 C84 1.058 . S
C98 O87 1.260 . S
C98 O88 1.258 . S
C99 O95 1.260 . S
C99 O96 1.258 . S
Zn100 O106 1.969 . S
Zn100 O107 1.965 . S
Zn100 O111 2.024 . S
Zn100 O116 1.969 . S
Zn101 O108 1.969 . S
Zn101 O114 1.969 . S
Zn101 O115 1.965 . S
Zn101 O117 2.024 . S
C102 O103 1.229 . S
C102 O111 1.058 . S
O103 C102 1.229 . S
C104 O105 1.229 . S
C104 O117 1.058 . S
O105 C104 1.229 . S
O106 Zn100 1.969 . S
O106 C109 1.267 1_545 S
O107 Zn100 1.965 . S
O107 C118 1.260 . S
O108 Zn101 1.969 . S
O108 C118 1.258 . S
C109 O106 1.267 1_565 S
C109 O110 1.228 1_565 S
O110 C109 1.228 1_545 S
O111 Zn100 2.024 . S
O111 C102 1.058 . S
C112 O113 1.228 . S
C112 O114 1.267 . S
O113 C112 1.228 . S
O114 Zn101 1.969 . S
O114 C112 1.267 . S
O115 Zn101 1.965 . S
O115 C119 1.260 . S
O116 Zn100 1.969 . S
O116 C119 1.258 . S
O117 Zn101 2.024 . S
O117 C104 1.058 . S
C118 O107 1.260 . S
C118 O108 1.258 . S
C119 O115 1.260 . S
C119 O116 1.258 . S
Zn120 O126 1.969 . S
Zn120 O127 1.965 . S
Zn120 O131 2.024 . S
Zn120 O136 1.969 . S
Zn121 O128 1.969 . S
Zn121 O134 1.969 . S
Zn121 O135 1.965 . S
Zn121 O137 2.024 . S
C122 O123 1.229 . S
C122 O131 1.058 . S
O123 C122 1.229 . S
C124 O125 1.229 . S
C124 O137 1.058 . S
O125 C124 1.229 . S
O126 Zn120 1.969 . S
O126 C129 1.267 . S
O127 Zn120 1.965 . S
O127 C138 1.260 . S
O128 Zn121 1.969 . S
O128 C138 1.258 . S
C129 O126 1.267 . S
C129 O130 1.228 . S
O130 C129 1.228 . S
O131 Zn120 2.024 . S
O131 C122 1.058 . S
C132 O133 1.228 . S
C132 O134 1.267 . S
O133 C132 1.228 . S
O134 Zn121 1.969 . S
O134 C132 1.267 . S
O135 Zn121 1.965 . S
O135 C139 1.260 . S
O136 Zn120 1.969 . S
O136 C139 1.258 . S
O137 Zn121 2.024 . S
O137 C124 1.058 . S
C138 O127 1.260 . S
C138 O128 1.258 . S
C139 O135 1.260 . S
C139 O136 1.258 . S
Zn140 O146 1.969 . S
Zn140 O147 1.965 . S
Zn140 O151 2.024 . S
Zn140 O156 1.969 . S
Zn141 O148 1.969 . S
Zn141 O154 1.969 . S
Zn141 O155 1.965 . S
Zn141 O157 2.024 . S
C142 O143 1.229 . S
C142 O151 1.058 . S
O143 C142 1.229 . S
C144 O145 1.229 . S
C144 O157 1.058 . S
O145 C144 1.229 . S
O146 Zn140 1.969 . S
O146 C149 1.267 1_655 S
O147 Zn140 1.965 . S
O147 C158 1.260 . S
O148 Zn141 1.969 . S
O148 C158 1.258 . S
C149 O146 1.267 1_455 S
C149 O150 1.228 1_455 S
O150 C149 1.228 1_655 S
O151 Zn140 2.024 . S
O151 C142 1.058 . S
C152 O153 1.228 . S
C152 O154 1.267 . S
O153 C152 1.228 . S
O154 Zn141 1.969 . S
O154 C152 1.267 . S
O155 Zn141 1.965 . S
O155 C159 1.260 . S
O156 Zn140 1.969 . S
O156 C159 1.258 . S
O157 Zn141 2.024 . S
O157 C144 1.058 . S
C158 O147 1.260 . S
C158 O148 1.258 . S
C159 O155 1.260 . S
C159 O156 1.258 . S
Zn160 O166 1.969 . S
Zn160 O167 1.965 . S
Zn160 O171 2.024 . S
Zn160 O176 1.969 . S
Zn161 O168 1.969 . S
Zn161 O174 1.969 . S
Zn161 O175 1.965 . S
Zn161 O177 2.024 . S
C162 O163 1.229 . S
C162 O171 1.058 . S
O163 C162 1.229 . S
C164 O165 1.229 . S
C164 O177 1.058 . S
O165 C164 1.229 . S
O166 Zn160 1.969 . S
O166 C169 1.267 1_565 S
O167 Zn160 1.965 . S
O167 C178 1.260 . S
O168 Zn161 1.969 . S
O168 C178 1.258 . S
C169 O166 1.267 1_545 S
C169 O170 1.228 1_545 S
O170 C169 1.228 1_565 S
O171 Zn160 2.024 . S
O171 C162 1.058 . S
C172 O173 1.228 . S
C172 O174 1.267 . S
O173 C172 1.228 . S
O174 Zn161 1.969 . S
O174 C172 1.267 . S
O175 Zn161 1.965 . S
O175 C179 1.260 . S
O176 Zn160 1.969 . S
O176 C179 1.258 . S
O177 Zn161 2.024 . S
O177 C164 1.058 . S
C178 O167 1.260 . S
C178 O168 1.258 . S
C179 O175 1.260 . S
C179 O176 1.258 . S
Zn180 O186 1.969 . S
Zn180 O187 1.965 . S
Zn180 O191 2.024 . S
Zn180 O196 1.969 . S
Zn181 O188 1.969 . S
Zn181 O194 1.969 . S
Zn181 O195 1.965 . S
Zn181 O197 2.024 . S
C182 O183 1.229 . S
C182 O191 1.058 . S
O183 C182 1.229 . S
C184 O185 1.229 . S
C184 O197 1.058 . S
O185 C184 1.229 . S
O186 Zn180 1.969 . S
O186 C189 1.267 . S
O187 Zn180 1.965 . S
O187 C198 1.260 . S
O188 Zn181 1.969 . S
O188 C198 1.258 . S
C189 O186 1.267 . S
C189 O190 1.228 . S
O190 C189 1.228 . S
O191 Zn180 2.024 . S
O191 C182 1.058 . S
C192 O193 1.228 . S
C192 O194 1.267 . S
O193 C192 1.228 . S
O194 Zn181 1.969 . S
O194 C192 1.267 . S
O195 Zn181 1.965 . S
O195 C199 1.260 . S
O196 Zn180 1.969 . S
O196 C199 1.258 . S
O197 Zn181 2.024 . S
O197 C184 1.058 . S
C198 O187 1.260 . S
C198 O188 1.258 . S
C199 O195 1.260 . S
C199 O196 1.258 . S
Zn200 O206 1.969 . S
Zn200 O207 1.965 . S
Zn200 O211 2.024 . S
Zn200 O216 1.969 . S
Zn201 O208 1.969 . S
Zn201 O214 1.969 . S
Zn201 O215 1.965 . S
Zn201 O217 2.024 . S
C202 O203 1.229 . S
C202 O211 1.058 . S
O203 C202 1.229 . S
C204 O205 1.229 . S
C204 O217 1.058 . S
O205 C204 1.229 . S
O206 Zn200 1.969 . S
O206 C209 1.267 1_455 S
O207 Zn200 1.965 . S
O207 C218 1.260 . S
O208 Zn201 1.969 . S
O208 C218 1.258 . S
C209 O206 1.267 1_655 S
C209 O210 1.228 1_655 S
O210 C209 1.228 1_455 S
O211 Zn200 2.024 . S
O211 C202 1.058 . S
C212 O213 1.228 . S
C212 O214 1.267 . S
O213 C212 1.228 . S
O214 Zn201 1.969 . S
O214 C212 1.267 . S
O215 Zn201 1.965 . S
O215 C219 1.260 . S
O216 Zn200 1.969 . S
O216 C219 1.258 . S
O217 Zn201 2.024 . S
O217 C204 1.058 . S
C218 O207 1.260 . S
C218 O208 1.258 . S
C219 O215 1.260 . S
C219 O216 1.258 . S
Zn220 O226 1.969 . S
Zn220 O227 1.965 . S
Zn220 O231 2.024 . S
Zn220 O236 1.969 . S
Zn221 O228 1.969 . S
Zn221 O234 1.969 . S
Zn221 O235 1.965 . S
Zn221 O237 2.024 . S
C222 O223 1.229 . S
C222 O231 1.058 . S
O223 C222 1.229 . S
C224 O225 1.229 . S
C224 O237 1.058 . S
O225 C224 1.229 . S
O226 Zn220 1.969 . S
O226 C229 1.267 1_545 S
O227 Zn220 1.965 . S
O227 C238 1.260 . S
O228 Zn221 1.969 . S
O228 C238 1.258 . S
C229 O226 1.267 1_565 S
C229 O230 1.228 1_565 S
O230 C229 1.228 1_545 S
O231 Zn220 2.024 . S
O231 C222 1.058 . S
C232 O233 1.228 . S
C232 O234 1.267 . S
O233 C232 1.228 . S
O234 Zn221 1.969 . S
O234 C232 1.267 . S
O235 Zn221 1.965 . S
O235 C239 1.260 . S
O236 Zn220 1.969 . S
O236 C239 1.258 . S
O237 Zn221 2.024 . S
O237 C224 1.058 . S
C238 O227 1.260 . S
C238 O228 1.258 . S
C239 O235 1.260 . S
C239 O236 1.258 . S
H240 C246 0.935 . S
H241 C249 0.930 . S
H242 C250 0.930 . S
H243 C251 0.930 . S
H244 C254 0.930 . S
H245 C255 0.930 . S
C246 H240 0.935 . S
C246 C247 1.355 1_545 S
C246 C248 1.415 . S
C247 C246 1.355 1_565 S
C247 C249 1.419 . S
C248 C246 1.415 . S
C248 C253 1.425 . S
C248 C255 1.409 . S
C249 H241 0.930 . S
C249 C247 1.419 . S
C249 C250 1.362 1_565 S
C250 H242 0.930 . S
C250 C249 1.362 1_545 S
C250 C253 1.409 . S
C251 H243 0.930 . S
C251 C252 1.355 . S
C251 C253 1.415 . S
C252 C251 1.355 . S
C252 C254 1.419 . S
C253 C248 1.425 . S
C253 C250 1.409 . S
C253 C251 1.415 . S
C254 H244 0.930 . S
C254 C252 1.419 . S
C254 C255 1.362 . S
C255 H245 0.930 . S
C255 C248 1.409 . S
C255 C254 1.362 . S
H256 C262 0.930 . S
H257 C265 0.930 . S
H258 C266 0.930 . S
H259 C267 0.930 . S
H260 C270 0.930 1_655 S
H261 C271 0.930 . S
C262 H256 0.930 . S
C262 C263 1.355 . S
C262 C264 1.415 . S
C263 C262 1.355 . S
C263 C265 1.419 . S
C264 C262 1.415 . S
C264 C269 1.425 . S
C264 C271 1.409 . S
C265 H257 0.930 . S
C265 C263 1.419 . S
C265 C266 1.362 . S
C266 H258 0.930 . S
C266 C265 1.362 . S
C266 C269 1.409 . S
C267 H259 0.930 . S
C267 C268 1.355 . S
C267 C269 1.415 . S
C268 C267 1.355 . S
C268 C270 1.419 . S
C269 C264 1.425 . S
C269 C266 1.409 . S
C269 C267 1.415 . S
C270 H260 0.930 1_455 S
C270 C268 1.419 . S
C270 C271 1.362 . S
C271 H261 0.930 . S
C271 C264 1.409 . S
C271 C270 1.362 . S
H272 C278 0.930 . S
H273 C281 0.930 . S
H274 C282 0.930 . S
H275 C283 0.930 . S
H276 C286 0.930 . S
H277 C287 0.930 . S
C278 H272 0.930 . S
C278 C279 1.355 . S
C278 C280 1.415 . S
C279 C278 1.355 . S
C279 C281 1.419 . S
C280 C278 1.415 . S
C280 C285 1.425 . S
C280 C287 1.409 . S
C281 H273 0.930 . S
C281 C279 1.419 . S
C281 C282 1.362 . S
C282 H274 0.930 . S
C282 C281 1.362 . S
C282 C285 1.409 . S
C283 H275 0.930 . S
C283 C284 1.355 1_655 S
C283 C285 1.415 . S
C284 C283 1.355 1_455 S
C284 C286 1.419 . S
C285 C280 1.425 . S
C285 C282 1.409 . S
C285 C283 1.415 . S
C286 H276 0.930 . S
C286 C284 1.419 . S
C286 C287 1.362 1_455 S
C287 H277 0.930 . S
C287 C280 1.409 . S
C287 C286 1.362 1_655 S
H288 C294 0.930 . S
H289 C297 0.930 . S
H290 C298 0.930 . S
H291 C299 0.930 . S
H292 C302 0.930 1_545 S
H293 C303 0.930 . S
C294 H288 0.930 . S
C294 C295 1.355 . S
C294 C296 1.415 . S
C295 C294 1.355 . S
C295 C297 1.419 . S
C296 C294 1.415 . S
C296 C301 1.425 . S
C296 C303 1.409 . S
C297 H289 0.930 . S
C297 C295 1.419 . S
C297 C298 1.362 . S
C298 H290 0.930 . S
C298 C297 1.362 . S
C298 C301 1.409 . S
C299 H291 0.930 . S
C299 C300 1.355 . S
C299 C301 1.415 1_545 S
C300 C299 1.355 . S
C300 C302 1.419 1_545 S
C301 C296 1.425 . S
C301 C298 1.409 . S
C301 C299 1.415 1_565 S
C302 H292 0.930 1_565 S
C302 C300 1.419 1_565 S
C302 C303 1.362 . S
C303 H293 0.930 . S
C303 C296 1.409 . S
C303 C302 1.362 . S
H304 C310 0.930 . S
H305 C313 0.930 . S
H306 C314 0.930 . S
H307 C315 0.930 . S
H308 C318 0.930 . S
H309 C319 0.930 . S
C310 H304 0.930 . S
C310 C311 1.355 . S
C310 C312 1.415 . S
C311 C310 1.355 . S
C311 C313 1.419 . S
C312 C310 1.415 . S
C312 C317 1.425 . S
C312 C319 1.409 . S
C313 H305 0.930 . S
C313 C311 1.419 . S
C313 C314 1.362 . S
C314 H306 0.930 . S
C314 C313 1.362 . S
C314 C317 1.409 . S
C315 H307 0.930 . S
C315 C316 1.355 . S
C315 C317 1.415 . S
C316 C315 1.355 . S
C316 C318 1.419 . S
C317 C312 1.425 . S
C317 C314 1.409 . S
C317 C315 1.415 . S
C318 H308 0.930 . S
C318 C316 1.419 . S
C318 C319 1.362 . S
C319 H309 0.930 . S
C319 C312 1.409 . S
C319 C318 1.362 . S
H320 C326 0.930 1_655 S
H321 C329 0.930 . S
H322 C330 0.930 . S
H323 C331 0.930 . S
H324 C334 0.930 . S
H325 C335 0.930 . S
C326 H320 0.930 1_455 S
C326 C327 1.355 1_455 S
C326 C328 1.415 . S
C327 C326 1.355 1_655 S
C327 C329 1.419 . S
C328 C326 1.415 . S
C328 C333 1.425 . S
C328 C335 1.409 . S
C329 H321 0.930 . S
C329 C327 1.419 . S
C329 C330 1.362 1_655 S
C330 H322 0.930 . S
C330 C329 1.362 1_455 S
C330 C333 1.409 . S
C331 H323 0.930 . S
C331 C332 1.355 . S
C331 C333 1.415 . S
C332 C331 1.355 . S
C332 C334 1.419 . S
C333 C328 1.425 . S
C333 C330 1.409 . S
C333 C331 1.415 . S
C334 H324 0.930 . S
C334 C332 1.419 . S
C334 C335 1.362 . S
C335 H325 0.930 . S
C335 C328 1.409 . S
C335 C334 1.362 . S
H336 C342 0.930 . S
H337 C345 0.930 . S
H338 C346 0.930 . S
H339 C347 0.930 . S
H340 C350 0.930 . S
H341 C351 0.930 . S
C342 H336 0.930 . S
C342 C343 1.355 1_655 S
C342 C344 1.415 . S
C343 C342 1.355 1_455 S
C343 C345 1.419 . S
C344 C342 1.415 . S
C344 C349 1.425 . S
C344 C351 1.409 . S
C345 H337 0.930 . S
C345 C343 1.419 . S
C345 C346 1.362 1_455 S
C346 H338 0.930 . S
C346 C345 1.362 1_655 S
C346 C349 1.409 . S
C347 H339 0.930 . S
C347 C348 1.355 . S
C347 C349 1.415 . S
C348 C347 1.355 . S
C348 C350 1.419 . S
C349 C344 1.425 . S
C349 C346 1.409 . S
C349 C347 1.415 . S
C350 H340 0.930 . S
C350 C348 1.419 . S
C350 C351 1.362 . S
C351 H341 0.930 . S
C351 C344 1.409 . S
C351 C350 1.362 . S
H352 C358 0.930 . S
H353 C361 0.930 1_655 S
H354 C362 0.930 . S
H355 C363 0.930 . S
H356 C366 0.930 1_545 S
H357 C367 0.930 . S
C358 H352 0.930 . S
C358 C359 1.355 . S
C358 C360 1.415 . S
C359 C358 1.355 . S
C359 C361 1.419 . S
C360 C358 1.415 . S
C360 C365 1.425 . S
C360 C367 1.409 . S
C361 H353 0.930 1_455 S
C361 C359 1.419 . S
C361 C362 1.362 . S
C362 H354 0.930 . S
C362 C361 1.362 . S
C362 C365 1.409 . S
C363 H355 0.930 . S
C363 C364 1.355 . S
C363 C365 1.415 1_545 S
C364 C363 1.355 . S
C364 C366 1.419 1_545 S
C365 C360 1.425 . S
C365 C362 1.409 . S
C365 C363 1.415 1_565 S
C366 H356 0.930 1_565 S
C366 C364 1.419 1_565 S
C366 C367 1.362 . S
C367 H357 0.930 . S
C367 C360 1.409 . S
C367 C366 1.362 . S
H368 C374 0.930 . S
H369 C377 0.930 . S
H370 C378 0.930 . S
H371 C379 0.930 . S
H372 C382 0.930 1_565 S
H373 C383 0.930 . S
C374 H368 0.930 . S
C374 C375 1.355 . S
C374 C376 1.415 . S
C375 C374 1.355 . S
C375 C377 1.419 . S
C376 C374 1.415 . S
C376 C381 1.425 . S
C376 C383 1.409 . S
C377 H369 0.930 . S
C377 C375 1.419 . S
C377 C378 1.362 . S
C378 H370 0.930 . S
C378 C377 1.362 . S
C378 C381 1.409 . S
C379 H371 0.930 . S
C379 C380 1.355 . S
C379 C381 1.415 . S
C380 C379 1.355 . S
C380 C382 1.419 . S
C381 C376 1.425 . S
C381 C378 1.409 . S
C381 C379 1.415 . S
C382 H372 0.930 1_545 S
C382 C380 1.419 . S
C382 C383 1.362 . S
C383 H373 0.930 . S
C383 C376 1.409 . S
C383 C382 1.362 . S
H384 C390 0.930 . S
H385 C393 0.930 . S
H386 C394 0.930 . S
H387 C395 0.930 . S
H388 C398 0.930 1_655 S
H389 C399 0.930 . S
C390 H384 0.930 . S
C390 C391 1.355 . S
C390 C392 1.415 . S
C391 C390 1.355 . S
C391 C393 1.419 . S
C392 C390 1.415 . S
C392 C397 1.425 . S
C392 C399 1.409 . S
C393 H385 0.930 . S
C393 C391 1.419 . S
C393 C394 1.362 . S
C394 H386 0.930 . S
C394 C393 1.362 . S
C394 C397 1.409 . S
C395 H387 0.930 . S
C395 C396 1.355 . S
C395 C397 1.415 1_655 S
C396 C395 1.355 . S
C396 C398 1.419 1_655 S
C397 C392 1.425 . S
C397 C394 1.409 . S
C397 C395 1.415 1_455 S
C398 H388 0.930 1_455 S
C398 C396 1.419 1_455 S
C398 C399 1.362 . S
C399 H389 0.930 . S
C399 C392 1.409 . S
C399 C398 1.362 . S
H400 C406 0.930 . S
H401 C409 0.930 . S
H402 C410 0.930 . S
H403 C411 0.930 1_565 S
H404 C414 0.930 1_565 S
H405 C415 0.930 . S
C406 H400 0.930 . S
C406 C407 1.355 . S
C406 C408 1.415 . S
C407 C406 1.355 . S
C407 C409 1.419 . S
C408 C406 1.415 . S
C408 C413 1.425 . S
C408 C415 1.409 . S
C409 H401 0.930 . S
C409 C407 1.419 . S
C409 C410 1.362 . S
C410 H402 0.930 . S
C410 C409 1.362 . S
C410 C413 1.409 . S
C411 H403 0.930 1_545 S
C411 C412 1.355 1_545 S
C411 C413 1.415 . S
C412 C411 1.355 1_565 S
C412 C414 1.419 1_565 S
C413 C408 1.425 . S
C413 C410 1.409 . S
C413 C411 1.415 . S
C414 H404 0.930 1_545 S
C414 C412 1.419 1_545 S
C414 C415 1.362 . S
C415 H405 0.930 . S
C415 C408 1.409 . S
C415 C414 1.362 . S
H416 C422 0.930 . S
H417 C425 0.930 . S
H418 C426 0.930 . S
H419 C427 0.930 . S
H420 C430 0.930 . S
H421 C431 0.930 . S
C422 H416 0.930 . S
C422 C423 1.355 . S
C422 C424 1.415 . S
C423 C422 1.355 . S
C423 C425 1.419 . S
C424 C422 1.415 . S
C424 C429 1.425 . S
C424 C431 1.409 . S
C425 H417 0.930 . S
C425 C423 1.419 . S
C425 C426 1.362 . S
C426 H418 0.930 . S
C426 C425 1.362 . S
C426 C429 1.409 . S
C427 H419 0.930 . S
C427 C428 1.355 . S
C427 C429 1.415 . S
C428 C427 1.355 . S
C428 C430 1.419 . S
C429 C424 1.425 . S
C429 C426 1.409 . S
C429 C427 1.415 . S
C430 H420 0.930 . S
C430 C428 1.419 . S
C430 C431 1.362 . S
C431 H421 0.930 . S
C431 C424 1.409 . S
C431 C430 1.362 . S
H432 C438 0.930 . S
H433 C441 0.930 . S
H434 C442 0.930 . S
H435 C443 0.930 . S
H436 C446 0.930 . S
H437 C447 0.930 . S
C438 H432 0.930 . S
C438 C439 1.355 . S
C438 C440 1.415 . S
C439 C438 1.355 . S
C439 C441 1.419 . S
C440 C438 1.415 . S
C440 C445 1.425 . S
C440 C447 1.409 . S
C441 H433 0.930 . S
C441 C439 1.419 . S
C441 C442 1.362 . S
C442 H434 0.930 . S
C442 C441 1.362 . S
C442 C445 1.409 . S
C443 H435 0.930 . S
C443 C444 1.355 . S
C443 C445 1.415 . S
C444 C443 1.355 . S
C444 C446 1.419 . S
C445 C440 1.425 . S
C445 C442 1.409 . S
C445 C443 1.415 . S
C446 H436 0.930 . S
C446 C444 1.419 . S
C446 C447 1.362 . S
C447 H437 0.930 . S
C447 C440 1.409 . S
C447 C446 1.362 . S
H448 C454 0.930 . S
H449 C457 0.930 . S
H450 C458 0.930 . S
H451 C459 0.930 . S
H452 C462 0.930 . S
H453 C463 0.930 . S
C454 H448 0.930 . S
C454 C455 1.355 . S
C454 C456 1.415 . S
C455 C454 1.355 . S
C455 C457 1.419 . S
C456 C454 1.415 . S
C456 C461 1.425 . S
C456 C463 1.409 . S
C457 H449 0.930 . S
C457 C455 1.419 . S
C457 C458 1.362 . S
C458 H450 0.930 . S
C458 C457 1.362 . S
C458 C461 1.409 . S
C459 H451 0.930 . S
C459 C460 1.355 . S
C459 C461 1.415 . S
C460 C459 1.355 . S
C460 C462 1.419 . S
C461 C456 1.425 . S
C461 C458 1.409 . S
C461 C459 1.415 . S
C462 H452 0.930 . S
C462 C460 1.419 . S
C462 C463 1.362 . S
C463 H453 0.930 . S
C463 C456 1.409 . S
C463 C462 1.362 . S
H464 C470 0.930 . S
H465 C473 0.930 . S
H466 C474 0.930 . S
H467 C475 0.930 . S
H468 C478 0.930 . S
H469 C479 0.930 . S
C470 H464 0.930 . S
C470 C471 1.355 . S
C470 C472 1.415 . S
C471 C470 1.355 . S
C471 C473 1.419 . S
C472 C470 1.415 . S
C472 C477 1.425 . S
C472 C479 1.409 . S
C473 H465 0.930 . S
C473 C471 1.419 . S
C473 C474 1.362 . S
C474 H466 0.930 . S
C474 C473 1.362 . S
C474 C477 1.409 . S
C475 H467 0.930 . S
C475 C476 1.355 . S
C475 C477 1.415 . S
C476 C475 1.355 . S
C476 C478 1.419 . S
C477 C472 1.425 . S
C477 C474 1.409 . S
C477 C475 1.415 . S
C478 H468 0.930 . S
C478 C476 1.419 . S
C478 C479 1.362 . S
C479 H469 0.930 . S
C479 C472 1.409 . S
C479 C478 1.362 . S
H480 C486 0.930 . S
H481 C489 0.930 . S
H482 C490 0.930 . S
H483 C491 0.930 . S
H484 C494 0.930 . S
H485 C495 0.930 . S
C486 H480 0.930 . S
C486 C487 1.355 . S
C486 C488 1.415 . S
C487 C486 1.355 . S
C487 C489 1.419 . S
C488 C486 1.415 . S
C488 C493 1.425 . S
C488 C495 1.409 . S
C489 H481 0.930 . S
C489 C487 1.419 . S
C489 C490 1.362 . S
C490 H482 0.930 . S
C490 C489 1.362 . S
C490 C493 1.409 . S
C491 H483 0.930 . S
C491 C492 1.355 . S
C491 C493 1.415 . S
C492 C491 1.355 . S
C492 C494 1.419 . S
C493 C488 1.425 . S
C493 C490 1.409 . S
C493 C491 1.415 . S
C494 H484 0.930 . S
C494 C492 1.419 . S
C494 C495 1.362 . S
C495 H485 0.930 . S
C495 C488 1.409 . S
C495 C494 1.362 . S
H496 C502 0.930 . S
H497 C505 0.930 . S
H498 C506 0.930 . S
H499 C507 0.930 . S
H500 C510 0.930 . S
H501 C511 0.930 . S
C502 H496 0.930 . S
C502 C503 1.355 . S
C502 C504 1.415 . S
C503 C502 1.355 . S
C503 C505 1.419 . S
C504 C502 1.415 . S
C504 C509 1.425 . S
C504 C511 1.409 . S
C505 H497 0.930 . S
C505 C503 1.419 . S
C505 C506 1.362 . S
C506 H498 0.930 . S
C506 C505 1.362 . S
C506 C509 1.409 . S
C507 H499 0.930 . S
C507 C508 1.355 . S
C507 C509 1.415 . S
C508 C507 1.355 . S
C508 C510 1.419 . S
C509 C504 1.425 . S
C509 C506 1.409 . S
C509 C507 1.415 . S
C510 H500 0.930 . S
C510 C508 1.419 . S
C510 C511 1.362 . S
C511 H501 0.930 . S
C511 C504 1.409 . S
C511 C510 1.362 . S
H512 C518 0.930 . S
H513 C521 0.930 . S
H514 C522 0.930 . S
H515 C523 0.930 . S
H516 C526 0.930 . S
H517 C527 0.930 . S
C518 H512 0.930 . S
C518 C519 1.355 . S
C518 C520 1.415 . S
C519 C518 1.355 . S
C519 C521 1.419 . S
C520 C518 1.415 . S
C520 C525 1.425 . S
C520 C527 1.409 . S
C521 H513 0.930 . S
C521 C519 1.419 . S
C521 C522 1.362 . S
C522 H514 0.930 . S
C522 C521 1.362 . S
C522 C525 1.409 . S
C523 H515 0.930 . S
C523 C524 1.355 . S
C523 C525 1.415 . S
C524 C523 1.355 . S
C524 C526 1.419 . S
C525 C520 1.425 . S
C525 C522 1.409 . S
C525 C523 1.415 . S
C526 H516 0.930 . S
C526 C524 1.419 . S
C526 C527 1.362 . S
C527 H517 0.930 . S
C527 C520 1.409 . S
C527 C526 1.362 . S
H528 C534 0.930 . S
H529 C537 0.930 . S
H530 C538 0.930 . S
H531 C539 0.930 . S
H532 C542 0.930 . S
H533 C543 0.930 . S
C534 H528 0.930 . S
C534 C535 1.355 . S
C534 C536 1.415 . S
C535 C534 1.355 . S
C535 C537 1.419 . S
C536 C534 1.415 . S
C536 C541 1.425 . S
C536 C543 1.409 . S
C537 H529 0.930 . S
C537 C535 1.419 . S
C537 C538 1.362 . S
C538 H530 0.930 . S
C538 C537 1.362 . S
C538 C541 1.409 . S
C539 H531 0.930 . S
C539 C540 1.355 . S
C539 C541 1.415 . S
C540 C539 1.355 . S
C540 C542 1.419 . S
C541 C536 1.425 . S
C541 C538 1.409 . S
C541 C539 1.415 . S
C542 H532 0.930 . S
C542 C540 1.419 . S
C542 C543 1.362 . S
C543 H533 0.930 . S
C543 C536 1.409 . S
C543 C542 1.362 . S
H544 C550 0.930 . S
H545 C553 0.930 . S
H546 C554 0.930 . S
H547 C555 0.930 . S
H548 C558 0.930 . S
H549 C559 0.930 . S
C550 H544 0.930 . S
C550 C551 1.355 . S
C550 C552 1.415 . S
C551 C550 1.355 . S
C551 C553 1.419 . S
C552 C550 1.415 . S
C552 C557 1.425 . S
C552 C559 1.409 . S
C553 H545 0.930 . S
C553 C551 1.419 . S
C553 C554 1.362 . S
C554 H546 0.930 . S
C554 C553 1.362 . S
C554 C557 1.409 . S
C555 H547 0.930 . S
C555 C556 1.355 . S
C555 C557 1.415 . S
C556 C555 1.355 . S
C556 C558 1.419 . S
C557 C552 1.425 . S
C557 C554 1.409 . S
C557 C555 1.415 . S
C558 H548 0.930 . S
C558 C556 1.419 . S
C558 C559 1.362 . S
C559 H549 0.930 . S
C559 C552 1.409 . S
C559 C558 1.362 . S
H560 C566 0.930 . S
H561 C569 0.930 . S
H562 C570 0.930 . S
H563 C571 0.930 . S
H564 C574 0.930 . S
H565 C575 0.930 . S
C566 H560 0.930 . S
C566 C567 1.355 . S
C566 C568 1.415 . S
C567 C566 1.355 . S
C567 C569 1.419 . S
C568 C566 1.415 . S
C568 C573 1.425 . S
C568 C575 1.409 . S
C569 H561 0.930 . S
C569 C567 1.419 . S
C569 C570 1.362 . S
C570 H562 0.930 . S
C570 C569 1.362 . S
C570 C573 1.409 . S
C571 H563 0.930 . S
C571 C572 1.355 . S
C571 C573 1.415 . S
C572 C571 1.355 . S
C572 C574 1.419 . S
C573 C568 1.425 . S
C573 C570 1.409 . S
C573 C571 1.415 . S
C574 H564 0.930 . S
C574 C572 1.419 . S
C574 C575 1.362 . S
C575 H565 0.930 . S
C575 C568 1.409 . S
C575 C574 1.362 . S
H576 C582 0.930 . S
H577 C585 0.930 . S
H578 C586 0.930 . S
H579 C587 0.930 . S
H580 C590 0.930 . S
H581 C591 0.930 . S
C582 H576 0.930 . S
C582 C583 1.355 . S
C582 C584 1.415 . S
C583 C582 1.355 . S
C583 C585 1.419 . S
C584 C582 1.415 . S
C584 C589 1.425 . S
C584 C591 1.409 . S
C585 H577 0.930 . S
C585 C583 1.419 . S
C585 C586 1.362 . S
C586 H578 0.930 . S
C586 C585 1.362 . S
C586 C589 1.409 . S
C587 H579 0.930 . S
C587 C588 1.355 . S
C587 C589 1.415 . S
C588 C587 1.355 . S
C588 C590 1.419 . S
C589 C584 1.425 . S
C589 C586 1.409 . S
C589 C587 1.415 . S
C590 H580 0.930 . S
C590 C588 1.419 . S
C590 C591 1.362 . S
C591 H581 0.930 . S
C591 C584 1.409 . S
C591 C590 1.362 . S
H592 C598 0.930 . S
H593 C601 0.930 . S
H594 C602 0.930 . S
H595 C603 0.930 . S
H596 C606 0.930 . S
H597 C607 0.930 . S
C598 H592 0.930 . S
C598 C599 1.355 . S
C598 C600 1.415 . S
C599 C598 1.355 . S
C599 C601 1.419 . S
C600 C598 1.415 . S
C600 C605 1.425 . S
C600 C607 1.409 . S
C601 H593 0.930 . S
C601 C599 1.419 . S
C601 C602 1.362 . S
C602 H594 0.930 . S
C602 C601 1.362 . S
C602 C605 1.409 . S
C603 H595 0.930 . S
C603 C604 1.355 . S
C603 C605 1.415 . S
C604 C603 1.355 . S
C604 C606 1.419 . S
C605 C600 1.425 . S
C605 C602 1.409 . S
C605 C603 1.415 . S
C606 H596 0.930 . S
C606 C604 1.419 . S
C606 C607 1.362 . S
C607 H597 0.930 . S
C607 C600 1.409 . S
C607 C606 1.362 . S
H608 C614 0.930 . S
H609 C617 0.930 . S
H610 C618 0.930 . S
H611 C619 0.930 . S
H612 C622 0.930 . S
H613 C623 0.930 . S
C614 H608 0.930 . S
C614 C615 1.355 . S
C614 C616 1.415 . S
C615 C614 1.355 . S
C615 C617 1.419 . S
C616 C614 1.415 . S
C616 C621 1.425 . S
C616 C623 1.409 . S
C617 H609 0.930 . S
C617 C615 1.419 . S
C617 C618 1.362 . S
C618 H610 0.930 . S
C618 C617 1.362 . S
C618 C621 1.409 . S
C619 H611 0.930 . S
C619 C620 1.355 . S
C619 C621 1.415 . S
C620 C619 1.355 . S
C620 C622 1.419 . S
C621 C616 1.425 . S
C621 C618 1.409 . S
C621 C619 1.415 . S
C622 H612 0.930 . S
C622 C620 1.419 . S
C622 C623 1.362 . S
C623 H613 0.930 . S
C623 C616 1.409 . S
C623 C622 1.362 . S
H624 C630 0.930 . S
H625 C633 0.930 . S
H626 C634 0.930 . S
H627 C635 0.930 . S
H628 C638 0.930 . S
H629 C639 0.930 . S
C630 H624 0.930 . S
C630 C631 1.355 . S
C630 C632 1.415 . S
C631 C630 1.355 . S
C631 C633 1.419 . S
C632 C630 1.415 . S
C632 C637 1.425 . S
C632 C639 1.409 . S
C633 H625 0.930 . S
C633 C631 1.419 . S
C633 C634 1.362 . S
C634 H626 0.930 . S
C634 C633 1.362 . S
C634 C637 1.409 . S
C635 H627 0.930 . S
C635 C636 1.355 . S
C635 C637 1.415 . S
C636 C635 1.355 . S
C636 C638 1.419 . S
C637 C632 1.425 . S
C637 C634 1.409 . S
C637 C635 1.415 . S
C638 H628 0.930 . S
C638 C636 1.419 . S
C638 C639 1.362 . S
C639 H629 0.930 . S
C639 C632 1.409 . S
C639 C638 1.362 . S
H640 C646 0.930 . S
H641 C649 0.930 . S
H642 C650 0.930 . S
H643 C651 0.930 . S
H644 C654 0.930 . S
H645 C655 0.930 . S
C646 H640 0.930 . S
C646 C647 1.355 . S
C646 C648 1.415 . S
C647 C646 1.355 . S
C647 C649 1.419 . S
C648 C646 1.415 . S
C648 C653 1.425 . S
C648 C655 1.409 . S
C649 H641 0.930 . S
C649 C647 1.419 . S
C649 C650 1.362 . S
C650 H642 0.930 . S
C650 C649 1.362 . S
C650 C653 1.409 . S
C651 H643 0.930 . S
C651 C652 1.355 . S
C651 C653 1.415 . S
C652 C651 1.355 . S
C652 C654 1.419 . S
C653 C648 1.425 . S
C653 C650 1.409 . S
C653 C651 1.415 . S
C654 H644 0.930 . S
C654 C652 1.419 . S
C654 C655 1.362 . S
C655 H645 0.930 . S
C655 C648 1.409 . S
C655 C654 1.362 . S
H656 C662 0.930 . S
H657 C665 0.930 . S
H658 C666 0.930 . S
H659 C667 0.930 . S
H660 C670 0.930 . S
H661 C671 0.930 . S
C662 H656 0.930 . S
C662 C663 1.355 . S
C662 C664 1.415 . S
C663 C662 1.355 . S
C663 C665 1.419 . S
C664 C662 1.415 . S
C664 C669 1.425 . S
C664 C671 1.409 . S
C665 H657 0.930 . S
C665 C663 1.419 . S
C665 C666 1.362 . S
C666 H658 0.930 . S
C666 C665 1.362 . S
C666 C669 1.409 . S
C667 H659 0.930 . S
C667 C668 1.355 . S
C667 C669 1.415 . S
C668 C667 1.355 . S
C668 C670 1.419 . S
C669 C664 1.425 . S
C669 C666 1.409 . S
C669 C667 1.415 . S
C670 H660 0.930 . S
C670 C668 1.419 . S
C670 C671 1.362 . S
C671 H661 0.930 . S
C671 C664 1.409 . S
C671 C670 1.362 . S
H672 C678 0.930 . S
H673 C681 0.930 . S
H674 C682 0.930 . S
H675 C683 0.930 . S
H676 C686 0.930 . S
H677 C687 0.930 . S
C678 H672 0.930 . S
C678 C679 1.355 . S
C678 C680 1.415 . S
C679 C678 1.355 . S
C679 C681 1.419 . S
C680 C678 1.415 . S
C680 C685 1.425 . S
C680 C687 1.409 . S
C681 H673 0.930 . S
C681 C679 1.419 . S
C681 C682 1.362 . S
C682 H674 0.930 . S
C682 C681 1.362 . S
C682 C685 1.409 . S
C683 H675 0.930 . S
C683 C684 1.355 . S
C683 C685 1.415 . S
C684 C683 1.355 . S
C684 C686 1.419 . S
C685 C680 1.425 . S
C685 C682 1.409 . S
C685 C683 1.415 . S
C686 H676 0.930 . S
C686 C684 1.419 . S
C686 C687 1.362 . S
C687 H677 0.930 . S
C687 C680 1.409 . S
C687 C686 1.362 . S
H688 C694 0.930 . S
H689 C697 0.930 . S
H690 C698 0.930 . S
H691 C699 0.930 . S
H692 C702 0.930 . S
H693 C703 0.930 . S
C694 H688 0.930 . S
C694 C695 1.355 . S
C694 C696 1.415 . S
C695 C694 1.355 . S
C695 C697 1.419 . S
C696 C694 1.415 . S
C696 C701 1.425 . S
C696 C703 1.409 . S
C697 H689 0.930 . S
C697 C695 1.419 . S
C697 C698 1.362 . S
C698 H690 0.930 . S
C698 C697 1.362 . S
C698 C701 1.409 . S
C699 H691 0.930 . S
C699 C700 1.355 . S
C699 C701 1.415 . S
C700 C699 1.355 . S
C700 C702 1.419 . S
C701 C696 1.425 . S
C701 C698 1.409 . S
C701 C699 1.415 . S
C702 H692 0.930 . S
C702 C700 1.419 . S
C702 C703 1.362 . S
C703 H693 0.930 . S
C703 C696 1.409 . S
C703 C702 1.362 . S
H704 C710 0.930 . S
H705 C713 0.930 . S
H706 C714 0.930 . S
H707 C715 0.930 . S
H708 C718 0.930 . S
H709 C719 0.930 . S
C710 H704 0.930 . S
C710 C711 1.355 . S
C710 C712 1.415 . S
C711 C710 1.355 . S
C711 C713 1.419 . S
C712 C710 1.415 . S
C712 C717 1.425 . S
C712 C719 1.409 . S
C713 H705 0.930 . S
C713 C711 1.419 . S
C713 C714 1.362 . S
C714 H706 0.930 . S
C714 C713 1.362 . S
C714 C717 1.409 . S
C715 H707 0.930 . S
C715 C716 1.355 . S
C715 C717 1.415 . S
C716 C715 1.355 . S
C716 C718 1.419 . S
C717 C712 1.425 . S
C717 C714 1.409 . S
C717 C715 1.415 . S
C718 H708 0.930 . S
C718 C716 1.419 . S
C718 C719 1.362 . S
C719 H709 0.930 . S
C719 C712 1.409 . S
C719 C718 1.362 . S
H720 C726 0.930 . S
H721 C729 0.932 . S
H722 C730 0.930 . S
H723 C731 0.930 . S
H724 C734 0.932 . S
H725 C735 0.930 . S
C726 H720 0.930 . S
C726 C727 1.355 . S
C726 C728 1.415 . S
C727 C726 1.355 . S
C727 C729 1.419 . S
C728 C726 1.415 . S
C728 C733 1.425 1_556 S
C728 C735 1.409 . S
C729 H721 0.932 . S
C729 C727 1.419 . S
C729 C730 1.362 1_556 S
C730 H722 0.930 . S
C730 C729 1.362 1_554 S
C730 C733 1.409 . S
C731 H723 0.930 . S
C731 C732 1.355 . S
C731 C733 1.415 . S
C732 C731 1.355 . S
C732 C734 1.419 . S
C733 C728 1.425 1_554 S
C733 C730 1.409 . S
C733 C731 1.415 . S
C734 H724 0.932 . S
C734 C732 1.419 . S
C734 C735 1.362 1_554 S
C735 H725 0.930 . S
C735 C728 1.409 . S
C735 C734 1.362 1_556 S
H736 C742 0.930 . S
H737 C745 0.930 . S
H738 C746 0.930 . S
H739 C747 0.930 . S
H740 C750 0.930 . S
H741 C751 0.930 . S
C742 H736 0.930 . S
C742 C743 1.355 . S
C742 C744 1.415 1_455 S
C743 C742 1.355 . S
C743 C745 1.419 . S
C744 C742 1.415 1_655 S
C744 C749 1.425 1_655 S
C744 C751 1.409 . S
C745 H737 0.930 . S
C745 C743 1.419 . S
C745 C746 1.362 . S
C746 H738 0.930 . S
C746 C745 1.362 . S
C746 C749 1.409 . S
C747 H739 0.930 . S
C747 C748 1.355 . S
C747 C749 1.415 1_655 S
C748 C747 1.355 . S
C748 C750 1.419 . S
C749 C744 1.425 1_455 S
C749 C746 1.409 . S
C749 C747 1.415 1_455 S
C750 H740 0.930 . S
C750 C748 1.419 . S
C750 C751 1.362 . S
C751 H741 0.930 . S
C751 C744 1.409 . S
C751 C750 1.362 . S
H752 C758 0.930 . S
H753 C761 0.930 . S
H754 C762 0.930 1_545 S
H755 C763 0.930 . S
H756 C766 0.930 . S
H757 C767 0.930 1_565 S
C758 H752 0.930 . S
C758 C759 1.355 . S
C758 C760 1.433 . S
C759 C758 1.355 . S
C759 C761 1.419 . S
C760 C758 1.433 . S
C760 C765 1.424 1_564 S
C760 C767 1.393 1_564 S
C761 H753 0.930 . S
C761 C759 1.419 . S
C761 C762 1.362 . S
C762 H754 0.930 1_565 S
C762 C761 1.362 . S
C762 C765 1.393 1_564 S
C763 H755 0.930 . S
C763 C764 1.355 . S
C763 C765 1.433 . S
C764 C763 1.355 . S
C764 C766 1.419 . S
C765 C760 1.424 1_546 S
C765 C762 1.393 1_546 S
C765 C763 1.433 . S
C766 H756 0.930 . S
C766 C764 1.419 . S
C766 C767 1.362 . S
C767 H757 0.930 1_545 S
C767 C760 1.393 1_546 S
C767 C766 1.362 . S
H768 C774 0.930 . S
H769 C777 0.930 . S
H770 C778 0.930 . S
H771 C779 0.930 . S
H772 C782 0.930 . S
H773 C783 0.930 . S
C774 H768 0.930 . S
C774 C775 1.355 . S
C774 C776 1.415 . S
C775 C774 1.355 . S
C775 C777 1.419 . S
C776 C774 1.415 . S
C776 C781 1.425 . S
C776 C783 1.409 . S
C777 H769 0.930 . S
C777 C775 1.419 . S
C777 C778 1.362 . S
C778 H770 0.930 . S
C778 C777 1.362 . S
C778 C781 1.409 . S
C779 H771 0.930 . S
C779 C780 1.355 . S
C779 C781 1.415 . S
C780 C779 1.355 . S
C780 C782 1.419 . S
C781 C776 1.425 . S
C781 C778 1.409 . S
C781 C779 1.415 . S
C782 H772 0.930 . S
C782 C780 1.419 . S
C782 C783 1.362 . S
C783 H773 0.930 . S
C783 C776 1.409 . S
C783 C782 1.362 . S
H784 C790 0.930 1_554 S
H785 C793 0.930 . S
H786 C794 0.930 . S
H787 C795 0.930 1_556 S
H788 C798 0.930 . S
H789 C799 0.930 . S
C790 H784 0.930 1_556 S
C790 C791 1.355 . S
C790 C792 1.415 1_556 S
C791 C790 1.355 . S
C791 C793 1.419 . S
C792 C790 1.415 1_554 S
C792 C797 1.425 1_654 S
C792 C799 1.409 . S
C793 H785 0.930 . S
C793 C791 1.419 . S
C793 C794 1.362 1_655 S
C794 H786 0.930 . S
C794 C793 1.362 1_455 S
C794 C797 1.409 . S
C795 H787 0.930 1_554 S
C795 C796 1.355 . S
C795 C797 1.415 1_554 S
C796 C795 1.355 . S
C796 C798 1.419 . S
C797 C792 1.425 1_456 S
C797 C794 1.409 . S
C797 C795 1.415 1_556 S
C798 H788 0.930 . S
C798 C796 1.419 . S
C798 C799 1.362 1_455 S
C799 H789 0.930 . S
C799 C792 1.409 . S
C799 C798 1.362 1_655 S
H800 C806 0.930 . S
H801 C809 0.930 . S
H802 C810 0.930 . S
H803 C811 0.930 . S
H804 C814 0.930 . S
H805 C815 0.930 . S
C806 H800 0.930 . S
C806 C807 1.355 . S
C806 C808 1.415 1_565 S
C807 C806 1.355 . S
C807 C809 1.419 . S
C808 C806 1.415 1_545 S
C808 C813 1.425 1_545 S
C808 C815 1.409 . S
C809 H801 0.930 . S
C809 C807 1.419 . S
C809 C810 1.362 . S
C810 H802 0.930 . S
C810 C809 1.362 . S
C810 C813 1.409 . S
C811 H803 0.930 . S
C811 C812 1.355 . S
C811 C813 1.415 1_545 S
C812 C811 1.355 . S
C812 C814 1.419 . S
C813 C808 1.425 1_565 S
C813 C810 1.409 . S
C813 C811 1.415 1_565 S
C814 H804 0.930 . S
C814 C812 1.419 . S
C814 C815 1.362 . S
C815 H805 0.930 . S
C815 C808 1.409 . S
C815 C814 1.362 . S
C247 C82 1.164 . S
C252 C9 1.081 . S
C263 C102 1.218 . S
C268 C29 1.088 . S
C279 C49 1.177 . S
C284 C2 1.130 . S
C295 C69 1.103 . S
C300 C22 1.223 . S
C311 C89 1.182 . S
C316 C42 1.197 . S
C327 C62 1.180 . S
C332 C109 1.072 . S
C343 C162 1.130 . S
C348 C129 1.176 . S
C359 C149 1.079 . S
C364 C182 1.212 . S
C375 C202 1.223 . S
C380 C169 1.129 . S
C391 C189 1.071 . S
C396 C222 1.196 . S
C407 C209 1.132 . S
C412 C122 1.222 . S
C423 C142 1.175 . S
C428 C229 1.196 . S
C439 C84 1.346 . S
C444 C12 1.406 . S
C455 C32 1.397 . S
C460 C104 1.279 . S
C471 C52 1.450 . S
C476 C4 1.243 . S
C487 C72 1.438 . S
C492 C24 1.228 . S
C503 C44 1.355 . S
C508 C92 1.414 . S
C519 C64 1.244 . S
C524 C112 1.409 . S
C535 C164 1.318 . S
C540 C132 1.396 . S
C551 C152 1.419 . S
C556 C184 1.232 . S
C567 C172 1.439 . S
C572 C204 1.229 . S
C583 C224 1.358 . S
C588 C192 1.424 . S
C599 C212 1.458 . S
C604 C124 1.272 . S
C615 C144 1.352 . S
C620 C232 1.437 . S
C631 C219 1.679 . S
C636 C19 1.633 . S
C647 C39 1.637 . S
C652 C239 1.680 . S
C663 C59 1.654 . S
C668 C139 1.668 . S
C679 C79 1.644 . S
C684 C159 1.676 . S
C695 C99 1.658 . S
C700 C179 1.664 . S
C711 C199 1.646 . S
C716 C119 1.662 . S
C727 C198 1.880 . S
C732 C18 1.879 . S
C743 C218 1.856 . S
C748 C38 1.881 . S
C759 C58 1.818 . S
C764 C238 1.846 . S
C775 C78 1.844 . S
C780 C138 1.874 . S
C791 C158 1.825 . S
C796 C98 1.814 . S
C807 C178 1.883 . S
C812 C118 1.875 . S
