# Generated by pormake.
# Topology win, (6)-cn, num edge types: 1
# Building blocks:
#     Node 0, Type 0, BuildingBlock: OJICUG_clean_sbu_0, # of connection points: 6
#     Node 1, Type 0, BuildingBlock: OJICUG_clean_sbu_0, # of connection points: 6
#     Node 2, Type 0, BuildingBlock: OJICUG_clean_sbu_0, # of connection points: 6
#     Node 3, Type 0, BuildingBlock: OJICUG_clean_sbu_0, # of connection points: 6
#     Node 4, Type 0, BuildingBlock: OJICUG_clean_sbu_0, # of connection points: 6
#     Node 5, Type 0, BuildingBlock: OJICUG_clean_sbu_0, # of connection points: 6
#     Node 6, Type 0, BuildingBlock: OJICUG_clean_sbu_0, # of connection points: 6
#     Node 7, Type 0, BuildingBlock: OJICUG_clean_sbu_0, # of connection points: 6
#     Node 8, Type 0, BuildingBlock: OJICUG_clean_sbu_0, # of connection points: 6
#     Node 9, Type 0, BuildingBlock: OJICUG_clean_sbu_0, # of connection points: 6
#     Node 10, Type 0, BuildingBlock: OJICUG_clean_sbu_0, # of connection points: 6
#     Node 11, Type 0, BuildingBlock: OJICUG_clean_sbu_0, # of connection points: 6
#     Node 12, Type 0, BuildingBlock: OJICUG_clean_sbu_0, # of connection points: 6
#     Node 13, Type 0, BuildingBlock: OJICUG_clean_sbu_0, # of connection points: 6
#     Node 14, Type 0, BuildingBlock: OJICUG_clean_sbu_0, # of connection points: 6
#     Node 15, Type 0, BuildingBlock: OJICUG_clean_sbu_0, # of connection points: 6
#     Node 16, Type 0, BuildingBlock: OJICUG_clean_sbu_0, # of connection points: 6
#     Node 17, Type 0, BuildingBlock: OJICUG_clean_sbu_0, # of connection points: 6
#     Node 18, Type 0, BuildingBlock: OJICUG_clean_sbu_0, # of connection points: 6
#     Node 19, Type 0, BuildingBlock: OJICUG_clean_sbu_0, # of connection points: 6
#     Node 20, Type 0, BuildingBlock: OJICUG_clean_sbu_0, # of connection points: 6
#     Node 21, Type 0, BuildingBlock: OJICUG_clean_sbu_0, # of connection points: 6
#     Node 22, Type 0, BuildingBlock: OJICUG_clean_sbu_0, # of connection points: 6
#     Node 23, Type 0, BuildingBlock: OJICUG_clean_sbu_0, # of connection points: 6
#     Node 24, Type 0, BuildingBlock: OJICUG_clean_sbu_0, # of connection points: 6
#     Node 25, Type 0, BuildingBlock: OJICUG_clean_sbu_0, # of connection points: 6
#     Node 26, Type 0, BuildingBlock: OJICUG_clean_sbu_0, # of connection points: 6
#     Node 27, Type 0, BuildingBlock: OJICUG_clean_sbu_0, # of connection points: 6
#     Node 28, Type 0, BuildingBlock: OJICUG_clean_sbu_0, # of connection points: 6
#     Node 29, Type 0, BuildingBlock: OJICUG_clean_sbu_0, # of connection points: 6
#     Node 30, Type 0, BuildingBlock: OJICUG_clean_sbu_0, # of connection points: 6
#     Node 31, Type 0, BuildingBlock: OJICUG_clean_sbu_0, # of connection points: 6
#     Edge 32, Type (0, 0), BuildingBlock: OJICUG_clean_linker_0, # of connection points: 2
#     Edge 33, Type (0, 0), BuildingBlock: OJICUG_clean_linker_0, # of connection points: 2
#     Edge 34, Type (0, 0), BuildingBlock: OJICUG_clean_linker_0, # of connection points: 2
#     Edge 35, Type (0, 0), BuildingBlock: OJICUG_clean_linker_0, # of connection points: 2
#     Edge 36, Type (0, 0), BuildingBlock: OJICUG_clean_linker_0, # of connection points: 2
#     Edge 37, Type (0, 0), BuildingBlock: OJICUG_clean_linker_0, # of connection points: 2
#     Edge 38, Type (0, 0), BuildingBlock: OJICUG_clean_linker_0, # of connection points: 2
#     Edge 39, Type (0, 0), BuildingBlock: OJICUG_clean_linker_0, # of connection points: 2
#     Edge 40, Type (0, 0), BuildingBlock: OJICUG_clean_linker_0, # of connection points: 2
#     Edge 41, Type (0, 0), BuildingBlock: OJICUG_clean_linker_0, # of connection points: 2
#     Edge 42, Type (0, 0), BuildingBlock: OJICUG_clean_linker_0, # of connection points: 2
#     Edge 43, Type (0, 0), BuildingBlock: OJICUG_clean_linker_0, # of connection points: 2
#     Edge 44, Type (0, 0), BuildingBlock: OJICUG_clean_linker_0, # of connection points: 2
#     Edge 45, Type (0, 0), BuildingBlock: OJICUG_clean_linker_0, # of connection points: 2
#     Edge 46, Type (0, 0), BuildingBlock: OJICUG_clean_linker_0, # of connection points: 2
#     Edge 47, Type (0, 0), BuildingBlock: OJICUG_clean_linker_0, # of connection points: 2
#     Edge 48, Type (0, 0), BuildingBlock: OJICUG_clean_linker_0, # of connection points: 2
#     Edge 49, Type (0, 0), BuildingBlock: OJICUG_clean_linker_0, # of connection points: 2
#     Edge 50, Type (0, 0), BuildingBlock: OJICUG_clean_linker_0, # of connection points: 2
#     Edge 51, Type (0, 0), BuildingBlock: OJICUG_clean_linker_0, # of connection points: 2
#     Edge 52, Type (0, 0), BuildingBlock: OJICUG_clean_linker_0, # of connection points: 2
#     Edge 53, Type (0, 0), BuildingBlock: OJICUG_clean_linker_0, # of connection points: 2
#     Edge 54, Type (0, 0), BuildingBlock: OJICUG_clean_linker_0, # of connection points: 2
#     Edge 55, Type (0, 0), BuildingBlock: OJICUG_clean_linker_0, # of connection points: 2
#     Edge 56, Type (0, 0), BuildingBlock: OJICUG_clean_linker_0, # of connection points: 2
#     Edge 57, Type (0, 0), BuildingBlock: OJICUG_clean_linker_0, # of connection points: 2
#     Edge 58, Type (0, 0), BuildingBlock: OJICUG_clean_linker_0, # of connection points: 2
#     Edge 59, Type (0, 0), BuildingBlock: OJICUG_clean_linker_0, # of connection points: 2
#     Edge 60, Type (0, 0), BuildingBlock: OJICUG_clean_linker_0, # of connection points: 2
#     Edge 61, Type (0, 0), BuildingBlock: OJICUG_clean_linker_0, # of connection points: 2
#     Edge 62, Type (0, 0), BuildingBlock: OJICUG_clean_linker_0, # of connection points: 2
#     Edge 63, Type (0, 0), BuildingBlock: OJICUG_clean_linker_0, # of connection points: 2
#     Edge 64, Type (0, 0), BuildingBlock: OJICUG_clean_linker_0, # of connection points: 2
#     Edge 65, Type (0, 0), BuildingBlock: OJICUG_clean_linker_0, # of connection points: 2
#     Edge 66, Type (0, 0), BuildingBlock: OJICUG_clean_linker_0, # of connection points: 2
#     Edge 67, Type (0, 0), BuildingBlock: OJICUG_clean_linker_0, # of connection points: 2
#     Edge 68, Type (0, 0), BuildingBlock: OJICUG_clean_linker_0, # of connection points: 2
#     Edge 69, Type (0, 0), BuildingBlock: OJICUG_clean_linker_0, # of connection points: 2
#     Edge 70, Type (0, 0), BuildingBlock: OJICUG_clean_linker_0, # of connection points: 2
#     Edge 71, Type (0, 0), BuildingBlock: OJICUG_clean_linker_0, # of connection points: 2
#     Edge 72, Type (0, 0), BuildingBlock: OJICUG_clean_linker_0, # of connection points: 2
#     Edge 73, Type (0, 0), BuildingBlock: OJICUG_clean_linker_0, # of connection points: 2
#     Edge 74, Type (0, 0), BuildingBlock: OJICUG_clean_linker_0, # of connection points: 2
#     Edge 75, Type (0, 0), BuildingBlock: OJICUG_clean_linker_0, # of connection points: 2
#     Edge 76, Type (0, 0), BuildingBlock: OJICUG_clean_linker_0, # of connection points: 2
#     Edge 77, Type (0, 0), BuildingBlock: OJICUG_clean_linker_0, # of connection points: 2
#     Edge 78, Type (0, 0), BuildingBlock: OJICUG_clean_linker_0, # of connection points: 2
#     Edge 79, Type (0, 0), BuildingBlock: OJICUG_clean_linker_0, # of connection points: 2
#     Edge 80, Type (0, 0), BuildingBlock: OJICUG_clean_linker_0, # of connection points: 2
#     Edge 81, Type (0, 0), BuildingBlock: OJICUG_clean_linker_0, # of connection points: 2
#     Edge 82, Type (0, 0), BuildingBlock: OJICUG_clean_linker_0, # of connection points: 2
#     Edge 83, Type (0, 0), BuildingBlock: OJICUG_clean_linker_0, # of connection points: 2
#     Edge 84, Type (0, 0), BuildingBlock: OJICUG_clean_linker_0, # of connection points: 2
#     Edge 85, Type (0, 0), BuildingBlock: OJICUG_clean_linker_0, # of connection points: 2
#     Edge 86, Type (0, 0), BuildingBlock: OJICUG_clean_linker_0, # of connection points: 2
#     Edge 87, Type (0, 0), BuildingBlock: OJICUG_clean_linker_0, # of connection points: 2
#     Edge 88, Type (0, 0), BuildingBlock: OJICUG_clean_linker_0, # of connection points: 2
#     Edge 89, Type (0, 0), BuildingBlock: OJICUG_clean_linker_0, # of connection points: 2
#     Edge 90, Type (0, 0), BuildingBlock: OJICUG_clean_linker_0, # of connection points: 2
#     Edge 91, Type (0, 0), BuildingBlock: OJICUG_clean_linker_0, # of connection points: 2
#     Edge 92, Type (0, 0), BuildingBlock: OJICUG_clean_linker_0, # of connection points: 2
#     Edge 93, Type (0, 0), BuildingBlock: OJICUG_clean_linker_0, # of connection points: 2
#     Edge 94, Type (0, 0), BuildingBlock: OJICUG_clean_linker_0, # of connection points: 2
#     Edge 95, Type (0, 0), BuildingBlock: OJICUG_clean_linker_0, # of connection points: 2
#     Edge 96, Type (0, 0), BuildingBlock: OJICUG_clean_linker_0, # of connection points: 2
#     Edge 97, Type (0, 0), BuildingBlock: OJICUG_clean_linker_0, # of connection points: 2
#     Edge 98, Type (0, 0), BuildingBlock: OJICUG_clean_linker_0, # of connection points: 2
#     Edge 99, Type (0, 0), BuildingBlock: OJICUG_clean_linker_0, # of connection points: 2
#     Edge 100, Type (0, 0), BuildingBlock: OJICUG_clean_linker_0, # of connection points: 2
#     Edge 101, Type (0, 0), BuildingBlock: OJICUG_clean_linker_0, # of connection points: 2
#     Edge 102, Type (0, 0), BuildingBlock: OJICUG_clean_linker_0, # of connection points: 2
#     Edge 103, Type (0, 0), BuildingBlock: OJICUG_clean_linker_0, # of connection points: 2
#     Edge 104, Type (0, 0), BuildingBlock: OJICUG_clean_linker_0, # of connection points: 2
#     Edge 105, Type (0, 0), BuildingBlock: OJICUG_clean_linker_0, # of connection points: 2
#     Edge 106, Type (0, 0), BuildingBlock: OJICUG_clean_linker_0, # of connection points: 2
#     Edge 107, Type (0, 0), BuildingBlock: OJICUG_clean_linker_0, # of connection points: 2
#     Edge 108, Type (0, 0), BuildingBlock: OJICUG_clean_linker_0, # of connection points: 2
#     Edge 109, Type (0, 0), BuildingBlock: OJICUG_clean_linker_0, # of connection points: 2
#     Edge 110, Type (0, 0), BuildingBlock: OJICUG_clean_linker_0, # of connection points: 2
#     Edge 111, Type (0, 0), BuildingBlock: OJICUG_clean_linker_0, # of connection points: 2
#     Edge 112, Type (0, 0), BuildingBlock: OJICUG_clean_linker_0, # of connection points: 2
#     Edge 113, Type (0, 0), BuildingBlock: OJICUG_clean_linker_0, # of connection points: 2
#     Edge 114, Type (0, 0), BuildingBlock: OJICUG_clean_linker_0, # of connection points: 2
#     Edge 115, Type (0, 0), BuildingBlock: OJICUG_clean_linker_0, # of connection points: 2
#     Edge 116, Type (0, 0), BuildingBlock: OJICUG_clean_linker_0, # of connection points: 2
#     Edge 117, Type (0, 0), BuildingBlock: OJICUG_clean_linker_0, # of connection points: 2
#     Edge 118, Type (0, 0), BuildingBlock: OJICUG_clean_linker_0, # of connection points: 2
#     Edge 119, Type (0, 0), BuildingBlock: OJICUG_clean_linker_0, # of connection points: 2
#     Edge 120, Type (0, 0), BuildingBlock: OJICUG_clean_linker_0, # of connection points: 2
#     Edge 121, Type (0, 0), BuildingBlock: OJICUG_clean_linker_0, # of connection points: 2
#     Edge 122, Type (0, 0), BuildingBlock: OJICUG_clean_linker_0, # of connection points: 2
#     Edge 123, Type (0, 0), BuildingBlock: OJICUG_clean_linker_0, # of connection points: 2
#     Edge 124, Type (0, 0), BuildingBlock: OJICUG_clean_linker_0, # of connection points: 2
#     Edge 125, Type (0, 0), BuildingBlock: OJICUG_clean_linker_0, # of connection points: 2
#     Edge 126, Type (0, 0), BuildingBlock: OJICUG_clean_linker_0, # of connection points: 2
#     Edge 127, Type (0, 0), BuildingBlock: OJICUG_clean_linker_0, # of connection points: 2
# Relax obj value: 0.308
# Max RMSD: 0.275
# Mean RMSD: 0.275
data_MOF--net-win--node1-OJICUG_clean_sbu_0--edge1-OJICUG_clean_linker_0
_symmetry_space_group_name_H-M    P1
_symmetry_Int_Tables_number       1
_symmetry_cell_setting            triclinic
loop_
_symmetry_equiv_pos_as_xyz
'x, y, z'
_cell_length_a     52.928619
_cell_length_b     52.011535
_cell_length_c     23.184633
_cell_angle_alpha  89.810224
_cell_angle_beta   90.008975
_cell_angle_gamma 90.185412
loop_
_atom_site_label
_atom_site_type_symbol
_atom_site_fract_x
_atom_site_fract_y
_atom_site_fract_z
_atom_type_partial_charge
Sc0 Sc 0.15626 0.24693 0.18653 0.0
Sc1 Sc 0.1502 0.31029 0.23432 0.0
Sc2 Sc 0.1005 0.28012 0.1649 0.0
O3 O 0.13561 0.2787 0.19542 0.0
C4 C 0.1317 0.25627 0.06179 0.0
C5 C 0.20033 0.28195 0.19741 0.0
C6 C 0.1251 0.33536 0.13083 0.0
C7 C 0.15942 0.26539 0.32016 0.0
C8 C 0.10274 0.22133 0.2074 0.0
C9 C 0.09319 0.3122 0.27296 0.0
O10 O 0.14804 0.24535 0.09439 0.0
O11 O 0.19005 0.30007 0.22518 0.0
O12 O 0.1066 0.31971 0.13741 0.0
O13 O 0.1641 0.2488 0.28039 0.0
O14 O 0.09061 0.24112 0.19083 0.0
O15 O 0.11346 0.32429 0.26085 0.0
O16 O 0.12665 0.22062 0.20848 0.0
O17 O 0.15228 0.28835 0.31068 0.0
O18 O 0.08694 0.29178 0.24705 0.0
O19 O 0.18747 0.26991 0.16089 0.0
O20 O 0.11303 0.26885 0.08126 0.0
O21 O 0.14649 0.3325 0.15575 0.0
Sc22 Sc 0.00791 0.91171 0.60906 0.0
Sc23 Sc 0.94425 0.9171 0.63682 0.0
Sc24 Sc 0.96829 0.86303 0.56742 0.0
O25 O 0.97298 0.89684 0.60456 0.0
C26 C 0.00089 0.89786 0.47982 0.0
C27 C 0.97882 0.96036 0.59025 0.0
C28 C 0.91828 0.89137 0.52671 0.0
C29 C 0.98778 0.91609 0.73286 0.0
C30 C 0.0218 0.85413 0.61662 0.0
C31 C 0.93224 0.85988 0.67832 0.0
O32 O 0.00718 0.91538 0.51597 0.0
O33 O 0.95706 0.95012 0.58482 0.0
O34 O 0.93614 0.87551 0.51911 0.0
O35 O 0.0051 0.90664 0.70075 0.0
O36 O -0.00092 0.84663 0.61523 0.0
O37 O 0.93037 0.88417 0.68565 0.0
O38 O 0.02802 0.87626 0.59913 0.0
O39 O 0.96779 0.92666 0.71221 0.0
O40 O 0.94455 0.84973 0.63696 0.0
O41 O -0.0052 0.94993 0.62266 0.0
O42 O 0.99151 0.87608 0.49519 0.0
O43 O 0.91774 0.90736 0.56822 0.0
Sc44 Sc 0.32452 0.75861 0.67956 0.0
Sc45 Sc 0.33531 0.69443 0.71883 0.0
Sc46 Sc 0.37958 0.72826 0.63801 0.0
O47 O 0.34679 0.7276 0.67994 0.0
C48 C 0.34179 0.75373 0.549 0.0
C49 C 0.28395 0.72157 0.69552 0.0
C50 C 0.3568 0.67197 0.60843 0.0
C51 C 0.32619 0.73657 0.81053 0.0
C52 C 0.37725 0.78593 0.68831 0.0
C53 C 0.39418 0.69576 0.74305 0.0
O54 O 0.32853 0.76458 0.58777 0.0
O55 O 0.29468 0.70205 0.71714 0.0
O56 O 0.37444 0.68877 0.61025 0.0
O57 O 0.31972 0.75367 0.77326 0.0
O58 O 0.3887 0.76748 0.66345 0.0
O59 O 0.3738 0.68297 0.73683 0.0
O60 O 0.3538 0.78538 0.69935 0.0
O61 O 0.33466 0.71447 0.79773 0.0
O62 O 0.39881 0.71602 0.71427 0.0
O63 O 0.29524 0.73329 0.656 0.0
O64 O 0.36086 0.73977 0.56021 0.0
O65 O 0.33677 0.67337 0.63888 0.0
Sc66 Sc 0.48253 0.08346 0.08787 0.0
Sc67 Sc 0.5461 0.08133 0.11702 0.0
Sc68 Sc 0.52001 0.13408 0.04586 0.0
O69 O 0.51661 0.10024 0.08387 0.0
C70 C 0.48977 0.09754 0.95823 0.0
C71 C 0.51402 0.03701 0.06897 0.0
C72 C 0.57204 0.10895 0.0091 0.0
C73 C 0.50235 0.0797 0.21158 0.0
C74 C 0.46548 0.14045 0.09162 0.0
C75 C 0.554 0.13904 0.1598 0.0
O76 O 0.48385 0.07985 0.99462 0.0
O77 O 0.53529 0.04821 0.06278 0.0
O78 O 0.55328 0.12346 -0.00032 0.0
O79 O 0.48477 0.0887 0.17944 0.0
O80 O 0.48782 0.14906 0.09018 0.0
O81 O 0.55722 0.11485 0.16745 0.0
O82 O 0.46041 0.11761 0.07733 0.0
O83 O 0.52255 0.0697 0.19088 0.0
O84 O 0.54202 0.14852 0.11696 0.0
O85 O 0.4983 0.04645 0.10319 0.0
O86 O 0.49832 0.11966 0.97318 0.0
O87 O 0.57298 0.09311 0.05099 0.0
Sc88 Sc 0.10671 0.72072 0.3539 0.0
Sc89 Sc 0.15423 0.68778 0.28278 0.0
Sc90 Sc 0.16304 0.75196 0.32463 0.0
O91 O 0.14114 0.72062 0.31949 0.0
C92 C 0.11049 0.7788 0.30646 0.0
C93 C 0.09613 0.68799 0.24781 0.0
C94 C 0.16565 0.73082 0.19333 0.0
C95 C 0.12847 0.66473 0.38884 0.0
C96 C 0.14043 0.7458 0.45108 0.0
C97 C 0.20493 0.71569 0.31548 0.0
O98 O 0.09833 0.75982 0.32757 0.0
O99 O 0.11645 0.67556 0.25734 0.0
O100 O 0.17072 0.74788 0.23169 0.0
O101 O 0.1109 0.68128 0.3827 0.0
O102 O 0.15567 0.75663 0.41584 0.0
O103 O 0.19483 0.69642 0.29103 0.0
O104 O 0.12173 0.7322 0.43516 0.0
O105 O 0.14973 0.66637 0.36275 0.0
O106 O 0.19214 0.72721 0.35264 0.0
O107 O 0.09094 0.70864 0.27404 0.0
O108 O 0.1343 0.77874 0.30054 0.0
O109 O 0.1574 0.70835 0.20457 0.0
Sc110 Sc 0.51603 0.86856 0.43129 0.0
Sc111 Sc 0.54285 0.92101 0.35962 0.0
Sc112 Sc 0.4792 0.91948 0.38877 0.0
O113 O 0.51309 0.90247 0.39317 0.0
C114 C 0.46139 0.8627 0.38466 0.0
C115 C 0.54961 0.86322 0.31688 0.0
C116 C 0.49902 0.92293 0.26481 0.0
C117 C 0.56824 0.89386 0.4689 0.0
C118 C 0.48593 0.90557 0.51869 0.0
C119 C 0.51162 0.96571 0.40732 0.0
O120 O 0.48356 0.8538 0.3868 0.0
O121 O 0.5532 0.88738 0.30977 0.0
O122 O 0.48135 0.91416 0.29715 0.0
O123 O 0.54953 0.87903 0.47748 0.0
O124 O 0.48024 0.92315 0.48195 0.0
O125 O 0.53276 0.95437 0.41275 0.0
O126 O 0.49466 0.88348 0.50423 0.0
O127 O 0.56942 0.90965 0.42689 0.0
O128 O 0.49542 0.95644 0.37379 0.0
O129 O 0.53771 0.85371 0.35994 0.0
O130 O 0.45665 0.88553 0.39928 0.0
O131 O 0.51952 0.93255 0.28528 0.0
Sc132 Sc 0.38764 0.27562 0.85158 0.0
Sc133 Sc 0.33687 0.29825 0.76886 0.0
Sc134 Sc 0.34091 0.23429 0.81035 0.0
O135 O 0.3549 0.27006 0.81129 0.0
C136 C 0.39653 0.21947 0.81031 0.0
C137 C 0.39457 0.3078 0.73622 0.0
C138 C 0.33904 0.25087 0.68199 0.0
C139 C 0.35834 0.32776 0.87877 0.0
C140 C 0.35013 0.24694 0.93899 0.0
C141 C 0.29061 0.26597 0.79818 0.0
O142 O 0.40438 0.24245 0.81015 0.0
O143 O 0.37104 0.31003 0.72661 0.0
O144 O 0.34757 0.23398 0.71757 0.0
O145 O 0.37448 0.31044 0.89069 0.0
O146 O 0.33468 0.23848 0.90109 0.0
O147 O 0.30037 0.28819 0.80399 0.0
O148 O 0.37228 0.25543 0.92654 0.0
O149 O 0.34332 0.32659 0.83587 0.0
O150 O 0.3038 0.24604 0.7931 0.0
O151 O 0.40354 0.2966 0.78051 0.0
O152 O 0.375 0.21416 0.82977 0.0
O153 O 0.33019 0.27254 0.69777 0.0
Sc154 Sc 0.97065 0.13545 0.96181 0.0
Sc155 Sc 0.94688 0.08252 0.88789 0.0
Sc156 Sc 0.01034 0.08732 0.91773 0.0
O157 O 0.97557 0.10217 0.92249 0.0
C158 C 0.02368 0.1453 0.91032 0.0
C159 C 0.93759 0.14005 0.84685 0.0
C160 C 0.9906 0.08206 0.79393 0.0
C161 C 0.92026 0.10752 0.99823 0.0
C162 C 0.00319 0.10067 0.0475 0.0
C163 C 0.97981 0.03911 0.93766 0.0
O164 O 0.00101 0.15253 0.91452 0.0
O165 O 0.93631 0.1159 0.83662 0.0
O166 O 0.00773 0.09212 0.82574 0.0
O167 O 0.93901 0.12177 0.01014 0.0
O168 O 0.00965 0.08351 0.01085 0.0
O169 O 0.95805 0.04946 0.94158 0.0
O170 O -0.00583 0.12256 0.0328 0.0
O171 O 0.9193 0.09342 0.95343 0.0
O172 O -0.00369 0.0492 0.90569 0.0
O173 O 0.94709 0.1493 0.89291 0.0
O174 O 0.0305 0.12307 0.92597 0.0
O175 O 0.97089 0.07119 0.81515 0.0
Sc176 Sc 0.8215 0.75978 0.82092 0.0
Sc177 Sc 0.82735 0.69485 0.78294 0.0
Sc178 Sc 0.87563 0.72612 0.85577 0.0
O179 O 0.84168 0.72733 0.81907 0.0
C180 C 0.87565 0.78379 0.80485 0.0
C181 C 0.81914 0.73746 0.69071 0.0
C182 C 0.88553 0.69236 0.75086 0.0
C183 C 0.7776 0.72512 0.81284 0.0
C184 C 0.84204 0.75383 0.94912 0.0
C185 C 0.85093 0.67122 0.89066 0.0
O186 O 0.85199 0.78466 0.79651 0.0
O187 O 0.82611 0.71478 0.70358 0.0
O188 O 0.89168 0.71276 0.77723 0.0
O189 O 0.7906 0.7371 0.8491 0.0
O190 O 0.85994 0.73879 0.93555 0.0
O191 O 0.82998 0.67371 0.86366 0.0
O192 O 0.82827 0.76541 0.91211 0.0
O193 O 0.78728 0.70553 0.78903 0.0
O194 O 0.86924 0.68708 0.8853 0.0
O195 O 0.81434 0.75503 0.72799 0.0
O196 O 0.88643 0.76465 0.82871 0.0
O197 O 0.86463 0.68081 0.76014 0.0
Sc198 Sc 0.98613 0.08468 0.41734 0.0
Sc199 Sc 0.04963 0.08347 0.3872 0.0
Sc200 Sc 0.02291 0.1358 0.45813 0.0
O201 O 0.01998 0.10189 0.42076 0.0
C202 C 0.96825 0.14128 0.41247 0.0
C203 C 0.0058 0.0813 0.29343 0.0
C204 C 0.05642 0.14135 0.34355 0.0
C205 C 0.01843 0.03862 0.43641 0.0
C206 C -0.00643 0.09878 0.54672 0.0
C207 C 0.07538 0.11137 0.49443 0.0
O208 O 0.96358 0.11846 0.42795 0.0
O209 O 0.02601 0.07136 0.31425 0.0
O210 O 0.04454 0.1506 0.38663 0.0
O211 O 0.00234 0.04791 0.40266 0.0
O212 O 0.00159 0.12108 0.53134 0.0
O213 O 0.07649 0.09567 0.45256 0.0
O214 O 0.98782 0.08103 0.5106 0.0
O215 O 0.03966 0.05 0.44168 0.0
O216 O 0.05642 0.12556 0.50408 0.0
O217 O 0.98811 0.09006 0.3255 0.0
O218 O 0.99044 0.15027 0.41359 0.0
O219 O 0.05994 0.11722 0.33607 0.0
Sc220 Sc 0.65707 0.24252 0.311 0.0
Sc221 Sc 0.65197 0.30565 0.26017 0.0
Sc222 Sc 0.60211 0.2771 0.33266 0.0
O223 O 0.63701 0.27469 0.30117 0.0
C224 C 0.60287 0.2181 0.29254 0.0
C225 C 0.66022 0.26005 0.17663 0.0
C226 C 0.59472 0.30842 0.22286 0.0
C227 C 0.70186 0.27672 0.29818 0.0
C228 C 0.63323 0.25298 0.4359 0.0
C229 C 0.62804 0.33202 0.36295 0.0
O230 O 0.62674 0.21689 0.29048 0.0
O231 O 0.65333 0.28313 0.18506 0.0
O232 O 0.58817 0.28846 0.25044 0.0
O233 O 0.68902 0.26477 0.33511 0.0
O234 O 0.61489 0.26611 0.4164 0.0
O235 O 0.64917 0.32854 0.33745 0.0
O236 O 0.6491 0.24147 0.40333 0.0
O237 O 0.6916 0.29467 0.26948 0.0
O238 O 0.60919 0.31672 0.35789 0.0
O239 O 0.66479 0.24366 0.2171 0.0
O240 O 0.59126 0.23819 0.30902 0.0
O241 O 0.61536 0.32014 0.23339 0.0
Sc242 Sc 0.5 0.91973 0.88877 0.0
Sc243 Sc 0.4362 0.92113 0.86287 0.0
Sc244 Sc 0.46369 0.86828 0.93103 0.0
O245 O 0.46619 0.9024 0.89396 0.0
C246 C 0.51834 0.8634 0.88442 0.0
C247 C 0.47947 0.92261 0.76552 0.0
C248 C 0.42845 0.8635 0.81936 0.0
C249 C 0.46855 0.96581 0.90819 0.0
C250 C 0.49343 0.90568 0.01836 0.0
C251 C 0.41151 0.8928 0.97188 0.0
O252 O 0.52276 0.88616 0.90015 0.0
O253 O 0.45897 0.93203 0.78649 0.0
O254 O 0.44168 0.85375 0.85994 0.0
O255 O 0.48374 0.95643 0.87275 0.0
O256 O 0.48523 0.88334 0.00374 0.0
O257 O 0.41036 0.90965 0.93189 0.0
O258 O 0.49888 0.92345 0.98178 0.0
O259 O 0.44749 0.95444 0.91585 0.0
O260 O 0.4301 0.87768 0.9781 0.0
O261 O 0.49741 0.91417 0.79745 0.0
O262 O 0.4962 0.85422 0.88542 0.0
O263 O 0.42434 0.88763 0.81394 0.0
Sc264 Sc 0.88761 0.2711 0.64518 0.0
Sc265 Sc 0.83592 0.29276 0.7257 0.0
Sc266 Sc 0.84171 0.22874 0.68667 0.0
O267 O 0.85485 0.26486 0.68495 0.0
C268 C 0.85094 0.24159 0.558 0.0
C269 C 0.85698 0.32227 0.61497 0.0
C270 C 0.79058 0.25896 0.6979 0.0
C271 C 0.89317 0.30446 0.75875 0.0
C272 C 0.89762 0.21531 0.68847 0.0
C273 C 0.83935 0.24577 0.81449 0.0
O274 O 0.87301 0.2502 0.57067 0.0
O275 O 0.84163 0.32079 0.65724 0.0
O276 O 0.80424 0.23939 0.70364 0.0
O277 O 0.90269 0.2929 0.71569 0.0
O278 O 0.87638 0.20947 0.66814 0.0
O279 O 0.83009 0.26723 0.79799 0.0
O280 O 0.90492 0.23849 0.68829 0.0
O281 O 0.86955 0.30613 0.76756 0.0
O282 O 0.8482 0.2289 0.77949 0.0
O283 O 0.87378 0.30546 0.60447 0.0
O284 O 0.83554 0.23281 0.59578 0.0
O285 O 0.79983 0.28133 0.69072 0.0
Sc286 Sc 0.46756 0.13588 0.54059 0.0
Sc287 Sc 0.44113 0.08462 0.61625 0.0
Sc288 Sc 0.50481 0.0861 0.58758 0.0
O289 O 0.47084 0.10272 0.58162 0.0
C290 C 0.49877 0.099 0.4571 0.0
C291 C 0.41595 0.11035 0.50461 0.0
C292 C 0.47215 0.03985 0.56834 0.0
C293 C 0.43449 0.14262 0.65498 0.0
C294 C 0.52093 0.14344 0.59202 0.0
C295 C 0.48467 0.08225 0.71109 0.0
O296 O 0.49058 0.12134 0.47061 0.0
O297 O 0.41421 0.09658 0.55 0.0
O298 O 0.48851 0.04906 0.60173 0.0
O299 O 0.44455 0.15124 0.60874 0.0
O300 O 0.52675 0.12073 0.57803 0.0
O301 O 0.46439 0.07249 0.69003 0.0
O302 O 0.49862 0.1517 0.58721 0.0
O303 O 0.43204 0.11861 0.66605 0.0
O304 O 0.50224 0.09149 0.67918 0.0
O305 O 0.43541 0.12354 0.49237 0.0
O306 O 0.50427 0.08174 0.4946 0.0
O307 O 0.45093 0.05114 0.56322 0.0
Sc308 Sc 0.60652 0.73098 0.13218 0.0
Sc309 Sc 0.65535 0.70364 0.21561 0.0
Sc310 Sc 0.65628 0.76937 0.17816 0.0
O311 O 0.63957 0.73443 0.1749 0.0
C312 C 0.64431 0.76019 0.04644 0.0
C313 C 0.63301 0.67664 0.10486 0.0
C314 C 0.70517 0.73381 0.18524 0.0
C315 C 0.59602 0.69852 0.24429 0.0
C316 C 0.59967 0.78827 0.17705 0.0
C317 C 0.65821 0.74952 0.30678 0.0
O318 O 0.6239 0.74791 0.05705 0.0
O319 O 0.6501 0.67754 0.14353 0.0
O320 O 0.69305 0.75451 0.18109 0.0
O321 O 0.58835 0.7133 0.20432 0.0
O322 O 0.62313 0.79237 0.17838 0.0
O323 O 0.66083 0.72621 0.29147 0.0
O324 O 0.59054 0.76655 0.16377 0.0
O325 O 0.61911 0.69225 0.25058 0.0
O326 O 0.65444 0.76807 0.27146 0.0
O327 O 0.61655 0.69409 0.09797 0.0
O328 O 0.65844 0.76984 0.08545 0.0
O329 O 0.6943 0.71206 0.19112 0.0
Sc330 Sc 0.02432 0.86245 0.06689 0.0
Sc331 Sc 0.05036 0.91549 0.13723 0.0
Sc332 Sc 0.98667 0.91229 0.10898 0.0
O333 O 0.02096 0.89629 0.1044 0.0
C334 C -0.00686 0.89852 0.97975 0.0
C335 C 0.07558 0.88881 0.02736 0.0
C336 C 0.01763 0.9597 0.09026 0.0
C337 C 0.05975 0.85794 0.17847 0.0
C338 C 0.97065 0.85535 0.11628 0.0
C339 C 0.00678 0.91569 0.23287 0.0
O340 O 0.0015 0.87636 0.99501 0.0
O341 O 0.07672 0.90449 0.06945 0.0
O342 O 0.00155 0.94982 0.12341 0.0
O343 O 0.0475 0.84835 0.13627 0.0
O344 O 0.96537 0.87756 0.09796 0.0
O345 O 0.02699 0.92597 0.21223 0.0
O346 O -0.00698 0.84701 0.11493 0.0
O347 O 0.06247 0.88211 0.18651 0.0
O348 O 0.98919 0.90674 0.20063 0.0
O349 O 0.05689 0.87398 0.01856 0.0
O350 O 0.98767 0.91625 0.01598 0.0
O351 O 0.03905 0.94888 0.0847 0.0
Sc352 Sc 0.66341 0.75076 0.67684 0.0
Sc353 Sc 0.65462 0.81485 0.71884 0.0
Sc354 Sc 0.60716 0.78171 0.64731 0.0
O355 O 0.64152 0.78196 0.68201 0.0
C356 C 0.64086 0.75675 0.55035 0.0
C357 C 0.70527 0.78741 0.6858 0.0
C358 C 0.62912 0.83774 0.6126 0.0
C359 C 0.6661 0.77188 0.80813 0.0
C360 C 0.61082 0.72365 0.69487 0.0
C361 C 0.59647 0.81428 0.75348 0.0
O362 O 0.65601 0.74594 0.58568 0.0
O363 O 0.69516 0.80656 0.71038 0.0
O364 O 0.61144 0.82118 0.61864 0.0
O365 O 0.67119 0.7549 0.7697 0.0
O366 O 0.59874 0.74254 0.67345 0.0
O367 O 0.61684 0.8268 0.7442 0.0
O368 O 0.63463 0.72384 0.7011 0.0
O369 O 0.65777 0.79427 0.79701 0.0
O370 O 0.59126 0.79364 0.72705 0.0
O371 O 0.69246 0.77575 0.64874 0.0
O372 O 0.62224 0.77036 0.56615 0.0
O373 O 0.6503 0.83618 0.63893 0.0
Sc374 Sc 0.50475 0.41694 0.07913 0.0
Sc375 Sc 0.44142 0.42066 0.11012 0.0
Sc376 Sc 0.46604 0.36716 0.03949 0.0
O377 O 0.47027 0.40108 0.07631 0.0
C378 C 0.49649 0.40284 0.95009 0.0
C379 C 0.47416 0.46451 0.06094 0.0
C380 C 0.41451 0.39368 0.00318 0.0
C381 C 0.48551 0.42115 0.20335 0.0
C382 C 0.52055 0.35975 0.08462 0.0
C383 C 0.4325 0.36309 0.15421 0.0
O384 O 0.50294 0.42047 0.98591 0.0
O385 O 0.45255 0.45384 0.05599 0.0
O386 O 0.43282 0.37857 0.99384 0.0
O387 O 0.5028 0.41175 0.17106 0.0
O388 O 0.49805 0.35157 0.08403 0.0
O389 O 0.42982 0.38735 0.16139 0.0
O390 O 0.52595 0.38228 0.06838 0.0
O391 O 0.46561 0.43182 0.18278 0.0
O392 O 0.44405 0.35332 0.11128 0.0
O393 O 0.49027 0.4545 0.09361 0.0
O394 O 0.48772 0.38088 0.96585 0.0
O395 O 0.41409 0.40958 0.04476 0.0
Sc396 Sc 0.82964 0.25556 0.18583 0.0
Sc397 Sc 0.83598 0.19251 0.23619 0.0
Sc398 Sc 0.88539 0.22236 0.16462 0.0
O399 O 0.85039 0.22389 0.19573 0.0
C400 C 0.85394 0.24583 0.06112 0.0
C401 C 0.78572 0.22051 0.1983 0.0
C402 C 0.86071 0.16693 0.13334 0.0
C403 C 0.82675 0.23774 0.32018 0.0
C404 C 0.88316 0.2813 0.20508 0.0
C405 C 0.89313 0.19097 0.27413 0.0
O406 O 0.83772 0.2569 0.09359 0.0
O407 O 0.7961 0.20264 0.22701 0.0
O408 O 0.87922 0.18263 0.13889 0.0
O409 O 0.82187 0.25409 0.27979 0.0
O410 O 0.89528 0.26149 0.18882 0.0
O411 O 0.87285 0.17875 0.26294 0.0
O412 O 0.85926 0.28196 0.20669 0.0
O413 O 0.83408 0.21481 0.31158 0.0
O414 O 0.8993 0.21117 0.24697 0.0
O415 O 0.79852 0.23233 0.16115 0.0
O416 O 0.87258 0.23319 0.08075 0.0
O417 O 0.83943 0.16989 0.15858 0.0
Sc418 Sc 0.97722 0.58333 0.6119 0.0
Sc419 Sc 0.04089 0.58104 0.64017 0.0
Sc420 Sc 0.01488 0.63384 0.56903 0.0
O421 O 0.0114 0.59997 0.60713 0.0
C422 C 0.98408 0.59712 0.48193 0.0
C423 C 0.0086 0.53672 0.59271 0.0
C424 C 0.06668 0.60817 0.53092 0.0
C425 C -0.00274 0.57968 0.73562 0.0
C426 C 0.96044 0.64032 0.6162 0.0
C427 C 0.04873 0.63874 0.68316 0.0
O428 O 0.97808 0.57964 0.51874 0.0
O429 O 0.0299 0.54786 0.58679 0.0
O430 O 0.04817 0.62316 0.52254 0.0
O431 O 0.97967 0.58864 0.70348 0.0
O432 O 0.98276 0.64895 0.61382 0.0
O433 O 0.05199 0.61454 0.69013 0.0
O434 O 0.95526 0.61755 0.60158 0.0
O435 O 0.01752 0.56978 0.71487 0.0
O436 O 0.03689 0.64839 0.64026 0.0
O437 O -0.00722 0.54615 0.62677 0.0
O438 O -0.00685 0.61914 0.49627 0.0
O439 O 0.06759 0.59222 0.5727 0.0
Sc440 Sc 0.59834 0.22795 0.85223 0.0
Sc441 Sc 0.64932 0.20475 0.77139 0.0
Sc442 Sc 0.64536 0.26894 0.81042 0.0
O443 O 0.63123 0.23321 0.81228 0.0
C444 C 0.58981 0.28398 0.80874 0.0
C445 C 0.59172 0.19492 0.73853 0.0
C446 C 0.64736 0.25188 0.68263 0.0
C447 C 0.62746 0.17587 0.88226 0.0
C448 C 0.6358 0.25651 0.93915 0.0
C449 C 0.69562 0.23716 0.79949 0.0
O450 O 0.58188 0.26102 0.80923 0.0
O451 O 0.61527 0.19252 0.72956 0.0
O452 O 0.63898 0.26898 0.71762 0.0
O453 O 0.61122 0.19322 0.8929 0.0
O454 O 0.65138 0.26484 0.90129 0.0
O455 O 0.68581 0.215 0.80616 0.0
O456 O 0.61353 0.24843 0.92664 0.0
O457 O 0.64278 0.17686 0.83984 0.0
O458 O 0.68246 0.25709 0.79386 0.0
O459 O 0.58261 0.20665 0.78179 0.0
O460 O 0.61126 0.28928 0.82865 0.0
O461 O 0.6559 0.2301 0.69909 0.0
Sc462 Sc 0.01498 0.36822 0.95721 0.0
Sc463 Sc 0.03985 0.42044 0.88213 0.0
Sc464 Sc 0.9762 0.41686 0.91049 0.0
O465 O 0.01068 0.40135 0.91645 0.0
C466 C 0.96201 0.35896 0.90494 0.0
C467 C 0.04837 0.36273 0.84295 0.0
C468 C -0.0036 0.42165 0.78709 0.0
C469 C 0.06575 0.39522 0.99363 0.0
C470 C 0.98252 0.40381 0.04089 0.0
C471 C 0.0074 0.46422 0.93057 0.0
O472 O 0.98456 0.35145 0.91012 0.0
O473 O 0.05001 0.38682 0.83192 0.0
O474 O 0.97907 0.41185 0.81882 0.0
O475 O 0.04662 0.38155 0.00588 0.0
O476 O 0.97648 0.42095 0.00355 0.0
O477 O 0.02895 0.45352 0.93551 0.0
O478 O 0.99137 0.38177 0.02713 0.0
O479 O 0.06711 0.40908 0.9483 0.0
O480 O 0.99121 0.45457 0.89735 0.0
O481 O 0.03862 0.35378 0.88919 0.0
O482 O 0.95539 0.38143 0.919 0.0
O483 O 0.01632 0.43206 0.80837 0.0
Sc484 Sc 0.8801 0.77558 0.36278 0.0
Sc485 Sc 0.83565 0.80925 0.28269 0.0
Sc486 Sc 0.82494 0.74494 0.32166 0.0
O487 O 0.84721 0.7761 0.32127 0.0
C488 C 0.87764 0.71792 0.31242 0.0
C489 C 0.89447 0.80835 0.25792 0.0
C490 C 0.82651 0.76713 0.19074 0.0
C491 C 0.85752 0.83179 0.3929 0.0
C492 C 0.84243 0.74988 0.4521 0.0
C493 C 0.7843 0.78163 0.30607 0.0
O494 O 0.88917 0.73643 0.33709 0.0
O495 O 0.87412 0.82102 0.26451 0.0
O496 O 0.82009 0.74993 0.22793 0.0
O497 O 0.87509 0.81502 0.39077 0.0
O498 O 0.82907 0.73899 0.41342 0.0
O499 O 0.79499 0.80123 0.28437 0.0
O500 O 0.86154 0.76391 0.44074 0.0
O501 O 0.83736 0.83029 0.36282 0.0
O502 O 0.79567 0.77002 0.34551 0.0
O503 O 0.89911 0.78801 0.28633 0.0
O504 O 0.85417 0.71835 0.30167 0.0
O505 O 0.83492 0.7893 0.20367 0.0
Sc506 Sc 0.46699 0.64078 0.43342 0.0
Sc507 Sc 0.44234 0.5869 0.36361 0.0
Sc508 Sc 0.50601 0.59182 0.39243 0.0
O509 O 0.47127 0.60691 0.39642 0.0
C510 C 0.52069 0.64924 0.38475 0.0
C511 C 0.43111 0.6442 0.32231 0.0
C512 C 0.48611 0.58764 0.26828 0.0
C513 C 0.41665 0.6126 0.47371 0.0
C514 C 0.499 0.60582 0.52149 0.0
C515 C 0.47608 0.54332 0.41043 0.0
O516 O 0.49808 0.65693 0.38576 0.0
O517 O 0.429 0.61994 0.31486 0.0
O518 O 0.50349 0.59692 0.30065 0.0
O519 O 0.43466 0.6284 0.48144 0.0
O520 O 0.50505 0.58818 0.4855 0.0
O521 O 0.45444 0.55369 0.41528 0.0
O522 O 0.48996 0.62765 0.50589 0.0
O523 O 0.41593 0.5967 0.43204 0.0
O524 O 0.49247 0.55369 0.37881 0.0
O525 O 0.44348 0.65426 0.36378 0.0
O526 O 0.52654 0.62712 0.40268 0.0
O527 O 0.46592 0.57722 0.2886 0.0
Sc528 Sc 0.32941 0.2605 0.31061 0.0
Sc529 Sc 0.334 0.19703 0.26266 0.0
Sc530 Sc 0.38432 0.22583 0.33258 0.0
O531 O 0.34927 0.22818 0.30186 0.0
C532 C 0.38366 0.28465 0.29021 0.0
C533 C 0.32585 0.24223 0.17702 0.0
C534 C 0.39106 0.19364 0.22445 0.0
C535 C 0.28434 0.22647 0.29967 0.0
C536 C 0.35361 0.25045 0.43548 0.0
C537 C 0.35833 0.17121 0.3662 0.0
O538 O 0.35978 0.28596 0.28886 0.0
O539 O 0.33247 0.2191 0.18643 0.0
O540 O 0.39776 0.21388 0.25054 0.0
O541 O 0.2973 0.23866 0.33582 0.0
O542 O 0.37196 0.23737 0.41611 0.0
O543 O 0.33708 0.17462 0.34107 0.0
O544 O 0.33758 0.2618 0.40281 0.0
O545 O 0.29446 0.20821 0.27198 0.0
O546 O 0.37721 0.18639 0.35988 0.0
O547 O 0.32158 0.25892 0.21682 0.0
O548 O 0.39525 0.26455 0.30693 0.0
O549 O 0.37042 0.18213 0.23609 0.0
Sc550 Sc 0.48476 0.59198 0.89246 0.0
Sc551 Sc 0.54833 0.58755 0.86452 0.0
Sc552 Sc 0.52354 0.64115 0.93442 0.0
O553 O 0.51942 0.60733 0.89712 0.0
C554 C 0.47001 0.6491 0.88532 0.0
C555 C 0.50477 0.58837 0.76862 0.0
C556 C 0.55915 0.64493 0.82311 0.0
C557 C 0.51436 0.54382 0.91046 0.0
C558 C 0.4917 0.60552 0.02161 0.0
C559 C 0.57418 0.61387 0.97439 0.0
O560 O 0.46433 0.62705 0.90418 0.0
O561 O 0.52474 0.57774 0.78925 0.0
O562 O 0.54696 0.6548 0.86496 0.0
O563 O 0.49856 0.55416 0.87748 0.0
O564 O 0.50047 0.62758 0.00637 0.0
O565 O 0.57487 0.59795 0.9327 0.0
O566 O 0.48581 0.58789 0.98537 0.0
O567 O 0.53599 0.55427 0.91662 0.0
O568 O 0.55593 0.6292 0.9827 0.0
O569 O 0.48738 0.59762 0.80085 0.0
O570 O 0.49256 0.65707 0.88624 0.0
O571 O 0.56145 0.6207 0.81546 0.0
Sc572 Sc 0.15591 0.73267 0.82324 0.0
Sc573 Sc 0.1554 0.79837 0.7859 0.0
Sc574 Sc 0.10625 0.77095 0.86868 0.0
O575 O 0.13935 0.76757 0.82636 0.0
C576 C 0.09924 0.71366 0.82355 0.0
C577 C 0.15808 0.75251 0.6947 0.0
C578 C 0.09619 0.80362 0.75662 0.0
C579 C 0.20494 0.76842 0.81679 0.0
C580 C 0.1438 0.74179 0.95478 0.0
C581 C 0.13312 0.82519 0.89671 0.0
O582 O 0.12267 0.70954 0.82327 0.0
O583 O 0.16101 0.77579 0.71013 0.0
O584 O 0.08831 0.78891 0.79659 0.0
O585 O 0.19275 0.74765 0.82017 0.0
O586 O 0.12333 0.7538 0.94389 0.0
O587 O 0.15009 0.82441 0.85784 0.0
O588 O 0.15808 0.73234 0.91594 0.0
O589 O 0.19414 0.79014 0.81136 0.0
O590 O 0.11655 0.80772 0.9036 0.0
O591 O 0.15401 0.73397 0.72993 0.0
O592 O 0.09019 0.73545 0.8362 0.0
O593 O 0.11936 0.80971 0.75037 0.0
Sc594 Sc -0.00108 0.41981 0.41012 0.0
Sc595 Sc 0.9353 0.41969 0.381 0.0
Sc596 Sc 0.96311 0.36804 0.45272 0.0
O597 O 0.96542 0.40186 0.41431 0.0
C598 C 0.01778 0.36338 0.40667 0.0
C599 C 0.97891 0.42292 0.28649 0.0
C600 C 0.92942 0.36175 0.33851 0.0
C601 C 0.9658 0.46491 0.42967 0.0
C602 C 0.99224 0.40566 0.53998 0.0
C603 C 0.91023 0.3913 0.48895 0.0
O604 O 0.02217 0.38644 0.42044 0.0
O605 O 0.95846 0.43231 0.30736 0.0
O606 O 0.94152 0.35276 0.38173 0.0
O607 O 0.98172 0.45615 0.39498 0.0
O608 O 0.98436 0.38326 0.52524 0.0
O609 O 0.90873 0.40686 0.44664 0.0
O610 O -0.0024 0.42345 0.50341 0.0
O611 O 0.94487 0.45305 0.43559 0.0
O612 O 0.92956 0.37767 0.49897 0.0
O613 O -0.00321 0.41447 0.31852 0.0
O614 O -0.00427 0.35404 0.40853 0.0
O615 O 0.92553 0.38581 0.33046 0.0
Sc616 Sc 0.37521 0.77791 0.14535 0.0
Sc617 Sc 0.32716 0.80917 0.21841 0.0
Sc618 Sc 0.3209 0.74423 0.18021 0.0
O619 O 0.34127 0.77671 0.18211 0.0
C620 C 0.34144 0.75026 0.05203 0.0
C621 C 0.35111 0.83297 0.11087 0.0
C622 C 0.27722 0.77877 0.18851 0.0
C623 C 0.3854 0.81146 0.25058 0.0
C624 C 0.37489 0.72025 0.19607 0.0
C625 C 0.31861 0.76645 0.31045 0.0
O626 O 0.3594 0.76536 0.06556 0.0
O627 O 0.33011 0.83052 0.1378 0.0
O628 O 0.29016 0.76692 0.15207 0.0
O629 O 0.39136 0.79111 0.22396 0.0
O630 O 0.35124 0.71937 0.20462 0.0
O631 O 0.32573 0.78914 0.29768 0.0
O632 O 0.38575 0.73937 0.1721 0.0
O633 O 0.36458 0.82309 0.24152 0.0
O634 O 0.31374 0.74891 0.2731 0.0
O635 O 0.36921 0.81699 0.11608 0.0
O636 O 0.32766 0.73862 0.08905 0.0
O637 O 0.28697 0.79842 0.21226 0.0
Sc638 Sc 0.96295 0.63459 0.06973 0.0
Sc639 Sc 0.93446 0.58222 0.13838 0.0
Sc640 Sc -0.00171 0.58264 0.11193 0.0
O641 O 0.96482 0.60045 0.10693 0.0
C642 C 0.99211 0.59695 0.98227 0.0
C643 C 0.91029 0.61077 0.0294 0.0
C644 C 0.96561 0.53716 0.09189 0.0
C645 C 0.92798 0.63995 0.18174 0.0
C646 C 0.01768 0.63881 0.11675 0.0
C647 C 0.97775 0.57978 0.23527 0.0
O648 O 0.98422 0.61934 0.99696 0.0
O649 O 0.90875 0.59419 0.06982 0.0
O650 O 0.98121 0.54615 0.1271 0.0
O651 O 0.94121 0.64947 0.14078 0.0
O652 O 0.02175 0.61594 0.10144 0.0
O653 O 0.95707 0.57068 0.21431 0.0
O654 O -0.00428 0.64828 0.11524 0.0
O655 O 0.92355 0.61588 0.18756 0.0
O656 O -0.00417 0.588 0.20336 0.0
O657 O 0.92924 0.6255 0.02266 0.0
O658 O -0.00277 0.5791 0.01881 0.0
O659 O 0.94472 0.54881 0.08511 0.0
Sc660 Sc 0.09861 0.23097 0.64607 0.0
Sc661 Sc 0.15011 0.20967 0.72807 0.0
Sc662 Sc 0.14433 0.27353 0.68702 0.0
O663 O 0.13126 0.23739 0.68606 0.0
C664 C 0.13532 0.26058 0.55842 0.0
C665 C 0.12928 0.1797 0.61822 0.0
C666 C 0.19545 0.24331 0.69904 0.0
C667 C 0.09276 0.19826 0.76106 0.0
C668 C 0.08837 0.28686 0.68753 0.0
C669 C 0.14659 0.25683 0.8153 0.0
O670 O 0.11337 0.25162 0.57104 0.0
O671 O 0.14442 0.1813 0.66083 0.0
O672 O 0.18178 0.26289 0.70438 0.0
O673 O 0.08338 0.20944 0.71717 0.0
O674 O 0.10969 0.2927 0.66764 0.0
O675 O 0.15608 0.23546 0.79935 0.0
O676 O 0.0811 0.26368 0.68784 0.0
O677 O 0.11637 0.19669 0.77035 0.0
O678 O 0.13765 0.27354 0.77983 0.0
O679 O 0.11259 0.19651 0.60669 0.0
O680 O 0.15061 0.26945 0.59621 0.0
O681 O 0.18622 0.2209 0.6927 0.0
Sc682 Sc 0.5189 0.36549 0.53489 0.0
Sc683 Sc 0.54391 0.41779 0.60909 0.0
Sc684 Sc 0.48045 0.41459 0.57884 0.0
O685 O 0.51482 0.39887 0.57422 0.0
C686 C 0.48754 0.40136 0.4491 0.0
C687 C 0.56998 0.39232 0.49874 0.0
C688 C 0.51207 0.462 0.55994 0.0
C689 C 0.55173 0.36 0.64996 0.0
C690 C 0.46552 0.35713 0.58549 0.0
C691 C 0.50007 0.41902 0.70279 0.0
O692 O 0.49588 0.37917 0.46373 0.0
O693 O 0.57122 0.40645 0.54344 0.0
O694 O 0.49547 0.45219 0.59203 0.0
O695 O 0.54194 0.35097 0.60399 0.0
O696 O 0.4594 0.37947 0.56924 0.0
O697 O 0.52005 0.42945 0.6818 0.0
O698 O 0.488 0.34927 0.58194 0.0
O699 O 0.5537 0.3841 0.66006 0.0
O700 O 0.48275 0.4094 0.6708 0.0
O701 O 0.551 0.37835 0.48699 0.0
O702 O 0.48152 0.41867 0.48582 0.0
O703 O 0.5336 0.45122 0.55577 0.0
C704 C 0.12375 0.27272 0.90278 0.0
C705 C 0.14451 0.26019 0.87834 0.0
H706 H 0.10299 0.28073 0.97965 0.0
C707 C 0.16129 0.24678 0.91473 0.0
H708 H 0.11031 0.28282 0.87578 0.0
C709 C 0.15697 0.24513 0.97396 0.0
C710 C 0.13572 0.25685 0.99844 0.0
H711 H 0.17753 0.23689 0.89708 0.0
H712 H 0.17023 0.23452 0.00041 0.0
C713 C 0.11936 0.27103 0.96223 0.0
C714 C 0.01965 0.92698 0.33471 0.0
C715 C 0.00441 0.91273 0.29644 0.0
H716 H 0.03042 0.93374 0.42286 0.0
C717 C 0.98807 0.89397 0.31927 0.0
H718 H 0.03248 0.94156 0.3185 0.0
C719 C 0.98736 0.88911 0.37849 0.0
C720 C 0.0027 0.90311 0.41688 0.0
H721 H 0.97621 0.88247 0.29123 0.0
H722 H 0.97453 0.8744 0.39419 0.0
C723 C 0.01857 0.92243 0.39443 0.0
C724 C 0.33311 0.73868 0.39075 0.0
C725 C 0.31934 0.76007 0.37199 0.0
H726 H 0.35163 0.72029 0.46163 0.0
C727 C 0.31147 0.77851 0.4123 0.0
H728 H 0.33976 0.7245 0.36019 0.0
C729 C 0.31833 0.77626 0.47016 0.0
C730 C 0.33361 0.7558 0.48838 0.0
H731 H 0.30102 0.79531 0.39843 0.0
H732 H 0.31252 0.79106 0.50009 0.0
C733 C 0.34037 0.73665 0.44848 0.0
C734 C 0.5037 0.10237 0.79851 0.0
C735 C 0.48714 0.08416 0.7747 0.0
H736 H 0.51719 0.12094 0.87434 0.0
C737 C 0.47174 0.06951 0.81213 0.0
H738 H 0.51573 0.11408 0.77115 0.0
C739 C 0.4727 0.07333 0.87205 0.0
C740 C 0.4886 0.09232 0.89538 0.0
H741 H 0.45879 0.05527 0.79509 0.0
H742 H 0.46062 0.06189 0.89986 0.0
C743 C 0.50429 0.10651 0.85786 0.0
C744 C 0.16853 0.76535 0.59416 0.0
C745 C 0.15642 0.74818 0.63225 0.0
H746 H 0.17277 0.77833 0.50707 0.0
C747 C 0.13978 0.72967 0.61022 0.0
H748 H 0.1815 0.77982 0.61018 0.0
C749 C 0.13442 0.72915 0.55134 0.0
C750 C 0.14583 0.74696 0.51341 0.0
H751 H 0.12999 0.71642 0.63871 0.0
H752 H 0.12122 0.71483 0.53568 0.0
C753 C 0.16338 0.76467 0.53524 0.0
C754 C 0.46644 0.93398 0.66355 0.0
C755 C 0.48195 0.92008 0.70191 0.0
H756 H 0.45567 0.94068 0.57522 0.0
C757 C 0.4989 0.90205 0.6791 0.0
H758 H 0.45317 0.94803 0.67973 0.0
C759 C 0.49987 0.89746 0.61991 0.0
C760 C 0.48419 0.91102 0.58145 0.0
H761 H 0.51104 0.89086 0.70716 0.0
H762 H 0.51311 0.88325 0.60427 0.0
C763 C 0.46779 0.92974 0.60376 0.0
C764 C 0.31324 0.2346 0.07629 0.0
C765 C 0.32651 0.24975 0.11617 0.0
H766 H 0.31043 0.22154 0.98911 0.0
C767 C 0.34631 0.26551 0.0968 0.0
H768 H 0.2983 0.22181 0.09075 0.0
C769 C 0.35389 0.26471 0.03905 0.0
C770 C 0.34163 0.24827 -0.00029 0.0
H771 H 0.35727 0.27677 0.12716 0.0
H772 H 0.36978 0.27646 0.02563 0.0
C773 C 0.32055 0.23404 0.01846 0.0
C774 C 0.98775 0.10302 0.2067 0.0
C775 C 0.00382 0.08427 0.22997 0.0
H776 H 0.97535 0.12307 0.13161 0.0
C777 C 0.0196 0.07036 0.1924 0.0
H778 H 0.9755 0.11423 0.23428 0.0
C779 C 0.01946 0.07536 0.13288 0.0
C780 C 0.00399 0.09481 0.11012 0.0
H781 H 0.03224 0.05577 0.20904 0.0
H782 H 0.03175 0.06439 0.10496 0.0
C783 C 0.98796 0.10833 0.14774 0.0
C784 C 0.82296 0.77791 0.03125 0.0
C785 C 0.83593 0.75634 0.01079 0.0
H786 H 0.80942 0.79796 0.10546 0.0
C787 C 0.84252 0.73658 0.04965 0.0
H788 H 0.81735 0.79322 0.0022 0.0
C789 C 0.83735 0.73896 0.1084 0.0
C790 C 0.82588 0.7613 0.12908 0.0
H791 H 0.85201 0.7194 0.03479 0.0
H792 H 0.84371 0.72413 0.13792 0.0
C793 C 0.81821 0.78049 0.09007 0.0
C794 C 0.00819 0.10357 0.7062 0.0
C795 C 0.99268 0.08442 0.73027 0.0
H796 H 0.02027 0.12322 0.6302 0.0
C797 C 0.97769 0.06931 0.69312 0.0
H798 H 0.01983 0.11569 0.73337 0.0
C799 C 0.97802 0.07355 0.63326 0.0
C800 C -0.00712 0.09339 0.60965 0.0
H801 H 0.96551 0.05438 0.71034 0.0
H802 H 0.96629 0.0617 0.60571 0.0
C803 C 0.00815 0.1081 0.64688 0.0
C804 C 0.66173 0.24111 0.58341 0.0
C805 C 0.64568 0.25544 0.61952 0.0
H806 H 0.67022 0.22867 0.49779 0.0
C807 C 0.62593 0.2695 0.59471 0.0
H808 H 0.6772 0.23007 0.60133 0.0
C809 C 0.62172 0.2684 0.53517 0.0
C810 C 0.63727 0.25329 0.49922 0.0
H811 H 0.61308 0.28041 0.62146 0.0
H812 H 0.6061 0.27926 0.51748 0.0
C813 C 0.6576 0.24005 0.52405 0.0
C814 C 0.51053 0.93058 0.10341 0.0
C815 C 0.49482 0.91118 0.08105 0.0
H816 H 0.52438 0.94949 0.17939 0.0
C817 C 0.47943 0.89707 0.11933 0.0
H818 H 0.52236 0.94197 0.07498 0.0
C819 C 0.48009 0.90176 0.17849 0.0
C820 C 0.49644 0.92044 0.20132 0.0
H821 H 0.46669 0.88234 0.10357 0.0
H822 H 0.46828 0.89013 0.20652 0.0
C823 C 0.51158 0.93493 0.16312 0.0
C824 C 0.82104 0.22954 0.47854 0.0
C825 C 0.84243 0.24325 0.49724 0.0
H826 H 0.7985 0.21798 0.40631 0.0
C827 C 0.85494 0.25959 0.45786 0.0
H828 H 0.81069 0.21715 0.5079 0.0
C829 C 0.84732 0.26073 0.40014 0.0
C830 C 0.82721 0.24545 0.38081 0.0
H831 H 0.87107 0.27097 0.47121 0.0
H832 H 0.85852 0.27181 0.36975 0.0
C833 C 0.81366 0.23046 0.42074 0.0
C834 C 0.48386 0.10643 0.3566 0.0
C835 C 0.49969 0.09286 0.39475 0.0
H836 H 0.47187 0.1125 0.26977 0.0
C837 C 0.51522 0.07339 0.37263 0.0
H838 H 0.4712 0.12118 0.37224 0.0
C839 C 0.51571 0.06849 0.31311 0.0
C840 C 0.50018 0.08252 0.275 0.0
H841 H 0.52735 0.06239 0.40104 0.0
H842 H 0.52842 0.05393 0.29689 0.0
C843 C 0.48397 0.10122 0.29772 0.0
C844 C 0.65196 0.74421 0.8886 0.0
C845 C 0.66652 0.76503 0.86931 0.0
H846 H 0.63293 0.72677 0.96009 0.0
C847 C 0.67568 0.78305 0.90926 0.0
H848 H 0.64432 0.7304 0.85827 0.0
C849 C 0.66909 0.78115 0.96736 0.0
C850 C 0.65279 0.76151 0.986 0.0
H851 H 0.68672 0.79944 0.89485 0.0
H852 H 0.67573 0.79574 0.99702 0.0
C853 C 0.64497 0.74256 0.94652 0.0
C854 C 0.97632 0.92354 0.89431 0.0
C855 C 0.99158 0.90384 0.91687 0.0
H856 H 0.96297 0.94286 0.8182 0.0
C857 C 0.00648 0.8894 0.87862 0.0
H858 H 0.96482 0.93517 0.92265 0.0
C859 C 0.00591 0.89417 0.8194 0.0
C860 C 0.99013 0.91328 0.79642 0.0
H861 H 0.01884 0.87438 0.89445 0.0
H862 H 0.01739 0.88231 0.79147 0.0
C863 C 0.97536 0.928 0.83455 0.0
C864 C 0.63506 0.77333 0.45003 0.0
C865 C 0.64625 0.75549 0.48805 0.0
H866 H 0.63071 0.78594 0.36258 0.0
C867 C 0.66351 0.73758 0.4663 0.0
H868 H 0.62208 0.78779 0.46563 0.0
C869 C 0.66856 0.73674 0.40737 0.0
C870 C 0.65665 0.75395 0.36919 0.0
H871 H 0.67272 0.72389 0.49456 0.0
H872 H 0.68129 0.72212 0.3914 0.0
C873 C 0.64033 0.77265 0.39113 0.0
C874 C 0.4819 0.398 0.79055 0.0
C875 C 0.49784 0.41676 0.76642 0.0
H876 H 0.46932 0.37877 0.86669 0.0
C877 C 0.51313 0.43159 0.80351 0.0
H878 H 0.47002 0.38611 0.76341 0.0
C879 C 0.51266 0.42746 0.86337 0.0
C880 C 0.49734 0.40802 0.8871 0.0
H881 H 0.52564 0.44622 0.78624 0.0
H882 H 0.52463 0.43909 0.89085 0.0
C883 C 0.48178 0.39358 0.84993 0.0
C884 C 0.82479 0.2562 0.91371 0.0
C885 C 0.84129 0.24241 0.87762 0.0
H886 H 0.816 0.26856 0.99923 0.0
C887 C 0.86166 0.22926 0.9024 0.0
H888 H 0.80885 0.26655 0.89582 0.0
C889 C 0.86596 0.23074 0.96187 0.0
C890 C 0.8499 0.2453 0.99779 0.0
H891 H 0.87488 0.21882 0.87564 0.0
H892 H 0.88203 0.22057 0.97954 0.0
C893 C 0.82902 0.25763 0.97299 0.0
C894 C 0.96447 0.56858 0.33718 0.0
C895 C 0.98024 0.58231 0.29886 0.0
H896 H 0.95346 0.56212 0.42545 0.0
C897 C -0.0026 0.60024 0.32167 0.0
H898 H 0.95104 0.55461 0.32098 0.0
C899 C -0.00168 0.60494 0.38081 0.0
C900 C 0.98237 0.59158 0.41922 0.0
H901 H 0.00973 0.61129 0.29363 0.0
H902 H 0.01172 0.61908 0.39646 0.0
C903 C 0.96578 0.57292 0.39693 0.0
C904 C 0.66603 0.26795 0.01834 0.0
C905 C 0.64433 0.25471 -0.00017 0.0
H906 H 0.68887 0.27906 0.09041 0.0
C907 C 0.63151 0.23867 0.03929 0.0
H908 H 0.67661 0.28009 0.98888 0.0
C909 C 0.63915 0.2374 0.09696 0.0
C910 C 0.6596 0.25226 0.11612 0.0
H911 H 0.61512 0.22763 0.02606 0.0
H912 H 0.62775 0.22659 0.12746 0.0
C913 C 0.67344 0.26691 0.07609 0.0
C914 C 0.9656 0.42895 0.12559 0.0
C915 C 0.98152 0.40984 0.10329 0.0
H916 H 0.95213 0.4481 0.20148 0.0
C917 C -0.00228 0.39663 0.14128 0.0
H918 H 0.95319 0.43969 0.09732 0.0
C919 C -0.00239 0.40184 0.20017 0.0
C920 C 0.98104 0.42016 0.22306 0.0
H921 H 0.01068 0.38219 0.1255 0.0
H922 H 0.01001 0.39084 0.228 0.0
C923 C 0.96512 0.43383 0.18512 0.0
C924 C 0.84121 0.76704 0.55257 0.0
C925 C 0.83429 0.74787 0.51276 0.0
H926 H 0.8407 0.7793 0.64078 0.0
C927 C 0.81883 0.72747 0.53108 0.0
H928 H 0.85262 0.78336 0.53935 0.0
C929 C 0.81193 0.72532 0.58894 0.0
C930 C 0.81994 0.74378 0.62914 0.0
H931 H 0.81289 0.71265 0.50123 0.0
H932 H 0.80132 0.70856 0.60288 0.0
C933 C 0.83392 0.76511 0.61029 0.0
C934 C 0.48569 0.61492 0.62279 0.0
C935 C 0.50076 0.60068 0.58449 0.0
H936 H 0.47472 0.62184 0.71003 0.0
C937 C 0.51635 0.58126 0.60708 0.0
H938 H 0.47309 0.62973 0.60698 0.0
C939 C 0.5174 0.57681 0.66684 0.0
C940 C 0.50242 0.59128 0.70503 0.0
H941 H 0.52799 0.56978 0.57874 0.0
H942 H 0.53 0.56213 0.68313 0.0
C943 C 0.48637 0.61017 0.68206 0.0
C944 C 0.3656 0.23548 0.53508 0.0
C945 C 0.34959 0.25005 0.49882 0.0
H946 H 0.37446 0.22366 0.62159 0.0
C947 C 0.32871 0.26243 0.5233 0.0
H948 H 0.38167 0.22528 0.51766 0.0
C949 C 0.32443 0.26105 0.58258 0.0
C950 C 0.34091 0.24728 0.619 0.0
H951 H 0.31571 0.27335 0.49681 0.0
H952 H 0.30851 0.27145 0.60023 0.0
C953 C 0.36126 0.23407 0.59457 0.0
C954 C 0.47361 0.57596 0.16654 0.0
C955 C 0.48858 0.59051 0.20478 0.0
H956 H 0.46294 0.56901 0.07843 0.0
C957 C 0.5046 0.60956 0.18198 0.0
H958 H 0.46103 0.56115 0.18276 0.0
C959 C 0.50521 0.61443 0.12279 0.0
C960 C 0.4901 0.60015 0.08445 0.0
H961 H 0.51623 0.62129 0.21003 0.0
H962 H 0.51776 0.62938 0.10708 0.0
C963 C 0.4746 0.58052 0.10685 0.0
C964 C 0.14414 0.7595 0.05468 0.0
C965 C 0.15219 0.74066 0.01533 0.0
H966 H 0.14334 0.77179 0.14283 0.0
C967 C 0.16873 0.72135 0.03416 0.0
H968 H 0.13191 0.77504 0.04099 0.0
C969 C 0.17534 0.71968 0.09229 0.0
C970 C 0.16599 0.73759 0.13209 0.0
H971 H 0.17556 0.70686 0.00461 0.0
H972 H 0.18658 0.70352 0.10683 0.0
C973 C 0.15115 0.75808 0.11262 0.0
C974 C 0.00919 0.43457 0.68598 0.0
C975 C -0.00585 0.41954 0.72343 0.0
H976 H 0.02023 0.44233 0.59824 0.0
C977 C 0.97821 0.40076 0.69965 0.0
H978 H 0.02167 0.44924 0.70299 0.0
C979 C 0.97787 0.39646 0.64035 0.0
C980 C -0.00681 0.41105 0.6028 0.0
H981 H 0.96648 0.38873 0.72702 0.0
H982 H 0.96545 0.38159 0.62394 0.0
C983 C 0.00846 0.43058 0.62607 0.0
C984 C 0.32246 0.72594 0.97 0.0
C985 C 0.33535 0.74766 0.9904 0.0
H986 H 0.30908 0.70568 0.89582 0.0
C987 C 0.34193 0.76744 0.95149 0.0
H988 H 0.31687 0.71061 0.9991 0.0
C989 C 0.33685 0.76494 0.89273 0.0
C990 C 0.32549 0.74246 0.87212 0.0
H991 H 0.35136 0.78473 0.96633 0.0
H992 H 0.3432 0.77979 0.86317 0.0
C993 C 0.31781 0.72325 0.91117 0.0
C994 C 0.00888 0.57199 0.89707 0.0
C995 C -0.00656 0.59149 0.91952 0.0
H996 H 0.02242 0.55298 0.821 0.0
C997 C 0.97826 0.60574 0.88127 0.0
H998 H 0.02056 0.56048 0.92546 0.0
C999 C 0.97881 0.60106 0.82209 0.0
C1000 C -0.00514 0.58225 0.79917 0.0
H1001 H 0.96573 0.62057 0.89707 0.0
H1002 H 0.96714 0.6128 0.79412 0.0
C1003 C 0.00984 0.56764 0.83732 0.0
C1004 C 0.16468 0.27384 0.47872 0.0
C1005 C 0.14382 0.25932 0.49762 0.0
H1006 H 0.18674 0.2863 0.40631 0.0
C1007 C 0.13179 0.24266 0.45838 0.0
H1008 H 0.17464 0.28652 0.50798 0.0
C1009 C 0.13936 0.2419 0.40061 0.0
C1010 C 0.15893 0.25791 0.38109 0.0
H1011 H 0.11607 0.23069 0.4719 0.0
H1012 H 0.12854 0.23045 0.37035 0.0
C1013 C 0.172 0.27331 0.42087 0.0
C1014 C 0.50251 0.3933 0.3488 0.0
C1015 C 0.48695 0.40733 0.38653 0.0
H1016 H 0.51473 0.38709 0.26218 0.0
C1017 C 0.47216 0.42734 0.36393 0.0
H1018 H 0.51461 0.3781 0.36481 0.0
C1019 C 0.47218 0.43244 0.30446 0.0
C1020 C 0.48747 0.41804 0.26677 0.0
H1021 H 0.46025 0.4387 0.39194 0.0
H1022 H 0.46004 0.44749 0.28795 0.0
C1023 C 0.5029 0.3987 0.28986 0.0
C1024 C 0.10833 0.37617 0.00447 0.0
C1025 C 0.08838 0.39024 0.02889 0.0
H1026 H 0.13651 0.34719 0.0191 0.0
C1027 C 0.08615 0.39119 0.08913 0.0
H1028 H 0.11002 0.37464 0.95803 0.0
C1029 C 0.10154 0.37586 0.12395 0.0
C1030 C 0.11916 0.3591 0.09903 0.0
H1031 H 0.07062 0.40148 0.10885 0.0
H1032 H 0.09751 0.37475 0.16974 0.0
C1033 C 0.12351 0.36043 0.03939 0.0
C1034 C 0.8598 0.85746 0.48289 0.0
C1035 C 0.86402 0.85564 0.42333 0.0
H1036 H 0.87365 0.87209 0.56335 0.0
C1037 C 0.88201 0.87189 0.3974 0.0
H1038 H 0.84654 0.84459 0.50394 0.0
C1039 C 0.89786 0.88715 0.43133 0.0
C1040 C 0.89559 0.88676 0.49157 0.0
H1041 H 0.88597 0.87032 0.35167 0.0
H1042 H 0.91367 0.89692 0.41107 0.0
C1043 C 0.87533 0.87323 0.51682 0.0
C1044 C 0.3586 0.64646 0.51829 0.0
C1045 C 0.363 0.64817 0.57779 0.0
H1046 H 0.37212 0.63193 0.43758 0.0
C1047 C 0.38086 0.63181 0.60345 0.0
H1048 H 0.3454 0.6594 0.49751 0.0
C1049 C 0.39647 0.61655 0.56924 0.0
C1050 C 0.39407 0.6171 0.50903 0.0
H1051 H 0.38493 0.63329 0.64915 0.0
H1052 H 0.41224 0.6067 0.58924 0.0
C1053 C 0.37389 0.6307 0.48409 0.0
C1054 C 0.61031 0.1319 0.88566 0.0
C1055 C 0.62385 0.15153 0.91354 0.0
H1056 H 0.58261 0.102 0.89547 0.0
C1057 C 0.62566 0.15122 0.97388 0.0
H1058 H 0.6082 0.13217 0.83915 0.0
C1059 C 0.61178 0.13327 0.00602 0.0
C1060 C 0.59522 0.11616 0.97818 0.0
H1061 H 0.63552 0.16652 0.99623 0.0
H1062 H 0.61122 0.13528 0.05253 0.0
C1063 C 0.5957 0.11456 0.91782 0.0
C1064 C 0.1258 0.64062 0.48153 0.0
C1065 C 0.12134 0.64158 0.42187 0.0
H1066 H 0.11194 0.62784 0.56389 0.0
C1067 C 0.10247 0.62571 0.39829 0.0
H1068 H 0.13969 0.65329 0.50088 0.0
C1069 C 0.0863 0.61164 0.43423 0.0
C1070 C 0.08904 0.61281 0.49433 0.0
H1071 H 0.09825 0.62665 0.35258 0.0
H1072 H 0.0701 0.60202 0.41539 0.0
C1073 C 0.10986 0.62609 0.51757 0.0
C1074 C 0.58754 0.89072 0.56586 0.0
C1075 C 0.59044 0.88932 0.50584 0.0
H1076 H 0.59912 0.87595 0.64792 0.0
C1077 C 0.61123 0.87597 0.4831 0.0
H1078 H 0.57136 0.90043 0.58426 0.0
C1079 C 0.62696 0.86155 0.51961 0.0
C1080 C 0.62228 0.86078 0.57918 0.0
H1081 H 0.61344 0.87408 0.43685 0.0
H1082 H 0.64081 0.84881 0.50069 0.0
C1083 C 0.60349 0.87675 0.60226 0.0
C1084 C 0.35991 0.35287 0.96924 0.0
C1085 C 0.36188 0.35226 0.90896 0.0
H1086 H 0.37458 0.36874 0.04746 0.0
C1087 C 0.37574 0.37158 0.88051 0.0
H1088 H 0.34976 0.33782 0.99201 0.0
C1089 C 0.39065 0.3887 0.91221 0.0
C1090 C 0.39109 0.38721 0.97259 0.0
H1091 H 0.37793 0.37108 0.83404 0.0
H1092 H 0.40403 0.4009 0.88956 0.0
C1093 C 0.3741 0.37063 0.00089 0.0
C1094 C 0.87749 0.126 0.0082 0.0
C1095 C 0.89747 0.11206 0.03305 0.0
H1096 H 0.84924 0.15491 0.02205 0.0
C1097 C 0.89957 0.11106 0.09333 0.0
H1098 H 0.87591 0.12755 0.96172 0.0
C1099 C 0.88406 0.12634 0.12774 0.0
C1100 C 0.8665 0.14308 0.10232 0.0
H1101 H 0.91512 0.10086 0.11335 0.0
H1102 H 0.88803 0.1275 0.17354 0.0
C1103 C 0.86221 0.14169 0.04269 0.0
C1104 C 0.89067 0.61599 0.93303 0.0
C1105 C 0.88813 0.61668 0.99319 0.0
H1106 H 0.87921 0.63224 0.85227 0.0
C1107 C 0.86802 0.63063 0.01734 0.0
H1108 H 0.90636 0.60589 0.91353 0.0
C1109 C 0.8527 0.64619 0.98225 0.0
C1110 C 0.85702 0.6475 0.92259 0.0
H1111 H 0.86614 0.63202 0.06377 0.0
H1112 H 0.8395 0.65925 0.00242 0.0
C1113 C 0.87506 0.63106 0.898 0.0
C1114 C 0.11478 0.13616 0.49629 0.0
C1115 C 0.09853 0.1189 0.52484 0.0
H1116 H 0.13779 0.16996 0.50476 0.0
C1117 C 0.09911 0.11752 0.58524 0.0
H1118 H 0.11415 0.13795 0.44971 0.0
C1119 C 0.11338 0.13529 0.6167 0.0
C1120 C 0.12643 0.15511 0.588 0.0
H1121 H 0.08628 0.10479 0.60807 0.0
H1122 H 0.11126 0.13573 0.66319 0.0
C1123 C 0.12829 0.15454 0.52771 0.0
C1124 C 0.59041 0.38862 0.40345 0.0
C1125 C 0.59262 0.38749 0.46368 0.0
H1126 H 0.60147 0.37204 0.32304 0.0
C1127 C 0.61244 0.37322 0.48824 0.0
H1128 H 0.57498 0.3991 0.38368 0.0
C1129 C 0.62736 0.3573 0.4535 0.0
C1130 C 0.62288 0.35602 0.39394 0.0
H1131 H 0.61411 0.3716 0.5347 0.0
H1132 H 0.64015 0.34383 0.47392 0.0
C1133 C 0.60557 0.37311 0.36879 0.0
C1134 C 0.37587 0.87293 0.1034 0.0
C1135 C 0.35753 0.85668 0.07888 0.0
H1136 H 0.40762 0.89773 0.08785 0.0
C1137 C 0.35329 0.85799 0.01917 0.0
H1138 H 0.37999 0.87173 0.14914 0.0
C1139 C 0.3689 0.87334 0.98404 0.0
C1140 C 0.38923 0.88712 0.00814 0.0
H1141 H 0.33988 0.84505 0.99901 0.0
H1142 H 0.36701 0.87193 0.93762 0.0
C1143 C 0.39176 0.8878 0.06833 0.0
C1144 C 0.88661 0.38473 0.57993 0.0
C1145 C 0.88727 0.38319 0.51958 0.0
H1146 H 0.87461 0.36662 0.6584 0.0
C1147 C 0.87141 0.36549 0.49149 0.0
H1148 H 0.89918 0.39778 0.60244 0.0
C1149 C 0.85815 0.347 0.52342 0.0
C1150 C 0.85984 0.34672 0.58376 0.0
H1151 H 0.87213 0.36354 0.44497 0.0
H1152 H 0.8489 0.33135 0.50091 0.0
C1153 C 0.87258 0.36683 0.61187 0.0
C1154 C 0.38088 0.13015 0.37368 0.0
C1155 C 0.36358 0.14737 0.39821 0.0
H1156 H 0.4112 0.10389 0.38944 0.0
C1157 C 0.35905 0.14627 0.4578 0.0
H1158 H 0.38503 0.13108 0.32793 0.0
C1159 C 0.37381 0.13028 0.49308 0.0
C1160 C 0.39351 0.11573 0.46905 0.0
H1161 H 0.3463 0.15985 0.47776 0.0
H1162 H 0.37205 0.13196 0.53948 0.0
C1163 C 0.39585 0.11456 0.40886 0.0
C1164 C 0.59657 0.61837 0.06776 0.0
C1165 C 0.59724 0.61973 0.00734 0.0
H1166 H 0.60925 0.63501 0.14707 0.0
C1167 C 0.61565 0.63527 0.98064 0.0
H1168 H 0.5821 0.60707 0.08924 0.0
C1169 C 0.63062 0.65192 0.01365 0.0
C1170 C 0.62796 0.65254 0.07382 0.0
H1171 H 0.61603 0.63717 0.93407 0.0
H1172 H 0.64215 0.6662 0.99184 0.0
C1173 C 0.61213 0.63439 0.10081 0.0
C1174 C 0.11311 0.86772 0.9011 0.0
C1175 C 0.1284 0.84921 0.9281 0.0
H1176 H 0.08383 0.89567 0.91264 0.0
C1177 C 0.13098 0.84964 0.98829 0.0
H1178 H 0.11032 0.86726 0.85479 0.0
C1179 C 0.11643 0.86655 0.0213 0.0
C1180 C 0.0985 0.88253 0.99454 0.0
H1181 H 0.14211 0.83509 0.01005 0.0
H1182 H 0.11669 0.86456 0.06785 0.0
C1183 C 0.09794 0.88402 0.93415 0.0
C1184 C 0.25127 0.26103 0.30316 0.0
C1185 C 0.26154 0.23933 0.27557 0.0
H1186 H 0.22455 0.29185 0.2999 0.0
C1187 C 0.25214 0.23257 0.22092 0.0
H1188 H 0.25819 0.26702 0.345 0.0
C1189 C 0.23314 0.24714 0.19455 0.0
C1190 C 0.22291 0.26887 0.22206 0.0
H1191 H 0.25986 0.21634 0.19776 0.0
H1192 H 0.22626 0.24117 0.15266 0.0
C1193 C 0.23225 0.27559 0.27679 0.0
C1194 C 0.98691 0.0045 0.46149 0.0
C1195 C 0.00966 0.0175 0.47482 0.0
H1196 H 0.95894 0.97692 0.48775 0.0
C1197 C 0.02147 0.01226 0.52758 0.0
H1198 H 0.97717 0.00811 0.42119 0.0
C1199 C 0.01074 0.99447 0.56601 0.0
C1200 C 0.98793 0.98158 0.55265 0.0
H1201 H 0.03866 0.02224 0.53967 0.0
H1202 H 0.02046 0.99068 0.60626 0.0
C1203 C 0.97614 0.98686 0.49996 0.0
C1204 C 0.24436 0.74354 0.82269 0.0
C1205 C 0.23132 0.76462 0.79886 0.0
H1206 H 0.27003 0.71254 0.80806 0.0
C1207 C 0.2383 0.77344 0.74383 0.0
H1208 H 0.23915 0.73615 0.86482 0.0
C1209 C 0.25557 0.75953 0.71064 0.0
C1210 C 0.26636 0.73667 0.73199 0.0
H1211 H 0.22827 0.78925 0.72377 0.0
H1212 H 0.25949 0.76602 0.66709 0.0
C1213 C 0.26141 0.7295 0.78939 0.0
C1214 C 0.50046 0.99966 0.93247 0.0
C1215 C 0.47894 0.98518 0.94864 0.0
H1216 H 0.52895 0.02689 0.95791 0.0
C1217 C 0.4703 0.98676 0.00557 0.0
H1218 H 0.50776 0.99867 0.88889 0.0
C1219 C 0.48283 0.0025 0.04526 0.0
C1220 C 0.50424 0.01712 0.02901 0.0
H1221 H 0.45428 0.9754 0.01982 0.0
H1222 H 0.47549 0.00352 0.08881 0.0
C1223 C 0.51298 0.01544 0.97218 0.0
C1224 C 0.24799 0.74066 0.19588 0.0
C1225 C 0.25727 0.76379 0.21954 0.0
H1226 H 0.2249 0.70708 0.20747 0.0
C1227 C 0.2498 0.77036 0.27577 0.0
H1228 H 0.25345 0.73482 0.15286 0.0
C1229 C 0.23368 0.75418 0.30745 0.0
C1230 C 0.22447 0.731 0.28387 0.0
H1231 H 0.25686 0.78771 0.29594 0.0
H1232 H 0.22826 0.76 0.35052 0.0
C1233 C 0.23189 0.72448 0.22758 0.0
C1234 C 0.51364 0.98874 0.50201 0.0
C1235 C 0.50286 0.98593 0.44727 0.0
H1236 H 0.51161 0.00721 0.58403 0.0
C1237 C 0.48094 1.00012 0.43359 0.0
H1238 H 0.5301 0.97769 0.51434 0.0
C1239 C 0.47 0.0167 0.47376 0.0
C1240 C 0.48079 0.01952 0.5285 0.0
H1241 H 0.47205 0.99823 0.39172 0.0
H1242 H 0.45356 0.02779 0.46142 0.0
C1243 C 0.5027 0.00531 0.54218 0.0
C1244 C 0.23331 0.27079 0.706 0.0
C1245 C 0.22141 0.24715 0.71831 0.0
H1246 H 0.26415 0.2962 0.72457 0.0
C1247 C 0.23114 0.2313 0.76173 0.0
H1248 H 0.22561 0.28364 0.6736 0.0
C1249 C 0.25243 0.23903 0.79243 0.0
C1250 C 0.26446 0.26258 0.77983 0.0
H1251 H 0.22169 0.21355 0.77364 0.0
H1252 H 0.26009 0.22616 0.82483 0.0
C1253 C 0.25467 0.27848 0.73659 0.0
C1254 C 0.02141 0.98687 0.00081 0.0
C1255 C 0.0089 0.98094 0.05235 0.0
H1256 H 0.02147 0.00915 0.92331 0.0
C1257 C 0.98585 0.99346 0.06461 0.0
H1258 H 0.03884 0.97727 0.98948 0.0
C1259 C 0.9756 0.0115 0.02635 0.0
C1260 C 0.98817 0.01751 0.97492 0.0
H1261 H 0.97557 0.98923 0.10392 0.0
H1262 H 0.95821 0.02116 0.03774 0.0
C1263 C 0.01116 0.00489 0.96256 0.0
C1264 C 0.75011 0.73315 0.72576 0.0
C1265 C 0.75763 0.73989 0.78189 0.0
H1266 H 0.72854 0.74323 0.65099 0.0
C1267 C 0.74839 0.763 0.80539 0.0
H1268 H 0.75714 0.71581 0.70573 0.0
C1269 C 0.73228 0.77901 0.77359 0.0
C1270 C 0.72483 0.77231 0.7174 0.0
H1271 H 0.75389 0.76895 0.84833 0.0
H1272 H 0.72533 0.7964 0.79356 0.0
C1273 C 0.734 0.74915 0.69398 0.0
C1274 C 0.73378 0.26988 0.21926 0.0
C1275 C 0.72463 0.26369 0.27455 0.0
H1276 H 0.75943 0.26063 0.15113 0.0
C1277 C 0.73509 0.24235 0.30346 0.0
H1278 H 0.7259 0.28582 0.19511 0.0
C1279 C 0.75406 0.22757 0.27776 0.0
C1280 C 0.76316 0.23373 0.2224 0.0
H1281 H 0.72836 0.23681 0.34585 0.0
H1282 H 0.76192 0.21162 0.30186 0.0
C1283 C 0.75274 0.2551 0.19356 0.0
C1284 C 0.73382 0.26402 0.79179 0.0
C1285 C 0.72174 0.24039 0.78064 0.0
H1286 H 0.76453 0.28931 0.77124 0.0
C1287 C 0.73143 0.22411 0.73822 0.0
H1288 H 0.72624 0.27716 0.82354 0.0
C1289 C 0.75273 0.23152 0.70699 0.0
C1290 C 0.76468 0.25526 0.71782 0.0
H1291 H 0.72191 0.20631 0.72731 0.0
H1292 H 0.76034 0.2184 0.67524 0.0
C1293 C 0.75505 0.27147 0.76044 0.0
C1294 C 0.73842 0.72942 0.25875 0.0
C1295 C 0.73155 0.7379 0.20342 0.0
H1296 H 0.75957 0.73728 0.33542 0.0
C1297 C 0.74465 0.75894 0.17922 0.0
H1298 H 0.72833 0.71366 0.27913 0.0
C1299 C 0.76171 0.77323 0.2123 0.0
C1300 C 0.76661 0.76635 0.26988 0.0
H1301 H 0.73952 0.76611 0.13688 0.0
H1302 H 0.7704 0.79012 0.19328 0.0
C1303 C 0.75571 0.74355 0.2917 0.0
C1304 C 0.48209 0.50995 0.93383 0.0
C1305 C 0.50505 0.52251 0.94762 0.0
H1306 H 0.45394 0.48222 0.95897 0.0
C1307 C 0.51681 0.51666 5e-05 0.0
H1308 H 0.47237 0.51415 0.89379 0.0
C1309 C 0.50592 0.49872 0.03771 0.0
C1310 C 0.48305 0.48604 0.02386 0.0
H1311 H 0.53412 0.52631 0.01258 0.0
H1312 H 0.51567 0.49458 0.07775 0.0
C1313 C 0.47122 0.49193 0.97148 0.0
C1314 C 0.00849 0.51531 0.49598 0.0
C1315 C -0.00095 0.51697 0.55221 0.0
H1316 H 0.00453 0.49845 0.41258 0.0
C1317 C 0.97749 0.50229 0.56712 0.0
H1318 H 0.02458 0.52682 0.48269 0.0
C1319 C 0.96566 0.4863 0.52676 0.0
C1320 C 0.97512 0.48465 0.47052 0.0
H1321 H 0.96959 0.50335 0.61016 0.0
H1322 H 0.94958 0.47477 0.54001 0.0
C1323 C -0.00337 0.49941 0.45562 0.0
C1324 C 0.97646 0.49861 0.95578 0.0
C1325 C -0.00164 0.48451 0.97016 0.0
H1326 H 0.94849 0.52582 0.98304 0.0
C1327 C 0.00862 0.48723 0.02545 0.0
H1328 H 0.96794 0.49679 0.91349 0.0
C1329 C -0.00288 0.50348 0.06553 0.0
C1330 C 0.97515 0.51749 0.05127 0.0
H1331 H 0.02503 0.47622 0.03834 0.0
H1332 H 0.00559 0.50518 0.1079 0.0
C1333 C 0.96497 0.5149 0.99585 0.0
C1334 C 0.50756 0.50915 0.43535 0.0
C1335 C 0.48437 0.52149 0.447 0.0
H1336 H 0.53487 0.48108 0.46216 0.0
C1337 C 0.47115 0.51479 0.49711 0.0
H1338 H 0.51837 0.51399 0.39712 0.0
C1339 C 0.48091 0.49627 0.53474 0.0
C1340 C 0.50407 0.48386 0.52309 0.0
H1341 H 0.45357 0.52421 0.50794 0.0
H1342 H 0.47008 0.49152 0.57297 0.0
C1343 C 0.5173 0.49055 0.47296 0.0
C1344 C 0.05423 0.18369 0.29267 0.0
C1345 C 0.0666 0.16006 0.30115 0.0
H1346 H 0.05559 0.22132 0.25512 0.0
C1347 C 0.08947 0.15559 0.27235 0.0
H1348 H 0.03639 0.18757 0.3138 0.0
C1349 C 0.10064 0.17511 0.23911 0.0
C1350 C 0.08888 0.19926 0.23311 0.0
H1351 H 0.09939 0.13758 0.27801 0.0
H1352 H 0.11893 0.1716 0.21981 0.0
C1353 C 0.06512 0.20298 0.25862 0.0
C1354 C 0.08478 0.83337 0.67592 0.0
C1355 C 0.0775 0.81454 0.71619 0.0
H1356 H 0.07287 0.86038 0.61202 0.0
C1357 C 0.05203 0.80673 0.71847 0.0
H1358 H 0.10426 0.83963 0.67253 0.0
C1359 C 0.03403 0.8185 0.68331 0.0
C1360 C 0.04115 0.83838 0.64552 0.0
H1361 H 0.04584 0.792 0.74846 0.0
H1362 H 0.01441 0.81285 0.68781 0.0
C1363 C 0.06678 0.84521 0.64106 0.0
C1364 C 0.41686 0.8036 0.73142 0.0
C1365 C 0.39207 0.80761 0.7119 0.0
H1366 H 0.4477 0.8182 0.78144 0.0
C1367 C 0.38042 0.83141 0.72259 0.0
H1368 H 0.42626 0.78543 0.7242 0.0
C1369 C 0.39284 0.85033 0.75473 0.0
C1370 C 0.41686 0.84552 0.77786 0.0
H1371 H 0.36132 0.83503 0.70793 0.0
H1372 H 0.38306 0.86809 0.76423 0.0
C1373 C 0.42903 0.82227 0.76463 0.0
C1374 C 0.40283 0.15859 0.15644 0.0
C1375 C 0.40898 0.18177 0.18398 0.0
H1376 H 0.41579 0.12753 0.10458 0.0
C1377 C 0.43289 0.19287 0.17465 0.0
H1378 H 0.38444 0.14974 0.16206 0.0
C1379 C 0.45089 0.18015 0.14158 0.0
C1380 C 0.44528 0.15613 0.11718 0.0
H1381 H 0.4381 0.21092 0.19461 0.0
H1382 H 0.46953 0.18862 0.13737 0.0
C1383 C 0.4208 0.14591 0.12328 0.0
C1384 C 0.05911 0.81632 0.23155 0.0
C1385 C 0.07147 0.83962 0.21901 0.0
H1386 H 0.06153 0.77907 0.27032 0.0
C1387 C 0.09577 0.84397 0.24113 0.0
H1388 H 0.04025 0.8126 0.21532 0.0
C1389 C 0.10818 0.82455 0.27194 0.0
C1390 C 0.09623 0.80073 0.28217 0.0
H1391 H 0.10569 0.86177 0.2319 0.0
H1392 H 0.1274 0.82788 0.28617 0.0
C1393 C 0.07125 0.79718 0.26333 0.0
C1394 C 0.41653 0.85772 0.35371 0.0
C1395 C 0.44101 0.84747 0.35794 0.0
H1396 H 0.3798 0.85446 0.31639 0.0
C1397 C 0.44639 0.82406 0.33064 0.0
H1398 H 0.41169 0.87565 0.37458 0.0
C1399 C 0.42806 0.81193 0.29705 0.0
C1400 C 0.40404 0.82301 0.29011 0.0
H1401 H 0.46505 0.81563 0.33315 0.0
H1402 H 0.43303 0.7943 0.2751 0.0
C1403 C 0.39824 0.84563 0.32009 0.0
C1404 C 0.41104 0.15472 0.74512 0.0
C1405 C 0.42645 0.16178 0.69839 0.0
H1406 H 0.38987 0.16749 0.81816 0.0
C1407 C 0.43456 0.18754 0.69357 0.0
H1408 H 0.40476 0.13502 0.75059 0.0
C1409 C 0.42642 0.20605 0.73282 0.0
C1410 C 0.4098 0.19928 0.77747 0.0
H1411 H 0.44689 0.1936 0.65877 0.0
H1412 H 0.43208 0.22588 0.72625 0.0
C1413 C 0.40269 0.17331 0.78407 0.0
C1414 C 0.06774 0.15578 0.88037 0.0
C1415 C 0.04186 0.16155 0.87891 0.0
H1416 H 0.10419 0.16292 0.84416 0.0
C1417 C 0.03312 0.18083 0.84138 0.0
H1418 H 0.075 0.14105 0.90901 0.0
C1419 C 0.04976 0.19307 0.80363 0.0
C1420 C 0.07546 0.18647 0.80326 0.0
H1421 H 0.01324 0.18561 0.83911 0.0
H1422 H 0.04238 0.20735 0.77404 0.0
C1423 C 0.08443 0.16825 0.8431 0.0
C1424 C 0.92985 0.81818 0.73144 0.0
C1425 C 0.91908 0.84215 0.71824 0.0
H1426 H 0.92482 0.78119 0.77049 0.0
C1427 C 0.89485 0.84783 0.73912 0.0
H1428 H 0.94859 0.81338 0.71612 0.0
C1429 C 0.88101 0.82918 0.76945 0.0
C1430 C 0.89142 0.80478 0.78059 0.0
H1431 H 0.88609 0.86613 0.72934 0.0
H1432 H 0.8619 0.8336 0.78275 0.0
C1433 C 0.91629 0.7998 0.76285 0.0
C1434 C 0.9054 0.15732 0.34571 0.0
C1435 C 0.91123 0.18006 0.31572 0.0
H1436 H 0.91873 0.12747 0.40098 0.0
C1437 C 0.93497 0.1917 0.32403 0.0
H1438 H 0.88713 0.14811 0.34097 0.0
C1439 C 0.95312 0.17989 0.35858 0.0
C1440 C 0.94783 0.15626 0.3855 0.0
H1441 H 0.93993 0.20944 0.30217 0.0
H1442 H 0.97163 0.1887 0.36193 0.0
C1443 C 0.9235 0.14556 0.38034 0.0
C1444 C 0.59959 0.17191 0.26199 0.0
C1445 C 0.58836 0.1963 0.26795 0.0
H1446 H 0.59731 0.1344 0.22383 0.0
C1447 C 0.56448 0.20049 0.24333 0.0
H1448 H 0.61796 0.16805 0.28062 0.0
C1449 C 0.55296 0.18141 0.21009 0.0
C1450 C 0.5648 0.15753 0.20157 0.0
H1451 H 0.55535 0.21903 0.24684 0.0
H1452 H 0.53504 0.18564 0.18956 0.0
C1453 C 0.58779 0.15261 0.22957 0.0
C1454 C 0.5636 0.8593 0.85612 0.0
C1455 C 0.53916 0.84866 0.85836 0.0
H1456 H 0.60084 0.85684 0.82126 0.0
C1457 C 0.53437 0.82532 0.83007 0.0
H1458 H 0.56801 0.87717 0.87783 0.0
C1459 C 0.55328 0.81365 0.7975 0.0
C1460 C 0.57729 0.82515 0.79251 0.0
H1461 H 0.51576 0.8166 0.83105 0.0
H1462 H 0.54875 0.7961 0.77466 0.0
C1463 C 0.58245 0.8477 0.82347 0.0
C1464 C 0.90446 0.16936 0.71718 0.0
C1465 C 0.91116 0.19551 0.72236 0.0
H1466 H 0.90742 0.13129 0.75232 0.0
C1467 C 0.92788 0.20281 0.76631 0.0
H1468 H 0.89158 0.16311 0.68368 0.0
C1469 C 0.93655 0.18468 0.80612 0.0
C1470 C 0.92892 0.15873 0.80267 0.0
H1471 H 0.93328 0.22277 0.77181 0.0
H1472 H 0.94898 0.19117 0.84027 0.0
C1473 C 0.91337 0.15113 0.75671 0.0
C1474 C 0.53181 0.17944 0.65789 0.0
C1475 C 0.53976 0.15917 0.62241 0.0
H1476 H 0.54202 0.20645 0.72309 0.0
C1477 C 0.56533 0.15209 0.62218 0.0
H1478 H 0.51218 0.18528 0.65914 0.0
C1479 C 0.58242 0.16425 0.65882 0.0
C1480 C 0.57414 0.18346 0.69676 0.0
H1481 H 0.57198 0.13658 0.5951 0.0
H1482 H 0.6019 0.15792 0.65889 0.0
C1483 C 0.54882 0.19137 0.69502 0.0
C1484 C 0.56205 0.80165 0.23455 0.0
C1485 C 0.58335 0.80847 0.20177 0.0
H1486 H 0.53488 0.81358 0.29724 0.0
C1487 C 0.59166 0.83421 0.20217 0.0
H1488 H 0.55533 0.78195 0.23556 0.0
C1489 C 0.57996 0.85237 0.23748 0.0
C1490 C 0.55996 0.84505 0.27383 0.0
H1491 H 0.60804 0.84003 0.17727 0.0
H1492 H 0.58746 0.87176 0.23851 0.0
C1493 C 0.55059 0.81972 0.27054 0.0
C1494 C 0.9383 0.80848 0.21687 0.0
C1495 C 0.91365 0.81847 0.21773 0.0
H1496 H 0.97583 0.8122 0.18334 0.0
C1497 C 0.9074 0.83866 0.18006 0.0
H1498 H 0.94361 0.79273 0.24502 0.0
C1499 C 0.92568 0.84955 0.14447 0.0
C1500 C 0.95068 0.84059 0.14588 0.0
H1501 H 0.88846 0.84647 0.17879 0.0
H1502 H 0.92036 0.86563 0.11732 0.0
C1503 C 0.9567 0.81949 0.18125 0.0
C1504 C 0.59571 0.65874 0.76166 0.0
C1505 C 0.57118 0.663 0.78238 0.0
H1506 H 0.62772 0.67485 0.7177 0.0
C1507 C 0.55887 0.68608 0.7684 0.0
H1508 H 0.60558 0.64111 0.77206 0.0
C1509 C 0.57125 0.70513 0.73661 0.0
C1510 C 0.59643 0.70171 0.71918 0.0
H1511 H 0.53985 0.68971 0.78356 0.0
H1512 H 0.56153 0.72308 0.72851 0.0
C1513 C 0.60835 0.67808 0.73082 0.0
C1514 C 0.56529 0.354 0.11556 0.0
C1515 C 0.54055 0.34421 0.11172 0.0
H1516 H 0.60181 0.3504 0.1538 0.0
C1517 C 0.53456 0.32108 0.14003 0.0
H1518 H 0.5706 0.37168 0.09384 0.0
C1519 C 0.5525 0.3089 0.17453 0.0
C1520 C 0.57672 0.31967 0.18144 0.0
H1521 H 0.5157 0.31299 0.13775 0.0
H1522 H 0.54702 0.29158 0.19746 0.0
C1523 C 0.58318 0.34187 0.15017 0.0
C1524 C 0.88534 0.32762 0.23498 0.0
C1525 C 0.89707 0.30344 0.22994 0.0
H1526 H 0.88657 0.36528 0.27256 0.0
C1527 C 0.92079 0.29977 0.25574 0.0
H1528 H 0.86707 0.33107 0.21542 0.0
C1529 C 0.93166 0.31917 0.28921 0.0
C1530 C 0.9193 0.34285 0.29678 0.0
H1531 H 0.93028 0.28139 0.25296 0.0
H1532 H 0.94946 0.31536 0.31062 0.0
C1533 C 0.89648 0.34724 0.26762 0.0
C1534 C 0.89769 0.65822 0.68091 0.0
C1535 C 0.90397 0.68065 0.71129 0.0
H1536 H 0.91047 0.62817 0.62594 0.0
C1537 C 0.92824 0.69134 0.70465 0.0
H1538 H 0.87904 0.6497 0.68436 0.0
C1539 C 0.9463 0.67902 0.6709 0.0
C1540 C 0.94041 0.6558 0.64316 0.0
H1541 H 0.93358 0.7088 0.72694 0.0
H1542 H 0.96515 0.68713 0.66861 0.0
C1543 C 0.9157 0.64594 0.64714 0.0
C1544 C 0.55159 0.31542 0.69103 0.0
C1545 C 0.55991 0.34116 0.69426 0.0
H1546 H 0.55389 0.27732 0.72567 0.0
C1547 C 0.57564 0.34843 0.74015 0.0
H1548 H 0.539 0.30921 0.65694 0.0
C1549 C 0.58408 0.33004 0.77984 0.0
C1550 C 0.57671 0.30408 0.77486 0.0
H1551 H 0.5821 0.36811 0.74437 0.0
H1552 H 0.59713 0.336 0.81326 0.0
C1553 C 0.55979 0.29713 0.73101 0.0
C1554 C 0.93592 0.30979 0.80227 0.0
C1555 C 0.91033 0.31672 0.80035 0.0
H1556 H 0.9723 0.31734 0.83819 0.0
C1557 C 0.90136 0.33578 0.83787 0.0
H1558 H 0.94328 0.29487 0.77448 0.0
C1559 C 0.91798 0.34869 0.87435 0.0
C1560 C 0.94378 0.34254 0.8744 0.0
H1561 H 0.88166 0.34139 0.83762 0.0
H1562 H 0.91075 0.36403 0.90113 0.0
C1563 C 0.95248 0.32247 0.83925 0.0
C1564 C 0.89283 0.65329 0.24724 0.0
C1565 C 0.91668 0.65815 0.22307 0.0
H1566 H 0.86164 0.66862 0.29478 0.0
C1567 C 0.92891 0.68157 0.23515 0.0
H1568 H 0.883 0.6354 0.23866 0.0
C1569 C 0.91696 0.70034 0.26828 0.0
C1570 C 0.89232 0.69625 0.28886 0.0
H1571 H 0.94745 0.68568 0.21752 0.0
H1572 H 0.92638 0.71864 0.27462 0.0
C1573 C 0.88063 0.6723 0.27929 0.0
C1574 C 0.53361 0.68458 0.31774 0.0
C1575 C 0.54034 0.66468 0.35572 0.0
H1576 H 0.5459 0.71079 0.25236 0.0
C1577 C 0.56584 0.65749 0.3602 0.0
H1578 H 0.5141 0.6905 0.31322 0.0
C1579 C 0.58406 0.669 0.32518 0.0
C1580 C 0.57713 0.68786 0.28475 0.0
H1581 H 0.57164 0.64231 0.38938 0.0
H1582 H 0.60342 0.66249 0.3286 0.0
C1583 C 0.55182 0.69602 0.28246 0.0
C1584 C 0.4335 0.32095 0.20605 0.0
C1585 C 0.4217 0.34483 0.19677 0.0
H1586 H 0.4311 0.28348 0.2441 0.0
C1587 C 0.39875 0.3499 0.22472 0.0
H1588 H 0.45138 0.31661 0.18556 0.0
C1589 C 0.38695 0.33073 0.25786 0.0
C1590 C 0.39814 0.30634 0.26462 0.0
H1591 H 0.38926 0.36811 0.21838 0.0
H1592 H 0.36861 0.3347 0.27647 0.0
C1593 C 0.42198 0.30202 0.24 0.0
C1594 C 0.4566 0.68449 0.81868 0.0
C1595 C 0.45025 0.66398 0.85559 0.0
H1596 H 0.44378 0.71065 0.7535 0.0
C1597 C 0.42504 0.65558 0.8584 0.0
H1598 H 0.4759 0.69133 0.8155 0.0
C1599 C 0.40683 0.66635 0.82264 0.0
C1600 C 0.41336 0.68588 0.78341 0.0
H1601 H 0.41947 0.63997 0.88679 0.0
H1602 H 0.38769 0.65896 0.82502 0.0
C1603 C 0.43825 0.69541 0.78289 0.0
C1604 C 0.0794 0.64957 0.76218 0.0
C1605 C 0.05928 0.65684 0.72627 0.0
H1606 H 0.10767 0.66193 0.82215 0.0
C1607 C 0.04995 0.68211 0.73004 0.0
H1608 H 0.08689 0.63022 0.76076 0.0
C1609 C 0.06153 0.70017 0.76607 0.0
C1610 C 0.08292 0.69342 0.79846 0.0
H1611 H 0.03414 0.68822 0.70372 0.0
H1612 H 0.05478 0.71981 0.76546 0.0
C1613 C 0.09122 0.66772 0.79756 0.0
C1614 C 0.06247 0.35928 0.37411 0.0
C1615 C 0.03837 0.34827 0.38104 0.0
H1616 H 0.09874 0.35652 0.33442 0.0
C1617 C 0.03341 0.32398 0.35727 0.0
H1618 H 0.06698 0.37789 0.39232 0.0
C1619 C 0.05164 0.31175 0.32394 0.0
C1620 C 0.07513 0.32361 0.31373 0.0
H1621 H 0.01508 0.3149 0.36214 0.0
H1622 H 0.04692 0.29345 0.30446 0.0
C1623 C 0.08067 0.34708 0.34071 0.0
C1624 C 0.4289 0.68602 0.26967 0.0
C1625 C 0.41805 0.66197 0.28252 0.0
H1626 H 0.42398 0.72305 0.2309 0.0
C1627 C 0.39385 0.65621 0.26136 0.0
H1628 H 0.44762 0.69087 0.28521 0.0
C1629 C 0.38009 0.67484 0.23109 0.0
C1630 C 0.39057 0.6993 0.22027 0.0
H1631 H 0.38504 0.63785 0.27088 0.0
H1632 H 0.36099 0.67035 0.21757 0.0
C1633 C 0.41542 0.70438 0.23829 0.0
C1634 C 0.05321 0.68879 0.20243 0.0
C1635 C 0.07694 0.67698 0.20876 0.0
H1636 H 0.01585 0.68613 0.1678 0.0
C1637 C 0.08178 0.65404 0.17914 0.0
H1638 H 0.04894 0.70666 0.22418 0.0
C1639 C 0.06287 0.6424 0.14649 0.0
C1640 C 0.03868 0.65342 0.14288 0.0
H1641 H 0.09995 0.64462 0.18244 0.0
H1642 H 0.067 0.62424 0.12586 0.0
C1643 C 0.03425 0.67711 0.16985 0.0
C1644 C 0.04949 0.31786 0.80421 0.0
C1645 C 0.05698 0.34382 0.79953 0.0
H1646 H 0.0529 0.2796 0.77148 0.0
C1647 C 0.07234 0.35125 0.753 0.0
H1648 H 0.03722 0.31148 0.83885 0.0
C1649 C 0.08121 0.33287 0.7141 0.0
C1650 C 0.07468 0.30673 0.72053 0.0
H1651 H 0.07816 0.3711 0.74764 0.0
H1652 H 0.09395 0.33901 0.68014 0.0
C1653 C 0.05814 0.29956 0.76502 0.0
C1654 C 0.4211 0.34819 0.61501 0.0
C1655 C 0.4468 0.34167 0.61719 0.0
H1656 H 0.38437 0.34258 0.65108 0.0
C1657 C 0.45488 0.32255 0.65586 0.0
H1658 H 0.41435 0.36282 0.58547 0.0
C1659 C 0.4378 0.31126 0.69405 0.0
C1660 C 0.41231 0.31866 0.69373 0.0
H1661 H 0.47461 0.31721 0.6587 0.0
H1662 H 0.44469 0.29707 0.7245 0.0
C1663 C 0.40397 0.33668 0.65274 0.0
loop_
_geom_bond_atom_site_label_1
_geom_bond_atom_site_label_2
_geom_bond_distance
_geom_bond_site_symmetry_2
_ccdc_geom_bond_type
Sc0 O3 2.025 . S
Sc0 O10 2.105 . S
Sc0 O13 2.105 . S
Sc0 O16 2.105 . S
Sc0 O19 2.105 . S
Sc1 O3 2.025 . S
Sc1 O11 2.105 . S
Sc1 O15 2.105 . S
Sc1 O17 2.105 . S
Sc1 O21 2.105 . S
Sc2 O3 2.025 . S
Sc2 O12 2.105 . S
Sc2 O14 2.105 . S
Sc2 O18 2.105 . S
Sc2 O20 2.105 . S
O3 Sc0 2.025 . S
O3 Sc1 2.025 . S
O3 Sc2 2.025 . S
C4 O10 1.268 . S
C4 O20 1.268 . S
C5 O11 1.268 . S
C5 O19 1.268 . S
C6 O12 1.268 . S
C6 O21 1.268 . S
C7 O13 1.268 . S
C7 O17 1.268 . S
C8 O14 1.268 . S
C8 O16 1.268 . S
C9 O15 1.268 . S
C9 O18 1.268 . S
O10 Sc0 2.105 . S
O10 C4 1.268 . S
O11 Sc1 2.105 . S
O11 C5 1.268 . S
O12 Sc2 2.105 . S
O12 C6 1.268 . S
O13 Sc0 2.105 . S
O13 C7 1.268 . S
O14 Sc2 2.105 . S
O14 C8 1.268 . S
O15 Sc1 2.105 . S
O15 C9 1.268 . S
O16 Sc0 2.105 . S
O16 C8 1.268 . S
O17 Sc1 2.105 . S
O17 C7 1.268 . S
O18 Sc2 2.105 . S
O18 C9 1.268 . S
O19 Sc0 2.105 . S
O19 C5 1.268 . S
O20 Sc2 2.105 . S
O20 C4 1.268 . S
O21 Sc1 2.105 . S
O21 C6 1.268 . S
Sc22 O25 2.025 1_455 S
Sc22 O32 2.105 . S
Sc22 O35 2.105 1_455 S
Sc22 O38 2.105 . S
Sc22 O41 2.105 1_455 S
Sc23 O25 2.025 . S
Sc23 O33 2.105 . S
Sc23 O37 2.105 . S
Sc23 O39 2.105 . S
Sc23 O43 2.105 . S
Sc24 O25 2.025 . S
Sc24 O34 2.105 . S
Sc24 O36 2.105 1_655 S
Sc24 O40 2.105 . S
Sc24 O42 2.105 . S
O25 Sc22 2.025 1_655 S
O25 Sc23 2.025 . S
O25 Sc24 2.025 . S
C26 O32 1.268 . S
C26 O42 1.268 1_455 S
C27 O33 1.268 . S
C27 O41 1.268 . S
C28 O34 1.268 . S
C28 O43 1.268 . S
C29 O35 1.268 . S
C29 O39 1.268 . S
C30 O36 1.268 . S
C30 O38 1.268 . S
C31 O37 1.268 . S
C31 O40 1.268 . S
O32 Sc22 2.105 . S
O32 C26 1.268 . S
O33 Sc23 2.105 . S
O33 C27 1.268 . S
O34 Sc24 2.105 . S
O34 C28 1.268 . S
O35 Sc22 2.105 1_655 S
O35 C29 1.268 . S
O36 Sc24 2.105 1_455 S
O36 C30 1.268 . S
O37 Sc23 2.105 . S
O37 C31 1.268 . S
O38 Sc22 2.105 . S
O38 C30 1.268 . S
O39 Sc23 2.105 . S
O39 C29 1.268 . S
O40 Sc24 2.105 . S
O40 C31 1.268 . S
O41 Sc22 2.105 1_655 S
O41 C27 1.268 . S
O42 Sc24 2.105 . S
O42 C26 1.268 1_655 S
O43 Sc23 2.105 . S
O43 C28 1.268 . S
Sc44 O47 2.025 . S
Sc44 O54 2.105 . S
Sc44 O57 2.105 . S
Sc44 O60 2.105 . S
Sc44 O63 2.105 . S
Sc45 O47 2.025 . S
Sc45 O55 2.105 . S
Sc45 O59 2.105 . S
Sc45 O61 2.105 . S
Sc45 O65 2.105 . S
Sc46 O47 2.025 . S
Sc46 O56 2.105 . S
Sc46 O58 2.105 . S
Sc46 O62 2.105 . S
Sc46 O64 2.105 . S
O47 Sc44 2.025 . S
O47 Sc45 2.025 . S
O47 Sc46 2.025 . S
C48 O54 1.268 . S
C48 O64 1.268 . S
C49 O55 1.268 . S
C49 O63 1.268 . S
C50 O56 1.268 . S
C50 O65 1.268 . S
C51 O57 1.268 . S
C51 O61 1.268 . S
C52 O58 1.268 . S
C52 O60 1.268 . S
C53 O59 1.268 . S
C53 O62 1.268 . S
O54 Sc44 2.105 . S
O54 C48 1.268 . S
O55 Sc45 2.105 . S
O55 C49 1.268 . S
O56 Sc46 2.105 . S
O56 C50 1.268 . S
O57 Sc44 2.105 . S
O57 C51 1.268 . S
O58 Sc46 2.105 . S
O58 C52 1.268 . S
O59 Sc45 2.105 . S
O59 C53 1.268 . S
O60 Sc44 2.105 . S
O60 C52 1.268 . S
O61 Sc45 2.105 . S
O61 C51 1.268 . S
O62 Sc46 2.105 . S
O62 C53 1.268 . S
O63 Sc44 2.105 . S
O63 C49 1.268 . S
O64 Sc46 2.105 . S
O64 C48 1.268 . S
O65 Sc45 2.105 . S
O65 C50 1.268 . S
Sc66 O69 2.025 . S
Sc66 O76 2.105 1_554 S
Sc66 O79 2.105 . S
Sc66 O82 2.105 . S
Sc66 O85 2.105 . S
Sc67 O69 2.025 . S
Sc67 O77 2.105 . S
Sc67 O81 2.105 . S
Sc67 O83 2.105 . S
Sc67 O87 2.105 . S
Sc68 O69 2.025 1_556 S
Sc68 O78 2.105 . S
Sc68 O80 2.105 1_556 S
Sc68 O84 2.105 1_556 S
Sc68 O86 2.105 . S
O69 Sc66 2.025 . S
O69 Sc67 2.025 . S
O69 Sc68 2.025 1_554 S
C70 O76 1.268 . S
C70 O86 1.268 . S
C71 O77 1.268 . S
C71 O85 1.268 . S
C72 O78 1.268 . S
C72 O87 1.268 1_556 S
C73 O79 1.268 . S
C73 O83 1.268 . S
C74 O80 1.268 . S
C74 O82 1.268 . S
C75 O81 1.268 . S
C75 O84 1.268 . S
O76 Sc66 2.105 1_556 S
O76 C70 1.268 . S
O77 Sc67 2.105 . S
O77 C71 1.268 . S
O78 Sc68 2.105 . S
O78 C72 1.268 . S
O79 Sc66 2.105 . S
O79 C73 1.268 . S
O80 Sc68 2.105 1_554 S
O80 C74 1.268 . S
O81 Sc67 2.105 . S
O81 C75 1.268 . S
O82 Sc66 2.105 . S
O82 C74 1.268 . S
O83 Sc67 2.105 . S
O83 C73 1.268 . S
O84 Sc68 2.105 1_554 S
O84 C75 1.268 . S
O85 Sc66 2.105 . S
O85 C71 1.268 . S
O86 Sc68 2.105 . S
O86 C70 1.268 . S
O87 Sc67 2.105 . S
O87 C72 1.268 1_554 S
Sc88 O91 2.025 . S
Sc88 O98 2.105 . S
Sc88 O101 2.105 . S
Sc88 O104 2.105 . S
Sc88 O107 2.105 . S
Sc89 O91 2.025 . S
Sc89 O99 2.105 . S
Sc89 O103 2.105 . S
Sc89 O105 2.105 . S
Sc89 O109 2.105 . S
Sc90 O91 2.025 . S
Sc90 O100 2.105 . S
Sc90 O102 2.105 . S
Sc90 O106 2.105 . S
Sc90 O108 2.105 . S
O91 Sc88 2.025 . S
O91 Sc89 2.025 . S
O91 Sc90 2.025 . S
C92 O98 1.268 . S
C92 O108 1.268 . S
C93 O99 1.268 . S
C93 O107 1.268 . S
C94 O100 1.268 . S
C94 O109 1.268 . S
C95 O101 1.268 . S
C95 O105 1.268 . S
C96 O102 1.268 . S
C96 O104 1.268 . S
C97 O103 1.268 . S
C97 O106 1.268 . S
O98 Sc88 2.105 . S
O98 C92 1.268 . S
O99 Sc89 2.105 . S
O99 C93 1.268 . S
O100 Sc90 2.105 . S
O100 C94 1.268 . S
O101 Sc88 2.105 . S
O101 C95 1.268 . S
O102 Sc90 2.105 . S
O102 C96 1.268 . S
O103 Sc89 2.105 . S
O103 C97 1.268 . S
O104 Sc88 2.105 . S
O104 C96 1.268 . S
O105 Sc89 2.105 . S
O105 C95 1.268 . S
O106 Sc90 2.105 . S
O106 C97 1.268 . S
O107 Sc88 2.105 . S
O107 C93 1.268 . S
O108 Sc90 2.105 . S
O108 C92 1.268 . S
O109 Sc89 2.105 . S
O109 C94 1.268 . S
Sc110 O113 2.025 . S
Sc110 O120 2.105 . S
Sc110 O123 2.105 . S
Sc110 O126 2.105 . S
Sc110 O129 2.105 . S
Sc111 O113 2.025 . S
Sc111 O121 2.105 . S
Sc111 O125 2.105 . S
Sc111 O127 2.105 . S
Sc111 O131 2.105 . S
Sc112 O113 2.025 . S
Sc112 O122 2.105 . S
Sc112 O124 2.105 . S
Sc112 O128 2.105 . S
Sc112 O130 2.105 . S
O113 Sc110 2.025 . S
O113 Sc111 2.025 . S
O113 Sc112 2.025 . S
C114 O120 1.268 . S
C114 O130 1.268 . S
C115 O121 1.268 . S
C115 O129 1.268 . S
C116 O122 1.268 . S
C116 O131 1.268 . S
C117 O123 1.268 . S
C117 O127 1.268 . S
C118 O124 1.268 . S
C118 O126 1.268 . S
C119 O125 1.268 . S
C119 O128 1.268 . S
O120 Sc110 2.105 . S
O120 C114 1.268 . S
O121 Sc111 2.105 . S
O121 C115 1.268 . S
O122 Sc112 2.105 . S
O122 C116 1.268 . S
O123 Sc110 2.105 . S
O123 C117 1.268 . S
O124 Sc112 2.105 . S
O124 C118 1.268 . S
O125 Sc111 2.105 . S
O125 C119 1.268 . S
O126 Sc110 2.105 . S
O126 C118 1.268 . S
O127 Sc111 2.105 . S
O127 C117 1.268 . S
O128 Sc112 2.105 . S
O128 C119 1.268 . S
O129 Sc110 2.105 . S
O129 C115 1.268 . S
O130 Sc112 2.105 . S
O130 C114 1.268 . S
O131 Sc111 2.105 . S
O131 C116 1.268 . S
Sc132 O135 2.025 . S
Sc132 O142 2.105 . S
Sc132 O145 2.105 . S
Sc132 O148 2.105 . S
Sc132 O151 2.105 . S
Sc133 O135 2.025 . S
Sc133 O143 2.105 . S
Sc133 O147 2.105 . S
Sc133 O149 2.105 . S
Sc133 O153 2.105 . S
Sc134 O135 2.025 . S
Sc134 O144 2.105 . S
Sc134 O146 2.105 . S
Sc134 O150 2.105 . S
Sc134 O152 2.105 . S
O135 Sc132 2.025 . S
O135 Sc133 2.025 . S
O135 Sc134 2.025 . S
C136 O142 1.268 . S
C136 O152 1.268 . S
C137 O143 1.268 . S
C137 O151 1.268 . S
C138 O144 1.268 . S
C138 O153 1.268 . S
C139 O145 1.268 . S
C139 O149 1.268 . S
C140 O146 1.268 . S
C140 O148 1.268 . S
C141 O147 1.268 . S
C141 O150 1.268 . S
O142 Sc132 2.105 . S
O142 C136 1.268 . S
O143 Sc133 2.105 . S
O143 C137 1.268 . S
O144 Sc134 2.105 . S
O144 C138 1.268 . S
O145 Sc132 2.105 . S
O145 C139 1.268 . S
O146 Sc134 2.105 . S
O146 C140 1.268 . S
O147 Sc133 2.105 . S
O147 C141 1.268 . S
O148 Sc132 2.105 . S
O148 C140 1.268 . S
O149 Sc133 2.105 . S
O149 C139 1.268 . S
O150 Sc134 2.105 . S
O150 C141 1.268 . S
O151 Sc132 2.105 . S
O151 C137 1.268 . S
O152 Sc134 2.105 . S
O152 C136 1.268 . S
O153 Sc133 2.105 . S
O153 C138 1.268 . S
Sc154 O157 2.025 1_554 S
Sc154 O164 2.105 1_654 S
Sc154 O167 2.105 . S
Sc154 O170 2.105 . S
Sc154 O173 2.105 1_554 S
Sc155 O157 2.025 . S
Sc155 O165 2.105 . S
Sc155 O169 2.105 . S
Sc155 O171 2.105 . S
Sc155 O175 2.105 . S
Sc156 O157 2.025 1_455 S
Sc156 O166 2.105 1_455 S
Sc156 O168 2.105 1_556 S
Sc156 O172 2.105 1_455 S
Sc156 O174 2.105 . S
O157 Sc154 2.025 1_556 S
O157 Sc155 2.025 . S
O157 Sc156 2.025 1_655 S
C158 O164 1.268 . S
C158 O174 1.268 . S
C159 O165 1.268 . S
C159 O173 1.268 . S
C160 O166 1.268 . S
C160 O175 1.268 . S
C161 O167 1.268 . S
C161 O171 1.268 1_554 S
C162 O168 1.268 . S
C162 O170 1.268 1_455 S
C163 O169 1.268 . S
C163 O172 1.268 . S
O164 Sc154 2.105 1_456 S
O164 C158 1.268 . S
O165 Sc155 2.105 . S
O165 C159 1.268 . S
O166 Sc156 2.105 1_655 S
O166 C160 1.268 . S
O167 Sc154 2.105 . S
O167 C161 1.268 . S
O168 Sc156 2.105 1_554 S
O168 C162 1.268 . S
O169 Sc155 2.105 . S
O169 C163 1.268 . S
O170 Sc154 2.105 . S
O170 C162 1.268 1_655 S
O171 Sc155 2.105 . S
O171 C161 1.268 1_556 S
O172 Sc156 2.105 1_655 S
O172 C163 1.268 . S
O173 Sc154 2.105 1_556 S
O173 C159 1.268 . S
O174 Sc156 2.105 . S
O174 C158 1.268 . S
O175 Sc155 2.105 . S
O175 C160 1.268 . S
Sc176 O179 2.025 . S
Sc176 O186 2.105 . S
Sc176 O189 2.105 . S
Sc176 O192 2.105 . S
Sc176 O195 2.105 . S
Sc177 O179 2.025 . S
Sc177 O187 2.105 . S
Sc177 O191 2.105 . S
Sc177 O193 2.105 . S
Sc177 O197 2.105 . S
Sc178 O179 2.025 . S
Sc178 O188 2.105 . S
Sc178 O190 2.105 . S
Sc178 O194 2.105 . S
Sc178 O196 2.105 . S
O179 Sc176 2.025 . S
O179 Sc177 2.025 . S
O179 Sc178 2.025 . S
C180 O186 1.268 . S
C180 O196 1.268 . S
C181 O187 1.268 . S
C181 O195 1.268 . S
C182 O188 1.268 . S
C182 O197 1.268 . S
C183 O189 1.268 . S
C183 O193 1.268 . S
C184 O190 1.268 . S
C184 O192 1.268 . S
C185 O191 1.268 . S
C185 O194 1.268 . S
O186 Sc176 2.105 . S
O186 C180 1.268 . S
O187 Sc177 2.105 . S
O187 C181 1.268 . S
O188 Sc178 2.105 . S
O188 C182 1.268 . S
O189 Sc176 2.105 . S
O189 C183 1.268 . S
O190 Sc178 2.105 . S
O190 C184 1.268 . S
O191 Sc177 2.105 . S
O191 C185 1.268 . S
O192 Sc176 2.105 . S
O192 C184 1.268 . S
O193 Sc177 2.105 . S
O193 C183 1.268 . S
O194 Sc178 2.105 . S
O194 C185 1.268 . S
O195 Sc176 2.105 . S
O195 C181 1.268 . S
O196 Sc178 2.105 . S
O196 C180 1.268 . S
O197 Sc177 2.105 . S
O197 C182 1.268 . S
Sc198 O201 2.025 1_655 S
Sc198 O208 2.105 . S
Sc198 O211 2.105 1_655 S
Sc198 O214 2.105 . S
Sc198 O217 2.105 1_655 S
Sc199 O201 2.025 . S
Sc199 O209 2.105 . S
Sc199 O213 2.105 . S
Sc199 O215 2.105 . S
Sc199 O219 2.105 . S
Sc200 O201 2.025 . S
Sc200 O210 2.105 . S
Sc200 O212 2.105 . S
Sc200 O216 2.105 . S
Sc200 O218 2.105 1_455 S
O201 Sc198 2.025 1_455 S
O201 Sc199 2.025 . S
O201 Sc200 2.025 . S
C202 O208 1.268 . S
C202 O218 1.268 . S
C203 O209 1.268 . S
C203 O217 1.268 . S
C204 O210 1.268 . S
C204 O219 1.268 . S
C205 O211 1.268 . S
C205 O215 1.268 . S
C206 O212 1.268 1_655 S
C206 O214 1.268 . S
C207 O213 1.268 . S
C207 O216 1.268 . S
O208 Sc198 2.105 . S
O208 C202 1.268 . S
O209 Sc199 2.105 . S
O209 C203 1.268 . S
O210 Sc200 2.105 . S
O210 C204 1.268 . S
O211 Sc198 2.105 1_455 S
O211 C205 1.268 . S
O212 Sc200 2.105 . S
O212 C206 1.268 1_455 S
O213 Sc199 2.105 . S
O213 C207 1.268 . S
O214 Sc198 2.105 . S
O214 C206 1.268 . S
O215 Sc199 2.105 . S
O215 C205 1.268 . S
O216 Sc200 2.105 . S
O216 C207 1.268 . S
O217 Sc198 2.105 1_455 S
O217 C203 1.268 . S
O218 Sc200 2.105 1_655 S
O218 C202 1.268 . S
O219 Sc199 2.105 . S
O219 C204 1.268 . S
Sc220 O223 2.025 . S
Sc220 O230 2.105 . S
Sc220 O233 2.105 . S
Sc220 O236 2.105 . S
Sc220 O239 2.105 . S
Sc221 O223 2.025 . S
Sc221 O231 2.105 . S
Sc221 O235 2.105 . S
Sc221 O237 2.105 . S
Sc221 O241 2.105 . S
Sc222 O223 2.025 . S
Sc222 O232 2.105 . S
Sc222 O234 2.105 . S
Sc222 O238 2.105 . S
Sc222 O240 2.105 . S
O223 Sc220 2.025 . S
O223 Sc221 2.025 . S
O223 Sc222 2.025 . S
C224 O230 1.268 . S
C224 O240 1.268 . S
C225 O231 1.268 . S
C225 O239 1.268 . S
C226 O232 1.268 . S
C226 O241 1.268 . S
C227 O233 1.268 . S
C227 O237 1.268 . S
C228 O234 1.268 . S
C228 O236 1.268 . S
C229 O235 1.268 . S
C229 O238 1.268 . S
O230 Sc220 2.105 . S
O230 C224 1.268 . S
O231 Sc221 2.105 . S
O231 C225 1.268 . S
O232 Sc222 2.105 . S
O232 C226 1.268 . S
O233 Sc220 2.105 . S
O233 C227 1.268 . S
O234 Sc222 2.105 . S
O234 C228 1.268 . S
O235 Sc221 2.105 . S
O235 C229 1.268 . S
O236 Sc220 2.105 . S
O236 C228 1.268 . S
O237 Sc221 2.105 . S
O237 C227 1.268 . S
O238 Sc222 2.105 . S
O238 C229 1.268 . S
O239 Sc220 2.105 . S
O239 C225 1.268 . S
O240 Sc222 2.105 . S
O240 C224 1.268 . S
O241 Sc221 2.105 . S
O241 C226 1.268 . S
Sc242 O245 2.025 . S
Sc242 O252 2.105 . S
Sc242 O255 2.105 . S
Sc242 O258 2.105 1_556 S
Sc242 O261 2.105 . S
Sc243 O245 2.025 . S
Sc243 O253 2.105 . S
Sc243 O257 2.105 . S
Sc243 O259 2.105 . S
Sc243 O263 2.105 . S
Sc244 O245 2.025 1_554 S
Sc244 O254 2.105 1_554 S
Sc244 O256 2.105 . S
Sc244 O260 2.105 . S
Sc244 O262 2.105 1_554 S
O245 Sc242 2.025 . S
O245 Sc243 2.025 . S
O245 Sc244 2.025 1_556 S
C246 O252 1.268 . S
C246 O262 1.268 . S
C247 O253 1.268 . S
C247 O261 1.268 . S
C248 O254 1.268 . S
C248 O263 1.268 . S
C249 O255 1.268 . S
C249 O259 1.268 . S
C250 O256 1.268 . S
C250 O258 1.268 . S
C251 O257 1.268 1_554 S
C251 O260 1.268 . S
O252 Sc242 2.105 . S
O252 C246 1.268 . S
O253 Sc243 2.105 . S
O253 C247 1.268 . S
O254 Sc244 2.105 1_556 S
O254 C248 1.268 . S
O255 Sc242 2.105 . S
O255 C249 1.268 . S
O256 Sc244 2.105 . S
O256 C250 1.268 . S
O257 Sc243 2.105 . S
O257 C251 1.268 1_556 S
O258 Sc242 2.105 1_554 S
O258 C250 1.268 . S
O259 Sc243 2.105 . S
O259 C249 1.268 . S
O260 Sc244 2.105 . S
O260 C251 1.268 . S
O261 Sc242 2.105 . S
O261 C247 1.268 . S
O262 Sc244 2.105 1_556 S
O262 C246 1.268 . S
O263 Sc243 2.105 . S
O263 C248 1.268 . S
Sc264 O267 2.025 . S
Sc264 O274 2.105 . S
Sc264 O277 2.105 . S
Sc264 O280 2.105 . S
Sc264 O283 2.105 . S
Sc265 O267 2.025 . S
Sc265 O275 2.105 . S
Sc265 O279 2.105 . S
Sc265 O281 2.105 . S
Sc265 O285 2.105 . S
Sc266 O267 2.025 . S
Sc266 O276 2.105 . S
Sc266 O278 2.105 . S
Sc266 O282 2.105 . S
Sc266 O284 2.105 . S
O267 Sc264 2.025 . S
O267 Sc265 2.025 . S
O267 Sc266 2.025 . S
C268 O274 1.268 . S
C268 O284 1.268 . S
C269 O275 1.268 . S
C269 O283 1.268 . S
C270 O276 1.268 . S
C270 O285 1.268 . S
C271 O277 1.268 . S
C271 O281 1.268 . S
C272 O278 1.268 . S
C272 O280 1.268 . S
C273 O279 1.268 . S
C273 O282 1.268 . S
O274 Sc264 2.105 . S
O274 C268 1.268 . S
O275 Sc265 2.105 . S
O275 C269 1.268 . S
O276 Sc266 2.105 . S
O276 C270 1.268 . S
O277 Sc264 2.105 . S
O277 C271 1.268 . S
O278 Sc266 2.105 . S
O278 C272 1.268 . S
O279 Sc265 2.105 . S
O279 C273 1.268 . S
O280 Sc264 2.105 . S
O280 C272 1.268 . S
O281 Sc265 2.105 . S
O281 C271 1.268 . S
O282 Sc266 2.105 . S
O282 C273 1.268 . S
O283 Sc264 2.105 . S
O283 C269 1.268 . S
O284 Sc266 2.105 . S
O284 C268 1.268 . S
O285 Sc265 2.105 . S
O285 C270 1.268 . S
Sc286 O289 2.025 . S
Sc286 O296 2.105 . S
Sc286 O299 2.105 . S
Sc286 O302 2.105 . S
Sc286 O305 2.105 . S
Sc287 O289 2.025 . S
Sc287 O297 2.105 . S
Sc287 O301 2.105 . S
Sc287 O303 2.105 . S
Sc287 O307 2.105 . S
Sc288 O289 2.025 . S
Sc288 O298 2.105 . S
Sc288 O300 2.105 . S
Sc288 O304 2.105 . S
Sc288 O306 2.105 . S
O289 Sc286 2.025 . S
O289 Sc287 2.025 . S
O289 Sc288 2.025 . S
C290 O296 1.268 . S
C290 O306 1.268 . S
C291 O297 1.268 . S
C291 O305 1.268 . S
C292 O298 1.268 . S
C292 O307 1.268 . S
C293 O299 1.268 . S
C293 O303 1.268 . S
C294 O300 1.268 . S
C294 O302 1.268 . S
C295 O301 1.268 . S
C295 O304 1.268 . S
O296 Sc286 2.105 . S
O296 C290 1.268 . S
O297 Sc287 2.105 . S
O297 C291 1.268 . S
O298 Sc288 2.105 . S
O298 C292 1.268 . S
O299 Sc286 2.105 . S
O299 C293 1.268 . S
O300 Sc288 2.105 . S
O300 C294 1.268 . S
O301 Sc287 2.105 . S
O301 C295 1.268 . S
O302 Sc286 2.105 . S
O302 C294 1.268 . S
O303 Sc287 2.105 . S
O303 C293 1.268 . S
O304 Sc288 2.105 . S
O304 C295 1.268 . S
O305 Sc286 2.105 . S
O305 C291 1.268 . S
O306 Sc288 2.105 . S
O306 C290 1.268 . S
O307 Sc287 2.105 . S
O307 C292 1.268 . S
Sc308 O311 2.025 . S
Sc308 O318 2.105 . S
Sc308 O321 2.105 . S
Sc308 O324 2.105 . S
Sc308 O327 2.105 . S
Sc309 O311 2.025 . S
Sc309 O319 2.105 . S
Sc309 O323 2.105 . S
Sc309 O325 2.105 . S
Sc309 O329 2.105 . S
Sc310 O311 2.025 . S
Sc310 O320 2.105 . S
Sc310 O322 2.105 . S
Sc310 O326 2.105 . S
Sc310 O328 2.105 . S
O311 Sc308 2.025 . S
O311 Sc309 2.025 . S
O311 Sc310 2.025 . S
C312 O318 1.268 . S
C312 O328 1.268 . S
C313 O319 1.268 . S
C313 O327 1.268 . S
C314 O320 1.268 . S
C314 O329 1.268 . S
C315 O321 1.268 . S
C315 O325 1.268 . S
C316 O322 1.268 . S
C316 O324 1.268 . S
C317 O323 1.268 . S
C317 O326 1.268 . S
O318 Sc308 2.105 . S
O318 C312 1.268 . S
O319 Sc309 2.105 . S
O319 C313 1.268 . S
O320 Sc310 2.105 . S
O320 C314 1.268 . S
O321 Sc308 2.105 . S
O321 C315 1.268 . S
O322 Sc310 2.105 . S
O322 C316 1.268 . S
O323 Sc309 2.105 . S
O323 C317 1.268 . S
O324 Sc308 2.105 . S
O324 C316 1.268 . S
O325 Sc309 2.105 . S
O325 C315 1.268 . S
O326 Sc310 2.105 . S
O326 C317 1.268 . S
O327 Sc308 2.105 . S
O327 C313 1.268 . S
O328 Sc310 2.105 . S
O328 C312 1.268 . S
O329 Sc309 2.105 . S
O329 C314 1.268 . S
Sc330 O333 2.025 1_556 S
Sc330 O340 2.105 . S
Sc330 O343 2.105 1_556 S
Sc330 O346 2.105 1_456 S
Sc330 O349 2.105 . S
Sc331 O333 2.025 . S
Sc331 O341 2.105 . S
Sc331 O345 2.105 . S
Sc331 O347 2.105 . S
Sc331 O351 2.105 . S
Sc332 O333 2.025 1_655 S
Sc332 O342 2.105 1_655 S
Sc332 O344 2.105 . S
Sc332 O348 2.105 1_655 S
Sc332 O350 2.105 1_554 S
O333 Sc330 2.025 1_554 S
O333 Sc331 2.025 . S
O333 Sc332 2.025 1_455 S
C334 O340 1.268 1_655 S
C334 O350 1.268 . S
C335 O341 1.268 1_556 S
C335 O349 1.268 . S
C336 O342 1.268 . S
C336 O351 1.268 . S
C337 O343 1.268 . S
C337 O347 1.268 . S
C338 O344 1.268 . S
C338 O346 1.268 . S
C339 O345 1.268 . S
C339 O348 1.268 . S
O340 Sc330 2.105 . S
O340 C334 1.268 1_455 S
O341 Sc331 2.105 . S
O341 C335 1.268 1_554 S
O342 Sc332 2.105 1_455 S
O342 C336 1.268 . S
O343 Sc330 2.105 1_554 S
O343 C337 1.268 . S
O344 Sc332 2.105 . S
O344 C338 1.268 . S
O345 Sc331 2.105 . S
O345 C339 1.268 . S
O346 Sc330 2.105 1_654 S
O346 C338 1.268 . S
O347 Sc331 2.105 . S
O347 C337 1.268 . S
O348 Sc332 2.105 1_455 S
O348 C339 1.268 . S
O349 Sc330 2.105 . S
O349 C335 1.268 . S
O350 Sc332 2.105 1_556 S
O350 C334 1.268 . S
O351 Sc331 2.105 . S
O351 C336 1.268 . S
Sc352 O355 2.025 . S
Sc352 O362 2.105 . S
Sc352 O365 2.105 . S
Sc352 O368 2.105 . S
Sc352 O371 2.105 . S
Sc353 O355 2.025 . S
Sc353 O363 2.105 . S
Sc353 O367 2.105 . S
Sc353 O369 2.105 . S
Sc353 O373 2.105 . S
Sc354 O355 2.025 . S
Sc354 O364 2.105 . S
Sc354 O366 2.105 . S
Sc354 O370 2.105 . S
Sc354 O372 2.105 . S
O355 Sc352 2.025 . S
O355 Sc353 2.025 . S
O355 Sc354 2.025 . S
C356 O362 1.268 . S
C356 O372 1.268 . S
C357 O363 1.268 . S
C357 O371 1.268 . S
C358 O364 1.268 . S
C358 O373 1.268 . S
C359 O365 1.268 . S
C359 O369 1.268 . S
C360 O366 1.268 . S
C360 O368 1.268 . S
C361 O367 1.268 . S
C361 O370 1.268 . S
O362 Sc352 2.105 . S
O362 C356 1.268 . S
O363 Sc353 2.105 . S
O363 C357 1.268 . S
O364 Sc354 2.105 . S
O364 C358 1.268 . S
O365 Sc352 2.105 . S
O365 C359 1.268 . S
O366 Sc354 2.105 . S
O366 C360 1.268 . S
O367 Sc353 2.105 . S
O367 C361 1.268 . S
O368 Sc352 2.105 . S
O368 C360 1.268 . S
O369 Sc353 2.105 . S
O369 C359 1.268 . S
O370 Sc354 2.105 . S
O370 C361 1.268 . S
O371 Sc352 2.105 . S
O371 C357 1.268 . S
O372 Sc354 2.105 . S
O372 C356 1.268 . S
O373 Sc353 2.105 . S
O373 C358 1.268 . S
Sc374 O377 2.025 . S
Sc374 O384 2.105 1_554 S
Sc374 O387 2.105 . S
Sc374 O390 2.105 . S
Sc374 O393 2.105 . S
Sc375 O377 2.025 . S
Sc375 O385 2.105 . S
Sc375 O389 2.105 . S
Sc375 O391 2.105 . S
Sc375 O395 2.105 . S
Sc376 O377 2.025 1_556 S
Sc376 O386 2.105 . S
Sc376 O388 2.105 1_556 S
Sc376 O392 2.105 1_556 S
Sc376 O394 2.105 . S
O377 Sc374 2.025 . S
O377 Sc375 2.025 . S
O377 Sc376 2.025 1_554 S
C378 O384 1.268 . S
C378 O394 1.268 . S
C379 O385 1.268 . S
C379 O393 1.268 . S
C380 O386 1.268 . S
C380 O395 1.268 1_556 S
C381 O387 1.268 . S
C381 O391 1.268 . S
C382 O388 1.268 . S
C382 O390 1.268 . S
C383 O389 1.268 . S
C383 O392 1.268 . S
O384 Sc374 2.105 1_556 S
O384 C378 1.268 . S
O385 Sc375 2.105 . S
O385 C379 1.268 . S
O386 Sc376 2.105 . S
O386 C380 1.268 . S
O387 Sc374 2.105 . S
O387 C381 1.268 . S
O388 Sc376 2.105 1_554 S
O388 C382 1.268 . S
O389 Sc375 2.105 . S
O389 C383 1.268 . S
O390 Sc374 2.105 . S
O390 C382 1.268 . S
O391 Sc375 2.105 . S
O391 C381 1.268 . S
O392 Sc376 2.105 1_554 S
O392 C383 1.268 . S
O393 Sc374 2.105 . S
O393 C379 1.268 . S
O394 Sc376 2.105 . S
O394 C378 1.268 . S
O395 Sc375 2.105 . S
O395 C380 1.268 1_554 S
Sc396 O399 2.025 . S
Sc396 O406 2.105 . S
Sc396 O409 2.105 . S
Sc396 O412 2.105 . S
Sc396 O415 2.105 . S
Sc397 O399 2.025 . S
Sc397 O407 2.105 . S
Sc397 O411 2.105 . S
Sc397 O413 2.105 . S
Sc397 O417 2.105 . S
Sc398 O399 2.025 . S
Sc398 O408 2.105 . S
Sc398 O410 2.105 . S
Sc398 O414 2.105 . S
Sc398 O416 2.105 . S
O399 Sc396 2.025 . S
O399 Sc397 2.025 . S
O399 Sc398 2.025 . S
C400 O406 1.268 . S
C400 O416 1.268 . S
C401 O407 1.268 . S
C401 O415 1.268 . S
C402 O408 1.268 . S
C402 O417 1.268 . S
C403 O409 1.268 . S
C403 O413 1.268 . S
C404 O410 1.268 . S
C404 O412 1.268 . S
C405 O411 1.268 . S
C405 O414 1.268 . S
O406 Sc396 2.105 . S
O406 C400 1.268 . S
O407 Sc397 2.105 . S
O407 C401 1.268 . S
O408 Sc398 2.105 . S
O408 C402 1.268 . S
O409 Sc396 2.105 . S
O409 C403 1.268 . S
O410 Sc398 2.105 . S
O410 C404 1.268 . S
O411 Sc397 2.105 . S
O411 C405 1.268 . S
O412 Sc396 2.105 . S
O412 C404 1.268 . S
O413 Sc397 2.105 . S
O413 C403 1.268 . S
O414 Sc398 2.105 . S
O414 C405 1.268 . S
O415 Sc396 2.105 . S
O415 C401 1.268 . S
O416 Sc398 2.105 . S
O416 C400 1.268 . S
O417 Sc397 2.105 . S
O417 C402 1.268 . S
Sc418 O421 2.025 1_655 S
Sc418 O428 2.105 . S
Sc418 O431 2.105 1_655 S
Sc418 O434 2.105 . S
Sc418 O437 2.105 1_655 S
Sc419 O421 2.025 . S
Sc419 O429 2.105 . S
Sc419 O433 2.105 . S
Sc419 O435 2.105 . S
Sc419 O439 2.105 . S
Sc420 O421 2.025 . S
Sc420 O430 2.105 . S
Sc420 O432 2.105 1_455 S
Sc420 O436 2.105 . S
Sc420 O438 2.105 . S
O421 Sc418 2.025 1_455 S
O421 Sc419 2.025 . S
O421 Sc420 2.025 . S
C422 O428 1.268 . S
C422 O438 1.268 1_655 S
C423 O429 1.268 . S
C423 O437 1.268 . S
C424 O430 1.268 . S
C424 O439 1.268 . S
C425 O431 1.268 . S
C425 O435 1.268 . S
C426 O432 1.268 . S
C426 O434 1.268 . S
C427 O433 1.268 . S
C427 O436 1.268 . S
O428 Sc418 2.105 . S
O428 C422 1.268 . S
O429 Sc419 2.105 . S
O429 C423 1.268 . S
O430 Sc420 2.105 . S
O430 C424 1.268 . S
O431 Sc418 2.105 1_455 S
O431 C425 1.268 . S
O432 Sc420 2.105 1_655 S
O432 C426 1.268 . S
O433 Sc419 2.105 . S
O433 C427 1.268 . S
O434 Sc418 2.105 . S
O434 C426 1.268 . S
O435 Sc419 2.105 . S
O435 C425 1.268 . S
O436 Sc420 2.105 . S
O436 C427 1.268 . S
O437 Sc418 2.105 1_455 S
O437 C423 1.268 . S
O438 Sc420 2.105 . S
O438 C422 1.268 1_455 S
O439 Sc419 2.105 . S
O439 C424 1.268 . S
Sc440 O443 2.025 . S
Sc440 O450 2.105 . S
Sc440 O453 2.105 . S
Sc440 O456 2.105 . S
Sc440 O459 2.105 . S
Sc441 O443 2.025 . S
Sc441 O451 2.105 . S
Sc441 O455 2.105 . S
Sc441 O457 2.105 . S
Sc441 O461 2.105 . S
Sc442 O443 2.025 . S
Sc442 O452 2.105 . S
Sc442 O454 2.105 . S
Sc442 O458 2.105 . S
Sc442 O460 2.105 . S
O443 Sc440 2.025 . S
O443 Sc441 2.025 . S
O443 Sc442 2.025 . S
C444 O450 1.268 . S
C444 O460 1.268 . S
C445 O451 1.268 . S
C445 O459 1.268 . S
C446 O452 1.268 . S
C446 O461 1.268 . S
C447 O453 1.268 . S
C447 O457 1.268 . S
C448 O454 1.268 . S
C448 O456 1.268 . S
C449 O455 1.268 . S
C449 O458 1.268 . S
O450 Sc440 2.105 . S
O450 C444 1.268 . S
O451 Sc441 2.105 . S
O451 C445 1.268 . S
O452 Sc442 2.105 . S
O452 C446 1.268 . S
O453 Sc440 2.105 . S
O453 C447 1.268 . S
O454 Sc442 2.105 . S
O454 C448 1.268 . S
O455 Sc441 2.105 . S
O455 C449 1.268 . S
O456 Sc440 2.105 . S
O456 C448 1.268 . S
O457 Sc441 2.105 . S
O457 C447 1.268 . S
O458 Sc442 2.105 . S
O458 C449 1.268 . S
O459 Sc440 2.105 . S
O459 C445 1.268 . S
O460 Sc442 2.105 . S
O460 C444 1.268 . S
O461 Sc441 2.105 . S
O461 C446 1.268 . S
Sc462 O465 2.025 1_554 S
Sc462 O472 2.105 1_454 S
Sc462 O475 2.105 . S
Sc462 O478 2.105 . S
Sc462 O481 2.105 1_554 S
Sc463 O465 2.025 . S
Sc463 O473 2.105 . S
Sc463 O477 2.105 . S
Sc463 O479 2.105 . S
Sc463 O483 2.105 . S
Sc464 O465 2.025 1_655 S
Sc464 O474 2.105 1_655 S
Sc464 O476 2.105 1_556 S
Sc464 O480 2.105 1_655 S
Sc464 O482 2.105 . S
O465 Sc462 2.025 1_556 S
O465 Sc463 2.025 . S
O465 Sc464 2.025 1_455 S
C466 O472 1.268 . S
C466 O482 1.268 . S
C467 O473 1.268 . S
C467 O481 1.268 . S
C468 O474 1.268 . S
C468 O483 1.268 . S
C469 O475 1.268 . S
C469 O479 1.268 1_554 S
C470 O476 1.268 . S
C470 O478 1.268 1_655 S
C471 O477 1.268 . S
C471 O480 1.268 . S
O472 Sc462 2.105 1_656 S
O472 C466 1.268 . S
O473 Sc463 2.105 . S
O473 C467 1.268 . S
O474 Sc464 2.105 1_455 S
O474 C468 1.268 . S
O475 Sc462 2.105 . S
O475 C469 1.268 . S
O476 Sc464 2.105 1_554 S
O476 C470 1.268 . S
O477 Sc463 2.105 . S
O477 C471 1.268 . S
O478 Sc462 2.105 . S
O478 C470 1.268 1_455 S
O479 Sc463 2.105 . S
O479 C469 1.268 1_556 S
O480 Sc464 2.105 1_455 S
O480 C471 1.268 . S
O481 Sc462 2.105 1_556 S
O481 C467 1.268 . S
O482 Sc464 2.105 . S
O482 C466 1.268 . S
O483 Sc463 2.105 . S
O483 C468 1.268 . S
Sc484 O487 2.025 . S
Sc484 O494 2.105 . S
Sc484 O497 2.105 . S
Sc484 O500 2.105 . S
Sc484 O503 2.105 . S
Sc485 O487 2.025 . S
Sc485 O495 2.105 . S
Sc485 O499 2.105 . S
Sc485 O501 2.105 . S
Sc485 O505 2.105 . S
Sc486 O487 2.025 . S
Sc486 O496 2.105 . S
Sc486 O498 2.105 . S
Sc486 O502 2.105 . S
Sc486 O504 2.105 . S
O487 Sc484 2.025 . S
O487 Sc485 2.025 . S
O487 Sc486 2.025 . S
C488 O494 1.268 . S
C488 O504 1.268 . S
C489 O495 1.268 . S
C489 O503 1.268 . S
C490 O496 1.268 . S
C490 O505 1.268 . S
C491 O497 1.268 . S
C491 O501 1.268 . S
C492 O498 1.268 . S
C492 O500 1.268 . S
C493 O499 1.268 . S
C493 O502 1.268 . S
O494 Sc484 2.105 . S
O494 C488 1.268 . S
O495 Sc485 2.105 . S
O495 C489 1.268 . S
O496 Sc486 2.105 . S
O496 C490 1.268 . S
O497 Sc484 2.105 . S
O497 C491 1.268 . S
O498 Sc486 2.105 . S
O498 C492 1.268 . S
O499 Sc485 2.105 . S
O499 C493 1.268 . S
O500 Sc484 2.105 . S
O500 C492 1.268 . S
O501 Sc485 2.105 . S
O501 C491 1.268 . S
O502 Sc486 2.105 . S
O502 C493 1.268 . S
O503 Sc484 2.105 . S
O503 C489 1.268 . S
O504 Sc486 2.105 . S
O504 C488 1.268 . S
O505 Sc485 2.105 . S
O505 C490 1.268 . S
Sc506 O509 2.025 . S
Sc506 O516 2.105 . S
Sc506 O519 2.105 . S
Sc506 O522 2.105 . S
Sc506 O525 2.105 . S
Sc507 O509 2.025 . S
Sc507 O517 2.105 . S
Sc507 O521 2.105 . S
Sc507 O523 2.105 . S
Sc507 O527 2.105 . S
Sc508 O509 2.025 . S
Sc508 O518 2.105 . S
Sc508 O520 2.105 . S
Sc508 O524 2.105 . S
Sc508 O526 2.105 . S
O509 Sc506 2.025 . S
O509 Sc507 2.025 . S
O509 Sc508 2.025 . S
C510 O516 1.268 . S
C510 O526 1.268 . S
C511 O517 1.268 . S
C511 O525 1.268 . S
C512 O518 1.268 . S
C512 O527 1.268 . S
C513 O519 1.268 . S
C513 O523 1.268 . S
C514 O520 1.268 . S
C514 O522 1.268 . S
C515 O521 1.268 . S
C515 O524 1.268 . S
O516 Sc506 2.105 . S
O516 C510 1.268 . S
O517 Sc507 2.105 . S
O517 C511 1.268 . S
O518 Sc508 2.105 . S
O518 C512 1.268 . S
O519 Sc506 2.105 . S
O519 C513 1.268 . S
O520 Sc508 2.105 . S
O520 C514 1.268 . S
O521 Sc507 2.105 . S
O521 C515 1.268 . S
O522 Sc506 2.105 . S
O522 C514 1.268 . S
O523 Sc507 2.105 . S
O523 C513 1.268 . S
O524 Sc508 2.105 . S
O524 C515 1.268 . S
O525 Sc506 2.105 . S
O525 C511 1.268 . S
O526 Sc508 2.105 . S
O526 C510 1.268 . S
O527 Sc507 2.105 . S
O527 C512 1.268 . S
Sc528 O531 2.025 . S
Sc528 O538 2.105 . S
Sc528 O541 2.105 . S
Sc528 O544 2.105 . S
Sc528 O547 2.105 . S
Sc529 O531 2.025 . S
Sc529 O539 2.105 . S
Sc529 O543 2.105 . S
Sc529 O545 2.105 . S
Sc529 O549 2.105 . S
Sc530 O531 2.025 . S
Sc530 O540 2.105 . S
Sc530 O542 2.105 . S
Sc530 O546 2.105 . S
Sc530 O548 2.105 . S
O531 Sc528 2.025 . S
O531 Sc529 2.025 . S
O531 Sc530 2.025 . S
C532 O538 1.268 . S
C532 O548 1.268 . S
C533 O539 1.268 . S
C533 O547 1.268 . S
C534 O540 1.268 . S
C534 O549 1.268 . S
C535 O541 1.268 . S
C535 O545 1.268 . S
C536 O542 1.268 . S
C536 O544 1.268 . S
C537 O543 1.268 . S
C537 O546 1.268 . S
O538 Sc528 2.105 . S
O538 C532 1.268 . S
O539 Sc529 2.105 . S
O539 C533 1.268 . S
O540 Sc530 2.105 . S
O540 C534 1.268 . S
O541 Sc528 2.105 . S
O541 C535 1.268 . S
O542 Sc530 2.105 . S
O542 C536 1.268 . S
O543 Sc529 2.105 . S
O543 C537 1.268 . S
O544 Sc528 2.105 . S
O544 C536 1.268 . S
O545 Sc529 2.105 . S
O545 C535 1.268 . S
O546 Sc530 2.105 . S
O546 C537 1.268 . S
O547 Sc528 2.105 . S
O547 C533 1.268 . S
O548 Sc530 2.105 . S
O548 C532 1.268 . S
O549 Sc529 2.105 . S
O549 C534 1.268 . S
Sc550 O553 2.025 . S
Sc550 O560 2.105 . S
Sc550 O563 2.105 . S
Sc550 O566 2.105 1_556 S
Sc550 O569 2.105 . S
Sc551 O553 2.025 . S
Sc551 O561 2.105 . S
Sc551 O565 2.105 . S
Sc551 O567 2.105 . S
Sc551 O571 2.105 . S
Sc552 O553 2.025 1_554 S
Sc552 O562 2.105 1_554 S
Sc552 O564 2.105 . S
Sc552 O568 2.105 . S
Sc552 O570 2.105 1_554 S
O553 Sc550 2.025 . S
O553 Sc551 2.025 . S
O553 Sc552 2.025 1_556 S
C554 O560 1.268 . S
C554 O570 1.268 . S
C555 O561 1.268 . S
C555 O569 1.268 . S
C556 O562 1.268 . S
C556 O571 1.268 . S
C557 O563 1.268 . S
C557 O567 1.268 . S
C558 O564 1.268 . S
C558 O566 1.268 . S
C559 O565 1.268 1_554 S
C559 O568 1.268 . S
O560 Sc550 2.105 . S
O560 C554 1.268 . S
O561 Sc551 2.105 . S
O561 C555 1.268 . S
O562 Sc552 2.105 1_556 S
O562 C556 1.268 . S
O563 Sc550 2.105 . S
O563 C557 1.268 . S
O564 Sc552 2.105 . S
O564 C558 1.268 . S
O565 Sc551 2.105 . S
O565 C559 1.268 1_556 S
O566 Sc550 2.105 1_554 S
O566 C558 1.268 . S
O567 Sc551 2.105 . S
O567 C557 1.268 . S
O568 Sc552 2.105 . S
O568 C559 1.268 . S
O569 Sc550 2.105 . S
O569 C555 1.268 . S
O570 Sc552 2.105 1_556 S
O570 C554 1.268 . S
O571 Sc551 2.105 . S
O571 C556 1.268 . S
Sc572 O575 2.025 . S
Sc572 O582 2.105 . S
Sc572 O585 2.105 . S
Sc572 O588 2.105 . S
Sc572 O591 2.105 . S
Sc573 O575 2.025 . S
Sc573 O583 2.105 . S
Sc573 O587 2.105 . S
Sc573 O589 2.105 . S
Sc573 O593 2.105 . S
Sc574 O575 2.025 . S
Sc574 O584 2.105 . S
Sc574 O586 2.105 . S
Sc574 O590 2.105 . S
Sc574 O592 2.105 . S
O575 Sc572 2.025 . S
O575 Sc573 2.025 . S
O575 Sc574 2.025 . S
C576 O582 1.268 . S
C576 O592 1.268 . S
C577 O583 1.268 . S
C577 O591 1.268 . S
C578 O584 1.268 . S
C578 O593 1.268 . S
C579 O585 1.268 . S
C579 O589 1.268 . S
C580 O586 1.268 . S
C580 O588 1.268 . S
C581 O587 1.268 . S
C581 O590 1.268 . S
O582 Sc572 2.105 . S
O582 C576 1.268 . S
O583 Sc573 2.105 . S
O583 C577 1.268 . S
O584 Sc574 2.105 . S
O584 C578 1.268 . S
O585 Sc572 2.105 . S
O585 C579 1.268 . S
O586 Sc574 2.105 . S
O586 C580 1.268 . S
O587 Sc573 2.105 . S
O587 C581 1.268 . S
O588 Sc572 2.105 . S
O588 C580 1.268 . S
O589 Sc573 2.105 . S
O589 C579 1.268 . S
O590 Sc574 2.105 . S
O590 C581 1.268 . S
O591 Sc572 2.105 . S
O591 C577 1.268 . S
O592 Sc574 2.105 . S
O592 C576 1.268 . S
O593 Sc573 2.105 . S
O593 C578 1.268 . S
Sc594 O597 2.025 1_455 S
Sc594 O604 2.105 . S
Sc594 O607 2.105 1_455 S
Sc594 O610 2.105 . S
Sc594 O613 2.105 1_455 S
Sc595 O597 2.025 . S
Sc595 O605 2.105 . S
Sc595 O609 2.105 . S
Sc595 O611 2.105 . S
Sc595 O615 2.105 . S
Sc596 O597 2.025 . S
Sc596 O606 2.105 . S
Sc596 O608 2.105 . S
Sc596 O612 2.105 . S
Sc596 O614 2.105 1_655 S
O597 Sc594 2.025 1_655 S
O597 Sc595 2.025 . S
O597 Sc596 2.025 . S
C598 O604 1.268 . S
C598 O614 1.268 . S
C599 O605 1.268 . S
C599 O613 1.268 . S
C600 O606 1.268 . S
C600 O615 1.268 . S
C601 O607 1.268 . S
C601 O611 1.268 . S
C602 O608 1.268 1_455 S
C602 O610 1.268 . S
C603 O609 1.268 . S
C603 O612 1.268 . S
O604 Sc594 2.105 . S
O604 C598 1.268 . S
O605 Sc595 2.105 . S
O605 C599 1.268 . S
O606 Sc596 2.105 . S
O606 C600 1.268 . S
O607 Sc594 2.105 1_655 S
O607 C601 1.268 . S
O608 Sc596 2.105 . S
O608 C602 1.268 1_655 S
O609 Sc595 2.105 . S
O609 C603 1.268 . S
O610 Sc594 2.105 . S
O610 C602 1.268 . S
O611 Sc595 2.105 . S
O611 C601 1.268 . S
O612 Sc596 2.105 . S
O612 C603 1.268 . S
O613 Sc594 2.105 1_655 S
O613 C599 1.268 . S
O614 Sc596 2.105 1_455 S
O614 C598 1.268 . S
O615 Sc595 2.105 . S
O615 C600 1.268 . S
Sc616 O619 2.025 . S
Sc616 O626 2.105 . S
Sc616 O629 2.105 . S
Sc616 O632 2.105 . S
Sc616 O635 2.105 . S
Sc617 O619 2.025 . S
Sc617 O627 2.105 . S
Sc617 O631 2.105 . S
Sc617 O633 2.105 . S
Sc617 O637 2.105 . S
Sc618 O619 2.025 . S
Sc618 O628 2.105 . S
Sc618 O630 2.105 . S
Sc618 O634 2.105 . S
Sc618 O636 2.105 . S
O619 Sc616 2.025 . S
O619 Sc617 2.025 . S
O619 Sc618 2.025 . S
C620 O626 1.268 . S
C620 O636 1.268 . S
C621 O627 1.268 . S
C621 O635 1.268 . S
C622 O628 1.268 . S
C622 O637 1.268 . S
C623 O629 1.268 . S
C623 O633 1.268 . S
C624 O630 1.268 . S
C624 O632 1.268 . S
C625 O631 1.268 . S
C625 O634 1.268 . S
O626 Sc616 2.105 . S
O626 C620 1.268 . S
O627 Sc617 2.105 . S
O627 C621 1.268 . S
O628 Sc618 2.105 . S
O628 C622 1.268 . S
O629 Sc616 2.105 . S
O629 C623 1.268 . S
O630 Sc618 2.105 . S
O630 C624 1.268 . S
O631 Sc617 2.105 . S
O631 C625 1.268 . S
O632 Sc616 2.105 . S
O632 C624 1.268 . S
O633 Sc617 2.105 . S
O633 C623 1.268 . S
O634 Sc618 2.105 . S
O634 C625 1.268 . S
O635 Sc616 2.105 . S
O635 C621 1.268 . S
O636 Sc618 2.105 . S
O636 C620 1.268 . S
O637 Sc617 2.105 . S
O637 C622 1.268 . S
Sc638 O641 2.025 1_556 S
Sc638 O648 2.105 . S
Sc638 O651 2.105 1_556 S
Sc638 O654 2.105 1_656 S
Sc638 O657 2.105 . S
Sc639 O641 2.025 . S
Sc639 O649 2.105 . S
Sc639 O653 2.105 . S
Sc639 O655 2.105 . S
Sc639 O659 2.105 . S
Sc640 O641 2.025 1_455 S
Sc640 O650 2.105 1_455 S
Sc640 O652 2.105 . S
Sc640 O656 2.105 1_455 S
Sc640 O658 2.105 1_554 S
O641 Sc638 2.025 1_554 S
O641 Sc639 2.025 . S
O641 Sc640 2.025 1_655 S
C642 O648 1.268 1_455 S
C642 O658 1.268 . S
C643 O649 1.268 1_556 S
C643 O657 1.268 . S
C644 O650 1.268 . S
C644 O659 1.268 . S
C645 O651 1.268 . S
C645 O655 1.268 . S
C646 O652 1.268 . S
C646 O654 1.268 . S
C647 O653 1.268 . S
C647 O656 1.268 . S
O648 Sc638 2.105 . S
O648 C642 1.268 1_655 S
O649 Sc639 2.105 . S
O649 C643 1.268 1_554 S
O650 Sc640 2.105 1_655 S
O650 C644 1.268 . S
O651 Sc638 2.105 1_554 S
O651 C645 1.268 . S
O652 Sc640 2.105 . S
O652 C646 1.268 . S
O653 Sc639 2.105 . S
O653 C647 1.268 . S
O654 Sc638 2.105 1_454 S
O654 C646 1.268 . S
O655 Sc639 2.105 . S
O655 C645 1.268 . S
O656 Sc640 2.105 1_655 S
O656 C647 1.268 . S
O657 Sc638 2.105 . S
O657 C643 1.268 . S
O658 Sc640 2.105 1_556 S
O658 C642 1.268 . S
O659 Sc639 2.105 . S
O659 C644 1.268 . S
Sc660 O663 2.025 . S
Sc660 O670 2.105 . S
Sc660 O673 2.105 . S
Sc660 O676 2.105 . S
Sc660 O679 2.105 . S
Sc661 O663 2.025 . S
Sc661 O671 2.105 . S
Sc661 O675 2.105 . S
Sc661 O677 2.105 . S
Sc661 O681 2.105 . S
Sc662 O663 2.025 . S
Sc662 O672 2.105 . S
Sc662 O674 2.105 . S
Sc662 O678 2.105 . S
Sc662 O680 2.105 . S
O663 Sc660 2.025 . S
O663 Sc661 2.025 . S
O663 Sc662 2.025 . S
C664 O670 1.268 . S
C664 O680 1.268 . S
C665 O671 1.268 . S
C665 O679 1.268 . S
C666 O672 1.268 . S
C666 O681 1.268 . S
C667 O673 1.268 . S
C667 O677 1.268 . S
C668 O674 1.268 . S
C668 O676 1.268 . S
C669 O675 1.268 . S
C669 O678 1.268 . S
O670 Sc660 2.105 . S
O670 C664 1.268 . S
O671 Sc661 2.105 . S
O671 C665 1.268 . S
O672 Sc662 2.105 . S
O672 C666 1.268 . S
O673 Sc660 2.105 . S
O673 C667 1.268 . S
O674 Sc662 2.105 . S
O674 C668 1.268 . S
O675 Sc661 2.105 . S
O675 C669 1.268 . S
O676 Sc660 2.105 . S
O676 C668 1.268 . S
O677 Sc661 2.105 . S
O677 C667 1.268 . S
O678 Sc662 2.105 . S
O678 C669 1.268 . S
O679 Sc660 2.105 . S
O679 C665 1.268 . S
O680 Sc662 2.105 . S
O680 C664 1.268 . S
O681 Sc661 2.105 . S
O681 C666 1.268 . S
Sc682 O685 2.025 . S
Sc682 O692 2.105 . S
Sc682 O695 2.105 . S
Sc682 O698 2.105 . S
Sc682 O701 2.105 . S
Sc683 O685 2.025 . S
Sc683 O693 2.105 . S
Sc683 O697 2.105 . S
Sc683 O699 2.105 . S
Sc683 O703 2.105 . S
Sc684 O685 2.025 . S
Sc684 O694 2.105 . S
Sc684 O696 2.105 . S
Sc684 O700 2.105 . S
Sc684 O702 2.105 . S
O685 Sc682 2.025 . S
O685 Sc683 2.025 . S
O685 Sc684 2.025 . S
C686 O692 1.268 . S
C686 O702 1.268 . S
C687 O693 1.268 . S
C687 O701 1.268 . S
C688 O694 1.268 . S
C688 O703 1.268 . S
C689 O695 1.268 . S
C689 O699 1.268 . S
C690 O696 1.268 . S
C690 O698 1.268 . S
C691 O697 1.268 . S
C691 O700 1.268 . S
O692 Sc682 2.105 . S
O692 C686 1.268 . S
O693 Sc683 2.105 . S
O693 C687 1.268 . S
O694 Sc684 2.105 . S
O694 C688 1.268 . S
O695 Sc682 2.105 . S
O695 C689 1.268 . S
O696 Sc684 2.105 . S
O696 C690 1.268 . S
O697 Sc683 2.105 . S
O697 C691 1.268 . S
O698 Sc682 2.105 . S
O698 C690 1.268 . S
O699 Sc683 2.105 . S
O699 C689 1.268 . S
O700 Sc684 2.105 . S
O700 C691 1.268 . S
O701 Sc682 2.105 . S
O701 C687 1.268 . S
O702 Sc684 2.105 . S
O702 C686 1.268 . S
O703 Sc683 2.105 . S
O703 C688 1.268 . S
C704 C705 1.387 1_554 S
C704 H708 0.950 1_554 S
C704 C713 1.390 . S
C705 C704 1.387 1_556 S
C705 C707 1.387 1_556 S
H706 C713 0.950 . S
C707 C705 1.387 1_554 S
C707 C709 1.390 . S
C707 H711 0.950 . S
H708 C704 0.950 1_556 S
C709 C707 1.390 . S
C709 C710 1.387 . S
C709 H712 0.950 . S
C710 C709 1.387 . S
C710 C713 1.387 . S
H711 C707 0.950 . S
H712 C709 0.950 . S
C713 C704 1.390 . S
C713 H706 0.950 . S
C713 C710 1.387 . S
C714 C715 1.387 . S
C714 H718 0.950 . S
C714 C723 1.390 . S
C715 C714 1.387 . S
C715 C717 1.387 . S
H716 C723 0.950 . S
C717 C715 1.387 . S
C717 C719 1.390 . S
C717 H721 0.950 . S
H718 C714 0.950 . S
C719 C717 1.390 . S
C719 C720 1.387 . S
C719 H722 0.950 . S
C720 C719 1.387 . S
C720 C723 1.387 . S
H721 C717 0.950 . S
H722 C719 0.950 . S
C723 C714 1.390 . S
C723 H716 0.950 . S
C723 C720 1.387 . S
C724 C725 1.387 . S
C724 H728 0.950 . S
C724 C733 1.390 . S
C725 C724 1.387 . S
C725 C727 1.387 . S
H726 C733 0.950 . S
C727 C725 1.387 . S
C727 C729 1.390 . S
C727 H731 0.950 . S
H728 C724 0.950 . S
C729 C727 1.390 . S
C729 C730 1.387 . S
C729 H732 0.950 . S
C730 C729 1.387 . S
C730 C733 1.387 . S
H731 C727 0.950 . S
H732 C729 0.950 . S
C733 C724 1.390 . S
C733 H726 0.950 . S
C733 C730 1.387 . S
C734 C735 1.387 . S
C734 H738 0.950 . S
C734 C743 1.390 . S
C735 C734 1.387 . S
C735 C737 1.387 . S
H736 C743 0.950 . S
C737 C735 1.387 . S
C737 C739 1.390 . S
C737 H741 0.950 . S
H738 C734 0.950 . S
C739 C737 1.390 . S
C739 C740 1.387 . S
C739 H742 0.950 . S
C740 C739 1.387 . S
C740 C743 1.387 . S
H741 C737 0.950 . S
H742 C739 0.950 . S
C743 C734 1.390 . S
C743 H736 0.950 . S
C743 C740 1.387 . S
C744 C745 1.387 . S
C744 H748 0.950 . S
C744 C753 1.390 . S
C745 C744 1.387 . S
C745 C747 1.387 . S
H746 C753 0.950 . S
C747 C745 1.387 . S
C747 C749 1.390 . S
C747 H751 0.950 . S
H748 C744 0.950 . S
C749 C747 1.390 . S
C749 C750 1.387 . S
C749 H752 0.950 . S
C750 C749 1.387 . S
C750 C753 1.387 . S
H751 C747 0.950 . S
H752 C749 0.950 . S
C753 C744 1.390 . S
C753 H746 0.950 . S
C753 C750 1.387 . S
C754 C755 1.387 . S
C754 H758 0.950 . S
C754 C763 1.390 . S
C755 C754 1.387 . S
C755 C757 1.387 . S
H756 C763 0.950 . S
C757 C755 1.387 . S
C757 C759 1.390 . S
C757 H761 0.950 . S
H758 C754 0.950 . S
C759 C757 1.390 . S
C759 C760 1.387 . S
C759 H762 0.950 . S
C760 C759 1.387 . S
C760 C763 1.387 . S
H761 C757 0.950 . S
H762 C759 0.950 . S
C763 C754 1.390 . S
C763 H756 0.950 . S
C763 C760 1.387 . S
C764 C765 1.387 1_556 S
C764 H768 0.950 1_556 S
C764 C773 1.390 . S
C765 C764 1.387 1_554 S
C765 C767 1.387 1_554 S
H766 C773 0.950 . S
C767 C765 1.387 1_556 S
C767 C769 1.390 . S
C767 H771 0.950 . S
H768 C764 0.950 1_554 S
C769 C767 1.390 . S
C769 C770 1.387 . S
C769 H772 0.950 . S
C770 C769 1.387 . S
C770 C773 1.387 . S
H771 C767 0.950 . S
H772 C769 0.950 . S
C773 C764 1.390 . S
C773 H766 0.950 . S
C773 C770 1.387 . S
C774 C775 1.387 . S
C774 H778 0.950 . S
C774 C783 1.390 . S
C775 C774 1.387 . S
C775 C777 1.387 . S
H776 C783 0.950 . S
C777 C775 1.387 . S
C777 C779 1.390 . S
C777 H781 0.950 . S
H778 C774 0.950 . S
C779 C777 1.390 . S
C779 C780 1.387 . S
C779 H782 0.950 . S
C780 C779 1.387 . S
C780 C783 1.387 . S
H781 C777 0.950 . S
H782 C779 0.950 . S
C783 C774 1.390 . S
C783 H776 0.950 . S
C783 C780 1.387 . S
C784 C785 1.387 . S
C784 H788 0.950 . S
C784 C793 1.390 . S
C785 C784 1.387 . S
C785 C787 1.387 . S
H786 C793 0.950 . S
C787 C785 1.387 . S
C787 C789 1.390 . S
C787 H791 0.950 . S
H788 C784 0.950 . S
C789 C787 1.390 . S
C789 C790 1.387 1_556 S
C789 H792 0.950 1_556 S
C790 C789 1.387 1_554 S
C790 C793 1.387 1_554 S
H791 C787 0.950 . S
H792 C789 0.950 1_554 S
C793 C784 1.390 . S
C793 H786 0.950 . S
C793 C790 1.387 1_556 S
C794 C795 1.387 . S
C794 H798 0.950 . S
C794 C803 1.390 . S
C795 C794 1.387 . S
C795 C797 1.387 . S
H796 C803 0.950 . S
C797 C795 1.387 . S
C797 C799 1.390 . S
C797 H801 0.950 . S
H798 C794 0.950 . S
C799 C797 1.390 . S
C799 C800 1.387 . S
C799 H802 0.950 . S
C800 C799 1.387 . S
C800 C803 1.387 . S
H801 C797 0.950 . S
H802 C799 0.950 . S
C803 C794 1.390 . S
C803 H796 0.950 . S
C803 C800 1.387 . S
C804 C805 1.387 . S
C804 H808 0.950 . S
C804 C813 1.390 . S
C805 C804 1.387 . S
C805 C807 1.387 . S
H806 C813 0.950 . S
C807 C805 1.387 . S
C807 C809 1.390 . S
C807 H811 0.950 . S
H808 C804 0.950 . S
C809 C807 1.390 . S
C809 C810 1.387 . S
C809 H812 0.950 . S
C810 C809 1.387 . S
C810 C813 1.387 . S
H811 C807 0.950 . S
H812 C809 0.950 . S
C813 C804 1.390 . S
C813 H806 0.950 . S
C813 C810 1.387 . S
C814 C815 1.387 . S
C814 H818 0.950 . S
C814 C823 1.390 . S
C815 C814 1.387 . S
C815 C817 1.387 . S
H816 C823 0.950 . S
C817 C815 1.387 . S
C817 C819 1.390 . S
C817 H821 0.950 . S
H818 C814 0.950 . S
C819 C817 1.390 . S
C819 C820 1.387 . S
C819 H822 0.950 . S
C820 C819 1.387 . S
C820 C823 1.387 . S
H821 C817 0.950 . S
H822 C819 0.950 . S
C823 C814 1.390 . S
C823 H816 0.950 . S
C823 C820 1.387 . S
C824 C825 1.387 . S
C824 H828 0.950 . S
C824 C833 1.390 . S
C825 C824 1.387 . S
C825 C827 1.387 . S
H826 C833 0.950 . S
C827 C825 1.387 . S
C827 C829 1.390 . S
C827 H831 0.950 . S
H828 C824 0.950 . S
C829 C827 1.390 . S
C829 C830 1.387 . S
C829 H832 0.950 . S
C830 C829 1.387 . S
C830 C833 1.387 . S
H831 C827 0.950 . S
H832 C829 0.950 . S
C833 C824 1.390 . S
C833 H826 0.950 . S
C833 C830 1.387 . S
C834 C835 1.387 . S
C834 H838 0.950 . S
C834 C843 1.390 . S
C835 C834 1.387 . S
C835 C837 1.387 . S
H836 C843 0.950 . S
C837 C835 1.387 . S
C837 C839 1.390 . S
C837 H841 0.950 . S
H838 C834 0.950 . S
C839 C837 1.390 . S
C839 C840 1.387 . S
C839 H842 0.950 . S
C840 C839 1.387 . S
C840 C843 1.387 . S
H841 C837 0.950 . S
H842 C839 0.950 . S
C843 C834 1.390 . S
C843 H836 0.950 . S
C843 C840 1.387 . S
C844 C845 1.387 1_554 S
C844 H848 0.950 1_554 S
C844 C853 1.390 . S
C845 C844 1.387 1_556 S
C845 C847 1.387 1_556 S
H846 C853 0.950 . S
C847 C845 1.387 1_554 S
C847 C849 1.390 . S
C847 H851 0.950 . S
H848 C844 0.950 1_556 S
C849 C847 1.390 . S
C849 C850 1.387 . S
C849 H852 0.950 . S
C850 C849 1.387 . S
C850 C853 1.387 . S
H851 C847 0.950 . S
H852 C849 0.950 . S
C853 C844 1.390 . S
C853 H846 0.950 . S
C853 C850 1.387 . S
C854 C855 1.402 . S
C854 H858 0.931 1_655 S
C854 C863 1.396 . S
C855 C854 1.402 . S
C855 C857 1.387 . S
H856 C863 0.950 1_455 S
C857 C855 1.387 . S
C857 C859 1.390 . S
C857 H861 0.950 . S
H858 C854 0.931 1_455 S
C859 C857 1.390 . S
C859 C860 1.387 . S
C859 H862 0.950 . S
C860 C859 1.387 . S
C860 C863 1.387 . S
H861 C857 0.950 . S
H862 C859 0.950 . S
C863 C854 1.396 . S
C863 H856 0.950 1_655 S
C863 C860 1.387 . S
C864 C865 1.387 . S
C864 H868 0.950 . S
C864 C873 1.390 . S
C865 C864 1.387 . S
C865 C867 1.387 . S
H866 C873 0.950 . S
C867 C865 1.387 . S
C867 C869 1.390 . S
C867 H871 0.950 . S
H868 C864 0.950 . S
C869 C867 1.390 . S
C869 C870 1.387 . S
C869 H872 0.950 . S
C870 C869 1.387 . S
C870 C873 1.387 . S
H871 C867 0.950 . S
H872 C869 0.950 . S
C873 C864 1.390 . S
C873 H866 0.950 . S
C873 C870 1.387 . S
C874 C875 1.387 . S
C874 H878 0.950 . S
C874 C883 1.390 . S
C875 C874 1.387 . S
C875 C877 1.387 . S
H876 C883 0.950 . S
C877 C875 1.387 . S
C877 C879 1.390 . S
C877 H881 0.950 . S
H878 C874 0.950 . S
C879 C877 1.390 . S
C879 C880 1.387 . S
C879 H882 0.950 . S
C880 C879 1.387 . S
C880 C883 1.387 . S
H881 C877 0.950 . S
H882 C879 0.950 . S
C883 C874 1.390 . S
C883 H876 0.950 . S
C883 C880 1.387 . S
C884 C885 1.387 1_554 S
C884 H888 0.950 . S
C884 C893 1.390 . S
C885 C884 1.387 1_556 S
C885 C887 1.387 1_556 S
H886 C893 0.950 . S
C887 C885 1.387 1_554 S
C887 C889 1.390 . S
C887 H891 0.950 1_554 S
H888 C884 0.950 . S
C889 C887 1.390 . S
C889 C890 1.387 . S
C889 H892 0.950 . S
C890 C889 1.387 . S
C890 C893 1.387 . S
H891 C887 0.950 1_556 S
H892 C889 0.950 . S
C893 C884 1.390 . S
C893 H886 0.950 . S
C893 C890 1.387 . S
C894 C895 1.387 . S
C894 H898 0.950 . S
C894 C903 1.390 . S
C895 C894 1.387 . S
C895 C897 1.387 . S
H896 C903 0.950 . S
C897 C895 1.387 . S
C897 C899 1.390 . S
C897 H901 0.950 . S
H898 C894 0.950 . S
C899 C897 1.390 . S
C899 C900 1.387 . S
C899 H902 0.950 1_655 S
C900 C899 1.387 . S
C900 C903 1.387 . S
H901 C897 0.950 . S
H902 C899 0.950 1_455 S
C903 C894 1.390 . S
C903 H896 0.950 . S
C903 C900 1.387 . S
C904 C905 1.387 . S
C904 H908 0.950 . S
C904 C913 1.390 . S
C905 C904 1.387 . S
C905 C907 1.387 . S
H906 C913 0.950 . S
C907 C905 1.387 . S
C907 C909 1.390 . S
C907 H911 0.950 . S
H908 C904 0.950 . S
C909 C907 1.390 . S
C909 C910 1.387 1_556 S
C909 H912 0.950 1_556 S
C910 C909 1.387 1_554 S
C910 C913 1.387 1_554 S
H911 C907 0.950 . S
H912 C909 0.950 1_554 S
C913 C904 1.390 . S
C913 H906 0.950 . S
C913 C910 1.387 1_556 S
C914 C915 1.387 . S
C914 H918 0.950 . S
C914 C923 1.390 . S
C915 C914 1.387 . S
C915 C917 1.387 . S
H916 C923 0.950 . S
C917 C915 1.387 . S
C917 C919 1.390 . S
C917 H921 0.950 . S
H918 C914 0.950 . S
C919 C917 1.390 . S
C919 C920 1.387 . S
C919 H922 0.950 . S
C920 C919 1.387 . S
C920 C923 1.387 . S
H921 C917 0.950 . S
H922 C919 0.950 . S
C923 C914 1.390 . S
C923 H916 0.950 . S
C923 C920 1.387 . S
C924 C925 1.387 . S
C924 H928 0.950 . S
C924 C933 1.390 . S
C925 C924 1.387 . S
C925 C927 1.387 . S
H926 C933 0.950 . S
C927 C925 1.387 . S
C927 C929 1.390 . S
C927 H931 0.950 . S
H928 C924 0.950 . S
C929 C927 1.390 . S
C929 C930 1.387 . S
C929 H932 0.950 . S
C930 C929 1.387 . S
C930 C933 1.387 . S
H931 C927 0.950 . S
H932 C929 0.950 . S
C933 C924 1.390 . S
C933 H926 0.950 . S
C933 C930 1.387 . S
C934 C935 1.387 . S
C934 H938 0.950 . S
C934 C943 1.390 . S
C935 C934 1.387 . S
C935 C937 1.387 . S
H936 C943 0.950 . S
C937 C935 1.387 . S
C937 C939 1.390 . S
C937 H941 0.950 . S
H938 C934 0.950 . S
C939 C937 1.390 . S
C939 C940 1.387 . S
C939 H942 0.950 . S
C940 C939 1.387 . S
C940 C943 1.387 . S
H941 C937 0.950 . S
H942 C939 0.950 . S
C943 C934 1.390 . S
C943 H936 0.950 . S
C943 C940 1.387 . S
C944 C945 1.387 . S
C944 H948 0.950 . S
C944 C953 1.390 . S
C945 C944 1.387 . S
C945 C947 1.387 . S
H946 C953 0.950 . S
C947 C945 1.387 . S
C947 C949 1.390 . S
C947 H951 0.950 . S
H948 C944 0.950 . S
C949 C947 1.390 . S
C949 C950 1.387 . S
C949 H952 0.950 . S
C950 C949 1.387 . S
C950 C953 1.387 . S
H951 C947 0.950 . S
H952 C949 0.950 . S
C953 C944 1.390 . S
C953 H946 0.950 . S
C953 C950 1.387 . S
C954 C955 1.387 . S
C954 H958 0.950 . S
C954 C963 1.390 . S
C955 C954 1.387 . S
C955 C957 1.387 . S
H956 C963 0.950 . S
C957 C955 1.387 . S
C957 C959 1.390 . S
C957 H961 0.950 . S
H958 C954 0.950 . S
C959 C957 1.390 . S
C959 C960 1.387 . S
C959 H962 0.950 . S
C960 C959 1.387 . S
C960 C963 1.387 . S
H961 C957 0.950 . S
H962 C959 0.950 . S
C963 C954 1.390 . S
C963 H956 0.950 . S
C963 C960 1.387 . S
C964 C965 1.387 . S
C964 H968 0.950 . S
C964 C973 1.390 . S
C965 C964 1.387 . S
C965 C967 1.387 . S
H966 C973 0.950 1_554 S
C967 C965 1.387 . S
C967 C969 1.390 . S
C967 H971 0.950 . S
H968 C964 0.950 . S
C969 C967 1.390 . S
C969 C970 1.387 1_556 S
C969 H972 0.950 . S
C970 C969 1.387 1_554 S
C970 C973 1.387 1_554 S
H971 C967 0.950 . S
H972 C969 0.950 . S
C973 C964 1.390 . S
C973 H966 0.950 1_556 S
C973 C970 1.387 1_556 S
C974 C975 1.387 . S
C974 H978 0.950 . S
C974 C983 1.390 . S
C975 C974 1.387 . S
C975 C977 1.387 . S
H976 C983 0.950 . S
C977 C975 1.387 . S
C977 C979 1.390 . S
C977 H981 0.950 . S
H978 C974 0.950 . S
C979 C977 1.390 . S
C979 C980 1.387 . S
C979 H982 0.950 1_455 S
C980 C979 1.387 . S
C980 C983 1.387 . S
H981 C977 0.950 . S
H982 C979 0.950 1_655 S
C983 C974 1.390 . S
C983 H976 0.950 . S
C983 C980 1.387 . S
C984 C985 1.387 . S
C984 H988 0.950 . S
C984 C993 1.390 . S
C985 C984 1.387 . S
C985 C987 1.387 . S
H986 C993 0.950 . S
C987 C985 1.387 . S
C987 C989 1.390 . S
C987 H991 0.950 . S
H988 C984 0.950 . S
C989 C987 1.390 . S
C989 C990 1.387 1_554 S
C989 H992 0.950 1_554 S
C990 C989 1.387 1_556 S
C990 C993 1.387 1_556 S
H991 C987 0.950 . S
H992 C989 0.950 1_556 S
C993 C984 1.390 . S
C993 H986 0.950 . S
C993 C990 1.387 1_554 S
C994 C995 1.387 . S
C994 H998 0.950 . S
C994 C1003 1.390 . S
C995 C994 1.387 . S
C995 C997 1.387 . S
H996 C1003 0.950 . S
C997 C995 1.387 . S
C997 C999 1.390 . S
C997 H1001 0.950 1_455 S
H998 C994 0.950 . S
C999 C997 1.390 . S
C999 C1000 1.387 . S
C999 H1002 0.950 1_455 S
C1000 C999 1.387 . S
C1000 C1003 1.387 . S
H1001 C997 0.950 1_655 S
H1002 C999 0.950 1_655 S
C1003 C994 1.390 . S
C1003 H996 0.950 . S
C1003 C1000 1.387 . S
C1004 C1005 1.387 . S
C1004 H1008 0.950 . S
C1004 C1013 1.390 . S
C1005 C1004 1.387 . S
C1005 C1007 1.387 . S
H1006 C1013 0.950 . S
C1007 C1005 1.387 . S
C1007 C1009 1.390 . S
C1007 H1011 0.950 . S
H1008 C1004 0.950 . S
C1009 C1007 1.390 . S
C1009 C1010 1.387 . S
C1009 H1012 0.950 . S
C1010 C1009 1.387 . S
C1010 C1013 1.387 . S
H1011 C1007 0.950 . S
H1012 C1009 0.950 . S
C1013 C1004 1.390 . S
C1013 H1006 0.950 . S
C1013 C1010 1.387 . S
C1014 C1015 1.387 . S
C1014 H1018 0.950 . S
C1014 C1023 1.390 . S
C1015 C1014 1.387 . S
C1015 C1017 1.387 . S
H1016 C1023 0.950 . S
C1017 C1015 1.387 . S
C1017 C1019 1.390 . S
C1017 H1021 0.950 . S
H1018 C1014 0.950 . S
C1019 C1017 1.390 . S
C1019 C1020 1.387 . S
C1019 H1022 0.950 . S
C1020 C1019 1.387 . S
C1020 C1023 1.387 . S
H1021 C1017 0.950 . S
H1022 C1019 0.950 . S
C1023 C1014 1.390 . S
C1023 H1016 0.950 . S
C1023 C1020 1.387 . S
C1024 C1025 1.387 . S
C1024 H1028 0.950 . S
C1024 C1033 1.390 . S
C1025 C1024 1.387 . S
C1025 C1027 1.387 . S
H1026 C1033 0.950 . S
C1027 C1025 1.387 . S
C1027 C1029 1.390 . S
C1027 H1031 0.950 . S
H1028 C1024 0.950 . S
C1029 C1027 1.390 . S
C1029 C1030 1.387 . S
C1029 H1032 0.950 . S
C1030 C1029 1.387 . S
C1030 C1033 1.387 . S
H1031 C1027 0.950 . S
H1032 C1029 0.950 . S
C1033 C1024 1.390 . S
C1033 H1026 0.950 . S
C1033 C1030 1.387 . S
C1034 C1035 1.387 . S
C1034 H1038 0.950 . S
C1034 C1043 1.390 . S
C1035 C1034 1.387 . S
C1035 C1037 1.387 . S
H1036 C1043 0.950 . S
C1037 C1035 1.387 . S
C1037 C1039 1.390 . S
C1037 H1041 0.950 . S
H1038 C1034 0.950 . S
C1039 C1037 1.390 . S
C1039 C1040 1.387 . S
C1039 H1042 0.950 . S
C1040 C1039 1.387 . S
C1040 C1043 1.387 . S
H1041 C1037 0.950 . S
H1042 C1039 0.950 . S
C1043 C1034 1.390 . S
C1043 H1036 0.950 . S
C1043 C1040 1.387 . S
C1044 C1045 1.387 . S
C1044 H1048 0.950 . S
C1044 C1053 1.390 . S
C1045 C1044 1.387 . S
C1045 C1047 1.387 . S
H1046 C1053 0.950 . S
C1047 C1045 1.387 . S
C1047 C1049 1.390 . S
C1047 H1051 0.950 . S
H1048 C1044 0.950 . S
C1049 C1047 1.390 . S
C1049 C1050 1.387 . S
C1049 H1052 0.950 . S
C1050 C1049 1.387 . S
C1050 C1053 1.387 . S
H1051 C1047 0.950 . S
H1052 C1049 0.950 . S
C1053 C1044 1.390 . S
C1053 H1046 0.950 . S
C1053 C1050 1.387 . S
C1054 C1055 1.387 . S
C1054 H1058 0.950 . S
C1054 C1063 1.390 . S
C1055 C1054 1.387 . S
C1055 C1057 1.387 . S
H1056 C1063 0.950 . S
C1057 C1055 1.387 . S
C1057 C1059 1.390 . S
C1057 H1061 0.950 . S
H1058 C1054 0.950 . S
C1059 C1057 1.390 . S
C1059 C1060 1.387 . S
C1059 H1062 0.950 . S
C1060 C1059 1.387 . S
C1060 C1063 1.387 . S
H1061 C1057 0.950 . S
H1062 C1059 0.950 . S
C1063 C1054 1.390 . S
C1063 H1056 0.950 . S
C1063 C1060 1.387 . S
C1064 C1065 1.387 . S
C1064 H1068 0.950 . S
C1064 C1073 1.390 . S
C1065 C1064 1.387 . S
C1065 C1067 1.387 . S
H1066 C1073 0.950 . S
C1067 C1065 1.387 . S
C1067 C1069 1.390 . S
C1067 H1071 0.950 . S
H1068 C1064 0.950 . S
C1069 C1067 1.390 . S
C1069 C1070 1.387 . S
C1069 H1072 0.950 . S
C1070 C1069 1.387 . S
C1070 C1073 1.387 . S
H1071 C1067 0.950 . S
H1072 C1069 0.950 . S
C1073 C1064 1.390 . S
C1073 H1066 0.950 . S
C1073 C1070 1.387 . S
C1074 C1075 1.387 . S
C1074 H1078 0.950 . S
C1074 C1083 1.390 . S
C1075 C1074 1.387 . S
C1075 C1077 1.387 . S
H1076 C1083 0.950 . S
C1077 C1075 1.387 . S
C1077 C1079 1.390 . S
C1077 H1081 0.950 . S
H1078 C1074 0.950 . S
C1079 C1077 1.390 . S
C1079 C1080 1.387 . S
C1079 H1082 0.950 . S
C1080 C1079 1.387 . S
C1080 C1083 1.387 . S
H1081 C1077 0.950 . S
H1082 C1079 0.950 . S
C1083 C1074 1.390 . S
C1083 H1076 0.950 . S
C1083 C1080 1.387 . S
C1084 C1085 1.387 . S
C1084 H1088 0.950 . S
C1084 C1093 1.390 . S
C1085 C1084 1.387 . S
C1085 C1087 1.387 . S
H1086 C1093 0.950 . S
C1087 C1085 1.387 . S
C1087 C1089 1.390 . S
C1087 H1091 0.950 . S
H1088 C1084 0.950 . S
C1089 C1087 1.390 . S
C1089 C1090 1.387 . S
C1089 H1092 0.950 . S
C1090 C1089 1.387 . S
C1090 C1093 1.387 . S
H1091 C1087 0.950 . S
H1092 C1089 0.950 . S
C1093 C1084 1.390 . S
C1093 H1086 0.950 . S
C1093 C1090 1.387 . S
C1094 C1095 1.387 . S
C1094 H1098 0.950 . S
C1094 C1103 1.390 . S
C1095 C1094 1.387 . S
C1095 C1097 1.387 . S
H1096 C1103 0.950 . S
C1097 C1095 1.387 . S
C1097 C1099 1.390 . S
C1097 H1101 0.950 . S
H1098 C1094 0.950 . S
C1099 C1097 1.390 . S
C1099 C1100 1.387 . S
C1099 H1102 0.950 . S
C1100 C1099 1.387 . S
C1100 C1103 1.387 . S
H1101 C1097 0.950 . S
H1102 C1099 0.950 . S
C1103 C1094 1.390 . S
C1103 H1096 0.950 . S
C1103 C1100 1.387 . S
C1104 C1105 1.387 . S
C1104 H1108 0.950 . S
C1104 C1113 1.390 . S
C1105 C1104 1.387 . S
C1105 C1107 1.387 . S
H1106 C1113 0.950 . S
C1107 C1105 1.387 . S
C1107 C1109 1.390 . S
C1107 H1111 0.950 . S
H1108 C1104 0.950 . S
C1109 C1107 1.390 . S
C1109 C1110 1.387 . S
C1109 H1112 0.950 . S
C1110 C1109 1.387 . S
C1110 C1113 1.387 . S
H1111 C1107 0.950 . S
H1112 C1109 0.950 . S
C1113 C1104 1.390 . S
C1113 H1106 0.950 . S
C1113 C1110 1.387 . S
C1114 C1115 1.387 . S
C1114 H1118 0.950 . S
C1114 C1123 1.390 . S
C1115 C1114 1.387 . S
C1115 C1117 1.387 . S
H1116 C1123 0.950 . S
C1117 C1115 1.387 . S
C1117 C1119 1.390 . S
C1117 H1121 0.950 . S
H1118 C1114 0.950 . S
C1119 C1117 1.390 . S
C1119 C1120 1.387 . S
C1119 H1122 0.950 . S
C1120 C1119 1.387 . S
C1120 C1123 1.387 . S
H1121 C1117 0.950 . S
H1122 C1119 0.950 . S
C1123 C1114 1.390 . S
C1123 H1116 0.950 . S
C1123 C1120 1.387 . S
C1124 C1125 1.387 . S
C1124 H1128 0.950 . S
C1124 C1133 1.390 . S
C1125 C1124 1.387 . S
C1125 C1127 1.387 . S
H1126 C1133 0.950 . S
C1127 C1125 1.387 . S
C1127 C1129 1.390 . S
C1127 H1131 0.950 . S
H1128 C1124 0.950 . S
C1129 C1127 1.390 . S
C1129 C1130 1.387 . S
C1129 H1132 0.950 . S
C1130 C1129 1.387 . S
C1130 C1133 1.387 . S
H1131 C1127 0.950 . S
H1132 C1129 0.950 . S
C1133 C1124 1.390 . S
C1133 H1126 0.950 . S
C1133 C1130 1.387 . S
C1134 C1135 1.387 . S
C1134 H1138 0.950 . S
C1134 C1143 1.390 . S
C1135 C1134 1.387 . S
C1135 C1137 1.387 . S
H1136 C1143 0.950 . S
C1137 C1135 1.387 . S
C1137 C1139 1.390 . S
C1137 H1141 0.950 . S
H1138 C1134 0.950 . S
C1139 C1137 1.390 . S
C1139 C1140 1.387 . S
C1139 H1142 0.950 . S
C1140 C1139 1.387 . S
C1140 C1143 1.387 . S
H1141 C1137 0.950 . S
H1142 C1139 0.950 . S
C1143 C1134 1.390 . S
C1143 H1136 0.950 . S
C1143 C1140 1.387 . S
C1144 C1145 1.387 . S
C1144 H1148 0.950 . S
C1144 C1153 1.390 . S
C1145 C1144 1.387 . S
C1145 C1147 1.387 . S
H1146 C1153 0.950 . S
C1147 C1145 1.387 . S
C1147 C1149 1.390 . S
C1147 H1151 0.950 . S
H1148 C1144 0.950 . S
C1149 C1147 1.390 . S
C1149 C1150 1.387 . S
C1149 H1152 0.950 . S
C1150 C1149 1.387 . S
C1150 C1153 1.387 . S
H1151 C1147 0.950 . S
H1152 C1149 0.950 . S
C1153 C1144 1.390 . S
C1153 H1146 0.950 . S
C1153 C1150 1.387 . S
C1154 C1155 1.387 . S
C1154 H1158 0.950 . S
C1154 C1163 1.390 . S
C1155 C1154 1.387 . S
C1155 C1157 1.387 . S
H1156 C1163 0.950 . S
C1157 C1155 1.387 . S
C1157 C1159 1.390 . S
C1157 H1161 0.950 . S
H1158 C1154 0.950 . S
C1159 C1157 1.390 . S
C1159 C1160 1.387 . S
C1159 H1162 0.950 . S
C1160 C1159 1.387 . S
C1160 C1163 1.387 . S
H1161 C1157 0.950 . S
H1162 C1159 0.950 . S
C1163 C1154 1.390 . S
C1163 H1156 0.950 . S
C1163 C1160 1.387 . S
C1164 C1165 1.387 . S
C1164 H1168 0.950 . S
C1164 C1173 1.390 . S
C1165 C1164 1.387 . S
C1165 C1167 1.387 . S
H1166 C1173 0.950 . S
C1167 C1165 1.387 . S
C1167 C1169 1.390 . S
C1167 H1171 0.950 . S
H1168 C1164 0.950 . S
C1169 C1167 1.390 . S
C1169 C1170 1.387 . S
C1169 H1172 0.950 . S
C1170 C1169 1.387 . S
C1170 C1173 1.387 . S
H1171 C1167 0.950 . S
H1172 C1169 0.950 . S
C1173 C1164 1.390 . S
C1173 H1166 0.950 . S
C1173 C1170 1.387 . S
C1174 C1175 1.387 . S
C1174 H1178 0.950 . S
C1174 C1183 1.390 . S
C1175 C1174 1.387 . S
C1175 C1177 1.387 . S
H1176 C1183 0.950 . S
C1177 C1175 1.387 . S
C1177 C1179 1.390 . S
C1177 H1181 0.950 . S
H1178 C1174 0.950 . S
C1179 C1177 1.390 . S
C1179 C1180 1.387 . S
C1179 H1182 0.950 . S
C1180 C1179 1.387 . S
C1180 C1183 1.387 . S
H1181 C1177 0.950 . S
H1182 C1179 0.950 . S
C1183 C1174 1.390 . S
C1183 H1176 0.950 . S
C1183 C1180 1.387 . S
C1184 C1185 1.387 . S
C1184 H1188 0.950 . S
C1184 C1193 1.390 . S
C1185 C1184 1.387 . S
C1185 C1187 1.387 . S
H1186 C1193 0.950 . S
C1187 C1185 1.387 . S
C1187 C1189 1.390 . S
C1187 H1191 0.950 . S
H1188 C1184 0.950 . S
C1189 C1187 1.390 . S
C1189 C1190 1.387 . S
C1189 H1192 0.950 . S
C1190 C1189 1.387 . S
C1190 C1193 1.387 . S
H1191 C1187 0.950 . S
H1192 C1189 0.950 . S
C1193 C1184 1.390 . S
C1193 H1186 0.950 . S
C1193 C1190 1.387 . S
C1194 C1195 1.387 . S
C1194 H1198 0.950 . S
C1194 C1203 1.390 1_445 S
C1195 C1194 1.387 . S
C1195 C1197 1.387 . S
H1196 C1203 0.950 . S
C1197 C1195 1.387 . S
C1197 C1199 1.390 1_445 S
C1197 H1201 0.950 . S
H1198 C1194 0.950 . S
C1199 C1197 1.390 1_665 S
C1199 C1200 1.387 . S
C1199 H1202 0.950 . S
C1200 C1199 1.387 . S
C1200 C1203 1.387 . S
H1201 C1197 0.950 . S
H1202 C1199 0.950 . S
C1203 C1194 1.390 1_665 S
C1203 H1196 0.950 . S
C1203 C1200 1.387 . S
C1204 C1205 1.387 . S
C1204 H1208 0.950 . S
C1204 C1213 1.390 . S
C1205 C1204 1.387 . S
C1205 C1207 1.387 . S
H1206 C1213 0.950 . S
C1207 C1205 1.387 . S
C1207 C1209 1.390 . S
C1207 H1211 0.950 . S
H1208 C1204 0.950 . S
C1209 C1207 1.390 . S
C1209 C1210 1.387 . S
C1209 H1212 0.950 . S
C1210 C1209 1.387 . S
C1210 C1213 1.387 . S
H1211 C1207 0.950 . S
H1212 C1209 0.950 . S
C1213 C1204 1.390 . S
C1213 H1206 0.950 . S
C1213 C1210 1.387 . S
C1214 C1215 1.387 . S
C1214 H1218 0.950 . S
C1214 C1223 1.390 1_565 S
C1215 C1214 1.387 . S
C1215 C1217 1.387 1_556 S
H1216 C1223 0.950 . S
C1217 C1215 1.387 1_554 S
C1217 C1219 1.390 1_565 S
C1217 H1221 0.950 . S
H1218 C1214 0.950 . S
C1219 C1217 1.390 1_545 S
C1219 C1220 1.387 . S
C1219 H1222 0.950 . S
C1220 C1219 1.387 . S
C1220 C1223 1.387 1_554 S
H1221 C1217 0.950 . S
H1222 C1219 0.950 . S
C1223 C1214 1.390 1_545 S
C1223 H1216 0.950 . S
C1223 C1220 1.387 1_556 S
C1224 C1225 1.387 . S
C1224 H1228 0.950 . S
C1224 C1233 1.390 . S
C1225 C1224 1.387 . S
C1225 C1227 1.387 . S
H1226 C1233 0.950 . S
C1227 C1225 1.387 . S
C1227 C1229 1.390 . S
C1227 H1231 0.950 . S
H1228 C1224 0.950 . S
C1229 C1227 1.390 . S
C1229 C1230 1.387 . S
C1229 H1232 0.950 . S
C1230 C1229 1.387 . S
C1230 C1233 1.387 . S
H1231 C1227 0.950 . S
H1232 C1229 0.950 . S
C1233 C1224 1.390 . S
C1233 H1226 0.950 . S
C1233 C1230 1.387 . S
C1234 C1235 1.387 . S
C1234 H1238 0.950 . S
C1234 C1243 1.390 1_565 S
C1235 C1234 1.387 . S
C1235 C1237 1.387 . S
H1236 C1243 0.950 . S
C1237 C1235 1.387 . S
C1237 C1239 1.390 1_565 S
C1237 H1241 0.950 . S
H1238 C1234 0.950 . S
C1239 C1237 1.390 1_545 S
C1239 C1240 1.387 . S
C1239 H1242 0.950 . S
C1240 C1239 1.387 . S
C1240 C1243 1.387 . S
H1241 C1237 0.950 . S
H1242 C1239 0.950 . S
C1243 C1234 1.390 1_545 S
C1243 H1236 0.950 . S
C1243 C1240 1.387 . S
C1244 C1245 1.387 . S
C1244 H1248 0.950 . S
C1244 C1253 1.390 . S
C1245 C1244 1.387 . S
C1245 C1247 1.387 . S
H1246 C1253 0.950 . S
C1247 C1245 1.387 . S
C1247 C1249 1.390 . S
C1247 H1251 0.950 . S
H1248 C1244 0.950 . S
C1249 C1247 1.390 . S
C1249 C1250 1.387 . S
C1249 H1252 0.950 . S
C1250 C1249 1.387 . S
C1250 C1253 1.387 . S
H1251 C1247 0.950 . S
H1252 C1249 0.950 . S
C1253 C1244 1.390 . S
C1253 H1246 0.950 . S
C1253 C1250 1.387 . S
C1254 C1255 1.387 1_556 S
C1254 H1258 0.950 . S
C1254 C1263 1.390 1_465 S
C1255 C1254 1.387 1_554 S
C1255 C1257 1.387 . S
H1256 C1263 0.950 . S
C1257 C1255 1.387 . S
C1257 C1259 1.390 1_465 S
C1257 H1261 0.950 . S
H1258 C1254 0.950 . S
C1259 C1257 1.390 1_645 S
C1259 C1260 1.387 1_554 S
C1259 H1262 0.950 . S
C1260 C1259 1.387 1_556 S
C1260 C1263 1.387 . S
H1261 C1257 0.950 . S
H1262 C1259 0.950 . S
C1263 C1254 1.390 1_645 S
C1263 H1256 0.950 . S
C1263 C1260 1.387 . S
C1264 C1265 1.387 . S
C1264 H1268 0.950 . S
C1264 C1273 1.390 . S
C1265 C1264 1.387 . S
C1265 C1267 1.387 . S
H1266 C1273 0.950 . S
C1267 C1265 1.387 . S
C1267 C1269 1.390 . S
C1267 H1271 0.950 . S
H1268 C1264 0.950 . S
C1269 C1267 1.390 . S
C1269 C1270 1.387 . S
C1269 H1272 0.950 . S
C1270 C1269 1.387 . S
C1270 C1273 1.387 . S
H1271 C1267 0.950 . S
H1272 C1269 0.950 . S
C1273 C1264 1.390 . S
C1273 H1266 0.950 . S
C1273 C1270 1.387 . S
C1274 C1275 1.387 . S
C1274 H1278 0.950 . S
C1274 C1283 1.390 . S
C1275 C1274 1.387 . S
C1275 C1277 1.387 . S
H1276 C1283 0.950 . S
C1277 C1275 1.387 . S
C1277 C1279 1.390 . S
C1277 H1281 0.950 . S
H1278 C1274 0.950 . S
C1279 C1277 1.390 . S
C1279 C1280 1.387 . S
C1279 H1282 0.950 . S
C1280 C1279 1.387 . S
C1280 C1283 1.387 . S
H1281 C1277 0.950 . S
H1282 C1279 0.950 . S
C1283 C1274 1.390 . S
C1283 H1276 0.950 . S
C1283 C1280 1.387 . S
C1284 C1285 1.387 . S
C1284 H1288 0.950 . S
C1284 C1293 1.390 . S
C1285 C1284 1.387 . S
C1285 C1287 1.387 . S
H1286 C1293 0.950 . S
C1287 C1285 1.387 . S
C1287 C1289 1.390 . S
C1287 H1291 0.950 . S
H1288 C1284 0.950 . S
C1289 C1287 1.390 . S
C1289 C1290 1.387 . S
C1289 H1292 0.950 . S
C1290 C1289 1.387 . S
C1290 C1293 1.387 . S
H1291 C1287 0.950 . S
H1292 C1289 0.950 . S
C1293 C1284 1.390 . S
C1293 H1286 0.950 . S
C1293 C1290 1.387 . S
C1294 C1295 1.387 . S
C1294 H1298 0.950 . S
C1294 C1303 1.390 . S
C1295 C1294 1.387 . S
C1295 C1297 1.387 . S
H1296 C1303 0.950 . S
C1297 C1295 1.387 . S
C1297 C1299 1.390 . S
C1297 H1301 0.950 . S
H1298 C1294 0.950 . S
C1299 C1297 1.390 . S
C1299 C1300 1.387 . S
C1299 H1302 0.950 . S
C1300 C1299 1.387 . S
C1300 C1303 1.387 . S
H1301 C1297 0.950 . S
H1302 C1299 0.950 . S
C1303 C1294 1.390 . S
C1303 H1296 0.950 . S
C1303 C1300 1.387 . S
C1304 C1305 1.387 . S
C1304 H1308 0.950 . S
C1304 C1313 1.390 . S
C1305 C1304 1.387 . S
C1305 C1307 1.387 1_556 S
H1306 C1313 0.950 . S
C1307 C1305 1.387 1_554 S
C1307 C1309 1.390 . S
C1307 H1311 0.950 . S
H1308 C1304 0.950 . S
C1309 C1307 1.390 . S
C1309 C1310 1.387 . S
C1309 H1312 0.950 . S
C1310 C1309 1.387 . S
C1310 C1313 1.387 1_554 S
H1311 C1307 0.950 . S
H1312 C1309 0.950 . S
C1313 C1304 1.390 . S
C1313 H1306 0.950 . S
C1313 C1310 1.387 1_556 S
C1314 C1315 1.387 . S
C1314 H1318 0.950 . S
C1314 C1323 1.390 1_455 S
C1315 C1314 1.387 . S
C1315 C1317 1.387 . S
H1316 C1323 0.950 . S
C1317 C1315 1.387 . S
C1317 C1319 1.390 1_455 S
C1317 H1321 0.950 . S
H1318 C1314 0.950 . S
C1319 C1317 1.390 1_655 S
C1319 C1320 1.387 . S
C1319 H1322 0.950 . S
C1320 C1319 1.387 . S
C1320 C1323 1.387 . S
H1321 C1317 0.950 . S
H1322 C1319 0.950 . S
C1323 C1314 1.390 1_655 S
C1323 H1316 0.950 . S
C1323 C1320 1.387 . S
C1324 C1325 1.387 . S
C1324 H1328 0.950 . S
C1324 C1333 1.390 1_455 S
C1325 C1324 1.387 . S
C1325 C1327 1.387 1_556 S
H1326 C1333 0.950 . S
C1327 C1325 1.387 1_554 S
C1327 C1329 1.390 1_455 S
C1327 H1331 0.950 . S
H1328 C1324 0.950 . S
C1329 C1327 1.390 1_655 S
C1329 C1330 1.387 . S
C1329 H1332 0.950 . S
C1330 C1329 1.387 . S
C1330 C1333 1.387 1_554 S
H1331 C1327 0.950 . S
H1332 C1329 0.950 . S
C1333 C1324 1.390 1_655 S
C1333 H1326 0.950 . S
C1333 C1330 1.387 1_556 S
C1334 C1335 1.387 . S
C1334 H1338 0.950 . S
C1334 C1343 1.390 . S
C1335 C1334 1.387 . S
C1335 C1337 1.387 . S
H1336 C1343 0.950 . S
C1337 C1335 1.387 . S
C1337 C1339 1.390 . S
C1337 H1341 0.950 . S
H1338 C1334 0.950 . S
C1339 C1337 1.390 . S
C1339 C1340 1.387 . S
C1339 H1342 0.950 . S
C1340 C1339 1.387 . S
C1340 C1343 1.387 . S
H1341 C1337 0.950 . S
H1342 C1339 0.950 . S
C1343 C1334 1.390 . S
C1343 H1336 0.950 . S
C1343 C1340 1.387 . S
C1344 C1345 1.387 . S
C1344 H1348 0.950 . S
C1344 C1353 1.390 . S
C1345 C1344 1.387 . S
C1345 C1347 1.387 . S
H1346 C1353 0.950 . S
C1347 C1345 1.387 . S
C1347 C1349 1.390 . S
C1347 H1351 0.950 . S
H1348 C1344 0.950 . S
C1349 C1347 1.390 . S
C1349 C1350 1.387 . S
C1349 H1352 0.950 . S
C1350 C1349 1.387 . S
C1350 C1353 1.387 . S
H1351 C1347 0.950 . S
H1352 C1349 0.950 . S
C1353 C1344 1.390 . S
C1353 H1346 0.950 . S
C1353 C1350 1.387 . S
C1354 C1355 1.387 . S
C1354 H1358 0.950 . S
C1354 C1363 1.390 . S
C1355 C1354 1.387 . S
C1355 C1357 1.387 . S
H1356 C1363 0.950 . S
C1357 C1355 1.387 . S
C1357 C1359 1.390 . S
C1357 H1361 0.950 . S
H1358 C1354 0.950 . S
C1359 C1357 1.390 . S
C1359 C1360 1.387 . S
C1359 H1362 0.950 . S
C1360 C1359 1.387 . S
C1360 C1363 1.387 . S
H1361 C1357 0.950 . S
H1362 C1359 0.950 . S
C1363 C1354 1.390 . S
C1363 H1356 0.950 . S
C1363 C1360 1.387 . S
C1364 C1365 1.387 . S
C1364 H1368 0.950 . S
C1364 C1373 1.390 . S
C1365 C1364 1.387 . S
C1365 C1367 1.387 . S
H1366 C1373 0.950 . S
C1367 C1365 1.387 . S
C1367 C1369 1.390 . S
C1367 H1371 0.950 . S
H1368 C1364 0.950 . S
C1369 C1367 1.390 . S
C1369 C1370 1.387 . S
C1369 H1372 0.950 . S
C1370 C1369 1.387 . S
C1370 C1373 1.387 . S
H1371 C1367 0.950 . S
H1372 C1369 0.950 . S
C1373 C1364 1.390 . S
C1373 H1366 0.950 . S
C1373 C1370 1.387 . S
C1374 C1375 1.387 . S
C1374 H1378 0.950 . S
C1374 C1383 1.390 . S
C1375 C1374 1.387 . S
C1375 C1377 1.387 . S
H1376 C1383 0.950 . S
C1377 C1375 1.387 . S
C1377 C1379 1.390 . S
C1377 H1381 0.950 . S
H1378 C1374 0.950 . S
C1379 C1377 1.390 . S
C1379 C1380 1.387 . S
C1379 H1382 0.950 . S
C1380 C1379 1.387 . S
C1380 C1383 1.387 . S
H1381 C1377 0.950 . S
H1382 C1379 0.950 . S
C1383 C1374 1.390 . S
C1383 H1376 0.950 . S
C1383 C1380 1.387 . S
C1384 C1385 1.387 . S
C1384 H1388 0.950 . S
C1384 C1393 1.390 . S
C1385 C1384 1.387 . S
C1385 C1387 1.387 . S
H1386 C1393 0.950 . S
C1387 C1385 1.387 . S
C1387 C1389 1.390 . S
C1387 H1391 0.950 . S
H1388 C1384 0.950 . S
C1389 C1387 1.390 . S
C1389 C1390 1.387 . S
C1389 H1392 0.950 . S
C1390 C1389 1.387 . S
C1390 C1393 1.387 . S
H1391 C1387 0.950 . S
H1392 C1389 0.950 . S
C1393 C1384 1.390 . S
C1393 H1386 0.950 . S
C1393 C1390 1.387 . S
C1394 C1395 1.387 . S
C1394 H1398 0.950 . S
C1394 C1403 1.390 . S
C1395 C1394 1.387 . S
C1395 C1397 1.387 . S
H1396 C1403 0.950 . S
C1397 C1395 1.387 . S
C1397 C1399 1.390 . S
C1397 H1401 0.950 . S
H1398 C1394 0.950 . S
C1399 C1397 1.390 . S
C1399 C1400 1.387 . S
C1399 H1402 0.950 . S
C1400 C1399 1.387 . S
C1400 C1403 1.387 . S
H1401 C1397 0.950 . S
H1402 C1399 0.950 . S
C1403 C1394 1.390 . S
C1403 H1396 0.950 . S
C1403 C1400 1.387 . S
C1404 C1405 1.387 . S
C1404 H1408 0.950 . S
C1404 C1413 1.390 . S
C1405 C1404 1.387 . S
C1405 C1407 1.387 . S
H1406 C1413 0.950 . S
C1407 C1405 1.387 . S
C1407 C1409 1.390 . S
C1407 H1411 0.950 . S
H1408 C1404 0.950 . S
C1409 C1407 1.390 . S
C1409 C1410 1.387 . S
C1409 H1412 0.950 . S
C1410 C1409 1.387 . S
C1410 C1413 1.387 . S
H1411 C1407 0.950 . S
H1412 C1409 0.950 . S
C1413 C1404 1.390 . S
C1413 H1406 0.950 . S
C1413 C1410 1.387 . S
C1414 C1415 1.387 . S
C1414 H1418 0.950 . S
C1414 C1423 1.390 . S
C1415 C1414 1.387 . S
C1415 C1417 1.387 . S
H1416 C1423 0.950 . S
C1417 C1415 1.387 . S
C1417 C1419 1.390 . S
C1417 H1421 0.950 . S
H1418 C1414 0.950 . S
C1419 C1417 1.390 . S
C1419 C1420 1.387 . S
C1419 H1422 0.950 . S
C1420 C1419 1.387 . S
C1420 C1423 1.387 . S
H1421 C1417 0.950 . S
H1422 C1419 0.950 . S
C1423 C1414 1.390 . S
C1423 H1416 0.950 . S
C1423 C1420 1.387 . S
C1424 C1425 1.387 . S
C1424 H1428 0.950 . S
C1424 C1433 1.390 . S
C1425 C1424 1.387 . S
C1425 C1427 1.387 . S
H1426 C1433 0.950 . S
C1427 C1425 1.387 . S
C1427 C1429 1.390 . S
C1427 H1431 0.950 . S
H1428 C1424 0.950 . S
C1429 C1427 1.390 . S
C1429 C1430 1.387 . S
C1429 H1432 0.950 . S
C1430 C1429 1.387 . S
C1430 C1433 1.387 . S
H1431 C1427 0.950 . S
H1432 C1429 0.950 . S
C1433 C1424 1.390 . S
C1433 H1426 0.950 . S
C1433 C1430 1.387 . S
C1434 C1435 1.387 . S
C1434 H1438 0.950 . S
C1434 C1443 1.390 . S
C1435 C1434 1.387 . S
C1435 C1437 1.387 . S
H1436 C1443 0.950 . S
C1437 C1435 1.387 . S
C1437 C1439 1.390 . S
C1437 H1441 0.950 . S
H1438 C1434 0.950 . S
C1439 C1437 1.390 . S
C1439 C1440 1.387 . S
C1439 H1442 0.950 . S
C1440 C1439 1.387 . S
C1440 C1443 1.387 . S
H1441 C1437 0.950 . S
H1442 C1439 0.950 . S
C1443 C1434 1.390 . S
C1443 H1436 0.950 . S
C1443 C1440 1.387 . S
C1444 C1445 1.387 . S
C1444 H1448 0.950 . S
C1444 C1453 1.390 . S
C1445 C1444 1.387 . S
C1445 C1447 1.387 . S
H1446 C1453 0.950 . S
C1447 C1445 1.387 . S
C1447 C1449 1.390 . S
C1447 H1451 0.950 . S
H1448 C1444 0.950 . S
C1449 C1447 1.390 . S
C1449 C1450 1.387 . S
C1449 H1452 0.950 . S
C1450 C1449 1.387 . S
C1450 C1453 1.387 . S
H1451 C1447 0.950 . S
H1452 C1449 0.950 . S
C1453 C1444 1.390 . S
C1453 H1446 0.950 . S
C1453 C1450 1.387 . S
C1454 C1455 1.387 . S
C1454 H1458 0.950 . S
C1454 C1463 1.390 . S
C1455 C1454 1.387 . S
C1455 C1457 1.387 . S
H1456 C1463 0.950 . S
C1457 C1455 1.387 . S
C1457 C1459 1.390 . S
C1457 H1461 0.950 . S
H1458 C1454 0.950 . S
C1459 C1457 1.390 . S
C1459 C1460 1.387 . S
C1459 H1462 0.950 . S
C1460 C1459 1.387 . S
C1460 C1463 1.387 . S
H1461 C1457 0.950 . S
H1462 C1459 0.950 . S
C1463 C1454 1.390 . S
C1463 H1456 0.950 . S
C1463 C1460 1.387 . S
C1464 C1465 1.387 . S
C1464 H1468 0.950 . S
C1464 C1473 1.390 . S
C1465 C1464 1.387 . S
C1465 C1467 1.387 . S
H1466 C1473 0.950 . S
C1467 C1465 1.387 . S
C1467 C1469 1.390 . S
C1467 H1471 0.950 . S
H1468 C1464 0.950 . S
C1469 C1467 1.390 . S
C1469 C1470 1.387 . S
C1469 H1472 0.950 . S
C1470 C1469 1.387 . S
C1470 C1473 1.387 . S
H1471 C1467 0.950 . S
H1472 C1469 0.950 . S
C1473 C1464 1.390 . S
C1473 H1466 0.950 . S
C1473 C1470 1.387 . S
C1474 C1475 1.387 . S
C1474 H1478 0.950 . S
C1474 C1483 1.390 . S
C1475 C1474 1.387 . S
C1475 C1477 1.387 . S
H1476 C1483 0.950 . S
C1477 C1475 1.387 . S
C1477 C1479 1.390 . S
C1477 H1481 0.950 . S
H1478 C1474 0.950 . S
C1479 C1477 1.390 . S
C1479 C1480 1.387 . S
C1479 H1482 0.950 . S
C1480 C1479 1.387 . S
C1480 C1483 1.387 . S
H1481 C1477 0.950 . S
H1482 C1479 0.950 . S
C1483 C1474 1.390 . S
C1483 H1476 0.950 . S
C1483 C1480 1.387 . S
C1484 C1485 1.387 . S
C1484 H1488 0.950 . S
C1484 C1493 1.390 . S
C1485 C1484 1.387 . S
C1485 C1487 1.387 . S
H1486 C1493 0.950 . S
C1487 C1485 1.387 . S
C1487 C1489 1.390 . S
C1487 H1491 0.950 . S
H1488 C1484 0.950 . S
C1489 C1487 1.390 . S
C1489 C1490 1.387 . S
C1489 H1492 0.950 . S
C1490 C1489 1.387 . S
C1490 C1493 1.387 . S
H1491 C1487 0.950 . S
H1492 C1489 0.950 . S
C1493 C1484 1.390 . S
C1493 H1486 0.950 . S
C1493 C1490 1.387 . S
C1494 C1495 1.387 . S
C1494 H1498 0.950 . S
C1494 C1503 1.390 . S
C1495 C1494 1.387 . S
C1495 C1497 1.387 . S
H1496 C1503 0.950 . S
C1497 C1495 1.387 . S
C1497 C1499 1.390 . S
C1497 H1501 0.950 . S
H1498 C1494 0.950 . S
C1499 C1497 1.390 . S
C1499 C1500 1.387 . S
C1499 H1502 0.950 . S
C1500 C1499 1.387 . S
C1500 C1503 1.387 . S
H1501 C1497 0.950 . S
H1502 C1499 0.950 . S
C1503 C1494 1.390 . S
C1503 H1496 0.950 . S
C1503 C1500 1.387 . S
C1504 C1505 1.387 . S
C1504 H1508 0.950 . S
C1504 C1513 1.390 . S
C1505 C1504 1.387 . S
C1505 C1507 1.387 . S
H1506 C1513 0.950 . S
C1507 C1505 1.387 . S
C1507 C1509 1.390 . S
C1507 H1511 0.950 . S
H1508 C1504 0.950 . S
C1509 C1507 1.390 . S
C1509 C1510 1.387 . S
C1509 H1512 0.950 . S
C1510 C1509 1.387 . S
C1510 C1513 1.387 . S
H1511 C1507 0.950 . S
H1512 C1509 0.950 . S
C1513 C1504 1.390 . S
C1513 H1506 0.950 . S
C1513 C1510 1.387 . S
C1514 C1515 1.387 . S
C1514 H1518 0.950 . S
C1514 C1523 1.390 . S
C1515 C1514 1.387 . S
C1515 C1517 1.387 . S
H1516 C1523 0.950 . S
C1517 C1515 1.387 . S
C1517 C1519 1.390 . S
C1517 H1521 0.950 . S
H1518 C1514 0.950 . S
C1519 C1517 1.390 . S
C1519 C1520 1.387 . S
C1519 H1522 0.950 . S
C1520 C1519 1.387 . S
C1520 C1523 1.387 . S
H1521 C1517 0.950 . S
H1522 C1519 0.950 . S
C1523 C1514 1.390 . S
C1523 H1516 0.950 . S
C1523 C1520 1.387 . S
C1524 C1525 1.387 . S
C1524 H1528 0.950 . S
C1524 C1533 1.390 . S
C1525 C1524 1.387 . S
C1525 C1527 1.387 . S
H1526 C1533 0.950 . S
C1527 C1525 1.387 . S
C1527 C1529 1.390 . S
C1527 H1531 0.950 . S
H1528 C1524 0.950 . S
C1529 C1527 1.390 . S
C1529 C1530 1.387 . S
C1529 H1532 0.950 . S
C1530 C1529 1.387 . S
C1530 C1533 1.387 . S
H1531 C1527 0.950 . S
H1532 C1529 0.950 . S
C1533 C1524 1.390 . S
C1533 H1526 0.950 . S
C1533 C1530 1.387 . S
C1534 C1535 1.387 . S
C1534 H1538 0.950 . S
C1534 C1543 1.390 . S
C1535 C1534 1.387 . S
C1535 C1537 1.387 . S
H1536 C1543 0.950 . S
C1537 C1535 1.387 . S
C1537 C1539 1.390 . S
C1537 H1541 0.950 . S
H1538 C1534 0.950 . S
C1539 C1537 1.390 . S
C1539 C1540 1.387 . S
C1539 H1542 0.950 . S
C1540 C1539 1.387 . S
C1540 C1543 1.387 . S
H1541 C1537 0.950 . S
H1542 C1539 0.950 . S
C1543 C1534 1.390 . S
C1543 H1536 0.950 . S
C1543 C1540 1.387 . S
C1544 C1545 1.387 . S
C1544 H1548 0.950 . S
C1544 C1553 1.390 . S
C1545 C1544 1.387 . S
C1545 C1547 1.387 . S
H1546 C1553 0.950 . S
C1547 C1545 1.387 . S
C1547 C1549 1.390 . S
C1547 H1551 0.950 . S
H1548 C1544 0.950 . S
C1549 C1547 1.390 . S
C1549 C1550 1.387 . S
C1549 H1552 0.950 . S
C1550 C1549 1.387 . S
C1550 C1553 1.387 . S
H1551 C1547 0.950 . S
H1552 C1549 0.950 . S
C1553 C1544 1.390 . S
C1553 H1546 0.950 . S
C1553 C1550 1.387 . S
C1554 C1555 1.387 . S
C1554 H1558 0.950 . S
C1554 C1563 1.390 . S
C1555 C1554 1.387 . S
C1555 C1557 1.387 . S
H1556 C1563 0.950 . S
C1557 C1555 1.387 . S
C1557 C1559 1.390 . S
C1557 H1561 0.950 . S
H1558 C1554 0.950 . S
C1559 C1557 1.390 . S
C1559 C1560 1.387 . S
C1559 H1562 0.950 . S
C1560 C1559 1.387 . S
C1560 C1563 1.387 . S
H1561 C1557 0.950 . S
H1562 C1559 0.950 . S
C1563 C1554 1.390 . S
C1563 H1556 0.950 . S
C1563 C1560 1.387 . S
C1564 C1565 1.387 . S
C1564 H1568 0.950 . S
C1564 C1573 1.390 . S
C1565 C1564 1.387 . S
C1565 C1567 1.387 . S
H1566 C1573 0.950 . S
C1567 C1565 1.387 . S
C1567 C1569 1.390 . S
C1567 H1571 0.950 . S
H1568 C1564 0.950 . S
C1569 C1567 1.390 . S
C1569 C1570 1.387 . S
C1569 H1572 0.950 . S
C1570 C1569 1.387 . S
C1570 C1573 1.387 . S
H1571 C1567 0.950 . S
H1572 C1569 0.950 . S
C1573 C1564 1.390 . S
C1573 H1566 0.950 . S
C1573 C1570 1.387 . S
C1574 C1575 1.387 . S
C1574 H1578 0.950 . S
C1574 C1583 1.390 . S
C1575 C1574 1.387 . S
C1575 C1577 1.387 . S
H1576 C1583 0.950 . S
C1577 C1575 1.387 . S
C1577 C1579 1.390 . S
C1577 H1581 0.950 . S
H1578 C1574 0.950 . S
C1579 C1577 1.390 . S
C1579 C1580 1.387 . S
C1579 H1582 0.950 . S
C1580 C1579 1.387 . S
C1580 C1583 1.387 . S
H1581 C1577 0.950 . S
H1582 C1579 0.950 . S
C1583 C1574 1.390 . S
C1583 H1576 0.950 . S
C1583 C1580 1.387 . S
C1584 C1585 1.387 . S
C1584 H1588 0.950 . S
C1584 C1593 1.390 . S
C1585 C1584 1.387 . S
C1585 C1587 1.387 . S
H1586 C1593 0.950 . S
C1587 C1585 1.387 . S
C1587 C1589 1.390 . S
C1587 H1591 0.950 . S
H1588 C1584 0.950 . S
C1589 C1587 1.390 . S
C1589 C1590 1.387 . S
C1589 H1592 0.950 . S
C1590 C1589 1.387 . S
C1590 C1593 1.387 . S
H1591 C1587 0.950 . S
H1592 C1589 0.950 . S
C1593 C1584 1.390 . S
C1593 H1586 0.950 . S
C1593 C1590 1.387 . S
C1594 C1595 1.387 . S
C1594 H1598 0.950 . S
C1594 C1603 1.390 . S
C1595 C1594 1.387 . S
C1595 C1597 1.387 . S
H1596 C1603 0.950 . S
C1597 C1595 1.387 . S
C1597 C1599 1.390 . S
C1597 H1601 0.950 . S
H1598 C1594 0.950 . S
C1599 C1597 1.390 . S
C1599 C1600 1.387 . S
C1599 H1602 0.950 . S
C1600 C1599 1.387 . S
C1600 C1603 1.387 . S
H1601 C1597 0.950 . S
H1602 C1599 0.950 . S
C1603 C1594 1.390 . S
C1603 H1596 0.950 . S
C1603 C1600 1.387 . S
C1604 C1605 1.387 . S
C1604 H1608 0.950 . S
C1604 C1613 1.390 . S
C1605 C1604 1.387 . S
C1605 C1607 1.387 . S
H1606 C1613 0.950 . S
C1607 C1605 1.387 . S
C1607 C1609 1.390 . S
C1607 H1611 0.950 . S
H1608 C1604 0.950 . S
C1609 C1607 1.390 . S
C1609 C1610 1.387 . S
C1609 H1612 0.950 . S
C1610 C1609 1.387 . S
C1610 C1613 1.387 . S
H1611 C1607 0.950 . S
H1612 C1609 0.950 . S
C1613 C1604 1.390 . S
C1613 H1606 0.950 . S
C1613 C1610 1.387 . S
C1614 C1615 1.387 . S
C1614 H1618 0.950 . S
C1614 C1623 1.390 . S
C1615 C1614 1.387 . S
C1615 C1617 1.387 . S
H1616 C1623 0.950 . S
C1617 C1615 1.387 . S
C1617 C1619 1.390 . S
C1617 H1621 0.950 . S
H1618 C1614 0.950 . S
C1619 C1617 1.390 . S
C1619 C1620 1.387 . S
C1619 H1622 0.950 . S
C1620 C1619 1.387 . S
C1620 C1623 1.387 . S
H1621 C1617 0.950 . S
H1622 C1619 0.950 . S
C1623 C1614 1.390 . S
C1623 H1616 0.950 . S
C1623 C1620 1.387 . S
C1624 C1625 1.387 . S
C1624 H1628 0.950 . S
C1624 C1633 1.390 . S
C1625 C1624 1.387 . S
C1625 C1627 1.387 . S
H1626 C1633 0.950 . S
C1627 C1625 1.387 . S
C1627 C1629 1.390 . S
C1627 H1631 0.950 . S
H1628 C1624 0.950 . S
C1629 C1627 1.390 . S
C1629 C1630 1.387 . S
C1629 H1632 0.950 . S
C1630 C1629 1.387 . S
C1630 C1633 1.387 . S
H1631 C1627 0.950 . S
H1632 C1629 0.950 . S
C1633 C1624 1.390 . S
C1633 H1626 0.950 . S
C1633 C1630 1.387 . S
C1634 C1635 1.387 . S
C1634 H1638 0.950 . S
C1634 C1643 1.390 . S
C1635 C1634 1.387 . S
C1635 C1637 1.387 . S
H1636 C1643 0.950 . S
C1637 C1635 1.387 . S
C1637 C1639 1.390 . S
C1637 H1641 0.950 . S
H1638 C1634 0.950 . S
C1639 C1637 1.390 . S
C1639 C1640 1.387 . S
C1639 H1642 0.950 . S
C1640 C1639 1.387 . S
C1640 C1643 1.387 . S
H1641 C1637 0.950 . S
H1642 C1639 0.950 . S
C1643 C1634 1.390 . S
C1643 H1636 0.950 . S
C1643 C1640 1.387 . S
C1644 C1645 1.387 . S
C1644 H1648 0.950 . S
C1644 C1653 1.390 . S
C1645 C1644 1.387 . S
C1645 C1647 1.387 . S
H1646 C1653 0.950 . S
C1647 C1645 1.387 . S
C1647 C1649 1.390 . S
C1647 H1651 0.950 . S
H1648 C1644 0.950 . S
C1649 C1647 1.390 . S
C1649 C1650 1.387 . S
C1649 H1652 0.950 . S
C1650 C1649 1.387 . S
C1650 C1653 1.387 . S
H1651 C1647 0.950 . S
H1652 C1649 0.950 . S
C1653 C1644 1.390 . S
C1653 H1646 0.950 . S
C1653 C1650 1.387 . S
C1654 C1655 1.387 . S
C1654 H1658 0.950 . S
C1654 C1663 1.390 . S
C1655 C1654 1.387 . S
C1655 C1657 1.387 . S
H1656 C1663 0.950 . S
C1657 C1655 1.387 . S
C1657 C1659 1.390 . S
C1657 H1661 0.950 . S
H1658 C1654 0.950 . S
C1659 C1657 1.390 . S
C1659 C1660 1.387 . S
C1659 H1662 0.950 . S
C1660 C1659 1.387 . S
C1660 C1663 1.387 . S
H1661 C1657 0.950 . S
H1662 C1659 0.950 . S
C1663 C1654 1.390 . S
C1663 H1656 0.950 . S
C1663 C1660 1.387 . S
C705 C669 1.605 . S
C710 C4 1.610 . S
C715 C339 1.604 . S
C720 C26 1.610 . S
C725 C625 1.605 . S
C730 C48 1.610 . S
C735 C295 1.604 . S
C740 C70 1.610 . S
C745 C577 1.603 . S
C750 C96 1.610 . S
C755 C247 1.604 . S
C760 C118 1.610 . S
C765 C533 1.604 . S
C770 C140 1.610 . S
C775 C203 1.604 . S
C780 C162 1.610 . S
C785 C184 1.610 . S
C790 C490 1.604 . S
C795 C160 1.604 . S
C800 C206 1.610 . S
C805 C446 1.605 . S
C810 C228 1.610 . S
C815 C250 1.610 . S
C820 C116 1.604 . S
C825 C268 1.610 . S
C830 C403 1.605 . S
C835 C290 1.610 . S
C840 C73 1.604 . S
C845 C359 1.603 . S
C850 C312 1.610 . S
C855 C334 1.610 . S
C860 C29 1.604 . S
C865 C356 1.610 . S
C870 C317 1.605 . S
C875 C691 1.604 . S
C880 C378 1.610 . S
C885 C273 1.603 . S
C890 C400 1.610 . S
C895 C647 1.604 . S
C900 C422 1.610 . S
C905 C448 1.610 . S
C910 C225 1.603 . S
C915 C470 1.610 . S
C920 C599 1.604 . S
C925 C492 1.610 . S
C930 C181 1.605 . S
C935 C514 1.610 . S
C940 C555 1.604 . S
C945 C536 1.610 . S
C950 C138 1.603 . S
C955 C512 1.605 . S
C960 C558 1.610 . S
C965 C580 1.610 . S
C970 C94 1.604 . S
C975 C468 1.604 . S
C980 C602 1.610 . S
C985 C620 1.610 . S
C990 C51 1.605 . S
C995 C642 1.610 . S
C1000 C425 1.604 . S
C1005 C664 1.610 . S
C1010 C7 1.605 . S
C1015 C686 1.610 . S
C1020 C381 1.604 . S
C1025 C469 1.486 . S
C1030 C6 1.488 . S
C1035 C491 1.488 . S
C1040 C28 1.487 . S
C1045 C50 1.488 . S
C1050 C513 1.484 . S
C1055 C447 1.485 . S
C1060 C72 1.488 . S
C1065 C95 1.487 . S
C1070 C424 1.487 . S
C1075 C117 1.485 . S
C1080 C358 1.484 . S
C1085 C139 1.487 . S
C1090 C380 1.484 . S
C1095 C161 1.484 . S
C1100 C402 1.487 . S
C1105 C643 1.487 . S
C1110 C185 1.488 . S
C1115 C207 1.487 . S
C1120 C665 1.484 . S
C1125 C687 1.486 . S
C1130 C229 1.488 . S
C1135 C621 1.488 . S
C1140 C251 1.486 . S
C1145 C603 1.485 . S
C1150 C269 1.488 . S
C1155 C537 1.487 . S
C1160 C291 1.484 . S
C1165 C559 1.485 . S
C1170 C313 1.488 . S
C1175 C581 1.487 . S
C1180 C335 1.484 . S
C1185 C535 1.774 . S
C1190 C5 1.774 . S
C1195 C205 1.770 . S
C1200 C27 1.770 . S
C1205 C579 1.774 . S
C1210 C49 1.774 . S
C1215 C249 1.770 . S
C1220 C71 1.770 . S
C1225 C622 1.774 . S
C1230 C97 1.774 . S
C1235 C119 1.770 . S
C1240 C292 1.770 . S
C1245 C666 1.774 . S
C1250 C141 1.774 . S
C1255 C336 1.774 . S
C1260 C163 1.774 . S
C1265 C183 1.770 . S
C1270 C357 1.770 . S
C1275 C227 1.770 . S
C1280 C401 1.770 . S
C1285 C449 1.770 . S
C1290 C270 1.770 . S
C1295 C314 1.770 . S
C1300 C493 1.770 . S
C1305 C557 1.771 . S
C1310 C379 1.771 . S
C1315 C423 1.770 . S
C1320 C601 1.770 . S
C1325 C471 1.774 . S
C1330 C644 1.774 . S
C1335 C515 1.774 . S
C1340 C688 1.774 . S
C1345 C204 1.101 . S
C1350 C8 1.110 . S
C1355 C578 1.101 . S
C1360 C30 1.113 . S
C1365 C52 1.110 . S
C1370 C248 1.102 . S
C1375 C534 1.101 . S
C1380 C74 1.110 . S
C1385 C337 1.102 . S
C1390 C92 1.110 . S
C1395 C114 1.113 . S
C1400 C623 1.101 . S
C1405 C293 1.100 . S
C1410 C136 1.112 . S
C1415 C158 1.113 . S
C1420 C667 1.102 . S
C1425 C31 1.101 . S
C1430 C180 1.112 . S
C1435 C405 1.102 . S
C1440 C202 1.113 . S
C1445 C224 1.110 . S
C1450 C75 1.101 . S
C1455 C246 1.113 . S
C1460 C361 1.103 . S
C1465 C272 1.111 . S
C1470 C159 1.102 . S
C1475 C294 1.113 . S
C1480 C445 1.102 . S
C1485 C316 1.113 . S
C1490 C115 1.101 . S
C1495 C489 1.100 . S
C1500 C338 1.110 . S
C1505 C556 1.101 . S
C1510 C360 1.112 . S
C1515 C382 1.113 . S
C1520 C226 1.102 . S
C1525 C404 1.112 . S
C1530 C600 1.101 . S
C1535 C182 1.102 . S
C1540 C426 1.113 . S
C1545 C689 1.102 . S
C1550 C444 1.110 . S
C1555 C271 1.101 . S
C1560 C466 1.110 . S
C1565 C645 1.102 . S
C1570 C488 1.113 . S
C1575 C510 1.110 . S
C1580 C315 1.101 . S
C1585 C383 1.101 . S
C1590 C532 1.112 . S
C1595 C554 1.110 . S
C1600 C53 1.101 . S
C1605 C427 1.102 . S
C1610 C576 1.110 . S
C1615 C598 1.113 . S
C1620 C9 1.103 . S
C1625 C511 1.100 . S
C1630 C624 1.110 . S
C1635 C93 1.100 . S
C1640 C646 1.110 . S
C1645 C467 1.101 . S
C1650 C668 1.112 . S
C1655 C690 1.112 . S
C1660 C137 1.103 . S
