# Generated by pormake.
# Topology ukc, (4)-cn, num edge types: 1
# Building blocks:
#     Node 0, Type 0, BuildingBlock: KUFVIS_clean_sbu_0, # of connection points: 4
#     Node 1, Type 0, BuildingBlock: KUFVIS_clean_sbu_0, # of connection points: 4
#     Node 2, Type 0, BuildingBlock: KUFVIS_clean_sbu_0, # of connection points: 4
#     Node 3, Type 0, BuildingBlock: KUFVIS_clean_sbu_0, # of connection points: 4
#     Node 4, Type 0, BuildingBlock: KUFVIS_clean_sbu_0, # of connection points: 4
#     Node 5, Type 0, BuildingBlock: KUFVIS_clean_sbu_0, # of connection points: 4
#     Node 6, Type 0, BuildingBlock: KUFVIS_clean_sbu_0, # of connection points: 4
#     Node 7, Type 0, BuildingBlock: KUFVIS_clean_sbu_0, # of connection points: 4
#     Node 8, Type 0, BuildingBlock: KUFVIS_clean_sbu_0, # of connection points: 4
#     Node 9, Type 0, BuildingBlock: KUFVIS_clean_sbu_0, # of connection points: 4
#     Node 10, Type 0, BuildingBlock: KUFVIS_clean_sbu_0, # of connection points: 4
#     Node 11, Type 0, BuildingBlock: KUFVIS_clean_sbu_0, # of connection points: 4
#     Node 12, Type 0, BuildingBlock: KUFVIS_clean_sbu_0, # of connection points: 4
#     Node 13, Type 0, BuildingBlock: KUFVIS_clean_sbu_0, # of connection points: 4
#     Node 14, Type 0, BuildingBlock: KUFVIS_clean_sbu_0, # of connection points: 4
#     Node 15, Type 0, BuildingBlock: KUFVIS_clean_sbu_0, # of connection points: 4
#     Node 16, Type 0, BuildingBlock: KUFVIS_clean_sbu_0, # of connection points: 4
#     Node 17, Type 0, BuildingBlock: KUFVIS_clean_sbu_0, # of connection points: 4
#     Node 18, Type 0, BuildingBlock: KUFVIS_clean_sbu_0, # of connection points: 4
#     Node 19, Type 0, BuildingBlock: KUFVIS_clean_sbu_0, # of connection points: 4
#     Node 20, Type 0, BuildingBlock: KUFVIS_clean_sbu_0, # of connection points: 4
#     Node 21, Type 0, BuildingBlock: KUFVIS_clean_sbu_0, # of connection points: 4
#     Node 22, Type 0, BuildingBlock: KUFVIS_clean_sbu_0, # of connection points: 4
#     Node 23, Type 0, BuildingBlock: KUFVIS_clean_sbu_0, # of connection points: 4
#     Node 24, Type 0, BuildingBlock: KUFVIS_clean_sbu_0, # of connection points: 4
#     Node 25, Type 0, BuildingBlock: KUFVIS_clean_sbu_0, # of connection points: 4
#     Node 26, Type 0, BuildingBlock: KUFVIS_clean_sbu_0, # of connection points: 4
#     Node 27, Type 0, BuildingBlock: KUFVIS_clean_sbu_0, # of connection points: 4
#     Node 28, Type 0, BuildingBlock: KUFVIS_clean_sbu_0, # of connection points: 4
#     Node 29, Type 0, BuildingBlock: KUFVIS_clean_sbu_0, # of connection points: 4
#     Node 30, Type 0, BuildingBlock: KUFVIS_clean_sbu_0, # of connection points: 4
#     Node 31, Type 0, BuildingBlock: KUFVIS_clean_sbu_0, # of connection points: 4
#     Edge 32, Type (0, 0), BuildingBlock: UVAHIK_clean_linker_0, # of connection points: 2
#     Edge 33, Type (0, 0), BuildingBlock: UVAHIK_clean_linker_0, # of connection points: 2
#     Edge 34, Type (0, 0), BuildingBlock: UVAHIK_clean_linker_0, # of connection points: 2
#     Edge 35, Type (0, 0), BuildingBlock: UVAHIK_clean_linker_0, # of connection points: 2
#     Edge 36, Type (0, 0), BuildingBlock: UVAHIK_clean_linker_0, # of connection points: 2
#     Edge 37, Type (0, 0), BuildingBlock: UVAHIK_clean_linker_0, # of connection points: 2
#     Edge 38, Type (0, 0), BuildingBlock: UVAHIK_clean_linker_0, # of connection points: 2
#     Edge 39, Type (0, 0), BuildingBlock: UVAHIK_clean_linker_0, # of connection points: 2
#     Edge 40, Type (0, 0), BuildingBlock: UVAHIK_clean_linker_0, # of connection points: 2
#     Edge 41, Type (0, 0), BuildingBlock: UVAHIK_clean_linker_0, # of connection points: 2
#     Edge 42, Type (0, 0), BuildingBlock: UVAHIK_clean_linker_0, # of connection points: 2
#     Edge 43, Type (0, 0), BuildingBlock: UVAHIK_clean_linker_0, # of connection points: 2
#     Edge 44, Type (0, 0), BuildingBlock: UVAHIK_clean_linker_0, # of connection points: 2
#     Edge 45, Type (0, 0), BuildingBlock: UVAHIK_clean_linker_0, # of connection points: 2
#     Edge 46, Type (0, 0), BuildingBlock: UVAHIK_clean_linker_0, # of connection points: 2
#     Edge 47, Type (0, 0), BuildingBlock: UVAHIK_clean_linker_0, # of connection points: 2
#     Edge 48, Type (0, 0), BuildingBlock: UVAHIK_clean_linker_0, # of connection points: 2
#     Edge 49, Type (0, 0), BuildingBlock: UVAHIK_clean_linker_0, # of connection points: 2
#     Edge 50, Type (0, 0), BuildingBlock: UVAHIK_clean_linker_0, # of connection points: 2
#     Edge 51, Type (0, 0), BuildingBlock: UVAHIK_clean_linker_0, # of connection points: 2
#     Edge 52, Type (0, 0), BuildingBlock: UVAHIK_clean_linker_0, # of connection points: 2
#     Edge 53, Type (0, 0), BuildingBlock: UVAHIK_clean_linker_0, # of connection points: 2
#     Edge 54, Type (0, 0), BuildingBlock: UVAHIK_clean_linker_0, # of connection points: 2
#     Edge 55, Type (0, 0), BuildingBlock: UVAHIK_clean_linker_0, # of connection points: 2
#     Edge 56, Type (0, 0), BuildingBlock: UVAHIK_clean_linker_0, # of connection points: 2
#     Edge 57, Type (0, 0), BuildingBlock: UVAHIK_clean_linker_0, # of connection points: 2
#     Edge 58, Type (0, 0), BuildingBlock: UVAHIK_clean_linker_0, # of connection points: 2
#     Edge 59, Type (0, 0), BuildingBlock: UVAHIK_clean_linker_0, # of connection points: 2
#     Edge 60, Type (0, 0), BuildingBlock: UVAHIK_clean_linker_0, # of connection points: 2
#     Edge 61, Type (0, 0), BuildingBlock: UVAHIK_clean_linker_0, # of connection points: 2
#     Edge 62, Type (0, 0), BuildingBlock: UVAHIK_clean_linker_0, # of connection points: 2
#     Edge 63, Type (0, 0), BuildingBlock: UVAHIK_clean_linker_0, # of connection points: 2
#     Edge 64, Type (0, 0), BuildingBlock: UVAHIK_clean_linker_0, # of connection points: 2
#     Edge 65, Type (0, 0), BuildingBlock: UVAHIK_clean_linker_0, # of connection points: 2
#     Edge 66, Type (0, 0), BuildingBlock: UVAHIK_clean_linker_0, # of connection points: 2
#     Edge 67, Type (0, 0), BuildingBlock: UVAHIK_clean_linker_0, # of connection points: 2
#     Edge 68, Type (0, 0), BuildingBlock: UVAHIK_clean_linker_0, # of connection points: 2
#     Edge 69, Type (0, 0), BuildingBlock: UVAHIK_clean_linker_0, # of connection points: 2
#     Edge 70, Type (0, 0), BuildingBlock: UVAHIK_clean_linker_0, # of connection points: 2
#     Edge 71, Type (0, 0), BuildingBlock: UVAHIK_clean_linker_0, # of connection points: 2
#     Edge 72, Type (0, 0), BuildingBlock: UVAHIK_clean_linker_0, # of connection points: 2
#     Edge 73, Type (0, 0), BuildingBlock: UVAHIK_clean_linker_0, # of connection points: 2
#     Edge 74, Type (0, 0), BuildingBlock: UVAHIK_clean_linker_0, # of connection points: 2
#     Edge 75, Type (0, 0), BuildingBlock: UVAHIK_clean_linker_0, # of connection points: 2
#     Edge 76, Type (0, 0), BuildingBlock: UVAHIK_clean_linker_0, # of connection points: 2
#     Edge 77, Type (0, 0), BuildingBlock: UVAHIK_clean_linker_0, # of connection points: 2
#     Edge 78, Type (0, 0), BuildingBlock: UVAHIK_clean_linker_0, # of connection points: 2
#     Edge 79, Type (0, 0), BuildingBlock: UVAHIK_clean_linker_0, # of connection points: 2
#     Edge 80, Type (0, 0), BuildingBlock: UVAHIK_clean_linker_0, # of connection points: 2
#     Edge 81, Type (0, 0), BuildingBlock: UVAHIK_clean_linker_0, # of connection points: 2
#     Edge 82, Type (0, 0), BuildingBlock: UVAHIK_clean_linker_0, # of connection points: 2
#     Edge 83, Type (0, 0), BuildingBlock: UVAHIK_clean_linker_0, # of connection points: 2
#     Edge 84, Type (0, 0), BuildingBlock: UVAHIK_clean_linker_0, # of connection points: 2
#     Edge 85, Type (0, 0), BuildingBlock: UVAHIK_clean_linker_0, # of connection points: 2
#     Edge 86, Type (0, 0), BuildingBlock: UVAHIK_clean_linker_0, # of connection points: 2
#     Edge 87, Type (0, 0), BuildingBlock: UVAHIK_clean_linker_0, # of connection points: 2
#     Edge 88, Type (0, 0), BuildingBlock: UVAHIK_clean_linker_0, # of connection points: 2
#     Edge 89, Type (0, 0), BuildingBlock: UVAHIK_clean_linker_0, # of connection points: 2
#     Edge 90, Type (0, 0), BuildingBlock: UVAHIK_clean_linker_0, # of connection points: 2
#     Edge 91, Type (0, 0), BuildingBlock: UVAHIK_clean_linker_0, # of connection points: 2
#     Edge 92, Type (0, 0), BuildingBlock: UVAHIK_clean_linker_0, # of connection points: 2
#     Edge 93, Type (0, 0), BuildingBlock: UVAHIK_clean_linker_0, # of connection points: 2
#     Edge 94, Type (0, 0), BuildingBlock: UVAHIK_clean_linker_0, # of connection points: 2
#     Edge 95, Type (0, 0), BuildingBlock: UVAHIK_clean_linker_0, # of connection points: 2
# Relax obj value: 0.034
# Max RMSD: 0.053
# Mean RMSD: 0.053
data_MOF--net-ukc--node1-KUFVIS_clean_sbu_0--edge1-UVAHIK_clean_linker_0
_symmetry_space_group_name_H-M    P1
_symmetry_Int_Tables_number       1
_symmetry_cell_setting            triclinic
loop_
_symmetry_equiv_pos_as_xyz
'x, y, z'
_cell_length_a     56.680826
_cell_length_b     56.677846
_cell_length_c     113.69036
_cell_angle_alpha  89.990212
_cell_angle_beta   89.975065
_cell_angle_gamma 89.994808
loop_
_atom_site_label
_atom_site_type_symbol
_atom_site_fract_x
_atom_site_fract_y
_atom_site_fract_z
_atom_type_partial_charge
Mn0 Mn 0.10132 0.38888 0.05491 0.0
Mn1 Mn 0.09222 0.3605 0.02913 0.0
C2 C 0.07279 0.35987 0.05351 0.0
C3 C 0.11973 0.39239 0.07323 0.0
C4 C 0.074 0.40974 0.03398 0.0
O5 O 0.13148 0.3962 0.04578 0.0
O6 O 0.12344 0.37645 0.02902 0.0
C7 C 0.12929 0.32407 0.03175 0.0
N8 N 0.10625 0.32988 0.02999 0.0
C9 C 0.09517 0.289 0.02846 0.0
C10 C 0.11882 0.28258 0.03018 0.0
C11 C 0.13593 0.30019 0.03186 0.0
C12 C 0.08962 0.31308 0.02842 0.0
H13 H 0.14249 0.33755 0.03307 0.0
C14 C 0.13683 0.38943 0.03539 0.0
O15 O 0.11033 0.41049 0.06803 0.0
O16 O 0.11945 0.37258 0.06751 0.0
N17 N 0.06278 0.34412 0.02794 0.0
C18 C 0.04066 0.35325 0.02678 0.0
C19 C 0.02144 0.33795 0.02517 0.0
C20 C 0.02519 0.31347 0.02465 0.0
C21 C 0.04815 0.30452 0.02571 0.0
C22 C 0.06663 0.32063 0.0272 0.0
H23 H 0.03767 0.37205 0.02714 0.0
O24 O 0.07151 0.37579 0.06167 0.0
O25 O 0.09065 0.36139 0.04637 0.0
O26 O 0.0824 0.41148 0.04436 0.0
O27 O 0.07669 0.39146 0.02755 0.0
C28 C 0.05337 0.28021 0.02554 0.0
C29 C 0.07686 0.27246 0.02695 0.0
H30 H 0.124 0.26419 0.03031 0.0
H31 H 0.15419 0.29537 0.03325 0.0
H32 H 0.00377 0.345 0.02435 0.0
H33 H 0.01031 0.30172 0.02347 0.0
H34 H 0.03941 0.26733 0.02448 0.0
H35 H 0.08061 0.25372 0.02695 0.0
Mn36 Mn 0.86787 0.8512 0.30483 0.0
Mn37 Mn 0.89541 0.8444 0.27864 0.0
C38 C 0.89697 0.82304 0.30263 0.0
C39 C 0.8646 0.86827 0.32347 0.0
C40 C 0.84653 0.82537 0.28354 0.0
O41 O 0.86024 0.882 0.29642 0.0
O42 O 0.87913 0.8755 0.27921 0.0
C43 C 0.93153 0.88166 0.28164 0.0
N44 N 0.92591 0.85869 0.27953 0.0
C45 C 0.96686 0.84812 0.27763 0.0
C46 C 0.97308 0.8717 0.27971 0.0
C47 C 0.95533 0.88853 0.28174 0.0
C48 C 0.94285 0.84234 0.2776 0.0
H49 H 0.91795 0.89463 0.28325 0.0
C50 C 0.86646 0.88819 0.28607 0.0
O51 O 0.84648 0.85907 0.31821 0.0
O52 O 0.88435 0.86843 0.3177 0.0
N53 N 0.91206 0.81524 0.27681 0.0
C54 C 0.90314 0.79309 0.27539 0.0
C55 C 0.91861 0.77412 0.27347 0.0
C56 C 0.94304 0.77813 0.27293 0.0
C57 C 0.95178 0.80112 0.27425 0.0
C58 C 0.93549 0.81936 0.27605 0.0
H59 H 0.88438 0.78989 0.27579 0.0
O60 O 0.88128 0.82098 0.31088 0.0
O61 O 0.89514 0.84146 0.29587 0.0
O62 O 0.84509 0.83302 0.29408 0.0
O63 O 0.86457 0.82865 0.27701 0.0
C64 C 0.97602 0.80659 0.27407 0.0
C65 C 0.98356 0.83007 0.27579 0.0
H66 H 0.99142 0.87706 0.27985 0.0
H67 H 0.96 0.90674 0.28341 0.0
H68 H 0.91173 0.75642 0.27246 0.0
H69 H 0.95493 0.76343 0.27155 0.0
H70 H 0.98903 0.79283 0.27278 0.0
H71 H 1.00226 0.83401 0.27578 0.0
Mn72 Mn 0.40492 0.61777 0.55287 0.0
Mn73 Mn 0.41356 0.64512 0.5268 0.0
C74 C 0.43323 0.64695 0.55105 0.0
C75 C 0.38672 0.61509 0.57129 0.0
C76 C 0.43221 0.59622 0.53209 0.0
O77 O 0.37471 0.60988 0.54392 0.0
O78 O 0.38247 0.62893 0.52692 0.0
C79 C 0.37619 0.68134 0.52906 0.0
N80 N 0.39928 0.67564 0.52736 0.0
C81 C 0.40999 0.71652 0.52528 0.0
C82 C 0.3863 0.72282 0.52694 0.0
C83 C 0.36935 0.70515 0.52888 0.0
C84 C 0.41576 0.69251 0.52557 0.0
H85 H 0.36311 0.66782 0.53055 0.0
C86 C 0.36922 0.61615 0.53348 0.0
O87 O 0.39614 0.59675 0.5663 0.0
O88 O 0.38685 0.63459 0.56532 0.0
N89 N 0.44286 0.66167 0.52541 0.0
C90 C 0.46508 0.65269 0.52439 0.0
C91 C 0.48418 0.66809 0.52267 0.0
C92 C 0.48022 0.6925 0.52185 0.0
C93 C 0.45716 0.70129 0.52273 0.0
C94 C 0.43882 0.68509 0.52443 0.0
H95 H 0.46822 0.63394 0.52497 0.0
O96 O 0.43474 0.63138 0.55938 0.0
O97 O 0.41529 0.64496 0.54401 0.0
O98 O 0.42389 0.59481 0.54252 0.0
O99 O 0.42933 0.61424 0.5255 0.0
C100 C 0.45168 0.72549 0.52212 0.0
C101 C 0.42814 0.73312 0.52346 0.0
H102 H 0.38095 0.74117 0.52682 0.0
H103 H 0.35104 0.70988 0.53022 0.0
H104 H 0.50192 0.66117 0.52198 0.0
H105 H 0.49501 0.70434 0.52059 0.0
H106 H 0.46549 0.73843 0.52077 0.0
H107 H 0.42421 0.75182 0.52316 0.0
Mn108 Mn 0.63705 0.15525 0.80375 0.0
Mn109 Mn 0.60997 0.16319 0.77757 0.0
C110 C 0.60792 0.18353 0.80171 0.0
C111 C 0.63952 0.13734 0.82225 0.0
C112 C 0.65895 0.18175 0.78285 0.0
O113 O 0.64508 0.1249 0.79497 0.0
O114 O 0.62572 0.13186 0.77798 0.0
C115 C 0.57323 0.12639 0.78002 0.0
N116 N 0.57925 0.14935 0.77817 0.0
C117 C 0.53855 0.16056 0.77594 0.0
C118 C 0.53191 0.137 0.77775 0.0
C119 C 0.54933 0.11986 0.77984 0.0
C120 C 0.56263 0.16601 0.77623 0.0
H121 H 0.58656 0.11316 0.78163 0.0
C122 C 0.63858 0.11887 0.78463 0.0
O123 O 0.65791 0.14669 0.81727 0.0
O124 O 0.62009 0.1374 0.81623 0.0
N125 N 0.59383 0.19268 0.77594 0.0
C126 C 0.60311 0.21475 0.77483 0.0
C127 C 0.58799 0.23401 0.77297 0.0
C128 C 0.56353 0.23036 0.77212 0.0
C129 C 0.55444 0.20744 0.77312 0.0
C130 C 0.57037 0.18892 0.77495 0.0
H131 H 0.6219 0.21766 0.77543 0.0
O132 O 0.62336 0.18519 0.81008 0.0
O133 O 0.60999 0.16544 0.79477 0.0
O134 O 0.66012 0.17399 0.79339 0.0
O135 O 0.64109 0.17852 0.77621 0.0
C136 C 0.53016 0.20229 0.77251 0.0
C137 C 0.52221 0.17888 0.77398 0.0
H138 H 0.5135 0.1319 0.77764 0.0
H139 H 0.54434 0.10166 0.7813 0.0
H140 H 0.59515 0.25164 0.77219 0.0
H141 H 0.55191 0.24528 0.77076 0.0
H142 H 0.51743 0.21624 0.77106 0.0
H143 H 0.50346 0.1752 0.77368 0.0
Mn144 Mn 0.10191 0.61833 0.46486 0.0
Mn145 Mn 0.09307 0.64617 0.49079 0.0
C146 C 0.07314 0.64705 0.46651 0.0
C147 C 0.12019 0.61571 0.44645 0.0
C148 C 0.07536 0.59672 0.48581 0.0
O149 O 0.13218 0.61103 0.47385 0.0
O150 O 0.12468 0.63092 0.49063 0.0
C151 C 0.12927 0.68345 0.48815 0.0
N152 N 0.1064 0.6771 0.48998 0.0
C153 C 0.09442 0.71771 0.49165 0.0
C154 C 0.11788 0.72467 0.48985 0.0
C155 C 0.13537 0.70747 0.48807 0.0
C156 C 0.08942 0.69352 0.49167 0.0
H157 H 0.14275 0.67028 0.48674 0.0
C158 C 0.13795 0.61799 0.48415 0.0
O159 O 0.11107 0.59727 0.4515 0.0
O160 O 0.11975 0.63525 0.45237 0.0
N161 N 0.06329 0.66187 0.49219 0.0
C162 C 0.04137 0.65225 0.49334 0.0
C163 C 0.02182 0.66711 0.49499 0.0
C164 C 0.02502 0.69166 0.49554 0.0
C165 C 0.04777 0.70113 0.49448 0.0
C166 C 0.06662 0.68544 0.49295 0.0
H167 H 0.0388 0.63339 0.49294 0.0
O168 O 0.07192 0.63132 0.45826 0.0
O169 O 0.09111 0.6455 0.47357 0.0
O170 O 0.08329 0.59532 0.47532 0.0
O171 O 0.07824 0.61484 0.49234 0.0
C172 C 0.05244 0.72554 0.49467 0.0
C173 C 0.07574 0.73383 0.49323 0.0
H174 H 0.12264 0.74318 0.48973 0.0
H175 H 0.1535 0.71271 0.48662 0.0
H176 H 0.00432 0.65967 0.4958 0.0
H177 H 0.00988 0.70308 0.49672 0.0
H178 H 0.03821 0.73811 0.49576 0.0
H179 H 0.07907 0.75265 0.49324 0.0
Mn180 Mn 0.63683 0.85168 0.71652 0.0
Mn181 Mn 0.60953 0.84291 0.7426 0.0
C182 C 0.60768 0.82334 0.71831 0.0
C183 C 0.63952 0.86995 0.69812 0.0
C184 C 0.65841 0.8243 0.73724 0.0
O185 O 0.64475 0.88184 0.7255 0.0
O186 O 0.62573 0.874 0.7425 0.0
C187 C 0.57331 0.8803 0.74039 0.0
N188 N 0.57901 0.8572 0.74207 0.0
C189 C 0.53815 0.84651 0.74422 0.0
C190 C 0.53185 0.87021 0.74258 0.0
C191 C 0.54951 0.88716 0.74062 0.0
C192 C 0.56215 0.84073 0.74388 0.0
H193 H 0.58683 0.89338 0.73889 0.0
C194 C 0.63851 0.88728 0.73596 0.0
O195 O 0.65785 0.86052 0.70311 0.0
O196 O 0.62002 0.8698 0.70409 0.0
N197 N 0.59297 0.81361 0.74397 0.0
C198 C 0.60195 0.79139 0.74495 0.0
C199 C 0.58655 0.77229 0.74669 0.0
C200 C 0.56215 0.77626 0.74756 0.0
C201 C 0.55337 0.79933 0.74671 0.0
C202 C 0.56956 0.81766 0.74499 0.0
H203 H 0.6207 0.78824 0.74434 0.0
O204 O 0.62323 0.82189 0.70998 0.0
O205 O 0.60965 0.84125 0.72537 0.0
O206 O 0.6598 0.83268 0.72683 0.0
O207 O 0.64041 0.82712 0.74385 0.0
C208 C 0.52918 0.80482 0.74739 0.0
C209 C 0.52155 0.82837 0.74606 0.0
H210 H 0.5135 0.87557 0.74274 0.0
H211 H 0.54478 0.90547 0.7393 0.0
H212 H 0.59347 0.75454 0.74736 0.0
H213 H 0.55032 0.76148 0.74883 0.0
H214 H 0.51625 0.79102 0.74877 0.0
H215 H 0.50286 0.83231 0.74641 0.0
Mn216 Mn 0.40311 0.38713 0.96555 0.0
Mn217 Mn 0.41215 0.3587 0.9913 0.0
C218 C 0.43178 0.35829 0.96696 0.0
C219 C 0.38462 0.39031 0.94724 0.0
C220 C 0.42995 0.40818 0.98654 0.0
O221 O 0.37297 0.39432 0.97468 0.0
O222 O 0.38059 0.37406 0.99134 0.0
C223 C 0.37579 0.3216 0.98857 0.0
N224 N 0.39871 0.32782 0.99037 0.0
C225 C 0.41058 0.28714 0.99175 0.0
C226 C 0.38707 0.2803 0.98999 0.0
C227 C 0.36962 0.2976 0.98836 0.0
C228 C 0.41566 0.31132 0.9919 0.0
H229 H 0.36234 0.33484 0.98728 0.0
C230 C 0.3673 0.38717 0.98497 0.0
O231 O 0.39388 0.40857 0.95237 0.0
O232 O 0.38506 0.37059 0.95302 0.0
N233 N 0.44189 0.34287 0.99251 0.0
C234 C 0.46385 0.35239 0.99364 0.0
C235 C 0.48338 0.33742 0.99514 0.0
C236 C 0.4801 0.31287 0.99556 0.0
C237 C 0.45731 0.3035 0.99452 0.0
C238 C 0.4385 0.31929 0.99315 0.0
H239 H 0.46648 0.37124 0.99335 0.0
O240 O 0.43297 0.3742 0.95878 0.0
O241 O 0.41391 0.35973 0.97408 0.0
O242 O 0.42191 0.40982 0.97607 0.0
O243 O 0.4271 0.38994 0.99298 0.0
C244 C 0.45256 0.2791 0.99458 0.0
C245 C 0.42922 0.27093 0.99317 0.0
H246 H 0.38225 0.26181 0.98978 0.0
H247 H 0.35146 0.29245 0.98694 0.0
H248 H 0.50091 0.34479 0.99594 0.0
H249 H 0.49522 0.30138 0.99663 0.0
H250 H 0.46677 0.26647 0.99555 0.0
H251 H 0.42583 0.25212 0.99308 0.0
Mn252 Mn 0.86819 0.15323 0.21436 0.0
Mn253 Mn 0.89542 0.16073 0.24056 0.0
C254 C 0.89704 0.18166 0.2165 0.0
C255 C 0.86566 0.13587 0.19575 0.0
C256 C 0.84646 0.17937 0.23548 0.0
O257 O 0.8607 0.12251 0.22288 0.0
O258 O 0.87924 0.12956 0.24012 0.0
C259 C 0.93171 0.12355 0.23781 0.0
N260 N 0.92598 0.14654 0.2398 0.0
C261 C 0.96688 0.15733 0.24165 0.0
C262 C 0.97321 0.13373 0.23971 0.0
C263 C 0.95555 0.11679 0.23776 0.0
C264 C 0.94284 0.16301 0.24165 0.0
H265 H 0.9182 0.11049 0.23627 0.0
C266 C 0.86676 0.11662 0.23329 0.0
O267 O 0.84724 0.14488 0.20085 0.0
O268 O 0.88518 0.13597 0.2017 0.0
N269 N 0.91192 0.18999 0.24227 0.0
C270 C 0.9029 0.21214 0.24355 0.0
C271 C 0.91829 0.23122 0.24536 0.0
C272 C 0.94273 0.22732 0.24594 0.0
C273 C 0.95157 0.20434 0.24475 0.0
C274 C 0.93538 0.18599 0.24307 0.0
H275 H 0.88413 0.21524 0.24312 0.0
O276 O 0.88142 0.18346 0.20821 0.0
O277 O 0.89527 0.16336 0.22334 0.0
O278 O 0.84507 0.17143 0.22498 0.0
O279 O 0.86451 0.17637 0.24202 0.0
C280 C 0.97584 0.19898 0.24497 0.0
C281 C 0.98349 0.1755 0.24339 0.0
H282 H 0.99158 0.12846 0.2396 0.0
H283 H 0.9603 0.09856 0.23619 0.0
H284 H 0.91132 0.24891 0.24627 0.0
H285 H 0.95455 0.24211 0.24722 0.0
H286 H 0.98879 0.21283 0.24618 0.0
H287 H 1.00221 0.17164 0.24343 0.0
Mn288 Mn 0.90366 0.61821 0.96545 0.0
Mn289 Mn 0.9126 0.64736 0.99102 0.0
C290 C 0.93208 0.64734 0.96662 0.0
C291 C 0.88508 0.61413 0.9472 0.0
C292 C 0.93081 0.59792 0.98654 0.0
O293 O 0.87365 0.61097 0.97469 0.0
O294 O 0.88118 0.63173 0.99119 0.0
C295 C 0.8759 0.68408 0.98812 0.0
N296 N 0.89889 0.67809 0.98992 0.0
C297 C 0.91039 0.7189 0.99112 0.0
C298 C 0.88681 0.7255 0.98935 0.0
C299 C 0.86951 0.70801 0.98782 0.0
C300 C 0.91569 0.69477 0.99136 0.0
H301 H 0.86257 0.67069 0.98691 0.0
C302 C 0.86796 0.61834 0.98493 0.0
O303 O 0.89461 0.5962 0.9525 0.0
O304 O 0.88535 0.6341 0.95278 0.0
N305 N 0.94221 0.66347 0.9921 0.0
C306 C 0.96426 0.65417 0.99325 0.0
C307 C 0.98365 0.66933 0.99467 0.0
C308 C 0.98016 0.69386 0.99498 0.0
C309 C 0.95727 0.703 0.99392 0.0
C310 C 0.93861 0.68702 0.99263 0.0
H311 H 0.96706 0.63533 0.99304 0.0
O312 O 0.93336 0.63122 0.95855 0.0
O313 O 0.91426 0.64594 0.97379 0.0
O314 O 0.92272 0.59599 0.9761 0.0
O315 O 0.92785 0.61629 0.99288 0.0
C316 C 0.9523 0.72736 0.99389 0.0
C317 C 0.92888 0.7353 0.99246 0.0
H318 H 0.88181 0.74394 0.98907 0.0
H319 H 0.85129 0.71298 0.9864 0.0
H320 H 1.00126 0.66214 0.99548 0.0
H321 H 0.99517 0.7055 0.99599 0.0
H322 H 0.9664 0.74014 0.99479 0.0
H323 H 0.92531 0.75408 0.9923 0.0
Mn324 Mn 0.13822 0.15446 0.71565 0.0
Mn325 Mn 0.10954 0.16091 0.74154 0.0
C326 C 0.10806 0.18171 0.71745 0.0
C327 C 0.14298 0.13735 0.69709 0.0
C328 C 0.15805 0.18124 0.73697 0.0
O329 O 0.14681 0.12414 0.72437 0.0
O330 O 0.12643 0.13018 0.74115 0.0
C331 C 0.0743 0.12285 0.73845 0.0
N332 N 0.07939 0.14597 0.74052 0.0
C333 C 0.03823 0.15556 0.74255 0.0
C334 C 0.03254 0.13183 0.74051 0.0
C335 C 0.05066 0.11543 0.73841 0.0
C336 C 0.06209 0.16192 0.74246 0.0
H337 H 0.08817 0.11019 0.73685 0.0
C338 C 0.14001 0.11773 0.7346 0.0
O339 O 0.16042 0.1474 0.70252 0.0
O340 O 0.12303 0.13621 0.70268 0.0
N341 N 0.09225 0.18973 0.74317 0.0
C342 C 0.10066 0.2121 0.74454 0.0
C343 C 0.08476 0.23071 0.74645 0.0
C344 C 0.06044 0.22611 0.7471 0.0
C345 C 0.05225 0.20291 0.74586 0.0
C346 C 0.06892 0.18507 0.74397 0.0
H347 H 0.11934 0.21573 0.7441 0.0
O348 O 0.12391 0.18404 0.7093 0.0
O349 O 0.11025 0.16349 0.72432 0.0
O350 O 0.15992 0.1737 0.72644 0.0
O351 O 0.14 0.17736 0.7434 0.0
C352 C 0.02818 0.1968 0.7463 0.0
C353 C 0.02115 0.17318 0.74457 0.0
H354 H 0.01433 0.12603 0.74047 0.0
H355 H 0.0464 0.09711 0.73679 0.0
H356 H 0.09123 0.24857 0.74741 0.0
H357 H 0.04822 0.24053 0.74851 0.0
H358 H 0.01489 0.2102 0.74782 0.0
H359 H 1.00256 0.16877 0.74474 0.0
Mn360 Mn 0.60249 0.38611 0.46457 0.0
Mn361 Mn 0.59346 0.35788 0.49039 0.0
C362 C 0.57349 0.3576 0.46611 0.0
C363 C 0.62082 0.38898 0.44619 0.0
C364 C 0.57606 0.40751 0.48562 0.0
O365 O 0.63282 0.39302 0.4736 0.0
O366 O 0.62515 0.37295 0.4903 0.0
C367 C 0.62945 0.32044 0.48756 0.0
N368 N 0.60661 0.32688 0.48944 0.0
C369 C 0.59441 0.28632 0.49093 0.0
C370 C 0.61783 0.27925 0.48908 0.0
C371 C 0.63541 0.29639 0.48737 0.0
C372 C 0.58954 0.31054 0.49106 0.0
H373 H 0.643 0.33356 0.48621 0.0
C374 C 0.63852 0.38588 0.48388 0.0
O375 O 0.61181 0.40737 0.45132 0.0
O376 O 0.62022 0.36931 0.452 0.0
N377 N 0.56359 0.34232 0.49173 0.0
C378 C 0.54173 0.35205 0.49293 0.0
C379 C 0.5221 0.33726 0.49452 0.0
C380 C 0.52516 0.31269 0.49496 0.0
C381 C 0.54786 0.30311 0.49385 0.0
C382 C 0.56679 0.31872 0.49238 0.0
H383 H 0.53927 0.37092 0.49261 0.0
O384 O 0.57241 0.37349 0.45792 0.0
O385 O 0.59148 0.35886 0.47317 0.0
O386 O 0.58404 0.40905 0.47514 0.0
O387 O 0.5788 0.38926 0.49207 0.0
C388 C 0.5524 0.27867 0.49393 0.0
C389 C 0.57565 0.27028 0.49244 0.0
H390 H 0.62249 0.26072 0.48888 0.0
H391 H 0.65351 0.29107 0.48589 0.0
H392 H 0.50464 0.34479 0.49537 0.0
H393 H 0.50996 0.30134 0.49609 0.0
H394 H 0.53809 0.26617 0.49497 0.0
H395 H 0.57887 0.25144 0.49237 0.0
Mn396 Mn 0.36816 0.85359 0.21506 0.0
Mn397 Mn 0.39621 0.84448 0.24091 0.0
C398 C 0.39702 0.82492 0.21658 0.0
C399 C 0.36518 0.87187 0.19667 0.0
C400 C 0.34698 0.82637 0.23596 0.0
O401 O 0.36083 0.88383 0.22411 0.0
O402 O 0.38025 0.87571 0.24096 0.0
C403 C 0.43267 0.88154 0.23836 0.0
N404 N 0.42683 0.8585 0.24012 0.0
C405 C 0.46769 0.84739 0.24168 0.0
C406 C 0.47414 0.87103 0.23996 0.0
C407 C 0.45654 0.88816 0.23826 0.0
C408 C 0.44362 0.84186 0.24171 0.0
H409 H 0.4192 0.89475 0.23701 0.0
C410 C 0.36741 0.88914 0.23453 0.0
O411 O 0.34687 0.86268 0.20179 0.0
O412 O 0.38482 0.87154 0.20251 0.0
N413 N 0.41256 0.81504 0.24217 0.0
C414 C 0.40342 0.79291 0.24331 0.0
C415 C 0.4187 0.77368 0.24491 0.0
C416 C 0.44318 0.7774 0.24544 0.0
C417 C 0.45215 0.80036 0.24441 0.0
C418 C 0.43604 0.81887 0.24292 0.0
H419 H 0.38461 0.78995 0.24294 0.0
O420 O 0.38119 0.82368 0.20838 0.0
O421 O 0.39549 0.84283 0.22368 0.0
O422 O 0.34533 0.8348 0.22557 0.0
O423 O 0.36523 0.82898 0.24241 0.0
C424 C 0.47645 0.80556 0.24459 0.0
C425 C 0.48422 0.82905 0.2432 0.0
H426 H 0.49253 0.8762 0.23984 0.0
H427 H 0.46138 0.90642 0.23687 0.0
H428 H 0.41164 0.75601 0.24571 0.0
H429 H 0.45492 0.7625 0.24659 0.0
H430 H 0.48933 0.79159 0.24564 0.0
H431 H 0.50296 0.83279 0.24321 0.0
Mn432 Mn 0.90456 0.38764 0.55385 0.0
Mn433 Mn 0.91412 0.35873 0.52826 0.0
C434 C 0.93328 0.35878 0.55269 0.0
C435 C 0.88588 0.39147 0.5721 0.0
C436 C 0.93202 0.40817 0.53287 0.0
O437 O 0.87447 0.39458 0.5446 0.0
O438 O 0.88279 0.3745 0.52797 0.0
C439 C 0.87721 0.32216 0.53098 0.0
N440 N 0.90025 0.32805 0.52926 0.0
C441 C 0.91159 0.2872 0.52805 0.0
C442 C 0.88796 0.2807 0.52974 0.0
C443 C 0.87071 0.29825 0.53124 0.0
C444 C 0.917 0.3113 0.52786 0.0
H445 H 0.86392 0.3356 0.53217 0.0
C446 C 0.86926 0.38755 0.53424 0.0
O447 O 0.89525 0.40951 0.56682 0.0
O448 O 0.88636 0.37153 0.5665 0.0
N449 N 0.94366 0.34249 0.52725 0.0
C450 C 0.96576 0.3517 0.52611 0.0
C451 C 0.98509 0.33647 0.52469 0.0
C452 C 0.9815 0.31196 0.52434 0.0
C453 C 0.95857 0.3029 0.52537 0.0
C454 C 0.93996 0.31896 0.52667 0.0
H455 H 0.96862 0.37053 0.52634 0.0
O456 O 0.93436 0.37489 0.56076 0.0
O457 O 0.91549 0.36002 0.5455 0.0
O458 O 0.92349 0.4101 0.54322 0.0
O459 O 0.9295 0.38974 0.52653 0.0
C460 C 0.95349 0.27857 0.52536 0.0
C461 C 0.93002 0.27072 0.52673 0.0
H462 H 0.88288 0.26228 0.52998 0.0
H463 H 0.85246 0.29337 0.53259 0.0
H464 H 0.00273 0.34359 0.5239 0.0
H465 H 0.99647 0.30026 0.52333 0.0
H466 H 0.96754 0.26573 0.52445 0.0
H467 H 0.92638 0.25197 0.52685 0.0
Mn468 Mn 0.36781 0.15445 0.30523 0.0
Mn469 Mn 0.39754 0.16307 0.27978 0.0
C470 C 0.39738 0.18244 0.3042 0.0
C471 C 0.36267 0.13612 0.32346 0.0
C472 C 0.34826 0.18184 0.28406 0.0
O473 O 0.3603 0.12455 0.29594 0.0
O474 O 0.38163 0.13181 0.27957 0.0
C475 C 0.43388 0.12606 0.28285 0.0
N476 N 0.42812 0.14908 0.28099 0.0
C477 C 0.46904 0.16018 0.2798 0.0
C478 C 0.47541 0.13656 0.28164 0.0
C479 C 0.45775 0.11944 0.2832 0.0
C480 C 0.44498 0.16571 0.27953 0.0
H481 H 0.42036 0.11286 0.28407 0.0
C482 C 0.3679 0.11877 0.28575 0.0
O483 O 0.34522 0.14608 0.31799 0.0
O484 O 0.38286 0.13575 0.31807 0.0
N485 N 0.41394 0.19253 0.27871 0.0
C486 C 0.40485 0.21465 0.27747 0.0
C487 C 0.4202 0.23388 0.27599 0.0
C488 C 0.44469 0.23014 0.27568 0.0
C489 C 0.45361 0.20719 0.27684 0.0
C490 C 0.43745 0.18869 0.2782 0.0
H491 H 0.38604 0.21764 0.27766 0.0
O492 O 0.38114 0.18391 0.31221 0.0
O493 O 0.3959 0.16465 0.29702 0.0
O494 O 0.34618 0.17387 0.2945 0.0
O495 O 0.36663 0.17862 0.27775 0.0
C496 C 0.47792 0.20198 0.2769 0.0
C497 C 0.48563 0.17851 0.27841 0.0
H498 H 0.4938 0.13139 0.28196 0.0
H499 H 0.46253 0.10119 0.28467 0.0
H500 H 0.41317 0.25154 0.2751 0.0
H501 H 0.45647 0.24502 0.27459 0.0
H502 H 0.49083 0.21595 0.27595 0.0
H503 H 0.50437 0.17477 0.2786 0.0
Mn504 Mn 0.60121 0.61748 0.05415 0.0
Mn505 Mn 0.59337 0.64492 0.02803 0.0
C506 C 0.57312 0.64683 0.05219 0.0
C507 C 0.61891 0.61434 0.07267 0.0
C508 C 0.57423 0.5962 0.03321 0.0
O509 O 0.63162 0.60942 0.04538 0.0
O510 O 0.62428 0.6284 0.02832 0.0
C511 C 0.63106 0.68074 0.0305 0.0
N512 N 0.60796 0.67529 0.02866 0.0
C513 C 0.5978 0.71624 0.02631 0.0
C514 C 0.6215 0.7223 0.02812 0.0
C515 C 0.63819 0.70447 0.03027 0.0
C516 C 0.59173 0.69231 0.02668 0.0
H517 H 0.64394 0.66709 0.03214 0.0
C518 C 0.63732 0.61558 0.03495 0.0
O519 O 0.60944 0.59621 0.06754 0.0
O520 O 0.61909 0.63397 0.0668 0.0
N521 N 0.56429 0.66178 0.02644 0.0
C522 C 0.54202 0.65304 0.02529 0.0
C523 C 0.52315 0.66862 0.02334 0.0
C524 C 0.52743 0.69297 0.02243 0.0
C525 C 0.55055 0.7015 0.02345 0.0
C526 C 0.56864 0.68513 0.0254 0.0
H527 H 0.53865 0.63433 0.02591 0.0
O528 O 0.57132 0.63124 0.06049 0.0
O529 O 0.59124 0.6448 0.04525 0.0
O530 O 0.58238 0.59471 0.04366 0.0
O531 O 0.57731 0.61422 0.02665 0.0
C532 C 0.55634 0.72562 0.02273 0.0
C533 C 0.57991 0.73301 0.02424 0.0
H534 H 0.62707 0.74058 0.02795 0.0
H535 H 0.6565 0.70901 0.03172 0.0
H536 H 0.50536 0.66189 0.02253 0.0
H537 H 0.51282 0.70495 0.02099 0.0
H538 H 0.54274 0.73868 0.02117 0.0
H539 H 0.58408 0.75165 0.02385 0.0
Mn540 Mn 0.13673 0.85074 0.80287 0.0
Mn541 Mn 0.10874 0.84238 0.77695 0.0
C542 C 0.10729 0.82267 0.80123 0.0
C543 C 0.14027 0.86884 0.82128 0.0
C544 C 0.15756 0.8233 0.78196 0.0
O545 O 0.14471 0.88091 0.79388 0.0
O546 O 0.12527 0.8733 0.77698 0.0
C547 C 0.07296 0.88012 0.77941 0.0
N548 N 0.07838 0.85698 0.77767 0.0
C549 C 0.03738 0.84672 0.77571 0.0
C550 C 0.03135 0.87048 0.77742 0.0
C551 C 0.04922 0.88723 0.77932 0.0
C552 C 0.06132 0.84069 0.77593 0.0
H553 H 0.08664 0.89305 0.78087 0.0
C554 C 0.13831 0.88644 0.78345 0.0
O555 O 0.15828 0.85922 0.8161 0.0
O556 O 0.12053 0.86895 0.8155 0.0
N557 N 0.09186 0.81326 0.77563 0.0
C558 C 0.10059 0.79095 0.77455 0.0
C559 C 0.08496 0.77203 0.77284 0.0
C560 C 0.06059 0.77626 0.77211 0.0
C561 C 0.05207 0.79941 0.77305 0.0
C562 C 0.06847 0.81756 0.77474 0.0
H563 H 0.11931 0.78761 0.77504 0.0
O564 O 0.12304 0.82103 0.80946 0.0
O565 O 0.10922 0.84062 0.79418 0.0
O566 O 0.15924 0.83161 0.79237 0.0
O567 O 0.13943 0.82629 0.77547 0.0
C568 C 0.02791 0.80516 0.7725 0.0
C569 C 0.02056 0.82877 0.77391 0.0
H570 H 0.01306 0.87603 0.77735 0.0
H571 H 0.04471 0.90558 0.78068 0.0
H572 H 0.09169 0.75422 0.7721 0.0
H573 H 0.04858 0.76161 0.77086 0.0
H574 H 0.01482 0.7915 0.77115 0.0
H575 H 1.00191 0.83291 0.77366 0.0
Mn576 Mn 0.60127 0.88731 0.555 0.0
Mn577 Mn 0.59173 0.8597 0.52906 0.0
C578 C 0.57258 0.85848 0.55347 0.0
C579 C 0.61986 0.89 0.5733 0.0
C580 C 0.5739 0.90894 0.53429 0.0
O581 O 0.63134 0.89475 0.54583 0.0
O582 O 0.62306 0.87545 0.52897 0.0
C583 C 0.62858 0.82294 0.53131 0.0
N584 N 0.60555 0.82896 0.52967 0.0
C585 C 0.59414 0.7882 0.52798 0.0
C586 C 0.61776 0.78157 0.52956 0.0
C587 C 0.63504 0.79902 0.53126 0.0
C588 C 0.58877 0.81232 0.52808 0.0
H589 H 0.64189 0.8363 0.53264 0.0
C590 C 0.63656 0.88822 0.53539 0.0
O591 O 0.6106 0.90839 0.56829 0.0
O592 O 0.61941 0.87044 0.56739 0.0
N593 N 0.56216 0.84357 0.52786 0.0
C594 C 0.54008 0.85288 0.52686 0.0
C595 C 0.52072 0.83776 0.52528 0.0
C596 C 0.52427 0.81326 0.52462 0.0
C597 C 0.54718 0.80412 0.52553 0.0
C598 C 0.56582 0.82007 0.527 0.0
H599 H 0.53724 0.8717 0.52733 0.0
O600 O 0.57146 0.87417 0.56175 0.0
O601 O 0.59036 0.86015 0.5463 0.0
O602 O 0.58237 0.91035 0.54468 0.0
O603 O 0.57642 0.89081 0.52774 0.0
C604 C 0.55221 0.77978 0.52521 0.0
C605 C 0.57567 0.77183 0.52647 0.0
H606 H 0.62281 0.76314 0.52958 0.0
H607 H 0.65328 0.79403 0.53255 0.0
H608 H 0.50309 0.84495 0.52458 0.0
H609 H 0.50928 0.80165 0.52347 0.0
H610 H 0.53814 0.76702 0.52417 0.0
H611 H 0.57929 0.75306 0.52636 0.0
Mn612 Mn 0.36811 0.35244 0.80429 0.0
Mn613 Mn 0.39601 0.34225 0.77849 0.0
C614 C 0.39681 0.32356 0.80299 0.0
C615 C 0.36528 0.37142 0.8225 0.0
C616 C 0.3466 0.3248 0.78365 0.0
O617 O 0.36096 0.38238 0.79496 0.0
O618 O 0.3805 0.3737 0.77821 0.0
C619 C 0.433 0.37887 0.78069 0.0
N620 N 0.42684 0.35586 0.77914 0.0
C621 C 0.46754 0.34412 0.77764 0.0
C622 C 0.47431 0.36772 0.77915 0.0
C623 C 0.45697 0.38515 0.78071 0.0
C624 C 0.44339 0.33893 0.77768 0.0
H625 H 0.41972 0.39231 0.78193 0.0
C626 C 0.3677 0.38739 0.78453 0.0
O627 O 0.34691 0.36215 0.81748 0.0
O628 O 0.38492 0.37075 0.81664 0.0
N629 N 0.41195 0.31254 0.77748 0.0
C630 C 0.4025 0.29051 0.77656 0.0
C631 C 0.41751 0.271 0.77512 0.0
C632 C 0.44203 0.27437 0.77453 0.0
C633 C 0.45133 0.29723 0.77535 0.0
C634 C 0.43549 0.31601 0.77668 0.0
H635 H 0.38366 0.28782 0.77697 0.0
O636 O 0.381 0.3227 0.81123 0.0
O637 O 0.39532 0.34121 0.79573 0.0
O638 O 0.34512 0.33345 0.794 0.0
O639 O 0.36481 0.32713 0.77714 0.0
C640 C 0.4757 0.30208 0.7751 0.0
C641 C 0.4838 0.3255 0.77628 0.0
H642 H 0.49278 0.37263 0.77921 0.0
H643 H 0.46206 0.40339 0.78194 0.0
H644 H 0.4102 0.25341 0.77448 0.0
H645 H 0.45356 0.25927 0.77349 0.0
H646 H 0.48838 0.28789 0.77417 0.0
H647 H 0.50259 0.32898 0.77623 0.0
Mn648 Mn 0.9044 0.11981 0.05245 0.0
Mn649 Mn 0.91254 0.14727 0.02638 0.0
C650 C 0.93271 0.14894 0.05056 0.0
C651 C 0.88631 0.11709 0.07089 0.0
C652 C 0.93103 0.0982 0.03153 0.0
O653 O 0.87415 0.11191 0.04358 0.0
O654 O 0.88119 0.13154 0.02668 0.0
C655 C 0.87574 0.18401 0.0289 0.0
N656 N 0.89872 0.17799 0.02707 0.0
C657 C 0.90998 0.21873 0.02506 0.0
C658 C 0.88641 0.22536 0.02685 0.0
C659 C 0.86924 0.20792 0.02882 0.0
C660 C 0.9154 0.19464 0.02524 0.0
H661 H 0.8625 0.17066 0.03042 0.0
C662 C 0.86817 0.11856 0.03326 0.0
O663 O 0.89571 0.09876 0.06588 0.0
O664 O 0.88643 0.13661 0.06493 0.0
N665 N 0.94205 0.16341 0.02487 0.0
C666 C 0.96412 0.15413 0.02378 0.0
C667 C 0.98342 0.16928 0.02203 0.0
C668 C 0.9798 0.19375 0.02129 0.0
C669 C 0.95688 0.20285 0.02227 0.0
C670 C 0.93833 0.1869 0.02398 0.0
H671 H 0.96701 0.13533 0.0243 0.0
O672 O 0.93428 0.13338 0.05889 0.0
O673 O 0.91467 0.14699 0.04358 0.0
O674 O 0.92321 0.0969 0.04205 0.0
O675 O 0.92786 0.11616 0.02493 0.0
C676 C 0.95175 0.22715 0.02177 0.0
C677 C 0.92834 0.2351 0.02322 0.0
H678 H 0.88133 0.24378 0.02681 0.0
H679 H 0.85104 0.2129 0.03026 0.0
H680 H 1.00105 0.16211 0.02127 0.0
H681 H 0.99474 0.20539 0.02003 0.0
H682 H 0.96573 0.2399 0.02042 0.0
H683 H 0.92468 0.25385 0.023 0.0
Mn684 Mn 0.13726 0.65435 0.30303 0.0
Mn685 Mn 0.11028 0.66221 0.2768 0.0
C686 C 0.10799 0.6825 0.30093 0.0
C687 C 0.13983 0.63657 0.32156 0.0
C688 C 0.15892 0.68135 0.28217 0.0
O689 O 0.14549 0.62396 0.2943 0.0
O690 O 0.12679 0.63129 0.27717 0.0
C691 C 0.07442 0.62451 0.27916 0.0
N692 N 0.07991 0.64761 0.27731 0.0
C693 C 0.03899 0.65778 0.27485 0.0
C694 C 0.03291 0.63408 0.27665 0.0
C695 C 0.0507 0.61739 0.27886 0.0
C696 C 0.06292 0.66384 0.27528 0.0
H697 H 0.08805 0.61163 0.28085 0.0
C698 C 0.13951 0.61825 0.28384 0.0
O699 O 0.15816 0.64599 0.31656 0.0
O700 O 0.12039 0.63648 0.31554 0.0
N701 N 0.09345 0.69128 0.27513 0.0
C702 C 0.10221 0.71356 0.274 0.0
C703 C 0.08665 0.73243 0.27201 0.0
C704 C 0.06232 0.72816 0.27103 0.0
C705 C 0.05377 0.70503 0.27203 0.0
C706 C 0.07011 0.68694 0.27401 0.0
H707 H 0.12091 0.71693 0.27468 0.0
O708 O 0.12342 0.68425 0.30931 0.0
O709 O 0.11012 0.66438 0.29401 0.0
O710 O 0.16026 0.6732 0.29263 0.0
O711 O 0.14101 0.67826 0.27555 0.0
C712 C 0.02966 0.69925 0.27125 0.0
C713 C 0.02225 0.67567 0.27274 0.0
H714 H 0.01463 0.62851 0.27643 0.0
H715 H 0.04614 0.59908 0.28031 0.0
H716 H 0.0934 0.75022 0.27123 0.0
H717 H 0.05036 0.74277 0.26956 0.0
H718 H 0.01662 0.71286 0.26965 0.0
H719 H 0.00362 0.67151 0.2723 0.0
Mn720 Mn 0.60063 0.11835 0.96552 0.0
Mn721 Mn 0.59215 0.14522 0.99173 0.0
C722 C 0.57231 0.14748 0.96751 0.0
C723 C 0.61874 0.116 0.94707 0.0
C724 C 0.57349 0.09642 0.98624 0.0
O725 O 0.6309 0.1103 0.97438 0.0
O726 O 0.62324 0.12903 0.99147 0.0
C727 C 0.6295 0.18148 0.98956 0.0
N728 N 0.60642 0.17575 0.99129 0.0
C729 C 0.59575 0.21657 0.99366 0.0
C730 C 0.61942 0.22291 0.99198 0.0
C731 C 0.63635 0.20529 0.98988 0.0
C732 C 0.58996 0.19257 0.99322 0.0
H733 H 0.64256 0.16799 0.98796 0.0
C734 C 0.63645 0.11638 0.98485 0.0
O735 O 0.60936 0.09757 0.952 0.0
O736 O 0.61862 0.13539 0.95312 0.0
N737 N 0.56286 0.16174 0.99326 0.0
C738 C 0.54065 0.15274 0.99426 0.0
C739 C 0.52157 0.1681 0.99613 0.0
C740 C 0.52555 0.19249 0.99711 0.0
C741 C 0.5486 0.20128 0.99623 0.0
C742 C 0.56692 0.18513 0.99437 0.0
H743 H 0.5375 0.13401 0.99358 0.0
O744 O 0.57077 0.13206 0.95912 0.0
O745 O 0.5903 0.14538 0.97451 0.0
O746 O 0.58175 0.0952 0.9758 0.0
O747 O 0.5764 0.11432 0.9929 0.0
C748 C 0.5541 0.22547 0.99701 0.0
C749 C 0.57763 0.23313 0.99565 0.0
H750 H 0.62478 0.24125 0.99221 0.0
H751 H 0.65464 0.21005 0.98853 0.0
H752 H 0.50384 0.16117 0.99682 0.0
H753 H 0.51078 0.2043 0.99848 0.0
H754 H 0.54031 0.23836 0.9985 0.0
H755 H 0.58157 0.25181 0.99607 0.0
Mn756 Mn 0.13727 0.35041 0.21611 0.0
Mn757 Mn 0.10986 0.34228 0.24222 0.0
C758 C 0.10802 0.32219 0.21801 0.0
C759 C 0.14047 0.36855 0.19771 0.0
C760 C 0.15888 0.32376 0.23701 0.0
O761 O 0.14525 0.38064 0.22501 0.0
O762 O 0.12557 0.37363 0.2419 0.0
C763 C 0.07308 0.37905 0.23977 0.0
N764 N 0.07913 0.35609 0.2416 0.0
C765 C 0.03846 0.34488 0.24396 0.0
C766 C 0.03179 0.36843 0.24217 0.0
C767 C 0.04918 0.38557 0.24002 0.0
C768 C 0.06254 0.33943 0.24359 0.0
H769 H 0.0864 0.39228 0.23813 0.0
C770 C 0.13858 0.38662 0.23533 0.0
O771 O 0.15857 0.35897 0.20281 0.0
O772 O 0.12077 0.36849 0.20353 0.0
N773 N 0.09375 0.31277 0.24378 0.0
C774 C 0.10305 0.2907 0.24485 0.0
C775 C 0.08795 0.27143 0.24676 0.0
C776 C 0.06351 0.27508 0.2477 0.0
C777 C 0.0544 0.298 0.24674 0.0
C778 C 0.0703 0.31651 0.24484 0.0
H779 H 0.12183 0.2878 0.2442 0.0
O780 O 0.12356 0.32058 0.20966 0.0
O781 O 0.11003 0.34022 0.22499 0.0
O782 O 0.16009 0.33153 0.2265 0.0
O783 O 0.14098 0.32696 0.24365 0.0
C784 C 0.03013 0.30316 0.24747 0.0
C785 C 0.02215 0.32656 0.24601 0.0
H786 H 0.01338 0.37353 0.24235 0.0
H787 H 0.04417 0.40377 0.23858 0.0
H788 H 0.09513 0.2538 0.2475 0.0
H789 H 0.05191 0.26016 0.24911 0.0
H790 H 0.01743 0.28921 0.249 0.0
H791 H 0.00341 0.33024 0.24639 0.0
Mn792 Mn 0.90364 0.88657 0.46654 0.0
Mn793 Mn 0.91167 0.85906 0.49262 0.0
C794 C 0.93187 0.85736 0.46842 0.0
C795 C 0.88566 0.88976 0.44811 0.0
C796 C 0.93025 0.90807 0.48748 0.0
O797 O 0.87333 0.89447 0.47539 0.0
O798 O 0.88039 0.87492 0.49231 0.0
C799 C 0.87474 0.82247 0.49009 0.0
N800 N 0.89772 0.8284 0.49194 0.0
C801 C 0.90878 0.78764 0.49412 0.0
C802 C 0.8852 0.7811 0.49231 0.0
C803 C 0.86813 0.79859 0.49025 0.0
C804 C 0.91432 0.8117 0.49384 0.0
H805 H 0.86156 0.83586 0.48851 0.0
C806 C 0.86738 0.88787 0.48573 0.0
O807 O 0.89515 0.90789 0.45324 0.0
O808 O 0.88568 0.87006 0.45393 0.0
N809 N 0.94111 0.8428 0.49416 0.0
C810 C 0.96321 0.852 0.49526 0.0
C811 C 0.98242 0.83679 0.4971 0.0
C812 C 0.97868 0.81234 0.49792 0.0
C813 C 0.95573 0.80334 0.49694 0.0
C814 C 0.93727 0.81935 0.49512 0.0
H815 H 0.96619 0.87078 0.49468 0.0
O816 O 0.93352 0.87296 0.46011 0.0
O817 O 0.9138 0.85931 0.47539 0.0
O818 O 0.9224 0.90935 0.47698 0.0
O819 O 0.92711 0.89011 0.49409 0.0
C820 C 0.95047 0.77908 0.49755 0.0
C821 C 0.92704 0.77122 0.49607 0.0
H822 H 0.88003 0.7627 0.49241 0.0
H823 H 0.84991 0.79368 0.48879 0.0
H824 H 1.00008 0.84388 0.49787 0.0
H825 H 0.99355 0.80065 0.49927 0.0
H826 H 0.96437 0.76629 0.499 0.0
H827 H 0.92329 0.75249 0.49636 0.0
Mn828 Mn 0.36852 0.65363 0.71449 0.0
Mn829 Mn 0.3962 0.66267 0.74044 0.0
C830 C 0.39714 0.68249 0.71614 0.0
C831 C 0.36598 0.63528 0.69611 0.0
C832 C 0.34672 0.68019 0.7354 0.0
O833 O 0.3613 0.62336 0.72351 0.0
O834 O 0.38103 0.63103 0.74031 0.0
C835 C 0.43358 0.62654 0.73788 0.0
N836 N 0.42717 0.64941 0.73967 0.0
C837 C 0.46774 0.6615 0.74136 0.0
C838 C 0.47477 0.63804 0.7396 0.0
C839 C 0.45762 0.6205 0.73783 0.0
C840 C 0.44354 0.66644 0.74135 0.0
H841 H 0.42046 0.61302 0.73648 0.0
C842 C 0.3682 0.61768 0.73383 0.0
O843 O 0.34751 0.64436 0.70114 0.0
O844 O 0.38552 0.63581 0.70202 0.0
N845 N 0.41182 0.69249 0.74181 0.0
C846 C 0.40214 0.71439 0.74293 0.0
C847 C 0.41694 0.73399 0.74457 0.0
C848 C 0.4415 0.73085 0.74515 0.0
C849 C 0.45103 0.70812 0.74411 0.0
C850 C 0.43539 0.68923 0.74259 0.0
H851 H 0.38328 0.71691 0.74251 0.0
O852 O 0.38144 0.68365 0.70787 0.0
O853 O 0.39561 0.66455 0.72322 0.0
O854 O 0.3454 0.67219 0.72491 0.0
O855 O 0.36483 0.67743 0.74194 0.0
C856 C 0.47545 0.7035 0.74433 0.0
C857 C 0.4838 0.68022 0.74293 0.0
H858 H 0.49329 0.63332 0.7395 0.0
H859 H 0.46291 0.60238 0.73641 0.0
H860 H 0.40945 0.75148 0.74536 0.0
H861 H 0.45287 0.74602 0.74633 0.0
H862 H 0.48798 0.71778 0.74542 0.0
H863 H 0.50263 0.67693 0.74296 0.0
Mn864 Mn 0.40396 0.1178 0.46623 0.0
Mn865 Mn 0.41086 0.14645 0.49209 0.0
C866 C 0.43115 0.14805 0.46788 0.0
C867 C 0.38624 0.11319 0.44782 0.0
C868 C 0.43123 0.09798 0.48738 0.0
O869 O 0.37396 0.10898 0.47515 0.0
O870 O 0.38013 0.12957 0.49185 0.0
C871 C 0.37276 0.18171 0.48918 0.0
N872 N 0.39591 0.17661 0.49114 0.0
C873 C 0.40554 0.21777 0.4931 0.0
C874 C 0.38178 0.22346 0.49117 0.0
C875 C 0.36534 0.20535 0.48916 0.0
C876 C 0.4119 0.1939 0.49299 0.0
H877 H 0.36007 0.16784 0.48764 0.0
C878 C 0.36766 0.11585 0.48539 0.0
O879 O 0.39662 0.09572 0.45309 0.0
O880 O 0.38521 0.13305 0.45348 0.0
N881 N 0.43972 0.16373 0.49359 0.0
C882 C 0.4621 0.15531 0.49485 0.0
C883 C 0.48075 0.1712 0.49667 0.0
C884 C 0.47617 0.19552 0.49733 0.0
C885 C 0.45294 0.20373 0.4962 0.0
C886 C 0.43507 0.18706 0.4944 0.0
H887 H 0.46571 0.13663 0.49441 0.0
O888 O 0.43328 0.13228 0.45968 0.0
O889 O 0.41312 0.14576 0.47486 0.0
O890 O 0.42361 0.09614 0.47686 0.0
O891 O 0.42732 0.11597 0.49385 0.0
C892 C 0.44686 0.2278 0.49665 0.0
C893 C 0.4232 0.23484 0.49503 0.0
H894 H 0.37599 0.24168 0.49114 0.0
H895 H 0.34699 0.20961 0.48761 0.0
H896 H 0.49862 0.16472 0.49756 0.0
H897 H 0.49062 0.20774 0.49867 0.0
H898 H 0.46029 0.24109 0.4981 0.0
H899 H 0.41881 0.25343 0.49521 0.0
Mn900 Mn 0.63654 0.65526 0.21593 0.0
Mn901 Mn 0.60905 0.66266 0.24207 0.0
C902 C 0.60724 0.68337 0.21797 0.0
C903 C 0.63973 0.63761 0.19739 0.0
C904 C 0.65795 0.68161 0.23699 0.0
O905 O 0.64458 0.6248 0.22463 0.0
O906 O 0.62503 0.63145 0.24159 0.0
C907 C 0.57261 0.62562 0.23939 0.0
N908 N 0.57845 0.6486 0.24134 0.0
C909 C 0.53765 0.65943 0.24363 0.0
C910 C 0.53121 0.63585 0.24171 0.0
C911 C 0.54877 0.6189 0.23954 0.0
C912 C 0.56169 0.66508 0.24335 0.0
H913 H 0.58606 0.61254 0.23773 0.0
C914 C 0.63801 0.61861 0.23494 0.0
O915 O 0.65784 0.64708 0.20255 0.0
O916 O 0.62006 0.63747 0.20324 0.0
N917 N 0.59267 0.69199 0.24378 0.0
C918 C 0.60177 0.71411 0.24501 0.0
C919 C 0.58648 0.73322 0.24697 0.0
C920 C 0.56206 0.72935 0.24779 0.0
C921 C 0.55315 0.70638 0.24668 0.0
C922 C 0.56924 0.68803 0.24475 0.0
H923 H 0.62053 0.71719 0.24443 0.0
O924 O 0.6228 0.68521 0.20966 0.0
O925 O 0.60925 0.66516 0.22485 0.0
O926 O 0.65928 0.67396 0.22645 0.0
O927 O 0.64003 0.67822 0.24358 0.0
C928 C 0.52892 0.701 0.24729 0.0
C929 C 0.52116 0.67757 0.24569 0.0
H930 H 0.51283 0.6306 0.24181 0.0
H931 H 0.54393 0.60069 0.238 0.0
H932 H 0.5935 0.75089 0.24783 0.0
H933 H 0.55031 0.74414 0.24924 0.0
H934 H 0.51607 0.71482 0.24883 0.0
H935 H 0.50245 0.67373 0.24599 0.0
Mn936 Mn 0.10115 0.88724 0.96452 0.0
Mn937 Mn 0.09305 0.85982 0.99063 0.0
C938 C 0.07299 0.85793 0.96644 0.0
C939 C 0.11898 0.89044 0.94602 0.0
C940 C 0.07407 0.90858 0.98543 0.0
O941 O 0.13151 0.89523 0.97333 0.0
O942 O 0.12399 0.87627 0.99038 0.0
C943 C 0.1307 0.82392 0.98822 0.0
N944 N 0.10759 0.82942 0.99003 0.0
C945 C 0.09733 0.7885 0.99239 0.0
C946 C 0.12104 0.78239 0.99062 0.0
C947 C 0.13778 0.80018 0.98848 0.0
C948 C 0.09131 0.81244 0.99199 0.0
H949 H 0.14361 0.83754 0.9866 0.0
C950 C 0.13711 0.88906 0.98378 0.0
O951 O 0.1095 0.90856 0.95117 0.0
O952 O 0.11908 0.87077 0.95186 0.0
N953 N 0.06393 0.84302 0.99217 0.0
C954 C 0.04166 0.85181 0.9933 0.0
C955 C 0.02275 0.83627 0.99523 0.0
C956 C 0.02697 0.81192 0.99615 0.0
C957 C 0.05009 0.80334 0.99517 0.0
C958 C 0.06822 0.81966 0.99324 0.0
H959 H 0.03833 0.87053 0.99267 0.0
O960 O 0.07127 0.87353 0.95814 0.0
O961 O 0.09107 0.85993 0.9734 0.0
O962 O 0.08229 0.91003 0.97499 0.0
O963 O 0.07704 0.89056 0.992 0.0
C964 C 0.05583 0.7792 0.99592 0.0
C965 C 0.0794 0.77177 0.99444 0.0
H966 H 0.12658 0.7641 0.99081 0.0
H967 H 0.15609 0.79559 0.98706 0.0
H968 H 0.00497 0.84304 0.99601 0.0
H969 H 0.01234 0.79997 0.99759 0.0
H970 H 0.04219 0.76618 0.99747 0.0
H971 H 0.08353 0.75312 0.99485 0.0
Mn972 Mn 0.86868 0.35141 0.71487 0.0
Mn973 Mn 0.89751 0.3425 0.74053 0.0
C974 C 0.89758 0.32276 0.71619 0.0
C975 C 0.86489 0.36987 0.69656 0.0
C976 C 0.84799 0.32462 0.73598 0.0
O977 O 0.86161 0.38159 0.72399 0.0
O978 O 0.88211 0.37404 0.74058 0.0
C979 C 0.93451 0.37889 0.73761 0.0
N980 N 0.92834 0.35597 0.73947 0.0
C981 C 0.96905 0.3442 0.74081 0.0
C982 C 0.97584 0.3677 0.73898 0.0
C983 C 0.95849 0.38511 0.73735 0.0
C984 C 0.94489 0.33907 0.74101 0.0
H985 H 0.92124 0.39231 0.73632 0.0
C986 C 0.8689 0.3873 0.73424 0.0
O987 O 0.84686 0.3605 0.70185 0.0
O988 O 0.88481 0.36947 0.70217 0.0
N989 N 0.91339 0.31279 0.74174 0.0
C990 C 0.90392 0.29081 0.74294 0.0
C991 C 0.91893 0.27133 0.74446 0.0
C992 C 0.94347 0.27465 0.74483 0.0
C993 C 0.95279 0.29746 0.74372 0.0
C994 C 0.93696 0.31622 0.74232 0.0
H995 H 0.88507 0.28815 0.74268 0.0
O996 O 0.88154 0.32153 0.70808 0.0
O997 O 0.89625 0.34067 0.7233 0.0
O998 O 0.84622 0.33262 0.72552 0.0
O999 O 0.86631 0.3275 0.74236 0.0
C1000 C 0.97718 0.30225 0.74374 0.0
C1001 C 0.98531 0.3256 0.74225 0.0
H1002 H 0.99432 0.37256 0.73873 0.0
H1003 H 0.9636 0.40327 0.73588 0.0
H1004 H 0.9116 0.25378 0.74531 0.0
H1005 H 0.955 0.25956 0.74592 0.0
H1006 H 0.98985 0.28808 0.74472 0.0
H1007 H 0.0041 0.32903 0.74213 0.0
Mn1008 Mn 0.40319 0.88605 0.05345 0.0
Mn1009 Mn 0.41248 0.8576 0.02772 0.0
C1010 C 0.43193 0.85725 0.0521 0.0
C1011 C 0.38459 0.88922 0.07175 0.0
C1012 C 0.43017 0.90712 0.03249 0.0
O1013 O 0.37312 0.8932 0.04426 0.0
O1014 O 0.3809 0.87292 0.02763 0.0
C1015 C 0.37615 0.82045 0.0304 0.0
N1016 N 0.39908 0.82671 0.02865 0.0
C1017 C 0.41102 0.78604 0.02729 0.0
C1018 C 0.3875 0.77917 0.029 0.0
C1019 C 0.37001 0.79645 0.03059 0.0
C1020 C 0.41606 0.81022 0.02714 0.0
H1021 H 0.36267 0.83367 0.03165 0.0
C1022 C 0.36754 0.88604 0.03397 0.0
O1023 O 0.39384 0.90749 0.06662 0.0
O1024 O 0.38508 0.86951 0.06597 0.0
N1025 N 0.44226 0.84181 0.02657 0.0
C1026 C 0.46422 0.85136 0.02548 0.0
C1027 C 0.48378 0.83642 0.02403 0.0
C1028 C 0.48054 0.81187 0.02362 0.0
C1029 C 0.45775 0.80247 0.02461 0.0
C1030 C 0.43891 0.81823 0.02593 0.0
H1031 H 0.46682 0.87022 0.02578 0.0
O1032 O 0.43303 0.87318 0.06027 0.0
O1033 O 0.41411 0.85865 0.04494 0.0
O1034 O 0.42204 0.90876 0.04294 0.0
O1035 O 0.4274 0.88886 0.02605 0.0
C1036 C 0.45304 0.77806 0.02454 0.0
C1037 C 0.42969 0.76985 0.0259 0.0
H1038 H 0.3827 0.76067 0.0292 0.0
H1039 H 0.35184 0.79127 0.03197 0.0
H1040 H 0.50132 0.84381 0.02328 0.0
H1041 H 0.49569 0.80039 0.0226 0.0
H1042 H 0.46727 0.76544 0.02361 0.0
H1043 H 0.42633 0.75104 0.02599 0.0
Mn1044 Mn 0.86789 0.65307 0.80446 0.0
Mn1045 Mn 0.89669 0.66246 0.77882 0.0
C1046 C 0.89684 0.6817 0.80324 0.0
C1047 C 0.86404 0.63448 0.82273 0.0
C1048 C 0.84733 0.68051 0.78349 0.0
O1049 O 0.86081 0.62297 0.79525 0.0
O1050 O 0.88082 0.63119 0.77858 0.0
C1051 C 0.93317 0.62546 0.78152 0.0
N1052 N 0.92733 0.6485 0.77978 0.0
C1053 C 0.9682 0.6597 0.77845 0.0
C1054 C 0.97465 0.63606 0.78015 0.0
C1055 C 0.95706 0.61888 0.78172 0.0
C1056 C 0.94412 0.66519 0.77831 0.0
H1057 H 0.9197 0.61221 0.78275 0.0
C1058 C 0.86777 0.61771 0.78488 0.0
O1059 O 0.84602 0.64389 0.81745 0.0
O1060 O 0.88397 0.63488 0.81712 0.0
N1061 N 0.91301 0.69195 0.77775 0.0
C1062 C 0.90385 0.71407 0.77661 0.0
C1063 C 0.91913 0.73335 0.77512 0.0
C1064 C 0.94362 0.72967 0.7747 0.0
C1065 C 0.95262 0.70672 0.77574 0.0
C1066 C 0.93652 0.68817 0.77711 0.0
H1067 H 0.88503 0.717 0.77689 0.0
O1068 O 0.88076 0.68286 0.81134 0.0
O1069 O 0.8955 0.66389 0.79606 0.0
O1070 O 0.84544 0.67202 0.79385 0.0
O1071 O 0.86572 0.67793 0.77713 0.0
C1072 C 0.97694 0.70157 0.77567 0.0
C1073 C 0.98472 0.67808 0.77706 0.0
H1074 H 0.99306 0.63092 0.78035 0.0
H1075 H 0.9619 0.60062 0.78309 0.0
H1076 H 0.91205 0.75101 0.77431 0.0
H1077 H 0.95536 0.7446 0.77362 0.0
H1078 H 0.9898 0.71557 0.77471 0.0
H1079 H 0.00347 0.67437 0.77713 0.0
Mn1080 Mn 0.10144 0.11802 0.55412 0.0
Mn1081 Mn 0.09392 0.14583 0.52806 0.0
C1082 C 0.0742 0.1482 0.55234 0.0
C1083 C 0.11928 0.11392 0.57253 0.0
C1084 C 0.07351 0.09764 0.53328 0.0
O1085 O 0.13138 0.109 0.54517 0.0
O1086 O 0.12439 0.1285 0.52821 0.0
C1087 C 0.13258 0.18063 0.53042 0.0
N1088 N 0.10932 0.17579 0.52866 0.0
C1089 C 0.10019 0.21702 0.52642 0.0
C1090 C 0.12407 0.22244 0.52815 0.0
C1091 C 0.14032 0.20417 0.53019 0.0
C1092 C 0.09351 0.19325 0.52677 0.0
H1093 H 0.14512 0.16664 0.53198 0.0
C1094 C 0.13713 0.11517 0.53474 0.0
O1095 O 0.10893 0.0963 0.56739 0.0
O1096 O 0.12028 0.13363 0.56673 0.0
N1097 N 0.06527 0.16345 0.52659 0.0
C1098 C 0.04276 0.1553 0.52548 0.0
C1099 C 0.02429 0.17138 0.52362 0.0
C1100 C 0.02918 0.19562 0.52275 0.0
C1101 C 0.05253 0.20354 0.52371 0.0
C1102 C 0.07021 0.18669 0.52557 0.0
H1103 H 0.03891 0.13668 0.52608 0.0
O1104 O 0.07218 0.13265 0.56064 0.0
O1105 O 0.09213 0.14573 0.54531 0.0
O1106 O 0.08168 0.096 0.5437 0.0
O1107 O 0.07703 0.11553 0.52668 0.0
C1108 C 0.05893 0.22751 0.52302 0.0
C1109 C 0.08272 0.23427 0.52446 0.0
H1110 H 0.13012 0.24057 0.52798 0.0
H1111 H 0.15877 0.20822 0.53158 0.0
H1112 H 0.00632 0.16512 0.52286 0.0
H1113 H 0.01487 0.20799 0.52138 0.0
H1114 H 0.04565 0.24093 0.52153 0.0
H1115 H 0.08736 0.25279 0.52409 0.0
Mn1116 Mn 0.63723 0.35121 0.30299 0.0
Mn1117 Mn 0.60929 0.34224 0.27712 0.0
C1118 C 0.60808 0.3228 0.30145 0.0
C1119 C 0.64022 0.36963 0.32135 0.0
C1120 C 0.65838 0.3238 0.28217 0.0
O1121 O 0.64487 0.38133 0.2939 0.0
O1122 O 0.62534 0.37342 0.27707 0.0
C1123 C 0.57294 0.37945 0.27951 0.0
N1124 N 0.57871 0.35637 0.27783 0.0
C1125 C 0.53785 0.34544 0.27602 0.0
C1126 C 0.53147 0.36912 0.27766 0.0
C1127 C 0.54909 0.38618 0.27945 0.0
C1128 C 0.56189 0.33979 0.27619 0.0
H1129 H 0.58643 0.39262 0.28089 0.0
C1130 C 0.63828 0.38675 0.2835 0.0
O1131 O 0.65849 0.36021 0.31629 0.0
O1132 O 0.62062 0.3694 0.31547 0.0
N1133 N 0.59286 0.31284 0.27592 0.0
C1134 C 0.60193 0.29066 0.27493 0.0
C1135 C 0.58658 0.27146 0.27335 0.0
C1136 C 0.56214 0.2753 0.27266 0.0
C1137 C 0.55326 0.29832 0.27352 0.0
C1138 C 0.5694 0.31676 0.27507 0.0
H1139 H 0.62071 0.28761 0.2754 0.0
O1140 O 0.62384 0.32145 0.30968 0.0
O1141 O 0.60986 0.34067 0.29434 0.0
O1142 O 0.65999 0.33217 0.29257 0.0
O1143 O 0.64022 0.32661 0.27568 0.0
C1144 C 0.52902 0.30367 0.27302 0.0
C1145 C 0.5213 0.32719 0.27435 0.0
H1146 H 0.51309 0.37437 0.27763 0.0
H1147 H 0.5443 0.40447 0.28077 0.0
H1148 H 0.59358 0.25375 0.27268 0.0
H1149 H 0.55035 0.26043 0.27152 0.0
H1150 H 0.51613 0.28979 0.27178 0.0
H1151 H 0.50258 0.33103 0.27414 0.0
C1152 C 0.94917 0.55757 0.98499 0.0
C1153 C 0.94489 0.5782 0.99154 0.0
C1154 C 0.96301 0.53937 0.98965 0.0
C1155 C 0.0085 0.52756 0.01225 0.0
H1156 H 0.99051 0.46225 1.00755 0.0
C1157 C 0.05566 0.45008 0.03579 0.0
C1158 C 0.05986 0.42958 0.02913 0.0
C1159 C 0.04174 0.46836 0.03126 0.0
C1160 C 0.99593 0.48039 1.00884 0.0
H1161 H 0.95175 0.59562 1.00821 0.0
H1162 H 0.97555 0.56386 0.01631 0.0
H1163 H 0.96591 0.49363 0.99951 0.0
H1164 H 0.05279 0.41248 0.0124 0.0
H1165 H 0.02888 0.44434 1.00453 0.0
H1166 H 0.03853 0.51431 0.02157 0.0
C1167 C 0.96849 0.56188 1.00752 0.0
C1168 C 0.98182 0.49838 1.00422 0.0
C1169 C 0.95466 0.58005 1.00288 0.0
C1170 C 0.04994 0.42793 0.01781 0.0
C1171 C 0.03604 0.44616 0.01331 0.0
C1172 C 0.02261 0.50956 0.01687 0.0
C1173 C 0.97292 0.54136 1.00095 0.0
C1174 C 0.98793 0.52219 1.00586 0.0
C1175 C 0.03166 0.46655 0.01999 0.0
C1176 C 0.01653 0.48576 0.0152 0.0
H1177 H 0.94202 0.55552 0.97622 0.0
H1178 H 0.96629 0.52391 0.9843 0.0
H1179 H 0.01392 0.5457 0.01352 0.0
H1180 H 0.06294 0.45197 0.04454 0.0
H1181 H 0.03852 0.48373 0.03669 0.0
C1182 C 0.69792 0.70063 0.23495 0.0
C1183 C 0.67782 0.69574 0.2418 0.0
C1184 C 0.71619 0.71459 0.23943 0.0
C1185 C 0.72866 0.75943 0.26227 0.0
H1186 H 0.79396 0.74284 0.25641 0.0
C1187 C 0.80648 0.80649 0.28546 0.0
C1188 C 0.82666 0.81134 0.27866 0.0
C1189 C 0.78821 0.7926 0.28093 0.0
C1190 C 0.77581 0.74788 0.25802 0.0
H1191 H 0.66145 0.70164 0.25884 0.0
H1192 H 0.69333 0.72565 0.26663 0.0
H1193 H 0.76256 0.71805 0.24855 0.0
H1194 H 0.84315 0.8055 0.26165 0.0
H1195 H 0.81125 0.78162 0.25376 0.0
H1196 H 0.74191 0.78926 0.27175 0.0
C1197 C 0.69483 0.71897 0.25773 0.0
C1198 C 0.7578 0.73366 0.25351 0.0
C1199 C 0.67659 0.70502 0.25327 0.0
C1200 C 0.82795 0.80213 0.26718 0.0
C1201 C 0.80971 0.78826 0.26266 0.0
C1202 C 0.74666 0.77366 0.26679 0.0
C1203 C 0.7148 0.72404 0.25086 0.0
C1204 C 0.734 0.73924 0.25559 0.0
C1205 C 0.78966 0.78321 0.26949 0.0
C1206 C 0.77047 0.76806 0.26472 0.0
H1207 H 0.69948 0.69386 0.22608 0.0
H1208 H 0.73123 0.71835 0.23386 0.0
H1209 H 0.71051 0.76447 0.26388 0.0
H1210 H 0.80487 0.8132 0.29434 0.0
H1211 H 0.77313 0.78885 0.28647 0.0
C1212 C 0.55281 0.42607 0.50199 0.0
C1213 C 0.56223 0.42749 0.49055 0.0
C1214 C 0.53903 0.44434 0.50654 0.0
C1215 C 0.5249 0.50755 0.5027 0.0
H1216 H 0.46882 0.49161 0.52058 0.0
C1217 C 0.4562 0.57766 0.51601 0.0
C1218 C 0.4465 0.57635 0.5274 0.0
C1219 C 0.47026 0.55944 0.51162 0.0
C1220 C 0.48457 0.49637 0.51573 0.0
H1221 H 0.56455 0.44956 0.47498 0.0
H1222 H 0.54033 0.48138 0.48293 0.0
H1223 H 0.4936 0.46023 0.51267 0.0
H1224 H 0.44401 0.55456 0.54304 0.0
H1225 H 0.4687 0.52279 0.53539 0.0
H1226 H 0.51586 0.5437 0.50575 0.0
C1227 C 0.54386 0.46616 0.48841 0.0
C1228 C 0.49878 0.47838 0.51119 0.0
C1229 C 0.55768 0.44784 0.48383 0.0
C1230 C 0.4511 0.55618 0.53423 0.0
C1231 C 0.46518 0.5379 0.52982 0.0
C1232 C 0.51069 0.52555 0.50725 0.0
C1233 C 0.53424 0.46455 0.4998 0.0
C1234 C 0.51912 0.48374 0.50461 0.0
C1235 C 0.47504 0.53938 0.51848 0.0
C1236 C 0.49032 0.52018 0.5138 0.0
H1237 H 0.55594 0.41074 0.50746 0.0
H1238 H 0.53222 0.44267 0.51541 0.0
H1239 H 0.54063 0.51231 0.49784 0.0
H1240 H 0.45305 0.59285 0.51045 0.0
H1241 H 0.47723 0.561 0.50278 0.0
C1242 C 0.80771 0.30616 0.73431 0.0
C1243 C 0.82813 0.31068 0.74096 0.0
C1244 C 0.78942 0.29239 0.73894 0.0
C1245 C 0.77716 0.24749 0.76181 0.0
H1246 H 0.71191 0.26481 0.75636 0.0
C1247 C 0.69907 0.20045 0.78495 0.0
C1248 C 0.67892 0.19584 0.77811 0.0
C1249 C 0.71744 0.21438 0.78051 0.0
C1250 C 0.73004 0.25958 0.75786 0.0
H1251 H 0.84509 0.30436 0.75781 0.0
H1252 H 0.81318 0.28071 0.76587 0.0
H1253 H 0.74339 0.28942 0.74842 0.0
H1254 H 0.66255 0.20217 0.76111 0.0
H1255 H 0.69456 0.2261 0.7534 0.0
H1256 H 0.76379 0.21764 0.77125 0.0
C1257 C 0.81143 0.28751 0.757 0.0
C1258 C 0.74809 0.2737 0.7533 0.0
C1259 C 0.82969 0.30125 0.75239 0.0
C1260 C 0.67773 0.20534 0.76668 0.0
C1261 C 0.69604 0.21925 0.76226 0.0
C1262 C 0.75911 0.23338 0.76637 0.0
C1263 C 0.79112 0.2828 0.75032 0.0
C1264 C 0.77188 0.26782 0.7552 0.0
C1265 C 0.71606 0.22406 0.76913 0.0
C1266 C 0.73532 0.23922 0.76443 0.0
H1267 H 0.80589 0.31304 0.72547 0.0
H1268 H 0.77414 0.28889 0.7335 0.0
H1269 H 0.79529 0.24224 0.76329 0.0
H1270 H 0.70061 0.1935 0.79379 0.0
H1271 H 0.73252 0.21792 0.78608 0.0
C1272 C 0.95045 0.44848 0.53458 0.0
C1273 C 0.94614 0.42797 0.52796 0.0
C1274 C 0.96438 0.46671 0.53001 0.0
C1275 C 0.00994 0.47867 0.5074 0.0
H1276 H 0.99236 0.54399 0.51242 0.0
C1277 C 0.05703 0.55637 0.48395 0.0
C1278 C 0.06142 0.57675 0.49067 0.0
C1279 C 0.04316 0.53804 0.48848 0.0
C1280 C 0.99767 0.52584 0.51104 0.0
H1281 H 0.95302 0.4108 0.51121 0.0
H1282 H 0.97692 0.44259 0.50325 0.0
H1283 H 0.96766 0.51263 0.5204 0.0
H1284 H 0.05478 0.59353 0.50754 0.0
H1285 H 0.03096 0.56159 0.5154 0.0
H1286 H 0.03994 0.49191 0.49803 0.0
C1287 C 0.96985 0.44446 0.51205 0.0
C1288 C 0.9835 0.50786 0.51563 0.0
C1289 C 0.95596 0.42626 0.51661 0.0
C1290 C 0.05179 0.57818 0.50206 0.0
C1291 C 0.03794 0.55991 0.50657 0.0
C1292 C 0.0241 0.49666 0.50281 0.0
C1293 C 0.97434 0.46486 0.5187 0.0
C1294 C 0.98946 0.48404 0.51386 0.0
C1295 C 0.03332 0.53967 0.49981 0.0
C1296 C 0.01816 0.52048 0.50459 0.0
H1297 H 0.94327 0.45041 0.54336 0.0
H1298 H 0.96769 0.48207 0.53542 0.0
H1299 H 0.01526 0.46053 0.50603 0.0
H1300 H 0.06408 0.55465 0.47514 0.0
H1301 H 0.03977 0.52279 0.483 0.0
C1302 C 0.69863 0.8058 0.73511 0.0
C1303 C 0.67833 0.81004 0.74191 0.0
C1304 C 0.71698 0.79178 0.73949 0.0
C1305 C 0.72944 0.74579 0.76178 0.0
H1306 H 0.79467 0.76377 0.75681 0.0
C1307 C 0.80696 0.69881 0.78523 0.0
C1308 C 0.82751 0.69462 0.7786 0.0
C1309 C 0.78869 0.71267 0.78067 0.0
C1310 C 0.77655 0.75834 0.75816 0.0
H1311 H 0.66166 0.80291 0.75876 0.0
H1312 H 0.69363 0.77883 0.76637 0.0
H1313 H 0.76316 0.78843 0.74893 0.0
H1314 H 0.8447 0.70168 0.76188 0.0
H1315 H 0.81282 0.7255 0.75394 0.0
H1316 H 0.7428 0.71571 0.77101 0.0
C1317 C 0.69524 0.78604 0.75758 0.0
C1318 C 0.75849 0.77249 0.75364 0.0
C1319 C 0.67695 0.80004 0.75323 0.0
C1320 C 0.82921 0.70452 0.76727 0.0
C1321 C 0.81096 0.71836 0.76273 0.0
C1322 C 0.74749 0.73164 0.7663 0.0
C1323 C 0.71543 0.78163 0.75076 0.0
C1324 C 0.73471 0.76642 0.75541 0.0
C1325 C 0.79052 0.72271 0.76938 0.0
C1326 C 0.77128 0.73775 0.76456 0.0
H1327 H 0.70031 0.81313 0.72635 0.0
H1328 H 0.7322 0.78855 0.73396 0.0
H1329 H 0.71132 0.74038 0.76314 0.0
H1330 H 0.80504 0.69156 0.79399 0.0
H1331 H 0.77329 0.71588 0.78608 0.0
C1332 C 0.45351 0.42655 1.00284 0.0
C1333 C 0.44394 0.42806 0.99144 0.0
C1334 C 0.46734 0.44479 1.00738 0.0
C1335 C 0.50409 0.49533 0.99827 0.0
H1336 H 0.49745 0.51427 0.03088 0.0
C1337 C 0.55029 0.57782 0.01707 0.0
C1338 C 0.55997 0.57638 0.02845 0.0
C1339 C 0.53637 0.55958 0.0126 0.0
C1340 C 0.49973 0.509 0.0218 0.0
H1341 H 0.44136 0.45028 0.97594 0.0
H1342 H 0.46536 0.48221 0.98392 0.0
H1343 H 0.47221 0.48324 0.02298 0.0
H1344 H 0.5626 0.55434 0.044 0.0
H1345 H 0.53844 0.52238 0.03614 0.0
H1346 H 0.53161 0.52107 0.99708 0.0
C1347 C 0.46234 0.4667 0.98929 0.0
C1348 C 0.48523 0.49123 0.01726 0.0
C1349 C 0.44844 0.44844 0.98474 0.0
C1350 C 0.55544 0.5561 0.03522 0.0
C1351 C 0.54146 0.53782 0.03074 0.0
C1352 C 0.51859 0.51309 1.00281 0.0
C1353 C 0.47203 0.46505 1.00065 0.0
C1354 C 0.48723 0.48419 1.00544 0.0
C1355 C 0.53172 0.53937 0.01938 0.0
C1356 C 0.51657 0.52016 0.01462 0.0
H1357 H 0.45055 0.41112 1.00826 0.0
H1358 H 0.47478 0.44278 0.0161 0.0
H1359 H 0.50638 0.49006 0.98918 0.0
H1360 H 0.55325 0.59318 0.01159 0.0
H1361 H 0.52889 0.56151 1.00389 0.0
C1362 C 0.82792 0.20285 0.25175 0.0
C1363 C 0.82654 0.19342 0.24031 0.0
C1364 C 0.80971 0.21679 0.25625 0.0
C1365 C 0.74664 0.23123 0.25235 0.0
H1366 H 0.76281 0.28719 0.27025 0.0
C1367 C 0.67671 0.29991 0.26598 0.0
C1368 C 0.67818 0.30954 0.27737 0.0
C1369 C 0.69487 0.28588 0.2615 0.0
C1370 C 0.75798 0.27148 0.2654 0.0
H1371 H 0.80462 0.19121 0.22471 0.0
H1372 H 0.77288 0.21568 0.23257 0.0
H1373 H 0.79409 0.26235 0.26229 0.0
H1374 H 0.7002 0.31194 0.29294 0.0
H1375 H 0.73184 0.28728 0.28513 0.0
H1376 H 0.71053 0.24035 0.25546 0.0
C1377 C 0.78803 0.21206 0.23808 0.0
C1378 C 0.77592 0.25724 0.26082 0.0
C1379 C 0.8063 0.1981 0.23355 0.0
C1380 C 0.69845 0.3049 0.28413 0.0
C1381 C 0.71666 0.29084 0.27963 0.0
C1382 C 0.7287 0.24547 0.25693 0.0
C1383 C 0.7896 0.22169 0.24946 0.0
C1384 C 0.77047 0.23693 0.25424 0.0
C1385 C 0.71502 0.28105 0.26828 0.0
C1386 C 0.73415 0.26579 0.26351 0.0
H1387 H 0.84317 0.19963 0.25726 0.0
H1388 H 0.81134 0.22359 0.26511 0.0
H1389 H 0.74182 0.21553 0.24748 0.0
H1390 H 0.66144 0.30309 0.26048 0.0
H1391 H 0.69318 0.27896 0.25266 0.0
C1392 C 0.30623 0.30663 0.78578 0.0
C1393 C 0.32655 0.31075 0.77897 0.0
C1394 C 0.2878 0.29271 0.78141 0.0
C1395 C 0.27524 0.24678 0.75912 0.0
H1396 H 0.20999 0.26465 0.76416 0.0
C1397 C 0.19804 0.20025 0.73538 0.0
C1398 C 0.17754 0.19564 0.74196 0.0
C1399 C 0.21615 0.21416 0.74004 0.0
C1400 C 0.22812 0.25926 0.76279 0.0
H1401 H 0.34313 0.3036 0.7621 0.0
H1402 H 0.31101 0.27974 0.7545 0.0
H1403 H 0.24151 0.28929 0.77208 0.0
H1404 H 0.16017 0.2021 0.75869 0.0
H1405 H 0.19181 0.22609 0.76681 0.0
H1406 H 0.26188 0.2168 0.74981 0.0
C1407 C 0.30945 0.28693 0.76329 0.0
C1408 C 0.24618 0.27339 0.76733 0.0
C1409 C 0.32784 0.3008 0.76765 0.0
C1410 C 0.17566 0.20525 0.75334 0.0
C1411 C 0.19375 0.21917 0.75799 0.0
C1412 C 0.25719 0.23268 0.75457 0.0
C1413 C 0.28927 0.28257 0.77013 0.0
C1414 C 0.26997 0.26737 0.76551 0.0
C1415 C 0.2142 0.22384 0.75139 0.0
C1416 C 0.2334 0.23877 0.75632 0.0
H1417 H 0.30462 0.31393 0.79455 0.0
H1418 H 0.27259 0.28953 0.78695 0.0
H1419 H 0.29336 0.24139 0.75773 0.0
H1420 H 0.20011 0.19324 0.72657 0.0
H1421 H 0.23154 0.21764 0.73466 0.0
C1422 C 0.19883 0.70049 0.28433 0.0
C1423 C 0.17875 0.69569 0.27747 0.0
C1424 C 0.21706 0.71462 0.27991 0.0
C1425 C 0.22931 0.75995 0.25724 0.0
H1426 H 0.29469 0.74328 0.2628 0.0
C1427 C 0.30688 0.80756 0.23401 0.0
C1428 C 0.32712 0.81223 0.24078 0.0
C1429 C 0.28864 0.79355 0.23852 0.0
C1430 C 0.27652 0.74834 0.26128 0.0
H1431 H 0.16237 0.70191 0.26047 0.0
H1432 H 0.19414 0.72617 0.25279 0.0
H1433 H 0.2634 0.71837 0.2707 0.0
H1434 H 0.34375 0.80597 0.25772 0.0
H1435 H 0.31195 0.78194 0.26555 0.0
H1436 H 0.24242 0.78991 0.24782 0.0
C1437 C 0.19566 0.71932 0.26165 0.0
C1438 C 0.25858 0.73405 0.26582 0.0
C1439 C 0.17749 0.70522 0.26605 0.0
C1440 C 0.32851 0.80273 0.2522 0.0
C1441 C 0.31032 0.78877 0.25669 0.0
C1442 C 0.24725 0.77424 0.25271 0.0
C1443 C 0.21562 0.72432 0.26854 0.0
C1444 C 0.23475 0.73966 0.26384 0.0
C1445 C 0.29021 0.78388 0.2499 0.0
C1446 C 0.27108 0.76862 0.25466 0.0
H1447 H 0.20041 0.69353 0.29317 0.0
H1448 H 0.2321 0.71831 0.28549 0.0
H1449 H 0.21114 0.76499 0.25571 0.0
H1450 H 0.30519 0.81449 0.22517 0.0
H1451 H 0.2735 0.78993 0.233 0.0
C1452 C 0.33054 0.20579 0.26769 0.0
C1453 C 0.32866 0.19603 0.27904 0.0
C1454 C 0.31237 0.21962 0.26305 0.0
C1455 C 0.26118 0.25578 0.27192 0.0
H1456 H 0.2426 0.24883 0.23928 0.0
C1457 C 0.17771 0.30009 0.25314 0.0
C1458 C 0.17894 0.30984 0.24177 0.0
C1459 C 0.19626 0.28656 0.25759 0.0
C1460 C 0.24777 0.2512 0.24837 0.0
H1461 H 0.30592 0.19313 0.29434 0.0
H1462 H 0.27419 0.21709 0.28619 0.0
H1463 H 0.27413 0.22424 0.24721 0.0
H1464 H 0.20092 0.31299 0.22621 0.0
H1465 H 0.2334 0.28955 0.23405 0.0
H1466 H 0.23484 0.28272 0.2731 0.0
C1467 C 0.28989 0.21424 0.28095 0.0
C1468 C 0.26583 0.23708 0.25293 0.0
C1469 C 0.30805 0.20037 0.28559 0.0
C1470 C 0.1993 0.30576 0.23499 0.0
C1471 C 0.21789 0.29219 0.23945 0.0
C1472 C 0.24314 0.2699 0.26737 0.0
C1473 C 0.29187 0.2241 0.26964 0.0
C1474 C 0.2727 0.23915 0.26477 0.0
C1475 C 0.21657 0.2824 0.25081 0.0
C1476 C 0.23615 0.26773 0.25556 0.0
H1477 H 0.34616 0.20294 0.26238 0.0
H1478 H 0.31458 0.22717 0.25437 0.0
H1479 H 0.26631 0.25812 0.28102 0.0
H1480 H 0.16229 0.30271 0.25862 0.0
H1481 H 0.1945 0.27901 0.2663 0.0
C1482 C 0.17577 0.79918 0.76581 0.0
C1483 C 0.17732 0.80898 0.77716 0.0
C1484 C 0.194 0.78526 0.76131 0.0
C1485 C 0.24484 0.7489 0.77044 0.0
H1486 H 0.26369 0.75556 0.73781 0.0
C1487 C 0.32788 0.70359 0.75162 0.0
C1488 C 0.32662 0.69398 0.74022 0.0
C1489 C 0.30942 0.71721 0.75611 0.0
C1490 C 0.25844 0.75326 0.7469 0.0
H1491 H 0.19955 0.81181 0.79264 0.0
H1492 H 0.23147 0.78766 0.78473 0.0
H1493 H 0.23243 0.78054 0.74569 0.0
H1494 H 0.30463 0.6911 0.72466 0.0
H1495 H 0.27229 0.71471 0.73257 0.0
H1496 H 0.27085 0.72163 0.77165 0.0
C1497 C 0.21595 0.79058 0.77937 0.0
C1498 C 0.24054 0.76761 0.75143 0.0
C1499 C 0.19769 0.80455 0.78387 0.0
C1500 C 0.30627 0.69822 0.73346 0.0
C1501 C 0.28777 0.71189 0.73797 0.0
C1502 C 0.26274 0.73454 0.76591 0.0
C1503 C 0.2143 0.78073 0.76804 0.0
C1504 C 0.23353 0.76562 0.76326 0.0
C1505 C 0.28917 0.72161 0.74933 0.0
C1506 C 0.26978 0.73656 0.75409 0.0
H1507 H 0.16034 0.80206 0.76038 0.0
H1508 H 0.192 0.7777 0.75262 0.0
H1509 H 0.23961 0.74663 0.77953 0.0
H1510 H 0.34328 0.70084 0.75709 0.0
H1511 H 0.31125 0.72468 0.76483 0.0
C1512 C 0.55576 0.94933 0.53638 0.0
C1513 C 0.55989 0.929 0.52959 0.0
C1514 C 0.54196 0.96782 0.53197 0.0
C1515 C 0.49635 0.98059 0.50956 0.0
H1516 H 0.51453 0.04574 0.51458 0.0
C1517 C 0.45027 0.058 0.48574 0.0
C1518 C 0.44568 0.07849 0.49234 0.0
C1519 C 0.46414 0.03984 0.4904 0.0
C1520 C 0.50906 0.02764 0.51321 0.0
H1521 H 0.55286 0.91244 0.51271 0.0
H1522 H 0.52918 0.94465 0.50504 0.0
H1523 H 0.53892 0.0141 0.52258 0.0
H1524 H 0.45216 0.0958 0.50908 0.0
H1525 H 0.47606 0.06409 0.51719 0.0
H1526 H 0.46652 0.9941 0.50018 0.0
C1527 C 0.53629 0.94618 0.51385 0.0
C1528 C 0.52304 0.00951 0.5178 0.0
C1529 C 0.55005 0.92775 0.51824 0.0
C1530 C 0.45529 0.08032 0.50372 0.0
C1531 C 0.46916 0.06219 0.50836 0.0
C1532 C 0.48238 0.99871 0.50497 0.0
C1533 C 0.53194 0.96638 0.52067 0.0
C1534 C 0.5169 0.98575 0.51599 0.0
C1535 C 0.47378 0.04173 0.50176 0.0
C1536 C 0.48859 0.02246 0.50671 0.0
H1537 H 0.56299 0.95092 0.54516 0.0
H1538 H 0.53878 0.98304 0.5375 0.0
H1539 H 0.49087 0.9625 0.50817 0.0
H1540 H 0.44326 0.05597 0.47694 0.0
H1541 H 0.46758 0.02445 0.48502 0.0
C1542 C 0.05537 0.9487 0.98334 0.0
C1543 C 0.05986 0.92847 0.99016 0.0
C1544 C 0.04146 0.96706 0.98778 0.0
C1545 C 0.99623 0.97981 0.01042 0.0
H1546 H 0.01381 0.04496 1.00487 0.0
C1547 C 0.94961 0.05802 0.03356 0.0
C1548 C 0.94507 0.07824 0.02674 0.0
C1549 C 0.96344 0.03963 0.02908 0.0
C1550 C 0.0085 0.02686 1.00639 0.0
H1551 H 0.05329 0.91196 1.0071 0.0
H1552 H 0.0294 0.94399 0.01482 0.0
H1553 H 0.03836 0.01333 0.99702 0.0
H1554 H 0.95145 0.09472 0.00977 0.0
H1555 H 0.97522 0.06264 1.002 0.0
H1556 H 0.96639 0.99334 0.0198 0.0
C1557 C 0.03634 0.94552 1.00598 0.0
C1558 C 0.02258 0.00873 1.00188 0.0
C1559 C 0.05022 0.92719 1.00155 0.0
C1560 C 0.95456 0.07949 0.01531 0.0
C1561 C 0.96837 0.06114 0.01086 0.0
C1562 C 0.98216 0.99795 0.01493 0.0
C1563 C 0.03169 0.96564 0.99914 0.0
C1564 C 0.01663 0.98497 1.00385 0.0
C1565 C 0.97309 0.04103 0.0177 0.0
C1566 C 0.98811 0.0217 0.01297 0.0
H1567 H 0.06243 0.9503 0.97452 0.0
H1568 H 0.03803 0.98221 0.98223 0.0
H1569 H 0.99093 0.96171 0.01195 0.0
H1570 H 0.94267 0.05645 0.0424 0.0
H1571 H 0.96692 0.02449 0.03463 0.0
C1572 C 0.54946 0.07766 1.00225 0.0
C1573 C 0.55926 0.07645 0.99089 0.0
C1574 C 0.53548 0.05934 1.00659 0.0
C1575 C 0.52163 0.99622 1.00245 0.0
H1576 H 0.46525 0.01184 0.02018 0.0
C1577 C 0.45371 0.92553 0.01618 0.0
C1578 C 0.44412 0.92704 0.02758 0.0
C1579 C 0.46748 0.94381 0.01163 0.0
C1580 C 0.48107 0.00716 0.01536 0.0
H1581 H 0.56203 0.05474 0.97522 0.0
H1582 H 0.53746 0.02279 0.98281 0.0
H1583 H 0.48988 0.04336 0.01229 0.0
H1584 H 0.44149 0.94924 0.04308 0.0
H1585 H 0.46568 0.98108 0.03514 0.0
H1586 H 0.51284 0.96002 1.00554 0.0
C1587 C 0.54084 0.03791 0.98839 0.0
C1588 C 0.49519 0.02524 0.01083 0.0
C1589 C 0.55485 0.05628 0.98402 0.0
C1590 C 0.4485 0.94746 0.03426 0.0
C1591 C 0.4623 0.96578 0.02969 0.0
C1592 C 0.50751 0.97814 1.00699 0.0
C1593 C 0.53088 0.03929 0.99971 0.0
C1594 C 0.51568 0.02 1.00435 0.0
C1595 C 0.47205 0.96412 0.01833 0.0
C1596 C 0.48706 0.98339 0.01351 0.0
H1597 H 0.55247 0.09285 1.00784 0.0
H1598 H 0.52842 0.06083 0.01542 0.0
H1599 H 0.53746 0.99156 0.99765 0.0
H1600 H 0.45072 0.91013 0.01074 0.0
H1601 H 0.47441 0.9421 1.00279 0.0
C1602 C 0.04897 0.07956 0.51725 0.0
C1603 C 0.0589 0.07804 0.52857 0.0
C1604 C 0.03497 0.06132 0.51283 0.0
C1605 C 0.99883 0.01042 0.52214 0.0
H1606 H 0.00557 0.99116 0.48958 0.0
C1607 C 0.95392 0.9269 0.50361 0.0
C1608 C 0.94419 0.92811 0.49224 0.0
C1609 C 0.96754 0.94542 0.50804 0.0
C1610 C 0.00326 0.99652 0.49865 0.0
H1611 H 0.06182 0.0559 0.54409 0.0
H1612 H 0.03754 0.02401 0.53632 0.0
H1613 H 0.03032 0.02273 0.49732 0.0
H1614 H 0.94113 0.95003 0.47666 0.0
H1615 H 0.96473 0.98242 0.48444 0.0
H1616 H 0.97178 0.9842 0.52347 0.0
C1617 C 0.04041 0.03949 0.53092 0.0
C1618 C 0.01746 0.0146 0.50309 0.0
C1619 C 0.05446 0.05774 0.53535 0.0
C1620 C 0.94835 0.94842 0.48544 0.0
C1621 C 0.96201 0.96696 0.48987 0.0
C1622 C 0.98462 0.99234 0.51769 0.0
C1623 C 0.03049 0.04108 0.51961 0.0
C1624 C 0.01544 0.02176 0.5149 0.0
C1625 C 0.97182 0.96565 0.50122 0.0
C1626 C 0.98668 0.98515 0.50589 0.0
H1627 H 0.05187 0.09494 0.51178 0.0
H1628 H 0.02734 0.06327 0.50415 0.0
H1629 H 0.99654 0.01575 0.53121 0.0
H1630 H 0.95123 0.91152 0.50911 0.0
H1631 H 0.97509 0.94367 0.51674 0.0
C1632 C 0.97169 0.16914 0.05203 0.0
C1633 C 0.94708 0.17047 0.05114 0.0
C1634 C 0.98514 0.18977 0.05286 0.0
C1635 C 0.98163 0.25432 0.04759 0.0
H1636 H 0.03758 0.25589 0.06717 0.0
C1637 C 0.03346 0.34045 0.05517 0.0
C1638 C 0.05804 0.33864 0.05426 0.0
C1639 C 0.01959 0.32006 0.05566 0.0
C1640 C 0.02212 0.25567 0.06157 0.0
H1641 H 0.91691 0.19383 0.05146 0.0
H1642 H 0.9402 0.22988 0.05312 0.0
H1643 H 0.01415 0.21992 0.0661 0.0
H1644 H 0.08775 0.31468 0.05442 0.0
H1645 H 0.06366 0.279 0.05508 0.0
H1646 H 0.98962 0.29003 0.04304 0.0
C1647 C 0.94934 0.21313 0.05265 0.0
C1648 C 0.00871 0.23502 0.06094 0.0
C1649 C 0.93598 0.19253 0.0517 0.0
C1650 C 0.06871 0.31635 0.05471 0.0
C1651 C 0.05492 0.29599 0.05526 0.0
C1652 C 0.99505 0.27494 0.04821 0.0
C1653 C 0.97412 0.21204 0.05313 0.0
C1654 C 0.98834 0.23405 0.0539 0.0
C1655 C 0.03017 0.29757 0.0555 0.0
C1656 C 0.0155 0.27585 0.05518 0.0
H1657 H 0.98052 0.15219 0.05182 0.0
H1658 H 0.00417 0.18825 0.05311 0.0
H1659 H 0.96616 0.25423 0.04202 0.0
H1660 H 0.02498 0.35758 0.05516 0.0
H1661 H 1.0006 0.3219 0.0561 0.0
C1662 C 0.06436 0.68611 0.3016 0.0
C1663 C 0.08654 0.69703 0.30128 0.0
C1664 C 0.04383 0.69965 0.30223 0.0
C1665 C 0.02189 0.75925 0.31006 0.0
H1666 H 0.96785 0.74047 0.29137 0.0
C1667 C 0.94056 0.81922 0.30351 0.0
C1668 C 0.91834 0.80842 0.30299 0.0
C1669 C 0.96103 0.80554 0.30391 0.0
C1670 C 0.98267 0.74582 0.29676 0.0
H1671 H 0.10503 0.73034 0.30213 0.0
H1672 H 0.06909 0.75429 0.3029 0.0
H1673 H 0.00356 0.71676 0.29091 0.0
H1674 H 0.89965 0.77519 0.30354 0.0
H1675 H 0.93547 0.75103 0.30424 0.0
H1676 H 1.00079 0.78819 0.31603 0.0
C1677 C 0.06745 0.73526 0.30267 0.0
C1678 C 0.00323 0.73226 0.29645 0.0
C1679 C 0.088 0.72164 0.30214 0.0
C1680 C 0.91672 0.78379 0.3036 0.0
C1681 C 0.9372 0.77004 0.30395 0.0
C1682 C 1.00127 0.77276 0.31041 0.0
C1683 C 0.04508 0.72442 0.30266 0.0
C1684 C 0.02315 0.73884 0.30306 0.0
C1685 C 0.95961 0.78077 0.30395 0.0
C1686 C 0.98142 0.76622 0.30375 0.0
H1687 H 0.06292 0.66705 0.30138 0.0
H1688 H 0.02698 0.69066 0.30249 0.0
H1689 H 0.03671 0.76461 0.31544 0.0
H1690 H 0.9421 0.83827 0.30346 0.0
H1691 H 0.97796 0.81439 0.30386 0.0
C1692 C 0.43636 0.69056 0.55213 0.0
C1693 C 0.44754 0.66853 0.55166 0.0
C1694 C 0.44965 0.71122 0.55303 0.0
C1695 C 0.50905 0.73344 0.56116 0.0
H1696 H 0.48956 0.78815 0.54314 0.0
C1697 C 0.56866 0.81493 0.55451 0.0
C1698 C 0.5579 0.83719 0.55418 0.0
C1699 C 0.55497 0.79451 0.55508 0.0
C1700 C 0.4951 0.77314 0.54834 0.0
H1701 H 0.48102 0.65036 0.55247 0.0
H1702 H 0.50456 0.68652 0.55366 0.0
H1703 H 0.4662 0.75227 0.54233 0.0
H1704 H 0.52478 0.85598 0.55526 0.0
H1705 H 0.50056 0.82019 0.55622 0.0
H1706 H 0.53795 0.75449 0.56721 0.0
C1707 C 0.48552 0.68797 0.55338 0.0
C1708 C 0.48173 0.75248 0.54784 0.0
C1709 C 0.47214 0.66729 0.55261 0.0
C1710 C 0.53333 0.83888 0.55518 0.0
C1711 C 0.51955 0.81843 0.55568 0.0
C1712 C 0.52242 0.75414 0.56167 0.0
C1713 C 0.47443 0.71022 0.55354 0.0
C1714 C 0.48859 0.73231 0.55419 0.0
C1715 C 0.53021 0.79599 0.55545 0.0
C1716 C 0.51564 0.77421 0.55523 0.0
H1717 H 0.41729 0.6918 0.55184 0.0
H1718 H 0.44045 0.72794 0.55342 0.0
H1719 H 0.51462 0.71844 0.56636 0.0
H1720 H 0.5877 0.81334 0.55414 0.0
H1721 H 0.56377 0.77755 0.55484 0.0
C1722 C 0.5643 0.18676 0.80267 0.0
C1723 C 0.58636 0.19789 0.80217 0.0
C1724 C 0.54367 0.20011 0.80347 0.0
C1725 C 0.5215 0.25969 0.81128 0.0
H1726 H 0.46688 0.24003 0.79326 0.0
C1727 C 0.44031 0.31947 0.8042 0.0
C1728 C 0.41802 0.3088 0.80384 0.0
C1729 C 0.46067 0.3057 0.80489 0.0
C1730 C 0.48187 0.24562 0.79846 0.0
H1731 H 0.60457 0.23136 0.80281 0.0
H1732 H 0.56844 0.25498 0.80381 0.0
H1733 H 0.50271 0.21655 0.7926 0.0
H1734 H 0.39907 0.27579 0.80502 0.0
H1735 H 0.43474 0.25142 0.80619 0.0
H1736 H 0.50049 0.28876 0.81718 0.0
C1737 C 0.56696 0.23594 0.80364 0.0
C1738 C 0.5025 0.23219 0.79805 0.0
C1739 C 0.58763 0.22251 0.80297 0.0
C1740 C 0.41621 0.28426 0.80495 0.0
C1741 C 0.43659 0.2704 0.80558 0.0
C1742 C 0.50084 0.27312 0.8117 0.0
C1743 C 0.5447 0.2249 0.80384 0.0
C1744 C 0.52264 0.23911 0.8044 0.0
C1745 C 0.45908 0.28096 0.80537 0.0
C1746 C 0.4808 0.26629 0.80526 0.0
H1747 H 0.56304 0.16769 0.8025 0.0
H1748 H 0.52692 0.19095 0.80389 0.0
H1749 H 0.53649 0.26531 0.81648 0.0
H1750 H 0.44199 0.3385 0.80375 0.0
H1751 H 0.47766 0.31442 0.80466 0.0
C1752 C 0.97096 0.83733 0.46706 0.0
C1753 C 0.94635 0.83589 0.46791 0.0
C1754 C 0.98453 0.81676 0.46636 0.0
C1755 C 0.98132 0.75234 0.47204 0.0
H1756 H 0.03758 0.75058 0.45268 0.0
C1757 C 0.03371 0.66631 0.46501 0.0
C1758 C 0.05829 0.66822 0.46588 0.0
C1759 C 0.01976 0.68664 0.4645 0.0
C1760 C 0.02205 0.75086 0.45823 0.0
H1761 H 0.91631 0.81237 0.46764 0.0
H1762 H 0.93982 0.77641 0.46622 0.0
H1763 H 0.0139 0.78642 0.4534 0.0
H1764 H 0.08789 0.6923 0.46566 0.0
H1765 H 0.06365 0.72788 0.46497 0.0
H1766 H 0.98953 0.71684 0.47692 0.0
C1767 C 0.94885 0.79322 0.46661 0.0
C1768 C 0.00849 0.77143 0.45866 0.0
C1769 C 0.93537 0.81376 0.46742 0.0
C1770 C 0.06886 0.69055 0.46541 0.0
C1771 C 0.05498 0.71086 0.46484 0.0
C1772 C 0.99492 0.73181 0.47164 0.0
C1773 C 0.97363 0.79442 0.46619 0.0
C1774 C 0.98799 0.77247 0.46562 0.0
C1775 C 0.03024 0.70917 0.46459 0.0
C1776 C 0.01547 0.73083 0.46475 0.0
H1777 H 0.9797 0.85433 0.4672 0.0
H1778 H 0.00356 0.81837 0.46614 0.0
H1779 H 0.96575 0.75248 0.47754 0.0
H1780 H 0.02531 0.64914 0.46502 0.0
H1781 H 1.00078 0.68471 0.46404 0.0
C1782 C 0.58756 0.78432 0.71674 0.0
C1783 C 0.58618 0.80892 0.71773 0.0
C1784 C 0.56696 0.77082 0.71599 0.0
C1785 C 0.50254 0.77411 0.72175 0.0
H1786 H 0.50065 0.71805 0.70225 0.0
C1787 C 0.41643 0.72191 0.71461 0.0
C1788 C 0.41832 0.69734 0.71549 0.0
C1789 C 0.43676 0.73585 0.71411 0.0
C1790 C 0.50096 0.73353 0.70783 0.0
H1791 H 0.56272 0.83902 0.71765 0.0
H1792 H 0.52671 0.81563 0.71613 0.0
H1793 H 0.53653 0.74166 0.70301 0.0
H1794 H 0.44238 0.66771 0.7153 0.0
H1795 H 0.47798 0.69192 0.71461 0.0
H1796 H 0.46702 0.76593 0.72661 0.0
C1797 C 0.5435 0.80654 0.71645 0.0
C1798 C 0.52156 0.74706 0.70829 0.0
C1799 C 0.56407 0.81996 0.71732 0.0
C1800 C 0.44064 0.68674 0.71504 0.0
C1801 C 0.46096 0.7006 0.71447 0.0
C1802 C 0.48198 0.76056 0.72132 0.0
C1803 C 0.54464 0.78177 0.7159 0.0
C1804 C 0.52266 0.76747 0.7153 0.0
C1805 C 0.45928 0.72535 0.71421 0.0
C1806 C 0.48096 0.74009 0.71438 0.0
H1807 H 0.60454 0.77555 0.71682 0.0
H1808 H 0.56853 0.75179 0.71568 0.0
H1809 H 0.50272 0.78961 0.7273 0.0
H1810 H 0.39927 0.73033 0.71462 0.0
H1811 H 0.43486 0.75484 0.71366 0.0
C1812 C 0.53329 0.16765 0.96613 0.0
C1813 C 0.5579 0.16899 0.96705 0.0
C1814 C 0.5198 0.18828 0.96553 0.0
C1815 C 0.52325 0.25256 0.97163 0.0
H1816 H 0.4669 0.255 0.95236 0.0
C1817 C 0.47113 0.33893 0.96521 0.0
C1818 C 0.44656 0.33708 0.96615 0.0
C1819 C 0.485 0.31857 0.96453 0.0
C1820 C 0.48246 0.25453 0.95788 0.0
H1821 H 0.58802 0.19243 0.96698 0.0
H1822 H 0.56465 0.22849 0.96571 0.0
H1823 H 0.49047 0.21907 0.95283 0.0
H1824 H 0.41687 0.3131 0.96588 0.0
H1825 H 0.44098 0.27746 0.9649 0.0
H1826 H 0.51519 0.28796 0.97673 0.0
C1827 C 0.55555 0.2117 0.96598 0.0
C1828 C 0.49597 0.2339 0.95817 0.0
C1829 C 0.56896 0.1911 0.96671 0.0
C1830 C 0.4359 0.3148 0.96558 0.0
C1831 C 0.4497 0.29446 0.96484 0.0
C1832 C 0.50972 0.27314 0.97137 0.0
C1833 C 0.53077 0.21059 0.96551 0.0
C1834 C 0.51649 0.23261 0.96509 0.0
C1835 C 0.47445 0.29608 0.96452 0.0
C1836 C 0.48914 0.27437 0.96452 0.0
H1837 H 0.5245 0.15068 0.96616 0.0
H1838 H 0.50077 0.18674 0.96528 0.0
H1839 H 0.53884 0.25224 0.9771 0.0
H1840 H 0.47959 0.35606 0.9653 0.0
H1841 H 0.50399 0.32044 0.96403 0.0
C1842 C 0.08798 0.28308 0.21671 0.0
C1843 C 0.08655 0.30769 0.21755 0.0
C1844 C 0.06739 0.2695 0.21613 0.0
C1845 C 0.00308 0.27278 0.22216 0.0
H1846 H 1.00084 0.21639 0.20292 0.0
C1847 C 0.91669 0.22094 0.21529 0.0
C1848 C 0.91837 0.19633 0.21606 0.0
C1849 C 0.93714 0.23472 0.21485 0.0
C1850 C 1.00126 0.23195 0.20845 0.0
H1851 H 0.06301 0.33773 0.21736 0.0
H1852 H 0.02703 0.31422 0.21613 0.0
H1853 H 0.03676 0.23997 0.20344 0.0
H1854 H 0.9422 0.16652 0.21577 0.0
H1855 H 0.978 0.19046 0.21523 0.0
H1856 H 0.96766 0.26469 0.22723 0.0
C1857 C 0.04385 0.30518 0.21645 0.0
C1858 C 0.02188 0.24547 0.20876 0.0
C1859 C 0.0644 0.31867 0.21715 0.0
C1860 C 0.94062 0.18557 0.2156 0.0
C1861 C 0.96105 0.19928 0.21511 0.0
C1862 C 0.98252 0.25922 0.22189 0.0
C1863 C 0.04505 0.2804 0.21606 0.0
C1864 C 0.02308 0.26603 0.21565 0.0
C1865 C 0.95958 0.22404 0.21492 0.0
C1866 C 0.98136 0.23864 0.21503 0.0
H1867 H 0.10498 0.27434 0.21679 0.0
H1868 H 0.06901 0.25048 0.21594 0.0
H1869 H 0.00333 0.28841 0.22761 0.0
H1870 H 0.8996 0.2295 0.21529 0.0
H1871 H 0.93537 0.25372 0.21444 0.0
C1872 C 0.93617 0.69083 0.96509 0.0
C1873 C 0.94683 0.66855 0.96571 0.0
C1874 C 0.94997 0.71116 0.96426 0.0
C1875 C 0.01015 0.73245 0.97057 0.0
H1876 H 0.99065 0.78651 0.95207 0.0
C1877 C 0.06951 0.81431 0.96558 0.0
C1878 C 0.05852 0.83645 0.96598 0.0
C1879 C 0.05604 0.79374 0.9649 0.0
C1880 C 0.99622 0.77168 0.95739 0.0
H1881 H 0.97986 0.64956 0.96486 0.0
H1882 H 0.00424 0.68514 0.96342 0.0
H1883 H 0.96699 0.75063 0.95176 0.0
H1884 H 0.02516 0.85485 0.96522 0.0
H1885 H 1.00132 0.81886 0.96441 0.0
H1886 H 0.03945 0.75328 0.97611 0.0
C1887 C 0.98526 0.68704 0.96396 0.0
C1888 C 0.98266 0.75108 0.9572 0.0
C1889 C 0.97139 0.6667 0.96473 0.0
C1890 C 0.03391 0.83786 0.96514 0.0
C1891 C 0.02035 0.81726 0.96459 0.0
C1892 C 0.02374 0.75299 0.97072 0.0
C1893 C 0.97472 0.70954 0.9639 0.0
C1894 C 0.98943 0.73124 0.96382 0.0
C1895 C 0.03125 0.79492 0.96453 0.0
C1896 C 0.0169 0.77294 0.9642 0.0
H1897 H 0.91714 0.69253 0.96542 0.0
H1898 H 0.94124 0.72816 0.96429 0.0
H1899 H 0.0157 0.71764 0.97591 0.0
H1900 H 0.08858 0.81293 0.96579 0.0
H1901 H 0.06509 0.77693 0.96459 0.0
C1902 C 0.94105 0.31834 0.71479 0.0
C1903 C 0.91869 0.30784 0.71537 0.0
C1904 C 0.9613 0.3044 0.71409 0.0
C1905 C 0.98214 0.24414 0.7207 0.0
H1906 H 0.03677 0.2634 0.70255 0.0
C1907 C 0.0644 0.18487 0.71634 0.0
C1908 C 0.08645 0.19599 0.71698 0.0
C1909 C 0.04377 0.19825 0.71553 0.0
C1910 C 0.02177 0.25789 0.70777 0.0
H1911 H 0.8995 0.27493 0.71458 0.0
H1912 H 0.93495 0.25028 0.71336 0.0
H1913 H 1.00092 0.28706 0.70189 0.0
H1914 H 0.10465 0.22949 0.71653 0.0
H1915 H 0.06857 0.25312 0.71546 0.0
H1916 H 0.00282 0.21487 0.72648 0.0
C1917 C 0.93696 0.26925 0.71383 0.0
C1918 C 1.00119 0.27146 0.70738 0.0
C1919 C 0.91669 0.28328 0.71448 0.0
C1920 C 0.08772 0.22063 0.71627 0.0
C1921 C 0.06708 0.23408 0.71556 0.0
C1922 C 1.00267 0.23053 0.72105 0.0
C1923 C 0.95953 0.27965 0.71382 0.0
C1924 C 0.98116 0.26481 0.71389 0.0
C1925 C 0.04482 0.22304 0.71524 0.0
C1926 C 0.02281 0.23731 0.71466 0.0
H1927 H 0.94287 0.33736 0.71506 0.0
H1928 H 0.97834 0.31302 0.71416 0.0
H1929 H 0.96717 0.23867 0.72596 0.0
H1930 H 0.06314 0.1658 0.71644 0.0
H1931 H 0.02702 0.18912 0.71503 0.0
C1932 C 0.53383 0.33883 0.46454 0.0
C1933 C 0.55838 0.33661 0.4654 0.0
C1934 C 0.51963 0.31868 0.46395 0.0
C1935 C 0.52124 0.25447 0.45751 0.0
H1936 H 0.46486 0.2532 0.47678 0.0
C1937 C 0.4701 0.16824 0.46657 0.0
C1938 C 0.44548 0.16962 0.46738 0.0
C1939 C 0.48361 0.18882 0.46581 0.0
C1940 C 0.48045 0.25325 0.47129 0.0
H1941 H 0.58769 0.31217 0.46509 0.0
H1942 H 0.56303 0.27691 0.46428 0.0
H1943 H 0.4889 0.28868 0.47619 0.0
H1944 H 0.41537 0.19305 0.46695 0.0
H1945 H 0.43883 0.22909 0.46546 0.0
H1946 H 0.51288 0.21897 0.45269 0.0
C1947 C 0.55456 0.29403 0.46421 0.0
C1948 C 0.4942 0.27369 0.47091 0.0
C1949 C 0.56868 0.31416 0.46485 0.0
C1950 C 0.43444 0.19171 0.46678 0.0
C1951 C 0.44788 0.21229 0.46592 0.0
C1952 C 0.50754 0.23399 0.45793 0.0
C1953 C 0.52983 0.29602 0.46396 0.0
C1954 C 0.51481 0.27452 0.46405 0.0
C1955 C 0.47267 0.21113 0.46553 0.0
C1956 C 0.48704 0.23307 0.46489 0.0
H1957 H 0.52563 0.35609 0.46461 0.0
H1958 H 0.50067 0.32085 0.46351 0.0
H1959 H 0.5368 0.25464 0.45198 0.0
H1960 H 0.47889 0.15127 0.46679 0.0
H1961 H 0.50265 0.18725 0.46563 0.0
C1962 C 0.4163 0.78551 0.21495 0.0
C1963 C 0.4182 0.81008 0.21588 0.0
C1964 C 0.43662 0.77156 0.21441 0.0
C1965 C 0.50088 0.77388 0.20821 0.0
H1966 H 0.5024 0.71739 0.22739 0.0
C1967 C 0.58726 0.72252 0.21685 0.0
C1968 C 0.58578 0.69789 0.21759 0.0
C1969 C 0.56672 0.73614 0.21623 0.0
C1970 C 0.50228 0.73301 0.22192 0.0
H1971 H 0.44229 0.83968 0.21574 0.0
H1972 H 0.47787 0.81544 0.21501 0.0
H1973 H 0.46677 0.7412 0.22679 0.0
H1974 H 0.56219 0.6679 0.21721 0.0
H1975 H 0.52627 0.69152 0.21595 0.0
H1976 H 0.53644 0.76574 0.20338 0.0
C1977 C 0.46085 0.80677 0.21485 0.0
C1978 C 0.48177 0.74663 0.22154 0.0
C1979 C 0.44054 0.82065 0.21544 0.0
C1980 C 0.56363 0.68697 0.21708 0.0
C1981 C 0.5431 0.70051 0.21636 0.0
C1982 C 0.52144 0.76028 0.20862 0.0
C1983 C 0.45916 0.78203 0.21454 0.0
C1984 C 0.48082 0.76725 0.21469 0.0
C1985 C 0.54436 0.72529 0.21604 0.0
C1986 C 0.52244 0.73972 0.21552 0.0
H1987 H 0.39913 0.7771 0.21494 0.0
H1988 H 0.43469 0.75258 0.21392 0.0
H1989 H 0.50063 0.78946 0.2027 0.0
H1990 H 0.60428 0.73122 0.217 0.0
H1991 H 0.56837 0.75517 0.2161 0.0
C1992 C 0.93768 0.31532 0.55419 0.0
C1993 C 0.94819 0.33767 0.55361 0.0
C1994 C 0.95162 0.29507 0.55499 0.0
C1995 C 0.01183 0.2741 0.54857 0.0
H1996 H 0.99264 0.21991 0.56706 0.0
C1997 C 0.07108 0.1919 0.55314 0.0
C1998 C 0.05995 0.16983 0.55276 0.0
C1999 C 0.05773 0.21255 0.55388 0.0
C2000 C 0.99813 0.23478 0.56174 0.0
H2001 H 0.98109 0.35687 0.55449 0.0
H2002 H 0.00572 0.32142 0.55586 0.0
H2003 H 0.96895 0.25576 0.56752 0.0
H2004 H 0.02647 0.15165 0.5536 0.0
H2005 H 0.00287 0.18775 0.55452 0.0
H2006 H 0.04103 0.25327 0.54284 0.0
C2007 C 0.98675 0.31942 0.55533 0.0
C2008 C 0.98455 0.25536 0.56202 0.0
C2009 C 0.97274 0.33968 0.5546 0.0
C2010 C 0.03533 0.16859 0.55366 0.0
C2011 C 0.0219 0.18925 0.55429 0.0
C2012 C 0.02542 0.25355 0.54831 0.0
C2013 C 0.97635 0.29685 0.55535 0.0
C2014 C 0.99119 0.27523 0.55539 0.0
C2015 C 0.03294 0.21152 0.55435 0.0
C2016 C 0.01867 0.23356 0.55482 0.0
H2017 H 0.91866 0.31349 0.55384 0.0
H2018 H 0.94301 0.27802 0.55493 0.0
H2019 H 0.01729 0.28895 0.54323 0.0
H2020 H 0.09015 0.19315 0.55288 0.0
H2021 H 0.06687 0.22932 0.55418 0.0
C2022 C 0.41674 0.22175 0.30599 0.0
C2023 C 0.4186 0.19718 0.30509 0.0
C2024 C 0.43708 0.23565 0.30663 0.0
C2025 C 0.50142 0.23325 0.31283 0.0
H2026 H 0.50286 0.28935 0.29337 0.0
C2027 C 0.58794 0.28384 0.30327 0.0
C2028 C 0.58658 0.30842 0.30223 0.0
C2029 C 0.56733 0.27039 0.30422 0.0
C2030 C 0.50278 0.27385 0.29891 0.0
H2031 H 0.44259 0.1675 0.30547 0.0
H2032 H 0.47822 0.19164 0.30637 0.0
H2033 H 0.46716 0.26579 0.29426 0.0
H2034 H 0.56319 0.33858 0.30244 0.0
H2035 H 0.52719 0.3153 0.30432 0.0
H2036 H 0.53712 0.24129 0.31743 0.0
C2037 C 0.46122 0.20036 0.30642 0.0
C2038 C 0.48221 0.26036 0.29946 0.0
C2039 C 0.44089 0.18653 0.30573 0.0
C2040 C 0.56452 0.31952 0.3028 0.0
C2041 C 0.54394 0.30616 0.30387 0.0
C2042 C 0.52205 0.24673 0.31225 0.0
C2043 C 0.45959 0.22512 0.30663 0.0
C2044 C 0.48128 0.23985 0.3064 0.0
C2045 C 0.54504 0.28139 0.30446 0.0
C2046 C 0.52303 0.26715 0.30523 0.0
H2047 H 0.39961 0.23021 0.30586 0.0
H2048 H 0.43518 0.25464 0.30707 0.0
H2049 H 0.5012 0.21776 0.3184 0.0
H2050 H 0.60489 0.27502 0.30307 0.0
H2051 H 0.56886 0.25136 0.30455 0.0
C2052 C 0.43615 0.81376 0.05348 0.0
C2053 C 0.44675 0.83608 0.05294 0.0
C2054 C 0.45001 0.79347 0.05427 0.0
C2055 C 0.51026 0.77232 0.04804 0.0
H2056 H 0.49076 0.71822 0.06652 0.0
C2057 C 0.56965 0.69046 0.05305 0.0
C2058 C 0.55866 0.66833 0.05263 0.0
C2059 C 0.55618 0.71103 0.05372 0.0
C2060 C 0.49633 0.73306 0.0612 0.0
H2061 H 0.47972 0.85516 0.05388 0.0
H2062 H 0.5042 0.81962 0.05525 0.0
H2063 H 0.46705 0.75407 0.06682 0.0
H2064 H 0.52529 0.64993 0.05334 0.0
H2065 H 0.50145 0.68592 0.05414 0.0
H2066 H 0.53961 0.75152 0.04251 0.0
C2067 C 0.48523 0.81768 0.05468 0.0
C2068 C 0.48274 0.75364 0.06139 0.0
C2069 C 0.4713 0.838 0.05395 0.0
C2070 C 0.53404 0.66692 0.05343 0.0
C2071 C 0.52048 0.68752 0.05399 0.0
C2072 C 0.52388 0.7518 0.04789 0.0
C2073 C 0.47474 0.79515 0.05468 0.0
C2074 C 0.48951 0.77349 0.05477 0.0
C2075 C 0.53139 0.70986 0.05406 0.0
C2076 C 0.51703 0.73184 0.0544 0.0
H2077 H 0.41713 0.81201 0.05313 0.0
H2078 H 0.44133 0.77644 0.0542 0.0
H2079 H 0.5158 0.78714 0.0427 0.0
H2080 H 0.58872 0.69183 0.05286 0.0
H2081 H 0.56523 0.72784 0.05405 0.0
C2082 C 0.94032 0.68601 0.80462 0.0
C2083 C 0.91798 0.69656 0.8041 0.0
C2084 C 0.9606 0.6999 0.80531 0.0
C2085 C 0.98147 0.76005 0.79861 0.0
H2086 H 0.03623 0.7409 0.81667 0.0
C2087 C 0.06367 0.81935 0.80241 0.0
C2088 C 0.08576 0.80828 0.80188 0.0
C2089 C 0.04309 0.80595 0.80335 0.0
C2090 C 0.0212 0.74637 0.81146 0.0
H2091 H 0.89886 0.7295 0.80502 0.0
H2092 H 0.93436 0.75407 0.80621 0.0
H2093 H 1.00037 0.71726 0.81746 0.0
H2094 H 0.10409 0.77488 0.80266 0.0
H2095 H 0.06807 0.75116 0.80392 0.0
H2096 H 1.00212 0.78918 0.79267 0.0
C2097 C 0.93633 0.73509 0.8057 0.0
C2098 C 1.00061 0.73282 0.81194 0.0
C2099 C 0.91603 0.72112 0.80507 0.0
C2100 C 0.08712 0.78368 0.80283 0.0
C2101 C 0.06652 0.77019 0.80365 0.0
C2102 C 1.00201 0.7736 0.79816 0.0
C2103 C 0.95888 0.72465 0.80563 0.0
C2104 C 0.98053 0.73945 0.80548 0.0
C2105 C 0.04421 0.78117 0.80385 0.0
C2106 C 0.02221 0.76688 0.80451 0.0
H2107 H 0.94211 0.66698 0.80429 0.0
H2108 H 0.97764 0.69125 0.80519 0.0
H2109 H 0.96645 0.76549 0.79339 0.0
H2110 H 0.06234 0.83841 0.80212 0.0
H2111 H 0.02632 0.81506 0.80377 0.0
C2112 C 0.3398 0.39197 1.00203 0.0
C2113 C 0.34389 0.39358 0.98984 0.0
C2114 C 0.31738 0.39616 1.00668 0.0
C2115 C 0.25549 0.39163 0.99876 0.0
H2116 H 0.24453 0.42664 0.02756 0.0
C2117 C 0.16231 0.39817 0.01807 0.0
C2118 C 0.15992 0.39609 0.03032 0.0
C2119 C 0.1844 0.40181 0.01297 0.0
C2120 C 0.24729 0.41661 0.01958 0.0
H2121 H 0.32769 0.4015 0.97302 0.0
H2122 H 0.28829 0.40848 0.98117 0.0
H2123 H 0.28394 0.42598 0.01884 0.0
H2124 H 0.1787 0.39698 0.04689 0.0
H2125 H 0.21758 0.4025 0.03799 0.0
H2126 H 0.21937 0.38128 0.99967 0.0
C2127 C 0.30258 0.40401 0.98709 0.0
C2128 C 0.26985 0.41635 0.01455 0.0
C2129 C 0.32514 0.40013 0.98244 0.0
C2130 C 0.18002 0.39863 0.03742 0.0
C2131 C 0.20229 0.40187 0.03229 0.0
C2132 C 0.23305 0.39164 1.00384 0.0
C2133 C 0.29843 0.40179 0.99925 0.0
C2134 C 0.2742 0.40373 1.00413 0.0
C2135 C 0.20482 0.403 0.01997 0.0
C2136 C 0.22862 0.40402 0.01436 0.0
H2137 H 0.35388 0.38711 1.008 0.0
H2138 H 0.3147 0.39411 0.01605 0.0
H2139 H 0.25839 0.38139 0.99085 0.0
H2140 H 0.14707 0.39665 0.01237 0.0
H2141 H 0.18547 0.40331 1.00349 0.0
C2142 C 0.86715 0.07276 0.23185 0.0
C2143 C 0.86 0.09323 0.23776 0.0
C2144 C 0.86392 0.05059 0.23704 0.0
C2145 C 0.85193 0.02325 0.2665 0.0
H2146 H 0.85015 0.96625 0.24778 0.0
C2147 C 0.86876 0.93193 0.2873 0.0
C2148 C 0.85984 0.91173 0.28178 0.0
C2149 C 0.86562 0.95415 0.28218 0.0
C2150 C 0.85012 0.98189 0.25323 0.0
H2151 H 0.84285 0.10687 0.25332 0.0
H2152 H 0.83542 0.06828 0.26199 0.0
H2153 H 0.84864 0.00416 0.23812 0.0
H2154 H 0.83985 0.89862 0.26699 0.0
H2155 H 0.83265 0.93744 0.25847 0.0
H2156 H 0.85188 1.00103 0.28164 0.0
C2157 C 0.84463 0.06906 0.25366 0.0
C2158 C 0.84978 0.00384 0.24762 0.0
C2159 C 0.84855 0.09122 0.24864 0.0
C2160 C 0.84685 0.91408 0.27137 0.0
C2161 C 0.84306 0.93635 0.26643 0.0
C2162 C 0.85159 1.00131 0.27213 0.0
C2163 C 0.8529 0.04838 0.24812 0.0
C2164 C 0.85118 0.02491 0.25414 0.0
C2165 C 0.85297 0.95672 0.27156 0.0
C2166 C 0.8512 0.98023 0.26559 0.0
H2167 H 0.87636 0.074 0.22352 0.0
H2168 H 0.871 0.03536 0.23252 0.0
H2169 H 0.85341 0.03884 0.27194 0.0
H2170 H 0.87922 0.93038 0.29524 0.0
H2171 H 0.87402 0.96911 0.28635 0.0
C2172 C 0.18007 0.60497 0.48146 0.0
C2173 C 0.16143 0.61157 0.48893 0.0
C2174 C 0.2027 0.60107 0.48602 0.0
C2175 C 0.23582 0.58896 0.5134 0.0
H2176 H 0.28622 0.6235 0.49812 0.0
C2177 C 0.32607 0.60698 0.53577 0.0
C2178 C 0.34606 0.60925 0.52856 0.0
C2179 C 0.30372 0.60364 0.53076 0.0
C2180 C 0.27255 0.61328 0.5024 0.0
H2181 H 0.15175 0.61813 0.50712 0.0
H2182 H 0.19104 0.61114 0.51502 0.0
H2183 H 0.24705 0.6234 0.48947 0.0
H2184 H 0.35863 0.6081 0.51056 0.0
H2185 H 0.32007 0.60127 0.5019 0.0
H2186 H 0.26131 0.57884 0.52636 0.0
C2187 C 0.18821 0.60904 0.50565 0.0
C2188 C 0.25003 0.6133 0.49742 0.0
C2189 C 0.16572 0.61322 0.5011 0.0
C2190 C 0.34348 0.60677 0.51634 0.0
C2191 C 0.3213 0.60304 0.51136 0.0
C2192 C 0.25846 0.58871 0.51833 0.0
C2193 C 0.20704 0.60335 0.49815 0.0
C2194 C 0.23135 0.6014 0.50293 0.0
C2195 C 0.30099 0.60215 0.51846 0.0
C2196 C 0.27709 0.6011 0.51296 0.0
H2197 H 0.17737 0.60356 0.47205 0.0
H2198 H 0.21688 0.59655 0.48004 0.0
H2199 H 0.22177 0.57947 0.5178 0.0
H2200 H 0.32754 0.60895 0.54522 0.0
H2201 H 0.28851 0.60323 0.53653 0.0
C2202 C 0.6444 0.09091 0.76786 0.0
C2203 C 0.64532 0.09534 0.78003 0.0
C2204 C 0.64855 0.06831 0.76344 0.0
C2205 C 0.64254 0.00676 0.77185 0.0
H2206 H 0.67796 0.99431 0.74332 0.0
C2207 C 0.64758 0.913 0.75316 0.0
C2208 C 0.64552 0.91038 0.74092 0.0
C2209 C 0.65161 0.93512 0.75814 0.0
C2210 C 0.66782 0.9975 0.75123 0.0
H2211 H 0.65209 0.07957 0.79707 0.0
H2212 H 0.65906 0.03985 0.78933 0.0
H2213 H 0.67797 0.03395 0.75178 0.0
H2214 H 0.64687 0.9288 0.72424 0.0
H2215 H 0.65312 0.96774 0.73294 0.0
H2216 H 0.63145 0.97083 0.77112 0.0
C2217 C 0.65513 0.054 0.78324 0.0
C2218 C 0.66794 0.02018 0.75611 0.0
C2219 C 0.65126 0.07675 0.78766 0.0
C2220 C 0.64848 0.93028 0.7337 0.0
C2221 C 0.65214 0.95258 0.73871 0.0
C2222 C 0.6422 0.98419 0.76692 0.0
C2223 C 0.65348 0.0495 0.77109 0.0
C2224 C 0.65515 0.02508 0.76643 0.0
C2225 C 0.65325 0.95536 0.75102 0.0
C2226 C 0.65471 0.97925 0.7565 0.0
H2227 H 0.64001 0.10485 0.76172 0.0
H2228 H 0.64695 0.06537 0.75406 0.0
H2229 H 0.63215 0.01008 0.77968 0.0
H2230 H 0.64574 0.89791 0.75895 0.0
H2231 H 0.65304 0.93638 0.76761 0.0
C2232 C 0.66301 0.60534 0.01792 0.0
C2233 C 0.66048 0.60848 0.03011 0.0
C2234 C 0.68521 0.60162 0.01295 0.0
C2235 C 0.74837 0.5888 0.01993 0.0
H2236 H 0.75884 0.62217 0.99059 0.0
C2237 C 0.84048 0.61407 1.00204 0.0
C2238 C 0.84464 0.61183 0.98989 0.0
C2239 C 0.81813 0.60974 1.00674 0.0
C2240 C 0.75613 0.61244 0.99868 0.0
H2241 H 0.6791 0.60933 0.04672 0.0
H2242 H 0.71816 0.60365 0.03802 0.0
H2243 H 0.71976 0.62199 0.99935 0.0
H2244 H 0.82863 0.60262 0.97319 0.0
H2245 H 0.78936 0.59536 0.98141 0.0
H2246 H 0.78524 0.58024 0.01941 0.0
C2247 C 0.70291 0.60352 0.03229 0.0
C2248 C 0.73366 0.61226 1.00372 0.0
C2249 C 0.68054 0.60684 0.0373 0.0
C2250 C 0.82603 0.6045 0.98258 0.0
C2251 C 0.80353 0.60046 0.98728 0.0
C2252 C 0.77096 0.58923 0.01493 0.0
C2253 C 0.70558 0.60143 0.02 0.0
C2254 C 0.72945 0.60054 0.01445 0.0
C2255 C 0.7993 0.60331 0.99939 0.0
C2256 C 0.77509 0.60118 1.00429 0.0
H2257 H 0.6478 0.60618 0.01216 0.0
H2258 H 0.68639 0.59936 1.00351 0.0
H2259 H 0.74578 0.57931 0.02809 0.0
H2260 H 0.85444 0.61954 1.00794 0.0
H2261 H 0.81538 0.6123 0.01608 0.0
C2262 C 0.14745 0.91201 0.76619 0.0
C2263 C 0.14552 0.90945 0.77844 0.0
C2264 C 0.15174 0.93406 0.76117 0.0
C2265 C 0.16896 0.99624 0.76797 0.0
H2266 H 0.13345 0.00922 0.73954 0.0
C2267 C 0.14629 0.08985 0.75135 0.0
C2268 C 0.1471 0.09429 0.73918 0.0
C2269 C 0.15043 0.06723 0.75576 0.0
C2270 C 0.1438 0.00578 0.74736 0.0
H2271 H 0.14734 0.92792 0.79509 0.0
H2272 H 0.15403 0.96674 0.78633 0.0
H2273 H 0.1322 0.97002 0.74814 0.0
H2274 H 0.15372 0.07855 0.72212 0.0
H2275 H 0.16066 0.03877 0.72985 0.0
H2276 H 0.1796 0.03255 0.76738 0.0
C2277 C 0.15276 0.95158 0.78057 0.0
C2278 C 0.14314 0.98324 0.75231 0.0
C2279 C 0.14884 0.92934 0.78562 0.0
C2280 C 0.153 0.07571 0.73154 0.0
C2281 C 0.15684 0.05294 0.73595 0.0
C2282 C 0.16939 0.01891 0.76307 0.0
C2283 C 0.15378 0.9543 0.76825 0.0
C2284 C 0.15558 0.97815 0.76274 0.0
C2285 C 0.15522 0.04841 0.7481 0.0
C2286 C 0.15666 0.02395 0.75276 0.0
H2287 H 0.14533 0.89693 0.76043 0.0
H2288 H 0.15309 0.93525 0.75169 0.0
H2289 H 0.17906 0.99295 0.77589 0.0
H2290 H 0.14194 0.10379 0.7575 0.0
H2291 H 0.14886 0.06429 0.76514 0.0
C2292 C 0.82607 0.39693 0.53617 0.0
C2293 C 0.84616 0.39398 0.52909 0.0
C2294 C 0.80382 0.40009 0.53102 0.0
C2295 C 0.7729 0.38918 0.50265 0.0
H2296 H 0.72239 0.42451 0.51742 0.0
C2297 C 0.68085 0.39823 0.48124 0.0
C2298 C 0.66203 0.3921 0.48869 0.0
C2299 C 0.70348 0.40192 0.48585 0.0
C2300 C 0.73637 0.4146 0.5132 0.0
H2301 H 0.859 0.39366 0.51113 0.0
H2302 H 0.82063 0.40019 0.5022 0.0
H2303 H 0.76181 0.42501 0.52612 0.0
H2304 H 0.652 0.38616 0.50689 0.0
H2305 H 0.69128 0.39285 0.51487 0.0
H2306 H 0.74745 0.37884 0.48974 0.0
C2307 C 0.82169 0.39908 0.51169 0.0
C2308 C 0.75893 0.41476 0.51821 0.0
C2309 C 0.84376 0.39551 0.51682 0.0
C2310 C 0.66613 0.3907 0.50088 0.0
C2311 C 0.68861 0.39471 0.50548 0.0
C2312 C 0.75046 0.38927 0.49758 0.0
C2313 C 0.80128 0.40074 0.51868 0.0
C2314 C 0.77747 0.40182 0.51308 0.0
C2315 C 0.70762 0.39993 0.49801 0.0
C2316 C 0.73188 0.40173 0.50287 0.0
H2317 H 0.82737 0.3957 0.54566 0.0
H2318 H 0.78854 0.40108 0.53672 0.0
H2319 H 0.78648 0.37855 0.49856 0.0
H2320 H 0.6783 0.39942 0.47181 0.0
H2321 H 0.71781 0.40607 0.47989 0.0
C2322 C 0.35442 0.0767 0.28803 0.0
C2323 C 0.36135 0.09552 0.28075 0.0
C2324 C 0.35062 0.05422 0.28327 0.0
C2325 C 0.33946 0.02185 0.25556 0.0
H2326 H 0.3739 0.97117 0.27065 0.0
C2327 C 0.35833 0.93238 0.23256 0.0
C2328 C 0.36058 0.91218 0.23962 0.0
C2329 C 0.35484 0.95457 0.23773 0.0
C2330 C 0.36371 0.98491 0.26642 0.0
H2331 H 0.36853 0.10572 0.26269 0.0
H2332 H 0.36166 0.0667 0.25444 0.0
H2333 H 0.3733 0.01005 0.27962 0.0
H2334 H 0.35928 0.89905 0.25751 0.0
H2335 H 0.35219 0.93731 0.26645 0.0
H2336 H 0.32984 0.99673 0.24233 0.0
C2337 C 0.35926 0.06926 0.26381 0.0
C2338 C 0.36344 0.00726 0.27158 0.0
C2339 C 0.36336 0.09159 0.26857 0.0
C2340 C 0.35799 0.91438 0.25185 0.0
C2341 C 0.3541 0.93639 0.25699 0.0
C2342 C 0.33948 0.99938 0.25044 0.0
C2343 C 0.3533 0.05022 0.27112 0.0
C2344 C 0.35157 0.02605 0.26615 0.0
C2345 C 0.35318 0.95692 0.25005 0.0
C2346 C 0.35185 0.98063 0.25574 0.0
H2347 H 0.35275 0.07913 0.29744 0.0
H2348 H 0.34589 0.03986 0.2891 0.0
H2349 H 0.33002 0.036 0.25121 0.0
H2350 H 0.36037 0.9312 0.2231 0.0
H2351 H 0.35444 0.96995 0.23208 0.0
C2352 C 0.83963 0.89373 0.50259 0.0
C2353 C 0.84391 0.89463 0.4904 0.0
C2354 C 0.81709 0.89791 0.50707 0.0
C2355 C 0.75547 0.89185 0.49891 0.0
H2356 H 0.7434 0.92752 0.5274 0.0
C2357 C 0.66201 0.89686 0.51802 0.0
C2358 C 0.6596 0.89501 0.53029 0.0
C2359 C 0.68404 0.90083 0.51292 0.0
C2360 C 0.74648 0.91731 0.5195 0.0
H2361 H 0.82795 0.90138 0.4734 0.0
H2362 H 0.78832 0.90839 0.48128 0.0
H2363 H 0.7829 0.92752 0.51877 0.0
H2364 H 0.67831 0.89665 0.54687 0.0
H2365 H 0.71709 0.90278 0.53797 0.0
H2366 H 0.71958 0.88069 0.49983 0.0
C2367 C 0.80255 0.90446 0.48732 0.0
C2368 C 0.76909 0.91743 0.51453 0.0
C2369 C 0.82524 0.90057 0.48283 0.0
C2370 C 0.67962 0.8981 0.53739 0.0
C2371 C 0.70184 0.90169 0.53227 0.0
C2372 C 0.73299 0.89151 0.50394 0.0
C2373 C 0.7982 0.90285 0.49948 0.0
C2374 C 0.77385 0.90455 0.50423 0.0
C2375 C 0.70439 0.90263 0.51994 0.0
C2376 C 0.72818 0.9041 0.51435 0.0
H2377 H 0.85365 0.88934 0.50868 0.0
H2378 H 0.81427 0.89634 0.51647 0.0
H2379 H 0.7587 0.8814 0.4911 0.0
H2380 H 0.64683 0.89493 0.51231 0.0
H2381 H 0.68513 0.90213 0.50344 0.0
C2382 C 0.356 0.57533 0.73118 0.0
C2383 C 0.36186 0.59421 0.73864 0.0
C2384 C 0.35232 0.55271 0.73579 0.0
C2385 C 0.33944 0.5198 0.76315 0.0
H2386 H 0.37626 0.47001 0.74871 0.0
C2387 C 0.35808 0.43055 0.78635 0.0
C2388 C 0.36118 0.41042 0.77932 0.0
C2389 C 0.35471 0.45272 0.78115 0.0
C2390 C 0.36542 0.4835 0.75275 0.0
H2391 H 0.36727 0.60435 0.75686 0.0
H2392 H 0.36062 0.56508 0.76485 0.0
H2393 H 0.37564 0.50898 0.73982 0.0
H2394 H 0.36157 0.39743 0.76139 0.0
H2395 H 0.35474 0.43566 0.75237 0.0
H2396 H 0.32918 0.49434 0.77609 0.0
C2397 C 0.35896 0.5677 0.75545 0.0
C2398 C 0.36514 0.5059 0.74763 0.0
C2399 C 0.36295 0.59018 0.75084 0.0
C2400 C 0.35961 0.41269 0.76704 0.0
C2401 C 0.35586 0.43469 0.76186 0.0
C2402 C 0.33949 0.49728 0.76821 0.0
C2403 C 0.35405 0.54862 0.74797 0.0
C2404 C 0.3524 0.52437 0.75285 0.0
C2405 C 0.35402 0.45513 0.76881 0.0
C2406 C 0.35271 0.47887 0.76315 0.0
H2407 H 0.35506 0.57784 0.72174 0.0
H2408 H 0.34842 0.53832 0.72983 0.0
H2409 H 0.32932 0.5337 0.76731 0.0
H2410 H 0.35931 0.42933 0.79584 0.0
H2411 H 0.35358 0.46804 0.78681 0.0
C2412 C 0.8402 0.11318 0.01645 0.0
C2413 C 0.84469 0.1118 0.02861 0.0
C2414 C 0.81766 0.10881 0.01202 0.0
C2415 C 0.75601 0.11317 0.02052 0.0
H2416 H 0.74423 0.07848 0.99171 0.0
C2417 C 0.66233 0.10685 1.00192 0.0
C2418 C 0.65963 0.10937 0.9897 0.0
C2419 C 0.68454 0.103 1.00683 0.0
C2420 C 0.74723 0.08841 0.99971 0.0
H2421 H 0.82909 0.10404 0.04559 0.0
H2422 H 0.78949 0.09669 0.03781 0.0
H2423 H 0.7839 0.07908 1.00012 0.0
H2424 H 0.67798 0.10901 0.97299 0.0
H2425 H 0.71707 0.10309 0.98158 0.0
H2426 H 0.71984 0.12345 0.01994 0.0
C2427 C 0.80355 0.10115 0.03175 0.0
C2428 C 0.76993 0.08864 1.00455 0.0
C2429 C 0.82623 0.10524 0.03619 0.0
C2430 C 0.67953 0.10702 0.98244 0.0
C2431 C 0.70192 0.10355 0.98738 0.0
C2432 C 0.73342 0.11316 0.01563 0.0
C2433 C 0.79898 0.1032 0.01963 0.0
C2434 C 0.77459 0.10117 0.01497 0.0
C2435 C 0.70477 0.10203 0.99968 0.0
C2436 C 0.72871 0.10091 1.00511 0.0
H2437 H 0.85404 0.11804 0.01035 0.0
H2438 H 0.81466 0.11073 1.00266 0.0
H2439 H 0.75914 0.12334 0.02844 0.0
H2440 H 0.64724 0.10822 1.00773 0.0
H2441 H 0.68587 0.10122 0.01629 0.0
C2442 C 0.14896 0.5752 0.28631 0.0
C2443 C 0.14674 0.5951 0.27904 0.0
C2444 C 0.15259 0.55281 0.28138 0.0
C2445 C 0.14366 0.52134 0.25306 0.0
H2446 H 0.17748 0.47086 0.2687 0.0
C2447 C 0.15195 0.42859 0.23246 0.0
C2448 C 0.14534 0.41009 0.24001 0.0
C2449 C 0.15598 0.45126 0.23693 0.0
C2450 C 0.168 0.48483 0.26423 0.0
H2451 H 0.14831 0.6075 0.26102 0.0
H2452 H 0.1556 0.56889 0.25249 0.0
H2453 H 0.17782 0.51051 0.27716 0.0
H2454 H 0.13896 0.40068 0.25825 0.0
H2455 H 0.14613 0.44004 0.26599 0.0
H2456 H 0.13379 0.49565 0.24018 0.0
C2457 C 0.15359 0.57021 0.26194 0.0
C2458 C 0.16808 0.50752 0.2691 0.0
C2459 C 0.14958 0.59241 0.26684 0.0
C2460 C 0.14387 0.41455 0.25217 0.0
C2461 C 0.14816 0.43708 0.25663 0.0
C2462 C 0.1438 0.49876 0.24815 0.0
C2463 C 0.15441 0.54997 0.26909 0.0
C2464 C 0.15568 0.52604 0.26365 0.0
C2465 C 0.1538 0.4558 0.24905 0.0
C2466 C 0.1557 0.48018 0.25375 0.0
H2467 H 0.14673 0.57675 0.29574 0.0
H2468 H 0.15294 0.53766 0.28718 0.0
H2469 H 0.13345 0.53492 0.24871 0.0
H2470 H 0.15323 0.42575 0.22306 0.0
H2471 H 0.16047 0.46535 0.23089 0.0
C2472 C 0.16243 0.10477 0.51757 0.0
C2473 C 0.16004 0.1075 0.5298 0.0
C2474 C 0.18448 0.1005 0.51255 0.0
C2475 C 0.2472 0.08527 0.51936 0.0
H2476 H 0.25886 0.11978 0.49046 0.0
C2477 C 0.33998 0.10981 0.50227 0.0
C2478 C 0.34436 0.10856 0.4901 0.0
C2479 C 0.31751 0.10529 0.50676 0.0
C2480 C 0.2558 0.1097 0.49842 0.0
H2481 H 0.17872 0.10702 0.5464 0.0
H2482 H 0.21753 0.10036 0.53761 0.0
H2483 H 0.21972 0.12025 0.49914 0.0
H2484 H 0.32867 0.10078 0.47315 0.0
H2485 H 0.28916 0.09315 0.48103 0.0
H2486 H 0.28381 0.07571 0.51881 0.0
C2487 C 0.20228 0.10099 0.53189 0.0
C2488 C 0.23329 0.10991 0.50341 0.0
C2489 C 0.18004 0.10487 0.53695 0.0
C2490 C 0.32589 0.10187 0.48256 0.0
C2491 C 0.30326 0.09763 0.48706 0.0
C2492 C 0.26983 0.08529 0.5144 0.0
C2493 C 0.20485 0.09931 0.51958 0.0
C2494 C 0.22867 0.09785 0.51401 0.0
C2495 C 0.29877 0.09964 0.4992 0.0
C2496 C 0.27441 0.09768 0.50393 0.0
H2497 H 0.14725 0.10637 0.51184 0.0
H2498 H 0.18557 0.09861 0.50308 0.0
H2499 H 0.24428 0.07548 0.5274 0.0
H2500 H 0.35384 0.11478 0.50834 0.0
H2501 H 0.31459 0.10719 0.51613 0.0
C2502 C 0.64663 0.41254 0.26621 0.0
C2503 C 0.64509 0.40987 0.27847 0.0
C2504 C 0.65055 0.43468 0.26121 0.0
C2505 C 0.66744 0.49693 0.26803 0.0
H2506 H 0.63103 0.50988 0.23988 0.0
C2507 C 0.64408 0.59056 0.25165 0.0
C2508 C 0.64479 0.59504 0.23948 0.0
C2509 C 0.64821 0.56791 0.25602 0.0
C2510 C 0.64161 0.50645 0.24762 0.0
H2511 H 0.64721 0.42821 0.29515 0.0
H2512 H 0.65326 0.46716 0.28642 0.0
H2513 H 0.63029 0.4706 0.24841 0.0
H2514 H 0.65113 0.57932 0.22238 0.0
H2515 H 0.65804 0.53952 0.23005 0.0
H2516 H 0.67781 0.53332 0.26743 0.0
C2517 C 0.65198 0.45204 0.28064 0.0
C2518 C 0.64126 0.48387 0.25254 0.0
C2519 C 0.64842 0.42973 0.28567 0.0
C2520 C 0.65049 0.57646 0.2318 0.0
C2521 C 0.65431 0.55367 0.23618 0.0
C2522 C 0.66757 0.51964 0.26317 0.0
C2523 C 0.6526 0.45487 0.26832 0.0
C2524 C 0.65404 0.47879 0.26286 0.0
C2525 C 0.65288 0.54912 0.24833 0.0
C2526 C 0.65451 0.52466 0.25296 0.0
H2527 H 0.64449 0.39749 0.26043 0.0
H2528 H 0.65161 0.43596 0.25172 0.0
H2529 H 0.67779 0.49364 0.27586 0.0
H2530 H 0.63988 0.6045 0.25782 0.0
H2531 H 0.64679 0.56494 0.2654 0.0
C2532 C 0.18035 0.8978 0.98149 0.0
C2533 C 0.16024 0.89611 0.98866 0.0
C2534 C 0.20269 0.90108 0.98653 0.0
C2535 C 0.23326 0.89209 0.0151 0.0
H2536 H 0.2849 0.92431 0.99956 0.0
C2537 C 0.32552 0.89964 0.03635 0.0
C2538 C 0.34419 0.89248 0.02903 0.0
C2539 C 0.30304 0.90369 0.03165 0.0
C2540 C 0.27061 0.91526 1.004 0.0
H2541 H 0.14745 0.8983 1.00659 0.0
H2542 H 0.18599 0.90503 0.0153 0.0
H2543 H 0.2455 0.92531 0.99084 0.0
H2544 H 0.35409 0.88507 0.01095 0.0
H2545 H 0.31505 0.89231 1.00281 0.0
H2546 H 0.25837 0.88204 0.02824 0.0
C2547 C 0.18486 0.90284 1.00586 0.0
C2548 C 0.24805 0.91573 0.99898 0.0
C2549 C 0.1627 0.89917 1.00085 0.0
C2550 C 0.34009 0.8904 0.01686 0.0
C2551 C 0.31774 0.89473 0.01217 0.0
C2552 C 0.2557 0.89186 0.02017 0.0
C2553 C 0.20528 0.90308 0.99883 0.0
C2554 C 0.2291 0.90392 1.0044 0.0
C2555 C 0.29887 0.90101 0.01952 0.0
C2556 C 0.27468 0.90319 0.01461 0.0
H2557 H 0.17897 0.89537 0.97206 0.0
H2558 H 0.21797 0.90098 0.98082 0.0
H2559 H 0.21934 0.88231 0.01944 0.0
H2560 H 0.32808 0.9014 0.04575 0.0
H2561 H 0.28883 0.90867 0.03752 0.0
C2562 C 0.86413 0.41477 0.75131 0.0
C2563 C 0.86257 0.41073 0.73912 0.0
C2564 C 0.8601 0.43721 0.75596 0.0
C2565 C 0.86531 0.49909 0.74811 0.0
H2566 H 0.83006 0.51031 0.77682 0.0
C2567 C 0.85944 0.5923 0.76747 0.0
C2568 C 0.8612 0.59465 0.77974 0.0
C2569 C 0.85574 0.57025 0.76234 0.0
C2570 C 0.84017 0.50747 0.76886 0.0
H2571 H 0.85492 0.42705 0.7223 0.0
H2572 H 0.84823 0.4665 0.73045 0.0
H2573 H 0.83043 0.47092 0.76807 0.0
H2574 H 0.85976 0.57581 0.79629 0.0
H2575 H 0.85417 0.53701 0.78734 0.0
H2576 H 0.87604 0.5351 0.74907 0.0
C2577 C 0.85252 0.45215 0.73638 0.0
C2578 C 0.84025 0.48492 0.76382 0.0
C2579 C 0.85623 0.42956 0.73172 0.0
C2580 C 0.85835 0.57453 0.78681 0.0
C2581 C 0.85507 0.55231 0.78165 0.0
C2582 C 0.86548 0.52151 0.7532 0.0
C2583 C 0.85469 0.45624 0.74853 0.0
C2584 C 0.85295 0.48048 0.75343 0.0
C2585 C 0.8542 0.54982 0.76932 0.0
C2586 C 0.85301 0.52603 0.76369 0.0
H2587 H 0.86884 0.40064 0.75728 0.0
H2588 H 0.8621 0.43985 0.76535 0.0
H2589 H 0.8756 0.49611 0.74022 0.0
H2590 H 0.86121 0.60755 0.76179 0.0
H2591 H 0.85446 0.56923 0.75285 0.0
C2592 C 0.13436 0.37281 0.09156 0.0
C2593 C 0.12798 0.39356 0.08559 0.0
C2594 C 0.13914 0.37323 0.10363 0.0
C2595 C 0.1263 0.40858 0.13026 0.0
H2596 H 0.17012 0.36475 0.14465 0.0
C2597 C 0.12086 0.38301 0.17932 0.0
C2598 C 0.14163 0.37702 0.18538 0.0
C2599 C 0.12146 0.38819 0.1673 0.0
C2600 C 0.15805 0.3774 0.14082 0.0
H2601 H 0.12274 0.43125 0.0875 0.0
H2602 H 0.13169 0.43212 0.1085 0.0
H2603 H 0.16859 0.36811 0.12335 0.0
H2604 H 0.17949 0.37292 0.18367 0.0
H2605 H 0.18067 0.3826 0.16276 0.0
H2606 H 0.11601 0.41811 0.14774 0.0
C2607 C 0.13245 0.41539 0.10392 0.0
C2608 C 0.15693 0.37908 0.12856 0.0
C2609 C 0.12752 0.41493 0.09185 0.0
C2610 C 0.16316 0.37734 0.17925 0.0
C2611 C 0.16379 0.3827 0.16723 0.0
C2612 C 0.12754 0.40702 0.14253 0.0
C2613 C 0.13783 0.39445 0.11003 0.0
C2614 C 0.14072 0.39436 0.12309 0.0
C2615 C 0.14288 0.38771 0.16102 0.0
C2616 C 0.14312 0.39108 0.14799 0.0
H2617 H 0.13477 0.35602 0.08703 0.0
H2618 H 0.14289 0.35668 0.108 0.0
H2619 H 0.11343 0.4204 0.12642 0.0
H2620 H 0.10396 0.38282 0.18377 0.0
H2621 H 0.10494 0.39164 0.16284 0.0
C2622 C 0.87141 0.87004 0.42973 0.0
C2623 C 0.87744 0.89084 0.43574 0.0
C2624 C 0.86656 0.8705 0.41768 0.0
C2625 C 0.87863 0.90645 0.39114 0.0
H2626 H 0.83546 0.86216 0.37662 0.0
C2627 C 0.88413 0.88214 0.34197 0.0
C2628 C 0.8634 0.87615 0.33589 0.0
C2629 C 0.88354 0.8869 0.35403 0.0
C2630 C 0.84734 0.87493 0.3805 0.0
H2631 H 0.88198 0.92864 0.43392 0.0
H2632 H 0.87291 0.92957 0.41295 0.0
H2633 H 0.83712 0.86511 0.39794 0.0
H2634 H 0.8256 0.8715 0.33762 0.0
H2635 H 0.82444 0.88041 0.35861 0.0
H2636 H 0.8886 0.91652 0.3737 0.0
C2637 C 0.87249 0.91277 0.41748 0.0
C2638 C 0.84854 0.87638 0.39277 0.0
C2639 C 0.87751 0.91228 0.42953 0.0
C2640 C 0.8419 0.87596 0.34206 0.0
C2641 C 0.84128 0.88088 0.35412 0.0
C2642 C 0.87732 0.90511 0.37887 0.0
C2643 C 0.86746 0.89181 0.41133 0.0
C2644 C 0.86451 0.89185 0.39827 0.0
C2645 C 0.86217 0.88597 0.36033 0.0
C2646 C 0.86198 0.88902 0.37337 0.0
H2647 H 0.87131 0.8532 0.43424 0.0
H2648 H 0.86308 0.85394 0.41326 0.0
H2649 H 0.89132 0.91842 0.39502 0.0
H2650 H 0.90101 0.88233 0.3375 0.0
H2651 H 0.90005 0.89041 0.35849 0.0
C2652 C 0.3444 0.62657 0.67726 0.0
C2653 C 0.36559 0.62733 0.68368 0.0
C2654 C 0.34467 0.62224 0.66511 0.0
C2655 C 0.38251 0.63222 0.63985 0.0
H2656 H 0.34204 0.58879 0.62287 0.0
C2657 C 0.37397 0.63592 0.5896 0.0
C2658 C 0.3788 0.61464 0.58372 0.0
C2659 C 0.36994 0.63615 0.60173 0.0
C2660 C 0.35342 0.60098 0.62752 0.0
H2661 H 0.40357 0.62309 0.68247 0.0
H2662 H 0.404 0.61592 0.66133 0.0
H2663 H 0.34018 0.59052 0.64447 0.0
H2664 H 0.38186 0.57675 0.58586 0.0
H2665 H 0.3743 0.57715 0.6071 0.0
H2666 H 0.39555 0.64297 0.62301 0.0
C2667 C 0.38721 0.61868 0.66568 0.0
C2668 C 0.35229 0.60203 0.63984 0.0
C2669 C 0.38692 0.62267 0.6778 0.0
C2670 C 0.37821 0.59343 0.59014 0.0
C2671 C 0.37384 0.59364 0.60228 0.0
C2672 C 0.38333 0.63148 0.62758 0.0
C2673 C 0.36616 0.61894 0.65916 0.0
C2674 C 0.36697 0.61756 0.64612 0.0
C2675 C 0.37032 0.61509 0.60824 0.0
C2676 C 0.36885 0.61584 0.62128 0.0
H2677 H 0.32768 0.63008 0.68153 0.0
H2678 H 0.3282 0.6226 0.66029 0.0
H2679 H 0.39387 0.64452 0.64444 0.0
H2680 H 0.37427 0.65258 0.58494 0.0
H2681 H 0.36703 0.65291 0.60608 0.0
C2682 C 0.66103 0.12882 0.84113 0.0
C2683 C 0.63985 0.1295 0.83469 0.0
C2684 C 0.66073 0.12445 0.85327 0.0
C2685 C 0.62283 0.13404 0.87855 0.0
H2686 H 0.66344 0.09054 0.89541 0.0
C2687 C 0.63138 0.13712 0.92881 0.0
C2688 C 0.62663 0.11575 0.93463 0.0
C2689 C 0.63539 0.13753 0.91669 0.0
C2690 C 0.65203 0.10274 0.89079 0.0
H2691 H 0.60189 0.12516 0.83587 0.0
H2692 H 0.60142 0.11793 0.85701 0.0
H2693 H 0.6653 0.09253 0.87381 0.0
H2694 H 0.6237 0.07788 0.93237 0.0
H2695 H 0.63123 0.07859 0.91113 0.0
H2696 H 0.60975 0.14454 0.89542 0.0
C2697 C 0.61821 0.12076 0.85267 0.0
C2698 C 0.65316 0.10394 0.87847 0.0
C2699 C 0.61852 0.12479 0.84055 0.0
C2700 C 0.62728 0.09463 0.92814 0.0
C2701 C 0.63164 0.09501 0.916 0.0
C2702 C 0.62201 0.13314 0.89082 0.0
C2703 C 0.63924 0.12103 0.8592 0.0
C2704 C 0.63842 0.1195 0.87224 0.0
C2705 C 0.63507 0.11655 0.91011 0.0
C2706 C 0.63654 0.11748 0.89707 0.0
H2707 H 0.67775 0.13237 0.83687 0.0
H2708 H 0.6772 0.12482 0.85811 0.0
H2709 H 0.61143 0.14635 0.87399 0.0
H2710 H 0.63102 0.15372 0.93353 0.0
H2711 H 0.63824 0.15435 0.91239 0.0
C2712 C 0.11896 0.62408 0.33992 0.0
C2713 C 0.14025 0.62879 0.33401 0.0
C2714 C 0.11875 0.62007 0.35204 0.0
C2715 C 0.15395 0.60326 0.37777 0.0
H2716 H 0.11064 0.64379 0.39482 0.0
C2717 C 0.12865 0.59414 0.42756 0.0
C2718 C 0.12804 0.61532 0.434 0.0
C2719 C 0.13287 0.59443 0.4154 0.0
C2720 C 0.12287 0.63241 0.39019 0.0
H2721 H 0.17816 0.63168 0.33612 0.0
H2722 H 0.17777 0.62415 0.35736 0.0
H2723 H 0.11208 0.64558 0.37339 0.0
H2724 H 0.13244 0.65328 0.43282 0.0
H2725 H 0.13943 0.65374 0.41166 0.0
H2726 H 0.16445 0.5899 0.39469 0.0
C2727 C 0.16127 0.62376 0.35256 0.0
C2728 C 0.12355 0.63329 0.37792 0.0
C2729 C 0.16147 0.62813 0.34042 0.0
C2730 C 0.13274 0.63664 0.42813 0.0
C2731 C 0.13663 0.63695 0.416 0.0
C2732 C 0.15295 0.60207 0.3901 0.0
C2733 C 0.13983 0.62034 0.35853 0.0
C2734 C 0.13912 0.61879 0.37157 0.0
C2735 C 0.13622 0.61593 0.40946 0.0
C2736 C 0.13751 0.61678 0.39642 0.0
H2737 H 0.10229 0.62445 0.33526 0.0
H2738 H 0.10199 0.61723 0.35641 0.0
H2739 H 0.16607 0.59187 0.37309 0.0
H2740 H 0.1251 0.57743 0.43183 0.0
H2741 H 0.13241 0.57798 0.41056 0.0
C2742 C 0.61873 0.88266 0.67979 0.0
C2743 C 0.64 0.87789 0.68569 0.0
C2744 C 0.61855 0.88666 0.66766 0.0
C2745 C 0.65383 0.90311 0.64189 0.0
H2746 H 0.61049 0.86243 0.62497 0.0
C2747 C 0.62856 0.9117 0.59211 0.0
C2748 C 0.62786 0.89047 0.58572 0.0
C2749 C 0.63283 0.91152 0.60426 0.0
C2750 C 0.62274 0.87385 0.62956 0.0
H2751 H 0.6779 0.87493 0.68359 0.0
H2752 H 0.67757 0.88242 0.66235 0.0
H2753 H 0.61188 0.86093 0.6464 0.0
H2754 H 0.63215 0.8525 0.58699 0.0
H2755 H 0.63923 0.85223 0.60814 0.0
H2756 H 0.6644 0.91622 0.62493 0.0
C2757 C 0.66107 0.88287 0.66715 0.0
C2758 C 0.62338 0.87314 0.64183 0.0
C2759 C 0.66123 0.87853 0.6793 0.0
C2760 C 0.63253 0.86919 0.59163 0.0
C2761 C 0.63647 0.86898 0.60376 0.0
C2762 C 0.65287 0.90413 0.62956 0.0
C2763 C 0.63964 0.8863 0.66117 0.0
C2764 C 0.63895 0.8877 0.64813 0.0
C2765 C 0.63614 0.89007 0.61024 0.0
C2766 C 0.63742 0.88936 0.62329 0.0
H2767 H 0.60205 0.88232 0.68444 0.0
H2768 H 0.6018 0.88951 0.6633 0.0
H2769 H 0.66596 0.91454 0.64654 0.0
H2770 H 0.62503 0.92839 0.58781 0.0
H2771 H 0.63242 0.92803 0.60906 0.0
C2772 C 0.38595 0.38444 0.84079 0.0
C2773 C 0.36472 0.37963 0.83487 0.0
C2774 C 0.38607 0.3885 0.85292 0.0
C2775 C 0.35076 0.40478 0.8787 0.0
H2776 H 0.39387 0.36368 0.89552 0.0
C2777 C 0.37607 0.41244 0.92853 0.0
C2778 C 0.37661 0.39108 0.93483 0.0
C2779 C 0.37178 0.41251 0.91638 0.0
C2780 C 0.38169 0.37522 0.89096 0.0
H2781 H 0.32679 0.37673 0.83693 0.0
H2782 H 0.32701 0.38431 0.85816 0.0
H2783 H 0.39255 0.36248 0.87409 0.0
H2784 H 0.37199 0.35318 0.9334 0.0
H2785 H 0.36488 0.35334 0.91226 0.0
H2786 H 0.34019 0.4177 0.8957 0.0
C2787 C 0.34354 0.38474 0.85338 0.0
C2788 C 0.38109 0.37468 0.87869 0.0
C2789 C 0.34344 0.38036 0.84124 0.0
C2790 C 0.37174 0.36995 0.92883 0.0
C2791 C 0.36778 0.37 0.9167 0.0
C2792 C 0.35168 0.40563 0.89103 0.0
C2793 C 0.36495 0.38814 0.85938 0.0
C2794 C 0.3656 0.38939 0.87242 0.0
C2795 C 0.36829 0.3912 0.91031 0.0
C2796 C 0.36705 0.3907 0.89727 0.0
H2797 H 0.40266 0.38405 0.83617 0.0
H2798 H 0.40279 0.39132 0.8573 0.0
H2799 H 0.33868 0.41632 0.87407 0.0
H2800 H 0.37975 0.42902 0.9329 0.0
H2801 H 0.37233 0.42909 0.91165 0.0
C2802 C 0.84402 0.12774 0.17686 0.0
C2803 C 0.86524 0.12834 0.18326 0.0
C2804 C 0.84423 0.12364 0.1647 0.0
C2805 C 0.88192 0.13392 0.13942 0.0
H2806 H 0.8415 0.09053 0.12239 0.0
C2807 C 0.87342 0.13783 0.08919 0.0
C2808 C 0.87834 0.11659 0.0833 0.0
C2809 C 0.86933 0.13801 0.10131 0.0
C2810 C 0.85285 0.10271 0.12706 0.0
H2811 H 0.90321 0.12412 0.18199 0.0
H2812 H 0.90354 0.11736 0.16082 0.0
H2813 H 0.83969 0.0921 0.144 0.0
H2814 H 0.88146 0.07869 0.08541 0.0
H2815 H 0.87381 0.07901 0.10664 0.0
H2816 H 0.8949 0.14481 0.1226 0.0
C2817 C 0.88677 0.12005 0.1652 0.0
C2818 C 0.85175 0.10367 0.13938 0.0
C2819 C 0.88654 0.12381 0.17734 0.0
C2820 C 0.87775 0.09535 0.0897 0.0
C2821 C 0.87332 0.09551 0.10184 0.0
C2822 C 0.8827 0.13327 0.12715 0.0
C2823 C 0.86569 0.12041 0.15871 0.0
C2824 C 0.86643 0.11918 0.14567 0.0
C2825 C 0.86974 0.11693 0.1078 0.0
C2826 C 0.86825 0.11764 0.12084 0.0
H2827 H 0.82732 0.13115 0.18118 0.0
H2828 H 0.82773 0.12408 0.1599 0.0
H2829 H 0.89327 0.14621 0.14403 0.0
H2830 H 0.87371 0.15451 0.08454 0.0
H2831 H 0.86636 0.15475 0.10567 0.0
C2832 C 0.841 0.62614 0.84115 0.0
C2833 C 0.86259 0.62607 0.83506 0.0
C2834 C 0.84022 0.62104 0.8532 0.0
C2835 C 0.8761 0.59693 0.8781 0.0
H2836 H 0.83571 0.63702 0.89701 0.0
C2837 C 0.87679 0.59095 0.92883 0.0
C2838 C 0.87662 0.61256 0.93489 0.0
C2839 C 0.87163 0.59008 0.91678 0.0
C2840 C 0.84718 0.62572 0.89188 0.0
H2841 H 0.90017 0.61982 0.83678 0.0
H2842 H 0.89892 0.61144 0.85773 0.0
H2843 H 0.83405 0.63966 0.87568 0.0
H2844 H 0.8701 0.6501 0.93313 0.0
H2845 H 0.86162 0.64871 0.91219 0.0
H2846 H 0.89018 0.58395 0.8943 0.0
C2847 C 0.88247 0.61499 0.85323 0.0
C2848 C 0.84598 0.62699 0.8796 0.0
C2849 C 0.88322 0.61992 0.84119 0.0
C2850 C 0.87029 0.63313 0.92875 0.0
C2851 C 0.8653 0.63229 0.91671 0.0
C2852 C 0.87742 0.59578 0.89038 0.0
C2853 C 0.86102 0.6159 0.85947 0.0
C2854 C 0.86071 0.61289 0.87253 0.0
C2855 C 0.86632 0.61083 0.9105 0.0
C2856 C 0.86325 0.61045 0.89745 0.0
H2857 H 0.82477 0.63073 0.83668 0.0
H2858 H 0.82332 0.62149 0.85764 0.0
H2859 H 0.88746 0.58551 0.87297 0.0
H2860 H 0.8815 0.57476 0.93331 0.0
H2861 H 0.87216 0.57317 0.91237 0.0
C2862 C 0.11772 0.09521 0.59244 0.0
C2863 C 0.12719 0.11243 0.58492 0.0
C2864 C 0.12256 0.09567 0.60451 0.0
C2865 C 0.14372 0.13704 0.62781 0.0
H2866 H 0.14147 0.08074 0.64717 0.0
C2867 C 0.16349 0.13866 0.67761 0.0
C2868 C 0.14501 0.12996 0.68463 0.0
C2869 C 0.16376 0.1345 0.66548 0.0
C2870 C 0.14215 0.09658 0.64185 0.0
H2871 H 0.15025 0.14283 0.584 0.0
H2872 H 0.15982 0.14292 0.60489 0.0
H2873 H 0.13876 0.07718 0.62581 0.0
H2874 H 0.11296 0.10909 0.68454 0.0
H2875 H 0.11386 0.10123 0.66335 0.0
H2876 H 0.14767 0.15627 0.64392 0.0
C2877 C 0.14781 0.12959 0.60164 0.0
C2878 C 0.14044 0.09462 0.62959 0.0
C2879 C 0.14255 0.12942 0.58961 0.0
C2880 C 0.12743 0.11602 0.67936 0.0
C2881 C 0.12797 0.11147 0.66725 0.0
C2882 C 0.14591 0.13891 0.64002 0.0
C2883 C 0.13738 0.11312 0.60934 0.0
C2884 C 0.14088 0.11487 0.62238 0.0
C2885 C 0.14582 0.12117 0.66016 0.0
C2886 C 0.14488 0.11875 0.64717 0.0
H2887 H 0.10564 0.082 0.58911 0.0
H2888 H 0.11383 0.08287 0.61007 0.0
H2889 H 0.14357 0.15315 0.6227 0.0
H2890 H 0.17725 0.14954 0.68139 0.0
H2891 H 0.17779 0.14206 0.66022 0.0
C2892 C 0.63336 0.36836 0.42778 0.0
C2893 C 0.62874 0.38959 0.43376 0.0
C2894 C 0.63731 0.36829 0.41565 0.0
C2895 C 0.65392 0.40356 0.38993 0.0
H2896 H 0.61267 0.36076 0.37302 0.0
C2897 C 0.66209 0.37805 0.34014 0.0
C2898 C 0.64083 0.37762 0.33376 0.0
C2899 C 0.662 0.38238 0.35229 0.0
C2900 C 0.62425 0.37286 0.37761 0.0
H2901 H 0.62604 0.42754 0.43177 0.0
H2902 H 0.63346 0.4274 0.41052 0.0
H2903 H 0.61124 0.36213 0.39446 0.0
H2904 H 0.60294 0.38247 0.33506 0.0
H2905 H 0.60281 0.38964 0.3562 0.0
H2906 H 0.66713 0.41398 0.37296 0.0
C2907 C 0.6338 0.41084 0.41527 0.0
C2908 C 0.62357 0.3735 0.38988 0.0
C2909 C 0.62952 0.4109 0.42742 0.0
C2910 C 0.61964 0.38263 0.33969 0.0
C2911 C 0.61952 0.38663 0.35181 0.0
C2912 C 0.6549 0.40261 0.3776 0.0
C2913 C 0.63706 0.38945 0.40923 0.0
C2914 C 0.63835 0.38886 0.39618 0.0
C2915 C 0.64061 0.38603 0.35829 0.0
C2916 C 0.63993 0.38734 0.37133 0.0
H2917 H 0.63293 0.35163 0.43238 0.0
H2918 H 0.64002 0.35157 0.41123 0.0
H2919 H 0.66552 0.41554 0.39458 0.0
H2920 H 0.67871 0.37427 0.33583 0.0
H2921 H 0.6785 0.38176 0.35708 0.0
C2922 C 0.37174 0.86885 0.09017 0.0
C2923 C 0.37655 0.88998 0.08416 0.0
C2924 C 0.36773 0.8689 0.1023 0.0
C2925 C 0.35143 0.90462 0.12794 0.0
H2926 H 0.39223 0.86158 0.14498 0.0
C2927 C 0.34326 0.88014 0.17786 0.0
C2928 C 0.36456 0.87962 0.18421 0.0
C2929 C 0.34331 0.88419 0.16569 0.0
C2930 C 0.38077 0.87374 0.14035 0.0
H2931 H 0.37955 0.92793 0.08607 0.0
H2932 H 0.37204 0.92802 0.10731 0.0
H2933 H 0.39361 0.86262 0.12354 0.0
H2934 H 0.40249 0.88401 0.18282 0.0
H2935 H 0.40255 0.8907 0.16164 0.0
H2936 H 0.33841 0.91545 0.14487 0.0
C2937 C 0.37158 0.91142 0.10259 0.0
C2938 C 0.38141 0.87419 0.12808 0.0
C2939 C 0.37591 0.91135 0.09045 0.0
C2940 C 0.38576 0.88425 0.17822 0.0
C2941 C 0.38584 0.88797 0.16607 0.0
C2942 C 0.35047 0.90386 0.14027 0.0
C2943 C 0.36813 0.89011 0.10868 0.0
C2944 C 0.36681 0.88965 0.12173 0.0
C2945 C 0.36469 0.88746 0.15964 0.0
C2946 C 0.36529 0.88851 0.14659 0.0
H2947 H 0.37206 0.85207 0.08561 0.0
H2948 H 0.36487 0.85224 0.10675 0.0
H2949 H 0.33996 0.91667 0.12325 0.0
H2950 H 0.32663 0.87663 0.18222 0.0
H2951 H 0.32677 0.88365 0.16094 0.0
C2952 C 0.88409 0.3845 0.67812 0.0
C2953 C 0.86345 0.37831 0.68423 0.0
C2954 C 0.88335 0.38955 0.66608 0.0
C2955 C 0.84688 0.37782 0.6397 0.0
H2956 H 0.89103 0.42106 0.62509 0.0
C2957 C 0.87118 0.37224 0.59052 0.0
C2958 C 0.87743 0.39289 0.58443 0.0
C2959 C 0.8662 0.37294 0.60256 0.0
C2960 C 0.87828 0.40917 0.62899 0.0
H2961 H 0.82564 0.37369 0.68262 0.0
H2962 H 0.8242 0.3831 0.66167 0.0
H2963 H 0.88832 0.41925 0.64642 0.0
H2964 H 0.88222 0.43068 0.5861 0.0
H2965 H 0.87293 0.43203 0.60706 0.0
H2966 H 0.83661 0.36797 0.62227 0.0
C2967 C 0.8411 0.3835 0.66611 0.0
C2968 C 0.87697 0.40789 0.64127 0.0
C2969 C 0.84188 0.37829 0.67815 0.0
C2970 C 0.87756 0.41444 0.59054 0.0
C2971 C 0.87243 0.41516 0.60259 0.0
C2972 C 0.84807 0.37923 0.62742 0.0
C2973 C 0.86191 0.38871 0.65985 0.0
C2974 C 0.86159 0.39185 0.6468 0.0
C2975 C 0.86718 0.39434 0.60883 0.0
C2976 C 0.86412 0.39457 0.62189 0.0
H2977 H 0.90104 0.38458 0.68252 0.0
H2978 H 0.8998 0.39314 0.66159 0.0
H2979 H 0.83496 0.3651 0.64359 0.0
H2980 H 0.87102 0.35532 0.5861 0.0
H2981 H 0.86257 0.35647 0.60704 0.0
C2982 C 0.34148 0.13626 0.34277 0.0
C2983 C 0.36038 0.12821 0.33583 0.0
C2984 C 0.34105 0.1319 0.35487 0.0
C2985 C 0.3633 0.09458 0.3786 0.0
H2986 H 0.36074 0.15126 0.39763 0.0
C2987 C 0.38796 0.09419 0.42799 0.0
C2988 C 0.37825 0.11135 0.43546 0.0
C2989 C 0.38301 0.09438 0.41593 0.0
C2990 C 0.3609 0.13511 0.39256 0.0
H2991 H 0.39295 0.10817 0.33602 0.0
H2992 H 0.39177 0.09993 0.35718 0.0
H2993 H 0.35655 0.15413 0.37642 0.0
H2994 H 0.35462 0.14131 0.43633 0.0
H2995 H 0.34483 0.1409 0.41547 0.0
H2996 H 0.3671 0.07538 0.39468 0.0
C2997 C 0.37747 0.10984 0.35323 0.0
C2998 C 0.35866 0.13684 0.38035 0.0
C2999 C 0.37816 0.11459 0.34114 0.0
C3000 C 0.36252 0.12797 0.43075 0.0
C3001 C 0.35714 0.12786 0.41874 0.0
C3002 C 0.36505 0.09275 0.39086 0.0
C3003 C 0.35924 0.11899 0.36025 0.0
C3004 C 0.36012 0.11665 0.37324 0.0
C3005 C 0.36782 0.11148 0.41107 0.0
C3006 C 0.36421 0.11304 0.39804 0.0
H3007 H 0.32756 0.14688 0.33895 0.0
H3008 H 0.32673 0.13904 0.36009 0.0
H3009 H 0.36433 0.07872 0.37331 0.0
H3010 H 0.40033 0.08127 0.43135 0.0
H3011 H 0.39193 0.08167 0.41039 0.0
C3012 C 0.66226 0.62953 0.17879 0.0
C3013 C 0.64082 0.62948 0.185 0.0
C3014 C 0.66278 0.62443 0.16674 0.0
C3015 C 0.62643 0.60009 0.14209 0.0
H3016 H 0.66699 0.63942 0.12287 0.0
C3017 C 0.62641 0.59207 0.09141 0.0
C3018 C 0.62687 0.61338 0.08509 0.0
C3019 C 0.63123 0.59175 0.1035 0.0
C3020 C 0.65546 0.62834 0.12808 0.0
H3021 H 0.60318 0.62338 0.18348 0.0
H3022 H 0.60396 0.61502 0.16252 0.0
H3023 H 0.66867 0.6427 0.14417 0.0
H3024 H 0.63345 0.65097 0.08645 0.0
H3025 H 0.64133 0.65053 0.10746 0.0
H3026 H 0.6123 0.58667 0.12599 0.0
C3027 C 0.62051 0.61853 0.16693 0.0
C3028 C 0.65667 0.62997 0.14035 0.0
C3029 C 0.62003 0.62345 0.17898 0.0
C3030 C 0.63305 0.63421 0.09103 0.0
C3031 C 0.6377 0.63393 0.10311 0.0
C3032 C 0.6251 0.59858 0.12982 0.0
C3033 C 0.64183 0.61933 0.16059 0.0
C3034 C 0.64193 0.61612 0.14754 0.0
C3035 C 0.63647 0.61276 0.10957 0.0
C3036 C 0.63935 0.61294 0.12263 0.0
H3037 H 0.67862 0.634 0.18319 0.0
H3038 H 0.6796 0.62478 0.16222 0.0
H3039 H 0.61505 0.58886 0.14731 0.0
H3040 H 0.6218 0.57569 0.08708 0.0
H3041 H 0.63054 0.57504 0.1081 0.0
C3042 C 0.12074 0.88324 0.83969 0.0
C3043 C 0.14146 0.87699 0.83366 0.0
C3044 C 0.12124 0.888 0.85176 0.0
C3045 C 0.15709 0.8756 0.87832 0.0
H3046 H 0.11317 0.91918 0.89283 0.0
C3047 C 0.13304 0.87071 0.92759 0.0
C3048 C 0.12705 0.89151 0.93362 0.0
C3049 C 0.1378 0.87115 0.91552 0.0
C3050 C 0.12584 0.90718 0.88896 0.0
H3051 H 0.17919 0.87195 0.83548 0.0
H3052 H 0.18022 0.8809 0.85648 0.0
H3053 H 0.11607 0.91739 0.87151 0.0
H3054 H 0.12243 0.92929 0.93178 0.0
H3055 H 0.13137 0.93021 0.91079 0.0
H3056 H 0.16714 0.86565 0.89577 0.0
C3057 C 0.16343 0.88155 0.85195 0.0
C3058 C 0.12726 0.90591 0.87668 0.0
C3059 C 0.16289 0.87661 0.83988 0.0
C3060 C 0.12689 0.91293 0.92739 0.0
C3061 C 0.13182 0.91341 0.91532 0.0
C3062 C 0.1558 0.87699 0.89059 0.0
C3063 C 0.14253 0.88683 0.85812 0.0
C3064 C 0.14259 0.88979 0.87118 0.0
C3065 C 0.13686 0.89245 0.90916 0.0
C3066 C 0.13985 0.89249 0.8961 0.0
H3067 H 0.10391 0.88358 0.83519 0.0
H3068 H 0.10472 0.89167 0.85618 0.0
H3069 H 0.16896 0.8628 0.87445 0.0
H3070 H 0.1332 0.85388 0.93211 0.0
H3071 H 0.14128 0.85459 0.91111 0.0
loop_
_geom_bond_atom_site_label_1
_geom_bond_atom_site_label_2
_geom_bond_distance
_geom_bond_site_symmetry_2
_ccdc_geom_bond_type
Mn0 O5 2.095 . S
Mn0 O15 2.162 . S
Mn0 O16 2.297 . S
Mn0 O24 2.385 . S
Mn0 O25 2.209 . S
Mn0 O26 2.094 . S
Mn1 O6 2.121 . S
Mn1 N8 2.257 . S
Mn1 N17 2.282 . S
Mn1 O25 2.215 . S
Mn1 O27 2.117 . S
C2 O24 1.234 . S
C2 O25 1.283 . S
C3 O15 1.281 . S
C3 O16 1.236 . S
C4 O26 1.240 . S
C4 O27 1.264 . S
O5 Mn0 2.095 . S
O5 C14 1.250 . S
O6 Mn1 2.121 . S
O6 C14 1.258 . S
C7 N8 1.326 . S
C7 C11 1.460 . S
C7 H13 0.929 . S
N8 Mn1 2.257 . S
N8 C7 1.326 . S
N8 C12 1.362 . S
C9 C10 1.253 1_554 S
C9 C12 1.442 . S
C9 C29 1.442 1_554 S
C10 C9 1.253 1_556 S
C10 C11 1.477 1_556 S
C10 H30 0.931 . S
C11 C7 1.460 . S
C11 C10 1.477 1_554 S
C11 H31 0.930 . S
C12 N8 1.362 . S
C12 C9 1.442 . S
C12 C22 1.476 . S
H13 C7 0.929 . S
C14 O5 1.250 . S
C14 O6 1.258 . S
O15 Mn0 2.162 . S
O15 C3 1.281 . S
O16 Mn0 2.297 . S
O16 C3 1.236 . S
N17 Mn1 2.282 . S
N17 C18 1.328 . S
N17 C22 1.318 . S
C18 N17 1.328 . S
C18 C19 1.457 . S
C18 H23 0.929 . S
C19 C18 1.457 . S
C19 C20 1.291 . S
C19 H32 0.933 . S
C20 C19 1.291 . S
C20 C21 1.373 . S
C20 H33 0.951 . S
C21 C20 1.373 . S
C21 C22 1.396 . S
C21 C28 1.367 1_554 S
C22 C12 1.476 . S
C22 N17 1.318 . S
C22 C21 1.396 . S
H23 C18 0.929 . S
O24 Mn0 2.385 . S
O24 C2 1.234 . S
O25 Mn0 2.209 . S
O25 Mn1 2.215 . S
O25 C2 1.283 . S
O26 Mn0 2.094 . S
O26 C4 1.240 . S
O27 Mn1 2.117 . S
O27 C4 1.264 . S
C28 C21 1.367 1_556 S
C28 C29 1.419 . S
C28 H34 0.956 . S
C29 C9 1.442 1_556 S
C29 C28 1.419 . S
C29 H35 0.930 . S
H30 C10 0.931 . S
H31 C11 0.930 . S
H32 C19 0.933 . S
H33 C20 0.951 . S
H34 C28 0.956 . S
H35 C29 0.930 . S
Mn36 O41 2.095 . S
Mn36 O51 2.162 . S
Mn36 O52 2.297 . S
Mn36 O60 2.385 . S
Mn36 O61 2.209 . S
Mn36 O62 2.094 . S
Mn37 O42 2.121 . S
Mn37 N44 2.257 . S
Mn37 N53 2.282 . S
Mn37 O61 2.215 . S
Mn37 O63 2.117 . S
C38 O60 1.234 . S
C38 O61 1.283 . S
C39 O51 1.281 . S
C39 O52 1.236 . S
C40 O62 1.240 . S
C40 O63 1.264 . S
O41 Mn36 2.095 . S
O41 C50 1.250 . S
O42 Mn37 2.121 . S
O42 C50 1.258 . S
C43 N44 1.326 . S
C43 C47 1.460 . S
C43 H49 0.929 . S
N44 Mn37 2.257 . S
N44 C43 1.326 . S
N44 C48 1.362 . S
C45 C46 1.258 . S
C45 C48 1.431 . S
C45 C65 1.449 . S
C46 C45 1.258 . S
C46 C47 1.477 . S
C46 H66 0.931 . S
C47 C43 1.460 . S
C47 C46 1.477 . S
C47 H67 0.930 . S
C48 N44 1.362 . S
C48 C45 1.431 . S
C48 C58 1.476 . S
H49 C43 0.929 . S
C50 O41 1.250 . S
C50 O42 1.258 . S
O51 Mn36 2.162 . S
O51 C39 1.281 . S
O52 Mn36 2.297 . S
O52 C39 1.236 . S
N53 Mn37 2.282 . S
N53 C54 1.328 . S
N53 C58 1.318 . S
C54 N53 1.328 . S
C54 C55 1.457 . S
C54 H59 0.929 . S
C55 C54 1.457 . S
C55 C56 1.291 . S
C55 H68 0.931 . S
C56 C55 1.291 . S
C56 C57 1.373 . S
C56 H69 0.929 . S
C57 C56 1.373 . S
C57 C58 1.396 . S
C57 C64 1.403 . S
C58 C48 1.476 . S
C58 N53 1.318 . S
C58 C57 1.396 . S
H59 C54 0.929 . S
O60 Mn36 2.385 . S
O60 C38 1.234 . S
O61 Mn36 2.209 . S
O61 Mn37 2.215 . S
O61 C38 1.283 . S
O62 Mn36 2.094 . S
O62 C40 1.240 . S
O63 Mn37 2.117 . S
O63 C40 1.264 . S
C64 C57 1.403 . S
C64 C65 1.399 . S
C64 H70 0.929 . S
C65 C45 1.449 . S
C65 C64 1.399 . S
C65 H71 0.930 . S
H66 C46 0.931 . S
H67 C47 0.930 . S
H68 C55 0.931 . S
H69 C56 0.929 . S
H70 C64 0.929 . S
H71 C65 0.930 . S
Mn72 O77 2.095 . S
Mn72 O87 2.162 . S
Mn72 O88 2.297 . S
Mn72 O96 2.385 . S
Mn72 O97 2.209 . S
Mn72 O98 2.094 . S
Mn73 O78 2.121 . S
Mn73 N80 2.257 . S
Mn73 N89 2.282 . S
Mn73 O97 2.215 . S
Mn73 O99 2.117 . S
C74 O96 1.234 . S
C74 O97 1.283 . S
C75 O87 1.281 . S
C75 O88 1.236 . S
C76 O98 1.240 . S
C76 O99 1.264 . S
O77 Mn72 2.095 . S
O77 C86 1.250 . S
O78 Mn73 2.121 . S
O78 C86 1.258 . S
C79 N80 1.326 . S
C79 C83 1.460 . S
C79 H85 0.929 . S
N80 Mn73 2.257 . S
N80 C79 1.326 . S
N80 C84 1.362 . S
C81 C82 1.258 . S
C81 C84 1.431 . S
C81 C101 1.449 . S
C82 C81 1.258 . S
C82 C83 1.477 . S
C82 H102 0.931 . S
C83 C79 1.460 . S
C83 C82 1.477 . S
C83 H103 0.930 . S
C84 N80 1.362 . S
C84 C81 1.431 . S
C84 C94 1.476 . S
H85 C79 0.929 . S
C86 O77 1.250 . S
C86 O78 1.258 . S
O87 Mn72 2.162 . S
O87 C75 1.281 . S
O88 Mn72 2.297 . S
O88 C75 1.236 . S
N89 Mn73 2.282 . S
N89 C90 1.328 . S
N89 C94 1.318 . S
C90 N89 1.328 . S
C90 C91 1.457 . S
C90 H95 0.929 . S
C91 C90 1.457 . S
C91 C92 1.291 . S
C91 H104 0.931 . S
C92 C91 1.291 . S
C92 C93 1.373 . S
C92 H105 0.929 . S
C93 C92 1.373 . S
C93 C94 1.396 . S
C93 C100 1.403 . S
C94 C84 1.476 . S
C94 N89 1.318 . S
C94 C93 1.396 . S
H95 C90 0.929 . S
O96 Mn72 2.385 . S
O96 C74 1.234 . S
O97 Mn72 2.209 . S
O97 Mn73 2.215 . S
O97 C74 1.283 . S
O98 Mn72 2.094 . S
O98 C76 1.240 . S
O99 Mn73 2.117 . S
O99 C76 1.264 . S
C100 C93 1.403 . S
C100 C101 1.399 . S
C100 H106 0.929 . S
C101 C81 1.449 . S
C101 C100 1.399 . S
C101 H107 0.930 . S
H102 C82 0.931 . S
H103 C83 0.930 . S
H104 C91 0.931 . S
H105 C92 0.929 . S
H106 C100 0.929 . S
H107 C101 0.930 . S
Mn108 O113 2.095 . S
Mn108 O123 2.162 . S
Mn108 O124 2.297 . S
Mn108 O132 2.385 . S
Mn108 O133 2.209 . S
Mn108 O134 2.094 . S
Mn109 O114 2.121 . S
Mn109 N116 2.257 . S
Mn109 N125 2.282 . S
Mn109 O133 2.215 . S
Mn109 O135 2.117 . S
C110 O132 1.234 . S
C110 O133 1.283 . S
C111 O123 1.281 . S
C111 O124 1.236 . S
C112 O134 1.240 . S
C112 O135 1.264 . S
O113 Mn108 2.095 . S
O113 C122 1.250 . S
O114 Mn109 2.121 . S
O114 C122 1.258 . S
C115 N116 1.326 . S
C115 C119 1.460 . S
C115 H121 0.929 . S
N116 Mn109 2.257 . S
N116 C115 1.326 . S
N116 C120 1.362 . S
C117 C118 1.258 . S
C117 C120 1.431 . S
C117 C137 1.449 . S
C118 C117 1.258 . S
C118 C119 1.477 . S
C118 H138 0.931 . S
C119 C115 1.460 . S
C119 C118 1.477 . S
C119 H139 0.930 . S
C120 N116 1.362 . S
C120 C117 1.431 . S
C120 C130 1.476 . S
H121 C115 0.929 . S
C122 O113 1.250 . S
C122 O114 1.258 . S
O123 Mn108 2.162 . S
O123 C111 1.281 . S
O124 Mn108 2.297 . S
O124 C111 1.236 . S
N125 Mn109 2.282 . S
N125 C126 1.328 . S
N125 C130 1.318 . S
C126 N125 1.328 . S
C126 C127 1.457 . S
C126 H131 0.929 . S
C127 C126 1.457 . S
C127 C128 1.291 . S
C127 H140 0.931 . S
C128 C127 1.291 . S
C128 C129 1.373 . S
C128 H141 0.929 . S
C129 C128 1.373 . S
C129 C130 1.396 . S
C129 C136 1.403 . S
C130 C120 1.476 . S
C130 N125 1.318 . S
C130 C129 1.396 . S
H131 C126 0.929 . S
O132 Mn108 2.385 . S
O132 C110 1.234 . S
O133 Mn108 2.209 . S
O133 Mn109 2.215 . S
O133 C110 1.283 . S
O134 Mn108 2.094 . S
O134 C112 1.240 . S
O135 Mn109 2.117 . S
O135 C112 1.264 . S
C136 C129 1.403 . S
C136 C137 1.399 . S
C136 H142 0.929 . S
C137 C117 1.449 . S
C137 C136 1.399 . S
C137 H143 0.930 . S
H138 C118 0.931 . S
H139 C119 0.930 . S
H140 C127 0.931 . S
H141 C128 0.929 . S
H142 C136 0.929 . S
H143 C137 0.930 . S
Mn144 O149 2.095 . S
Mn144 O159 2.162 . S
Mn144 O160 2.297 . S
Mn144 O168 2.385 . S
Mn144 O169 2.209 . S
Mn144 O170 2.094 . S
Mn145 O150 2.121 . S
Mn145 N152 2.257 . S
Mn145 N161 2.282 . S
Mn145 O169 2.215 . S
Mn145 O171 2.117 . S
C146 O168 1.234 . S
C146 O169 1.283 . S
C147 O159 1.281 . S
C147 O160 1.236 . S
C148 O170 1.240 . S
C148 O171 1.264 . S
O149 Mn144 2.095 . S
O149 C158 1.250 . S
O150 Mn145 2.121 . S
O150 C158 1.258 . S
C151 N152 1.326 . S
C151 C155 1.460 . S
C151 H157 0.929 . S
N152 Mn145 2.257 . S
N152 C151 1.326 . S
N152 C156 1.362 . S
C153 C154 1.258 . S
C153 C156 1.431 . S
C153 C173 1.449 . S
C154 C153 1.258 . S
C154 C155 1.477 . S
C154 H174 0.931 . S
C155 C151 1.460 . S
C155 C154 1.477 . S
C155 H175 0.930 . S
C156 N152 1.362 . S
C156 C153 1.431 . S
C156 C166 1.476 . S
H157 C151 0.929 . S
C158 O149 1.250 . S
C158 O150 1.258 . S
O159 Mn144 2.162 . S
O159 C147 1.281 . S
O160 Mn144 2.297 . S
O160 C147 1.236 . S
N161 Mn145 2.282 . S
N161 C162 1.328 . S
N161 C166 1.318 . S
C162 N161 1.328 . S
C162 C163 1.457 . S
C162 H167 0.929 . S
C163 C162 1.457 . S
C163 C164 1.291 . S
C163 H176 0.933 . S
C164 C163 1.291 . S
C164 C165 1.373 . S
C164 H177 0.951 . S
C165 C164 1.373 . S
C165 C166 1.396 . S
C165 C172 1.403 . S
C166 C156 1.476 . S
C166 N161 1.318 . S
C166 C165 1.396 . S
H167 C162 0.929 . S
O168 Mn144 2.385 . S
O168 C146 1.234 . S
O169 Mn144 2.209 . S
O169 Mn145 2.215 . S
O169 C146 1.283 . S
O170 Mn144 2.094 . S
O170 C148 1.240 . S
O171 Mn145 2.117 . S
O171 C148 1.264 . S
C172 C165 1.403 . S
C172 C173 1.399 . S
C172 H178 0.929 . S
C173 C153 1.449 . S
C173 C172 1.399 . S
C173 H179 0.930 . S
H174 C154 0.931 . S
H175 C155 0.930 . S
H176 C163 0.933 . S
H177 C164 0.951 . S
H178 C172 0.929 . S
H179 C173 0.930 . S
Mn180 O185 2.095 . S
Mn180 O195 2.162 . S
Mn180 O196 2.297 . S
Mn180 O204 2.385 . S
Mn180 O205 2.209 . S
Mn180 O206 2.094 . S
Mn181 O186 2.121 . S
Mn181 N188 2.257 . S
Mn181 N197 2.282 . S
Mn181 O205 2.215 . S
Mn181 O207 2.117 . S
C182 O204 1.234 . S
C182 O205 1.283 . S
C183 O195 1.281 . S
C183 O196 1.236 . S
C184 O206 1.240 . S
C184 O207 1.264 . S
O185 Mn180 2.095 . S
O185 C194 1.250 . S
O186 Mn181 2.121 . S
O186 C194 1.258 . S
C187 N188 1.326 . S
C187 C191 1.460 . S
C187 H193 0.929 . S
N188 Mn181 2.257 . S
N188 C187 1.326 . S
N188 C192 1.362 . S
C189 C190 1.258 . S
C189 C192 1.431 . S
C189 C209 1.449 . S
C190 C189 1.258 . S
C190 C191 1.477 . S
C190 H210 0.931 . S
C191 C187 1.460 . S
C191 C190 1.477 . S
C191 H211 0.930 . S
C192 N188 1.362 . S
C192 C189 1.431 . S
C192 C202 1.476 . S
H193 C187 0.929 . S
C194 O185 1.250 . S
C194 O186 1.258 . S
O195 Mn180 2.162 . S
O195 C183 1.281 . S
O196 Mn180 2.297 . S
O196 C183 1.236 . S
N197 Mn181 2.282 . S
N197 C198 1.328 . S
N197 C202 1.318 . S
C198 N197 1.328 . S
C198 C199 1.457 . S
C198 H203 0.929 . S
C199 C198 1.457 . S
C199 C200 1.291 . S
C199 H212 0.931 . S
C200 C199 1.291 . S
C200 C201 1.373 . S
C200 H213 0.929 . S
C201 C200 1.373 . S
C201 C202 1.396 . S
C201 C208 1.403 . S
C202 C192 1.476 . S
C202 N197 1.318 . S
C202 C201 1.396 . S
H203 C198 0.929 . S
O204 Mn180 2.385 . S
O204 C182 1.234 . S
O205 Mn180 2.209 . S
O205 Mn181 2.215 . S
O205 C182 1.283 . S
O206 Mn180 2.094 . S
O206 C184 1.240 . S
O207 Mn181 2.117 . S
O207 C184 1.264 . S
C208 C201 1.403 . S
C208 C209 1.399 . S
C208 H214 0.929 . S
C209 C189 1.449 . S
C209 C208 1.399 . S
C209 H215 0.930 . S
H210 C190 0.931 . S
H211 C191 0.930 . S
H212 C199 0.931 . S
H213 C200 0.929 . S
H214 C208 0.929 . S
H215 C209 0.930 . S
Mn216 O221 2.095 . S
Mn216 O231 2.162 . S
Mn216 O232 2.297 . S
Mn216 O240 2.385 . S
Mn216 O241 2.209 . S
Mn216 O242 2.094 . S
Mn217 O222 2.121 . S
Mn217 N224 2.257 . S
Mn217 N233 2.282 . S
Mn217 O241 2.215 . S
Mn217 O243 2.117 . S
C218 O240 1.234 . S
C218 O241 1.283 . S
C219 O231 1.281 . S
C219 O232 1.236 . S
C220 O242 1.240 . S
C220 O243 1.264 . S
O221 Mn216 2.095 . S
O221 C230 1.250 . S
O222 Mn217 2.121 . S
O222 C230 1.258 . S
C223 N224 1.326 . S
C223 C227 1.460 . S
C223 H229 0.929 . S
N224 Mn217 2.257 . S
N224 C223 1.326 . S
N224 C228 1.362 . S
C225 C226 1.253 1_556 S
C225 C228 1.442 . S
C225 C245 1.442 1_556 S
C226 C225 1.253 1_554 S
C226 C227 1.477 1_554 S
C226 H246 0.931 . S
C227 C223 1.460 . S
C227 C226 1.477 1_556 S
C227 H247 0.930 . S
C228 N224 1.362 . S
C228 C225 1.442 . S
C228 C238 1.476 . S
H229 C223 0.929 . S
C230 O221 1.250 . S
C230 O222 1.258 . S
O231 Mn216 2.162 . S
O231 C219 1.281 . S
O232 Mn216 2.297 . S
O232 C219 1.236 . S
N233 Mn217 2.282 . S
N233 C234 1.328 . S
N233 C238 1.318 . S
C234 N233 1.328 . S
C234 C235 1.457 . S
C234 H239 0.929 . S
C235 C234 1.457 . S
C235 C236 1.291 . S
C235 H248 0.931 . S
C236 C235 1.291 . S
C236 C237 1.373 . S
C236 H249 0.929 . S
C237 C236 1.373 . S
C237 C238 1.396 . S
C237 C244 1.367 1_556 S
C238 C228 1.476 . S
C238 N233 1.318 . S
C238 C237 1.396 . S
H239 C234 0.929 . S
O240 Mn216 2.385 . S
O240 C218 1.234 . S
O241 Mn216 2.209 . S
O241 Mn217 2.215 . S
O241 C218 1.283 . S
O242 Mn216 2.094 . S
O242 C220 1.240 . S
O243 Mn217 2.117 . S
O243 C220 1.264 . S
C244 C237 1.367 1_554 S
C244 C245 1.419 . S
C244 H250 0.956 . S
C245 C225 1.442 1_554 S
C245 C244 1.419 . S
C245 H251 0.930 . S
H246 C226 0.931 . S
H247 C227 0.930 . S
H248 C235 0.931 . S
H249 C236 0.929 . S
H250 C244 0.956 . S
H251 C245 0.930 . S
Mn252 O257 2.095 . S
Mn252 O267 2.162 . S
Mn252 O268 2.297 . S
Mn252 O276 2.385 . S
Mn252 O277 2.209 . S
Mn252 O278 2.094 . S
Mn253 O258 2.121 . S
Mn253 N260 2.257 . S
Mn253 N269 2.282 . S
Mn253 O277 2.215 . S
Mn253 O279 2.117 . S
C254 O276 1.234 . S
C254 O277 1.283 . S
C255 O267 1.281 . S
C255 O268 1.236 . S
C256 O278 1.240 . S
C256 O279 1.264 . S
O257 Mn252 2.095 . S
O257 C266 1.250 . S
O258 Mn253 2.121 . S
O258 C266 1.258 . S
C259 N260 1.326 . S
C259 C263 1.460 . S
C259 H265 0.929 . S
N260 Mn253 2.257 . S
N260 C259 1.326 . S
N260 C264 1.362 . S
C261 C262 1.258 . S
C261 C264 1.431 . S
C261 C281 1.449 . S
C262 C261 1.258 . S
C262 C263 1.477 . S
C262 H282 0.931 . S
C263 C259 1.460 . S
C263 C262 1.477 . S
C263 H283 0.930 . S
C264 N260 1.362 . S
C264 C261 1.431 . S
C264 C274 1.476 . S
H265 C259 0.929 . S
C266 O257 1.250 . S
C266 O258 1.258 . S
O267 Mn252 2.162 . S
O267 C255 1.281 . S
O268 Mn252 2.297 . S
O268 C255 1.236 . S
N269 Mn253 2.282 . S
N269 C270 1.328 . S
N269 C274 1.318 . S
C270 N269 1.328 . S
C270 C271 1.457 . S
C270 H275 0.929 . S
C271 C270 1.457 . S
C271 C272 1.291 . S
C271 H284 0.931 . S
C272 C271 1.291 . S
C272 C273 1.373 . S
C272 H285 0.929 . S
C273 C272 1.373 . S
C273 C274 1.396 . S
C273 C280 1.403 . S
C274 C264 1.476 . S
C274 N269 1.318 . S
C274 C273 1.396 . S
H275 C270 0.929 . S
O276 Mn252 2.385 . S
O276 C254 1.234 . S
O277 Mn252 2.209 . S
O277 Mn253 2.215 . S
O277 C254 1.283 . S
O278 Mn252 2.094 . S
O278 C256 1.240 . S
O279 Mn253 2.117 . S
O279 C256 1.264 . S
C280 C273 1.403 . S
C280 C281 1.399 . S
C280 H286 0.929 . S
C281 C261 1.449 . S
C281 C280 1.399 . S
C281 H287 0.930 . S
H282 C262 0.931 . S
H283 C263 0.930 . S
H284 C271 0.931 . S
H285 C272 0.929 . S
H286 C280 0.929 . S
H287 C281 0.930 . S
Mn288 O293 2.095 . S
Mn288 O303 2.162 . S
Mn288 O304 2.297 . S
Mn288 O312 2.385 . S
Mn288 O313 2.209 . S
Mn288 O314 2.094 . S
Mn289 O294 2.121 . S
Mn289 N296 2.257 . S
Mn289 N305 2.282 . S
Mn289 O313 2.215 . S
Mn289 O315 2.117 . S
C290 O312 1.234 . S
C290 O313 1.283 . S
C291 O303 1.281 . S
C291 O304 1.236 . S
C292 O314 1.240 . S
C292 O315 1.264 . S
O293 Mn288 2.095 . S
O293 C302 1.250 . S
O294 Mn289 2.121 . S
O294 C302 1.258 . S
C295 N296 1.326 . S
C295 C299 1.460 . S
C295 H301 0.929 . S
N296 Mn289 2.257 . S
N296 C295 1.326 . S
N296 C300 1.362 . S
C297 C298 1.253 1_556 S
C297 C300 1.442 . S
C297 C317 1.442 1_556 S
C298 C297 1.253 1_554 S
C298 C299 1.477 1_554 S
C298 H318 0.931 . S
C299 C295 1.460 . S
C299 C298 1.477 1_556 S
C299 H319 0.930 . S
C300 N296 1.362 . S
C300 C297 1.442 . S
C300 C310 1.476 . S
H301 C295 0.929 . S
C302 O293 1.250 . S
C302 O294 1.258 . S
O303 Mn288 2.162 . S
O303 C291 1.281 . S
O304 Mn288 2.297 . S
O304 C291 1.236 . S
N305 Mn289 2.282 . S
N305 C306 1.328 . S
N305 C310 1.318 . S
C306 N305 1.328 . S
C306 C307 1.457 . S
C306 H311 0.929 . S
C307 C306 1.457 . S
C307 C308 1.291 . S
C307 H320 0.933 . S
C308 C307 1.291 . S
C308 C309 1.373 . S
C308 H321 0.951 . S
C309 C308 1.373 . S
C309 C310 1.396 . S
C309 C316 1.367 1_556 S
C310 C300 1.476 . S
C310 N305 1.318 . S
C310 C309 1.396 . S
H311 C306 0.929 . S
O312 Mn288 2.385 . S
O312 C290 1.234 . S
O313 Mn288 2.209 . S
O313 Mn289 2.215 . S
O313 C290 1.283 . S
O314 Mn288 2.094 . S
O314 C292 1.240 . S
O315 Mn289 2.117 . S
O315 C292 1.264 . S
C316 C309 1.367 1_554 S
C316 C317 1.419 . S
C316 H322 0.956 . S
C317 C297 1.442 1_554 S
C317 C316 1.419 . S
C317 H323 0.930 . S
H318 C298 0.931 . S
H319 C299 0.930 . S
H320 C307 0.933 . S
H321 C308 0.951 . S
H322 C316 0.956 . S
H323 C317 0.930 . S
Mn324 O329 2.095 . S
Mn324 O339 2.162 . S
Mn324 O340 2.297 . S
Mn324 O348 2.385 . S
Mn324 O349 2.209 . S
Mn324 O350 2.094 . S
Mn325 O330 2.121 . S
Mn325 N332 2.257 . S
Mn325 N341 2.282 . S
Mn325 O349 2.215 . S
Mn325 O351 2.117 . S
C326 O348 1.234 . S
C326 O349 1.283 . S
C327 O339 1.281 . S
C327 O340 1.236 . S
C328 O350 1.240 . S
C328 O351 1.264 . S
O329 Mn324 2.095 . S
O329 C338 1.250 . S
O330 Mn325 2.121 . S
O330 C338 1.258 . S
C331 N332 1.326 . S
C331 C335 1.460 . S
C331 H337 0.929 . S
N332 Mn325 2.257 . S
N332 C331 1.326 . S
N332 C336 1.362 . S
C333 C334 1.258 . S
C333 C336 1.431 . S
C333 C353 1.449 . S
C334 C333 1.258 . S
C334 C335 1.477 . S
C334 H354 0.931 . S
C335 C331 1.460 . S
C335 C334 1.477 . S
C335 H355 0.930 . S
C336 N332 1.362 . S
C336 C333 1.431 . S
C336 C346 1.476 . S
H337 C331 0.929 . S
C338 O329 1.250 . S
C338 O330 1.258 . S
O339 Mn324 2.162 . S
O339 C327 1.281 . S
O340 Mn324 2.297 . S
O340 C327 1.236 . S
N341 Mn325 2.282 . S
N341 C342 1.328 . S
N341 C346 1.318 . S
C342 N341 1.328 . S
C342 C343 1.457 . S
C342 H347 0.929 . S
C343 C342 1.457 . S
C343 C344 1.291 . S
C343 H356 0.931 . S
C344 C343 1.291 . S
C344 C345 1.373 . S
C344 H357 0.929 . S
C345 C344 1.373 . S
C345 C346 1.396 . S
C345 C352 1.403 . S
C346 C336 1.476 . S
C346 N341 1.318 . S
C346 C345 1.396 . S
H347 C342 0.929 . S
O348 Mn324 2.385 . S
O348 C326 1.234 . S
O349 Mn324 2.209 . S
O349 Mn325 2.215 . S
O349 C326 1.283 . S
O350 Mn324 2.094 . S
O350 C328 1.240 . S
O351 Mn325 2.117 . S
O351 C328 1.264 . S
C352 C345 1.403 . S
C352 C353 1.399 . S
C352 H358 0.929 . S
C353 C333 1.449 . S
C353 C352 1.399 . S
C353 H359 0.930 . S
H354 C334 0.931 . S
H355 C335 0.930 . S
H356 C343 0.931 . S
H357 C344 0.929 . S
H358 C352 0.929 . S
H359 C353 0.930 . S
Mn360 O365 2.095 . S
Mn360 O375 2.162 . S
Mn360 O376 2.297 . S
Mn360 O384 2.385 . S
Mn360 O385 2.209 . S
Mn360 O386 2.094 . S
Mn361 O366 2.121 . S
Mn361 N368 2.257 . S
Mn361 N377 2.282 . S
Mn361 O385 2.215 . S
Mn361 O387 2.117 . S
C362 O384 1.234 . S
C362 O385 1.283 . S
C363 O375 1.281 . S
C363 O376 1.236 . S
C364 O386 1.240 . S
C364 O387 1.264 . S
O365 Mn360 2.095 . S
O365 C374 1.250 . S
O366 Mn361 2.121 . S
O366 C374 1.258 . S
C367 N368 1.326 . S
C367 C371 1.460 . S
C367 H373 0.929 . S
N368 Mn361 2.257 . S
N368 C367 1.326 . S
N368 C372 1.362 . S
C369 C370 1.258 . S
C369 C372 1.431 . S
C369 C389 1.449 . S
C370 C369 1.258 . S
C370 C371 1.477 . S
C370 H390 0.931 . S
C371 C367 1.460 . S
C371 C370 1.477 . S
C371 H391 0.930 . S
C372 N368 1.362 . S
C372 C369 1.431 . S
C372 C382 1.476 . S
H373 C367 0.929 . S
C374 O365 1.250 . S
C374 O366 1.258 . S
O375 Mn360 2.162 . S
O375 C363 1.281 . S
O376 Mn360 2.297 . S
O376 C363 1.236 . S
N377 Mn361 2.282 . S
N377 C378 1.328 . S
N377 C382 1.318 . S
C378 N377 1.328 . S
C378 C379 1.457 . S
C378 H383 0.929 . S
C379 C378 1.457 . S
C379 C380 1.291 . S
C379 H392 0.931 . S
C380 C379 1.291 . S
C380 C381 1.373 . S
C380 H393 0.929 . S
C381 C380 1.373 . S
C381 C382 1.396 . S
C381 C388 1.403 . S
C382 C372 1.476 . S
C382 N377 1.318 . S
C382 C381 1.396 . S
H383 C378 0.929 . S
O384 Mn360 2.385 . S
O384 C362 1.234 . S
O385 Mn360 2.209 . S
O385 Mn361 2.215 . S
O385 C362 1.283 . S
O386 Mn360 2.094 . S
O386 C364 1.240 . S
O387 Mn361 2.117 . S
O387 C364 1.264 . S
C388 C381 1.403 . S
C388 C389 1.399 . S
C388 H394 0.929 . S
C389 C369 1.449 . S
C389 C388 1.399 . S
C389 H395 0.930 . S
H390 C370 0.931 . S
H391 C371 0.930 . S
H392 C379 0.931 . S
H393 C380 0.929 . S
H394 C388 0.929 . S
H395 C389 0.930 . S
Mn396 O401 2.095 . S
Mn396 O411 2.162 . S
Mn396 O412 2.297 . S
Mn396 O420 2.385 . S
Mn396 O421 2.209 . S
Mn396 O422 2.094 . S
Mn397 O402 2.121 . S
Mn397 N404 2.257 . S
Mn397 N413 2.282 . S
Mn397 O421 2.215 . S
Mn397 O423 2.117 . S
C398 O420 1.234 . S
C398 O421 1.283 . S
C399 O411 1.281 . S
C399 O412 1.236 . S
C400 O422 1.240 . S
C400 O423 1.264 . S
O401 Mn396 2.095 . S
O401 C410 1.250 . S
O402 Mn397 2.121 . S
O402 C410 1.258 . S
C403 N404 1.326 . S
C403 C407 1.460 . S
C403 H409 0.929 . S
N404 Mn397 2.257 . S
N404 C403 1.326 . S
N404 C408 1.362 . S
C405 C406 1.258 . S
C405 C408 1.431 . S
C405 C425 1.449 . S
C406 C405 1.258 . S
C406 C407 1.477 . S
C406 H426 0.931 . S
C407 C403 1.460 . S
C407 C406 1.477 . S
C407 H427 0.930 . S
C408 N404 1.362 . S
C408 C405 1.431 . S
C408 C418 1.476 . S
H409 C403 0.929 . S
C410 O401 1.250 . S
C410 O402 1.258 . S
O411 Mn396 2.162 . S
O411 C399 1.281 . S
O412 Mn396 2.297 . S
O412 C399 1.236 . S
N413 Mn397 2.282 . S
N413 C414 1.328 . S
N413 C418 1.318 . S
C414 N413 1.328 . S
C414 C415 1.457 . S
C414 H419 0.929 . S
C415 C414 1.457 . S
C415 C416 1.291 . S
C415 H428 0.931 . S
C416 C415 1.291 . S
C416 C417 1.373 . S
C416 H429 0.929 . S
C417 C416 1.373 . S
C417 C418 1.396 . S
C417 C424 1.403 . S
C418 C408 1.476 . S
C418 N413 1.318 . S
C418 C417 1.396 . S
H419 C414 0.929 . S
O420 Mn396 2.385 . S
O420 C398 1.234 . S
O421 Mn396 2.209 . S
O421 Mn397 2.215 . S
O421 C398 1.283 . S
O422 Mn396 2.094 . S
O422 C400 1.240 . S
O423 Mn397 2.117 . S
O423 C400 1.264 . S
C424 C417 1.403 . S
C424 C425 1.399 . S
C424 H430 0.929 . S
C425 C405 1.449 . S
C425 C424 1.399 . S
C425 H431 0.930 . S
H426 C406 0.931 . S
H427 C407 0.930 . S
H428 C415 0.931 . S
H429 C416 0.929 . S
H430 C424 0.929 . S
H431 C425 0.930 . S
Mn432 O437 2.095 . S
Mn432 O447 2.162 . S
Mn432 O448 2.297 . S
Mn432 O456 2.385 . S
Mn432 O457 2.209 . S
Mn432 O458 2.094 . S
Mn433 O438 2.121 . S
Mn433 N440 2.257 . S
Mn433 N449 2.282 . S
Mn433 O457 2.215 . S
Mn433 O459 2.117 . S
C434 O456 1.234 . S
C434 O457 1.283 . S
C435 O447 1.281 . S
C435 O448 1.236 . S
C436 O458 1.240 . S
C436 O459 1.264 . S
O437 Mn432 2.095 . S
O437 C446 1.250 . S
O438 Mn433 2.121 . S
O438 C446 1.258 . S
C439 N440 1.326 . S
C439 C443 1.460 . S
C439 H445 0.929 . S
N440 Mn433 2.257 . S
N440 C439 1.326 . S
N440 C444 1.362 . S
C441 C442 1.258 . S
C441 C444 1.431 . S
C441 C461 1.449 . S
C442 C441 1.258 . S
C442 C443 1.477 . S
C442 H462 0.931 . S
C443 C439 1.460 . S
C443 C442 1.477 . S
C443 H463 0.930 . S
C444 N440 1.362 . S
C444 C441 1.431 . S
C444 C454 1.476 . S
H445 C439 0.929 . S
C446 O437 1.250 . S
C446 O438 1.258 . S
O447 Mn432 2.162 . S
O447 C435 1.281 . S
O448 Mn432 2.297 . S
O448 C435 1.236 . S
N449 Mn433 2.282 . S
N449 C450 1.328 . S
N449 C454 1.318 . S
C450 N449 1.328 . S
C450 C451 1.457 . S
C450 H455 0.929 . S
C451 C450 1.457 . S
C451 C452 1.291 . S
C451 H464 0.933 . S
C452 C451 1.291 . S
C452 C453 1.373 . S
C452 H465 0.951 . S
C453 C452 1.373 . S
C453 C454 1.396 . S
C453 C460 1.403 . S
C454 C444 1.476 . S
C454 N449 1.318 . S
C454 C453 1.396 . S
H455 C450 0.929 . S
O456 Mn432 2.385 . S
O456 C434 1.234 . S
O457 Mn432 2.209 . S
O457 Mn433 2.215 . S
O457 C434 1.283 . S
O458 Mn432 2.094 . S
O458 C436 1.240 . S
O459 Mn433 2.117 . S
O459 C436 1.264 . S
C460 C453 1.403 . S
C460 C461 1.399 . S
C460 H466 0.929 . S
C461 C441 1.449 . S
C461 C460 1.399 . S
C461 H467 0.930 . S
H462 C442 0.931 . S
H463 C443 0.930 . S
H464 C451 0.933 . S
H465 C452 0.951 . S
H466 C460 0.929 . S
H467 C461 0.930 . S
Mn468 O473 2.095 . S
Mn468 O483 2.162 . S
Mn468 O484 2.297 . S
Mn468 O492 2.385 . S
Mn468 O493 2.209 . S
Mn468 O494 2.094 . S
Mn469 O474 2.121 . S
Mn469 N476 2.257 . S
Mn469 N485 2.282 . S
Mn469 O493 2.215 . S
Mn469 O495 2.117 . S
C470 O492 1.234 . S
C470 O493 1.283 . S
C471 O483 1.281 . S
C471 O484 1.236 . S
C472 O494 1.240 . S
C472 O495 1.264 . S
O473 Mn468 2.095 . S
O473 C482 1.250 . S
O474 Mn469 2.121 . S
O474 C482 1.258 . S
C475 N476 1.326 . S
C475 C479 1.460 . S
C475 H481 0.929 . S
N476 Mn469 2.257 . S
N476 C475 1.326 . S
N476 C480 1.362 . S
C477 C478 1.258 . S
C477 C480 1.431 . S
C477 C497 1.449 . S
C478 C477 1.258 . S
C478 C479 1.477 . S
C478 H498 0.931 . S
C479 C475 1.460 . S
C479 C478 1.477 . S
C479 H499 0.930 . S
C480 N476 1.362 . S
C480 C477 1.431 . S
C480 C490 1.476 . S
H481 C475 0.929 . S
C482 O473 1.250 . S
C482 O474 1.258 . S
O483 Mn468 2.162 . S
O483 C471 1.281 . S
O484 Mn468 2.297 . S
O484 C471 1.236 . S
N485 Mn469 2.282 . S
N485 C486 1.328 . S
N485 C490 1.318 . S
C486 N485 1.328 . S
C486 C487 1.457 . S
C486 H491 0.929 . S
C487 C486 1.457 . S
C487 C488 1.291 . S
C487 H500 0.931 . S
C488 C487 1.291 . S
C488 C489 1.373 . S
C488 H501 0.929 . S
C489 C488 1.373 . S
C489 C490 1.396 . S
C489 C496 1.403 . S
C490 C480 1.476 . S
C490 N485 1.318 . S
C490 C489 1.396 . S
H491 C486 0.929 . S
O492 Mn468 2.385 . S
O492 C470 1.234 . S
O493 Mn468 2.209 . S
O493 Mn469 2.215 . S
O493 C470 1.283 . S
O494 Mn468 2.094 . S
O494 C472 1.240 . S
O495 Mn469 2.117 . S
O495 C472 1.264 . S
C496 C489 1.403 . S
C496 C497 1.399 . S
C496 H502 0.929 . S
C497 C477 1.449 . S
C497 C496 1.399 . S
C497 H503 0.930 . S
H498 C478 0.931 . S
H499 C479 0.930 . S
H500 C487 0.931 . S
H501 C488 0.929 . S
H502 C496 0.929 . S
H503 C497 0.930 . S
Mn504 O509 2.095 . S
Mn504 O519 2.162 . S
Mn504 O520 2.297 . S
Mn504 O528 2.385 . S
Mn504 O529 2.209 . S
Mn504 O530 2.094 . S
Mn505 O510 2.121 . S
Mn505 N512 2.257 . S
Mn505 N521 2.282 . S
Mn505 O529 2.215 . S
Mn505 O531 2.117 . S
C506 O528 1.234 . S
C506 O529 1.283 . S
C507 O519 1.281 . S
C507 O520 1.236 . S
C508 O530 1.240 . S
C508 O531 1.264 . S
O509 Mn504 2.095 . S
O509 C518 1.250 . S
O510 Mn505 2.121 . S
O510 C518 1.258 . S
C511 N512 1.326 . S
C511 C515 1.460 . S
C511 H517 0.929 . S
N512 Mn505 2.257 . S
N512 C511 1.326 . S
N512 C516 1.362 . S
C513 C514 1.253 1_554 S
C513 C516 1.442 . S
C513 C533 1.442 1_554 S
C514 C513 1.253 1_556 S
C514 C515 1.477 1_556 S
C514 H534 0.931 . S
C515 C511 1.460 . S
C515 C514 1.477 1_554 S
C515 H535 0.930 . S
C516 N512 1.362 . S
C516 C513 1.442 . S
C516 C526 1.476 . S
H517 C511 0.929 . S
C518 O509 1.250 . S
C518 O510 1.258 . S
O519 Mn504 2.162 . S
O519 C507 1.281 . S
O520 Mn504 2.297 . S
O520 C507 1.236 . S
N521 Mn505 2.282 . S
N521 C522 1.328 . S
N521 C526 1.318 . S
C522 N521 1.328 . S
C522 C523 1.457 . S
C522 H527 0.929 . S
C523 C522 1.457 . S
C523 C524 1.291 . S
C523 H536 0.931 . S
C524 C523 1.291 . S
C524 C525 1.373 . S
C524 H537 0.929 . S
C525 C524 1.373 . S
C525 C526 1.396 . S
C525 C532 1.367 1_554 S
C526 C516 1.476 . S
C526 N521 1.318 . S
C526 C525 1.396 . S
H527 C522 0.929 . S
O528 Mn504 2.385 . S
O528 C506 1.234 . S
O529 Mn504 2.209 . S
O529 Mn505 2.215 . S
O529 C506 1.283 . S
O530 Mn504 2.094 . S
O530 C508 1.240 . S
O531 Mn505 2.117 . S
O531 C508 1.264 . S
C532 C525 1.367 1_556 S
C532 C533 1.419 . S
C532 H538 0.956 . S
C533 C513 1.442 1_556 S
C533 C532 1.419 . S
C533 H539 0.930 . S
H534 C514 0.931 . S
H535 C515 0.930 . S
H536 C523 0.931 . S
H537 C524 0.929 . S
H538 C532 0.956 . S
H539 C533 0.930 . S
Mn540 O545 2.095 . S
Mn540 O555 2.162 . S
Mn540 O556 2.297 . S
Mn540 O564 2.385 . S
Mn540 O565 2.209 . S
Mn540 O566 2.094 . S
Mn541 O546 2.121 . S
Mn541 N548 2.257 . S
Mn541 N557 2.282 . S
Mn541 O565 2.215 . S
Mn541 O567 2.117 . S
C542 O564 1.234 . S
C542 O565 1.283 . S
C543 O555 1.281 . S
C543 O556 1.236 . S
C544 O566 1.240 . S
C544 O567 1.264 . S
O545 Mn540 2.095 . S
O545 C554 1.250 . S
O546 Mn541 2.121 . S
O546 C554 1.258 . S
C547 N548 1.326 . S
C547 C551 1.460 . S
C547 H553 0.929 . S
N548 Mn541 2.257 . S
N548 C547 1.326 . S
N548 C552 1.362 . S
C549 C550 1.258 . S
C549 C552 1.431 . S
C549 C569 1.449 . S
C550 C549 1.258 . S
C550 C551 1.477 . S
C550 H570 0.931 . S
C551 C547 1.460 . S
C551 C550 1.477 . S
C551 H571 0.930 . S
C552 N548 1.362 . S
C552 C549 1.431 . S
C552 C562 1.476 . S
H553 C547 0.929 . S
C554 O545 1.250 . S
C554 O546 1.258 . S
O555 Mn540 2.162 . S
O555 C543 1.281 . S
O556 Mn540 2.297 . S
O556 C543 1.236 . S
N557 Mn541 2.282 . S
N557 C558 1.328 . S
N557 C562 1.318 . S
C558 N557 1.328 . S
C558 C559 1.457 . S
C558 H563 0.929 . S
C559 C558 1.457 . S
C559 C560 1.291 . S
C559 H572 0.931 . S
C560 C559 1.291 . S
C560 C561 1.373 . S
C560 H573 0.929 . S
C561 C560 1.373 . S
C561 C562 1.396 . S
C561 C568 1.403 . S
C562 C552 1.476 . S
C562 N557 1.318 . S
C562 C561 1.396 . S
H563 C558 0.929 . S
O564 Mn540 2.385 . S
O564 C542 1.234 . S
O565 Mn540 2.209 . S
O565 Mn541 2.215 . S
O565 C542 1.283 . S
O566 Mn540 2.094 . S
O566 C544 1.240 . S
O567 Mn541 2.117 . S
O567 C544 1.264 . S
C568 C561 1.403 . S
C568 C569 1.399 . S
C568 H574 0.929 . S
C569 C549 1.449 . S
C569 C568 1.399 . S
C569 H575 0.930 . S
H570 C550 0.931 . S
H571 C551 0.930 . S
H572 C559 0.931 . S
H573 C560 0.929 . S
H574 C568 0.929 . S
H575 C569 0.930 . S
Mn576 O581 2.095 . S
Mn576 O591 2.162 . S
Mn576 O592 2.297 . S
Mn576 O600 2.385 . S
Mn576 O601 2.209 . S
Mn576 O602 2.094 . S
Mn577 O582 2.121 . S
Mn577 N584 2.257 . S
Mn577 N593 2.282 . S
Mn577 O601 2.215 . S
Mn577 O603 2.117 . S
C578 O600 1.234 . S
C578 O601 1.283 . S
C579 O591 1.281 . S
C579 O592 1.236 . S
C580 O602 1.240 . S
C580 O603 1.264 . S
O581 Mn576 2.095 . S
O581 C590 1.250 . S
O582 Mn577 2.121 . S
O582 C590 1.258 . S
C583 N584 1.326 . S
C583 C587 1.460 . S
C583 H589 0.929 . S
N584 Mn577 2.257 . S
N584 C583 1.326 . S
N584 C588 1.362 . S
C585 C586 1.258 . S
C585 C588 1.431 . S
C585 C605 1.449 . S
C586 C585 1.258 . S
C586 C587 1.477 . S
C586 H606 0.931 . S
C587 C583 1.460 . S
C587 C586 1.477 . S
C587 H607 0.930 . S
C588 N584 1.362 . S
C588 C585 1.431 . S
C588 C598 1.476 . S
H589 C583 0.929 . S
C590 O581 1.250 . S
C590 O582 1.258 . S
O591 Mn576 2.162 . S
O591 C579 1.281 . S
O592 Mn576 2.297 . S
O592 C579 1.236 . S
N593 Mn577 2.282 . S
N593 C594 1.328 . S
N593 C598 1.318 . S
C594 N593 1.328 . S
C594 C595 1.457 . S
C594 H599 0.929 . S
C595 C594 1.457 . S
C595 C596 1.291 . S
C595 H608 0.931 . S
C596 C595 1.291 . S
C596 C597 1.373 . S
C596 H609 0.929 . S
C597 C596 1.373 . S
C597 C598 1.396 . S
C597 C604 1.403 . S
C598 C588 1.476 . S
C598 N593 1.318 . S
C598 C597 1.396 . S
H599 C594 0.929 . S
O600 Mn576 2.385 . S
O600 C578 1.234 . S
O601 Mn576 2.209 . S
O601 Mn577 2.215 . S
O601 C578 1.283 . S
O602 Mn576 2.094 . S
O602 C580 1.240 . S
O603 Mn577 2.117 . S
O603 C580 1.264 . S
C604 C597 1.403 . S
C604 C605 1.399 . S
C604 H610 0.929 . S
C605 C585 1.449 . S
C605 C604 1.399 . S
C605 H611 0.930 . S
H606 C586 0.931 . S
H607 C587 0.930 . S
H608 C595 0.931 . S
H609 C596 0.929 . S
H610 C604 0.929 . S
H611 C605 0.930 . S
Mn612 O617 2.095 . S
Mn612 O627 2.162 . S
Mn612 O628 2.297 . S
Mn612 O636 2.385 . S
Mn612 O637 2.209 . S
Mn612 O638 2.094 . S
Mn613 O618 2.121 . S
Mn613 N620 2.257 . S
Mn613 N629 2.282 . S
Mn613 O637 2.215 . S
Mn613 O639 2.117 . S
C614 O636 1.234 . S
C614 O637 1.283 . S
C615 O627 1.281 . S
C615 O628 1.236 . S
C616 O638 1.240 . S
C616 O639 1.264 . S
O617 Mn612 2.095 . S
O617 C626 1.250 . S
O618 Mn613 2.121 . S
O618 C626 1.258 . S
C619 N620 1.326 . S
C619 C623 1.460 . S
C619 H625 0.929 . S
N620 Mn613 2.257 . S
N620 C619 1.326 . S
N620 C624 1.362 . S
C621 C622 1.258 . S
C621 C624 1.431 . S
C621 C641 1.449 . S
C622 C621 1.258 . S
C622 C623 1.477 . S
C622 H642 0.931 . S
C623 C619 1.460 . S
C623 C622 1.477 . S
C623 H643 0.930 . S
C624 N620 1.362 . S
C624 C621 1.431 . S
C624 C634 1.476 . S
H625 C619 0.929 . S
C626 O617 1.250 . S
C626 O618 1.258 . S
O627 Mn612 2.162 . S
O627 C615 1.281 . S
O628 Mn612 2.297 . S
O628 C615 1.236 . S
N629 Mn613 2.282 . S
N629 C630 1.328 . S
N629 C634 1.318 . S
C630 N629 1.328 . S
C630 C631 1.457 . S
C630 H635 0.929 . S
C631 C630 1.457 . S
C631 C632 1.291 . S
C631 H644 0.931 . S
C632 C631 1.291 . S
C632 C633 1.373 . S
C632 H645 0.929 . S
C633 C632 1.373 . S
C633 C634 1.396 . S
C633 C640 1.403 . S
C634 C624 1.476 . S
C634 N629 1.318 . S
C634 C633 1.396 . S
H635 C630 0.929 . S
O636 Mn612 2.385 . S
O636 C614 1.234 . S
O637 Mn612 2.209 . S
O637 Mn613 2.215 . S
O637 C614 1.283 . S
O638 Mn612 2.094 . S
O638 C616 1.240 . S
O639 Mn613 2.117 . S
O639 C616 1.264 . S
C640 C633 1.403 . S
C640 C641 1.399 . S
C640 H646 0.929 . S
C641 C621 1.449 . S
C641 C640 1.399 . S
C641 H647 0.930 . S
H642 C622 0.931 . S
H643 C623 0.930 . S
H644 C631 0.931 . S
H645 C632 0.929 . S
H646 C640 0.929 . S
H647 C641 0.930 . S
Mn648 O653 2.095 . S
Mn648 O663 2.162 . S
Mn648 O664 2.297 . S
Mn648 O672 2.385 . S
Mn648 O673 2.209 . S
Mn648 O674 2.094 . S
Mn649 O654 2.121 . S
Mn649 N656 2.257 . S
Mn649 N665 2.282 . S
Mn649 O673 2.215 . S
Mn649 O675 2.117 . S
C650 O672 1.234 . S
C650 O673 1.283 . S
C651 O663 1.281 . S
C651 O664 1.236 . S
C652 O674 1.240 . S
C652 O675 1.264 . S
O653 Mn648 2.095 . S
O653 C662 1.250 . S
O654 Mn649 2.121 . S
O654 C662 1.258 . S
C655 N656 1.326 . S
C655 C659 1.460 . S
C655 H661 0.929 . S
N656 Mn649 2.257 . S
N656 C655 1.326 . S
N656 C660 1.362 . S
C657 C658 1.253 1_554 S
C657 C660 1.442 . S
C657 C677 1.442 1_554 S
C658 C657 1.253 1_556 S
C658 C659 1.477 1_556 S
C658 H678 0.931 . S
C659 C655 1.460 . S
C659 C658 1.477 1_554 S
C659 H679 0.930 . S
C660 N656 1.362 . S
C660 C657 1.442 . S
C660 C670 1.476 . S
H661 C655 0.929 . S
C662 O653 1.250 . S
C662 O654 1.258 . S
O663 Mn648 2.162 . S
O663 C651 1.281 . S
O664 Mn648 2.297 . S
O664 C651 1.236 . S
N665 Mn649 2.282 . S
N665 C666 1.328 . S
N665 C670 1.318 . S
C666 N665 1.328 . S
C666 C667 1.457 . S
C666 H671 0.929 . S
C667 C666 1.457 . S
C667 C668 1.291 . S
C667 H680 0.933 . S
C668 C667 1.291 . S
C668 C669 1.373 . S
C668 H681 0.951 . S
C669 C668 1.373 . S
C669 C670 1.396 . S
C669 C676 1.367 1_554 S
C670 C660 1.476 . S
C670 N665 1.318 . S
C670 C669 1.396 . S
H671 C666 0.929 . S
O672 Mn648 2.385 . S
O672 C650 1.234 . S
O673 Mn648 2.209 . S
O673 Mn649 2.215 . S
O673 C650 1.283 . S
O674 Mn648 2.094 . S
O674 C652 1.240 . S
O675 Mn649 2.117 . S
O675 C652 1.264 . S
C676 C669 1.367 1_556 S
C676 C677 1.419 . S
C676 H682 0.956 . S
C677 C657 1.442 1_556 S
C677 C676 1.419 . S
C677 H683 0.930 . S
H678 C658 0.931 . S
H679 C659 0.930 . S
H680 C667 0.933 . S
H681 C668 0.951 . S
H682 C676 0.956 . S
H683 C677 0.930 . S
Mn684 O689 2.095 . S
Mn684 O699 2.162 . S
Mn684 O700 2.297 . S
Mn684 O708 2.385 . S
Mn684 O709 2.209 . S
Mn684 O710 2.094 . S
Mn685 O690 2.121 . S
Mn685 N692 2.257 . S
Mn685 N701 2.282 . S
Mn685 O709 2.215 . S
Mn685 O711 2.117 . S
C686 O708 1.234 . S
C686 O709 1.283 . S
C687 O699 1.281 . S
C687 O700 1.236 . S
C688 O710 1.240 . S
C688 O711 1.264 . S
O689 Mn684 2.095 . S
O689 C698 1.250 . S
O690 Mn685 2.121 . S
O690 C698 1.258 . S
C691 N692 1.326 . S
C691 C695 1.460 . S
C691 H697 0.929 . S
N692 Mn685 2.257 . S
N692 C691 1.326 . S
N692 C696 1.362 . S
C693 C694 1.258 . S
C693 C696 1.431 . S
C693 C713 1.449 . S
C694 C693 1.258 . S
C694 C695 1.477 . S
C694 H714 0.931 . S
C695 C691 1.460 . S
C695 C694 1.477 . S
C695 H715 0.930 . S
C696 N692 1.362 . S
C696 C693 1.431 . S
C696 C706 1.476 . S
H697 C691 0.929 . S
C698 O689 1.250 . S
C698 O690 1.258 . S
O699 Mn684 2.162 . S
O699 C687 1.281 . S
O700 Mn684 2.297 . S
O700 C687 1.236 . S
N701 Mn685 2.282 . S
N701 C702 1.328 . S
N701 C706 1.318 . S
C702 N701 1.328 . S
C702 C703 1.457 . S
C702 H707 0.929 . S
C703 C702 1.457 . S
C703 C704 1.291 . S
C703 H716 0.931 . S
C704 C703 1.291 . S
C704 C705 1.373 . S
C704 H717 0.929 . S
C705 C704 1.373 . S
C705 C706 1.396 . S
C705 C712 1.403 . S
C706 C696 1.476 . S
C706 N701 1.318 . S
C706 C705 1.396 . S
H707 C702 0.929 . S
O708 Mn684 2.385 . S
O708 C686 1.234 . S
O709 Mn684 2.209 . S
O709 Mn685 2.215 . S
O709 C686 1.283 . S
O710 Mn684 2.094 . S
O710 C688 1.240 . S
O711 Mn685 2.117 . S
O711 C688 1.264 . S
C712 C705 1.403 . S
C712 C713 1.399 . S
C712 H718 0.929 . S
C713 C693 1.449 . S
C713 C712 1.399 . S
C713 H719 0.930 . S
H714 C694 0.931 . S
H715 C695 0.930 . S
H716 C703 0.931 . S
H717 C704 0.929 . S
H718 C712 0.929 . S
H719 C713 0.930 . S
Mn720 O725 2.095 . S
Mn720 O735 2.162 . S
Mn720 O736 2.297 . S
Mn720 O744 2.385 . S
Mn720 O745 2.209 . S
Mn720 O746 2.094 . S
Mn721 O726 2.121 . S
Mn721 N728 2.257 . S
Mn721 N737 2.282 . S
Mn721 O745 2.215 . S
Mn721 O747 2.117 . S
C722 O744 1.234 . S
C722 O745 1.283 . S
C723 O735 1.281 . S
C723 O736 1.236 . S
C724 O746 1.240 . S
C724 O747 1.264 . S
O725 Mn720 2.095 . S
O725 C734 1.250 . S
O726 Mn721 2.121 . S
O726 C734 1.258 . S
C727 N728 1.326 . S
C727 C731 1.460 . S
C727 H733 0.929 . S
N728 Mn721 2.257 . S
N728 C727 1.326 . S
N728 C732 1.362 . S
C729 C730 1.253 1_556 S
C729 C732 1.442 . S
C729 C749 1.442 1_556 S
C730 C729 1.253 1_554 S
C730 C731 1.477 1_554 S
C730 H750 0.931 . S
C731 C727 1.460 . S
C731 C730 1.477 1_556 S
C731 H751 0.930 . S
C732 N728 1.362 . S
C732 C729 1.442 . S
C732 C742 1.476 . S
H733 C727 0.929 . S
C734 O725 1.250 . S
C734 O726 1.258 . S
O735 Mn720 2.162 . S
O735 C723 1.281 . S
O736 Mn720 2.297 . S
O736 C723 1.236 . S
N737 Mn721 2.282 . S
N737 C738 1.328 . S
N737 C742 1.318 . S
C738 N737 1.328 . S
C738 C739 1.457 . S
C738 H743 0.929 . S
C739 C738 1.457 . S
C739 C740 1.291 . S
C739 H752 0.931 . S
C740 C739 1.291 . S
C740 C741 1.373 . S
C740 H753 0.929 . S
C741 C740 1.373 . S
C741 C742 1.396 . S
C741 C748 1.367 1_556 S
C742 C732 1.476 . S
C742 N737 1.318 . S
C742 C741 1.396 . S
H743 C738 0.929 . S
O744 Mn720 2.385 . S
O744 C722 1.234 . S
O745 Mn720 2.209 . S
O745 Mn721 2.215 . S
O745 C722 1.283 . S
O746 Mn720 2.094 . S
O746 C724 1.240 . S
O747 Mn721 2.117 . S
O747 C724 1.264 . S
C748 C741 1.367 1_554 S
C748 C749 1.419 . S
C748 H754 0.956 . S
C749 C729 1.442 1_554 S
C749 C748 1.419 . S
C749 H755 0.930 . S
H750 C730 0.931 . S
H751 C731 0.930 . S
H752 C739 0.931 . S
H753 C740 0.929 . S
H754 C748 0.956 . S
H755 C749 0.930 . S
Mn756 O761 2.095 . S
Mn756 O771 2.162 . S
Mn756 O772 2.297 . S
Mn756 O780 2.385 . S
Mn756 O781 2.209 . S
Mn756 O782 2.094 . S
Mn757 O762 2.121 . S
Mn757 N764 2.257 . S
Mn757 N773 2.282 . S
Mn757 O781 2.215 . S
Mn757 O783 2.117 . S
C758 O780 1.234 . S
C758 O781 1.283 . S
C759 O771 1.281 . S
C759 O772 1.236 . S
C760 O782 1.240 . S
C760 O783 1.264 . S
O761 Mn756 2.095 . S
O761 C770 1.250 . S
O762 Mn757 2.121 . S
O762 C770 1.258 . S
C763 N764 1.326 . S
C763 C767 1.460 . S
C763 H769 0.929 . S
N764 Mn757 2.257 . S
N764 C763 1.326 . S
N764 C768 1.362 . S
C765 C766 1.258 . S
C765 C768 1.431 . S
C765 C785 1.449 . S
C766 C765 1.258 . S
C766 C767 1.477 . S
C766 H786 0.931 . S
C767 C763 1.460 . S
C767 C766 1.477 . S
C767 H787 0.930 . S
C768 N764 1.362 . S
C768 C765 1.431 . S
C768 C778 1.476 . S
H769 C763 0.929 . S
C770 O761 1.250 . S
C770 O762 1.258 . S
O771 Mn756 2.162 . S
O771 C759 1.281 . S
O772 Mn756 2.297 . S
O772 C759 1.236 . S
N773 Mn757 2.282 . S
N773 C774 1.328 . S
N773 C778 1.318 . S
C774 N773 1.328 . S
C774 C775 1.457 . S
C774 H779 0.929 . S
C775 C774 1.457 . S
C775 C776 1.291 . S
C775 H788 0.931 . S
C776 C775 1.291 . S
C776 C777 1.373 . S
C776 H789 0.929 . S
C777 C776 1.373 . S
C777 C778 1.396 . S
C777 C784 1.403 . S
C778 C768 1.476 . S
C778 N773 1.318 . S
C778 C777 1.396 . S
H779 C774 0.929 . S
O780 Mn756 2.385 . S
O780 C758 1.234 . S
O781 Mn756 2.209 . S
O781 Mn757 2.215 . S
O781 C758 1.283 . S
O782 Mn756 2.094 . S
O782 C760 1.240 . S
O783 Mn757 2.117 . S
O783 C760 1.264 . S
C784 C777 1.403 . S
C784 C785 1.399 . S
C784 H790 0.929 . S
C785 C765 1.449 . S
C785 C784 1.399 . S
C785 H791 0.930 . S
H786 C766 0.931 . S
H787 C767 0.930 . S
H788 C775 0.931 . S
H789 C776 0.929 . S
H790 C784 0.929 . S
H791 C785 0.930 . S
Mn792 O797 2.095 . S
Mn792 O807 2.162 . S
Mn792 O808 2.297 . S
Mn792 O816 2.385 . S
Mn792 O817 2.209 . S
Mn792 O818 2.094 . S
Mn793 O798 2.121 . S
Mn793 N800 2.257 . S
Mn793 N809 2.282 . S
Mn793 O817 2.215 . S
Mn793 O819 2.117 . S
C794 O816 1.234 . S
C794 O817 1.283 . S
C795 O807 1.281 . S
C795 O808 1.236 . S
C796 O818 1.240 . S
C796 O819 1.264 . S
O797 Mn792 2.095 . S
O797 C806 1.250 . S
O798 Mn793 2.121 . S
O798 C806 1.258 . S
C799 N800 1.326 . S
C799 C803 1.460 . S
C799 H805 0.929 . S
N800 Mn793 2.257 . S
N800 C799 1.326 . S
N800 C804 1.362 . S
C801 C802 1.258 . S
C801 C804 1.431 . S
C801 C821 1.449 . S
C802 C801 1.258 . S
C802 C803 1.477 . S
C802 H822 0.931 . S
C803 C799 1.460 . S
C803 C802 1.477 . S
C803 H823 0.930 . S
C804 N800 1.362 . S
C804 C801 1.431 . S
C804 C814 1.476 . S
H805 C799 0.929 . S
C806 O797 1.250 . S
C806 O798 1.258 . S
O807 Mn792 2.162 . S
O807 C795 1.281 . S
O808 Mn792 2.297 . S
O808 C795 1.236 . S
N809 Mn793 2.282 . S
N809 C810 1.328 . S
N809 C814 1.318 . S
C810 N809 1.328 . S
C810 C811 1.457 . S
C810 H815 0.929 . S
C811 C810 1.457 . S
C811 C812 1.291 . S
C811 H824 0.933 . S
C812 C811 1.291 . S
C812 C813 1.373 . S
C812 H825 0.951 . S
C813 C812 1.373 . S
C813 C814 1.396 . S
C813 C820 1.403 . S
C814 C804 1.476 . S
C814 N809 1.318 . S
C814 C813 1.396 . S
H815 C810 0.929 . S
O816 Mn792 2.385 . S
O816 C794 1.234 . S
O817 Mn792 2.209 . S
O817 Mn793 2.215 . S
O817 C794 1.283 . S
O818 Mn792 2.094 . S
O818 C796 1.240 . S
O819 Mn793 2.117 . S
O819 C796 1.264 . S
C820 C813 1.403 . S
C820 C821 1.399 . S
C820 H826 0.929 . S
C821 C801 1.449 . S
C821 C820 1.399 . S
C821 H827 0.930 . S
H822 C802 0.931 . S
H823 C803 0.930 . S
H824 C811 0.933 . S
H825 C812 0.951 . S
H826 C820 0.929 . S
H827 C821 0.930 . S
Mn828 O833 2.095 . S
Mn828 O843 2.162 . S
Mn828 O844 2.297 . S
Mn828 O852 2.385 . S
Mn828 O853 2.209 . S
Mn828 O854 2.094 . S
Mn829 O834 2.121 . S
Mn829 N836 2.257 . S
Mn829 N845 2.282 . S
Mn829 O853 2.215 . S
Mn829 O855 2.117 . S
C830 O852 1.234 . S
C830 O853 1.283 . S
C831 O843 1.281 . S
C831 O844 1.236 . S
C832 O854 1.240 . S
C832 O855 1.264 . S
O833 Mn828 2.095 . S
O833 C842 1.250 . S
O834 Mn829 2.121 . S
O834 C842 1.258 . S
C835 N836 1.326 . S
C835 C839 1.460 . S
C835 H841 0.929 . S
N836 Mn829 2.257 . S
N836 C835 1.326 . S
N836 C840 1.362 . S
C837 C838 1.258 . S
C837 C840 1.431 . S
C837 C857 1.449 . S
C838 C837 1.258 . S
C838 C839 1.477 . S
C838 H858 0.931 . S
C839 C835 1.460 . S
C839 C838 1.477 . S
C839 H859 0.930 . S
C840 N836 1.362 . S
C840 C837 1.431 . S
C840 C850 1.476 . S
H841 C835 0.929 . S
C842 O833 1.250 . S
C842 O834 1.258 . S
O843 Mn828 2.162 . S
O843 C831 1.281 . S
O844 Mn828 2.297 . S
O844 C831 1.236 . S
N845 Mn829 2.282 . S
N845 C846 1.328 . S
N845 C850 1.318 . S
C846 N845 1.328 . S
C846 C847 1.457 . S
C846 H851 0.929 . S
C847 C846 1.457 . S
C847 C848 1.291 . S
C847 H860 0.931 . S
C848 C847 1.291 . S
C848 C849 1.373 . S
C848 H861 0.929 . S
C849 C848 1.373 . S
C849 C850 1.396 . S
C849 C856 1.403 . S
C850 C840 1.476 . S
C850 N845 1.318 . S
C850 C849 1.396 . S
H851 C846 0.929 . S
O852 Mn828 2.385 . S
O852 C830 1.234 . S
O853 Mn828 2.209 . S
O853 Mn829 2.215 . S
O853 C830 1.283 . S
O854 Mn828 2.094 . S
O854 C832 1.240 . S
O855 Mn829 2.117 . S
O855 C832 1.264 . S
C856 C849 1.403 . S
C856 C857 1.399 . S
C856 H862 0.929 . S
C857 C837 1.449 . S
C857 C856 1.399 . S
C857 H863 0.930 . S
H858 C838 0.931 . S
H859 C839 0.930 . S
H860 C847 0.931 . S
H861 C848 0.929 . S
H862 C856 0.929 . S
H863 C857 0.930 . S
Mn864 O869 2.095 . S
Mn864 O879 2.162 . S
Mn864 O880 2.297 . S
Mn864 O888 2.385 . S
Mn864 O889 2.209 . S
Mn864 O890 2.094 . S
Mn865 O870 2.121 . S
Mn865 N872 2.257 . S
Mn865 N881 2.282 . S
Mn865 O889 2.215 . S
Mn865 O891 2.117 . S
C866 O888 1.234 . S
C866 O889 1.283 . S
C867 O879 1.281 . S
C867 O880 1.236 . S
C868 O890 1.240 . S
C868 O891 1.264 . S
O869 Mn864 2.095 . S
O869 C878 1.250 . S
O870 Mn865 2.121 . S
O870 C878 1.258 . S
C871 N872 1.326 . S
C871 C875 1.460 . S
C871 H877 0.929 . S
N872 Mn865 2.257 . S
N872 C871 1.326 . S
N872 C876 1.362 . S
C873 C874 1.258 . S
C873 C876 1.431 . S
C873 C893 1.449 . S
C874 C873 1.258 . S
C874 C875 1.477 . S
C874 H894 0.931 . S
C875 C871 1.460 . S
C875 C874 1.477 . S
C875 H895 0.930 . S
C876 N872 1.362 . S
C876 C873 1.431 . S
C876 C886 1.476 . S
H877 C871 0.929 . S
C878 O869 1.250 . S
C878 O870 1.258 . S
O879 Mn864 2.162 . S
O879 C867 1.281 . S
O880 Mn864 2.297 . S
O880 C867 1.236 . S
N881 Mn865 2.282 . S
N881 C882 1.328 . S
N881 C886 1.318 . S
C882 N881 1.328 . S
C882 C883 1.457 . S
C882 H887 0.929 . S
C883 C882 1.457 . S
C883 C884 1.291 . S
C883 H896 0.931 . S
C884 C883 1.291 . S
C884 C885 1.373 . S
C884 H897 0.929 . S
C885 C884 1.373 . S
C885 C886 1.396 . S
C885 C892 1.403 . S
C886 C876 1.476 . S
C886 N881 1.318 . S
C886 C885 1.396 . S
H887 C882 0.929 . S
O888 Mn864 2.385 . S
O888 C866 1.234 . S
O889 Mn864 2.209 . S
O889 Mn865 2.215 . S
O889 C866 1.283 . S
O890 Mn864 2.094 . S
O890 C868 1.240 . S
O891 Mn865 2.117 . S
O891 C868 1.264 . S
C892 C885 1.403 . S
C892 C893 1.399 . S
C892 H898 0.929 . S
C893 C873 1.449 . S
C893 C892 1.399 . S
C893 H899 0.930 . S
H894 C874 0.931 . S
H895 C875 0.930 . S
H896 C883 0.931 . S
H897 C884 0.929 . S
H898 C892 0.929 . S
H899 C893 0.930 . S
Mn900 O905 2.095 . S
Mn900 O915 2.162 . S
Mn900 O916 2.297 . S
Mn900 O924 2.385 . S
Mn900 O925 2.209 . S
Mn900 O926 2.094 . S
Mn901 O906 2.121 . S
Mn901 N908 2.257 . S
Mn901 N917 2.282 . S
Mn901 O925 2.215 . S
Mn901 O927 2.117 . S
C902 O924 1.234 . S
C902 O925 1.283 . S
C903 O915 1.281 . S
C903 O916 1.236 . S
C904 O926 1.240 . S
C904 O927 1.264 . S
O905 Mn900 2.095 . S
O905 C914 1.250 . S
O906 Mn901 2.121 . S
O906 C914 1.258 . S
C907 N908 1.326 . S
C907 C911 1.460 . S
C907 H913 0.929 . S
N908 Mn901 2.257 . S
N908 C907 1.326 . S
N908 C912 1.362 . S
C909 C910 1.258 . S
C909 C912 1.431 . S
C909 C929 1.449 . S
C910 C909 1.258 . S
C910 C911 1.477 . S
C910 H930 0.931 . S
C911 C907 1.460 . S
C911 C910 1.477 . S
C911 H931 0.930 . S
C912 N908 1.362 . S
C912 C909 1.431 . S
C912 C922 1.476 . S
H913 C907 0.929 . S
C914 O905 1.250 . S
C914 O906 1.258 . S
O915 Mn900 2.162 . S
O915 C903 1.281 . S
O916 Mn900 2.297 . S
O916 C903 1.236 . S
N917 Mn901 2.282 . S
N917 C918 1.328 . S
N917 C922 1.318 . S
C918 N917 1.328 . S
C918 C919 1.457 . S
C918 H923 0.929 . S
C919 C918 1.457 . S
C919 C920 1.291 . S
C919 H932 0.931 . S
C920 C919 1.291 . S
C920 C921 1.373 . S
C920 H933 0.929 . S
C921 C920 1.373 . S
C921 C922 1.396 . S
C921 C928 1.403 . S
C922 C912 1.476 . S
C922 N917 1.318 . S
C922 C921 1.396 . S
H923 C918 0.929 . S
O924 Mn900 2.385 . S
O924 C902 1.234 . S
O925 Mn900 2.209 . S
O925 Mn901 2.215 . S
O925 C902 1.283 . S
O926 Mn900 2.094 . S
O926 C904 1.240 . S
O927 Mn901 2.117 . S
O927 C904 1.264 . S
C928 C921 1.403 . S
C928 C929 1.399 . S
C928 H934 0.929 . S
C929 C909 1.449 . S
C929 C928 1.399 . S
C929 H935 0.930 . S
H930 C910 0.931 . S
H931 C911 0.930 . S
H932 C919 0.931 . S
H933 C920 0.929 . S
H934 C928 0.929 . S
H935 C929 0.930 . S
Mn936 O941 2.095 . S
Mn936 O951 2.162 . S
Mn936 O952 2.297 . S
Mn936 O960 2.385 . S
Mn936 O961 2.209 . S
Mn936 O962 2.094 . S
Mn937 O942 2.121 . S
Mn937 N944 2.257 . S
Mn937 N953 2.282 . S
Mn937 O961 2.215 . S
Mn937 O963 2.117 . S
C938 O960 1.234 . S
C938 O961 1.283 . S
C939 O951 1.281 . S
C939 O952 1.236 . S
C940 O962 1.240 . S
C940 O963 1.264 . S
O941 Mn936 2.095 . S
O941 C950 1.250 . S
O942 Mn937 2.121 . S
O942 C950 1.258 . S
C943 N944 1.326 . S
C943 C947 1.460 . S
C943 H949 0.929 . S
N944 Mn937 2.257 . S
N944 C943 1.326 . S
N944 C948 1.362 . S
C945 C946 1.253 1_556 S
C945 C948 1.442 . S
C945 C965 1.442 1_556 S
C946 C945 1.253 1_554 S
C946 C947 1.477 1_554 S
C946 H966 0.931 . S
C947 C943 1.460 . S
C947 C946 1.477 1_556 S
C947 H967 0.930 . S
C948 N944 1.362 . S
C948 C945 1.442 . S
C948 C958 1.476 . S
H949 C943 0.929 . S
C950 O941 1.250 . S
C950 O942 1.258 . S
O951 Mn936 2.162 . S
O951 C939 1.281 . S
O952 Mn936 2.297 . S
O952 C939 1.236 . S
N953 Mn937 2.282 . S
N953 C954 1.328 . S
N953 C958 1.318 . S
C954 N953 1.328 . S
C954 C955 1.457 . S
C954 H959 0.929 . S
C955 C954 1.457 . S
C955 C956 1.291 . S
C955 H968 0.933 . S
C956 C955 1.291 . S
C956 C957 1.373 . S
C956 H969 0.951 . S
C957 C956 1.373 . S
C957 C958 1.396 . S
C957 C964 1.367 1_556 S
C958 C948 1.476 . S
C958 N953 1.318 . S
C958 C957 1.396 . S
H959 C954 0.929 . S
O960 Mn936 2.385 . S
O960 C938 1.234 . S
O961 Mn936 2.209 . S
O961 Mn937 2.215 . S
O961 C938 1.283 . S
O962 Mn936 2.094 . S
O962 C940 1.240 . S
O963 Mn937 2.117 . S
O963 C940 1.264 . S
C964 C957 1.367 1_554 S
C964 C965 1.419 . S
C964 H970 0.956 . S
C965 C945 1.442 1_554 S
C965 C964 1.419 . S
C965 H971 0.930 . S
H966 C946 0.931 . S
H967 C947 0.930 . S
H968 C955 0.933 . S
H969 C956 0.951 . S
H970 C964 0.956 . S
H971 C965 0.930 . S
Mn972 O977 2.095 . S
Mn972 O987 2.162 . S
Mn972 O988 2.297 . S
Mn972 O996 2.385 . S
Mn972 O997 2.209 . S
Mn972 O998 2.094 . S
Mn973 O978 2.121 . S
Mn973 N980 2.257 . S
Mn973 N989 2.282 . S
Mn973 O997 2.215 . S
Mn973 O999 2.117 . S
C974 O996 1.234 . S
C974 O997 1.283 . S
C975 O987 1.281 . S
C975 O988 1.236 . S
C976 O998 1.240 . S
C976 O999 1.264 . S
O977 Mn972 2.095 . S
O977 C986 1.250 . S
O978 Mn973 2.121 . S
O978 C986 1.258 . S
C979 N980 1.326 . S
C979 C983 1.460 . S
C979 H985 0.929 . S
N980 Mn973 2.257 . S
N980 C979 1.326 . S
N980 C984 1.362 . S
C981 C982 1.258 . S
C981 C984 1.431 . S
C981 C1001 1.449 . S
C982 C981 1.258 . S
C982 C983 1.477 . S
C982 H1002 0.931 . S
C983 C979 1.460 . S
C983 C982 1.477 . S
C983 H1003 0.930 . S
C984 N980 1.362 . S
C984 C981 1.431 . S
C984 C994 1.476 . S
H985 C979 0.929 . S
C986 O977 1.250 . S
C986 O978 1.258 . S
O987 Mn972 2.162 . S
O987 C975 1.281 . S
O988 Mn972 2.297 . S
O988 C975 1.236 . S
N989 Mn973 2.282 . S
N989 C990 1.328 . S
N989 C994 1.318 . S
C990 N989 1.328 . S
C990 C991 1.457 . S
C990 H995 0.929 . S
C991 C990 1.457 . S
C991 C992 1.291 . S
C991 H1004 0.931 . S
C992 C991 1.291 . S
C992 C993 1.373 . S
C992 H1005 0.929 . S
C993 C992 1.373 . S
C993 C994 1.396 . S
C993 C1000 1.403 . S
C994 C984 1.476 . S
C994 N989 1.318 . S
C994 C993 1.396 . S
H995 C990 0.929 . S
O996 Mn972 2.385 . S
O996 C974 1.234 . S
O997 Mn972 2.209 . S
O997 Mn973 2.215 . S
O997 C974 1.283 . S
O998 Mn972 2.094 . S
O998 C976 1.240 . S
O999 Mn973 2.117 . S
O999 C976 1.264 . S
C1000 C993 1.403 . S
C1000 C1001 1.399 . S
C1000 H1006 0.929 . S
C1001 C981 1.449 . S
C1001 C1000 1.399 . S
C1001 H1007 0.930 . S
H1002 C982 0.931 . S
H1003 C983 0.930 . S
H1004 C991 0.931 . S
H1005 C992 0.929 . S
H1006 C1000 0.929 . S
H1007 C1001 0.930 . S
Mn1008 O1013 2.095 . S
Mn1008 O1023 2.162 . S
Mn1008 O1024 2.297 . S
Mn1008 O1032 2.385 . S
Mn1008 O1033 2.209 . S
Mn1008 O1034 2.094 . S
Mn1009 O1014 2.121 . S
Mn1009 N1016 2.257 . S
Mn1009 N1025 2.282 . S
Mn1009 O1033 2.215 . S
Mn1009 O1035 2.117 . S
C1010 O1032 1.234 . S
C1010 O1033 1.283 . S
C1011 O1023 1.281 . S
C1011 O1024 1.236 . S
C1012 O1034 1.240 . S
C1012 O1035 1.264 . S
O1013 Mn1008 2.095 . S
O1013 C1022 1.250 . S
O1014 Mn1009 2.121 . S
O1014 C1022 1.258 . S
C1015 N1016 1.326 . S
C1015 C1019 1.460 . S
C1015 H1021 0.929 . S
N1016 Mn1009 2.257 . S
N1016 C1015 1.326 . S
N1016 C1020 1.362 . S
C1017 C1018 1.253 1_554 S
C1017 C1020 1.442 . S
C1017 C1037 1.442 1_554 S
C1018 C1017 1.253 1_556 S
C1018 C1019 1.477 1_556 S
C1018 H1038 0.931 . S
C1019 C1015 1.460 . S
C1019 C1018 1.477 1_554 S
C1019 H1039 0.930 . S
C1020 N1016 1.362 . S
C1020 C1017 1.442 . S
C1020 C1030 1.476 . S
H1021 C1015 0.929 . S
C1022 O1013 1.250 . S
C1022 O1014 1.258 . S
O1023 Mn1008 2.162 . S
O1023 C1011 1.281 . S
O1024 Mn1008 2.297 . S
O1024 C1011 1.236 . S
N1025 Mn1009 2.282 . S
N1025 C1026 1.328 . S
N1025 C1030 1.318 . S
C1026 N1025 1.328 . S
C1026 C1027 1.457 . S
C1026 H1031 0.929 . S
C1027 C1026 1.457 . S
C1027 C1028 1.291 . S
C1027 H1040 0.931 . S
C1028 C1027 1.291 . S
C1028 C1029 1.373 . S
C1028 H1041 0.929 . S
C1029 C1028 1.373 . S
C1029 C1030 1.396 . S
C1029 C1036 1.367 1_554 S
C1030 C1020 1.476 . S
C1030 N1025 1.318 . S
C1030 C1029 1.396 . S
H1031 C1026 0.929 . S
O1032 Mn1008 2.385 . S
O1032 C1010 1.234 . S
O1033 Mn1008 2.209 . S
O1033 Mn1009 2.215 . S
O1033 C1010 1.283 . S
O1034 Mn1008 2.094 . S
O1034 C1012 1.240 . S
O1035 Mn1009 2.117 . S
O1035 C1012 1.264 . S
C1036 C1029 1.367 1_556 S
C1036 C1037 1.419 . S
C1036 H1042 0.956 . S
C1037 C1017 1.442 1_556 S
C1037 C1036 1.419 . S
C1037 H1043 0.930 . S
H1038 C1018 0.931 . S
H1039 C1019 0.930 . S
H1040 C1027 0.931 . S
H1041 C1028 0.929 . S
H1042 C1036 0.956 . S
H1043 C1037 0.930 . S
Mn1044 O1049 2.095 . S
Mn1044 O1059 2.162 . S
Mn1044 O1060 2.297 . S
Mn1044 O1068 2.385 . S
Mn1044 O1069 2.209 . S
Mn1044 O1070 2.094 . S
Mn1045 O1050 2.121 . S
Mn1045 N1052 2.257 . S
Mn1045 N1061 2.282 . S
Mn1045 O1069 2.215 . S
Mn1045 O1071 2.117 . S
C1046 O1068 1.234 . S
C1046 O1069 1.283 . S
C1047 O1059 1.281 . S
C1047 O1060 1.236 . S
C1048 O1070 1.240 . S
C1048 O1071 1.264 . S
O1049 Mn1044 2.095 . S
O1049 C1058 1.250 . S
O1050 Mn1045 2.121 . S
O1050 C1058 1.258 . S
C1051 N1052 1.326 . S
C1051 C1055 1.460 . S
C1051 H1057 0.929 . S
N1052 Mn1045 2.257 . S
N1052 C1051 1.326 . S
N1052 C1056 1.362 . S
C1053 C1054 1.258 . S
C1053 C1056 1.431 . S
C1053 C1073 1.449 . S
C1054 C1053 1.258 . S
C1054 C1055 1.477 . S
C1054 H1074 0.931 . S
C1055 C1051 1.460 . S
C1055 C1054 1.477 . S
C1055 H1075 0.930 . S
C1056 N1052 1.362 . S
C1056 C1053 1.431 . S
C1056 C1066 1.476 . S
H1057 C1051 0.929 . S
C1058 O1049 1.250 . S
C1058 O1050 1.258 . S
O1059 Mn1044 2.162 . S
O1059 C1047 1.281 . S
O1060 Mn1044 2.297 . S
O1060 C1047 1.236 . S
N1061 Mn1045 2.282 . S
N1061 C1062 1.328 . S
N1061 C1066 1.318 . S
C1062 N1061 1.328 . S
C1062 C1063 1.457 . S
C1062 H1067 0.929 . S
C1063 C1062 1.457 . S
C1063 C1064 1.291 . S
C1063 H1076 0.931 . S
C1064 C1063 1.291 . S
C1064 C1065 1.373 . S
C1064 H1077 0.929 . S
C1065 C1064 1.373 . S
C1065 C1066 1.396 . S
C1065 C1072 1.403 . S
C1066 C1056 1.476 . S
C1066 N1061 1.318 . S
C1066 C1065 1.396 . S
H1067 C1062 0.929 . S
O1068 Mn1044 2.385 . S
O1068 C1046 1.234 . S
O1069 Mn1044 2.209 . S
O1069 Mn1045 2.215 . S
O1069 C1046 1.283 . S
O1070 Mn1044 2.094 . S
O1070 C1048 1.240 . S
O1071 Mn1045 2.117 . S
O1071 C1048 1.264 . S
C1072 C1065 1.403 . S
C1072 C1073 1.399 . S
C1072 H1078 0.929 . S
C1073 C1053 1.449 . S
C1073 C1072 1.399 . S
C1073 H1079 0.930 . S
H1074 C1054 0.931 . S
H1075 C1055 0.930 . S
H1076 C1063 0.931 . S
H1077 C1064 0.929 . S
H1078 C1072 0.929 . S
H1079 C1073 0.930 . S
Mn1080 O1085 2.095 . S
Mn1080 O1095 2.162 . S
Mn1080 O1096 2.297 . S
Mn1080 O1104 2.385 . S
Mn1080 O1105 2.209 . S
Mn1080 O1106 2.094 . S
Mn1081 O1086 2.121 . S
Mn1081 N1088 2.257 . S
Mn1081 N1097 2.282 . S
Mn1081 O1105 2.215 . S
Mn1081 O1107 2.117 . S
C1082 O1104 1.234 . S
C1082 O1105 1.283 . S
C1083 O1095 1.281 . S
C1083 O1096 1.236 . S
C1084 O1106 1.240 . S
C1084 O1107 1.264 . S
O1085 Mn1080 2.095 . S
O1085 C1094 1.250 . S
O1086 Mn1081 2.121 . S
O1086 C1094 1.258 . S
C1087 N1088 1.326 . S
C1087 C1091 1.460 . S
C1087 H1093 0.929 . S
N1088 Mn1081 2.257 . S
N1088 C1087 1.326 . S
N1088 C1092 1.362 . S
C1089 C1090 1.258 . S
C1089 C1092 1.431 . S
C1089 C1109 1.449 . S
C1090 C1089 1.258 . S
C1090 C1091 1.477 . S
C1090 H1110 0.931 . S
C1091 C1087 1.460 . S
C1091 C1090 1.477 . S
C1091 H1111 0.930 . S
C1092 N1088 1.362 . S
C1092 C1089 1.431 . S
C1092 C1102 1.476 . S
H1093 C1087 0.929 . S
C1094 O1085 1.250 . S
C1094 O1086 1.258 . S
O1095 Mn1080 2.162 . S
O1095 C1083 1.281 . S
O1096 Mn1080 2.297 . S
O1096 C1083 1.236 . S
N1097 Mn1081 2.282 . S
N1097 C1098 1.328 . S
N1097 C1102 1.318 . S
C1098 N1097 1.328 . S
C1098 C1099 1.457 . S
C1098 H1103 0.929 . S
C1099 C1098 1.457 . S
C1099 C1100 1.291 . S
C1099 H1112 0.933 . S
C1100 C1099 1.291 . S
C1100 C1101 1.373 . S
C1100 H1113 0.951 . S
C1101 C1100 1.373 . S
C1101 C1102 1.396 . S
C1101 C1108 1.403 . S
C1102 C1092 1.476 . S
C1102 N1097 1.318 . S
C1102 C1101 1.396 . S
H1103 C1098 0.929 . S
O1104 Mn1080 2.385 . S
O1104 C1082 1.234 . S
O1105 Mn1080 2.209 . S
O1105 Mn1081 2.215 . S
O1105 C1082 1.283 . S
O1106 Mn1080 2.094 . S
O1106 C1084 1.240 . S
O1107 Mn1081 2.117 . S
O1107 C1084 1.264 . S
C1108 C1101 1.403 . S
C1108 C1109 1.399 . S
C1108 H1114 0.929 . S
C1109 C1089 1.449 . S
C1109 C1108 1.399 . S
C1109 H1115 0.930 . S
H1110 C1090 0.931 . S
H1111 C1091 0.930 . S
H1112 C1099 0.933 . S
H1113 C1100 0.951 . S
H1114 C1108 0.929 . S
H1115 C1109 0.930 . S
Mn1116 O1121 2.095 . S
Mn1116 O1131 2.162 . S
Mn1116 O1132 2.297 . S
Mn1116 O1140 2.385 . S
Mn1116 O1141 2.209 . S
Mn1116 O1142 2.094 . S
Mn1117 O1122 2.121 . S
Mn1117 N1124 2.257 . S
Mn1117 N1133 2.282 . S
Mn1117 O1141 2.215 . S
Mn1117 O1143 2.117 . S
C1118 O1140 1.234 . S
C1118 O1141 1.283 . S
C1119 O1131 1.281 . S
C1119 O1132 1.236 . S
C1120 O1142 1.240 . S
C1120 O1143 1.264 . S
O1121 Mn1116 2.095 . S
O1121 C1130 1.250 . S
O1122 Mn1117 2.121 . S
O1122 C1130 1.258 . S
C1123 N1124 1.326 . S
C1123 C1127 1.460 . S
C1123 H1129 0.929 . S
N1124 Mn1117 2.257 . S
N1124 C1123 1.326 . S
N1124 C1128 1.362 . S
C1125 C1126 1.258 . S
C1125 C1128 1.431 . S
C1125 C1145 1.449 . S
C1126 C1125 1.258 . S
C1126 C1127 1.477 . S
C1126 H1146 0.931 . S
C1127 C1123 1.460 . S
C1127 C1126 1.477 . S
C1127 H1147 0.930 . S
C1128 N1124 1.362 . S
C1128 C1125 1.431 . S
C1128 C1138 1.476 . S
H1129 C1123 0.929 . S
C1130 O1121 1.250 . S
C1130 O1122 1.258 . S
O1131 Mn1116 2.162 . S
O1131 C1119 1.281 . S
O1132 Mn1116 2.297 . S
O1132 C1119 1.236 . S
N1133 Mn1117 2.282 . S
N1133 C1134 1.328 . S
N1133 C1138 1.318 . S
C1134 N1133 1.328 . S
C1134 C1135 1.457 . S
C1134 H1139 0.929 . S
C1135 C1134 1.457 . S
C1135 C1136 1.291 . S
C1135 H1148 0.931 . S
C1136 C1135 1.291 . S
C1136 C1137 1.373 . S
C1136 H1149 0.929 . S
C1137 C1136 1.373 . S
C1137 C1138 1.396 . S
C1137 C1144 1.403 . S
C1138 C1128 1.476 . S
C1138 N1133 1.318 . S
C1138 C1137 1.396 . S
H1139 C1134 0.929 . S
O1140 Mn1116 2.385 . S
O1140 C1118 1.234 . S
O1141 Mn1116 2.209 . S
O1141 Mn1117 2.215 . S
O1141 C1118 1.283 . S
O1142 Mn1116 2.094 . S
O1142 C1120 1.240 . S
O1143 Mn1117 2.117 . S
O1143 C1120 1.264 . S
C1144 C1137 1.403 . S
C1144 C1145 1.399 . S
C1144 H1150 0.929 . S
C1145 C1125 1.449 . S
C1145 C1144 1.399 . S
C1145 H1151 0.930 . S
H1146 C1126 0.931 . S
H1147 C1127 0.930 . S
H1148 C1135 0.931 . S
H1149 C1136 0.929 . S
H1150 C1144 0.929 . S
H1151 C1145 0.930 . S
C1152 C1153 1.349 . S
C1152 C1154 1.327 . S
C1152 H1177 0.950 . S
C1153 C1152 1.349 . S
C1153 C1169 1.349 . S
C1154 C1152 1.327 . S
C1154 C1173 1.429 . S
C1154 H1178 0.950 . S
C1155 C1172 1.574 1_655 S
C1155 C1174 1.368 1_554 S
C1155 H1179 0.949 . S
H1156 C1160 0.949 . S
C1157 C1158 1.349 . S
C1157 C1159 1.327 . S
C1157 H1180 0.950 . S
C1158 C1157 1.349 . S
C1158 C1170 1.349 . S
C1159 C1157 1.327 . S
C1159 C1175 1.429 . S
C1159 H1181 0.950 . S
C1160 H1156 0.949 . S
C1160 C1168 1.574 1_455 S
C1160 C1176 1.368 1_556 S
H1161 C1169 0.950 . S
H1162 C1167 0.950 1_554 S
H1163 C1168 0.949 . S
H1164 C1170 0.950 . S
H1165 C1171 0.950 1_556 S
H1166 C1172 0.949 . S
C1167 H1162 0.950 1_556 S
C1167 C1169 1.327 . S
C1167 C1173 1.429 . S
C1168 C1160 1.574 1_655 S
C1168 H1163 0.949 . S
C1168 C1174 1.368 . S
C1169 C1153 1.349 . S
C1169 H1161 0.950 . S
C1169 C1167 1.327 . S
C1170 C1158 1.349 . S
C1170 H1164 0.950 . S
C1170 C1171 1.327 . S
C1171 H1165 0.950 1_554 S
C1171 C1170 1.327 . S
C1171 C1175 1.429 . S
C1172 C1155 1.574 1_455 S
C1172 H1166 0.949 . S
C1172 C1176 1.368 . S
C1173 C1154 1.429 . S
C1173 C1167 1.429 . S
C1173 C1174 1.523 . S
C1174 C1155 1.368 1_556 S
C1174 C1168 1.368 . S
C1174 C1173 1.523 . S
C1175 C1159 1.429 . S
C1175 C1171 1.429 . S
C1175 C1176 1.523 . S
C1176 C1160 1.368 1_554 S
C1176 C1172 1.368 . S
C1176 C1175 1.523 . S
H1177 C1152 0.950 . S
H1178 C1154 0.950 . S
H1179 C1155 0.949 . S
H1180 C1157 0.950 . S
H1181 C1159 0.950 . S
C1182 C1183 1.349 . S
C1182 C1184 1.327 . S
C1182 H1207 0.950 . S
C1183 C1182 1.349 . S
C1183 C1199 1.349 . S
C1184 C1182 1.327 . S
C1184 C1203 1.429 . S
C1184 H1208 0.950 . S
C1185 C1202 1.574 . S
C1185 C1204 1.368 . S
C1185 H1209 0.949 . S
H1186 C1190 0.949 . S
C1187 C1188 1.349 . S
C1187 C1189 1.327 . S
C1187 H1210 0.950 . S
C1188 C1187 1.349 . S
C1188 C1200 1.349 . S
C1189 C1187 1.327 . S
C1189 C1205 1.429 . S
C1189 H1211 0.950 . S
C1190 H1186 0.949 . S
C1190 C1198 1.574 . S
C1190 C1206 1.368 . S
H1191 C1199 0.950 . S
H1192 C1197 0.950 . S
H1193 C1198 0.949 . S
H1194 C1200 0.950 . S
H1195 C1201 0.950 . S
H1196 C1202 0.949 . S
C1197 H1192 0.950 . S
C1197 C1199 1.327 . S
C1197 C1203 1.429 . S
C1198 C1190 1.574 . S
C1198 H1193 0.949 . S
C1198 C1204 1.368 . S
C1199 C1183 1.349 . S
C1199 H1191 0.950 . S
C1199 C1197 1.327 . S
C1200 C1188 1.349 . S
C1200 H1194 0.950 . S
C1200 C1201 1.327 . S
C1201 H1195 0.950 . S
C1201 C1200 1.327 . S
C1201 C1205 1.429 . S
C1202 C1185 1.574 . S
C1202 H1196 0.949 . S
C1202 C1206 1.368 . S
C1203 C1184 1.429 . S
C1203 C1197 1.429 . S
C1203 C1204 1.523 . S
C1204 C1185 1.368 . S
C1204 C1198 1.368 . S
C1204 C1203 1.523 . S
C1205 C1189 1.429 . S
C1205 C1201 1.429 . S
C1205 C1206 1.523 . S
C1206 C1190 1.368 . S
C1206 C1202 1.368 . S
C1206 C1205 1.523 . S
H1207 C1182 0.950 . S
H1208 C1184 0.950 . S
H1209 C1185 0.949 . S
H1210 C1187 0.950 . S
H1211 C1189 0.950 . S
C1212 C1213 1.349 . S
C1212 C1214 1.327 . S
C1212 H1237 0.950 . S
C1213 C1212 1.349 . S
C1213 C1229 1.349 . S
C1214 C1212 1.327 . S
C1214 C1233 1.429 . S
C1214 H1238 0.950 . S
C1215 C1232 1.574 . S
C1215 C1234 1.368 . S
C1215 H1239 0.949 . S
H1216 C1220 0.949 . S
C1217 C1218 1.349 . S
C1217 C1219 1.327 . S
C1217 H1240 0.950 . S
C1218 C1217 1.349 . S
C1218 C1230 1.349 . S
C1219 C1217 1.327 . S
C1219 C1235 1.429 . S
C1219 H1241 0.950 . S
C1220 H1216 0.949 . S
C1220 C1228 1.574 . S
C1220 C1236 1.368 . S
H1221 C1229 0.950 . S
H1222 C1227 0.950 . S
H1223 C1228 0.949 . S
H1224 C1230 0.950 . S
H1225 C1231 0.950 . S
H1226 C1232 0.949 . S
C1227 H1222 0.950 . S
C1227 C1229 1.327 . S
C1227 C1233 1.429 . S
C1228 C1220 1.574 . S
C1228 H1223 0.949 . S
C1228 C1234 1.368 . S
C1229 C1213 1.349 . S
C1229 H1221 0.950 . S
C1229 C1227 1.327 . S
C1230 C1218 1.349 . S
C1230 H1224 0.950 . S
C1230 C1231 1.327 . S
C1231 H1225 0.950 . S
C1231 C1230 1.327 . S
C1231 C1235 1.429 . S
C1232 C1215 1.574 . S
C1232 H1226 0.949 . S
C1232 C1236 1.368 . S
C1233 C1214 1.429 . S
C1233 C1227 1.429 . S
C1233 C1234 1.523 . S
C1234 C1215 1.368 . S
C1234 C1228 1.368 . S
C1234 C1233 1.523 . S
C1235 C1219 1.429 . S
C1235 C1231 1.429 . S
C1235 C1236 1.523 . S
C1236 C1220 1.368 . S
C1236 C1232 1.368 . S
C1236 C1235 1.523 . S
H1237 C1212 0.950 . S
H1238 C1214 0.950 . S
H1239 C1215 0.949 . S
H1240 C1217 0.950 . S
H1241 C1219 0.950 . S
C1242 C1243 1.349 . S
C1242 C1244 1.327 . S
C1242 H1267 0.950 . S
C1243 C1242 1.349 . S
C1243 C1259 1.349 . S
C1244 C1242 1.327 . S
C1244 C1263 1.429 . S
C1244 H1268 0.950 . S
C1245 C1262 1.574 . S
C1245 C1264 1.368 . S
C1245 H1269 0.949 . S
H1246 C1250 0.949 . S
C1247 C1248 1.349 . S
C1247 C1249 1.327 . S
C1247 H1270 0.950 . S
C1248 C1247 1.349 . S
C1248 C1260 1.349 . S
C1249 C1247 1.327 . S
C1249 C1265 1.429 . S
C1249 H1271 0.950 . S
C1250 H1246 0.949 . S
C1250 C1258 1.574 . S
C1250 C1266 1.368 . S
H1251 C1259 0.950 . S
H1252 C1257 0.950 . S
H1253 C1258 0.949 . S
H1254 C1260 0.950 . S
H1255 C1261 0.950 . S
H1256 C1262 0.949 . S
C1257 H1252 0.950 . S
C1257 C1259 1.327 . S
C1257 C1263 1.429 . S
C1258 C1250 1.574 . S
C1258 H1253 0.949 . S
C1258 C1264 1.368 . S
C1259 C1243 1.349 . S
C1259 H1251 0.950 . S
C1259 C1257 1.327 . S
C1260 C1248 1.349 . S
C1260 H1254 0.950 . S
C1260 C1261 1.327 . S
C1261 H1255 0.950 . S
C1261 C1260 1.327 . S
C1261 C1265 1.429 . S
C1262 C1245 1.574 . S
C1262 H1256 0.949 . S
C1262 C1266 1.368 . S
C1263 C1244 1.429 . S
C1263 C1257 1.429 . S
C1263 C1264 1.523 . S
C1264 C1245 1.368 . S
C1264 C1258 1.368 . S
C1264 C1263 1.523 . S
C1265 C1249 1.429 . S
C1265 C1261 1.429 . S
C1265 C1266 1.523 . S
C1266 C1250 1.368 . S
C1266 C1262 1.368 . S
C1266 C1265 1.523 . S
H1267 C1242 0.950 . S
H1268 C1244 0.950 . S
H1269 C1245 0.949 . S
H1270 C1247 0.950 . S
H1271 C1249 0.950 . S
C1272 C1273 1.349 . S
C1272 C1274 1.327 . S
C1272 H1297 0.950 . S
C1273 C1272 1.349 . S
C1273 C1289 1.349 . S
C1274 C1272 1.327 . S
C1274 C1293 1.429 . S
C1274 H1298 0.950 . S
C1275 C1292 1.574 . S
C1275 C1294 1.368 1_455 S
C1275 H1299 0.949 . S
H1276 C1280 0.949 . S
C1277 C1278 1.349 . S
C1277 C1279 1.327 . S
C1277 H1300 0.950 . S
C1278 C1277 1.349 . S
C1278 C1290 1.349 . S
C1279 C1277 1.327 . S
C1279 C1295 1.429 . S
C1279 H1301 0.950 . S
C1280 H1276 0.949 . S
C1280 C1288 1.574 . S
C1280 C1296 1.368 1_655 S
H1281 C1289 0.950 . S
H1282 C1287 0.950 . S
H1283 C1288 0.949 . S
H1284 C1290 0.950 . S
H1285 C1291 0.950 . S
H1286 C1292 0.949 . S
C1287 H1282 0.950 . S
C1287 C1289 1.327 . S
C1287 C1293 1.429 . S
C1288 C1280 1.574 . S
C1288 H1283 0.949 . S
C1288 C1294 1.368 . S
C1289 C1273 1.349 . S
C1289 H1281 0.950 . S
C1289 C1287 1.327 . S
C1290 C1278 1.349 . S
C1290 H1284 0.950 . S
C1290 C1291 1.327 . S
C1291 H1285 0.950 . S
C1291 C1290 1.327 . S
C1291 C1295 1.429 . S
C1292 C1275 1.574 . S
C1292 H1286 0.949 . S
C1292 C1296 1.368 . S
C1293 C1274 1.429 . S
C1293 C1287 1.429 . S
C1293 C1294 1.523 . S
C1294 C1275 1.368 1_655 S
C1294 C1288 1.368 . S
C1294 C1293 1.523 . S
C1295 C1279 1.429 . S
C1295 C1291 1.429 . S
C1295 C1296 1.523 . S
C1296 C1280 1.368 1_455 S
C1296 C1292 1.368 . S
C1296 C1295 1.523 . S
H1297 C1272 0.950 . S
H1298 C1274 0.950 . S
H1299 C1275 0.949 . S
H1300 C1277 0.950 . S
H1301 C1279 0.950 . S
C1302 C1303 1.349 . S
C1302 C1304 1.327 . S
C1302 H1327 0.950 . S
C1303 C1302 1.349 . S
C1303 C1319 1.349 . S
C1304 C1302 1.327 . S
C1304 C1323 1.429 . S
C1304 H1328 0.950 . S
C1305 C1322 1.574 . S
C1305 C1324 1.368 . S
C1305 H1329 0.949 . S
H1306 C1310 0.949 . S
C1307 C1308 1.349 . S
C1307 C1309 1.327 . S
C1307 H1330 0.950 . S
C1308 C1307 1.349 . S
C1308 C1320 1.349 . S
C1309 C1307 1.327 . S
C1309 C1325 1.429 . S
C1309 H1331 0.950 . S
C1310 H1306 0.949 . S
C1310 C1318 1.574 . S
C1310 C1326 1.368 . S
H1311 C1319 0.950 . S
H1312 C1317 0.950 . S
H1313 C1318 0.949 . S
H1314 C1320 0.950 . S
H1315 C1321 0.950 . S
H1316 C1322 0.949 . S
C1317 H1312 0.950 . S
C1317 C1319 1.327 . S
C1317 C1323 1.429 . S
C1318 C1310 1.574 . S
C1318 H1313 0.949 . S
C1318 C1324 1.368 . S
C1319 C1303 1.349 . S
C1319 H1311 0.950 . S
C1319 C1317 1.327 . S
C1320 C1308 1.349 . S
C1320 H1314 0.950 . S
C1320 C1321 1.327 . S
C1321 H1315 0.950 . S
C1321 C1320 1.327 . S
C1321 C1325 1.429 . S
C1322 C1305 1.574 . S
C1322 H1316 0.949 . S
C1322 C1326 1.368 . S
C1323 C1304 1.429 . S
C1323 C1317 1.429 . S
C1323 C1324 1.523 . S
C1324 C1305 1.368 . S
C1324 C1318 1.368 . S
C1324 C1323 1.523 . S
C1325 C1309 1.429 . S
C1325 C1321 1.429 . S
C1325 C1326 1.523 . S
C1326 C1310 1.368 . S
C1326 C1322 1.368 . S
C1326 C1325 1.523 . S
H1327 C1302 0.950 . S
H1328 C1304 0.950 . S
H1329 C1305 0.949 . S
H1330 C1307 0.950 . S
H1331 C1309 0.950 . S
C1332 C1333 1.349 . S
C1332 C1334 1.327 . S
C1332 H1357 0.950 . S
C1333 C1332 1.349 . S
C1333 C1349 1.349 . S
C1334 C1332 1.327 . S
C1334 C1353 1.429 . S
C1334 H1358 0.950 . S
C1335 C1352 1.534 1_556 S
C1335 C1354 1.404 . S
C1335 H1359 0.961 . S
H1336 C1340 0.961 . S
C1337 C1338 1.349 . S
C1337 C1339 1.327 . S
C1337 H1360 0.950 . S
C1338 C1337 1.349 . S
C1338 C1350 1.349 . S
C1339 C1337 1.327 . S
C1339 C1355 1.429 . S
C1339 H1361 0.950 . S
C1340 H1336 0.961 . S
C1340 C1348 1.534 1_554 S
C1340 C1356 1.404 . S
H1341 C1349 0.950 . S
H1342 C1347 0.950 . S
H1343 C1348 0.949 . S
H1344 C1350 0.950 . S
H1345 C1351 0.950 . S
H1346 C1352 0.949 . S
C1347 H1342 0.950 . S
C1347 C1349 1.327 . S
C1347 C1353 1.429 . S
C1348 C1340 1.534 1_556 S
C1348 H1343 0.949 . S
C1348 C1354 1.368 . S
C1349 C1333 1.349 . S
C1349 H1341 0.950 . S
C1349 C1347 1.327 . S
C1350 C1338 1.349 . S
C1350 H1344 0.950 . S
C1350 C1351 1.327 . S
C1351 H1345 0.950 . S
C1351 C1350 1.327 . S
C1351 C1355 1.429 . S
C1352 C1335 1.534 1_554 S
C1352 H1346 0.949 . S
C1352 C1356 1.368 . S
C1353 C1334 1.429 . S
C1353 C1347 1.429 . S
C1353 C1354 1.523 . S
C1354 C1335 1.404 . S
C1354 C1348 1.368 . S
C1354 C1353 1.523 . S
C1355 C1339 1.429 . S
C1355 C1351 1.429 . S
C1355 C1356 1.523 . S
C1356 C1340 1.404 . S
C1356 C1352 1.368 . S
C1356 C1355 1.523 . S
H1357 C1332 0.950 . S
H1358 C1334 0.950 . S
H1359 C1335 0.961 . S
H1360 C1337 0.950 . S
H1361 C1339 0.950 . S
C1362 C1363 1.349 . S
C1362 C1364 1.327 . S
C1362 H1387 0.950 . S
C1363 C1362 1.349 . S
C1363 C1379 1.349 . S
C1364 C1362 1.327 . S
C1364 C1383 1.429 . S
C1364 H1388 0.950 . S
C1365 C1382 1.574 . S
C1365 C1384 1.368 . S
C1365 H1389 0.949 . S
H1366 C1370 0.949 . S
C1367 C1368 1.349 . S
C1367 C1369 1.327 . S
C1367 H1390 0.950 . S
C1368 C1367 1.349 . S
C1368 C1380 1.349 . S
C1369 C1367 1.327 . S
C1369 C1385 1.429 . S
C1369 H1391 0.950 . S
C1370 H1366 0.949 . S
C1370 C1378 1.574 . S
C1370 C1386 1.368 . S
H1371 C1379 0.950 . S
H1372 C1377 0.950 . S
H1373 C1378 0.949 . S
H1374 C1380 0.950 . S
H1375 C1381 0.950 . S
H1376 C1382 0.949 . S
C1377 H1372 0.950 . S
C1377 C1379 1.327 . S
C1377 C1383 1.429 . S
C1378 C1370 1.574 . S
C1378 H1373 0.949 . S
C1378 C1384 1.368 . S
C1379 C1363 1.349 . S
C1379 H1371 0.950 . S
C1379 C1377 1.327 . S
C1380 C1368 1.349 . S
C1380 H1374 0.950 . S
C1380 C1381 1.327 . S
C1381 H1375 0.950 . S
C1381 C1380 1.327 . S
C1381 C1385 1.429 . S
C1382 C1365 1.574 . S
C1382 H1376 0.949 . S
C1382 C1386 1.368 . S
C1383 C1364 1.429 . S
C1383 C1377 1.429 . S
C1383 C1384 1.523 . S
C1384 C1365 1.368 . S
C1384 C1378 1.368 . S
C1384 C1383 1.523 . S
C1385 C1369 1.429 . S
C1385 C1381 1.429 . S
C1385 C1386 1.523 . S
C1386 C1370 1.368 . S
C1386 C1382 1.368 . S
C1386 C1385 1.523 . S
H1387 C1362 0.950 . S
H1388 C1364 0.950 . S
H1389 C1365 0.949 . S
H1390 C1367 0.950 . S
H1391 C1369 0.950 . S
C1392 C1393 1.349 . S
C1392 C1394 1.327 . S
C1392 H1417 0.950 . S
C1393 C1392 1.349 . S
C1393 C1409 1.349 . S
C1394 C1392 1.327 . S
C1394 C1413 1.429 . S
C1394 H1418 0.950 . S
C1395 C1412 1.574 . S
C1395 C1414 1.368 . S
C1395 H1419 0.949 . S
H1396 C1400 0.949 . S
C1397 C1398 1.349 . S
C1397 C1399 1.327 . S
C1397 H1420 0.950 . S
C1398 C1397 1.349 . S
C1398 C1410 1.349 . S
C1399 C1397 1.327 . S
C1399 C1415 1.429 . S
C1399 H1421 0.950 . S
C1400 H1396 0.949 . S
C1400 C1408 1.574 . S
C1400 C1416 1.368 . S
H1401 C1409 0.950 . S
H1402 C1407 0.950 . S
H1403 C1408 0.949 . S
H1404 C1410 0.950 . S
H1405 C1411 0.950 . S
H1406 C1412 0.949 . S
C1407 H1402 0.950 . S
C1407 C1409 1.327 . S
C1407 C1413 1.429 . S
C1408 C1400 1.574 . S
C1408 H1403 0.949 . S
C1408 C1414 1.368 . S
C1409 C1393 1.349 . S
C1409 H1401 0.950 . S
C1409 C1407 1.327 . S
C1410 C1398 1.349 . S
C1410 H1404 0.950 . S
C1410 C1411 1.327 . S
C1411 H1405 0.950 . S
C1411 C1410 1.327 . S
C1411 C1415 1.429 . S
C1412 C1395 1.574 . S
C1412 H1406 0.949 . S
C1412 C1416 1.368 . S
C1413 C1394 1.429 . S
C1413 C1407 1.429 . S
C1413 C1414 1.523 . S
C1414 C1395 1.368 . S
C1414 C1408 1.368 . S
C1414 C1413 1.523 . S
C1415 C1399 1.429 . S
C1415 C1411 1.429 . S
C1415 C1416 1.523 . S
C1416 C1400 1.368 . S
C1416 C1412 1.368 . S
C1416 C1415 1.523 . S
H1417 C1392 0.950 . S
H1418 C1394 0.950 . S
H1419 C1395 0.949 . S
H1420 C1397 0.950 . S
H1421 C1399 0.950 . S
C1422 C1423 1.349 . S
C1422 C1424 1.327 . S
C1422 H1447 0.950 . S
C1423 C1422 1.349 . S
C1423 C1439 1.349 . S
C1424 C1422 1.327 . S
C1424 C1443 1.429 . S
C1424 H1448 0.950 . S
C1425 C1442 1.574 . S
C1425 C1444 1.368 . S
C1425 H1449 0.949 . S
H1426 C1430 0.949 . S
C1427 C1428 1.349 . S
C1427 C1429 1.327 . S
C1427 H1450 0.950 . S
C1428 C1427 1.349 . S
C1428 C1440 1.349 . S
C1429 C1427 1.327 . S
C1429 C1445 1.429 . S
C1429 H1451 0.950 . S
C1430 H1426 0.949 . S
C1430 C1438 1.574 . S
C1430 C1446 1.368 . S
H1431 C1439 0.950 . S
H1432 C1437 0.950 . S
H1433 C1438 0.949 . S
H1434 C1440 0.950 . S
H1435 C1441 0.950 . S
H1436 C1442 0.949 . S
C1437 H1432 0.950 . S
C1437 C1439 1.327 . S
C1437 C1443 1.429 . S
C1438 C1430 1.574 . S
C1438 H1433 0.949 . S
C1438 C1444 1.368 . S
C1439 C1423 1.349 . S
C1439 H1431 0.950 . S
C1439 C1437 1.327 . S
C1440 C1428 1.349 . S
C1440 H1434 0.950 . S
C1440 C1441 1.327 . S
C1441 H1435 0.950 . S
C1441 C1440 1.327 . S
C1441 C1445 1.429 . S
C1442 C1425 1.574 . S
C1442 H1436 0.949 . S
C1442 C1446 1.368 . S
C1443 C1424 1.429 . S
C1443 C1437 1.429 . S
C1443 C1444 1.523 . S
C1444 C1425 1.368 . S
C1444 C1438 1.368 . S
C1444 C1443 1.523 . S
C1445 C1429 1.429 . S
C1445 C1441 1.429 . S
C1445 C1446 1.523 . S
C1446 C1430 1.368 . S
C1446 C1442 1.368 . S
C1446 C1445 1.523 . S
H1447 C1422 0.950 . S
H1448 C1424 0.950 . S
H1449 C1425 0.949 . S
H1450 C1427 0.950 . S
H1451 C1429 0.950 . S
C1452 C1453 1.349 . S
C1452 C1454 1.327 . S
C1452 H1477 0.950 . S
C1453 C1452 1.349 . S
C1453 C1469 1.349 . S
C1454 C1452 1.327 . S
C1454 C1473 1.429 . S
C1454 H1478 0.950 . S
C1455 C1472 1.574 . S
C1455 C1474 1.368 . S
C1455 H1479 0.949 . S
H1456 C1460 0.949 . S
C1457 C1458 1.349 . S
C1457 C1459 1.327 . S
C1457 H1480 0.950 . S
C1458 C1457 1.349 . S
C1458 C1470 1.349 . S
C1459 C1457 1.327 . S
C1459 C1475 1.429 . S
C1459 H1481 0.950 . S
C1460 H1456 0.949 . S
C1460 C1468 1.574 . S
C1460 C1476 1.368 . S
H1461 C1469 0.950 . S
H1462 C1467 0.950 . S
H1463 C1468 0.949 . S
H1464 C1470 0.950 . S
H1465 C1471 0.950 . S
H1466 C1472 0.949 . S
C1467 H1462 0.950 . S
C1467 C1469 1.327 . S
C1467 C1473 1.429 . S
C1468 C1460 1.574 . S
C1468 H1463 0.949 . S
C1468 C1474 1.368 . S
C1469 C1453 1.349 . S
C1469 H1461 0.950 . S
C1469 C1467 1.327 . S
C1470 C1458 1.349 . S
C1470 H1464 0.950 . S
C1470 C1471 1.327 . S
C1471 H1465 0.950 . S
C1471 C1470 1.327 . S
C1471 C1475 1.429 . S
C1472 C1455 1.574 . S
C1472 H1466 0.949 . S
C1472 C1476 1.368 . S
C1473 C1454 1.429 . S
C1473 C1467 1.429 . S
C1473 C1474 1.523 . S
C1474 C1455 1.368 . S
C1474 C1468 1.368 . S
C1474 C1473 1.523 . S
C1475 C1459 1.429 . S
C1475 C1471 1.429 . S
C1475 C1476 1.523 . S
C1476 C1460 1.368 . S
C1476 C1472 1.368 . S
C1476 C1475 1.523 . S
H1477 C1452 0.950 . S
H1478 C1454 0.950 . S
H1479 C1455 0.949 . S
H1480 C1457 0.950 . S
H1481 C1459 0.950 . S
C1482 C1483 1.349 . S
C1482 C1484 1.327 . S
C1482 H1507 0.950 . S
C1483 C1482 1.349 . S
C1483 C1499 1.349 . S
C1484 C1482 1.327 . S
C1484 C1503 1.429 . S
C1484 H1508 0.950 . S
C1485 C1502 1.574 . S
C1485 C1504 1.368 . S
C1485 H1509 0.949 . S
H1486 C1490 0.949 . S
C1487 C1488 1.349 . S
C1487 C1489 1.327 . S
C1487 H1510 0.950 . S
C1488 C1487 1.349 . S
C1488 C1500 1.349 . S
C1489 C1487 1.327 . S
C1489 C1505 1.429 . S
C1489 H1511 0.950 . S
C1490 H1486 0.949 . S
C1490 C1498 1.574 . S
C1490 C1506 1.368 . S
H1491 C1499 0.950 . S
H1492 C1497 0.950 . S
H1493 C1498 0.949 . S
H1494 C1500 0.950 . S
H1495 C1501 0.950 . S
H1496 C1502 0.949 . S
C1497 H1492 0.950 . S
C1497 C1499 1.327 . S
C1497 C1503 1.429 . S
C1498 C1490 1.574 . S
C1498 H1493 0.949 . S
C1498 C1504 1.368 . S
C1499 C1483 1.349 . S
C1499 H1491 0.950 . S
C1499 C1497 1.327 . S
C1500 C1488 1.349 . S
C1500 H1494 0.950 . S
C1500 C1501 1.327 . S
C1501 H1495 0.950 . S
C1501 C1500 1.327 . S
C1501 C1505 1.429 . S
C1502 C1485 1.574 . S
C1502 H1496 0.949 . S
C1502 C1506 1.368 . S
C1503 C1484 1.429 . S
C1503 C1497 1.429 . S
C1503 C1504 1.523 . S
C1504 C1485 1.368 . S
C1504 C1498 1.368 . S
C1504 C1503 1.523 . S
C1505 C1489 1.429 . S
C1505 C1501 1.429 . S
C1505 C1506 1.523 . S
C1506 C1490 1.368 . S
C1506 C1502 1.368 . S
C1506 C1505 1.523 . S
H1507 C1482 0.950 . S
H1508 C1484 0.950 . S
H1509 C1485 0.949 . S
H1510 C1487 0.950 . S
H1511 C1489 0.950 . S
C1512 C1513 1.349 . S
C1512 C1514 1.327 . S
C1512 H1537 0.950 . S
C1513 C1512 1.349 . S
C1513 C1529 1.349 . S
C1514 C1512 1.327 . S
C1514 C1533 1.429 . S
C1514 H1538 0.950 . S
C1515 C1532 1.574 . S
C1515 C1534 1.368 . S
C1515 H1539 0.949 . S
H1516 C1520 0.949 . S
C1517 C1518 1.349 . S
C1517 C1519 1.327 . S
C1517 H1540 0.950 . S
C1518 C1517 1.349 . S
C1518 C1530 1.349 . S
C1519 C1517 1.327 . S
C1519 C1535 1.429 . S
C1519 H1541 0.950 . S
C1520 H1516 0.949 . S
C1520 C1528 1.574 . S
C1520 C1536 1.368 . S
H1521 C1529 0.950 . S
H1522 C1527 0.950 . S
H1523 C1528 0.949 . S
H1524 C1530 0.950 . S
H1525 C1531 0.950 . S
H1526 C1532 0.949 . S
C1527 H1522 0.950 . S
C1527 C1529 1.327 . S
C1527 C1533 1.429 . S
C1528 C1520 1.574 . S
C1528 H1523 0.949 . S
C1528 C1534 1.368 1_545 S
C1529 C1513 1.349 . S
C1529 H1521 0.950 . S
C1529 C1527 1.327 . S
C1530 C1518 1.349 . S
C1530 H1524 0.950 . S
C1530 C1531 1.327 . S
C1531 H1525 0.950 . S
C1531 C1530 1.327 . S
C1531 C1535 1.429 . S
C1532 C1515 1.574 . S
C1532 H1526 0.949 . S
C1532 C1536 1.368 1_565 S
C1533 C1514 1.429 . S
C1533 C1527 1.429 . S
C1533 C1534 1.523 . S
C1534 C1515 1.368 . S
C1534 C1528 1.368 1_565 S
C1534 C1533 1.523 . S
C1535 C1519 1.429 . S
C1535 C1531 1.429 . S
C1535 C1536 1.523 . S
C1536 C1520 1.368 . S
C1536 C1532 1.368 1_545 S
C1536 C1535 1.523 . S
H1537 C1512 0.950 . S
H1538 C1514 0.950 . S
H1539 C1515 0.949 . S
H1540 C1517 0.950 . S
H1541 C1519 0.950 . S
C1542 C1543 1.349 . S
C1542 C1544 1.327 . S
C1542 H1567 0.950 . S
C1543 C1542 1.349 . S
C1543 C1559 1.349 . S
C1544 C1542 1.327 . S
C1544 C1563 1.429 . S
C1544 H1568 0.950 . S
C1545 C1562 1.574 1_565 S
C1545 C1564 1.368 1_554 S
C1545 H1569 0.949 . S
H1546 C1550 0.949 . S
C1547 C1548 1.349 . S
C1547 C1549 1.327 . S
C1547 H1570 0.950 . S
C1548 C1547 1.349 . S
C1548 C1560 1.349 . S
C1549 C1547 1.327 . S
C1549 C1565 1.429 . S
C1549 H1571 0.950 . S
C1550 H1546 0.949 . S
C1550 C1558 1.574 1_545 S
C1550 C1566 1.368 1_556 S
H1551 C1559 0.950 . S
H1552 C1557 0.950 1_554 S
H1553 C1558 0.949 . S
H1554 C1560 0.950 . S
H1555 C1561 0.950 1_556 S
H1556 C1562 0.949 . S
C1557 H1552 0.950 1_556 S
C1557 C1559 1.327 . S
C1557 C1563 1.429 . S
C1558 C1550 1.574 1_565 S
C1558 H1553 0.949 . S
C1558 C1564 1.368 1_655 S
C1559 C1543 1.349 . S
C1559 H1551 0.950 . S
C1559 C1557 1.327 . S
C1560 C1548 1.349 . S
C1560 H1554 0.950 . S
C1560 C1561 1.327 . S
C1561 H1555 0.950 1_554 S
C1561 C1560 1.327 . S
C1561 C1565 1.429 . S
C1562 C1545 1.574 1_545 S
C1562 H1556 0.949 . S
C1562 C1566 1.368 1_455 S
C1563 C1544 1.429 . S
C1563 C1557 1.429 . S
C1563 C1564 1.523 . S
C1564 C1545 1.368 1_556 S
C1564 C1558 1.368 1_455 S
C1564 C1563 1.523 . S
C1565 C1549 1.429 . S
C1565 C1561 1.429 . S
C1565 C1566 1.523 . S
C1566 C1550 1.368 1_554 S
C1566 C1562 1.368 1_655 S
C1566 C1565 1.523 . S
H1567 C1542 0.950 . S
H1568 C1544 0.950 . S
H1569 C1545 0.949 . S
H1570 C1547 0.950 . S
H1571 C1549 0.950 . S
C1572 C1573 1.349 . S
C1572 C1574 1.327 . S
C1572 H1597 0.950 . S
C1573 C1572 1.349 . S
C1573 C1589 1.349 . S
C1574 C1572 1.327 . S
C1574 C1593 1.429 . S
C1574 H1598 0.950 . S
C1575 C1592 1.574 . S
C1575 C1594 1.368 1_565 S
C1575 H1599 0.949 . S
H1576 C1580 0.949 . S
C1577 C1578 1.349 . S
C1577 C1579 1.327 . S
C1577 H1600 0.950 . S
C1578 C1577 1.349 . S
C1578 C1590 1.349 . S
C1579 C1577 1.327 . S
C1579 C1595 1.429 . S
C1579 H1601 0.950 . S
C1580 H1576 0.949 . S
C1580 C1588 1.574 . S
C1580 C1596 1.368 1_545 S
H1581 C1589 0.950 . S
H1582 C1587 0.950 . S
H1583 C1588 0.949 . S
H1584 C1590 0.950 . S
H1585 C1591 0.950 . S
H1586 C1592 0.949 . S
C1587 H1582 0.950 . S
C1587 C1589 1.327 . S
C1587 C1593 1.429 . S
C1588 C1580 1.574 . S
C1588 H1583 0.949 . S
C1588 C1594 1.368 1_554 S
C1589 C1573 1.349 . S
C1589 H1581 0.950 . S
C1589 C1587 1.327 . S
C1590 C1578 1.349 . S
C1590 H1584 0.950 . S
C1590 C1591 1.327 . S
C1591 H1585 0.950 . S
C1591 C1590 1.327 . S
C1591 C1595 1.429 . S
C1592 C1575 1.574 . S
C1592 H1586 0.949 . S
C1592 C1596 1.368 1_556 S
C1593 C1574 1.429 . S
C1593 C1587 1.429 . S
C1593 C1594 1.523 . S
C1594 C1575 1.368 1_545 S
C1594 C1588 1.368 1_556 S
C1594 C1593 1.523 . S
C1595 C1579 1.429 . S
C1595 C1591 1.429 . S
C1595 C1596 1.523 . S
C1596 C1580 1.368 1_565 S
C1596 C1592 1.368 1_554 S
C1596 C1595 1.523 . S
H1597 C1572 0.950 . S
H1598 C1574 0.950 . S
H1599 C1575 0.949 . S
H1600 C1577 0.950 . S
H1601 C1579 0.950 . S
C1602 C1603 1.349 . S
C1602 C1604 1.327 . S
C1602 H1627 0.950 . S
C1603 C1602 1.349 . S
C1603 C1619 1.349 . S
C1604 C1602 1.327 . S
C1604 C1623 1.429 . S
C1604 H1628 0.950 . S
C1605 C1622 1.574 1_545 S
C1605 C1624 1.368 1_655 S
C1605 H1629 0.949 . S
H1606 C1610 0.949 . S
C1607 C1608 1.349 . S
C1607 C1609 1.327 . S
C1607 H1630 0.950 . S
C1608 C1607 1.349 . S
C1608 C1620 1.349 . S
C1609 C1607 1.327 . S
C1609 C1625 1.429 . S
C1609 H1631 0.950 . S
C1610 H1606 0.949 . S
C1610 C1618 1.574 1_565 S
C1610 C1626 1.368 1_455 S
H1611 C1619 0.950 . S
H1612 C1617 0.950 . S
H1613 C1618 0.949 . S
H1614 C1620 0.950 . S
H1615 C1621 0.950 . S
H1616 C1622 0.949 . S
C1617 H1612 0.950 . S
C1617 C1619 1.327 . S
C1617 C1623 1.429 . S
C1618 C1610 1.574 1_545 S
C1618 H1613 0.949 . S
C1618 C1624 1.368 . S
C1619 C1603 1.349 . S
C1619 H1611 0.950 . S
C1619 C1617 1.327 . S
C1620 C1608 1.349 . S
C1620 H1614 0.950 . S
C1620 C1621 1.327 . S
C1621 H1615 0.950 . S
C1621 C1620 1.327 . S
C1621 C1625 1.429 . S
C1622 C1605 1.574 1_565 S
C1622 H1616 0.949 . S
C1622 C1626 1.368 . S
C1623 C1604 1.429 . S
C1623 C1617 1.429 . S
C1623 C1624 1.523 . S
C1624 C1605 1.368 1_455 S
C1624 C1618 1.368 . S
C1624 C1623 1.523 . S
C1625 C1609 1.429 . S
C1625 C1621 1.429 . S
C1625 C1626 1.523 . S
C1626 C1610 1.368 1_655 S
C1626 C1622 1.368 . S
C1626 C1625 1.523 . S
H1627 C1602 0.950 . S
H1628 C1604 0.950 . S
H1629 C1605 0.949 . S
H1630 C1607 0.950 . S
H1631 C1609 0.950 . S
C1632 C1633 1.349 . S
C1632 C1634 1.327 . S
C1632 H1657 0.950 . S
C1633 C1632 1.349 . S
C1633 C1649 1.349 . S
C1634 C1632 1.327 . S
C1634 C1653 1.429 . S
C1634 H1658 0.950 . S
C1635 C1652 1.574 . S
C1635 C1654 1.368 . S
C1635 H1659 0.949 . S
H1636 C1640 0.949 . S
C1637 C1638 1.349 . S
C1637 C1639 1.327 . S
C1637 H1660 0.950 . S
C1638 C1637 1.349 . S
C1638 C1650 1.349 . S
C1639 C1637 1.327 . S
C1639 C1655 1.429 . S
C1639 H1661 0.950 . S
C1640 H1636 0.949 . S
C1640 C1648 1.574 . S
C1640 C1656 1.368 . S
H1641 C1649 0.950 . S
H1642 C1647 0.950 . S
H1643 C1648 0.949 . S
H1644 C1650 0.950 . S
H1645 C1651 0.950 . S
H1646 C1652 0.949 . S
C1647 H1642 0.950 . S
C1647 C1649 1.327 . S
C1647 C1653 1.429 . S
C1648 C1640 1.574 . S
C1648 H1643 0.949 . S
C1648 C1654 1.368 1_455 S
C1649 C1633 1.349 . S
C1649 H1641 0.950 . S
C1649 C1647 1.327 . S
C1650 C1638 1.349 . S
C1650 H1644 0.950 . S
C1650 C1651 1.327 . S
C1651 H1645 0.950 . S
C1651 C1650 1.327 . S
C1651 C1655 1.429 . S
C1652 C1635 1.574 . S
C1652 H1646 0.949 . S
C1652 C1656 1.368 1_655 S
C1653 C1634 1.429 . S
C1653 C1647 1.429 . S
C1653 C1654 1.523 . S
C1654 C1635 1.368 . S
C1654 C1648 1.368 1_655 S
C1654 C1653 1.523 . S
C1655 C1639 1.429 . S
C1655 C1651 1.429 . S
C1655 C1656 1.523 . S
C1656 C1640 1.368 . S
C1656 C1652 1.368 1_455 S
C1656 C1655 1.523 . S
H1657 C1632 0.950 . S
H1658 C1634 0.950 . S
H1659 C1635 0.949 . S
H1660 C1637 0.950 . S
H1661 C1639 0.950 . S
C1662 C1663 1.349 . S
C1662 C1664 1.327 . S
C1662 H1687 0.950 . S
C1663 C1662 1.349 . S
C1663 C1679 1.349 . S
C1664 C1662 1.327 . S
C1664 C1683 1.429 . S
C1664 H1688 0.950 . S
C1665 C1682 1.574 1_455 S
C1665 C1684 1.368 . S
C1665 H1689 0.949 . S
H1666 C1670 0.949 . S
C1667 C1668 1.349 . S
C1667 C1669 1.327 . S
C1667 H1690 0.950 . S
C1668 C1667 1.349 . S
C1668 C1680 1.349 . S
C1669 C1667 1.327 . S
C1669 C1685 1.429 . S
C1669 H1691 0.950 . S
C1670 H1666 0.949 . S
C1670 C1678 1.574 1_655 S
C1670 C1686 1.368 . S
H1671 C1679 0.950 . S
H1672 C1677 0.950 . S
H1673 C1678 0.949 . S
H1674 C1680 0.950 . S
H1675 C1681 0.950 . S
H1676 C1682 0.949 . S
C1677 H1672 0.950 . S
C1677 C1679 1.327 . S
C1677 C1683 1.429 . S
C1678 C1670 1.574 1_455 S
C1678 H1673 0.949 . S
C1678 C1684 1.368 . S
C1679 C1663 1.349 . S
C1679 H1671 0.950 . S
C1679 C1677 1.327 . S
C1680 C1668 1.349 . S
C1680 H1674 0.950 . S
C1680 C1681 1.327 . S
C1681 H1675 0.950 . S
C1681 C1680 1.327 . S
C1681 C1685 1.429 . S
C1682 C1665 1.574 1_655 S
C1682 H1676 0.949 . S
C1682 C1686 1.368 . S
C1683 C1664 1.429 . S
C1683 C1677 1.429 . S
C1683 C1684 1.523 . S
C1684 C1665 1.368 . S
C1684 C1678 1.368 . S
C1684 C1683 1.523 . S
C1685 C1669 1.429 . S
C1685 C1681 1.429 . S
C1685 C1686 1.523 . S
C1686 C1670 1.368 . S
C1686 C1682 1.368 . S
C1686 C1685 1.523 . S
H1687 C1662 0.950 . S
H1688 C1664 0.950 . S
H1689 C1665 0.949 . S
H1690 C1667 0.950 . S
H1691 C1669 0.950 . S
C1692 C1693 1.349 . S
C1692 C1694 1.327 . S
C1692 H1717 0.950 . S
C1693 C1692 1.349 . S
C1693 C1709 1.349 . S
C1694 C1692 1.327 . S
C1694 C1713 1.429 . S
C1694 H1718 0.950 . S
C1695 C1712 1.574 . S
C1695 C1714 1.368 . S
C1695 H1719 0.949 . S
H1696 C1700 0.949 . S
C1697 C1698 1.349 . S
C1697 C1699 1.327 . S
C1697 H1720 0.950 . S
C1698 C1697 1.349 . S
C1698 C1710 1.349 . S
C1699 C1697 1.327 . S
C1699 C1715 1.429 . S
C1699 H1721 0.950 . S
C1700 H1696 0.949 . S
C1700 C1708 1.574 . S
C1700 C1716 1.368 . S
H1701 C1709 0.950 . S
H1702 C1707 0.950 . S
H1703 C1708 0.949 . S
H1704 C1710 0.950 . S
H1705 C1711 0.950 . S
H1706 C1712 0.949 . S
C1707 H1702 0.950 . S
C1707 C1709 1.327 . S
C1707 C1713 1.429 . S
C1708 C1700 1.574 . S
C1708 H1703 0.949 . S
C1708 C1714 1.368 . S
C1709 C1693 1.349 . S
C1709 H1701 0.950 . S
C1709 C1707 1.327 . S
C1710 C1698 1.349 . S
C1710 H1704 0.950 . S
C1710 C1711 1.327 . S
C1711 H1705 0.950 . S
C1711 C1710 1.327 . S
C1711 C1715 1.429 . S
C1712 C1695 1.574 . S
C1712 H1706 0.949 . S
C1712 C1716 1.368 . S
C1713 C1694 1.429 . S
C1713 C1707 1.429 . S
C1713 C1714 1.523 . S
C1714 C1695 1.368 . S
C1714 C1708 1.368 . S
C1714 C1713 1.523 . S
C1715 C1699 1.429 . S
C1715 C1711 1.429 . S
C1715 C1716 1.523 . S
C1716 C1700 1.368 . S
C1716 C1712 1.368 . S
C1716 C1715 1.523 . S
H1717 C1692 0.950 . S
H1718 C1694 0.950 . S
H1719 C1695 0.949 . S
H1720 C1697 0.950 . S
H1721 C1699 0.950 . S
C1722 C1723 1.349 . S
C1722 C1724 1.327 . S
C1722 H1747 0.950 . S
C1723 C1722 1.349 . S
C1723 C1739 1.349 . S
C1724 C1722 1.327 . S
C1724 C1743 1.429 . S
C1724 H1748 0.950 . S
C1725 C1742 1.574 . S
C1725 C1744 1.368 . S
C1725 H1749 0.949 . S
H1726 C1730 0.949 . S
C1727 C1728 1.349 . S
C1727 C1729 1.327 . S
C1727 H1750 0.950 . S
C1728 C1727 1.349 . S
C1728 C1740 1.349 . S
C1729 C1727 1.327 . S
C1729 C1745 1.429 . S
C1729 H1751 0.950 . S
C1730 H1726 0.949 . S
C1730 C1738 1.574 . S
C1730 C1746 1.368 . S
H1731 C1739 0.950 . S
H1732 C1737 0.950 . S
H1733 C1738 0.949 . S
H1734 C1740 0.950 . S
H1735 C1741 0.950 . S
H1736 C1742 0.949 . S
C1737 H1732 0.950 . S
C1737 C1739 1.327 . S
C1737 C1743 1.429 . S
C1738 C1730 1.574 . S
C1738 H1733 0.949 . S
C1738 C1744 1.368 . S
C1739 C1723 1.349 . S
C1739 H1731 0.950 . S
C1739 C1737 1.327 . S
C1740 C1728 1.349 . S
C1740 H1734 0.950 . S
C1740 C1741 1.327 . S
C1741 H1735 0.950 . S
C1741 C1740 1.327 . S
C1741 C1745 1.429 . S
C1742 C1725 1.574 . S
C1742 H1736 0.949 . S
C1742 C1746 1.368 . S
C1743 C1724 1.429 . S
C1743 C1737 1.429 . S
C1743 C1744 1.523 . S
C1744 C1725 1.368 . S
C1744 C1738 1.368 . S
C1744 C1743 1.523 . S
C1745 C1729 1.429 . S
C1745 C1741 1.429 . S
C1745 C1746 1.523 . S
C1746 C1730 1.368 . S
C1746 C1742 1.368 . S
C1746 C1745 1.523 . S
H1747 C1722 0.950 . S
H1748 C1724 0.950 . S
H1749 C1725 0.949 . S
H1750 C1727 0.950 . S
H1751 C1729 0.950 . S
C1752 C1753 1.349 . S
C1752 C1754 1.327 . S
C1752 H1777 0.950 . S
C1753 C1752 1.349 . S
C1753 C1769 1.349 . S
C1754 C1752 1.327 . S
C1754 C1773 1.429 . S
C1754 H1778 0.950 . S
C1755 C1772 1.574 . S
C1755 C1774 1.368 . S
C1755 H1779 0.949 . S
H1756 C1760 0.949 . S
C1757 C1758 1.349 . S
C1757 C1759 1.327 . S
C1757 H1780 0.950 . S
C1758 C1757 1.349 . S
C1758 C1770 1.349 . S
C1759 C1757 1.327 . S
C1759 C1775 1.429 . S
C1759 H1781 0.950 . S
C1760 H1756 0.949 . S
C1760 C1768 1.574 . S
C1760 C1776 1.368 . S
H1761 C1769 0.950 . S
H1762 C1767 0.950 . S
H1763 C1768 0.949 . S
H1764 C1770 0.950 . S
H1765 C1771 0.950 . S
H1766 C1772 0.949 . S
C1767 H1762 0.950 . S
C1767 C1769 1.327 . S
C1767 C1773 1.429 . S
C1768 C1760 1.574 . S
C1768 H1763 0.949 . S
C1768 C1774 1.368 1_455 S
C1769 C1753 1.349 . S
C1769 H1761 0.950 . S
C1769 C1767 1.327 . S
C1770 C1758 1.349 . S
C1770 H1764 0.950 . S
C1770 C1771 1.327 . S
C1771 H1765 0.950 . S
C1771 C1770 1.327 . S
C1771 C1775 1.429 . S
C1772 C1755 1.574 . S
C1772 H1766 0.949 . S
C1772 C1776 1.368 1_655 S
C1773 C1754 1.429 . S
C1773 C1767 1.429 . S
C1773 C1774 1.523 . S
C1774 C1755 1.368 . S
C1774 C1768 1.368 1_655 S
C1774 C1773 1.523 . S
C1775 C1759 1.429 . S
C1775 C1771 1.429 . S
C1775 C1776 1.523 . S
C1776 C1760 1.368 . S
C1776 C1772 1.368 1_455 S
C1776 C1775 1.523 . S
H1777 C1752 0.950 . S
H1778 C1754 0.950 . S
H1779 C1755 0.949 . S
H1780 C1757 0.950 . S
H1781 C1759 0.950 . S
C1782 C1783 1.349 . S
C1782 C1784 1.327 . S
C1782 H1807 0.950 . S
C1783 C1782 1.349 . S
C1783 C1799 1.349 . S
C1784 C1782 1.327 . S
C1784 C1803 1.429 . S
C1784 H1808 0.950 . S
C1785 C1802 1.574 . S
C1785 C1804 1.368 . S
C1785 H1809 0.949 . S
H1786 C1790 0.949 . S
C1787 C1788 1.349 . S
C1787 C1789 1.327 . S
C1787 H1810 0.950 . S
C1788 C1787 1.349 . S
C1788 C1800 1.349 . S
C1789 C1787 1.327 . S
C1789 C1805 1.429 . S
C1789 H1811 0.950 . S
C1790 H1786 0.949 . S
C1790 C1798 1.574 . S
C1790 C1806 1.368 . S
H1791 C1799 0.950 . S
H1792 C1797 0.950 . S
H1793 C1798 0.949 . S
H1794 C1800 0.950 . S
H1795 C1801 0.950 . S
H1796 C1802 0.949 . S
C1797 H1792 0.950 . S
C1797 C1799 1.327 . S
C1797 C1803 1.429 . S
C1798 C1790 1.574 . S
C1798 H1793 0.949 . S
C1798 C1804 1.368 . S
C1799 C1783 1.349 . S
C1799 H1791 0.950 . S
C1799 C1797 1.327 . S
C1800 C1788 1.349 . S
C1800 H1794 0.950 . S
C1800 C1801 1.327 . S
C1801 H1795 0.950 . S
C1801 C1800 1.327 . S
C1801 C1805 1.429 . S
C1802 C1785 1.574 . S
C1802 H1796 0.949 . S
C1802 C1806 1.368 . S
C1803 C1784 1.429 . S
C1803 C1797 1.429 . S
C1803 C1804 1.523 . S
C1804 C1785 1.368 . S
C1804 C1798 1.368 . S
C1804 C1803 1.523 . S
C1805 C1789 1.429 . S
C1805 C1801 1.429 . S
C1805 C1806 1.523 . S
C1806 C1790 1.368 . S
C1806 C1802 1.368 . S
C1806 C1805 1.523 . S
H1807 C1782 0.950 . S
H1808 C1784 0.950 . S
H1809 C1785 0.949 . S
H1810 C1787 0.950 . S
H1811 C1789 0.950 . S
C1812 C1813 1.349 . S
C1812 C1814 1.327 . S
C1812 H1837 0.950 . S
C1813 C1812 1.349 . S
C1813 C1829 1.349 . S
C1814 C1812 1.327 . S
C1814 C1833 1.429 . S
C1814 H1838 0.950 . S
C1815 C1832 1.574 . S
C1815 C1834 1.368 . S
C1815 H1839 0.949 . S
H1816 C1820 0.949 . S
C1817 C1818 1.349 . S
C1817 C1819 1.327 . S
C1817 H1840 0.950 . S
C1818 C1817 1.349 . S
C1818 C1830 1.349 . S
C1819 C1817 1.327 . S
C1819 C1835 1.429 . S
C1819 H1841 0.950 . S
C1820 H1816 0.949 . S
C1820 C1828 1.574 . S
C1820 C1836 1.368 . S
H1821 C1829 0.950 . S
H1822 C1827 0.950 . S
H1823 C1828 0.949 . S
H1824 C1830 0.950 . S
H1825 C1831 0.950 . S
H1826 C1832 0.949 . S
C1827 H1822 0.950 . S
C1827 C1829 1.327 . S
C1827 C1833 1.429 . S
C1828 C1820 1.574 . S
C1828 H1823 0.949 . S
C1828 C1834 1.368 . S
C1829 C1813 1.349 . S
C1829 H1821 0.950 . S
C1829 C1827 1.327 . S
C1830 C1818 1.349 . S
C1830 H1824 0.950 . S
C1830 C1831 1.327 . S
C1831 H1825 0.950 . S
C1831 C1830 1.327 . S
C1831 C1835 1.429 . S
C1832 C1815 1.574 . S
C1832 H1826 0.949 . S
C1832 C1836 1.368 . S
C1833 C1814 1.429 . S
C1833 C1827 1.429 . S
C1833 C1834 1.523 . S
C1834 C1815 1.368 . S
C1834 C1828 1.368 . S
C1834 C1833 1.523 . S
C1835 C1819 1.429 . S
C1835 C1831 1.429 . S
C1835 C1836 1.523 . S
C1836 C1820 1.368 . S
C1836 C1832 1.368 . S
C1836 C1835 1.523 . S
H1837 C1812 0.950 . S
H1838 C1814 0.950 . S
H1839 C1815 0.949 . S
H1840 C1817 0.950 . S
H1841 C1819 0.950 . S
C1842 C1843 1.349 . S
C1842 C1844 1.327 . S
C1842 H1867 0.950 . S
C1843 C1842 1.349 . S
C1843 C1859 1.349 . S
C1844 C1842 1.327 . S
C1844 C1863 1.429 . S
C1844 H1868 0.950 . S
C1845 C1862 1.574 1_455 S
C1845 C1864 1.368 . S
C1845 H1869 0.949 . S
H1846 C1850 0.949 . S
C1847 C1848 1.349 . S
C1847 C1849 1.327 . S
C1847 H1870 0.950 . S
C1848 C1847 1.349 . S
C1848 C1860 1.349 . S
C1849 C1847 1.327 . S
C1849 C1865 1.429 . S
C1849 H1871 0.950 . S
C1850 H1846 0.949 . S
C1850 C1858 1.574 1_655 S
C1850 C1866 1.368 . S
H1851 C1859 0.950 . S
H1852 C1857 0.950 . S
H1853 C1858 0.949 . S
H1854 C1860 0.950 . S
H1855 C1861 0.950 . S
H1856 C1862 0.949 . S
C1857 H1852 0.950 . S
C1857 C1859 1.327 . S
C1857 C1863 1.429 . S
C1858 C1850 1.574 1_455 S
C1858 H1853 0.949 . S
C1858 C1864 1.368 . S
C1859 C1843 1.349 . S
C1859 H1851 0.950 . S
C1859 C1857 1.327 . S
C1860 C1848 1.349 . S
C1860 H1854 0.950 . S
C1860 C1861 1.327 . S
C1861 H1855 0.950 . S
C1861 C1860 1.327 . S
C1861 C1865 1.429 . S
C1862 C1845 1.574 1_655 S
C1862 H1856 0.949 . S
C1862 C1866 1.368 . S
C1863 C1844 1.429 . S
C1863 C1857 1.429 . S
C1863 C1864 1.523 . S
C1864 C1845 1.368 . S
C1864 C1858 1.368 . S
C1864 C1863 1.523 . S
C1865 C1849 1.429 . S
C1865 C1861 1.429 . S
C1865 C1866 1.523 . S
C1866 C1850 1.368 . S
C1866 C1862 1.368 . S
C1866 C1865 1.523 . S
H1867 C1842 0.950 . S
H1868 C1844 0.950 . S
H1869 C1845 0.949 . S
H1870 C1847 0.950 . S
H1871 C1849 0.950 . S
C1872 C1873 1.349 . S
C1872 C1874 1.327 . S
C1872 H1897 0.950 . S
C1873 C1872 1.349 . S
C1873 C1889 1.349 . S
C1874 C1872 1.327 . S
C1874 C1893 1.429 . S
C1874 H1898 0.950 . S
C1875 C1892 1.574 . S
C1875 C1894 1.368 1_455 S
C1875 H1899 0.949 . S
H1876 C1880 0.949 . S
C1877 C1878 1.349 . S
C1877 C1879 1.327 . S
C1877 H1900 0.950 . S
C1878 C1877 1.349 . S
C1878 C1890 1.349 . S
C1879 C1877 1.327 . S
C1879 C1895 1.429 . S
C1879 H1901 0.950 . S
C1880 H1876 0.949 . S
C1880 C1888 1.574 . S
C1880 C1896 1.368 1_655 S
H1881 C1889 0.950 . S
H1882 C1887 0.950 . S
H1883 C1888 0.949 . S
H1884 C1890 0.950 . S
H1885 C1891 0.950 . S
H1886 C1892 0.949 . S
C1887 H1882 0.950 . S
C1887 C1889 1.327 . S
C1887 C1893 1.429 . S
C1888 C1880 1.574 . S
C1888 H1883 0.949 . S
C1888 C1894 1.368 . S
C1889 C1873 1.349 . S
C1889 H1881 0.950 . S
C1889 C1887 1.327 . S
C1890 C1878 1.349 . S
C1890 H1884 0.950 . S
C1890 C1891 1.327 . S
C1891 H1885 0.950 . S
C1891 C1890 1.327 . S
C1891 C1895 1.429 . S
C1892 C1875 1.574 . S
C1892 H1886 0.949 . S
C1892 C1896 1.368 . S
C1893 C1874 1.429 . S
C1893 C1887 1.429 . S
C1893 C1894 1.523 . S
C1894 C1875 1.368 1_655 S
C1894 C1888 1.368 . S
C1894 C1893 1.523 . S
C1895 C1879 1.429 . S
C1895 C1891 1.429 . S
C1895 C1896 1.523 . S
C1896 C1880 1.368 1_455 S
C1896 C1892 1.368 . S
C1896 C1895 1.523 . S
H1897 C1872 0.950 . S
H1898 C1874 0.950 . S
H1899 C1875 0.949 . S
H1900 C1877 0.950 . S
H1901 C1879 0.950 . S
C1902 C1903 1.349 . S
C1902 C1904 1.327 . S
C1902 H1927 0.950 . S
C1903 C1902 1.349 . S
C1903 C1919 1.349 . S
C1904 C1902 1.327 . S
C1904 C1923 1.429 . S
C1904 H1928 0.950 . S
C1905 C1922 1.574 1_655 S
C1905 C1924 1.368 . S
C1905 H1929 0.949 . S
H1906 C1910 0.949 . S
C1907 C1908 1.349 . S
C1907 C1909 1.327 . S
C1907 H1930 0.950 . S
C1908 C1907 1.349 . S
C1908 C1920 1.349 . S
C1909 C1907 1.327 . S
C1909 C1925 1.429 . S
C1909 H1931 0.950 . S
C1910 H1906 0.949 . S
C1910 C1918 1.574 1_455 S
C1910 C1926 1.368 . S
H1911 C1919 0.950 . S
H1912 C1917 0.950 . S
H1913 C1918 0.949 . S
H1914 C1920 0.950 . S
H1915 C1921 0.950 . S
H1916 C1922 0.949 . S
C1917 H1912 0.950 . S
C1917 C1919 1.327 . S
C1917 C1923 1.429 . S
C1918 C1910 1.574 1_655 S
C1918 H1913 0.949 . S
C1918 C1924 1.368 . S
C1919 C1903 1.349 . S
C1919 H1911 0.950 . S
C1919 C1917 1.327 . S
C1920 C1908 1.349 . S
C1920 H1914 0.950 . S
C1920 C1921 1.327 . S
C1921 H1915 0.950 . S
C1921 C1920 1.327 . S
C1921 C1925 1.429 . S
C1922 C1905 1.574 1_455 S
C1922 H1916 0.949 . S
C1922 C1926 1.368 . S
C1923 C1904 1.429 . S
C1923 C1917 1.429 . S
C1923 C1924 1.523 . S
C1924 C1905 1.368 . S
C1924 C1918 1.368 . S
C1924 C1923 1.523 . S
C1925 C1909 1.429 . S
C1925 C1921 1.429 . S
C1925 C1926 1.523 . S
C1926 C1910 1.368 . S
C1926 C1922 1.368 . S
C1926 C1925 1.523 . S
H1927 C1902 0.950 . S
H1928 C1904 0.950 . S
H1929 C1905 0.949 . S
H1930 C1907 0.950 . S
H1931 C1909 0.950 . S
C1932 C1933 1.349 . S
C1932 C1934 1.327 . S
C1932 H1957 0.950 . S
C1933 C1932 1.349 . S
C1933 C1949 1.349 . S
C1934 C1932 1.327 . S
C1934 C1953 1.429 . S
C1934 H1958 0.950 . S
C1935 C1952 1.574 . S
C1935 C1954 1.368 . S
C1935 H1959 0.949 . S
H1936 C1940 0.949 . S
C1937 C1938 1.349 . S
C1937 C1939 1.327 . S
C1937 H1960 0.950 . S
C1938 C1937 1.349 . S
C1938 C1950 1.349 . S
C1939 C1937 1.327 . S
C1939 C1955 1.429 . S
C1939 H1961 0.950 . S
C1940 H1936 0.949 . S
C1940 C1948 1.574 . S
C1940 C1956 1.368 . S
H1941 C1949 0.950 . S
H1942 C1947 0.950 . S
H1943 C1948 0.949 . S
H1944 C1950 0.950 . S
H1945 C1951 0.950 . S
H1946 C1952 0.949 . S
C1947 H1942 0.950 . S
C1947 C1949 1.327 . S
C1947 C1953 1.429 . S
C1948 C1940 1.574 . S
C1948 H1943 0.949 . S
C1948 C1954 1.368 . S
C1949 C1933 1.349 . S
C1949 H1941 0.950 . S
C1949 C1947 1.327 . S
C1950 C1938 1.349 . S
C1950 H1944 0.950 . S
C1950 C1951 1.327 . S
C1951 H1945 0.950 . S
C1951 C1950 1.327 . S
C1951 C1955 1.429 . S
C1952 C1935 1.574 . S
C1952 H1946 0.949 . S
C1952 C1956 1.368 . S
C1953 C1934 1.429 . S
C1953 C1947 1.429 . S
C1953 C1954 1.523 . S
C1954 C1935 1.368 . S
C1954 C1948 1.368 . S
C1954 C1953 1.523 . S
C1955 C1939 1.429 . S
C1955 C1951 1.429 . S
C1955 C1956 1.523 . S
C1956 C1940 1.368 . S
C1956 C1952 1.368 . S
C1956 C1955 1.523 . S
H1957 C1932 0.950 . S
H1958 C1934 0.950 . S
H1959 C1935 0.949 . S
H1960 C1937 0.950 . S
H1961 C1939 0.950 . S
C1962 C1963 1.349 . S
C1962 C1964 1.327 . S
C1962 H1987 0.950 . S
C1963 C1962 1.349 . S
C1963 C1979 1.349 . S
C1964 C1962 1.327 . S
C1964 C1983 1.429 . S
C1964 H1988 0.950 . S
C1965 C1982 1.574 . S
C1965 C1984 1.368 . S
C1965 H1989 0.949 . S
H1966 C1970 0.949 . S
C1967 C1968 1.349 . S
C1967 C1969 1.327 . S
C1967 H1990 0.950 . S
C1968 C1967 1.349 . S
C1968 C1980 1.349 . S
C1969 C1967 1.327 . S
C1969 C1985 1.429 . S
C1969 H1991 0.950 . S
C1970 H1966 0.949 . S
C1970 C1978 1.574 . S
C1970 C1986 1.368 . S
H1971 C1979 0.950 . S
H1972 C1977 0.950 . S
H1973 C1978 0.949 . S
H1974 C1980 0.950 . S
H1975 C1981 0.950 . S
H1976 C1982 0.949 . S
C1977 H1972 0.950 . S
C1977 C1979 1.327 . S
C1977 C1983 1.429 . S
C1978 C1970 1.574 . S
C1978 H1973 0.949 . S
C1978 C1984 1.368 . S
C1979 C1963 1.349 . S
C1979 H1971 0.950 . S
C1979 C1977 1.327 . S
C1980 C1968 1.349 . S
C1980 H1974 0.950 . S
C1980 C1981 1.327 . S
C1981 H1975 0.950 . S
C1981 C1980 1.327 . S
C1981 C1985 1.429 . S
C1982 C1965 1.574 . S
C1982 H1976 0.949 . S
C1982 C1986 1.368 . S
C1983 C1964 1.429 . S
C1983 C1977 1.429 . S
C1983 C1984 1.523 . S
C1984 C1965 1.368 . S
C1984 C1978 1.368 . S
C1984 C1983 1.523 . S
C1985 C1969 1.429 . S
C1985 C1981 1.429 . S
C1985 C1986 1.523 . S
C1986 C1970 1.368 . S
C1986 C1982 1.368 . S
C1986 C1985 1.523 . S
H1987 C1962 0.950 . S
H1988 C1964 0.950 . S
H1989 C1965 0.949 . S
H1990 C1967 0.950 . S
H1991 C1969 0.950 . S
C1992 C1993 1.349 . S
C1992 C1994 1.327 . S
C1992 H2017 0.950 . S
C1993 C1992 1.349 . S
C1993 C2009 1.349 . S
C1994 C1992 1.327 . S
C1994 C2013 1.429 . S
C1994 H2018 0.950 . S
C1995 C2012 1.574 . S
C1995 C2014 1.368 1_455 S
C1995 H2019 0.949 . S
H1996 C2000 0.949 . S
C1997 C1998 1.349 . S
C1997 C1999 1.327 . S
C1997 H2020 0.950 . S
C1998 C1997 1.349 . S
C1998 C2010 1.349 . S
C1999 C1997 1.327 . S
C1999 C2015 1.429 . S
C1999 H2021 0.950 . S
C2000 H1996 0.949 . S
C2000 C2008 1.574 . S
C2000 C2016 1.368 1_655 S
H2001 C2009 0.950 . S
H2002 C2007 0.950 . S
H2003 C2008 0.949 . S
H2004 C2010 0.950 . S
H2005 C2011 0.950 . S
H2006 C2012 0.949 . S
C2007 H2002 0.950 . S
C2007 C2009 1.327 . S
C2007 C2013 1.429 . S
C2008 C2000 1.574 . S
C2008 H2003 0.949 . S
C2008 C2014 1.368 . S
C2009 C1993 1.349 . S
C2009 H2001 0.950 . S
C2009 C2007 1.327 . S
C2010 C1998 1.349 . S
C2010 H2004 0.950 . S
C2010 C2011 1.327 . S
C2011 H2005 0.950 . S
C2011 C2010 1.327 . S
C2011 C2015 1.429 . S
C2012 C1995 1.574 . S
C2012 H2006 0.949 . S
C2012 C2016 1.368 . S
C2013 C1994 1.429 . S
C2013 C2007 1.429 . S
C2013 C2014 1.523 . S
C2014 C1995 1.368 1_655 S
C2014 C2008 1.368 . S
C2014 C2013 1.523 . S
C2015 C1999 1.429 . S
C2015 C2011 1.429 . S
C2015 C2016 1.523 . S
C2016 C2000 1.368 1_455 S
C2016 C2012 1.368 . S
C2016 C2015 1.523 . S
H2017 C1992 0.950 . S
H2018 C1994 0.950 . S
H2019 C1995 0.949 . S
H2020 C1997 0.950 . S
H2021 C1999 0.950 . S
C2022 C2023 1.349 . S
C2022 C2024 1.327 . S
C2022 H2047 0.950 . S
C2023 C2022 1.349 . S
C2023 C2039 1.349 . S
C2024 C2022 1.327 . S
C2024 C2043 1.429 . S
C2024 H2048 0.950 . S
C2025 C2042 1.574 . S
C2025 C2044 1.368 . S
C2025 H2049 0.949 . S
H2026 C2030 0.949 . S
C2027 C2028 1.349 . S
C2027 C2029 1.327 . S
C2027 H2050 0.950 . S
C2028 C2027 1.349 . S
C2028 C2040 1.349 . S
C2029 C2027 1.327 . S
C2029 C2045 1.429 . S
C2029 H2051 0.950 . S
C2030 H2026 0.949 . S
C2030 C2038 1.574 . S
C2030 C2046 1.368 . S
H2031 C2039 0.950 . S
H2032 C2037 0.950 . S
H2033 C2038 0.949 . S
H2034 C2040 0.950 . S
H2035 C2041 0.950 . S
H2036 C2042 0.949 . S
C2037 H2032 0.950 . S
C2037 C2039 1.327 . S
C2037 C2043 1.429 . S
C2038 C2030 1.574 . S
C2038 H2033 0.949 . S
C2038 C2044 1.368 . S
C2039 C2023 1.349 . S
C2039 H2031 0.950 . S
C2039 C2037 1.327 . S
C2040 C2028 1.349 . S
C2040 H2034 0.950 . S
C2040 C2041 1.327 . S
C2041 H2035 0.950 . S
C2041 C2040 1.327 . S
C2041 C2045 1.429 . S
C2042 C2025 1.574 . S
C2042 H2036 0.949 . S
C2042 C2046 1.368 . S
C2043 C2024 1.429 . S
C2043 C2037 1.429 . S
C2043 C2044 1.523 . S
C2044 C2025 1.368 . S
C2044 C2038 1.368 . S
C2044 C2043 1.523 . S
C2045 C2029 1.429 . S
C2045 C2041 1.429 . S
C2045 C2046 1.523 . S
C2046 C2030 1.368 . S
C2046 C2042 1.368 . S
C2046 C2045 1.523 . S
H2047 C2022 0.950 . S
H2048 C2024 0.950 . S
H2049 C2025 0.949 . S
H2050 C2027 0.950 . S
H2051 C2029 0.950 . S
C2052 C2053 1.349 . S
C2052 C2054 1.327 . S
C2052 H2077 0.950 . S
C2053 C2052 1.349 . S
C2053 C2069 1.349 . S
C2054 C2052 1.327 . S
C2054 C2073 1.429 . S
C2054 H2078 0.950 . S
C2055 C2072 1.574 . S
C2055 C2074 1.368 . S
C2055 H2079 0.949 . S
H2056 C2060 0.949 . S
C2057 C2058 1.349 . S
C2057 C2059 1.327 . S
C2057 H2080 0.950 . S
C2058 C2057 1.349 . S
C2058 C2070 1.349 . S
C2059 C2057 1.327 . S
C2059 C2075 1.429 . S
C2059 H2081 0.950 . S
C2060 H2056 0.949 . S
C2060 C2068 1.574 . S
C2060 C2076 1.368 . S
H2061 C2069 0.950 . S
H2062 C2067 0.950 . S
H2063 C2068 0.949 . S
H2064 C2070 0.950 . S
H2065 C2071 0.950 . S
H2066 C2072 0.949 . S
C2067 H2062 0.950 . S
C2067 C2069 1.327 . S
C2067 C2073 1.429 . S
C2068 C2060 1.574 . S
C2068 H2063 0.949 . S
C2068 C2074 1.368 . S
C2069 C2053 1.349 . S
C2069 H2061 0.950 . S
C2069 C2067 1.327 . S
C2070 C2058 1.349 . S
C2070 H2064 0.950 . S
C2070 C2071 1.327 . S
C2071 H2065 0.950 . S
C2071 C2070 1.327 . S
C2071 C2075 1.429 . S
C2072 C2055 1.574 . S
C2072 H2066 0.949 . S
C2072 C2076 1.368 . S
C2073 C2054 1.429 . S
C2073 C2067 1.429 . S
C2073 C2074 1.523 . S
C2074 C2055 1.368 . S
C2074 C2068 1.368 . S
C2074 C2073 1.523 . S
C2075 C2059 1.429 . S
C2075 C2071 1.429 . S
C2075 C2076 1.523 . S
C2076 C2060 1.368 . S
C2076 C2072 1.368 . S
C2076 C2075 1.523 . S
H2077 C2052 0.950 . S
H2078 C2054 0.950 . S
H2079 C2055 0.949 . S
H2080 C2057 0.950 . S
H2081 C2059 0.950 . S
C2082 C2083 1.349 . S
C2082 C2084 1.327 . S
C2082 H2107 0.950 . S
C2083 C2082 1.349 . S
C2083 C2099 1.349 . S
C2084 C2082 1.327 . S
C2084 C2103 1.429 . S
C2084 H2108 0.950 . S
C2085 C2102 1.574 1_655 S
C2085 C2104 1.368 . S
C2085 H2109 0.949 . S
H2086 C2090 0.949 . S
C2087 C2088 1.349 . S
C2087 C2089 1.327 . S
C2087 H2110 0.950 . S
C2088 C2087 1.349 . S
C2088 C2100 1.349 . S
C2089 C2087 1.327 . S
C2089 C2105 1.429 . S
C2089 H2111 0.950 . S
C2090 H2086 0.949 . S
C2090 C2098 1.574 1_455 S
C2090 C2106 1.368 . S
H2091 C2099 0.950 . S
H2092 C2097 0.950 . S
H2093 C2098 0.949 . S
H2094 C2100 0.950 . S
H2095 C2101 0.950 . S
H2096 C2102 0.949 . S
C2097 H2092 0.950 . S
C2097 C2099 1.327 . S
C2097 C2103 1.429 . S
C2098 C2090 1.574 1_655 S
C2098 H2093 0.949 . S
C2098 C2104 1.368 . S
C2099 C2083 1.349 . S
C2099 H2091 0.950 . S
C2099 C2097 1.327 . S
C2100 C2088 1.349 . S
C2100 H2094 0.950 . S
C2100 C2101 1.327 . S
C2101 H2095 0.950 . S
C2101 C2100 1.327 . S
C2101 C2105 1.429 . S
C2102 C2085 1.574 1_455 S
C2102 H2096 0.949 . S
C2102 C2106 1.368 . S
C2103 C2084 1.429 . S
C2103 C2097 1.429 . S
C2103 C2104 1.523 . S
C2104 C2085 1.368 . S
C2104 C2098 1.368 . S
C2104 C2103 1.523 . S
C2105 C2089 1.429 . S
C2105 C2101 1.429 . S
C2105 C2106 1.523 . S
C2106 C2090 1.368 . S
C2106 C2102 1.368 . S
C2106 C2105 1.523 . S
H2107 C2082 0.950 . S
H2108 C2084 0.950 . S
H2109 C2085 0.949 . S
H2110 C2087 0.950 . S
H2111 C2089 0.950 . S
C2112 C2113 1.349 . S
C2112 C2114 1.327 . S
C2112 H2137 0.950 . S
C2113 C2112 1.349 . S
C2113 C2129 1.349 . S
C2114 C2112 1.327 . S
C2114 C2133 1.429 . S
C2114 H2138 0.950 . S
C2115 C2132 1.574 . S
C2115 C2134 1.368 . S
C2115 H2139 0.949 . S
H2116 C2120 0.949 . S
C2117 C2118 1.349 . S
C2117 C2119 1.327 . S
C2117 H2140 0.950 . S
C2118 C2117 1.349 . S
C2118 C2130 1.349 . S
C2119 C2117 1.327 . S
C2119 C2135 1.429 . S
C2119 H2141 0.950 . S
C2120 H2116 0.949 . S
C2120 C2128 1.574 . S
C2120 C2136 1.368 . S
H2121 C2129 0.950 . S
H2122 C2127 0.950 . S
H2123 C2128 0.949 . S
H2124 C2130 0.950 . S
H2125 C2131 0.950 . S
H2126 C2132 0.949 . S
C2127 H2122 0.950 . S
C2127 C2129 1.327 . S
C2127 C2133 1.429 . S
C2128 C2120 1.574 . S
C2128 H2123 0.949 . S
C2128 C2134 1.368 1_554 S
C2129 C2113 1.349 . S
C2129 H2121 0.950 . S
C2129 C2127 1.327 . S
C2130 C2118 1.349 . S
C2130 H2124 0.950 . S
C2130 C2131 1.327 . S
C2131 H2125 0.950 . S
C2131 C2130 1.327 . S
C2131 C2135 1.429 . S
C2132 C2115 1.574 . S
C2132 H2126 0.949 . S
C2132 C2136 1.368 1_556 S
C2133 C2114 1.429 . S
C2133 C2127 1.429 . S
C2133 C2134 1.523 . S
C2134 C2115 1.368 . S
C2134 C2128 1.368 1_556 S
C2134 C2133 1.523 . S
C2135 C2119 1.429 . S
C2135 C2131 1.429 . S
C2135 C2136 1.523 . S
C2136 C2120 1.368 . S
C2136 C2132 1.368 1_554 S
C2136 C2135 1.523 . S
H2137 C2112 0.950 . S
H2138 C2114 0.950 . S
H2139 C2115 0.949 . S
H2140 C2117 0.950 . S
H2141 C2119 0.950 . S
C2142 C2143 1.349 . S
C2142 C2144 1.327 . S
C2142 H2167 0.950 . S
C2143 C2142 1.349 . S
C2143 C2159 1.349 . S
C2144 C2142 1.327 . S
C2144 C2163 1.429 . S
C2144 H2168 0.950 . S
C2145 C2162 1.574 1_545 S
C2145 C2164 1.368 . S
C2145 H2169 0.949 . S
H2146 C2150 0.949 . S
C2147 C2148 1.349 . S
C2147 C2149 1.327 . S
C2147 H2170 0.950 . S
C2148 C2147 1.349 . S
C2148 C2160 1.349 . S
C2149 C2147 1.327 . S
C2149 C2165 1.429 . S
C2149 H2171 0.950 . S
C2150 H2146 0.949 . S
C2150 C2158 1.574 1_565 S
C2150 C2166 1.368 . S
H2151 C2159 0.950 . S
H2152 C2157 0.950 . S
H2153 C2158 0.949 . S
H2154 C2160 0.950 . S
H2155 C2161 0.950 . S
H2156 C2162 0.949 . S
C2157 H2152 0.950 . S
C2157 C2159 1.327 . S
C2157 C2163 1.429 . S
C2158 C2150 1.574 1_545 S
C2158 H2153 0.949 . S
C2158 C2164 1.368 . S
C2159 C2143 1.349 . S
C2159 H2151 0.950 . S
C2159 C2157 1.327 . S
C2160 C2148 1.349 . S
C2160 H2154 0.950 . S
C2160 C2161 1.327 . S
C2161 H2155 0.950 . S
C2161 C2160 1.327 . S
C2161 C2165 1.429 . S
C2162 C2145 1.574 1_565 S
C2162 H2156 0.949 . S
C2162 C2166 1.368 . S
C2163 C2144 1.429 . S
C2163 C2157 1.429 . S
C2163 C2164 1.523 . S
C2164 C2145 1.368 . S
C2164 C2158 1.368 . S
C2164 C2163 1.523 . S
C2165 C2149 1.429 . S
C2165 C2161 1.429 . S
C2165 C2166 1.523 . S
C2166 C2150 1.368 . S
C2166 C2162 1.368 . S
C2166 C2165 1.523 . S
H2167 C2142 0.950 . S
H2168 C2144 0.950 . S
H2169 C2145 0.949 . S
H2170 C2147 0.950 . S
H2171 C2149 0.950 . S
C2172 C2173 1.349 . S
C2172 C2174 1.327 . S
C2172 H2197 0.950 . S
C2173 C2172 1.349 . S
C2173 C2189 1.349 . S
C2174 C2172 1.327 . S
C2174 C2193 1.429 . S
C2174 H2198 0.950 . S
C2175 C2192 1.574 . S
C2175 C2194 1.368 . S
C2175 H2199 0.949 . S
H2176 C2180 0.949 . S
C2177 C2178 1.349 . S
C2177 C2179 1.327 . S
C2177 H2200 0.950 . S
C2178 C2177 1.349 . S
C2178 C2190 1.349 . S
C2179 C2177 1.327 . S
C2179 C2195 1.429 . S
C2179 H2201 0.950 . S
C2180 H2176 0.949 . S
C2180 C2188 1.574 . S
C2180 C2196 1.368 . S
H2181 C2189 0.950 . S
H2182 C2187 0.950 . S
H2183 C2188 0.949 . S
H2184 C2190 0.950 . S
H2185 C2191 0.950 . S
H2186 C2192 0.949 . S
C2187 H2182 0.950 . S
C2187 C2189 1.327 . S
C2187 C2193 1.429 . S
C2188 C2180 1.574 . S
C2188 H2183 0.949 . S
C2188 C2194 1.368 . S
C2189 C2173 1.349 . S
C2189 H2181 0.950 . S
C2189 C2187 1.327 . S
C2190 C2178 1.349 . S
C2190 H2184 0.950 . S
C2190 C2191 1.327 . S
C2191 H2185 0.950 . S
C2191 C2190 1.327 . S
C2191 C2195 1.429 . S
C2192 C2175 1.574 . S
C2192 H2186 0.949 . S
C2192 C2196 1.368 . S
C2193 C2174 1.429 . S
C2193 C2187 1.429 . S
C2193 C2194 1.523 . S
C2194 C2175 1.368 . S
C2194 C2188 1.368 . S
C2194 C2193 1.523 . S
C2195 C2179 1.429 . S
C2195 C2191 1.429 . S
C2195 C2196 1.523 . S
C2196 C2180 1.368 . S
C2196 C2192 1.368 . S
C2196 C2195 1.523 . S
H2197 C2172 0.950 . S
H2198 C2174 0.950 . S
H2199 C2175 0.949 . S
H2200 C2177 0.950 . S
H2201 C2179 0.950 . S
C2202 C2203 1.349 . S
C2202 C2204 1.327 . S
C2202 H2227 0.950 . S
C2203 C2202 1.349 . S
C2203 C2219 1.349 . S
C2204 C2202 1.327 . S
C2204 C2223 1.429 . S
C2204 H2228 0.950 . S
C2205 C2222 1.574 1_545 S
C2205 C2224 1.368 . S
C2205 H2229 0.949 . S
H2206 C2210 0.949 . S
C2207 C2208 1.349 . S
C2207 C2209 1.327 . S
C2207 H2230 0.950 . S
C2208 C2207 1.349 . S
C2208 C2220 1.349 . S
C2209 C2207 1.327 . S
C2209 C2225 1.429 . S
C2209 H2231 0.950 . S
C2210 H2206 0.949 . S
C2210 C2218 1.574 1_565 S
C2210 C2226 1.368 . S
H2211 C2219 0.950 . S
H2212 C2217 0.950 . S
H2213 C2218 0.949 . S
H2214 C2220 0.950 . S
H2215 C2221 0.950 . S
H2216 C2222 0.949 . S
C2217 H2212 0.950 . S
C2217 C2219 1.327 . S
C2217 C2223 1.429 . S
C2218 C2210 1.574 1_545 S
C2218 H2213 0.949 . S
C2218 C2224 1.368 . S
C2219 C2203 1.349 . S
C2219 H2211 0.950 . S
C2219 C2217 1.327 . S
C2220 C2208 1.349 . S
C2220 H2214 0.950 . S
C2220 C2221 1.327 . S
C2221 H2215 0.950 . S
C2221 C2220 1.327 . S
C2221 C2225 1.429 . S
C2222 C2205 1.574 1_565 S
C2222 H2216 0.949 . S
C2222 C2226 1.368 . S
C2223 C2204 1.429 . S
C2223 C2217 1.429 . S
C2223 C2224 1.523 . S
C2224 C2205 1.368 . S
C2224 C2218 1.368 . S
C2224 C2223 1.523 . S
C2225 C2209 1.429 . S
C2225 C2221 1.429 . S
C2225 C2226 1.523 . S
C2226 C2210 1.368 . S
C2226 C2222 1.368 . S
C2226 C2225 1.523 . S
H2227 C2202 0.950 . S
H2228 C2204 0.950 . S
H2229 C2205 0.949 . S
H2230 C2207 0.950 . S
H2231 C2209 0.950 . S
C2232 C2233 1.349 . S
C2232 C2234 1.327 . S
C2232 H2257 0.950 . S
C2233 C2232 1.349 . S
C2233 C2249 1.349 . S
C2234 C2232 1.327 . S
C2234 C2253 1.429 . S
C2234 H2258 0.950 . S
C2235 C2252 1.574 . S
C2235 C2254 1.368 . S
C2235 H2259 0.949 . S
H2236 C2240 0.949 . S
C2237 C2238 1.349 . S
C2237 C2239 1.327 . S
C2237 H2260 0.950 . S
C2238 C2237 1.349 . S
C2238 C2250 1.349 . S
C2239 C2237 1.327 . S
C2239 C2255 1.429 . S
C2239 H2261 0.950 . S
C2240 H2236 0.949 . S
C2240 C2248 1.574 . S
C2240 C2256 1.368 . S
H2241 C2249 0.950 . S
H2242 C2247 0.950 . S
H2243 C2248 0.949 . S
H2244 C2250 0.950 . S
H2245 C2251 0.950 . S
H2246 C2252 0.949 . S
C2247 H2242 0.950 . S
C2247 C2249 1.327 . S
C2247 C2253 1.429 . S
C2248 C2240 1.574 . S
C2248 H2243 0.949 . S
C2248 C2254 1.368 1_556 S
C2249 C2233 1.349 . S
C2249 H2241 0.950 . S
C2249 C2247 1.327 . S
C2250 C2238 1.349 . S
C2250 H2244 0.950 . S
C2250 C2251 1.327 . S
C2251 H2245 0.950 . S
C2251 C2250 1.327 . S
C2251 C2255 1.429 . S
C2252 C2235 1.574 . S
C2252 H2246 0.949 . S
C2252 C2256 1.368 1_554 S
C2253 C2234 1.429 . S
C2253 C2247 1.429 . S
C2253 C2254 1.523 . S
C2254 C2235 1.368 . S
C2254 C2248 1.368 1_554 S
C2254 C2253 1.523 . S
C2255 C2239 1.429 . S
C2255 C2251 1.429 . S
C2255 C2256 1.523 . S
C2256 C2240 1.368 . S
C2256 C2252 1.368 1_556 S
C2256 C2255 1.523 . S
H2257 C2232 0.950 . S
H2258 C2234 0.950 . S
H2259 C2235 0.949 . S
H2260 C2237 0.950 . S
H2261 C2239 0.950 . S
C2262 C2263 1.349 . S
C2262 C2264 1.327 . S
C2262 H2287 0.950 . S
C2263 C2262 1.349 . S
C2263 C2279 1.349 . S
C2264 C2262 1.327 . S
C2264 C2283 1.429 . S
C2264 H2288 0.950 . S
C2265 C2282 1.574 1_565 S
C2265 C2284 1.368 . S
C2265 H2289 0.949 . S
H2266 C2270 0.949 . S
C2267 C2268 1.349 . S
C2267 C2269 1.327 . S
C2267 H2290 0.950 . S
C2268 C2267 1.349 . S
C2268 C2280 1.349 . S
C2269 C2267 1.327 . S
C2269 C2285 1.429 . S
C2269 H2291 0.950 . S
C2270 H2266 0.949 . S
C2270 C2278 1.574 1_545 S
C2270 C2286 1.368 . S
H2271 C2279 0.950 . S
H2272 C2277 0.950 . S
H2273 C2278 0.949 . S
H2274 C2280 0.950 . S
H2275 C2281 0.950 . S
H2276 C2282 0.949 . S
C2277 H2272 0.950 . S
C2277 C2279 1.327 . S
C2277 C2283 1.429 . S
C2278 C2270 1.574 1_565 S
C2278 H2273 0.949 . S
C2278 C2284 1.368 . S
C2279 C2263 1.349 . S
C2279 H2271 0.950 . S
C2279 C2277 1.327 . S
C2280 C2268 1.349 . S
C2280 H2274 0.950 . S
C2280 C2281 1.327 . S
C2281 H2275 0.950 . S
C2281 C2280 1.327 . S
C2281 C2285 1.429 . S
C2282 C2265 1.574 1_545 S
C2282 H2276 0.949 . S
C2282 C2286 1.368 . S
C2283 C2264 1.429 . S
C2283 C2277 1.429 . S
C2283 C2284 1.523 . S
C2284 C2265 1.368 . S
C2284 C2278 1.368 . S
C2284 C2283 1.523 . S
C2285 C2269 1.429 . S
C2285 C2281 1.429 . S
C2285 C2286 1.523 . S
C2286 C2270 1.368 . S
C2286 C2282 1.368 . S
C2286 C2285 1.523 . S
H2287 C2262 0.950 . S
H2288 C2264 0.950 . S
H2289 C2265 0.949 . S
H2290 C2267 0.950 . S
H2291 C2269 0.950 . S
C2292 C2293 1.349 . S
C2292 C2294 1.327 . S
C2292 H2317 0.950 . S
C2293 C2292 1.349 . S
C2293 C2309 1.349 . S
C2294 C2292 1.327 . S
C2294 C2313 1.429 . S
C2294 H2318 0.950 . S
C2295 C2312 1.574 . S
C2295 C2314 1.368 . S
C2295 H2319 0.949 . S
H2296 C2300 0.949 . S
C2297 C2298 1.349 . S
C2297 C2299 1.327 . S
C2297 H2320 0.950 . S
C2298 C2297 1.349 . S
C2298 C2310 1.349 . S
C2299 C2297 1.327 . S
C2299 C2315 1.429 . S
C2299 H2321 0.950 . S
C2300 H2296 0.949 . S
C2300 C2308 1.574 . S
C2300 C2316 1.368 . S
H2301 C2309 0.950 . S
H2302 C2307 0.950 . S
H2303 C2308 0.949 . S
H2304 C2310 0.950 . S
H2305 C2311 0.950 . S
H2306 C2312 0.949 . S
C2307 H2302 0.950 . S
C2307 C2309 1.327 . S
C2307 C2313 1.429 . S
C2308 C2300 1.574 . S
C2308 H2303 0.949 . S
C2308 C2314 1.368 . S
C2309 C2293 1.349 . S
C2309 H2301 0.950 . S
C2309 C2307 1.327 . S
C2310 C2298 1.349 . S
C2310 H2304 0.950 . S
C2310 C2311 1.327 . S
C2311 H2305 0.950 . S
C2311 C2310 1.327 . S
C2311 C2315 1.429 . S
C2312 C2295 1.574 . S
C2312 H2306 0.949 . S
C2312 C2316 1.368 . S
C2313 C2294 1.429 . S
C2313 C2307 1.429 . S
C2313 C2314 1.523 . S
C2314 C2295 1.368 . S
C2314 C2308 1.368 . S
C2314 C2313 1.523 . S
C2315 C2299 1.429 . S
C2315 C2311 1.429 . S
C2315 C2316 1.523 . S
C2316 C2300 1.368 . S
C2316 C2312 1.368 . S
C2316 C2315 1.523 . S
H2317 C2292 0.950 . S
H2318 C2294 0.950 . S
H2319 C2295 0.949 . S
H2320 C2297 0.950 . S
H2321 C2299 0.950 . S
C2322 C2323 1.349 . S
C2322 C2324 1.327 . S
C2322 H2347 0.950 . S
C2323 C2322 1.349 . S
C2323 C2339 1.349 . S
C2324 C2322 1.327 . S
C2324 C2343 1.429 . S
C2324 H2348 0.950 . S
C2325 C2342 1.574 1_545 S
C2325 C2344 1.368 . S
C2325 H2349 0.949 . S
H2326 C2330 0.949 . S
C2327 C2328 1.349 . S
C2327 C2329 1.327 . S
C2327 H2350 0.950 . S
C2328 C2327 1.349 . S
C2328 C2340 1.349 . S
C2329 C2327 1.327 . S
C2329 C2345 1.429 . S
C2329 H2351 0.950 . S
C2330 H2326 0.949 . S
C2330 C2338 1.574 1_565 S
C2330 C2346 1.368 . S
H2331 C2339 0.950 . S
H2332 C2337 0.950 . S
H2333 C2338 0.949 . S
H2334 C2340 0.950 . S
H2335 C2341 0.950 . S
H2336 C2342 0.949 . S
C2337 H2332 0.950 . S
C2337 C2339 1.327 . S
C2337 C2343 1.429 . S
C2338 C2330 1.574 1_545 S
C2338 H2333 0.949 . S
C2338 C2344 1.368 . S
C2339 C2323 1.349 . S
C2339 H2331 0.950 . S
C2339 C2337 1.327 . S
C2340 C2328 1.349 . S
C2340 H2334 0.950 . S
C2340 C2341 1.327 . S
C2341 H2335 0.950 . S
C2341 C2340 1.327 . S
C2341 C2345 1.429 . S
C2342 C2325 1.574 1_565 S
C2342 H2336 0.949 . S
C2342 C2346 1.368 . S
C2343 C2324 1.429 . S
C2343 C2337 1.429 . S
C2343 C2344 1.523 . S
C2344 C2325 1.368 . S
C2344 C2338 1.368 . S
C2344 C2343 1.523 . S
C2345 C2329 1.429 . S
C2345 C2341 1.429 . S
C2345 C2346 1.523 . S
C2346 C2330 1.368 . S
C2346 C2342 1.368 . S
C2346 C2345 1.523 . S
H2347 C2322 0.950 . S
H2348 C2324 0.950 . S
H2349 C2325 0.949 . S
H2350 C2327 0.950 . S
H2351 C2329 0.950 . S
C2352 C2353 1.349 . S
C2352 C2354 1.327 . S
C2352 H2377 0.950 . S
C2353 C2352 1.349 . S
C2353 C2369 1.349 . S
C2354 C2352 1.327 . S
C2354 C2373 1.429 . S
C2354 H2378 0.950 . S
C2355 C2372 1.574 . S
C2355 C2374 1.368 . S
C2355 H2379 0.949 . S
H2356 C2360 0.949 . S
C2357 C2358 1.349 . S
C2357 C2359 1.327 . S
C2357 H2380 0.950 . S
C2358 C2357 1.349 . S
C2358 C2370 1.349 . S
C2359 C2357 1.327 . S
C2359 C2375 1.429 . S
C2359 H2381 0.950 . S
C2360 H2356 0.949 . S
C2360 C2368 1.574 . S
C2360 C2376 1.368 . S
H2361 C2369 0.950 . S
H2362 C2367 0.950 . S
H2363 C2368 0.949 . S
H2364 C2370 0.950 . S
H2365 C2371 0.950 . S
H2366 C2372 0.949 . S
C2367 H2362 0.950 . S
C2367 C2369 1.327 . S
C2367 C2373 1.429 . S
C2368 C2360 1.574 . S
C2368 H2363 0.949 . S
C2368 C2374 1.368 . S
C2369 C2353 1.349 . S
C2369 H2361 0.950 . S
C2369 C2367 1.327 . S
C2370 C2358 1.349 . S
C2370 H2364 0.950 . S
C2370 C2371 1.327 . S
C2371 H2365 0.950 . S
C2371 C2370 1.327 . S
C2371 C2375 1.429 . S
C2372 C2355 1.574 . S
C2372 H2366 0.949 . S
C2372 C2376 1.368 . S
C2373 C2354 1.429 . S
C2373 C2367 1.429 . S
C2373 C2374 1.523 . S
C2374 C2355 1.368 . S
C2374 C2368 1.368 . S
C2374 C2373 1.523 . S
C2375 C2359 1.429 . S
C2375 C2371 1.429 . S
C2375 C2376 1.523 . S
C2376 C2360 1.368 . S
C2376 C2372 1.368 . S
C2376 C2375 1.523 . S
H2377 C2352 0.950 . S
H2378 C2354 0.950 . S
H2379 C2355 0.949 . S
H2380 C2357 0.950 . S
H2381 C2359 0.950 . S
C2382 C2383 1.349 . S
C2382 C2384 1.327 . S
C2382 H2407 0.950 . S
C2383 C2382 1.349 . S
C2383 C2399 1.349 . S
C2384 C2382 1.327 . S
C2384 C2403 1.429 . S
C2384 H2408 0.950 . S
C2385 C2402 1.574 . S
C2385 C2404 1.368 . S
C2385 H2409 0.949 . S
H2386 C2390 0.949 . S
C2387 C2388 1.349 . S
C2387 C2389 1.327 . S
C2387 H2410 0.950 . S
C2388 C2387 1.349 . S
C2388 C2400 1.349 . S
C2389 C2387 1.327 . S
C2389 C2405 1.429 . S
C2389 H2411 0.950 . S
C2390 H2386 0.949 . S
C2390 C2398 1.574 . S
C2390 C2406 1.368 . S
H2391 C2399 0.950 . S
H2392 C2397 0.950 . S
H2393 C2398 0.949 . S
H2394 C2400 0.950 . S
H2395 C2401 0.950 . S
H2396 C2402 0.949 . S
C2397 H2392 0.950 . S
C2397 C2399 1.327 . S
C2397 C2403 1.429 . S
C2398 C2390 1.574 . S
C2398 H2393 0.949 . S
C2398 C2404 1.368 . S
C2399 C2383 1.349 . S
C2399 H2391 0.950 . S
C2399 C2397 1.327 . S
C2400 C2388 1.349 . S
C2400 H2394 0.950 . S
C2400 C2401 1.327 . S
C2401 H2395 0.950 . S
C2401 C2400 1.327 . S
C2401 C2405 1.429 . S
C2402 C2385 1.574 . S
C2402 H2396 0.949 . S
C2402 C2406 1.368 . S
C2403 C2384 1.429 . S
C2403 C2397 1.429 . S
C2403 C2404 1.523 . S
C2404 C2385 1.368 . S
C2404 C2398 1.368 . S
C2404 C2403 1.523 . S
C2405 C2389 1.429 . S
C2405 C2401 1.429 . S
C2405 C2406 1.523 . S
C2406 C2390 1.368 . S
C2406 C2402 1.368 . S
C2406 C2405 1.523 . S
H2407 C2382 0.950 . S
H2408 C2384 0.950 . S
H2409 C2385 0.949 . S
H2410 C2387 0.950 . S
H2411 C2389 0.950 . S
C2412 C2413 1.349 . S
C2412 C2414 1.327 . S
C2412 H2437 0.950 . S
C2413 C2412 1.349 . S
C2413 C2429 1.349 . S
C2414 C2412 1.327 . S
C2414 C2433 1.429 . S
C2414 H2438 0.950 . S
C2415 C2432 1.574 . S
C2415 C2434 1.368 . S
C2415 H2439 0.949 . S
H2416 C2420 0.949 . S
C2417 C2418 1.349 . S
C2417 C2419 1.327 . S
C2417 H2440 0.950 . S
C2418 C2417 1.349 . S
C2418 C2430 1.349 . S
C2419 C2417 1.327 . S
C2419 C2435 1.429 . S
C2419 H2441 0.950 . S
C2420 H2416 0.949 . S
C2420 C2428 1.574 . S
C2420 C2436 1.368 . S
H2421 C2429 0.950 . S
H2422 C2427 0.950 . S
H2423 C2428 0.949 . S
H2424 C2430 0.950 . S
H2425 C2431 0.950 . S
H2426 C2432 0.949 . S
C2427 H2422 0.950 . S
C2427 C2429 1.327 . S
C2427 C2433 1.429 . S
C2428 C2420 1.574 . S
C2428 H2423 0.949 . S
C2428 C2434 1.368 1_556 S
C2429 C2413 1.349 . S
C2429 H2421 0.950 . S
C2429 C2427 1.327 . S
C2430 C2418 1.349 . S
C2430 H2424 0.950 . S
C2430 C2431 1.327 . S
C2431 H2425 0.950 . S
C2431 C2430 1.327 . S
C2431 C2435 1.429 . S
C2432 C2415 1.574 . S
C2432 H2426 0.949 . S
C2432 C2436 1.368 1_554 S
C2433 C2414 1.429 . S
C2433 C2427 1.429 . S
C2433 C2434 1.523 . S
C2434 C2415 1.368 . S
C2434 C2428 1.368 1_554 S
C2434 C2433 1.523 . S
C2435 C2419 1.429 . S
C2435 C2431 1.429 . S
C2435 C2436 1.523 . S
C2436 C2420 1.368 . S
C2436 C2432 1.368 1_556 S
C2436 C2435 1.523 . S
H2437 C2412 0.950 . S
H2438 C2414 0.950 . S
H2439 C2415 0.949 . S
H2440 C2417 0.950 . S
H2441 C2419 0.950 . S
C2442 C2443 1.349 . S
C2442 C2444 1.327 . S
C2442 H2467 0.950 . S
C2443 C2442 1.349 . S
C2443 C2459 1.349 . S
C2444 C2442 1.327 . S
C2444 C2463 1.429 . S
C2444 H2468 0.950 . S
C2445 C2462 1.574 . S
C2445 C2464 1.368 . S
C2445 H2469 0.949 . S
H2446 C2450 0.949 . S
C2447 C2448 1.349 . S
C2447 C2449 1.327 . S
C2447 H2470 0.950 . S
C2448 C2447 1.349 . S
C2448 C2460 1.349 . S
C2449 C2447 1.327 . S
C2449 C2465 1.429 . S
C2449 H2471 0.950 . S
C2450 H2446 0.949 . S
C2450 C2458 1.574 . S
C2450 C2466 1.368 . S
H2451 C2459 0.950 . S
H2452 C2457 0.950 . S
H2453 C2458 0.949 . S
H2454 C2460 0.950 . S
H2455 C2461 0.950 . S
H2456 C2462 0.949 . S
C2457 H2452 0.950 . S
C2457 C2459 1.327 . S
C2457 C2463 1.429 . S
C2458 C2450 1.574 . S
C2458 H2453 0.949 . S
C2458 C2464 1.368 . S
C2459 C2443 1.349 . S
C2459 H2451 0.950 . S
C2459 C2457 1.327 . S
C2460 C2448 1.349 . S
C2460 H2454 0.950 . S
C2460 C2461 1.327 . S
C2461 H2455 0.950 . S
C2461 C2460 1.327 . S
C2461 C2465 1.429 . S
C2462 C2445 1.574 . S
C2462 H2456 0.949 . S
C2462 C2466 1.368 . S
C2463 C2444 1.429 . S
C2463 C2457 1.429 . S
C2463 C2464 1.523 . S
C2464 C2445 1.368 . S
C2464 C2458 1.368 . S
C2464 C2463 1.523 . S
C2465 C2449 1.429 . S
C2465 C2461 1.429 . S
C2465 C2466 1.523 . S
C2466 C2450 1.368 . S
C2466 C2462 1.368 . S
C2466 C2465 1.523 . S
H2467 C2442 0.950 . S
H2468 C2444 0.950 . S
H2469 C2445 0.949 . S
H2470 C2447 0.950 . S
H2471 C2449 0.950 . S
C2472 C2473 1.349 . S
C2472 C2474 1.327 . S
C2472 H2497 0.950 . S
C2473 C2472 1.349 . S
C2473 C2489 1.349 . S
C2474 C2472 1.327 . S
C2474 C2493 1.429 . S
C2474 H2498 0.950 . S
C2475 C2492 1.574 . S
C2475 C2494 1.368 . S
C2475 H2499 0.949 . S
H2476 C2480 0.949 . S
C2477 C2478 1.349 . S
C2477 C2479 1.327 . S
C2477 H2500 0.950 . S
C2478 C2477 1.349 . S
C2478 C2490 1.349 . S
C2479 C2477 1.327 . S
C2479 C2495 1.429 . S
C2479 H2501 0.950 . S
C2480 H2476 0.949 . S
C2480 C2488 1.574 . S
C2480 C2496 1.368 . S
H2481 C2489 0.950 . S
H2482 C2487 0.950 . S
H2483 C2488 0.949 . S
H2484 C2490 0.950 . S
H2485 C2491 0.950 . S
H2486 C2492 0.949 . S
C2487 H2482 0.950 . S
C2487 C2489 1.327 . S
C2487 C2493 1.429 . S
C2488 C2480 1.574 . S
C2488 H2483 0.949 . S
C2488 C2494 1.368 . S
C2489 C2473 1.349 . S
C2489 H2481 0.950 . S
C2489 C2487 1.327 . S
C2490 C2478 1.349 . S
C2490 H2484 0.950 . S
C2490 C2491 1.327 . S
C2491 H2485 0.950 . S
C2491 C2490 1.327 . S
C2491 C2495 1.429 . S
C2492 C2475 1.574 . S
C2492 H2486 0.949 . S
C2492 C2496 1.368 . S
C2493 C2474 1.429 . S
C2493 C2487 1.429 . S
C2493 C2494 1.523 . S
C2494 C2475 1.368 . S
C2494 C2488 1.368 . S
C2494 C2493 1.523 . S
C2495 C2479 1.429 . S
C2495 C2491 1.429 . S
C2495 C2496 1.523 . S
C2496 C2480 1.368 . S
C2496 C2492 1.368 . S
C2496 C2495 1.523 . S
H2497 C2472 0.950 . S
H2498 C2474 0.950 . S
H2499 C2475 0.949 . S
H2500 C2477 0.950 . S
H2501 C2479 0.950 . S
C2502 C2503 1.349 . S
C2502 C2504 1.327 . S
C2502 H2527 0.950 . S
C2503 C2502 1.349 . S
C2503 C2519 1.349 . S
C2504 C2502 1.327 . S
C2504 C2523 1.429 . S
C2504 H2528 0.950 . S
C2505 C2522 1.574 . S
C2505 C2524 1.368 . S
C2505 H2529 0.949 . S
H2506 C2510 0.949 . S
C2507 C2508 1.349 . S
C2507 C2509 1.327 . S
C2507 H2530 0.950 . S
C2508 C2507 1.349 . S
C2508 C2520 1.349 . S
C2509 C2507 1.327 . S
C2509 C2525 1.429 . S
C2509 H2531 0.950 . S
C2510 H2506 0.949 . S
C2510 C2518 1.574 . S
C2510 C2526 1.368 . S
H2511 C2519 0.950 . S
H2512 C2517 0.950 . S
H2513 C2518 0.949 . S
H2514 C2520 0.950 . S
H2515 C2521 0.950 . S
H2516 C2522 0.949 . S
C2517 H2512 0.950 . S
C2517 C2519 1.327 . S
C2517 C2523 1.429 . S
C2518 C2510 1.574 . S
C2518 H2513 0.949 . S
C2518 C2524 1.368 . S
C2519 C2503 1.349 . S
C2519 H2511 0.950 . S
C2519 C2517 1.327 . S
C2520 C2508 1.349 . S
C2520 H2514 0.950 . S
C2520 C2521 1.327 . S
C2521 H2515 0.950 . S
C2521 C2520 1.327 . S
C2521 C2525 1.429 . S
C2522 C2505 1.574 . S
C2522 H2516 0.949 . S
C2522 C2526 1.368 . S
C2523 C2504 1.429 . S
C2523 C2517 1.429 . S
C2523 C2524 1.523 . S
C2524 C2505 1.368 . S
C2524 C2518 1.368 . S
C2524 C2523 1.523 . S
C2525 C2509 1.429 . S
C2525 C2521 1.429 . S
C2525 C2526 1.523 . S
C2526 C2510 1.368 . S
C2526 C2522 1.368 . S
C2526 C2525 1.523 . S
H2527 C2502 0.950 . S
H2528 C2504 0.950 . S
H2529 C2505 0.949 . S
H2530 C2507 0.950 . S
H2531 C2509 0.950 . S
C2532 C2533 1.349 . S
C2532 C2534 1.327 . S
C2532 H2557 0.950 . S
C2533 C2532 1.349 . S
C2533 C2549 1.349 . S
C2534 C2532 1.327 . S
C2534 C2553 1.429 . S
C2534 H2558 0.950 . S
C2535 C2552 1.574 . S
C2535 C2554 1.368 1_554 S
C2535 H2559 0.949 . S
H2536 C2540 0.949 . S
C2537 C2538 1.349 . S
C2537 C2539 1.327 . S
C2537 H2560 0.950 . S
C2538 C2537 1.349 . S
C2538 C2550 1.349 . S
C2539 C2537 1.327 . S
C2539 C2555 1.429 . S
C2539 H2561 0.950 . S
C2540 H2536 0.949 . S
C2540 C2548 1.574 . S
C2540 C2556 1.368 1_556 S
H2541 C2549 0.950 . S
H2542 C2547 0.950 . S
H2543 C2548 0.949 . S
H2544 C2550 0.950 . S
H2545 C2551 0.950 . S
H2546 C2552 0.949 . S
C2547 H2542 0.950 . S
C2547 C2549 1.327 . S
C2547 C2553 1.429 . S
C2548 C2540 1.574 . S
C2548 H2543 0.949 . S
C2548 C2554 1.368 . S
C2549 C2533 1.349 . S
C2549 H2541 0.950 . S
C2549 C2547 1.327 . S
C2550 C2538 1.349 . S
C2550 H2544 0.950 . S
C2550 C2551 1.327 . S
C2551 H2545 0.950 . S
C2551 C2550 1.327 . S
C2551 C2555 1.429 . S
C2552 C2535 1.574 . S
C2552 H2546 0.949 . S
C2552 C2556 1.368 . S
C2553 C2534 1.429 . S
C2553 C2547 1.429 . S
C2553 C2554 1.523 . S
C2554 C2535 1.368 1_556 S
C2554 C2548 1.368 . S
C2554 C2553 1.523 . S
C2555 C2539 1.429 . S
C2555 C2551 1.429 . S
C2555 C2556 1.523 . S
C2556 C2540 1.368 1_554 S
C2556 C2552 1.368 . S
C2556 C2555 1.523 . S
H2557 C2532 0.950 . S
H2558 C2534 0.950 . S
H2559 C2535 0.949 . S
H2560 C2537 0.950 . S
H2561 C2539 0.950 . S
C2562 C2563 1.349 . S
C2562 C2564 1.327 . S
C2562 H2587 0.950 . S
C2563 C2562 1.349 . S
C2563 C2579 1.349 . S
C2564 C2562 1.327 . S
C2564 C2583 1.429 . S
C2564 H2588 0.950 . S
C2565 C2582 1.574 . S
C2565 C2584 1.368 . S
C2565 H2589 0.949 . S
H2566 C2570 0.949 . S
C2567 C2568 1.349 . S
C2567 C2569 1.327 . S
C2567 H2590 0.950 . S
C2568 C2567 1.349 . S
C2568 C2580 1.349 . S
C2569 C2567 1.327 . S
C2569 C2585 1.429 . S
C2569 H2591 0.950 . S
C2570 H2566 0.949 . S
C2570 C2578 1.574 . S
C2570 C2586 1.368 . S
H2571 C2579 0.950 . S
H2572 C2577 0.950 . S
H2573 C2578 0.949 . S
H2574 C2580 0.950 . S
H2575 C2581 0.950 . S
H2576 C2582 0.949 . S
C2577 H2572 0.950 . S
C2577 C2579 1.327 . S
C2577 C2583 1.429 . S
C2578 C2570 1.574 . S
C2578 H2573 0.949 . S
C2578 C2584 1.368 . S
C2579 C2563 1.349 . S
C2579 H2571 0.950 . S
C2579 C2577 1.327 . S
C2580 C2568 1.349 . S
C2580 H2574 0.950 . S
C2580 C2581 1.327 . S
C2581 H2575 0.950 . S
C2581 C2580 1.327 . S
C2581 C2585 1.429 . S
C2582 C2565 1.574 . S
C2582 H2576 0.949 . S
C2582 C2586 1.368 . S
C2583 C2564 1.429 . S
C2583 C2577 1.429 . S
C2583 C2584 1.523 . S
C2584 C2565 1.368 . S
C2584 C2578 1.368 . S
C2584 C2583 1.523 . S
C2585 C2569 1.429 . S
C2585 C2581 1.429 . S
C2585 C2586 1.523 . S
C2586 C2570 1.368 . S
C2586 C2582 1.368 . S
C2586 C2585 1.523 . S
H2587 C2562 0.950 . S
H2588 C2564 0.950 . S
H2589 C2565 0.949 . S
H2590 C2567 0.950 . S
H2591 C2569 0.950 . S
C2592 C2593 1.349 . S
C2592 C2594 1.327 . S
C2592 H2617 0.950 . S
C2593 C2592 1.349 . S
C2593 C2609 1.349 . S
C2594 C2592 1.327 . S
C2594 C2613 1.429 . S
C2594 H2618 0.950 . S
C2595 C2612 1.574 . S
C2595 C2614 1.368 . S
C2595 H2619 0.949 . S
H2596 C2600 0.949 . S
C2597 C2598 1.349 . S
C2597 C2599 1.327 . S
C2597 H2620 0.950 . S
C2598 C2597 1.349 . S
C2598 C2610 1.349 . S
C2599 C2597 1.327 . S
C2599 C2615 1.429 . S
C2599 H2621 0.950 . S
C2600 H2596 0.949 . S
C2600 C2608 1.574 . S
C2600 C2616 1.368 . S
H2601 C2609 0.950 . S
H2602 C2607 0.950 . S
H2603 C2608 0.949 . S
H2604 C2610 0.950 . S
H2605 C2611 0.950 . S
H2606 C2612 0.949 . S
C2607 H2602 0.950 . S
C2607 C2609 1.327 . S
C2607 C2613 1.429 . S
C2608 C2600 1.574 . S
C2608 H2603 0.949 . S
C2608 C2614 1.368 . S
C2609 C2593 1.349 . S
C2609 H2601 0.950 . S
C2609 C2607 1.327 . S
C2610 C2598 1.349 . S
C2610 H2604 0.950 . S
C2610 C2611 1.327 . S
C2611 H2605 0.950 . S
C2611 C2610 1.327 . S
C2611 C2615 1.429 . S
C2612 C2595 1.574 . S
C2612 H2606 0.949 . S
C2612 C2616 1.368 . S
C2613 C2594 1.429 . S
C2613 C2607 1.429 . S
C2613 C2614 1.523 . S
C2614 C2595 1.368 . S
C2614 C2608 1.368 . S
C2614 C2613 1.523 . S
C2615 C2599 1.429 . S
C2615 C2611 1.429 . S
C2615 C2616 1.523 . S
C2616 C2600 1.368 . S
C2616 C2612 1.368 . S
C2616 C2615 1.523 . S
H2617 C2592 0.950 . S
H2618 C2594 0.950 . S
H2619 C2595 0.949 . S
H2620 C2597 0.950 . S
H2621 C2599 0.950 . S
C2622 C2623 1.349 . S
C2622 C2624 1.327 . S
C2622 H2647 0.950 . S
C2623 C2622 1.349 . S
C2623 C2639 1.349 . S
C2624 C2622 1.327 . S
C2624 C2643 1.429 . S
C2624 H2648 0.950 . S
C2625 C2642 1.574 . S
C2625 C2644 1.368 . S
C2625 H2649 0.949 . S
H2626 C2630 0.949 . S
C2627 C2628 1.349 . S
C2627 C2629 1.327 . S
C2627 H2650 0.950 . S
C2628 C2627 1.349 . S
C2628 C2640 1.349 . S
C2629 C2627 1.327 . S
C2629 C2645 1.429 . S
C2629 H2651 0.950 . S
C2630 H2626 0.949 . S
C2630 C2638 1.574 . S
C2630 C2646 1.368 . S
H2631 C2639 0.950 . S
H2632 C2637 0.950 . S
H2633 C2638 0.949 . S
H2634 C2640 0.950 . S
H2635 C2641 0.950 . S
H2636 C2642 0.949 . S
C2637 H2632 0.950 . S
C2637 C2639 1.327 . S
C2637 C2643 1.429 . S
C2638 C2630 1.574 . S
C2638 H2633 0.949 . S
C2638 C2644 1.368 . S
C2639 C2623 1.349 . S
C2639 H2631 0.950 . S
C2639 C2637 1.327 . S
C2640 C2628 1.349 . S
C2640 H2634 0.950 . S
C2640 C2641 1.327 . S
C2641 H2635 0.950 . S
C2641 C2640 1.327 . S
C2641 C2645 1.429 . S
C2642 C2625 1.574 . S
C2642 H2636 0.949 . S
C2642 C2646 1.368 . S
C2643 C2624 1.429 . S
C2643 C2637 1.429 . S
C2643 C2644 1.523 . S
C2644 C2625 1.368 . S
C2644 C2638 1.368 . S
C2644 C2643 1.523 . S
C2645 C2629 1.429 . S
C2645 C2641 1.429 . S
C2645 C2646 1.523 . S
C2646 C2630 1.368 . S
C2646 C2642 1.368 . S
C2646 C2645 1.523 . S
H2647 C2622 0.950 . S
H2648 C2624 0.950 . S
H2649 C2625 0.949 . S
H2650 C2627 0.950 . S
H2651 C2629 0.950 . S
C2652 C2653 1.349 . S
C2652 C2654 1.327 . S
C2652 H2677 0.950 . S
C2653 C2652 1.349 . S
C2653 C2669 1.349 . S
C2654 C2652 1.327 . S
C2654 C2673 1.429 . S
C2654 H2678 0.950 . S
C2655 C2672 1.574 . S
C2655 C2674 1.368 . S
C2655 H2679 0.949 . S
H2656 C2660 0.949 . S
C2657 C2658 1.349 . S
C2657 C2659 1.327 . S
C2657 H2680 0.950 . S
C2658 C2657 1.349 . S
C2658 C2670 1.349 . S
C2659 C2657 1.327 . S
C2659 C2675 1.429 . S
C2659 H2681 0.950 . S
C2660 H2656 0.949 . S
C2660 C2668 1.574 . S
C2660 C2676 1.368 . S
H2661 C2669 0.950 . S
H2662 C2667 0.950 . S
H2663 C2668 0.949 . S
H2664 C2670 0.950 . S
H2665 C2671 0.950 . S
H2666 C2672 0.949 . S
C2667 H2662 0.950 . S
C2667 C2669 1.327 . S
C2667 C2673 1.429 . S
C2668 C2660 1.574 . S
C2668 H2663 0.949 . S
C2668 C2674 1.368 . S
C2669 C2653 1.349 . S
C2669 H2661 0.950 . S
C2669 C2667 1.327 . S
C2670 C2658 1.349 . S
C2670 H2664 0.950 . S
C2670 C2671 1.327 . S
C2671 H2665 0.950 . S
C2671 C2670 1.327 . S
C2671 C2675 1.429 . S
C2672 C2655 1.574 . S
C2672 H2666 0.949 . S
C2672 C2676 1.368 . S
C2673 C2654 1.429 . S
C2673 C2667 1.429 . S
C2673 C2674 1.523 . S
C2674 C2655 1.368 . S
C2674 C2668 1.368 . S
C2674 C2673 1.523 . S
C2675 C2659 1.429 . S
C2675 C2671 1.429 . S
C2675 C2676 1.523 . S
C2676 C2660 1.368 . S
C2676 C2672 1.368 . S
C2676 C2675 1.523 . S
H2677 C2652 0.950 . S
H2678 C2654 0.950 . S
H2679 C2655 0.949 . S
H2680 C2657 0.950 . S
H2681 C2659 0.950 . S
C2682 C2683 1.349 . S
C2682 C2684 1.327 . S
C2682 H2707 0.950 . S
C2683 C2682 1.349 . S
C2683 C2699 1.349 . S
C2684 C2682 1.327 . S
C2684 C2703 1.429 . S
C2684 H2708 0.950 . S
C2685 C2702 1.574 . S
C2685 C2704 1.368 . S
C2685 H2709 0.949 . S
H2686 C2690 0.949 . S
C2687 C2688 1.349 . S
C2687 C2689 1.327 . S
C2687 H2710 0.950 . S
C2688 C2687 1.349 . S
C2688 C2700 1.349 . S
C2689 C2687 1.327 . S
C2689 C2705 1.429 . S
C2689 H2711 0.950 . S
C2690 H2686 0.949 . S
C2690 C2698 1.574 . S
C2690 C2706 1.368 . S
H2691 C2699 0.950 . S
H2692 C2697 0.950 . S
H2693 C2698 0.949 . S
H2694 C2700 0.950 . S
H2695 C2701 0.950 . S
H2696 C2702 0.949 . S
C2697 H2692 0.950 . S
C2697 C2699 1.327 . S
C2697 C2703 1.429 . S
C2698 C2690 1.574 . S
C2698 H2693 0.949 . S
C2698 C2704 1.368 . S
C2699 C2683 1.349 . S
C2699 H2691 0.950 . S
C2699 C2697 1.327 . S
C2700 C2688 1.349 . S
C2700 H2694 0.950 . S
C2700 C2701 1.327 . S
C2701 H2695 0.950 . S
C2701 C2700 1.327 . S
C2701 C2705 1.429 . S
C2702 C2685 1.574 . S
C2702 H2696 0.949 . S
C2702 C2706 1.368 . S
C2703 C2684 1.429 . S
C2703 C2697 1.429 . S
C2703 C2704 1.523 . S
C2704 C2685 1.368 . S
C2704 C2698 1.368 . S
C2704 C2703 1.523 . S
C2705 C2689 1.429 . S
C2705 C2701 1.429 . S
C2705 C2706 1.523 . S
C2706 C2690 1.368 . S
C2706 C2702 1.368 . S
C2706 C2705 1.523 . S
H2707 C2682 0.950 . S
H2708 C2684 0.950 . S
H2709 C2685 0.949 . S
H2710 C2687 0.950 . S
H2711 C2689 0.950 . S
C2712 C2713 1.349 . S
C2712 C2714 1.327 . S
C2712 H2737 0.950 . S
C2713 C2712 1.349 . S
C2713 C2729 1.349 . S
C2714 C2712 1.327 . S
C2714 C2733 1.429 . S
C2714 H2738 0.950 . S
C2715 C2732 1.574 . S
C2715 C2734 1.368 . S
C2715 H2739 0.949 . S
H2716 C2720 0.949 . S
C2717 C2718 1.349 . S
C2717 C2719 1.327 . S
C2717 H2740 0.950 . S
C2718 C2717 1.349 . S
C2718 C2730 1.349 . S
C2719 C2717 1.327 . S
C2719 C2735 1.429 . S
C2719 H2741 0.950 . S
C2720 H2716 0.949 . S
C2720 C2728 1.574 . S
C2720 C2736 1.368 . S
H2721 C2729 0.950 . S
H2722 C2727 0.950 . S
H2723 C2728 0.949 . S
H2724 C2730 0.950 . S
H2725 C2731 0.950 . S
H2726 C2732 0.949 . S
C2727 H2722 0.950 . S
C2727 C2729 1.327 . S
C2727 C2733 1.429 . S
C2728 C2720 1.574 . S
C2728 H2723 0.949 . S
C2728 C2734 1.368 . S
C2729 C2713 1.349 . S
C2729 H2721 0.950 . S
C2729 C2727 1.327 . S
C2730 C2718 1.349 . S
C2730 H2724 0.950 . S
C2730 C2731 1.327 . S
C2731 H2725 0.950 . S
C2731 C2730 1.327 . S
C2731 C2735 1.429 . S
C2732 C2715 1.574 . S
C2732 H2726 0.949 . S
C2732 C2736 1.368 . S
C2733 C2714 1.429 . S
C2733 C2727 1.429 . S
C2733 C2734 1.523 . S
C2734 C2715 1.368 . S
C2734 C2728 1.368 . S
C2734 C2733 1.523 . S
C2735 C2719 1.429 . S
C2735 C2731 1.429 . S
C2735 C2736 1.523 . S
C2736 C2720 1.368 . S
C2736 C2732 1.368 . S
C2736 C2735 1.523 . S
H2737 C2712 0.950 . S
H2738 C2714 0.950 . S
H2739 C2715 0.949 . S
H2740 C2717 0.950 . S
H2741 C2719 0.950 . S
C2742 C2743 1.349 . S
C2742 C2744 1.327 . S
C2742 H2767 0.950 . S
C2743 C2742 1.349 . S
C2743 C2759 1.349 . S
C2744 C2742 1.327 . S
C2744 C2763 1.429 . S
C2744 H2768 0.950 . S
C2745 C2762 1.574 . S
C2745 C2764 1.368 . S
C2745 H2769 0.949 . S
H2746 C2750 0.949 . S
C2747 C2748 1.349 . S
C2747 C2749 1.327 . S
C2747 H2770 0.950 . S
C2748 C2747 1.349 . S
C2748 C2760 1.349 . S
C2749 C2747 1.327 . S
C2749 C2765 1.429 . S
C2749 H2771 0.950 . S
C2750 H2746 0.949 . S
C2750 C2758 1.574 . S
C2750 C2766 1.368 . S
H2751 C2759 0.950 . S
H2752 C2757 0.950 . S
H2753 C2758 0.949 . S
H2754 C2760 0.950 . S
H2755 C2761 0.950 . S
H2756 C2762 0.949 . S
C2757 H2752 0.950 . S
C2757 C2759 1.327 . S
C2757 C2763 1.429 . S
C2758 C2750 1.574 . S
C2758 H2753 0.949 . S
C2758 C2764 1.368 . S
C2759 C2743 1.349 . S
C2759 H2751 0.950 . S
C2759 C2757 1.327 . S
C2760 C2748 1.349 . S
C2760 H2754 0.950 . S
C2760 C2761 1.327 . S
C2761 H2755 0.950 . S
C2761 C2760 1.327 . S
C2761 C2765 1.429 . S
C2762 C2745 1.574 . S
C2762 H2756 0.949 . S
C2762 C2766 1.368 . S
C2763 C2744 1.429 . S
C2763 C2757 1.429 . S
C2763 C2764 1.523 . S
C2764 C2745 1.368 . S
C2764 C2758 1.368 . S
C2764 C2763 1.523 . S
C2765 C2749 1.429 . S
C2765 C2761 1.429 . S
C2765 C2766 1.523 . S
C2766 C2750 1.368 . S
C2766 C2762 1.368 . S
C2766 C2765 1.523 . S
H2767 C2742 0.950 . S
H2768 C2744 0.950 . S
H2769 C2745 0.949 . S
H2770 C2747 0.950 . S
H2771 C2749 0.950 . S
C2772 C2773 1.349 . S
C2772 C2774 1.327 . S
C2772 H2797 0.950 . S
C2773 C2772 1.349 . S
C2773 C2789 1.349 . S
C2774 C2772 1.327 . S
C2774 C2793 1.429 . S
C2774 H2798 0.950 . S
C2775 C2792 1.574 . S
C2775 C2794 1.368 . S
C2775 H2799 0.949 . S
H2776 C2780 0.949 . S
C2777 C2778 1.349 . S
C2777 C2779 1.327 . S
C2777 H2800 0.950 . S
C2778 C2777 1.349 . S
C2778 C2790 1.349 . S
C2779 C2777 1.327 . S
C2779 C2795 1.429 . S
C2779 H2801 0.950 . S
C2780 H2776 0.949 . S
C2780 C2788 1.574 . S
C2780 C2796 1.368 . S
H2781 C2789 0.950 . S
H2782 C2787 0.950 . S
H2783 C2788 0.949 . S
H2784 C2790 0.950 . S
H2785 C2791 0.950 . S
H2786 C2792 0.949 . S
C2787 H2782 0.950 . S
C2787 C2789 1.327 . S
C2787 C2793 1.429 . S
C2788 C2780 1.574 . S
C2788 H2783 0.949 . S
C2788 C2794 1.368 . S
C2789 C2773 1.349 . S
C2789 H2781 0.950 . S
C2789 C2787 1.327 . S
C2790 C2778 1.349 . S
C2790 H2784 0.950 . S
C2790 C2791 1.327 . S
C2791 H2785 0.950 . S
C2791 C2790 1.327 . S
C2791 C2795 1.429 . S
C2792 C2775 1.574 . S
C2792 H2786 0.949 . S
C2792 C2796 1.368 . S
C2793 C2774 1.429 . S
C2793 C2787 1.429 . S
C2793 C2794 1.523 . S
C2794 C2775 1.368 . S
C2794 C2788 1.368 . S
C2794 C2793 1.523 . S
C2795 C2779 1.429 . S
C2795 C2791 1.429 . S
C2795 C2796 1.523 . S
C2796 C2780 1.368 . S
C2796 C2792 1.368 . S
C2796 C2795 1.523 . S
H2797 C2772 0.950 . S
H2798 C2774 0.950 . S
H2799 C2775 0.949 . S
H2800 C2777 0.950 . S
H2801 C2779 0.950 . S
C2802 C2803 1.349 . S
C2802 C2804 1.327 . S
C2802 H2827 0.950 . S
C2803 C2802 1.349 . S
C2803 C2819 1.349 . S
C2804 C2802 1.327 . S
C2804 C2823 1.429 . S
C2804 H2828 0.950 . S
C2805 C2822 1.574 . S
C2805 C2824 1.368 . S
C2805 H2829 0.949 . S
H2806 C2810 0.949 . S
C2807 C2808 1.349 . S
C2807 C2809 1.327 . S
C2807 H2830 0.950 . S
C2808 C2807 1.349 . S
C2808 C2820 1.349 . S
C2809 C2807 1.327 . S
C2809 C2825 1.429 . S
C2809 H2831 0.950 . S
C2810 H2806 0.949 . S
C2810 C2818 1.574 . S
C2810 C2826 1.368 . S
H2811 C2819 0.950 . S
H2812 C2817 0.950 . S
H2813 C2818 0.949 . S
H2814 C2820 0.950 . S
H2815 C2821 0.950 . S
H2816 C2822 0.949 . S
C2817 H2812 0.950 . S
C2817 C2819 1.327 . S
C2817 C2823 1.429 . S
C2818 C2810 1.574 . S
C2818 H2813 0.949 . S
C2818 C2824 1.368 . S
C2819 C2803 1.349 . S
C2819 H2811 0.950 . S
C2819 C2817 1.327 . S
C2820 C2808 1.349 . S
C2820 H2814 0.950 . S
C2820 C2821 1.327 . S
C2821 H2815 0.950 . S
C2821 C2820 1.327 . S
C2821 C2825 1.429 . S
C2822 C2805 1.574 . S
C2822 H2816 0.949 . S
C2822 C2826 1.368 . S
C2823 C2804 1.429 . S
C2823 C2817 1.429 . S
C2823 C2824 1.523 . S
C2824 C2805 1.368 . S
C2824 C2818 1.368 . S
C2824 C2823 1.523 . S
C2825 C2809 1.429 . S
C2825 C2821 1.429 . S
C2825 C2826 1.523 . S
C2826 C2810 1.368 . S
C2826 C2822 1.368 . S
C2826 C2825 1.523 . S
H2827 C2802 0.950 . S
H2828 C2804 0.950 . S
H2829 C2805 0.949 . S
H2830 C2807 0.950 . S
H2831 C2809 0.950 . S
C2832 C2833 1.349 . S
C2832 C2834 1.327 . S
C2832 H2857 0.950 . S
C2833 C2832 1.349 . S
C2833 C2849 1.349 . S
C2834 C2832 1.327 . S
C2834 C2853 1.429 . S
C2834 H2858 0.950 . S
C2835 C2852 1.574 . S
C2835 C2854 1.368 . S
C2835 H2859 0.949 . S
H2836 C2840 0.949 . S
C2837 C2838 1.349 . S
C2837 C2839 1.327 . S
C2837 H2860 0.950 . S
C2838 C2837 1.349 . S
C2838 C2850 1.349 . S
C2839 C2837 1.327 . S
C2839 C2855 1.429 . S
C2839 H2861 0.950 . S
C2840 H2836 0.949 . S
C2840 C2848 1.574 . S
C2840 C2856 1.368 . S
H2841 C2849 0.950 . S
H2842 C2847 0.950 . S
H2843 C2848 0.949 . S
H2844 C2850 0.950 . S
H2845 C2851 0.950 . S
H2846 C2852 0.949 . S
C2847 H2842 0.950 . S
C2847 C2849 1.327 . S
C2847 C2853 1.429 . S
C2848 C2840 1.574 . S
C2848 H2843 0.949 . S
C2848 C2854 1.368 . S
C2849 C2833 1.349 . S
C2849 H2841 0.950 . S
C2849 C2847 1.327 . S
C2850 C2838 1.349 . S
C2850 H2844 0.950 . S
C2850 C2851 1.327 . S
C2851 H2845 0.950 . S
C2851 C2850 1.327 . S
C2851 C2855 1.429 . S
C2852 C2835 1.574 . S
C2852 H2846 0.949 . S
C2852 C2856 1.368 . S
C2853 C2834 1.429 . S
C2853 C2847 1.429 . S
C2853 C2854 1.523 . S
C2854 C2835 1.368 . S
C2854 C2848 1.368 . S
C2854 C2853 1.523 . S
C2855 C2839 1.429 . S
C2855 C2851 1.429 . S
C2855 C2856 1.523 . S
C2856 C2840 1.368 . S
C2856 C2852 1.368 . S
C2856 C2855 1.523 . S
H2857 C2832 0.950 . S
H2858 C2834 0.950 . S
H2859 C2835 0.949 . S
H2860 C2837 0.950 . S
H2861 C2839 0.950 . S
C2862 C2863 1.349 . S
C2862 C2864 1.327 . S
C2862 H2887 0.950 . S
C2863 C2862 1.349 . S
C2863 C2879 1.349 . S
C2864 C2862 1.327 . S
C2864 C2883 1.429 . S
C2864 H2888 0.950 . S
C2865 C2882 1.574 . S
C2865 C2884 1.368 . S
C2865 H2889 0.949 . S
H2866 C2870 0.949 . S
C2867 C2868 1.349 . S
C2867 C2869 1.327 . S
C2867 H2890 0.950 . S
C2868 C2867 1.349 . S
C2868 C2880 1.349 . S
C2869 C2867 1.327 . S
C2869 C2885 1.429 . S
C2869 H2891 0.950 . S
C2870 H2866 0.949 . S
C2870 C2878 1.574 . S
C2870 C2886 1.368 . S
H2871 C2879 0.950 . S
H2872 C2877 0.950 . S
H2873 C2878 0.949 . S
H2874 C2880 0.950 . S
H2875 C2881 0.950 . S
H2876 C2882 0.949 . S
C2877 H2872 0.950 . S
C2877 C2879 1.327 . S
C2877 C2883 1.429 . S
C2878 C2870 1.574 . S
C2878 H2873 0.949 . S
C2878 C2884 1.368 . S
C2879 C2863 1.349 . S
C2879 H2871 0.950 . S
C2879 C2877 1.327 . S
C2880 C2868 1.349 . S
C2880 H2874 0.950 . S
C2880 C2881 1.327 . S
C2881 H2875 0.950 . S
C2881 C2880 1.327 . S
C2881 C2885 1.429 . S
C2882 C2865 1.574 . S
C2882 H2876 0.949 . S
C2882 C2886 1.368 . S
C2883 C2864 1.429 . S
C2883 C2877 1.429 . S
C2883 C2884 1.523 . S
C2884 C2865 1.368 . S
C2884 C2878 1.368 . S
C2884 C2883 1.523 . S
C2885 C2869 1.429 . S
C2885 C2881 1.429 . S
C2885 C2886 1.523 . S
C2886 C2870 1.368 . S
C2886 C2882 1.368 . S
C2886 C2885 1.523 . S
H2887 C2862 0.950 . S
H2888 C2864 0.950 . S
H2889 C2865 0.949 . S
H2890 C2867 0.950 . S
H2891 C2869 0.950 . S
C2892 C2893 1.349 . S
C2892 C2894 1.327 . S
C2892 H2917 0.950 . S
C2893 C2892 1.349 . S
C2893 C2909 1.349 . S
C2894 C2892 1.327 . S
C2894 C2913 1.429 . S
C2894 H2918 0.950 . S
C2895 C2912 1.574 . S
C2895 C2914 1.368 . S
C2895 H2919 0.949 . S
H2896 C2900 0.949 . S
C2897 C2898 1.349 . S
C2897 C2899 1.327 . S
C2897 H2920 0.950 . S
C2898 C2897 1.349 . S
C2898 C2910 1.349 . S
C2899 C2897 1.327 . S
C2899 C2915 1.429 . S
C2899 H2921 0.950 . S
C2900 H2896 0.949 . S
C2900 C2908 1.574 . S
C2900 C2916 1.368 . S
H2901 C2909 0.950 . S
H2902 C2907 0.950 . S
H2903 C2908 0.949 . S
H2904 C2910 0.950 . S
H2905 C2911 0.950 . S
H2906 C2912 0.949 . S
C2907 H2902 0.950 . S
C2907 C2909 1.327 . S
C2907 C2913 1.429 . S
C2908 C2900 1.574 . S
C2908 H2903 0.949 . S
C2908 C2914 1.368 . S
C2909 C2893 1.349 . S
C2909 H2901 0.950 . S
C2909 C2907 1.327 . S
C2910 C2898 1.349 . S
C2910 H2904 0.950 . S
C2910 C2911 1.327 . S
C2911 H2905 0.950 . S
C2911 C2910 1.327 . S
C2911 C2915 1.429 . S
C2912 C2895 1.574 . S
C2912 H2906 0.949 . S
C2912 C2916 1.368 . S
C2913 C2894 1.429 . S
C2913 C2907 1.429 . S
C2913 C2914 1.523 . S
C2914 C2895 1.368 . S
C2914 C2908 1.368 . S
C2914 C2913 1.523 . S
C2915 C2899 1.429 . S
C2915 C2911 1.429 . S
C2915 C2916 1.523 . S
C2916 C2900 1.368 . S
C2916 C2912 1.368 . S
C2916 C2915 1.523 . S
H2917 C2892 0.950 . S
H2918 C2894 0.950 . S
H2919 C2895 0.949 . S
H2920 C2897 0.950 . S
H2921 C2899 0.950 . S
C2922 C2923 1.349 . S
C2922 C2924 1.327 . S
C2922 H2947 0.950 . S
C2923 C2922 1.349 . S
C2923 C2939 1.349 . S
C2924 C2922 1.327 . S
C2924 C2943 1.429 . S
C2924 H2948 0.950 . S
C2925 C2942 1.574 . S
C2925 C2944 1.368 . S
C2925 H2949 0.949 . S
H2926 C2930 0.949 . S
C2927 C2928 1.349 . S
C2927 C2929 1.327 . S
C2927 H2950 0.950 . S
C2928 C2927 1.349 . S
C2928 C2940 1.349 . S
C2929 C2927 1.327 . S
C2929 C2945 1.429 . S
C2929 H2951 0.950 . S
C2930 H2926 0.949 . S
C2930 C2938 1.574 . S
C2930 C2946 1.368 . S
H2931 C2939 0.950 . S
H2932 C2937 0.950 . S
H2933 C2938 0.949 . S
H2934 C2940 0.950 . S
H2935 C2941 0.950 . S
H2936 C2942 0.949 . S
C2937 H2932 0.950 . S
C2937 C2939 1.327 . S
C2937 C2943 1.429 . S
C2938 C2930 1.574 . S
C2938 H2933 0.949 . S
C2938 C2944 1.368 . S
C2939 C2923 1.349 . S
C2939 H2931 0.950 . S
C2939 C2937 1.327 . S
C2940 C2928 1.349 . S
C2940 H2934 0.950 . S
C2940 C2941 1.327 . S
C2941 H2935 0.950 . S
C2941 C2940 1.327 . S
C2941 C2945 1.429 . S
C2942 C2925 1.574 . S
C2942 H2936 0.949 . S
C2942 C2946 1.368 . S
C2943 C2924 1.429 . S
C2943 C2937 1.429 . S
C2943 C2944 1.523 . S
C2944 C2925 1.368 . S
C2944 C2938 1.368 . S
C2944 C2943 1.523 . S
C2945 C2929 1.429 . S
C2945 C2941 1.429 . S
C2945 C2946 1.523 . S
C2946 C2930 1.368 . S
C2946 C2942 1.368 . S
C2946 C2945 1.523 . S
H2947 C2922 0.950 . S
H2948 C2924 0.950 . S
H2949 C2925 0.949 . S
H2950 C2927 0.950 . S
H2951 C2929 0.950 . S
C2952 C2953 1.349 . S
C2952 C2954 1.327 . S
C2952 H2977 0.950 . S
C2953 C2952 1.349 . S
C2953 C2969 1.349 . S
C2954 C2952 1.327 . S
C2954 C2973 1.429 . S
C2954 H2978 0.950 . S
C2955 C2972 1.574 . S
C2955 C2974 1.368 . S
C2955 H2979 0.949 . S
H2956 C2960 0.949 . S
C2957 C2958 1.349 . S
C2957 C2959 1.327 . S
C2957 H2980 0.950 . S
C2958 C2957 1.349 . S
C2958 C2970 1.349 . S
C2959 C2957 1.327 . S
C2959 C2975 1.429 . S
C2959 H2981 0.950 . S
C2960 H2956 0.949 . S
C2960 C2968 1.574 . S
C2960 C2976 1.368 . S
H2961 C2969 0.950 . S
H2962 C2967 0.950 . S
H2963 C2968 0.949 . S
H2964 C2970 0.950 . S
H2965 C2971 0.950 . S
H2966 C2972 0.949 . S
C2967 H2962 0.950 . S
C2967 C2969 1.327 . S
C2967 C2973 1.429 . S
C2968 C2960 1.574 . S
C2968 H2963 0.949 . S
C2968 C2974 1.368 . S
C2969 C2953 1.349 . S
C2969 H2961 0.950 . S
C2969 C2967 1.327 . S
C2970 C2958 1.349 . S
C2970 H2964 0.950 . S
C2970 C2971 1.327 . S
C2971 H2965 0.950 . S
C2971 C2970 1.327 . S
C2971 C2975 1.429 . S
C2972 C2955 1.574 . S
C2972 H2966 0.949 . S
C2972 C2976 1.368 . S
C2973 C2954 1.429 . S
C2973 C2967 1.429 . S
C2973 C2974 1.523 . S
C2974 C2955 1.368 . S
C2974 C2968 1.368 . S
C2974 C2973 1.523 . S
C2975 C2959 1.429 . S
C2975 C2971 1.429 . S
C2975 C2976 1.523 . S
C2976 C2960 1.368 . S
C2976 C2972 1.368 . S
C2976 C2975 1.523 . S
H2977 C2952 0.950 . S
H2978 C2954 0.950 . S
H2979 C2955 0.949 . S
H2980 C2957 0.950 . S
H2981 C2959 0.950 . S
C2982 C2983 1.349 . S
C2982 C2984 1.327 . S
C2982 H3007 0.950 . S
C2983 C2982 1.349 . S
C2983 C2999 1.349 . S
C2984 C2982 1.327 . S
C2984 C3003 1.429 . S
C2984 H3008 0.950 . S
C2985 C3002 1.574 . S
C2985 C3004 1.368 . S
C2985 H3009 0.949 . S
H2986 C2990 0.949 . S
C2987 C2988 1.349 . S
C2987 C2989 1.327 . S
C2987 H3010 0.950 . S
C2988 C2987 1.349 . S
C2988 C3000 1.349 . S
C2989 C2987 1.327 . S
C2989 C3005 1.429 . S
C2989 H3011 0.950 . S
C2990 H2986 0.949 . S
C2990 C2998 1.574 . S
C2990 C3006 1.368 . S
H2991 C2999 0.950 . S
H2992 C2997 0.950 . S
H2993 C2998 0.949 . S
H2994 C3000 0.950 . S
H2995 C3001 0.950 . S
H2996 C3002 0.949 . S
C2997 H2992 0.950 . S
C2997 C2999 1.327 . S
C2997 C3003 1.429 . S
C2998 C2990 1.574 . S
C2998 H2993 0.949 . S
C2998 C3004 1.368 . S
C2999 C2983 1.349 . S
C2999 H2991 0.950 . S
C2999 C2997 1.327 . S
C3000 C2988 1.349 . S
C3000 H2994 0.950 . S
C3000 C3001 1.327 . S
C3001 H2995 0.950 . S
C3001 C3000 1.327 . S
C3001 C3005 1.429 . S
C3002 C2985 1.574 . S
C3002 H2996 0.949 . S
C3002 C3006 1.368 . S
C3003 C2984 1.429 . S
C3003 C2997 1.429 . S
C3003 C3004 1.523 . S
C3004 C2985 1.368 . S
C3004 C2998 1.368 . S
C3004 C3003 1.523 . S
C3005 C2989 1.429 . S
C3005 C3001 1.429 . S
C3005 C3006 1.523 . S
C3006 C2990 1.368 . S
C3006 C3002 1.368 . S
C3006 C3005 1.523 . S
H3007 C2982 0.950 . S
H3008 C2984 0.950 . S
H3009 C2985 0.949 . S
H3010 C2987 0.950 . S
H3011 C2989 0.950 . S
C3012 C3013 1.349 . S
C3012 C3014 1.327 . S
C3012 H3037 0.950 . S
C3013 C3012 1.349 . S
C3013 C3029 1.349 . S
C3014 C3012 1.327 . S
C3014 C3033 1.429 . S
C3014 H3038 0.950 . S
C3015 C3032 1.574 . S
C3015 C3034 1.368 . S
C3015 H3039 0.949 . S
H3016 C3020 0.949 . S
C3017 C3018 1.349 . S
C3017 C3019 1.327 . S
C3017 H3040 0.950 . S
C3018 C3017 1.349 . S
C3018 C3030 1.349 . S
C3019 C3017 1.327 . S
C3019 C3035 1.429 . S
C3019 H3041 0.950 . S
C3020 H3016 0.949 . S
C3020 C3028 1.574 . S
C3020 C3036 1.368 . S
H3021 C3029 0.950 . S
H3022 C3027 0.950 . S
H3023 C3028 0.949 . S
H3024 C3030 0.950 . S
H3025 C3031 0.950 . S
H3026 C3032 0.949 . S
C3027 H3022 0.950 . S
C3027 C3029 1.327 . S
C3027 C3033 1.429 . S
C3028 C3020 1.574 . S
C3028 H3023 0.949 . S
C3028 C3034 1.368 . S
C3029 C3013 1.349 . S
C3029 H3021 0.950 . S
C3029 C3027 1.327 . S
C3030 C3018 1.349 . S
C3030 H3024 0.950 . S
C3030 C3031 1.327 . S
C3031 H3025 0.950 . S
C3031 C3030 1.327 . S
C3031 C3035 1.429 . S
C3032 C3015 1.574 . S
C3032 H3026 0.949 . S
C3032 C3036 1.368 . S
C3033 C3014 1.429 . S
C3033 C3027 1.429 . S
C3033 C3034 1.523 . S
C3034 C3015 1.368 . S
C3034 C3028 1.368 . S
C3034 C3033 1.523 . S
C3035 C3019 1.429 . S
C3035 C3031 1.429 . S
C3035 C3036 1.523 . S
C3036 C3020 1.368 . S
C3036 C3032 1.368 . S
C3036 C3035 1.523 . S
H3037 C3012 0.950 . S
H3038 C3014 0.950 . S
H3039 C3015 0.949 . S
H3040 C3017 0.950 . S
H3041 C3019 0.950 . S
C3042 C3043 1.349 . S
C3042 C3044 1.327 . S
C3042 H3067 0.950 . S
C3043 C3042 1.349 . S
C3043 C3059 1.349 . S
C3044 C3042 1.327 . S
C3044 C3063 1.429 . S
C3044 H3068 0.950 . S
C3045 C3062 1.574 . S
C3045 C3064 1.368 . S
C3045 H3069 0.949 . S
H3046 C3050 0.949 . S
C3047 C3048 1.349 . S
C3047 C3049 1.327 . S
C3047 H3070 0.950 . S
C3048 C3047 1.349 . S
C3048 C3060 1.349 . S
C3049 C3047 1.327 . S
C3049 C3065 1.429 . S
C3049 H3071 0.950 . S
C3050 H3046 0.949 . S
C3050 C3058 1.574 . S
C3050 C3066 1.368 . S
H3051 C3059 0.950 . S
H3052 C3057 0.950 . S
H3053 C3058 0.949 . S
H3054 C3060 0.950 . S
H3055 C3061 0.950 . S
H3056 C3062 0.949 . S
C3057 H3052 0.950 . S
C3057 C3059 1.327 . S
C3057 C3063 1.429 . S
C3058 C3050 1.574 . S
C3058 H3053 0.949 . S
C3058 C3064 1.368 . S
C3059 C3043 1.349 . S
C3059 H3051 0.950 . S
C3059 C3057 1.327 . S
C3060 C3048 1.349 . S
C3060 H3054 0.950 . S
C3060 C3061 1.327 . S
C3061 H3055 0.950 . S
C3061 C3060 1.327 . S
C3061 C3065 1.429 . S
C3062 C3045 1.574 . S
C3062 H3056 0.949 . S
C3062 C3066 1.368 . S
C3063 C3044 1.429 . S
C3063 C3057 1.429 . S
C3063 C3064 1.523 . S
C3064 C3045 1.368 . S
C3064 C3058 1.368 . S
C3064 C3063 1.523 . S
C3065 C3049 1.429 . S
C3065 C3061 1.429 . S
C3065 C3066 1.523 . S
C3066 C3050 1.368 . S
C3066 C3062 1.368 . S
C3066 C3065 1.523 . S
H3067 C3042 0.950 . S
H3068 C3044 0.950 . S
H3069 C3045 0.949 . S
H3070 C3047 0.950 . S
H3071 C3049 0.950 . S
C1153 C292 1.305 . S
C1158 C4 1.305 . S
C1183 C904 1.305 . S
C1188 C40 1.305 . S
C1213 C364 1.305 . S
C1218 C76 1.305 . S
C1243 C976 1.305 . S
C1248 C112 1.305 . S
C1273 C436 1.305 . S
C1278 C148 1.305 . S
C1303 C184 1.305 . S
C1308 C1048 1.305 . S
C1333 C220 1.305 . S
C1338 C508 1.305 . S
C1363 C256 1.305 . S
C1368 C1120 1.305 . S
C1393 C616 1.305 . S
C1398 C328 1.305 . S
C1423 C688 1.305 . S
C1428 C400 1.305 . S
C1453 C472 1.305 . S
C1458 C760 1.305 . S
C1483 C544 1.305 . S
C1488 C832 1.305 . S
C1513 C580 1.305 . S
C1518 C868 1.305 . S
C1543 C940 1.305 . S
C1548 C652 1.305 . S
C1573 C724 1.305 . S
C1578 C1012 1.305 . S
C1603 C1084 1.305 . S
C1608 C796 1.305 . S
C1633 C650 1.494 . S
C1638 C2 1.494 . S
C1663 C686 1.494 . S
C1668 C38 1.494 . S
C1693 C74 1.494 . S
C1698 C578 1.494 . S
C1723 C110 1.494 . S
C1728 C614 1.494 . S
C1753 C794 1.494 . S
C1758 C146 1.494 . S
C1783 C182 1.494 . S
C1788 C830 1.494 . S
C1813 C722 1.494 . S
C1818 C218 1.494 . S
C1843 C758 1.494 . S
C1848 C254 1.494 . S
C1873 C290 1.494 . S
C1878 C938 1.494 . S
C1903 C974 1.494 . S
C1908 C326 1.494 . S
C1933 C362 1.494 . S
C1938 C866 1.494 . S
C1963 C398 1.494 . S
C1968 C902 1.494 . S
C1993 C434 1.494 . S
C1998 C1082 1.494 . S
C2023 C470 1.494 . S
C2028 C1118 1.494 . S
C2053 C1010 1.494 . S
C2058 C506 1.494 . S
C2083 C1046 1.494 . S
C2088 C542 1.494 . S
C2113 C230 1.588 . S
C2118 C14 1.588 . S
C2143 C266 1.588 . S
C2148 C50 1.588 . S
C2173 C158 1.588 . S
C2178 C86 1.588 . S
C2203 C122 1.588 . S
C2208 C194 1.588 . S
C2233 C518 1.588 . S
C2238 C302 1.588 . S
C2263 C554 1.588 . S
C2268 C338 1.588 . S
C2293 C446 1.588 . S
C2298 C374 1.588 . S
C2323 C482 1.588 . S
C2328 C410 1.588 . S
C2353 C806 1.588 . S
C2358 C590 1.588 . S
C2383 C842 1.588 . S
C2388 C626 1.588 . S
C2413 C662 1.588 . S
C2418 C734 1.588 . S
C2443 C698 1.588 . S
C2448 C770 1.588 . S
C2473 C1094 1.588 . S
C2478 C878 1.588 . S
C2503 C1130 1.588 . S
C2508 C914 1.588 . S
C2533 C950 1.588 . S
C2538 C1022 1.588 . S
C2563 C986 1.588 . S
C2568 C1058 1.588 . S
C2593 C3 1.432 . S
C2598 C759 1.432 . S
C2623 C795 1.432 . S
C2628 C39 1.432 . S
C2653 C831 1.432 . S
C2658 C75 1.432 . S
C2683 C111 1.432 . S
C2688 C723 1.432 . S
C2713 C687 1.432 . S
C2718 C147 1.432 . S
C2743 C183 1.432 . S
C2748 C579 1.432 . S
C2773 C615 1.432 . S
C2778 C219 1.432 . S
C2803 C255 1.432 . S
C2808 C651 1.432 . S
C2833 C1047 1.432 . S
C2838 C291 1.432 . S
C2863 C1083 1.432 . S
C2868 C327 1.432 . S
C2893 C363 1.432 . S
C2898 C1119 1.432 . S
C2923 C1011 1.432 . S
C2928 C399 1.432 . S
C2953 C975 1.432 . S
C2958 C435 1.432 . S
C2983 C471 1.432 . S
C2988 C867 1.432 . S
C3013 C903 1.432 . S
C3018 C507 1.432 . S
C3043 C543 1.432 . S
C3048 C939 1.432 . S
