# Generated by pormake.
# Topology wjh, (4)-cn, num edge types: 1
# Building blocks:
#     Node 0, Type 0, BuildingBlock: NAHDIM_clean_sbu_0, # of connection points: 4
#     Node 1, Type 0, BuildingBlock: NAHDIM_clean_sbu_0, # of connection points: 4
#     Node 2, Type 0, BuildingBlock: NAHDIM_clean_sbu_0, # of connection points: 4
#     Node 3, Type 0, BuildingBlock: NAHDIM_clean_sbu_0, # of connection points: 4
#     Node 4, Type 0, BuildingBlock: NAHDIM_clean_sbu_0, # of connection points: 4
#     Node 5, Type 0, BuildingBlock: NAHDIM_clean_sbu_0, # of connection points: 4
#     Node 6, Type 0, BuildingBlock: NAHDIM_clean_sbu_0, # of connection points: 4
#     Node 7, Type 0, BuildingBlock: NAHDIM_clean_sbu_0, # of connection points: 4
#     Node 8, Type 0, BuildingBlock: NAHDIM_clean_sbu_0, # of connection points: 4
#     Node 9, Type 0, BuildingBlock: NAHDIM_clean_sbu_0, # of connection points: 4
#     Node 10, Type 0, BuildingBlock: NAHDIM_clean_sbu_0, # of connection points: 4
#     Node 11, Type 0, BuildingBlock: NAHDIM_clean_sbu_0, # of connection points: 4
#     Edge 12, Type (0, 0), BuildingBlock: OJICUG_clean_linker_0, # of connection points: 2
#     Edge 13, Type (0, 0), BuildingBlock: OJICUG_clean_linker_0, # of connection points: 2
#     Edge 14, Type (0, 0), BuildingBlock: OJICUG_clean_linker_0, # of connection points: 2
#     Edge 15, Type (0, 0), BuildingBlock: OJICUG_clean_linker_0, # of connection points: 2
#     Edge 16, Type (0, 0), BuildingBlock: OJICUG_clean_linker_0, # of connection points: 2
#     Edge 17, Type (0, 0), BuildingBlock: OJICUG_clean_linker_0, # of connection points: 2
#     Edge 18, Type (0, 0), BuildingBlock: OJICUG_clean_linker_0, # of connection points: 2
#     Edge 19, Type (0, 0), BuildingBlock: OJICUG_clean_linker_0, # of connection points: 2
#     Edge 20, Type (0, 0), BuildingBlock: OJICUG_clean_linker_0, # of connection points: 2
#     Edge 21, Type (0, 0), BuildingBlock: OJICUG_clean_linker_0, # of connection points: 2
#     Edge 22, Type (0, 0), BuildingBlock: OJICUG_clean_linker_0, # of connection points: 2
#     Edge 23, Type (0, 0), BuildingBlock: OJICUG_clean_linker_0, # of connection points: 2
#     Edge 24, Type (0, 0), BuildingBlock: OJICUG_clean_linker_0, # of connection points: 2
#     Edge 25, Type (0, 0), BuildingBlock: OJICUG_clean_linker_0, # of connection points: 2
#     Edge 26, Type (0, 0), BuildingBlock: OJICUG_clean_linker_0, # of connection points: 2
#     Edge 27, Type (0, 0), BuildingBlock: OJICUG_clean_linker_0, # of connection points: 2
#     Edge 28, Type (0, 0), BuildingBlock: OJICUG_clean_linker_0, # of connection points: 2
#     Edge 29, Type (0, 0), BuildingBlock: OJICUG_clean_linker_0, # of connection points: 2
#     Edge 30, Type (0, 0), BuildingBlock: OJICUG_clean_linker_0, # of connection points: 2
#     Edge 31, Type (0, 0), BuildingBlock: OJICUG_clean_linker_0, # of connection points: 2
#     Edge 32, Type (0, 0), BuildingBlock: OJICUG_clean_linker_0, # of connection points: 2
#     Edge 33, Type (0, 0), BuildingBlock: OJICUG_clean_linker_0, # of connection points: 2
#     Edge 34, Type (0, 0), BuildingBlock: OJICUG_clean_linker_0, # of connection points: 2
#     Edge 35, Type (0, 0), BuildingBlock: OJICUG_clean_linker_0, # of connection points: 2
# Relax obj value: 0.144
# Max RMSD: 0.136
# Mean RMSD: 0.135
data_MOF--net-wjh--node1-NAHDIM_clean_sbu_0--edge1-OJICUG_clean_linker_0
_symmetry_space_group_name_H-M    P1
_symmetry_Int_Tables_number       1
_symmetry_cell_setting            triclinic
loop_
_symmetry_equiv_pos_as_xyz
'x, y, z'
_cell_length_a     46.783871
_cell_length_b     46.744724
_cell_length_c     17.436829
_cell_angle_alpha  89.912526
_cell_angle_beta   89.997777
_cell_angle_gamma 119.97474
loop_
_atom_site_label
_atom_site_type_symbol
_atom_site_fract_x
_atom_site_fract_y
_atom_site_fract_z
_atom_type_partial_charge
C0 C 0.51494 0.1973 0.1288 0.0
O1 O 0.54311 0.19762 0.13398 0.0
O2 O 0.51172 0.12764 0.99881 0.0
Zn3 Zn 0.49338 0.12986 0.10249 0.0
O4 O 0.52352 0.13089 0.18532 0.0
C5 C 0.43174 0.06931 0.07027 0.0
O6 O 0.4393 0.0779 0.9981 0.0
O7 O 0.48892 0.1703 0.11315 0.0
C8 C 0.53052 0.10797 0.18998 0.0
O9 O 0.5188 0.08441 0.13825 0.0
C10 C 0.54262 0.1409 0.98717 0.0
O11 O 0.56314 0.15737 0.04299 0.0
O12 O 0.45031 0.08847 0.12249 0.0
C13 C 0.3101 0.50612 0.33699 0.0
O14 O 0.33733 0.53495 0.33337 0.0
O15 O 0.37469 0.51316 0.20174 0.0
Zn16 Zn 0.35711 0.48833 0.30147 0.0
O17 O 0.3855 0.51636 0.38882 0.0
C18 C 0.35988 0.43124 0.24221 0.0
O19 O 0.35777 0.44227 0.17431 0.0
O20 O 0.31152 0.48026 0.32219 0.0
C21 C 0.40314 0.50836 0.42885 0.0
O22 O 0.4042 0.4816 0.41131 0.0
C23 C 0.40554 0.52848 0.18823 0.0
O24 O 0.4256 0.52741 0.2394 0.0
O25 O 0.3583 0.44598 0.30174 0.0
C26 C 0.8184 0.28887 0.44347 0.0
O27 O 0.84329 0.29747 0.49064 0.0
O28 O 0.86733 0.37332 0.27577 0.0
Zn29 Zn 0.86294 0.35185 0.3792 0.0
O30 O 0.86081 0.3809 0.46064 0.0
C31 C 0.92581 0.35351 0.35827 0.0
O32 O 0.92179 0.35727 0.28511 0.0
O33 O 0.82157 0.30789 0.38793 0.0
C34 C 0.88719 0.40699 0.47925 0.0
O35 O 0.91456 0.41496 0.44182 0.0
C36 C 0.85102 0.38785 0.26208 0.0
O37 O 0.83073 0.38747 0.31474 0.0
O38 O 0.90314 0.34877 0.40528 0.0
C39 C 0.50128 0.81582 0.68384 0.0
O40 O 0.50067 0.83227 0.74425 0.0
O41 O 0.46412 0.86022 0.50981 0.0
Zn42 Zn 0.48435 0.85989 0.61245 0.0
O43 O 0.4513 0.85216 0.69487 0.0
C44 C 0.55067 0.91881 0.59896 0.0
O45 O 0.5544 0.90501 0.53705 0.0
O46 O 0.49558 0.82369 0.61813 0.0
C47 C 0.43288 0.86486 0.6898 0.0
O48 O 0.43462 0.88191 0.6283 0.0
C49 C 0.47139 0.88685 0.47452 0.0
O50 O 0.49389 0.91519 0.50332 0.0
O51 O 0.52397 0.90385 0.63688 0.0
C52 C 0.6803 0.48922 0.74897 0.0
O53 O 0.65174 0.4617 0.74603 0.0
O54 O 0.61594 0.495 0.625 0.0
Zn55 Zn 0.63688 0.51363 0.72834 0.0
O56 O 0.60799 0.48372 0.81215 0.0
C57 C 0.6324 0.57278 0.70056 0.0
O58 O 0.62675 0.56245 0.62919 0.0
O59 O 0.68102 0.51655 0.7396 0.0
C60 C 0.58257 0.48474 0.83355 0.0
O61 O 0.57467 0.50464 0.79805 0.0
C62 C 0.59512 0.4644 0.61734 0.0
O63 O 0.58773 0.44478 0.67705 0.0
O64 O 0.63965 0.55722 0.74934 0.0
C65 C 0.16176 0.69177 0.02447 0.0
O66 O 0.1357 0.68717 0.0632 0.0
O67 O 0.12379 0.60524 0.8664 0.0
Zn68 Zn 0.1194 0.625 0.9654 0.0
O69 O 0.11848 0.597 0.05375 0.0
C70 C 0.06141 0.62591 0.90753 0.0
O71 O 0.07503 0.62883 0.83994 0.0
O72 O 0.15939 0.66951 0.9789 0.0
C73 C 0.10133 0.59375 0.11311 0.0
O74 O 0.08399 0.6088 0.11611 0.0
C75 C 0.11105 0.57426 0.85697 0.0
O76 O 0.09398 0.55417 0.91312 0.0
O77 O 0.07691 0.62581 0.96717 0.0
C78 C 0.79666 0.48339 0.83403 0.0
O79 O 0.79541 0.45468 0.83598 0.0
O80 O 0.85459 0.47599 0.96702 0.0
Zn81 Zn 0.86176 0.50168 0.86863 0.0
O82 O 0.86311 0.47481 0.77986 0.0
C83 C 0.92088 0.55799 0.93144 0.0
O84 O 0.90711 0.546 0.99832 0.0
O85 O 0.82383 0.5093 0.84911 0.0
C86 C 0.88954 0.48257 0.74337 0.0
O87 O 0.91734 0.50827 0.7655 0.0
C88 C 0.87115 0.46171 0.98064 0.0
O89 O 0.89318 0.46422 0.93026 0.0
O90 O 0.90504 0.54424 0.87068 0.0
C91 C 0.29104 0.80308 0.08537 0.0
O92 O 0.31704 0.7999 0.0732 0.0
O93 O 0.36632 0.86528 0.20327 0.0
Zn94 Zn 0.34283 0.86729 0.10828 0.0
O95 O 0.36559 0.86129 0.01759 0.0
C96 C 0.35279 0.93252 0.14839 0.0
O97 O 0.35125 0.92293 0.21989 0.0
O98 O 0.29533 0.83105 0.10572 0.0
C99 C 0.35812 0.86647 0.951 0.0
O100 O 0.33566 0.87533 0.94376 0.0
C101 C 0.39652 0.88718 0.211 0.0
O102 O 0.41054 0.91031 0.15846 0.0
O103 O 0.34804 0.91233 0.09465 0.0
C104 C 0.51086 0.31626 0.19598 0.0
O105 O 0.5386 0.34448 0.20257 0.0
O106 O 0.51178 0.38036 0.31802 0.0
Zn107 Zn 0.48827 0.36068 0.21794 0.0
O108 O 0.51521 0.38925 0.12965 0.0
C109 C 0.42988 0.36087 0.27417 0.0
O110 O 0.44157 0.36002 0.34212 0.0
O111 O 0.48371 0.31607 0.20244 0.0
C112 C 0.50831 0.40945 0.09734 0.0
O113 O 0.4838 0.4127 0.12385 0.0
C114 C 0.52967 0.41139 0.32729 0.0
O115 O 0.5329 0.43128 0.27047 0.0
O116 O 0.44449 0.3589 0.2148 0.0
C117 C 0.18866 0.49982 0.43092 0.0
O118 O 0.18748 0.52729 0.43346 0.0
O119 O 0.11799 0.49283 0.5591 0.0
Zn120 Zn 0.1211 0.47554 0.45445 0.0
O121 O 0.12264 0.50653 0.37311 0.0
C122 C 0.05697 0.41664 0.47682 0.0
O123 O 0.0611 0.42583 0.54904 0.0
O124 O 0.16227 0.47251 0.44202 0.0
C125 C 0.09932 0.51277 0.36544 0.0
O126 O 0.07434 0.49957 0.41352 0.0
C127 C 0.12935 0.5236 0.56944 0.0
O128 O 0.14409 0.5441 0.51227 0.0
O129 O 0.08024 0.43274 0.42951 0.0
C130 C 0.68982 0.18052 0.52325 0.0
O131 O 0.66373 0.1813 0.49829 0.0
O132 O 0.62325 0.13216 0.69028 0.0
Zn133 Zn 0.63907 0.12179 0.59184 0.0
O134 O 0.60995 0.12045 0.50555 0.0
C135 C 0.62441 0.05804 0.65495 0.0
O136 O 0.62052 0.06997 0.71978 0.0
O137 O 0.68587 0.15707 0.56724 0.0
C138 C 0.60763 0.10458 0.44457 0.0
O139 O 0.62378 0.08838 0.43931 0.0
C140 C 0.5924 0.11957 0.70162 0.0
O141 O 0.57174 0.10013 0.64902 0.0
O142 O 0.63417 0.07647 0.59597 0.0
C143 C 0.5123 0.69881 0.72004 0.0
O144 O 0.51426 0.68315 0.65953 0.0
O145 O 0.48822 0.61891 0.89385 0.0
Zn146 Zn 0.50539 0.64115 0.79111 0.0
O147 O 0.47434 0.61252 0.70876 0.0
C148 C 0.56618 0.63901 0.8125 0.0
O149 O 0.55842 0.63587 0.88564 0.0
O150 O 0.50903 0.68579 0.78589 0.0
C151 C 0.47432 0.58602 0.69251 0.0
O152 O 0.49288 0.57784 0.73285 0.0
C153 C 0.45732 0.60293 0.90674 0.0
O154 O 0.43706 0.60222 0.85362 0.0
O155 O 0.54848 0.64381 0.76486 0.0
C156 C 0.55799 0.12892 0.31671 0.0
C157 C 0.55062 0.10729 0.25446 0.0
H158 H 0.58149 0.1448 0.42586 0.0
C159 C 0.56214 0.08471 0.25519 0.0
H160 H 0.54939 0.14656 0.31798 0.0
C161 C 0.58074 0.08384 0.31692 0.0
C162 C 0.58786 0.10531 0.37941 0.0
H163 H 0.55688 0.06774 0.20801 0.0
H164 H 0.58935 0.06621 0.31586 0.0
C165 C 0.57626 0.12782 0.37872 0.0
C166 C 0.44017 0.51901 0.5416 0.0
C167 C 0.42133 0.52831 0.49622 0.0
H168 H 0.47146 0.52978 0.63937 0.0
C169 C 0.4196 0.55649 0.51665 0.0
H170 H 0.44195 0.49739 0.52755 0.0
C171 C 0.43647 0.57504 0.58097 0.0
C172 C 0.45541 0.56578 0.62616 0.0
H173 H 0.40521 0.56426 0.48299 0.0
H174 H 0.4348 0.59673 0.59496 0.0
C175 C 0.45701 0.53753 0.60589 0.0
C176 C 0.85912 0.43599 0.6511 0.0
C177 C 0.88884 0.46336 0.67547 0.0
H178 H 0.83522 0.39684 0.56975 0.0
C179 C 0.91786 0.47244 0.6338 0.0
H180 H 0.8363 0.4284 0.68182 0.0
C181 C 0.91722 0.45442 0.56939 0.0
C182 C 0.88756 0.4269 0.54537 0.0
H183 H 0.94116 0.49347 0.65092 0.0
H184 H 0.94007 0.46193 0.53887 0.0
C185 C 0.85848 0.41794 0.58672 0.0
C186 C 0.41485 0.85053 0.8263 0.0
C187 C 0.41189 0.86293 0.75509 0.0
H188 H 0.40024 0.84203 0.94416 0.0
C189 C 0.38988 0.875 0.74795 0.0
H190 H 0.43158 0.84104 0.83366 0.0
C191 C 0.37179 0.87541 0.81122 0.0
C192 C 0.37557 0.86401 0.883 0.0
H193 H 0.38696 0.8846 0.69374 0.0
H194 H 0.35543 0.88537 0.8042 0.0
C195 C 0.39697 0.8512 0.8897 0.0
C196 C 0.55371 0.42551 0.00165 0.0
C197 C 0.52725 0.42864 0.02973 0.0
H198 H 0.59183 0.44066 0.91748 0.0
C199 C 0.5188 0.44998 0.99205 0.0
H200 H 0.56079 0.40922 0.02928 0.0
C201 C 0.53653 0.46793 0.92776 0.0
C202 C 0.56311 0.46495 0.89996 0.0
H203 H 0.49848 0.45287 0.01213 0.0
H204 H 0.52952 0.4843 0.90025 0.0
C205 C 0.57146 0.4435 0.93746 0.0
C206 C 0.12346 0.54285 0.24271 0.0
C207 C 0.10005 0.53395 0.30175 0.0
H208 H 0.14204 0.56849 0.13656 0.0
C209 C 0.07718 0.54505 0.29859 0.0
H210 H 0.14137 0.53461 0.2434 0.0
C211 C 0.07774 0.56471 0.23753 0.0
C212 C 0.10094 0.57332 0.17812 0.0
H213 H 0.05888 0.53862 0.34331 0.0
H214 H 0.05978 0.5729 0.23657 0.0
C215 C 0.12378 0.56218 0.18133 0.0
C216 C 0.5418 0.28618 0.17555 0.0
C217 C 0.51153 0.28562 0.17898 0.0
H218 H 0.56659 0.25887 0.15682 0.0
C219 C 0.48223 0.25577 0.1648 0.0
H220 H 0.56484 0.30877 0.18606 0.0
C221 C 0.48326 0.22707 0.14757 0.0
C222 C 0.51358 0.22767 0.14454 0.0
H223 H 0.45852 0.25457 0.16677 0.0
H224 H 0.46029 0.20441 0.13717 0.0
C225 C 0.54282 0.25754 0.15866 0.0
C226 C 0.27785 0.53309 0.37564 0.0
C227 C 0.27884 0.50405 0.36121 0.0
H228 H 0.24879 0.55447 0.40946 0.0
C229 C 0.25002 0.47334 0.37175 0.0
H230 H 0.29962 0.55714 0.36836 0.0
C231 C 0.22074 0.47179 0.39585 0.0
C232 C 0.21976 0.50092 0.40956 0.0
H233 H 0.25005 0.45052 0.36143 0.0
H234 H 0.19883 0.44782 0.40287 0.0
C235 C 0.24867 0.53154 0.39944 0.0
C236 C 0.75143 0.211 0.53806 0.0
C237 C 0.7231 0.20686 0.50027 0.0
H238 H 0.80395 0.24027 0.54968 0.0
C239 C 0.72664 0.22869 0.4407 0.0
H240 H 0.74948 0.1945 0.58403 0.0
C241 C 0.75773 0.25459 0.42049 0.0
C242 C 0.786 0.25948 0.45995 0.0
H243 H 0.70531 0.22599 0.40996 0.0
H244 H 0.75946 0.27129 0.37526 0.0
C245 C 0.7826 0.2372 0.51835 0.0
C246 C 0.50817 0.77018 0.62848 0.0
C247 C 0.50631 0.78716 0.69297 0.0
H248 H 0.51178 0.72913 0.58646 0.0
C249 C 0.50802 0.77573 0.76651 0.0
H250 H 0.50705 0.77842 0.57104 0.0
C251 C 0.51058 0.74738 0.77539 0.0
C252 C 0.51169 0.72997 0.71091 0.0
H253 H 0.50669 0.78827 0.81741 0.0
H254 H 0.51124 0.73888 0.83284 0.0
C255 C 0.51092 0.74194 0.63736 0.0
C256 C 0.70919 0.45763 0.77639 0.0
C257 C 0.71054 0.48819 0.76826 0.0
H258 H 0.73517 0.4322 0.80371 0.0
C259 C 0.7406 0.51737 0.78163 0.0
H260 H 0.68643 0.43468 0.76657 0.0
C261 C 0.76864 0.51593 0.80343 0.0
C262 C 0.76715 0.4853 0.81197 0.0
H263 H 0.7424 0.5413 0.77607 0.0
H264 H 0.79145 0.5388 0.81356 0.0
C265 C 0.73716 0.45621 0.79789 0.0
C266 C 0.22303 0.72117 0.01281 0.0
C267 C 0.1945 0.72099 0.03873 0.0
H268 H 0.27562 0.7469 0.0081 0.0
C269 C 0.19787 0.74826 0.08029 0.0
H270 H 0.22137 0.7005 0.98098 0.0
C271 C 0.22924 0.77519 0.09543 0.0
C272 C 0.2577 0.775 0.07028 0.0
H273 H 0.17632 0.7488 0.10103 0.0
H274 H 0.23121 0.79595 0.1274 0.0
C275 C 0.25421 0.74772 0.02882 0.0
C276 C 0.60159 0.14555 0.83183 0.0
C277 C 0.57977 0.12588 0.77382 0.0
H278 H 0.60701 0.16579 0.94441 0.0
C279 C 0.54564 0.11189 0.78583 0.0
H280 H 0.62802 0.15673 0.82443 0.0
C281 C 0.53357 0.11712 0.8546 0.0
C282 C 0.55537 0.13645 0.913 0.0
H283 H 0.52813 0.09665 0.74231 0.0
H284 H 0.50712 0.10571 0.86222 0.0
C285 C 0.58952 0.15075 0.90065 0.0
C286 C 0.46553 0.58341 0.03476 0.0
C287 C 0.44418 0.58433 0.97935 0.0
H288 H 0.47013 0.56503 0.14385 0.0
C289 C 0.41 0.56675 0.9933 0.0
H290 H 0.49198 0.5966 0.02577 0.0
C291 C 0.39745 0.54862 0.061 0.0
C292 C 0.41879 0.54761 0.11632 0.0
H293 H 0.39283 0.56687 0.95181 0.0
H294 H 0.37099 0.53535 0.06985 0.0
C295 C 0.45297 0.56524 0.10244 0.0
C296 C 0.88366 0.42626 0.06661 0.0
C297 C 0.86572 0.44249 0.05223 0.0
H298 H 0.89305 0.39621 0.14377 0.0
C299 C 0.84258 0.44016 0.10694 0.0
H300 H 0.90165 0.4275 0.02566 0.0
C301 C 0.83764 0.42219 0.17466 0.0
C302 C 0.85569 0.4061 0.18924 0.0
H303 H 0.82832 0.45232 0.09769 0.0
H304 H 0.81974 0.42107 0.21573 0.0
C305 C 0.87869 0.40825 0.13432 0.0
C306 C 0.46456 0.91446 0.35861 0.0
C307 C 0.45279 0.8863 0.40539 0.0
H308 H 0.45612 0.93672 0.26038 0.0
C309 C 0.42246 0.85821 0.38729 0.0
H310 H 0.48784 0.93648 0.37103 0.0
C311 C 0.40402 0.85851 0.32442 0.0
C312 C 0.41579 0.88672 0.27778 0.0
H313 H 0.41263 0.83619 0.42252 0.0
H314 H 0.38062 0.83659 0.31223 0.0
C315 C 0.44637 0.91459 0.29518 0.0
C316 C 0.58407 0.47198 0.47998 0.0
C317 C 0.57881 0.45096 0.54267 0.0
H318 H 0.57263 0.47602 0.36298 0.0
C319 C 0.55738 0.41682 0.53374 0.0
H320 H 0.60037 0.49839 0.48497 0.0
C321 C 0.54154 0.40399 0.46383 0.0
C322 C 0.54665 0.42499 0.40124 0.0
H323 H 0.55277 0.39991 0.58083 0.0
H324 H 0.52517 0.37757 0.45904 0.0
C325 C 0.56811 0.45914 0.41008 0.0
C326 C 0.10735 0.51469 0.70417 0.0
C327 C 0.12504 0.53631 0.64376 0.0
H328 H 0.08894 0.50967 0.81882 0.0
C329 C 0.13814 0.57042 0.65428 0.0
H330 H 0.09687 0.48827 0.69785 0.0
C331 C 0.13358 0.58266 0.72342 0.0
C332 C 0.11578 0.5611 0.78376 0.0
H333 H 0.15188 0.58779 0.60898 0.0
H334 H 0.14399 0.60909 0.72938 0.0
C335 C 0.10275 0.52697 0.77344 0.0
C336 C 0.40005 0.02534 0.16804 0.0
C337 C 0.40594 0.03531 0.09072 0.0
H338 H 0.37817 0.98494 0.24716 0.0
C339 C 0.38979 0.01156 0.0333 0.0
H340 H 0.41183 0.04309 0.21379 0.0
C341 C 0.37047 0.97819 0.05251 0.0
C342 C 0.36687 0.96792 0.12954 0.0
H343 H 0.39352 0.01843 0.97324 0.0
H344 H 0.35983 0.9603 0.00661 0.0
C345 C 0.38067 0.99197 0.18727 0.0
C346 C 0.39355 0.38041 0.33095 0.0
C347 C 0.40528 0.37177 0.26596 0.0
H348 H 0.36948 0.40566 0.3744 0.0
C349 C 0.3969 0.37801 0.19276 0.0
H350 H 0.39924 0.37565 0.38813 0.0
C351 C 0.37988 0.39533 0.18481 0.0
C352 C 0.37087 0.40668 0.24988 0.0
H353 H 0.40524 0.37134 0.14141 0.0
H354 H 0.3756 0.40152 0.12767 0.0
C355 C 0.3765 0.39769 0.323 0.0
C356 C -0.00363 0.3794 0.49714 0.0
C357 C 0.02358 0.39344 0.44725 0.0
H358 H 0.9439 0.35515 0.50805 0.0
C359 C 0.018 0.38888 0.36773 0.0
H360 H -0.00021 0.38212 0.55868 0.0
C361 C 0.9859 0.37351 0.33856 0.0
C362 C 0.95879 0.3623 0.38834 0.0
H363 H 0.03842 0.39906 0.32763 0.0
H364 H 0.98252 0.37229 0.27696 0.0
C365 C 0.96428 0.36393 0.46798 0.0
C366 C 0.57292 0.96633 0.68987 0.0
C367 C 0.5745 0.95355 0.61808 0.0
H368 H 0.58806 0.00938 0.75854 0.0
C369 C 0.59645 0.97506 0.56246 0.0
H370 H 0.55649 0.95027 0.73424 0.0
C371 C 0.61443 0.00907 0.57621 0.0
C372 C 0.611 0.02208 0.6461 0.0
H373 H 0.5983 0.96593 0.50669 0.0
H374 H 0.62976 0.02526 0.53067 0.0
C375 C 0.59112 0.00022 0.70391 0.0
C376 C 0.62203 0.60236 0.80702 0.0
C377 C 0.62267 0.59668 0.72795 0.0
H378 H 0.6039 0.6206 0.89597 0.0
C379 C 0.60953 0.6103 0.67667 0.0
H380 H 0.63223 0.59251 0.84816 0.0
C381 C 0.59337 0.62653 0.70418 0.0
C382 C 0.58992 0.62935 0.78356 0.0
H383 H 0.60992 0.60669 0.61541 0.0
H384 H 0.58177 0.63496 0.66319 0.0
C385 C 0.60576 0.61849 0.83455 0.0
C386 C 0.01065 0.60875 0.98634 0.0
C387 C 0.02601 0.6156 0.91396 0.0
H388 H 0.9652 0.58545 0.0488 0.0
C389 C 0.00642 0.6083 0.84792 0.0
H390 H 0.02506 0.61444 0.03848 0.0
C391 C 0.97205 0.59171 0.85391 0.0
C392 C 0.95662 0.58208 0.92607 0.0
H393 H 0.01747 0.61356 0.79134 0.0
H394 H 0.95761 0.58471 0.80166 0.0
C395 C 0.97628 0.59215 0.99233 0.0
loop_
_geom_bond_atom_site_label_1
_geom_bond_atom_site_label_2
_geom_bond_distance
_geom_bond_site_symmetry_2
_ccdc_geom_bond_type
C0 O1 1.160 . S
C0 O7 1.185 . S
O1 C0 1.160 . S
O2 Zn3 1.899 1_556 S
O2 C10 1.284 . S
Zn3 O2 1.899 1_554 S
Zn3 O4 2.032 . S
Zn3 O7 2.086 . S
Zn3 O12 1.977 . S
O4 Zn3 2.032 . S
O4 C8 1.278 . S
C5 O6 1.203 . S
C5 O12 1.267 . S
O6 C5 1.203 . S
O7 C0 1.185 . S
O7 Zn3 2.086 . S
C8 O4 1.278 . S
C8 O9 1.211 . S
O9 C8 1.211 . S
C10 O2 1.284 . S
C10 O11 1.273 1_556 S
O11 C10 1.273 1_554 S
O12 Zn3 1.977 . S
O12 C5 1.267 . S
C13 O14 1.160 . S
C13 O20 1.185 . S
O14 C13 1.160 . S
O15 Zn16 1.899 . S
O15 C23 1.284 . S
Zn16 O15 1.899 . S
Zn16 O17 2.032 . S
Zn16 O20 2.086 . S
Zn16 O25 1.977 . S
O17 Zn16 2.032 . S
O17 C21 1.278 . S
C18 O19 1.203 . S
C18 O25 1.267 . S
O19 C18 1.203 . S
O20 C13 1.185 . S
O20 Zn16 2.086 . S
C21 O17 1.278 . S
C21 O22 1.211 . S
O22 C21 1.211 . S
C23 O15 1.284 . S
C23 O24 1.273 . S
O24 C23 1.273 . S
O25 Zn16 1.977 . S
O25 C18 1.267 . S
C26 O27 1.160 . S
C26 O33 1.185 . S
O27 C26 1.160 . S
O28 Zn29 1.899 . S
O28 C36 1.284 . S
Zn29 O28 1.899 . S
Zn29 O30 2.032 . S
Zn29 O33 2.086 . S
Zn29 O38 1.977 . S
O30 Zn29 2.032 . S
O30 C34 1.278 . S
C31 O32 1.203 . S
C31 O38 1.267 . S
O32 C31 1.203 . S
O33 C26 1.185 . S
O33 Zn29 2.086 . S
C34 O30 1.278 . S
C34 O35 1.211 . S
O35 C34 1.211 . S
C36 O28 1.284 . S
C36 O37 1.273 . S
O37 C36 1.273 . S
O38 Zn29 1.977 . S
O38 C31 1.267 . S
C39 O40 1.160 . S
C39 O46 1.185 . S
O40 C39 1.160 . S
O41 Zn42 1.899 . S
O41 C49 1.284 . S
Zn42 O41 1.899 . S
Zn42 O43 2.032 . S
Zn42 O46 2.086 . S
Zn42 O51 1.977 . S
O43 Zn42 2.032 . S
O43 C47 1.278 . S
C44 O45 1.203 . S
C44 O51 1.267 . S
O45 C44 1.203 . S
O46 C39 1.185 . S
O46 Zn42 2.086 . S
C47 O43 1.278 . S
C47 O48 1.211 . S
O48 C47 1.211 . S
C49 O41 1.284 . S
C49 O50 1.273 . S
O50 C49 1.273 . S
O51 Zn42 1.977 . S
O51 C44 1.267 . S
C52 O53 1.160 . S
C52 O59 1.185 . S
O53 C52 1.160 . S
O54 Zn55 1.899 . S
O54 C62 1.284 . S
Zn55 O54 1.899 . S
Zn55 O56 2.032 . S
Zn55 O59 2.086 . S
Zn55 O64 1.977 . S
O56 Zn55 2.032 . S
O56 C60 1.278 . S
C57 O58 1.203 . S
C57 O64 1.267 . S
O58 C57 1.203 . S
O59 C52 1.185 . S
O59 Zn55 2.086 . S
C60 O56 1.278 . S
C60 O61 1.211 . S
O61 C60 1.211 . S
C62 O54 1.284 . S
C62 O63 1.273 . S
O63 C62 1.273 . S
O64 Zn55 1.977 . S
O64 C57 1.267 . S
C65 O66 1.160 . S
C65 O72 1.185 . S
O66 C65 1.160 . S
O67 Zn68 1.899 . S
O67 C75 1.284 . S
Zn68 O67 1.899 . S
Zn68 O69 2.032 1_556 S
Zn68 O72 2.086 . S
Zn68 O77 1.977 . S
O69 Zn68 2.032 1_554 S
O69 C73 1.278 . S
C70 O71 1.203 . S
C70 O77 1.267 . S
O71 C70 1.203 . S
O72 C65 1.185 . S
O72 Zn68 2.086 . S
C73 O69 1.278 . S
C73 O74 1.211 . S
O74 C73 1.211 . S
C75 O67 1.284 . S
C75 O76 1.273 . S
O76 C75 1.273 . S
O77 Zn68 1.977 . S
O77 C70 1.267 . S
C78 O79 1.160 . S
C78 O85 1.185 . S
O79 C78 1.160 . S
O80 Zn81 1.899 1_554 S
O80 C88 1.284 . S
Zn81 O80 1.899 1_556 S
Zn81 O82 2.032 . S
Zn81 O85 2.086 . S
Zn81 O90 1.977 . S
O82 Zn81 2.032 . S
O82 C86 1.278 . S
C83 O84 1.203 . S
C83 O90 1.267 . S
O84 C83 1.203 . S
O85 C78 1.185 . S
O85 Zn81 2.086 . S
C86 O82 1.278 . S
C86 O87 1.211 . S
O87 C86 1.211 . S
C88 O80 1.284 . S
C88 O89 1.273 1_554 S
O89 C88 1.273 1_556 S
O90 Zn81 1.977 . S
O90 C83 1.267 . S
C91 O92 1.160 . S
C91 O98 1.185 . S
O92 C91 1.160 . S
O93 Zn94 1.899 . S
O93 C101 1.284 . S
Zn94 O93 1.899 . S
Zn94 O95 2.026 1_554 S
Zn94 O98 2.086 . S
Zn94 O103 1.977 . S
O95 Zn94 2.026 1_556 S
O95 C99 1.281 . S
C96 O97 1.203 . S
C96 O103 1.267 . S
O97 C96 1.203 . S
O98 C91 1.185 . S
O98 Zn94 2.086 . S
C99 O95 1.281 . S
C99 O100 1.211 . S
O100 C99 1.211 . S
C101 O93 1.284 . S
C101 O102 1.273 . S
O102 C101 1.273 . S
O103 Zn94 1.977 . S
O103 C96 1.267 . S
C104 O105 1.160 . S
C104 O111 1.185 . S
O105 C104 1.160 . S
O106 Zn107 1.899 . S
O106 C114 1.284 . S
Zn107 O106 1.899 . S
Zn107 O108 2.032 . S
Zn107 O111 2.086 . S
Zn107 O116 1.977 . S
O108 Zn107 2.032 . S
O108 C112 1.278 . S
C109 O110 1.203 . S
C109 O116 1.267 . S
O110 C109 1.203 . S
O111 C104 1.185 . S
O111 Zn107 2.086 . S
C112 O108 1.278 . S
C112 O113 1.211 . S
O113 C112 1.211 . S
C114 O106 1.284 . S
C114 O115 1.273 . S
O115 C114 1.273 . S
O116 Zn107 1.977 . S
O116 C109 1.267 . S
C117 O118 1.160 . S
C117 O124 1.185 . S
O118 C117 1.160 . S
O119 Zn120 1.899 . S
O119 C127 1.284 . S
Zn120 O119 1.899 . S
Zn120 O121 2.032 . S
Zn120 O124 2.086 . S
Zn120 O129 1.977 . S
O121 Zn120 2.032 . S
O121 C125 1.278 . S
C122 O123 1.203 . S
C122 O129 1.267 . S
O123 C122 1.203 . S
O124 C117 1.185 . S
O124 Zn120 2.086 . S
C125 O121 1.278 . S
C125 O126 1.211 . S
O126 C125 1.211 . S
C127 O119 1.284 . S
C127 O128 1.273 . S
O128 C127 1.273 . S
O129 Zn120 1.977 . S
O129 C122 1.267 . S
C130 O131 1.160 . S
C130 O137 1.185 . S
O131 C130 1.160 . S
O132 Zn133 1.899 . S
O132 C140 1.284 . S
Zn133 O132 1.899 . S
Zn133 O134 2.032 . S
Zn133 O137 2.086 . S
Zn133 O142 1.977 . S
O134 Zn133 2.032 . S
O134 C138 1.278 . S
C135 O136 1.203 . S
C135 O142 1.267 . S
O136 C135 1.203 . S
O137 C130 1.185 . S
O137 Zn133 2.086 . S
C138 O134 1.278 . S
C138 O139 1.211 . S
O139 C138 1.211 . S
C140 O132 1.284 . S
C140 O141 1.273 . S
O141 C140 1.273 . S
O142 Zn133 1.977 . S
O142 C135 1.267 . S
C143 O144 1.160 . S
C143 O150 1.185 . S
O144 C143 1.160 . S
O145 Zn146 1.899 . S
O145 C153 1.284 . S
Zn146 O145 1.899 . S
Zn146 O147 2.032 . S
Zn146 O150 2.086 . S
Zn146 O155 1.977 . S
O147 Zn146 2.032 . S
O147 C151 1.278 . S
C148 O149 1.203 . S
C148 O155 1.267 . S
O149 C148 1.203 . S
O150 C143 1.185 . S
O150 Zn146 2.086 . S
C151 O147 1.278 . S
C151 O152 1.211 . S
O152 C151 1.211 . S
C153 O145 1.284 . S
C153 O154 1.273 . S
O154 C153 1.273 . S
O155 Zn146 1.977 . S
O155 C148 1.267 . S
C156 C157 1.387 . S
C156 H160 0.950 . S
C156 C165 1.390 . S
C157 C156 1.387 . S
C157 C159 1.387 . S
H158 C165 0.950 . S
C159 C157 1.387 . S
C159 C161 1.390 . S
C159 H163 0.950 . S
H160 C156 0.950 . S
C161 C159 1.390 . S
C161 C162 1.387 . S
C161 H164 0.950 . S
C162 C161 1.387 . S
C162 C165 1.387 . S
H163 C159 0.950 . S
H164 C161 0.950 . S
C165 C156 1.390 . S
C165 H158 0.950 . S
C165 C162 1.387 . S
C166 C167 1.387 . S
C166 H170 0.950 . S
C166 C175 1.390 . S
C167 C166 1.387 . S
C167 C169 1.387 . S
H168 C175 0.950 . S
C169 C167 1.387 . S
C169 C171 1.390 . S
C169 H173 0.950 . S
H170 C166 0.950 . S
C171 C169 1.390 . S
C171 C172 1.387 . S
C171 H174 0.950 . S
C172 C171 1.387 . S
C172 C175 1.387 . S
H173 C169 0.950 . S
H174 C171 0.950 . S
C175 C166 1.390 . S
C175 H168 0.950 . S
C175 C172 1.387 . S
C176 C177 1.387 . S
C176 H180 0.950 . S
C176 C185 1.390 . S
C177 C176 1.387 . S
C177 C179 1.387 . S
H178 C185 0.950 . S
C179 C177 1.387 . S
C179 C181 1.390 . S
C179 H183 0.950 . S
H180 C176 0.950 . S
C181 C179 1.390 . S
C181 C182 1.387 . S
C181 H184 0.950 . S
C182 C181 1.387 . S
C182 C185 1.387 . S
H183 C179 0.950 . S
H184 C181 0.950 . S
C185 C176 1.390 . S
C185 H178 0.950 . S
C185 C182 1.387 . S
C186 C187 1.387 . S
C186 H190 0.950 . S
C186 C195 1.390 . S
C187 C186 1.387 . S
C187 C189 1.387 . S
H188 C195 0.950 . S
C189 C187 1.387 . S
C189 C191 1.390 . S
C189 H193 0.950 . S
H190 C186 0.950 . S
C191 C189 1.390 . S
C191 C192 1.387 . S
C191 H194 0.950 . S
C192 C191 1.387 . S
C192 C195 1.387 . S
H193 C189 0.950 . S
H194 C191 0.950 . S
C195 C186 1.390 . S
C195 H188 0.950 . S
C195 C192 1.387 . S
C196 C197 1.387 . S
C196 H200 0.950 . S
C196 C205 1.390 1_554 S
C197 C196 1.387 . S
C197 C199 1.387 . S
H198 C205 0.950 . S
C199 C197 1.387 . S
C199 C201 1.390 . S
C199 H203 0.950 . S
H200 C196 0.950 . S
C201 C199 1.390 . S
C201 C202 1.387 1_554 S
C201 H204 0.950 . S
C202 C201 1.387 1_556 S
C202 C205 1.387 . S
H203 C199 0.950 . S
H204 C201 0.950 . S
C205 C196 1.390 1_556 S
C205 H198 0.950 . S
C205 C202 1.387 . S
C206 C207 1.387 . S
C206 H210 0.950 . S
C206 C215 1.390 . S
C207 C206 1.387 . S
C207 C209 1.387 . S
H208 C215 0.950 . S
C209 C207 1.387 . S
C209 C211 1.390 . S
C209 H213 0.950 . S
H210 C206 0.950 . S
C211 C209 1.390 . S
C211 C212 1.387 . S
C211 H214 0.950 . S
C212 C211 1.387 . S
C212 C215 1.387 . S
H213 C209 0.950 . S
H214 C211 0.950 . S
C215 C206 1.390 . S
C215 H208 0.950 . S
C215 C212 1.387 . S
C216 C217 1.387 . S
C216 H220 0.950 . S
C216 C225 1.390 . S
C217 C216 1.387 . S
C217 C219 1.387 . S
H218 C225 0.950 . S
C219 C217 1.387 . S
C219 C221 1.390 . S
C219 H223 0.950 . S
H220 C216 0.950 . S
C221 C219 1.390 . S
C221 C222 1.387 . S
C221 H224 0.950 . S
C222 C221 1.387 . S
C222 C225 1.387 . S
H223 C219 0.950 . S
H224 C221 0.950 . S
C225 C216 1.390 . S
C225 H218 0.950 . S
C225 C222 1.387 . S
C226 C227 1.387 . S
C226 H230 0.950 . S
C226 C235 1.390 . S
C227 C226 1.387 . S
C227 C229 1.387 . S
H228 C235 0.950 . S
C229 C227 1.387 . S
C229 C231 1.390 . S
C229 H233 0.950 . S
H230 C226 0.950 . S
C231 C229 1.390 . S
C231 C232 1.387 . S
C231 H234 0.950 . S
C232 C231 1.387 . S
C232 C235 1.387 . S
H233 C229 0.950 . S
H234 C231 0.950 . S
C235 C226 1.390 . S
C235 H228 0.950 . S
C235 C232 1.387 . S
C236 C237 1.387 . S
C236 H240 0.950 . S
C236 C245 1.390 . S
C237 C236 1.387 . S
C237 C239 1.387 . S
H238 C245 0.950 . S
C239 C237 1.387 . S
C239 C241 1.390 . S
C239 H243 0.950 . S
H240 C236 0.950 . S
C241 C239 1.390 . S
C241 C242 1.387 . S
C241 H244 0.950 . S
C242 C241 1.387 . S
C242 C245 1.387 . S
H243 C239 0.950 . S
H244 C241 0.950 . S
C245 C236 1.390 . S
C245 H238 0.950 . S
C245 C242 1.387 . S
C246 C247 1.387 . S
C246 H250 0.950 . S
C246 C255 1.390 . S
C247 C246 1.387 . S
C247 C249 1.387 . S
H248 C255 0.950 . S
C249 C247 1.387 . S
C249 C251 1.390 . S
C249 H253 0.950 . S
H250 C246 0.950 . S
C251 C249 1.390 . S
C251 C252 1.387 . S
C251 H254 0.950 . S
C252 C251 1.387 . S
C252 C255 1.387 . S
H253 C249 0.950 . S
H254 C251 0.950 . S
C255 C246 1.390 . S
C255 H248 0.950 . S
C255 C252 1.387 . S
C256 C257 1.387 . S
C256 H260 0.950 . S
C256 C265 1.390 . S
C257 C256 1.387 . S
C257 C259 1.387 . S
H258 C265 0.950 . S
C259 C257 1.387 . S
C259 C261 1.390 . S
C259 H263 0.950 . S
H260 C256 0.950 . S
C261 C259 1.390 . S
C261 C262 1.387 . S
C261 H264 0.950 . S
C262 C261 1.387 . S
C262 C265 1.387 . S
H263 C259 0.950 . S
H264 C261 0.950 . S
C265 C256 1.390 . S
C265 H258 0.950 . S
C265 C262 1.387 . S
C266 C267 1.387 1_554 S
C266 H270 0.950 . S
C266 C275 1.390 . S
C267 C266 1.387 1_556 S
C267 C269 1.387 . S
H268 C275 0.950 . S
C269 C267 1.387 . S
C269 C271 1.390 . S
C269 H273 0.950 . S
H270 C266 0.950 . S
C271 C269 1.390 . S
C271 C272 1.387 1_556 S
C271 H274 0.950 . S
C272 C271 1.387 1_554 S
C272 C275 1.387 . S
H273 C269 0.950 . S
H274 C271 0.950 . S
C275 C266 1.390 . S
C275 H268 0.950 . S
C275 C272 1.387 . S
C276 C277 1.387 . S
C276 H280 0.950 . S
C276 C285 1.390 . S
C277 C276 1.387 . S
C277 C279 1.387 . S
H278 C285 0.950 . S
C279 C277 1.387 . S
C279 C281 1.390 . S
C279 H283 0.950 . S
H280 C276 0.950 . S
C281 C279 1.390 . S
C281 C282 1.387 . S
C281 H284 0.950 . S
C282 C281 1.387 . S
C282 C285 1.387 . S
H283 C279 0.950 . S
H284 C281 0.950 . S
C285 C276 1.390 . S
C285 H278 0.950 . S
C285 C282 1.387 . S
C286 C287 1.387 1_554 S
C286 H290 0.950 . S
C286 C295 1.390 . S
C287 C286 1.387 1_556 S
C287 C289 1.387 . S
H288 C295 0.950 . S
C289 C287 1.387 . S
C289 C291 1.390 . S
C289 H293 0.950 . S
H290 C286 0.950 . S
C291 C289 1.390 . S
C291 C292 1.387 1_556 S
C291 H294 0.950 . S
C292 C291 1.387 1_554 S
C292 C295 1.387 . S
H293 C289 0.950 . S
H294 C291 0.950 . S
C295 C286 1.390 . S
C295 H288 0.950 . S
C295 C292 1.387 . S
C296 C297 1.387 . S
C296 H300 0.950 . S
C296 C305 1.390 . S
C297 C296 1.387 . S
C297 C299 1.387 . S
H298 C305 0.950 . S
C299 C297 1.387 . S
C299 C301 1.390 . S
C299 H303 0.950 . S
H300 C296 0.950 . S
C301 C299 1.390 . S
C301 C302 1.387 . S
C301 H304 0.950 . S
C302 C301 1.387 . S
C302 C305 1.387 . S
H303 C299 0.950 . S
H304 C301 0.950 . S
C305 C296 1.390 . S
C305 H298 0.950 . S
C305 C302 1.387 . S
C306 C307 1.387 . S
C306 H310 0.950 . S
C306 C315 1.390 . S
C307 C306 1.387 . S
C307 C309 1.387 . S
H308 C315 0.950 . S
C309 C307 1.387 . S
C309 C311 1.390 . S
C309 H313 0.950 . S
H310 C306 0.950 . S
C311 C309 1.390 . S
C311 C312 1.387 . S
C311 H314 0.950 . S
C312 C311 1.387 . S
C312 C315 1.387 . S
H313 C309 0.950 . S
H314 C311 0.950 . S
C315 C306 1.390 . S
C315 H308 0.950 . S
C315 C312 1.387 . S
C316 C317 1.387 . S
C316 H320 0.950 . S
C316 C325 1.390 . S
C317 C316 1.387 . S
C317 C319 1.387 . S
H318 C325 0.950 . S
C319 C317 1.387 . S
C319 C321 1.390 . S
C319 H323 0.950 . S
H320 C316 0.950 . S
C321 C319 1.390 . S
C321 C322 1.387 . S
C321 H324 0.950 . S
C322 C321 1.387 . S
C322 C325 1.387 . S
H323 C319 0.950 . S
H324 C321 0.950 . S
C325 C316 1.390 . S
C325 H318 0.950 . S
C325 C322 1.387 . S
C326 C327 1.387 . S
C326 H330 0.950 . S
C326 C335 1.390 . S
C327 C326 1.387 . S
C327 C329 1.387 . S
H328 C335 0.950 . S
C329 C327 1.387 . S
C329 C331 1.390 . S
C329 H333 0.950 . S
H330 C326 0.950 . S
C331 C329 1.390 . S
C331 C332 1.387 . S
C331 H334 0.950 . S
C332 C331 1.387 . S
C332 C335 1.387 . S
H333 C329 0.950 . S
H334 C331 0.950 . S
C335 C326 1.390 . S
C335 H328 0.950 . S
C335 C332 1.387 . S
C336 C337 1.387 . S
C336 H340 0.950 . S
C336 C345 1.390 1_545 S
C337 C336 1.387 . S
C337 C339 1.387 . S
H338 C345 0.950 . S
C339 C337 1.387 . S
C339 C341 1.390 1_545 S
C339 H343 0.950 . S
H340 C336 0.950 . S
C341 C339 1.390 1_565 S
C341 C342 1.387 . S
C341 H344 0.950 . S
C342 C341 1.387 . S
C342 C345 1.387 . S
H343 C339 0.950 . S
H344 C341 0.950 . S
C345 C336 1.390 1_565 S
C345 H338 0.950 . S
C345 C342 1.387 . S
C346 C347 1.387 . S
C346 H350 0.950 . S
C346 C355 1.390 . S
C347 C346 1.387 . S
C347 C349 1.387 . S
H348 C355 0.950 . S
C349 C347 1.387 . S
C349 C351 1.390 . S
C349 H353 0.950 . S
H350 C346 0.950 . S
C351 C349 1.390 . S
C351 C352 1.387 . S
C351 H354 0.950 . S
C352 C351 1.387 . S
C352 C355 1.387 . S
H353 C349 0.950 . S
H354 C351 0.950 . S
C355 C346 1.390 . S
C355 H348 0.950 . S
C355 C352 1.387 . S
C356 C357 1.387 . S
C356 H360 0.950 . S
C356 C365 1.390 1_455 S
C357 C356 1.387 . S
C357 C359 1.387 . S
H358 C365 0.950 . S
C359 C357 1.387 . S
C359 C361 1.390 1_455 S
C359 H363 0.950 . S
H360 C356 0.950 . S
C361 C359 1.390 1_655 S
C361 C362 1.387 . S
C361 H364 0.950 . S
C362 C361 1.387 . S
C362 C365 1.387 . S
H363 C359 0.950 . S
H364 C361 0.950 . S
C365 C356 1.390 1_655 S
C365 H358 0.950 . S
C365 C362 1.387 . S
C366 C367 1.387 . S
C366 H370 0.950 . S
C366 C375 1.390 1_565 S
C367 C366 1.387 . S
C367 C369 1.387 . S
H368 C375 0.950 . S
C369 C367 1.387 . S
C369 C371 1.390 1_565 S
C369 H373 0.950 . S
H370 C366 0.950 . S
C371 C369 1.390 1_545 S
C371 C372 1.387 . S
C371 H374 0.950 . S
C372 C371 1.387 . S
C372 C375 1.387 . S
H373 C369 0.950 . S
H374 C371 0.950 . S
C375 C366 1.390 1_545 S
C375 H368 0.950 . S
C375 C372 1.387 . S
C376 C377 1.387 . S
C376 H380 0.950 . S
C376 C385 1.390 . S
C377 C376 1.387 . S
C377 C379 1.387 . S
H378 C385 0.950 . S
C379 C377 1.387 . S
C379 C381 1.390 . S
C379 H383 0.950 . S
H380 C376 0.950 . S
C381 C379 1.390 . S
C381 C382 1.387 . S
C381 H384 0.950 . S
C382 C381 1.387 . S
C382 C385 1.387 . S
H383 C379 0.950 . S
H384 C381 0.950 . S
C385 C376 1.390 . S
C385 H378 0.950 . S
C385 C382 1.387 . S
C386 C387 1.387 . S
C386 H390 0.950 1_556 S
C386 C395 1.390 1_455 S
C387 C386 1.387 . S
C387 C389 1.387 . S
H388 C395 0.950 1_554 S
C389 C387 1.387 . S
C389 C391 1.390 1_455 S
C389 H393 0.950 . S
H390 C386 0.950 1_554 S
C391 C389 1.390 1_655 S
C391 C392 1.387 . S
C391 H394 0.950 . S
C392 C391 1.387 . S
C392 C395 1.387 . S
H393 C389 0.950 . S
H394 C391 0.950 . S
C395 C386 1.390 1_655 S
C395 H388 0.950 1_556 S
C395 C392 1.387 . S
C157 C8 1.345 . S
C162 C138 1.345 . S
C167 C21 1.345 . S
C172 C151 1.344 . S
C177 C86 1.346 . S
C182 C34 1.344 . S
C187 C47 1.345 . S
C192 C99 1.345 . S
C197 C112 1.346 . S
C202 C60 1.344 . S
C207 C125 1.346 . S
C212 C73 1.344 . S
C217 C104 1.326 . S
C222 C0 1.324 . S
C227 C13 1.324 . S
C232 C117 1.324 . S
C237 C130 1.326 . S
C242 C26 1.324 . S
C247 C39 1.326 . S
C252 C143 1.323 . S
C257 C52 1.325 . S
C262 C78 1.325 . S
C267 C65 1.326 . S
C272 C91 1.324 . S
C277 C140 1.568 . S
C282 C10 1.568 . S
C287 C153 1.566 . S
C292 C23 1.566 . S
C297 C88 1.566 . S
C302 C36 1.565 . S
C307 C49 1.566 . S
C312 C101 1.566 . S
C317 C62 1.565 . S
C322 C114 1.566 . S
C327 C127 1.565 . S
C332 C75 1.566 . S
C337 C5 1.260 . S
C342 C96 1.260 . S
C347 C109 1.261 . S
C352 C18 1.257 . S
C357 C122 1.261 . S
C362 C31 1.257 . S
C367 C44 1.259 . S
C372 C135 1.259 . S
C377 C57 1.257 . S
C382 C148 1.261 . S
C387 C70 1.257 . S
C392 C83 1.261 . S
