# Generated by pormake.
# Topology sml, (6)-cn, num edge types: 1
# Building blocks:
#     Node 0, Type 0, BuildingBlock: NUHQIS_clean_sbu_0, # of connection points: 6
#     Node 1, Type 0, BuildingBlock: NUHQIS_clean_sbu_0, # of connection points: 6
#     Node 2, Type 0, BuildingBlock: NUHQIS_clean_sbu_0, # of connection points: 6
#     Node 3, Type 0, BuildingBlock: NUHQIS_clean_sbu_0, # of connection points: 6
#     Node 4, Type 0, BuildingBlock: NUHQIS_clean_sbu_0, # of connection points: 6
#     Node 5, Type 0, BuildingBlock: NUHQIS_clean_sbu_0, # of connection points: 6
#     Edge 6, Type (0, 0), BuildingBlock: KIFKEQ_clean_linker_1, # of connection points: 2
#     Edge 7, Type (0, 0), BuildingBlock: KIFKEQ_clean_linker_1, # of connection points: 2
#     Edge 8, Type (0, 0), BuildingBlock: KIFKEQ_clean_linker_1, # of connection points: 2
#     Edge 9, Type (0, 0), BuildingBlock: KIFKEQ_clean_linker_1, # of connection points: 2
#     Edge 10, Type (0, 0), BuildingBlock: KIFKEQ_clean_linker_1, # of connection points: 2
#     Edge 11, Type (0, 0), BuildingBlock: KIFKEQ_clean_linker_1, # of connection points: 2
#     Edge 12, Type (0, 0), BuildingBlock: KIFKEQ_clean_linker_1, # of connection points: 2
#     Edge 13, Type (0, 0), BuildingBlock: KIFKEQ_clean_linker_1, # of connection points: 2
#     Edge 14, Type (0, 0), BuildingBlock: KIFKEQ_clean_linker_1, # of connection points: 2
#     Edge 15, Type (0, 0), BuildingBlock: KIFKEQ_clean_linker_1, # of connection points: 2
#     Edge 16, Type (0, 0), BuildingBlock: KIFKEQ_clean_linker_1, # of connection points: 2
#     Edge 17, Type (0, 0), BuildingBlock: KIFKEQ_clean_linker_1, # of connection points: 2
#     Edge 18, Type (0, 0), BuildingBlock: KIFKEQ_clean_linker_1, # of connection points: 2
#     Edge 19, Type (0, 0), BuildingBlock: KIFKEQ_clean_linker_1, # of connection points: 2
#     Edge 20, Type (0, 0), BuildingBlock: KIFKEQ_clean_linker_1, # of connection points: 2
#     Edge 21, Type (0, 0), BuildingBlock: KIFKEQ_clean_linker_1, # of connection points: 2
#     Edge 22, Type (0, 0), BuildingBlock: KIFKEQ_clean_linker_1, # of connection points: 2
#     Edge 23, Type (0, 0), BuildingBlock: KIFKEQ_clean_linker_1, # of connection points: 2
# Relax obj value: 0.170
# Max RMSD: 0.218
# Mean RMSD: 0.218
data_MOF--net-sml--node1-NUHQIS_clean_sbu_0--edge1-KIFKEQ_clean_linker_1
_symmetry_space_group_name_H-M    P1
_symmetry_Int_Tables_number       1
_symmetry_cell_setting            triclinic
loop_
_symmetry_equiv_pos_as_xyz
'x, y, z'
_cell_length_a     33.207172
_cell_length_b     33.200516
_cell_length_c     24.890315
_cell_angle_alpha  90.102619
_cell_angle_beta   89.770726
_cell_angle_gamma 119.8153
loop_
_atom_site_label
_atom_site_type_symbol
_atom_site_fract_x
_atom_site_fract_y
_atom_site_fract_z
_atom_type_partial_charge
Tb0 Tb 0.20793 0.42505 0.14838 0.0
Eu1 Eu 0.13744 0.41177 0.04555 0.0
C2 C 0.17444 0.34107 0.06803 0.0
C3 C 0.24999 0.45785 0.03302 0.0
C4 C 0.23821 0.43483 0.29156 0.0
C5 C 0.24265 0.41716 0.38535 0.0
C6 C 0.25769 0.42071 0.33205 0.0
C7 C 0.2037 0.44586 0.30519 0.0
C8 C 0.18873 0.44248 0.35853 0.0
C9 C 0.20771 0.42764 0.39924 0.0
C10 C 0.25143 0.43451 0.23494 0.0
O11 O 0.21226 0.49037 0.12771 0.0
O12 O 0.13775 0.46459 0.10325 0.0
O13 O 0.09291 0.36375 0.11185 0.0
O14 O 0.14065 0.40744 0.18049 0.0
C15 C 0.17561 0.49537 0.12767 0.0
O16 O 0.11459 0.44386 0.98562 0.0
O17 O 0.08291 0.36898 0.98826 0.0
O18 O 0.16461 0.36302 0.03117 0.0
O19 O 0.18223 0.35496 0.11827 0.0
O20 O 0.25446 0.44238 0.08007 0.0
O21 O 0.21135 0.45609 1.017 0.0
C22 C 0.10038 0.37496 0.1629 0.0
O23 O 0.22741 0.39511 0.21015 0.0
O24 O 0.25692 0.46913 0.20519 0.0
C25 C 0.09649 0.40429 0.90292 0.0
C26 C 0.11444 0.40438 0.79166 0.0
C27 C 0.06935 0.3909 0.81043 0.0
C28 C 0.06048 0.39083 0.86563 0.0
C29 C 0.14133 0.41755 0.88444 0.0
C30 C 0.15027 0.41776 0.82952 0.0
C31 C 0.08778 0.40473 0.96101 0.0
H32 H 0.25843 0.40622 0.41575 0.0
H33 H 0.2841 0.41174 0.32231 0.0
H34 H 0.18775 0.45634 0.27447 0.0
H35 H 0.16144 0.45032 0.36764 0.0
H36 H 0.0408 0.37988 0.78257 0.0
H37 H 0.02555 0.38025 0.87915 0.0
H38 H 0.16954 0.42805 0.91263 0.0
H39 H 0.18553 0.4291 0.81674 0.0
Tb40 Tb 0.78053 0.20392 0.48373 0.0
Eu41 Eu 0.84896 0.25968 0.58748 0.0
C42 C 0.79545 0.14738 0.5734 0.0
C43 C 0.73845 0.21056 0.59627 0.0
C44 C 0.75174 0.18201 0.34098 0.0
C45 C 0.73554 0.16835 0.24556 0.0
C46 C 0.72105 0.15777 0.29914 0.0
C47 C 0.79714 0.217 0.32866 0.0
C48 C 0.81182 0.22731 0.27518 0.0
C49 C 0.78114 0.20319 0.23293 0.0
C50 C 0.73676 0.17077 0.39738 0.0
O51 O 0.82407 0.27594 0.4622 0.0
O52 O 0.83023 0.30835 0.54445 0.0
O53 O 0.89504 0.2738 0.51532 0.0
O54 O 0.84632 0.20592 0.47235 0.0
C55 C 0.82941 0.31066 0.49187 0.0
O56 O 0.86868 0.31067 0.6519 0.0
O57 O 0.90688 0.27415 0.64058 0.0
O58 O 0.83251 0.18487 0.59115 0.0
O59 O 0.76607 0.14891 0.53948 0.0
O60 O 0.7352 0.21024 0.54338 0.0
O61 O 0.77716 0.22063 0.62083 0.0
C62 C 0.88721 0.24311 0.47754 0.0
O63 O 0.75673 0.15201 0.42451 0.0
O64 O 0.73531 0.20361 0.4247 0.0
C65 C 0.89384 0.29001 0.72968 0.0
C66 C 0.87598 0.27024 0.84054 0.0
C67 C 0.90801 0.31541 0.82283 0.0
C68 C 0.9168 0.32515 0.7679 0.0
C69 C 0.86289 0.24469 0.74706 0.0
C70 C 0.85428 0.23485 0.80187 0.0
C71 C 0.89933 0.30131 0.67194 0.0
H72 H 0.71122 0.14882 0.21398 0.0
H73 H 0.68592 0.13062 0.30789 0.0
H74 H 0.82121 0.23641 0.36048 0.0
H75 H 0.84696 0.25465 0.2669 0.0
H76 H 0.92507 0.34367 0.85121 0.0
H77 H 0.94059 0.36042 0.7552 0.0
H78 H 0.84465 0.21706 0.71815 0.0
H79 H 0.83017 0.1995 0.81385 0.0
Tb80 Tb 0.57085 0.76883 0.80699 0.0
Eu81 Eu 0.58666 0.71583 0.70226 0.0
C82 C 0.63836 0.82812 0.71595 0.0
C83 C 0.51936 0.75961 0.69665 0.0
C84 C 0.56794 0.79039 0.95082 0.0
C85 C 0.58766 0.81412 0.04381 0.0
C86 C 0.5801 0.8238 0.99129 0.0
C87 C 0.56359 0.74717 0.96346 0.0
C88 C 0.57095 0.73739 1.01593 0.0
C89 C 0.58311 0.77077 0.05673 0.0
C90 C 0.5624 0.80158 0.89506 0.0
O91 O 0.54342 0.69641 0.82717 0.0
O92 O 0.51961 0.66523 0.74385 0.0
O93 O 0.61812 0.70152 0.77483 0.0
O94 O 0.63697 0.77119 0.81118 0.0
C95 C 0.51567 0.66189 0.7963 0.0
O96 O 0.55893 0.66371 0.63892 0.0
O97 O 0.63332 0.70683 0.64753 0.0
O98 O 0.64128 0.79205 0.69882 0.0
O99 O 0.60626 0.82422 0.74991 0.0
O100 O 0.51779 0.76081 0.74962 0.0
O101 O 0.54813 0.75013 0.6706 0.0
C102 C 0.64035 0.73367 0.81112 0.0
O103 O 0.60028 0.82053 0.86633 0.0
O104 O 0.52751 0.76902 0.86856 0.0
C105 C 0.60336 0.68772 0.55968 0.0
C106 C 0.60846 0.707 0.44858 0.0
C107 C 0.62275 0.67647 0.4687 0.0
C108 C 0.62012 0.66688 0.5238 0.0
C109 C 0.58965 0.71861 0.54 0.0
C110 C 0.59197 0.72799 0.48505 0.0
C111 C 0.59951 0.67693 0.61742 0.0
H112 H 0.59658 0.8404 0.07445 0.0
H113 H 0.58402 0.85748 0.98221 0.0
H114 H 0.55499 0.72111 0.93264 0.0
H115 H 0.56785 0.70396 0.0244 0.0
H116 H 0.63623 0.66021 0.44195 0.0
H117 H 0.63098 0.64309 0.53836 0.0
H118 H 0.57662 0.73509 0.56711 0.0
H119 H 0.57993 0.75104 0.4711 0.0
Tb120 Tb 0.77902 0.57394 0.152 0.0
Eu121 Eu 0.72174 0.58596 0.25505 0.0
C122 C 0.83377 0.64638 0.24103 0.0
C123 C 0.77274 0.52612 0.26358 0.0
C124 C 0.80296 0.56902 1.00909 0.0
C125 C 0.81821 0.56811 0.91366 0.0
C126 C 0.82858 0.56421 0.96725 0.0
C127 C 0.76686 0.57788 0.99671 0.0
C128 C 0.7566 0.58204 0.94321 0.0
C129 C 0.78206 0.57704 0.90092 0.0
C130 C 0.8139 0.56509 0.06553 0.0
O131 O 0.70743 0.54558 0.129 0.0
O132 O 0.67379 0.51923 0.21083 0.0
O133 O 0.70699 0.61741 0.18286 0.0
O134 O 0.77646 0.63756 0.14321 0.0
C135 C 0.67216 0.51657 0.15817 0.0
O136 O 0.67121 0.55341 0.31981 0.0
O137 O 0.70574 0.62799 0.30936 0.0
O138 O 0.79562 0.64578 0.25726 0.0
O139 O 0.83312 0.61475 0.20865 0.0
O140 O 0.77102 0.52144 0.21085 0.0
O141 O 0.76363 0.55582 0.28768 0.0
C142 C 0.73847 0.64026 0.1458 0.0
O143 O 0.8315 0.60341 0.09331 0.0
O144 O 0.78139 0.53029 0.09232 0.0
C145 C 0.69084 0.59845 0.39838 0.0
C146 C 0.71137 0.60043 0.50901 0.0
C147 C 0.66519 0.5818 0.49149 0.0
C148 C 0.65508 0.58083 0.43674 0.0
C149 C 0.737 0.61785 0.41559 0.0
C150 C 0.74717 0.61906 0.4703 0.0
C151 C 0.67954 0.5929 0.34059 0.0
H152 H 0.83892 0.56467 0.88219 0.0
H153 H 0.85666 0.55753 0.97601 0.0
H154 H 0.7465 0.58148 0.0285 0.0
H155 H 0.72825 0.58842 0.935 0.0
H156 H 0.63666 0.56658 0.51989 0.0
H157 H 0.6192 0.56531 0.42423 0.0
H158 H 0.76517 0.63129 0.38664 0.0
H159 H 0.78315 0.63429 0.48219 0.0
Tb160 Tb 0.19209 0.78497 0.49168 0.0
Eu161 Eu 0.25406 0.84959 0.38836 0.0
C162 C 0.14254 0.80601 0.3996 0.0
C163 C 0.19642 0.73913 0.38211 0.0
C164 C 0.16452 0.75878 0.63433 0.0
C165 C 0.14446 0.74709 0.72913 0.0
C166 C 0.13361 0.73303 0.67554 0.0
C167 C 0.20615 0.79918 0.64719 0.0
C168 C 0.21724 0.81307 0.7007 0.0
C169 C 0.18666 0.78709 0.74254 0.0
C170 C 0.15334 0.74396 0.57797 0.0
O171 O 0.26413 0.82189 0.51433 0.0
O172 O 0.29679 0.82434 0.43318 0.0
O173 O 0.27225 0.89717 0.4594 0.0
O174 O 0.20162 0.85433 0.50006 0.0
C175 C 0.29716 0.82184 0.48582 0.0
O176 O 0.3068 0.8654 0.32702 0.0
O177 O 0.27238 0.90618 0.33106 0.0
O178 O 0.18221 0.84136 0.38331 0.0
O179 O 0.14027 0.77465 0.43339 0.0
O180 O 0.19677 0.7368 0.43499 0.0
O181 O 0.20848 0.77807 0.35681 0.0
C182 C 0.24133 0.89303 0.49519 0.0
O183 O 0.13951 0.76758 0.5493 0.0
O184 O 0.18396 0.73749 0.55224 0.0
C185 C 0.28892 0.88788 0.24496 0.0
C186 C 0.27036 0.87158 0.134 0.0
C187 C 0.29945 0.91689 0.15329 0.0
C188 C 0.3088 0.92493 0.20839 0.0
C189 C 0.25906 0.84285 0.22588 0.0
C190 C 0.25006 0.83476 0.17101 0.0
C191 C 0.29922 0.89584 0.30284 0.0
H192 H 0.11957 0.7267 0.76 0.0
H193 H 0.10108 0.70206 0.6663 0.0
H194 H 0.23027 0.81986 0.61582 0.0
H195 H 0.25023 0.84369 0.70922 0.0
H196 H 0.31568 0.94592 0.12571 0.0
H197 H 0.33177 0.95996 0.22237 0.0
H198 H 0.24288 0.81378 0.25342 0.0
H199 H 0.22689 0.79961 0.15755 0.0
Tb200 Tb 0.40209 0.20188 0.82207 0.0
Eu201 Eu 0.39804 0.13681 0.92567 0.0
C202 C 0.33399 0.18556 0.91661 0.0
C203 C 0.45346 0.24736 0.93092 0.0
C204 C 0.40222 0.22744 0.6789 0.0
C205 C 0.41555 0.24533 0.58363 0.0
C206 C 0.4181 0.25989 0.63698 0.0
C207 C 0.38366 0.18013 0.66681 0.0
C208 C 0.38082 0.16549 0.61348 0.0
C209 C 0.39695 0.19795 0.57119 0.0
C210 C 0.40656 0.24301 0.73519 0.0
O211 O 0.4327 0.1608 0.79797 0.0
O212 O 0.46391 0.15703 0.87752 0.0
O213 O 0.36572 0.08909 0.85538 0.0
O214 O 0.34006 0.1341 0.81586 0.0
C215 C 0.46521 0.15856 0.8247 0.0
O216 O 0.43399 0.12257 0.98963 0.0
O217 O 0.35976 0.07816 0.98006 0.0
O218 O 0.33701 0.14946 0.93336 0.0
O219 O 0.36268 0.21524 0.88103 0.0
O220 O 0.45591 0.24915 0.87796 0.0
O221 O 0.42644 0.20883 0.95678 0.0
C222 C 0.33949 0.09447 0.82016 0.0
O223 O 0.36908 0.22162 0.76451 0.0
O224 O 0.44286 0.24756 0.76063 0.0
C225 C 0.38972 0.09342 0.06857 0.0
C226 C 0.38525 0.10718 0.18008 0.0
C227 C 0.40332 0.07944 0.16085 0.0
C228 C 0.40545 0.07259 0.1056 0.0
C229 C 0.37097 0.1205 0.08752 0.0
C230 C 0.36852 0.12711 0.14276 0.0
C231 C 0.39578 0.08928 1.01048 0.0
H232 H 0.42783 0.27117 0.55202 0.0
H233 H 0.4327 0.29654 0.64552 0.0
H234 H 0.37173 0.15454 0.6987 0.0
H235 H 0.36683 0.12884 0.60546 0.0
H236 H 0.41603 0.06323 0.18855 0.0
H237 H 0.42016 0.0517 0.09174 0.0
H238 H 0.35908 0.13731 0.05954 0.0
H239 H 0.35491 0.14907 0.15617 0.0
H240 H 0.30086 0.2371 0.87122 0.0
H241 H 0.28627 0.15494 1.0121 0.0
H242 H 0.24969 0.26124 0.91067 0.0
H243 H 0.23351 0.17869 0.05179 0.0
H244 H 0.21906 0.30381 0.12334 0.0
H245 H 0.24578 0.25286 0.08769 0.0
H246 H 0.17237 0.23925 0.93976 0.0
H247 H 0.14691 0.29153 0.97471 0.0
C248 C 0.28608 0.2236 0.91045 0.0
C249 C 0.29809 0.19466 0.93893 0.0
C250 C 0.25614 0.23697 0.93283 0.0
C251 C 0.23737 0.22181 0.98437 0.0
C252 C 0.24766 0.19111 1.01208 0.0
C253 C 0.27765 0.17739 0.98935 0.0
C254 C 0.2077 0.2891 0.08368 0.0
C255 C 0.18184 0.30256 0.05129 0.0
C256 C 0.22278 0.25958 0.06338 0.0
C257 C 0.21191 0.24273 1.01053 0.0
C258 C 0.1822 0.25259 0.98021 0.0
C259 C 0.16758 0.28249 1.00024 0.0
H260 H 0.08129 0.41722 0.24295 0.0
H261 H 0.03809 0.2826 0.17378 0.0
H262 H 0.0302 0.38093 0.31927 0.0
H263 H 0.98829 0.24545 0.25201 0.0
H264 H 0.87257 0.20091 0.3798 0.0
H265 H 0.92136 0.23088 0.30066 0.0
H266 H 0.02841 0.34013 0.39668 0.0
H267 H 0.97797 0.31201 0.47518 0.0
C268 C 0.06035 0.37968 0.24412 0.0
C269 C 0.06328 0.35252 0.20281 0.0
C270 C 0.03168 0.35881 0.28822 0.0
C271 C 0.00611 0.31019 0.29265 0.0
C272 C 0.00748 0.28298 0.24991 0.0
C273 C 0.0357 0.30409 0.20502 0.0
C274 C 0.90673 0.23107 0.38423 0.0
C275 C 0.92106 0.25479 0.43352 0.0
C276 C 0.93485 0.24813 0.33873 0.0
C277 C 0.97839 0.2886 0.3419 0.0
C278 C -0.00568 0.30985 0.39235 0.0
C279 C 0.96573 0.29342 0.43758 0.0
H280 H 0.74664 0.06543 0.52145 0.0
H281 H 0.82075 0.12569 0.66889 0.0
H282 H 0.71995 0.98806 0.55701 0.0
H283 H 0.79378 0.04759 0.70473 0.0
H284 H 0.6611 0.90991 0.76445 0.0
H285 H 0.71137 0.98779 0.73019 0.0
H286 H 0.74313 0.93073 0.59089 0.0
H287 H 0.69241 0.85214 0.62528 0.0
C288 C 0.75777 0.06206 0.56123 0.0
C289 C 0.78511 0.10141 0.59284 0.0
C290 C 0.74294 0.01776 0.58131 0.0
C291 C 0.75474 0.01193 0.63361 0.0
C292 C 0.78412 0.05131 0.66429 0.0
C293 C 0.79955 0.09584 0.64384 0.0
C294 C 0.67914 0.9139 0.72675 0.0
C295 C 0.67227 0.87499 0.69702 0.0
C296 C 0.70842 0.95855 0.70754 0.0
C297 C 0.7311 0.96519 0.65797 0.0
C298 C 0.72587 0.92639 0.62922 0.0
C299 C 0.6969 0.88156 0.64883 0.0
H300 H 0.65724 0.7773 0.90744 0.0
H301 H 0.6664 0.66773 0.82383 0.0
H302 H 0.68151 0.75715 0.99023 0.0
H303 H 0.69224 0.64851 0.90736 0.0
H304 H 0.78828 0.67228 0.05341 0.0
H305 H 0.76565 0.69546 0.97169 0.0
H306 H 0.64332 0.68065 0.05135 0.0
H307 H 0.66496 0.65555 0.13363 0.0
C308 C 0.66514 0.74934 0.90645 0.0
C309 C 0.6601 0.72411 0.859 0.0
C310 C 0.67864 0.73769 0.95405 0.0
C311 C 0.68844 0.70132 0.95488 0.0
C312 C 0.68483 0.67683 0.90732 0.0
C313 C 0.67022 0.68781 0.85972 0.0
C314 C 0.75672 0.67431 0.05404 0.0
C315 C 0.72817 0.66176 0.10004 0.0
C316 C 0.74374 0.68726 1.007 0.0
C317 C 0.70263 0.68916 1.00538 0.0
C318 C 0.67516 0.67912 0.05192 0.0
C319 C 0.68762 0.66503 0.09889 0.0
H320 H 0.12742 0.833 0.30144 0.0
H321 H 0.05859 0.76302 0.44828 0.0
H322 H 0.05172 0.808 0.26008 0.0
H323 H 0.9836 0.73804 0.40728 0.0
H324 H 0.8516 0.70338 0.328 0.0
H325 H 0.92778 0.75789 0.36509 0.0
H326 H -0.00613 0.72639 0.23463 0.0
H327 H 0.91837 0.67263 0.19747 0.0
C328 C 0.09621 0.81338 0.32521 0.0
C329 C 0.09859 0.79913 0.37757 0.0
C330 C 0.05303 0.79901 0.30161 0.0
C331 C 0.01187 0.77083 0.3304 0.0
C332 C 0.01466 0.76005 0.38424 0.0
C333 C 0.0576 0.77389 0.40751 0.0
C334 C 0.88247 0.70884 0.30678 0.0
C335 C 0.87912 0.68314 0.26047 0.0
C336 C 0.92596 0.74002 0.32794 0.0
C337 C 0.96665 0.74625 0.30276 0.0
C338 C 0.96318 0.72276 0.25456 0.0
C339 C 0.91986 0.69142 0.23373 0.0
H340 H 0.35599 0.02471 0.79146 0.0
H341 H 0.27375 0.08817 0.75011 0.0
H342 H 0.33066 0.97874 0.70916 0.0
H343 H 0.24844 0.0419 0.66794 0.0
H344 H 0.1822 0.90552 0.55983 0.0
H345 H 0.2023 0.95334 0.64072 0.0
H346 H 0.34781 0.0065 0.60768 0.0
H347 H 0.32795 0.95896 0.52649 0.0
C348 C 0.33171 0.02807 0.76551 0.0
C349 C 0.31694 0.06011 0.77708 0.0
C350 C 0.31777 0.00226 0.71818 0.0
C351 C 0.28839 0.00764 0.68214 0.0
C352 C 0.27131 0.03746 0.69518 0.0
C353 C 0.28567 0.0637 0.7422 0.0
C354 C 0.21851 0.92815 0.56924 0.0
C355 C 0.25356 0.92847 0.53708 0.0
C356 C 0.2299 0.95535 0.61547 0.0
C357 C 0.27645 0.98275 0.63053 0.0
C358 C 0.3116 0.98494 0.59704 0.0
C359 C 0.30026 0.95824 0.55037 0.0
H360 H 0.17201 0.37829 0.7428 0.0
H361 H 0.07985 0.43148 0.70744 0.0
H362 H 0.19254 0.38345 0.64826 0.0
H363 H 0.09881 0.43461 0.61209 0.0
H364 H 0.18745 0.48597 0.45692 0.0
H365 H 0.16207 0.47832 0.55038 0.0
H366 H 0.16333 0.34915 0.5626 0.0
H367 H 0.18915 0.35714 0.46953 0.0
C368 C 0.15598 0.391 0.71485 0.0
C369 C 0.12452 0.40483 0.73304 0.0
C370 C 0.16733 0.39339 0.66035 0.0
C371 C 0.1474 0.40947 0.62228 0.0
C372 C 0.1153 0.42258 0.64027 0.0
C373 C 0.10397 0.42024 0.69494 0.0
C374 C 0.18192 0.45575 0.47945 0.0
C375 C 0.19077 0.4224 0.4558 0.0
C376 C 0.16723 0.45128 0.53307 0.0
C377 C 0.16085 0.41323 0.56435 0.0
C378 C 0.16878 0.37942 0.54023 0.0
C379 C 0.18362 0.38399 0.48677 0.0
H380 H 0.86328 0.21907 0.18774 0.0
H381 H 0.73382 0.21322 0.14927 0.0
H382 H 0.88724 0.2355 0.09374 0.0
H383 H 0.75797 0.23062 0.05577 0.0
H384 H 0.79043 0.21243 0.88436 0.0
H385 H 0.7693 0.19623 0.97841 0.0
H386 H 0.91106 0.29193 0.02356 0.0
H387 H 0.9329 0.30606 0.92888 0.0
C388 C 0.84013 0.22175 0.15928 0.0
C389 C 0.79646 0.21444 0.17592 0.0
C390 C 0.85391 0.23131 0.10535 0.0
C391 C 0.82447 0.23411 0.0668 0.0
C392 C 0.78117 0.22765 0.08387 0.0
C393 C 0.76729 0.21776 0.1376 0.0
C394 C 0.8174 0.22948 0.91415 0.0
C395 C 0.8635 0.26041 0.89867 0.0
C396 C 0.80506 0.22074 0.96837 0.0
C397 C 0.83831 0.243 1.00893 0.0
C398 C 0.88452 0.27381 0.99357 0.0
C399 C 0.89697 0.28236 0.93915 0.0
H400 H 0.63206 0.78954 0.39907 0.0
H401 H 0.58785 0.64584 0.36477 0.0
H402 H 0.62803 0.80372 0.30407 0.0
H403 H 0.58629 0.66069 0.26914 0.0
H404 H 0.53025 0.69129 0.11421 0.0
H405 H 0.54003 0.67553 0.20741 0.0
H406 H 0.66328 0.81055 0.21858 0.0
H407 H 0.65282 0.82651 0.12561 0.0
C408 C 0.62169 0.76096 0.37125 0.0
C409 C 0.60977 0.7164 0.38985 0.0
C410 C 0.62002 0.76928 0.31652 0.0
C411 C 0.60671 0.73334 0.27873 0.0
C412 C 0.59605 0.68905 0.29712 0.0
C413 C 0.59752 0.68067 0.35198 0.0
C414 C 0.5597 0.71739 0.13644 0.0
C415 C 0.59055 0.7603 0.11267 0.0
C416 C 0.56543 0.70832 0.18988 0.0
C417 C 0.60235 0.74184 0.22078 0.0
C418 C 0.63391 0.78428 0.19642 0.0
C419 C 0.62798 0.79345 0.1431 0.0
H420 H 0.7594 0.63895 0.85663 0.0
H421 H 0.77872 0.52319 0.81574 0.0
H422 H 0.74219 0.64544 0.76283 0.0
H423 H 0.76127 0.5294 0.72227 0.0
H424 H 0.77656 0.58209 0.5516 0.0
H425 H 0.79374 0.57816 0.64561 0.0
H426 H 0.68591 0.60804 0.69253 0.0
H427 H 0.67017 0.61417 0.59819 0.0
C428 C 0.75958 0.61461 0.82774 0.0
C429 C 0.77078 0.58073 0.84378 0.0
C430 C 0.74967 0.61831 0.77387 0.0
C431 C 0.75063 0.58817 0.73466 0.0
C432 C 0.76121 0.55392 0.75097 0.0
C433 C 0.77121 0.55031 0.8047 0.0
C434 C 0.75693 0.58857 0.58183 0.0
C435 C 0.72205 0.59866 0.56697 0.0
C436 C 0.76636 0.58563 0.63595 0.0
C437 C 0.74106 0.59246 0.67694 0.0
C438 C 0.7064 0.60293 0.66218 0.0
C439 C 0.697 0.60595 0.60794 0.0
H440 H 0.16859 0.73055 0.83015 0.0
H441 H 0.23341 0.8753 0.78529 0.0
H442 H 0.1889 0.75269 0.92327 0.0
H443 H 0.25652 0.89751 0.87826 0.0
H444 H 0.24833 0.91898 0.06044 0.0
H445 H 0.22841 0.89984 0.96583 0.0
H446 H 0.25341 0.78441 0.98107 0.0
H447 H 0.27195 0.80289 0.07554 0.0
C448 C 0.18708 0.76715 0.84003 0.0
C449 C 0.19917 0.80102 0.79985 0.0
C450 C 0.19948 0.77992 0.89355 0.0
C451 C 0.22481 0.82697 0.90854 0.0
C452 C 0.23672 0.86094 0.86846 0.0
C453 C 0.22396 0.84814 0.81487 0.0
C454 C 0.24985 0.88975 0.04332 0.0
C455 C 0.26122 0.86215 0.07557 0.0
C456 C 0.23853 0.87878 0.98904 0.0
C457 C 0.23874 0.84019 0.96569 0.0
C458 C 0.2516 0.81359 0.9978 0.0
C459 C 0.26245 0.82429 0.052 0.0
H460 H 0.46364 0.23802 0.49312 0.0
H461 H 0.32557 0.12299 0.52073 0.0
H462 H 0.45988 0.21393 0.39972 0.0
H463 H 0.32215 0.09841 0.42736 0.0
H464 H 0.31599 0.10692 0.24073 0.0
H465 H 0.31845 0.12706 0.33571 0.0
H466 H 0.45788 0.14953 0.34671 0.0
H467 H 0.45564 0.13002 0.2517 0.0
C468 C 0.43243 0.20764 0.47923 0.0
C469 C 0.39482 0.1826 0.51441 0.0
C470 C 0.43046 0.19354 0.42582 0.0
C471 C 0.39071 0.15422 0.40605 0.0
C472 C 0.35312 0.12907 0.44121 0.0
C473 C 0.35524 0.14294 0.49482 0.0
C474 C 0.34714 0.11615 0.26347 0.0
C475 C 0.38564 0.11694 0.23861 0.0
C476 C 0.34842 0.12732 0.31798 0.0
C477 C 0.38842 0.14005 0.34877 0.0
C478 C 0.4267 0.14031 0.32403 0.0
C479 C 0.42525 0.12869 0.2697 0.0
H480 H 0.24085 0.54856 0.20144 0.0
H481 H 0.10832 0.52017 0.13768 0.0
H482 H 0.23803 0.60158 0.26656 0.0
H483 H 0.10592 0.57418 0.20328 0.0
H484 H 0.16433 0.72398 0.2797 0.0
H485 H 0.15387 0.6616 0.21957 0.0
H486 H 0.19004 0.59843 0.34816 0.0
H487 H 0.20056 0.66117 0.40883 0.0
C488 C 0.2112 0.55386 0.20095 0.0
C489 C 0.17493 0.53037 0.16395 0.0
C490 C 0.20938 0.58384 0.23886 0.0
C491 C 0.17154 0.59156 0.24036 0.0
C492 C 0.13548 0.56872 0.20297 0.0
C493 C 0.13696 0.53804 0.16534 0.0
C494 C 0.16944 0.69644 0.29545 0.0
C495 C 0.1838 0.69768 0.34884 0.0
C496 C 0.1631 0.66057 0.26104 0.0
C497 C 0.17149 0.62545 0.2791 0.0
C498 C 0.18376 0.62543 0.33317 0.0
C499 C 0.18953 0.6611 0.36792 0.0
H500 H 0.73752 0.23284 0.70145 0.0
H501 H 0.6467 0.16124 0.56829 0.0
H502 H 0.67079 0.21494 0.75779 0.0
H503 H 0.57951 0.14116 0.62543 0.0
H504 H 0.47702 0.16811 0.71672 0.0
H505 H 0.54148 0.17692 0.66353 0.0
H506 H 0.60527 0.15868 0.80561 0.0
H507 H 0.54058 0.15193 0.86024 0.0
C508 C 0.70316 0.21278 0.68433 0.0
C509 C 0.69737 0.19889 0.63016 0.0
C510 C 0.66479 0.20207 0.71693 0.0
C511 C 0.61954 0.17662 0.6964 0.0
C512 C 0.61381 0.16168 0.64246 0.0
C513 C 0.65229 0.17308 0.60959 0.0
C514 C 0.50447 0.16557 0.73704 0.0
C515 C 0.50359 0.15946 0.79309 0.0
C516 C 0.54152 0.17025 0.70609 0.0
C517 C 0.57877 0.16837 0.72992 0.0
C518 C 0.57747 0.16095 0.7859 0.0
C519 C 0.54029 0.15673 0.81724 0.0
H520 H 0.34029 0.51604 0.05893 0.0
H521 H 0.24991 0.44767 0.92481 0.0
H522 H 0.40509 0.55819 0.99752 0.0
H523 H 0.31506 0.48708 0.86297 0.0
H524 H 0.42468 0.61369 0.76811 0.0
H525 H 0.36073 0.5581 0.82386 0.0
H526 H 0.45934 0.56056 0.93905 0.0
H527 H 0.52263 0.61887 0.88492 0.0
C528 C 0.33468 0.5093 1.01622 0.0
C529 C 0.29019 0.47921 0.99643 0.0
C530 C 0.3719 0.53315 0.98078 0.0
C531 C 0.36566 0.52643 0.92475 0.0
C532 C 0.32125 0.4943 0.90548 0.0
C533 C 0.28386 0.47144 0.9409 0.0
C534 C 0.43241 0.60137 0.80477 0.0
C535 C 0.47827 0.62047 0.82249 0.0
C536 C 0.39579 0.56938 0.83692 0.0
C537 C 0.4045 0.55512 0.88685 0.0
C538 C 0.45093 0.5717 0.902 0.0
C539 C 0.48734 0.60461 0.87063 0.0
H540 H 0.79755 0.36816 0.52648 0.0
H541 H 0.86518 0.34245 0.39311 0.0
H542 H 0.78719 0.42328 0.47146 0.0
H543 H 0.85673 0.39858 0.33888 0.0
H544 H 0.77629 0.44796 0.23592 0.0
H545 H 0.79546 0.40079 0.2938 0.0
H546 H 0.8206 0.49537 0.4256 0.0
H547 H 0.79976 0.54134 0.3684 0.0
C548 C 0.81144 0.37542 0.48599 0.0
C549 C 0.83181 0.3509 0.46391 0.0
C550 C 0.80549 0.40692 0.45431 0.0
C551 C 0.82036 0.4148 0.40024 0.0
C552 C 0.84359 0.39242 0.3797 0.0
C553 C 0.84892 0.36063 0.411 0.0
C554 C 0.78606 0.4587 0.27717 0.0
C555 C 0.7862 0.49819 0.29753 0.0
C556 C 0.79739 0.43187 0.31039 0.0
C557 C 0.80971 0.44426 0.36455 0.0
C558 C 0.81058 0.48428 0.38449 0.0
C559 C 0.7988 0.51078 0.35149 0.0
H560 H 0.29719 0.8026 0.59155 0.0
H561 H 0.37834 0.82906 0.44625 0.0
H562 H 0.3523 0.78979 0.64028 0.0
H563 H 0.43547 0.8179 0.49638 0.0
H564 H 0.49562 0.74008 0.59095 0.0
H565 H 0.44523 0.75868 0.53851 0.0
H566 H 0.42679 0.82675 0.67704 0.0
H567 H 0.47541 0.80628 0.72993 0.0
C568 C 0.32733 0.80649 0.57001 0.0
C569 C 0.33337 0.81704 0.51483 0.0
C570 C 0.35929 0.7994 0.59831 0.0
C571 C 0.3987 0.80317 0.57258 0.0
C572 C 0.40523 0.81427 0.51739 0.0
C573 C 0.37273 0.82097 0.4887 0.0
C574 C 0.48069 0.75894 0.6102 0.0
C575 C 0.48898 0.77117 0.66482 0.0
C576 C 0.45214 0.77002 0.57994 0.0
C577 C 0.43167 0.79405 0.60347 0.0
C578 C 0.44106 0.80729 0.65781 0.0
C579 C 0.46903 0.79563 0.68822 0.0
H580 H 0.64272 0.52233 0.05886 0.0
H581 H 0.61181 0.4281 0.19197 0.0
H582 H 0.58546 0.45931 1.00407 0.0
H583 H 0.55554 0.36418 0.13644 0.0
H584 H 0.43701 0.26218 0.03404 0.0
H585 H 0.4838 0.32907 0.09046 0.0
H586 H 0.58021 0.39418 0.95891 0.0
H587 H 0.53211 0.32765 0.90169 0.0
C588 C 0.6232 0.48805 0.07655 0.0
C589 C 0.63175 0.47992 0.12956 0.0
C590 C 0.59073 0.45183 0.04494 0.0
C591 C 0.56645 0.40641 0.06534 0.0
C592 C 0.57332 0.39877 0.11944 0.0
C593 C 0.60551 0.43531 0.1514 0.0
C594 C 0.46811 0.29089 1.017 0.0
C595 C 0.48112 0.28954 0.96345 0.0
C596 C 0.49506 0.3292 0.04954 0.0
C597 C 0.53601 0.36697 0.02956 0.0
C598 C 0.54852 0.36602 0.97553 0.0
C599 C 0.52115 0.32781 0.9427 0.0
loop_
_geom_bond_atom_site_label_1
_geom_bond_atom_site_label_2
_geom_bond_distance
_geom_bond_site_symmetry_2
_ccdc_geom_bond_type
Tb0 C10 2.825 . S
Tb0 O11 2.347 . S
Tb0 O14 2.366 . S
Tb0 O19 2.418 . S
Tb0 O20 2.384 . S
Tb0 O23 2.479 . S
Tb0 O24 2.471 . S
Eu1 O12 2.418 1_556 S
Eu1 O13 2.384 1_556 S
Eu1 O16 2.479 . S
Eu1 O17 2.471 . S
Eu1 O18 2.347 1_556 S
Eu1 O21 2.366 . S
Eu1 C31 2.825 . S
C2 O18 1.259 . S
C2 O19 1.265 . S
C3 O20 1.255 1_556 S
C3 O21 1.265 . S
C4 C6 1.380 . S
C4 C7 1.374 . S
C4 C10 1.507 . S
C5 C6 1.384 . S
C5 C9 1.387 . S
C5 H32 0.930 . S
C6 C4 1.380 . S
C6 C5 1.384 . S
C6 H33 0.931 . S
C7 C4 1.374 . S
C7 C8 1.390 . S
C7 H34 0.930 . S
C8 C7 1.390 . S
C8 C9 1.391 . S
C8 H35 0.930 . S
C9 C5 1.387 . S
C9 C8 1.391 . S
C10 Tb0 2.825 . S
C10 C4 1.507 . S
C10 O23 1.238 . S
C10 O24 1.247 . S
O11 Tb0 2.347 . S
O11 C15 1.259 . S
O12 Eu1 2.418 1_554 S
O12 C15 1.265 . S
O13 Eu1 2.384 1_554 S
O13 C22 1.255 . S
O14 Tb0 2.366 . S
O14 C22 1.265 . S
C15 O11 1.259 . S
C15 O12 1.265 . S
O16 Eu1 2.479 . S
O16 C31 1.238 . S
O17 Eu1 2.471 . S
O17 C31 1.247 . S
O18 Eu1 2.347 1_554 S
O18 C2 1.259 . S
O19 Tb0 2.418 . S
O19 C2 1.265 . S
O20 Tb0 2.384 . S
O20 C3 1.255 1_554 S
O21 Eu1 2.366 . S
O21 C3 1.265 . S
C22 O13 1.255 . S
C22 O14 1.265 . S
O23 Tb0 2.479 . S
O23 C10 1.238 . S
O24 Tb0 2.471 . S
O24 C10 1.247 . S
C25 C28 1.380 . S
C25 C29 1.374 . S
C25 C31 1.507 . S
C26 C27 1.387 . S
C26 C30 1.391 . S
C27 C26 1.387 . S
C27 C28 1.384 . S
C27 H36 0.930 . S
C28 C25 1.380 . S
C28 C27 1.384 . S
C28 H37 0.931 . S
C29 C25 1.374 . S
C29 C30 1.390 . S
C29 H38 0.930 . S
C30 C26 1.391 . S
C30 C29 1.390 . S
C30 H39 0.930 . S
C31 Eu1 2.825 . S
C31 O16 1.238 . S
C31 O17 1.247 . S
C31 C25 1.507 . S
H32 C5 0.930 . S
H33 C6 0.931 . S
H34 C7 0.930 . S
H35 C8 0.930 . S
H36 C27 0.930 . S
H37 C28 0.931 . S
H38 C29 0.930 . S
H39 C30 0.930 . S
Tb40 C50 2.825 . S
Tb40 O51 2.347 . S
Tb40 O54 2.366 . S
Tb40 O59 2.418 . S
Tb40 O60 2.384 . S
Tb40 O63 2.479 . S
Tb40 O64 2.471 . S
Eu41 O52 2.418 . S
Eu41 O53 2.384 . S
Eu41 O56 2.479 . S
Eu41 O57 2.471 . S
Eu41 O58 2.347 . S
Eu41 O61 2.366 . S
Eu41 C71 2.825 . S
C42 O58 1.259 . S
C42 O59 1.265 . S
C43 O60 1.255 . S
C43 O61 1.265 . S
C44 C46 1.380 . S
C44 C47 1.374 . S
C44 C50 1.507 . S
C45 C46 1.384 . S
C45 C49 1.387 . S
C45 H72 0.930 . S
C46 C44 1.380 . S
C46 C45 1.384 . S
C46 H73 0.931 . S
C47 C44 1.374 . S
C47 C48 1.390 . S
C47 H74 0.930 . S
C48 C47 1.390 . S
C48 C49 1.391 . S
C48 H75 0.930 . S
C49 C45 1.387 . S
C49 C48 1.391 . S
C50 Tb40 2.825 . S
C50 C44 1.507 . S
C50 O63 1.238 . S
C50 O64 1.247 . S
O51 Tb40 2.347 . S
O51 C55 1.259 . S
O52 Eu41 2.418 . S
O52 C55 1.265 . S
O53 Eu41 2.384 . S
O53 C62 1.255 . S
O54 Tb40 2.366 . S
O54 C62 1.265 . S
C55 O51 1.259 . S
C55 O52 1.265 . S
O56 Eu41 2.479 . S
O56 C71 1.238 . S
O57 Eu41 2.471 . S
O57 C71 1.247 . S
O58 Eu41 2.347 . S
O58 C42 1.259 . S
O59 Tb40 2.418 . S
O59 C42 1.265 . S
O60 Tb40 2.384 . S
O60 C43 1.255 . S
O61 Eu41 2.366 . S
O61 C43 1.265 . S
C62 O53 1.255 . S
C62 O54 1.265 . S
O63 Tb40 2.479 . S
O63 C50 1.238 . S
O64 Tb40 2.471 . S
O64 C50 1.247 . S
C65 C68 1.380 . S
C65 C69 1.374 . S
C65 C71 1.507 . S
C66 C67 1.387 . S
C66 C70 1.391 . S
C67 C66 1.387 . S
C67 C68 1.384 . S
C67 H76 0.930 . S
C68 C65 1.380 . S
C68 C67 1.384 . S
C68 H77 0.931 . S
C69 C65 1.374 . S
C69 C70 1.390 . S
C69 H78 0.930 . S
C70 C66 1.391 . S
C70 C69 1.390 . S
C70 H79 0.930 . S
C71 Eu41 2.825 . S
C71 O56 1.238 . S
C71 O57 1.247 . S
C71 C65 1.507 . S
H72 C45 0.930 . S
H73 C46 0.931 . S
H74 C47 0.930 . S
H75 C48 0.930 . S
H76 C67 0.930 . S
H77 C68 0.931 . S
H78 C69 0.930 . S
H79 C70 0.930 . S
Tb80 C90 2.825 . S
Tb80 O91 2.347 . S
Tb80 O94 2.366 . S
Tb80 O99 2.418 . S
Tb80 O100 2.384 . S
Tb80 O103 2.479 . S
Tb80 O104 2.471 . S
Eu81 O92 2.418 . S
Eu81 O93 2.384 . S
Eu81 O96 2.479 . S
Eu81 O97 2.471 . S
Eu81 O98 2.347 . S
Eu81 O101 2.366 . S
Eu81 C111 2.825 . S
C82 O98 1.259 . S
C82 O99 1.265 . S
C83 O100 1.255 . S
C83 O101 1.265 . S
C84 C86 1.380 . S
C84 C87 1.374 . S
C84 C90 1.507 . S
C85 C86 1.384 1_554 S
C85 C89 1.387 . S
C85 H112 0.930 . S
C86 C84 1.380 . S
C86 C85 1.384 1_556 S
C86 H113 0.931 . S
C87 C84 1.374 . S
C87 C88 1.390 1_556 S
C87 H114 0.930 . S
C88 C87 1.390 1_554 S
C88 C89 1.391 . S
C88 H115 0.930 . S
C89 C85 1.387 . S
C89 C88 1.391 . S
C90 Tb80 2.825 . S
C90 C84 1.507 . S
C90 O103 1.238 . S
C90 O104 1.247 . S
O91 Tb80 2.347 . S
O91 C95 1.259 . S
O92 Eu81 2.418 . S
O92 C95 1.265 . S
O93 Eu81 2.384 . S
O93 C102 1.255 . S
O94 Tb80 2.366 . S
O94 C102 1.265 . S
C95 O91 1.259 . S
C95 O92 1.265 . S
O96 Eu81 2.479 . S
O96 C111 1.238 . S
O97 Eu81 2.471 . S
O97 C111 1.247 . S
O98 Eu81 2.347 . S
O98 C82 1.259 . S
O99 Tb80 2.418 . S
O99 C82 1.265 . S
O100 Tb80 2.384 . S
O100 C83 1.255 . S
O101 Eu81 2.366 . S
O101 C83 1.265 . S
C102 O93 1.255 . S
C102 O94 1.265 . S
O103 Tb80 2.479 . S
O103 C90 1.238 . S
O104 Tb80 2.471 . S
O104 C90 1.247 . S
C105 C108 1.380 . S
C105 C109 1.374 . S
C105 C111 1.507 . S
C106 C107 1.387 . S
C106 C110 1.391 . S
C107 C106 1.387 . S
C107 C108 1.384 . S
C107 H116 0.930 . S
C108 C105 1.380 . S
C108 C107 1.384 . S
C108 H117 0.931 . S
C109 C105 1.374 . S
C109 C110 1.390 . S
C109 H118 0.930 . S
C110 C106 1.391 . S
C110 C109 1.390 . S
C110 H119 0.930 . S
C111 Eu81 2.825 . S
C111 O96 1.238 . S
C111 O97 1.247 . S
C111 C105 1.507 . S
H112 C85 0.930 . S
H113 C86 0.931 . S
H114 C87 0.930 . S
H115 C88 0.930 . S
H116 C107 0.930 . S
H117 C108 0.931 . S
H118 C109 0.930 . S
H119 C110 0.930 . S
Tb120 C130 2.825 . S
Tb120 O131 2.347 . S
Tb120 O134 2.366 . S
Tb120 O139 2.418 . S
Tb120 O140 2.384 . S
Tb120 O143 2.479 . S
Tb120 O144 2.471 . S
Eu121 O132 2.418 . S
Eu121 O133 2.384 . S
Eu121 O136 2.479 . S
Eu121 O137 2.471 . S
Eu121 O138 2.347 . S
Eu121 O141 2.366 . S
Eu121 C151 2.825 . S
C122 O138 1.259 . S
C122 O139 1.265 . S
C123 O140 1.255 . S
C123 O141 1.265 . S
C124 C126 1.380 . S
C124 C127 1.374 . S
C124 C130 1.507 1_556 S
C125 C126 1.384 . S
C125 C129 1.387 . S
C125 H152 0.930 . S
C126 C124 1.380 . S
C126 C125 1.384 . S
C126 H153 0.931 . S
C127 C124 1.374 . S
C127 C128 1.390 . S
C127 H154 0.930 . S
C128 C127 1.390 . S
C128 C129 1.391 . S
C128 H155 0.930 . S
C129 C125 1.387 . S
C129 C128 1.391 . S
C130 Tb120 2.825 . S
C130 C124 1.507 1_554 S
C130 O143 1.238 . S
C130 O144 1.247 . S
O131 Tb120 2.347 . S
O131 C135 1.259 . S
O132 Eu121 2.418 . S
O132 C135 1.265 . S
O133 Eu121 2.384 . S
O133 C142 1.255 . S
O134 Tb120 2.366 . S
O134 C142 1.265 . S
C135 O131 1.259 . S
C135 O132 1.265 . S
O136 Eu121 2.479 . S
O136 C151 1.238 . S
O137 Eu121 2.471 . S
O137 C151 1.247 . S
O138 Eu121 2.347 . S
O138 C122 1.259 . S
O139 Tb120 2.418 . S
O139 C122 1.265 . S
O140 Tb120 2.384 . S
O140 C123 1.255 . S
O141 Eu121 2.366 . S
O141 C123 1.265 . S
C142 O133 1.255 . S
C142 O134 1.265 . S
O143 Tb120 2.479 . S
O143 C130 1.238 . S
O144 Tb120 2.471 . S
O144 C130 1.247 . S
C145 C148 1.380 . S
C145 C149 1.374 . S
C145 C151 1.507 . S
C146 C147 1.387 . S
C146 C150 1.391 . S
C147 C146 1.387 . S
C147 C148 1.384 . S
C147 H156 0.930 . S
C148 C145 1.380 . S
C148 C147 1.384 . S
C148 H157 0.931 . S
C149 C145 1.374 . S
C149 C150 1.390 . S
C149 H158 0.930 . S
C150 C146 1.391 . S
C150 C149 1.390 . S
C150 H159 0.930 . S
C151 Eu121 2.825 . S
C151 O136 1.238 . S
C151 O137 1.247 . S
C151 C145 1.507 . S
H152 C125 0.930 . S
H153 C126 0.931 . S
H154 C127 0.930 . S
H155 C128 0.930 . S
H156 C147 0.930 . S
H157 C148 0.931 . S
H158 C149 0.930 . S
H159 C150 0.930 . S
Tb160 C170 2.825 . S
Tb160 O171 2.347 . S
Tb160 O174 2.366 . S
Tb160 O179 2.418 . S
Tb160 O180 2.384 . S
Tb160 O183 2.479 . S
Tb160 O184 2.471 . S
Eu161 O172 2.418 . S
Eu161 O173 2.384 . S
Eu161 O176 2.479 . S
Eu161 O177 2.471 . S
Eu161 O178 2.347 . S
Eu161 O181 2.366 . S
Eu161 C191 2.825 . S
C162 O178 1.259 . S
C162 O179 1.265 . S
C163 O180 1.255 . S
C163 O181 1.265 . S
C164 C166 1.380 . S
C164 C167 1.374 . S
C164 C170 1.507 . S
C165 C166 1.384 . S
C165 C169 1.387 . S
C165 H192 0.930 . S
C166 C164 1.380 . S
C166 C165 1.384 . S
C166 H193 0.931 . S
C167 C164 1.374 . S
C167 C168 1.390 . S
C167 H194 0.930 . S
C168 C167 1.390 . S
C168 C169 1.391 . S
C168 H195 0.930 . S
C169 C165 1.387 . S
C169 C168 1.391 . S
C170 Tb160 2.825 . S
C170 C164 1.507 . S
C170 O183 1.238 . S
C170 O184 1.247 . S
O171 Tb160 2.347 . S
O171 C175 1.259 . S
O172 Eu161 2.418 . S
O172 C175 1.265 . S
O173 Eu161 2.384 . S
O173 C182 1.255 . S
O174 Tb160 2.366 . S
O174 C182 1.265 . S
C175 O171 1.259 . S
C175 O172 1.265 . S
O176 Eu161 2.479 . S
O176 C191 1.238 . S
O177 Eu161 2.471 . S
O177 C191 1.247 . S
O178 Eu161 2.347 . S
O178 C162 1.259 . S
O179 Tb160 2.418 . S
O179 C162 1.265 . S
O180 Tb160 2.384 . S
O180 C163 1.255 . S
O181 Eu161 2.366 . S
O181 C163 1.265 . S
C182 O173 1.255 . S
C182 O174 1.265 . S
O183 Tb160 2.479 . S
O183 C170 1.238 . S
O184 Tb160 2.471 . S
O184 C170 1.247 . S
C185 C188 1.380 . S
C185 C189 1.374 . S
C185 C191 1.507 . S
C186 C187 1.387 . S
C186 C190 1.391 . S
C187 C186 1.387 . S
C187 C188 1.384 . S
C187 H196 0.930 . S
C188 C185 1.380 . S
C188 C187 1.384 . S
C188 H197 0.931 . S
C189 C185 1.374 . S
C189 C190 1.390 . S
C189 H198 0.930 . S
C190 C186 1.391 . S
C190 C189 1.390 . S
C190 H199 0.930 . S
C191 Eu161 2.825 . S
C191 O176 1.238 . S
C191 O177 1.247 . S
C191 C185 1.507 . S
H192 C165 0.930 . S
H193 C166 0.931 . S
H194 C167 0.930 . S
H195 C168 0.930 . S
H196 C187 0.930 . S
H197 C188 0.931 . S
H198 C189 0.930 . S
H199 C190 0.930 . S
Tb200 C210 2.825 . S
Tb200 O211 2.347 . S
Tb200 O214 2.366 . S
Tb200 O219 2.418 . S
Tb200 O220 2.384 . S
Tb200 O223 2.479 . S
Tb200 O224 2.471 . S
Eu201 O212 2.418 . S
Eu201 O213 2.384 . S
Eu201 O216 2.479 1_556 S
Eu201 O217 2.471 1_556 S
Eu201 O218 2.347 . S
Eu201 O221 2.366 . S
Eu201 C231 2.825 1_556 S
C202 O218 1.259 . S
C202 O219 1.265 . S
C203 O220 1.255 . S
C203 O221 1.265 . S
C204 C206 1.380 . S
C204 C207 1.374 . S
C204 C210 1.507 . S
C205 C206 1.384 . S
C205 C209 1.387 . S
C205 H232 0.930 . S
C206 C204 1.380 . S
C206 C205 1.384 . S
C206 H233 0.931 . S
C207 C204 1.374 . S
C207 C208 1.390 . S
C207 H234 0.930 . S
C208 C207 1.390 . S
C208 C209 1.391 . S
C208 H235 0.930 . S
C209 C205 1.387 . S
C209 C208 1.391 . S
C210 Tb200 2.825 . S
C210 C204 1.507 . S
C210 O223 1.238 . S
C210 O224 1.247 . S
O211 Tb200 2.347 . S
O211 C215 1.259 . S
O212 Eu201 2.418 . S
O212 C215 1.265 . S
O213 Eu201 2.384 . S
O213 C222 1.255 . S
O214 Tb200 2.366 . S
O214 C222 1.265 . S
C215 O211 1.259 . S
C215 O212 1.265 . S
O216 Eu201 2.479 1_554 S
O216 C231 1.238 . S
O217 Eu201 2.471 1_554 S
O217 C231 1.247 . S
O218 Eu201 2.347 . S
O218 C202 1.259 . S
O219 Tb200 2.418 . S
O219 C202 1.265 . S
O220 Tb200 2.384 . S
O220 C203 1.255 . S
O221 Eu201 2.366 . S
O221 C203 1.265 . S
C222 O213 1.255 . S
C222 O214 1.265 . S
O223 Tb200 2.479 . S
O223 C210 1.238 . S
O224 Tb200 2.471 . S
O224 C210 1.247 . S
C225 C228 1.380 . S
C225 C229 1.374 . S
C225 C231 1.507 . S
C226 C227 1.387 . S
C226 C230 1.391 . S
C227 C226 1.387 . S
C227 C228 1.384 . S
C227 H236 0.930 . S
C228 C225 1.380 . S
C228 C227 1.384 . S
C228 H237 0.931 . S
C229 C225 1.374 . S
C229 C230 1.390 . S
C229 H238 0.930 . S
C230 C226 1.391 . S
C230 C229 1.390 . S
C230 H239 0.930 . S
C231 Eu201 2.825 1_554 S
C231 O216 1.238 . S
C231 O217 1.247 . S
C231 C225 1.507 . S
H232 C205 0.930 . S
H233 C206 0.931 . S
H234 C207 0.930 . S
H235 C208 0.930 . S
H236 C227 0.930 . S
H237 C228 0.931 . S
H238 C229 0.930 . S
H239 C230 0.930 . S
H240 C248 0.950 . S
H241 C253 0.950 . S
H242 C250 0.950 . S
H243 C252 0.950 . S
H244 C254 0.950 . S
H245 C256 0.950 1_554 S
H246 C258 0.950 . S
H247 C259 0.950 . S
C248 H240 0.950 . S
C248 C249 1.386 . S
C248 C250 1.391 . S
C249 C248 1.386 . S
C249 C253 1.393 . S
C250 H242 0.950 . S
C250 C248 1.391 . S
C250 C251 1.400 . S
C251 C250 1.400 . S
C251 C252 1.398 . S
C251 C257 1.491 . S
C252 H243 0.950 . S
C252 C251 1.398 . S
C252 C253 1.391 . S
C253 H241 0.950 . S
C253 C249 1.393 . S
C253 C252 1.391 . S
C254 H244 0.950 . S
C254 C255 1.386 . S
C254 C256 1.391 1_554 S
C255 C254 1.386 . S
C255 C259 1.393 1_554 S
C256 H245 0.950 1_556 S
C256 C254 1.391 1_556 S
C256 C257 1.400 . S
C257 C251 1.491 . S
C257 C256 1.400 . S
C257 C258 1.398 . S
C258 H246 0.950 . S
C258 C257 1.398 . S
C258 C259 1.391 . S
C259 H247 0.950 . S
C259 C255 1.393 1_556 S
C259 C258 1.391 . S
H260 C268 0.950 . S
H261 C273 0.950 1_655 S
H262 C270 0.950 . S
H263 C272 0.950 . S
H264 C274 0.950 . S
H265 C276 0.950 . S
H266 C278 0.950 . S
H267 C279 0.950 1_455 S
C268 H260 0.950 . S
C268 C269 1.386 . S
C268 C270 1.391 . S
C269 C268 1.386 . S
C269 C273 1.393 . S
C270 H262 0.950 . S
C270 C268 1.391 . S
C270 C271 1.400 . S
C271 C270 1.400 . S
C271 C272 1.398 1_455 S
C271 C277 1.491 1_455 S
C272 H263 0.950 . S
C272 C271 1.398 1_655 S
C272 C273 1.391 1_655 S
C273 H261 0.950 1_455 S
C273 C269 1.393 . S
C273 C272 1.391 1_455 S
C274 H264 0.950 . S
C274 C275 1.386 . S
C274 C276 1.391 . S
C275 C274 1.386 . S
C275 C279 1.393 . S
C276 H265 0.950 . S
C276 C274 1.391 . S
C276 C277 1.400 . S
C277 C271 1.491 1_655 S
C277 C276 1.400 . S
C277 C278 1.398 1_655 S
C278 H266 0.950 . S
C278 C277 1.398 1_455 S
C278 C279 1.391 1_455 S
C279 H267 0.950 1_655 S
C279 C275 1.393 . S
C279 C278 1.391 1_655 S
H280 C288 0.950 . S
H281 C293 0.950 . S
H282 C290 0.950 . S
H283 C292 0.950 . S
H284 C294 0.950 . S
H285 C296 0.950 . S
H286 C298 0.950 . S
H287 C299 0.950 . S
C288 H280 0.950 . S
C288 C289 1.386 . S
C288 C290 1.391 . S
C289 C288 1.386 . S
C289 C293 1.393 . S
C290 H282 0.950 . S
C290 C288 1.391 . S
C290 C291 1.400 . S
C291 C290 1.400 . S
C291 C292 1.398 . S
C291 C297 1.491 1_545 S
C292 H283 0.950 . S
C292 C291 1.398 . S
C292 C293 1.391 . S
C293 H281 0.950 . S
C293 C289 1.393 . S
C293 C292 1.391 . S
C294 H284 0.950 . S
C294 C295 1.386 . S
C294 C296 1.391 . S
C295 C294 1.386 . S
C295 C299 1.393 . S
C296 H285 0.950 . S
C296 C294 1.391 . S
C296 C297 1.400 . S
C297 C291 1.491 1_565 S
C297 C296 1.400 . S
C297 C298 1.398 . S
C298 H286 0.950 . S
C298 C297 1.398 . S
C298 C299 1.391 . S
C299 H287 0.950 . S
C299 C295 1.393 . S
C299 C298 1.391 . S
H300 C308 0.950 . S
H301 C313 0.950 . S
H302 C310 0.950 . S
H303 C312 0.950 . S
H304 C314 0.950 . S
H305 C316 0.950 . S
H306 C318 0.950 . S
H307 C319 0.950 . S
C308 H300 0.950 . S
C308 C309 1.386 . S
C308 C310 1.391 . S
C309 C308 1.386 . S
C309 C313 1.393 . S
C310 H302 0.950 . S
C310 C308 1.391 . S
C310 C311 1.400 . S
C311 C310 1.400 . S
C311 C312 1.398 . S
C311 C317 1.491 . S
C312 H303 0.950 . S
C312 C311 1.398 . S
C312 C313 1.391 . S
C313 H301 0.950 . S
C313 C309 1.393 . S
C313 C312 1.391 . S
C314 H304 0.950 . S
C314 C315 1.386 . S
C314 C316 1.391 1_554 S
C315 C314 1.386 . S
C315 C319 1.393 . S
C316 H305 0.950 . S
C316 C314 1.391 1_556 S
C316 C317 1.400 . S
C317 C311 1.491 . S
C317 C316 1.400 . S
C317 C318 1.398 1_556 S
C318 H306 0.950 . S
C318 C317 1.398 1_554 S
C318 C319 1.391 . S
C319 H307 0.950 . S
C319 C315 1.393 . S
C319 C318 1.391 . S
H320 C328 0.950 . S
H321 C333 0.950 . S
H322 C330 0.950 . S
H323 C332 0.950 . S
H324 C334 0.950 . S
H325 C336 0.950 . S
H326 C338 0.950 . S
H327 C339 0.950 . S
C328 H320 0.950 . S
C328 C329 1.386 . S
C328 C330 1.391 . S
C329 C328 1.386 . S
C329 C333 1.393 . S
C330 H322 0.950 . S
C330 C328 1.391 . S
C330 C331 1.400 . S
C331 C330 1.400 . S
C331 C332 1.398 . S
C331 C337 1.491 1_455 S
C332 H323 0.950 . S
C332 C331 1.398 . S
C332 C333 1.391 . S
C333 H321 0.950 . S
C333 C329 1.393 . S
C333 C332 1.391 . S
C334 H324 0.950 . S
C334 C335 1.386 . S
C334 C336 1.391 . S
C335 C334 1.386 . S
C335 C339 1.393 . S
C336 H325 0.950 . S
C336 C334 1.391 . S
C336 C337 1.400 . S
C337 C331 1.491 1_655 S
C337 C336 1.400 . S
C337 C338 1.398 . S
C338 H326 0.950 . S
C338 C337 1.398 . S
C338 C339 1.391 . S
C339 H327 0.950 . S
C339 C335 1.393 . S
C339 C338 1.391 . S
H340 C348 0.950 . S
H341 C353 0.950 . S
H342 C350 0.950 . S
H343 C352 0.950 . S
H344 C354 0.950 . S
H345 C356 0.950 . S
H346 C358 0.950 . S
H347 C359 0.950 . S
C348 H340 0.950 . S
C348 C349 1.386 . S
C348 C350 1.391 . S
C349 C348 1.386 . S
C349 C353 1.393 . S
C350 H342 0.950 . S
C350 C348 1.391 . S
C350 C351 1.400 . S
C351 C350 1.400 . S
C351 C352 1.398 . S
C351 C357 1.491 1_545 S
C352 H343 0.950 . S
C352 C351 1.398 . S
C352 C353 1.391 . S
C353 H341 0.950 . S
C353 C349 1.393 . S
C353 C352 1.391 . S
C354 H344 0.950 . S
C354 C355 1.386 . S
C354 C356 1.391 . S
C355 C354 1.386 . S
C355 C359 1.393 . S
C356 H345 0.950 . S
C356 C354 1.391 . S
C356 C357 1.400 . S
C357 C351 1.491 1_565 S
C357 C356 1.400 . S
C357 C358 1.398 . S
C358 H346 0.950 . S
C358 C357 1.398 . S
C358 C359 1.391 . S
C359 H347 0.950 . S
C359 C355 1.393 . S
C359 C358 1.391 . S
H360 C368 0.950 . S
H361 C373 0.950 . S
H362 C370 0.950 . S
H363 C372 0.950 . S
H364 C374 0.950 . S
H365 C376 0.950 . S
H366 C378 0.950 . S
H367 C379 0.950 . S
C368 H360 0.950 . S
C368 C369 1.386 . S
C368 C370 1.391 . S
C369 C368 1.386 . S
C369 C373 1.393 . S
C370 H362 0.950 . S
C370 C368 1.391 . S
C370 C371 1.400 . S
C371 C370 1.400 . S
C371 C372 1.398 . S
C371 C377 1.491 . S
C372 H363 0.950 . S
C372 C371 1.398 . S
C372 C373 1.391 . S
C373 H361 0.950 . S
C373 C369 1.393 . S
C373 C372 1.391 . S
C374 H364 0.950 . S
C374 C375 1.386 . S
C374 C376 1.391 . S
C375 C374 1.386 . S
C375 C379 1.393 . S
C376 H365 0.950 . S
C376 C374 1.391 . S
C376 C377 1.400 . S
C377 C371 1.491 . S
C377 C376 1.400 . S
C377 C378 1.398 . S
C378 H366 0.950 . S
C378 C377 1.398 . S
C378 C379 1.391 . S
C379 H367 0.950 . S
C379 C375 1.393 . S
C379 C378 1.391 . S
H380 C388 0.950 . S
H381 C393 0.950 . S
H382 C390 0.950 . S
H383 C392 0.950 . S
H384 C394 0.950 . S
H385 C396 0.950 . S
H386 C398 0.950 1_554 S
H387 C399 0.950 . S
C388 H380 0.950 . S
C388 C389 1.386 . S
C388 C390 1.391 . S
C389 C388 1.386 . S
C389 C393 1.393 . S
C390 H382 0.950 . S
C390 C388 1.391 . S
C390 C391 1.400 . S
C391 C390 1.400 . S
C391 C392 1.398 . S
C391 C397 1.491 . S
C392 H383 0.950 . S
C392 C391 1.398 . S
C392 C393 1.391 . S
C393 H381 0.950 . S
C393 C389 1.393 . S
C393 C392 1.391 . S
C394 H384 0.950 . S
C394 C395 1.386 . S
C394 C396 1.391 . S
C395 C394 1.386 . S
C395 C399 1.393 . S
C396 H385 0.950 . S
C396 C394 1.391 . S
C396 C397 1.400 1_556 S
C397 C391 1.491 . S
C397 C396 1.400 1_554 S
C397 C398 1.398 1_554 S
C398 H386 0.950 1_556 S
C398 C397 1.398 1_556 S
C398 C399 1.391 . S
C399 H387 0.950 . S
C399 C395 1.393 . S
C399 C398 1.391 . S
H400 C408 0.950 . S
H401 C413 0.950 . S
H402 C410 0.950 . S
H403 C412 0.950 . S
H404 C414 0.950 . S
H405 C416 0.950 . S
H406 C418 0.950 . S
H407 C419 0.950 . S
C408 H400 0.950 . S
C408 C409 1.386 . S
C408 C410 1.391 . S
C409 C408 1.386 . S
C409 C413 1.393 . S
C410 H402 0.950 . S
C410 C408 1.391 . S
C410 C411 1.400 . S
C411 C410 1.400 . S
C411 C412 1.398 . S
C411 C417 1.491 . S
C412 H403 0.950 . S
C412 C411 1.398 . S
C412 C413 1.391 . S
C413 H401 0.950 . S
C413 C409 1.393 . S
C413 C412 1.391 . S
C414 H404 0.950 . S
C414 C415 1.386 . S
C414 C416 1.391 . S
C415 C414 1.386 . S
C415 C419 1.393 . S
C416 H405 0.950 . S
C416 C414 1.391 . S
C416 C417 1.400 . S
C417 C411 1.491 . S
C417 C416 1.400 . S
C417 C418 1.398 . S
C418 H406 0.950 . S
C418 C417 1.398 . S
C418 C419 1.391 . S
C419 H407 0.950 . S
C419 C415 1.393 . S
C419 C418 1.391 . S
H420 C428 0.950 . S
H421 C433 0.950 . S
H422 C430 0.950 . S
H423 C432 0.950 . S
H424 C434 0.950 . S
H425 C436 0.950 . S
H426 C438 0.950 . S
H427 C439 0.950 . S
C428 H420 0.950 . S
C428 C429 1.386 . S
C428 C430 1.391 . S
C429 C428 1.386 . S
C429 C433 1.393 . S
C430 H422 0.950 . S
C430 C428 1.391 . S
C430 C431 1.400 . S
C431 C430 1.400 . S
C431 C432 1.398 . S
C431 C437 1.491 . S
C432 H423 0.950 . S
C432 C431 1.398 . S
C432 C433 1.391 . S
C433 H421 0.950 . S
C433 C429 1.393 . S
C433 C432 1.391 . S
C434 H424 0.950 . S
C434 C435 1.386 . S
C434 C436 1.391 . S
C435 C434 1.386 . S
C435 C439 1.393 . S
C436 H425 0.950 . S
C436 C434 1.391 . S
C436 C437 1.400 . S
C437 C431 1.491 . S
C437 C436 1.400 . S
C437 C438 1.398 . S
C438 H426 0.950 . S
C438 C437 1.398 . S
C438 C439 1.391 . S
C439 H427 0.950 . S
C439 C435 1.393 . S
C439 C438 1.391 . S
H440 C448 0.950 . S
H441 C453 0.950 . S
H442 C450 0.950 . S
H443 C452 0.950 . S
H444 C454 0.950 1_554 S
H445 C456 0.950 . S
H446 C458 0.950 . S
H447 C459 0.950 1_554 S
C448 H440 0.950 . S
C448 C449 1.386 . S
C448 C450 1.391 . S
C449 C448 1.386 . S
C449 C453 1.393 . S
C450 H442 0.950 . S
C450 C448 1.391 . S
C450 C451 1.400 . S
C451 C450 1.400 . S
C451 C452 1.398 . S
C451 C457 1.491 . S
C452 H443 0.950 . S
C452 C451 1.398 . S
C452 C453 1.391 . S
C453 H441 0.950 . S
C453 C449 1.393 . S
C453 C452 1.391 . S
C454 H444 0.950 1_556 S
C454 C455 1.386 1_556 S
C454 C456 1.391 . S
C455 C454 1.386 1_554 S
C455 C459 1.393 1_554 S
C456 H445 0.950 . S
C456 C454 1.391 . S
C456 C457 1.400 . S
C457 C451 1.491 . S
C457 C456 1.400 . S
C457 C458 1.398 . S
C458 H446 0.950 . S
C458 C457 1.398 . S
C458 C459 1.391 . S
C459 H447 0.950 1_556 S
C459 C455 1.393 1_556 S
C459 C458 1.391 . S
H460 C468 0.950 . S
H461 C473 0.950 . S
H462 C470 0.950 . S
H463 C472 0.950 . S
H464 C474 0.950 . S
H465 C476 0.950 . S
H466 C478 0.950 . S
H467 C479 0.950 . S
C468 H460 0.950 . S
C468 C469 1.386 . S
C468 C470 1.391 . S
C469 C468 1.386 . S
C469 C473 1.393 . S
C470 H462 0.950 . S
C470 C468 1.391 . S
C470 C471 1.400 . S
C471 C470 1.400 . S
C471 C472 1.398 . S
C471 C477 1.491 . S
C472 H463 0.950 . S
C472 C471 1.398 . S
C472 C473 1.391 . S
C473 H461 0.950 . S
C473 C469 1.393 . S
C473 C472 1.391 . S
C474 H464 0.950 . S
C474 C475 1.386 . S
C474 C476 1.391 . S
C475 C474 1.386 . S
C475 C479 1.393 . S
C476 H465 0.950 . S
C476 C474 1.391 . S
C476 C477 1.400 . S
C477 C471 1.491 . S
C477 C476 1.400 . S
C477 C478 1.398 . S
C478 H466 0.950 . S
C478 C477 1.398 . S
C478 C479 1.391 . S
C479 H467 0.950 . S
C479 C475 1.393 . S
C479 C478 1.391 . S
H480 C488 0.950 . S
H481 C493 0.950 . S
H482 C490 0.950 . S
H483 C492 0.950 . S
H484 C494 0.950 . S
H485 C496 0.950 . S
H486 C498 0.950 . S
H487 C499 0.950 . S
C488 H480 0.950 . S
C488 C489 1.386 . S
C488 C490 1.391 . S
C489 C488 1.386 . S
C489 C493 1.393 . S
C490 H482 0.950 . S
C490 C488 1.391 . S
C490 C491 1.400 . S
C491 C490 1.400 . S
C491 C492 1.398 . S
C491 C497 1.491 . S
C492 H483 0.950 . S
C492 C491 1.398 . S
C492 C493 1.391 . S
C493 H481 0.950 . S
C493 C489 1.393 . S
C493 C492 1.391 . S
C494 H484 0.950 . S
C494 C495 1.386 . S
C494 C496 1.391 . S
C495 C494 1.386 . S
C495 C499 1.393 . S
C496 H485 0.950 . S
C496 C494 1.391 . S
C496 C497 1.400 . S
C497 C491 1.491 . S
C497 C496 1.400 . S
C497 C498 1.398 . S
C498 H486 0.950 . S
C498 C497 1.398 . S
C498 C499 1.391 . S
C499 H487 0.950 . S
C499 C495 1.393 . S
C499 C498 1.391 . S
H500 C508 0.950 . S
H501 C513 0.950 . S
H502 C510 0.950 . S
H503 C512 0.950 . S
H504 C514 0.950 . S
H505 C516 0.950 . S
H506 C518 0.950 . S
H507 C519 0.950 . S
C508 H500 0.950 . S
C508 C509 1.386 . S
C508 C510 1.391 . S
C509 C508 1.386 . S
C509 C513 1.393 . S
C510 H502 0.950 . S
C510 C508 1.391 . S
C510 C511 1.400 . S
C511 C510 1.400 . S
C511 C512 1.398 . S
C511 C517 1.491 . S
C512 H503 0.950 . S
C512 C511 1.398 . S
C512 C513 1.391 . S
C513 H501 0.950 . S
C513 C509 1.393 . S
C513 C512 1.391 . S
C514 H504 0.950 . S
C514 C515 1.386 . S
C514 C516 1.391 . S
C515 C514 1.386 . S
C515 C519 1.393 . S
C516 H505 0.950 . S
C516 C514 1.391 . S
C516 C517 1.400 . S
C517 C511 1.491 . S
C517 C516 1.400 . S
C517 C518 1.398 . S
C518 H506 0.950 . S
C518 C517 1.398 . S
C518 C519 1.391 . S
C519 H507 0.950 . S
C519 C515 1.393 . S
C519 C518 1.391 . S
H520 C528 0.950 . S
H521 C533 0.950 . S
H522 C530 0.950 . S
H523 C532 0.950 . S
H524 C534 0.950 . S
H525 C536 0.950 . S
H526 C538 0.950 . S
H527 C539 0.950 . S
C528 H520 0.950 . S
C528 C529 1.386 . S
C528 C530 1.391 . S
C529 C528 1.386 . S
C529 C533 1.393 . S
C530 H522 0.950 . S
C530 C528 1.391 . S
C530 C531 1.400 . S
C531 C530 1.400 . S
C531 C532 1.398 . S
C531 C537 1.491 . S
C532 H523 0.950 . S
C532 C531 1.398 . S
C532 C533 1.391 . S
C533 H521 0.950 . S
C533 C529 1.393 . S
C533 C532 1.391 . S
C534 H524 0.950 . S
C534 C535 1.386 . S
C534 C536 1.391 . S
C535 C534 1.386 . S
C535 C539 1.393 . S
C536 H525 0.950 . S
C536 C534 1.391 . S
C536 C537 1.400 . S
C537 C531 1.491 . S
C537 C536 1.400 . S
C537 C538 1.398 . S
C538 H526 0.950 . S
C538 C537 1.398 . S
C538 C539 1.391 . S
C539 H527 0.950 . S
C539 C535 1.393 . S
C539 C538 1.391 . S
H540 C548 0.950 . S
H541 C553 0.950 . S
H542 C550 0.950 . S
H543 C552 0.950 . S
H544 C554 0.950 . S
H545 C556 0.950 . S
H546 C558 0.950 . S
H547 C559 0.950 . S
C548 H540 0.950 . S
C548 C549 1.386 . S
C548 C550 1.391 . S
C549 C548 1.386 . S
C549 C553 1.393 . S
C550 H542 0.950 . S
C550 C548 1.391 . S
C550 C551 1.400 . S
C551 C550 1.400 . S
C551 C552 1.398 . S
C551 C557 1.491 . S
C552 H543 0.950 . S
C552 C551 1.398 . S
C552 C553 1.391 . S
C553 H541 0.950 . S
C553 C549 1.393 . S
C553 C552 1.391 . S
C554 H544 0.950 . S
C554 C555 1.386 . S
C554 C556 1.391 . S
C555 C554 1.386 . S
C555 C559 1.393 . S
C556 H545 0.950 . S
C556 C554 1.391 . S
C556 C557 1.400 . S
C557 C551 1.491 . S
C557 C556 1.400 . S
C557 C558 1.398 . S
C558 H546 0.950 . S
C558 C557 1.398 . S
C558 C559 1.391 . S
C559 H547 0.950 . S
C559 C555 1.393 . S
C559 C558 1.391 . S
H560 C568 0.950 . S
H561 C573 0.950 . S
H562 C570 0.950 . S
H563 C572 0.950 . S
H564 C574 0.950 . S
H565 C576 0.950 . S
H566 C578 0.950 . S
H567 C579 0.950 . S
C568 H560 0.950 . S
C568 C569 1.386 . S
C568 C570 1.391 . S
C569 C568 1.386 . S
C569 C573 1.393 . S
C570 H562 0.950 . S
C570 C568 1.391 . S
C570 C571 1.400 . S
C571 C570 1.400 . S
C571 C572 1.398 . S
C571 C577 1.491 . S
C572 H563 0.950 . S
C572 C571 1.398 . S
C572 C573 1.391 . S
C573 H561 0.950 . S
C573 C569 1.393 . S
C573 C572 1.391 . S
C574 H564 0.950 . S
C574 C575 1.386 . S
C574 C576 1.391 . S
C575 C574 1.386 . S
C575 C579 1.393 . S
C576 H565 0.950 . S
C576 C574 1.391 . S
C576 C577 1.400 . S
C577 C571 1.491 . S
C577 C576 1.400 . S
C577 C578 1.398 . S
C578 H566 0.950 . S
C578 C577 1.398 . S
C578 C579 1.391 . S
C579 H567 0.950 . S
C579 C575 1.393 . S
C579 C578 1.391 . S
H580 C588 0.950 . S
H581 C593 0.950 . S
H582 C590 0.950 . S
H583 C592 0.950 . S
H584 C594 0.950 . S
H585 C596 0.950 . S
H586 C598 0.950 . S
H587 C599 0.950 . S
C588 H580 0.950 . S
C588 C589 1.386 . S
C588 C590 1.391 . S
C589 C588 1.386 . S
C589 C593 1.393 . S
C590 H582 0.950 . S
C590 C588 1.391 . S
C590 C591 1.400 . S
C591 C590 1.400 . S
C591 C592 1.398 . S
C591 C597 1.491 . S
C592 H583 0.950 . S
C592 C591 1.398 . S
C592 C593 1.391 . S
C593 H581 0.950 . S
C593 C589 1.393 . S
C593 C592 1.391 . S
C594 H584 0.950 . S
C594 C595 1.386 1_554 S
C594 C596 1.391 . S
C595 C594 1.386 1_556 S
C595 C599 1.393 . S
C596 H585 0.950 . S
C596 C594 1.391 . S
C596 C597 1.400 . S
C597 C591 1.491 . S
C597 C596 1.400 . S
C597 C598 1.398 1_554 S
C598 H586 0.950 . S
C598 C597 1.398 1_556 S
C598 C599 1.391 . S
C599 H587 0.950 . S
C599 C595 1.393 . S
C599 C598 1.391 . S
C249 C202 1.383 . S
C255 C2 1.375 . S
C269 C22 1.677 . S
C275 C62 1.686 . S
C289 C42 1.385 . S
C295 C82 1.372 . S
C309 C102 1.669 . S
C315 C142 1.680 . S
C329 C162 1.362 . S
C335 C122 1.388 . S
C349 C222 1.686 . S
C355 C182 1.684 . S
C369 C26 1.148 . S
C375 C9 1.148 . S
C389 C49 1.162 . S
C395 C66 1.162 . S
C409 C106 1.158 . S
C415 C89 1.158 . S
C429 C129 1.163 . S
C435 C146 1.163 . S
C449 C169 1.138 . S
C455 C186 1.138 . S
C469 C209 1.139 . S
C475 C226 1.139 . S
C489 C15 1.859 . S
C495 C163 1.859 . S
C509 C43 1.862 . S
C515 C215 1.861 . S
C529 C3 1.862 . S
C535 C95 1.860 . S
C549 C55 1.861 . S
C555 C123 1.862 . S
C569 C175 1.860 . S
C575 C83 1.859 . S
C589 C135 1.859 . S
C595 C203 1.859 . S
