# Generated by pormake.
# Topology ukk, (4)-cn, num edge types: 1
# Building blocks:
#     Node 0, Type 0, BuildingBlock: ICAMEG_clean_sbu_1, # of connection points: 4
#     Node 1, Type 0, BuildingBlock: ICAMEG_clean_sbu_1, # of connection points: 4
#     Node 2, Type 0, BuildingBlock: ICAMEG_clean_sbu_1, # of connection points: 4
#     Node 3, Type 0, BuildingBlock: ICAMEG_clean_sbu_1, # of connection points: 4
#     Node 4, Type 0, BuildingBlock: ICAMEG_clean_sbu_1, # of connection points: 4
#     Node 5, Type 0, BuildingBlock: ICAMEG_clean_sbu_1, # of connection points: 4
#     Node 6, Type 0, BuildingBlock: ICAMEG_clean_sbu_1, # of connection points: 4
#     Node 7, Type 0, BuildingBlock: ICAMEG_clean_sbu_1, # of connection points: 4
#     Node 8, Type 0, BuildingBlock: ICAMEG_clean_sbu_1, # of connection points: 4
#     Node 9, Type 0, BuildingBlock: ICAMEG_clean_sbu_1, # of connection points: 4
#     Node 10, Type 0, BuildingBlock: ICAMEG_clean_sbu_1, # of connection points: 4
#     Node 11, Type 0, BuildingBlock: ICAMEG_clean_sbu_1, # of connection points: 4
#     Node 12, Type 0, BuildingBlock: ICAMEG_clean_sbu_1, # of connection points: 4
#     Node 13, Type 0, BuildingBlock: ICAMEG_clean_sbu_1, # of connection points: 4
#     Node 14, Type 0, BuildingBlock: ICAMEG_clean_sbu_1, # of connection points: 4
#     Node 15, Type 0, BuildingBlock: ICAMEG_clean_sbu_1, # of connection points: 4
#     Edge 16, Type (0, 0), BuildingBlock: UVAHIK_clean_linker_0, # of connection points: 2
#     Edge 17, Type (0, 0), BuildingBlock: UVAHIK_clean_linker_0, # of connection points: 2
#     Edge 18, Type (0, 0), BuildingBlock: UVAHIK_clean_linker_0, # of connection points: 2
#     Edge 19, Type (0, 0), BuildingBlock: UVAHIK_clean_linker_0, # of connection points: 2
#     Edge 20, Type (0, 0), BuildingBlock: UVAHIK_clean_linker_0, # of connection points: 2
#     Edge 21, Type (0, 0), BuildingBlock: UVAHIK_clean_linker_0, # of connection points: 2
#     Edge 22, Type (0, 0), BuildingBlock: UVAHIK_clean_linker_0, # of connection points: 2
#     Edge 23, Type (0, 0), BuildingBlock: UVAHIK_clean_linker_0, # of connection points: 2
#     Edge 24, Type (0, 0), BuildingBlock: UVAHIK_clean_linker_0, # of connection points: 2
#     Edge 25, Type (0, 0), BuildingBlock: UVAHIK_clean_linker_0, # of connection points: 2
#     Edge 26, Type (0, 0), BuildingBlock: UVAHIK_clean_linker_0, # of connection points: 2
#     Edge 27, Type (0, 0), BuildingBlock: UVAHIK_clean_linker_0, # of connection points: 2
#     Edge 28, Type (0, 0), BuildingBlock: UVAHIK_clean_linker_0, # of connection points: 2
#     Edge 29, Type (0, 0), BuildingBlock: UVAHIK_clean_linker_0, # of connection points: 2
#     Edge 30, Type (0, 0), BuildingBlock: UVAHIK_clean_linker_0, # of connection points: 2
#     Edge 31, Type (0, 0), BuildingBlock: UVAHIK_clean_linker_0, # of connection points: 2
#     Edge 32, Type (0, 0), BuildingBlock: UVAHIK_clean_linker_0, # of connection points: 2
#     Edge 33, Type (0, 0), BuildingBlock: UVAHIK_clean_linker_0, # of connection points: 2
#     Edge 34, Type (0, 0), BuildingBlock: UVAHIK_clean_linker_0, # of connection points: 2
#     Edge 35, Type (0, 0), BuildingBlock: UVAHIK_clean_linker_0, # of connection points: 2
#     Edge 36, Type (0, 0), BuildingBlock: UVAHIK_clean_linker_0, # of connection points: 2
#     Edge 37, Type (0, 0), BuildingBlock: UVAHIK_clean_linker_0, # of connection points: 2
#     Edge 38, Type (0, 0), BuildingBlock: UVAHIK_clean_linker_0, # of connection points: 2
#     Edge 39, Type (0, 0), BuildingBlock: UVAHIK_clean_linker_0, # of connection points: 2
#     Edge 40, Type (0, 0), BuildingBlock: UVAHIK_clean_linker_0, # of connection points: 2
#     Edge 41, Type (0, 0), BuildingBlock: UVAHIK_clean_linker_0, # of connection points: 2
#     Edge 42, Type (0, 0), BuildingBlock: UVAHIK_clean_linker_0, # of connection points: 2
#     Edge 43, Type (0, 0), BuildingBlock: UVAHIK_clean_linker_0, # of connection points: 2
#     Edge 44, Type (0, 0), BuildingBlock: UVAHIK_clean_linker_0, # of connection points: 2
#     Edge 45, Type (0, 0), BuildingBlock: UVAHIK_clean_linker_0, # of connection points: 2
#     Edge 46, Type (0, 0), BuildingBlock: UVAHIK_clean_linker_0, # of connection points: 2
#     Edge 47, Type (0, 0), BuildingBlock: UVAHIK_clean_linker_0, # of connection points: 2
# Relax obj value: 0.061
# Max RMSD: 0.229
# Mean RMSD: 0.225
data_MOF--net-ukk--node1-ICAMEG_clean_sbu_1--edge1-UVAHIK_clean_linker_0
_symmetry_space_group_name_H-M    P1
_symmetry_Int_Tables_number       1
_symmetry_cell_setting            triclinic
loop_
_symmetry_equiv_pos_as_xyz
'x, y, z'
_cell_length_a     75.992533
_cell_length_b     74.447441
_cell_length_c     20.607324
_cell_angle_alpha  89.99193
_cell_angle_beta   90.016581
_cell_angle_gamma 89.993909
loop_
_atom_site_label
_atom_site_type_symbol
_atom_site_fract_x
_atom_site_fract_y
_atom_site_fract_z
_atom_type_partial_charge
Co0 Co 0.36691 0.11383 0.16734 0.0
Co1 Co 0.36887 0.12056 0.00149 0.0
O2 O 0.36065 0.10784 0.07839 0.0
C3 C 0.37827 0.07657 0.14759 0.0
O4 O 0.38488 0.08201 0.09215 0.0
C5 C 0.33065 0.12396 0.00196 0.0
O6 O 0.33244 0.12815 0.0634 0.0
O7 O 0.36451 0.14434 0.04231 0.0
O8 O 0.36333 0.13997 0.1502 0.0
H9 H 0.40342 0.16698 0.87856 0.0
H10 H 0.33931 0.08655 0.14186 0.0
O11 O 0.37076 0.08771 0.18546 0.0
H12 H 0.31002 0.13407 0.26877 0.0
H13 H 0.36708 0.10396 0.40895 0.0
H14 H 0.38858 0.14207 0.23 0.0
H15 H 0.34159 0.13634 0.24211 0.0
H16 H 0.35894 0.09725 0.29559 0.0
O17 O 0.34417 0.12055 0.96749 0.0
H18 H 0.3934 0.15078 0.97623 0.0
H19 H 0.36073 0.11733 0.86064 0.0
H20 H 0.39694 0.14935 0.34264 0.0
H21 H 0.30775 0.08369 0.1678 0.0
H22 H 0.38617 0.13021 0.43305 0.0
H23 H 0.29289 0.1076 0.23149 0.0
O24 O 0.39204 0.11642 0.14347 0.0
H25 H 0.35382 0.05716 0.93889 0.0
H26 H 0.39917 0.10448 0.93047 0.0
H27 H 0.40534 0.07483 0.88209 0.0
H28 H 0.38256 0.05093 0.88615 0.0
H29 H 0.34825 0.08696 0.987 0.0
H30 H 0.37029 0.13327 0.76172 0.0
H31 H 0.39183 0.15824 0.77034 0.0
O32 O 0.39348 0.12102 0.03559 0.0
C33 C 0.36287 0.1501 0.10027 0.0
C34 C 0.39407 0.15608 0.87415 0.0
C35 C 0.37546 0.13717 0.80858 0.0
N36 N 0.37663 0.13303 0.92401 0.0
C37 C 0.3884 0.14682 0.92925 0.0
C38 C 0.37007 0.12822 0.86474 0.0
C39 C 0.38755 0.15118 0.81345 0.0
C40 C 0.33298 0.0969 0.17025 0.0
N41 N 0.3423 0.11152 0.19084 0.0
C42 C 0.31509 0.09525 0.18453 0.0
C43 C 0.30675 0.10869 0.22018 0.0
C44 C 0.31636 0.12355 0.24108 0.0
C45 C 0.33422 0.12477 0.22579 0.0
C46 C 0.37183 0.11242 0.36999 0.0
C47 C 0.38375 0.13376 0.26913 0.0
C48 C 0.36729 0.10867 0.30572 0.0
N49 N 0.37316 0.11935 0.25634 0.0
C50 C 0.38857 0.13791 0.33279 0.0
C51 C 0.38253 0.12716 0.38348 0.0
C52 C 0.40062 0.11953 0.09144 0.0
C53 C 0.36382 0.06749 0.93662 0.0
C54 C 0.3892 0.09414 0.93242 0.0
C55 C 0.39276 0.07739 0.90487 0.0
C56 C 0.37997 0.06399 0.90712 0.0
N57 N 0.37333 0.09747 0.96119 0.0
C58 C 0.36072 0.08441 0.96353 0.0
Co59 Co 0.11634 0.6436 0.76971 0.0
Co60 Co 0.09422 0.63186 0.91015 0.0
O61 O 0.11173 0.64569 0.86258 0.0
C62 C 0.14926 0.63431 0.83498 0.0
O63 O 0.13954 0.62468 0.87438 0.0
C64 C 0.08429 0.6696 0.93005 0.0
O65 O 0.08631 0.67171 0.86726 0.0
O66 O 0.0763 0.63639 0.84196 0.0
O67 O 0.09063 0.64389 0.75021 0.0
H68 H 0.04609 0.58613 0.93563 0.0
H69 H 0.1339 0.67213 0.84661 0.0
O70 O 0.14219 0.64295 0.78838 0.0
H71 H 0.09933 0.70406 0.6801 0.0
H72 H 0.14955 0.65763 0.56464 0.0
H73 H 0.10077 0.62297 0.66072 0.0
H74 H 0.0996 0.67094 0.68391 0.0
H75 H 0.14286 0.66006 0.68149 0.0
O76 O 0.08675 0.65427 0.95593 0.0
H77 H 0.06866 0.60329 0.87596 0.0
H78 H 0.08188 0.63191 0.04744 0.0
H79 H 0.10691 0.62024 0.54359 0.0
H80 H 0.13408 0.70525 0.84436 0.0
H81 H 0.13146 0.63765 0.49483 0.0
H82 H 0.11666 0.72144 0.76076 0.0
O83 O 0.1157 0.61694 0.7735 0.0
H84 H 0.14246 0.64935 0.06453 0.0
H85 H 0.10655 0.59926 0.98099 0.0
H86 H 0.12939 0.59324 0.06323 0.0
H87 H 0.14753 0.6184 0.10557 0.0
H88 H 0.11958 0.65473 0.98184 0.0
H89 H 0.05936 0.61516 0.10888 0.0
H90 H 0.04133 0.59203 0.05296 0.0
O91 O 0.10136 0.60933 0.86494 0.0
C92 C 0.07656 0.64072 0.78203 0.0
C93 C 0.05391 0.59613 0.96059 0.0
C94 C 0.06134 0.61244 0.05781 0.0
N95 N 0.07667 0.61846 0.95834 0.0
C96 C 0.06674 0.60584 0.92711 0.0
C97 C 0.07405 0.6219 0.02276 0.0
C98 C 0.05123 0.59946 0.02641 0.0
C99 C 0.12643 0.67907 0.80968 0.0
N100 N 0.11685 0.66962 0.76519 0.0
C101 C 0.12653 0.69783 0.80882 0.0
C102 C 0.11673 0.7069 0.76196 0.0
C103 C 0.10699 0.69716 0.7167 0.0
C104 C 0.10718 0.67841 0.71914 0.0
C105 C 0.13879 0.65 0.58529 0.0
C106 C 0.11139 0.63068 0.63975 0.0
C107 C 0.13496 0.6513 0.65141 0.0
N108 N 0.12134 0.64178 0.67771 0.0
C109 C 0.11484 0.62904 0.57345 0.0
C110 C 0.12863 0.6388 0.54614 0.0
C111 C 0.10935 0.60532 0.81248 0.0
C112 C 0.13461 0.63828 0.04659 0.0
C113 C 0.11442 0.61026 0.99906 0.0
C114 C 0.1273 0.60678 0.04574 0.0
C115 C 0.13746 0.62091 0.06952 0.0
N116 N 0.1117 0.62733 0.9768 0.0
C117 C 0.12158 0.64126 0.99997 0.0
Co118 Co 0.61848 0.88142 0.1478 0.0
Co119 Co 0.61695 0.87582 0.98137 0.0
O120 O 0.62601 0.88708 0.06001 0.0
C121 C 0.61148 0.91984 0.13038 0.0
O122 O 0.60499 0.91554 0.07346 0.0
C123 C 0.65446 0.86786 0.98603 0.0
O124 O 0.65147 0.86311 0.04628 0.0
O125 O 0.61822 0.85149 0.02061 0.0
O126 O 0.61908 0.85511 0.12888 0.0
H127 H 0.57846 0.83444 0.85105 0.0
H128 H 0.64925 0.90524 0.12712 0.0
O129 O 0.61751 0.90771 0.16787 0.0
H130 H 0.67182 0.85377 0.25278 0.0
H131 H 0.61762 0.88985 0.39009 0.0
H132 H 0.59303 0.85585 0.20579 0.0
H133 H 0.64042 0.85556 0.22309 0.0
H134 H 0.62745 0.89608 0.27821 0.0
O135 O 0.64179 0.87316 0.95017 0.0
H136 H 0.58944 0.8488 0.95107 0.0
H137 H 0.62654 0.87886 0.84179 0.0
H138 H 0.58291 0.8491 0.31689 0.0
H139 H 0.68073 0.90404 0.15611 0.0
H140 H 0.59524 0.86616 0.40997 0.0
H141 H 0.69221 0.87814 0.21919 0.0
O142 O 0.59349 0.88213 0.12126 0.0
H143 H 0.6396 0.9373 0.92496 0.0
H144 H 0.58922 0.89578 0.90886 0.0
H145 H 0.58685 0.92619 0.86204 0.0
H146 H 0.61216 0.94717 0.86995 0.0
H147 H 0.64136 0.90683 0.97145 0.0
H148 H 0.61607 0.86472 0.74057 0.0
H149 H 0.5918 0.8424 0.74483 0.0
O150 O 0.59214 0.87808 0.01304 0.0
C151 C 0.6187 0.84526 0.07822 0.0
C152 C 0.58899 0.84421 0.84853 0.0
C153 C 0.61011 0.86119 0.78653 0.0
N154 N 0.60847 0.86479 0.90211 0.0
C155 C 0.59521 0.85243 0.90496 0.0
C156 C 0.616 0.86912 0.84397 0.0
C157 C 0.5965 0.84866 0.78896 0.0
C158 C 0.65411 0.89403 0.15523 0.0
N159 N 0.64299 0.88055 0.17379 0.0
C160 C 0.67196 0.89338 0.17125 0.0
C161 C 0.6784 0.87883 0.20656 0.0
C162 C 0.66697 0.86515 0.22539 0.0
C163 C 0.64921 0.86623 0.20839 0.0
C164 C 0.61219 0.88229 0.34996 0.0
C165 C 0.59855 0.86324 0.24612 0.0
C166 C 0.61769 0.88577 0.28652 0.0
N167 N 0.61094 0.87621 0.23566 0.0
C168 C 0.59273 0.8594 0.30888 0.0
C169 C 0.59963 0.86899 0.36108 0.0
C170 C 0.58492 0.88034 0.06842 0.0
C171 C 0.6285 0.92826 0.92102 0.0
C172 C 0.60029 0.90484 0.9125 0.0
C173 C 0.59888 0.92203 0.88583 0.0
C174 C 0.61309 0.9338 0.89025 0.0
N175 N 0.61545 0.8995 0.94251 0.0
C176 C 0.62945 0.91096 0.94699 0.0
Co177 Co 0.87145 0.35041 0.76936 0.0
Co178 Co 0.89389 0.36376 0.90723 0.0
O179 O 0.8772 0.34854 0.86132 0.0
C180 C 0.83858 0.35651 0.83966 0.0
O181 O 0.8479 0.36678 0.87825 0.0
C182 C 0.90689 0.32684 0.92406 0.0
O183 O 0.90491 0.3249 0.86118 0.0
O184 O 0.91142 0.36133 0.83621 0.0
O185 O 0.89686 0.35255 0.74641 0.0
H186 H 0.93771 0.41392 0.92967 0.0
H187 H 0.8573 0.32026 0.84768 0.0
O188 O 0.84582 0.3487 0.79156 0.0
H189 H 0.89271 0.29192 0.67531 0.0
H190 H 0.83744 0.33393 0.56844 0.0
H191 H 0.88418 0.37246 0.65894 0.0
H192 H 0.88951 0.32487 0.68015 0.0
H193 H 0.84548 0.33191 0.68424 0.0
O194 O 0.90365 0.34191 0.95078 0.0
H195 H 0.91623 0.39492 0.87183 0.0
H196 H 0.90769 0.3642 0.04262 0.0
H197 H 0.87667 0.37483 0.5428 0.0
H198 H 0.86008 0.28726 0.84452 0.0
H199 H 0.85314 0.35547 0.49685 0.0
H200 H 0.87794 0.27289 0.75798 0.0
O201 O 0.86986 0.37707 0.7741 0.0
H202 H 0.84901 0.34131 0.06695 0.0
H203 H 0.87945 0.3948 0.9815 0.0
H204 H 0.85705 0.39839 0.06709 0.0
H205 H 0.84166 0.37151 0.11041 0.0
H206 H 0.87137 0.33836 0.98093 0.0
H207 H 0.92918 0.38278 0.10221 0.0
H208 H 0.9443 0.40789 0.04572 0.0
O209 O 0.88432 0.38567 0.86423 0.0
C210 C 0.91087 0.35726 0.77604 0.0
C211 C 0.93116 0.40305 0.95488 0.0
C212 C 0.9264 0.38556 0.05168 0.0
N213 N 0.91064 0.37856 0.95394 0.0
C214 C 0.91895 0.39229 0.92243 0.0
C215 C 0.91428 0.37506 0.01766 0.0
C216 C 0.93487 0.39965 0.01997 0.0
C217 C 0.86494 0.31409 0.80948 0.0
N218 N 0.87314 0.32447 0.76391 0.0
C219 C 0.86653 0.29541 0.8081 0.0
C220 C 0.87658 0.28735 0.75959 0.0
C221 C 0.88487 0.29802 0.71321 0.0
C222 C 0.88303 0.31667 0.71622 0.0
C223 C 0.84774 0.34242 0.58787 0.0
C224 C 0.87401 0.36392 0.63921 0.0
C225 C 0.85232 0.34136 0.6534 0.0
N226 N 0.86537 0.35197 0.67816 0.0
C227 C 0.86977 0.36535 0.57346 0.0
C228 C 0.85655 0.3545 0.54772 0.0
C229 C 0.87556 0.3891 0.81286 0.0
C230 C 0.85566 0.35312 0.04861 0.0
C231 C 0.87279 0.38305 1.00001 0.0
C232 C 0.86014 0.38516 0.04857 0.0
C233 C 0.85152 0.37007 0.0729 0.0
N234 N 0.87677 0.36638 0.97642 0.0
C235 C 0.8684 0.35152 1.0001 0.0
Co236 Co 0.36624 0.37696 0.10049 0.0
Co237 Co 0.36984 0.37239 0.26696 0.0
O238 O 0.36089 0.38412 0.18908 0.0
C239 C 0.37801 0.41432 0.11265 0.0
O240 O 0.38515 0.40944 0.16787 0.0
C241 C 0.33165 0.36909 0.27117 0.0
O242 O 0.33307 0.36394 0.21057 0.0
O243 O 0.36516 0.34812 0.23072 0.0
O244 O 0.36279 0.35108 0.12245 0.0
H245 H 0.40558 0.32762 0.39328 0.0
H246 H 0.339 0.40469 0.12485 0.0
O247 O 0.36999 0.40283 0.07758 0.0
H248 H 0.30834 0.35575 0.00987 0.0
H249 H 0.36405 0.38375 0.85763 0.0
H250 H 0.38727 0.3479 0.03983 0.0
H251 H 0.34013 0.35364 0.033 0.0
H252 H 0.35704 0.39192 0.97075 0.0
O253 O 0.3454 0.37288 0.30389 0.0
H254 H 0.39466 0.34256 0.29426 0.0
H255 H 0.36295 0.37741 0.40798 0.0
H256 H 0.3945 0.33916 0.92749 0.0
H257 H 0.30723 0.40742 0.10231 0.0
H258 H 0.38285 0.35715 0.83545 0.0
H259 H 0.29168 0.38279 0.04462 0.0
O260 O 0.39156 0.3746 0.12151 0.0
H261 H 0.35532 0.43656 0.32048 0.0
H262 H 0.40075 0.38935 0.33146 0.0
H263 H 0.40734 0.41959 0.37393 0.0
H264 H 0.38452 0.44344 0.36856 0.0
H265 H 0.34932 0.40618 0.27824 0.0
H266 H 0.37342 0.36276 0.50827 0.0
H267 H 0.39494 0.33773 0.50125 0.0
O268 O 0.39417 0.37151 0.22983 0.0
C269 C 0.36291 0.34161 0.17409 0.0
C270 C 0.39625 0.33856 0.39698 0.0
C271 C 0.37818 0.35827 0.46152 0.0
N272 N 0.37831 0.36094 0.34544 0.0
C273 C 0.39007 0.34711 0.34111 0.0
C274 C 0.37228 0.36649 0.4046 0.0
C275 C 0.39026 0.34422 0.45754 0.0
C276 C 0.33236 0.39402 0.09905 0.0
N277 N 0.34143 0.37909 0.07983 0.0
C278 C 0.31436 0.3956 0.08668 0.0
C279 C 0.30564 0.38177 0.0544 0.0
C280 C 0.31498 0.36658 0.03493 0.0
C281 C 0.33297 0.36545 0.04822 0.0
C282 C 0.36917 0.37578 0.89732 0.0
C283 C 0.38205 0.35571 1.0 0.0
C284 C 0.36527 0.38036 0.96144 0.0
N285 N 0.37161 0.37029 0.01175 0.0
C286 C 0.38623 0.35074 0.93652 0.0
C287 C 0.37971 0.36085 0.88491 0.0
C288 C 0.4007 0.37225 0.17275 0.0
C289 C 0.36534 0.42627 0.32331 0.0
C290 C 0.39075 0.39966 0.32898 0.0
C291 C 0.39455 0.41675 0.35317 0.0
C292 C 0.38174 0.43012 0.35018 0.0
N293 N 0.37463 0.39598 0.30277 0.0
C294 C 0.362 0.40901 0.29972 0.0
Co295 Co 0.36911 0.63924 0.99632 0.0
Co296 Co 0.38977 0.6299 0.85061 0.0
O297 O 0.37243 0.64249 0.90316 0.0
C298 C 0.33582 0.62929 0.93526 0.0
O299 O 0.34542 0.62015 0.89397 0.0
C300 C 0.39816 0.66819 0.83482 0.0
O301 O 0.39686 0.6695 0.89814 0.0
O302 O 0.40838 0.63433 0.91633 0.0
O303 O 0.39501 0.64037 0.01138 0.0
H304 H 0.4391 0.5864 0.80998 0.0
H305 H 0.34953 0.66785 0.92665 0.0
O306 O 0.34309 0.63779 0.98175 0.0
H307 H 0.38495 0.69933 0.0918 0.0
H308 H 0.33804 0.64969 0.20859 0.0
H309 H 0.38692 0.61824 0.09966 0.0
H310 H 0.3859 0.66629 0.0831 0.0
H311 H 0.3431 0.65358 0.09114 0.0
O312 O 0.39584 0.65309 0.80701 0.0
H313 H 0.41674 0.60198 0.87601 0.0
H314 H 0.40029 0.63198 0.71149 0.0
H315 H 0.38243 0.61408 0.21725 0.0
H316 H 0.34811 0.70088 0.93391 0.0
H317 H 0.35783 0.62987 0.27247 0.0
H318 H 0.36595 0.71684 0.01684 0.0
O319 O 0.37074 0.61267 0.98866 0.0
H320 H 0.33896 0.64724 0.70764 0.0
H321 H 0.37772 0.59769 0.7769 0.0
H322 H 0.35405 0.59174 0.69784 0.0
H323 H 0.33448 0.61663 0.66267 0.0
H324 H 0.36268 0.65256 0.78706 0.0
H325 H 0.42257 0.61682 0.64376 0.0
H326 H 0.44212 0.5938 0.69297 0.0
O327 O 0.38402 0.60661 0.89356 0.0
C328 C 0.40875 0.63804 0.9768 0.0
C329 C 0.43062 0.59635 0.78793 0.0
C330 C 0.42135 0.61345 0.69465 0.0
N331 N 0.40712 0.61774 0.79747 0.0
C332 C 0.41789 0.60518 0.82502 0.0
C333 C 0.40879 0.62201 0.73326 0.0
C334 C 0.43232 0.60053 0.72229 0.0
C335 C 0.35719 0.67468 0.96329 0.0
N336 N 0.36769 0.66515 0.00468 0.0
C337 C 0.35639 0.6934 0.96699 0.0
C338 C 0.36642 0.70234 0.01347 0.0
C339 C 0.3771 0.69252 0.05553 0.0
C340 C 0.37759 0.67383 0.05033 0.0
C341 C 0.34882 0.64276 0.18511 0.0
C342 C 0.37626 0.62525 0.12344 0.0
C343 C 0.35173 0.64488 0.11862 0.0
N344 N 0.36537 0.63625 0.08874 0.0
C345 C 0.37375 0.62279 0.18999 0.0
C346 C 0.35994 0.63164 0.22092 0.0
C347 C 0.37696 0.60174 0.94692 0.0
C348 C 0.34743 0.6363 0.72243 0.0
C349 C 0.36922 0.60857 0.76197 0.0
C350 C 0.35587 0.60513 0.71707 0.0
C351 C 0.34491 0.61911 0.6973 0.0
N352 N 0.37161 0.62546 0.78641 0.0
C353 C 0.36093 0.63924 0.7672 0.0
Co354 Co 0.61962 0.61678 0.09632 0.0
Co355 Co 0.6173 0.62358 0.262 0.0
O356 O 0.62668 0.61174 0.18514 0.0
C357 C 0.61226 0.57859 0.11782 0.0
O358 O 0.60536 0.58353 0.17337 0.0
C359 C 0.65486 0.6314 0.25934 0.0
O360 O 0.65222 0.63569 0.19841 0.0
O361 O 0.61885 0.6476 0.22046 0.0
O362 O 0.62037 0.64322 0.11261 0.0
H363 H 0.57824 0.66597 0.38561 0.0
H364 H 0.65006 0.59283 0.12171 0.0
O365 O 0.61853 0.59031 0.07912 0.0
H366 H 0.67375 0.64306 0.99249 0.0
H367 H 0.61997 0.60637 0.85502 0.0
H368 H 0.59482 0.6422 0.03365 0.0
H369 H 0.64218 0.64181 0.02003 0.0
H370 H 0.62907 0.60091 0.96829 0.0
O371 O 0.64199 0.62639 0.29471 0.0
H372 H 0.58968 0.65086 0.28778 0.0
H373 H 0.6262 0.62157 0.40246 0.0
H374 H 0.58544 0.6482 0.9211 0.0
H375 H 0.68169 0.5935 0.09495 0.0
H376 H 0.59805 0.63021 0.83086 0.0
H377 H 0.69373 0.61879 0.03008 0.0
O378 O 0.59445 0.61658 0.12103 0.0
H379 H 0.6394 0.56242 0.32554 0.0
H380 H 0.58915 0.60427 0.33447 0.0
H381 H 0.5864 0.5742 0.38378 0.0
H382 H 0.61166 0.55305 0.37946 0.0
H383 H 0.64154 0.59257 0.27651 0.0
H384 H 0.61526 0.63647 0.50153 0.0
H385 H 0.59106 0.65879 0.49345 0.0
O386 O 0.59267 0.62119 0.22885 0.0
C387 C 0.61971 0.65343 0.16234 0.0
C388 C 0.58875 0.65621 0.38979 0.0
C389 C 0.60954 0.63968 0.45484 0.0
N390 N 0.60847 0.63522 0.33955 0.0
C391 C 0.59523 0.64757 0.3346 0.0
C392 C 0.6157 0.63131 0.3986 0.0
C393 C 0.59596 0.6522 0.45027 0.0
C394 C 0.65517 0.60377 0.09282 0.0
N395 N 0.64427 0.61719 0.07204 0.0
C396 C 0.6731 0.60412 0.07807 0.0
C397 C 0.67985 0.61833 0.04175 0.0
C398 C 0.66865 0.63196 0.02068 0.0
C399 C 0.65079 0.63118 0.03646 0.0
C400 C 0.61441 0.61433 0.89391 0.0
C401 C 0.60045 0.63441 0.99458 0.0
C402 C 0.61949 0.61128 0.95811 0.0
N403 N 0.6126 0.62134 0.00739 0.0
C404 C 0.59505 0.63782 0.93098 0.0
C405 C 0.60212 0.62771 0.88038 0.0
C406 C 0.58566 0.61878 0.17316 0.0
C407 C 0.62833 0.57154 0.32793 0.0
C408 C 0.60019 0.59514 0.33242 0.0
C409 C 0.59857 0.57814 0.36049 0.0
C410 C 0.61275 0.56628 0.35809 0.0
N411 N 0.61552 0.6002 0.303 0.0
C412 C 0.62949 0.58866 0.30051 0.0
Co413 Co 0.61825 0.35283 0.99839 0.0
Co414 Co 0.59855 0.36483 0.85334 0.0
O415 O 0.61501 0.35069 0.90474 0.0
C416 C 0.65246 0.3607 0.93993 0.0
O417 O 0.64376 0.37086 0.89898 0.0
C418 C 0.58829 0.32728 0.83105 0.0
O419 O 0.58921 0.32511 0.89416 0.0
O420 O 0.57947 0.36063 0.91736 0.0
O421 O 0.59228 0.35344 0.01241 0.0
H422 H 0.5518 0.4115 0.81723 0.0
H423 H 0.63593 0.3235 0.92593 0.0
O424 O 0.64435 0.35245 0.98512 0.0
H425 H 0.59787 0.29324 0.08591 0.0
H426 H 0.64777 0.33819 0.21052 0.0
H427 H 0.60169 0.37422 0.10337 0.0
H428 H 0.59934 0.32632 0.08134 0.0
H429 H 0.64282 0.33571 0.09251 0.0
O430 O 0.59145 0.34257 0.8059 0.0
H431 H 0.57303 0.3939 0.8818 0.0
H432 H 0.58846 0.36498 0.71354 0.0
H433 H 0.6061 0.37702 0.22155 0.0
H434 H 0.63493 0.2904 0.92905 0.0
H435 H 0.62928 0.35892 0.27588 0.0
H436 H 0.61575 0.27506 0.00936 0.0
O437 O 0.61857 0.37952 0.99375 0.0
H438 H 0.64891 0.34637 0.7101 0.0
H439 H 0.61256 0.39716 0.78511 0.0
H440 H 0.63679 0.4027 0.70805 0.0
H441 H 0.65515 0.37718 0.66999 0.0
H442 H 0.62465 0.34147 0.78763 0.0
H443 H 0.5673 0.38216 0.64722 0.0
H444 H 0.54884 0.40566 0.69905 0.0
O445 O 0.60538 0.38723 0.90005 0.0
C446 C 0.57876 0.35658 0.97749 0.0
C447 C 0.55982 0.40134 0.79404 0.0
C448 C 0.5685 0.38486 0.69864 0.0
N449 N 0.58208 0.37856 0.80134 0.0
C450 C 0.5719 0.39138 0.83031 0.0
C451 C 0.58043 0.37515 0.73645 0.0
C452 C 0.55815 0.39805 0.72775 0.0
C453 C 0.6277 0.31692 0.96146 0.0
N454 N 0.6178 0.32683 0.00368 0.0
C455 C 0.62713 0.29817 0.96281 0.0
C456 C 0.61634 0.28958 0.00782 0.0
C457 C 0.6063 0.29977 0.05077 0.0
C458 C 0.60717 0.31849 0.04791 0.0
C459 C 0.6376 0.34612 0.18743 0.0
C460 C 0.61173 0.36622 0.12676 0.0
C461 C 0.63476 0.3448 0.12064 0.0
N462 N 0.62189 0.35471 0.09125 0.0
C463 C 0.6142 0.3679 0.19364 0.0
C464 C 0.62722 0.35775 0.22408 0.0
C465 C 0.61289 0.39118 0.95354 0.0
C466 C 0.64097 0.35759 0.72619 0.0
C467 C 0.62053 0.38601 0.76895 0.0
C468 C 0.6342 0.38921 0.72517 0.0
C469 C 0.64448 0.37489 0.70379 0.0
N470 N 0.61717 0.36901 0.79073 0.0
C471 C 0.62718 0.35489 0.76988 0.0
Co472 Co 0.86859 0.61389 0.65771 0.0
Co473 Co 0.86983 0.61972 0.49135 0.0
O474 O 0.86103 0.60824 0.5699 0.0
C475 C 0.87601 0.57559 0.63865 0.0
O476 O 0.88261 0.58021 0.58225 0.0
C477 C 0.83221 0.62715 0.49642 0.0
O478 O 0.8351 0.63157 0.55706 0.0
O479 O 0.86824 0.64395 0.53112 0.0
O480 O 0.8675 0.64025 0.6394 0.0
H481 H 0.90764 0.66185 0.36148 0.0
H482 H 0.83819 0.58957 0.63687 0.0
O483 O 0.86996 0.58754 0.67692 0.0
H484 H 0.81494 0.64036 0.76431 0.0
H485 H 0.86991 0.60492 0.89972 0.0
H486 H 0.89358 0.63986 0.71612 0.0
H487 H 0.84632 0.6392 0.73397 0.0
H488 H 0.86009 0.59873 0.78778 0.0
O489 O 0.84494 0.62213 0.46039 0.0
H490 H 0.89696 0.64717 0.46131 0.0
H491 H 0.86015 0.61678 0.3518 0.0
H492 H 0.90368 0.64658 0.82729 0.0
H493 H 0.80675 0.59013 0.6665 0.0
H494 H 0.89181 0.62904 0.92002 0.0
H495 H 0.79493 0.6157 0.73048 0.0
O496 O 0.8936 0.61371 0.63086 0.0
H497 H 0.848 0.55799 0.43423 0.0
H498 H 0.89776 0.60029 0.41812 0.0
H499 H 0.90052 0.56997 0.37082 0.0
H500 H 0.87551 0.5486 0.37875 0.0
H501 H 0.84585 0.58839 0.48118 0.0
H502 H 0.87032 0.63124 0.25078 0.0
H503 H 0.89428 0.6539 0.25525 0.0
O504 O 0.89468 0.6178 0.52265 0.0
C505 C 0.86766 0.65014 0.58877 0.0
C506 C 0.89724 0.65195 0.35887 0.0
C507 C 0.87628 0.63478 0.29675 0.0
N508 N 0.87808 0.631 0.41223 0.0
C509 C 0.89118 0.64354 0.4152 0.0
C510 C 0.87055 0.62666 0.35408 0.0
C511 C 0.88973 0.64749 0.29929 0.0
C512 C 0.83318 0.60063 0.66537 0.0
N513 N 0.8441 0.61426 0.68407 0.0
C514 C 0.81535 0.60092 0.68174 0.0
C515 C 0.80872 0.61528 0.71756 0.0
C516 C 0.81995 0.62913 0.73652 0.0
C517 C 0.8377 0.62841 0.71915 0.0
C518 C 0.87514 0.61269 0.85974 0.0
C519 C 0.88827 0.63227 0.75629 0.0
C520 C 0.86965 0.60923 0.79627 0.0
N521 N 0.87614 0.61905 0.74561 0.0
C522 C 0.89407 0.63609 0.8191 0.0
C523 C 0.88743 0.62623 0.8711 0.0
C524 C 0.90205 0.61573 0.57788 0.0
C525 C 0.85896 0.56721 0.43026 0.0
C526 C 0.88683 0.59105 0.42175 0.0
C527 C 0.88845 0.57392 0.39481 0.0
C528 C 0.87442 0.56194 0.39923 0.0
N529 N 0.87162 0.59613 0.45203 0.0
C530 C 0.85779 0.58446 0.45651 0.0
Co531 Co 0.61686 0.14416 0.2608 0.0
Co532 Co 0.59583 0.13398 0.40505 0.0
O533 O 0.6133 0.14688 0.35405 0.0
C534 C 0.64992 0.13365 0.32238 0.0
O535 O 0.64011 0.12453 0.36305 0.0
C536 C 0.58737 0.17216 0.42263 0.0
O537 O 0.58882 0.17369 0.35942 0.0
O538 O 0.57741 0.13872 0.3389 0.0
O539 O 0.59099 0.14548 0.24486 0.0
H540 H 0.54652 0.09014 0.44087 0.0
H541 H 0.63637 0.17224 0.33331 0.0
O542 O 0.64285 0.14246 0.27617 0.0
H543 H 0.60148 0.20487 0.16949 0.0
H544 H 0.64854 0.15573 0.05053 0.0
H545 H 0.59933 0.12375 0.15534 0.0
H546 H 0.6004 0.17179 0.17553 0.0
H547 H 0.64314 0.15898 0.16803 0.0
O548 O 0.58959 0.15696 0.44981 0.0
H549 H 0.56903 0.10612 0.37676 0.0
H550 H 0.58486 0.13537 0.5438 0.0
H551 H 0.60415 0.12023 0.03765 0.0
H552 H 0.63791 0.20532 0.32875 0.0
H553 H 0.62891 0.13629 0.9845 0.0
H554 H 0.62033 0.22185 0.24651 0.0
O555 O 0.61515 0.11757 0.26645 0.0
H556 H 0.64616 0.15069 0.55128 0.0
H557 H 0.60773 0.10143 0.47713 0.0
H558 H 0.63117 0.09511 0.55676 0.0
H559 H 0.65057 0.11986 0.59438 0.0
H560 H 0.62267 0.15637 0.47124 0.0
H561 H 0.56243 0.11981 0.60964 0.0
H562 H 0.54312 0.09696 0.5582 0.0
O563 O 0.60178 0.11091 0.36084 0.0
C564 C 0.57718 0.14288 0.27881 0.0
C565 C 0.5549 0.10002 0.4639 0.0
C566 C 0.56381 0.11669 0.5586 0.0
N567 N 0.57834 0.12152 0.45667 0.0
C568 C 0.5677 0.10906 0.4279 0.0
C569 C 0.57646 0.12548 0.52106 0.0
C570 C 0.55299 0.10387 0.52971 0.0
C571 C 0.62882 0.17933 0.29696 0.0
N572 N 0.6184 0.1701 0.25446 0.0
C573 C 0.62969 0.19806 0.29479 0.0
C574 C 0.6198 0.20733 0.24869 0.0
C575 C 0.60921 0.19782 0.20548 0.0
C576 C 0.60865 0.17909 0.20917 0.0
C577 C 0.63768 0.1487 0.0731 0.0
C578 C 0.61005 0.13088 0.13245 0.0
C579 C 0.63459 0.15046 0.1396 0.0
N580 N 0.62085 0.14169 0.16833 0.0
C581 C 0.61275 0.12879 0.06585 0.0
C582 C 0.62666 0.13779 0.03607 0.0
C583 C 0.60894 0.10637 0.30728 0.0
C584 C 0.63776 0.13981 0.5354 0.0
C585 C 0.61615 0.11225 0.49314 0.0
C586 C 0.62937 0.1086 0.53836 0.0
C587 C 0.64024 0.1225 0.55949 0.0
N588 N 0.6138 0.12926 0.46972 0.0
C589 C 0.62439 0.14295 0.49029 0.0
Co590 Co 0.11395 0.38081 0.6469 0.0
Co591 Co 0.11614 0.37543 0.48051 0.0
O592 O 0.12352 0.38646 0.56185 0.0
C593 C 0.10812 0.41935 0.62823 0.0
O594 O 0.10258 0.41515 0.56988 0.0
C595 C 0.15361 0.36768 0.49492 0.0
O596 O 0.14958 0.36245 0.55385 0.0
O597 O 0.11671 0.35105 0.51934 0.0
O598 O 0.11448 0.35451 0.62743 0.0
H599 H 0.08069 0.33415 0.33858 0.0
H600 H 0.14558 0.40393 0.63615 0.0
O601 O 0.11313 0.40709 0.66725 0.0
H602 H 0.16418 0.35181 0.76695 0.0
H603 H 0.10793 0.38883 0.88836 0.0
H604 H 0.08685 0.35564 0.69636 0.0
H605 H 0.13359 0.35434 0.72794 0.0
H606 H 0.12026 0.39509 0.77992 0.0
O607 O 0.14156 0.37297 0.45629 0.0
H608 H 0.08951 0.34833 0.44181 0.0
H609 H 0.12855 0.37888 0.34409 0.0
H610 H 0.07425 0.34885 0.80394 0.0
H611 H 0.17627 0.40199 0.67449 0.0
H612 H 0.0848 0.36551 0.90087 0.0
H613 H 0.18576 0.37575 0.7402 0.0
O614 O 0.08962 0.38224 0.61295 0.0
H615 H 0.13966 0.43715 0.43303 0.0
H616 H 0.08997 0.39548 0.40074 0.0
H617 H 0.08847 0.42602 0.35456 0.0
H618 H 0.11344 0.44708 0.37062 0.0
H619 H 0.14057 0.40654 0.47873 0.0
H620 H 0.12027 0.36493 0.23982 0.0
H621 H 0.09613 0.34245 0.23663 0.0
O622 O 0.09072 0.37763 0.50492 0.0
C623 C 0.11559 0.34474 0.57671 0.0
C624 C 0.09118 0.34399 0.33929 0.0
C625 C 0.11341 0.36124 0.28388 0.0
N626 N 0.10938 0.36456 0.39877 0.0
C627 C 0.09618 0.35211 0.39755 0.0
C628 C 0.11805 0.36908 0.34303 0.0
C629 C 0.09986 0.34863 0.28212 0.0
C630 C 0.14956 0.39258 0.66534 0.0
N631 N 0.13779 0.37933 0.68014 0.0
C632 C 0.16698 0.39151 0.68667 0.0
C633 C 0.1723 0.37676 0.72345 0.0
C634 C 0.1602 0.36332 0.73844 0.0
C635 C 0.1429 0.36482 0.71616 0.0
C636 C 0.10326 0.38145 0.84652 0.0
C637 C 0.09159 0.36285 0.73841 0.0
C638 C 0.11017 0.38496 0.78502 0.0
N639 N 0.10439 0.37562 0.73205 0.0
C640 C 0.08437 0.35899 0.79915 0.0
C641 C 0.09028 0.36836 0.85351 0.0
C642 C 0.08231 0.38045 0.55761 0.0
C643 C 0.12872 0.42807 0.42551 0.0
C644 C 0.10089 0.40457 0.40794 0.0
C645 C 0.09997 0.42184 0.3816 0.0
C646 C 0.11399 0.43364 0.39059 0.0
N647 N 0.11538 0.3992 0.44208 0.0
C648 C 0.12919 0.4107 0.45103 0.0
Co649 Co 0.37139 0.85078 0.26644 0.0
Co650 Co 0.39256 0.86213 0.40933 0.0
O651 O 0.37535 0.8485 0.35966 0.0
C652 C 0.3381 0.85997 0.32877 0.0
O653 O 0.34758 0.86975 0.3685 0.0
C654 C 0.40195 0.82425 0.43024 0.0
O655 O 0.40059 0.82217 0.36719 0.0
O656 O 0.41097 0.85756 0.34299 0.0
O657 O 0.39721 0.85056 0.24956 0.0
H658 H 0.44074 0.90752 0.44077 0.0
H659 H 0.35333 0.82207 0.34088 0.0
O660 O 0.34543 0.85135 0.28272 0.0
H661 H 0.38913 0.79053 0.17705 0.0
H662 H 0.33966 0.83715 0.05783 0.0
H663 H 0.38779 0.87156 0.15945 0.0
H664 H 0.38876 0.82364 0.18161 0.0
H665 H 0.34549 0.83454 0.17527 0.0
O666 O 0.39945 0.83962 0.45573 0.0
H667 H 0.41858 0.89054 0.37837 0.0
H668 H 0.40379 0.86185 0.54794 0.0
H669 H 0.38252 0.87447 0.0418 0.0
H670 H 0.35325 0.78895 0.33783 0.0
H671 H 0.3583 0.85718 0.99025 0.0
H672 H 0.37129 0.77297 0.25559 0.0
O673 O 0.37203 0.87747 0.27092 0.0
H674 H 0.34294 0.84483 0.55787 0.0
H675 H 0.37995 0.89472 0.47952 0.0
H676 H 0.3565 0.90081 0.55926 0.0
H677 H 0.33781 0.87575 0.599 0.0
H678 H 0.36642 0.83938 0.47764 0.0
H679 H 0.42588 0.87841 0.61211 0.0
H680 H 0.44449 0.90149 0.55853 0.0
O681 O 0.38594 0.88476 0.36366 0.0
C682 C 0.41108 0.85351 0.28279 0.0
C683 C 0.43266 0.89754 0.46472 0.0
C684 C 0.42434 0.88119 0.56087 0.0
N685 N 0.4098 0.87534 0.45962 0.0
C686 C 0.42006 0.88793 0.42968 0.0
C687 C 0.41188 0.87183 0.52427 0.0
C688 C 0.43478 0.89414 0.53078 0.0
C689 C 0.36107 0.81521 0.30452 0.0
N690 N 0.37094 0.82478 0.2612 0.0
C691 C 0.36103 0.79646 0.30321 0.0
C692 C 0.37117 0.7875 0.25711 0.0
C693 C 0.3812 0.79735 0.21305 0.0
C694 C 0.38094 0.81609 0.2159 0.0
C695 C 0.35027 0.84472 0.07971 0.0
C696 C 0.3773 0.86391 0.13728 0.0
C697 C 0.35361 0.84333 0.14617 0.0
N698 N 0.36705 0.85278 0.17403 0.0
C699 C 0.37434 0.86565 0.07069 0.0
C700 C 0.36074 0.85596 0.04181 0.0
C701 C 0.37828 0.88895 0.31068 0.0
C702 C 0.35103 0.85586 0.54106 0.0
C703 C 0.37183 0.88376 0.49642 0.0
C704 C 0.35861 0.88728 0.5417 0.0
C705 C 0.34814 0.87321 0.56403 0.0
N706 N 0.37458 0.86671 0.47408 0.0
C707 C 0.36439 0.85284 0.49583 0.0
Co708 Co 0.86789 0.87827 0.58699 0.0
Co709 Co 0.86988 0.87323 0.75361 0.0
O710 O 0.86109 0.88468 0.67495 0.0
C711 C 0.87727 0.91624 0.60255 0.0
O712 O 0.88385 0.91163 0.65901 0.0
C713 C 0.832 0.86727 0.75145 0.0
O714 O 0.83443 0.86244 0.69095 0.0
O715 O 0.86727 0.84885 0.71554 0.0
O716 O 0.86577 0.85211 0.60719 0.0
H717 H 0.90696 0.83043 0.8836 0.0
H718 H 0.83876 0.90413 0.60832 0.0
O719 O 0.87036 0.90442 0.56578 0.0
H720 H 0.81246 0.85384 0.48646 0.0
H721 H 0.8681 0.8859 0.34433 0.0
H722 H 0.89133 0.85084 0.52847 0.0
H723 H 0.84404 0.85365 0.51431 0.0
H724 H 0.85929 0.89315 0.45657 0.0
O725 O 0.84509 0.8719 0.78641 0.0
H726 H 0.89627 0.84502 0.78359 0.0
H727 H 0.86102 0.87714 0.89358 0.0
H728 H 0.90038 0.84305 0.41703 0.0
H729 H 0.80716 0.90492 0.58114 0.0
H730 H 0.88874 0.86065 0.32402 0.0
H731 H 0.7938 0.87961 0.51997 0.0
O732 O 0.89302 0.8774 0.61197 0.0
H733 H 0.85055 0.93601 0.80801 0.0
H734 H 0.89883 0.89195 0.82381 0.0
H735 H 0.90291 0.92237 0.86886 0.0
H736 H 0.87866 0.94464 0.86107 0.0
H737 H 0.84707 0.90549 0.76328 0.0
H738 H 0.87123 0.8628 0.9948 0.0
H739 H 0.89441 0.83932 0.99017 0.0
O740 O 0.8946 0.87413 0.72049 0.0
C741 C 0.86604 0.84244 0.65834 0.0
C742 C 0.8969 0.8407 0.88627 0.0
C743 C 0.87683 0.85885 0.94867 0.0
N744 N 0.87816 0.86203 0.83287 0.0
C745 C 0.89084 0.84904 0.82983 0.0
C746 C 0.87107 0.8669 0.89122 0.0
C747 C 0.88984 0.84567 0.94604 0.0
C748 C 0.83308 0.89317 0.58103 0.0
N749 N 0.84325 0.87893 0.5625 0.0
C750 C 0.81517 0.89365 0.56604 0.0
C751 C 0.80768 0.87943 0.5318 0.0
C752 C 0.81814 0.86496 0.51302 0.0
C753 C 0.836 0.86492 0.52897 0.0
C754 C 0.87323 0.87811 0.38444 0.0
C755 C 0.88611 0.85848 0.4882 0.0
C756 C 0.86831 0.88217 0.44808 0.0
N757 N 0.87467 0.87232 0.49891 0.0
C758 C 0.89133 0.85404 0.42524 0.0
C759 C 0.8848 0.86393 0.37308 0.0
C760 C 0.9017 0.87547 0.66451 0.0
C761 C 0.86119 0.92641 0.81189 0.0
C762 C 0.88822 0.90157 0.82026 0.0
C763 C 0.8906 0.91877 0.84592 0.0
C764 C 0.87698 0.93125 0.84157 0.0
N765 N 0.87269 0.89692 0.7913 0.0
C766 C 0.85927 0.90908 0.78691 0.0
Co767 Co 0.86969 0.141 0.48213 0.0
Co768 Co 0.89117 0.13176 0.33796 0.0
O769 O 0.87344 0.14423 0.38916 0.0
C770 C 0.83674 0.13069 0.4191 0.0
O771 O 0.84656 0.12175 0.37793 0.0
C772 C 0.89941 0.17011 0.32255 0.0
O773 O 0.89769 0.17142 0.38574 0.0
O774 O 0.9094 0.13642 0.40496 0.0
O775 O 0.89548 0.14242 0.49896 0.0
H776 H 0.94111 0.08871 0.30138 0.0
H777 H 0.85015 0.16934 0.41095 0.0
O778 O 0.84377 0.13925 0.46594 0.0
H779 H 0.88437 0.20132 0.57826 0.0
H780 H 0.83747 0.15125 0.69222 0.0
H781 H 0.88715 0.12019 0.58675 0.0
H782 H 0.88576 0.16829 0.56979 0.0
H783 H 0.84309 0.15515 0.57512 0.0
O784 O 0.8973 0.155 0.2946 0.0
H785 H 0.91824 0.10411 0.36559 0.0
H786 H 0.90242 0.13384 0.19962 0.0
H787 H 0.8821 0.11602 0.70404 0.0
H788 H 0.84828 0.20236 0.41796 0.0
H789 H 0.85711 0.13162 0.75752 0.0
H790 H 0.86552 0.21857 0.50198 0.0
O791 O 0.87159 0.11446 0.47478 0.0
H792 H 0.84095 0.14852 0.19133 0.0
H793 H 0.8798 0.09939 0.26372 0.0
H794 H 0.85658 0.09315 0.18314 0.0
H795 H 0.83696 0.11783 0.14642 0.0
H796 H 0.86424 0.15412 0.27225 0.0
H797 H 0.92521 0.11887 0.1337 0.0
H798 H 0.9447 0.09607 0.18455 0.0
O799 O 0.88539 0.10842 0.38069 0.0
C800 C 0.90941 0.14022 0.46536 0.0
C801 C 0.93266 0.09857 0.27861 0.0
C802 C 0.92375 0.11551 0.18452 0.0
N803 N 0.90892 0.11973 0.28621 0.0
C804 C 0.91965 0.10729 0.31466 0.0
C805 C 0.91089 0.12397 0.2221 0.0
C806 C 0.93468 0.10272 0.21308 0.0
C807 C 0.85755 0.17628 0.44804 0.0
N808 N 0.86795 0.1669 0.49018 0.0
C809 C 0.8565 0.19499 0.45161 0.0
C810 C 0.86619 0.20407 0.4987 0.0
C811 C 0.87678 0.1944 0.5415 0.0
C812 C 0.87753 0.17571 0.53642 0.0
C813 C 0.84843 0.14441 0.6695 0.0
C814 C 0.87632 0.12712 0.60978 0.0
C815 C 0.85165 0.14654 0.60322 0.0
N816 N 0.86552 0.13802 0.57431 0.0
C817 C 0.87349 0.12466 0.67616 0.0
C818 C 0.85946 0.1334 0.70612 0.0
C819 C 0.87809 0.10353 0.43359 0.0
C820 C 0.84945 0.13767 0.20681 0.0
C821 C 0.87129 0.11018 0.24809 0.0
C822 C 0.85819 0.10658 0.20234 0.0
C823 C 0.8472 0.12044 0.18171 0.0
N824 N 0.8734 0.12711 0.2725 0.0
C825 C 0.8627 0.14078 0.25242 0.0
Co826 Co 0.11949 0.11673 0.58023 0.0
Co827 Co 0.1176 0.12212 0.74667 0.0
O828 O 0.12643 0.11062 0.6683 0.0
C829 C 0.11064 0.07874 0.59746 0.0
O830 O 0.10384 0.08354 0.65334 0.0
C831 C 0.15548 0.12822 0.74478 0.0
O832 O 0.15309 0.13321 0.6844 0.0
O833 O 0.12012 0.14643 0.70801 0.0
O834 O 0.12124 0.14295 0.59965 0.0
H835 H 0.08043 0.16501 0.87581 0.0
H836 H 0.14901 0.09137 0.6023 0.0
O837 O 0.11739 0.0905 0.56003 0.0
H838 H 0.17448 0.14177 0.47863 0.0
H839 H 0.11921 0.10846 0.33786 0.0
H840 H 0.09568 0.14371 0.52091 0.0
H841 H 0.14292 0.14152 0.50659 0.0
H842 H 0.12818 0.10163 0.45029 0.0
O843 O 0.14238 0.12352 0.77947 0.0
H844 H 0.09116 0.15033 0.77608 0.0
H845 H 0.12647 0.1184 0.88672 0.0
H846 H 0.08645 0.15109 0.40927 0.0
H847 H 0.18062 0.09103 0.57506 0.0
H848 H 0.09824 0.13339 0.3168 0.0
H849 H 0.19356 0.11639 0.51299 0.0
O850 O 0.09434 0.11733 0.60528 0.0
H851 H 0.1371 0.05947 0.80229 0.0
H852 H 0.0887 0.10341 0.81715 0.0
H853 H 0.0847 0.07304 0.86275 0.0
H854 H 0.10902 0.05084 0.85545 0.0
H855 H 0.14049 0.08994 0.75699 0.0
H856 H 0.11621 0.13284 0.98767 0.0
H857 H 0.09298 0.15627 0.98257 0.0
O858 O 0.09288 0.12114 0.71358 0.0
C859 C 0.12107 0.15272 0.65054 0.0
C860 C 0.09051 0.15477 0.87869 0.0
C861 C 0.11061 0.13673 0.94146 0.0
N862 N 0.1093 0.13341 0.8257 0.0
C863 C 0.0966 0.14637 0.82241 0.0
C864 C 0.11639 0.12863 0.88416 0.0
C865 C 0.09757 0.14988 0.93856 0.0
C866 C 0.15451 0.10236 0.57462 0.0
N867 N 0.14412 0.11638 0.55564 0.0
C868 C 0.17243 0.10213 0.5596 0.0
C869 C 0.17968 0.11637 0.52486 0.0
C870 C 0.16899 0.13062 0.5056 0.0
C871 C 0.15114 0.13042 0.52161 0.0
C872 C 0.11401 0.11629 0.37773 0.0
C873 C 0.10096 0.13604 0.48088 0.0
C874 C 0.11902 0.11247 0.44147 0.0
N875 N 0.11257 0.12237 0.49199 0.0
C876 C 0.09564 0.14023 0.41779 0.0
C877 C 0.10225 0.13029 0.36595 0.0
C878 C 0.08571 0.11952 0.65781 0.0
C879 C 0.12643 0.06905 0.80598 0.0
C880 C 0.09934 0.09382 0.81381 0.0
C881 C 0.097 0.07665 0.83978 0.0
C882 C 0.11066 0.0642 0.83571 0.0
N883 N 0.11485 0.09847 0.7848 0.0
C884 C 0.1283 0.08635 0.78067 0.0
Co885 Co 0.11792 0.85331 0.48548 0.0
Co886 Co 0.0969 0.86374 0.34138 0.0
O887 O 0.11383 0.85017 0.39269 0.0
C888 C 0.15145 0.86093 0.42174 0.0
O889 O 0.14226 0.87034 0.37996 0.0
C890 C 0.08614 0.82606 0.32755 0.0
O891 O 0.08763 0.8249 0.39085 0.0
O892 O 0.07848 0.86051 0.40871 0.0
O893 O 0.09212 0.85382 0.50267 0.0
H894 H 0.05003 0.9102 0.3039 0.0
H895 H 0.13526 0.82345 0.41478 0.0
O896 O 0.14386 0.85311 0.46907 0.0
H897 H 0.09898 0.79445 0.58324 0.0
H898 H 0.14953 0.84115 0.69555 0.0
H899 H 0.1021 0.87559 0.58963 0.0
H900 H 0.10007 0.82747 0.57419 0.0
H901 H 0.14352 0.83741 0.57864 0.0
O902 O 0.08923 0.84089 0.29888 0.0
H903 H 0.07182 0.89331 0.36841 0.0
H904 H 0.08536 0.86212 0.20328 0.0
H905 H 0.10756 0.87964 0.70673 0.0
H906 H 0.13464 0.79039 0.42233 0.0
H907 H 0.13143 0.86234 0.76043 0.0
H908 H 0.11635 0.77568 0.50691 0.0
O909 O 0.11788 0.87992 0.47727 0.0
H910 H 0.14563 0.84319 0.19424 0.0
H911 H 0.11037 0.8951 0.26624 0.0
H912 H 0.13381 0.89953 0.18502 0.0
H913 H 0.15162 0.87345 0.14848 0.0
H914 H 0.12217 0.8394 0.27579 0.0
H915 H 0.06361 0.87856 0.13707 0.0
H916 H 0.04582 0.90285 0.18735 0.0
O917 O 0.10428 0.88667 0.38339 0.0
C918 C 0.07831 0.85689 0.46925 0.0
C919 C 0.05775 0.89969 0.28138 0.0
C920 C 0.06536 0.88192 0.18777 0.0
N921 N 0.07995 0.87687 0.28947 0.0
C922 C 0.07014 0.89013 0.31761 0.0
C923 C 0.07762 0.87263 0.22551 0.0
C924 C 0.05538 0.89554 0.216 0.0
C925 C 0.12742 0.81715 0.45215 0.0
N926 N 0.11781 0.82737 0.49427 0.0
C927 C 0.12706 0.79842 0.45601 0.0
C928 C 0.11678 0.79018 0.50342 0.0
C929 C 0.10702 0.8007 0.54624 0.0
C930 C 0.10768 0.81939 0.54085 0.0
C931 C 0.13907 0.84873 0.67273 0.0
C932 C 0.11243 0.86793 0.61277 0.0
C933 C 0.13563 0.8467 0.60655 0.0
N934 N 0.12238 0.85617 0.57752 0.0
C935 C 0.1155 0.87032 0.67903 0.0
C936 C 0.1289 0.86062 0.70911 0.0
C937 C 0.11202 0.89116 0.43586 0.0
C938 C 0.13793 0.85465 0.20964 0.0
C939 C 0.11809 0.8837 0.2507 0.0
C940 C 0.13132 0.88628 0.20459 0.0
C941 C 0.1413 0.87164 0.18406 0.0
N942 N 0.11487 0.867 0.27557 0.0
C943 C 0.12458 0.85258 0.2556 0.0
C944 C 0.37883 0.92142 0.3421 0.0
C945 C 0.37684 0.90818 0.29398 0.0
C946 C 0.37819 0.93961 0.32583 0.0
C947 C 0.38723 0.97033 0.19415 0.0
H948 H 0.35708 0.00368 0.28646 0.0
C949 C 0.38081 0.04434 0.1157 0.0
C950 C 0.37856 0.05734 0.16434 0.0
C951 C 0.38028 0.02609 0.13105 0.0
C952 C 0.3658 0.99462 0.26085 0.0
H953 H 0.37259 0.90367 0.19106 0.0
H954 H 0.37186 0.93553 0.16266 0.0
H955 H 0.35657 0.97187 0.31474 0.0
H956 H 0.37439 0.06153 0.26727 0.0
H957 H 0.37424 0.02972 0.29466 0.0
H958 H 0.39699 0.99298 0.14177 0.0
C959 C 0.37377 0.93173 0.21293 0.0
C960 C 0.36539 0.9764 0.27684 0.0
C961 C 0.3741 0.91353 0.22931 0.0
C962 C 0.37606 0.05177 0.22875 0.0
C963 C 0.37583 0.03352 0.24429 0.0
C964 C 0.38786 0.98858 0.17884 0.0
C965 C 0.37586 0.94489 0.26104 0.0
C966 C 0.37607 0.96412 0.24353 0.0
C967 C 0.37778 0.02043 0.19557 0.0
C968 C 0.37714 0.00098 0.21193 0.0
H969 H 0.38094 0.91775 0.39234 0.0
H970 H 0.37993 0.94955 0.36367 0.0
H971 H 0.39574 0.9611 0.16835 0.0
H972 H 0.38256 0.04826 0.06547 0.0
H973 H 0.38151 0.01643 0.09203 0.0
C974 C 0.04378 0.64151 0.78317 0.0
C975 C 0.05955 0.64185 0.74769 0.0
C976 C 0.02764 0.64143 0.75134 0.0
C977 C 0.00679 0.62744 0.60132 0.0
H978 H 0.96717 0.65298 0.67594 0.0
C979 C 0.93169 0.62193 0.52808 0.0
C980 C 0.92141 0.6173 0.58246 0.0
C981 C 0.94954 0.62612 0.53554 0.0
C982 C 0.97817 0.64593 0.65413 0.0
H983 H 0.07071 0.64279 0.65071 0.0
H984 H 0.04227 0.64251 0.59494 0.0
H985 H -0.00306 0.66001 0.71213 0.0
H986 H 0.92218 0.61226 0.68644 0.0
H987 H 0.95303 0.61973 0.69892 0.0
H988 H 0.9877 0.61293 0.54491 0.0
C989 C 0.04255 0.64229 0.64749 0.0
C990 C -0.00486 0.6499 0.6749 0.0
C991 C 0.05879 0.64252 0.67947 0.0
C992 C 0.92957 0.61596 0.64352 0.0
C993 C 0.94723 0.6203 0.6509 0.0
C994 C 0.98971 0.62354 0.58015 0.0
C995 C 0.02684 0.64165 0.68325 0.0
C996 C 0.00954 0.64015 0.65082 0.0
C997 C 0.95721 0.62588 0.59744 0.0
C998 C 0.97529 0.63227 0.60851 0.0
H999 H 0.04385 0.64102 0.83572 0.0
H1000 H 0.01575 0.64063 0.78021 0.0
H1001 H 0.01767 0.61969 0.58212 0.0
H1002 H 0.92582 0.62302 0.48033 0.0
H1003 H 0.95713 0.63031 0.49369 0.0
C1004 C 0.61401 0.94339 0.21625 0.0
C1005 C 0.61203 0.93882 0.15051 0.0
C1006 C 0.61432 0.9614 0.23524 0.0
C1007 C 0.6244 0.00639 0.17758 0.0
H1008 H 0.59238 0.02272 0.31169 0.0
C1009 C 0.61327 0.08151 0.22741 0.0
C1010 C 0.61019 0.08706 0.29157 0.0
C1011 C 0.61409 0.06329 0.21201 0.0
C1012 C 0.60164 0.01837 0.275 0.0
H1013 H 0.60917 0.9494 0.05295 0.0
H1014 H 0.61004 0.98089 0.08622 0.0
H1015 H 0.59306 0.99102 0.28207 0.0
H1016 H 0.60585 0.07781 0.39011 0.0
H1017 H 0.60792 0.04603 0.3637 0.0
H1018 H 0.63332 0.03354 0.17112 0.0
C1019 C 0.61121 0.97053 0.12291 0.0
C1020 C 0.60194 0.00023 0.25791 0.0
C1021 C 0.61061 0.95254 0.10401 0.0
C1022 C 0.60814 0.07398 0.34014 0.0
C1023 C 0.60922 0.05574 0.32488 0.0
C1024 C 0.6243 0.02449 0.19529 0.0
C1025 C 0.61297 0.97509 0.18869 0.0
C1026 C 0.61319 0.99414 0.20862 0.0
C1027 C 0.61211 0.05016 0.26053 0.0
C1028 C 0.61278 0.03075 0.24373 0.0
H1029 H 0.61512 0.93307 0.2531 0.0
H1030 H 0.61578 0.96463 0.28622 0.0
H1031 H 0.63334 0.00194 0.13992 0.0
H1032 H 0.61475 0.09124 0.1887 0.0
H1033 H 0.61597 0.05953 0.16173 0.0
C1034 C 0.05392 0.39007 0.60625 0.0
C1035 C 0.06293 0.38142 0.5557 0.0
C1036 C 0.03566 0.38937 0.60965 0.0
C1037 C -0.00039 0.3598 0.56931 0.0
H1038 H 0.97237 0.39882 0.64327 0.0
C1039 C 0.92829 0.3529 0.67352 0.0
C1040 C 0.9272 0.35927 0.73775 0.0
C1041 C 0.94331 0.35621 0.63612 0.0
C1042 C 0.97977 0.38786 0.62199 0.0
H1043 H 0.05987 0.36597 0.46717 0.0
H1044 H 0.02767 0.36454 0.47372 0.0
H1045 H 0.00159 0.40484 0.59928 0.0
H1046 H 0.94117 0.3739 0.8131 0.0
H1047 H 0.96711 0.37974 0.74776 0.0
H1048 H 0.97794 0.34272 0.5947 0.0
C1049 C 0.03486 0.37186 0.5106 0.0
C1050 C -0.00356 0.39128 0.59685 0.0
C1051 C 0.05324 0.37274 0.50676 0.0
C1052 C 0.94152 0.36876 0.76395 0.0
C1053 C 0.95633 0.37228 0.72637 0.0
C1054 C 0.98281 0.35639 0.59414 0.0
C1055 C 0.02595 0.37993 0.56277 0.0
C1056 C 0.00687 0.37715 0.57317 0.0
C1057 C 0.95729 0.36622 0.662 0.0
C1058 C 0.97314 0.37027 0.62333 0.0
H1059 H 0.06101 0.397 0.64441 0.0
H1060 H 0.02923 0.39551 0.65098 0.0
H1061 H 0.00738 0.34863 0.55165 0.0
H1062 H 0.91748 0.34554 0.65191 0.0
H1063 H 0.94385 0.35132 0.58664 0.0
C1064 C 0.37516 0.43831 0.02843 0.0
C1065 C 0.37829 0.43335 0.09321 0.0
C1066 C 0.37495 0.45642 0.01063 0.0
C1067 C 0.36586 0.50082 0.07378 0.0
H1068 H 0.39516 0.51855 0.9337 0.0
C1069 C 0.374 0.57645 0.0259 0.0
C1070 C 0.37612 0.58234 0.96162 0.0
C1071 C 0.37391 0.55815 0.04042 0.0
C1072 C 0.38664 0.5138 0.97215 0.0
H1073 H 0.38354 0.44336 0.1902 0.0
H1074 H 0.3828 0.47502 0.15912 0.0
H1075 H 0.39563 0.48667 0.96115 0.0
H1076 H 0.3794 0.57363 0.86192 0.0
H1077 H 0.3785 0.5417 0.8868 0.0
H1078 H 0.35642 0.52768 0.08403 0.0
C1079 C 0.38067 0.46488 0.12224 0.0
C1080 C 0.38701 0.49557 0.98801 0.0
C1081 C 0.38119 0.44679 0.13984 0.0
C1082 C 0.37785 0.56952 0.912 0.0
C1083 C 0.37747 0.5512 0.92639 0.0
C1084 C 0.36524 0.51899 0.05728 0.0
C1085 C 0.37753 0.46983 0.05755 0.0
C1086 C 0.37676 0.48899 0.03935 0.0
C1087 C 0.37563 0.54527 0.99087 0.0
C1088 C 0.37576 0.52577 0.00668 0.0
H1089 H 0.37289 0.42821 0.99152 0.0
H1090 H 0.37244 0.45996 0.96048 0.0
H1091 H 0.35767 0.49597 0.11308 0.0
H1092 H 0.37282 0.58598 0.06537 0.0
H1093 H 0.37283 0.55415 0.09077 0.0
C1094 C 0.44151 0.63912 0.9706 0.0
C1095 C 0.42614 0.63948 0.00841 0.0
C1096 C 0.45799 0.63946 0.99996 0.0
C1097 C 0.48065 0.62722 0.14901 0.0
H1098 H 0.51899 0.65294 0.0666 0.0
C1099 C 0.55561 0.62412 0.22081 0.0
C1100 C 0.56632 0.62002 0.16701 0.0
C1101 C 0.53767 0.62771 0.21225 0.0
C1102 C 0.50837 0.6458 0.09039 0.0
H1103 H 0.41605 0.64083 0.10695 0.0
H1104 H 0.44507 0.64135 0.1583 0.0
H1105 H 0.48882 0.65863 0.03211 0.0
H1106 H 0.56627 0.61545 0.06271 0.0
H1107 H 0.53526 0.62183 0.04835 0.0
H1108 H 0.50049 0.61405 0.20607 0.0
C1109 C 0.44422 0.64076 0.10588 0.0
C1110 C 0.49115 0.64901 0.07063 0.0
C1111 C 0.42765 0.64053 0.0764 0.0
C1112 C 0.55854 0.61873 0.10525 0.0
C1113 C 0.54078 0.62247 0.0968 0.0
C1114 C 0.49796 0.62408 0.16915 0.0
C1115 C 0.45953 0.64014 0.06784 0.0
C1116 C 0.47719 0.63924 0.09786 0.0
C1117 C 0.53031 0.62742 0.14982 0.0
C1118 C 0.51195 0.63287 0.13811 0.0
H1119 H 0.44087 0.63832 0.91816 0.0
H1120 H 0.46956 0.63865 0.96939 0.0
H1121 H 0.47012 0.61946 0.17068 0.0
H1122 H 0.56118 0.62517 0.26906 0.0
H1123 H 0.52973 0.6314 0.25382 0.0
C1124 C 0.61298 0.4237 0.92244 0.0
C1125 C 0.61483 0.41038 0.97034 0.0
C1126 C 0.61405 0.44186 0.93886 0.0
C1127 C 0.60588 0.47241 0.07187 0.0
H1128 H 0.63542 0.50586 0.97737 0.0
C1129 C 0.61186 0.54632 0.15011 0.0
C1130 C 0.61326 0.55937 0.10124 0.0
C1131 C 0.61296 0.5281 0.13479 0.0
C1132 C 0.62689 0.49677 0.00368 0.0
H1133 H 0.61937 0.40569 0.07301 0.0
H1134 H 0.62086 0.43748 0.10166 0.0
H1135 H 0.63576 0.47405 0.94869 0.0
H1136 H 0.61679 0.56369 0.99805 0.0
H1137 H 0.61798 0.53188 0.97076 0.0
H1138 H 0.59644 0.495 0.12529 0.0
C1139 C 0.61871 0.43377 0.05144 0.0
C1140 C 0.6272 0.47856 0.98744 0.0
C1141 C 0.61794 0.41561 0.03491 0.0
C1142 C 0.61575 0.55389 0.03673 0.0
C1143 C 0.61656 0.53565 0.02123 0.0
C1144 C 0.60536 0.49064 0.08747 0.0
C1145 C 0.61669 0.44704 0.0036 0.0
C1146 C 0.61671 0.46624 0.02148 0.0
C1147 C 0.61519 0.52251 0.07009 0.0
C1148 C 0.61587 0.50307 0.05364 0.0
H1149 H 0.6106 0.42014 0.87227 0.0
H1150 H 0.61233 0.45187 0.90122 0.0
H1151 H 0.59749 0.46318 0.09822 0.0
H1152 H 0.61016 0.55017 0.20043 0.0
H1153 H 0.61223 0.51841 0.1739 0.0
C1154 C 0.42692 0.3685 0.10141 0.0
C1155 C 0.41985 0.36957 0.16433 0.0
C1156 C 0.44466 0.36476 0.09213 0.0
C1157 C 0.48796 0.36761 0.16455 0.0
H1158 H 0.49951 0.33355 0.0285 0.0
C1159 C 0.5594 0.35414 0.07588 0.0
C1160 C 0.56121 0.35532 0.00802 0.0
C1161 C 0.5427 0.35349 0.10426 0.0
C1162 C 0.49649 0.34304 0.06676 0.0
H1163 H 0.42609 0.36797 0.26704 0.0
H1164 H 0.45744 0.36163 0.25032 0.0
H1165 H 0.469 0.33709 0.06271 0.0
H1166 H 0.54688 0.35645 0.91686 0.0
H1167 H 0.51793 0.35528 0.96629 0.0
H1168 H 0.51546 0.37403 0.16665 0.0
C1169 C 0.44902 0.3636 0.20849 0.0
C1170 C 0.47907 0.34506 0.08633 0.0
C1171 C 0.43111 0.36722 0.21794 0.0
C1172 C 0.546 0.35556 0.96924 0.0
C1173 C 0.52939 0.35475 0.99752 0.0
C1174 C 0.50547 0.36558 0.14487 0.0
C1175 C 0.45584 0.36206 0.14539 0.0
C1176 C 0.47456 0.35782 0.13367 0.0
C1177 C 0.52756 0.35377 0.06524 0.0
C1178 C 0.50976 0.35374 0.09415 0.0
H1179 H 0.41873 0.37029 0.05887 0.0
H1180 H 0.44966 0.36403 0.04296 0.0
H1181 H 0.48479 0.37755 0.2011 0.0
H1182 H 0.57086 0.35394 0.10715 0.0
H1183 H 0.54162 0.35271 0.1566 0.0
C1184 C 0.87469 0.42169 0.84287 0.0
C1185 C 0.87252 0.40814 0.79598 0.0
C1186 C 0.87321 0.43977 0.82562 0.0
C1187 C 0.88041 0.46944 0.6897 0.0
H1188 H 0.85242 0.50397 0.78551 0.0
C1189 C 0.87566 0.54318 0.60814 0.0
C1190 C 0.87486 0.55646 0.6564 0.0
C1191 C 0.87424 0.52505 0.62453 0.0
C1192 C 0.86052 0.49456 0.75877 0.0
H1193 H 0.86673 0.40297 0.69449 0.0
H1194 H 0.86452 0.4346 0.66435 0.0
H1195 H 0.85166 0.4723 0.81619 0.0
H1196 H 0.87209 0.56126 0.75962 0.0
H1197 H 0.87038 0.52959 0.78873 0.0
H1198 H 0.8899 0.49156 0.63394 0.0
C1199 C 0.86726 0.43114 0.71441 0.0
C1200 C 0.85996 0.47643 0.77615 0.0
C1201 C 0.86844 0.41306 0.73182 0.0
C1202 C 0.87268 0.55128 0.7214 0.0
C1203 C 0.87156 0.53313 0.73795 0.0
C1204 C 0.8812 0.48758 0.67296 0.0
C1205 C 0.86982 0.44463 0.76102 0.0
C1206 C 0.86989 0.46374 0.74169 0.0
C1207 C 0.87229 0.51976 0.6897 0.0
C1208 C 0.87126 0.5004 0.70725 0.0
H1209 H 0.8778 0.41836 0.89272 0.0
H1210 H 0.87534 0.44996 0.86231 0.0
H1211 H 0.88839 0.45991 0.66301 0.0
H1212 H 0.8771 0.5468 0.55749 0.0
H1213 H 0.87449 0.51521 0.58586 0.0
C1214 C 0.55832 0.14519 0.17907 0.0
C1215 C 0.55984 0.14467 0.24711 0.0
C1216 C 0.54172 0.14561 0.1497 0.0
C1217 C 0.49494 0.15514 0.18393 0.0
H1218 H 0.48493 0.11808 0.05676 0.0
C1219 C 0.42738 0.12404 0.15945 0.0
C1220 C 0.41975 0.12273 0.09748 0.0
C1221 C 0.44494 0.12887 0.16644 0.0
C1222 C 0.48762 0.12872 0.09123 0.0
H1223 H 0.54517 0.14486 0.33757 0.0
H1224 H 0.51645 0.14557 0.28657 0.0
H1225 H 0.51541 0.12384 0.08947 0.0
H1226 H 0.42487 0.1248 0.99402 0.0
H1227 H 0.45595 0.13294 0.00675 0.0
H1228 H 0.46714 0.15937 0.18835 0.0
C1229 C 0.52801 0.14575 0.25582 0.0
C1230 C 0.50502 0.13205 0.10984 0.0
C1231 C 0.5445 0.14518 0.28507 0.0
C1232 C 0.43033 0.12573 0.04245 0.0
C1233 C 0.44808 0.13039 0.04958 0.0
C1234 C 0.47762 0.15177 0.16561 0.0
C1235 C 0.52643 0.14578 0.18792 0.0
C1236 C 0.50873 0.14481 0.15828 0.0
C1237 C 0.45536 0.13237 0.11175 0.0
C1238 C 0.47378 0.13807 0.12105 0.0
H1239 H 0.56989 0.14483 0.14846 0.0
H1240 H 0.54084 0.14567 0.09724 0.0
H1241 H 0.49748 0.16531 0.22038 0.0
H1242 H 0.4197 0.12178 0.20298 0.0
H1243 H 0.45038 0.12996 0.21489 0.0
C1244 C 0.10797 0.57269 0.84175 0.0
C1245 C 0.111 0.58614 0.79516 0.0
C1246 C 0.10874 0.55457 0.82444 0.0
C1247 C 0.10203 0.52499 0.68721 0.0
H1248 H 0.12905 0.49011 0.78525 0.0
C1249 C 0.1088 0.45194 0.60074 0.0
C1250 C 0.10897 0.43834 0.64789 0.0
C1251 C 0.10973 0.46996 0.61903 0.0
C1252 C 0.12122 0.49962 0.75789 0.0
H1253 H 0.11738 0.5911 0.69398 0.0
H1254 H 0.11839 0.55944 0.66378 0.0
H1255 H 0.12948 0.52167 0.81752 0.0
H1256 H 0.11013 0.43283 0.75111 0.0
H1257 H 0.11105 0.46431 0.78334 0.0
H1258 H 0.09324 0.50308 0.62884 0.0
C1259 C 0.11551 0.56299 0.71365 0.0
C1260 C 0.12156 0.51768 0.77624 0.0
C1261 C 0.11501 0.58108 0.7311 0.0
C1262 C 0.11006 0.44307 0.71372 0.0
C1263 C 0.11071 0.46111 0.7321 0.0
C1264 C 0.10147 0.50693 0.66943 0.0
C1265 C 0.11228 0.5496 0.76008 0.0
C1266 C 0.11203 0.5305 0.74084 0.0
C1267 C 0.11056 0.47479 0.68497 0.0
C1268 C 0.11111 0.49401 0.70435 0.0
H1269 H 0.10487 0.57612 0.8915 0.0
H1270 H 0.1061 0.54446 0.86097 0.0
H1271 H 0.09436 0.53463 0.65975 0.0
H1272 H 0.10819 0.44868 0.54954 0.0
H1273 H 0.10997 0.48008 0.58131 0.0
C1274 C 0.44389 0.85459 0.2852 0.0
C1275 C 0.42826 0.85274 0.24942 0.0
C1276 C 0.46008 0.85518 0.25381 0.0
C1277 C 0.48039 0.86752 0.10016 0.0
H1278 H 0.52131 0.84592 0.18122 0.0
C1279 C 0.55518 0.87306 0.02164 0.0
C1280 C 0.56556 0.8793 0.07361 0.0
C1281 C 0.53737 0.86902 0.03132 0.0
C1282 C 0.50995 0.85187 0.15775 0.0
H1283 H 0.41746 0.84963 0.1524 0.0
H1284 H 0.44595 0.85069 0.09754 0.0
H1285 H 0.492 0.83827 0.22043 0.0
H1286 H 0.56498 0.88767 0.17472 0.0
H1287 H 0.53419 0.88046 0.19114 0.0
H1288 H 0.49867 0.88148 0.03852 0.0
C1289 C 0.44553 0.85176 0.14994 0.0
C1290 C 0.49323 0.84757 0.18024 0.0
C1291 C 0.42925 0.85107 0.18145 0.0
C1292 C 0.5575 0.88262 0.13384 0.0
C1293 C 0.53988 0.87848 0.14344 0.0
C1294 C 0.49722 0.87174 0.07723 0.0
C1295 C 0.46107 0.85394 0.18588 0.0
C1296 C 0.47833 0.85589 0.15347 0.0
C1297 C 0.52986 0.8711 0.09301 0.0
C1298 C 0.51209 0.86443 0.10766 0.0
H1299 H 0.44364 0.85593 0.33754 0.0
H1300 H 0.47181 0.85718 0.28278 0.0
H1301 H 0.46911 0.87417 0.07878 0.0
H1302 H 0.56097 0.87044 0.97456 0.0
H1303 H 0.52975 0.86342 0.99177 0.0
C1304 C 0.87923 0.94884 0.6297 0.0
C1305 C 0.87724 0.93527 0.58287 0.0
C1306 C 0.87876 0.96689 0.61155 0.0
C1307 C 0.88707 0.99724 0.47755 0.0
H1308 H 0.85563 0.02978 0.56778 0.0
C1309 C 0.87945 0.07127 0.39919 0.0
C1310 C 0.87719 0.08413 0.44837 0.0
C1311 C 0.87881 0.05294 0.41368 0.0
C1312 C 0.86469 0.02096 0.54267 0.0
H1313 H 0.87346 0.92989 0.48036 0.0
H1314 H 0.87308 0.96158 0.44848 0.0
H1315 H 0.85621 -0.0019 0.5975 0.0
H1316 H 0.87278 0.08784 0.55154 0.0
H1317 H 0.87233 0.05604 0.57716 0.0
H1318 H 0.89609 0.02007 0.42428 0.0
C1319 C 0.87484 0.95816 0.49917 0.0
C1320 C 0.86492 0.00281 0.55954 0.0
C1321 C 0.87499 0.94008 0.51745 0.0
C1322 C 0.87437 0.07829 0.51235 0.0
C1323 C 0.874 0.06 0.52699 0.0
C1324 C 0.88706 0.01546 0.46133 0.0
C1325 C 0.8766 0.97169 0.54616 0.0
C1326 C 0.87614 0.99082 0.52723 0.0
C1327 C 0.87617 0.04707 0.47785 0.0
C1328 C 0.8759 0.02758 0.49383 0.0
H1329 H 0.88089 0.94552 0.68053 0.0
H1330 H 0.88025 0.97711 0.64855 0.0
H1331 H 0.89595 0.98823 0.45237 0.0
H1332 H 0.88156 0.07533 0.34934 0.0
H1333 H 0.88023 0.04341 0.37437 0.0
C1334 C 0.92784 0.14235 0.5662 0.0
C1335 C 0.92662 0.142 0.49805 0.0
C1336 C 0.9443 0.14282 0.59655 0.0
C1337 C 0.9911 0.15287 0.56539 0.0
H1338 H 0.00098 0.11557 0.69187 0.0
C1339 C 0.05859 0.12211 0.59056 0.0
C1340 C 0.06643 0.12165 0.65235 0.0
C1341 C 0.04091 0.12642 0.58368 0.0
C1342 C -0.0017 0.12627 0.65763 0.0
H1343 H 0.94166 0.14248 0.40846 0.0
H1344 H 0.97016 0.14328 0.4612 0.0
H1345 H 0.97055 0.12113 0.65774 0.0
H1346 H 0.06151 0.12444 0.75573 0.0
H1347 H 0.03017 0.13164 0.74317 0.0
H1348 H 0.01888 0.15732 0.56243 0.0
C1349 C 0.95846 0.1433 0.49125 0.0
C1350 C 0.98095 0.12948 0.6382 0.0
C1351 C 0.94211 0.14268 0.46101 0.0
C1352 C 0.05588 0.12474 0.70744 0.0
C1353 C 0.03801 0.12887 0.70042 0.0
C1354 C 0.00837 0.1496 0.58447 0.0
C1355 C 0.95975 0.14319 0.55925 0.0
C1356 C 0.97731 0.14232 0.58993 0.0
C1357 C 0.03057 0.1302 0.63829 0.0
C1358 C 0.01216 0.13582 0.62876 0.0
H1359 H 0.91614 0.14184 0.59614 0.0
H1360 H 0.94495 0.14276 0.64906 0.0
H1361 H 0.98861 0.16309 0.52911 0.0
H1362 H 0.06621 0.1197 0.547 0.0
H1363 H 0.03532 0.12702 0.53532 0.0
C1364 C 0.11701 0.91625 0.5144 0.0
C1365 C 0.11384 0.9105 0.45046 0.0
C1366 C 0.11743 0.93452 0.52926 0.0
C1367 C 0.12486 0.97907 0.46274 0.0
H1368 H 0.0937 0.99529 0.59974 0.0
C1369 C 0.11365 0.0544 0.51468 0.0
C1370 C 0.1112 0.05961 0.57951 0.0
C1371 C 0.11422 0.03622 0.49806 0.0
C1372 C 0.10271 0.991 0.56212 0.0
H1373 H 0.10922 0.91946 0.35163 0.0
H1374 H 0.11037 0.95146 0.37771 0.0
H1375 H 0.09513 0.96347 0.57303 0.0
H1376 H 0.10788 0.04998 0.67807 0.0
H1377 H 0.10954 0.01835 0.64966 0.0
H1378 H 0.13288 0.00645 0.45279 0.0
C1379 C 0.11237 0.94173 0.41613 0.0
C1380 C 0.10345 0.97278 0.5467 0.0
C1381 C 0.11165 0.92344 0.40137 0.0
C1382 C 0.10954 0.04635 0.62753 0.0
C1383 C 0.11041 0.0282 0.61111 0.0
C1384 C 0.12436 0.9973 0.47885 0.0
C1385 C 0.11499 0.94739 0.48036 0.0
C1386 C 0.11449 0.96668 0.49687 0.0
C1387 C 0.11264 0.02288 0.54611 0.0
C1388 C 0.11325 0.0035 0.52871 0.0
H1389 H 0.11871 0.90664 0.55339 0.0
H1390 H 0.11959 0.93861 0.57909 0.0
H1391 H 0.13357 0.97461 0.42435 0.0
H1392 H 0.11489 0.06437 0.47666 0.0
H1393 H 0.11566 0.03266 0.4474 0.0
C1394 C 0.92876 0.87322 0.59694 0.0
C1395 C 0.92099 0.87354 0.65884 0.0
C1396 C 0.94653 0.86934 0.58982 0.0
C1397 C 0.9892 0.87062 0.6633 0.0
H1398 H -0.00034 0.83451 0.53303 0.0
C1399 C 0.0599 0.85539 0.57024 0.0
C1400 C 0.06108 0.85595 0.50208 0.0
C1401 C 0.04348 0.85506 0.60075 0.0
C1402 C -0.00305 0.84454 0.56981 0.0
H1403 H 0.92609 0.87088 0.76217 0.0
H1404 H 0.95757 0.8644 0.74917 0.0
H1405 H 0.96932 0.83924 0.56743 0.0
H1406 H 0.04594 0.85629 0.41265 0.0
H1407 H 0.01748 0.85568 0.46573 0.0
H1408 H 0.01682 0.87654 0.66299 0.0
C1409 C 0.94962 0.86696 0.70653 0.0
C1410 C 0.97965 0.84721 0.58952 0.0
C1411 C 0.93166 0.87068 0.71379 0.0
C1412 C 0.04554 0.85588 0.46518 0.0
C1413 C 0.02921 0.85538 0.49558 0.0
C1414 C 0.0066 0.86798 0.64334 0.0
C1415 C 0.95702 0.86583 0.64429 0.0
C1416 C 0.97556 0.86075 0.63441 0.0
C1417 C 0.028 0.85503 0.56356 0.0
C1418 C 0.01048 0.8554 0.59447 0.0
H1419 H 0.92105 0.87546 0.55347 0.0
H1420 H 0.95206 0.86889 0.54138 0.0
H1421 H 0.98628 0.88114 0.69799 0.0
H1422 H 0.07164 0.85546 0.60006 0.0
H1423 H 0.04286 0.85479 0.65325 0.0
C1424 C 0.35968 0.31111 0.22402 0.0
C1425 C 0.36033 0.32197 0.16821 0.0
C1426 C 0.35808 0.29251 0.21861 0.0
C1427 C 0.34559 0.2562 0.10519 0.0
H1428 H 0.37574 0.22711 0.21492 0.0
C1429 C 0.35945 0.18128 0.05632 0.0
C1430 C 0.36033 0.16962 0.10996 0.0
C1431 C 0.35783 0.19978 0.06536 0.0
C1432 C 0.36704 0.23503 0.18461 0.0
H1433 H 0.35945 0.32174 0.06286 0.0
H1434 H 0.3569 0.28925 0.05356 0.0
H1435 H 0.37584 0.25964 0.22694 0.0
H1436 H 0.35981 0.16832 0.21526 0.0
H1437 H 0.3569 0.20062 0.2308 0.0
H1438 H 0.33704 0.23152 0.06215 0.0
C1439 C 0.35741 0.29517 0.10152 0.0
C1440 C 0.3671 0.25367 0.19148 0.0
C1441 C 0.35898 0.3138 0.10689 0.0
C1442 C 0.35923 0.17689 0.17283 0.0
C1443 C 0.35765 0.19541 0.18181 0.0
C1444 C 0.34556 0.23753 0.09824 0.0
C1445 C 0.35712 0.28431 0.15731 0.0
C1446 C 0.35646 0.26447 0.15157 0.0
C1447 C 0.35708 0.20705 0.12818 0.0
C1448 C 0.35638 0.22677 0.13758 0.0
H1449 H 0.36057 0.31693 0.27209 0.0
H1450 H 0.35762 0.28453 0.26252 0.0
H1451 H 0.33706 0.26414 0.07437 0.0
H1452 H 0.36027 0.17618 0.00719 0.0
H1453 H 0.35763 0.20843 0.0231 0.0
C1454 C 0.17974 0.63903 0.79337 0.0
C1455 C 0.16838 0.63515 0.84522 0.0
C1456 C 0.19793 0.63909 0.80292 0.0
C1457 C 0.23208 0.64634 0.92085 0.0
H1458 H 0.26007 0.61255 0.82171 0.0
C1459 C 0.30544 0.63437 0.97754 0.0
C1460 C 0.31669 0.63041 0.92553 0.0
C1461 C 0.28727 0.63528 0.96783 0.0
C1462 C 0.25256 0.62232 0.84898 0.0
H1463 H 0.16693 0.6289 0.94792 0.0
H1464 H 0.19879 0.62956 0.96484 0.0
H1465 H 0.22847 0.61443 0.80299 0.0
H1466 H 0.31799 0.62485 0.8224 0.0
H1467 H 0.2865 0.62729 0.80467 0.0
H1468 H 0.25606 0.65477 0.96542 0.0
C1469 C 0.19359 0.63227 0.91687 0.0
C1470 C 0.23446 0.62329 0.83841 0.0
C1471 C 0.17543 0.63181 0.90706 0.0
C1472 C 0.30956 0.62768 0.86354 0.0
C1473 C 0.29147 0.62897 0.85352 0.0
C1474 C 0.25025 0.64567 0.93053 0.0
C1475 C 0.20494 0.63571 0.86472 0.0
C1476 C 0.22411 0.63522 0.87451 0.0
C1477 C 0.28005 0.63263 0.90561 0.0
C1478 C 0.26072 0.63357 0.89496 0.0
H1479 H 0.1746 0.64162 0.74522 0.0
H1480 H 0.20653 0.64181 0.76217 0.0
H1481 H 0.22426 0.6557 0.94894 0.0
H1482 H 0.31065 0.63644 0.02591 0.0
H1483 H 0.27891 0.6378 0.00936 0.0
C1484 C 0.61943 0.81781 0.14877 0.0
C1485 C 0.6192 0.82552 0.08648 0.0
C1486 C 0.6198 0.79918 0.15629 0.0
C1487 C 0.60984 0.75701 0.0699 0.0
H1488 H 0.63982 0.73566 0.20127 0.0
C1489 C 0.62075 0.68045 0.08962 0.0
C1490 C 0.62025 0.6731 0.15248 0.0
C1491 C 0.62097 0.69905 0.08071 0.0
C1492 C 0.63127 0.74145 0.16476 0.0
H1493 H 0.61921 0.81961 0.9832 0.0
H1494 H 0.62006 0.78718 0.99654 0.0
H1495 H 0.63943 0.7682 0.1877 0.0
H1496 H 0.6196 0.67963 0.25527 0.0
H1497 H 0.61989 0.71198 0.23946 0.0
H1498 H 0.60167 0.73024 0.04702 0.0
C1499 C 0.61973 0.79554 0.03952 0.0
C1500 C 0.63103 0.76007 0.15705 0.0
C1501 C 0.61935 0.81416 0.03194 0.0
C1502 C 0.62006 0.68479 0.20613 0.0
C1503 C 0.62031 0.70335 0.19716 0.0
C1504 C 0.6101 0.73839 0.07756 0.0
C1505 C 0.61994 0.78785 0.10174 0.0
C1506 C 0.62028 0.76806 0.10966 0.0
C1507 C 0.62074 0.71068 0.13441 0.0
C1508 C 0.62077 0.73042 0.12521 0.0
H1509 H 0.61924 0.82614 0.19186 0.0
H1510 H 0.61972 0.79364 0.20489 0.0
H1511 H 0.60123 0.76279 0.03358 0.0
H1512 H 0.62093 0.67186 0.0472 0.0
H1513 H 0.62148 0.70433 0.03176 0.0
C1514 C 0.67936 0.36111 0.87098 0.0
C1515 C 0.67155 0.35834 0.93194 0.0
C1516 C 0.69745 0.35885 0.86298 0.0
C1517 C 0.73841 0.36357 0.94555 0.0
H1518 H 0.75782 0.33126 0.81644 0.0
C1519 C 0.81311 0.35632 0.91537 0.0
C1520 C 0.81968 0.35419 0.85225 0.0
C1521 C 0.79511 0.3549 0.92741 0.0
C1522 C 0.75264 0.34054 0.85209 0.0
H1523 H 0.67639 0.35108 0.03228 0.0
H1524 H 0.70828 0.34778 0.01857 0.0
H1525 H 0.726 0.33273 0.83226 0.0
H1526 H 0.81278 0.34875 0.75219 0.0
H1527 H 0.78122 0.3472 0.77229 0.0
H1528 H 0.76469 0.37225 0.96333 0.0
C1529 C 0.70028 0.35141 0.97707 0.0
C1530 C 0.73445 0.34124 0.86138 0.0
C1531 C 0.68211 0.35328 0.98479 0.0
C1532 C 0.808 0.35036 0.80139 0.0
C1533 C 0.78993 0.34935 0.81314 0.0
C1534 C 0.75654 0.36317 0.9354 0.0
C1535 C 0.70803 0.35415 0.91608 0.0
C1536 C 0.72724 0.35278 0.90809 0.0
C1537 C 0.78323 0.35176 0.87627 0.0
C1538 C 0.76392 0.35168 0.88842 0.0
H1539 H 0.67148 0.36489 0.82934 0.0
H1540 H 0.70323 0.36113 0.81563 0.0
H1541 H 0.73304 0.37272 0.98132 0.0
H1542 H 0.8219 0.35903 0.95561 0.0
H1543 H 0.79055 0.35635 0.9769 0.0
C1544 C 0.86635 0.68115 0.54211 0.0
C1545 C 0.8668 0.66988 0.59687 0.0
C1546 C 0.86574 0.69976 0.54925 0.0
C1547 C 0.85451 0.73556 0.66559 0.0
H1548 H 0.88333 0.765 0.55238 0.0
C1549 C 0.86495 0.81153 0.70627 0.0
C1550 C 0.86488 0.82269 0.65117 0.0
C1551 C 0.86455 0.79288 0.69965 0.0
C1552 C 0.87504 0.75698 0.58381 0.0
H1553 H 0.86693 0.66942 0.70224 0.0
H1554 H 0.86603 0.70199 0.71455 0.0
H1555 H 0.88409 0.73243 0.54161 0.0
H1556 H 0.86404 0.82292 0.54581 0.0
H1557 H 0.86321 0.79036 0.53448 0.0
H1558 H 0.84554 0.76016 0.70801 0.0
C1559 C 0.86594 0.69635 0.6661 0.0
C1560 C 0.87549 0.73832 0.57769 0.0
C1561 C 0.86654 0.67769 0.65901 0.0
C1562 C 0.86416 0.81475 0.58931 0.0
C1563 C 0.86379 0.79609 0.58275 0.0
C1564 C 0.85408 0.75424 0.67177 0.0
C1565 C 0.86559 0.70758 0.61126 0.0
C1566 C 0.86521 0.7274 0.61842 0.0
C1567 C 0.86409 0.78496 0.63784 0.0
C1568 C 0.86433 0.76514 0.63088 0.0
H1569 H 0.86647 0.67564 0.49346 0.0
H1570 H 0.86521 0.70804 0.50605 0.0
H1571 H 0.84625 0.72752 0.69708 0.0
H1572 H 0.86554 0.81715 0.7547 0.0
H1573 H 0.865 0.78465 0.74299 0.0
C1574 C 0.8063 0.13503 0.46173 0.0
C1575 C 0.81759 0.13133 0.40947 0.0
C1576 C 0.78812 0.13549 0.45231 0.0
C1577 C 0.75447 0.14488 0.33469 0.0
H1578 H 0.72474 0.1124 0.43264 0.0
C1579 C 0.68041 0.13756 0.27959 0.0
C1580 C 0.66908 0.13404 0.33176 0.0
C1581 C 0.69862 0.1374 0.28876 0.0
C1582 C 0.73277 0.12181 0.40569 0.0
H1583 H 0.81887 0.12558 0.30635 0.0
H1584 H 0.78703 0.1269 0.28973 0.0
H1585 H 0.75643 0.11232 0.45078 0.0
H1586 H 0.6677 0.12822 0.43471 0.0
H1587 H 0.69932 0.12882 0.45154 0.0
H1588 H 0.73095 0.15493 0.29117 0.0
C1589 C 0.79229 0.1292 0.33789 0.0
C1590 C 0.75091 0.12165 0.41589 0.0
C1591 C 0.81044 0.12835 0.34753 0.0
C1592 C 0.67619 0.13074 0.39345 0.0
C1593 C 0.69434 0.13096 0.40293 0.0
C1594 C 0.73629 0.14533 0.32538 0.0
C1595 C 0.78103 0.13266 0.39028 0.0
C1596 C 0.76186 0.13312 0.38027 0.0
C1597 C 0.70582 0.13409 0.3506 0.0
C1598 C 0.72519 0.13375 0.36061 0.0
H1599 H 0.81151 0.13735 0.50996 0.0
H1600 H 0.77959 0.13822 0.49326 0.0
H1601 H 0.76276 0.15392 0.30704 0.0
H1602 H 0.67522 0.14005 0.23145 0.0
H1603 H 0.70702 0.13957 0.24707 0.0
C1604 C 0.11568 0.31718 0.64682 0.0
C1605 C 0.11616 0.325 0.58472 0.0
C1606 C 0.1165 0.29854 0.65404 0.0
C1607 C 0.10912 0.25626 0.56524 0.0
H1608 H 0.13886 0.23567 0.69894 0.0
C1609 C 0.12261 0.18024 0.58056 0.0
C1610 C 0.12184 0.17246 0.64268 0.0
C1611 C 0.12247 0.19889 0.57328 0.0
C1612 C 0.13038 0.24123 0.66176 0.0
H1613 H 0.11776 0.31927 0.48146 0.0
H1614 H 0.1193 0.28686 0.4943 0.0
H1615 H 0.13712 0.26823 0.68726 0.0
H1616 H 0.12052 0.17826 0.74593 0.0
H1617 H 0.12014 0.21071 0.73298 0.0
H1618 H 0.10233 0.22929 0.53985 0.0
C1619 C 0.11813 0.29514 0.53732 0.0
C1620 C 0.12936 0.25986 0.65515 0.0
C1621 C 0.11735 0.31374 0.53006 0.0
C1622 C 0.12119 0.18376 0.69733 0.0
C1623 C 0.12106 0.20239 0.68999 0.0
C1624 C 0.11013 0.23764 0.57187 0.0
C1625 C 0.11775 0.28734 0.59935 0.0
C1626 C 0.11873 0.26757 0.60681 0.0
C1627 C 0.12156 0.21015 0.62791 0.0
C1628 C 0.12076 0.22992 0.62021 0.0
H1629 H 0.1147 0.32542 0.68998 0.0
H1630 H 0.11596 0.29289 0.70243 0.0
H1631 H 0.10061 0.26182 0.52815 0.0
H1632 H 0.12316 0.17196 0.53739 0.0
H1633 H 0.12311 0.20449 0.52483 0.0
C1634 C 0.18147 0.85529 0.46624 0.0
C1635 C 0.17056 0.85919 0.41307 0.0
C1636 C 0.19967 0.85423 0.45809 0.0
C1637 C 0.23407 0.8444 0.34338 0.0
H1638 H 0.26291 0.8778 0.44098 0.0
C1639 C 0.30774 0.85434 0.28737 0.0
C1640 C 0.31903 0.85858 0.33901 0.0
C1641 C 0.28958 0.85356 0.29721 0.0
C1642 C 0.25515 0.86811 0.41425 0.0
H1643 H 0.16991 0.86446 0.30953 0.0
H1644 H 0.20178 0.86209 0.29515 0.0
H1645 H 0.23121 0.87726 0.45805 0.0
H1646 H 0.32042 0.86461 0.44177 0.0
H1647 H 0.28891 0.86239 0.45981 0.0
H1648 H 0.2579 0.83477 0.30085 0.0
C1649 C 0.19622 0.86011 0.34303 0.0
C1650 C 0.237 0.86792 0.42385 0.0
C1651 C 0.17806 0.86156 0.35138 0.0
C1652 C 0.31195 0.86157 0.40091 0.0
C1653 C 0.29386 0.86041 0.41109 0.0
C1654 C 0.25229 0.8443 0.33467 0.0
C1655 C 0.20713 0.85663 0.39644 0.0
C1656 C 0.22635 0.85617 0.38813 0.0
C1657 C 0.2824 0.85663 0.35922 0.0
C1658 C 0.26306 0.85627 0.36964 0.0
H1659 H 0.17598 0.85343 0.51429 0.0
H1660 H 0.20793 0.8515 0.49981 0.0
H1661 H 0.22602 0.83516 0.31563 0.0
H1662 H 0.31292 0.85205 0.23908 0.0
H1663 H 0.28119 0.85092 0.25585 0.0
C1664 C 0.17644 0.12469 0.83747 0.0
C1665 C 0.17348 0.12725 0.77088 0.0
C1666 C 0.19359 0.12366 0.86151 0.0
C1667 C 0.23946 0.13532 0.81938 0.0
H1668 H 0.25083 0.10154 0.95642 0.0
C1669 C 0.31054 0.12236 0.90607 0.0
C1670 C 0.3129 0.12305 0.97362 0.0
C1671 C 0.2936 0.12203 0.87978 0.0
C1672 C 0.24779 0.11108 0.9183 0.0
H1673 H 0.18608 0.13041 0.67698 0.0
H1674 H 0.21589 0.12823 0.71868 0.0
H1675 H 0.2209 0.10272 0.91365 0.0
H1676 H 0.29951 0.12346 0.06669 0.0
H1677 H 0.27001 0.12281 0.02065 0.0
H1678 H 0.26642 0.14355 0.82385 0.0
C1679 C 0.20504 0.12745 0.75263 0.0
C1680 C 0.23067 0.11182 0.89403 0.0
C1681 C 0.18794 0.12863 0.72872 0.0
C1682 C 0.29809 0.12304 0.01439 0.0
C1683 C 0.28121 0.12253 0.98814 0.0
C1684 C 0.2566 0.13447 0.84329 0.0
C1685 C 0.20807 0.12503 0.8193 0.0
C1686 C 0.22629 0.12403 0.84457 0.0
C1687 C 0.27881 0.12217 0.92065 0.0
C1688 C 0.26088 0.12243 0.89323 0.0
H1689 H 0.16553 0.12362 0.87108 0.0
H1690 H 0.1955 0.12204 0.91326 0.0
H1691 H 0.23646 0.14508 0.782 0.0
H1692 H 0.32174 0.12232 0.87355 0.0
H1693 H 0.29206 0.12162 0.82754 0.0
C1694 C 0.07939 0.79326 0.3197 0.0
C1695 C 0.08198 0.80991 0.28901 0.0
C1696 C 0.07659 0.77777 0.28296 0.0
C1697 C 0.06489 0.7616 0.11843 0.0
H1698 H 0.09234 0.71993 0.1685 0.0
C1699 C 0.08001 0.70265 0.94541 0.0
C1700 C 0.08037 0.68523 0.97163 0.0
C1701 C 0.07761 0.71752 0.98573 0.0
C1702 C 0.08435 0.73133 0.15442 0.0
H1703 H 0.08316 0.82346 0.19583 0.0
H1704 H 0.07854 0.7964 0.13183 0.0
H1705 H 0.09268 0.74658 0.23666 0.0
H1706 H 0.07778 0.66968 0.06025 0.0
H1707 H 0.07344 0.69562 0.13037 0.0
H1708 H 0.0569 0.7464 0.03524 0.0
C1709 C 0.07844 0.79534 0.18425 0.0
C1710 C 0.08454 0.74661 0.19353 0.0
C1711 C 0.08122 0.81084 0.22096 0.0
C1712 C 0.07771 0.68294 0.03861 0.0
C1713 C 0.07529 0.6978 0.07884 0.0
C1714 C 0.06471 0.74629 0.07921 0.0
C1715 C 0.07635 0.77861 0.21482 0.0
C1716 C 0.07498 0.76198 0.17561 0.0
C1717 C 0.0755 0.71526 0.053 0.0
C1718 C 0.0746 0.73108 0.09648 0.0
H1719 H 0.07981 0.79211 0.37208 0.0
H1720 H 0.07478 0.7651 0.30791 0.0
H1721 H 0.0572 0.77317 0.10382 0.0
H1722 H 0.08206 0.70486 0.894 0.0
H1723 H 0.07803 0.73082 0.96449 0.0
C1724 C 0.68672 0.86627 0.00552 0.0
C1725 C 0.67265 0.86795 0.9617 0.0
C1726 C 0.70402 0.86667 0.98347 0.0
C1727 C 0.73123 0.88058 0.84383 0.0
H1728 H 0.76562 0.84873 0.92224 0.0
C1729 C 0.7996 0.8673 0.73466 0.0
C1730 C 0.81399 0.86797 0.77742 0.0
C1731 C 0.78247 0.86797 0.7584 0.0
C1732 C 0.75618 0.85781 0.90047 0.0
H1733 H 0.6656 0.87125 0.86044 0.0
H1734 H 0.69593 0.87141 0.82145 0.0
H1735 H 0.73521 0.84807 0.95981 0.0
H1736 H 0.82181 0.86992 0.8784 0.0
H1737 H 0.79165 0.87084 0.92014 0.0
H1738 H 0.75222 0.88995 0.78337 0.0
C1739 C 0.69357 0.87018 0.87308 0.0
C1740 C 0.73878 0.85748 0.92194 0.0
C1741 C 0.67621 0.86997 0.89528 0.0
C1742 C 0.81094 0.86936 0.84443 0.0
C1743 C 0.79374 0.86982 0.86827 0.0
C1744 C 0.74859 0.88078 0.82195 0.0
C1745 C 0.70766 0.86856 0.91701 0.0
C1746 C 0.72611 0.86886 0.89386 0.0
C1747 C 0.77939 0.86916 0.82535 0.0
C1748 C 0.76119 0.86939 0.85006 0.0
H1749 H 0.68439 0.8649 0.05716 0.0
H1750 H 0.71456 0.86573 0.01872 0.0
H1751 H 0.72187 0.88974 0.82201 0.0
H1752 H 0.80154 0.86632 0.6827 0.0
H1753 H 0.7716 0.86728 0.72443 0.0
C1754 C 0.90526 0.20309 0.31349 0.0
C1755 C 0.90318 0.18628 0.28344 0.0
C1756 C 0.90821 0.21847 0.27629 0.0
C1757 C 0.92192 0.23391 0.11296 0.0
H1758 H 0.89521 0.27648 0.15831 0.0
C1759 C 0.91096 0.29371 0.93849 0.0
C1760 C 0.91068 0.31107 0.96524 0.0
C1761 C 0.9125 0.27867 0.97865 0.0
C1762 C 0.90299 0.26481 0.14556 0.0
H1763 H 0.90282 0.17239 0.19083 0.0
H1764 H 0.90768 0.19927 0.12598 0.0
H1765 H 0.89317 0.24986 0.2263 0.0
H1766 H 0.9127 0.32631 0.05473 0.0
H1767 H 0.91558 0.30009 0.12454 0.0
H1768 H 0.93144 0.24884 0.0313 0.0
C1769 C 0.9073 0.20053 0.17832 0.0
C1770 C 0.90182 0.24954 0.18456 0.0
C1771 C 0.90439 0.18514 0.2155 0.0
C1772 C 0.91274 0.31311 0.03262 0.0
C1773 C 0.9143 0.29809 0.07269 0.0
C1774 C 0.92307 0.2492 0.07382 0.0
C1775 C 0.90909 0.21739 0.20825 0.0
C1776 C 0.91115 0.23387 0.16846 0.0
C1777 C 0.91381 0.2807 0.04631 0.0
C1778 C 0.91351 0.26477 0.08949 0.0
H1779 H 0.90447 0.20442 0.36575 0.0
H1780 H 0.90976 0.23124 0.30085 0.0
H1781 H 0.92946 0.22212 0.09977 0.0
H1782 H 0.90933 0.29167 0.88677 0.0
H1783 H 0.91193 0.26543 0.95692 0.0
C1784 C 0.17687 0.37192 0.4106 0.0
C1785 C 0.17223 0.3686 0.47541 0.0
C1786 C 0.19454 0.37325 0.39283 0.0
C1787 C 0.23933 0.36132 0.44787 0.0
H1788 H 0.25318 0.39582 0.31643 0.0
C1789 C 0.31166 0.372 0.36732 0.0
C1790 C 0.31401 0.37097 0.29981 0.0
C1791 C 0.29473 0.3732 0.3935 0.0
C1792 C 0.24947 0.38615 0.35325 0.0
H1793 H 0.1824 0.3643 0.57266 0.0
H1794 H 0.21317 0.36698 0.54186 0.0
H1795 H 0.22269 0.39489 0.35315 0.0
H1796 H 0.30061 0.37092 0.2067 0.0
H1797 H 0.27121 0.37319 0.25236 0.0
H1798 H 0.2662 0.35261 0.44766 0.0
C1799 C 0.20322 0.36817 0.50448 0.0
C1800 C 0.23202 0.38553 0.37398 0.0
C1801 C 0.18557 0.36668 0.52213 0.0
C1802 C 0.29922 0.37158 0.25897 0.0
C1803 C 0.28239 0.37302 0.28501 0.0
C1804 C 0.25683 0.36205 0.42749 0.0
C1805 C 0.20791 0.37147 0.43964 0.0
C1806 C 0.22668 0.37288 0.42066 0.0
C1807 C 0.27997 0.3737 0.35244 0.0
C1808 C 0.26196 0.37425 0.37917 0.0
H1809 H 0.16687 0.37341 0.37351 0.0
H1810 H 0.19772 0.37548 0.34224 0.0
H1811 H 0.23562 0.35129 0.48337 0.0
H1812 H 0.32286 0.37156 0.39983 0.0
H1813 H 0.29315 0.37377 0.4457 0.0
C1814 C 0.40548 0.79112 0.44641 0.0
C1815 C 0.40502 0.80854 0.47251 0.0
C1816 C 0.40708 0.77621 0.48717 0.0
C1817 C 0.39813 0.76243 0.65482 0.0
H1818 H 0.42613 0.72069 0.60995 0.0
C1819 C 0.40318 0.70129 0.82484 0.0
C1820 C 0.40148 0.68438 0.79528 0.0
C1821 C 0.40551 0.71669 0.78711 0.0
C1822 C 0.41817 0.73221 0.62289 0.0
H1823 H 0.40651 0.82405 0.56157 0.0
H1824 H 0.40945 0.79806 0.63243 0.0
H1825 H 0.42695 0.74725 0.5404 0.0
H1826 H 0.40122 0.6703 0.70302 0.0
H1827 H 0.40506 0.69718 0.63732 0.0
H1828 H 0.38909 0.74736 0.73654 0.0
C1829 C 0.40831 0.7959 0.58061 0.0
C1830 C 0.41864 0.7474 0.58311 0.0
C1831 C 0.40671 0.81079 0.53994 0.0
C1832 C 0.4025 0.68314 0.72733 0.0
C1833 C 0.40482 0.69853 0.68964 0.0
C1834 C 0.39765 0.74726 0.6945 0.0
C1835 C 0.40825 0.77844 0.55478 0.0
C1836 C 0.40852 0.76262 0.59842 0.0
C1837 C 0.40618 0.7155 0.71908 0.0
C1838 C 0.40754 0.73193 0.67872 0.0
H1839 H 0.40416 0.78893 0.39467 0.0
H1840 H 0.40682 0.76291 0.46588 0.0
H1841 H 0.38996 0.77383 0.66735 0.0
H1842 H 0.4025 0.7027 0.8771 0.0
H1843 H 0.40673 0.72956 0.81124 0.0
C1844 C 0.68722 0.63285 0.24222 0.0
C1845 C 0.67292 0.63143 0.28507 0.0
C1846 C 0.7044 0.63247 0.26559 0.0
C1847 C 0.73073 0.6186 0.40735 0.0
H1848 H 0.76611 0.64922 0.32859 0.0
C1849 C 0.7999 0.62883 0.51482 0.0
C1850 C 0.81409 0.62747 0.47136 0.0
C1851 C 0.78267 0.62911 0.49188 0.0
C1852 C 0.75637 0.64049 0.35055 0.0
H1853 H 0.66532 0.62868 0.38599 0.0
H1854 H 0.69544 0.62851 0.42724 0.0
H1855 H 0.73575 0.65072 0.29057 0.0
H1856 H 0.82143 0.62535 0.36995 0.0
H1857 H 0.79113 0.62608 0.32967 0.0
H1858 H 0.7514 0.60867 0.46819 0.0
C1859 C 0.69335 0.62954 0.37538 0.0
C1860 C 0.73901 0.64132 0.32883 0.0
C1861 C 0.67612 0.62974 0.35188 0.0
C1862 C 0.81073 0.62641 0.40447 0.0
C1863 C 0.79345 0.62691 0.38145 0.0
C1864 C 0.74806 0.61791 0.42948 0.0
C1865 C 0.70768 0.63085 0.33241 0.0
C1866 C 0.72601 0.63032 0.35679 0.0
C1867 C 0.7793 0.62822 0.42505 0.0
C1868 C 0.76102 0.62881 0.4011 0.0
H1869 H 0.68518 0.63398 0.19034 0.0
H1870 H 0.71512 0.63315 0.23106 0.0
H1871 H 0.72111 0.60973 0.42915 0.0
H1872 H 0.80208 0.62958 0.56671 0.0
H1873 H 0.77198 0.63028 0.52637 0.0
C1874 C 0.58319 0.18686 0.53065 0.0
C1875 C 0.58419 0.18826 0.46274 0.0
C1876 C 0.58121 0.20221 0.56885 0.0
C1877 C 0.58976 0.25066 0.56506 0.0
H1878 H 0.56076 0.25133 0.71991 0.0
C1879 C 0.58311 0.31417 0.72111 0.0
C1880 C 0.58476 0.31175 0.78847 0.0
C1881 C 0.58095 0.29941 0.68019 0.0
C1882 C 0.56898 0.25129 0.677 0.0
H1883 H 0.5834 0.20681 0.38149 0.0
H1884 H 0.57976 0.23357 0.44823 0.0
H1885 H 0.56062 0.22488 0.64974 0.0
H1886 H 0.58499 0.29201 0.86595 0.0
H1887 H 0.5814 0.2662 0.79429 0.0
H1888 H 0.59836 0.2769 0.59263 0.0
C1889 C 0.58075 0.22062 0.47194 0.0
C1890 C 0.5689 0.23617 0.63686 0.0
C1891 C 0.58274 0.20528 0.43372 0.0
C1892 C 0.58372 0.29431 0.81425 0.0
C1893 C 0.58157 0.27954 0.77324 0.0
C1894 C 0.58983 0.26576 0.60511 0.0
C1895 C 0.58019 0.21927 0.53994 0.0
C1896 C 0.57941 0.23565 0.58074 0.0
C1897 C 0.58042 0.28192 0.7057 0.0
C1898 C 0.57956 0.26619 0.66176 0.0
H1899 H 0.58428 0.17394 0.55452 0.0
H1900 H 0.58103 0.20075 0.62113 0.0
H1901 H 0.59823 0.25056 0.52281 0.0
H1902 H 0.58373 0.32745 0.69974 0.0
H1903 H 0.57982 0.30169 0.62844 0.0
loop_
_geom_bond_atom_site_label_1
_geom_bond_atom_site_label_2
_geom_bond_distance
_geom_bond_site_symmetry_2
_ccdc_geom_bond_type
Co0 O2 2.143 . S
Co0 O8 2.074 . S
Co0 O11 2.093 . S
Co0 O24 2.097 . S
Co0 N41 2.151 . S
Co0 N49 2.214 . S
Co1 O2 2.160 1_556 S
Co1 O7 2.058 1_556 S
Co1 O17 2.057 . S
Co1 O32 2.037 1_556 S
Co1 N36 2.145 . S
Co1 N57 2.257 . S
O2 Co0 2.143 . S
O2 Co1 2.160 1_554 S
C3 O4 1.278 . S
C3 O11 1.224 . S
O4 C3 1.278 . S
C5 O6 1.245 1_556 S
C5 O17 1.232 . S
O6 C5 1.245 1_554 S
O7 Co1 2.058 1_554 S
O7 C33 1.269 . S
O8 Co0 2.074 . S
O8 C33 1.257 . S
H9 C34 0.930 . S
H10 C40 0.930 . S
O11 Co0 2.093 . S
O11 C3 1.224 . S
H12 C44 0.929 . S
H13 C46 0.930 . S
H14 C47 0.930 . S
H15 C45 0.929 . S
H16 C48 0.928 . S
O17 Co1 2.057 . S
O17 C5 1.232 . S
H18 C37 0.929 . S
H19 C38 0.929 . S
H20 C50 0.931 . S
H21 C42 0.929 . S
H22 C51 0.930 . S
H23 C43 0.931 . S
O24 Co0 2.097 . S
O24 C52 1.214 . S
H25 C53 0.929 . S
H26 C54 0.929 . S
H27 C55 0.930 . S
H28 C56 0.929 . S
H29 C58 0.930 . S
H30 C35 0.930 . S
H31 C39 0.930 . S
O32 Co1 2.037 1_554 S
O32 C52 1.234 . S
C33 O7 1.269 . S
C33 O8 1.257 . S
C34 H9 0.930 . S
C34 C37 1.388 . S
C34 C39 1.418 . S
C35 H30 0.930 . S
C35 C38 1.404 . S
C35 C39 1.353 . S
N36 Co1 2.145 . S
N36 C37 1.397 . S
N36 C38 1.334 . S
C37 H18 0.929 . S
C37 C34 1.388 . S
C37 N36 1.397 . S
C38 H19 0.929 . S
C38 C35 1.404 . S
C38 N36 1.334 . S
C39 H31 0.930 . S
C39 C34 1.418 . S
C39 C35 1.353 . S
C40 H10 0.930 . S
C40 N41 1.330 . S
C40 C42 1.446 . S
N41 Co0 2.151 . S
N41 C40 1.330 . S
N41 C45 1.418 . S
C42 H21 0.929 . S
C42 C40 1.446 . S
C42 C43 1.332 . S
C43 H23 0.931 . S
C43 C42 1.332 . S
C43 C44 1.267 . S
C44 H12 0.929 . S
C44 C43 1.267 . S
C44 C45 1.251 . S
C45 H15 0.929 . S
C45 N41 1.418 . S
C45 C44 1.251 . S
C46 H13 0.930 . S
C46 C48 1.406 . S
C46 C51 1.261 . S
C47 H14 0.930 . S
C47 N49 1.325 . S
C47 C50 1.357 . S
C48 H16 0.928 . S
C48 C46 1.406 . S
C48 N49 1.261 . S
N49 Co0 2.214 . S
N49 C47 1.325 . S
N49 C48 1.261 . S
C50 H20 0.931 . S
C50 C47 1.357 . S
C50 C51 1.312 . S
C51 H22 0.930 . S
C51 C46 1.261 . S
C51 C50 1.312 . S
C52 O24 1.214 . S
C52 O32 1.234 . S
C53 H25 0.929 . S
C53 C56 1.391 . S
C53 C58 1.391 . S
C54 H26 0.929 . S
C54 C55 1.390 . S
C54 N57 1.391 . S
C55 H27 0.930 . S
C55 C54 1.390 . S
C55 C56 1.392 . S
C56 H28 0.929 . S
C56 C53 1.391 . S
C56 C55 1.392 . S
N57 Co1 2.257 . S
N57 C54 1.391 . S
N57 C58 1.388 . S
C58 H29 0.930 . S
C58 C53 1.391 . S
C58 N57 1.388 . S
Co59 O61 2.143 . S
Co59 O67 2.074 . S
Co59 O70 2.093 . S
Co59 O83 2.097 . S
Co59 N100 2.151 . S
Co59 N108 2.214 . S
Co60 O61 2.160 . S
Co60 O66 2.058 . S
Co60 O76 2.057 . S
Co60 O91 2.037 . S
Co60 N95 2.145 1_556 S
Co60 N116 2.257 1_556 S
O61 Co59 2.143 . S
O61 Co60 2.160 . S
C62 O63 1.278 . S
C62 O70 1.224 . S
O63 C62 1.278 . S
C64 O65 1.245 . S
C64 O76 1.232 . S
O65 C64 1.245 . S
O66 Co60 2.058 . S
O66 C92 1.269 . S
O67 Co59 2.074 . S
O67 C92 1.257 . S
H68 C93 0.930 . S
H69 C99 0.930 . S
O70 Co59 2.093 . S
O70 C62 1.224 . S
H71 C103 0.929 . S
H72 C105 0.930 . S
H73 C106 0.930 . S
H74 C104 0.929 . S
H75 C107 0.928 . S
O76 Co60 2.057 . S
O76 C64 1.232 . S
H77 C96 0.929 . S
H78 C97 0.929 . S
H79 C109 0.931 . S
H80 C101 0.929 . S
H81 C110 0.930 . S
H82 C102 0.931 . S
O83 Co59 2.097 . S
O83 C111 1.214 . S
H84 C112 0.929 . S
H85 C113 0.929 . S
H86 C114 0.930 . S
H87 C115 0.929 . S
H88 C117 0.930 . S
H89 C94 0.930 . S
H90 C98 0.930 . S
O91 Co60 2.037 . S
O91 C111 1.234 . S
C92 O66 1.269 . S
C92 O67 1.257 . S
C93 H68 0.930 . S
C93 C96 1.388 1_554 S
C93 C98 1.418 . S
C94 H89 0.930 . S
C94 C97 1.404 . S
C94 C98 1.353 . S
N95 Co60 2.145 1_554 S
N95 C96 1.397 1_554 S
N95 C97 1.334 . S
C96 H77 0.929 . S
C96 C93 1.388 1_556 S
C96 N95 1.397 1_556 S
C97 H78 0.929 . S
C97 C94 1.404 . S
C97 N95 1.334 . S
C98 H90 0.930 . S
C98 C93 1.418 . S
C98 C94 1.353 . S
C99 H69 0.930 . S
C99 N100 1.330 . S
C99 C101 1.446 . S
N100 Co59 2.151 . S
N100 C99 1.330 . S
N100 C104 1.418 . S
C101 H80 0.929 . S
C101 C99 1.446 . S
C101 C102 1.332 . S
C102 H82 0.931 . S
C102 C101 1.332 . S
C102 C103 1.267 . S
C103 H71 0.929 . S
C103 C102 1.267 . S
C103 C104 1.251 . S
C104 H74 0.929 . S
C104 N100 1.418 . S
C104 C103 1.251 . S
C105 H72 0.930 . S
C105 C107 1.406 . S
C105 C110 1.261 . S
C106 H73 0.930 . S
C106 N108 1.325 . S
C106 C109 1.357 . S
C107 H75 0.928 . S
C107 C105 1.406 . S
C107 N108 1.261 . S
N108 Co59 2.214 . S
N108 C106 1.325 . S
N108 C107 1.261 . S
C109 H79 0.931 . S
C109 C106 1.357 . S
C109 C110 1.312 . S
C110 H81 0.930 . S
C110 C105 1.261 . S
C110 C109 1.312 . S
C111 O83 1.214 . S
C111 O91 1.234 . S
C112 H84 0.929 . S
C112 C115 1.391 . S
C112 C117 1.391 . S
C113 H85 0.929 . S
C113 C114 1.390 . S
C113 N116 1.391 . S
C114 H86 0.930 . S
C114 C113 1.390 . S
C114 C115 1.392 . S
C115 H87 0.929 . S
C115 C112 1.391 . S
C115 C114 1.392 . S
N116 Co60 2.257 1_554 S
N116 C113 1.391 . S
N116 C117 1.388 . S
C117 H88 0.930 . S
C117 C112 1.391 . S
C117 N116 1.388 . S
Co118 O120 2.143 . S
Co118 O126 2.074 . S
Co118 O129 2.093 . S
Co118 O142 2.097 . S
Co118 N159 2.151 . S
Co118 N167 2.214 . S
Co119 O120 2.160 1_556 S
Co119 O125 2.058 1_556 S
Co119 O135 2.057 . S
Co119 O150 2.037 1_556 S
Co119 N154 2.145 . S
Co119 N175 2.257 . S
O120 Co118 2.143 . S
O120 Co119 2.160 1_554 S
C121 O122 1.278 . S
C121 O129 1.224 . S
O122 C121 1.278 . S
C123 O124 1.245 1_556 S
C123 O135 1.232 . S
O124 C123 1.245 1_554 S
O125 Co119 2.058 1_554 S
O125 C151 1.269 . S
O126 Co118 2.074 . S
O126 C151 1.257 . S
H127 C152 0.930 . S
H128 C158 0.930 . S
O129 Co118 2.093 . S
O129 C121 1.224 . S
H130 C162 0.929 . S
H131 C164 0.930 . S
H132 C165 0.930 . S
H133 C163 0.929 . S
H134 C166 0.928 . S
O135 Co119 2.057 . S
O135 C123 1.232 . S
H136 C155 0.929 . S
H137 C156 0.929 . S
H138 C168 0.931 . S
H139 C160 0.929 . S
H140 C169 0.930 . S
H141 C161 0.931 . S
O142 Co118 2.097 . S
O142 C170 1.214 . S
H143 C171 0.929 . S
H144 C172 0.929 . S
H145 C173 0.930 . S
H146 C174 0.929 . S
H147 C176 0.930 . S
H148 C153 0.930 . S
H149 C157 0.930 . S
O150 Co119 2.037 1_554 S
O150 C170 1.234 . S
C151 O125 1.269 . S
C151 O126 1.257 . S
C152 H127 0.930 . S
C152 C155 1.388 . S
C152 C157 1.418 . S
C153 H148 0.930 . S
C153 C156 1.404 . S
C153 C157 1.353 . S
N154 Co119 2.145 . S
N154 C155 1.397 . S
N154 C156 1.334 . S
C155 H136 0.929 . S
C155 C152 1.388 . S
C155 N154 1.397 . S
C156 H137 0.929 . S
C156 C153 1.404 . S
C156 N154 1.334 . S
C157 H149 0.930 . S
C157 C152 1.418 . S
C157 C153 1.353 . S
C158 H128 0.930 . S
C158 N159 1.330 . S
C158 C160 1.446 . S
N159 Co118 2.151 . S
N159 C158 1.330 . S
N159 C163 1.418 . S
C160 H139 0.929 . S
C160 C158 1.446 . S
C160 C161 1.332 . S
C161 H141 0.931 . S
C161 C160 1.332 . S
C161 C162 1.267 . S
C162 H130 0.929 . S
C162 C161 1.267 . S
C162 C163 1.251 . S
C163 H133 0.929 . S
C163 N159 1.418 . S
C163 C162 1.251 . S
C164 H131 0.930 . S
C164 C166 1.406 . S
C164 C169 1.261 . S
C165 H132 0.930 . S
C165 N167 1.325 . S
C165 C168 1.357 . S
C166 H134 0.928 . S
C166 C164 1.406 . S
C166 N167 1.261 . S
N167 Co118 2.214 . S
N167 C165 1.325 . S
N167 C166 1.261 . S
C168 H138 0.931 . S
C168 C165 1.357 . S
C168 C169 1.312 . S
C169 H140 0.930 . S
C169 C164 1.261 . S
C169 C168 1.312 . S
C170 O142 1.214 . S
C170 O150 1.234 . S
C171 H143 0.929 . S
C171 C174 1.391 . S
C171 C176 1.391 . S
C172 H144 0.929 . S
C172 C173 1.390 . S
C172 N175 1.391 . S
C173 H145 0.930 . S
C173 C172 1.390 . S
C173 C174 1.392 . S
C174 H146 0.929 . S
C174 C171 1.391 . S
C174 C173 1.392 . S
N175 Co119 2.257 . S
N175 C172 1.391 . S
N175 C176 1.388 . S
C176 H147 0.930 . S
C176 C171 1.391 . S
C176 N175 1.388 . S
Co177 O179 2.143 . S
Co177 O185 2.074 . S
Co177 O188 2.093 . S
Co177 O201 2.097 . S
Co177 N218 2.151 . S
Co177 N226 2.214 . S
Co178 O179 2.160 . S
Co178 O184 2.058 . S
Co178 O194 2.057 . S
Co178 O209 2.037 . S
Co178 N213 2.145 1_556 S
Co178 N234 2.257 1_556 S
O179 Co177 2.143 . S
O179 Co178 2.160 . S
C180 O181 1.278 . S
C180 O188 1.224 . S
O181 C180 1.278 . S
C182 O183 1.245 . S
C182 O194 1.232 . S
O183 C182 1.245 . S
O184 Co178 2.058 . S
O184 C210 1.269 . S
O185 Co177 2.074 . S
O185 C210 1.257 . S
H186 C211 0.930 . S
H187 C217 0.930 . S
O188 Co177 2.093 . S
O188 C180 1.224 . S
H189 C221 0.929 . S
H190 C223 0.930 . S
H191 C224 0.930 . S
H192 C222 0.929 . S
H193 C225 0.928 . S
O194 Co178 2.057 . S
O194 C182 1.232 . S
H195 C214 0.929 . S
H196 C215 0.929 . S
H197 C227 0.931 . S
H198 C219 0.929 . S
H199 C228 0.930 . S
H200 C220 0.931 . S
O201 Co177 2.097 . S
O201 C229 1.214 . S
H202 C230 0.929 . S
H203 C231 0.929 . S
H204 C232 0.930 . S
H205 C233 0.929 . S
H206 C235 0.930 . S
H207 C212 0.930 . S
H208 C216 0.930 . S
O209 Co178 2.037 . S
O209 C229 1.234 . S
C210 O184 1.269 . S
C210 O185 1.257 . S
C211 H186 0.930 . S
C211 C214 1.388 1_554 S
C211 C216 1.418 . S
C212 H207 0.930 . S
C212 C215 1.404 . S
C212 C216 1.353 . S
N213 Co178 2.145 1_554 S
N213 C214 1.397 1_554 S
N213 C215 1.334 . S
C214 H195 0.929 . S
C214 C211 1.388 1_556 S
C214 N213 1.397 1_556 S
C215 H196 0.929 . S
C215 C212 1.404 . S
C215 N213 1.334 . S
C216 H208 0.930 . S
C216 C211 1.418 . S
C216 C212 1.353 . S
C217 H187 0.930 . S
C217 N218 1.330 . S
C217 C219 1.446 . S
N218 Co177 2.151 . S
N218 C217 1.330 . S
N218 C222 1.418 . S
C219 H198 0.929 . S
C219 C217 1.446 . S
C219 C220 1.332 . S
C220 H200 0.931 . S
C220 C219 1.332 . S
C220 C221 1.267 . S
C221 H189 0.929 . S
C221 C220 1.267 . S
C221 C222 1.251 . S
C222 H192 0.929 . S
C222 N218 1.418 . S
C222 C221 1.251 . S
C223 H190 0.930 . S
C223 C225 1.406 . S
C223 C228 1.261 . S
C224 H191 0.930 . S
C224 N226 1.325 . S
C224 C227 1.357 . S
C225 H193 0.928 . S
C225 C223 1.406 . S
C225 N226 1.261 . S
N226 Co177 2.214 . S
N226 C224 1.325 . S
N226 C225 1.261 . S
C227 H197 0.931 . S
C227 C224 1.357 . S
C227 C228 1.312 . S
C228 H199 0.930 . S
C228 C223 1.261 . S
C228 C227 1.312 . S
C229 O201 1.214 . S
C229 O209 1.234 . S
C230 H202 0.929 . S
C230 C233 1.391 . S
C230 C235 1.391 . S
C231 H203 0.929 . S
C231 C232 1.390 . S
C231 N234 1.391 . S
C232 H204 0.930 . S
C232 C231 1.390 . S
C232 C233 1.392 . S
C233 H205 0.929 . S
C233 C230 1.391 . S
C233 C232 1.392 . S
N234 Co178 2.257 1_554 S
N234 C231 1.391 . S
N234 C235 1.388 . S
C235 H206 0.930 . S
C235 C230 1.391 . S
C235 N234 1.388 . S
Co236 O238 2.143 . S
Co236 O244 2.074 . S
Co236 O247 2.093 . S
Co236 O260 2.097 . S
Co236 N277 2.151 . S
Co236 N285 2.214 . S
Co237 O238 2.160 . S
Co237 O243 2.058 . S
Co237 O253 2.057 . S
Co237 O268 2.037 . S
Co237 N272 2.145 . S
Co237 N293 2.257 . S
O238 Co236 2.143 . S
O238 Co237 2.160 . S
C239 O240 1.278 . S
C239 O247 1.224 . S
O240 C239 1.278 . S
C241 O242 1.245 . S
C241 O253 1.232 . S
O242 C241 1.245 . S
O243 Co237 2.058 . S
O243 C269 1.269 . S
O244 Co236 2.074 . S
O244 C269 1.257 . S
H245 C270 0.930 . S
H246 C276 0.930 . S
O247 Co236 2.093 . S
O247 C239 1.224 . S
H248 C280 0.929 . S
H249 C282 0.930 . S
H250 C283 0.930 . S
H251 C281 0.929 . S
H252 C284 0.928 . S
O253 Co237 2.057 . S
O253 C241 1.232 . S
H254 C273 0.929 . S
H255 C274 0.929 . S
H256 C286 0.931 . S
H257 C278 0.929 . S
H258 C287 0.930 . S
H259 C279 0.931 . S
O260 Co236 2.097 . S
O260 C288 1.214 . S
H261 C289 0.929 . S
H262 C290 0.929 . S
H263 C291 0.930 . S
H264 C292 0.929 . S
H265 C294 0.930 . S
H266 C271 0.930 . S
H267 C275 0.930 . S
O268 Co237 2.037 . S
O268 C288 1.234 . S
C269 O243 1.269 . S
C269 O244 1.257 . S
C270 H245 0.930 . S
C270 C273 1.388 . S
C270 C275 1.418 . S
C271 H266 0.930 . S
C271 C274 1.404 . S
C271 C275 1.353 . S
N272 Co237 2.145 . S
N272 C273 1.397 . S
N272 C274 1.334 . S
C273 H254 0.929 . S
C273 C270 1.388 . S
C273 N272 1.397 . S
C274 H255 0.929 . S
C274 C271 1.404 . S
C274 N272 1.334 . S
C275 H267 0.930 . S
C275 C270 1.418 . S
C275 C271 1.353 . S
C276 H246 0.930 . S
C276 N277 1.330 . S
C276 C278 1.446 . S
N277 Co236 2.151 . S
N277 C276 1.330 . S
N277 C281 1.418 1_554 S
C278 H257 0.929 . S
C278 C276 1.446 . S
C278 C279 1.332 1_554 S
C279 H259 0.931 . S
C279 C278 1.332 1_556 S
C279 C280 1.267 . S
C280 H248 0.929 . S
C280 C279 1.267 . S
C280 C281 1.251 . S
C281 H251 0.929 . S
C281 N277 1.418 1_556 S
C281 C280 1.251 . S
C282 H249 0.930 . S
C282 C284 1.406 . S
C282 C287 1.261 . S
C283 H250 0.930 . S
C283 N285 1.325 . S
C283 C286 1.357 1_554 S
C284 H252 0.928 . S
C284 C282 1.406 . S
C284 N285 1.261 1_556 S
N285 Co236 2.214 . S
N285 C283 1.325 . S
N285 C284 1.261 1_554 S
C286 H256 0.931 . S
C286 C283 1.357 1_556 S
C286 C287 1.312 . S
C287 H258 0.930 . S
C287 C282 1.261 . S
C287 C286 1.312 . S
C288 O260 1.214 . S
C288 O268 1.234 . S
C289 H261 0.929 . S
C289 C292 1.391 . S
C289 C294 1.391 . S
C290 H262 0.929 . S
C290 C291 1.390 . S
C290 N293 1.391 . S
C291 H263 0.930 . S
C291 C290 1.390 . S
C291 C292 1.392 . S
C292 H264 0.929 . S
C292 C289 1.391 . S
C292 C291 1.392 . S
N293 Co237 2.257 . S
N293 C290 1.391 . S
N293 C294 1.388 . S
C294 H265 0.930 . S
C294 C289 1.391 . S
C294 N293 1.388 . S
Co295 O297 2.143 . S
Co295 O303 2.074 . S
Co295 O306 2.093 . S
Co295 O319 2.097 . S
Co295 N336 2.151 1_556 S
Co295 N344 2.214 1_556 S
Co296 O297 2.160 . S
Co296 O302 2.058 . S
Co296 O312 2.057 . S
Co296 O327 2.037 . S
Co296 N331 2.145 . S
Co296 N352 2.257 . S
O297 Co295 2.143 . S
O297 Co296 2.160 . S
C298 O299 1.278 . S
C298 O306 1.224 . S
O299 C298 1.278 . S
C300 O301 1.245 . S
C300 O312 1.232 . S
O301 C300 1.245 . S
O302 Co296 2.058 . S
O302 C328 1.269 . S
O303 Co295 2.074 . S
O303 C328 1.257 . S
H304 C329 0.930 . S
H305 C335 0.930 . S
O306 Co295 2.093 . S
O306 C298 1.224 . S
H307 C339 0.929 . S
H308 C341 0.930 . S
H309 C342 0.930 . S
H310 C340 0.929 . S
H311 C343 0.928 . S
O312 Co296 2.057 . S
O312 C300 1.232 . S
H313 C332 0.929 . S
H314 C333 0.929 . S
H315 C345 0.931 . S
H316 C337 0.929 . S
H317 C346 0.930 . S
H318 C338 0.931 . S
O319 Co295 2.097 . S
O319 C347 1.214 . S
H320 C348 0.929 . S
H321 C349 0.929 . S
H322 C350 0.930 . S
H323 C351 0.929 . S
H324 C353 0.930 . S
H325 C330 0.930 . S
H326 C334 0.930 . S
O327 Co296 2.037 . S
O327 C347 1.234 . S
C328 O302 1.269 . S
C328 O303 1.257 . S
C329 H304 0.930 . S
C329 C332 1.388 . S
C329 C334 1.418 . S
C330 H325 0.930 . S
C330 C333 1.404 . S
C330 C334 1.353 . S
N331 Co296 2.145 . S
N331 C332 1.397 . S
N331 C333 1.334 . S
C332 H313 0.929 . S
C332 C329 1.388 . S
C332 N331 1.397 . S
C333 H314 0.929 . S
C333 C330 1.404 . S
C333 N331 1.334 . S
C334 H326 0.930 . S
C334 C329 1.418 . S
C334 C330 1.353 . S
C335 H305 0.930 . S
C335 N336 1.330 1_556 S
C335 C337 1.446 1_556 S
N336 Co295 2.151 1_554 S
N336 C335 1.330 1_554 S
N336 C340 1.418 . S
C337 H316 0.929 . S
C337 C335 1.446 1_554 S
C337 C338 1.332 . S
C338 H318 0.931 . S
C338 C337 1.332 . S
C338 C339 1.267 . S
C339 H307 0.929 . S
C339 C338 1.267 . S
C339 C340 1.251 . S
C340 H310 0.929 . S
C340 N336 1.418 . S
C340 C339 1.251 . S
C341 H308 0.930 . S
C341 C343 1.406 . S
C341 C346 1.261 . S
C342 H309 0.930 . S
C342 N344 1.325 . S
C342 C345 1.357 . S
C343 H311 0.928 . S
C343 C341 1.406 . S
C343 N344 1.261 . S
N344 Co295 2.214 1_554 S
N344 C342 1.325 . S
N344 C343 1.261 . S
C345 H315 0.931 . S
C345 C342 1.357 . S
C345 C346 1.312 . S
C346 H317 0.930 . S
C346 C341 1.261 . S
C346 C345 1.312 . S
C347 O319 1.214 . S
C347 O327 1.234 . S
C348 H320 0.929 . S
C348 C351 1.391 . S
C348 C353 1.391 . S
C349 H321 0.929 . S
C349 C350 1.390 . S
C349 N352 1.391 . S
C350 H322 0.930 . S
C350 C349 1.390 . S
C350 C351 1.392 . S
C351 H323 0.929 . S
C351 C348 1.391 . S
C351 C350 1.392 . S
N352 Co296 2.257 . S
N352 C349 1.391 . S
N352 C353 1.388 . S
C353 H324 0.930 . S
C353 C348 1.391 . S
C353 N352 1.388 . S
Co354 O356 2.143 . S
Co354 O362 2.074 . S
Co354 O365 2.093 . S
Co354 O378 2.097 . S
Co354 N395 2.151 . S
Co354 N403 2.214 . S
Co355 O356 2.160 . S
Co355 O361 2.058 . S
Co355 O371 2.057 . S
Co355 O386 2.037 . S
Co355 N390 2.145 . S
Co355 N411 2.257 . S
O356 Co354 2.143 . S
O356 Co355 2.160 . S
C357 O358 1.278 . S
C357 O365 1.224 . S
O358 C357 1.278 . S
C359 O360 1.245 . S
C359 O371 1.232 . S
O360 C359 1.245 . S
O361 Co355 2.058 . S
O361 C387 1.269 . S
O362 Co354 2.074 . S
O362 C387 1.257 . S
H363 C388 0.930 . S
H364 C394 0.930 . S
O365 Co354 2.093 . S
O365 C357 1.224 . S
H366 C398 0.929 . S
H367 C400 0.930 . S
H368 C401 0.930 . S
H369 C399 0.929 . S
H370 C402 0.928 . S
O371 Co355 2.057 . S
O371 C359 1.232 . S
H372 C391 0.929 . S
H373 C392 0.929 . S
H374 C404 0.931 . S
H375 C396 0.929 . S
H376 C405 0.930 . S
H377 C397 0.931 . S
O378 Co354 2.097 . S
O378 C406 1.214 . S
H379 C407 0.929 . S
H380 C408 0.929 . S
H381 C409 0.930 . S
H382 C410 0.929 . S
H383 C412 0.930 . S
H384 C389 0.930 . S
H385 C393 0.930 . S
O386 Co355 2.037 . S
O386 C406 1.234 . S
C387 O361 1.269 . S
C387 O362 1.257 . S
C388 H363 0.930 . S
C388 C391 1.388 . S
C388 C393 1.418 . S
C389 H384 0.930 . S
C389 C392 1.404 . S
C389 C393 1.353 . S
N390 Co355 2.145 . S
N390 C391 1.397 . S
N390 C392 1.334 . S
C391 H372 0.929 . S
C391 C388 1.388 . S
C391 N390 1.397 . S
C392 H373 0.929 . S
C392 C389 1.404 . S
C392 N390 1.334 . S
C393 H385 0.930 . S
C393 C388 1.418 . S
C393 C389 1.353 . S
C394 H364 0.930 . S
C394 N395 1.330 . S
C394 C396 1.446 . S
N395 Co354 2.151 . S
N395 C394 1.330 . S
N395 C399 1.418 1_554 S
C396 H375 0.929 . S
C396 C394 1.446 . S
C396 C397 1.332 1_554 S
C397 H377 0.931 . S
C397 C396 1.332 1_556 S
C397 C398 1.267 . S
C398 H366 0.929 . S
C398 C397 1.267 . S
C398 C399 1.251 . S
C399 H369 0.929 . S
C399 N395 1.418 1_556 S
C399 C398 1.251 . S
C400 H367 0.930 . S
C400 C402 1.406 . S
C400 C405 1.261 . S
C401 H368 0.930 . S
C401 N403 1.325 . S
C401 C404 1.357 1_554 S
C402 H370 0.928 . S
C402 C400 1.406 . S
C402 N403 1.261 1_556 S
N403 Co354 2.214 . S
N403 C401 1.325 . S
N403 C402 1.261 1_554 S
C404 H374 0.931 . S
C404 C401 1.357 1_556 S
C404 C405 1.312 . S
C405 H376 0.930 . S
C405 C400 1.261 . S
C405 C404 1.312 . S
C406 O378 1.214 . S
C406 O386 1.234 . S
C407 H379 0.929 . S
C407 C410 1.391 . S
C407 C412 1.391 . S
C408 H380 0.929 . S
C408 C409 1.390 . S
C408 N411 1.391 . S
C409 H381 0.930 . S
C409 C408 1.390 . S
C409 C410 1.392 . S
C410 H382 0.929 . S
C410 C407 1.391 . S
C410 C409 1.392 . S
N411 Co355 2.257 . S
N411 C408 1.391 . S
N411 C412 1.388 . S
C412 H383 0.930 . S
C412 C407 1.391 . S
C412 N411 1.388 . S
Co413 O415 2.143 . S
Co413 O421 2.074 . S
Co413 O424 2.093 . S
Co413 O437 2.097 . S
Co413 N454 2.151 1_556 S
Co413 N462 2.214 1_556 S
Co414 O415 2.160 . S
Co414 O420 2.058 . S
Co414 O430 2.057 . S
Co414 O445 2.037 . S
Co414 N449 2.145 . S
Co414 N470 2.257 . S
O415 Co413 2.143 . S
O415 Co414 2.160 . S
C416 O417 1.278 . S
C416 O424 1.224 . S
O417 C416 1.278 . S
C418 O419 1.245 . S
C418 O430 1.232 . S
O419 C418 1.245 . S
O420 Co414 2.058 . S
O420 C446 1.269 . S
O421 Co413 2.074 . S
O421 C446 1.257 . S
H422 C447 0.930 . S
H423 C453 0.930 . S
O424 Co413 2.093 . S
O424 C416 1.224 . S
H425 C457 0.929 . S
H426 C459 0.930 . S
H427 C460 0.930 . S
H428 C458 0.929 . S
H429 C461 0.928 . S
O430 Co414 2.057 . S
O430 C418 1.232 . S
H431 C450 0.929 . S
H432 C451 0.929 . S
H433 C463 0.931 . S
H434 C455 0.929 . S
H435 C464 0.930 . S
H436 C456 0.931 . S
O437 Co413 2.097 . S
O437 C465 1.214 . S
H438 C466 0.929 . S
H439 C467 0.929 . S
H440 C468 0.930 . S
H441 C469 0.929 . S
H442 C471 0.930 . S
H443 C448 0.930 . S
H444 C452 0.930 . S
O445 Co414 2.037 . S
O445 C465 1.234 . S
C446 O420 1.269 . S
C446 O421 1.257 . S
C447 H422 0.930 . S
C447 C450 1.388 . S
C447 C452 1.418 . S
C448 H443 0.930 . S
C448 C451 1.404 . S
C448 C452 1.353 . S
N449 Co414 2.145 . S
N449 C450 1.397 . S
N449 C451 1.334 . S
C450 H431 0.929 . S
C450 C447 1.388 . S
C450 N449 1.397 . S
C451 H432 0.929 . S
C451 C448 1.404 . S
C451 N449 1.334 . S
C452 H444 0.930 . S
C452 C447 1.418 . S
C452 C448 1.353 . S
C453 H423 0.930 . S
C453 N454 1.330 1_556 S
C453 C455 1.446 1_556 S
N454 Co413 2.151 1_554 S
N454 C453 1.330 1_554 S
N454 C458 1.418 . S
C455 H434 0.929 . S
C455 C453 1.446 1_554 S
C455 C456 1.332 . S
C456 H436 0.931 . S
C456 C455 1.332 . S
C456 C457 1.267 . S
C457 H425 0.929 . S
C457 C456 1.267 . S
C457 C458 1.251 . S
C458 H428 0.929 . S
C458 N454 1.418 . S
C458 C457 1.251 . S
C459 H426 0.930 . S
C459 C461 1.406 . S
C459 C464 1.261 . S
C460 H427 0.930 . S
C460 N462 1.325 . S
C460 C463 1.357 . S
C461 H429 0.928 . S
C461 C459 1.406 . S
C461 N462 1.261 . S
N462 Co413 2.214 1_554 S
N462 C460 1.325 . S
N462 C461 1.261 . S
C463 H433 0.931 . S
C463 C460 1.357 . S
C463 C464 1.312 . S
C464 H435 0.930 . S
C464 C459 1.261 . S
C464 C463 1.312 . S
C465 O437 1.214 . S
C465 O445 1.234 . S
C466 H438 0.929 . S
C466 C469 1.391 . S
C466 C471 1.391 . S
C467 H439 0.929 . S
C467 C468 1.390 . S
C467 N470 1.391 . S
C468 H440 0.930 . S
C468 C467 1.390 . S
C468 C469 1.392 . S
C469 H441 0.929 . S
C469 C466 1.391 . S
C469 C468 1.392 . S
N470 Co414 2.257 . S
N470 C467 1.391 . S
N470 C471 1.388 . S
C471 H442 0.930 . S
C471 C466 1.391 . S
C471 N470 1.388 . S
Co472 O474 2.143 . S
Co472 O480 2.074 . S
Co472 O483 2.093 . S
Co472 O496 2.097 . S
Co472 N513 2.151 . S
Co472 N521 2.214 . S
Co473 O474 2.160 . S
Co473 O479 2.058 . S
Co473 O489 2.057 . S
Co473 O504 2.037 . S
Co473 N508 2.145 . S
Co473 N529 2.257 . S
O474 Co472 2.143 . S
O474 Co473 2.160 . S
C475 O476 1.278 . S
C475 O483 1.224 . S
O476 C475 1.278 . S
C477 O478 1.245 . S
C477 O489 1.232 . S
O478 C477 1.245 . S
O479 Co473 2.058 . S
O479 C505 1.269 . S
O480 Co472 2.074 . S
O480 C505 1.257 . S
H481 C506 0.930 . S
H482 C512 0.930 . S
O483 Co472 2.093 . S
O483 C475 1.224 . S
H484 C516 0.929 . S
H485 C518 0.930 . S
H486 C519 0.930 . S
H487 C517 0.929 . S
H488 C520 0.928 . S
O489 Co473 2.057 . S
O489 C477 1.232 . S
H490 C509 0.929 . S
H491 C510 0.929 . S
H492 C522 0.931 . S
H493 C514 0.929 . S
H494 C523 0.930 . S
H495 C515 0.931 . S
O496 Co472 2.097 . S
O496 C524 1.214 . S
H497 C525 0.929 . S
H498 C526 0.929 . S
H499 C527 0.930 . S
H500 C528 0.929 . S
H501 C530 0.930 . S
H502 C507 0.930 . S
H503 C511 0.930 . S
O504 Co473 2.037 . S
O504 C524 1.234 . S
C505 O479 1.269 . S
C505 O480 1.257 . S
C506 H481 0.930 . S
C506 C509 1.388 . S
C506 C511 1.418 . S
C507 H502 0.930 . S
C507 C510 1.404 . S
C507 C511 1.353 . S
N508 Co473 2.145 . S
N508 C509 1.397 . S
N508 C510 1.334 . S
C509 H490 0.929 . S
C509 C506 1.388 . S
C509 N508 1.397 . S
C510 H491 0.929 . S
C510 C507 1.404 . S
C510 N508 1.334 . S
C511 H503 0.930 . S
C511 C506 1.418 . S
C511 C507 1.353 . S
C512 H482 0.930 . S
C512 N513 1.330 . S
C512 C514 1.446 . S
N513 Co472 2.151 . S
N513 C512 1.330 . S
N513 C517 1.418 . S
C514 H493 0.929 . S
C514 C512 1.446 . S
C514 C515 1.332 . S
C515 H495 0.931 . S
C515 C514 1.332 . S
C515 C516 1.267 . S
C516 H484 0.929 . S
C516 C515 1.267 . S
C516 C517 1.251 . S
C517 H487 0.929 . S
C517 N513 1.418 . S
C517 C516 1.251 . S
C518 H485 0.930 . S
C518 C520 1.406 . S
C518 C523 1.261 . S
C519 H486 0.930 . S
C519 N521 1.325 . S
C519 C522 1.357 . S
C520 H488 0.928 . S
C520 C518 1.406 . S
C520 N521 1.261 . S
N521 Co472 2.214 . S
N521 C519 1.325 . S
N521 C520 1.261 . S
C522 H492 0.931 . S
C522 C519 1.357 . S
C522 C523 1.312 . S
C523 H494 0.930 . S
C523 C518 1.261 . S
C523 C522 1.312 . S
C524 O496 1.214 . S
C524 O504 1.234 . S
C525 H497 0.929 . S
C525 C528 1.391 . S
C525 C530 1.391 . S
C526 H498 0.929 . S
C526 C527 1.390 . S
C526 N529 1.391 . S
C527 H499 0.930 . S
C527 C526 1.390 . S
C527 C528 1.392 . S
C528 H500 0.929 . S
C528 C525 1.391 . S
C528 C527 1.392 . S
N529 Co473 2.257 . S
N529 C526 1.391 . S
N529 C530 1.388 . S
C530 H501 0.930 . S
C530 C525 1.391 . S
C530 N529 1.388 . S
Co531 O533 2.143 . S
Co531 O539 2.074 . S
Co531 O542 2.093 . S
Co531 O555 2.097 . S
Co531 N572 2.151 . S
Co531 N580 2.214 . S
Co532 O533 2.160 . S
Co532 O538 2.058 . S
Co532 O548 2.057 . S
Co532 O563 2.037 . S
Co532 N567 2.145 . S
Co532 N588 2.257 . S
O533 Co531 2.143 . S
O533 Co532 2.160 . S
C534 O535 1.278 . S
C534 O542 1.224 . S
O535 C534 1.278 . S
C536 O537 1.245 . S
C536 O548 1.232 . S
O537 C536 1.245 . S
O538 Co532 2.058 . S
O538 C564 1.269 . S
O539 Co531 2.074 . S
O539 C564 1.257 . S
H540 C565 0.930 . S
H541 C571 0.930 . S
O542 Co531 2.093 . S
O542 C534 1.224 . S
H543 C575 0.929 . S
H544 C577 0.930 . S
H545 C578 0.930 . S
H546 C576 0.929 . S
H547 C579 0.928 . S
O548 Co532 2.057 . S
O548 C536 1.232 . S
H549 C568 0.929 . S
H550 C569 0.929 . S
H551 C581 0.931 . S
H552 C573 0.929 . S
H553 C582 0.930 . S
H554 C574 0.931 . S
O555 Co531 2.097 . S
O555 C583 1.214 . S
H556 C584 0.929 . S
H557 C585 0.929 . S
H558 C586 0.930 . S
H559 C587 0.929 . S
H560 C589 0.930 . S
H561 C566 0.930 . S
H562 C570 0.930 . S
O563 Co532 2.037 . S
O563 C583 1.234 . S
C564 O538 1.269 . S
C564 O539 1.257 . S
C565 H540 0.930 . S
C565 C568 1.388 . S
C565 C570 1.418 . S
C566 H561 0.930 . S
C566 C569 1.404 . S
C566 C570 1.353 . S
N567 Co532 2.145 . S
N567 C568 1.397 . S
N567 C569 1.334 . S
C568 H549 0.929 . S
C568 C565 1.388 . S
C568 N567 1.397 . S
C569 H550 0.929 . S
C569 C566 1.404 . S
C569 N567 1.334 . S
C570 H562 0.930 . S
C570 C565 1.418 . S
C570 C566 1.353 . S
C571 H541 0.930 . S
C571 N572 1.330 . S
C571 C573 1.446 . S
N572 Co531 2.151 . S
N572 C571 1.330 . S
N572 C576 1.418 . S
C573 H552 0.929 . S
C573 C571 1.446 . S
C573 C574 1.332 . S
C574 H554 0.931 . S
C574 C573 1.332 . S
C574 C575 1.267 . S
C575 H543 0.929 . S
C575 C574 1.267 . S
C575 C576 1.251 . S
C576 H546 0.929 . S
C576 N572 1.418 . S
C576 C575 1.251 . S
C577 H544 0.930 . S
C577 C579 1.406 . S
C577 C582 1.261 . S
C578 H545 0.930 . S
C578 N580 1.325 . S
C578 C581 1.357 . S
C579 H547 0.928 . S
C579 C577 1.406 . S
C579 N580 1.261 . S
N580 Co531 2.214 . S
N580 C578 1.325 . S
N580 C579 1.261 . S
C581 H551 0.931 . S
C581 C578 1.357 . S
C581 C582 1.312 . S
C582 H553 0.930 . S
C582 C577 1.261 . S
C582 C581 1.312 . S
C583 O555 1.214 . S
C583 O563 1.234 . S
C584 H556 0.929 . S
C584 C587 1.391 . S
C584 C589 1.391 . S
C585 H557 0.929 . S
C585 C586 1.390 . S
C585 N588 1.391 . S
C586 H558 0.930 . S
C586 C585 1.390 . S
C586 C587 1.392 . S
C587 H559 0.929 . S
C587 C584 1.391 . S
C587 C586 1.392 . S
N588 Co532 2.257 . S
N588 C585 1.391 . S
N588 C589 1.388 . S
C589 H560 0.930 . S
C589 C584 1.391 . S
C589 N588 1.388 . S
Co590 O592 2.143 . S
Co590 O598 2.074 . S
Co590 O601 2.093 . S
Co590 O614 2.097 . S
Co590 N631 2.151 . S
Co590 N639 2.214 . S
Co591 O592 2.160 . S
Co591 O597 2.058 . S
Co591 O607 2.057 . S
Co591 O622 2.037 . S
Co591 N626 2.145 . S
Co591 N647 2.257 . S
O592 Co590 2.143 . S
O592 Co591 2.160 . S
C593 O594 1.278 . S
C593 O601 1.224 . S
O594 C593 1.278 . S
C595 O596 1.245 . S
C595 O607 1.232 . S
O596 C595 1.245 . S
O597 Co591 2.058 . S
O597 C623 1.269 . S
O598 Co590 2.074 . S
O598 C623 1.257 . S
H599 C624 0.930 . S
H600 C630 0.930 . S
O601 Co590 2.093 . S
O601 C593 1.224 . S
H602 C634 0.929 . S
H603 C636 0.930 . S
H604 C637 0.930 . S
H605 C635 0.929 . S
H606 C638 0.928 . S
O607 Co591 2.057 . S
O607 C595 1.232 . S
H608 C627 0.929 . S
H609 C628 0.929 . S
H610 C640 0.931 . S
H611 C632 0.929 . S
H612 C641 0.930 . S
H613 C633 0.931 . S
O614 Co590 2.097 . S
O614 C642 1.214 . S
H615 C643 0.929 . S
H616 C644 0.929 . S
H617 C645 0.930 . S
H618 C646 0.929 . S
H619 C648 0.930 . S
H620 C625 0.930 . S
H621 C629 0.930 . S
O622 Co591 2.037 . S
O622 C642 1.234 . S
C623 O597 1.269 . S
C623 O598 1.257 . S
C624 H599 0.930 . S
C624 C627 1.388 . S
C624 C629 1.418 . S
C625 H620 0.930 . S
C625 C628 1.404 . S
C625 C629 1.353 . S
N626 Co591 2.145 . S
N626 C627 1.397 . S
N626 C628 1.334 . S
C627 H608 0.929 . S
C627 C624 1.388 . S
C627 N626 1.397 . S
C628 H609 0.929 . S
C628 C625 1.404 . S
C628 N626 1.334 . S
C629 H621 0.930 . S
C629 C624 1.418 . S
C629 C625 1.353 . S
C630 H600 0.930 . S
C630 N631 1.330 . S
C630 C632 1.446 . S
N631 Co590 2.151 . S
N631 C630 1.330 . S
N631 C635 1.418 . S
C632 H611 0.929 . S
C632 C630 1.446 . S
C632 C633 1.332 . S
C633 H613 0.931 . S
C633 C632 1.332 . S
C633 C634 1.267 . S
C634 H602 0.929 . S
C634 C633 1.267 . S
C634 C635 1.251 . S
C635 H605 0.929 . S
C635 N631 1.418 . S
C635 C634 1.251 . S
C636 H603 0.930 . S
C636 C638 1.406 . S
C636 C641 1.261 . S
C637 H604 0.930 . S
C637 N639 1.325 . S
C637 C640 1.357 . S
C638 H606 0.928 . S
C638 C636 1.406 . S
C638 N639 1.261 . S
N639 Co590 2.214 . S
N639 C637 1.325 . S
N639 C638 1.261 . S
C640 H610 0.931 . S
C640 C637 1.357 . S
C640 C641 1.312 . S
C641 H612 0.930 . S
C641 C636 1.261 . S
C641 C640 1.312 . S
C642 O614 1.214 . S
C642 O622 1.234 . S
C643 H615 0.929 . S
C643 C646 1.391 . S
C643 C648 1.391 . S
C644 H616 0.929 . S
C644 C645 1.390 . S
C644 N647 1.391 . S
C645 H617 0.930 . S
C645 C644 1.390 . S
C645 C646 1.392 . S
C646 H618 0.929 . S
C646 C643 1.391 . S
C646 C645 1.392 . S
N647 Co591 2.257 . S
N647 C644 1.391 . S
N647 C648 1.388 . S
C648 H619 0.930 . S
C648 C643 1.391 . S
C648 N647 1.388 . S
Co649 O651 2.143 . S
Co649 O657 2.074 . S
Co649 O660 2.093 . S
Co649 O673 2.097 . S
Co649 N690 2.151 . S
Co649 N698 2.214 . S
Co650 O651 2.160 . S
Co650 O656 2.058 . S
Co650 O666 2.057 . S
Co650 O681 2.037 . S
Co650 N685 2.145 . S
Co650 N706 2.257 . S
O651 Co649 2.143 . S
O651 Co650 2.160 . S
C652 O653 1.278 . S
C652 O660 1.224 . S
O653 C652 1.278 . S
C654 O655 1.245 . S
C654 O666 1.232 . S
O655 C654 1.245 . S
O656 Co650 2.058 . S
O656 C682 1.269 . S
O657 Co649 2.074 . S
O657 C682 1.257 . S
H658 C683 0.930 . S
H659 C689 0.930 . S
O660 Co649 2.093 . S
O660 C652 1.224 . S
H661 C693 0.929 . S
H662 C695 0.930 . S
H663 C696 0.930 . S
H664 C694 0.929 . S
H665 C697 0.928 . S
O666 Co650 2.057 . S
O666 C654 1.232 . S
H667 C686 0.929 . S
H668 C687 0.929 . S
H669 C699 0.931 . S
H670 C691 0.929 . S
H671 C700 0.930 . S
H672 C692 0.931 . S
O673 Co649 2.097 . S
O673 C701 1.214 . S
H674 C702 0.929 . S
H675 C703 0.929 . S
H676 C704 0.930 . S
H677 C705 0.929 . S
H678 C707 0.930 . S
H679 C684 0.930 . S
H680 C688 0.930 . S
O681 Co650 2.037 . S
O681 C701 1.234 . S
C682 O656 1.269 . S
C682 O657 1.257 . S
C683 H658 0.930 . S
C683 C686 1.388 . S
C683 C688 1.418 . S
C684 H679 0.930 . S
C684 C687 1.404 . S
C684 C688 1.353 . S
N685 Co650 2.145 . S
N685 C686 1.397 . S
N685 C687 1.334 . S
C686 H667 0.929 . S
C686 C683 1.388 . S
C686 N685 1.397 . S
C687 H668 0.929 . S
C687 C684 1.404 . S
C687 N685 1.334 . S
C688 H680 0.930 . S
C688 C683 1.418 . S
C688 C684 1.353 . S
C689 H659 0.930 . S
C689 N690 1.330 . S
C689 C691 1.446 . S
N690 Co649 2.151 . S
N690 C689 1.330 . S
N690 C694 1.418 . S
C691 H670 0.929 . S
C691 C689 1.446 . S
C691 C692 1.332 . S
C692 H672 0.931 . S
C692 C691 1.332 . S
C692 C693 1.267 . S
C693 H661 0.929 . S
C693 C692 1.267 . S
C693 C694 1.251 . S
C694 H664 0.929 . S
C694 N690 1.418 . S
C694 C693 1.251 . S
C695 H662 0.930 . S
C695 C697 1.406 . S
C695 C700 1.261 . S
C696 H663 0.930 . S
C696 N698 1.325 . S
C696 C699 1.357 . S
C697 H665 0.928 . S
C697 C695 1.406 . S
C697 N698 1.261 . S
N698 Co649 2.214 . S
N698 C696 1.325 . S
N698 C697 1.261 . S
C699 H669 0.931 . S
C699 C696 1.357 . S
C699 C700 1.312 . S
C700 H671 0.930 . S
C700 C695 1.261 . S
C700 C699 1.312 . S
C701 O673 1.214 . S
C701 O681 1.234 . S
C702 H674 0.929 . S
C702 C705 1.391 . S
C702 C707 1.391 . S
C703 H675 0.929 . S
C703 C704 1.390 . S
C703 N706 1.391 . S
C704 H676 0.930 . S
C704 C703 1.390 . S
C704 C705 1.392 . S
C705 H677 0.929 . S
C705 C702 1.391 . S
C705 C704 1.392 . S
N706 Co650 2.257 . S
N706 C703 1.391 . S
N706 C707 1.388 . S
C707 H678 0.930 . S
C707 C702 1.391 . S
C707 N706 1.388 . S
Co708 O710 2.143 . S
Co708 O716 2.074 . S
Co708 O719 2.093 . S
Co708 O732 2.097 . S
Co708 N749 2.151 . S
Co708 N757 2.214 . S
Co709 O710 2.160 . S
Co709 O715 2.058 . S
Co709 O725 2.057 . S
Co709 O740 2.037 . S
Co709 N744 2.145 . S
Co709 N765 2.257 . S
O710 Co708 2.143 . S
O710 Co709 2.160 . S
C711 O712 1.278 . S
C711 O719 1.224 . S
O712 C711 1.278 . S
C713 O714 1.245 . S
C713 O725 1.232 . S
O714 C713 1.245 . S
O715 Co709 2.058 . S
O715 C741 1.269 . S
O716 Co708 2.074 . S
O716 C741 1.257 . S
H717 C742 0.930 . S
H718 C748 0.930 . S
O719 Co708 2.093 . S
O719 C711 1.224 . S
H720 C752 0.929 . S
H721 C754 0.930 . S
H722 C755 0.930 . S
H723 C753 0.929 . S
H724 C756 0.928 . S
O725 Co709 2.057 . S
O725 C713 1.232 . S
H726 C745 0.929 . S
H727 C746 0.929 . S
H728 C758 0.931 . S
H729 C750 0.929 . S
H730 C759 0.930 . S
H731 C751 0.931 . S
O732 Co708 2.097 . S
O732 C760 1.214 . S
H733 C761 0.929 . S
H734 C762 0.929 . S
H735 C763 0.930 . S
H736 C764 0.929 . S
H737 C766 0.930 . S
H738 C743 0.930 . S
H739 C747 0.930 . S
O740 Co709 2.037 . S
O740 C760 1.234 . S
C741 O715 1.269 . S
C741 O716 1.257 . S
C742 H717 0.930 . S
C742 C745 1.388 . S
C742 C747 1.418 . S
C743 H738 0.930 . S
C743 C746 1.404 . S
C743 C747 1.353 . S
N744 Co709 2.145 . S
N744 C745 1.397 . S
N744 C746 1.334 . S
C745 H726 0.929 . S
C745 C742 1.388 . S
C745 N744 1.397 . S
C746 H727 0.929 . S
C746 C743 1.404 . S
C746 N744 1.334 . S
C747 H739 0.930 . S
C747 C742 1.418 . S
C747 C743 1.353 . S
C748 H718 0.930 . S
C748 N749 1.330 . S
C748 C750 1.446 . S
N749 Co708 2.151 . S
N749 C748 1.330 . S
N749 C753 1.418 . S
C750 H729 0.929 . S
C750 C748 1.446 . S
C750 C751 1.332 . S
C751 H731 0.931 . S
C751 C750 1.332 . S
C751 C752 1.267 . S
C752 H720 0.929 . S
C752 C751 1.267 . S
C752 C753 1.251 . S
C753 H723 0.929 . S
C753 N749 1.418 . S
C753 C752 1.251 . S
C754 H721 0.930 . S
C754 C756 1.406 . S
C754 C759 1.261 . S
C755 H722 0.930 . S
C755 N757 1.325 . S
C755 C758 1.357 . S
C756 H724 0.928 . S
C756 C754 1.406 . S
C756 N757 1.261 . S
N757 Co708 2.214 . S
N757 C755 1.325 . S
N757 C756 1.261 . S
C758 H728 0.931 . S
C758 C755 1.357 . S
C758 C759 1.312 . S
C759 H730 0.930 . S
C759 C754 1.261 . S
C759 C758 1.312 . S
C760 O732 1.214 . S
C760 O740 1.234 . S
C761 H733 0.929 . S
C761 C764 1.391 . S
C761 C766 1.391 . S
C762 H734 0.929 . S
C762 C763 1.390 . S
C762 N765 1.391 . S
C763 H735 0.930 . S
C763 C762 1.390 . S
C763 C764 1.392 . S
C764 H736 0.929 . S
C764 C761 1.391 . S
C764 C763 1.392 . S
N765 Co709 2.257 . S
N765 C762 1.391 . S
N765 C766 1.388 . S
C766 H737 0.930 . S
C766 C761 1.391 . S
C766 N765 1.388 . S
Co767 O769 2.143 . S
Co767 O775 2.074 . S
Co767 O778 2.093 . S
Co767 O791 2.097 . S
Co767 N808 2.151 . S
Co767 N816 2.214 . S
Co768 O769 2.160 . S
Co768 O774 2.058 . S
Co768 O784 2.057 . S
Co768 O799 2.037 . S
Co768 N803 2.145 . S
Co768 N824 2.257 . S
O769 Co767 2.143 . S
O769 Co768 2.160 . S
C770 O771 1.278 . S
C770 O778 1.224 . S
O771 C770 1.278 . S
C772 O773 1.245 . S
C772 O784 1.232 . S
O773 C772 1.245 . S
O774 Co768 2.058 . S
O774 C800 1.269 . S
O775 Co767 2.074 . S
O775 C800 1.257 . S
H776 C801 0.930 . S
H777 C807 0.930 . S
O778 Co767 2.093 . S
O778 C770 1.224 . S
H779 C811 0.929 . S
H780 C813 0.930 . S
H781 C814 0.930 . S
H782 C812 0.929 . S
H783 C815 0.928 . S
O784 Co768 2.057 . S
O784 C772 1.232 . S
H785 C804 0.929 . S
H786 C805 0.929 . S
H787 C817 0.931 . S
H788 C809 0.929 . S
H789 C818 0.930 . S
H790 C810 0.931 . S
O791 Co767 2.097 . S
O791 C819 1.214 . S
H792 C820 0.929 . S
H793 C821 0.929 . S
H794 C822 0.930 . S
H795 C823 0.929 . S
H796 C825 0.930 . S
H797 C802 0.930 . S
H798 C806 0.930 . S
O799 Co768 2.037 . S
O799 C819 1.234 . S
C800 O774 1.269 . S
C800 O775 1.257 . S
C801 H776 0.930 . S
C801 C804 1.388 . S
C801 C806 1.418 . S
C802 H797 0.930 . S
C802 C805 1.404 . S
C802 C806 1.353 . S
N803 Co768 2.145 . S
N803 C804 1.397 . S
N803 C805 1.334 . S
C804 H785 0.929 . S
C804 C801 1.388 . S
C804 N803 1.397 . S
C805 H786 0.929 . S
C805 C802 1.404 . S
C805 N803 1.334 . S
C806 H798 0.930 . S
C806 C801 1.418 . S
C806 C802 1.353 . S
C807 H777 0.930 . S
C807 N808 1.330 . S
C807 C809 1.446 . S
N808 Co767 2.151 . S
N808 C807 1.330 . S
N808 C812 1.418 . S
C809 H788 0.929 . S
C809 C807 1.446 . S
C809 C810 1.332 . S
C810 H790 0.931 . S
C810 C809 1.332 . S
C810 C811 1.267 . S
C811 H779 0.929 . S
C811 C810 1.267 . S
C811 C812 1.251 . S
C812 H782 0.929 . S
C812 N808 1.418 . S
C812 C811 1.251 . S
C813 H780 0.930 . S
C813 C815 1.406 . S
C813 C818 1.261 . S
C814 H781 0.930 . S
C814 N816 1.325 . S
C814 C817 1.357 . S
C815 H783 0.928 . S
C815 C813 1.406 . S
C815 N816 1.261 . S
N816 Co767 2.214 . S
N816 C814 1.325 . S
N816 C815 1.261 . S
C817 H787 0.931 . S
C817 C814 1.357 . S
C817 C818 1.312 . S
C818 H789 0.930 . S
C818 C813 1.261 . S
C818 C817 1.312 . S
C819 O791 1.214 . S
C819 O799 1.234 . S
C820 H792 0.929 . S
C820 C823 1.391 . S
C820 C825 1.391 . S
C821 H793 0.929 . S
C821 C822 1.390 . S
C821 N824 1.391 . S
C822 H794 0.930 . S
C822 C821 1.390 . S
C822 C823 1.392 . S
C823 H795 0.929 . S
C823 C820 1.391 . S
C823 C822 1.392 . S
N824 Co768 2.257 . S
N824 C821 1.391 . S
N824 C825 1.388 . S
C825 H796 0.930 . S
C825 C820 1.391 . S
C825 N824 1.388 . S
Co826 O828 2.143 . S
Co826 O834 2.074 . S
Co826 O837 2.093 . S
Co826 O850 2.097 . S
Co826 N867 2.151 . S
Co826 N875 2.214 . S
Co827 O828 2.160 . S
Co827 O833 2.058 . S
Co827 O843 2.057 . S
Co827 O858 2.037 . S
Co827 N862 2.145 . S
Co827 N883 2.257 . S
O828 Co826 2.143 . S
O828 Co827 2.160 . S
C829 O830 1.278 . S
C829 O837 1.224 . S
O830 C829 1.278 . S
C831 O832 1.245 . S
C831 O843 1.232 . S
O832 C831 1.245 . S
O833 Co827 2.058 . S
O833 C859 1.269 . S
O834 Co826 2.074 . S
O834 C859 1.257 . S
H835 C860 0.930 . S
H836 C866 0.930 . S
O837 Co826 2.093 . S
O837 C829 1.224 . S
H838 C870 0.929 . S
H839 C872 0.930 . S
H840 C873 0.930 . S
H841 C871 0.929 . S
H842 C874 0.928 . S
O843 Co827 2.057 . S
O843 C831 1.232 . S
H844 C863 0.929 . S
H845 C864 0.929 . S
H846 C876 0.931 . S
H847 C868 0.929 . S
H848 C877 0.930 . S
H849 C869 0.931 . S
O850 Co826 2.097 . S
O850 C878 1.214 . S
H851 C879 0.929 . S
H852 C880 0.929 . S
H853 C881 0.930 . S
H854 C882 0.929 . S
H855 C884 0.930 . S
H856 C861 0.930 . S
H857 C865 0.930 . S
O858 Co827 2.037 . S
O858 C878 1.234 . S
C859 O833 1.269 . S
C859 O834 1.257 . S
C860 H835 0.930 . S
C860 C863 1.388 . S
C860 C865 1.418 . S
C861 H856 0.930 . S
C861 C864 1.404 . S
C861 C865 1.353 . S
N862 Co827 2.145 . S
N862 C863 1.397 . S
N862 C864 1.334 . S
C863 H844 0.929 . S
C863 C860 1.388 . S
C863 N862 1.397 . S
C864 H845 0.929 . S
C864 C861 1.404 . S
C864 N862 1.334 . S
C865 H857 0.930 . S
C865 C860 1.418 . S
C865 C861 1.353 . S
C866 H836 0.930 . S
C866 N867 1.330 . S
C866 C868 1.446 . S
N867 Co826 2.151 . S
N867 C866 1.330 . S
N867 C871 1.418 . S
C868 H847 0.929 . S
C868 C866 1.446 . S
C868 C869 1.332 . S
C869 H849 0.931 . S
C869 C868 1.332 . S
C869 C870 1.267 . S
C870 H838 0.929 . S
C870 C869 1.267 . S
C870 C871 1.251 . S
C871 H841 0.929 . S
C871 N867 1.418 . S
C871 C870 1.251 . S
C872 H839 0.930 . S
C872 C874 1.406 . S
C872 C877 1.261 . S
C873 H840 0.930 . S
C873 N875 1.325 . S
C873 C876 1.357 . S
C874 H842 0.928 . S
C874 C872 1.406 . S
C874 N875 1.261 . S
N875 Co826 2.214 . S
N875 C873 1.325 . S
N875 C874 1.261 . S
C876 H846 0.931 . S
C876 C873 1.357 . S
C876 C877 1.312 . S
C877 H848 0.930 . S
C877 C872 1.261 . S
C877 C876 1.312 . S
C878 O850 1.214 . S
C878 O858 1.234 . S
C879 H851 0.929 . S
C879 C882 1.391 . S
C879 C884 1.391 . S
C880 H852 0.929 . S
C880 C881 1.390 . S
C880 N883 1.391 . S
C881 H853 0.930 . S
C881 C880 1.390 . S
C881 C882 1.392 . S
C882 H854 0.929 . S
C882 C879 1.391 . S
C882 C881 1.392 . S
N883 Co827 2.257 . S
N883 C880 1.391 . S
N883 C884 1.388 . S
C884 H855 0.930 . S
C884 C879 1.391 . S
C884 N883 1.388 . S
Co885 O887 2.143 . S
Co885 O893 2.074 . S
Co885 O896 2.093 . S
Co885 O909 2.097 . S
Co885 N926 2.151 . S
Co885 N934 2.214 . S
Co886 O887 2.160 . S
Co886 O892 2.058 . S
Co886 O902 2.057 . S
Co886 O917 2.037 . S
Co886 N921 2.145 . S
Co886 N942 2.257 . S
O887 Co885 2.143 . S
O887 Co886 2.160 . S
C888 O889 1.278 . S
C888 O896 1.224 . S
O889 C888 1.278 . S
C890 O891 1.245 . S
C890 O902 1.232 . S
O891 C890 1.245 . S
O892 Co886 2.058 . S
O892 C918 1.269 . S
O893 Co885 2.074 . S
O893 C918 1.257 . S
H894 C919 0.930 . S
H895 C925 0.930 . S
O896 Co885 2.093 . S
O896 C888 1.224 . S
H897 C929 0.929 . S
H898 C931 0.930 . S
H899 C932 0.930 . S
H900 C930 0.929 . S
H901 C933 0.928 . S
O902 Co886 2.057 . S
O902 C890 1.232 . S
H903 C922 0.929 . S
H904 C923 0.929 . S
H905 C935 0.931 . S
H906 C927 0.929 . S
H907 C936 0.930 . S
H908 C928 0.931 . S
O909 Co885 2.097 . S
O909 C937 1.214 . S
H910 C938 0.929 . S
H911 C939 0.929 . S
H912 C940 0.930 . S
H913 C941 0.929 . S
H914 C943 0.930 . S
H915 C920 0.930 . S
H916 C924 0.930 . S
O917 Co886 2.037 . S
O917 C937 1.234 . S
C918 O892 1.269 . S
C918 O893 1.257 . S
C919 H894 0.930 . S
C919 C922 1.388 . S
C919 C924 1.418 . S
C920 H915 0.930 . S
C920 C923 1.404 . S
C920 C924 1.353 . S
N921 Co886 2.145 . S
N921 C922 1.397 . S
N921 C923 1.334 . S
C922 H903 0.929 . S
C922 C919 1.388 . S
C922 N921 1.397 . S
C923 H904 0.929 . S
C923 C920 1.404 . S
C923 N921 1.334 . S
C924 H916 0.930 . S
C924 C919 1.418 . S
C924 C920 1.353 . S
C925 H895 0.930 . S
C925 N926 1.330 . S
C925 C927 1.446 . S
N926 Co885 2.151 . S
N926 C925 1.330 . S
N926 C930 1.418 . S
C927 H906 0.929 . S
C927 C925 1.446 . S
C927 C928 1.332 . S
C928 H908 0.931 . S
C928 C927 1.332 . S
C928 C929 1.267 . S
C929 H897 0.929 . S
C929 C928 1.267 . S
C929 C930 1.251 . S
C930 H900 0.929 . S
C930 N926 1.418 . S
C930 C929 1.251 . S
C931 H898 0.930 . S
C931 C933 1.406 . S
C931 C936 1.261 . S
C932 H899 0.930 . S
C932 N934 1.325 . S
C932 C935 1.357 . S
C933 H901 0.928 . S
C933 C931 1.406 . S
C933 N934 1.261 . S
N934 Co885 2.214 . S
N934 C932 1.325 . S
N934 C933 1.261 . S
C935 H905 0.931 . S
C935 C932 1.357 . S
C935 C936 1.312 . S
C936 H907 0.930 . S
C936 C931 1.261 . S
C936 C935 1.312 . S
C937 O909 1.214 . S
C937 O917 1.234 . S
C938 H910 0.929 . S
C938 C941 1.391 . S
C938 C943 1.391 . S
C939 H911 0.929 . S
C939 C940 1.390 . S
C939 N942 1.391 . S
C940 H912 0.930 . S
C940 C939 1.390 . S
C940 C941 1.392 . S
C941 H913 0.929 . S
C941 C938 1.391 . S
C941 C940 1.392 . S
N942 Co886 2.257 . S
N942 C939 1.391 . S
N942 C943 1.388 . S
C943 H914 0.930 . S
C943 C938 1.391 . S
C943 N942 1.388 . S
C944 C945 1.349 . S
C944 C946 1.327 . S
C944 H969 0.950 . S
C945 C944 1.349 . S
C945 C961 1.349 . S
C946 C944 1.327 . S
C946 C965 1.429 . S
C946 H970 0.950 . S
C947 C964 1.574 . S
C947 C966 1.368 . S
C947 H971 0.949 . S
H948 C952 0.949 . S
C949 C950 1.349 . S
C949 C951 1.327 . S
C949 H972 0.950 . S
C950 C949 1.349 . S
C950 C962 1.349 . S
C951 C949 1.327 . S
C951 C967 1.429 . S
C951 H973 0.950 . S
C952 H948 0.949 . S
C952 C960 1.574 1_545 S
C952 C968 1.368 . S
H953 C961 0.950 . S
H954 C959 0.950 . S
H955 C960 0.949 . S
H956 C962 0.950 . S
H957 C963 0.950 . S
H958 C964 0.949 . S
C959 H954 0.950 . S
C959 C961 1.327 . S
C959 C965 1.429 . S
C960 C952 1.574 1_565 S
C960 H955 0.949 . S
C960 C966 1.368 . S
C961 C945 1.349 . S
C961 H953 0.950 . S
C961 C959 1.327 . S
C962 C950 1.349 . S
C962 H956 0.950 . S
C962 C963 1.327 . S
C963 H957 0.950 . S
C963 C962 1.327 . S
C963 C967 1.429 . S
C964 C947 1.574 . S
C964 H958 0.949 . S
C964 C968 1.368 1_565 S
C965 C946 1.429 . S
C965 C959 1.429 . S
C965 C966 1.523 . S
C966 C947 1.368 . S
C966 C960 1.368 . S
C966 C965 1.523 . S
C967 C951 1.429 . S
C967 C963 1.429 . S
C967 C968 1.523 . S
C968 C952 1.368 . S
C968 C964 1.368 1_545 S
C968 C967 1.523 . S
H969 C944 0.950 . S
H970 C946 0.950 . S
H971 C947 0.949 . S
H972 C949 0.950 . S
H973 C951 0.950 . S
C974 C975 1.349 . S
C974 C976 1.327 . S
C974 H999 0.950 . S
C975 C974 1.349 . S
C975 C991 1.349 . S
C976 C974 1.327 . S
C976 C995 1.429 . S
C976 H1000 0.950 . S
C977 C994 1.574 1_455 S
C977 C996 1.368 . S
C977 H1001 0.949 . S
H978 C982 0.949 . S
C979 C980 1.349 . S
C979 C981 1.327 . S
C979 H1002 0.950 . S
C980 C979 1.349 . S
C980 C992 1.349 . S
C981 C979 1.327 . S
C981 C997 1.429 . S
C981 H1003 0.950 . S
C982 H978 0.949 . S
C982 C990 1.574 1_655 S
C982 C998 1.368 . S
H983 C991 0.950 . S
H984 C989 0.950 . S
H985 C990 0.949 . S
H986 C992 0.950 . S
H987 C993 0.950 . S
H988 C994 0.949 . S
C989 H984 0.950 . S
C989 C991 1.327 . S
C989 C995 1.429 . S
C990 C982 1.574 1_455 S
C990 H985 0.949 . S
C990 C996 1.368 . S
C991 C975 1.349 . S
C991 H983 0.950 . S
C991 C989 1.327 . S
C992 C980 1.349 . S
C992 H986 0.950 . S
C992 C993 1.327 . S
C993 H987 0.950 . S
C993 C992 1.327 . S
C993 C997 1.429 . S
C994 C977 1.574 1_655 S
C994 H988 0.949 . S
C994 C998 1.368 . S
C995 C976 1.429 . S
C995 C989 1.429 . S
C995 C996 1.523 . S
C996 C977 1.368 . S
C996 C990 1.368 . S
C996 C995 1.523 . S
C997 C981 1.429 . S
C997 C993 1.429 . S
C997 C998 1.523 . S
C998 C982 1.368 . S
C998 C994 1.368 . S
C998 C997 1.523 . S
H999 C974 0.950 . S
H1000 C976 0.950 . S
H1001 C977 0.949 . S
H1002 C979 0.950 . S
H1003 C981 0.950 . S
C1004 C1005 1.349 . S
C1004 C1006 1.327 . S
C1004 H1029 0.950 . S
C1005 C1004 1.349 . S
C1005 C1021 1.349 . S
C1006 C1004 1.327 . S
C1006 C1025 1.429 . S
C1006 H1030 0.950 . S
C1007 C1024 1.574 . S
C1007 C1026 1.368 1_545 S
C1007 H1031 0.949 . S
H1008 C1012 0.949 . S
C1009 C1010 1.349 . S
C1009 C1011 1.327 . S
C1009 H1032 0.950 . S
C1010 C1009 1.349 . S
C1010 C1022 1.349 . S
C1011 C1009 1.327 . S
C1011 C1027 1.429 . S
C1011 H1033 0.950 . S
C1012 H1008 0.949 . S
C1012 C1020 1.574 1_545 S
C1012 C1028 1.368 . S
H1013 C1021 0.950 . S
H1014 C1019 0.950 . S
H1015 C1020 0.949 . S
H1016 C1022 0.950 . S
H1017 C1023 0.950 . S
H1018 C1024 0.949 . S
C1019 H1014 0.950 . S
C1019 C1021 1.327 . S
C1019 C1025 1.429 . S
C1020 C1012 1.574 1_565 S
C1020 H1015 0.949 . S
C1020 C1026 1.368 . S
C1021 C1005 1.349 . S
C1021 H1013 0.950 . S
C1021 C1019 1.327 . S
C1022 C1010 1.349 . S
C1022 H1016 0.950 . S
C1022 C1023 1.327 . S
C1023 H1017 0.950 . S
C1023 C1022 1.327 . S
C1023 C1027 1.429 . S
C1024 C1007 1.574 . S
C1024 H1018 0.949 . S
C1024 C1028 1.368 . S
C1025 C1006 1.429 . S
C1025 C1019 1.429 . S
C1025 C1026 1.523 . S
C1026 C1007 1.368 1_565 S
C1026 C1020 1.368 . S
C1026 C1025 1.523 . S
C1027 C1011 1.429 . S
C1027 C1023 1.429 . S
C1027 C1028 1.523 . S
C1028 C1012 1.368 . S
C1028 C1024 1.368 . S
C1028 C1027 1.523 . S
H1029 C1004 0.950 . S
H1030 C1006 0.950 . S
H1031 C1007 0.949 . S
H1032 C1009 0.950 . S
H1033 C1011 0.950 . S
C1034 C1035 1.349 . S
C1034 C1036 1.327 . S
C1034 H1059 0.950 . S
C1035 C1034 1.349 . S
C1035 C1051 1.349 . S
C1036 C1034 1.327 . S
C1036 C1055 1.429 . S
C1036 H1060 0.950 . S
C1037 C1054 1.574 1_455 S
C1037 C1056 1.368 . S
C1037 H1061 0.949 . S
H1038 C1042 0.949 . S
C1039 C1040 1.349 . S
C1039 C1041 1.327 . S
C1039 H1062 0.950 . S
C1040 C1039 1.349 . S
C1040 C1052 1.349 . S
C1041 C1039 1.327 . S
C1041 C1057 1.429 . S
C1041 H1063 0.950 . S
C1042 H1038 0.949 . S
C1042 C1050 1.574 1_655 S
C1042 C1058 1.368 . S
H1043 C1051 0.950 . S
H1044 C1049 0.950 . S
H1045 C1050 0.949 . S
H1046 C1052 0.950 . S
H1047 C1053 0.950 . S
H1048 C1054 0.949 . S
C1049 H1044 0.950 . S
C1049 C1051 1.327 . S
C1049 C1055 1.429 . S
C1050 C1042 1.574 1_455 S
C1050 H1045 0.949 . S
C1050 C1056 1.368 . S
C1051 C1035 1.349 . S
C1051 H1043 0.950 . S
C1051 C1049 1.327 . S
C1052 C1040 1.349 . S
C1052 H1046 0.950 . S
C1052 C1053 1.327 . S
C1053 H1047 0.950 . S
C1053 C1052 1.327 . S
C1053 C1057 1.429 . S
C1054 C1037 1.574 1_655 S
C1054 H1048 0.949 . S
C1054 C1058 1.368 . S
C1055 C1036 1.429 . S
C1055 C1049 1.429 . S
C1055 C1056 1.523 . S
C1056 C1037 1.368 . S
C1056 C1050 1.368 . S
C1056 C1055 1.523 . S
C1057 C1041 1.429 . S
C1057 C1053 1.429 . S
C1057 C1058 1.523 . S
C1058 C1042 1.368 . S
C1058 C1054 1.368 . S
C1058 C1057 1.523 . S
H1059 C1034 0.950 . S
H1060 C1036 0.950 . S
H1061 C1037 0.949 . S
H1062 C1039 0.950 . S
H1063 C1041 0.950 . S
C1064 C1065 1.349 . S
C1064 C1066 1.327 . S
C1064 H1089 0.950 . S
C1065 C1064 1.349 . S
C1065 C1081 1.349 . S
C1066 C1064 1.327 . S
C1066 C1085 1.429 . S
C1066 H1090 0.950 1_554 S
C1067 C1084 1.574 . S
C1067 C1086 1.368 . S
C1067 H1091 0.949 . S
H1068 C1072 0.949 . S
C1069 C1070 1.349 . S
C1069 C1071 1.327 . S
C1069 H1092 0.950 . S
C1070 C1069 1.349 . S
C1070 C1082 1.349 . S
C1071 C1069 1.327 . S
C1071 C1087 1.429 . S
C1071 H1093 0.950 1_556 S
C1072 H1068 0.949 . S
C1072 C1080 1.574 . S
C1072 C1088 1.368 . S
H1073 C1081 0.950 . S
H1074 C1079 0.950 . S
H1075 C1080 0.949 . S
H1076 C1082 0.950 . S
H1077 C1083 0.950 . S
H1078 C1084 0.949 . S
C1079 H1074 0.950 . S
C1079 C1081 1.327 . S
C1079 C1085 1.429 . S
C1080 C1072 1.574 . S
C1080 H1075 0.949 . S
C1080 C1086 1.368 1_556 S
C1081 C1065 1.349 . S
C1081 H1073 0.950 . S
C1081 C1079 1.327 . S
C1082 C1070 1.349 . S
C1082 H1076 0.950 . S
C1082 C1083 1.327 . S
C1083 H1077 0.950 . S
C1083 C1082 1.327 . S
C1083 C1087 1.429 . S
C1084 C1067 1.574 . S
C1084 H1078 0.949 . S
C1084 C1088 1.368 1_554 S
C1085 C1066 1.429 . S
C1085 C1079 1.429 . S
C1085 C1086 1.523 . S
C1086 C1067 1.368 . S
C1086 C1080 1.368 1_554 S
C1086 C1085 1.523 . S
C1087 C1071 1.429 . S
C1087 C1083 1.429 . S
C1087 C1088 1.523 . S
C1088 C1072 1.368 . S
C1088 C1084 1.368 1_556 S
C1088 C1087 1.523 . S
H1089 C1064 0.950 . S
H1090 C1066 0.950 1_556 S
H1091 C1067 0.949 . S
H1092 C1069 0.950 . S
H1093 C1071 0.950 1_554 S
C1094 C1095 1.349 . S
C1094 C1096 1.327 . S
C1094 H1119 0.950 . S
C1095 C1094 1.349 . S
C1095 C1111 1.349 1_556 S
C1096 C1094 1.327 . S
C1096 C1115 1.429 1_556 S
C1096 H1120 0.950 . S
C1097 C1114 1.574 . S
C1097 C1116 1.368 . S
C1097 H1121 0.949 . S
H1098 C1102 0.949 . S
C1099 C1100 1.349 . S
C1099 C1101 1.327 . S
C1099 H1122 0.950 . S
C1100 C1099 1.349 . S
C1100 C1112 1.349 . S
C1101 C1099 1.327 . S
C1101 C1117 1.429 . S
C1101 H1123 0.950 . S
C1102 H1098 0.949 . S
C1102 C1110 1.574 . S
C1102 C1118 1.368 . S
H1103 C1111 0.950 . S
H1104 C1109 0.950 . S
H1105 C1110 0.949 1_556 S
H1106 C1112 0.950 . S
H1107 C1113 0.950 . S
H1108 C1114 0.949 . S
C1109 H1104 0.950 . S
C1109 C1111 1.327 . S
C1109 C1115 1.429 . S
C1110 C1102 1.574 . S
C1110 H1105 0.949 1_554 S
C1110 C1116 1.368 . S
C1111 C1095 1.349 1_554 S
C1111 H1103 0.950 . S
C1111 C1109 1.327 . S
C1112 C1100 1.349 . S
C1112 H1106 0.950 . S
C1112 C1113 1.327 . S
C1113 H1107 0.950 . S
C1113 C1112 1.327 . S
C1113 C1117 1.429 . S
C1114 C1097 1.574 . S
C1114 H1108 0.949 . S
C1114 C1118 1.368 . S
C1115 C1096 1.429 1_554 S
C1115 C1109 1.429 . S
C1115 C1116 1.523 . S
C1116 C1097 1.368 . S
C1116 C1110 1.368 . S
C1116 C1115 1.523 . S
C1117 C1101 1.429 . S
C1117 C1113 1.429 . S
C1117 C1118 1.523 . S
C1118 C1102 1.368 . S
C1118 C1114 1.368 . S
C1118 C1117 1.523 . S
H1119 C1094 0.950 . S
H1120 C1096 0.950 . S
H1121 C1097 0.949 . S
H1122 C1099 0.950 . S
H1123 C1101 0.950 . S
C1124 C1125 1.349 . S
C1124 C1126 1.327 . S
C1124 H1149 0.950 . S
C1125 C1124 1.349 . S
C1125 C1141 1.349 . S
C1126 C1124 1.327 . S
C1126 C1145 1.429 . S
C1126 H1150 0.950 . S
C1127 C1144 1.574 . S
C1127 C1146 1.368 1_554 S
C1127 H1151 0.949 . S
H1128 C1132 0.949 . S
C1129 C1130 1.349 . S
C1129 C1131 1.327 . S
C1129 H1152 0.950 . S
C1130 C1129 1.349 . S
C1130 C1142 1.349 . S
C1131 C1129 1.327 . S
C1131 C1147 1.429 . S
C1131 H1153 0.950 . S
C1132 H1128 0.949 . S
C1132 C1140 1.574 . S
C1132 C1148 1.368 1_556 S
H1133 C1141 0.950 . S
H1134 C1139 0.950 1_554 S
H1135 C1140 0.949 . S
H1136 C1142 0.950 . S
H1137 C1143 0.950 1_556 S
H1138 C1144 0.949 . S
C1139 H1134 0.950 1_556 S
C1139 C1141 1.327 . S
C1139 C1145 1.429 . S
C1140 C1132 1.574 . S
C1140 H1135 0.949 . S
C1140 C1146 1.368 . S
C1141 C1125 1.349 . S
C1141 H1133 0.950 . S
C1141 C1139 1.327 . S
C1142 C1130 1.349 . S
C1142 H1136 0.950 . S
C1142 C1143 1.327 . S
C1143 H1137 0.950 1_554 S
C1143 C1142 1.327 . S
C1143 C1147 1.429 . S
C1144 C1127 1.574 . S
C1144 H1138 0.949 . S
C1144 C1148 1.368 . S
C1145 C1126 1.429 . S
C1145 C1139 1.429 . S
C1145 C1146 1.523 . S
C1146 C1127 1.368 1_556 S
C1146 C1140 1.368 . S
C1146 C1145 1.523 . S
C1147 C1131 1.429 . S
C1147 C1143 1.429 . S
C1147 C1148 1.523 . S
C1148 C1132 1.368 1_554 S
C1148 C1144 1.368 . S
C1148 C1147 1.523 . S
H1149 C1124 0.950 . S
H1150 C1126 0.950 . S
H1151 C1127 0.949 . S
H1152 C1129 0.950 . S
H1153 C1131 0.950 . S
C1154 C1155 1.349 . S
C1154 C1156 1.327 . S
C1154 H1179 0.950 . S
C1155 C1154 1.349 . S
C1155 C1171 1.349 . S
C1156 C1154 1.327 . S
C1156 C1175 1.429 . S
C1156 H1180 0.950 . S
C1157 C1174 1.574 . S
C1157 C1176 1.368 . S
C1157 H1181 0.949 . S
H1158 C1162 0.949 . S
C1159 C1160 1.349 . S
C1159 C1161 1.327 1_556 S
C1159 H1182 0.950 . S
C1160 C1159 1.349 . S
C1160 C1172 1.349 . S
C1161 C1159 1.327 1_554 S
C1161 C1177 1.429 . S
C1161 H1183 0.950 . S
C1162 H1158 0.949 . S
C1162 C1170 1.574 . S
C1162 C1178 1.368 . S
H1163 C1171 0.950 . S
H1164 C1169 0.950 . S
H1165 C1170 0.949 . S
H1166 C1172 0.950 . S
H1167 C1173 0.950 . S
H1168 C1174 0.949 . S
C1169 H1164 0.950 . S
C1169 C1171 1.327 . S
C1169 C1175 1.429 . S
C1170 C1162 1.574 . S
C1170 H1165 0.949 . S
C1170 C1176 1.368 . S
C1171 C1155 1.349 . S
C1171 H1163 0.950 . S
C1171 C1169 1.327 . S
C1172 C1160 1.349 . S
C1172 H1166 0.950 . S
C1172 C1173 1.327 . S
C1173 H1167 0.950 . S
C1173 C1172 1.327 . S
C1173 C1177 1.429 1_556 S
C1174 C1157 1.574 . S
C1174 H1168 0.949 . S
C1174 C1178 1.368 . S
C1175 C1156 1.429 . S
C1175 C1169 1.429 . S
C1175 C1176 1.523 . S
C1176 C1157 1.368 . S
C1176 C1170 1.368 . S
C1176 C1175 1.523 . S
C1177 C1161 1.429 . S
C1177 C1173 1.429 1_554 S
C1177 C1178 1.523 . S
C1178 C1162 1.368 . S
C1178 C1174 1.368 . S
C1178 C1177 1.523 . S
H1179 C1154 0.950 . S
H1180 C1156 0.950 . S
H1181 C1157 0.949 . S
H1182 C1159 0.950 . S
H1183 C1161 0.950 . S
C1184 C1185 1.349 . S
C1184 C1186 1.327 . S
C1184 H1209 0.950 . S
C1185 C1184 1.349 . S
C1185 C1201 1.349 . S
C1186 C1184 1.327 . S
C1186 C1205 1.429 . S
C1186 H1210 0.950 . S
C1187 C1204 1.574 . S
C1187 C1206 1.368 . S
C1187 H1211 0.949 . S
H1188 C1192 0.949 . S
C1189 C1190 1.349 . S
C1189 C1191 1.327 . S
C1189 H1212 0.950 . S
C1190 C1189 1.349 . S
C1190 C1202 1.349 . S
C1191 C1189 1.327 . S
C1191 C1207 1.429 . S
C1191 H1213 0.950 . S
C1192 H1188 0.949 . S
C1192 C1200 1.574 . S
C1192 C1208 1.368 . S
H1193 C1201 0.950 . S
H1194 C1199 0.950 . S
H1195 C1200 0.949 . S
H1196 C1202 0.950 . S
H1197 C1203 0.950 . S
H1198 C1204 0.949 . S
C1199 H1194 0.950 . S
C1199 C1201 1.327 . S
C1199 C1205 1.429 . S
C1200 C1192 1.574 . S
C1200 H1195 0.949 . S
C1200 C1206 1.368 . S
C1201 C1185 1.349 . S
C1201 H1193 0.950 . S
C1201 C1199 1.327 . S
C1202 C1190 1.349 . S
C1202 H1196 0.950 . S
C1202 C1203 1.327 . S
C1203 H1197 0.950 . S
C1203 C1202 1.327 . S
C1203 C1207 1.429 . S
C1204 C1187 1.574 . S
C1204 H1198 0.949 . S
C1204 C1208 1.368 . S
C1205 C1186 1.429 . S
C1205 C1199 1.429 . S
C1205 C1206 1.523 . S
C1206 C1187 1.368 . S
C1206 C1200 1.368 . S
C1206 C1205 1.523 . S
C1207 C1191 1.429 . S
C1207 C1203 1.429 . S
C1207 C1208 1.523 . S
C1208 C1192 1.368 . S
C1208 C1204 1.368 . S
C1208 C1207 1.523 . S
H1209 C1184 0.950 . S
H1210 C1186 0.950 . S
H1211 C1187 0.949 . S
H1212 C1189 0.950 . S
H1213 C1191 0.950 . S
C1214 C1215 1.349 . S
C1214 C1216 1.327 . S
C1214 H1239 0.950 . S
C1215 C1214 1.349 . S
C1215 C1231 1.349 . S
C1216 C1214 1.327 . S
C1216 C1235 1.429 . S
C1216 H1240 0.950 . S
C1217 C1234 1.574 . S
C1217 C1236 1.368 . S
C1217 H1241 0.949 . S
H1218 C1222 0.949 . S
C1219 C1220 1.349 . S
C1219 C1221 1.327 . S
C1219 H1242 0.950 . S
C1220 C1219 1.349 . S
C1220 C1232 1.349 . S
C1221 C1219 1.327 . S
C1221 C1237 1.429 . S
C1221 H1243 0.950 . S
C1222 H1218 0.949 . S
C1222 C1230 1.574 . S
C1222 C1238 1.368 . S
H1223 C1231 0.950 . S
H1224 C1229 0.950 . S
H1225 C1230 0.949 . S
H1226 C1232 0.950 . S
H1227 C1233 0.950 . S
H1228 C1234 0.949 . S
C1229 H1224 0.950 . S
C1229 C1231 1.327 . S
C1229 C1235 1.429 . S
C1230 C1222 1.574 . S
C1230 H1225 0.949 . S
C1230 C1236 1.368 . S
C1231 C1215 1.349 . S
C1231 H1223 0.950 . S
C1231 C1229 1.327 . S
C1232 C1220 1.349 . S
C1232 H1226 0.950 . S
C1232 C1233 1.327 . S
C1233 H1227 0.950 . S
C1233 C1232 1.327 . S
C1233 C1237 1.429 . S
C1234 C1217 1.574 . S
C1234 H1228 0.949 . S
C1234 C1238 1.368 . S
C1235 C1216 1.429 . S
C1235 C1229 1.429 . S
C1235 C1236 1.523 . S
C1236 C1217 1.368 . S
C1236 C1230 1.368 . S
C1236 C1235 1.523 . S
C1237 C1221 1.429 . S
C1237 C1233 1.429 . S
C1237 C1238 1.523 . S
C1238 C1222 1.368 . S
C1238 C1234 1.368 . S
C1238 C1237 1.523 . S
H1239 C1214 0.950 . S
H1240 C1216 0.950 . S
H1241 C1217 0.949 . S
H1242 C1219 0.950 . S
H1243 C1221 0.950 . S
C1244 C1245 1.349 . S
C1244 C1246 1.327 . S
C1244 H1269 0.950 . S
C1245 C1244 1.349 . S
C1245 C1261 1.349 . S
C1246 C1244 1.327 . S
C1246 C1265 1.429 . S
C1246 H1270 0.950 . S
C1247 C1264 1.574 . S
C1247 C1266 1.368 . S
C1247 H1271 0.949 . S
H1248 C1252 0.949 . S
C1249 C1250 1.349 . S
C1249 C1251 1.327 . S
C1249 H1272 0.950 . S
C1250 C1249 1.349 . S
C1250 C1262 1.349 . S
C1251 C1249 1.327 . S
C1251 C1267 1.429 . S
C1251 H1273 0.950 . S
C1252 H1248 0.949 . S
C1252 C1260 1.574 . S
C1252 C1268 1.368 . S
H1253 C1261 0.950 . S
H1254 C1259 0.950 . S
H1255 C1260 0.949 . S
H1256 C1262 0.950 . S
H1257 C1263 0.950 . S
H1258 C1264 0.949 . S
C1259 H1254 0.950 . S
C1259 C1261 1.327 . S
C1259 C1265 1.429 . S
C1260 C1252 1.574 . S
C1260 H1255 0.949 . S
C1260 C1266 1.368 . S
C1261 C1245 1.349 . S
C1261 H1253 0.950 . S
C1261 C1259 1.327 . S
C1262 C1250 1.349 . S
C1262 H1256 0.950 . S
C1262 C1263 1.327 . S
C1263 H1257 0.950 . S
C1263 C1262 1.327 . S
C1263 C1267 1.429 . S
C1264 C1247 1.574 . S
C1264 H1258 0.949 . S
C1264 C1268 1.368 . S
C1265 C1246 1.429 . S
C1265 C1259 1.429 . S
C1265 C1266 1.523 . S
C1266 C1247 1.368 . S
C1266 C1260 1.368 . S
C1266 C1265 1.523 . S
C1267 C1251 1.429 . S
C1267 C1263 1.429 . S
C1267 C1268 1.523 . S
C1268 C1252 1.368 . S
C1268 C1264 1.368 . S
C1268 C1267 1.523 . S
H1269 C1244 0.950 . S
H1270 C1246 0.950 . S
H1271 C1247 0.949 . S
H1272 C1249 0.950 . S
H1273 C1251 0.950 . S
C1274 C1275 1.349 . S
C1274 C1276 1.327 . S
C1274 H1299 0.950 . S
C1275 C1274 1.349 . S
C1275 C1291 1.349 . S
C1276 C1274 1.327 . S
C1276 C1295 1.429 . S
C1276 H1300 0.950 . S
C1277 C1294 1.574 . S
C1277 C1296 1.368 . S
C1277 H1301 0.949 . S
H1278 C1282 0.949 . S
C1279 C1280 1.349 . S
C1279 C1281 1.327 . S
C1279 H1302 0.950 . S
C1280 C1279 1.349 . S
C1280 C1292 1.349 . S
C1281 C1279 1.327 . S
C1281 C1297 1.429 . S
C1281 H1303 0.950 . S
C1282 H1278 0.949 . S
C1282 C1290 1.574 . S
C1282 C1298 1.368 . S
H1283 C1291 0.950 . S
H1284 C1289 0.950 . S
H1285 C1290 0.949 . S
H1286 C1292 0.950 . S
H1287 C1293 0.950 . S
H1288 C1294 0.949 . S
C1289 H1284 0.950 . S
C1289 C1291 1.327 . S
C1289 C1295 1.429 . S
C1290 C1282 1.574 . S
C1290 H1285 0.949 . S
C1290 C1296 1.368 . S
C1291 C1275 1.349 . S
C1291 H1283 0.950 . S
C1291 C1289 1.327 . S
C1292 C1280 1.349 . S
C1292 H1286 0.950 . S
C1292 C1293 1.327 . S
C1293 H1287 0.950 . S
C1293 C1292 1.327 . S
C1293 C1297 1.429 . S
C1294 C1277 1.574 . S
C1294 H1288 0.949 . S
C1294 C1298 1.368 . S
C1295 C1276 1.429 . S
C1295 C1289 1.429 . S
C1295 C1296 1.523 . S
C1296 C1277 1.368 . S
C1296 C1290 1.368 . S
C1296 C1295 1.523 . S
C1297 C1281 1.429 . S
C1297 C1293 1.429 . S
C1297 C1298 1.523 . S
C1298 C1282 1.368 . S
C1298 C1294 1.368 . S
C1298 C1297 1.523 . S
H1299 C1274 0.950 . S
H1300 C1276 0.950 . S
H1301 C1277 0.949 . S
H1302 C1279 0.950 . S
H1303 C1281 0.950 . S
C1304 C1305 1.349 . S
C1304 C1306 1.327 . S
C1304 H1329 0.950 . S
C1305 C1304 1.349 . S
C1305 C1321 1.349 . S
C1306 C1304 1.327 . S
C1306 C1325 1.429 . S
C1306 H1330 0.950 . S
C1307 C1324 1.574 1_565 S
C1307 C1326 1.368 . S
C1307 H1331 0.949 . S
H1308 C1312 0.949 . S
C1309 C1310 1.349 . S
C1309 C1311 1.327 . S
C1309 H1332 0.950 . S
C1310 C1309 1.349 . S
C1310 C1322 1.349 . S
C1311 C1309 1.327 . S
C1311 C1327 1.429 . S
C1311 H1333 0.950 . S
C1312 H1308 0.949 . S
C1312 C1320 1.574 . S
C1312 C1328 1.368 . S
H1313 C1321 0.950 . S
H1314 C1319 0.950 . S
H1315 C1320 0.963 . S
H1316 C1322 0.950 . S
H1317 C1323 0.950 . S
H1318 C1324 0.949 . S
C1319 H1314 0.950 . S
C1319 C1321 1.327 . S
C1319 C1325 1.429 . S
C1320 C1312 1.574 . S
C1320 H1315 0.963 . S
C1320 C1326 1.368 1_545 S
C1321 C1305 1.349 . S
C1321 H1313 0.950 . S
C1321 C1319 1.327 . S
C1322 C1310 1.349 . S
C1322 H1316 0.950 . S
C1322 C1323 1.327 . S
C1323 H1317 0.950 . S
C1323 C1322 1.327 . S
C1323 C1327 1.429 . S
C1324 C1307 1.574 1_545 S
C1324 H1318 0.949 . S
C1324 C1328 1.368 . S
C1325 C1306 1.429 . S
C1325 C1319 1.429 . S
C1325 C1326 1.523 . S
C1326 C1307 1.368 . S
C1326 C1320 1.368 1_565 S
C1326 C1325 1.523 . S
C1327 C1311 1.429 . S
C1327 C1323 1.429 . S
C1327 C1328 1.523 . S
C1328 C1312 1.368 . S
C1328 C1324 1.368 . S
C1328 C1327 1.523 . S
H1329 C1304 0.950 . S
H1330 C1306 0.950 . S
H1331 C1307 0.949 . S
H1332 C1309 0.950 . S
H1333 C1311 0.950 . S
C1334 C1335 1.349 . S
C1334 C1336 1.327 . S
C1334 H1359 0.950 . S
C1335 C1334 1.349 . S
C1335 C1351 1.349 . S
C1336 C1334 1.327 . S
C1336 C1355 1.429 . S
C1336 H1360 0.950 . S
C1337 C1354 1.574 1_655 S
C1337 C1356 1.368 . S
C1337 H1361 0.949 . S
H1338 C1342 0.949 . S
C1339 C1340 1.349 . S
C1339 C1341 1.327 . S
C1339 H1362 0.950 . S
C1340 C1339 1.349 . S
C1340 C1352 1.349 . S
C1341 C1339 1.327 . S
C1341 C1357 1.429 . S
C1341 H1363 0.950 . S
C1342 H1338 0.949 . S
C1342 C1350 1.574 1_455 S
C1342 C1358 1.368 . S
H1343 C1351 0.950 . S
H1344 C1349 0.950 . S
H1345 C1350 0.949 . S
H1346 C1352 0.950 . S
H1347 C1353 0.950 . S
H1348 C1354 0.949 . S
C1349 H1344 0.950 . S
C1349 C1351 1.327 . S
C1349 C1355 1.429 . S
C1350 C1342 1.574 1_655 S
C1350 H1345 0.949 . S
C1350 C1356 1.368 . S
C1351 C1335 1.349 . S
C1351 H1343 0.950 . S
C1351 C1349 1.327 . S
C1352 C1340 1.349 . S
C1352 H1346 0.950 . S
C1352 C1353 1.327 . S
C1353 H1347 0.950 . S
C1353 C1352 1.327 . S
C1353 C1357 1.429 . S
C1354 C1337 1.574 1_455 S
C1354 H1348 0.949 . S
C1354 C1358 1.368 . S
C1355 C1336 1.429 . S
C1355 C1349 1.429 . S
C1355 C1356 1.523 . S
C1356 C1337 1.368 . S
C1356 C1350 1.368 . S
C1356 C1355 1.523 . S
C1357 C1341 1.429 . S
C1357 C1353 1.429 . S
C1357 C1358 1.523 . S
C1358 C1342 1.368 . S
C1358 C1354 1.368 . S
C1358 C1357 1.523 . S
H1359 C1334 0.950 . S
H1360 C1336 0.950 . S
H1361 C1337 0.949 . S
H1362 C1339 0.950 . S
H1363 C1341 0.950 . S
C1364 C1365 1.349 . S
C1364 C1366 1.327 . S
C1364 H1389 0.950 . S
C1365 C1364 1.349 . S
C1365 C1381 1.349 . S
C1366 C1364 1.327 . S
C1366 C1385 1.429 . S
C1366 H1390 0.950 . S
C1367 C1384 1.574 1_565 S
C1367 C1386 1.368 . S
C1367 H1391 0.949 . S
H1368 C1372 0.949 . S
C1369 C1370 1.349 . S
C1369 C1371 1.327 . S
C1369 H1392 0.950 . S
C1370 C1369 1.349 . S
C1370 C1382 1.349 . S
C1371 C1369 1.327 . S
C1371 C1387 1.429 . S
C1371 H1393 0.950 . S
C1372 H1368 0.949 . S
C1372 C1380 1.574 . S
C1372 C1388 1.368 1_565 S
H1373 C1381 0.950 . S
H1374 C1379 0.950 . S
H1375 C1380 0.949 . S
H1376 C1382 0.950 . S
H1377 C1383 0.950 . S
H1378 C1384 0.949 . S
C1379 H1374 0.950 . S
C1379 C1381 1.327 . S
C1379 C1385 1.429 . S
C1380 C1372 1.574 . S
C1380 H1375 0.949 . S
C1380 C1386 1.368 . S
C1381 C1365 1.349 . S
C1381 H1373 0.950 . S
C1381 C1379 1.327 . S
C1382 C1370 1.349 . S
C1382 H1376 0.950 . S
C1382 C1383 1.327 . S
C1383 H1377 0.950 . S
C1383 C1382 1.327 . S
C1383 C1387 1.429 . S
C1384 C1367 1.574 1_545 S
C1384 H1378 0.949 . S
C1384 C1388 1.368 . S
C1385 C1366 1.429 . S
C1385 C1379 1.429 . S
C1385 C1386 1.523 . S
C1386 C1367 1.368 . S
C1386 C1380 1.368 . S
C1386 C1385 1.523 . S
C1387 C1371 1.429 . S
C1387 C1383 1.429 . S
C1387 C1388 1.523 . S
C1388 C1372 1.368 1_545 S
C1388 C1384 1.368 . S
C1388 C1387 1.523 . S
H1389 C1364 0.950 . S
H1390 C1366 0.950 . S
H1391 C1367 0.949 . S
H1392 C1369 0.950 . S
H1393 C1371 0.950 . S
C1394 C1395 1.349 . S
C1394 C1396 1.327 . S
C1394 H1419 0.950 . S
C1395 C1394 1.349 . S
C1395 C1411 1.349 . S
C1396 C1394 1.327 . S
C1396 C1415 1.429 . S
C1396 H1420 0.950 . S
C1397 C1414 1.574 1_655 S
C1397 C1416 1.368 . S
C1397 H1421 0.949 . S
H1398 C1402 0.949 . S
C1399 C1400 1.349 . S
C1399 C1401 1.327 . S
C1399 H1422 0.950 . S
C1400 C1399 1.349 . S
C1400 C1412 1.349 . S
C1401 C1399 1.327 . S
C1401 C1417 1.429 . S
C1401 H1423 0.950 . S
C1402 H1398 0.949 . S
C1402 C1410 1.574 1_455 S
C1402 C1418 1.368 . S
H1403 C1411 0.950 . S
H1404 C1409 0.950 . S
H1405 C1410 0.949 . S
H1406 C1412 0.950 . S
H1407 C1413 0.950 . S
H1408 C1414 0.949 . S
C1409 H1404 0.950 . S
C1409 C1411 1.327 . S
C1409 C1415 1.429 . S
C1410 C1402 1.574 1_655 S
C1410 H1405 0.949 . S
C1410 C1416 1.368 . S
C1411 C1395 1.349 . S
C1411 H1403 0.950 . S
C1411 C1409 1.327 . S
C1412 C1400 1.349 . S
C1412 H1406 0.950 . S
C1412 C1413 1.327 . S
C1413 H1407 0.950 . S
C1413 C1412 1.327 . S
C1413 C1417 1.429 . S
C1414 C1397 1.574 1_455 S
C1414 H1408 0.949 . S
C1414 C1418 1.368 . S
C1415 C1396 1.429 . S
C1415 C1409 1.429 . S
C1415 C1416 1.523 . S
C1416 C1397 1.368 . S
C1416 C1410 1.368 . S
C1416 C1415 1.523 . S
C1417 C1401 1.429 . S
C1417 C1413 1.429 . S
C1417 C1418 1.523 . S
C1418 C1402 1.368 . S
C1418 C1414 1.368 . S
C1418 C1417 1.523 . S
H1419 C1394 0.950 . S
H1420 C1396 0.950 . S
H1421 C1397 0.949 . S
H1422 C1399 0.950 . S
H1423 C1401 0.950 . S
C1424 C1425 1.349 . S
C1424 C1426 1.327 . S
C1424 H1449 0.950 . S
C1425 C1424 1.349 . S
C1425 C1441 1.349 . S
C1426 C1424 1.327 . S
C1426 C1445 1.429 . S
C1426 H1450 0.950 . S
C1427 C1444 1.574 . S
C1427 C1446 1.368 . S
C1427 H1451 0.949 . S
H1428 C1432 0.949 . S
C1429 C1430 1.349 . S
C1429 C1431 1.327 . S
C1429 H1452 0.950 . S
C1430 C1429 1.349 . S
C1430 C1442 1.349 . S
C1431 C1429 1.327 . S
C1431 C1447 1.429 . S
C1431 H1453 0.950 . S
C1432 H1428 0.949 . S
C1432 C1440 1.574 . S
C1432 C1448 1.368 . S
H1433 C1441 0.950 . S
H1434 C1439 0.950 . S
H1435 C1440 0.949 . S
H1436 C1442 0.950 . S
H1437 C1443 0.950 . S
H1438 C1444 0.949 . S
C1439 H1434 0.950 . S
C1439 C1441 1.327 . S
C1439 C1445 1.429 . S
C1440 C1432 1.574 . S
C1440 H1435 0.949 . S
C1440 C1446 1.368 . S
C1441 C1425 1.349 . S
C1441 H1433 0.950 . S
C1441 C1439 1.327 . S
C1442 C1430 1.349 . S
C1442 H1436 0.950 . S
C1442 C1443 1.327 . S
C1443 H1437 0.950 . S
C1443 C1442 1.327 . S
C1443 C1447 1.429 . S
C1444 C1427 1.574 . S
C1444 H1438 0.949 . S
C1444 C1448 1.368 . S
C1445 C1426 1.429 . S
C1445 C1439 1.429 . S
C1445 C1446 1.523 . S
C1446 C1427 1.368 . S
C1446 C1440 1.368 . S
C1446 C1445 1.523 . S
C1447 C1431 1.429 . S
C1447 C1443 1.429 . S
C1447 C1448 1.523 . S
C1448 C1432 1.368 . S
C1448 C1444 1.368 . S
C1448 C1447 1.523 . S
H1449 C1424 0.950 . S
H1450 C1426 0.950 . S
H1451 C1427 0.949 . S
H1452 C1429 0.950 . S
H1453 C1431 0.950 . S
C1454 C1455 1.349 . S
C1454 C1456 1.327 . S
C1454 H1479 0.950 . S
C1455 C1454 1.349 . S
C1455 C1471 1.349 . S
C1456 C1454 1.327 . S
C1456 C1475 1.429 . S
C1456 H1480 0.950 . S
C1457 C1474 1.574 . S
C1457 C1476 1.368 . S
C1457 H1481 0.949 . S
H1458 C1462 0.949 . S
C1459 C1460 1.349 . S
C1459 C1461 1.327 . S
C1459 H1482 0.950 . S
C1460 C1459 1.349 . S
C1460 C1472 1.349 . S
C1461 C1459 1.327 . S
C1461 C1477 1.429 . S
C1461 H1483 0.950 . S
C1462 H1458 0.949 . S
C1462 C1470 1.574 . S
C1462 C1478 1.368 . S
H1463 C1471 0.950 . S
H1464 C1469 0.950 . S
H1465 C1470 0.949 . S
H1466 C1472 0.950 . S
H1467 C1473 0.950 . S
H1468 C1474 0.949 . S
C1469 H1464 0.950 . S
C1469 C1471 1.327 . S
C1469 C1475 1.429 . S
C1470 C1462 1.574 . S
C1470 H1465 0.949 . S
C1470 C1476 1.368 . S
C1471 C1455 1.349 . S
C1471 H1463 0.950 . S
C1471 C1469 1.327 . S
C1472 C1460 1.349 . S
C1472 H1466 0.950 . S
C1472 C1473 1.327 . S
C1473 H1467 0.950 . S
C1473 C1472 1.327 . S
C1473 C1477 1.429 . S
C1474 C1457 1.574 . S
C1474 H1468 0.949 . S
C1474 C1478 1.368 . S
C1475 C1456 1.429 . S
C1475 C1469 1.429 . S
C1475 C1476 1.523 . S
C1476 C1457 1.368 . S
C1476 C1470 1.368 . S
C1476 C1475 1.523 . S
C1477 C1461 1.429 . S
C1477 C1473 1.429 . S
C1477 C1478 1.523 . S
C1478 C1462 1.368 . S
C1478 C1474 1.368 . S
C1478 C1477 1.523 . S
H1479 C1454 0.950 . S
H1480 C1456 0.950 . S
H1481 C1457 0.949 . S
H1482 C1459 0.950 . S
H1483 C1461 0.950 . S
C1484 C1485 1.349 . S
C1484 C1486 1.327 . S
C1484 H1509 0.950 . S
C1485 C1484 1.349 . S
C1485 C1501 1.349 . S
C1486 C1484 1.327 . S
C1486 C1505 1.429 . S
C1486 H1510 0.950 . S
C1487 C1504 1.574 . S
C1487 C1506 1.368 . S
C1487 H1511 0.949 . S
H1488 C1492 0.949 . S
C1489 C1490 1.349 . S
C1489 C1491 1.327 . S
C1489 H1512 0.950 . S
C1490 C1489 1.349 . S
C1490 C1502 1.349 . S
C1491 C1489 1.327 . S
C1491 C1507 1.429 . S
C1491 H1513 0.950 . S
C1492 H1488 0.949 . S
C1492 C1500 1.574 . S
C1492 C1508 1.368 . S
H1493 C1501 0.950 . S
H1494 C1499 0.950 . S
H1495 C1500 0.949 . S
H1496 C1502 0.950 . S
H1497 C1503 0.950 . S
H1498 C1504 0.949 . S
C1499 H1494 0.950 . S
C1499 C1501 1.327 . S
C1499 C1505 1.429 . S
C1500 C1492 1.574 . S
C1500 H1495 0.949 . S
C1500 C1506 1.368 . S
C1501 C1485 1.349 . S
C1501 H1493 0.950 . S
C1501 C1499 1.327 . S
C1502 C1490 1.349 . S
C1502 H1496 0.950 . S
C1502 C1503 1.327 . S
C1503 H1497 0.950 . S
C1503 C1502 1.327 . S
C1503 C1507 1.429 . S
C1504 C1487 1.574 . S
C1504 H1498 0.949 . S
C1504 C1508 1.368 . S
C1505 C1486 1.429 . S
C1505 C1499 1.429 . S
C1505 C1506 1.523 . S
C1506 C1487 1.368 . S
C1506 C1500 1.368 . S
C1506 C1505 1.523 . S
C1507 C1491 1.429 . S
C1507 C1503 1.429 . S
C1507 C1508 1.523 . S
C1508 C1492 1.368 . S
C1508 C1504 1.368 . S
C1508 C1507 1.523 . S
H1509 C1484 0.950 . S
H1510 C1486 0.950 . S
H1511 C1487 0.949 . S
H1512 C1489 0.950 . S
H1513 C1491 0.950 . S
C1514 C1515 1.349 . S
C1514 C1516 1.327 . S
C1514 H1539 0.950 . S
C1515 C1514 1.349 . S
C1515 C1531 1.349 . S
C1516 C1514 1.327 . S
C1516 C1535 1.429 . S
C1516 H1540 0.950 . S
C1517 C1534 1.574 . S
C1517 C1536 1.368 . S
C1517 H1541 0.949 . S
H1518 C1522 0.949 . S
C1519 C1520 1.349 . S
C1519 C1521 1.327 . S
C1519 H1542 0.950 . S
C1520 C1519 1.349 . S
C1520 C1532 1.349 . S
C1521 C1519 1.327 . S
C1521 C1537 1.429 . S
C1521 H1543 0.950 . S
C1522 H1518 0.949 . S
C1522 C1530 1.574 . S
C1522 C1538 1.368 . S
H1523 C1531 0.950 . S
H1524 C1529 0.950 . S
H1525 C1530 0.949 . S
H1526 C1532 0.950 . S
H1527 C1533 0.950 . S
H1528 C1534 0.949 . S
C1529 H1524 0.950 . S
C1529 C1531 1.327 . S
C1529 C1535 1.429 . S
C1530 C1522 1.574 . S
C1530 H1525 0.949 . S
C1530 C1536 1.368 . S
C1531 C1515 1.349 . S
C1531 H1523 0.950 . S
C1531 C1529 1.327 . S
C1532 C1520 1.349 . S
C1532 H1526 0.950 . S
C1532 C1533 1.327 . S
C1533 H1527 0.950 . S
C1533 C1532 1.327 . S
C1533 C1537 1.429 . S
C1534 C1517 1.574 . S
C1534 H1528 0.949 . S
C1534 C1538 1.368 . S
C1535 C1516 1.429 . S
C1535 C1529 1.429 . S
C1535 C1536 1.523 . S
C1536 C1517 1.368 . S
C1536 C1530 1.368 . S
C1536 C1535 1.523 . S
C1537 C1521 1.429 . S
C1537 C1533 1.429 . S
C1537 C1538 1.523 . S
C1538 C1522 1.368 . S
C1538 C1534 1.368 . S
C1538 C1537 1.523 . S
H1539 C1514 0.950 . S
H1540 C1516 0.950 . S
H1541 C1517 0.949 . S
H1542 C1519 0.950 . S
H1543 C1521 0.950 . S
C1544 C1545 1.349 . S
C1544 C1546 1.327 . S
C1544 H1569 0.950 . S
C1545 C1544 1.349 . S
C1545 C1561 1.349 . S
C1546 C1544 1.327 . S
C1546 C1565 1.429 . S
C1546 H1570 0.950 . S
C1547 C1564 1.574 . S
C1547 C1566 1.368 . S
C1547 H1571 0.949 . S
H1548 C1552 0.949 . S
C1549 C1550 1.349 . S
C1549 C1551 1.327 . S
C1549 H1572 0.950 . S
C1550 C1549 1.349 . S
C1550 C1562 1.349 . S
C1551 C1549 1.327 . S
C1551 C1567 1.429 . S
C1551 H1573 0.950 . S
C1552 H1548 0.949 . S
C1552 C1560 1.574 . S
C1552 C1568 1.368 . S
H1553 C1561 0.950 . S
H1554 C1559 0.950 . S
H1555 C1560 0.949 . S
H1556 C1562 0.950 . S
H1557 C1563 0.950 . S
H1558 C1564 0.949 . S
C1559 H1554 0.950 . S
C1559 C1561 1.327 . S
C1559 C1565 1.429 . S
C1560 C1552 1.574 . S
C1560 H1555 0.949 . S
C1560 C1566 1.368 . S
C1561 C1545 1.349 . S
C1561 H1553 0.950 . S
C1561 C1559 1.327 . S
C1562 C1550 1.349 . S
C1562 H1556 0.950 . S
C1562 C1563 1.327 . S
C1563 H1557 0.950 . S
C1563 C1562 1.327 . S
C1563 C1567 1.429 . S
C1564 C1547 1.574 . S
C1564 H1558 0.949 . S
C1564 C1568 1.368 . S
C1565 C1546 1.429 . S
C1565 C1559 1.429 . S
C1565 C1566 1.523 . S
C1566 C1547 1.368 . S
C1566 C1560 1.368 . S
C1566 C1565 1.523 . S
C1567 C1551 1.429 . S
C1567 C1563 1.429 . S
C1567 C1568 1.523 . S
C1568 C1552 1.368 . S
C1568 C1564 1.368 . S
C1568 C1567 1.523 . S
H1569 C1544 0.950 . S
H1570 C1546 0.950 . S
H1571 C1547 0.949 . S
H1572 C1549 0.950 . S
H1573 C1551 0.950 . S
C1574 C1575 1.349 . S
C1574 C1576 1.327 . S
C1574 H1599 0.950 . S
C1575 C1574 1.349 . S
C1575 C1591 1.349 . S
C1576 C1574 1.327 . S
C1576 C1595 1.429 . S
C1576 H1600 0.950 . S
C1577 C1594 1.574 . S
C1577 C1596 1.368 . S
C1577 H1601 0.949 . S
H1578 C1582 0.949 . S
C1579 C1580 1.349 . S
C1579 C1581 1.327 . S
C1579 H1602 0.950 . S
C1580 C1579 1.349 . S
C1580 C1592 1.349 . S
C1581 C1579 1.327 . S
C1581 C1597 1.429 . S
C1581 H1603 0.950 . S
C1582 H1578 0.949 . S
C1582 C1590 1.574 . S
C1582 C1598 1.368 . S
H1583 C1591 0.950 . S
H1584 C1589 0.950 . S
H1585 C1590 0.949 . S
H1586 C1592 0.950 . S
H1587 C1593 0.950 . S
H1588 C1594 0.949 . S
C1589 H1584 0.950 . S
C1589 C1591 1.327 . S
C1589 C1595 1.429 . S
C1590 C1582 1.574 . S
C1590 H1585 0.949 . S
C1590 C1596 1.368 . S
C1591 C1575 1.349 . S
C1591 H1583 0.950 . S
C1591 C1589 1.327 . S
C1592 C1580 1.349 . S
C1592 H1586 0.950 . S
C1592 C1593 1.327 . S
C1593 H1587 0.950 . S
C1593 C1592 1.327 . S
C1593 C1597 1.429 . S
C1594 C1577 1.574 . S
C1594 H1588 0.949 . S
C1594 C1598 1.368 . S
C1595 C1576 1.429 . S
C1595 C1589 1.429 . S
C1595 C1596 1.523 . S
C1596 C1577 1.368 . S
C1596 C1590 1.368 . S
C1596 C1595 1.523 . S
C1597 C1581 1.429 . S
C1597 C1593 1.429 . S
C1597 C1598 1.523 . S
C1598 C1582 1.368 . S
C1598 C1594 1.368 . S
C1598 C1597 1.523 . S
H1599 C1574 0.950 . S
H1600 C1576 0.950 . S
H1601 C1577 0.949 . S
H1602 C1579 0.950 . S
H1603 C1581 0.950 . S
C1604 C1605 1.349 . S
C1604 C1606 1.327 . S
C1604 H1629 0.950 . S
C1605 C1604 1.349 . S
C1605 C1621 1.349 . S
C1606 C1604 1.327 . S
C1606 C1625 1.429 . S
C1606 H1630 0.950 . S
C1607 C1624 1.574 . S
C1607 C1626 1.368 . S
C1607 H1631 0.949 . S
H1608 C1612 0.949 . S
C1609 C1610 1.349 . S
C1609 C1611 1.327 . S
C1609 H1632 0.950 . S
C1610 C1609 1.349 . S
C1610 C1622 1.349 . S
C1611 C1609 1.327 . S
C1611 C1627 1.429 . S
C1611 H1633 0.950 . S
C1612 H1608 0.949 . S
C1612 C1620 1.574 . S
C1612 C1628 1.368 . S
H1613 C1621 0.950 . S
H1614 C1619 0.950 . S
H1615 C1620 0.949 . S
H1616 C1622 0.950 . S
H1617 C1623 0.950 . S
H1618 C1624 0.949 . S
C1619 H1614 0.950 . S
C1619 C1621 1.327 . S
C1619 C1625 1.429 . S
C1620 C1612 1.574 . S
C1620 H1615 0.949 . S
C1620 C1626 1.368 . S
C1621 C1605 1.349 . S
C1621 H1613 0.950 . S
C1621 C1619 1.327 . S
C1622 C1610 1.349 . S
C1622 H1616 0.950 . S
C1622 C1623 1.327 . S
C1623 H1617 0.950 . S
C1623 C1622 1.327 . S
C1623 C1627 1.429 . S
C1624 C1607 1.574 . S
C1624 H1618 0.949 . S
C1624 C1628 1.368 . S
C1625 C1606 1.429 . S
C1625 C1619 1.429 . S
C1625 C1626 1.523 . S
C1626 C1607 1.368 . S
C1626 C1620 1.368 . S
C1626 C1625 1.523 . S
C1627 C1611 1.429 . S
C1627 C1623 1.429 . S
C1627 C1628 1.523 . S
C1628 C1612 1.368 . S
C1628 C1624 1.368 . S
C1628 C1627 1.523 . S
H1629 C1604 0.950 . S
H1630 C1606 0.950 . S
H1631 C1607 0.949 . S
H1632 C1609 0.950 . S
H1633 C1611 0.950 . S
C1634 C1635 1.349 . S
C1634 C1636 1.327 . S
C1634 H1659 0.950 . S
C1635 C1634 1.349 . S
C1635 C1651 1.349 . S
C1636 C1634 1.327 . S
C1636 C1655 1.429 . S
C1636 H1660 0.950 . S
C1637 C1654 1.574 . S
C1637 C1656 1.368 . S
C1637 H1661 0.949 . S
H1638 C1642 0.949 . S
C1639 C1640 1.349 . S
C1639 C1641 1.327 . S
C1639 H1662 0.950 . S
C1640 C1639 1.349 . S
C1640 C1652 1.349 . S
C1641 C1639 1.327 . S
C1641 C1657 1.429 . S
C1641 H1663 0.950 . S
C1642 H1638 0.949 . S
C1642 C1650 1.574 . S
C1642 C1658 1.368 . S
H1643 C1651 0.950 . S
H1644 C1649 0.950 . S
H1645 C1650 0.949 . S
H1646 C1652 0.950 . S
H1647 C1653 0.950 . S
H1648 C1654 0.949 . S
C1649 H1644 0.950 . S
C1649 C1651 1.327 . S
C1649 C1655 1.429 . S
C1650 C1642 1.574 . S
C1650 H1645 0.949 . S
C1650 C1656 1.368 . S
C1651 C1635 1.349 . S
C1651 H1643 0.950 . S
C1651 C1649 1.327 . S
C1652 C1640 1.349 . S
C1652 H1646 0.950 . S
C1652 C1653 1.327 . S
C1653 H1647 0.950 . S
C1653 C1652 1.327 . S
C1653 C1657 1.429 . S
C1654 C1637 1.574 . S
C1654 H1648 0.949 . S
C1654 C1658 1.368 . S
C1655 C1636 1.429 . S
C1655 C1649 1.429 . S
C1655 C1656 1.523 . S
C1656 C1637 1.368 . S
C1656 C1650 1.368 . S
C1656 C1655 1.523 . S
C1657 C1641 1.429 . S
C1657 C1653 1.429 . S
C1657 C1658 1.523 . S
C1658 C1642 1.368 . S
C1658 C1654 1.368 . S
C1658 C1657 1.523 . S
H1659 C1634 0.950 . S
H1660 C1636 0.950 . S
H1661 C1637 0.949 . S
H1662 C1639 0.950 . S
H1663 C1641 0.950 . S
C1664 C1665 1.349 . S
C1664 C1666 1.327 . S
C1664 H1689 0.950 . S
C1665 C1664 1.349 . S
C1665 C1681 1.349 . S
C1666 C1664 1.327 . S
C1666 C1685 1.429 . S
C1666 H1690 0.950 . S
C1667 C1684 1.574 . S
C1667 C1686 1.368 . S
C1667 H1691 0.949 . S
H1668 C1672 0.949 . S
C1669 C1670 1.349 . S
C1669 C1671 1.327 . S
C1669 H1692 0.950 . S
C1670 C1669 1.349 . S
C1670 C1682 1.349 . S
C1671 C1669 1.327 . S
C1671 C1687 1.429 . S
C1671 H1693 0.950 . S
C1672 H1668 0.949 . S
C1672 C1680 1.574 . S
C1672 C1688 1.368 . S
H1673 C1681 0.950 . S
H1674 C1679 0.950 . S
H1675 C1680 0.949 . S
H1676 C1682 0.950 . S
H1677 C1683 0.950 . S
H1678 C1684 0.949 . S
C1679 H1674 0.950 . S
C1679 C1681 1.327 . S
C1679 C1685 1.429 . S
C1680 C1672 1.574 . S
C1680 H1675 0.949 . S
C1680 C1686 1.368 . S
C1681 C1665 1.349 . S
C1681 H1673 0.950 . S
C1681 C1679 1.327 . S
C1682 C1670 1.349 . S
C1682 H1676 0.950 . S
C1682 C1683 1.327 . S
C1683 H1677 0.950 . S
C1683 C1682 1.327 . S
C1683 C1687 1.429 . S
C1684 C1667 1.574 . S
C1684 H1678 0.949 . S
C1684 C1688 1.368 . S
C1685 C1666 1.429 . S
C1685 C1679 1.429 . S
C1685 C1686 1.523 . S
C1686 C1667 1.368 . S
C1686 C1680 1.368 . S
C1686 C1685 1.523 . S
C1687 C1671 1.429 . S
C1687 C1683 1.429 . S
C1687 C1688 1.523 . S
C1688 C1672 1.368 . S
C1688 C1684 1.368 . S
C1688 C1687 1.523 . S
H1689 C1664 0.950 . S
H1690 C1666 0.950 . S
H1691 C1667 0.949 . S
H1692 C1669 0.950 . S
H1693 C1671 0.950 . S
C1694 C1695 1.349 . S
C1694 C1696 1.327 . S
C1694 H1719 0.950 . S
C1695 C1694 1.349 . S
C1695 C1711 1.349 . S
C1696 C1694 1.327 . S
C1696 C1715 1.429 . S
C1696 H1720 0.950 . S
C1697 C1714 1.574 . S
C1697 C1716 1.368 . S
C1697 H1721 0.949 . S
H1698 C1702 0.949 . S
C1699 C1700 1.349 1_556 S
C1699 C1701 1.327 1_556 S
C1699 H1722 0.950 . S
C1700 C1699 1.349 1_554 S
C1700 C1712 1.349 . S
C1701 C1699 1.327 1_554 S
C1701 C1717 1.429 . S
C1701 H1723 0.950 1_554 S
C1702 H1698 0.949 . S
C1702 C1710 1.574 . S
C1702 C1718 1.368 . S
H1703 C1711 0.950 . S
H1704 C1709 0.950 . S
H1705 C1710 0.949 . S
H1706 C1712 0.950 . S
H1707 C1713 0.950 . S
H1708 C1714 0.949 . S
C1709 H1704 0.950 . S
C1709 C1711 1.327 . S
C1709 C1715 1.429 . S
C1710 C1702 1.574 . S
C1710 H1705 0.949 . S
C1710 C1716 1.368 . S
C1711 C1695 1.349 . S
C1711 H1703 0.950 . S
C1711 C1709 1.327 . S
C1712 C1700 1.349 . S
C1712 H1706 0.950 . S
C1712 C1713 1.327 . S
C1713 H1707 0.950 . S
C1713 C1712 1.327 . S
C1713 C1717 1.429 . S
C1714 C1697 1.574 . S
C1714 H1708 0.949 . S
C1714 C1718 1.368 . S
C1715 C1696 1.429 . S
C1715 C1709 1.429 . S
C1715 C1716 1.523 . S
C1716 C1697 1.368 . S
C1716 C1710 1.368 . S
C1716 C1715 1.523 . S
C1717 C1701 1.429 . S
C1717 C1713 1.429 . S
C1717 C1718 1.523 . S
C1718 C1702 1.368 . S
C1718 C1714 1.368 . S
C1718 C1717 1.523 . S
H1719 C1694 0.950 . S
H1720 C1696 0.950 . S
H1721 C1697 0.949 . S
H1722 C1699 0.950 . S
H1723 C1701 0.950 1_556 S
C1724 C1725 1.349 . S
C1724 C1726 1.327 . S
C1724 H1749 0.950 . S
C1725 C1724 1.349 . S
C1725 C1741 1.349 . S
C1726 C1724 1.327 . S
C1726 C1745 1.429 . S
C1726 H1750 0.950 . S
C1727 C1744 1.574 . S
C1727 C1746 1.368 . S
C1727 H1751 0.949 . S
H1728 C1732 0.949 . S
C1729 C1730 1.349 . S
C1729 C1731 1.327 . S
C1729 H1752 0.950 . S
C1730 C1729 1.349 . S
C1730 C1742 1.349 . S
C1731 C1729 1.327 . S
C1731 C1747 1.429 . S
C1731 H1753 0.950 . S
C1732 H1728 0.949 . S
C1732 C1740 1.574 . S
C1732 C1748 1.368 . S
H1733 C1741 0.950 . S
H1734 C1739 0.950 . S
H1735 C1740 0.949 . S
H1736 C1742 0.950 . S
H1737 C1743 0.950 . S
H1738 C1744 0.949 . S
C1739 H1734 0.950 . S
C1739 C1741 1.327 . S
C1739 C1745 1.429 . S
C1740 C1732 1.574 . S
C1740 H1735 0.949 . S
C1740 C1746 1.368 . S
C1741 C1725 1.349 . S
C1741 H1733 0.950 . S
C1741 C1739 1.327 . S
C1742 C1730 1.349 . S
C1742 H1736 0.950 . S
C1742 C1743 1.327 . S
C1743 H1737 0.950 . S
C1743 C1742 1.327 . S
C1743 C1747 1.429 . S
C1744 C1727 1.574 . S
C1744 H1738 0.949 . S
C1744 C1748 1.368 . S
C1745 C1726 1.429 . S
C1745 C1739 1.429 . S
C1745 C1746 1.523 . S
C1746 C1727 1.368 . S
C1746 C1740 1.368 . S
C1746 C1745 1.523 . S
C1747 C1731 1.429 . S
C1747 C1743 1.429 . S
C1747 C1748 1.523 . S
C1748 C1732 1.368 . S
C1748 C1744 1.368 . S
C1748 C1747 1.523 . S
H1749 C1724 0.950 . S
H1750 C1726 0.950 . S
H1751 C1727 0.949 . S
H1752 C1729 0.950 . S
H1753 C1731 0.950 . S
C1754 C1755 1.349 . S
C1754 C1756 1.327 . S
C1754 H1779 0.950 . S
C1755 C1754 1.349 . S
C1755 C1771 1.349 . S
C1756 C1754 1.327 . S
C1756 C1775 1.429 . S
C1756 H1780 0.950 . S
C1757 C1774 1.574 . S
C1757 C1776 1.368 . S
C1757 H1781 0.949 . S
H1758 C1762 0.949 . S
C1759 C1760 1.349 1_556 S
C1759 C1761 1.327 1_556 S
C1759 H1782 0.950 . S
C1760 C1759 1.349 1_554 S
C1760 C1772 1.349 . S
C1761 C1759 1.327 1_554 S
C1761 C1777 1.429 . S
C1761 H1783 0.950 1_554 S
C1762 H1758 0.949 . S
C1762 C1770 1.574 . S
C1762 C1778 1.368 . S
H1763 C1771 0.950 . S
H1764 C1769 0.950 . S
H1765 C1770 0.949 . S
H1766 C1772 0.950 . S
H1767 C1773 0.950 . S
H1768 C1774 0.949 . S
C1769 H1764 0.950 . S
C1769 C1771 1.327 . S
C1769 C1775 1.429 . S
C1770 C1762 1.574 . S
C1770 H1765 0.949 . S
C1770 C1776 1.368 . S
C1771 C1755 1.349 . S
C1771 H1763 0.950 . S
C1771 C1769 1.327 . S
C1772 C1760 1.349 . S
C1772 H1766 0.950 . S
C1772 C1773 1.327 . S
C1773 H1767 0.950 . S
C1773 C1772 1.327 . S
C1773 C1777 1.429 . S
C1774 C1757 1.574 . S
C1774 H1768 0.949 . S
C1774 C1778 1.368 . S
C1775 C1756 1.429 . S
C1775 C1769 1.429 . S
C1775 C1776 1.523 . S
C1776 C1757 1.368 . S
C1776 C1770 1.368 . S
C1776 C1775 1.523 . S
C1777 C1761 1.429 . S
C1777 C1773 1.429 . S
C1777 C1778 1.523 . S
C1778 C1762 1.368 . S
C1778 C1774 1.368 . S
C1778 C1777 1.523 . S
H1779 C1754 0.950 . S
H1780 C1756 0.950 . S
H1781 C1757 0.949 . S
H1782 C1759 0.950 . S
H1783 C1761 0.950 1_556 S
C1784 C1785 1.349 . S
C1784 C1786 1.327 . S
C1784 H1809 0.950 . S
C1785 C1784 1.349 . S
C1785 C1801 1.349 . S
C1786 C1784 1.327 . S
C1786 C1805 1.429 . S
C1786 H1810 0.950 . S
C1787 C1804 1.574 . S
C1787 C1806 1.368 . S
C1787 H1811 0.949 . S
H1788 C1792 0.949 . S
C1789 C1790 1.349 . S
C1789 C1791 1.327 . S
C1789 H1812 0.950 . S
C1790 C1789 1.349 . S
C1790 C1802 1.349 . S
C1791 C1789 1.327 . S
C1791 C1807 1.429 . S
C1791 H1813 0.950 . S
C1792 H1788 0.949 . S
C1792 C1800 1.574 . S
C1792 C1808 1.368 . S
H1793 C1801 0.950 . S
H1794 C1799 0.950 . S
H1795 C1800 0.949 . S
H1796 C1802 0.950 . S
H1797 C1803 0.950 . S
H1798 C1804 0.949 . S
C1799 H1794 0.950 . S
C1799 C1801 1.327 . S
C1799 C1805 1.429 . S
C1800 C1792 1.574 . S
C1800 H1795 0.949 . S
C1800 C1806 1.368 . S
C1801 C1785 1.349 . S
C1801 H1793 0.950 . S
C1801 C1799 1.327 . S
C1802 C1790 1.349 . S
C1802 H1796 0.950 . S
C1802 C1803 1.327 . S
C1803 H1797 0.950 . S
C1803 C1802 1.327 . S
C1803 C1807 1.429 . S
C1804 C1787 1.574 . S
C1804 H1798 0.949 . S
C1804 C1808 1.368 . S
C1805 C1786 1.429 . S
C1805 C1799 1.429 . S
C1805 C1806 1.523 . S
C1806 C1787 1.368 . S
C1806 C1800 1.368 . S
C1806 C1805 1.523 . S
C1807 C1791 1.429 . S
C1807 C1803 1.429 . S
C1807 C1808 1.523 . S
C1808 C1792 1.368 . S
C1808 C1804 1.368 . S
C1808 C1807 1.523 . S
H1809 C1784 0.950 . S
H1810 C1786 0.950 . S
H1811 C1787 0.949 . S
H1812 C1789 0.950 . S
H1813 C1791 0.950 . S
C1814 C1815 1.349 . S
C1814 C1816 1.327 . S
C1814 H1839 0.950 . S
C1815 C1814 1.349 . S
C1815 C1831 1.349 . S
C1816 C1814 1.327 . S
C1816 C1835 1.429 . S
C1816 H1840 0.950 . S
C1817 C1834 1.574 . S
C1817 C1836 1.368 . S
C1817 H1841 0.949 . S
H1818 C1822 0.949 . S
C1819 C1820 1.349 . S
C1819 C1821 1.327 . S
C1819 H1842 0.950 . S
C1820 C1819 1.349 . S
C1820 C1832 1.349 . S
C1821 C1819 1.327 . S
C1821 C1837 1.429 . S
C1821 H1843 0.950 . S
C1822 H1818 0.949 . S
C1822 C1830 1.574 . S
C1822 C1838 1.368 . S
H1823 C1831 0.950 . S
H1824 C1829 0.950 . S
H1825 C1830 0.949 . S
H1826 C1832 0.950 . S
H1827 C1833 0.950 . S
H1828 C1834 0.949 . S
C1829 H1824 0.950 . S
C1829 C1831 1.327 . S
C1829 C1835 1.429 . S
C1830 C1822 1.574 . S
C1830 H1825 0.949 . S
C1830 C1836 1.368 . S
C1831 C1815 1.349 . S
C1831 H1823 0.950 . S
C1831 C1829 1.327 . S
C1832 C1820 1.349 . S
C1832 H1826 0.950 . S
C1832 C1833 1.327 . S
C1833 H1827 0.950 . S
C1833 C1832 1.327 . S
C1833 C1837 1.429 . S
C1834 C1817 1.574 . S
C1834 H1828 0.949 . S
C1834 C1838 1.368 . S
C1835 C1816 1.429 . S
C1835 C1829 1.429 . S
C1835 C1836 1.523 . S
C1836 C1817 1.368 . S
C1836 C1830 1.368 . S
C1836 C1835 1.523 . S
C1837 C1821 1.429 . S
C1837 C1833 1.429 . S
C1837 C1838 1.523 . S
C1838 C1822 1.368 . S
C1838 C1834 1.368 . S
C1838 C1837 1.523 . S
H1839 C1814 0.950 . S
H1840 C1816 0.950 . S
H1841 C1817 0.949 . S
H1842 C1819 0.950 . S
H1843 C1821 0.950 . S
C1844 C1845 1.349 . S
C1844 C1846 1.327 . S
C1844 H1869 0.950 . S
C1845 C1844 1.349 . S
C1845 C1861 1.349 . S
C1846 C1844 1.327 . S
C1846 C1865 1.429 . S
C1846 H1870 0.950 . S
C1847 C1864 1.574 . S
C1847 C1866 1.368 . S
C1847 H1871 0.949 . S
H1848 C1852 0.949 . S
C1849 C1850 1.349 . S
C1849 C1851 1.327 . S
C1849 H1872 0.950 . S
C1850 C1849 1.349 . S
C1850 C1862 1.349 . S
C1851 C1849 1.327 . S
C1851 C1867 1.429 . S
C1851 H1873 0.950 . S
C1852 H1848 0.949 . S
C1852 C1860 1.574 . S
C1852 C1868 1.368 . S
H1853 C1861 0.950 . S
H1854 C1859 0.950 . S
H1855 C1860 0.949 . S
H1856 C1862 0.950 . S
H1857 C1863 0.950 . S
H1858 C1864 0.949 . S
C1859 H1854 0.950 . S
C1859 C1861 1.327 . S
C1859 C1865 1.429 . S
C1860 C1852 1.574 . S
C1860 H1855 0.949 . S
C1860 C1866 1.368 . S
C1861 C1845 1.349 . S
C1861 H1853 0.950 . S
C1861 C1859 1.327 . S
C1862 C1850 1.349 . S
C1862 H1856 0.950 . S
C1862 C1863 1.327 . S
C1863 H1857 0.950 . S
C1863 C1862 1.327 . S
C1863 C1867 1.429 . S
C1864 C1847 1.574 . S
C1864 H1858 0.949 . S
C1864 C1868 1.368 . S
C1865 C1846 1.429 . S
C1865 C1859 1.429 . S
C1865 C1866 1.523 . S
C1866 C1847 1.368 . S
C1866 C1860 1.368 . S
C1866 C1865 1.523 . S
C1867 C1851 1.429 . S
C1867 C1863 1.429 . S
C1867 C1868 1.523 . S
C1868 C1852 1.368 . S
C1868 C1864 1.368 . S
C1868 C1867 1.523 . S
H1869 C1844 0.950 . S
H1870 C1846 0.950 . S
H1871 C1847 0.949 . S
H1872 C1849 0.950 . S
H1873 C1851 0.950 . S
C1874 C1875 1.349 . S
C1874 C1876 1.327 . S
C1874 H1899 0.950 . S
C1875 C1874 1.349 . S
C1875 C1891 1.349 . S
C1876 C1874 1.327 . S
C1876 C1895 1.429 . S
C1876 H1900 0.950 . S
C1877 C1894 1.574 . S
C1877 C1896 1.368 . S
C1877 H1901 0.949 . S
H1878 C1882 0.949 . S
C1879 C1880 1.349 . S
C1879 C1881 1.327 . S
C1879 H1902 0.950 . S
C1880 C1879 1.349 . S
C1880 C1892 1.349 . S
C1881 C1879 1.327 . S
C1881 C1897 1.429 . S
C1881 H1903 0.950 . S
C1882 H1878 0.949 . S
C1882 C1890 1.574 . S
C1882 C1898 1.368 . S
H1883 C1891 0.950 . S
H1884 C1889 0.950 . S
H1885 C1890 0.949 . S
H1886 C1892 0.950 . S
H1887 C1893 0.950 . S
H1888 C1894 0.949 . S
C1889 H1884 0.950 . S
C1889 C1891 1.327 . S
C1889 C1895 1.429 . S
C1890 C1882 1.574 . S
C1890 H1885 0.949 . S
C1890 C1896 1.368 . S
C1891 C1875 1.349 . S
C1891 H1883 0.950 . S
C1891 C1889 1.327 . S
C1892 C1880 1.349 . S
C1892 H1886 0.950 . S
C1892 C1893 1.327 . S
C1893 H1887 0.950 . S
C1893 C1892 1.327 . S
C1893 C1897 1.429 . S
C1894 C1877 1.574 . S
C1894 H1888 0.949 . S
C1894 C1898 1.368 . S
C1895 C1876 1.429 . S
C1895 C1889 1.429 . S
C1895 C1896 1.523 . S
C1896 C1877 1.368 . S
C1896 C1890 1.368 . S
C1896 C1895 1.523 . S
C1897 C1881 1.429 . S
C1897 C1893 1.429 . S
C1897 C1898 1.523 . S
C1898 C1882 1.368 . S
C1898 C1894 1.368 . S
C1898 C1897 1.523 . S
H1899 C1874 0.950 . S
H1900 C1876 0.950 . S
H1901 C1877 0.949 . S
H1902 C1879 0.950 . S
H1903 C1881 0.950 . S
C945 C701 1.296 . S
C950 C3 1.294 . S
C975 C92 1.236 . S
C980 C524 1.217 . S
C1005 C121 1.293 . S
C1010 C583 1.295 . S
C1035 C642 1.218 . S
C1040 C210 1.236 . S
C1065 C239 1.294 . S
C1070 C347 1.296 . S
C1095 C328 1.236 . S
C1100 C406 1.217 . S
C1125 C465 1.295 . S
C1130 C357 1.293 . S
C1155 C288 1.217 . S
C1160 C446 1.236 . S
C1185 C229 1.296 . S
C1190 C475 1.294 . S
C1215 C564 1.236 . S
C1220 C52 1.217 . S
C1245 C111 1.295 . S
C1250 C593 1.293 . S
C1275 C682 1.236 . S
C1280 C170 1.218 . S
C1305 C711 1.294 . S
C1310 C819 1.296 . S
C1335 C800 1.236 . S
C1340 C878 1.217 . S
C1365 C937 1.295 . S
C1370 C829 1.293 . S
C1395 C760 1.217 . S
C1400 C918 1.236 . S
C1425 C269 1.434 . S
C1430 C33 1.434 . S
C1455 C62 1.150 . S
C1460 C298 1.150 . S
C1485 C151 1.434 . S
C1490 C387 1.434 . S
C1515 C416 1.150 . S
C1520 C180 1.150 . S
C1545 C505 1.434 . S
C1550 C741 1.434 . S
C1575 C770 1.150 . S
C1580 C534 1.150 . S
C1605 C623 1.434 . S
C1610 C859 1.434 . S
C1635 C888 1.150 . S
C1640 C652 1.150 . S
C1665 C831 1.616 . S
C1670 C5 1.616 . S
C1695 C890 1.134 . S
C1700 C64 1.134 1_554 S
C1725 C123 1.616 . S
C1730 C713 1.616 . S
C1755 C772 1.134 . S
C1760 C182 1.134 1_554 S
C1785 C595 1.616 . S
C1790 C241 1.616 . S
C1815 C654 1.134 . S
C1820 C300 1.134 . S
C1845 C359 1.616 . S
C1850 C477 1.616 . S
C1875 C536 1.134 . S
C1880 C418 1.134 . S
