# Generated by pormake.
# Topology rhr, (4)-cn, num edge types: 1
# Building blocks:
#     Node 0, Type 0, BuildingBlock: NAWXER_clean_sbu_0, # of connection points: 4
#     Node 1, Type 0, BuildingBlock: NAWXER_clean_sbu_0, # of connection points: 4
#     Node 2, Type 0, BuildingBlock: NAWXER_clean_sbu_0, # of connection points: 4
#     Node 3, Type 0, BuildingBlock: NAWXER_clean_sbu_0, # of connection points: 4
#     Node 4, Type 0, BuildingBlock: NAWXER_clean_sbu_0, # of connection points: 4
#     Node 5, Type 0, BuildingBlock: NAWXER_clean_sbu_0, # of connection points: 4
#     Node 6, Type 0, BuildingBlock: NAWXER_clean_sbu_0, # of connection points: 4
#     Node 7, Type 0, BuildingBlock: NAWXER_clean_sbu_0, # of connection points: 4
#     Node 8, Type 0, BuildingBlock: NAWXER_clean_sbu_0, # of connection points: 4
#     Node 9, Type 0, BuildingBlock: NAWXER_clean_sbu_0, # of connection points: 4
#     Node 10, Type 0, BuildingBlock: NAWXER_clean_sbu_0, # of connection points: 4
#     Node 11, Type 0, BuildingBlock: NAWXER_clean_sbu_0, # of connection points: 4
#     Node 12, Type 0, BuildingBlock: NAWXER_clean_sbu_0, # of connection points: 4
#     Node 13, Type 0, BuildingBlock: NAWXER_clean_sbu_0, # of connection points: 4
#     Node 14, Type 0, BuildingBlock: NAWXER_clean_sbu_0, # of connection points: 4
#     Node 15, Type 0, BuildingBlock: NAWXER_clean_sbu_0, # of connection points: 4
#     Node 16, Type 0, BuildingBlock: NAWXER_clean_sbu_0, # of connection points: 4
#     Node 17, Type 0, BuildingBlock: NAWXER_clean_sbu_0, # of connection points: 4
#     Node 18, Type 0, BuildingBlock: NAWXER_clean_sbu_0, # of connection points: 4
#     Node 19, Type 0, BuildingBlock: NAWXER_clean_sbu_0, # of connection points: 4
#     Node 20, Type 0, BuildingBlock: NAWXER_clean_sbu_0, # of connection points: 4
#     Node 21, Type 0, BuildingBlock: NAWXER_clean_sbu_0, # of connection points: 4
#     Node 22, Type 0, BuildingBlock: NAWXER_clean_sbu_0, # of connection points: 4
#     Node 23, Type 0, BuildingBlock: NAWXER_clean_sbu_0, # of connection points: 4
#     Edge 24, Type (0, 0), BuildingBlock: EZIPEK_clean_linker_0, # of connection points: 2
#     Edge 25, Type (0, 0), BuildingBlock: EZIPEK_clean_linker_0, # of connection points: 2
#     Edge 26, Type (0, 0), BuildingBlock: EZIPEK_clean_linker_0, # of connection points: 2
#     Edge 27, Type (0, 0), BuildingBlock: EZIPEK_clean_linker_0, # of connection points: 2
#     Edge 28, Type (0, 0), BuildingBlock: EZIPEK_clean_linker_0, # of connection points: 2
#     Edge 29, Type (0, 0), BuildingBlock: EZIPEK_clean_linker_0, # of connection points: 2
#     Edge 30, Type (0, 0), BuildingBlock: EZIPEK_clean_linker_0, # of connection points: 2
#     Edge 31, Type (0, 0), BuildingBlock: EZIPEK_clean_linker_0, # of connection points: 2
#     Edge 32, Type (0, 0), BuildingBlock: EZIPEK_clean_linker_0, # of connection points: 2
#     Edge 33, Type (0, 0), BuildingBlock: EZIPEK_clean_linker_0, # of connection points: 2
#     Edge 34, Type (0, 0), BuildingBlock: EZIPEK_clean_linker_0, # of connection points: 2
#     Edge 35, Type (0, 0), BuildingBlock: EZIPEK_clean_linker_0, # of connection points: 2
#     Edge 36, Type (0, 0), BuildingBlock: EZIPEK_clean_linker_0, # of connection points: 2
#     Edge 37, Type (0, 0), BuildingBlock: EZIPEK_clean_linker_0, # of connection points: 2
#     Edge 38, Type (0, 0), BuildingBlock: EZIPEK_clean_linker_0, # of connection points: 2
#     Edge 39, Type (0, 0), BuildingBlock: EZIPEK_clean_linker_0, # of connection points: 2
#     Edge 40, Type (0, 0), BuildingBlock: EZIPEK_clean_linker_0, # of connection points: 2
#     Edge 41, Type (0, 0), BuildingBlock: EZIPEK_clean_linker_0, # of connection points: 2
#     Edge 42, Type (0, 0), BuildingBlock: EZIPEK_clean_linker_0, # of connection points: 2
#     Edge 43, Type (0, 0), BuildingBlock: EZIPEK_clean_linker_0, # of connection points: 2
#     Edge 44, Type (0, 0), BuildingBlock: EZIPEK_clean_linker_0, # of connection points: 2
#     Edge 45, Type (0, 0), BuildingBlock: EZIPEK_clean_linker_0, # of connection points: 2
#     Edge 46, Type (0, 0), BuildingBlock: EZIPEK_clean_linker_0, # of connection points: 2
#     Edge 47, Type (0, 0), BuildingBlock: EZIPEK_clean_linker_0, # of connection points: 2
#     Edge 48, Type (0, 0), BuildingBlock: EZIPEK_clean_linker_0, # of connection points: 2
#     Edge 49, Type (0, 0), BuildingBlock: EZIPEK_clean_linker_0, # of connection points: 2
#     Edge 50, Type (0, 0), BuildingBlock: EZIPEK_clean_linker_0, # of connection points: 2
#     Edge 51, Type (0, 0), BuildingBlock: EZIPEK_clean_linker_0, # of connection points: 2
#     Edge 52, Type (0, 0), BuildingBlock: EZIPEK_clean_linker_0, # of connection points: 2
#     Edge 53, Type (0, 0), BuildingBlock: EZIPEK_clean_linker_0, # of connection points: 2
#     Edge 54, Type (0, 0), BuildingBlock: EZIPEK_clean_linker_0, # of connection points: 2
#     Edge 55, Type (0, 0), BuildingBlock: EZIPEK_clean_linker_0, # of connection points: 2
#     Edge 56, Type (0, 0), BuildingBlock: EZIPEK_clean_linker_0, # of connection points: 2
#     Edge 57, Type (0, 0), BuildingBlock: EZIPEK_clean_linker_0, # of connection points: 2
#     Edge 58, Type (0, 0), BuildingBlock: EZIPEK_clean_linker_0, # of connection points: 2
#     Edge 59, Type (0, 0), BuildingBlock: EZIPEK_clean_linker_0, # of connection points: 2
#     Edge 60, Type (0, 0), BuildingBlock: EZIPEK_clean_linker_0, # of connection points: 2
#     Edge 61, Type (0, 0), BuildingBlock: EZIPEK_clean_linker_0, # of connection points: 2
#     Edge 62, Type (0, 0), BuildingBlock: EZIPEK_clean_linker_0, # of connection points: 2
#     Edge 63, Type (0, 0), BuildingBlock: EZIPEK_clean_linker_0, # of connection points: 2
#     Edge 64, Type (0, 0), BuildingBlock: EZIPEK_clean_linker_0, # of connection points: 2
#     Edge 65, Type (0, 0), BuildingBlock: EZIPEK_clean_linker_0, # of connection points: 2
#     Edge 66, Type (0, 0), BuildingBlock: EZIPEK_clean_linker_0, # of connection points: 2
#     Edge 67, Type (0, 0), BuildingBlock: EZIPEK_clean_linker_0, # of connection points: 2
#     Edge 68, Type (0, 0), BuildingBlock: EZIPEK_clean_linker_0, # of connection points: 2
#     Edge 69, Type (0, 0), BuildingBlock: EZIPEK_clean_linker_0, # of connection points: 2
#     Edge 70, Type (0, 0), BuildingBlock: EZIPEK_clean_linker_0, # of connection points: 2
#     Edge 71, Type (0, 0), BuildingBlock: EZIPEK_clean_linker_0, # of connection points: 2
# Relax obj value: 0.003
# Max RMSD: 0.009
# Mean RMSD: 0.009
data_MOF--net-rhr--node1-NAWXER_clean_sbu_0--edge1-EZIPEK_clean_linker_0
_symmetry_space_group_name_H-M    P1
_symmetry_Int_Tables_number       1
_symmetry_cell_setting            triclinic
loop_
_symmetry_equiv_pos_as_xyz
'x, y, z'
_cell_length_a     36.447317
_cell_length_b     36.647742
_cell_length_c     36.472318
_cell_angle_alpha  89.995406
_cell_angle_beta   89.987636
_cell_angle_gamma 89.366962
loop_
_atom_site_label
_atom_site_type_symbol
_atom_site_fract_x
_atom_site_fract_y
_atom_site_fract_z
_atom_type_partial_charge
C0 C 0.2515 0.08512 0.35113 0.0
C1 C 0.32329 0.99706 0.27548 0.0
O2 O 0.24087 0.07454 0.31953 0.0
Zn3 Zn 0.28275 0.04064 0.31114 0.0
O4 O 0.28162 0.07285 0.36441 0.0
Zn5 Zn 0.32492 0.03629 0.35342 0.0
O6 O 0.36753 0.06883 0.34855 0.0
O7 O 0.32542 0.07923 0.30664 0.0
O8 O 0.33441 1.00263 0.30817 0.0
O9 O 0.29353 0.01257 0.26521 0.0
O10 O 0.27187 1.00137 0.35359 0.0
O11 O 0.31762 1.00216 0.39355 0.0
C12 C 0.35664 0.08669 0.32049 0.0
C13 C 0.28653 0.99007 0.38355 0.0
C14 C 0.06545 0.36475 0.30525 0.0
C15 C 0.98204 0.28616 0.37494 0.0
O16 O 0.05152 0.33496 0.29425 0.0
Zn17 Zn 0.02195 0.32609 0.33743 0.0
O18 O 0.05561 0.37838 0.33625 0.0
Zn19 Zn 0.01997 0.36411 0.38161 0.0
O20 O 0.05471 0.35941 0.42203 0.0
O21 O 0.06516 0.32101 0.37705 0.0
O22 O 0.98897 0.31627 0.39109 0.0
O23 O 0.99539 0.28009 0.34328 0.0
O24 O 0.97944 0.36674 0.3326 0.0
O25 O 0.98236 0.40217 0.3814 0.0
C26 C 0.07442 0.33401 0.40818 0.0
C27 C 0.96726 0.39405 0.35109 0.0
C28 C 0.62924 0.95688 0.32586 0.0
C29 C 0.69209 0.06016 0.38151 0.0
O30 O 0.62554 0.96988 0.3579 0.0
Zn31 Zn 0.6618 1.00798 0.35412 0.0
O32 O 0.65398 0.96984 0.30451 0.0
Zn33 Zn 0.69603 0.01179 0.30762 0.0
O34 O 0.74294 0.98641 0.30628 0.0
O35 O 0.71413 0.98089 0.35925 0.0
O36 O 0.70586 0.05159 0.35028 0.0
O37 O 0.6644 0.04304 0.39348 0.0
O38 O 0.64125 0.041 0.30976 0.0
O39 O 0.68356 0.04326 0.26677 0.0
C40 C 0.74251 0.97513 0.33919 0.0
C41 C 0.65186 0.05236 0.2783 0.0
C42 C 0.0995 0.66613 0.27922 0.0
C43 C 1.00393 0.73085 0.34759 0.0
O44 O 0.08999 0.65014 0.30879 0.0
Zn45 Zn 0.05488 0.65913 0.35408 0.0
O46 O 0.08809 0.69837 0.27238 0.0
Zn47 Zn 0.05577 0.70311 0.31492 0.0
O48 O 0.09093 0.71169 0.36141 0.0
O49 O 0.08722 0.663 0.39667 0.0
O50 O 0.02014 0.74298 0.31923 0.0
O51 O 0.01496 0.70111 0.36259 0.0
O52 O 0.02267 0.61755 0.34632 0.0
O53 O 0.01925 0.65946 0.30268 0.0
C54 C 0.1002 0.69453 0.39068 0.0
C55 C 1.00945 0.62874 0.31587 0.0
C56 C 0.33599 0.0659 0.65575 0.0
C57 C 0.39681 0.96134 0.72147 0.0
O58 O 0.36552 0.05004 0.64519 0.0
Zn59 Zn 0.37007 0.01378 0.68492 0.0
O60 O 0.32053 0.05557 0.68551 0.0
Zn61 Zn 0.32742 0.0151 0.72746 0.0
O62 O 0.34147 0.04283 0.77293 0.0
O63 O 0.38284 0.0465 0.72953 0.0
O64 O 0.36601 0.97251 0.73382 0.0
O65 O 0.40975 0.97677 0.69286 0.0
O66 O 0.32457 0.98097 0.67419 0.0
O67 O 0.28374 0.98463 0.71903 0.0
C68 C 0.37266 0.05418 0.76208 0.0
C69 C 0.29404 0.97148 0.6882 0.0
C70 C 1.01396 0.35695 0.75769 0.0
C71 C 0.92709 0.28869 0.68192 0.0
O72 O 1.00803 0.3691 0.72541 0.0
Zn73 Zn 0.97916 0.35823 0.67732 0.0
O74 O 0.99851 0.32761 0.76786 0.0
Zn75 Zn 0.97026 0.3194 0.7221 0.0
O76 O 1.01135 0.30191 0.68437 0.0
O77 O 0.01906 0.34477 0.64283 0.0
O78 O 0.93501 0.28059 0.71505 0.0
O79 O 0.94148 0.3164 0.66648 0.0
O80 O 0.94781 0.40292 0.67594 0.0
O81 O 0.93432 0.36555 0.72112 0.0
C82 C 0.0278 0.31345 0.65573 0.0
C83 C 0.92831 0.39556 0.70403 0.0
C84 C 0.65509 0.03434 0.68499 0.0
C85 C 0.69929 0.938 0.59896 0.0
O86 O 0.64179 0.02737 0.65349 0.0
Zn87 Zn 0.67456 0.98636 0.64017 0.0
O88 O 0.68255 0.01555 0.69675 0.0
Zn89 Zn 0.71735 0.97151 0.67804 0.0
O90 O 0.7651 0.9937 0.67492 0.0
O91 O 0.72593 0.01248 0.63218 0.0
O92 O 0.71782 0.94111 0.6285 0.0
O93 O 0.6709 0.95814 0.59422 0.0
O94 O 0.65945 0.9464 0.67934 0.0
O95 O 0.70829 0.93307 0.71268 0.0
C96 C 0.75794 0.01272 0.64658 0.0
C97 C 0.67483 0.92758 0.70467 0.0
C98 C 0.9559 0.68977 0.74603 0.0
C99 C 0.04954 0.76582 0.68949 0.0
O100 O 0.96791 0.67729 0.71541 0.0
Zn101 Zn 1.00513 0.69255 0.67312 0.0
O102 O 0.96648 0.72086 0.75695 0.0
Zn103 Zn 1.00206 0.72985 0.71801 0.0
O104 O 0.96946 0.7455 0.67129 0.0
O105 O 0.97582 0.70213 0.62971 0.0
O106 O 0.03401 0.77224 0.72013 0.0
O107 O 0.04163 0.73721 0.67119 0.0
O108 O 0.039 0.65169 0.67329 0.0
O109 O 0.0407 0.68446 0.72425 0.0
C110 C 0.96253 0.73286 0.63933 0.0
C111 C 0.05207 0.65713 0.70511 0.0
C112 C 0.31022 0.37248 0.01684 0.0
C113 C 0.40039 0.3174 0.9303 0.0
O114 O 0.34177 0.38528 1.00927 0.0
Zn115 Zn 0.35798 0.34735 0.97429 0.0
O116 O 0.30047 0.34242 1.00228 0.0
Zn117 Zn 0.32126 0.30161 0.96645 0.0
O118 O 0.32712 0.25986 1.00031 0.0
O119 O 0.36751 0.30296 1.0098 0.0
O120 O 0.37035 0.30011 0.93491 0.0
O121 O 0.40507 0.34727 0.94749 0.0
O122 O 0.31729 0.35425 0.93288 0.0
O123 O 0.28382 0.30434 0.92854 0.0
C124 C 0.35467 0.2717 0.01801 0.0
C125 C 0.29084 0.33677 0.91825 0.0
C126 C 0.76286 0.34699 0.07497 0.0
C127 C 0.69639 0.27144 0.98492 0.0
O128 O 0.77107 0.31432 0.06593 0.0
Zn129 Zn 0.7304 0.30718 0.03161 0.0
O130 O 0.73358 0.36203 0.06237 0.0
Zn131 Zn 0.68946 0.34852 0.02588 0.0
O132 O 0.64657 0.3489 0.05669 0.0
O133 O 0.68319 0.30154 0.06722 0.0
O134 O 0.68067 0.30173 0.99305 0.0
O135 O 0.72706 0.26351 0.99979 0.0
O136 O 0.7432 0.34988 0.993 0.0
O137 O 0.69433 0.38526 0.98857 0.0
C138 C 0.65338 0.31937 0.07375 0.0
C139 C 0.72722 0.378 0.9792 0.0
C140 C 0.64091 0.72749 0.08835 0.0
C141 C 0.68969 0.65561 0.98526 0.0
O142 O 0.67338 0.73615 0.07879 0.0
Zn143 Zn 0.71495 0.71849 0.0414 0.0
O144 O 0.62634 0.69991 0.07313 0.0
Zn145 Zn 0.6656 0.68694 0.03958 0.0
O146 O 0.70729 0.66311 0.07341 0.0
O147 O 0.75461 0.70008 0.0732 0.0
O148 O 0.65895 0.65088 1.00106 0.0
O149 O 0.71238 0.67886 0.99803 0.0
O150 O 0.71858 0.7636 1.01252 0.0
O151 O 0.66556 0.73506 1.00746 0.0
C152 C 0.73973 0.67081 0.0842 0.0
C153 C 0.68618 0.76183 0.99944 0.0
C154 C 0.29138 0.644 0.9686 0.0
C155 C 0.35796 0.71542 0.05917 0.0
O156 O 0.3241 0.63188 0.97377 0.0
Zn157 Zn 0.36999 0.64402 1.00831 0.0
O158 O 0.28169 0.6736 0.9841 0.0
Zn159 Zn 0.32667 0.68333 1.01088 0.0
O160 O 0.36935 0.69626 0.97182 0.0
O161 O 0.41024 0.65134 0.97498 0.0
O162 O 0.32732 0.72374 0.04454 0.0
O163 O 0.37671 0.68793 0.04752 0.0
O164 O 0.36988 0.60113 0.04067 0.0
O165 O 0.32524 0.64084 0.05026 0.0
C166 C 0.3998 0.68162 0.96137 0.0
C167 C 0.34176 0.61114 0.05893 0.0
C168 C 0.869 0.58392 0.82617 0.0
C169 C 0.80613 0.4815 0.8876 0.0
O170 O 0.88199 0.56548 0.85293 0.0
Zn171 Zn 0.8406 0.53289 0.85909 0.0
O172 O 0.83709 0.57641 0.81355 0.0
Zn173 Zn 0.79453 0.53724 0.82121 0.0
O174 O 0.75216 0.56642 0.83927 0.0
O175 O 0.79884 0.56878 0.87723 0.0
O176 O 0.7897 0.49447 0.85954 0.0
O177 O 0.83695 0.49469 0.89712 0.0
O178 O 0.84584 0.50197 0.81077 0.0
O179 O 0.79773 0.50848 0.7747 0.0
C180 C 0.7658 0.57755 0.86948 0.0
C181 C 0.82926 0.49427 0.78093 0.0
C182 C 0.49467 0.76635 0.8671 0.0
C183 C 0.5855 0.83329 0.79427 0.0
O184 O 0.51103 0.75466 0.83852 0.0
Zn185 Zn 0.5398 0.79804 0.82819 0.0
O186 O 0.50025 0.79897 0.87834 0.0
Zn187 Zn 0.53194 0.84513 0.86232 0.0
O188 O 0.49648 0.88187 0.84713 0.0
O189 O 0.50024 0.83684 0.80708 0.0
O190 O 0.56965 0.85164 0.81948 0.0
O191 O 0.57752 0.79977 0.78981 0.0
O192 O 0.57505 0.80017 0.87492 0.0
O193 O 0.56558 0.85245 0.90326 0.0
C194 C 0.48717 0.8681 0.81647 0.0
C195 C 0.58355 0.82256 0.90036 0.0
C196 C 0.14274 0.55281 0.78505 0.0
C197 C 0.20946 0.45347 0.85006 0.0
O198 O 0.17058 0.53535 0.77274 0.0
Zn199 Zn 0.18089 0.50508 0.81634 0.0
O200 O 0.13167 0.54651 0.81767 0.0
Zn201 Zn 0.14245 0.51043 0.86154 0.0
O202 O 0.15744 0.54321 0.90147 0.0
O203 O 0.198 0.5426 0.85656 0.0
O204 O 0.1812 0.4667 0.86626 0.0
O205 O 0.2204 0.46846 0.82047 0.0
O206 O 0.13511 0.46987 0.81488 0.0
O207 O 0.09667 0.48192 0.85986 0.0
C208 C 0.18752 0.55434 0.88787 0.0
C209 C 0.1049 0.4634 0.83129 0.0
C210 C 0.49121 0.12982 0.83616 0.0
C211 C 0.59993 0.18893 0.88957 0.0
O212 O 0.50468 0.1553 0.81654 0.0
Zn213 Zn 0.55044 0.1911 0.81594 0.0
O214 O 0.5073 0.12056 0.86579 0.0
Zn215 Zn 0.54746 0.15606 0.86293 0.0
O216 O 0.51668 0.20582 0.8663 0.0
O217 O 0.52323 0.23837 0.81589 0.0
O218 O 0.58144 0.16305 0.90335 0.0
O219 O 0.59199 0.20026 0.85714 0.0
O220 O 0.57643 0.1713 0.77272 0.0
O221 O 0.58037 0.13359 0.81923 0.0
C222 C 0.50907 0.23453 0.84763 0.0
C223 C 0.58758 0.14081 0.78563 0.0
C224 C 0.84327 0.45534 0.15609 0.0
C225 C 0.91279 0.55002 0.21913 0.0
O226 O 0.82497 0.47044 0.18215 0.0
Zn227 Zn 0.83272 0.51382 0.22104 0.0
O228 O 0.87512 0.46684 0.14836 0.0
Zn229 Zn 0.87791 0.50538 0.18462 0.0
O230 O 0.88079 0.47577 0.23528 0.0
O231 O 0.83133 0.4881 0.26832 0.0
O232 O 0.92266 0.53307 0.19021 0.0
O233 O 0.88033 0.54601 0.23183 0.0
O234 O 0.79579 0.55074 0.2075 0.0
O235 O 0.83954 0.54608 0.16598 0.0
C236 C 0.86228 0.47192 0.26481 0.0
C237 C 0.80961 0.56099 0.17722 0.0
C238 C 0.52054 0.87015 0.24906 0.0
C239 C 0.43445 0.80009 0.16884 0.0
O240 O 0.51565 0.88072 0.21612 0.0
Zn241 Zn 0.4833 0.87098 0.16997 0.0
O242 O 0.50232 0.84294 0.26099 0.0
Zn243 Zn 0.47458 0.83144 0.21521 0.0
O244 O 0.51858 0.81809 0.18102 0.0
O245 O 0.52226 0.856 0.13437 0.0
O246 O 0.44319 0.78932 0.2011 0.0
O247 O 0.44655 0.83039 0.15733 0.0
O248 O 0.44918 0.9138 0.17121 0.0
O249 O 0.43631 0.87467 0.21517 0.0
C250 C 0.53375 0.8273 0.15103 0.0
C251 C 0.42922 0.90447 0.1984 0.0
C252 C 0.26454 0.52717 0.16628 0.0
C253 C 0.17588 0.44375 0.22359 0.0
O254 O 0.27152 0.50973 0.19583 0.0
Zn255 Zn 0.22357 0.48399 0.19693 0.0
O256 O 0.23343 0.52336 0.15092 0.0
Zn257 Zn 0.1831 0.49745 0.15504 0.0
O258 O 0.15274 0.54091 0.16255 0.0
O259 O 0.18829 0.52916 0.21 0.0
O260 O 0.16385 0.46037 0.19507 0.0
O261 O 0.20895 0.44816 0.23385 0.0
O262 O 0.2288 0.45344 0.14713 0.0
O263 O 0.18497 0.47092 0.10875 0.0
C264 C 0.16379 0.54921 0.19462 0.0
C265 C 0.21359 0.45182 0.11553 0.0
C266 C 0.54453 0.24314 0.15993 0.0
C267 C 0.45397 0.17895 0.23584 0.0
O268 O 0.53574 0.21188 0.14722 0.0
Zn269 Zn 0.49847 0.16923 0.15961 0.0
O270 O 0.52925 0.25484 0.18909 0.0
Zn271 Zn 0.49802 0.21272 0.19865 0.0
O272 O 0.53703 0.16955 0.20866 0.0
O273 O 0.53071 0.12746 0.16578 0.0
O274 O 0.4675 0.2101 0.24272 0.0
O275 O 0.46304 0.16227 0.20618 0.0
O276 O 0.46563 0.1723 0.11764 0.0
O277 O 0.45726 0.21728 0.15656 0.0
C278 C 0.54631 0.13859 0.19485 0.0
C279 C 0.44855 0.20141 0.12658 0.0
C280 C 0.89222 0.82572 0.53111 0.0
C281 C 0.84386 0.89821 0.42899 0.0
O282 O 0.86762 0.8093 0.51245 0.0
Zn283 Zn 0.8334 0.81959 0.46589 0.0
O284 O 0.90106 0.85818 0.52277 0.0
Zn285 Zn 0.86949 0.86375 0.48017 0.0
O286 O 0.81605 0.8673 0.5034 0.0
O287 O 0.78385 0.81933 0.48643 0.0
O288 O 0.86982 0.90757 0.45026 0.0
O289 O 0.82937 0.86676 0.43225 0.0
O290 O 0.85085 0.78277 0.43097 0.0
O291 O 0.89208 0.82478 0.44348 0.0
C292 C 0.78609 0.84946 0.50364 0.0
C293 C 0.88281 0.79576 0.42655 0.0
C294 C 0.23337 0.87486 0.58047 0.0
C295 C 0.17888 0.78929 0.49023 0.0
O296 O 0.24897 0.84546 0.56941 0.0
Zn297 Zn 0.21063 0.83186 0.53436 0.0
O298 O 0.20274 0.88511 0.56639 0.0
Zn299 Zn 0.16307 0.86681 0.52712 0.0
O300 O 0.12079 0.85956 0.55956 0.0
O301 O 0.16828 0.82509 0.57364 0.0
O302 O 0.16004 0.81835 0.49587 0.0
O303 O 0.20972 0.78534 0.50626 0.0
O304 O 0.2176 0.87336 0.4942 0.0
O305 O 0.16606 0.90531 0.48998 0.0
C306 C 0.1357 0.83601 0.58077 0.0
C307 C 0.19917 0.89975 0.48003 0.0
C308 C 0.13319 0.21746 0.58169 0.0
C309 C 0.19589 0.15897 0.478 0.0
O310 O 0.16465 0.23152 0.57553 0.0
Zn311 Zn 0.21094 0.22025 0.5402 0.0
O312 O 0.12497 0.18733 0.56663 0.0
Zn313 Zn 0.16809 0.18162 0.53537 0.0
O314 O 0.21253 0.1608 0.5678 0.0
O315 O 0.25338 0.20434 0.5701 0.0
O316 O 0.16831 0.14645 0.49515 0.0
O317 O 0.21328 0.18567 0.4922 0.0
O318 O 0.21076 0.26692 0.51393 0.0
O319 O 0.16277 0.23149 0.50413 0.0
C320 C 0.24399 0.17206 0.57826 0.0
C321 C 0.17998 0.26125 0.49834 0.0
C322 C 0.8567 0.21196 0.56403 0.0
C323 C 0.78463 0.1527 0.46871 0.0
O324 O 0.87467 0.18696 0.54711 0.0
Zn325 Zn 0.86455 0.14689 0.50574 0.0
O326 O 0.82443 0.22011 0.55326 0.0
Zn327 Zn 0.82146 0.18555 0.51346 0.0
O328 O 0.81806 0.13738 0.54617 0.0
O329 O 0.867 0.10297 0.53574 0.0
O330 O 0.77673 0.18242 0.48497 0.0
O331 O 0.81593 0.13725 0.47393 0.0
O332 O 0.90258 0.15642 0.47028 0.0
O333 O 0.86302 0.20234 0.4749 0.0
C334 C 0.83699 0.10856 0.55282 0.0
C335 C 0.89227 0.18831 0.46094 0.0
C336 C 0.18195 0.12681 0.41745 0.0
C337 C 0.2076 0.1441 0.44129 0.0
C338 C 0.25325 0.13807 0.39227 0.0
C339 C 0.23138 0.11208 0.37425 0.0
N340 N 0.17404 0.07981 0.37153 0.0
N341 N 0.27213 0.15869 0.45151 0.0
C342 C 0.19526 0.10604 0.38707 0.0
C343 C 0.24445 0.14825 0.42864 0.0
N344 N 0.14507 0.13157 0.42229 0.0
N345 N 0.28368 0.1514 0.37527 0.0
H346 H 0.26933 0.162 0.47963 0.0
H347 H 0.29952 0.15902 0.44327 0.0
H348 H 0.29054 0.14412 0.34841 0.0
H349 H 0.2993 0.17237 0.38635 0.0
H350 H 0.1258 0.12128 0.40398 0.0
H351 H 0.13395 0.14994 0.44116 0.0
H352 H 0.1491 0.07182 0.38282 0.0
H353 H 0.18235 0.06468 0.34877 0.0
C354 C 0.97254 0.24636 0.43009 0.0
C355 C 0.96036 0.25819 0.39492 0.0
C356 C 0.90565 0.21986 0.40109 0.0
C357 C 0.91623 0.21108 0.43752 0.0
N358 N 0.95673 0.22024 0.48893 0.0
N359 N 0.91297 0.26013 0.34877 0.0
C360 C 0.94896 0.22533 0.45256 0.0
C361 C 0.92639 0.24575 0.38071 0.0
N362 N 1.00717 0.25446 0.44174 0.0
N363 N 0.87609 0.20296 0.38584 0.0
H364 H 0.92718 0.27917 0.33316 0.0
H365 H 0.88657 0.25541 0.3391 0.0
H366 H 0.8601 0.18434 0.40022 0.0
H367 H 0.86911 0.20514 0.35824 0.0
H368 H 0.01924 0.24302 0.465 0.0
H369 H 0.02521 0.27022 0.42654 0.0
H370 H 0.97762 0.2338 0.50263 0.0
H371 H 0.94044 0.20476 0.50641 0.0
C372 C 0.82014 0.90998 0.36609 0.0
C373 C 0.82734 0.92353 0.40185 0.0
C374 C 0.78995 0.97743 0.38807 0.0
C375 C 0.77596 0.95972 0.35659 0.0
N376 N 0.77748 0.90852 0.3151 0.0
N377 N 0.8153 0.96931 0.44851 0.0
C378 C 0.79144 0.92607 0.34495 0.0
C379 C 0.81184 0.95739 0.41318 0.0
N380 N 0.8407 0.8816 0.35264 0.0
N381 N 0.78269 0.01361 0.39369 0.0
H382 H 0.8304 0.95557 0.4685 0.0
H383 H 0.80043 0.99153 0.45877 0.0
H384 H 0.76828 0.02939 0.37465 0.0
H385 H 0.79473 0.02864 0.41467 0.0
H386 H 0.83875 0.87224 0.32576 0.0
H387 H 0.86237 0.86994 0.36745 0.0
H388 H 0.78494 0.88197 0.30784 0.0
H389 H 0.75661 0.91963 0.29889 0.0
C390 C 0.12856 0.74433 0.47836 0.0
C391 C 0.16236 0.7599 0.46715 0.0
C392 C 0.15907 0.72518 0.40937 0.0
C393 C 0.12322 0.71341 0.41871 0.0
N394 N 0.07239 0.71391 0.46119 0.0
N395 N 0.20872 0.76751 0.42079 0.0
C396 C 0.1078 0.72308 0.45321 0.0
C397 C 0.1776 0.75059 0.43249 0.0
N398 N 0.11633 0.74969 0.5134 0.0
N399 N 0.17568 0.71138 0.37869 0.0
H400 H 0.22323 0.78575 0.43707 0.0
H401 H 0.21886 0.76541 0.39418 0.0
H402 H 0.16297 0.6925 0.3616 0.0
H403 H 0.203 0.71592 0.37196 0.0
H404 H 0.09456 0.73561 0.52499 0.0
H405 H 0.12981 0.76629 0.53204 0.0
H406 H 0.05789 0.72412 0.48361 0.0
H407 H 0.0561 0.69825 0.44397 0.0
C408 C 0.25295 0.93625 0.60204 0.0
C409 C 0.24948 0.89843 0.60941 0.0
C410 C 0.27029 0.90904 0.67268 0.0
C411 C 0.27107 0.94709 0.66562 0.0
N412 N 0.25372 0.99745 0.62692 0.0
N413 N 0.24742 0.84987 0.65415 0.0
C414 C 0.25913 0.96078 0.63136 0.0
C415 C 0.25604 0.885 0.64546 0.0
N416 N 0.2524 0.94858 0.56668 0.0
N417 N 0.28434 0.89576 0.70479 0.0
H418 H 0.23671 0.83158 0.63516 0.0
H419 H 0.24809 0.83978 0.68084 0.0
H420 H 0.29359 0.91278 0.7257 0.0
H421 H 0.2886 0.86805 0.70975 0.0
H422 H 0.25834 0.9754 0.55954 0.0
H423 H 0.25016 0.93112 0.54423 0.0
H424 H 0.24154 1.00876 0.60363 0.0
H425 H 0.2579 0.01606 0.64816 0.0
C426 C 0.05008 0.27987 0.59911 0.0
C427 C 0.05482 0.28853 0.63681 0.0
C428 C 0.10708 0.24487 0.63951 0.0
C429 C 0.10476 0.23975 0.60114 0.0
N430 N 0.07713 0.25621 0.54318 0.0
N431 N 0.08973 0.28048 0.69277 0.0
C432 C 0.0771 0.2583 0.58061 0.0
C433 C 0.08373 0.27116 0.65703 0.0
N434 N 0.01857 0.29019 0.58136 0.0
N435 N 0.13097 0.22372 0.65941 0.0
H436 H 0.07255 0.29786 0.70749 0.0
H437 H 0.11308 0.27278 0.7074 0.0
H438 H 0.14856 0.20454 0.64733 0.0
H439 H 0.13132 0.22283 0.68793 0.0
H440 H 1.01178 0.28117 0.55517 0.0
H441 H 0.99725 0.30455 0.59405 0.0
H442 H 0.06082 0.27289 0.52657 0.0
H443 H 0.09534 0.23972 0.52846 0.0
C444 C 0.8181 0.04488 0.57032 0.0
C445 C 0.82267 0.08214 0.58008 0.0
C446 C 0.78974 0.07171 0.63799 0.0
C447 C 0.78624 0.0346 0.62843 0.0
N448 N 0.80356 0.9836 0.59053 0.0
N449 N 0.81811 0.1297 0.62617 0.0
C450 C 0.80293 0.02045 0.59634 0.0
C451 C 0.81027 0.09509 0.61493 0.0
N452 N 0.82507 0.03341 0.53529 0.0
N453 N 0.77165 0.08504 0.66812 0.0
H454 H 0.83082 0.1488 0.60961 0.0
H455 H 0.81413 0.13892 0.6529 0.0
H456 H 0.75786 0.06828 0.68657 0.0
H457 H 0.76855 0.11274 0.67381 0.0
H458 H 0.81823 1.00763 0.52565 0.0
H459 H 0.83434 0.05056 0.51457 0.0
H460 H 0.8182 0.97114 0.56934 0.0
H461 H 0.79226 0.96518 0.60909 0.0
C462 C 0.96652 0.77598 0.58616 0.0
C463 C 0.9445 0.7571 0.61198 0.0
C464 C 0.88988 0.78995 0.58966 0.0
C465 C 0.91113 0.80541 0.56105 0.0
N466 N 0.96916 0.81005 0.52937 0.0
N467 N 0.88507 0.74349 0.63688 0.0
C468 C 0.9494 0.79791 0.55874 0.0
C469 C 0.90611 0.76346 0.61342 0.0
N470 N 1.00394 0.7737 0.58834 0.0
N471 N 0.8545 0.80165 0.59482 0.0
H472 H 0.89625 0.72428 0.65491 0.0
H473 H 0.85651 0.74388 0.63662 0.0
H474 H 0.84225 0.82181 0.57859 0.0
H475 H 0.83845 0.7941 0.61712 0.0
H476 H 0.02146 0.79052 0.57361 0.0
H477 H 0.01768 0.75692 0.60698 0.0
H478 H 0.99597 0.80162 0.52385 0.0
H479 H 0.958 0.82617 0.50857 0.0
C480 C 0.38011 0.2132 0.04766 0.0
C481 C 0.3725 0.25132 0.04894 0.0
C482 C 0.41521 0.25711 0.10039 0.0
C483 C 0.42045 0.21846 0.10157 0.0
N484 N 0.39597 0.1599 0.08367 0.0
N485 N 0.37268 0.30576 0.08658 0.0
C486 C 0.39922 0.19647 0.07749 0.0
C487 C 0.38655 0.27188 0.0787 0.0
N488 N 0.37112 0.193 0.0176 0.0
N489 N 0.43858 0.28059 0.11751 0.0
H490 H 0.35122 0.3177 0.07198 0.0
H491 H 0.3798 0.32007 0.11022 0.0
H492 H 0.46205 0.27293 0.13174 0.0
H493 H 0.43712 0.30876 0.11359 0.0
H494 H 0.37961 0.16592 0.01439 0.0
H495 H 0.35855 0.20392 0.9944 0.0
H496 H 0.37856 0.14348 0.06831 0.0
H497 H 0.40661 0.14708 0.10693 0.0
C498 C 0.82218 0.42812 0.09631 0.0
C499 C 0.82668 0.42496 0.13485 0.0
C500 C 0.79196 0.36767 0.13418 0.0
C501 C 0.78893 0.37023 0.09555 0.0
N502 N 0.80985 0.39708 0.0391 0.0
N503 N 0.82356 0.38752 0.18914 0.0
C504 C 0.80687 0.39865 0.07642 0.0
C505 C 0.81385 0.39341 0.15343 0.0
N506 N 0.83047 0.46001 0.07886 0.0
N507 N 0.77294 0.34148 0.15258 0.0
H508 H 0.84051 0.40519 0.2036 0.0
H509 H 0.81789 0.36353 0.20325 0.0
H510 H 0.7576 0.32165 0.13916 0.0
H511 H 0.77053 0.34081 0.18102 0.0
H512 H 0.82364 0.46523 0.05161 0.0
H513 H 0.84102 0.48268 0.09231 0.0
H514 H 0.8253 0.41533 0.02378 0.0
H515 H 0.80036 0.37501 0.02394 0.0
C516 C 0.62652 0.78998 0.11683 0.0
C517 C 0.61843 0.75225 0.1127 0.0
C518 C 0.55675 0.76336 0.13694 0.0
C519 C 0.56274 0.80199 0.13614 0.0
N520 N 0.60392 0.85197 0.12468 0.0
N521 N 0.58392 0.70275 0.13736 0.0
C522 C 0.59775 0.81527 0.12571 0.0
C523 C 0.58582 0.73884 0.12813 0.0
N524 N 0.66218 0.80114 0.11676 0.0
N525 N 0.52283 0.74957 0.1443 0.0
H526 H 0.60631 0.68497 0.13455 0.0
H527 H 0.56248 0.69163 0.15242 0.0
H528 H 0.50031 0.76509 0.15231 0.0
H529 H 0.51599 0.72246 0.1395 0.0
H530 H 0.67013 0.82782 0.122 0.0
H531 H 0.6843 0.78298 0.11771 0.0
H532 H 0.62672 0.86333 0.11202 0.0
H533 H 0.58543 0.87144 0.1346 0.0
C534 C 0.32726 0.54486 0.13987 0.0
C535 C 0.28979 0.55303 0.14774 0.0
C536 C 0.28692 0.59262 0.09461 0.0
C537 C 0.32521 0.58872 0.08865 0.0
N538 N 0.38356 0.56762 0.1133 0.0
N539 N 0.24049 0.59731 0.14058 0.0
C540 C 0.34615 0.56677 0.11353 0.0
C541 C 0.27232 0.58174 0.12823 0.0
N542 N 0.34454 0.51586 0.15602 0.0
N543 N 0.26358 0.60433 0.0676 0.0
H544 H 0.22849 0.58978 0.16519 0.0
H545 H 0.22841 0.61999 0.12792 0.0
H546 H 0.27171 0.60866 0.04063 0.0
H547 H 0.23514 0.60475 0.07092 0.0
H548 H 0.37042 0.50661 0.14781 0.0
H549 H 0.33232 0.49979 0.176 0.0
H550 H 0.39954 0.55434 0.13301 0.0
H551 H 0.39849 0.58465 0.09616 0.0
C552 C 0.41503 0.70676 0.89888 0.0
C553 C 0.42451 0.70184 0.93633 0.0
C554 C 0.48246 0.73376 0.92612 0.0
C555 C 0.4714 0.74192 0.88967 0.0
N556 N 0.42542 0.74006 0.84225 0.0
N557 N 0.46411 0.71589 0.98732 0.0
C558 C 0.43728 0.72927 0.87616 0.0
C559 C 0.45744 0.71668 0.95041 0.0
N560 N 0.38523 0.68924 0.88488 0.0
N561 N 0.5174 0.74134 0.93724 0.0
H562 H 0.44652 0.70373 1.00615 0.0
H563 H 0.48536 0.73012 0.99971 0.0
H564 H 0.53679 0.7532 0.92007 0.0
H565 H 0.52833 0.73268 0.96218 0.0
H566 H 0.37897 0.6885 0.85705 0.0
H567 H 0.3682 0.67295 0.90086 0.0
H568 H 0.39911 0.73526 0.83241 0.0
H569 H 0.44107 0.75623 0.82482 0.0
C570 C 0.23941 0.38047 0.91918 0.0
C571 C 0.26354 0.35885 0.89795 0.0
C572 C 0.24559 0.39372 0.84351 0.0
C573 C 0.22808 0.42048 0.86627 0.0
N574 N 0.21586 0.44087 0.92909 0.0
N575 N 0.29227 0.34602 0.84003 0.0
C576 C 0.22671 0.41421 0.90502 0.0
C577 C 0.26749 0.36579 0.86008 0.0
N578 N 0.22937 0.36922 0.95343 0.0
N579 N 0.23973 0.39334 0.80653 0.0
H580 H 0.30729 0.32431 0.85124 0.0
H581 H 0.29919 0.3526 0.81311 0.0
H582 H 0.22094 0.41057 0.7935 0.0
H583 H 0.24986 0.37273 0.78951 0.0
H584 H 0.20932 0.38258 0.96898 0.0
H585 H 0.23792 0.34424 0.96437 0.0
H586 H 0.21841 0.43807 0.95741 0.0
H587 H 0.20851 0.46727 0.92177 0.0
C588 C 0.63093 0.24723 0.90943 0.0
C589 C 0.6281 0.2086 0.91196 0.0
C590 C 0.67288 0.20954 0.96264 0.0
C591 C 0.67809 0.24759 0.95718 0.0
N592 N 0.67146 0.29846 0.91554 0.0
N593 N 0.65513 0.1524 0.9346 0.0
C594 C 0.66033 0.26493 0.92719 0.0
C595 C 0.65179 0.18949 0.9366 0.0
N596 N 0.60421 0.26777 0.89277 0.0
N597 N 0.68612 0.19266 0.99334 0.0
H598 H 0.64187 0.13696 0.9147 0.0
H599 H 0.67434 0.13761 0.94989 0.0
H600 H 0.70087 0.20612 1.01357 0.0
H601 H 0.67954 0.16591 1.00023 0.0
H602 H 0.60424 0.29623 0.89308 0.0
H603 H 0.57962 0.25707 0.88335 0.0
H604 H 0.66089 0.31091 0.89202 0.0
H605 H 0.69417 0.31154 0.9267 0.0
C606 C 0.71907 0.59923 0.96152 0.0
C607 C 0.70149 0.63266 0.95383 0.0
C608 C 0.72088 0.62775 0.88922 0.0
C609 C 0.74305 0.59666 0.89827 0.0
N610 N 0.76842 0.55817 0.9474 0.0
N611 N 0.68483 0.67984 0.91116 0.0
C612 C 0.74363 0.58387 0.93554 0.0
C613 C 0.70186 0.64708 0.91775 0.0
N614 N 0.71211 0.58172 0.99385 0.0
N615 N 0.71903 0.63965 0.85374 0.0
H616 H 0.66931 0.69344 0.93109 0.0
H617 H 0.68691 0.6942 0.88667 0.0
H618 H 0.73569 0.62938 0.83289 0.0
H619 H 0.70013 0.65906 0.84452 0.0
H620 H 0.72087 0.55507 0.99922 0.0
H621 H 0.69449 0.59235 1.01381 0.0
H622 H 0.7732 0.553 0.97511 0.0
H623 H 0.78575 0.54287 0.93082 0.0
C624 C 0.12718 0.36605 0.27344 0.0
C625 C 0.09368 0.3839 0.28317 0.0
C626 C 0.11779 0.44165 0.26 0.0
C627 C 0.14931 0.42306 0.24627 0.0
N628 N 0.18172 0.36646 0.23518 0.0
N629 N 0.05448 0.43719 0.27916 0.0
C630 C 0.15345 0.38491 0.25171 0.0
C631 C 0.08827 0.4213 0.27462 0.0
N632 N 0.13477 0.33178 0.28635 0.0
N633 N 0.11658 0.47895 0.26038 0.0
H634 H 0.03171 0.42302 0.2887 0.0
H635 H 0.04816 0.46333 0.26982 0.0
H636 H 0.13817 0.49494 0.25113 0.0
H637 H 0.09605 0.49398 0.27354 0.0
H638 H 0.1603 0.31905 0.2834 0.0
H639 H 0.11677 0.3173 0.30297 0.0
H640 H 0.18382 0.3381 0.23476 0.0
H641 H 0.20155 0.3794 0.21935 0.0
C642 C 0.13686 0.60652 0.74102 0.0
C643 C 0.12029 0.5781 0.76162 0.0
C644 C 0.05917 0.60225 0.74504 0.0
C645 C 0.07574 0.62897 0.72267 0.0
N646 N 0.12966 0.65291 0.69375 0.0
N647 N 0.06499 0.54459 0.77614 0.0
C648 C 0.11442 0.62985 0.71878 0.0
C649 C 0.08127 0.57478 0.76163 0.0
N650 N 0.17359 0.61281 0.74442 0.0
N651 N 0.02214 0.60342 0.75117 0.0
H652 H 0.07922 0.52363 0.78913 0.0
H653 H 0.03739 0.53854 0.77239 0.0
H654 H 1.00441 0.62135 0.73766 0.0
H655 H 1.00926 0.58825 0.77152 0.0
H656 H 0.18649 0.63541 0.73316 0.0
H657 H 0.19077 0.59736 0.76134 0.0
H658 H 0.15741 0.65242 0.68692 0.0
H659 H 0.1139 0.67049 0.67748 0.0
C660 C 0.4389 0.06385 0.77715 0.0
C661 C 0.40152 0.07036 0.78679 0.0
C662 C 0.42457 0.1088 0.83712 0.0
C663 C 0.46014 0.10856 0.82086 0.0
N664 N 0.49667 0.09218 0.76743 0.0
N665 N 0.35908 0.10347 0.82599 0.0
C666 C 0.46585 0.08842 0.7883 0.0
C667 C 0.39423 0.09387 0.81713 0.0
N668 N 0.44955 0.03295 0.75911 0.0
N669 N 0.41963 0.1233 0.8712 0.0
H670 H 0.33636 0.09422 0.81161 0.0
H671 H 0.3528 0.12322 0.84564 0.0
H672 H 0.44114 0.1344 0.88623 0.0
H673 H 0.39498 0.12146 0.88554 0.0
H674 H 0.47702 0.02638 0.75395 0.0
H675 H 0.43177 1.01161 0.75477 0.0
H676 H 0.49962 0.07946 0.74197 0.0
H677 H 0.51746 0.11042 0.77319 0.0
C678 C 0.86527 0.43712 0.77531 0.0
C679 C 0.84734 0.46619 0.75695 0.0
C680 C 0.87799 0.44587 0.70004 0.0
C681 C 0.90131 0.42209 0.72083 0.0
N682 N 0.92393 0.40802 0.78193 0.0
N683 N 0.84021 0.50103 0.70114 0.0
C684 C 0.89685 0.42127 0.75955 0.0
C685 C 0.85446 0.47139 0.71894 0.0
N686 N 0.85266 0.42504 0.80833 0.0
N687 N 0.87713 0.44353 0.66273 0.0
H688 H 0.82286 0.51992 0.71388 0.0
H689 H 0.8478 0.50806 0.67453 0.0
H690 H 0.89247 0.42436 0.64804 0.0
H691 H 0.85835 0.45816 0.64678 0.0
H692 H 0.86404 0.4023 0.8215 0.0
H693 H 0.82839 0.43508 0.81994 0.0
H694 H 0.92209 0.40914 0.81046 0.0
H695 H 0.95007 0.40129 0.77234 0.0
C696 C 0.65326 0.90514 0.76535 0.0
C697 C 0.65252 0.90209 0.72673 0.0
C698 C 0.60743 0.85276 0.7316 0.0
C699 C 0.61159 0.85312 0.77035 0.0
N700 N 0.64376 0.87637 0.82364 0.0
N701 N 0.6302 0.87141 0.67243 0.0
C702 C 0.63631 0.87811 0.78697 0.0
C703 C 0.63013 0.87535 0.70966 0.0
N704 N 0.66753 0.93553 0.78162 0.0
N705 N 0.57985 0.83329 0.71565 0.0
H706 H 0.64207 0.88997 0.65466 0.0
H707 H 0.61957 0.8487 0.65912 0.0
H708 H 0.56181 0.81686 0.7301 0.0
H709 H 0.5724 0.83603 0.68822 0.0
H710 H 0.66479 0.94117 0.80949 0.0
H711 H 0.67812 0.95744 0.76694 0.0
H712 H 0.66527 0.89042 0.83582 0.0
H713 H 0.63051 0.85903 0.84163 0.0
C714 C 0.99554 0.57268 0.27872 0.0
C715 C 0.98388 0.60658 0.29374 0.0
C716 C 0.92969 0.60625 0.25383 0.0
C717 C 0.93933 0.57065 0.24171 0.0
N718 N 0.9771 0.51652 0.2498 0.0
N719 N 0.93647 0.65241 0.30085 0.0
C720 C 0.97112 0.55287 0.256 0.0
C721 C 0.9499 0.62242 0.2828 0.0
N722 N 0.03041 0.55998 0.28474 0.0
N723 N 0.90185 0.62503 0.23691 0.0
H724 H 0.95012 0.6643 0.32291 0.0
H725 H 0.91028 0.6632 0.29647 0.0
H726 H 0.88716 0.61433 0.21491 0.0
H727 H 0.89577 0.65237 0.24218 0.0
H728 H 0.0415 0.53758 0.27088 0.0
H729 H 0.04938 0.57359 0.30102 0.0
H730 H 0.99745 0.5016 0.26327 0.0
H731 H 0.9596 0.5003 0.23439 0.0
C732 C 0.33846 0.95555 0.21916 0.0
C733 C 0.34926 0.97669 0.25023 0.0
C734 C 0.40895 0.9463 0.2489 0.0
C735 C 0.4012 0.92953 0.21495 0.0
N736 N 0.35872 0.92166 0.16503 0.0
N737 N 0.40258 1.00304 0.28013 0.0
C738 C 0.36608 0.93566 0.19885 0.0
C739 C 0.38694 0.97567 0.26038 0.0
N740 N 0.30233 0.95252 0.21007 0.0
N741 N 0.43594 0.93366 0.27162 0.0
H742 H 0.38907 0.02754 0.2857 0.0
H743 H 0.43058 1.00318 0.28616 0.0
H744 H 0.45069 0.90969 0.2669 0.0
H745 H 0.44025 0.94483 0.29758 0.0
H746 H 0.29305 0.9347 0.18993 0.0
H747 H 0.28124 0.96522 0.22462 0.0
H748 H 0.33485 0.92794 0.15052 0.0
H749 H 0.37781 0.90588 0.15052 0.0
C750 C 0.60154 0.09958 0.27361 0.0
C751 C 0.62629 0.07517 0.25577 0.0
C752 C 0.60132 0.09547 0.19655 0.0
C753 C 0.57316 0.11525 0.215 0.0
N754 N 0.54031 0.12464 0.27203 0.0
N755 N 0.64127 0.04263 0.19959 0.0
C756 C 0.57138 0.11392 0.25383 0.0
C757 C 0.62397 0.07099 0.21697 0.0
N758 N 0.60717 0.11032 0.309 0.0
N759 N 0.60748 0.10066 0.16001 0.0
H760 H 0.65538 0.02196 0.21339 0.0
H761 H 0.63756 0.03718 0.17179 0.0
H762 H 0.5928 0.11956 0.14431 0.0
H763 H 0.62989 0.08904 0.14639 0.0
H764 H 0.59102 0.13032 0.32169 0.0
H765 H 0.63038 0.10295 0.32399 0.0
H766 H 0.53718 0.12136 0.30027 0.0
H767 H 0.51614 0.13205 0.25857 0.0
C768 C 0.72175 0.92366 0.53473 0.0
C769 C 0.71301 0.91159 0.57075 0.0
C770 C 0.74555 0.85335 0.55886 0.0
C771 C 0.75445 0.86584 0.52336 0.0
N772 N 0.74326 0.90753 0.4737 0.0
N773 N 0.71059 0.86209 0.61452 0.0
C774 C 0.73963 0.89918 0.51004 0.0
C775 C 0.72281 0.87539 0.58181 0.0
N776 N 0.71612 0.9593 0.525 0.0
N777 N 0.76084 0.82151 0.57149 0.0
H778 H 0.69594 0.87791 0.63313 0.0
H779 H 0.71281 0.8348 0.62221 0.0
H780 H 0.77619 0.80397 0.55481 0.0
H781 H 0.75998 0.81325 0.59878 0.0
H782 H 0.72623 0.97046 0.50085 0.0
H783 H 0.70419 0.97874 0.54219 0.0
H784 H 0.73037 0.92982 0.46129 0.0
H785 H 0.75631 0.88994 0.45519 0.0
C786 C 0.08853 0.84204 0.63197 0.0
C787 C 0.11656 0.8212 0.61401 0.0
C788 C 0.11005 0.77489 0.66221 0.0
C789 C 0.07638 0.79065 0.67279 0.0
N790 N 0.03164 0.83914 0.66606 0.0
N791 N 0.14924 0.76225 0.61113 0.0
C792 C 0.06512 0.82445 0.65752 0.0
C793 C 0.12661 0.7863 0.62913 0.0
N794 N 0.08521 0.87876 0.62632 0.0
N795 N 0.12523 0.74767 0.683 0.0
H796 H 0.15999 0.76609 0.58515 0.0
H797 H 0.15376 0.73562 0.62027 0.0
H798 H 0.11298 0.73878 0.70727 0.0
H799 H 0.15148 0.73708 0.67825 0.0
H800 H 0.06661 0.89506 0.64082 0.0
H801 H 0.10423 0.89366 0.61136 0.0
H802 H 0.02053 0.86158 0.65222 0.0
H803 H 1.01422 0.82757 0.68541 0.0
C804 C 0.28445 0.15422 0.63232 0.0
C805 C 0.27024 0.14616 0.59697 0.0
C806 C 0.30199 0.0862 0.59859 0.0
C807 C 0.3173 0.0949 0.6333 0.0
N808 N 0.32919 0.13982 0.67978 0.0
N809 N 0.27131 0.10731 0.54346 0.0
C810 C 0.31034 0.12978 0.64906 0.0
C811 C 0.28078 0.11297 0.57926 0.0
N812 N 0.27175 0.18425 0.65079 0.0
N813 N 0.30601 0.05167 0.58483 0.0
H814 H 0.25516 0.12554 0.52849 0.0
H815 H 0.28186 0.08606 0.52756 0.0
H816 H 0.32149 0.03131 0.59768 0.0
H817 H 0.2917 0.04217 0.56211 0.0
H818 H 0.27777 0.18952 0.67817 0.0
H819 H 0.25258 0.20249 0.63973 0.0
H820 H 0.32833 0.16605 0.69071 0.0
H821 H 0.34852 0.12277 0.69241 0.0
C822 C 0.89701 0.21051 0.62124 0.0
C823 C 0.87319 0.23016 0.59675 0.0
C824 C 0.87571 0.28273 0.63818 0.0
C825 C 0.90392 0.26544 0.6586 0.0
N826 N 0.94648 0.21485 0.66504 0.0
N827 N 0.84882 0.28922 0.57823 0.0
C828 C 0.91579 0.22976 0.64918 0.0
C829 C 0.86462 0.26739 0.60435 0.0
N830 N 0.90154 0.17348 0.61894 0.0
N831 N 0.86019 0.31445 0.65074 0.0
H832 H 0.84424 0.28072 0.55138 0.0
H833 H 0.84497 0.31722 0.58171 0.0
H834 H 0.86782 0.3262 0.67565 0.0
H835 H 0.83738 0.3267 0.63841 0.0
H836 H 0.91489 0.15828 0.63919 0.0
H837 H 0.88953 0.15699 0.59934 0.0
H838 H 0.95912 0.19109 0.65535 0.0
H839 H 0.9612 0.22753 0.68583 0.0
C840 C 0.72381 0.07514 0.4407 0.0
C841 C 0.71184 0.08636 0.40532 0.0
C842 C 0.74663 0.14319 0.41189 0.0
C843 C 0.75635 0.13268 0.44799 0.0
N844 N 0.74607 0.09374 0.50017 0.0
N845 N 0.70665 0.13381 0.35964 0.0
C846 C 0.74222 0.10031 0.46347 0.0
C847 C 0.72167 0.1213 0.39163 0.0
N848 N 0.72037 0.03966 0.45169 0.0
N849 N 0.76231 0.17323 0.39651 0.0
H850 H 0.68842 0.11853 0.34411 0.0
H851 H 0.70979 0.16036 0.35009 0.0
H852 H 0.77994 0.19025 0.41097 0.0
H853 H 0.75977 0.17998 0.36888 0.0
H854 H 0.73286 0.02949 0.4753 0.0
H855 H 0.70902 0.0193 0.43547 0.0
H856 H 0.73335 0.07218 0.51358 0.0
H857 H 0.75856 0.11212 0.51789 0.0
C858 C 0.93914 0.75658 0.34698 0.0
C859 C 0.97316 0.75087 0.3653 0.0
C860 C 0.94435 0.7665 0.42371 0.0
C861 C 0.91155 0.77632 0.40524 0.0
N862 N 0.87888 0.7856 0.34846 0.0
N863 N 1.0101 0.75991 0.41928 0.0
C864 C 0.90915 0.7727 0.36656 0.0
C865 C 0.97631 0.7587 0.40314 0.0
N866 N 0.93497 0.74541 0.31152 0.0
N867 N 0.94467 0.76327 0.46102 0.0
H868 H 0.03438 0.75581 0.4046 0.0
H869 H 1.01406 0.76902 0.44605 0.0
H870 H 0.92125 0.76734 0.47702 0.0
H871 H 0.96699 0.75255 0.47546 0.0
H872 H 0.90972 0.74513 0.29817 0.0
H873 H 0.95631 0.73387 0.29624 0.0
H874 H 0.87731 0.78742 0.32001 0.0
H875 H 0.85623 0.79684 0.36203 0.0
C876 C 0.26067 0.92918 0.40122 0.0
C877 C 0.26435 0.96696 0.40847 0.0
C878 C 0.22302 0.96163 0.46155 0.0
C879 C 0.218 0.92408 0.45334 0.0
N880 N 0.22605 0.87382 0.41141 0.0
N881 N 0.24399 0.02081 0.44105 0.0
C882 C 0.23518 0.90835 0.422 0.0
C883 C 0.244 0.98366 0.43731 0.0
N884 N 0.2822 0.91308 0.37498 0.0
N885 N 0.20938 0.97597 0.49344 0.0
H886 H 0.26006 0.03785 0.42493 0.0
H887 H 0.22611 0.03505 0.45828 0.0
H888 H 0.19362 0.96118 0.51192 0.0
H889 H 0.21609 1.00176 0.50317 0.0
H890 H 0.28384 0.885 0.37089 0.0
H891 H 0.30075 0.92768 0.35904 0.0
H892 H 0.23483 0.86184 0.38702 0.0
H893 H 0.20674 0.85825 0.42538 0.0
C894 C 0.15319 0.27 0.43735 0.0
C895 C 0.16389 0.28616 0.47062 0.0
C896 C 0.12593 0.33932 0.4551 0.0
C897 C 0.10726 0.31843 0.4279 0.0
N898 N 0.10135 0.25801 0.39939 0.0
N899 N 0.15905 0.33665 0.5127 0.0
C900 C 0.12063 0.2823 0.42013 0.0
C901 C 0.15018 0.32118 0.47992 0.0
N902 N 0.17321 0.24158 0.42326 0.0
N903 N 0.12209 0.37639 0.45639 0.0
H904 H 0.17742 0.32448 0.53102 0.0
H905 H 0.1464 0.36044 0.52234 0.0
H906 H 0.10823 0.39129 0.43627 0.0
H907 H 0.13705 0.39255 0.47439 0.0
H908 H 0.16794 0.23029 0.39757 0.0
H909 H 0.19752 0.23248 0.43555 0.0
H910 H 0.10958 0.23083 0.39637 0.0
H911 H 0.07503 0.26229 0.38942 0.0
C912 C 0.67561 0.78526 0.93661 0.0
C913 C 0.67029 0.78962 0.97463 0.0
C914 C 0.61012 0.81807 0.96434 0.0
C915 C 0.61445 0.81312 0.92583 0.0
N916 N 0.65466 0.79676 0.87488 0.0
N917 N 0.63949 0.81979 0.02411 0.0
C918 C 0.64834 0.79845 0.91179 0.0
C919 C 0.63997 0.80978 0.98807 0.0
N920 N 0.70579 0.76629 0.92453 0.0
N921 N 0.57659 0.82718 0.97874 0.0
H922 H 0.66145 0.8137 0.04153 0.0
H923 H 0.61965 0.83707 0.03547 0.0
H924 H 0.55295 0.83045 0.963 0.0
H925 H 0.57116 0.82751 1.00677 0.0
H926 H 0.70965 0.75763 0.89764 0.0
H927 H 0.72684 0.75808 0.9422 0.0
H928 H 0.68037 0.79166 0.86344 0.0
H929 H 0.63495 0.80202 0.85504 0.0
C930 C 0.26639 0.58257 0.94932 0.0
C931 C 0.26427 0.62145 0.94772 0.0
C932 C 0.20755 0.61595 0.91125 0.0
C933 C 0.21302 0.57766 0.90913 0.0
N934 N 0.2553 0.52687 0.91645 0.0
N935 N 0.23689 0.67449 0.91843 0.0
C936 C 0.2448 0.56171 0.92506 0.0
C937 C 0.23579 0.6381 0.92643 0.0
N938 N 0.28737 0.56494 0.97502 0.0
N939 N 0.1759 0.63129 0.89808 0.0
H940 H 0.25864 0.6911 0.92595 0.0
H941 H 0.21856 0.68721 0.90049 0.0
H942 H 0.15542 0.61599 0.88558 0.0
H943 H 0.16886 0.65863 0.90217 0.0
H944 H 0.28661 0.53677 0.97875 0.0
H945 H 0.30184 0.57797 0.99564 0.0
H946 H 0.28015 0.51538 0.92506 0.0
H947 H 0.24165 0.51114 0.89718 0.0
C948 C 0.43057 0.26029 0.90733 0.0
C949 C 0.4301 0.29902 0.9082 0.0
C950 C 0.48389 0.2976 0.86688 0.0
C951 C 0.47981 0.25929 0.86254 0.0
N952 N 0.43806 0.20896 0.86735 0.0
N953 N 0.4531 0.35492 0.88155 0.0
C954 C 0.4494 0.24231 0.87896 0.0
C955 C 0.45588 0.31803 0.88589 0.0
N956 N 0.41523 0.24017 0.93477 0.0
N957 N 0.51457 0.31433 0.85409 0.0
H958 H 0.43225 0.37058 0.89339 0.0
H959 H 0.46936 0.36932 0.86317 0.0
H960 H 0.53523 0.30028 0.84002 0.0
H961 H 0.52055 0.34147 0.85985 0.0
H962 H 0.41701 0.21173 0.93537 0.0
H963 H 0.40587 0.25176 0.95919 0.0
H964 H 0.41401 0.19727 0.8772 0.0
H965 H 0.4498 0.19593 0.84472 0.0
C966 C 0.7392 0.44147 0.95592 0.0
C967 C 0.74821 0.40375 0.95542 0.0
C968 C 0.80012 0.41806 0.91473 0.0
C969 C 0.78654 0.45426 0.91061 0.0
N970 N 0.73309 0.49417 0.91779 0.0
N971 N 0.78294 0.35536 0.92544 0.0
C972 C 0.7529 0.46406 0.92796 0.0
C973 C 0.77767 0.39164 0.93247 0.0
N974 N 0.71959 0.45671 0.98405 0.0
N975 N 0.83371 0.4085 0.90103 0.0
H976 H 0.76505 0.3353 0.93446 0.0
H977 H 0.80229 0.3457 0.90666 0.0
H978 H 0.85034 0.42682 0.88705 0.0
H979 H 0.84609 0.38325 0.90624 0.0
H980 H 0.71473 0.48478 0.9858 0.0
H981 H 0.71318 0.44264 1.008 0.0
H982 H 0.70718 0.49998 0.92867 0.0
H983 H 0.74035 0.51118 0.8963 0.0
C984 C 0.62911 0.29954 0.13519 0.0
C985 C 0.62457 0.30247 0.09669 0.0
C986 C 0.56522 0.27192 0.10101 0.0
C987 C 0.57129 0.26561 0.13906 0.0
N988 N 0.61182 0.26858 0.19132 0.0
N989 N 0.59153 0.28613 0.04186 0.0
C990 C 0.60387 0.2784 0.15602 0.0
C991 C 0.59342 0.28738 0.07932 0.0
N992 N 0.6573 0.31738 0.15187 0.0
N993 N 0.53207 0.26401 0.08556 0.0
H994 H 0.61133 0.29733 0.02471 0.0
H995 H 0.57195 0.27124 0.02764 0.0
H996 H 0.51078 0.25186 0.09987 0.0
H997 H 0.52446 0.27233 0.05931 0.0
H998 H 0.66 0.3196 0.1802 0.0
H999 H 0.67647 0.33258 0.13729 0.0
H1000 H 0.63691 0.27363 0.20386 0.0
H1001 H 0.59457 0.25253 0.20725 0.0
C1002 C 0.78161 0.58103 0.11728 0.0
C1003 C 0.79125 0.58948 0.15405 0.0
C1004 C 0.76681 0.6519 0.14538 0.0
C1005 C 0.75996 0.64411 0.10788 0.0
N1006 N 0.76829 0.60386 0.05629 0.0
N1007 N 0.7992 0.63496 0.20114 0.0
C1008 C 0.76955 0.60939 0.09332 0.0
C1009 C 0.78549 0.62549 0.16763 0.0
N1010 N 0.78244 0.54556 0.10562 0.0
N1011 N 0.75444 0.68405 0.1601 0.0
H1012 H 0.8132 0.61661 0.21808 0.0
H1013 H 0.79948 0.66169 0.21081 0.0
H1014 H 0.74128 0.7042 0.14456 0.0
H1015 H 0.75479 0.68961 0.18809 0.0
H1016 H 0.77218 0.53726 0.08035 0.0
H1017 H 0.78995 0.52383 0.1226 0.0
H1018 H 0.77864 0.58045 0.04362 0.0
H1019 H 0.76027 0.62421 0.03786 0.0
C1020 C 0.36494 0.73484 0.12504 0.0
C1021 C 0.37416 0.73894 0.08748 0.0
C1022 C 0.42508 0.77798 0.10379 0.0
C1023 C 0.4141 0.77725 0.14164 0.0
N1024 N 0.36788 0.76075 0.1861 0.0
N1025 N 0.40675 0.77116 0.04049 0.0
C1026 C 0.38247 0.75714 0.15178 0.0
C1027 C 0.40212 0.76276 0.07676 0.0
N1028 N 0.3399 0.70929 0.13521 0.0
N1029 N 0.45838 0.79123 0.09325 0.0
H1030 H 0.39065 0.76017 0.01966 0.0
H1031 H 0.42403 0.79178 0.03145 0.0
H1032 H 0.47753 0.80216 0.1109 0.0
H1033 H 0.46904 0.78768 0.06695 0.0
H1034 H 0.33508 0.70215 0.16242 0.0
H1035 H 0.32578 0.69342 0.11622 0.0
H1036 H 0.3429 0.74945 0.19369 0.0
H1037 H 0.37866 0.77801 0.20595 0.0
C1038 C 0.2641 0.37392 0.06908 0.0
C1039 C 0.28331 0.39256 0.04064 0.0
C1040 C 0.25292 0.44999 0.05884 0.0
C1041 C 0.23304 0.4311 0.08632 0.0
N1042 N 0.21342 0.37446 0.11244 0.0
N1043 N 0.28639 0.44575 1.00167 0.0
C1044 C 0.23671 0.39283 0.08974 0.0
C1045 C 0.27497 0.42988 0.03354 0.0
N1046 N 0.2729 0.33858 0.07761 0.0
N1047 N 0.25215 0.48728 0.05777 0.0
H1048 H 0.30103 0.43167 0.98149 0.0
H1049 H 0.27765 0.47161 0.99334 0.0
H1050 H 0.23592 0.50319 0.07521 0.0
H1051 H 0.26973 0.50248 0.04137 0.0
H1052 H 0.26353 0.32543 0.10106 0.0
H1053 H 0.29157 0.32279 0.06288 0.0
H1054 H 0.21179 0.34613 0.11337 0.0
H1055 H 0.19311 0.38767 0.12784 0.0
C1056 C 0.91235 0.63794 0.82656 0.0
C1057 C 0.89122 0.61211 0.80693 0.0
C1058 C 0.90496 0.6447 0.75005 0.0
C1059 C 0.93117 0.66635 0.76848 0.0
N1060 N 0.96544 0.67676 0.82453 0.0
N1061 N 0.87754 0.58536 0.74774 0.0
C1062 C 0.93642 0.66133 0.80691 0.0
C1063 C 0.89029 0.61391 0.768 0.0
N1064 N 0.90883 0.64114 0.8637 0.0
N1065 N 0.89346 0.65374 0.71557 0.0
H1066 H 0.87004 0.56053 0.75929 0.0
H1067 H 0.87917 0.58466 0.7192 0.0
H1068 H 0.90185 0.67743 0.70229 0.0
H1069 H 0.87228 0.64013 0.70229 0.0
H1070 H 0.92126 0.66189 0.8786 0.0
H1071 H 0.89041 0.62577 0.87896 0.0
H1072 H 0.97204 0.67077 0.8517 0.0
H1073 H 0.98526 0.69219 0.81132 0.0
C1074 C 0.87736 0.41619 0.30241 0.0
C1075 C 0.88118 0.45404 0.29617 0.0
C1076 C 0.93915 0.454 0.33034 0.0
C1077 C 0.9358 0.41584 0.3363 0.0
N1078 N 0.89709 0.36285 0.33702 0.0
N1079 N 0.90859 0.51078 0.31364 0.0
C1080 C 0.90334 0.39762 0.32517 0.0
C1081 C 0.90968 0.47351 0.31358 0.0
N1082 N 0.84964 0.39789 0.28557 0.0
N1083 N 0.97135 0.47121 0.33804 0.0
H1084 H 0.88687 0.52555 0.30206 0.0
H1085 H 0.92687 0.52677 0.32837 0.0
H1086 H 0.99427 0.45792 0.34894 0.0
H1087 H 0.97654 0.49812 0.33069 0.0
H1088 H 0.84783 0.36955 0.28508 0.0
H1089 H 0.82909 0.41137 0.27074 0.0
H1090 H 0.8727 0.34908 0.33236 0.0
H1091 H 0.915 0.349 0.35463 0.0
C1092 C 0.60056 0.89547 0.31317 0.0
C1093 C 0.59959 0.93402 0.3101 0.0
C1094 C 0.54426 0.93068 0.27186 0.0
C1095 C 0.54661 0.89164 0.27229 0.0
N1096 N 0.58065 0.83719 0.28898 0.0
N1097 N 0.57092 0.98886 0.28719 0.0
C1098 C 0.57547 0.87405 0.29223 0.0
C1099 C 0.57137 0.95163 0.28989 0.0
N1100 N 0.62543 0.87942 0.33629 0.0
N1101 N 0.51552 0.94826 0.25507 0.0
H1102 H 0.586 1.00546 0.30452 0.0
H1103 H 0.55642 1.00343 0.26731 0.0
H1104 H 0.4969 0.93589 0.23776 0.0
H1105 H 0.5086 0.97551 0.25963 0.0
H1106 H 0.62533 0.85182 0.343 0.0
H1107 H 0.64454 0.89443 0.35113 0.0
H1108 H 0.60334 0.82323 0.29947 0.0
H1109 H 0.56396 0.82065 0.27302 0.0
C1110 C 0.10994 0.58892 0.21321 0.0
C1111 C 0.14834 0.58163 0.21465 0.0
C1112 C 0.15573 0.63495 0.25539 0.0
C1113 C 0.11808 0.64336 0.25124 0.0
N1114 N 0.06068 0.63327 0.22048 0.0
N1115 N 0.2089 0.60106 0.23484 0.0
C1116 C 0.09582 0.62213 0.22787 0.0
C1117 C 0.17161 0.60559 0.23504 0.0
N1118 N 0.08642 0.56276 0.20097 0.0
N1119 N 0.17605 0.65426 0.28006 0.0
H1120 H 0.22267 0.57888 0.22349 0.0
H1121 H 0.2269 0.62078 0.24437 0.0
H1122 H 0.16584 0.67748 0.29331 0.0
H1123 H 0.20214 0.64633 0.2888 0.0
H1124 H 0.05798 0.56524 0.2028 0.0
H1125 H 0.09498 0.53663 0.19332 0.0
H1126 H 0.04412 0.62067 0.20106 0.0
H1127 H 0.04939 0.65731 0.23109 0.0
C1128 C 0.39613 0.14465 0.24321 0.0
C1129 C 0.42636 0.16146 0.26021 0.0
C1130 C 0.40594 0.13596 0.31914 0.0
C1131 C 0.38081 0.11301 0.30039 0.0
N1132 N 0.36141 0.08973 0.24078 0.0
N1133 N 0.46303 0.16903 0.31493 0.0
C1134 C 0.37826 0.11583 0.26138 0.0
C1135 C 0.4321 0.15625 0.29845 0.0
N1136 N 0.38444 0.15601 0.20945 0.0
N1137 N 0.40414 0.13968 0.35634 0.0
H1138 H 0.48306 0.18355 0.30096 0.0
H1139 H 0.47017 0.16242 0.34181 0.0
H1140 H 0.384 0.12736 0.37223 0.0
H1141 H 0.41991 0.15841 0.37074 0.0
H1142 H 0.36058 0.14624 0.19727 0.0
H1143 H 0.39602 0.17815 0.19585 0.0
H1144 H 0.36198 0.08987 0.21219 0.0
H1145 H 0.35154 0.06542 0.25131 0.0
C1146 C 0.03247 0.38813 0.81794 0.0
C1147 C 0.03987 0.37818 0.78092 0.0
C1148 C 0.08361 0.42769 0.77657 0.0
C1149 C 0.08041 0.43508 0.81483 0.0
N1150 N 0.058 0.41339 0.87358 0.0
N1151 N 0.08342 0.38059 0.73101 0.0
C1152 C 0.05664 0.41275 0.83619 0.0
C1153 C 0.06928 0.39514 0.76251 0.0
N1154 N 1.00201 0.3756 0.83543 0.0
N1155 N 0.09832 0.45228 0.75265 0.0
H1156 H 0.07412 0.35626 0.71995 0.0
H1157 H 0.10696 0.3907 0.71847 0.0
H1158 H 0.10633 0.47842 0.75982 0.0
H1159 H 0.09796 0.44837 0.72431 0.0
H1160 H 0.99366 0.38541 0.86098 0.0
H1161 H 0.9835 0.35784 0.82337 0.0
H1162 H 0.04327 0.39529 0.88982 0.0
H1163 H 0.07686 0.42865 0.8883 0.0
C1164 C 0.59874 0.07453 0.76428 0.0
C1165 C 0.60663 0.11276 0.7614 0.0
C1166 C 0.6435 0.09941 0.70581 0.0
C1167 C 0.63724 0.06153 0.71011 0.0
N1168 N 0.61453 0.01232 0.74721 0.0
N1169 N 0.64571 0.15872 0.73511 0.0
C1170 C 0.61673 0.04899 0.74057 0.0
C1171 C 0.63145 0.12441 0.73358 0.0
N1172 N 0.57274 0.06208 0.78814 0.0
N1173 N 0.66131 0.11159 0.67527 0.0
H1174 H 0.64026 0.17677 0.75657 0.0
H1175 H 0.6664 0.16772 0.71774 0.0
H1176 H 0.67178 0.09403 0.65524 0.0
H1177 H 0.66316 0.1391 0.66844 0.0
H1178 H 0.56209 0.03585 0.78685 0.0
H1179 H 0.55895 0.07781 0.80741 0.0
H1180 H 0.60518 1.0015 0.77187 0.0
H1181 H 0.6244 0.99249 0.72913 0.0
C1182 C 0.43107 0.90659 0.80501 0.0
C1183 C 0.46256 0.88886 0.79095 0.0
C1184 C 0.44608 0.9117 0.72948 0.0
C1185 C 0.41906 0.93534 0.74498 0.0
N1186 N 0.39549 0.9616 0.80236 0.0
N1187 N 0.50442 0.88151 0.7398 0.0
C1188 C 0.41393 0.93448 0.78407 0.0
C1189 C 0.47131 0.89315 0.7531 0.0
N1190 N 0.41721 0.89692 0.83838 0.0
N1191 N 0.44722 0.90582 0.69255 0.0
H1192 H 0.52477 0.87018 0.75639 0.0
H1193 H 0.51315 0.8871 0.71318 0.0
H1194 H 0.42776 0.91664 0.67455 0.0
H1195 H 0.46474 0.88656 0.68056 0.0
H1196 H 0.39226 0.90714 0.84821 0.0
H1197 H 0.42827 0.87567 0.85406 0.0
H1198 H 0.39419 0.9627 0.83091 0.0
H1199 H 0.38644 0.98572 0.79045 0.0
loop_
_geom_bond_atom_site_label_1
_geom_bond_atom_site_label_2
_geom_bond_distance
_geom_bond_site_symmetry_2
_ccdc_geom_bond_type
C0 O2 1.247 . S
C0 O4 1.258 . S
C1 O8 1.247 . S
C1 O9 1.258 . S
O2 C0 1.247 . S
O2 Zn3 2.028 . S
Zn3 O2 2.028 . S
Zn3 O7 2.035 . S
Zn3 O9 2.035 1_545 S
Zn3 O10 2.028 1_545 S
O4 C0 1.258 . S
O4 Zn5 2.035 . S
Zn5 O4 2.035 . S
Zn5 O6 2.028 . S
Zn5 O8 2.028 1_545 S
Zn5 O11 2.035 1_545 S
O6 Zn5 2.028 . S
O6 C12 1.247 . S
O7 Zn3 2.035 . S
O7 C12 1.258 . S
O8 C1 1.247 . S
O8 Zn5 2.028 1_565 S
O9 C1 1.258 . S
O9 Zn3 2.035 1_565 S
O10 Zn3 2.028 1_565 S
O10 C13 1.247 . S
O11 Zn5 2.035 1_565 S
O11 C13 1.258 . S
C12 O6 1.247 . S
C12 O7 1.258 . S
C13 O10 1.247 . S
C13 O11 1.258 . S
C14 O16 1.247 . S
C14 O18 1.258 . S
C15 O22 1.247 . S
C15 O23 1.258 . S
O16 C14 1.247 . S
O16 Zn17 2.028 . S
Zn17 O16 2.028 . S
Zn17 O21 2.035 . S
Zn17 O23 2.035 1_455 S
Zn17 O24 2.028 1_455 S
O18 C14 1.258 . S
O18 Zn19 2.035 . S
Zn19 O18 2.035 . S
Zn19 O20 2.028 . S
Zn19 O22 2.028 1_455 S
Zn19 O25 2.035 1_455 S
O20 Zn19 2.028 . S
O20 C26 1.247 . S
O21 Zn17 2.035 . S
O21 C26 1.258 . S
O22 C15 1.247 . S
O22 Zn19 2.028 1_655 S
O23 C15 1.258 . S
O23 Zn17 2.035 1_655 S
O24 Zn17 2.028 1_655 S
O24 C27 1.247 . S
O25 Zn19 2.035 1_655 S
O25 C27 1.258 . S
C26 O20 1.247 . S
C26 O21 1.258 . S
C27 O24 1.247 . S
C27 O25 1.258 . S
C28 O30 1.247 . S
C28 O32 1.258 . S
C29 O36 1.247 . S
C29 O37 1.258 . S
O30 C28 1.247 . S
O30 Zn31 2.028 1_565 S
Zn31 O30 2.028 1_545 S
Zn31 O35 2.035 1_545 S
Zn31 O37 2.035 . S
Zn31 O38 2.028 . S
O32 C28 1.258 . S
O32 Zn33 2.035 1_565 S
Zn33 O32 2.035 1_545 S
Zn33 O34 2.028 1_545 S
Zn33 O36 2.028 . S
Zn33 O39 2.035 . S
O34 Zn33 2.028 1_565 S
O34 C40 1.247 . S
O35 Zn31 2.035 1_565 S
O35 C40 1.258 . S
O36 C29 1.247 . S
O36 Zn33 2.028 . S
O37 C29 1.258 . S
O37 Zn31 2.035 . S
O38 Zn31 2.028 . S
O38 C41 1.247 . S
O39 Zn33 2.035 . S
O39 C41 1.258 . S
C40 O34 1.247 . S
C40 O35 1.258 . S
C41 O38 1.247 . S
C41 O39 1.258 . S
C42 O44 1.247 . S
C42 O46 1.258 . S
C43 O50 1.247 . S
C43 O51 1.258 . S
O44 C42 1.247 . S
O44 Zn45 2.028 . S
Zn45 O44 2.028 . S
Zn45 O49 2.035 . S
Zn45 O51 2.035 1_455 S
Zn45 O52 2.028 1_455 S
O46 C42 1.258 . S
O46 Zn47 2.035 . S
Zn47 O46 2.035 . S
Zn47 O48 2.028 . S
Zn47 O50 2.028 1_455 S
Zn47 O53 2.035 1_455 S
O48 Zn47 2.028 . S
O48 C54 1.247 . S
O49 Zn45 2.035 . S
O49 C54 1.258 . S
O50 C43 1.247 . S
O50 Zn47 2.028 1_655 S
O51 C43 1.258 . S
O51 Zn45 2.035 1_655 S
O52 Zn45 2.028 1_655 S
O52 C55 1.247 . S
O53 Zn47 2.035 1_655 S
O53 C55 1.258 . S
C54 O48 1.247 . S
C54 O49 1.258 . S
C55 O52 1.247 . S
C55 O53 1.258 . S
C56 O58 1.247 . S
C56 O60 1.258 . S
C57 O64 1.247 . S
C57 O65 1.258 . S
O58 C56 1.247 . S
O58 Zn59 2.028 . S
Zn59 O58 2.028 . S
Zn59 O63 2.035 . S
Zn59 O65 2.035 1_545 S
Zn59 O66 2.028 1_545 S
O60 C56 1.258 . S
O60 Zn61 2.035 . S
Zn61 O60 2.035 . S
Zn61 O62 2.028 . S
Zn61 O64 2.028 1_545 S
Zn61 O67 2.035 1_545 S
O62 Zn61 2.028 . S
O62 C68 1.247 . S
O63 Zn59 2.035 . S
O63 C68 1.258 . S
O64 C57 1.247 . S
O64 Zn61 2.028 1_565 S
O65 C57 1.258 . S
O65 Zn59 2.035 1_565 S
O66 Zn59 2.028 1_565 S
O66 C69 1.247 . S
O67 Zn61 2.035 1_565 S
O67 C69 1.258 . S
C68 O62 1.247 . S
C68 O63 1.258 . S
C69 O66 1.247 . S
C69 O67 1.258 . S
C70 O72 1.247 . S
C70 O74 1.258 . S
C71 O78 1.247 . S
C71 O79 1.258 . S
O72 C70 1.247 . S
O72 Zn73 2.028 . S
Zn73 O72 2.028 . S
Zn73 O77 2.035 . S
Zn73 O79 2.035 1_455 S
Zn73 O80 2.028 1_455 S
O74 C70 1.258 . S
O74 Zn75 2.035 . S
Zn75 O74 2.035 . S
Zn75 O76 2.028 . S
Zn75 O78 2.028 1_455 S
Zn75 O81 2.035 1_455 S
O76 Zn75 2.028 . S
O76 C82 1.247 . S
O77 Zn73 2.035 . S
O77 C82 1.258 . S
O78 C71 1.247 . S
O78 Zn75 2.028 1_655 S
O79 C71 1.258 . S
O79 Zn73 2.035 1_655 S
O80 Zn73 2.028 1_655 S
O80 C83 1.247 . S
O81 Zn75 2.035 1_655 S
O81 C83 1.258 . S
C82 O76 1.247 . S
C82 O77 1.258 . S
C83 O80 1.247 . S
C83 O81 1.258 . S
C84 O86 1.247 . S
C84 O88 1.258 . S
C85 O92 1.247 . S
C85 O93 1.258 . S
O86 C84 1.247 . S
O86 Zn87 2.028 . S
Zn87 O86 2.028 . S
Zn87 O91 2.035 . S
Zn87 O93 2.035 1_545 S
Zn87 O94 2.028 1_545 S
O88 C84 1.258 . S
O88 Zn89 2.035 . S
Zn89 O88 2.035 . S
Zn89 O90 2.028 . S
Zn89 O92 2.028 1_545 S
Zn89 O95 2.035 1_545 S
O90 Zn89 2.028 . S
O90 C96 1.247 . S
O91 Zn87 2.035 . S
O91 C96 1.258 . S
O92 C85 1.247 . S
O92 Zn89 2.028 1_565 S
O93 C85 1.258 . S
O93 Zn87 2.035 1_565 S
O94 Zn87 2.028 1_565 S
O94 C97 1.247 . S
O95 Zn89 2.035 1_565 S
O95 C97 1.258 . S
C96 O90 1.247 . S
C96 O91 1.258 . S
C97 O94 1.247 . S
C97 O95 1.258 . S
C98 O100 1.247 . S
C98 O102 1.258 . S
C99 O106 1.247 . S
C99 O107 1.258 . S
O100 C98 1.247 . S
O100 Zn101 2.028 1_655 S
Zn101 O100 2.028 1_455 S
Zn101 O105 2.035 1_455 S
Zn101 O107 2.035 . S
Zn101 O108 2.028 . S
O102 C98 1.258 . S
O102 Zn103 2.035 1_655 S
Zn103 O102 2.035 1_455 S
Zn103 O104 2.028 1_455 S
Zn103 O106 2.028 . S
Zn103 O109 2.035 . S
O104 Zn103 2.028 1_655 S
O104 C110 1.247 . S
O105 Zn101 2.035 1_655 S
O105 C110 1.258 . S
O106 C99 1.247 . S
O106 Zn103 2.028 . S
O107 C99 1.258 . S
O107 Zn101 2.035 . S
O108 Zn101 2.028 . S
O108 C111 1.247 . S
O109 Zn103 2.035 . S
O109 C111 1.258 . S
C110 O104 1.247 . S
C110 O105 1.258 . S
C111 O108 1.247 . S
C111 O109 1.258 . S
C112 O114 1.247 . S
C112 O116 1.258 . S
C113 O120 1.247 . S
C113 O121 1.258 . S
O114 C112 1.247 . S
O114 Zn115 2.028 . S
Zn115 O114 2.028 . S
Zn115 O119 2.035 . S
Zn115 O121 2.035 1_554 S
Zn115 O122 2.028 1_554 S
O116 C112 1.258 . S
O116 Zn117 2.035 . S
Zn117 O116 2.035 . S
Zn117 O118 2.028 . S
Zn117 O120 2.028 1_554 S
Zn117 O123 2.035 1_554 S
O118 Zn117 2.028 . S
O118 C124 1.247 . S
O119 Zn115 2.035 . S
O119 C124 1.258 . S
O120 C113 1.247 . S
O120 Zn117 2.028 1_556 S
O121 C113 1.258 . S
O121 Zn115 2.035 1_556 S
O122 Zn115 2.028 1_556 S
O122 C125 1.247 . S
O123 Zn117 2.035 1_556 S
O123 C125 1.258 . S
C124 O118 1.247 . S
C124 O119 1.258 . S
C125 O122 1.247 . S
C125 O123 1.258 . S
C126 O128 1.247 . S
C126 O130 1.258 . S
C127 O134 1.247 . S
C127 O135 1.258 . S
O128 C126 1.247 . S
O128 Zn129 2.028 . S
Zn129 O128 2.028 . S
Zn129 O133 2.035 . S
Zn129 O135 2.035 1_554 S
Zn129 O136 2.028 1_554 S
O130 C126 1.258 . S
O130 Zn131 2.035 . S
Zn131 O130 2.035 . S
Zn131 O132 2.028 . S
Zn131 O134 2.028 1_554 S
Zn131 O137 2.035 1_554 S
O132 Zn131 2.028 . S
O132 C138 1.247 . S
O133 Zn129 2.035 . S
O133 C138 1.258 . S
O134 C127 1.247 . S
O134 Zn131 2.028 1_556 S
O135 C127 1.258 . S
O135 Zn129 2.035 1_556 S
O136 Zn129 2.028 1_556 S
O136 C139 1.247 . S
O137 Zn131 2.035 1_556 S
O137 C139 1.258 . S
C138 O132 1.247 . S
C138 O133 1.258 . S
C139 O136 1.247 . S
C139 O137 1.258 . S
C140 O142 1.247 . S
C140 O144 1.258 . S
C141 O148 1.247 . S
C141 O149 1.258 . S
O142 C140 1.247 . S
O142 Zn143 2.028 . S
Zn143 O142 2.028 . S
Zn143 O147 2.035 . S
Zn143 O149 2.035 1_554 S
Zn143 O150 2.028 1_554 S
O144 C140 1.258 . S
O144 Zn145 2.035 . S
Zn145 O144 2.035 . S
Zn145 O146 2.028 . S
Zn145 O148 2.028 1_554 S
Zn145 O151 2.035 1_554 S
O146 Zn145 2.028 . S
O146 C152 1.247 . S
O147 Zn143 2.035 . S
O147 C152 1.258 . S
O148 C141 1.247 . S
O148 Zn145 2.028 1_556 S
O149 C141 1.258 . S
O149 Zn143 2.035 1_556 S
O150 Zn143 2.028 1_556 S
O150 C153 1.247 . S
O151 Zn145 2.035 1_556 S
O151 C153 1.258 . S
C152 O146 1.247 . S
C152 O147 1.258 . S
C153 O150 1.247 . S
C153 O151 1.258 . S
C154 O156 1.247 . S
C154 O158 1.258 . S
C155 O162 1.247 . S
C155 O163 1.258 . S
O156 C154 1.247 . S
O156 Zn157 2.028 1_556 S
Zn157 O156 2.028 1_554 S
Zn157 O161 2.035 1_554 S
Zn157 O163 2.035 . S
Zn157 O164 2.028 . S
O158 C154 1.258 . S
O158 Zn159 2.035 1_556 S
Zn159 O158 2.035 1_554 S
Zn159 O160 2.028 1_554 S
Zn159 O162 2.028 . S
Zn159 O165 2.035 . S
O160 Zn159 2.028 1_556 S
O160 C166 1.247 . S
O161 Zn157 2.035 1_556 S
O161 C166 1.258 . S
O162 C155 1.247 . S
O162 Zn159 2.028 . S
O163 C155 1.258 . S
O163 Zn157 2.035 . S
O164 Zn157 2.028 . S
O164 C167 1.247 . S
O165 Zn159 2.035 . S
O165 C167 1.258 . S
C166 O160 1.247 . S
C166 O161 1.258 . S
C167 O164 1.247 . S
C167 O165 1.258 . S
C168 O170 1.247 . S
C168 O172 1.258 . S
C169 O176 1.247 . S
C169 O177 1.258 . S
O170 C168 1.247 . S
O170 Zn171 2.028 . S
Zn171 O170 2.028 . S
Zn171 O175 2.035 . S
Zn171 O177 2.035 . S
Zn171 O178 2.028 . S
O172 C168 1.258 . S
O172 Zn173 2.035 . S
Zn173 O172 2.035 . S
Zn173 O174 2.028 . S
Zn173 O176 2.028 . S
Zn173 O179 2.035 . S
O174 Zn173 2.028 . S
O174 C180 1.247 . S
O175 Zn171 2.035 . S
O175 C180 1.258 . S
O176 C169 1.247 . S
O176 Zn173 2.028 . S
O177 C169 1.258 . S
O177 Zn171 2.035 . S
O178 Zn171 2.028 . S
O178 C181 1.247 . S
O179 Zn173 2.035 . S
O179 C181 1.258 . S
C180 O174 1.247 . S
C180 O175 1.258 . S
C181 O178 1.247 . S
C181 O179 1.258 . S
C182 O184 1.247 . S
C182 O186 1.258 . S
C183 O190 1.247 . S
C183 O191 1.258 . S
O184 C182 1.247 . S
O184 Zn185 2.028 . S
Zn185 O184 2.028 . S
Zn185 O189 2.035 . S
Zn185 O191 2.035 . S
Zn185 O192 2.028 . S
O186 C182 1.258 . S
O186 Zn187 2.035 . S
Zn187 O186 2.035 . S
Zn187 O188 2.028 . S
Zn187 O190 2.028 . S
Zn187 O193 2.035 . S
O188 Zn187 2.028 . S
O188 C194 1.247 . S
O189 Zn185 2.035 . S
O189 C194 1.258 . S
O190 C183 1.247 . S
O190 Zn187 2.028 . S
O191 C183 1.258 . S
O191 Zn185 2.035 . S
O192 Zn185 2.028 . S
O192 C195 1.247 . S
O193 Zn187 2.035 . S
O193 C195 1.258 . S
C194 O188 1.247 . S
C194 O189 1.258 . S
C195 O192 1.247 . S
C195 O193 1.258 . S
C196 O198 1.247 . S
C196 O200 1.258 . S
C197 O204 1.247 . S
C197 O205 1.258 . S
O198 C196 1.247 . S
O198 Zn199 2.028 . S
Zn199 O198 2.028 . S
Zn199 O203 2.035 . S
Zn199 O205 2.035 . S
Zn199 O206 2.028 . S
O200 C196 1.258 . S
O200 Zn201 2.035 . S
Zn201 O200 2.035 . S
Zn201 O202 2.028 . S
Zn201 O204 2.028 . S
Zn201 O207 2.035 . S
O202 Zn201 2.028 . S
O202 C208 1.247 . S
O203 Zn199 2.035 . S
O203 C208 1.258 . S
O204 C197 1.247 . S
O204 Zn201 2.028 . S
O205 C197 1.258 . S
O205 Zn199 2.035 . S
O206 Zn199 2.028 . S
O206 C209 1.247 . S
O207 Zn201 2.035 . S
O207 C209 1.258 . S
C208 O202 1.247 . S
C208 O203 1.258 . S
C209 O206 1.247 . S
C209 O207 1.258 . S
C210 O212 1.247 . S
C210 O214 1.258 . S
C211 O218 1.247 . S
C211 O219 1.258 . S
O212 C210 1.247 . S
O212 Zn213 2.028 . S
Zn213 O212 2.028 . S
Zn213 O217 2.035 . S
Zn213 O219 2.035 . S
Zn213 O220 2.028 . S
O214 C210 1.258 . S
O214 Zn215 2.035 . S
Zn215 O214 2.035 . S
Zn215 O216 2.028 . S
Zn215 O218 2.028 . S
Zn215 O221 2.035 . S
O216 Zn215 2.028 . S
O216 C222 1.247 . S
O217 Zn213 2.035 . S
O217 C222 1.258 . S
O218 C211 1.247 . S
O218 Zn215 2.028 . S
O219 C211 1.258 . S
O219 Zn213 2.035 . S
O220 Zn213 2.028 . S
O220 C223 1.247 . S
O221 Zn215 2.035 . S
O221 C223 1.258 . S
C222 O216 1.247 . S
C222 O217 1.258 . S
C223 O220 1.247 . S
C223 O221 1.258 . S
C224 O226 1.247 . S
C224 O228 1.258 . S
C225 O232 1.247 . S
C225 O233 1.258 . S
O226 C224 1.247 . S
O226 Zn227 2.028 . S
Zn227 O226 2.028 . S
Zn227 O231 2.035 . S
Zn227 O233 2.035 . S
Zn227 O234 2.028 . S
O228 C224 1.258 . S
O228 Zn229 2.035 . S
Zn229 O228 2.035 . S
Zn229 O230 2.028 . S
Zn229 O232 2.028 . S
Zn229 O235 2.035 . S
O230 Zn229 2.028 . S
O230 C236 1.247 . S
O231 Zn227 2.035 . S
O231 C236 1.258 . S
O232 C225 1.247 . S
O232 Zn229 2.028 . S
O233 C225 1.258 . S
O233 Zn227 2.035 . S
O234 Zn227 2.028 . S
O234 C237 1.247 . S
O235 Zn229 2.035 . S
O235 C237 1.258 . S
C236 O230 1.247 . S
C236 O231 1.258 . S
C237 O234 1.247 . S
C237 O235 1.258 . S
C238 O240 1.247 . S
C238 O242 1.258 . S
C239 O246 1.247 . S
C239 O247 1.258 . S
O240 C238 1.247 . S
O240 Zn241 2.028 . S
Zn241 O240 2.028 . S
Zn241 O245 2.035 . S
Zn241 O247 2.035 . S
Zn241 O248 2.028 . S
O242 C238 1.258 . S
O242 Zn243 2.035 . S
Zn243 O242 2.035 . S
Zn243 O244 2.028 . S
Zn243 O246 2.028 . S
Zn243 O249 2.035 . S
O244 Zn243 2.028 . S
O244 C250 1.247 . S
O245 Zn241 2.035 . S
O245 C250 1.258 . S
O246 C239 1.247 . S
O246 Zn243 2.028 . S
O247 C239 1.258 . S
O247 Zn241 2.035 . S
O248 Zn241 2.028 . S
O248 C251 1.247 . S
O249 Zn243 2.035 . S
O249 C251 1.258 . S
C250 O244 1.247 . S
C250 O245 1.258 . S
C251 O248 1.247 . S
C251 O249 1.258 . S
C252 O254 1.247 . S
C252 O256 1.258 . S
C253 O260 1.247 . S
C253 O261 1.258 . S
O254 C252 1.247 . S
O254 Zn255 2.028 . S
Zn255 O254 2.028 . S
Zn255 O259 2.035 . S
Zn255 O261 2.035 . S
Zn255 O262 2.028 . S
O256 C252 1.258 . S
O256 Zn257 2.035 . S
Zn257 O256 2.035 . S
Zn257 O258 2.028 . S
Zn257 O260 2.028 . S
Zn257 O263 2.035 . S
O258 Zn257 2.028 . S
O258 C264 1.247 . S
O259 Zn255 2.035 . S
O259 C264 1.258 . S
O260 C253 1.247 . S
O260 Zn257 2.028 . S
O261 C253 1.258 . S
O261 Zn255 2.035 . S
O262 Zn255 2.028 . S
O262 C265 1.247 . S
O263 Zn257 2.035 . S
O263 C265 1.258 . S
C264 O258 1.247 . S
C264 O259 1.258 . S
C265 O262 1.247 . S
C265 O263 1.258 . S
C266 O268 1.247 . S
C266 O270 1.258 . S
C267 O274 1.247 . S
C267 O275 1.258 . S
O268 C266 1.247 . S
O268 Zn269 2.028 . S
Zn269 O268 2.028 . S
Zn269 O273 2.035 . S
Zn269 O275 2.035 . S
Zn269 O276 2.028 . S
O270 C266 1.258 . S
O270 Zn271 2.035 . S
Zn271 O270 2.035 . S
Zn271 O272 2.028 . S
Zn271 O274 2.028 . S
Zn271 O277 2.035 . S
O272 Zn271 2.028 . S
O272 C278 1.247 . S
O273 Zn269 2.035 . S
O273 C278 1.258 . S
O274 C267 1.247 . S
O274 Zn271 2.028 . S
O275 C267 1.258 . S
O275 Zn269 2.035 . S
O276 Zn269 2.028 . S
O276 C279 1.247 . S
O277 Zn271 2.035 . S
O277 C279 1.258 . S
C278 O272 1.247 . S
C278 O273 1.258 . S
C279 O276 1.247 . S
C279 O277 1.258 . S
C280 O282 1.247 . S
C280 O284 1.258 . S
C281 O288 1.247 . S
C281 O289 1.258 . S
O282 C280 1.247 . S
O282 Zn283 2.028 . S
Zn283 O282 2.028 . S
Zn283 O287 2.035 . S
Zn283 O289 2.035 . S
Zn283 O290 2.028 . S
O284 C280 1.258 . S
O284 Zn285 2.035 . S
Zn285 O284 2.035 . S
Zn285 O286 2.028 . S
Zn285 O288 2.028 . S
Zn285 O291 2.035 . S
O286 Zn285 2.028 . S
O286 C292 1.247 . S
O287 Zn283 2.035 . S
O287 C292 1.258 . S
O288 C281 1.247 . S
O288 Zn285 2.028 . S
O289 C281 1.258 . S
O289 Zn283 2.035 . S
O290 Zn283 2.028 . S
O290 C293 1.247 . S
O291 Zn285 2.035 . S
O291 C293 1.258 . S
C292 O286 1.247 . S
C292 O287 1.258 . S
C293 O290 1.247 . S
C293 O291 1.258 . S
C294 O296 1.247 . S
C294 O298 1.258 . S
C295 O302 1.247 . S
C295 O303 1.258 . S
O296 C294 1.247 . S
O296 Zn297 2.028 . S
Zn297 O296 2.028 . S
Zn297 O301 2.035 . S
Zn297 O303 2.035 . S
Zn297 O304 2.028 . S
O298 C294 1.258 . S
O298 Zn299 2.035 . S
Zn299 O298 2.035 . S
Zn299 O300 2.028 . S
Zn299 O302 2.028 . S
Zn299 O305 2.035 . S
O300 Zn299 2.028 . S
O300 C306 1.247 . S
O301 Zn297 2.035 . S
O301 C306 1.258 . S
O302 C295 1.247 . S
O302 Zn299 2.028 . S
O303 C295 1.258 . S
O303 Zn297 2.035 . S
O304 Zn297 2.028 . S
O304 C307 1.247 . S
O305 Zn299 2.035 . S
O305 C307 1.258 . S
C306 O300 1.247 . S
C306 O301 1.258 . S
C307 O304 1.247 . S
C307 O305 1.258 . S
C308 O310 1.247 . S
C308 O312 1.258 . S
C309 O316 1.247 . S
C309 O317 1.258 . S
O310 C308 1.247 . S
O310 Zn311 2.028 . S
Zn311 O310 2.028 . S
Zn311 O315 2.035 . S
Zn311 O317 2.035 . S
Zn311 O318 2.028 . S
O312 C308 1.258 . S
O312 Zn313 2.035 . S
Zn313 O312 2.035 . S
Zn313 O314 2.028 . S
Zn313 O316 2.028 . S
Zn313 O319 2.035 . S
O314 Zn313 2.028 . S
O314 C320 1.247 . S
O315 Zn311 2.035 . S
O315 C320 1.258 . S
O316 C309 1.247 . S
O316 Zn313 2.028 . S
O317 C309 1.258 . S
O317 Zn311 2.035 . S
O318 Zn311 2.028 . S
O318 C321 1.247 . S
O319 Zn313 2.035 . S
O319 C321 1.258 . S
C320 O314 1.247 . S
C320 O315 1.258 . S
C321 O318 1.247 . S
C321 O319 1.258 . S
C322 O324 1.247 . S
C322 O326 1.258 . S
C323 O330 1.247 . S
C323 O331 1.258 . S
O324 C322 1.247 . S
O324 Zn325 2.028 . S
Zn325 O324 2.028 . S
Zn325 O329 2.035 . S
Zn325 O331 2.035 . S
Zn325 O332 2.028 . S
O326 C322 1.258 . S
O326 Zn327 2.035 . S
Zn327 O326 2.035 . S
Zn327 O328 2.028 . S
Zn327 O330 2.028 . S
Zn327 O333 2.035 . S
O328 Zn327 2.028 . S
O328 C334 1.247 . S
O329 Zn325 2.035 . S
O329 C334 1.258 . S
O330 C323 1.247 . S
O330 Zn327 2.028 . S
O331 C323 1.258 . S
O331 Zn325 2.035 . S
O332 Zn325 2.028 . S
O332 C335 1.247 . S
O333 Zn327 2.035 . S
O333 C335 1.258 . S
C334 O328 1.247 . S
C334 O329 1.258 . S
C335 O332 1.247 . S
C335 O333 1.258 . S
C336 C337 1.363 . S
C336 C342 1.379 . S
C336 N344 1.356 . S
C337 C336 1.363 . S
C337 C343 1.363 . S
C338 C339 1.363 . S
C338 C343 1.379 . S
C338 N345 1.356 . S
C339 C338 1.363 . S
C339 C342 1.363 . S
N340 C342 1.356 . S
N340 H352 0.984 . S
N340 H353 0.985 . S
N341 C343 1.356 . S
N341 H346 0.984 . S
N341 H347 0.985 . S
C342 C336 1.379 . S
C342 C339 1.363 . S
C342 N340 1.356 . S
C343 C337 1.363 . S
C343 C338 1.379 . S
C343 N341 1.356 . S
N344 C336 1.356 . S
N344 H350 0.984 . S
N344 H351 0.984 . S
N345 C338 1.356 . S
N345 H348 0.984 . S
N345 H349 0.985 . S
H346 N341 0.984 . S
H347 N341 0.985 . S
H348 N345 0.984 . S
H349 N345 0.985 . S
H350 N344 0.984 . S
H351 N344 0.984 . S
H352 N340 0.984 . S
H353 N340 0.985 . S
C354 C355 1.363 . S
C354 C360 1.379 . S
C354 N362 1.356 . S
C355 C354 1.363 . S
C355 C361 1.363 . S
C356 C357 1.363 . S
C356 C361 1.379 . S
C356 N363 1.356 . S
C357 C356 1.363 . S
C357 C360 1.363 . S
N358 C360 1.356 . S
N358 H370 0.984 . S
N358 H371 0.985 . S
N359 C361 1.356 . S
N359 H364 0.984 . S
N359 H365 0.985 . S
C360 C354 1.379 . S
C360 C357 1.363 . S
C360 N358 1.356 . S
C361 C355 1.363 . S
C361 C356 1.379 . S
C361 N359 1.356 . S
N362 C354 1.356 . S
N362 H368 0.984 . S
N362 H369 0.984 . S
N363 C356 1.356 . S
N363 H366 0.984 . S
N363 H367 0.985 . S
H364 N359 0.984 . S
H365 N359 0.985 . S
H366 N363 0.984 . S
H367 N363 0.985 . S
H368 N362 0.984 . S
H369 N362 0.984 . S
H370 N358 0.984 . S
H371 N358 0.985 . S
C372 C373 1.363 . S
C372 C378 1.379 . S
C372 N380 1.356 . S
C373 C372 1.363 . S
C373 C379 1.363 . S
C374 C375 1.363 . S
C374 C379 1.379 . S
C374 N381 1.356 . S
C375 C374 1.363 . S
C375 C378 1.363 . S
N376 C378 1.356 . S
N376 H388 0.984 . S
N376 H389 0.985 . S
N377 C379 1.356 . S
N377 H382 0.984 . S
N377 H383 0.985 . S
C378 C372 1.379 . S
C378 C375 1.363 . S
C378 N376 1.356 . S
C379 C373 1.363 . S
C379 C374 1.379 . S
C379 N377 1.356 . S
N380 C372 1.356 . S
N380 H386 0.984 . S
N380 H387 0.984 . S
N381 C374 1.356 . S
N381 H384 0.984 . S
N381 H385 0.985 . S
H382 N377 0.984 . S
H383 N377 0.985 . S
H384 N381 0.984 . S
H385 N381 0.985 . S
H386 N380 0.984 . S
H387 N380 0.984 . S
H388 N376 0.984 . S
H389 N376 0.985 . S
C390 C391 1.363 . S
C390 C396 1.379 . S
C390 N398 1.356 . S
C391 C390 1.363 . S
C391 C397 1.363 . S
C392 C393 1.363 . S
C392 C397 1.379 . S
C392 N399 1.356 . S
C393 C392 1.363 . S
C393 C396 1.363 . S
N394 C396 1.356 . S
N394 H406 0.984 . S
N394 H407 0.985 . S
N395 C397 1.356 . S
N395 H400 0.984 . S
N395 H401 0.985 . S
C396 C390 1.379 . S
C396 C393 1.363 . S
C396 N394 1.356 . S
C397 C391 1.363 . S
C397 C392 1.379 . S
C397 N395 1.356 . S
N398 C390 1.356 . S
N398 H404 0.984 . S
N398 H405 0.984 . S
N399 C392 1.356 . S
N399 H402 0.984 . S
N399 H403 0.985 . S
H400 N395 0.984 . S
H401 N395 0.985 . S
H402 N399 0.984 . S
H403 N399 0.985 . S
H404 N398 0.984 . S
H405 N398 0.984 . S
H406 N394 0.984 . S
H407 N394 0.985 . S
C408 C409 1.363 . S
C408 C414 1.379 . S
C408 N416 1.356 . S
C409 C408 1.363 . S
C409 C415 1.363 . S
C410 C411 1.363 . S
C410 C415 1.379 . S
C410 N417 1.356 . S
C411 C410 1.363 . S
C411 C414 1.363 . S
N412 C414 1.356 . S
N412 H424 0.984 . S
N412 H425 0.985 . S
N413 C415 1.356 . S
N413 H418 0.984 . S
N413 H419 0.985 . S
C414 C408 1.379 . S
C414 C411 1.363 . S
C414 N412 1.356 . S
C415 C409 1.363 . S
C415 C410 1.379 . S
C415 N413 1.356 . S
N416 C408 1.356 . S
N416 H422 0.984 . S
N416 H423 0.984 . S
N417 C410 1.356 . S
N417 H420 0.984 . S
N417 H421 0.985 . S
H418 N413 0.984 . S
H419 N413 0.985 . S
H420 N417 0.984 . S
H421 N417 0.985 . S
H422 N416 0.984 . S
H423 N416 0.984 . S
H424 N412 0.984 . S
H425 N412 0.985 . S
C426 C427 1.363 . S
C426 C432 1.379 . S
C426 N434 1.356 . S
C427 C426 1.363 . S
C427 C433 1.363 . S
C428 C429 1.363 . S
C428 C433 1.379 . S
C428 N435 1.356 . S
C429 C428 1.363 . S
C429 C432 1.363 . S
N430 C432 1.356 . S
N430 H442 0.984 . S
N430 H443 0.985 . S
N431 C433 1.356 . S
N431 H436 0.984 . S
N431 H437 0.985 . S
C432 C426 1.379 . S
C432 C429 1.363 . S
C432 N430 1.356 . S
C433 C427 1.363 . S
C433 C428 1.379 . S
C433 N431 1.356 . S
N434 C426 1.356 . S
N434 H440 0.984 . S
N434 H441 0.984 . S
N435 C428 1.356 . S
N435 H438 0.984 . S
N435 H439 0.985 . S
H436 N431 0.984 . S
H437 N431 0.985 . S
H438 N435 0.984 . S
H439 N435 0.985 . S
H440 N434 0.984 . S
H441 N434 0.984 . S
H442 N430 0.984 . S
H443 N430 0.985 . S
C444 C445 1.363 . S
C444 C450 1.379 . S
C444 N452 1.356 . S
C445 C444 1.363 . S
C445 C451 1.363 . S
C446 C447 1.363 . S
C446 C451 1.379 . S
C446 N453 1.356 . S
C447 C446 1.363 . S
C447 C450 1.363 . S
N448 C450 1.356 . S
N448 H460 0.984 . S
N448 H461 0.985 . S
N449 C451 1.356 . S
N449 H454 0.984 . S
N449 H455 0.985 . S
C450 C444 1.379 . S
C450 C447 1.363 . S
C450 N448 1.356 . S
C451 C445 1.363 . S
C451 C446 1.379 . S
C451 N449 1.356 . S
N452 C444 1.356 . S
N452 H458 0.984 . S
N452 H459 0.984 . S
N453 C446 1.356 . S
N453 H456 0.984 . S
N453 H457 0.985 . S
H454 N449 0.984 . S
H455 N449 0.985 . S
H456 N453 0.984 . S
H457 N453 0.985 . S
H458 N452 0.984 . S
H459 N452 0.984 . S
H460 N448 0.984 . S
H461 N448 0.985 . S
C462 C463 1.363 . S
C462 C468 1.379 . S
C462 N470 1.356 . S
C463 C462 1.363 . S
C463 C469 1.363 . S
C464 C465 1.363 . S
C464 C469 1.379 . S
C464 N471 1.356 . S
C465 C464 1.363 . S
C465 C468 1.363 . S
N466 C468 1.356 . S
N466 H478 0.984 . S
N466 H479 0.985 . S
N467 C469 1.356 . S
N467 H472 0.984 . S
N467 H473 0.985 . S
C468 C462 1.379 . S
C468 C465 1.363 . S
C468 N466 1.356 . S
C469 C463 1.363 . S
C469 C464 1.379 . S
C469 N467 1.356 . S
N470 C462 1.356 . S
N470 H476 0.984 . S
N470 H477 0.984 . S
N471 C464 1.356 . S
N471 H474 0.984 . S
N471 H475 0.985 . S
H472 N467 0.984 . S
H473 N467 0.985 . S
H474 N471 0.984 . S
H475 N471 0.985 . S
H476 N470 0.984 . S
H477 N470 0.984 . S
H478 N466 0.984 . S
H479 N466 0.985 . S
C480 C481 1.363 . S
C480 C486 1.379 . S
C480 N488 1.356 . S
C481 C480 1.363 . S
C481 C487 1.363 . S
C482 C483 1.363 . S
C482 C487 1.379 . S
C482 N489 1.356 . S
C483 C482 1.363 . S
C483 C486 1.363 . S
N484 C486 1.356 . S
N484 H496 0.984 . S
N484 H497 0.985 . S
N485 C487 1.356 . S
N485 H490 0.984 . S
N485 H491 0.985 . S
C486 C480 1.379 . S
C486 C483 1.363 . S
C486 N484 1.356 . S
C487 C481 1.363 . S
C487 C482 1.379 . S
C487 N485 1.356 . S
N488 C480 1.356 . S
N488 H494 0.984 . S
N488 H495 0.984 . S
N489 C482 1.356 . S
N489 H492 0.984 . S
N489 H493 0.985 . S
H490 N485 0.984 . S
H491 N485 0.985 . S
H492 N489 0.984 . S
H493 N489 0.985 . S
H494 N488 0.984 . S
H495 N488 0.984 . S
H496 N484 0.984 . S
H497 N484 0.985 . S
C498 C499 1.363 . S
C498 C504 1.379 . S
C498 N506 1.356 . S
C499 C498 1.363 . S
C499 C505 1.363 . S
C500 C501 1.363 . S
C500 C505 1.379 . S
C500 N507 1.356 . S
C501 C500 1.363 . S
C501 C504 1.363 . S
N502 C504 1.356 . S
N502 H514 0.984 . S
N502 H515 0.985 . S
N503 C505 1.356 . S
N503 H508 0.984 . S
N503 H509 0.985 . S
C504 C498 1.379 . S
C504 C501 1.363 . S
C504 N502 1.356 . S
C505 C499 1.363 . S
C505 C500 1.379 . S
C505 N503 1.356 . S
N506 C498 1.356 . S
N506 H512 0.984 . S
N506 H513 0.984 . S
N507 C500 1.356 . S
N507 H510 0.984 . S
N507 H511 0.985 . S
H508 N503 0.984 . S
H509 N503 0.985 . S
H510 N507 0.984 . S
H511 N507 0.985 . S
H512 N506 0.984 . S
H513 N506 0.984 . S
H514 N502 0.984 . S
H515 N502 0.985 . S
C516 C517 1.363 . S
C516 C522 1.379 . S
C516 N524 1.356 . S
C517 C516 1.363 . S
C517 C523 1.363 . S
C518 C519 1.363 . S
C518 C523 1.379 . S
C518 N525 1.356 . S
C519 C518 1.363 . S
C519 C522 1.363 . S
N520 C522 1.356 . S
N520 H532 0.984 . S
N520 H533 0.985 . S
N521 C523 1.356 . S
N521 H526 0.984 . S
N521 H527 0.985 . S
C522 C516 1.379 . S
C522 C519 1.363 . S
C522 N520 1.356 . S
C523 C517 1.363 . S
C523 C518 1.379 . S
C523 N521 1.356 . S
N524 C516 1.356 . S
N524 H530 0.984 . S
N524 H531 0.984 . S
N525 C518 1.356 . S
N525 H528 0.984 . S
N525 H529 0.985 . S
H526 N521 0.984 . S
H527 N521 0.985 . S
H528 N525 0.984 . S
H529 N525 0.985 . S
H530 N524 0.984 . S
H531 N524 0.984 . S
H532 N520 0.984 . S
H533 N520 0.985 . S
C534 C535 1.363 . S
C534 C540 1.379 . S
C534 N542 1.356 . S
C535 C534 1.363 . S
C535 C541 1.363 . S
C536 C537 1.363 . S
C536 C541 1.379 . S
C536 N543 1.356 . S
C537 C536 1.363 . S
C537 C540 1.363 . S
N538 C540 1.356 . S
N538 H550 0.984 . S
N538 H551 0.985 . S
N539 C541 1.356 . S
N539 H544 0.984 . S
N539 H545 0.985 . S
C540 C534 1.379 . S
C540 C537 1.363 . S
C540 N538 1.356 . S
C541 C535 1.363 . S
C541 C536 1.379 . S
C541 N539 1.356 . S
N542 C534 1.356 . S
N542 H548 0.984 . S
N542 H549 0.984 . S
N543 C536 1.356 . S
N543 H546 0.984 . S
N543 H547 0.985 . S
H544 N539 0.984 . S
H545 N539 0.985 . S
H546 N543 0.984 . S
H547 N543 0.985 . S
H548 N542 0.984 . S
H549 N542 0.984 . S
H550 N538 0.984 . S
H551 N538 0.985 . S
C552 C553 1.363 . S
C552 C558 1.379 . S
C552 N560 1.356 . S
C553 C552 1.363 . S
C553 C559 1.363 . S
C554 C555 1.363 . S
C554 C559 1.379 . S
C554 N561 1.356 . S
C555 C554 1.363 . S
C555 C558 1.363 . S
N556 C558 1.356 . S
N556 H568 0.984 . S
N556 H569 0.985 . S
N557 C559 1.356 . S
N557 H562 0.984 . S
N557 H563 0.985 . S
C558 C552 1.379 . S
C558 C555 1.363 . S
C558 N556 1.356 . S
C559 C553 1.363 . S
C559 C554 1.379 . S
C559 N557 1.356 . S
N560 C552 1.356 . S
N560 H566 0.984 . S
N560 H567 0.984 . S
N561 C554 1.356 . S
N561 H564 0.984 . S
N561 H565 0.985 . S
H562 N557 0.984 . S
H563 N557 0.985 . S
H564 N561 0.984 . S
H565 N561 0.985 . S
H566 N560 0.984 . S
H567 N560 0.984 . S
H568 N556 0.984 . S
H569 N556 0.985 . S
C570 C571 1.363 . S
C570 C576 1.379 . S
C570 N578 1.356 . S
C571 C570 1.363 . S
C571 C577 1.363 . S
C572 C573 1.363 . S
C572 C577 1.379 . S
C572 N579 1.356 . S
C573 C572 1.363 . S
C573 C576 1.363 . S
N574 C576 1.356 . S
N574 H586 0.984 . S
N574 H587 0.985 . S
N575 C577 1.356 . S
N575 H580 0.984 . S
N575 H581 0.985 . S
C576 C570 1.379 . S
C576 C573 1.363 . S
C576 N574 1.356 . S
C577 C571 1.363 . S
C577 C572 1.379 . S
C577 N575 1.356 . S
N578 C570 1.356 . S
N578 H584 0.984 . S
N578 H585 0.984 . S
N579 C572 1.356 . S
N579 H582 0.984 . S
N579 H583 0.985 . S
H580 N575 0.984 . S
H581 N575 0.985 . S
H582 N579 0.984 . S
H583 N579 0.985 . S
H584 N578 0.984 . S
H585 N578 0.984 . S
H586 N574 0.984 . S
H587 N574 0.985 . S
C588 C589 1.363 . S
C588 C594 1.379 . S
C588 N596 1.356 . S
C589 C588 1.363 . S
C589 C595 1.363 . S
C590 C591 1.363 . S
C590 C595 1.379 . S
C590 N597 1.356 . S
C591 C590 1.363 . S
C591 C594 1.363 . S
N592 C594 1.356 . S
N592 H604 0.984 . S
N592 H605 0.985 . S
N593 C595 1.356 . S
N593 H598 0.984 . S
N593 H599 0.985 . S
C594 C588 1.379 . S
C594 C591 1.363 . S
C594 N592 1.356 . S
C595 C589 1.363 . S
C595 C590 1.379 . S
C595 N593 1.356 . S
N596 C588 1.356 . S
N596 H602 0.984 . S
N596 H603 0.984 . S
N597 C590 1.356 . S
N597 H600 0.984 . S
N597 H601 0.985 . S
H598 N593 0.984 . S
H599 N593 0.985 . S
H600 N597 0.984 . S
H601 N597 0.985 . S
H602 N596 0.984 . S
H603 N596 0.984 . S
H604 N592 0.984 . S
H605 N592 0.985 . S
C606 C607 1.363 . S
C606 C612 1.379 . S
C606 N614 1.356 . S
C607 C606 1.363 . S
C607 C613 1.363 . S
C608 C609 1.363 . S
C608 C613 1.379 . S
C608 N615 1.356 . S
C609 C608 1.363 . S
C609 C612 1.363 . S
N610 C612 1.356 . S
N610 H622 0.984 . S
N610 H623 0.985 . S
N611 C613 1.356 . S
N611 H616 0.984 . S
N611 H617 0.985 . S
C612 C606 1.379 . S
C612 C609 1.363 . S
C612 N610 1.356 . S
C613 C607 1.363 . S
C613 C608 1.379 . S
C613 N611 1.356 . S
N614 C606 1.356 . S
N614 H620 0.984 . S
N614 H621 0.984 . S
N615 C608 1.356 . S
N615 H618 0.984 . S
N615 H619 0.985 . S
H616 N611 0.984 . S
H617 N611 0.985 . S
H618 N615 0.984 . S
H619 N615 0.985 . S
H620 N614 0.984 . S
H621 N614 0.984 . S
H622 N610 0.984 . S
H623 N610 0.985 . S
C624 C625 1.363 . S
C624 C630 1.379 . S
C624 N632 1.356 . S
C625 C624 1.363 . S
C625 C631 1.363 . S
C626 C627 1.363 . S
C626 C631 1.379 . S
C626 N633 1.356 . S
C627 C626 1.363 . S
C627 C630 1.363 . S
N628 C630 1.356 . S
N628 H640 0.984 . S
N628 H641 0.985 . S
N629 C631 1.356 . S
N629 H634 0.984 . S
N629 H635 0.985 . S
C630 C624 1.379 . S
C630 C627 1.363 . S
C630 N628 1.356 . S
C631 C625 1.363 . S
C631 C626 1.379 . S
C631 N629 1.356 . S
N632 C624 1.356 . S
N632 H638 0.984 . S
N632 H639 0.984 . S
N633 C626 1.356 . S
N633 H636 0.984 . S
N633 H637 0.985 . S
H634 N629 0.984 . S
H635 N629 0.985 . S
H636 N633 0.984 . S
H637 N633 0.985 . S
H638 N632 0.984 . S
H639 N632 0.984 . S
H640 N628 0.984 . S
H641 N628 0.985 . S
C642 C643 1.363 . S
C642 C648 1.379 . S
C642 N650 1.356 . S
C643 C642 1.363 . S
C643 C649 1.363 . S
C644 C645 1.363 . S
C644 C649 1.379 . S
C644 N651 1.356 . S
C645 C644 1.363 . S
C645 C648 1.363 . S
N646 C648 1.356 . S
N646 H658 0.984 . S
N646 H659 0.985 . S
N647 C649 1.356 . S
N647 H652 0.984 . S
N647 H653 0.985 . S
C648 C642 1.379 . S
C648 C645 1.363 . S
C648 N646 1.356 . S
C649 C643 1.363 . S
C649 C644 1.379 . S
C649 N647 1.356 . S
N650 C642 1.356 . S
N650 H656 0.984 . S
N650 H657 0.984 . S
N651 C644 1.356 . S
N651 H654 0.984 . S
N651 H655 0.985 . S
H652 N647 0.984 . S
H653 N647 0.985 . S
H654 N651 0.984 . S
H655 N651 0.985 . S
H656 N650 0.984 . S
H657 N650 0.984 . S
H658 N646 0.984 . S
H659 N646 0.985 . S
C660 C661 1.363 . S
C660 C666 1.379 . S
C660 N668 1.356 . S
C661 C660 1.363 . S
C661 C667 1.363 . S
C662 C663 1.363 . S
C662 C667 1.379 . S
C662 N669 1.356 . S
C663 C662 1.363 . S
C663 C666 1.363 . S
N664 C666 1.356 . S
N664 H676 0.984 . S
N664 H677 0.985 . S
N665 C667 1.356 . S
N665 H670 0.984 . S
N665 H671 0.985 . S
C666 C660 1.379 . S
C666 C663 1.363 . S
C666 N664 1.356 . S
C667 C661 1.363 . S
C667 C662 1.379 . S
C667 N665 1.356 . S
N668 C660 1.356 . S
N668 H674 0.984 . S
N668 H675 0.984 . S
N669 C662 1.356 . S
N669 H672 0.984 . S
N669 H673 0.985 . S
H670 N665 0.984 . S
H671 N665 0.985 . S
H672 N669 0.984 . S
H673 N669 0.985 . S
H674 N668 0.984 . S
H675 N668 0.984 . S
H676 N664 0.984 . S
H677 N664 0.985 . S
C678 C679 1.363 . S
C678 C684 1.379 . S
C678 N686 1.356 . S
C679 C678 1.363 . S
C679 C685 1.363 . S
C680 C681 1.363 . S
C680 C685 1.379 . S
C680 N687 1.356 . S
C681 C680 1.363 . S
C681 C684 1.363 . S
N682 C684 1.356 . S
N682 H694 0.984 . S
N682 H695 0.985 . S
N683 C685 1.356 . S
N683 H688 0.984 . S
N683 H689 0.985 . S
C684 C678 1.379 . S
C684 C681 1.363 . S
C684 N682 1.356 . S
C685 C679 1.363 . S
C685 C680 1.379 . S
C685 N683 1.356 . S
N686 C678 1.356 . S
N686 H692 0.984 . S
N686 H693 0.984 . S
N687 C680 1.356 . S
N687 H690 0.984 . S
N687 H691 0.985 . S
H688 N683 0.984 . S
H689 N683 0.985 . S
H690 N687 0.984 . S
H691 N687 0.985 . S
H692 N686 0.984 . S
H693 N686 0.984 . S
H694 N682 0.984 . S
H695 N682 0.985 . S
C696 C697 1.363 . S
C696 C702 1.379 . S
C696 N704 1.356 . S
C697 C696 1.363 . S
C697 C703 1.363 . S
C698 C699 1.363 . S
C698 C703 1.379 . S
C698 N705 1.356 . S
C699 C698 1.363 . S
C699 C702 1.363 . S
N700 C702 1.356 . S
N700 H712 0.984 . S
N700 H713 0.985 . S
N701 C703 1.356 . S
N701 H706 0.984 . S
N701 H707 0.985 . S
C702 C696 1.379 . S
C702 C699 1.363 . S
C702 N700 1.356 . S
C703 C697 1.363 . S
C703 C698 1.379 . S
C703 N701 1.356 . S
N704 C696 1.356 . S
N704 H710 0.984 . S
N704 H711 0.984 . S
N705 C698 1.356 . S
N705 H708 0.984 . S
N705 H709 0.985 . S
H706 N701 0.984 . S
H707 N701 0.985 . S
H708 N705 0.984 . S
H709 N705 0.985 . S
H710 N704 0.984 . S
H711 N704 0.984 . S
H712 N700 0.984 . S
H713 N700 0.985 . S
C714 C715 1.363 . S
C714 C720 1.379 . S
C714 N722 1.356 . S
C715 C714 1.363 . S
C715 C721 1.363 . S
C716 C717 1.363 . S
C716 C721 1.379 . S
C716 N723 1.356 . S
C717 C716 1.363 . S
C717 C720 1.363 . S
N718 C720 1.356 . S
N718 H730 0.984 . S
N718 H731 0.985 . S
N719 C721 1.356 . S
N719 H724 0.984 . S
N719 H725 0.985 . S
C720 C714 1.379 . S
C720 C717 1.363 . S
C720 N718 1.356 . S
C721 C715 1.363 . S
C721 C716 1.379 . S
C721 N719 1.356 . S
N722 C714 1.356 . S
N722 H728 0.984 . S
N722 H729 0.984 . S
N723 C716 1.356 . S
N723 H726 0.984 . S
N723 H727 0.985 . S
H724 N719 0.984 . S
H725 N719 0.985 . S
H726 N723 0.984 . S
H727 N723 0.985 . S
H728 N722 0.984 . S
H729 N722 0.984 . S
H730 N718 0.984 . S
H731 N718 0.985 . S
C732 C733 1.363 . S
C732 C738 1.379 . S
C732 N740 1.356 . S
C733 C732 1.363 . S
C733 C739 1.363 . S
C734 C735 1.363 . S
C734 C739 1.379 . S
C734 N741 1.356 . S
C735 C734 1.363 . S
C735 C738 1.363 . S
N736 C738 1.356 . S
N736 H748 0.984 . S
N736 H749 0.985 . S
N737 C739 1.356 . S
N737 H742 0.984 . S
N737 H743 0.985 . S
C738 C732 1.379 . S
C738 C735 1.363 . S
C738 N736 1.356 . S
C739 C733 1.363 . S
C739 C734 1.379 . S
C739 N737 1.356 . S
N740 C732 1.356 . S
N740 H746 0.984 . S
N740 H747 0.984 . S
N741 C734 1.356 . S
N741 H744 0.984 . S
N741 H745 0.985 . S
H742 N737 0.984 . S
H743 N737 0.985 . S
H744 N741 0.984 . S
H745 N741 0.985 . S
H746 N740 0.984 . S
H747 N740 0.984 . S
H748 N736 0.984 . S
H749 N736 0.985 . S
C750 C751 1.363 . S
C750 C756 1.379 . S
C750 N758 1.356 . S
C751 C750 1.363 . S
C751 C757 1.363 . S
C752 C753 1.363 . S
C752 C757 1.379 . S
C752 N759 1.356 . S
C753 C752 1.363 . S
C753 C756 1.363 . S
N754 C756 1.356 . S
N754 H766 0.984 . S
N754 H767 0.985 . S
N755 C757 1.356 . S
N755 H760 0.984 . S
N755 H761 0.985 . S
C756 C750 1.379 . S
C756 C753 1.363 . S
C756 N754 1.356 . S
C757 C751 1.363 . S
C757 C752 1.379 . S
C757 N755 1.356 . S
N758 C750 1.356 . S
N758 H764 0.984 . S
N758 H765 0.984 . S
N759 C752 1.356 . S
N759 H762 0.984 . S
N759 H763 0.985 . S
H760 N755 0.984 . S
H761 N755 0.985 . S
H762 N759 0.984 . S
H763 N759 0.985 . S
H764 N758 0.984 . S
H765 N758 0.984 . S
H766 N754 0.984 . S
H767 N754 0.985 . S
C768 C769 1.363 . S
C768 C774 1.379 . S
C768 N776 1.356 . S
C769 C768 1.363 . S
C769 C775 1.363 . S
C770 C771 1.363 . S
C770 C775 1.379 . S
C770 N777 1.356 . S
C771 C770 1.363 . S
C771 C774 1.363 . S
N772 C774 1.356 . S
N772 H784 0.984 . S
N772 H785 0.985 . S
N773 C775 1.356 . S
N773 H778 0.984 . S
N773 H779 0.985 . S
C774 C768 1.379 . S
C774 C771 1.363 . S
C774 N772 1.356 . S
C775 C769 1.363 . S
C775 C770 1.379 . S
C775 N773 1.356 . S
N776 C768 1.356 . S
N776 H782 0.984 . S
N776 H783 0.984 . S
N777 C770 1.356 . S
N777 H780 0.984 . S
N777 H781 0.985 . S
H778 N773 0.984 . S
H779 N773 0.985 . S
H780 N777 0.984 . S
H781 N777 0.985 . S
H782 N776 0.984 . S
H783 N776 0.984 . S
H784 N772 0.984 . S
H785 N772 0.985 . S
C786 C787 1.363 . S
C786 C792 1.379 . S
C786 N794 1.356 . S
C787 C786 1.363 . S
C787 C793 1.363 . S
C788 C789 1.363 . S
C788 C793 1.379 . S
C788 N795 1.356 . S
C789 C788 1.363 . S
C789 C792 1.363 . S
N790 C792 1.356 . S
N790 H802 0.984 . S
N790 H803 0.985 . S
N791 C793 1.356 . S
N791 H796 0.984 . S
N791 H797 0.985 . S
C792 C786 1.379 . S
C792 C789 1.363 . S
C792 N790 1.356 . S
C793 C787 1.363 . S
C793 C788 1.379 . S
C793 N791 1.356 . S
N794 C786 1.356 . S
N794 H800 0.984 . S
N794 H801 0.984 . S
N795 C788 1.356 . S
N795 H798 0.984 . S
N795 H799 0.985 . S
H796 N791 0.984 . S
H797 N791 0.985 . S
H798 N795 0.984 . S
H799 N795 0.985 . S
H800 N794 0.984 . S
H801 N794 0.984 . S
H802 N790 0.984 . S
H803 N790 0.985 . S
C804 C805 1.363 . S
C804 C810 1.379 . S
C804 N812 1.356 . S
C805 C804 1.363 . S
C805 C811 1.363 . S
C806 C807 1.363 . S
C806 C811 1.379 . S
C806 N813 1.356 . S
C807 C806 1.363 . S
C807 C810 1.363 . S
N808 C810 1.356 . S
N808 H820 0.984 . S
N808 H821 0.985 . S
N809 C811 1.356 . S
N809 H814 0.984 . S
N809 H815 0.985 . S
C810 C804 1.379 . S
C810 C807 1.363 . S
C810 N808 1.356 . S
C811 C805 1.363 . S
C811 C806 1.379 . S
C811 N809 1.356 . S
N812 C804 1.356 . S
N812 H818 0.984 . S
N812 H819 0.984 . S
N813 C806 1.356 . S
N813 H816 0.984 . S
N813 H817 0.985 . S
H814 N809 0.984 . S
H815 N809 0.985 . S
H816 N813 0.984 . S
H817 N813 0.985 . S
H818 N812 0.984 . S
H819 N812 0.984 . S
H820 N808 0.984 . S
H821 N808 0.985 . S
C822 C823 1.363 . S
C822 C828 1.379 . S
C822 N830 1.356 . S
C823 C822 1.363 . S
C823 C829 1.363 . S
C824 C825 1.363 . S
C824 C829 1.379 . S
C824 N831 1.356 . S
C825 C824 1.363 . S
C825 C828 1.363 . S
N826 C828 1.356 . S
N826 H838 0.984 . S
N826 H839 0.985 . S
N827 C829 1.356 . S
N827 H832 0.984 . S
N827 H833 0.985 . S
C828 C822 1.379 . S
C828 C825 1.363 . S
C828 N826 1.356 . S
C829 C823 1.363 . S
C829 C824 1.379 . S
C829 N827 1.356 . S
N830 C822 1.356 . S
N830 H836 0.984 . S
N830 H837 0.984 . S
N831 C824 1.356 . S
N831 H834 0.984 . S
N831 H835 0.985 . S
H832 N827 0.984 . S
H833 N827 0.985 . S
H834 N831 0.984 . S
H835 N831 0.985 . S
H836 N830 0.984 . S
H837 N830 0.984 . S
H838 N826 0.984 . S
H839 N826 0.985 . S
C840 C841 1.363 . S
C840 C846 1.379 . S
C840 N848 1.356 . S
C841 C840 1.363 . S
C841 C847 1.363 . S
C842 C843 1.363 . S
C842 C847 1.379 . S
C842 N849 1.356 . S
C843 C842 1.363 . S
C843 C846 1.363 . S
N844 C846 1.356 . S
N844 H856 0.984 . S
N844 H857 0.985 . S
N845 C847 1.356 . S
N845 H850 0.984 . S
N845 H851 0.985 . S
C846 C840 1.379 . S
C846 C843 1.363 . S
C846 N844 1.356 . S
C847 C841 1.363 . S
C847 C842 1.379 . S
C847 N845 1.356 . S
N848 C840 1.356 . S
N848 H854 0.984 . S
N848 H855 0.984 . S
N849 C842 1.356 . S
N849 H852 0.984 . S
N849 H853 0.985 . S
H850 N845 0.984 . S
H851 N845 0.985 . S
H852 N849 0.984 . S
H853 N849 0.985 . S
H854 N848 0.984 . S
H855 N848 0.984 . S
H856 N844 0.984 . S
H857 N844 0.985 . S
C858 C859 1.363 . S
C858 C864 1.379 . S
C858 N866 1.356 . S
C859 C858 1.363 . S
C859 C865 1.363 . S
C860 C861 1.363 . S
C860 C865 1.379 . S
C860 N867 1.356 . S
C861 C860 1.363 . S
C861 C864 1.363 . S
N862 C864 1.356 . S
N862 H874 0.984 . S
N862 H875 0.985 . S
N863 C865 1.356 . S
N863 H868 0.984 . S
N863 H869 0.985 . S
C864 C858 1.379 . S
C864 C861 1.363 . S
C864 N862 1.356 . S
C865 C859 1.363 . S
C865 C860 1.379 . S
C865 N863 1.356 . S
N866 C858 1.356 . S
N866 H872 0.984 . S
N866 H873 0.984 . S
N867 C860 1.356 . S
N867 H870 0.984 . S
N867 H871 0.985 . S
H868 N863 0.984 . S
H869 N863 0.985 . S
H870 N867 0.984 . S
H871 N867 0.985 . S
H872 N866 0.984 . S
H873 N866 0.984 . S
H874 N862 0.984 . S
H875 N862 0.985 . S
C876 C877 1.363 . S
C876 C882 1.379 . S
C876 N884 1.356 . S
C877 C876 1.363 . S
C877 C883 1.363 . S
C878 C879 1.363 . S
C878 C883 1.379 . S
C878 N885 1.356 . S
C879 C878 1.363 . S
C879 C882 1.363 . S
N880 C882 1.356 . S
N880 H892 0.984 . S
N880 H893 0.985 . S
N881 C883 1.356 . S
N881 H886 0.984 . S
N881 H887 0.985 . S
C882 C876 1.379 . S
C882 C879 1.363 . S
C882 N880 1.356 . S
C883 C877 1.363 . S
C883 C878 1.379 . S
C883 N881 1.356 . S
N884 C876 1.356 . S
N884 H890 0.984 . S
N884 H891 0.984 . S
N885 C878 1.356 . S
N885 H888 0.984 . S
N885 H889 0.985 . S
H886 N881 0.984 . S
H887 N881 0.985 . S
H888 N885 0.984 . S
H889 N885 0.985 . S
H890 N884 0.984 . S
H891 N884 0.984 . S
H892 N880 0.984 . S
H893 N880 0.985 . S
C894 C895 1.363 . S
C894 C900 1.379 . S
C894 N902 1.356 . S
C895 C894 1.363 . S
C895 C901 1.363 . S
C896 C897 1.363 . S
C896 C901 1.379 . S
C896 N903 1.356 . S
C897 C896 1.363 . S
C897 C900 1.363 . S
N898 C900 1.356 . S
N898 H910 0.984 . S
N898 H911 0.985 . S
N899 C901 1.356 . S
N899 H904 0.984 . S
N899 H905 0.985 . S
C900 C894 1.379 . S
C900 C897 1.363 . S
C900 N898 1.356 . S
C901 C895 1.363 . S
C901 C896 1.379 . S
C901 N899 1.356 . S
N902 C894 1.356 . S
N902 H908 0.984 . S
N902 H909 0.984 . S
N903 C896 1.356 . S
N903 H906 0.984 . S
N903 H907 0.985 . S
H904 N899 0.984 . S
H905 N899 0.985 . S
H906 N903 0.984 . S
H907 N903 0.985 . S
H908 N902 0.984 . S
H909 N902 0.984 . S
H910 N898 0.984 . S
H911 N898 0.985 . S
C912 C913 1.363 . S
C912 C918 1.379 . S
C912 N920 1.356 . S
C913 C912 1.363 . S
C913 C919 1.363 . S
C914 C915 1.363 . S
C914 C919 1.379 . S
C914 N921 1.356 . S
C915 C914 1.363 . S
C915 C918 1.363 . S
N916 C918 1.356 . S
N916 H928 0.984 . S
N916 H929 0.985 . S
N917 C919 1.356 . S
N917 H922 0.984 . S
N917 H923 0.985 . S
C918 C912 1.379 . S
C918 C915 1.363 . S
C918 N916 1.356 . S
C919 C913 1.363 . S
C919 C914 1.379 . S
C919 N917 1.356 . S
N920 C912 1.356 . S
N920 H926 0.984 . S
N920 H927 0.984 . S
N921 C914 1.356 . S
N921 H924 0.984 . S
N921 H925 0.985 . S
H922 N917 0.984 . S
H923 N917 0.985 . S
H924 N921 0.984 . S
H925 N921 0.985 . S
H926 N920 0.984 . S
H927 N920 0.984 . S
H928 N916 0.984 . S
H929 N916 0.985 . S
C930 C931 1.363 . S
C930 C936 1.379 . S
C930 N938 1.356 . S
C931 C930 1.363 . S
C931 C937 1.363 . S
C932 C933 1.363 . S
C932 C937 1.379 . S
C932 N939 1.356 . S
C933 C932 1.363 . S
C933 C936 1.363 . S
N934 C936 1.356 . S
N934 H946 0.984 . S
N934 H947 0.985 . S
N935 C937 1.356 . S
N935 H940 0.984 . S
N935 H941 0.985 . S
C936 C930 1.379 . S
C936 C933 1.363 . S
C936 N934 1.356 . S
C937 C931 1.363 . S
C937 C932 1.379 . S
C937 N935 1.356 . S
N938 C930 1.356 . S
N938 H944 0.984 . S
N938 H945 0.984 . S
N939 C932 1.356 . S
N939 H942 0.984 . S
N939 H943 0.985 . S
H940 N935 0.984 . S
H941 N935 0.985 . S
H942 N939 0.984 . S
H943 N939 0.985 . S
H944 N938 0.984 . S
H945 N938 0.984 . S
H946 N934 0.984 . S
H947 N934 0.985 . S
C948 C949 1.363 . S
C948 C954 1.379 . S
C948 N956 1.356 . S
C949 C948 1.363 . S
C949 C955 1.363 . S
C950 C951 1.363 . S
C950 C955 1.379 . S
C950 N957 1.356 . S
C951 C950 1.363 . S
C951 C954 1.363 . S
N952 C954 1.356 . S
N952 H964 0.984 . S
N952 H965 0.985 . S
N953 C955 1.356 . S
N953 H958 0.984 . S
N953 H959 0.985 . S
C954 C948 1.379 . S
C954 C951 1.363 . S
C954 N952 1.356 . S
C955 C949 1.363 . S
C955 C950 1.379 . S
C955 N953 1.356 . S
N956 C948 1.356 . S
N956 H962 0.984 . S
N956 H963 0.984 . S
N957 C950 1.356 . S
N957 H960 0.984 . S
N957 H961 0.985 . S
H958 N953 0.984 . S
H959 N953 0.985 . S
H960 N957 0.984 . S
H961 N957 0.985 . S
H962 N956 0.984 . S
H963 N956 0.984 . S
H964 N952 0.984 . S
H965 N952 0.985 . S
C966 C967 1.363 . S
C966 C972 1.379 . S
C966 N974 1.356 . S
C967 C966 1.363 . S
C967 C973 1.363 . S
C968 C969 1.363 . S
C968 C973 1.379 . S
C968 N975 1.356 . S
C969 C968 1.363 . S
C969 C972 1.363 . S
N970 C972 1.356 . S
N970 H982 0.984 . S
N970 H983 0.985 . S
N971 C973 1.356 . S
N971 H976 0.984 . S
N971 H977 0.985 . S
C972 C966 1.379 . S
C972 C969 1.363 . S
C972 N970 1.356 . S
C973 C967 1.363 . S
C973 C968 1.379 . S
C973 N971 1.356 . S
N974 C966 1.356 . S
N974 H980 0.984 . S
N974 H981 0.984 . S
N975 C968 1.356 . S
N975 H978 0.984 . S
N975 H979 0.985 . S
H976 N971 0.984 . S
H977 N971 0.985 . S
H978 N975 0.984 . S
H979 N975 0.985 . S
H980 N974 0.984 . S
H981 N974 0.984 . S
H982 N970 0.984 . S
H983 N970 0.985 . S
C984 C985 1.363 . S
C984 C990 1.379 . S
C984 N992 1.356 . S
C985 C984 1.363 . S
C985 C991 1.363 . S
C986 C987 1.363 . S
C986 C991 1.379 . S
C986 N993 1.356 . S
C987 C986 1.363 . S
C987 C990 1.363 . S
N988 C990 1.356 . S
N988 H1000 0.984 . S
N988 H1001 0.985 . S
N989 C991 1.356 . S
N989 H994 0.984 . S
N989 H995 0.985 . S
C990 C984 1.379 . S
C990 C987 1.363 . S
C990 N988 1.356 . S
C991 C985 1.363 . S
C991 C986 1.379 . S
C991 N989 1.356 . S
N992 C984 1.356 . S
N992 H998 0.984 . S
N992 H999 0.984 . S
N993 C986 1.356 . S
N993 H996 0.984 . S
N993 H997 0.985 . S
H994 N989 0.984 . S
H995 N989 0.985 . S
H996 N993 0.984 . S
H997 N993 0.985 . S
H998 N992 0.984 . S
H999 N992 0.984 . S
H1000 N988 0.984 . S
H1001 N988 0.985 . S
C1002 C1003 1.363 . S
C1002 C1008 1.379 . S
C1002 N1010 1.356 . S
C1003 C1002 1.363 . S
C1003 C1009 1.363 . S
C1004 C1005 1.363 . S
C1004 C1009 1.379 . S
C1004 N1011 1.356 . S
C1005 C1004 1.363 . S
C1005 C1008 1.363 . S
N1006 C1008 1.356 . S
N1006 H1018 0.984 . S
N1006 H1019 0.985 . S
N1007 C1009 1.356 . S
N1007 H1012 0.984 . S
N1007 H1013 0.985 . S
C1008 C1002 1.379 . S
C1008 C1005 1.363 . S
C1008 N1006 1.356 . S
C1009 C1003 1.363 . S
C1009 C1004 1.379 . S
C1009 N1007 1.356 . S
N1010 C1002 1.356 . S
N1010 H1016 0.984 . S
N1010 H1017 0.984 . S
N1011 C1004 1.356 . S
N1011 H1014 0.984 . S
N1011 H1015 0.985 . S
H1012 N1007 0.984 . S
H1013 N1007 0.985 . S
H1014 N1011 0.984 . S
H1015 N1011 0.985 . S
H1016 N1010 0.984 . S
H1017 N1010 0.984 . S
H1018 N1006 0.984 . S
H1019 N1006 0.985 . S
C1020 C1021 1.363 . S
C1020 C1026 1.379 . S
C1020 N1028 1.356 . S
C1021 C1020 1.363 . S
C1021 C1027 1.363 . S
C1022 C1023 1.363 . S
C1022 C1027 1.379 . S
C1022 N1029 1.356 . S
C1023 C1022 1.363 . S
C1023 C1026 1.363 . S
N1024 C1026 1.356 . S
N1024 H1036 0.984 . S
N1024 H1037 0.985 . S
N1025 C1027 1.356 . S
N1025 H1030 0.984 . S
N1025 H1031 0.985 . S
C1026 C1020 1.379 . S
C1026 C1023 1.363 . S
C1026 N1024 1.356 . S
C1027 C1021 1.363 . S
C1027 C1022 1.379 . S
C1027 N1025 1.356 . S
N1028 C1020 1.356 . S
N1028 H1034 0.984 . S
N1028 H1035 0.984 . S
N1029 C1022 1.356 . S
N1029 H1032 0.984 . S
N1029 H1033 0.985 . S
H1030 N1025 0.984 . S
H1031 N1025 0.985 . S
H1032 N1029 0.984 . S
H1033 N1029 0.985 . S
H1034 N1028 0.984 . S
H1035 N1028 0.984 . S
H1036 N1024 0.984 . S
H1037 N1024 0.985 . S
C1038 C1039 1.363 . S
C1038 C1044 1.379 . S
C1038 N1046 1.356 . S
C1039 C1038 1.363 . S
C1039 C1045 1.363 . S
C1040 C1041 1.363 . S
C1040 C1045 1.379 . S
C1040 N1047 1.356 . S
C1041 C1040 1.363 . S
C1041 C1044 1.363 . S
N1042 C1044 1.356 . S
N1042 H1054 0.984 . S
N1042 H1055 0.985 . S
N1043 C1045 1.356 . S
N1043 H1048 0.984 . S
N1043 H1049 0.985 . S
C1044 C1038 1.379 . S
C1044 C1041 1.363 . S
C1044 N1042 1.356 . S
C1045 C1039 1.363 . S
C1045 C1040 1.379 . S
C1045 N1043 1.356 . S
N1046 C1038 1.356 . S
N1046 H1052 0.984 . S
N1046 H1053 0.984 . S
N1047 C1040 1.356 . S
N1047 H1050 0.984 . S
N1047 H1051 0.985 . S
H1048 N1043 0.984 . S
H1049 N1043 0.985 . S
H1050 N1047 0.984 . S
H1051 N1047 0.985 . S
H1052 N1046 0.984 . S
H1053 N1046 0.984 . S
H1054 N1042 0.984 . S
H1055 N1042 0.985 . S
C1056 C1057 1.363 . S
C1056 C1062 1.379 . S
C1056 N1064 1.356 . S
C1057 C1056 1.363 . S
C1057 C1063 1.363 . S
C1058 C1059 1.363 . S
C1058 C1063 1.379 . S
C1058 N1065 1.356 . S
C1059 C1058 1.363 . S
C1059 C1062 1.363 . S
N1060 C1062 1.356 . S
N1060 H1072 0.984 . S
N1060 H1073 0.985 . S
N1061 C1063 1.356 . S
N1061 H1066 0.984 . S
N1061 H1067 0.985 . S
C1062 C1056 1.379 . S
C1062 C1059 1.363 . S
C1062 N1060 1.356 . S
C1063 C1057 1.363 . S
C1063 C1058 1.379 . S
C1063 N1061 1.356 . S
N1064 C1056 1.356 . S
N1064 H1070 0.984 . S
N1064 H1071 0.984 . S
N1065 C1058 1.356 . S
N1065 H1068 0.984 . S
N1065 H1069 0.985 . S
H1066 N1061 0.984 . S
H1067 N1061 0.985 . S
H1068 N1065 0.984 . S
H1069 N1065 0.985 . S
H1070 N1064 0.984 . S
H1071 N1064 0.984 . S
H1072 N1060 0.984 . S
H1073 N1060 0.985 . S
C1074 C1075 1.363 . S
C1074 C1080 1.379 . S
C1074 N1082 1.356 . S
C1075 C1074 1.363 . S
C1075 C1081 1.363 . S
C1076 C1077 1.363 . S
C1076 C1081 1.379 . S
C1076 N1083 1.356 . S
C1077 C1076 1.363 . S
C1077 C1080 1.363 . S
N1078 C1080 1.356 . S
N1078 H1090 0.984 . S
N1078 H1091 0.985 . S
N1079 C1081 1.356 . S
N1079 H1084 0.984 . S
N1079 H1085 0.985 . S
C1080 C1074 1.379 . S
C1080 C1077 1.363 . S
C1080 N1078 1.356 . S
C1081 C1075 1.363 . S
C1081 C1076 1.379 . S
C1081 N1079 1.356 . S
N1082 C1074 1.356 . S
N1082 H1088 0.984 . S
N1082 H1089 0.984 . S
N1083 C1076 1.356 . S
N1083 H1086 0.984 . S
N1083 H1087 0.985 . S
H1084 N1079 0.984 . S
H1085 N1079 0.985 . S
H1086 N1083 0.984 . S
H1087 N1083 0.985 . S
H1088 N1082 0.984 . S
H1089 N1082 0.984 . S
H1090 N1078 0.984 . S
H1091 N1078 0.985 . S
C1092 C1093 1.363 . S
C1092 C1098 1.379 . S
C1092 N1100 1.356 . S
C1093 C1092 1.363 . S
C1093 C1099 1.363 . S
C1094 C1095 1.363 . S
C1094 C1099 1.379 . S
C1094 N1101 1.356 . S
C1095 C1094 1.363 . S
C1095 C1098 1.363 . S
N1096 C1098 1.356 . S
N1096 H1108 0.984 . S
N1096 H1109 0.985 . S
N1097 C1099 1.356 . S
N1097 H1102 0.984 . S
N1097 H1103 0.985 . S
C1098 C1092 1.379 . S
C1098 C1095 1.363 . S
C1098 N1096 1.356 . S
C1099 C1093 1.363 . S
C1099 C1094 1.379 . S
C1099 N1097 1.356 . S
N1100 C1092 1.356 . S
N1100 H1106 0.984 . S
N1100 H1107 0.984 . S
N1101 C1094 1.356 . S
N1101 H1104 0.984 . S
N1101 H1105 0.985 . S
H1102 N1097 0.984 . S
H1103 N1097 0.985 . S
H1104 N1101 0.984 . S
H1105 N1101 0.985 . S
H1106 N1100 0.984 . S
H1107 N1100 0.984 . S
H1108 N1096 0.984 . S
H1109 N1096 0.985 . S
C1110 C1111 1.363 . S
C1110 C1116 1.379 . S
C1110 N1118 1.356 . S
C1111 C1110 1.363 . S
C1111 C1117 1.363 . S
C1112 C1113 1.363 . S
C1112 C1117 1.379 . S
C1112 N1119 1.356 . S
C1113 C1112 1.363 . S
C1113 C1116 1.363 . S
N1114 C1116 1.356 . S
N1114 H1126 0.984 . S
N1114 H1127 0.985 . S
N1115 C1117 1.356 . S
N1115 H1120 0.984 . S
N1115 H1121 0.985 . S
C1116 C1110 1.379 . S
C1116 C1113 1.363 . S
C1116 N1114 1.356 . S
C1117 C1111 1.363 . S
C1117 C1112 1.379 . S
C1117 N1115 1.356 . S
N1118 C1110 1.356 . S
N1118 H1124 0.984 . S
N1118 H1125 0.984 . S
N1119 C1112 1.356 . S
N1119 H1122 0.984 . S
N1119 H1123 0.985 . S
H1120 N1115 0.984 . S
H1121 N1115 0.985 . S
H1122 N1119 0.984 . S
H1123 N1119 0.985 . S
H1124 N1118 0.984 . S
H1125 N1118 0.984 . S
H1126 N1114 0.984 . S
H1127 N1114 0.985 . S
C1128 C1129 1.363 . S
C1128 C1134 1.379 . S
C1128 N1136 1.356 . S
C1129 C1128 1.363 . S
C1129 C1135 1.363 . S
C1130 C1131 1.363 . S
C1130 C1135 1.379 . S
C1130 N1137 1.356 . S
C1131 C1130 1.363 . S
C1131 C1134 1.363 . S
N1132 C1134 1.356 . S
N1132 H1144 0.984 . S
N1132 H1145 0.985 . S
N1133 C1135 1.356 . S
N1133 H1138 0.984 . S
N1133 H1139 0.985 . S
C1134 C1128 1.379 . S
C1134 C1131 1.363 . S
C1134 N1132 1.356 . S
C1135 C1129 1.363 . S
C1135 C1130 1.379 . S
C1135 N1133 1.356 . S
N1136 C1128 1.356 . S
N1136 H1142 0.984 . S
N1136 H1143 0.984 . S
N1137 C1130 1.356 . S
N1137 H1140 0.984 . S
N1137 H1141 0.985 . S
H1138 N1133 0.984 . S
H1139 N1133 0.985 . S
H1140 N1137 0.984 . S
H1141 N1137 0.985 . S
H1142 N1136 0.984 . S
H1143 N1136 0.984 . S
H1144 N1132 0.984 . S
H1145 N1132 0.985 . S
C1146 C1147 1.363 . S
C1146 C1152 1.379 . S
C1146 N1154 1.356 . S
C1147 C1146 1.363 . S
C1147 C1153 1.363 . S
C1148 C1149 1.363 . S
C1148 C1153 1.379 . S
C1148 N1155 1.356 . S
C1149 C1148 1.363 . S
C1149 C1152 1.363 . S
N1150 C1152 1.356 . S
N1150 H1162 0.984 . S
N1150 H1163 0.985 . S
N1151 C1153 1.356 . S
N1151 H1156 0.984 . S
N1151 H1157 0.985 . S
C1152 C1146 1.379 . S
C1152 C1149 1.363 . S
C1152 N1150 1.356 . S
C1153 C1147 1.363 . S
C1153 C1148 1.379 . S
C1153 N1151 1.356 . S
N1154 C1146 1.356 . S
N1154 H1160 0.984 . S
N1154 H1161 0.984 . S
N1155 C1148 1.356 . S
N1155 H1158 0.984 . S
N1155 H1159 0.985 . S
H1156 N1151 0.984 . S
H1157 N1151 0.985 . S
H1158 N1155 0.984 . S
H1159 N1155 0.985 . S
H1160 N1154 0.984 . S
H1161 N1154 0.984 . S
H1162 N1150 0.984 . S
H1163 N1150 0.985 . S
C1164 C1165 1.363 . S
C1164 C1170 1.379 . S
C1164 N1172 1.356 . S
C1165 C1164 1.363 . S
C1165 C1171 1.363 . S
C1166 C1167 1.363 . S
C1166 C1171 1.379 . S
C1166 N1173 1.356 . S
C1167 C1166 1.363 . S
C1167 C1170 1.363 . S
N1168 C1170 1.356 . S
N1168 H1180 0.984 . S
N1168 H1181 0.985 . S
N1169 C1171 1.356 . S
N1169 H1174 0.984 . S
N1169 H1175 0.985 . S
C1170 C1164 1.379 . S
C1170 C1167 1.363 . S
C1170 N1168 1.356 . S
C1171 C1165 1.363 . S
C1171 C1166 1.379 . S
C1171 N1169 1.356 . S
N1172 C1164 1.356 . S
N1172 H1178 0.984 . S
N1172 H1179 0.984 . S
N1173 C1166 1.356 . S
N1173 H1176 0.984 . S
N1173 H1177 0.985 . S
H1174 N1169 0.984 . S
H1175 N1169 0.985 . S
H1176 N1173 0.984 . S
H1177 N1173 0.985 . S
H1178 N1172 0.984 . S
H1179 N1172 0.984 . S
H1180 N1168 0.984 . S
H1181 N1168 0.985 . S
C1182 C1183 1.363 . S
C1182 C1188 1.379 . S
C1182 N1190 1.356 . S
C1183 C1182 1.363 . S
C1183 C1189 1.363 . S
C1184 C1185 1.363 . S
C1184 C1189 1.379 . S
C1184 N1191 1.356 . S
C1185 C1184 1.363 . S
C1185 C1188 1.363 . S
N1186 C1188 1.356 . S
N1186 H1198 0.984 . S
N1186 H1199 0.985 . S
N1187 C1189 1.356 . S
N1187 H1192 0.984 . S
N1187 H1193 0.985 . S
C1188 C1182 1.379 . S
C1188 C1185 1.363 . S
C1188 N1186 1.356 . S
C1189 C1183 1.363 . S
C1189 C1184 1.379 . S
C1189 N1187 1.356 . S
N1190 C1182 1.356 . S
N1190 H1196 0.984 . S
N1190 H1197 0.984 . S
N1191 C1184 1.356 . S
N1191 H1194 0.984 . S
N1191 H1195 0.985 . S
H1192 N1187 0.984 . S
H1193 N1187 0.985 . S
H1194 N1191 0.984 . S
H1195 N1191 0.985 . S
H1196 N1190 0.984 . S
H1197 N1190 0.984 . S
H1198 N1186 0.984 . S
H1199 N1186 0.985 . S
C337 C309 1.597 . S
C339 C0 1.596 . S
C355 C15 1.597 . S
C357 C335 1.599 . S
C373 C281 1.597 . S
C375 C40 1.601 . S
C391 C295 1.597 . S
C393 C54 1.596 . S
C409 C294 1.598 . S
C411 C69 1.599 . S
C427 C82 1.598 . S
C429 C308 1.596 . S
C445 C334 1.598 . S
C447 C96 1.596 . S
C463 C110 1.598 . S
C465 C280 1.601 . S
C481 C124 1.598 . S
C483 C279 1.594 . S
C499 C224 1.598 . S
C501 C126 1.596 . S
C517 C140 1.598 . S
C519 C250 1.596 . S
C535 C252 1.598 . S
C537 C167 1.594 . S
C553 C166 1.598 . S
C555 C182 1.601 . S
C571 C125 1.597 . S
C573 C197 1.599 . S
C589 C211 1.597 . S
C591 C127 1.599 . S
C607 C141 1.597 . S
C609 C180 1.601 . S
C625 C14 1.598 . S
C627 C253 1.594 . S
C643 C196 1.598 . S
C645 C111 1.594 . S
C661 C68 1.598 . S
C663 C210 1.596 . S
C679 C181 1.597 . S
C681 C83 1.599 . S
C697 C97 1.597 . S
C699 C183 1.599 . S
C715 C55 1.597 . S
C717 C225 1.599 . S
C733 C1 1.597 . S
C735 C251 1.599 . S
C751 C41 1.597 . S
C753 C278 1.596 . S
C769 C85 1.598 . S
C771 C292 1.599 . S
C787 C306 1.597 . S
C789 C99 1.596 . S
C805 C320 1.597 . S
C807 C56 1.594 . S
C823 C322 1.597 . S
C825 C71 1.601 . S
C841 C29 1.598 . S
C843 C323 1.596 . S
C859 C43 1.598 . S
C861 C293 1.601 . S
C877 C13 1.598 . S
C879 C307 1.601 . S
C895 C321 1.598 . S
C897 C26 1.594 . S
C913 C153 1.598 . S
C915 C195 1.601 . S
C931 C154 1.597 . S
C933 C208 1.599 . S
C949 C113 1.598 . S
C951 C222 1.599 . S
C967 C139 1.598 . S
C969 C169 1.601 . S
C985 C138 1.597 . S
C987 C266 1.594 . S
C1003 C237 1.598 . S
C1005 C152 1.594 . S
C1021 C155 1.598 . S
C1023 C239 1.596 . S
C1039 C112 1.597 . S
C1041 C265 1.596 . S
C1057 C168 1.597 . S
C1059 C98 1.599 . S
C1075 C236 1.597 . S
C1077 C27 1.601 . S
C1093 C28 1.597 . S
C1095 C238 1.599 . S
C1111 C264 1.597 . S
C1113 C42 1.594 . S
C1129 C267 1.598 . S
C1131 C12 1.594 . S
C1147 C70 1.597 . S
C1149 C209 1.596 . S
C1165 C223 1.598 . S
C1167 C84 1.594 . S
C1183 C194 1.597 . S
C1185 C57 1.601 . S
