# Generated by pormake.
# Topology cab, (5)-cn, num edge types: 1
# Building blocks:
#     Node 0, Type 0, BuildingBlock: BEQFEK_clean_sbu_0, # of connection points: 5
#     Node 1, Type 0, BuildingBlock: BEQFEK_clean_sbu_0, # of connection points: 5
#     Node 2, Type 0, BuildingBlock: BEQFEK_clean_sbu_0, # of connection points: 5
#     Node 3, Type 0, BuildingBlock: BEQFEK_clean_sbu_0, # of connection points: 5
#     Node 4, Type 0, BuildingBlock: BEQFEK_clean_sbu_0, # of connection points: 5
#     Node 5, Type 0, BuildingBlock: BEQFEK_clean_sbu_0, # of connection points: 5
#     Edge 6, Type (0, 0), BuildingBlock: UVAHIK_clean_linker_0, # of connection points: 2
#     Edge 7, Type (0, 0), BuildingBlock: UVAHIK_clean_linker_0, # of connection points: 2
#     Edge 8, Type (0, 0), BuildingBlock: UVAHIK_clean_linker_0, # of connection points: 2
#     Edge 9, Type (0, 0), BuildingBlock: UVAHIK_clean_linker_0, # of connection points: 2
#     Edge 10, Type (0, 0), BuildingBlock: UVAHIK_clean_linker_0, # of connection points: 2
#     Edge 11, Type (0, 0), BuildingBlock: UVAHIK_clean_linker_0, # of connection points: 2
#     Edge 12, Type (0, 0), BuildingBlock: UVAHIK_clean_linker_0, # of connection points: 2
#     Edge 13, Type (0, 0), BuildingBlock: UVAHIK_clean_linker_0, # of connection points: 2
#     Edge 14, Type (0, 0), BuildingBlock: UVAHIK_clean_linker_0, # of connection points: 2
#     Edge 15, Type (0, 0), BuildingBlock: UVAHIK_clean_linker_0, # of connection points: 2
#     Edge 16, Type (0, 0), BuildingBlock: UVAHIK_clean_linker_0, # of connection points: 2
#     Edge 17, Type (0, 0), BuildingBlock: UVAHIK_clean_linker_0, # of connection points: 2
#     Edge 18, Type (0, 0), BuildingBlock: UVAHIK_clean_linker_0, # of connection points: 2
#     Edge 19, Type (0, 0), BuildingBlock: UVAHIK_clean_linker_0, # of connection points: 2
#     Edge 20, Type (0, 0), BuildingBlock: UVAHIK_clean_linker_0, # of connection points: 2
# Relax obj value: 1.223
# Max RMSD: 0.227
# Mean RMSD: 0.212
data_MOF--net-cab--node1-BEQFEK_clean_sbu_0--edge1-UVAHIK_clean_linker_0
_symmetry_space_group_name_H-M    P1
_symmetry_Int_Tables_number       1
_symmetry_cell_setting            triclinic
loop_
_symmetry_equiv_pos_as_xyz
'x, y, z'
_cell_length_a     39.367298
_cell_length_b     38.533556
_cell_length_c     40.135669
_cell_angle_alpha  112.75247
_cell_angle_beta   96.202335
_cell_angle_gamma 130.44567
loop_
_atom_site_label
_atom_site_type_symbol
_atom_site_fract_x
_atom_site_fract_y
_atom_site_fract_z
_atom_type_partial_charge
Co0 Co 0.38456 0.5571 0.71096 0.0
Co1 Co 0.27505 0.50556 0.67592 0.0
C2 C 0.29533 0.45048 0.62268 0.0
O3 O 0.34168 0.48767 0.65224 0.0
O4 O 0.26585 0.45356 0.62743 0.0
C5 C 0.46948 0.60506 0.70111 0.0
O6 O 0.43825 0.59227 0.66992 0.0
C7 C 0.18026 0.45604 0.6175 0.0
C8 C 0.13427 0.43378 0.64858 0.0
C9 C 0.13093 0.42618 0.6112 0.0
N10 N 0.21108 0.47971 0.65656 0.0
N11 N 0.18366 0.46738 0.67535 0.0
C12 C 0.19563 0.45479 0.58486 0.0
H13 H 0.23721 0.48138 0.59843 0.0
H14 H 0.18941 0.472 0.5718 0.0
H15 H 0.17108 0.40999 0.55865 0.0
C16 C 0.41656 0.65851 0.72534 0.0
N17 N 0.38041 0.60543 0.71498 0.0
N18 N 0.3344 0.5829 0.69791 0.0
C19 C 0.33996 0.6201 0.69542 0.0
C20 C 0.39222 0.66889 0.71184 0.0
C21 C 0.47391 0.69904 0.74675 0.0
H22 H 0.48475 0.68945 0.76541 0.0
H23 H 0.48606 0.69612 0.72311 0.0
H24 H 0.49507 0.7437 0.76785 0.0
O25 O 0.35837 0.52683 0.74261 0.0
O26 O 0.28082 0.48963 0.71635 0.0
H27 H 0.26379 0.58084 0.67771 0.0
H28 H 0.30799 0.6451 0.68142 0.0
C29 C 0.29562 0.60583 0.67187 0.0
H30 H 0.28093 0.57999 0.63774 0.0
H31 H 0.19742 0.4779 0.70515 0.0
O32 O 0.45559 0.59532 0.72639 0.0
C33 C 0.31399 0.49802 0.73944 0.0
Co34 Co 0.09031 0.99315 0.77624 0.0
Co35 Co 0.98216 0.94436 0.73938 0.0
C36 C 0.06978 0.04997 0.82804 0.0
O37 O 0.09803 0.04485 0.82362 0.0
O38 O 0.02405 0.01416 0.79804 0.0
C39 C 0.16912 0.02937 0.83732 0.0
O40 O 0.13655 0.01486 0.85112 0.0
C41 C 0.88903 0.89644 0.74217 0.0
C42 C 0.83022 0.8466 0.67737 0.0
C43 C 0.83677 0.85919 0.71644 0.0
N44 N 0.91204 0.90411 0.7192 0.0
N45 N 0.8769 0.87479 0.68055 0.0
C46 C 0.91781 0.92586 0.78827 0.0
H47 H 0.94231 0.92117 0.79433 0.0
H48 H 0.89188 0.90996 0.80101 0.0
H49 H 0.94398 0.97217 0.80556 0.0
C50 C 0.02203 0.87666 0.7542 0.0
N51 N 0.02948 0.91555 0.75296 0.0
N52 N 0.98435 0.89494 0.73654 0.0
C53 C 0.94697 0.84187 0.72608 0.0
C54 C 0.96958 0.82937 0.73872 0.0
C55 C 0.06494 0.88698 0.77406 0.0
H56 H 0.0985 0.91676 0.77156 0.0
H57 H 0.07687 0.90497 0.80757 0.0
H58 H 0.05206 0.84659 0.75831 0.0
O59 O 0.08871 0.01046 0.73596 0.0
O60 O 0.01205 0.97515 0.70879 0.0
H61 H 0.87878 0.80543 0.68027 0.0
H62 H 0.86689 0.75826 0.69102 0.0
C63 C 0.89002 0.80323 0.70525 0.0
H64 H 0.88068 0.81631 0.72872 0.0
H65 H 0.88437 0.87263 0.65608 0.0
O66 O 0.15628 0.02051 0.80211 0.0
C67 C 0.05662 0.00302 0.71246 0.0
Co68 Co 0.64278 0.43827 0.30376 0.0
Co69 Co 0.67845 0.48553 0.39835 0.0
C70 C 0.56669 0.39053 0.33457 0.0
O71 O 0.57851 0.39202 0.30644 0.0
O72 O 0.60173 0.42547 0.3731 0.0
C73 C 0.58528 0.4079 0.22859 0.0
O74 O 0.56867 0.42146 0.25118 0.0
C75 C 0.69431 0.53328 0.48386 0.0
C76 C 0.77971 0.60099 0.52321 0.0
C77 C 0.73533 0.57761 0.5252 0.0
N78 N 0.71357 0.53041 0.45854 0.0
N79 N 0.76455 0.5704 0.48234 0.0
C80 C 0.63863 0.49882 0.4682 0.0
H81 H 0.61454 0.45361 0.45403 0.0
H82 H 0.62522 0.49995 0.44329 0.0
H83 H 0.63273 0.51485 0.49365 0.0
C84 C 0.70561 0.55709 0.34004 0.0
N85 N 0.6889 0.51656 0.34434 0.0
N86 N 0.70043 0.53583 0.38344 0.0
C87 C 0.72241 0.58861 0.40482 0.0
C88 C 0.72635 0.60386 0.3779 0.0
C89 C 0.70067 0.55051 0.29996 0.0
H90 H 0.70501 0.52447 0.28255 0.0
H91 H 0.66179 0.52834 0.27987 0.0
H92 H 0.73051 0.59295 0.30648 0.0
O93 O 0.67477 0.41793 0.31252 0.0
O94 O 0.69537 0.44457 0.3777 0.0
H95 H 0.76853 0.64148 0.47163 0.0
H96 H 0.73347 0.65154 0.45409 0.0
C97 C 0.73144 0.61942 0.44775 0.0
H98 H 0.69962 0.58838 0.45094 0.0
H99 H 0.78927 0.57859 0.47052 0.0
O100 O 0.61994 0.41441 0.24561 0.0
C101 C 0.69262 0.42097 0.3431 0.0
Co102 Co 0.44026 0.77225 0.3576 0.0
Co103 Co 0.42371 0.7338 0.2673 0.0
C104 C 0.34858 0.65218 0.28508 0.0
O105 O 0.3766 0.68898 0.32485 0.0
O106 O 0.36268 0.66571 0.26131 0.0
C107 C 0.42611 0.79077 0.4265 0.0
O108 O 0.38012 0.75875 0.39662 0.0
C109 C 0.40304 0.65511 0.19141 0.0
C110 C 0.38774 0.67046 0.14745 0.0
C111 C 0.38474 0.63345 0.14944 0.0
N112 N 0.41598 0.70234 0.21308 0.0
N113 N 0.40784 0.71211 0.18682 0.0
C114 C 0.40012 0.62635 0.20952 0.0
H115 H 0.41632 0.65301 0.24389 0.0
H116 H 0.42272 0.61924 0.20396 0.0
H117 H 0.35911 0.58403 0.19384 0.0
C118 C 0.53635 0.80717 0.37113 0.0
N119 N 0.49286 0.78748 0.3475 0.0
N120 N 0.48714 0.77402 0.31027 0.0
C121 C 0.52784 0.78681 0.30949 0.0
C122 C 0.56028 0.80762 0.34788 0.0
C123 C 0.55041 0.81777 0.41276 0.0
H124 H 0.57447 0.86273 0.43802 0.0
H125 H 0.51482 0.78917 0.4139 0.0
H126 H 0.57265 0.81047 0.41872 0.0
O127 O 0.42156 0.80284 0.34128 0.0
O128 O 0.41537 0.78141 0.27931 0.0
H129 H 0.5209 0.78832 0.25641 0.0
H130 H 0.57696 0.80771 0.28256 0.0
C131 C 0.53535 0.7791 0.27256 0.0
H132 H 0.51289 0.73416 0.24992 0.0
H133 H 0.41193 0.74435 0.19508 0.0
O134 O 0.46119 0.805 0.41752 0.0
C135 C 0.41297 0.80415 0.31043 0.0
Co136 Co 0.73849 0.03031 0.10859 0.0
Co137 Co 0.6481 0.91865 0.0992 0.0
C138 C 0.75383 0.01679 0.17576 0.0
O139 O 0.76863 0.04382 0.16026 0.0
O140 O 0.70772 0.96624 0.15533 0.0
C141 C 0.83885 0.10734 0.12467 0.0
O142 O 0.83433 0.07354 0.13047 0.0
C143 C 0.60332 0.81438 0.08262 0.0
C144 C 0.52322 0.76305 0.06947 0.0
C145 C 0.55814 0.76235 0.0719 0.0
N146 N 0.5956 0.84433 0.08559 0.0
N147 N 0.54763 0.81362 0.07778 0.0
C148 C 0.65442 0.83703 0.09254 0.0
H149 H 0.68366 0.87993 0.09985 0.0
H150 H 0.6499 0.80778 0.06558 0.0
H151 H 0.66849 0.83946 0.11976 0.0
C152 C 0.70596 0.94721 0.02517 0.0
N153 N 0.70287 0.95997 0.06014 0.0
N154 N 0.66387 0.91245 0.0548 0.0
C155 C 0.64064 0.86759 0.01557 0.0
C156 C 0.66693 0.88841 0.99595 0.0
C157 C 0.74439 0.99072 0.01936 0.0
H158 H 0.74512 0.02245 0.02923 0.0
H159 H 0.78363 0.01366 0.03958 0.0
H160 H 0.73519 0.97078 0.98628 0.0
O161 O 0.69026 0.03234 0.1116 0.0
O162 O 0.62747 0.95581 0.10837 0.0
H163 H 0.56498 0.80255 0.00594 0.0
H164 H 0.57125 0.78077 0.96052 0.0
C165 C 0.5913 0.80622 0.99531 0.0
H166 H 0.60037 0.78807 0.00405 0.0
H167 H 0.53162 0.82712 0.07823 0.0
O168 O 0.79937 0.09559 0.11182 0.0
C169 C 0.64862 0.00131 0.11268 0.0
Co170 Co 0.99683 0.81363 0.22896 0.0
Co171 Co 0.96906 0.75283 0.13515 0.0
C172 C 0.05111 0.87828 0.19348 0.0
O173 O 0.04344 0.87388 0.22222 0.0
O174 O 0.02367 0.83393 0.15598 0.0
C175 C 0.00202 0.88648 0.28625 0.0
O176 O 0.98094 0.87645 0.2512 0.0
C177 C 0.93721 0.71609 0.04897 0.0
C178 C 0.90751 0.63306 0.01435 0.0
C179 C 0.91594 0.6712 0.0094 0.0
N180 N 0.94061 0.70472 0.07604 0.0
N181 N 0.92268 0.65497 0.05519 0.0
C182 C 0.95913 0.77176 0.0622 0.0
H183 H 0.00202 0.80491 0.07751 0.0
H184 H 0.94988 0.78536 0.08561 0.0
H185 H 0.94475 0.76962 0.0354 0.0
C186 C 0.88412 0.73617 0.18763 0.0
N187 N 0.92678 0.75574 0.18606 0.0
N188 N 0.9153 0.73269 0.14668 0.0
C189 C 0.8651 0.69898 0.12202 0.0
C190 C 0.84374 0.70038 0.14728 0.0
C191 C 0.88168 0.75111 0.22703 0.0
H192 H 0.91053 0.76147 0.25059 0.0
H193 H 0.89025 0.78874 0.24045 0.0
H194 H 0.84212 0.715 0.22007 0.0
O195 O 0.02168 0.78314 0.22901 0.0
O196 O 0.00543 0.74421 0.16326 0.0
H197 H 0.83894 0.63932 0.05937 0.0
H198 H 0.80003 0.64918 0.06235 0.0
C199 C 0.84004 0.67098 0.07592 0.0
H200 H 0.86361 0.70368 0.07063 0.0
H201 H 0.92146 0.63637 0.06895 0.0
O202 O 0.00951 0.85852 0.28471 0.0
C203 C 0.02423 0.75765 0.19962 0.0
C204 C 0.48417 0.84115 0.50158 0.0
C205 C 0.43442 0.8032 0.46815 0.0
C206 C 0.49068 0.84728 0.53916 0.0
C207 C 0.41877 0.80322 0.59571 0.0
H208 H 0.51247 0.80359 0.63761 0.0
C209 C 0.41096 0.7435 0.70903 0.0
C210 C 0.41203 0.70503 0.69754 0.0
C211 C 0.42483 0.77249 0.69121 0.0
C212 C 0.48609 0.80347 0.62636 0.0
H213 H 0.35282 0.74402 0.44865 0.0
H214 H 0.36364 0.75264 0.5129 0.0
H215 H 0.51412 0.82266 0.58663 0.0
H216 H 0.42798 0.66628 0.65862 0.0
H217 H 0.45156 0.71579 0.6275 0.0
H218 H 0.38775 0.77901 0.63287 0.0
C219 C 0.39807 0.77907 0.51101 0.0
C220 C 0.48757 0.81535 0.59747 0.0
C221 C 0.39172 0.77365 0.47379 0.0
C222 C 0.42808 0.69683 0.66879 0.0
C223 C 0.44175 0.72545 0.65103 0.0
C224 C 0.41676 0.79044 0.62418 0.0
C225 C 0.44747 0.81488 0.54388 0.0
C226 C 0.45259 0.81327 0.5805 0.0
C227 C 0.43977 0.76318 0.66153 0.0
C228 C 0.44901 0.78817 0.63853 0.0
H229 H 0.51794 0.86503 0.49834 0.0
H230 H 0.52948 0.87628 0.56406 0.0
H231 H 0.39221 0.80279 0.5843 0.0
H232 H 0.39848 0.75021 0.73108 0.0
H233 H 0.42313 0.80146 0.70017 0.0
C234 C 0.77192 0.02757 0.24337 0.0
C235 C 0.78942 0.04863 0.22032 0.0
C236 C 0.80345 0.06307 0.28721 0.0
C237 C 0.9014 0.21273 0.37518 0.0
H238 H 0.94781 0.18426 0.43964 0.0
C239 C 0.07957 0.3937 0.54153 0.0
C240 C 0.08243 0.38233 0.57029 0.0
C241 C 0.03712 0.34969 0.5005 0.0
C242 C 0.93432 0.19244 0.42231 0.0
H243 H 0.8553 0.12203 0.22497 0.0
H244 H 0.90923 0.18331 0.3008 0.0
H245 H 0.88629 0.11042 0.36381 0.0
H246 H 0.04144 0.31708 0.57989 0.0
H247 H 0.96629 0.24028 0.50847 0.0
H248 H 0.94886 0.29432 0.43302 0.0
C249 C 0.8711 0.1398 0.28514 0.0
C250 C 0.8993 0.15018 0.37889 0.0
C251 C 0.84014 0.10446 0.24164 0.0
C252 C 0.04032 0.32694 0.5582 0.0
C253 C 0.9976 0.28283 0.51715 0.0
C254 C 0.93572 0.25453 0.41849 0.0
C255 C 0.85253 0.12009 0.30845 0.0
C256 C 0.88382 0.16076 0.35488 0.0
C257 C 0.99612 0.29336 0.48744 0.0
C258 C 0.95392 0.2457 0.44248 0.0
H259 H 0.7331 0.9848 0.22791 0.0
H260 H 0.78855 0.04696 0.30467 0.0
H261 H 0.8893 0.22144 0.3573 0.0
H262 H 0.11066 0.43638 0.55042 0.0
H263 H 0.03762 0.3596 0.4786 0.0
C264 C 0.29387 0.37988 0.58594 0.0
C265 C 0.27205 0.39756 0.58491 0.0
C266 C 0.26568 0.32404 0.55443 0.0
C267 C 0.12932 0.18117 0.47773 0.0
H268 H 0.18861 0.13789 0.43358 0.0
C269 C 0.0092 0.96047 0.32789 0.0
C270 C 0.02557 0.93694 0.32666 0.0
C271 C 0.03796 0.01454 0.36325 0.0
C272 C 0.17174 0.14937 0.44622 0.0
H273 H 0.20587 0.3725 0.54814 0.0
H274 H 0.15753 0.27594 0.49262 0.0
H275 H 0.24406 0.23898 0.48457 0.0
H276 H 0.08294 0.94974 0.36231 0.0
H277 H 0.13353 0.04479 0.42435 0.0
H278 H 0.0568 0.09162 0.43863 0.0
C279 C 0.19551 0.30439 0.51849 0.0
C280 C 0.20343 0.20723 0.47525 0.0
C281 C 0.22345 0.35993 0.55008 0.0
C282 C 0.06935 0.96682 0.36249 0.0
C283 C 0.09855 0.02136 0.39777 0.0
C284 C 0.09766 0.12344 0.44859 0.0
C285 C 0.21539 0.2851 0.5212 0.0
C286 C 0.18239 0.22378 0.49088 0.0
C287 C 0.08391 0.04634 0.39793 0.0
C288 C 0.11842 0.10699 0.43219 0.0
H289 H 0.33118 0.40782 0.61245 0.0
H290 H 0.28212 0.31055 0.55744 0.0
H291 H 0.11215 0.19238 0.49002 0.0
H292 H 0.97549 0.93824 0.30071 0.0
H293 H 0.02585 0.0328 0.3624 0.0
C294 C 0.76045 0.65852 0.58564 0.0
C295 C 0.73342 0.6018 0.5627 0.0
C296 C 0.75126 0.67837 0.61629 0.0
C297 C 0.6923 0.64969 0.68099 0.0
H298 H 0.62626 0.67861 0.63975 0.0
C299 C 0.53168 0.60311 0.70986 0.0
C300 C 0.51824 0.62725 0.70452 0.0
C301 C 0.5719 0.61569 0.7043 0.0
C302 C 0.64562 0.67235 0.65294 0.0
H303 H 0.67969 0.52302 0.55599 0.0
H304 H 0.66431 0.55798 0.61022 0.0
H305 H 0.67716 0.67648 0.61257 0.0
H306 H 0.53864 0.68724 0.6932 0.0
H307 H 0.61135 0.71303 0.68695 0.0
H308 H 0.66138 0.64603 0.72172 0.0
C309 C 0.69219 0.58694 0.60438 0.0
C310 C 0.67486 0.67101 0.63706 0.0
C311 C 0.70061 0.5668 0.57322 0.0
C312 C 0.54806 0.66758 0.69694 0.0
C313 C 0.58927 0.68159 0.6927 0.0
C314 C 0.66413 0.65252 0.69778 0.0
C315 C 0.71585 0.64211 0.625 0.0
C316 C 0.69656 0.65727 0.64961 0.0
C317 C 0.60045 0.65399 0.69444 0.0
C318 C 0.63832 0.6613 0.68259 0.0
H319 H 0.78604 0.68623 0.57799 0.0
H320 H 0.7699 0.72104 0.63181 0.0
H321 H 0.70922 0.63957 0.69142 0.0
H322 H 0.50879 0.57149 0.71539 0.0
H323 H 0.57842 0.59282 0.70552 0.0
C324 C 0.87859 0.67352 0.95737 0.0
C325 C 0.90654 0.66611 0.9704 0.0
C326 C 0.8766 0.67805 0.92459 0.0
C327 C 0.89625 0.65622 0.83494 0.0
H328 H 0.95021 0.80073 0.87605 0.0
C329 C 0.9561 0.76065 0.74781 0.0
C330 C 0.94904 0.79345 0.75343 0.0
C331 C 0.94468 0.73573 0.76869 0.0
C332 C 0.93411 0.75968 0.86358 0.0
H333 H 0.94959 0.65145 0.95697 0.0
H334 H 0.94592 0.65919 0.89897 0.0
H335 H 0.93887 0.77114 0.921 0.0
H336 H 0.92164 0.82295 0.78335 0.0
H337 H 0.89811 0.7763 0.81647 0.0
H338 H 0.89089 0.64464 0.77702 0.0
C339 C 0.92611 0.66209 0.9145 0.0
C340 C 0.92788 0.74292 0.88952 0.0
C341 C 0.92834 0.65786 0.94763 0.0
C342 C 0.92694 0.79736 0.77773 0.0
C343 C 0.91446 0.77155 0.79759 0.0
C344 C 0.90184 0.67273 0.8085 0.0
C345 C 0.90195 0.67449 0.9039 0.0
C346 C 0.90841 0.69088 0.8754 0.0
C347 C 0.92535 0.74267 0.79498 0.0
C348 C 0.92021 0.7244 0.82243 0.0
H349 H 0.8601 0.67817 0.97372 0.0
H350 H 0.85698 0.68666 0.91648 0.0
H351 H 0.88147 0.61601 0.82355 0.0
H352 H 0.97186 0.75572 0.7284 0.0
H353 H 0.95321 0.71339 0.76575 0.0
C354 C 0.56657 0.35071 0.15645 0.0
C355 C 0.55998 0.37984 0.18305 0.0
C356 C 0.53675 0.31727 0.11278 0.0
C357 C 0.44809 0.28416 0.02757 0.0
H358 H 0.37057 0.12717 0.9726 0.0
C359 C 0.23007 0.05612 0.8968 0.0
C360 C 0.22167 0.06129 0.86501 0.0
C361 C 0.28041 0.09358 0.92824 0.0
C362 C 0.39244 0.17099 0.98729 0.0
H363 H 0.51974 0.40005 0.18493 0.0
H364 H 0.46795 0.34199 0.10896 0.0
H365 H 0.44559 0.20209 0.04378 0.0
H366 H 0.25906 0.10726 0.8395 0.0
H367 H 0.34765 0.17386 0.89526 0.0
H368 H 0.39291 0.25243 0.97207 0.0
C369 C 0.49609 0.34491 0.12171 0.0
C370 C 0.4356 0.21397 0.02793 0.0
C371 C 0.52547 0.37782 0.16527 0.0
C372 C 0.26453 0.1023 0.86365 0.0
C373 C 0.31511 0.14053 0.8956 0.0
C374 C 0.40514 0.24123 0.98681 0.0
C375 C 0.50032 0.31297 0.09498 0.0
C376 C 0.4625 0.27057 0.04912 0.0
C377 C 0.32344 0.1375 0.92885 0.0
C378 C 0.37559 0.18388 0.96699 0.0
H379 H 0.59301 0.35158 0.16922 0.0
H380 H 0.54104 0.2934 0.09291 0.0
H381 H 0.46849 0.32756 0.04301 0.0
H382 H 0.19768 0.02468 0.89846 0.0
H383 H 0.2855 0.09048 0.95363 0.0
C384 C 0.07385 0.12287 0.8664 0.0
C385 C 0.0943 0.10356 0.8663 0.0
C386 C 0.10327 0.17913 0.89859 0.0
C387 C 0.24064 0.32027 0.97355 0.0
H388 H 0.18607 0.36839 0.02115 0.0
C389 C 0.37241 0.55357 0.11309 0.0
C390 C 0.35437 0.57527 0.11344 0.0
C391 C 0.34041 0.49604 0.08207 0.0
C392 C 0.20176 0.35566 0.00772 0.0
H393 H 0.15956 0.12643 0.90188 0.0
H394 H 0.21007 0.22368 0.95817 0.0
H395 H 0.12876 0.26647 0.97129 0.0
H396 H 0.28997 0.55496 0.08045 0.0
H397 H 0.2343 0.45464 0.02567 0.0
H398 H 0.31346 0.40919 0.00966 0.0
C399 C 0.17209 0.1961 0.93282 0.0
C400 C 0.16893 0.29724 0.97929 0.0
C401 C 0.14289 0.14014 0.9007 0.0
C402 C 0.30479 0.53923 0.08094 0.0
C403 C 0.2727 0.48165 0.04992 0.0
C404 C 0.27337 0.37855 0.00189 0.0
C405 C 0.15354 0.21698 0.93131 0.0
C406 C 0.18808 0.27887 0.96205 0.0
C407 C 0.28974 0.45908 0.05061 0.0
C408 C 0.25442 0.397 0.01944 0.0
H409 H 0.03662 0.09584 0.84033 0.0
H410 H 0.08782 0.19386 0.8965 0.0
H411 H 0.2564 0.30766 0.96011 0.0
H412 H 0.41098 0.58082 0.13716 0.0
H413 H 0.35483 0.48016 0.08358 0.0
C414 C 0.63555 0.85569 0.92214 0.0
C415 C 0.65625 0.85633 0.95334 0.0
C416 C 0.63542 0.83583 0.88463 0.0
C417 C 0.68555 0.84495 0.83185 0.0
H418 H 0.68187 0.73331 0.78203 0.0
C419 C 0.76289 0.83859 0.71934 0.0
C420 C 0.79596 0.83542 0.72755 0.0
C421 C 0.73036 0.82485 0.73616 0.0
C422 C 0.68298 0.76461 0.79544 0.0
H423 H 0.69044 0.83446 0.96976 0.0
H424 H 0.69158 0.80097 0.90481 0.0
H425 H 0.64962 0.73633 0.83026 0.0
H426 H 0.81584 0.80774 0.75423 0.0
H427 H 0.76164 0.78677 0.78548 0.0
H428 H 0.72018 0.87447 0.79824 0.0
C429 C 0.6743 0.8144 0.90844 0.0
C430 C 0.66448 0.76634 0.82318 0.0
C431 C 0.6739 0.83375 0.94574 0.0
C432 C 0.79223 0.81286 0.74907 0.0
C433 C 0.76047 0.80001 0.76644 0.0
C434 C 0.70356 0.84287 0.80385 0.0
C435 C 0.6568 0.81716 0.87807 0.0
C436 C 0.66712 0.80779 0.84281 0.0
C437 C 0.73051 0.80785 0.76155 0.0
C438 C 0.70387 0.80372 0.78611 0.0
H439 H 0.62184 0.87314 0.92766 0.0
H440 H 0.6207 0.8375 0.8616 0.0
H441 H 0.68911 0.87816 0.84682 0.0
H442 H 0.76418 0.85452 0.70183 0.0
H443 H 0.70647 0.82949 0.73047 0.0
C444 C 0.697 0.63441 0.35274 0.0
C445 C 0.7343 0.64937 0.38343 0.0
C446 C 0.70254 0.67568 0.35723 0.0
C447 C 0.73906 0.7963 0.42936 0.0
H448 H 0.71783 0.79965 0.33447 0.0
C449 C 0.64793 0.86016 0.39787 0.0
C450 C 0.6028 0.81497 0.35782 0.0
C451 C 0.68483 0.86247 0.40832 0.0
C452 C 0.72471 0.8002 0.36164 0.0
H453 H 0.80619 0.71916 0.44355 0.0
H454 H 0.81451 0.79195 0.45256 0.0
H455 H 0.74708 0.7616 0.34087 0.0
H456 H 0.56129 0.73738 0.29727 0.0
H457 H 0.62579 0.74235 0.31475 0.0
H458 H 0.7117 0.82961 0.44791 0.0
C459 C 0.78198 0.74817 0.42439 0.0
C460 C 0.7417 0.77876 0.36539 0.0
C461 C 0.77706 0.70669 0.41934 0.0
C462 C 0.59629 0.77366 0.32793 0.0
C463 C 0.63333 0.77646 0.33805 0.0
C464 C 0.72177 0.81758 0.42551 0.0
C465 C 0.74482 0.73278 0.39306 0.0
C466 C 0.74606 0.7736 0.39791 0.0
C467 C 0.67748 0.82017 0.37856 0.0
C468 C 0.7114 0.81634 0.39016 0.0
H469 H 0.66249 0.59037 0.32564 0.0
H470 H 0.67259 0.6625 0.33324 0.0
H471 H 0.74182 0.79228 0.45452 0.0
H472 H 0.65393 0.89271 0.42142 0.0
H473 H 0.71844 0.8965 0.43981 0.0
C474 C 0.47295 0.30134 0.27835 0.0
C475 C 0.51102 0.34509 0.32135 0.0
C476 C 0.42083 0.25594 0.26535 0.0
C477 C 0.3386 0.17957 0.30341 0.0
H478 H 0.22669 0.10231 0.19958 0.0
C479 C 0.1259 0.98463 0.24721 0.0
C480 C 0.09649 0.93611 0.20563 0.0
C481 C 0.17344 0.03835 0.2613 0.0
C482 C 0.25758 0.12343 0.22859 0.0
H483 H 0.52355 0.37652 0.38442 0.0
H484 H 0.43227 0.2979 0.36175 0.0
H485 H 0.31604 0.19072 0.2257 0.0
H486 H 0.09254 0.90694 0.14551 0.0
H487 H 0.17577 0.00119 0.17021 0.0
H488 H 0.28017 0.11225 0.30621 0.0
C489 C 0.44299 0.298 0.33803 0.0
C490 C 0.30881 0.174 0.24355 0.0
C491 C 0.49535 0.34331 0.35107 0.0
C492 C 0.1142 0.94334 0.17771 0.0
C493 C 0.16185 0.99736 0.19185 0.0
C494 C 0.28742 0.12942 0.28867 0.0
C495 C 0.40515 0.25322 0.29497 0.0
C496 C 0.35011 0.20228 0.28085 0.0
C497 C 0.19269 0.04503 0.23416 0.0
C498 C 0.2464 0.1004 0.25085 0.0
H499 H 0.4835 0.30115 0.2545 0.0
H500 H 0.39314 0.22196 0.23199 0.0
H501 H 0.36927 0.19933 0.33176 0.0
H502 H 0.11323 0.9809 0.26952 0.0
H503 H 0.19588 0.07448 0.29386 0.0
C504 C 0.89542 0.18875 0.12011 0.0
C505 C 0.89027 0.16044 0.13658 0.0
C506 C 0.94479 0.23982 0.1327 0.0
C507 C 0.08533 0.33032 0.18944 0.0
H508 H 0.1074 0.4493 0.20153 0.0
C509 C 0.28519 0.57123 0.28857 0.0
C510 C 0.29713 0.59343 0.2657 0.0
C511 C 0.23556 0.51642 0.27036 0.0
C512 C 0.10153 0.41619 0.19807 0.0
H513 H 0.93237 0.16363 0.17965 0.0
H514 H 0.0177 0.2533 0.20304 0.0
H515 H 0.02005 0.35718 0.17403 0.0
H516 H 0.26653 0.57575 0.20591 0.0
H517 H 0.17945 0.48077 0.17482 0.0
H518 H 0.16764 0.39106 0.21565 0.0
C519 C 0.98424 0.23549 0.17913 0.0
C520 C 0.0515 0.36323 0.182 0.0
C521 C 0.93513 0.18409 0.16592 0.0
C522 C 0.2586 0.55973 0.22428 0.0
C523 C 0.20876 0.50559 0.20651 0.0
C524 C 0.13545 0.38369 0.20638 0.0
C525 C 0.98991 0.2641 0.16266 0.0
C526 C 0.04272 0.31961 0.17769 0.0
C527 C 0.19689 0.48363 0.22943 0.0
C528 C 0.14388 0.42698 0.21091 0.0
H529 H 0.86136 0.17121 0.09727 0.0
H530 H 0.94746 0.26 0.11877 0.0
H531 H 0.08015 0.29752 0.18563 0.0
H532 H 0.31412 0.5962 0.32048 0.0
H533 H 0.22698 0.50012 0.28854 0.0
C534 C 0.74659 0.62598 0.10447 0.0
C535 C 0.79547 0.68283 0.13643 0.0
C536 C 0.70176 0.61126 0.09403 0.0
C537 C 0.65469 0.66793 0.13373 0.0
H538 H 0.56526 0.58426 0.01604 0.0
C539 C 0.5409 0.70124 0.09244 0.0
C540 C 0.55055 0.71706 0.06568 0.0
C541 C 0.54832 0.6709 0.09429 0.0
C542 C 0.58959 0.60741 0.04906 0.0
H543 H 0.83621 0.76883 0.18217 0.0
H544 H 0.75897 0.7437 0.16435 0.0
H545 H 0.62673 0.58522 0.03593 0.0
H546 H 0.56823 0.70745 0.01592 0.0
H547 H 0.5831 0.65688 0.01993 0.0
H548 H 0.62173 0.69492 0.14743 0.0
C549 C 0.75443 0.70989 0.14788 0.0
C550 C 0.62446 0.60738 0.06043 0.0
C551 C 0.79886 0.72445 0.15806 0.0
C552 C 0.56178 0.69671 0.0375 0.0
C553 C 0.56961 0.66695 0.03951 0.0
C554 C 0.62042 0.66857 0.12246 0.0
C555 C 0.7053 0.65322 0.11565 0.0
C556 C 0.65941 0.64034 0.10303 0.0
C557 C 0.56587 0.65644 0.06959 0.0
C558 C 0.58949 0.64098 0.08009 0.0
H559 H 0.74317 0.59318 0.08749 0.0
H560 H 0.66448 0.56726 0.06903 0.0
H561 H 0.68012 0.69243 0.16682 0.0
H562 H 0.53169 0.71615 0.11419 0.0
H563 H 0.54369 0.6622 0.11703 0.0
C564 C 0.05025 0.04957 0.68713 0.0
C565 C 0.07704 0.04028 0.69896 0.0
C566 C 0.07626 0.09824 0.68899 0.0
C567 C 0.20887 0.2452 0.75002 0.0
H568 H 0.14874 0.25872 0.68027 0.0
C569 C 0.32247 0.45168 0.76343 0.0
C570 C 0.29498 0.46074 0.75281 0.0
C571 C 0.29735 0.40294 0.76124 0.0
C572 C 0.16576 0.25573 0.70044 0.0
H573 H 0.15022 0.07067 0.71623 0.0
H574 H 0.195 0.15457 0.71837 0.0
H575 H 0.10098 0.1642 0.65976 0.0
H576 H 0.22167 0.42984 0.73731 0.0
H577 H 0.17842 0.3457 0.73439 0.0
H578 H 0.27373 0.33679 0.79063 0.0
C579 C 0.15447 0.12544 0.7093 0.0
C580 C 0.13851 0.2015 0.68849 0.0
C581 C 0.12853 0.07689 0.70754 0.0
C582 C 0.24385 0.42381 0.74508 0.0
C583 C 0.2188 0.37515 0.74289 0.0
C584 C 0.23618 0.29944 0.76192 0.0
C585 C 0.12943 0.13829 0.70234 0.0
C586 C 0.15967 0.19555 0.71317 0.0
C587 C 0.24442 0.3626 0.74866 0.0
C588 C 0.21482 0.30535 0.73738 0.0
H589 H 0.01052 0.02222 0.68013 0.0
H590 H 0.05565 0.10659 0.68318 0.0
H591 H 0.22585 0.24227 0.7703 0.0
H592 H 0.36194 0.47927 0.7697 0.0
H593 H 0.31832 0.39473 0.76617 0.0
C594 C 0.64392 0.06519 0.12102 0.0
C595 C 0.63083 0.02517 0.12681 0.0
C596 C 0.64105 0.10022 0.14392 0.0
C597 C 0.65608 0.16751 0.24657 0.0
H598 H 0.62883 0.22806 0.20618 0.0
C599 C 0.68007 0.34929 0.34442 0.0
C600 C 0.70144 0.38748 0.33422 0.0
C601 C 0.67089 0.30296 0.32289 0.0
C602 C 0.63675 0.21164 0.21792 0.0
H603 H 0.60043 0.98712 0.15855 0.0
H604 H 0.59511 0.04847 0.19861 0.0
H605 H 0.60236 0.14277 0.15596 0.0
H606 H 0.73567 0.41165 0.29767 0.0
H607 H 0.72084 0.33196 0.261 0.0
H608 H 0.69111 0.23738 0.30877 0.0
C609 C 0.60812 0.05303 0.17663 0.0
C610 C 0.62141 0.16271 0.18917 0.0
C611 C 0.61053 0.01745 0.15329 0.0
C612 C 0.7189 0.38258 0.30592 0.0
C613 C 0.70988 0.33667 0.28462 0.0
C614 C 0.67114 0.21647 0.27545 0.0
C615 C 0.62526 0.09622 0.17332 0.0
C616 C 0.63238 0.14113 0.20318 0.0
C617 C 0.68312 0.29469 0.29113 0.0
C618 C 0.66314 0.23997 0.26135 0.0
H619 H 0.65964 0.07202 0.10078 0.0
H620 H 0.65483 0.13322 0.14073 0.0
H621 H 0.66548 0.15219 0.25838 0.0
H622 H 0.66581 0.35187 0.36582 0.0
H623 H 0.65051 0.27127 0.32862 0.0
C624 C 0.07055 0.73681 0.18109 0.0
C625 C 0.05754 0.75281 0.21006 0.0
C626 C 0.11085 0.74471 0.19382 0.0
C627 C 0.19477 0.77201 0.27705 0.0
H628 H 0.29445 0.8479 0.2435 0.0
C629 C 0.38054 0.84043 0.33838 0.0
C630 C 0.38961 0.82179 0.30678 0.0
C631 C 0.34608 0.84167 0.33036 0.0
C632 C 0.2669 0.82654 0.253 0.0
H633 H 0.0738 0.7851 0.27419 0.0
H634 H 0.1438 0.79841 0.29618 0.0
H635 H 0.21689 0.82229 0.21919 0.0
H636 H 0.37399 0.79595 0.2436 0.0
H637 H 0.31372 0.7976 0.22956 0.0
H638 H 0.24409 0.77518 0.31019 0.0
C639 C 0.1231 0.78022 0.26375 0.0
C640 C 0.22237 0.81159 0.23891 0.0
C641 C 0.08294 0.77257 0.2511 0.0
C642 C 0.36765 0.81014 0.26858 0.0
C643 C 0.33305 0.81117 0.26052 0.0
C644 C 0.23918 0.78672 0.291 0.0
C645 C 0.13866 0.76834 0.23564 0.0
C646 C 0.18565 0.78374 0.2505 0.0
C647 C 0.32003 0.82432 0.29061 0.0
C648 C 0.27559 0.81381 0.27891 0.0
H649 H 0.05161 0.72111 0.14915 0.0
H650 H 0.1213 0.73395 0.17124 0.0
H651 H 0.16698 0.75028 0.28627 0.0
H652 H 0.39733 0.85044 0.36839 0.0
H653 H 0.33789 0.85353 0.35459 0.0
loop_
_geom_bond_atom_site_label_1
_geom_bond_atom_site_label_2
_geom_bond_distance
_geom_bond_site_symmetry_2
_ccdc_geom_bond_type
Co0 O3 1.970 . S
Co0 N17 1.989 . S
Co0 O25 1.967 . S
Co0 O32 1.920 . S
Co1 O4 1.966 . S
Co1 N10 2.022 . S
Co1 N18 1.993 . S
Co1 O26 1.941 . S
C2 O3 1.258 . S
C2 O4 1.263 . S
O3 Co0 1.970 . S
O3 C2 1.258 . S
O4 Co1 1.966 . S
O4 C2 1.263 . S
C5 O6 1.235 . S
C5 O32 1.289 . S
O6 C5 1.235 . S
C7 C9 1.400 . S
C7 N10 1.351 . S
C7 C12 1.501 . S
C8 C9 1.387 . S
C8 N11 1.341 . S
C9 C7 1.400 . S
C9 C8 1.387 . S
N10 Co1 2.022 . S
N10 C7 1.351 . S
N10 N11 1.365 . S
N11 C8 1.341 . S
N11 N10 1.365 . S
N11 H31 0.862 . S
C12 C7 1.501 . S
C12 H13 0.961 . S
C12 H14 0.961 . S
C12 H15 0.960 . S
H13 C12 0.961 . S
H14 C12 0.961 . S
H15 C12 0.960 . S
C16 N17 1.342 . S
C16 C20 1.401 . S
C16 C21 1.499 . S
N17 Co0 1.989 . S
N17 C16 1.342 . S
N17 N18 1.388 . S
N18 Co1 1.993 . S
N18 N17 1.388 . S
N18 C19 1.346 . S
C19 N18 1.346 . S
C19 C20 1.396 . S
C19 C29 1.510 . S
C20 C16 1.401 . S
C20 C19 1.396 . S
C21 C16 1.499 . S
C21 H22 0.959 . S
C21 H23 0.960 . S
C21 H24 0.961 . S
H22 C21 0.959 . S
H23 C21 0.960 . S
H24 C21 0.961 . S
O25 Co0 1.967 . S
O25 C33 1.258 . S
O26 Co1 1.941 . S
O26 C33 1.266 . S
H27 C29 0.959 . S
H28 C29 0.961 . S
C29 C19 1.510 . S
C29 H27 0.959 . S
C29 H28 0.961 . S
C29 H30 0.960 . S
H30 C29 0.960 . S
H31 N11 0.862 . S
O32 Co0 1.920 . S
O32 C5 1.289 . S
C33 O25 1.258 . S
C33 O26 1.266 . S
Co34 O37 1.970 . S
Co34 N51 1.989 1_545 S
Co34 O59 1.967 . S
Co34 O66 1.920 . S
Co35 O38 1.966 1_565 S
Co35 N44 2.022 1_455 S
Co35 N52 1.993 . S
Co35 O60 1.941 . S
C36 O37 1.258 . S
C36 O38 1.263 . S
O37 Co34 1.970 . S
O37 C36 1.258 . S
O38 Co35 1.966 1_545 S
O38 C36 1.263 . S
C39 O40 1.235 . S
C39 O66 1.289 . S
O40 C39 1.235 . S
C41 C43 1.400 . S
C41 N44 1.351 . S
C41 C46 1.501 1_565 S
C42 C43 1.387 . S
C42 N45 1.341 . S
C43 C41 1.400 . S
C43 C42 1.387 . S
N44 Co35 2.022 1_655 S
N44 C41 1.351 . S
N44 N45 1.365 . S
N45 C42 1.341 . S
N45 N44 1.365 . S
N45 H65 0.862 . S
C46 C41 1.501 1_545 S
C46 H47 0.961 1_655 S
C46 H48 0.961 . S
C46 H49 0.960 . S
H47 C46 0.961 1_455 S
H48 C46 0.961 . S
H49 C46 0.960 . S
C50 N51 1.342 . S
C50 C54 1.401 . S
C50 C55 1.499 . S
N51 Co34 1.989 1_565 S
N51 C50 1.342 . S
N51 N52 1.388 . S
N52 Co35 1.993 . S
N52 N51 1.388 . S
N52 C53 1.346 . S
C53 N52 1.346 . S
C53 C54 1.396 . S
C53 C63 1.510 1_455 S
C54 C50 1.401 . S
C54 C53 1.396 . S
C55 C50 1.499 . S
C55 H56 0.959 . S
C55 H57 0.960 . S
C55 H58 0.961 . S
H56 C55 0.959 . S
H57 C55 0.960 . S
H58 C55 0.961 . S
O59 Co34 1.967 . S
O59 C67 1.258 . S
O60 Co35 1.941 . S
O60 C67 1.266 1_565 S
H61 C63 0.959 . S
H62 C63 0.961 . S
C63 C53 1.510 1_655 S
C63 H61 0.959 . S
C63 H62 0.961 . S
C63 H64 0.960 . S
H64 C63 0.960 . S
H65 N45 0.862 . S
O66 Co34 1.920 . S
O66 C39 1.289 . S
C67 O59 1.258 . S
C67 O60 1.266 1_545 S
Co68 O71 1.970 . S
Co68 N85 1.989 . S
Co68 O93 1.967 . S
Co68 O100 1.920 . S
Co69 O72 1.966 . S
Co69 N78 2.022 . S
Co69 N86 1.993 . S
Co69 O94 1.941 . S
C70 O71 1.258 . S
C70 O72 1.263 . S
O71 Co68 1.970 . S
O71 C70 1.258 . S
O72 Co69 1.966 . S
O72 C70 1.263 . S
C73 O74 1.235 . S
C73 O100 1.289 . S
O74 C73 1.235 . S
C75 C77 1.400 . S
C75 N78 1.351 . S
C75 C80 1.501 . S
C76 C77 1.387 . S
C76 N79 1.341 . S
C77 C75 1.400 . S
C77 C76 1.387 . S
N78 Co69 2.022 . S
N78 C75 1.351 . S
N78 N79 1.365 . S
N79 C76 1.341 . S
N79 N78 1.365 . S
N79 H99 0.862 . S
C80 C75 1.501 . S
C80 H81 0.961 . S
C80 H82 0.961 . S
C80 H83 0.960 . S
H81 C80 0.961 . S
H82 C80 0.961 . S
H83 C80 0.960 . S
C84 N85 1.342 . S
C84 C88 1.401 . S
C84 C89 1.499 . S
N85 Co68 1.989 . S
N85 C84 1.342 . S
N85 N86 1.388 . S
N86 Co69 1.993 . S
N86 N85 1.388 . S
N86 C87 1.346 . S
C87 N86 1.346 . S
C87 C88 1.396 . S
C87 C97 1.510 . S
C88 C84 1.401 . S
C88 C87 1.396 . S
C89 C84 1.499 . S
C89 H90 0.959 . S
C89 H91 0.960 . S
C89 H92 0.961 . S
H90 C89 0.959 . S
H91 C89 0.960 . S
H92 C89 0.961 . S
O93 Co68 1.967 . S
O93 C101 1.258 . S
O94 Co69 1.941 . S
O94 C101 1.266 . S
H95 C97 0.959 . S
H96 C97 0.961 . S
C97 C87 1.510 . S
C97 H95 0.959 . S
C97 H96 0.961 . S
C97 H98 0.960 . S
H98 C97 0.960 . S
H99 N79 0.862 . S
O100 Co68 1.920 . S
O100 C73 1.289 . S
C101 O93 1.258 . S
C101 O94 1.266 . S
Co102 O105 1.970 . S
Co102 N119 1.989 . S
Co102 O127 1.967 . S
Co102 O134 1.920 . S
Co103 O106 1.966 . S
Co103 N112 2.022 . S
Co103 N120 1.993 . S
Co103 O128 1.941 . S
C104 O105 1.258 . S
C104 O106 1.263 . S
O105 Co102 1.970 . S
O105 C104 1.258 . S
O106 Co103 1.966 . S
O106 C104 1.263 . S
C107 O108 1.235 . S
C107 O134 1.289 . S
O108 C107 1.235 . S
C109 C111 1.400 . S
C109 N112 1.351 . S
C109 C114 1.501 . S
C110 C111 1.387 . S
C110 N113 1.341 . S
C111 C109 1.400 . S
C111 C110 1.387 . S
N112 Co103 2.022 . S
N112 C109 1.351 . S
N112 N113 1.365 . S
N113 C110 1.341 . S
N113 N112 1.365 . S
N113 H133 0.862 . S
C114 C109 1.501 . S
C114 H115 0.961 . S
C114 H116 0.961 . S
C114 H117 0.960 . S
H115 C114 0.961 . S
H116 C114 0.961 . S
H117 C114 0.960 . S
C118 N119 1.342 . S
C118 C122 1.401 . S
C118 C123 1.499 . S
N119 Co102 1.989 . S
N119 C118 1.342 . S
N119 N120 1.388 . S
N120 Co103 1.993 . S
N120 N119 1.388 . S
N120 C121 1.346 . S
C121 N120 1.346 . S
C121 C122 1.396 . S
C121 C131 1.510 . S
C122 C118 1.401 . S
C122 C121 1.396 . S
C123 C118 1.499 . S
C123 H124 0.959 . S
C123 H125 0.960 . S
C123 H126 0.961 . S
H124 C123 0.959 . S
H125 C123 0.960 . S
H126 C123 0.961 . S
O127 Co102 1.967 . S
O127 C135 1.258 . S
O128 Co103 1.941 . S
O128 C135 1.266 . S
H129 C131 0.959 . S
H130 C131 0.961 . S
C131 C121 1.510 . S
C131 H129 0.959 . S
C131 H130 0.961 . S
C131 H132 0.960 . S
H132 C131 0.960 . S
H133 N113 0.862 . S
O134 Co102 1.920 . S
O134 C107 1.289 . S
C135 O127 1.258 . S
C135 O128 1.266 . S
Co136 O139 1.970 . S
Co136 N153 1.989 . S
Co136 O161 1.967 . S
Co136 O168 1.920 . S
Co137 O140 1.966 1_565 S
Co137 N146 2.022 . S
Co137 N154 1.993 . S
Co137 O162 1.941 . S
C138 O139 1.258 . S
C138 O140 1.263 . S
O139 Co136 1.970 . S
O139 C138 1.258 . S
O140 Co137 1.966 1_545 S
O140 C138 1.263 . S
C141 O142 1.235 . S
C141 O168 1.289 . S
O142 C141 1.235 . S
C143 C145 1.400 . S
C143 N146 1.351 . S
C143 C148 1.501 . S
C144 C145 1.387 . S
C144 N147 1.341 . S
C145 C143 1.400 . S
C145 C144 1.387 . S
N146 Co137 2.022 . S
N146 C143 1.351 . S
N146 N147 1.365 . S
N147 C144 1.341 . S
N147 N146 1.365 . S
N147 H167 0.862 . S
C148 C143 1.501 . S
C148 H149 0.961 . S
C148 H150 0.961 . S
C148 H151 0.960 . S
H149 C148 0.961 . S
H150 C148 0.961 . S
H151 C148 0.960 . S
C152 N153 1.342 . S
C152 C156 1.406 1_545 S
C152 C157 1.499 . S
N153 Co136 1.989 . S
N153 C152 1.342 . S
N153 N154 1.388 1_545 S
N154 Co137 1.993 . S
N154 N153 1.388 1_565 S
N154 C155 1.346 . S
C155 N154 1.346 . S
C155 C156 1.419 . S
C155 C165 1.510 . S
C156 C152 1.406 1_565 S
C156 C155 1.419 . S
C157 C152 1.499 . S
C157 H158 0.959 . S
C157 H159 0.960 . S
C157 H160 0.966 . S
H158 C157 0.959 . S
H159 C157 0.960 . S
H160 C157 0.966 . S
O161 Co136 1.967 . S
O161 C169 1.258 . S
O162 Co137 1.941 . S
O162 C169 1.266 1_565 S
H163 C165 0.959 1_556 S
H164 C165 0.963 . S
C165 C155 1.510 . S
C165 H163 0.959 1_554 S
C165 H164 0.963 . S
C165 H166 0.960 . S
H166 C165 0.960 . S
H167 N147 0.862 . S
O168 Co136 1.920 . S
O168 C141 1.289 . S
C169 O161 1.258 . S
C169 O162 1.266 1_545 S
Co170 O173 1.970 . S
Co170 N187 1.989 1_455 S
Co170 O195 1.967 . S
Co170 O202 1.920 . S
Co171 O174 1.966 1_655 S
Co171 N180 2.022 . S
Co171 N188 1.993 . S
Co171 O196 1.941 . S
C172 O173 1.258 . S
C172 O174 1.263 . S
O173 Co170 1.970 . S
O173 C172 1.258 . S
O174 Co171 1.966 1_455 S
O174 C172 1.263 . S
C175 O176 1.235 . S
C175 O202 1.289 . S
O176 C175 1.235 . S
C177 C179 1.400 . S
C177 N180 1.351 . S
C177 C182 1.501 1_655 S
C178 C179 1.387 . S
C178 N181 1.341 . S
C179 C177 1.400 . S
C179 C178 1.387 . S
N180 Co171 2.022 . S
N180 C177 1.351 . S
N180 N181 1.365 . S
N181 C178 1.341 . S
N181 N180 1.365 . S
N181 H201 0.862 . S
C182 C177 1.501 1_455 S
C182 H183 0.961 . S
C182 H184 0.961 . S
C182 H185 0.960 . S
H183 C182 0.961 . S
H184 C182 0.961 . S
H185 C182 0.960 . S
C186 N187 1.342 . S
C186 C190 1.401 . S
C186 C191 1.499 . S
N187 Co170 1.989 1_655 S
N187 C186 1.342 . S
N187 N188 1.388 . S
N188 Co171 1.993 . S
N188 N187 1.388 . S
N188 C189 1.346 . S
C189 N188 1.346 . S
C189 C190 1.396 . S
C189 C199 1.510 . S
C190 C186 1.401 . S
C190 C189 1.396 . S
C191 C186 1.499 . S
C191 H192 0.959 . S
C191 H193 0.960 . S
C191 H194 0.961 . S
H192 C191 0.959 . S
H193 C191 0.960 . S
H194 C191 0.961 . S
O195 Co170 1.967 . S
O195 C203 1.258 . S
O196 Co171 1.941 . S
O196 C203 1.266 1_655 S
H197 C199 0.959 . S
H198 C199 0.961 . S
C199 C189 1.510 . S
C199 H197 0.959 . S
C199 H198 0.961 . S
C199 H200 0.960 . S
H200 C199 0.960 . S
H201 N181 0.862 . S
O202 Co170 1.920 . S
O202 C175 1.289 . S
C203 O195 1.258 . S
C203 O196 1.266 1_455 S
C204 C205 1.349 . S
C204 C206 1.327 . S
C204 H229 0.950 . S
C205 C204 1.349 . S
C205 C221 1.349 . S
C206 C204 1.327 . S
C206 C225 1.429 . S
C206 H230 0.950 . S
C207 C224 1.574 . S
C207 C226 1.368 . S
C207 H231 0.949 . S
H208 C212 0.949 . S
C209 C210 1.349 . S
C209 C211 1.327 . S
C209 H232 0.950 . S
C210 C209 1.349 . S
C210 C222 1.349 . S
C211 C209 1.327 . S
C211 C227 1.429 . S
C211 H233 0.950 . S
C212 H208 0.949 . S
C212 C220 1.574 . S
C212 C228 1.368 . S
H213 C221 0.950 . S
H214 C219 0.950 . S
H215 C220 0.949 . S
H216 C222 0.950 . S
H217 C223 0.950 . S
H218 C224 0.949 . S
C219 H214 0.950 . S
C219 C221 1.327 . S
C219 C225 1.429 . S
C220 C212 1.574 . S
C220 H215 0.949 . S
C220 C226 1.368 . S
C221 C205 1.349 . S
C221 H213 0.950 . S
C221 C219 1.327 . S
C222 C210 1.349 . S
C222 H216 0.950 . S
C222 C223 1.327 . S
C223 H217 0.950 . S
C223 C222 1.327 . S
C223 C227 1.429 . S
C224 C207 1.574 . S
C224 H218 0.949 . S
C224 C228 1.368 . S
C225 C206 1.429 . S
C225 C219 1.429 . S
C225 C226 1.523 . S
C226 C207 1.368 . S
C226 C220 1.368 . S
C226 C225 1.523 . S
C227 C211 1.429 . S
C227 C223 1.429 . S
C227 C228 1.523 . S
C228 C212 1.368 . S
C228 C224 1.368 . S
C228 C227 1.523 . S
H229 C204 0.950 . S
H230 C206 0.950 . S
H231 C207 0.949 . S
H232 C209 0.950 . S
H233 C211 0.950 . S
C234 C235 1.349 . S
C234 C236 1.327 . S
C234 H259 0.950 . S
C235 C234 1.349 . S
C235 C251 1.349 . S
C236 C234 1.327 . S
C236 C255 1.429 . S
C236 H260 0.950 . S
C237 C254 1.574 . S
C237 C256 1.368 . S
C237 H261 0.949 . S
H238 C242 0.949 . S
C239 C240 1.349 . S
C239 C241 1.327 1_455 S
C239 H262 0.950 . S
C240 C239 1.349 . S
C240 C252 1.349 . S
C241 C239 1.327 1_655 S
C241 C257 1.429 . S
C241 H263 0.950 . S
C242 H238 0.949 . S
C242 C250 1.574 . S
C242 C258 1.368 . S
H243 C251 0.950 . S
H244 C249 0.950 . S
H245 C250 0.949 . S
H246 C252 0.950 . S
H247 C253 0.950 1_655 S
H248 C254 0.949 . S
C249 H244 0.950 . S
C249 C251 1.327 . S
C249 C255 1.429 . S
C250 C242 1.574 . S
C250 H245 0.949 . S
C250 C256 1.368 . S
C251 C235 1.349 . S
C251 H243 0.950 . S
C251 C249 1.327 . S
C252 C240 1.349 . S
C252 H246 0.950 . S
C252 C253 1.327 . S
C253 H247 0.950 1_455 S
C253 C252 1.327 . S
C253 C257 1.429 1_455 S
C254 C237 1.574 . S
C254 H248 0.949 . S
C254 C258 1.368 . S
C255 C236 1.429 . S
C255 C249 1.429 . S
C255 C256 1.523 . S
C256 C237 1.368 . S
C256 C250 1.368 . S
C256 C255 1.523 . S
C257 C241 1.429 . S
C257 C253 1.429 1_655 S
C257 C258 1.523 . S
C258 C242 1.368 . S
C258 C254 1.368 . S
C258 C257 1.523 . S
H259 C234 0.950 . S
H260 C236 0.950 . S
H261 C237 0.949 . S
H262 C239 0.950 . S
H263 C241 0.950 . S
C264 C265 1.349 . S
C264 C266 1.327 . S
C264 H289 0.950 . S
C265 C264 1.349 . S
C265 C281 1.349 . S
C266 C264 1.327 . S
C266 C285 1.429 . S
C266 H290 0.950 . S
C267 C284 1.574 . S
C267 C286 1.368 . S
C267 H291 0.949 . S
H268 C272 0.949 . S
C269 C270 1.349 . S
C269 C271 1.327 . S
C269 H292 0.950 . S
C270 C269 1.349 . S
C270 C282 1.349 . S
C271 C269 1.327 . S
C271 C287 1.429 1_565 S
C271 H293 0.950 . S
C272 H268 0.949 . S
C272 C280 1.574 . S
C272 C288 1.368 . S
H273 C281 0.950 . S
H274 C279 0.950 . S
H275 C280 0.949 . S
H276 C282 0.950 . S
H277 C283 0.950 1_545 S
H278 C284 0.949 . S
C279 H274 0.950 . S
C279 C281 1.327 . S
C279 C285 1.429 . S
C280 C272 1.574 . S
C280 H275 0.949 . S
C280 C286 1.368 . S
C281 C265 1.349 . S
C281 H273 0.950 . S
C281 C279 1.327 . S
C282 C270 1.349 . S
C282 H276 0.950 . S
C282 C283 1.327 . S
C283 H277 0.950 1_565 S
C283 C282 1.327 . S
C283 C287 1.429 1_565 S
C284 C267 1.574 . S
C284 H278 0.949 . S
C284 C288 1.368 . S
C285 C266 1.429 . S
C285 C279 1.429 . S
C285 C286 1.523 . S
C286 C267 1.368 . S
C286 C280 1.368 . S
C286 C285 1.523 . S
C287 C271 1.429 1_545 S
C287 C283 1.429 1_545 S
C287 C288 1.523 . S
C288 C272 1.368 . S
C288 C284 1.368 . S
C288 C287 1.523 . S
H289 C264 0.950 . S
H290 C266 0.950 . S
H291 C267 0.949 . S
H292 C269 0.950 . S
H293 C271 0.950 . S
C294 C295 1.349 . S
C294 C296 1.327 . S
C294 H319 0.950 . S
C295 C294 1.349 . S
C295 C311 1.349 . S
C296 C294 1.327 . S
C296 C315 1.429 . S
C296 H320 0.950 . S
C297 C314 1.574 . S
C297 C316 1.368 . S
C297 H321 0.949 . S
H298 C302 0.949 . S
C299 C300 1.349 . S
C299 C301 1.327 . S
C299 H322 0.950 . S
C300 C299 1.349 . S
C300 C312 1.349 . S
C301 C299 1.327 . S
C301 C317 1.429 . S
C301 H323 0.950 . S
C302 H298 0.949 . S
C302 C310 1.574 . S
C302 C318 1.368 . S
H303 C311 0.950 . S
H304 C309 0.950 . S
H305 C310 0.949 . S
H306 C312 0.950 . S
H307 C313 0.950 . S
H308 C314 0.949 . S
C309 H304 0.950 . S
C309 C311 1.327 . S
C309 C315 1.429 . S
C310 C302 1.574 . S
C310 H305 0.949 . S
C310 C316 1.368 . S
C311 C295 1.349 . S
C311 H303 0.950 . S
C311 C309 1.327 . S
C312 C300 1.349 . S
C312 H306 0.950 . S
C312 C313 1.327 . S
C313 H307 0.950 . S
C313 C312 1.327 . S
C313 C317 1.429 . S
C314 C297 1.574 . S
C314 H308 0.949 . S
C314 C318 1.368 . S
C315 C296 1.429 . S
C315 C309 1.429 . S
C315 C316 1.523 . S
C316 C297 1.368 . S
C316 C310 1.368 . S
C316 C315 1.523 . S
C317 C301 1.429 . S
C317 C313 1.429 . S
C317 C318 1.523 . S
C318 C302 1.368 . S
C318 C314 1.368 . S
C318 C317 1.523 . S
H319 C294 0.950 . S
H320 C296 0.950 . S
H321 C297 0.949 . S
H322 C299 0.950 . S
H323 C301 0.950 . S
C324 C325 1.349 1_455 S
C324 C326 1.327 1_554 S
C324 H349 0.950 . S
C325 C324 1.349 1_655 S
C325 C341 1.349 1_554 S
C326 C324 1.327 1_556 S
C326 C345 1.429 1_455 S
C326 H350 0.950 1_556 S
C327 C344 1.574 . S
C327 C346 1.368 . S
C327 H351 0.949 . S
H328 C332 0.949 . S
C329 C330 1.349 1_655 S
C329 C331 1.327 . S
C329 H352 0.950 . S
C330 C329 1.349 1_455 S
C330 C342 1.349 . S
C331 C329 1.327 . S
C331 C347 1.429 1_655 S
C331 H353 0.950 . S
C332 H328 0.949 . S
C332 C340 1.574 . S
C332 C348 1.368 . S
H333 C341 0.950 . S
H334 C339 0.950 . S
H335 C340 0.949 . S
H336 C342 0.950 . S
H337 C343 0.950 . S
H338 C344 0.949 . S
C339 H334 0.950 . S
C339 C341 1.327 . S
C339 C345 1.429 . S
C340 C332 1.574 . S
C340 H335 0.949 . S
C340 C346 1.368 1_455 S
C341 C325 1.349 1_556 S
C341 H333 0.950 . S
C341 C339 1.327 . S
C342 C330 1.349 . S
C342 H336 0.950 . S
C342 C343 1.327 . S
C343 H337 0.950 . S
C343 C342 1.327 . S
C343 C347 1.429 . S
C344 C327 1.574 . S
C344 H338 0.949 . S
C344 C348 1.368 1_655 S
C345 C326 1.429 1_655 S
C345 C339 1.429 . S
C345 C346 1.523 . S
C346 C327 1.368 . S
C346 C340 1.368 1_655 S
C346 C345 1.523 . S
C347 C331 1.429 1_455 S
C347 C343 1.429 . S
C347 C348 1.523 . S
C348 C332 1.368 . S
C348 C344 1.368 1_455 S
C348 C347 1.523 . S
H349 C324 0.950 . S
H350 C326 0.950 1_554 S
H351 C327 0.949 . S
H352 C329 0.950 . S
H353 C331 0.950 . S
C354 C355 1.349 . S
C354 C356 1.327 . S
C354 H379 0.950 . S
C355 C354 1.349 . S
C355 C371 1.349 . S
C356 C354 1.327 . S
C356 C375 1.429 . S
C356 H380 0.950 . S
C357 C374 1.574 . S
C357 C376 1.368 . S
C357 H381 0.949 . S
H358 C362 0.949 1_556 S
C359 C360 1.349 . S
C359 C361 1.327 . S
C359 H382 0.950 . S
C360 C359 1.349 . S
C360 C372 1.349 . S
C361 C359 1.327 . S
C361 C377 1.429 . S
C361 H383 0.950 . S
C362 H358 0.949 1_554 S
C362 C370 1.574 . S
C362 C378 1.368 1_554 S
H363 C371 0.950 . S
H364 C369 0.950 . S
H365 C370 0.949 . S
H366 C372 0.950 . S
H367 C373 0.950 . S
H368 C374 0.949 . S
C369 H364 0.950 . S
C369 C371 1.327 . S
C369 C375 1.429 . S
C370 C362 1.574 . S
C370 H365 0.949 . S
C370 C376 1.368 . S
C371 C355 1.349 . S
C371 H363 0.950 . S
C371 C369 1.327 . S
C372 C360 1.349 . S
C372 H366 0.950 . S
C372 C373 1.327 . S
C373 H367 0.950 . S
C373 C372 1.327 . S
C373 C377 1.429 . S
C374 C357 1.574 . S
C374 H368 0.949 . S
C374 C378 1.368 1_554 S
C375 C356 1.429 . S
C375 C369 1.429 . S
C375 C376 1.523 . S
C376 C357 1.368 . S
C376 C370 1.368 . S
C376 C375 1.523 . S
C377 C361 1.429 . S
C377 C373 1.429 . S
C377 C378 1.523 . S
C378 C362 1.368 1_556 S
C378 C374 1.368 1_556 S
C378 C377 1.523 . S
H379 C354 0.950 . S
H380 C356 0.950 . S
H381 C357 0.949 . S
H382 C359 0.950 . S
H383 C361 0.950 . S
C384 C385 1.349 . S
C384 C386 1.327 . S
C384 H409 0.950 . S
C385 C384 1.349 . S
C385 C401 1.349 . S
C386 C384 1.327 . S
C386 C405 1.429 . S
C386 H410 0.950 . S
C387 C404 1.574 1_556 S
C387 C406 1.368 . S
C387 H411 0.949 . S
H388 C392 0.949 . S
C389 C390 1.349 . S
C389 C391 1.327 . S
C389 H412 0.950 . S
C390 C389 1.349 . S
C390 C402 1.349 . S
C391 C389 1.327 . S
C391 C407 1.429 . S
C391 H413 0.950 . S
C392 H388 0.949 . S
C392 C400 1.574 . S
C392 C408 1.368 1_556 S
H393 C401 0.950 . S
H394 C399 0.950 . S
H395 C400 0.949 . S
H396 C402 0.950 . S
H397 C403 0.950 . S
H398 C404 0.949 . S
C399 H394 0.950 . S
C399 C401 1.327 . S
C399 C405 1.429 . S
C400 C392 1.574 . S
C400 H395 0.949 . S
C400 C406 1.368 . S
C401 C385 1.349 . S
C401 H393 0.950 . S
C401 C399 1.327 . S
C402 C390 1.349 . S
C402 H396 0.950 . S
C402 C403 1.327 . S
C403 H397 0.950 . S
C403 C402 1.327 . S
C403 C407 1.429 . S
C404 C387 1.574 1_554 S
C404 H398 0.949 . S
C404 C408 1.368 . S
C405 C386 1.429 . S
C405 C399 1.429 . S
C405 C406 1.523 . S
C406 C387 1.368 . S
C406 C400 1.368 . S
C406 C405 1.523 . S
C407 C391 1.429 . S
C407 C403 1.429 . S
C407 C408 1.523 . S
C408 C392 1.368 1_554 S
C408 C404 1.368 . S
C408 C407 1.523 . S
H409 C384 0.950 . S
H410 C386 0.950 . S
H411 C387 0.949 . S
H412 C389 0.950 . S
H413 C391 0.950 . S
C414 C415 1.349 . S
C414 C416 1.327 . S
C414 H439 0.950 . S
C415 C414 1.349 . S
C415 C431 1.349 . S
C416 C414 1.327 . S
C416 C435 1.429 . S
C416 H440 0.950 . S
C417 C434 1.574 . S
C417 C436 1.368 . S
C417 H441 0.949 1_565 S
H418 C422 0.949 . S
C419 C420 1.349 . S
C419 C421 1.327 . S
C419 H442 0.950 . S
C420 C419 1.349 . S
C420 C432 1.349 . S
C421 C419 1.327 . S
C421 C437 1.429 . S
C421 H443 0.950 1_565 S
C422 H418 0.949 . S
C422 C430 1.574 . S
C422 C438 1.368 . S
H423 C431 0.950 1_544 S
H424 C429 0.950 1_545 S
H425 C430 0.949 . S
H426 C432 0.950 . S
H427 C433 0.950 . S
H428 C434 0.949 1_545 S
C429 H424 0.950 1_565 S
C429 C431 1.327 . S
C429 C435 1.429 . S
C430 C422 1.574 . S
C430 H425 0.949 . S
C430 C436 1.368 . S
C431 C415 1.349 . S
C431 H423 0.950 1_566 S
C431 C429 1.327 . S
C432 C420 1.349 . S
C432 H426 0.950 . S
C432 C433 1.327 . S
C433 H427 0.950 . S
C433 C432 1.327 . S
C433 C437 1.429 . S
C434 C417 1.574 . S
C434 H428 0.949 1_565 S
C434 C438 1.368 . S
C435 C416 1.429 . S
C435 C429 1.429 . S
C435 C436 1.523 . S
C436 C417 1.368 . S
C436 C430 1.368 . S
C436 C435 1.523 . S
C437 C421 1.429 . S
C437 C433 1.429 . S
C437 C438 1.523 . S
C438 C422 1.368 . S
C438 C434 1.368 . S
C438 C437 1.523 . S
H439 C414 0.950 . S
H440 C416 0.950 . S
H441 C417 0.949 1_545 S
H442 C419 0.950 . S
H443 C421 0.950 1_545 S
C444 C445 1.349 . S
C444 C446 1.327 . S
C444 H469 0.950 . S
C445 C444 1.349 . S
C445 C461 1.349 . S
C446 C444 1.327 . S
C446 C465 1.429 . S
C446 H470 0.950 . S
C447 C464 1.574 . S
C447 C466 1.368 . S
C447 H471 0.949 . S
H448 C452 0.949 . S
C449 C450 1.349 . S
C449 C451 1.327 . S
C449 H472 0.950 . S
C450 C449 1.349 . S
C450 C462 1.349 . S
C451 C449 1.327 . S
C451 C467 1.429 . S
C451 H473 0.950 . S
C452 H448 0.949 . S
C452 C460 1.574 . S
C452 C468 1.368 . S
H453 C461 0.950 . S
H454 C459 0.950 . S
H455 C460 0.949 . S
H456 C462 0.950 . S
H457 C463 0.950 . S
H458 C464 0.949 . S
C459 H454 0.950 . S
C459 C461 1.327 . S
C459 C465 1.429 . S
C460 C452 1.574 . S
C460 H455 0.949 . S
C460 C466 1.368 . S
C461 C445 1.349 . S
C461 H453 0.950 . S
C461 C459 1.327 . S
C462 C450 1.349 . S
C462 H456 0.950 . S
C462 C463 1.327 . S
C463 H457 0.950 . S
C463 C462 1.327 . S
C463 C467 1.429 . S
C464 C447 1.574 . S
C464 H458 0.949 . S
C464 C468 1.368 . S
C465 C446 1.429 . S
C465 C459 1.429 . S
C465 C466 1.523 . S
C466 C447 1.368 . S
C466 C460 1.368 . S
C466 C465 1.523 . S
C467 C451 1.429 . S
C467 C463 1.429 . S
C467 C468 1.523 . S
C468 C452 1.368 . S
C468 C464 1.368 . S
C468 C467 1.523 . S
H469 C444 0.950 . S
H470 C446 0.950 . S
H471 C447 0.949 . S
H472 C449 0.950 . S
H473 C451 0.950 . S
C474 C475 1.349 . S
C474 C476 1.327 . S
C474 H499 0.950 . S
C475 C474 1.349 . S
C475 C491 1.349 . S
C476 C474 1.327 . S
C476 C495 1.429 . S
C476 H500 0.950 . S
C477 C494 1.574 . S
C477 C496 1.368 . S
C477 H501 0.949 . S
H478 C482 0.949 . S
C479 C480 1.349 . S
C479 C481 1.327 1_565 S
C479 H502 0.950 . S
C480 C479 1.349 . S
C480 C492 1.349 . S
C481 C479 1.327 1_545 S
C481 C497 1.429 . S
C481 H503 0.950 . S
C482 H478 0.949 . S
C482 C490 1.574 . S
C482 C498 1.368 . S
H483 C491 0.950 . S
H484 C489 0.950 . S
H485 C490 0.949 . S
H486 C492 0.950 . S
H487 C493 0.950 . S
H488 C494 0.949 . S
C489 H484 0.950 . S
C489 C491 1.327 . S
C489 C495 1.429 . S
C490 C482 1.574 . S
C490 H485 0.949 . S
C490 C496 1.368 . S
C491 C475 1.349 . S
C491 H483 0.950 . S
C491 C489 1.327 . S
C492 C480 1.349 . S
C492 H486 0.950 . S
C492 C493 1.327 . S
C493 H487 0.950 . S
C493 C492 1.327 . S
C493 C497 1.429 1_565 S
C494 C477 1.574 . S
C494 H488 0.949 . S
C494 C498 1.368 . S
C495 C476 1.429 . S
C495 C489 1.429 . S
C495 C496 1.523 . S
C496 C477 1.368 . S
C496 C490 1.368 . S
C496 C495 1.523 . S
C497 C481 1.429 . S
C497 C493 1.429 1_545 S
C497 C498 1.523 . S
C498 C482 1.368 . S
C498 C494 1.368 . S
C498 C497 1.523 . S
H499 C474 0.950 . S
H500 C476 0.950 . S
H501 C477 0.949 . S
H502 C479 0.950 . S
H503 C481 0.950 . S
C504 C505 1.349 . S
C504 C506 1.327 . S
C504 H529 0.950 . S
C505 C504 1.349 . S
C505 C521 1.349 . S
C506 C504 1.327 . S
C506 C525 1.429 . S
C506 H530 0.950 . S
C507 C524 1.574 . S
C507 C526 1.368 1_455 S
C507 H531 0.949 . S
H508 C512 0.949 . S
C509 C510 1.349 . S
C509 C511 1.327 . S
C509 H532 0.950 . S
C510 C509 1.349 . S
C510 C522 1.349 . S
C511 C509 1.327 . S
C511 C527 1.429 . S
C511 H533 0.950 . S
C512 H508 0.949 . S
C512 C520 1.574 1_455 S
C512 C528 1.368 . S
H513 C521 0.950 . S
H514 C519 0.950 . S
H515 C520 0.949 . S
H516 C522 0.950 . S
H517 C523 0.950 . S
H518 C524 0.949 . S
C519 H514 0.950 . S
C519 C521 1.327 . S
C519 C525 1.429 . S
C520 C512 1.574 1_655 S
C520 H515 0.949 . S
C520 C526 1.368 . S
C521 C505 1.349 . S
C521 H513 0.950 . S
C521 C519 1.327 . S
C522 C510 1.349 . S
C522 H516 0.950 . S
C522 C523 1.327 . S
C523 H517 0.950 . S
C523 C522 1.327 . S
C523 C527 1.429 . S
C524 C507 1.574 . S
C524 H518 0.949 . S
C524 C528 1.368 . S
C525 C506 1.429 . S
C525 C519 1.429 . S
C525 C526 1.523 . S
C526 C507 1.368 1_655 S
C526 C520 1.368 . S
C526 C525 1.523 . S
C527 C511 1.429 . S
C527 C523 1.429 . S
C527 C528 1.523 . S
C528 C512 1.368 . S
C528 C524 1.368 . S
C528 C527 1.523 . S
H529 C504 0.950 . S
H530 C506 0.950 . S
H531 C507 0.949 . S
H532 C509 0.950 . S
H533 C511 0.950 . S
C534 C535 1.349 . S
C534 C536 1.327 . S
C534 H559 0.950 . S
C535 C534 1.349 . S
C535 C551 1.349 . S
C536 C534 1.327 . S
C536 C555 1.429 . S
C536 H560 0.950 . S
C537 C554 1.574 . S
C537 C556 1.368 . S
C537 H561 0.949 . S
H538 C542 0.949 . S
C539 C540 1.349 . S
C539 C541 1.327 . S
C539 H562 0.950 . S
C540 C539 1.349 . S
C540 C552 1.349 . S
C541 C539 1.327 . S
C541 C557 1.429 . S
C541 H563 0.950 . S
C542 H538 0.949 . S
C542 C550 1.574 . S
C542 C558 1.368 . S
H543 C551 0.950 . S
H544 C549 0.950 . S
H545 C550 0.949 . S
H546 C552 0.950 . S
H547 C553 0.950 . S
H548 C554 0.949 . S
C549 H544 0.950 . S
C549 C551 1.327 . S
C549 C555 1.429 . S
C550 C542 1.574 . S
C550 H545 0.949 . S
C550 C556 1.368 . S
C551 C535 1.349 . S
C551 H543 0.950 . S
C551 C549 1.327 . S
C552 C540 1.349 . S
C552 H546 0.950 . S
C552 C553 1.327 . S
C553 H547 0.950 . S
C553 C552 1.327 . S
C553 C557 1.429 . S
C554 C537 1.574 . S
C554 H548 0.949 . S
C554 C558 1.368 . S
C555 C536 1.429 . S
C555 C549 1.429 . S
C555 C556 1.523 . S
C556 C537 1.368 . S
C556 C550 1.368 . S
C556 C555 1.523 . S
C557 C541 1.429 . S
C557 C553 1.429 . S
C557 C558 1.523 . S
C558 C542 1.368 . S
C558 C554 1.368 . S
C558 C557 1.523 . S
H559 C534 0.950 . S
H560 C536 0.950 . S
H561 C537 0.949 . S
H562 C539 0.950 . S
H563 C541 0.950 . S
C564 C565 1.349 . S
C564 C566 1.327 . S
C564 H589 0.950 . S
C565 C564 1.349 . S
C565 C581 1.349 . S
C566 C564 1.327 . S
C566 C585 1.429 . S
C566 H590 0.950 . S
C567 C584 1.574 . S
C567 C586 1.368 . S
C567 H591 0.949 . S
H568 C572 0.949 . S
C569 C570 1.349 . S
C569 C571 1.327 . S
C569 H592 0.950 . S
C570 C569 1.349 . S
C570 C582 1.349 . S
C571 C569 1.327 . S
C571 C587 1.429 . S
C571 H593 0.950 . S
C572 H568 0.949 . S
C572 C580 1.574 . S
C572 C588 1.368 . S
H573 C581 0.950 . S
H574 C579 0.950 . S
H575 C580 0.949 . S
H576 C582 0.950 . S
H577 C583 0.950 . S
H578 C584 0.949 . S
C579 H574 0.950 . S
C579 C581 1.327 . S
C579 C585 1.429 . S
C580 C572 1.574 . S
C580 H575 0.949 . S
C580 C586 1.368 . S
C581 C565 1.349 . S
C581 H573 0.950 . S
C581 C579 1.327 . S
C582 C570 1.349 . S
C582 H576 0.950 . S
C582 C583 1.327 . S
C583 H577 0.950 . S
C583 C582 1.327 . S
C583 C587 1.429 . S
C584 C567 1.574 . S
C584 H578 0.949 . S
C584 C588 1.368 . S
C585 C566 1.429 . S
C585 C579 1.429 . S
C585 C586 1.523 . S
C586 C567 1.368 . S
C586 C580 1.368 . S
C586 C585 1.523 . S
C587 C571 1.429 . S
C587 C583 1.429 . S
C587 C588 1.523 . S
C588 C572 1.368 . S
C588 C584 1.368 . S
C588 C587 1.523 . S
H589 C564 0.950 . S
H590 C566 0.950 . S
H591 C567 0.949 . S
H592 C569 0.950 . S
H593 C571 0.950 . S
C594 C595 1.349 . S
C594 C596 1.327 . S
C594 H619 0.950 . S
C595 C594 1.349 . S
C595 C611 1.349 . S
C596 C594 1.327 . S
C596 C615 1.429 . S
C596 H620 0.950 . S
C597 C614 1.574 . S
C597 C616 1.368 . S
C597 H621 0.949 . S
H598 C602 0.949 . S
C599 C600 1.349 . S
C599 C601 1.327 . S
C599 H622 0.950 . S
C600 C599 1.349 . S
C600 C612 1.349 . S
C601 C599 1.327 . S
C601 C617 1.429 . S
C601 H623 0.950 . S
C602 H598 0.949 . S
C602 C610 1.574 . S
C602 C618 1.368 . S
H603 C611 0.950 . S
H604 C609 0.950 . S
H605 C610 0.949 . S
H606 C612 0.950 . S
H607 C613 0.950 . S
H608 C614 0.949 . S
C609 H604 0.950 . S
C609 C611 1.327 . S
C609 C615 1.429 . S
C610 C602 1.574 . S
C610 H605 0.949 . S
C610 C616 1.368 . S
C611 C595 1.349 . S
C611 H603 0.950 . S
C611 C609 1.327 . S
C612 C600 1.349 . S
C612 H606 0.950 . S
C612 C613 1.327 . S
C613 H607 0.950 . S
C613 C612 1.327 . S
C613 C617 1.429 . S
C614 C597 1.574 . S
C614 H608 0.949 . S
C614 C618 1.368 . S
C615 C596 1.429 . S
C615 C609 1.429 . S
C615 C616 1.523 . S
C616 C597 1.368 . S
C616 C610 1.368 . S
C616 C615 1.523 . S
C617 C601 1.429 . S
C617 C613 1.429 . S
C617 C618 1.523 . S
C618 C602 1.368 . S
C618 C614 1.368 . S
C618 C617 1.523 . S
H619 C594 0.950 . S
H620 C596 0.950 . S
H621 C597 0.949 . S
H622 C599 0.950 . S
H623 C601 0.950 . S
C624 C625 1.349 . S
C624 C626 1.327 . S
C624 H649 0.950 . S
C625 C624 1.349 . S
C625 C641 1.349 . S
C626 C624 1.327 . S
C626 C645 1.429 . S
C626 H650 0.950 . S
C627 C644 1.574 . S
C627 C646 1.368 . S
C627 H651 0.949 . S
H628 C632 0.949 . S
C629 C630 1.349 . S
C629 C631 1.327 . S
C629 H652 0.950 . S
C630 C629 1.349 . S
C630 C642 1.349 . S
C631 C629 1.327 . S
C631 C647 1.429 . S
C631 H653 0.950 . S
C632 H628 0.949 . S
C632 C640 1.574 . S
C632 C648 1.368 . S
H633 C641 0.950 . S
H634 C639 0.950 . S
H635 C640 0.949 . S
H636 C642 0.950 . S
H637 C643 0.950 . S
H638 C644 0.949 . S
C639 H634 0.950 . S
C639 C641 1.327 . S
C639 C645 1.429 . S
C640 C632 1.574 . S
C640 H635 0.949 . S
C640 C646 1.368 . S
C641 C625 1.349 . S
C641 H633 0.950 . S
C641 C639 1.327 . S
C642 C630 1.349 . S
C642 H636 0.950 . S
C642 C643 1.327 . S
C643 H637 0.950 . S
C643 C642 1.327 . S
C643 C647 1.429 . S
C644 C627 1.574 . S
C644 H638 0.949 . S
C644 C648 1.368 . S
C645 C626 1.429 . S
C645 C639 1.429 . S
C645 C646 1.523 . S
C646 C627 1.368 . S
C646 C640 1.368 . S
C646 C645 1.523 . S
C647 C631 1.429 . S
C647 C643 1.429 . S
C647 C648 1.523 . S
C648 C632 1.368 . S
C648 C644 1.368 . S
C648 C647 1.523 . S
H649 C624 0.950 . S
H650 C626 0.950 . S
H651 C627 0.949 . S
H652 C629 0.950 . S
H653 C631 0.950 . S
C205 C107 1.208 . S
C210 C20 1.247 . S
C235 C138 1.238 . S
C240 C9 1.231 . S
C265 C2 1.161 . S
C270 C175 1.018 . S
C295 C77 1.119 . S
C300 C5 1.030 . S
C325 C179 0.991 . S
C330 C54 0.936 . S
C355 C73 0.950 . S
C360 C39 0.891 . S
C385 C36 0.895 . S
C390 C111 0.894 . S
C415 C156 1.119 1_556 S
C420 C43 1.171 . S
C445 C88 1.176 . S
C450 C122 1.183 . S
C475 C70 1.379 . S
C480 C172 1.394 . S
C505 C141 0.898 . S
C510 C104 0.964 . S
C535 C190 1.250 . S
C540 C145 1.247 . S
C565 C67 1.416 . S
C570 C33 1.417 . S
C595 C169 1.345 . S
C600 C101 1.341 . S
C625 C203 1.054 . S
C630 C135 1.051 . S
